
#######################################################################
#
#                 Cambridge Crystallographic Data Centre
#                                CCDC 
#
#######################################################################
#
# If this CIF has been generated from an entry in the Cambridge 
# Structural Database, then it will include bibliographic, chemical, 
# crystal, experimental, refinement or atomic coordinate data resulting 
# from the CCDC's data processing and validation procedures.
#
#######################################################################

data_UBUHOQ
_chemical_name_common            "2-Methylresorcinol sesquikis(4,4'-bipyridine)"
_chemical_formula_moiety         'C7 H8 O2,1.5(C10 H8 N2)'
_chemical_name_systematic        
"2-Methylbenzene-1,3-diol sesquikis(4,4'-bipyridine)"
_symmetry_cell_setting           triclinic
_symmetry_space_group_name_H-M   'P -1'
_symmetry_Int_Tables_number      2
_space_group_name_Hall           '-P 1'
loop_
_symmetry_equiv_pos_site_id
_symmetry_equiv_pos_as_xyz
1 x,y,z
2 -x,-y,-z
_cell_length_a                   7.4790(15)
_cell_length_b                   14.911(3)
_cell_length_c                   18.243(4)
_cell_angle_alpha                110.11(3)
_cell_angle_beta                 90.79(3)
_cell_angle_gamma                102.61(3)
_cell_volume                     1855.55
_exptl_crystal_colour            colorless
_exptl_crystal_description       prism
_cell_formula_units_Z            4
loop_
_atom_site_label
_atom_site_type_symbol
_atom_site_fract_x
_atom_site_fract_y
_atom_site_fract_z
N1 N 0.9422(2) 0.56599(14) 0.19159(11)
N2 N 0.0531(2) 0.43630(13) 0.31433(11)
C1 C 0.8034(3) 0.50124(18) 0.14211(14)
H1 H 0.8253 0.4723 0.0889
C2 C 0.6288(3) 0.47335(17) 0.16322(12)
H2 H 0.5352 0.4263 0.1251
C3 C 0.5909(3) 0.51417(14) 0.23998(11)
C4 C 0.7361(3) 0.58104(18) 0.29210(13)
H3 H 0.7186 0.6109 0.3457
C5 C 0.9067(3) 0.60418(18) 0.26568(14)
H4 H 1.0039 0.6500 0.3026
C6 C 0.0868(3) 0.39871(19) 0.23963(14)
H5 H -0.0113 0.3538 0.2027
C7 C 0.2571(3) 0.42161(19) 0.21299(13)
H6 H 0.2734 0.3927 0.1591
C8 C 0.4038(3) 0.48674(14) 0.26509(11)
C9 C 0.3669(3) 0.52652(17) 0.34197(13)
H7 H 0.4616 0.5726 0.3801
C10 C 0.1929(3) 0.49967(19) 0.36370(14)
H8 H 0.1723 0.5283 0.4171
N3 N 0.4474(3) 1.12900(15) 0.12460(11)
N4 N 0.5961(3) 0.86591(15) 0.36961(11)
C11 C 0.3882(3) 1.03165(17) 0.10099(12)
H9 H 0.3251 0.9975 0.0501
C12 C 0.4141(3) 0.97740(16) 0.14722(11)
H10 H 0.3688 0.9080 0.1280
C13 C 0.5066(3) 1.02549(15) 0.22152(11)
C14 C 0.5693(3) 1.12698(16) 0.24606(12)
H11 H 0.6341 1.1630 0.2964
C15 C 0.5364(3) 1.17503(18) 0.19649(14)
H12 H 0.5792 1.2445 0.2144
C16 C 0.5571(3) 0.82101(18) 0.29235(13)
H13 H 0.5484 0.7523 0.2705
C17 C 0.5286(3) 0.86949(17) 0.24230(12)
H14 H 0.5019 0.8343 0.1875
C18 C 0.5392(3) 0.97030(15) 0.27270(11)
C19 C 0.5823(3) 1.01704(16) 0.35322(11)
H15 H 0.5922 1.0857 0.3770
C20 C 0.6107(3) 0.96236(18) 0.39862(12)
H16 H 0.6424 0.9958 0.4534
N5 N -0.0928(3) 0.06342(17) 0.08299(12)
N6 N 0.1324(3) -0.06137(17) 0.41076(12)
C21 C -0.1343(3) -0.0286(2) 0.08178(13)
H17 H -0.1969 -0.0788 0.0351
C22 C -0.0928(3) -0.05633(17) 0.14378(12)
H18 H -0.1252 -0.1235 0.1388
C23 C -0.0033(3) 0.01492(15) 0.21314(11)
C24 C 0.0438(3) 0.11139(17) 0.21513(13)
H19 H 0.1065 0.1632 0.2609
C25 C -0.0026(4) 0.13040(19) 0.14906(15)
H20 H 0.0329 0.1965 0.1512
C26 C 0.1068(3) 0.0269(2) 0.41893(13)
H21 H 0.1191 0.0738 0.4706
C27 C 0.0637(3) 0.05495(17) 0.35775(12)
H22 H 0.0480 0.1195 0.3678
C28 C 0.0431(3) -0.01146(15) 0.28135(11)
C29 C 0.0708(3) -0.10384(17) 0.27182(13)
H23 H 0.0590 -0.1526 0.2210
C30 C 0.1160(4) -0.12390(19) 0.33758(15)
H24 H 0.1367 -0.1871 0.3296
O1 O 0.2749(2) 0.60756(12) 0.12944(9)
O2 O 0.58086(19) 0.75607(11) -0.03879(9)
C31 C 0.4262(2) 0.68130(14) 0.04488(11)
C32 C 0.2651(3) 0.65660(15) 0.07945(11)
C33 C 0.1041(3) 0.68173(16) 0.06282(12)
H25 H -0.0047 0.6636 0.0858
C34 C 0.1043(3) 0.73334(16) 0.01244(12)
H26 H -0.0050 0.7509 0.0013
C35 C 0.2622(3) 0.75975(15) -0.02192(12)
H27 H 0.2615 0.7954 -0.0561
C36 C 0.4217(3) 0.73336(14) -0.00570(11)
C37 C 0.5983(3) 0.65232(17) 0.06172(13)
H28 H 0.6063 0.6544 0.1160
H29 H 0.7060 0.6982 0.0543
H30 H 0.5946 0.5855 0.0258
H37 H 0.161(4) 0.595(2) 0.1504(16)
H40 H 0.567(4) 0.797(2) -0.0650(17)
O3 O 0.39331(19) 0.23991(11) 0.53469(9)
O4 O 0.7165(2) 0.38798(12) 0.36979(9)
C38 C 0.5560(3) 0.31271(14) 0.45173(11)
C39 C 0.5556(3) 0.26222(14) 0.50371(11)
C40 C 0.7132(3) 0.23647(15) 0.52302(12)
H31 H 0.7107 0.2011 0.5577
C41 C 0.8752(3) 0.26352(16) 0.49054(12)
H32 H 0.9837 0.2468 0.5036
C42 C 0.8798(3) 0.31432(16) 0.43957(12)
H33 H 0.9908 0.3325 0.4179
C43 C 0.7205(3) 0.33875(15) 0.42010(11)
C44 C 0.3838(3) 0.33885(19) 0.43052(14)
H34 H 0.3785 0.4036 0.4676
H35 H 0.2757 0.2895 0.4330
H36 H 0.3854 0.3404 0.3773
H38 H 0.830(4) 0.403(2) 0.3526(16)
H39 H 0.401(5) 0.197(2) 0.5632(18)
loop_
_geom_bond_atom_site_label_1
_geom_bond_atom_site_label_2
_geom_bond_site_symmetry_1
_geom_bond_site_symmetry_2
N1 C1 1_555 1_555
N2 C6 1_555 1_555
C1 H1 1_555 1_555
C2 C1 1_555 1_555
H2 C2 1_555 1_555
C3 C2 1_555 1_555
C4 C3 1_555 1_555
H3 C4 1_555 1_555
C5 N1 1_555 1_555
H4 C5 1_555 1_555
C6 H5 1_555 1_555
C7 C6 1_555 1_555
H6 C7 1_555 1_555
C8 C3 1_555 1_555
C9 C8 1_555 1_555
H7 C9 1_555 1_555
C10 N2 1_555 1_555
H8 C10 1_555 1_555
N3 C11 1_555 1_555
N4 C16 1_555 1_555
C11 H9 1_555 1_555
C12 C11 1_555 1_555
H10 C12 1_555 1_555
C13 C12 1_555 1_555
C14 C13 1_555 1_555
H11 C14 1_555 1_555
C15 N3 1_555 1_555
H12 C15 1_555 1_555
C16 H13 1_555 1_555
C17 C16 1_555 1_555
H14 C17 1_555 1_555
C18 C13 1_555 1_555
C19 C18 1_555 1_555
H15 C19 1_555 1_555
C20 N4 1_555 1_555
H16 C20 1_555 1_555
N5 C21 1_555 1_555
N6 C26 1_555 1_555
C21 H17 1_555 1_555
C22 C21 1_555 1_555
H18 C22 1_555 1_555
C23 C22 1_555 1_555
C24 C23 1_555 1_555
H19 C24 1_555 1_555
C25 N5 1_555 1_555
H20 C25 1_555 1_555
C26 H21 1_555 1_555
C27 C26 1_555 1_555
H22 C27 1_555 1_555
C28 C23 1_555 1_555
C29 C28 1_555 1_555
H23 C29 1_555 1_555
C30 N6 1_555 1_555
H24 C30 1_555 1_555
O1 C32 1_555 1_555
O2 C36 1_555 1_555
C31 C32 1_555 1_555
C32 C33 1_555 1_555
C33 H25 1_555 1_555
C34 C33 1_555 1_555
H26 C34 1_555 1_555
C35 C34 1_555 1_555
H27 C35 1_555 1_555
C36 C31 1_555 1_555
C37 C31 1_555 1_555
H28 C37 1_555 1_555
H29 C37 1_555 1_555
H30 C37 1_555 1_555
O3 C39 1_555 1_555
O4 C43 1_555 1_555
C38 C39 1_555 1_555
C39 C40 1_555 1_555
C40 H31 1_555 1_555
C41 C40 1_555 1_555
H32 C41 1_555 1_555
C42 C41 1_555 1_555
H33 C42 1_555 1_555
C43 C38 1_555 1_555
C44 C38 1_555 1_555
H34 C44 1_555 1_555
H35 C44 1_555 1_555
H36 C44 1_555 1_555
H37 O1 1_555 1_555
H38 O4 1_555 1_555
H39 O3 1_555 1_555
H40 O2 1_555 1_555
C4 C5 1_555 1_555
C7 C8 1_555 1_555
C9 C10 1_555 1_555
C14 C15 1_555 1_555
C17 C18 1_555 1_555
C19 C20 1_555 1_555
C24 C25 1_555 1_555
C27 C28 1_555 1_555
C29 C30 1_555 1_555
C35 C36 1_555 1_555
C42 C43 1_555 1_555

#END
