
#######################################################################
#
#                 Cambridge Crystallographic Data Centre
#                                CCDC 
#
#######################################################################
#
# If this CIF has been generated from an entry in the Cambridge 
# Structural Database, then it will include bibliographic, chemical, 
# crystal, experimental, refinement or atomic coordinate data resulting 
# from the CCDC's data processing and validation procedures.
#
#######################################################################

data_UBUJOS
_chemical_name_common            
"bis(2-Methylresorcinol) 4,4'-bipyridine phenazine"
_chemical_formula_moiety         '2(C7 H8 O2),C10 H8 N2,C12 H8 N2'
_chemical_name_systematic        
"bis(2-Methylbenzene-1,3-diol) 4,4'-bipyridine phenazine"
_symmetry_cell_setting           monoclinic
_symmetry_space_group_name_H-M   'P 21/c'
_symmetry_Int_Tables_number      14
_space_group_name_Hall           '-P 2ybc'
loop_
_symmetry_equiv_pos_site_id
_symmetry_equiv_pos_as_xyz
1 x,y,z
2 -x,1/2+y,1/2-z
3 -x,-y,-z
4 x,1/2-y,1/2+z
_cell_length_a                   7.6576(9)
_cell_length_b                   19.710(2)
_cell_length_c                   11.6365(12)
_cell_angle_alpha                90
_cell_angle_beta                 125.572(7)
_cell_angle_gamma                90
_cell_volume                     1428.56
_exptl_crystal_colour            yellow
_exptl_crystal_description       block
_cell_formula_units_Z            2
loop_
_atom_site_label
_atom_site_type_symbol
_atom_site_fract_x
_atom_site_fract_y
_atom_site_fract_z
N1 N 0.59943(19) -0.06409(6) 0.55706(12)
C1 C 0.6817(2) -0.00661(7) 0.63159(15)
C2 C 0.4177(2) -0.05817(7) 0.42559(14)
C3 C 0.3228(2) -0.11706(7) 0.34022(16)
H1 H 0.3866 -0.1602 0.3768
C4 C 0.1418(2) -0.11181(7) 0.20698(16)
H2 H 0.0801 -0.1515 0.1507
C5 C 0.0430(2) -0.04794(8) 0.15031(15)
H3 H -0.0836 -0.0455 0.0565
C6 C 0.8737(2) -0.00966(7) 0.77229(15)
H4 H 0.9428 -0.0520 0.8114
N1B N 0.40057(19) 0.06409(6) 0.44294(12)
C1B C 0.3183(2) 0.00661(7) 0.36841(15)
C2B C 0.5823(2) 0.05817(7) 0.57441(14)
C3B C 0.6772(2) 0.11706(7) 0.65978(16)
H1B H 0.6134 0.1602 0.6232
C4B C 0.8582(2) 0.11181(7) 0.79302(16)
H2B H 0.9199 0.1515 0.8493
C5B C 0.9570(2) 0.04794(8) 0.84969(15)
H3B H 1.0836 0.0455 0.9435
C6B C 0.1263(2) 0.00966(7) 0.22771(15)
H4B H 0.0572 0.0520 0.1886
N2 N -0.41424(18) -0.08456(6) 0.18620(12)
C7 C -0.4169(2) -0.01759(7) 0.20134(15)
H5 H -0.5326 0.0076 0.1253
C8 C -0.2607(2) 0.01737(7) 0.32148(14)
H6 H -0.2720 0.0651 0.3269
C9 C -0.0871(2) -0.01753(6) 0.43433(13)
C10 C -0.0848(2) -0.08729(7) 0.41853(14)
H7 H 0.0295 -0.1138 0.4923
C11 C -0.2492(2) -0.11809(7) 0.29511(15)
H8 H -0.2443 -0.1659 0.2875
N2B N 0.41424(18) 0.08456(6) 0.81380(12)
C7B C 0.4169(2) 0.01759(7) 0.79866(15)
H5B H 0.5326 -0.0076 0.8747
C8B C 0.2607(2) -0.01737(7) 0.67852(14)
H6B H 0.2720 -0.0651 0.6731
C9B C 0.0871(2) 0.01753(6) 0.56567(13)
C10B C 0.0848(2) 0.08729(7) 0.58147(14)
H7B H -0.0295 0.1138 0.5077
C11B C 0.2492(2) 0.11809(7) 0.70489(15)
H8B H 0.2443 0.1659 0.7125
O1 O 0.27804(15) -0.15324(5) 0.95205(9)
H9 H 0.3864 -0.1307 1.0327
O2 O 0.10814(15) -0.24751(5) 0.52443(9)
H10 H 0.1729 -0.2754 0.4990
C12 C -0.0384(2) -0.20937(7) 0.68737(14)
H11 H -0.0436 -0.2417 0.7493
H12 H -0.1237 -0.2268 0.5904
H13 H -0.0972 -0.1657 0.6899
C13 C 0.1913(2) -0.19998(6) 0.73731(13)
C14 C 0.2596(2) -0.21933(6) 0.65375(13)
C15 C 0.4690(2) -0.20860(7) 0.69688(14)
H14 H 0.5108 -0.2208 0.6371
C16 C 0.6159(2) -0.17988(7) 0.82794(15)
H15 H 0.7596 -0.1727 0.8583
C17 C 0.5562(2) -0.16145(7) 0.91525(14)
H16 H 0.6585 -0.1424 1.0056
C18 C 0.3449(2) -0.17114(6) 0.86927(13)
loop_
_geom_bond_atom_site_label_1
_geom_bond_atom_site_label_2
_geom_bond_site_symmetry_1
_geom_bond_site_symmetry_2
N1 C1 1_555 1_555
C1 C6 1_555 1_555
C2 N1 1_555 1_555
C3 C2 1_555 1_555
H1 C3 1_555 1_555
C4 C3 1_555 1_555
H2 C4 1_555 1_555
C5 C4 1_555 1_555
H3 C5 1_555 1_555
C6 H4 1_555 1_555
N2 C7 1_555 1_555
C7 H5 1_555 1_555
C8 C7 1_555 1_555
H6 C8 1_555 1_555
C9 C8 1_555 1_555
C10 C9 1_555 1_555
H7 C10 1_555 1_555
C11 N2 1_555 1_555
H8 C11 1_555 1_555
O1 H9 1_555 1_555
O2 H10 1_555 1_555
C12 H11 1_555 1_555
H12 C12 1_555 1_555
H13 C12 1_555 1_555
C13 C12 1_555 1_555
C14 O2 1_555 1_555
C15 C14 1_555 1_555
H14 C15 1_555 1_555
C16 C15 1_555 1_555
H15 C16 1_555 1_555
C17 C16 1_555 1_555
H16 C17 1_555 1_555
C18 O1 1_555 1_555
N1B C1B 1_555 1_555
C1B C2 1_555 1_555
C2B C1 1_555 1_555
C3B C2B 1_555 1_555
H1B C3B 1_555 1_555
C4B C3B 1_555 1_555
H2B C4B 1_555 1_555
C5B C6 1_555 1_555
H3B C5B 1_555 1_555
C6B C5 1_555 1_555
H4B C6B 1_555 1_555
N2B C7B 1_555 1_555
C7B H5B 1_555 1_555
C8B C7B 1_555 1_555
H6B C8B 1_555 1_555
C9B C9 1_555 1_555
C10B C9B 1_555 1_555
H7B C10B 1_555 1_555
C11B N2B 1_555 1_555
H8B C11B 1_555 1_555
C10 C11 1_555 1_555
C13 C14 1_555 1_555
C13 C18 1_555 1_555
C17 C18 1_555 1_555
N1B C2B 1_555 1_555
C1B C6B 1_555 1_555
C4B C5B 1_555 1_555
C8B C9B 1_555 1_555
C10B C11B 1_555 1_555

#END
