
#######################################################################
#
#                 Cambridge Crystallographic Data Centre
#                                CCDC 
#
#######################################################################
#
# If this CIF has been generated from an entry in the Cambridge 
# Structural Database, then it will include bibliographic, chemical, 
# crystal, experimental, refinement or atomic coordinate data resulting 
# from the CCDC's data processing and validation procedures.
#
#######################################################################

data_UBUJIM
_chemical_name_common            "5-Methylresorcinol sesquikis(4,4'-bipyridine)"
_chemical_formula_moiety         'C7 H8 O2,1.5(C10 H8 N2)'
_chemical_name_systematic        
"5-Methylbenzene-1,3-diol sesquikis(4,4'-bipyridine)"
_symmetry_cell_setting           triclinic
_symmetry_space_group_name_H-M   'P -1'
_symmetry_Int_Tables_number      2
_space_group_name_Hall           '-P 1'
loop_
_symmetry_equiv_pos_site_id
_symmetry_equiv_pos_as_xyz
1 x,y,z
2 -x,-y,-z
_cell_length_a                   8.8290(18)
_cell_length_b                   10.079(2)
_cell_length_c                   12.092(2)
_cell_angle_alpha                67.68(3)
_cell_angle_beta                 77.45(3)
_cell_angle_gamma                69.16(3)
_cell_volume                     926.082
_exptl_crystal_colour            colorless
_exptl_crystal_description       platelet
_cell_formula_units_Z            2
_exptl_crystal_recrystallization_method methanol
loop_
_atom_site_label
_atom_site_type_symbol
_atom_site_fract_x
_atom_site_fract_y
_atom_site_fract_z
N1 N 0.8878(2) 0.2709(2) 0.51886(18)
N2 N 0.0987(2) 0.3429(2) 0.83776(17)
C1 C 0.8096(3) 0.1703(3) 0.5402(2)
C2 C 0.6553(3) 0.1797(3) 0.6003(2)
C3 C 0.5730(3) 0.3017(2) 0.64086(19)
C4 C 0.6520(3) 0.4096(3) 0.6164(2)
C5 C 0.8067(3) 0.3892(3) 0.5572(2)
C6 C 0.1506(3) 0.2635(3) 0.7621(2)
C7 C 0.3030(3) 0.2469(3) 0.6968(2)
C8 C 0.4088(3) 0.3144(2) 0.70913(19)
C9 C 0.3556(3) 0.3941(3) 0.7901(2)
C10 C 0.2014(3) 0.4057(3) 0.8511(2)
H1 H 0.86330 0.08710 0.51230
H2 H 0.60630 0.10420 0.61370
H3 H 0.59970 0.49600 0.64020
H4 H 0.85900 0.46280 0.54270
H5 H 0.08030 0.21650 0.75260
H6 H 0.33480 0.18980 0.64400
H7 H 0.42430 0.43980 0.80330
H8 H 0.16670 0.46120 0.90520
N3 N 0.1027(2) 0.9829(2) 0.14108(19)
C11 C 0.1898(3) 0.8993(3) 0.0728(3)
C12 C 0.3442(3) 0.9016(3) 0.0166(2)
C13 C 0.4168(2) 0.9970(2) 0.02912(19)
C14 C 0.3261(3) 1.0847(3) 0.0999(2)
C15 C 0.1721(3) 1.0741(3) 0.1530(2)
H9 H 0.14330 0.83400 0.06180
H10 H 0.40040 0.83820 -0.03020
H11 H 0.36890 1.15170 0.11220
H12 H 0.11280 1.13570 0.20070
N3A N 0.8973(2) 1.0171(2) -0.14108(19)
C11A C 0.8102(3) 1.1007(3) -0.0728(3)
C12A C 0.6558(3) 1.0984(3) -0.0166(2)
C13A C 0.5832(2) 1.0030(2) -0.02912(19)
C14A C 0.6739(3) 0.9153(3) -0.0999(2)
C15A C 0.8279(3) 0.9259(3) -0.1530(2)
H9A H 0.85670 1.16600 -0.06180
H10A H 0.59960 1.16180 0.03020
H11A H 0.63110 0.84830 -0.11220
H12A H 0.88720 0.86430 -0.20070
O1 O 0.21843(19) 0.53767(17) 0.08256(14)
O2 O 0.2191(2) 0.15786(18) 0.47551(14)
C16 C 0.5512(2) 0.2458(2) 0.25098(19)
C17 C 0.4652(2) 0.3653(2) 0.16051(18)
C18 C 0.2957(2) 0.4191(2) 0.17473(18)
C19 C 0.2099(2) 0.3508(2) 0.28068(18)
C20 C 0.2960(3) 0.2293(2) 0.37072(19)
C21 C 0.4665(3) 0.1775(2) 0.35611(19)
C22 C 0.7356(3) 0.1914(3) 0.2363(2)
H13 H 0.109(4) 0.586(4) 0.117(3)
H14 H 0.52260 0.41080 0.08810
H15 H 0.105(4) 0.203(4) 0.485(3)
H16 H 0.09440 0.38680 0.29100
H17 H 0.52440 0.09550 0.41820
H18 H 0.77400 0.22130 0.15070
H19 H 0.77360 0.08150 0.27170
H20 H 0.77840 0.23620 0.27700
loop_
_geom_bond_atom_site_label_1
_geom_bond_atom_site_label_2
_geom_bond_site_symmetry_1
_geom_bond_site_symmetry_2
N1 C1 1_555 1_555
N2 C6 1_555 1_555
C1 C2 1_555 1_555
C2 C3 1_555 1_555
C3 C4 1_555 1_555
C4 C5 1_555 1_555
C5 N1 1_555 1_555
C6 C7 1_555 1_555
C7 C8 1_555 1_555
C8 C3 1_555 1_555
C9 C8 1_555 1_555
C10 N2 1_555 1_555
H1 C1 1_555 1_555
H2 C2 1_555 1_555
H3 C4 1_555 1_555
H4 C5 1_555 1_555
H5 C6 1_555 1_555
H6 C7 1_555 1_555
H7 C9 1_555 1_555
H8 C10 1_555 1_555
N3 C11 1_555 1_555
C11 C12 1_555 1_555
C12 C13 1_555 1_555
C13 C14 1_555 1_555
C14 C15 1_555 1_555
C15 N3 1_555 1_555
H9 C11 1_555 1_555
H10 C12 1_555 1_555
H11 C14 1_555 1_555
H12 C15 1_555 1_555
O1 C18 1_555 1_555
O2 C20 1_555 1_555
C16 C17 1_555 1_555
C17 C18 1_555 1_555
C18 C19 1_555 1_555
C19 C20 1_555 1_555
C20 C21 1_555 1_555
C21 C16 1_555 1_555
C22 C16 1_555 1_555
H13 O1 1_555 1_555
H14 C17 1_555 1_555
H15 O2 1_555 1_555
H16 C19 1_555 1_555
H17 C21 1_555 1_555
H18 C22 1_555 1_555
H19 C22 1_555 1_555
H20 C22 1_555 1_555
N3A C11A 1_555 1_555
C11A C12A 1_555 1_555
C12A C13A 1_555 1_555
C13A C13 1_555 1_555
C14A C13A 1_555 1_555
C15A N3A 1_555 1_555
H9A C11A 1_555 1_555
H10A C12A 1_555 1_555
H11A C14A 1_555 1_555
H12A C15A 1_555 1_555
C9 C10 1_555 1_555
C14A C15A 1_555 1_555

#END
