
#######################################################################
#
#                 Cambridge Crystallographic Data Centre
#                                CCDC 
#
#######################################################################
#
# If this CIF has been generated from an entry in the Cambridge 
# Structural Database, then it will include bibliographic, chemical, 
# crystal, experimental, refinement or atomic coordinate data resulting 
# from the CCDC's data processing and validation procedures.
#
#######################################################################

data_UBUJOT
_chemical_formula_moiety         'C31 H21 F6 N3 O1 S2,2(H2 O1)'
_chemical_name_systematic        
'4-{4-[2-(2,5-dimethylthiophen-3-yl)-3,3,4,4,5,5-hexafluorocyclopent-1-en-1-yl]-5-methylthiophen-2-yl}-N-(1,8-naphthyridin-2-yl)benzamide dihydrate'
_symmetry_cell_setting           triclinic
_symmetry_space_group_name_H-M   'P -1'
_symmetry_Int_Tables_number      2
_space_group_name_Hall           '-P 1'
loop_
_symmetry_equiv_pos_site_id
_symmetry_equiv_pos_as_xyz
1 x,y,z
2 -x,-y,-z
_cell_length_a                   8.689(6)
_cell_length_b                   12.763(9)
_cell_length_c                   14.111(10)
_cell_angle_alpha                96.055(8)
_cell_angle_beta                 91.558(9)
_cell_angle_gamma                99.624(9)
_cell_volume                     1532.64
_exptl_crystal_colour            colorless
_exptl_crystal_description       BLOCK
_cell_formula_units_Z            2
loop_
_atom_site_label
_atom_site_type_symbol
_atom_site_fract_x
_atom_site_fract_y
_atom_site_fract_z
S1 S 0.09183(7) 0.80688(5) 0.41589(4)
S2 S -0.03094(9) 0.38138(6) 0.19029(6)
C1 C 0.1869(3) 0.72708(19) 0.33950(17)
C2 C 0.1136(3) 0.4445(2) 0.27393(19)
C3 C 0.1934(3) 0.85183(19) 0.60896(16)
C4 C 0.2077(3) 0.79345(19) 0.51413(16)
C5 C 0.3908(3) 0.5401(2) 0.27843(18)
N1 N 0.3233(3) 0.98123(18) 1.11220(16)
C6 C 0.2549(3) 0.8749(2) 0.77866(18)
H1 H 0.2994 0.8513 0.8314
C7 C 0.2460(3) 0.48072(19) 0.22893(17)
C8 C 0.3117(3) 0.7287(2) 0.48819(17)
H2 H 0.3836 0.7112 0.5312
C9 C 0.3014(3) 0.68972(19) 0.38906(17)
N2 N 0.2436(4) 0.9962(2) 0.96086(16)
H3 H 0.2862 0.9405 0.9480
C10 C 0.2537(4) 1.0373(2) 1.05687(19)
O1 O 0.1099(4) 1.1080(2) 0.89077(16)
C11 C 0.2585(3) 0.8193(2) 0.68991(18)
H4 H 0.3055 0.7588 0.6839
C12 C 0.1426(3) 0.7135(2) 0.23533(18)
H5 H 0.2049 0.6674 0.2021
H6 H 0.1603 0.7820 0.2114
H7 H 0.0341 0.6824 0.2255
C13 C 0.2297(3) 0.4540(2) 0.12715(18)
H8 H 0.3103 0.4717 0.0866
C14 C 0.4117(3) 0.6245(2) 0.34703(18)
F1 F 0.5989(3) 0.6256(3) 0.47326(18)
C15 C 0.1249(4) 0.9424(3) 0.6209(2)
H9 H 0.0803 0.9659 0.5681
N3 N 0.4101(3) 0.9503(2) 1.26009(18)
C16 C 0.1858(3) 0.9655(2) 0.79042(18)
F2 F 0.5770(3) 0.5058(3) 0.16380(17)
C17 C 0.2847(4) 1.1046(2) 1.2481(2)
C18 C 0.0869(4) 0.4007(2) 0.0957(2)
C19 C 0.3387(3) 1.0126(2) 1.20733(19)
F3 F 0.6385(12) 0.7487(9) 0.4038(7)
C20 C 0.5806(4) 0.6512(3) 0.3830(2)
C21 C 0.3727(4) 1.0662(3) 1.3996(2)
H10 H 0.3852 1.0809 1.4656
C22 C 0.1214(4) 0.9986(3) 0.7098(2)
H11 H 0.0753 1.0595 0.7158
C23 C 0.1760(4) 1.0312(2) 0.8843(2)
C24 C 0.5438(4) 0.5053(3) 0.2555(2)
C25 C 0.0862(4) 0.4489(3) 0.3779(2)
H12 H 0.1782 0.4868 0.4134
H13 H 0.0627 0.3776 0.3955
H14 H -0.0001 0.4853 0.3918
C26 C 0.1953(5) 1.1304(3) 1.0911(2)
H15 H 0.1467 1.1682 1.0498
C27 C 0.2121(5) 1.1629(3) 1.1860(2)
H16 H 0.1754 1.2242 1.2103
C28 C 0.3037(4) 1.1305(3) 1.3476(2)
H17 H 0.2696 1.1906 1.3771
C29 C 0.0277(5) 0.3608(3) -0.0053(2)
H18 H 0.1094 0.3786 -0.0482
H19 H -0.0598 0.3937 -0.0210
H20 H -0.0042 0.2846 -0.0109
F4 F 0.5439(3) 0.4058(2) 0.2740(3)
C30 C 0.4245(4) 0.9780(3) 1.3528(2)
H21 H 0.4728 0.9355 1.3897
C31 C 0.6678(4) 0.5814(5) 0.3179(3)
F5 F 0.710(2) 0.4966(10) 0.3866(7)
F6 F 0.7835(13) 0.6097(12) 0.2872(11)
O2 O 0.4614(8) 0.7191(5) 1.0150(6)
F7? F 0.6416(15) 0.7552(8) 0.3684(15)
F8? F 0.7886(10) 0.5593(10) 0.3486(9)
F9? F 0.7317(11) 0.6682(8) 0.2464(6)
O3? O 0.3826(5) 0.8002(2) 0.9958(2)
H22? H 0.3586 0.9255 1.0885
H23? H 0.4444 0.8952 1.2341
loop_
_geom_bond_atom_site_label_1
_geom_bond_atom_site_label_2
_geom_bond_site_symmetry_1
_geom_bond_site_symmetry_2
S1 C1 1_555 1_555
S2 C2 1_555 1_555
C1 C9 1_555 1_555
C2 C7 1_555 1_555
C3 C4 1_555 1_555
C4 S1 1_555 1_555
C5 C7 1_555 1_555
N1 C10 1_555 1_555
C6 H1 1_555 1_555
C7 C13 1_555 1_555
C8 C4 1_555 1_555
H2 C8 1_555 1_555
C9 C8 1_555 1_555
N2 H3 1_555 1_555
C10 N2 1_555 1_555
O1 C23 1_555 1_555
C11 C3 1_555 1_555
H4 C11 1_555 1_555
C12 C1 1_555 1_555
H5 C12 1_555 1_555
H6 C12 1_555 1_555
H7 C12 1_555 1_555
C13 H8 1_555 1_555
C14 C5 1_555 1_555
F1 C20 1_555 1_555
C15 C3 1_555 1_555
H9 C15 1_555 1_555
N3 C19 1_555 1_555
C16 C6 1_555 1_555
F2 C24 1_555 1_555
C17 C19 1_555 1_555
C18 S2 1_555 1_555
C19 N1 1_555 1_555
F3 C20 1_555 1_555
C20 C14 1_555 1_555
C21 H10 1_555 1_555
C22 C15 1_555 1_555
H11 C22 1_555 1_555
C23 N2 1_555 1_555
C24 C5 1_555 1_555
C25 C2 1_555 1_555
H12 C25 1_555 1_555
H13 C25 1_555 1_555
H14 C25 1_555 1_555
C26 C10 1_555 1_555
H15 C26 1_555 1_555
C27 C17 1_555 1_555
H16 C27 1_555 1_555
C28 C17 1_555 1_555
H17 C28 1_555 1_555
C29 C18 1_555 1_555
H18 C29 1_555 1_555
H19 C29 1_555 1_555
H20 C29 1_555 1_555
F4 C24 1_555 1_555
C30 N3 1_555 1_555
H21 C30 1_555 1_555
C31 C20 1_555 1_555
F5 C31 1_555 1_555
F6 C31 1_555 1_555
C6 C11 1_555 1_555
C9 C14 1_555 1_555
C13 C18 1_555 1_555
C16 C22 1_555 1_555
C16 C23 1_555 1_555
C21 C28 1_555 1_555
C21 C30 1_555 1_555
C24 C31 1_555 1_555
C26 C27 1_555 1_555

#END
