
#######################################################################
#
#                 Cambridge Crystallographic Data Centre
#                                CCDC 
#
#######################################################################
#
# If this CIF has been generated from an entry in the Cambridge 
# Structural Database, then it will include bibliographic, chemical, 
# crystal, experimental, refinement or atomic coordinate data resulting 
# from the CCDC's data processing and validation procedures.
#
#######################################################################

data_UBUJEI
_chemical_name_common            
"bis(2-Methylresorcinol) 4,4'-bipyridine 2,2'-bithiophene"
_chemical_formula_moiety         '2(C7 H8 O2),C10 H8 N2,C8 H6 S2'
_chemical_name_systematic        
"bis(2-Methylbenzene-1,3-diol) 4,4'-bipyridine 2,2'-bithiophene"
_symmetry_cell_setting           monoclinic
_symmetry_space_group_name_H-M   'P 21/c'
_symmetry_Int_Tables_number      14
_space_group_name_Hall           '-P 2ybc'
loop_
_symmetry_equiv_pos_site_id
_symmetry_equiv_pos_as_xyz
1 x,y,z
2 -x,1/2+y,1/2-z
3 -x,-y,-z
4 x,1/2-y,1/2+z
_cell_length_a                   7.827(6)
_cell_length_b                   18.987(14)
_cell_length_c                   11.956(6)
_cell_angle_alpha                90
_cell_angle_beta                 126.99(3)
_cell_angle_gamma                90
_cell_volume                     1419.2
_exptl_crystal_colour            colorless
_exptl_crystal_description       block
_cell_formula_units_Z            2
loop_
_atom_site_label
_atom_site_type_symbol
_atom_site_fract_x
_atom_site_fract_y
_atom_site_fract_z
N1 N 0.8889(2) 0.08654(8) 0.32030(14)
C1 C 0.5823(2) 0.01798(8) 0.06703(14)
C2 C 0.7622(3) -0.01691(8) 0.17723(17)
H1 H 0.7842 -0.0651 0.1679
C3 C 0.9091(3) 0.01848(9) 0.30063(17)
H2 H 1.0302 -0.0066 0.3750
C4 C 0.5630(3) 0.08901(9) 0.08760(18)
H3 H 0.4438 0.1156 0.0154
C5 C 0.7198(3) 0.12034(9) 0.21458(18)
H4 H 0.7048 0.1689 0.2263
N1B N 0.1111(2) -0.08654(8) -0.32030(14)
C1B C 0.4177(2) -0.01798(8) -0.06703(14)
C2B C 0.2378(3) 0.01691(8) -0.17723(17)
H1B H 0.2158 0.0651 -0.1679
C3B C 0.0909(3) -0.01848(9) -0.30063(17)
H2B H -0.0302 0.0066 -0.3750
C4B C 0.4370(3) -0.08901(9) -0.08760(18)
H3B H 0.5562 -0.1156 -0.0154
C5B C 0.2802(3) -0.12034(9) -0.21458(18)
H4B H 0.2952 -0.1689 -0.2263
S1 S 0.09583(9) 0.09916(3) 0.11703(6)
C6 C 0.0869(3) 0.01256(10) 0.07002(19)
C7 C 0.2583(3) -0.02543(11) 0.1804(2)
H5 H 0.2839 -0.0739 0.1762
C8 C 0.3216(4) 0.08567(13) 0.2819(2)
H6 H 0.3911 0.1210 0.3522
C9 C 0.3906(4) 0.01811(14) 0.3007(2)
H7 H 0.5158 0.0013 0.3864
S1B S -0.09583(9) -0.09916(3) -0.11703(6)
C6B C -0.0869(3) -0.01256(10) -0.07002(19)
C7B C -0.2583(3) 0.02543(11) -0.1804(2)
H5B H -0.2839 0.0739 -0.1762
C8B C -0.3216(4) -0.08567(13) -0.2819(2)
H6B H -0.3911 -0.1210 -0.3522
C9B C -0.3906(4) -0.01811(14) -0.3007(2)
H7B H -0.5158 -0.0013 -0.3864
O1 O 0.18828(19) 0.34713(6) 0.05551(12)
O2 O 0.36324(19) 0.23972(7) 0.46903(12)
C10 C 0.1246(2) 0.32717(8) 0.13579(15)
C11 C 0.2122(2) 0.27297(8) 0.34529(15)
C12 C 0.2765(2) 0.29370(7) 0.26332(15)
C13 C -0.0827(2) 0.33998(8) 0.09274(16)
H8 H -0.1848 0.3621 0.0053
C14 C 0.0081(3) 0.28681(9) 0.30586(17)
H9 H -0.0304 0.2737 0.3647
C15 C -0.1381(3) 0.32012(9) 0.17875(17)
H10 H -0.2783 0.3295 0.1502
C16 C 0.5007(3) 0.28114(10) 0.31132(18)
H11 H 0.5340 0.3142 0.2639
H12 H 0.5135 0.2328 0.2886
H13 H 0.6011 0.2883 0.4128
H14 H 0.306(3) 0.2187(12) 0.498(2)
H15 H 0.070(5) 0.3618(16) -0.021(3)
loop_
_geom_bond_atom_site_label_1
_geom_bond_atom_site_label_2
_geom_bond_site_symmetry_1
_geom_bond_site_symmetry_2
N1 C3 1_555 1_555
C1 C2 1_555 1_555
C2 H1 1_555 1_555
C3 C2 1_555 1_555
H2 C3 1_555 1_555
C4 C1 1_555 1_555
H3 C4 1_555 1_555
C5 N1 1_555 1_555
H4 C5 1_555 1_555
S1 C6 1_555 1_555
C6 C7 1_555 1_555
C7 H5 1_555 1_555
C8 S1 1_555 1_555
H6 C8 1_555 1_555
C9 C7 1_555 1_555
H7 C9 1_555 1_555
O1 C10 1_555 1_555
O2 C11 1_555 1_555
C10 C12 1_555 1_555
C11 C12 1_555 1_555
C12 C16 1_555 1_555
C13 C10 1_555 1_555
H8 C13 1_555 1_555
C14 C11 1_555 1_555
H9 C14 1_555 1_555
C15 C13 1_555 1_555
H10 C15 1_555 1_555
C16 H11 1_555 1_555
H12 C16 1_555 1_555
H13 C16 1_555 1_555
H14 O2 1_555 1_555
H15 O1 1_555 1_555
N1B C3B 1_555 1_555
C1B C1 1_555 1_555
C2B C1B 1_555 1_555
H1B C2B 1_555 1_555
C3B C2B 1_555 1_555
H2B C3B 1_555 1_555
C4B C1B 1_555 1_555
H3B C4B 1_555 1_555
C5B N1B 1_555 1_555
H4B C5B 1_555 1_555
S1B C6B 1_555 1_555
C6B C6 1_555 1_555
C7B C6B 1_555 1_555
H5B C7B 1_555 1_555
C8B S1B 1_555 1_555
H6B C8B 1_555 1_555
C9B C7B 1_555 1_555
H7B C9B 1_555 1_555
C4 C5 1_555 1_555
C8 C9 1_555 1_555
C14 C15 1_555 1_555
C4B C5B 1_555 1_555
C8B C9B 1_555 1_555

#END
