
#######################################################################
#
#                 Cambridge Crystallographic Data Centre
#                                CCDC 
#
#######################################################################
#
# If this CIF has been generated from an entry in the Cambridge 
# Structural Database, then it will include bibliographic, chemical, 
# crystal, experimental, refinement or atomic coordinate data resulting 
# from the CCDC's data processing and validation procedures.
#
#######################################################################

data_UBUJIK
_chemical_formula_moiety         'C8 H10 N4 O1 S1,H2 O1'
_chemical_name_systematic        
'6-Methyl-2-picolinaldehyde thiosemicarbazone N-oxide monohydrate'
_symmetry_cell_setting           monoclinic
_symmetry_space_group_name_H-M   'C c'
_symmetry_Int_Tables_number      9
_space_group_name_Hall           'C -2yc'
loop_
_symmetry_equiv_pos_site_id
_symmetry_equiv_pos_as_xyz
1 x,y,z
2 x,-y,1/2+z
3 1/2+x,1/2+y,z
4 1/2+x,1/2-y,1/2+z
_cell_length_a                   13.251(3)
_cell_length_b                   24.919(6)
_cell_length_c                   13.670(3)
_cell_angle_alpha                90
_cell_angle_beta                 101.334(5)
_cell_angle_gamma                90
_cell_volume                     4425.83
_exptl_crystal_colour            yellow
_exptl_crystal_description       prism
_cell_formula_units_Z            16
loop_
_atom_site_label
_atom_site_type_symbol
_atom_site_fract_x
_atom_site_fract_y
_atom_site_fract_z
S1 S 1.52686(5) -0.23851(3) 1.10075(5)
O1 O 1.00173(13) -0.17060(7) 1.07178(13)
N1 N 1.01778(14) -0.17270(8) 1.17044(15)
N2 N 1.28234(14) -0.20564(8) 1.20781(14)
N3 N 1.34917(14) -0.21589(8) 1.14581(15)
H1 H 1.3215(14) -0.2239(7) 1.0870(15)
N4 N 1.48084(16) -0.22418(10) 1.27883(16)
H2 H 1.5419(19) -0.2339(10) 1.307(2)
H3 H 1.4334(19) -0.2266(11) 1.311(2)
C1 C 0.93660(19) -0.16230(10) 1.2161(2)
C2 C 0.9549(2) -0.16368(11) 1.3180(2)
H4 H 0.8972(16) -0.1499(8) 1.3465(17)
C3 C 1.0505(2) -0.17477(12) 1.3732(2)
H5 H 1.0669(17) -0.1782(8) 1.4491(19)
C4 C 1.1291(2) -0.18499(11) 1.3242(2)
H6 H 1.1850(12) -0.1904(6) 1.3539(13)
C5 C 1.11321(18) -0.18426(9) 1.22237(18)
C6 C 0.8353(2) -0.15102(14) 1.1513(3)
H7 H 0.7815 -0.1705 1.1964
H8 H 0.8297 -0.1674 1.0869
H9 H 0.8232 -0.1131 1.1434
C7 C 1.19131(18) -0.19533(10) 1.16459(19)
H10 H 1.1710(16) -0.2024(8) 1.0985(17)
C8 C 1.44949(17) -0.22576(10) 1.18170(19)
S2 S 0.78655(5) 0.01357(3) 1.08810(6)
O2 O 0.25082(12) 0.07347(8) 1.04855(12)
N5 N 0.26760(15) 0.07264(8) 1.14681(15)
N6 N 0.53522(15) 0.04584(8) 1.18446(16)
N7 N 0.60453(15) 0.03785(8) 1.12351(17)
H11 H 0.580(2) 0.0433(12) 1.069(2)
N8 N 0.72868(17) 0.02405(9) 1.26177(18)
H12 H 0.6834 0.0310 1.2973
H13 H 0.7907 0.0163 1.2903
C9 C 0.18625(19) 0.08211(10) 1.1926(2)
C10 C 0.2051(2) 0.08185(11) 1.2951(2)
H14 H 0.1593(15) 0.0974(8) 1.3312(16)
C11 C 0.3011(2) 0.07356(13) 1.3503(2)
H15 H 0.3123 0.0735 1.4197
C12 C 0.3813(2) 0.06529(11) 1.3017(2)
H16 H 0.4419(15) 0.0600(8) 1.3383(15)
C13 C 0.36483(18) 0.06486(9) 1.19923(19)
C14 C 0.0842(2) 0.09102(13) 1.1295(3)
H17 H 0.0796 0.0712 1.0686
H18 H 0.0228 0.0811 1.1637
H19 H 0.0836 0.1261 1.1173
C15 C 0.44399(19) 0.05647(11) 1.1407(2)
H20 H 0.4285(14) 0.0539(7) 1.0757(15)
C16 C 0.70288(19) 0.02539(10) 1.1634(2)
S3 S 0.22053(5) -0.24406(4) 0.91340(5)
O3 O 0.74218(13) -0.16442(8) 0.89113(15)
N9 N 0.70918(15) -0.16589(8) 0.79433(16)
N10 N 0.44923(15) -0.19768(8) 0.79520(15)
N11 N 0.39004(15) -0.20968(9) 0.86332(15)
H21 H 0.4200(18) -0.2183(10) 0.9281(19)
N12 N 0.25475(16) -0.21846(10) 0.73479(17)
H22 H 0.2042(16) -0.2293(9) 0.7169(17)
H23 H 0.2886(18) -0.2015(9) 0.681(2)
C17 C 0.77808(19) -0.15573(10) 0.7329(2)
C18 C 0.7396(2) -0.15841(12) 0.6317(3)
H24 H 0.7697(18) -0.1541(9) 0.5913(19)
C19 C 0.6404(2) -0.16981(12) 0.5928(2)
H25 H 0.6172 -0.1709 0.5240
C20 C 0.5750(2) -0.17961(10) 0.6557(2)
H26 H 0.5065 -0.1878 0.6300
C21 C 0.60976(19) -0.17741(9) 0.75746(19)
C22 C 0.8846(2) -0.13994(14) 0.7802(3)
H27 H 0.9025 -0.1562 0.8481
H28 H 0.9322 -0.1521 0.7404
H29 H 0.8897 -0.1016 0.7853
C23 C 0.54442(18) -0.18868(9) 0.82964(18)
H30 H 0.5609(15) -0.1818(8) 0.8928(15)
C24 C 0.29021(18) -0.22350(10) 0.82920(19)
S4 S 0.96680(5) 0.01540(3) 0.88681(6)
O4 O 1.50146(14) 0.07779(9) 0.92919(14)
N13 N 1.48392(15) 0.08026(8) 0.83194(15)
N14 N 1.21535(15) 0.05534(8) 0.79183(16)
N15 N 1.14600(15) 0.04498(9) 0.85150(16)
H31 H 1.1657(16) 0.0485(8) 0.9158(16)
N16 N 1.02121(17) 0.03209(9) 0.71376(18)
H32 H 0.9607(18) 0.0223(10) 0.6851(19)
H33 H 1.0662(17) 0.0409(9) 0.6746(17)
C25 C 1.56536(19) 0.08938(10) 0.78549(19)
C26 C 1.5467(2) 0.09193(11) 0.6842(2)
H34 H 1.613(2) 0.0927(10) 0.666(2)
C27 C 1.4509(2) 0.08580(12) 0.6286(2)
H35 H 1.4465(16) 0.0950(8) 0.5543(17)
C28 C 1.3683(2) 0.07738(11) 0.6757(2)
H36 H 1.2855(19) 0.0703(10) 0.647(2)
C29 C 1.38677(18) 0.07465(10) 0.77834(19)
C30 C 1.6662(2) 0.09613(14) 0.8503(2)
H37 H 1.721(2) 0.0948(11) 0.806(2)
H38 H 1.676(2) 0.1274(13) 0.901(3)
H39 H 1.695(3) 0.0730(18) 0.906(4)
C31 C 1.30631(19) 0.06494(10) 0.83647(19)
H40 H 1.3252(16) 0.0713(8) 0.9016(17)
C32 C 1.04782(19) 0.03158(10) 0.8100(2)
O5 O 1.10761(17) -0.07565(9) 1.03504(18)
O6 O 0.63961(18) -0.07094(9) 0.93746(19)
O7 O 0.88353(15) -0.24333(7) 0.94935(15)
O8 O 0.7998(2) -0.31847(10) 1.05626(17)
loop_
_geom_bond_atom_site_label_1
_geom_bond_atom_site_label_2
_geom_bond_site_symmetry_1
_geom_bond_site_symmetry_2
S1 C8 1_555 1_555
O1 N1 1_555 1_555
N1 C1 1_555 1_555
N2 N3 1_555 1_555
N3 H1 1_555 1_555
N4 H2 1_555 1_555
H3 N4 1_555 1_555
C1 C2 1_555 1_555
C2 H4 1_555 1_555
C3 C2 1_555 1_555
H5 C3 1_555 1_555
C4 C3 1_555 1_555
H6 C4 1_555 1_555
C5 N1 1_555 1_555
C6 C1 1_555 1_555
H7 C6 1_555 1_555
H8 C6 1_555 1_555
H9 C6 1_555 1_555
C7 N2 1_555 1_555
H10 C7 1_555 1_555
C8 N3 1_555 1_555
S2 C16 1_555 1_555
O2 N5 1_555 1_555
N5 C9 1_555 1_555
N6 N7 1_555 1_555
N7 H11 1_555 1_555
N8 H12 1_555 1_555
H13 N8 1_555 1_555
C9 C10 1_555 1_555
C10 H14 1_555 1_555
C11 C10 1_555 1_555
H15 C11 1_555 1_555
C12 C11 1_555 1_555
H16 C12 1_555 1_555
C13 N5 1_555 1_555
C14 C9 1_555 1_555
H17 C14 1_555 1_555
H18 C14 1_555 1_555
H19 C14 1_555 1_555
C15 N6 1_555 1_555
H20 C15 1_555 1_555
C16 N7 1_555 1_555
S3 C24 1_555 1_555
O3 N9 1_555 1_555
N9 C17 1_555 1_555
N10 N11 1_555 1_555
N11 H21 1_555 1_555
N12 H22 1_555 1_555
H23 N12 1_555 1_555
C17 C18 1_555 1_555
C18 H24 1_555 1_555
C19 C18 1_555 1_555
H25 C19 1_555 1_555
C20 C19 1_555 1_555
H26 C20 1_555 1_555
C21 N9 1_555 1_555
C22 C17 1_555 1_555
H27 C22 1_555 1_555
H28 C22 1_555 1_555
H29 C22 1_555 1_555
C23 N10 1_555 1_555
H30 C23 1_555 1_555
C24 N11 1_555 1_555
S4 C32 1_555 1_555
O4 N13 1_555 1_555
N13 C25 1_555 1_555
N14 N15 1_555 1_555
N15 H31 1_555 1_555
N16 H32 1_555 1_555
H33 N16 1_555 1_555
C25 C26 1_555 1_555
C26 H34 1_555 1_555
C27 C26 1_555 1_555
H35 C27 1_555 1_555
C28 C27 1_555 1_555
H36 C28 1_555 1_555
C29 N13 1_555 1_555
C30 C25 1_555 1_555
H37 C30 1_555 1_555
H38 C30 1_555 1_555
H39 C30 1_555 1_555
C31 N14 1_555 1_555
H40 C31 1_555 1_555
C32 N15 1_555 1_555
N4 C8 1_555 1_555
C4 C5 1_555 1_555
C5 C7 1_555 1_555
N8 C16 1_555 1_555
C12 C13 1_555 1_555
C13 C15 1_555 1_555
N12 C24 1_555 1_555
C20 C21 1_555 1_555
C21 C23 1_555 1_555
N16 C32 1_555 1_555
C28 C29 1_555 1_555
C29 C31 1_555 1_555

#END
