
#######################################################################
#
#                 Cambridge Crystallographic Data Centre
#                                CCDC 
#
#######################################################################
#
# If this CIF has been generated from an entry in the Cambridge 
# Structural Database, then it will include bibliographic, chemical, 
# crystal, experimental, refinement or atomic coordinate data resulting 
# from the CCDC's data processing and validation procedures.
#
#######################################################################

data_UBUJUY
_chemical_name_common            
"5-Methylresorcinol 4,4'-bipyridine hemikis(acridine)"
_chemical_formula_moiety         'C7 H8 O2,C10 H8 N2,0.5(C13 H9 N1)'
_chemical_name_systematic        
"5-Methylbenzene-1,3-diol 4,4'-bipyridine hemikis(acridine)"
_symmetry_cell_setting           triclinic
_symmetry_space_group_name_H-M   'P -1'
_symmetry_Int_Tables_number      2
_space_group_name_Hall           '-P 1'
loop_
_symmetry_equiv_pos_site_id
_symmetry_equiv_pos_as_xyz
1 x,y,z
2 -x,-y,-z
_cell_length_a                   9.3265(7)
_cell_length_b                   10.3739(8)
_cell_length_c                   11.1923(8)
_cell_angle_alpha                68.503(5)
_cell_angle_beta                 86.581(6)
_cell_angle_gamma                69.849(5)
_cell_volume                     943.123
_exptl_crystal_colour            yellow
_exptl_crystal_description       block
_cell_formula_units_Z            2
loop_
_atom_site_label
_atom_site_type_symbol
_atom_site_fract_x
_atom_site_fract_y
_atom_site_fract_z
N1 N 0.95435(17) 0.37891(16) 0.01444(14)
C8 C 1.3054(2) 0.4511(2) 0.06502(17)
H9 H 1.3372 0.5291 0.0579
C9 C 1.4076(2) 0.3114(2) 0.10722(19)
H10 H 1.5093 0.2947 0.1276
C10 C 1.3617(2) 0.1900(2) 0.12081(19)
H11 H 1.4337 0.0948 0.1495
C11 C 1.2138(2) 0.21151(19) 0.09228(17)
H12 H 1.1849 0.1308 0.1031
C12 C 1.10250(18) 0.35678(17) 0.04584(14)
C13 C 0.85099(19) 0.52045(18) -0.03126(15)
N1A N 1.04565(17) 0.62109(16) -0.01444(14)
C8A C 0.6946(2) 0.5489(2) -0.06502(17)
H9A H 0.6628 0.4709 -0.0579
C9A C 0.5924(2) 0.6886(2) -0.10722(19)
H10A H 0.4907 0.7053 -0.1276
C10A C 0.6383(2) 0.8100(2) -0.12081(19)
H11A H 0.5663 0.9052 -0.1495
C11A C 0.7862(2) 0.78849(19) -0.09228(17)
H12A H 0.8151 0.8692 -0.1031
C12A C 0.89750(18) 0.64322(17) -0.04584(14)
C13A C 1.14901(19) 0.47955(18) 0.03126(15)
N2 N 0.63176(15) 0.60145(16) 0.22896(14)
N3 N 1.41975(15) 0.27081(16) 0.45358(14)
C14 C 0.70098(18) 0.4553(2) 0.27868(18)
H13 H 0.6440 0.3963 0.2815
C15 C 0.85277(18) 0.38639(18) 0.32627(17)
H14 H 0.8951 0.2838 0.3610
C16 C 0.94161(16) 0.47120(16) 0.32194(14)
C17 C 0.86992(18) 0.62365(18) 0.27002(17)
H15 H 0.9241 0.6855 0.2652
C18 C 0.71692(19) 0.68264(19) 0.22551(18)
H16 H 0.6709 0.7849 0.1912
C19 C 1.18926(18) 0.48315(18) 0.38709(16)
H17 H 1.1417 0.5833 0.3712
C20 C 1.10603(16) 0.40204(16) 0.36995(14)
C21 C 1.1845(2) 0.25331(19) 0.3967(2)
H18 H 1.1342 0.1937 0.3875
C22 C 1.3384(2) 0.1943(2) 0.4374(2)
H19 H 1.3887 0.0941 0.4547
C23 C 1.34328(19) 0.41399(19) 0.42794(17)
H20 H 1.3967 0.4707 0.4381
O1 O 0.33669(13) 0.74790(13) 0.11778(11)
H1 H 0.4267 0.7035 0.1517
O2 O 0.26708(12) 0.88168(13) 0.49053(11)
H2 H 0.3602 0.8345 0.5036
C1 C -0.17605(19) 1.0220(2) 0.20032(18)
H3 H -0.2013 1.1270 0.1718
H4 H -0.2317 0.9897 0.2736
H5 H -0.2031 0.9976 0.1320
C2 C -0.00585(17) 0.94592(16) 0.23741(15)
C3 C 0.05485(17) 0.94573(16) 0.34807(15)
H6 H -0.0092 0.9902 0.3995
C4 C 0.21177(16) 0.87880(16) 0.38164(14)
C5 C 0.30850(16) 0.81206(16) 0.30556(14)
H7 H 0.4133 0.7682 0.3280
C6 C 0.24745(17) 0.81135(16) 0.19556(14)
C7 C 0.09007(17) 0.87798(16) 0.16162(14)
H8 H 0.0495 0.8769 0.0883
loop_
_geom_bond_atom_site_label_1
_geom_bond_atom_site_label_2
_geom_bond_site_symmetry_1
_geom_bond_site_symmetry_2
O1 H1 1_555 1_555
O2 H2 1_555 1_555
C1 H3 1_555 1_555
H4 C1 1_555 1_555
H5 C1 1_555 1_555
C2 C1 1_555 1_555
C3 C2 1_555 1_555
H6 C3 1_555 1_555
C4 O2 1_555 1_555
C5 C4 1_555 1_555
H7 C5 1_555 1_555
C6 O1 1_555 1_555
C7 C2 1_555 1_555
H8 C7 1_555 1_555
N1 C12 1_555 1_555
C8 H9 1_555 1_555
C9 C8 1_555 1_555
H10 C9 1_555 1_555
C10 C9 1_555 1_555
H11 C10 1_555 1_555
C11 C10 1_555 1_555
H12 C11 1_555 1_555
C12 C11 1_555 1_555
C13 N1 1_555 1_555
N2 C14 1_555 1_555
N3 C22 1_555 1_555
C14 H13 1_555 1_555
C15 C14 1_555 1_555
H14 C15 1_555 1_555
C16 C15 1_555 1_555
C17 C16 1_555 1_555
H15 C17 1_555 1_555
C18 N2 1_555 1_555
H16 C18 1_555 1_555
C19 H17 1_555 1_555
C20 C16 1_555 1_555
C21 C20 1_555 1_555
H18 C21 1_555 1_555
C22 C21 1_555 1_555
H19 C22 1_555 1_555
C23 N3 1_555 1_555
H20 C23 1_555 1_555
N1A C12A 1_555 1_555
C8A C13 1_555 1_555
H9A C8A 1_555 1_555
C9A C8A 1_555 1_555
H10A C9A 1_555 1_555
C10A C9A 1_555 1_555
H11A C10A 1_555 1_555
C11A C10A 1_555 1_555
H12A C11A 1_555 1_555
C12A C13 1_555 1_555
C13A C8 1_555 1_555
C3 C4 1_555 1_555
C5 C6 1_555 1_555
C6 C7 1_555 1_555
C12 C13A 1_555 1_555
C17 C18 1_555 1_555
C19 C20 1_555 1_555
C19 C23 1_555 1_555
N1A C13A 1_555 1_555
C11A C12A 1_555 1_555

#END
