
#######################################################################
#
#                 Cambridge Crystallographic Data Centre
#                                CCDC 
#
#######################################################################
#
# If this CIF has been generated from an entry in the Cambridge 
# Structural Database, then it will include bibliographic, chemical, 
# crystal, experimental, refinement or atomic coordinate data resulting 
# from the CCDC's data processing and validation procedures.
#
#######################################################################

data_UBUXUN
_chemical_formula_moiety         'C25 H23 N1 O3'
_chemical_name_systematic        
3-((2-hydroxy-5-methylphenyl)(phenyl)methyl)-4-((4-methylphenyl)amino)furan-2(5H)-one
_symmetry_cell_setting           tetragonal
_symmetry_space_group_name_H-M   'P 41'
_symmetry_Int_Tables_number      76
_space_group_name_Hall           'P 4w'
loop_
_symmetry_equiv_pos_site_id
_symmetry_equiv_pos_as_xyz
1 x,y,z
2 -y,x,1/4+z
3 -x,-y,1/2+z
4 y,-x,3/4+z
_cell_length_a                   8.40910(10)
_cell_length_b                   8.40910(10)
_cell_length_c                   29.3175(6)
_cell_angle_alpha                90
_cell_angle_beta                 90
_cell_angle_gamma                90
_cell_volume                     2073.13
_exptl_crystal_colour            colorless
_exptl_crystal_description       block
_cell_formula_units_Z            4
loop_
_atom_site_label
_atom_site_type_symbol
_atom_site_fract_x
_atom_site_fract_y
_atom_site_fract_z
O1 O 0.5817(3) 1.4132(3) 0.03972(9)
O2 O 0.7153(3) 1.4750(3) 0.10347(11)
O3 O 0.7260(3) 0.7974(3) 0.09697(9)
H1 H 0.7078 0.7017 0.0980
N1 N 0.6497(4) 0.9925(3) 0.02227(10)
H2 H 0.7049 0.9282 0.0387
C1 C 0.8094(4) 1.1308(3) 0.11269(11)
H3 H 0.8438 1.2202 0.1317
C2 C 0.7142(3) 1.2062(3) 0.07507(11)
C3 C 0.6765(4) 1.3735(3) 0.07606(12)
C4 C 0.5553(4) 1.2743(4) 0.01288(12)
H4 H 0.5952 1.2891 -0.0179
H5 H 0.4428 1.2494 0.0114
C5 C 0.6448(4) 1.1450(3) 0.03683(10)
C6 C 0.5759(4) 0.9254(4) -0.01644(11)
C7 C 0.5211(5) 0.7699(4) -0.01242(12)
H6 H 0.5331 0.7154 0.0150
C8 C 0.4493(5) 0.6971(4) -0.04895(13)
H7 H 0.4143 0.5927 -0.0459
C9 C 0.4274(5) 0.7742(4) -0.09013(14)
C10 C 0.4835(7) 0.9268(5) -0.09386(15)
H8 H 0.4700 0.9815 -0.1212
C11 C 0.5600(6) 1.0014(4) -0.05783(14)
H9 H 0.6008 1.1034 -0.0616
C12 C 0.3451(8) 0.6928(6) -0.1290(2)
H10 H 0.4175 0.6819 -0.1541
H11 H 0.2550 0.7549 -0.1383
H12 H 0.3100 0.5894 -0.1194
C13 C 0.7077(4) 1.0277(3) 0.14442(11)
C14 C 0.6699(4) 0.8677(3) 0.13541(11)
C15 C 0.5748(4) 0.7844(4) 0.16605(13)
H13 H 0.5485 0.6792 0.1599
C16 C 0.5194(5) 0.8546(5) 0.20488(15)
H14 H 0.4560 0.7962 0.2247
C17 C 0.5564(5) 1.0131(5) 0.21545(13)
C18 C 0.6485(4) 1.0948(4) 0.18463(12)
H15 H 0.6728 1.2004 0.1909
C19 C 0.5002(8) 1.0884(8) 0.25903(18)
H16 H 0.5514 1.0378 0.2845
H17 H 0.3871 1.0760 0.2616
H18 H 0.5264 1.1995 0.2588
C20 C 0.9641(4) 1.0494(4) 0.09795(14)
C21 C 1.0499(5) 0.9673(7) 0.1307(2)
H19 H 1.0118 0.9603 0.1604
C22 C 1.1939(7) 0.8950(9) 0.1189(3)
H20 H 1.2506 0.8386 0.1409
C23 C 1.2516(6) 0.9061(8) 0.0762(3)
H21 H 1.3486 0.8592 0.0690
C24 C 1.1686(5) 0.9857(7) 0.0432(2)
H22 H 1.2079 0.9916 0.0136
C25 C 1.0238(5) 1.0584(5) 0.05445(16)
H23 H 0.9675 1.1133 0.0322
loop_
_geom_bond_atom_site_label_1
_geom_bond_atom_site_label_2
_geom_bond_site_symmetry_1
_geom_bond_site_symmetry_2
O1 C3 1_555 1_555
O2 C3 1_555 1_555
O3 H1 1_555 1_555
N1 H2 1_555 1_555
C1 H3 1_555 1_555
C2 C1 1_555 1_555
C3 C2 1_555 1_555
C4 O1 1_555 1_555
H4 C4 1_555 1_555
H5 C4 1_555 1_555
C5 N1 1_555 1_555
C6 N1 1_555 1_555
C7 C6 1_555 1_555
H6 C7 1_555 1_555
C8 C7 1_555 1_555
H7 C8 1_555 1_555
C9 C8 1_555 1_555
C10 C9 1_555 1_555
H8 C10 1_555 1_555
C11 C6 1_555 1_555
H9 C11 1_555 1_555
C12 C9 1_555 1_555
H10 C12 1_555 1_555
H11 C12 1_555 1_555
H12 C12 1_555 1_555
C13 C1 1_555 1_555
C14 O3 1_555 1_555
C15 C14 1_555 1_555
H13 C15 1_555 1_555
C16 C15 1_555 1_555
H14 C16 1_555 1_555
C17 C16 1_555 1_555
C18 C13 1_555 1_555
H15 C18 1_555 1_555
C19 C17 1_555 1_555
H16 C19 1_555 1_555
H17 C19 1_555 1_555
H18 C19 1_555 1_555
C20 C1 1_555 1_555
C21 C20 1_555 1_555
H19 C21 1_555 1_555
C22 C21 1_555 1_555
H20 C22 1_555 1_555
C23 C22 1_555 1_555
H21 C23 1_555 1_555
C24 C23 1_555 1_555
H22 C24 1_555 1_555
C25 C20 1_555 1_555
H23 C25 1_555 1_555
C2 C5 1_555 1_555
C4 C5 1_555 1_555
C10 C11 1_555 1_555
C13 C14 1_555 1_555
C17 C18 1_555 1_555
C24 C25 1_555 1_555

#END
