
#######################################################################
#
#                 Cambridge Crystallographic Data Centre
#                                CCDC 
#
#######################################################################
#
# If this CIF has been generated from an entry in the Cambridge 
# Structural Database, then it will include bibliographic, chemical, 
# crystal, experimental, refinement or atomic coordinate data resulting 
# from the CCDC's data processing and validation procedures.
#
#######################################################################

data_UBUYAU
_chemical_formula_moiety         'C45 H27 B2 F20 O3 P1 S1,C1 H2 Cl2'
_chemical_name_systematic        
'3,3,8,8-tetrakis(pentafluorophenyl)-6,6-bis(2,4,6-trimethylphenyl)-2,9,10-trioxa-1-thia-6-phospha-3,8-diborabicyclo[5.2.1]dec-1-ene-6-ium dichloromethane solvate'
_symmetry_cell_setting           triclinic
_symmetry_space_group_name_H-M   'P -1'
_symmetry_Int_Tables_number      2
_space_group_name_Hall           '-P 1'
loop_
_symmetry_equiv_pos_site_id
_symmetry_equiv_pos_as_xyz
1 x,y,z
2 -x,-y,-z
_cell_length_a                   10.6838(5)
_cell_length_b                   11.7958(5)
_cell_length_c                   20.5532(9)
_cell_angle_alpha                81.9990(10)
_cell_angle_beta                 81.4810(10)
_cell_angle_gamma                65.8300(10)
_cell_volume                     2328.18
_exptl_crystal_colour            colorless
_exptl_crystal_description       prism
_cell_formula_units_Z            2
loop_
_atom_site_label
_atom_site_type_symbol
_atom_site_fract_x
_atom_site_fract_y
_atom_site_fract_z
P1 P 0.64330(6) 0.47318(5) 0.25390(3)
S1 S 0.73700(6) 0.75283(5) 0.24547(3)
B1 B 0.6756(3) 0.6824(2) 0.38672(12)
B2 B 0.6090(3) 0.7104(2) 0.16228(12)
O1 O 0.80169(15) 0.60639(14) 0.23000(7)
O2 O 0.59563(15) 0.79028(14) 0.21866(7)
O3 O 0.70793(16) 0.75723(14) 0.31813(7)
C1 C 0.5698(2) 0.5643(2) 0.32494(10)
H1 H 0.5213 0.6531 0.3094
H2 H 0.501 0.536 0.3515
C2 C 0.6809(2) 0.5522(2) 0.36927(10)
H3 H 0.773 0.5055 0.3467
H4 H 0.6698 0.5025 0.411
C3 C 0.7126(2) 0.5721(2) 0.19502(10)
H5 H 0.7711 0.5215 0.1582
C4 C 0.7714(2) 0.3221(2) 0.28266(10)
C5 C 0.9153(2) 0.2741(2) 0.26214(11)
C6 C 0.9974(2) 0.1537(2) 0.28636(12)
H6 H 1.0936 0.1222 0.273
C7 C 0.9458(2) 0.0778(2) 0.32887(11)
C8 C 0.8054(2) 0.1269(2) 0.34904(11)
H7 H 0.7678 0.0765 0.3784
C9 C 0.7183(2) 0.2464(2) 0.32806(10)
C10 C 0.9908(2) 0.3409(2) 0.21515(13)
H8 H 1.0901 0.2899 0.2125
H9 H 0.9722 0.4213 0.2312
H10 H 0.959 0.3551 0.1712
C11 C 1.0378(3) -0.0525(2) 0.35264(13)
H11 H 1.0194 -0.1128 0.3314
H12 H 1.0195 -0.0652 0.4007
H13 H 1.1345 -0.0643 0.3413
C12 C 0.5703(2) 0.2887(2) 0.35813(12)
H14 H 0.552 0.216 0.3783
H15 H 0.5087 0.3321 0.3236
H16 H 0.5543 0.3455 0.3919
C13 C 0.5226(2) 0.4453(2) 0.20986(10)
C14 C 0.5788(2) 0.3699(2) 0.15620(11)
C15 C 0.4899(3) 0.3507(2) 0.12000(11)
H17 H 0.5282 0.3001 0.0841
C16 C 0.3483(3) 0.4021(2) 0.13415(12)
C17 C 0.2948(2) 0.4735(2) 0.18776(11)
H18 H 0.1977 0.5076 0.1988
C18 C 0.3770(2) 0.4975(2) 0.22604(11)
C19 C 0.7308(2) 0.3077(2) 0.13393(12)
H19 H 0.744 0.2557 0.0982
H20 H 0.7797 0.2555 0.1711
H21 H 0.7672 0.3716 0.118
C20 C 0.2557(3) 0.3824(3) 0.09201(13)
H22 H 0.2727 0.413 0.0461
H23 H 0.1591 0.4282 0.1083
H24 H 0.2754 0.2933 0.0943
C21 C 0.3001(2) 0.5754(2) 0.28320(11)
H25 H 0.201 0.6114 0.2787
H26 H 0.3317 0.6426 0.283
H27 H 0.3179 0.5226 0.3249
C22 C 0.7976(2) 0.66439(19) 0.43130(11)
C23 C 0.7773(2) 0.64550(19) 0.49968(11)
F1 F 0.66039(13) 0.63270(12) 0.52773(6)
C24 C 0.8689(2) 0.6395(2) 0.54208(10)
F2 F 0.84018(14) 0.62323(12) 0.60803(6)
C25 C 0.9909(2) 0.6489(2) 0.51673(11)
F3 F 1.08063(14) 0.64379(12) 0.55738(7)
C26 C 1.0205(2) 0.6610(2) 0.44918(11)
F4 F 1.14340(13) 0.66202(12) 0.42344(7)
C27 C 0.9254(2) 0.66768(19) 0.40853(10)
F5 F 0.96515(13) 0.67593(13) 0.34274(6)
C28 C 0.5287(2) 0.7850(2) 0.41688(10)
C29 C 0.5110(2) 0.9082(2) 0.41819(11)
F6 F 0.61630(13) 0.94368(12) 0.39545(7)
C30 C 0.3920(2) 0.9999(2) 0.44392(11)
F7 F 0.38352(14) 1.11699(12) 0.44425(7)
C31 C 0.2826(2) 0.9704(2) 0.47101(11)
F8 F 0.16541(14) 1.05808(12) 0.49635(7)
C32 C 0.2953(2) 0.8490(2) 0.47325(11)
F9 F 0.19036(14) 0.81859(13) 0.50161(7)
C33 C 0.4164(2) 0.7599(2) 0.44658(11)
F10 F 0.42196(13) 0.64212(12) 0.45263(6)
C34 C 0.6893(2) 0.7623(2) 0.09739(11)
C35 C 0.8125(2) 0.6975(2) 0.06024(11)
F11 F 0.88297(14) 0.57310(12) 0.07367(7)
C36 C 0.8718(2) 0.7518(2) 0.00804(11)
F12 F 0.99098(15) 0.68251(14) -0.02556(7)
C37 C 0.8089(3) 0.8771(2) -0.00994(12)
F13 F 0.86577(17) 0.93113(15) -0.06039(7)
C38 C 0.6864(3) 0.9469(2) 0.02465(12)
F14 F 0.62270(16) 1.06997(13) 0.00798(7)
C39 C 0.6300(2) 0.8883(2) 0.07606(11)
F15 F 0.50791(14) 0.96222(12) 0.10696(7)
C40 C 0.4583(2) 0.7305(2) 0.14526(11)
C41 C 0.4493(2) 0.6733(2) 0.09242(11)
F16 F 0.56796(14) 0.59772(12) 0.05970(6)
C42 C 0.3275(3) 0.6868(2) 0.07099(11)
F17 F 0.32613(16) 0.62684(15) 0.02040(7)
C43 C 0.2050(3) 0.7633(2) 0.10288(13)
F18 F 0.08423(16) 0.77727(16) 0.08350(8)
C44 C 0.2069(2) 0.8239(2) 0.15498(13)
F19 F 0.08780(14) 0.89811(15) 0.18620(8)
C45 C 0.3318(2) 0.8069(2) 0.17484(11)
F20 F 0.32477(14) 0.86925(13) 0.22690(7)
C46 C 0.4482(3) 0.0960(3) 0.22673(14)
H28 H 0.4182 0.1426 0.184
H29 H 0.4391 0.0152 0.229
Cl1 Cl 0.34028(7) 0.18168(6) 0.29191(3)
Cl2 Cl 0.62300(7) 0.06803(6) 0.23023(4)
loop_
_geom_bond_atom_site_label_1
_geom_bond_atom_site_label_2
_geom_bond_site_symmetry_1
_geom_bond_site_symmetry_2
P1 C1 1_555 1_555
S1 O1 1_555 1_555
B1 O3 1_555 1_555
B2 O2 1_555 1_555
O1 C3 1_555 1_555
O2 S1 1_555 1_555
O3 S1 1_555 1_555
C1 H1 1_555 1_555
H2 C1 1_555 1_555
C2 B1 1_555 1_555
H3 C2 1_555 1_555
H4 C2 1_555 1_555
C3 P1 1_555 1_555
H5 C3 1_555 1_555
C4 P1 1_555 1_555
C5 C4 1_555 1_555
C6 C5 1_555 1_555
H6 C6 1_555 1_555
C7 C6 1_555 1_555
C8 C7 1_555 1_555
H7 C8 1_555 1_555
C9 C4 1_555 1_555
C10 C5 1_555 1_555
H8 C10 1_555 1_555
H9 C10 1_555 1_555
H10 C10 1_555 1_555
C11 C7 1_555 1_555
H11 C11 1_555 1_555
H12 C11 1_555 1_555
H13 C11 1_555 1_555
C12 C9 1_555 1_555
H14 C12 1_555 1_555
H15 C12 1_555 1_555
H16 C12 1_555 1_555
C13 P1 1_555 1_555
C14 C13 1_555 1_555
C15 C14 1_555 1_555
H17 C15 1_555 1_555
C16 C15 1_555 1_555
C17 C16 1_555 1_555
H18 C17 1_555 1_555
C18 C13 1_555 1_555
C19 C14 1_555 1_555
H19 C19 1_555 1_555
H20 C19 1_555 1_555
H21 C19 1_555 1_555
C20 C16 1_555 1_555
H22 C20 1_555 1_555
H23 C20 1_555 1_555
H24 C20 1_555 1_555
C21 C18 1_555 1_555
H25 C21 1_555 1_555
H26 C21 1_555 1_555
H27 C21 1_555 1_555
C22 B1 1_555 1_555
C23 C22 1_555 1_555
F1 C23 1_555 1_555
C24 C23 1_555 1_555
F2 C24 1_555 1_555
C25 C24 1_555 1_555
F3 C25 1_555 1_555
C26 C25 1_555 1_555
F4 C26 1_555 1_555
C27 C22 1_555 1_555
F5 C27 1_555 1_555
C28 B1 1_555 1_555
C29 C28 1_555 1_555
F6 C29 1_555 1_555
C30 C29 1_555 1_555
F7 C30 1_555 1_555
C31 C30 1_555 1_555
F8 C31 1_555 1_555
C32 C31 1_555 1_555
F9 C32 1_555 1_555
C33 C28 1_555 1_555
F10 C33 1_555 1_555
C34 B2 1_555 1_555
C35 C34 1_555 1_555
F11 C35 1_555 1_555
C36 C35 1_555 1_555
F12 C36 1_555 1_555
C37 C36 1_555 1_555
F13 C37 1_555 1_555
C38 C37 1_555 1_555
F14 C38 1_555 1_555
C39 C34 1_555 1_555
F15 C39 1_555 1_555
C40 B2 1_555 1_555
C41 C40 1_555 1_555
F16 C41 1_555 1_555
C42 C41 1_555 1_555
F17 C42 1_555 1_555
C43 C42 1_555 1_555
F18 C43 1_555 1_555
C44 C43 1_555 1_555
F19 C44 1_555 1_555
C45 C40 1_555 1_555
F20 C45 1_555 1_555
C46 H28 1_555 1_555
H29 C46 1_555 1_555
Cl1 C46 1_555 1_555
Cl2 C46 1_555 1_555
B2 C3 1_555 1_555
C1 C2 1_555 1_555
C8 C9 1_555 1_555
C17 C18 1_555 1_555
C26 C27 1_555 1_555
C32 C33 1_555 1_555
C38 C39 1_555 1_555
C44 C45 1_555 1_555

#END
