
#######################################################################
#
#                 Cambridge Crystallographic Data Centre
#                                CCDC 
#
#######################################################################
#
# If this CIF has been generated from an entry in the Cambridge 
# Structural Database, then it will include bibliographic, chemical, 
# crystal, experimental, refinement or atomic coordinate data resulting 
# from the CCDC's data processing and validation procedures.
#
#######################################################################

data_UBUYEY
_chemical_formula_moiety         'C43 H23 B2 F20 O3 P1 S1'
_chemical_name_systematic        
'6,6-bis(2,6-dimethylphenyl)-3,3,8,8-tetrakis(pentafluorophenyl)-2,9,10-trioxa-1-thia-6-phospha-3,8-diborabicyclo[5.2.1]dec-1-ene-6-ium unknown solvate'
_symmetry_cell_setting           monoclinic
_symmetry_space_group_name_H-M   'C 2/c'
_symmetry_Int_Tables_number      15
_space_group_name_Hall           '-C 2yn'
loop_
_symmetry_equiv_pos_site_id
_symmetry_equiv_pos_as_xyz
1 x,y,z
2 -x,y,1/2-z
3 1/2+x,1/2+y,z
4 1/2-x,1/2+y,1/2-z
5 -x,-y,-z
6 x,-y,1/2+z
7 1/2-x,1/2-y,-z
8 1/2+x,1/2-y,1/2+z
_cell_length_a                   19.6527(3)
_cell_length_b                   18.1222(3)
_cell_length_c                   23.6282(4)
_cell_angle_alpha                90
_cell_angle_beta                 99.1710(10)
_cell_angle_gamma                90
_cell_volume                     8307.62
_exptl_crystal_colour            colorless
_exptl_crystal_description       prism
_cell_formula_units_Z            8
loop_
_atom_site_label
_atom_site_type_symbol
_atom_site_fract_x
_atom_site_fract_y
_atom_site_fract_z
S1 S 0.15091(4) 0.46265(4) 0.20661(3)
P1 P 0.21924(4) 0.32995(4) 0.32342(3)
O1 O 0.12182(9) 0.40820(10) 0.25118(7)
O2 O 0.20737(10) 0.42283(10) 0.18368(8)
O3 O 0.19166(12) 0.51531(10) 0.24910(8)
C1 C 0.25528(14) 0.31074(15) 0.25900(11)
H1 H 0.2788 0.3550 0.2481
H2 H 0.2896 0.2714 0.2670
C2 C 0.19965(14) 0.28707(15) 0.20821(11)
H3 H 0.1541 0.2880 0.2201
H4 H 0.2088 0.2366 0.1966
C3 C 0.16268(14) 0.41224(14) 0.30990(11)
H5 H 0.1286 0.4074 0.3364
C4 C 0.17560(15) 0.24249(14) 0.33488(11)
C5 C 0.21965(17) 0.18084(16) 0.34827(12)
C6 C 0.1895(2) 0.11212(17) 0.35169(15)
H6 H 0.2180 0.0706 0.3602
C7 C 0.1193(2) 0.10287(19) 0.34298(17)
H7 H 0.1003 0.0555 0.3452
C8 C 0.07678(19) 0.16272(18) 0.33105(15)
H8 H 0.0288 0.1559 0.3253
C9 C 0.10335(16) 0.23308(16) 0.32727(12)
C10 C 0.29731(17) 0.18121(18) 0.36017(15)
H9 H 0.3138 0.1334 0.3749
H10 H 0.3130 0.2190 0.3883
H11 H 0.3151 0.1915 0.3250
C11 C 0.05029(16) 0.29384(18) 0.31711(15)
H12 H 0.0045 0.2724 0.3103
H13 H 0.0576 0.3226 0.2840
H14 H 0.0547 0.3256 0.3505
C12 C 0.27917(14) 0.35079(15) 0.38865(11)
C13 C 0.34992(15) 0.36554(16) 0.38877(13)
C14 C 0.39204(18) 0.37654(19) 0.44127(16)
H15 H 0.4391 0.3863 0.4421
C15 C 0.3662(2) 0.3734(2) 0.49217(16)
H16 H 0.3958 0.3798 0.5272
C16 C 0.2976(2) 0.3609(2) 0.49169(14)
H17 H 0.2805 0.3600 0.5266
C17 C 0.25229(17) 0.34946(16) 0.44097(12)
C18 C 0.38411(16) 0.37063(19) 0.33631(15)
H18 H 0.4304 0.3900 0.3469
H19 H 0.3577 0.4032 0.3085
H20 H 0.3863 0.3219 0.3196
C19 C 0.17800(18) 0.3374(2) 0.44649(13)
H21 H 0.1718 0.3458 0.4859
H22 H 0.1650 0.2871 0.4356
H23 H 0.1493 0.3714 0.4215
B1 B 0.20064(17) 0.34285(17) 0.15468(13)
C20 C 0.27039(14) 0.33189(14) 0.12640(10)
F1 F 0.22173(10) 0.22171(10) 0.08377(8)
C21 C 0.27514(15) 0.26975(16) 0.09261(12)
F2 F 0.33245(11) 0.19047(12) 0.03636(9)
C22 C 0.33153(17) 0.25264(18) 0.06748(13)
F3 F 0.44385(10) 0.28227(13) 0.05216(9)
C23 C 0.38761(16) 0.29851(19) 0.07498(13)
F4 F 0.44040(10) 0.40589(12) 0.11605(10)
C24 C 0.38577(15) 0.36012(17) 0.10797(13)
F5 F 0.33297(9) 0.43622(10) 0.16616(9)
C25 C 0.32867(15) 0.37530(15) 0.13293(12)
C26 C 0.13286(14) 0.34609(15) 0.10501(11)
F6 F 0.08670(9) 0.23175(9) 0.12969(8)
C27 C 0.08174(16) 0.29269(16) 0.09612(12)
F7 F -0.02276(10) 0.24320(13) 0.04846(9)
C28 C 0.02518(16) 0.2970(2) 0.05424(14)
F8 F -0.03724(11) 0.35896(15) -0.02432(9)
C29 C 0.01766(17) 0.3553(2) 0.01761(13)
F9 F 0.06176(11) 0.46656(12) -0.01406(8)
C30 C 0.06697(18) 0.40950(19) 0.02307(13)
F10 F 0.17001(10) 0.45868(10) 0.06939(7)
C31 C 0.12287(15) 0.40414(17) 0.06632(12)
B2 B 0.18646(17) 0.50092(17) 0.31333(13)
C32 C 0.25657(15) 0.52448(14) 0.35383(13)
F11 F 0.32526(12) 0.53820(14) 0.28085(11)
C33 C 0.31880(18) 0.54202(18) 0.33652(17)
F12 F 0.43610(12) 0.57507(15) 0.35509(15)
C34 C 0.37660(19) 0.5617(2) 0.3748(3)
F13 F 0.43043(14) 0.58446(16) 0.46850(15)
C35 C 0.3733(2) 0.5665(2) 0.4314(2)
F14 F 0.31054(14) 0.55346(16) 0.50720(11)
C36 C 0.3135(2) 0.5505(2) 0.45101(18)
F15 F 0.19945(10) 0.51346(11) 0.43374(7)
C37 C 0.25721(16) 0.53025(17) 0.41237(14)
C38 C 0.12208(15) 0.55506(15) 0.32406(11)
F16 F 0.18037(11) 0.65312(9) 0.28608(8)
C39 C 0.12466(17) 0.62839(16) 0.30699(12)
F17 F 0.07936(13) 0.74841(10) 0.29092(9)
C40 C 0.0734(2) 0.67948(17) 0.30989(14)
F18 F -0.03474(12) 0.70729(13) 0.33515(10)
C41 C 0.01603(19) 0.6587(2) 0.33193(15)
F19 F -0.04581(10) 0.56630(12) 0.37157(10)
C42 C 0.01034(16) 0.58776(19) 0.35033(14)
F20 F 0.05249(10) 0.46964(10) 0.36633(9)
C43 C 0.06297(16) 0.53819(16) 0.34638(13)
loop_
_geom_bond_atom_site_label_1
_geom_bond_atom_site_label_2
_geom_bond_site_symmetry_1
_geom_bond_site_symmetry_2
S1 O1 1_555 1_555
P1 C1 1_555 1_555
O1 C3 1_555 1_555
O2 S1 1_555 1_555
O3 S1 1_555 1_555
C1 H1 1_555 1_555
H2 C1 1_555 1_555
C2 C1 1_555 1_555
H3 C2 1_555 1_555
H4 C2 1_555 1_555
C3 P1 1_555 1_555
H5 C3 1_555 1_555
C4 P1 1_555 1_555
C5 C4 1_555 1_555
C6 C5 1_555 1_555
H6 C6 1_555 1_555
C7 C6 1_555 1_555
H7 C7 1_555 1_555
C8 C7 1_555 1_555
H8 C8 1_555 1_555
C9 C4 1_555 1_555
C10 C5 1_555 1_555
H9 C10 1_555 1_555
H10 C10 1_555 1_555
H11 C10 1_555 1_555
C11 C9 1_555 1_555
H12 C11 1_555 1_555
H13 C11 1_555 1_555
H14 C11 1_555 1_555
C12 P1 1_555 1_555
C13 C12 1_555 1_555
C14 C13 1_555 1_555
H15 C14 1_555 1_555
C15 C14 1_555 1_555
H16 C15 1_555 1_555
C16 C15 1_555 1_555
H17 C16 1_555 1_555
C17 C12 1_555 1_555
C18 C13 1_555 1_555
H18 C18 1_555 1_555
H19 C18 1_555 1_555
H20 C18 1_555 1_555
C19 C17 1_555 1_555
H21 C19 1_555 1_555
H22 C19 1_555 1_555
H23 C19 1_555 1_555
B1 O2 1_555 1_555
C20 B1 1_555 1_555
F1 C21 1_555 1_555
C21 C20 1_555 1_555
F2 C22 1_555 1_555
C22 C21 1_555 1_555
F3 C23 1_555 1_555
C23 C22 1_555 1_555
F4 C24 1_555 1_555
C24 C23 1_555 1_555
F5 C25 1_555 1_555
C25 C20 1_555 1_555
C26 B1 1_555 1_555
F6 C27 1_555 1_555
C27 C26 1_555 1_555
F7 C28 1_555 1_555
C28 C27 1_555 1_555
F8 C29 1_555 1_555
C29 C28 1_555 1_555
F9 C30 1_555 1_555
C30 C29 1_555 1_555
F10 C31 1_555 1_555
C31 C26 1_555 1_555
B2 O3 1_555 1_555
C32 B2 1_555 1_555
F11 C33 1_555 1_555
C33 C32 1_555 1_555
F12 C34 1_555 1_555
C34 C33 1_555 1_555
F13 C35 1_555 1_555
C35 C34 1_555 1_555
F14 C36 1_555 1_555
C36 C35 1_555 1_555
F15 C37 1_555 1_555
C37 C32 1_555 1_555
C38 B2 1_555 1_555
F16 C39 1_555 1_555
C39 C38 1_555 1_555
F17 C40 1_555 1_555
C40 C39 1_555 1_555
F18 C41 1_555 1_555
C41 C40 1_555 1_555
F19 C42 1_555 1_555
C42 C41 1_555 1_555
F20 C43 1_555 1_555
C43 C38 1_555 1_555
C2 B1 1_555 1_555
C3 B2 1_555 1_555
C8 C9 1_555 1_555
C16 C17 1_555 1_555
C24 C25 1_555 1_555
C30 C31 1_555 1_555
C36 C37 1_555 1_555
C42 C43 1_555 1_555

#END
