
#######################################################################
#
#                 Cambridge Crystallographic Data Centre
#                                CCDC 
#
#######################################################################
#
# If this CIF has been generated from an entry in the Cambridge 
# Structural Database, then it will include bibliographic, chemical, 
# crystal, experimental, refinement or atomic coordinate data resulting 
# from the CCDC's data processing and validation procedures.
#
#######################################################################

data_UCAGAI
_chemical_name_common            
'bis(2-Aminoethyl)ammonium magnololate magnolol dihydrate'
_chemical_formula_moiety         
'C18 H17 O2 1-,C18 H18 O2,C4 H14 N3 1+,2(H2 O1)'
_chemical_name_systematic        
"bis(2-Aminoethyl)ammonium 5,5'-diallyl-2'-hydroxybiphenyl-2-olate 5,5'-diallylbiphenyl-2,2'-diol dihydrate"
_symmetry_cell_setting           triclinic
_symmetry_space_group_name_H-M   'P -1'
_symmetry_Int_Tables_number      2
_space_group_name_Hall           '-P 1'
loop_
_symmetry_equiv_pos_site_id
_symmetry_equiv_pos_as_xyz
1 x,y,z
2 -x,-y,-z
_cell_length_a                   9.7322(11)
_cell_length_b                   10.7929(13)
_cell_length_c                   18.962(2)
_cell_angle_alpha                85.600(2)
_cell_angle_beta                 79.890(3)
_cell_angle_gamma                87.426(3)
_cell_volume                     1954.03
_exptl_crystal_colour            yellow
_exptl_crystal_description       prism
_cell_formula_units_Z            2
loop_
_atom_site_label
_atom_site_type_symbol
_atom_site_fract_x
_atom_site_fract_y
_atom_site_fract_z
N1 N 0.5108(3) 0.4527(2) 0.60777(13)
H1 H 0.5788 0.4398 0.5700
H2 H 0.4350 0.4865 0.5916
N2 N 0.8095(3) 0.5585(2) 0.58743(13)
H38 H 0.8032 0.4862 0.5687
H39 H 0.8925 0.5618 0.6007
N3 N 0.5718(3) 0.1802(3) 0.56433(14)
H40 H 0.6379 0.2357 0.5614
H41 H 0.5995 0.1086 0.5847
C37 C 0.5566(3) 0.5306(3) 0.65598(16)
H42 H 0.5201 0.4970 0.7042
H43 H 0.5107 0.6114 0.6499
C38 C 0.7078(3) 0.5528(3) 0.65361(16)
H44 H 0.7121 0.6308 0.6753
H45 H 0.7415 0.4883 0.6854
C39 C 0.4783(3) 0.3396(3) 0.65071(16)
H46 H 0.3953 0.3492 0.6868
H47 H 0.5557 0.3079 0.6736
C40 C 0.4540(3) 0.2591(3) 0.59325(16)
H48 H 0.3760 0.2066 0.6127
H49 H 0.4270 0.3124 0.5541
O1 O 0.06246(19) 0.28647(17) 0.62371(10)
H3 H 0.0244 0.3040 0.5805
O2 O 0.10625(19) 0.55502(17) 0.62509(10)
C1 C -0.0334(3) 0.2874(2) 0.68470(14)
C2 C -0.1256(3) 0.2013(2) 0.68925(14)
H4 H -0.1156 0.1503 0.6512
C3 C -0.2294(3) 0.1792(3) 0.74128(15)
H5 H -0.2939 0.1192 0.7390
C4 C -0.2400(3) 0.2528(3) 0.80312(15)
C5 C -0.1490(3) 0.3418(3) 0.79904(15)
H6 H -0.1592 0.3918 0.8375
C6 C -0.0351(3) 0.3687(2) 0.74032(14)
C7 C -0.3648(3) 0.2463(3) 0.86268(16)
H7 H -0.3760 0.3228 0.8870
H8 H -0.4488 0.2353 0.8431
C8 C -0.3429(3) 0.1420(3) 0.91287(16)
H9 H -0.2709 0.1406 0.9393
C9 C -0.4307(3) 0.0472(3) 0.91979(17)
H10 H -0.5022 0.0502 0.8929
H11 H -0.4199 -0.0212 0.9515
C10 C 0.1188(3) 0.5380(3) 0.68710(16)
C11 C 0.0683(3) 0.4611(3) 0.74705(15)
C12 C 0.1087(3) 0.4762(3) 0.81249(15)
H12 H 0.0750 0.4244 0.8527
C13 C 0.1996(3) 0.5692(3) 0.81746(15)
C14 C 0.2503(3) 0.6466(3) 0.75780(15)
H13 H 0.3112 0.7088 0.7615
C15 C 0.2100(3) 0.6309(3) 0.69250(15)
H14 H 0.2440 0.6827 0.6523
C16 C 0.2712(3) 0.5895(3) 0.88156(15)
H15 H 0.2794 0.5114 0.9097
H16 H 0.3643 0.6199 0.8645
C17 C 0.1878(3) 0.6798(3) 0.92594(15)
H17 H 0.1912 0.7649 0.9138
C18 C 0.1052(3) 0.6315(3) 0.98604(16)
H18 H 0.1043 0.5459 0.9966
H19 H 0.0494 0.6840 1.0167
O3 O 0.49821(17) 0.13429(15) 0.43028(9)
H20 H 0.5385 0.1121 0.4724
O4 O 0.28585(17) 0.04140(16) 0.42002(9)
H21 H 0.3398 0.0952 0.4417
C19 C 0.5773(3) 0.0822(2) 0.37339(13)
C20 C 0.7216(3) 0.0474(2) 0.38065(14)
H22 H 0.7562 0.0562 0.4226
C21 C 0.8030(3) 0.0001(2) 0.32020(14)
H23 H 0.8952 -0.0232 0.3229
C22 C 0.7592(3) -0.0143(2) 0.25882(14)
C23 C 0.6185(3) 0.0210(2) 0.25626(14)
H24 H 0.5845 0.0110 0.2142
C24 C 0.5302(3) 0.0688(2) 0.31188(13)
C25 C 0.8633(3) -0.0512(2) 0.19471(13)
H25 H 0.8821 0.0199 0.1604
H26 H 0.9504 -0.0797 0.2097
C26 C 0.8069(3) -0.1495(2) 0.16179(14)
H27 H 0.7788 -0.2232 0.1879
C27 C 0.7966(3) -0.1297(2) 0.09106(14)
H28 H 0.8252 -0.0553 0.0659
H29 H 0.7608 -0.1907 0.0679
C28 C 0.2665(3) 0.0941(2) 0.35596(13)
C29 C 0.3886(3) 0.1081(2) 0.30034(13)
C30 C 0.3691(3) 0.1636(2) 0.23297(13)
H30 H 0.4469 0.1766 0.1973
C31 C 0.2340(3) 0.2007(2) 0.21731(14)
C32 C 0.1285(3) 0.1838(2) 0.27314(14)
H31 H 0.0394 0.2086 0.2652
C33 C 0.1400(3) 0.1338(2) 0.34023(14)
H32 H 0.0607 0.1267 0.3755
C34 C 0.2081(3) 0.2690(2) 0.14872(13)
H33 H 0.1407 0.2255 0.1285
H34 H 0.1703 0.3519 0.1582
C35 C 0.3386(3) 0.2767(2) 0.09828(14)
H35 H 0.3930 0.2059 0.0862
C36 C 0.3785(3) 0.3922(3) 0.06919(15)
H36 H 0.3226 0.4619 0.0820
H37 H 0.4615 0.4010 0.0366
O5 O 0.8522(2) 0.3420(2) 0.49639(12)
H50 H 0.9216 0.3500 0.4625
H51 H 0.7778 0.3387 0.4790
O6 O 0.12516(15) 0.22364(13) 0.50036(8)
H52 H 0.1279 0.1527 0.4834
H53 H 0.1878 0.2684 0.4751
loop_
_geom_bond_atom_site_label_1
_geom_bond_atom_site_label_2
_geom_bond_site_symmetry_1
_geom_bond_site_symmetry_2
N1 H1 1_555 1_555
H2 N1 1_555 1_555
O1 H3 1_555 1_555
O2 C10 1_555 1_555
C1 O1 1_555 1_555
C2 C1 1_555 1_555
H4 C2 1_555 1_555
C3 C2 1_555 1_555
H5 C3 1_555 1_555
C4 C3 1_555 1_555
C5 C4 1_555 1_555
H6 C5 1_555 1_555
C6 C1 1_555 1_555
C7 C4 1_555 1_555
H7 C7 1_555 1_555
H8 C7 1_555 1_555
C8 C7 1_555 1_555
H9 C8 1_555 1_555
C9 C8 1_555 1_555
H10 C9 1_555 1_555
H11 C9 1_555 1_555
C10 C11 1_555 1_555
C11 C6 1_555 1_555
C12 C11 1_555 1_555
H12 C12 1_555 1_555
C13 C12 1_555 1_555
C14 C13 1_555 1_555
H13 C14 1_555 1_555
C15 C10 1_555 1_555
H14 C15 1_555 1_555
C16 C13 1_555 1_555
H15 C16 1_555 1_555
H16 C16 1_555 1_555
C17 C16 1_555 1_555
H17 C17 1_555 1_555
C18 C17 1_555 1_555
H18 C18 1_555 1_555
H19 C18 1_555 1_555
O3 H20 1_555 1_555
O4 H21 1_555 1_555
C19 O3 1_555 1_555
C20 C19 1_555 1_555
H22 C20 1_555 1_555
C21 C20 1_555 1_555
H23 C21 1_555 1_555
C22 C21 1_555 1_555
C23 C22 1_555 1_555
H24 C23 1_555 1_555
C24 C19 1_555 1_555
C25 C22 1_555 1_555
H25 C25 1_555 1_555
H26 C25 1_555 1_555
C26 C25 1_555 1_555
H27 C26 1_555 1_555
C27 C26 1_555 1_555
H28 C27 1_555 1_555
H29 C27 1_555 1_555
C28 O4 1_555 1_555
C29 C24 1_555 1_555
C30 C29 1_555 1_555
H30 C30 1_555 1_555
C31 C30 1_555 1_555
C32 C31 1_555 1_555
H31 C32 1_555 1_555
C33 C28 1_555 1_555
H32 C33 1_555 1_555
C34 C31 1_555 1_555
H33 C34 1_555 1_555
H34 C34 1_555 1_555
C35 C34 1_555 1_555
H35 C35 1_555 1_555
C36 C35 1_555 1_555
H36 C36 1_555 1_555
H37 C36 1_555 1_555
N2 H38 1_555 1_555
H39 N2 1_555 1_555
N3 H40 1_555 1_555
H41 N3 1_555 1_555
C37 N1 1_555 1_555
H42 C37 1_555 1_555
H43 C37 1_555 1_555
C38 N2 1_555 1_555
H44 C38 1_555 1_555
H45 C38 1_555 1_555
C39 N1 1_555 1_555
H46 C39 1_555 1_555
H47 C39 1_555 1_555
C40 N3 1_555 1_555
H48 C40 1_555 1_555
H49 C40 1_555 1_555
O5 H50 1_555 1_555
H51 O5 1_555 1_555
O6 H52 1_555 1_555
H53 O6 1_555 1_555
C5 C6 1_555 1_555
C14 C15 1_555 1_555
C23 C24 1_555 1_555
C28 C29 1_555 1_555
C32 C33 1_555 1_555
C37 C38 1_555 1_555
C39 C40 1_555 1_555

#END
