
#######################################################################
#
#                 Cambridge Crystallographic Data Centre
#                                CCDC 
#
#######################################################################
#
# If this CIF has been generated from an entry in the Cambridge 
# Structural Database, then it will include bibliographic, chemical, 
# crystal, experimental, refinement or atomic coordinate data resulting 
# from the CCDC's data processing and validation procedures.
#
#######################################################################

data_UCAHUD
_chemical_formula_moiety         'C22 H22 N2 O3'
_chemical_name_systematic        
N'-(4-Methoxybenzylidene)-2-(6-methoxy-2-naphthyl)propanehydrazide
_chemical_properties_biological  
'tested in vitro for activity against human prostate cancer'
_symmetry_cell_setting           triclinic
_symmetry_space_group_name_H-M   'P 1'
_symmetry_Int_Tables_number      1
_space_group_name_Hall           'P 1'
loop_
_symmetry_equiv_pos_site_id
_symmetry_equiv_pos_as_xyz
1 x,y,z
_cell_length_a                   6.746(4)
_cell_length_b                   8.014(4)
_cell_length_c                   17.267(9)
_cell_angle_alpha                95.179(9)
_cell_angle_beta                 96.205(6)
_cell_angle_gamma                96.717(9)
_cell_volume                     916.637
_cell_formula_units_Z            2
loop_
_atom_site_label
_atom_site_type_symbol
_atom_site_fract_x
_atom_site_fract_y
_atom_site_fract_z
O1 O 0.8745(9) 0.3543(7) 0.3090(3)
O2 O 0.1794(7) 0.6926(6) 0.6725(3)
O3 O 0.6677(9) 0.5988(7) 1.1420(4)
N1 N 0.4708(10) 0.7476(8) 0.5742(4)
N2 N 0.4369(10) 0.8621(9) 0.6358(4)
H1 H 0.509(12) 0.954(10) 0.647(5)
C1 C 1.0816(13) 0.3343(11) 0.3058(6)
H2 H 1.1572 0.4433 0.2994
H3 H 1.0932 0.2525 0.2613
H4 H 1.1363 0.2934 0.3544
C2 C 0.8327(13) 0.4592(10) 0.3702(5)
C3 C 0.9700(13) 0.5316(10) 0.4324(5)
H5 H 1.1063 0.5110 0.4353
C4 C 0.9059(12) 0.6345(10) 0.4904(5)
H6 H 1.0003 0.6847 0.5334
C5 C 0.7073(12) 0.6675(10) 0.4880(5)
C6 C 0.5730(12) 0.5948(10) 0.4239(5)
H7 H 0.4364 0.6145 0.4212
C7 C 0.6344(13) 0.4949(10) 0.3645(5)
H8 H 0.5425 0.4505 0.3198
C8 C 0.6466(13) 0.7738(10) 0.5528(5)
H9 H 0.7399 0.8640 0.5795
C9 C 0.2958(11) 0.8275(9) 0.6820(4)
C10 C 0.2886(12) 0.9621(10) 0.7478(5)
H10 H 0.3665 1.0688 0.7358
C11 C 0.0718(12) 0.9939(10) 0.7524(5)
H11 H 0.0167 1.0310 0.7029
H12 H 0.0676 1.0818 0.7953
H13 H -0.0084 0.8894 0.7621
C12 C 0.3937(12) 0.9076(10) 0.8229(5)
C13 C 0.5960(12) 0.8695(10) 0.8215(5)
H14 H 0.6648 0.8908 0.7776
C14 C 0.6890(12) 0.8030(10) 0.8831(5)
H15 H 0.8218 0.7760 0.8809
C15 C 0.5926(12) 0.7727(10) 0.9510(5)
C16 C 0.6899(13) 0.6939(10) 1.0133(5)
H16 H 0.8187 0.6588 1.0100
C17 C 0.5921(14) 0.6706(11) 1.0779(5)
C18 C 0.4029(13) 0.7245(10) 1.0825(5)
H17 H 0.3395 0.7103 1.1284
C19 C 0.3088(13) 0.7957(11) 1.0237(5)
H18 H 0.1799 0.8296 1.0285
C20 C 0.3981(12) 0.8205(10) 0.9555(5)
C21 C 0.3032(12) 0.8869(10) 0.8887(5)
H19 H 0.1718 0.9176 0.8904
C22 C 0.8766(15) 0.5743(13) 1.1449(6)
H20 H 0.8954 0.4979 1.0995
H21 H 0.9178 0.5251 1.1931
H22 H 0.9586 0.6834 1.1442
O4 O 0.4621(9) -0.1232(7) 0.3115(3)
O5 O -0.2987(7) 0.1728(6) 0.6596(3)
O6 O 0.1824(8) 0.1295(7) 1.1381(3)
N3 N 0.0270(10) 0.2243(8) 0.5830(4)
N4 N -0.0263(10) 0.3464(8) 0.6375(4)
H23 H 0.044(12) 0.453(11) 0.653(5)
C23 C 0.6681(13) -0.0993(11) 0.2959(5)
H24 H 0.7027 0.0167 0.2836
H25 H 0.6860 -0.1787 0.2514
H26 H 0.7559 -0.1196 0.3423
C24 C 0.4125(13) -0.0287(10) 0.3745(5)
C25 C 0.5430(12) 0.0984(9) 0.4185(5)
H27 H 0.6780 0.1230 0.4079
C26 C 0.4676(12) 0.1914(10) 0.4804(5)
H28 H 0.5547 0.2801 0.5115
C27 C 0.2711(13) 0.1573(10) 0.4971(5)
C28 C 0.1450(13) 0.0251(10) 0.4512(5)
H29 H 0.0100 -0.0011 0.4616
C29 C 0.2157(13) -0.0670(10) 0.3911(5)
H30 H 0.1296 -0.1572 0.3607
C30 C 0.1958(12) 0.2669(10) 0.5567(5)
H31 H 0.2729 0.3719 0.5764
C31 C -0.1855(13) 0.3081(10) 0.6741(5)
C32 C -0.2238(12) 0.4437(10) 0.7347(5)
H32 H -0.1568 0.5542 0.7220
C33 C -0.4465(12) 0.4578(10) 0.7361(6)
H33 H -0.4972 0.5095 0.6898
H34 H -0.4652 0.5280 0.7836
H35 H -0.5204 0.3448 0.7357
C34 C -0.1200(12) 0.4054(9) 0.8133(5)
C35 C 0.0918(11) 0.4574(9) 0.8328(5)
H36 H 0.1621 0.5217 0.7984
C36 C 0.1941(13) 0.4170(10) 0.8990(5)
H37 H 0.3345 0.4529 0.9098
C37 C 0.0958(12) 0.3225(10) 0.9525(5)
C38 C 0.2020(12) 0.2762(10) 1.0217(5)
H38 H 0.3426 0.3093 1.0343
C39 C 0.0965(13) 0.1836(10) 1.0689(5)
C40 C -0.1095(13) 0.1350(10) 1.0546(5)
H39 H -0.1774 0.0715 1.0899
C41 C -0.2122(13) 0.1795(10) 0.9894(5)
H40 H -0.3534 0.1472 0.9795
C42 C -0.1138(12) 0.2734(10) 0.9354(5)
C43 C -0.2182(12) 0.3157(10) 0.8655(5)
H41 H -0.3589 0.2816 0.8544
C44 C 0.3948(14) 0.1791(12) 1.1589(6)
H42 H 0.4687 0.1224 1.1207
H43 H 0.4353 0.1469 1.2112
H44 H 0.4252 0.3018 1.1591
loop_
_geom_bond_atom_site_label_1
_geom_bond_atom_site_label_2
_geom_bond_site_symmetry_1
_geom_bond_site_symmetry_2
O1 C1 1_555 1_555
O2 C9 1_555 1_555
O3 C17 1_555 1_555
N1 N2 1_555 1_555
N2 H1 1_555 1_555
C1 H2 1_555 1_555
H3 C1 1_555 1_555
H4 C1 1_555 1_555
C2 O1 1_555 1_555
C3 C2 1_555 1_555
H5 C3 1_555 1_555
C4 C3 1_555 1_555
H6 C4 1_555 1_555
C5 C4 1_555 1_555
C6 C5 1_555 1_555
H7 C6 1_555 1_555
C7 C2 1_555 1_555
H8 C7 1_555 1_555
C8 N1 1_555 1_555
H9 C8 1_555 1_555
C9 N2 1_555 1_555
C10 C9 1_555 1_555
H10 C10 1_555 1_555
C11 C10 1_555 1_555
H11 C11 1_555 1_555
H12 C11 1_555 1_555
H13 C11 1_555 1_555
C12 C10 1_555 1_555
C13 C12 1_555 1_555
H14 C13 1_555 1_555
C14 C13 1_555 1_555
H15 C14 1_555 1_555
C15 C14 1_555 1_555
C16 C15 1_555 1_555
H16 C16 1_555 1_555
C17 C16 1_555 1_555
C18 C17 1_555 1_555
H17 C18 1_555 1_555
C19 C18 1_555 1_555
H18 C19 1_555 1_555
C20 C15 1_555 1_555
C21 C12 1_555 1_555
H19 C21 1_555 1_555
C22 O3 1_555 1_555
H20 C22 1_555 1_555
H21 C22 1_555 1_555
H22 C22 1_555 1_555
O4 C23 1_555 1_555
O5 C31 1_555 1_555
O6 C39 1_555 1_555
N3 N4 1_555 1_555
N4 H23 1_555 1_555
C23 H24 1_555 1_555
H25 C23 1_555 1_555
H26 C23 1_555 1_555
C24 O4 1_555 1_555
C25 C24 1_555 1_555
H27 C25 1_555 1_555
C26 C25 1_555 1_555
H28 C26 1_555 1_555
C27 C26 1_555 1_555
C28 C27 1_555 1_555
H29 C28 1_555 1_555
C29 C24 1_555 1_555
H30 C29 1_555 1_555
C30 N3 1_555 1_555
H31 C30 1_555 1_555
C31 N4 1_555 1_555
C32 C31 1_555 1_555
H32 C32 1_555 1_555
C33 C32 1_555 1_555
H33 C33 1_555 1_555
H34 C33 1_555 1_555
H35 C33 1_555 1_555
C34 C32 1_555 1_555
C35 C34 1_555 1_555
H36 C35 1_555 1_555
C36 C35 1_555 1_555
H37 C36 1_555 1_555
C37 C36 1_555 1_555
C38 C37 1_555 1_555
H38 C38 1_555 1_555
C39 C38 1_555 1_555
C40 C39 1_555 1_555
H39 C40 1_555 1_555
C41 C40 1_555 1_555
H40 C41 1_555 1_555
C42 C37 1_555 1_555
C43 C34 1_555 1_555
H41 C43 1_555 1_555
C44 O6 1_555 1_555
H42 C44 1_555 1_555
H43 C44 1_555 1_555
H44 C44 1_555 1_555
C5 C8 1_555 1_555
C6 C7 1_555 1_555
C19 C20 1_555 1_555
C20 C21 1_555 1_555
C27 C30 1_555 1_555
C28 C29 1_555 1_555
C41 C42 1_555 1_555
C42 C43 1_555 1_555

#END
