
#######################################################################
#
#                 Cambridge Crystallographic Data Centre
#                                CCDC 
#
#######################################################################
#
# If this CIF has been generated from an entry in the Cambridge 
# Structural Database, then it will include bibliographic, chemical, 
# crystal, experimental, refinement or atomic coordinate data resulting 
# from the CCDC's data processing and validation procedures.
#
#######################################################################

data_UCAXAZ
_chemical_formula_moiety         'C22 H26 N2 O4'
_chemical_name_systematic        
4-Benzyl-8-methyl-7-nitro-6-phenyloctahydropyrido[2,1-c][1,4]oxazin-8-ol
_symmetry_cell_setting           orthorhombic
_symmetry_space_group_name_H-M   'P 21 21 21'
_symmetry_Int_Tables_number      19
_space_group_name_Hall           'P 2ac 2ab'
loop_
_symmetry_equiv_pos_site_id
_symmetry_equiv_pos_as_xyz
1 x,y,z
2 1/2+x,1/2-y,-z
3 -x,1/2+y,1/2-z
4 1/2-x,-y,1/2+z
_cell_length_a                   10.3717(2)
_cell_length_b                   16.0215(3)
_cell_length_c                   24.5159(4)
_cell_angle_alpha                90
_cell_angle_beta                 90
_cell_angle_gamma                90
_cell_volume                     4073.81
_exptl_crystal_colour            colorless
_cell_formula_units_Z            8
loop_
_atom_site_label
_atom_site_type_symbol
_atom_site_fract_x
_atom_site_fract_y
_atom_site_fract_z
O1 O 0.85519(10) 0.74157(6) 0.34283(4)
O2 O 1.07244(9) 0.49089(6) 0.43991(4)
H1 H 1.0879(17) 0.4447(12) 0.4576(7)
O3 O 0.94130(10) 0.28576(6) 0.36774(4)
O4 O 0.90040(10) 0.34635(6) 0.44440(4)
N1 N 0.83243(10) 0.56665(6) 0.35499(4)
N2 N 0.92399(10) 0.34828(7) 0.39536(4)
C1 C 0.72100(13) 0.62218(8) 0.36501(5)
H2 H 0.6418 0.5925 0.3521
C2 C 0.73747(15) 0.69980(8) 0.32993(6)
H3 H 0.7377 0.6838 0.2909
H4 H 0.6640 0.7381 0.3361
C3 C 0.96233(14) 0.68798(8) 0.33346(6)
H5 H 1.0429 0.7182 0.3423
H6 H 0.9652 0.6728 0.2943
C4 C 0.95512(12) 0.60911(8) 0.36743(5)
H7 H 0.9583 0.6237 0.4071
C5 C 1.06925(12) 0.55434(8) 0.35297(5)
H8 H 1.1500 0.5843 0.3619
H9 H 1.0688 0.5436 0.3132
C6 C 1.06716(12) 0.47151(8) 0.38320(5)
C7 C 0.93669(12) 0.43143(7) 0.36775(5)
H10 H 0.9363 0.4218 0.3274
C8 C 0.81838(12) 0.48487(8) 0.38212(5)
H11 H 0.8137 0.4929 0.4225
C9 C 0.69881(13) 0.64728(9) 0.42547(5)
H12 H 0.7114 0.5977 0.4490
H13 H 0.7636 0.6896 0.4361
C10 C 0.56564(14) 0.68204(8) 0.43479(5)
C11 C 0.54490(15) 0.76765(9) 0.44129(6)
H14 H 0.6159 0.8050 0.4399
C12 C 0.42160(16) 0.79854(10) 0.44979(6)
H15 H 0.4086 0.8569 0.4537
C13 C 0.31737(15) 0.74475(10) 0.45258(6)
H16 H 0.2332 0.7661 0.4587
C14 C 0.33623(14) 0.65995(10) 0.44644(5)
H17 H 0.2652 0.6227 0.4486
C15 C 0.45952(14) 0.62933(9) 0.43704(5)
H18 H 0.4715 0.5710 0.4320
C16 C 1.17984(12) 0.41677(8) 0.36632(6)
H19 H 1.1793 0.3653 0.3880
H20 H 1.2608 0.4468 0.3726
H21 H 1.1721 0.4028 0.3275
C17 C 0.69868(12) 0.43964(8) 0.36241(5)
C18 C 0.67787(13) 0.42851(8) 0.30637(5)
H22 H 0.7349 0.4535 0.2808
C19 C 0.57493(13) 0.38141(8) 0.28798(6)
H23 H 0.5616 0.3745 0.2499
C20 C 0.49095(14) 0.34419(9) 0.32478(7)
H24 H 0.4209 0.3114 0.3120
C21 C 0.51019(13) 0.35527(9) 0.38004(6)
H25 H 0.4525 0.3304 0.4054
C22 C 0.61341(12) 0.40256(8) 0.39875(6)
H26 H 0.6258 0.4096 0.4369
O5 O 0.17682(9) 0.35600(6) 0.49936(4)
O6 O 0.34658(10) 0.61879(6) 0.59436(4)
H27 H 0.3546(18) 0.6627(12) 0.6167(8)
O7 O 0.50714(11) 0.55421(8) 0.73364(4)
O8 O 0.31729(11) 0.60633(6) 0.71881(4)
N3 N 0.25067(10) 0.41846(6) 0.60331(4)
N4 N 0.40602(12) 0.55927(7) 0.70752(5)
C23 C 0.12168(12) 0.38192(8) 0.59493(5)
H28 H 0.0991 0.3506 0.6289
C24 C 0.13167(13) 0.31823(8) 0.54894(5)
H29 H 0.1917 0.2732 0.5599
H30 H 0.0459 0.2929 0.5425
C25 C 0.30094(13) 0.39196(9) 0.50866(5)
H31 H 0.3327 0.4172 0.4743
H32 H 0.3621 0.3474 0.5194
C26 C 0.29756(12) 0.45814(8) 0.55284(5)
H33 H 0.2375 0.5040 0.5419
C27 C 0.43225(13) 0.49290(8) 0.56030(5)
H34 H 0.4601 0.5203 0.5261
H35 H 0.4926 0.4465 0.5679
C28 C 0.43828(13) 0.55585(8) 0.60685(5)
C29 C 0.39537(13) 0.50513(8) 0.65770(5)
H36 H 0.4553 0.4567 0.6621
C30 C 0.25728(13) 0.47128(8) 0.65240(5)
H37 H 0.1957 0.5189 0.6487
C31 C 0.01047(12) 0.44547(8) 0.58415(6)
H38 H 0.0322 0.4997 0.6012
H39 H 0.0012 0.4544 0.5444
C32 C -0.11509(12) 0.41402(8) 0.60714(5)
C33 C -0.19651(13) 0.36211(9) 0.57753(6)
H40 H -0.1768 0.3498 0.5405
C34 C -0.30640(14) 0.32779(9) 0.60117(6)
H41 H -0.3600 0.2915 0.5805
C35 C -0.33788(13) 0.34644(9) 0.65481(6)
H42 H -0.4122 0.3225 0.6712
C36 C -0.25994(14) 0.40025(9) 0.68427(6)
H43 H -0.2825 0.4146 0.7206
C37 C -0.14939(13) 0.43329(9) 0.66110(6)
H44 H -0.0961 0.4694 0.6820
C38 C 0.57334(13) 0.59115(9) 0.61276(6)
H45 H 0.6336 0.5459 0.6213
H46 H 0.5745 0.6324 0.6423
H47 H 0.5991 0.6180 0.5785
C39 C 0.22339(12) 0.42066(8) 0.70296(5)
C40 C 0.27247(13) 0.34060(8) 0.71011(5)
H48 H 0.3281 0.3172 0.6834
C41 C 0.24051(15) 0.29475(9) 0.75621(6)
H49 H 0.2739 0.2400 0.7607
C42 C 0.16036(15) 0.32825(10) 0.79559(6)
H50 H 0.1379 0.2964 0.8268
C43 C 0.11306(13) 0.40832(10) 0.78929(6)
H51 H 0.0593 0.4319 0.8166
C44 C 0.14403(13) 0.45430(9) 0.74317(5)
H52 H 0.1108 0.5092 0.7390
loop_
_geom_bond_atom_site_label_1
_geom_bond_atom_site_label_2
_geom_bond_site_symmetry_1
_geom_bond_site_symmetry_2
O1 C2 1_555 1_555
O2 H1 1_555 1_555
O3 N2 1_555 1_555
O4 N2 1_555 1_555
N1 C1 1_555 1_555
N2 C7 1_555 1_555
C1 H2 1_555 1_555
C2 C1 1_555 1_555
H3 C2 1_555 1_555
H4 C2 1_555 1_555
C3 O1 1_555 1_555
H5 C3 1_555 1_555
H6 C3 1_555 1_555
C4 N1 1_555 1_555
H7 C4 1_555 1_555
C5 C4 1_555 1_555
H8 C5 1_555 1_555
H9 C5 1_555 1_555
C6 O2 1_555 1_555
C7 C6 1_555 1_555
H10 C7 1_555 1_555
C8 N1 1_555 1_555
H11 C8 1_555 1_555
C9 C1 1_555 1_555
H12 C9 1_555 1_555
H13 C9 1_555 1_555
C10 C9 1_555 1_555
C11 C10 1_555 1_555
H14 C11 1_555 1_555
C12 C11 1_555 1_555
H15 C12 1_555 1_555
C13 C12 1_555 1_555
H16 C13 1_555 1_555
C14 C13 1_555 1_555
H17 C14 1_555 1_555
C15 C10 1_555 1_555
H18 C15 1_555 1_555
C16 C6 1_555 1_555
H19 C16 1_555 1_555
H20 C16 1_555 1_555
H21 C16 1_555 1_555
C17 C8 1_555 1_555
C18 C17 1_555 1_555
H22 C18 1_555 1_555
C19 C18 1_555 1_555
H23 C19 1_555 1_555
C20 C19 1_555 1_555
H24 C20 1_555 1_555
C21 C20 1_555 1_555
H25 C21 1_555 1_555
C22 C17 1_555 1_555
H26 C22 1_555 1_555
O5 C24 1_555 1_555
O6 H27 1_555 1_555
O7 N4 1_555 1_555
O8 N4 1_555 1_555
N3 C23 1_555 1_555
N4 C29 1_555 1_555
C23 H28 1_555 1_555
C24 C23 1_555 1_555
H29 C24 1_555 1_555
H30 C24 1_555 1_555
C25 O5 1_555 1_555
H31 C25 1_555 1_555
H32 C25 1_555 1_555
C26 N3 1_555 1_555
H33 C26 1_555 1_555
C27 C26 1_555 1_555
H34 C27 1_555 1_555
H35 C27 1_555 1_555
C28 O6 1_555 1_555
C29 C28 1_555 1_555
H36 C29 1_555 1_555
C30 N3 1_555 1_555
H37 C30 1_555 1_555
C31 C23 1_555 1_555
H38 C31 1_555 1_555
H39 C31 1_555 1_555
C32 C31 1_555 1_555
C33 C32 1_555 1_555
H40 C33 1_555 1_555
C34 C33 1_555 1_555
H41 C34 1_555 1_555
C35 C34 1_555 1_555
H42 C35 1_555 1_555
C36 C35 1_555 1_555
H43 C36 1_555 1_555
C37 C32 1_555 1_555
H44 C37 1_555 1_555
C38 C28 1_555 1_555
H45 C38 1_555 1_555
H46 C38 1_555 1_555
H47 C38 1_555 1_555
C39 C30 1_555 1_555
C40 C39 1_555 1_555
H48 C40 1_555 1_555
C41 C40 1_555 1_555
H49 C41 1_555 1_555
C42 C41 1_555 1_555
H50 C42 1_555 1_555
C43 C42 1_555 1_555
H51 C43 1_555 1_555
C44 C39 1_555 1_555
H52 C44 1_555 1_555
C3 C4 1_555 1_555
C5 C6 1_555 1_555
C7 C8 1_555 1_555
C14 C15 1_555 1_555
C21 C22 1_555 1_555
C25 C26 1_555 1_555
C27 C28 1_555 1_555
C29 C30 1_555 1_555
C36 C37 1_555 1_555
C43 C44 1_555 1_555

#END
