
#######################################################################
#
#                 Cambridge Crystallographic Data Centre
#                                CCDC 
#
#######################################################################
#
# If this CIF has been generated from an entry in the Cambridge 
# Structural Database, then it will include bibliographic, chemical, 
# crystal, experimental, refinement or atomic coordinate data resulting 
# from the CCDC's data processing and validation procedures.
#
#######################################################################

data_UCAYII
_chemical_formula_moiety         'C26 H26 Br1 N1 O4'
_chemical_name_systematic        
2-(1-(4-Bromophenyl)-2-nitroethyl)-3-(4-methoxyphenyl)-1-phenylpentan-1-one
_symmetry_cell_setting           monoclinic
_symmetry_space_group_name_H-M   'P 21'
_symmetry_Int_Tables_number      4
_space_group_name_Hall           'P 2yb'
loop_
_symmetry_equiv_pos_site_id
_symmetry_equiv_pos_as_xyz
1 x,y,z
2 -x,1/2+y,-z
_cell_length_a                   10.730(6)
_cell_length_b                   9.321(6)
_cell_length_c                   12.255(7)
_cell_angle_alpha                90
_cell_angle_beta                 100.860(5)
_cell_angle_gamma                90
_cell_volume                     1203.72
_exptl_crystal_colour            colorless
_exptl_crystal_description       block
_cell_formula_units_Z            2
loop_
_atom_site_label
_atom_site_type_symbol
_atom_site_fract_x
_atom_site_fract_y
_atom_site_fract_z
C1 C -0.1265(5) 0.8198(6) 0.7230(5)
H1 H -0.0484 0.8550 0.7130
C2 C -0.2082(5) 0.9102(6) 0.7678(5)
H2 H -0.1854 1.0044 0.7871
C3 C -0.3220(5) 0.8565(7) 0.7824(5)
C4 C -0.3569(5) 0.7181(7) 0.7535(5)
H3 H -0.4346 0.6827 0.7645
C5 C -0.2761(5) 0.6324(6) 0.7083(5)
H4 H -0.3007 0.5393 0.6870
C6 C -0.1584(5) 0.6817(5) 0.6937(4)
C7 C -0.0583(5) 0.5847(5) 0.6590(4)
H5 H 0.0003 0.6483 0.6297
C8 C 0.0212(4) 0.5101(5) 0.7627(4)
H6 H 0.0447 0.5836 0.8201
C9 C 0.1455(4) 0.4389(5) 0.7423(4)
H7 H 0.1228 0.3490 0.7020
C10 C 0.2161(5) 0.5320(5) 0.6724(5)
C11 C 0.2471(5) 0.4823(8) 0.5754(4)
H8 H 0.2232 0.3899 0.5513
C12 C 0.3123(6) 0.5658(7) 0.5136(5)
H9 H 0.3339 0.5287 0.4492
C13 C 0.3464(5) 0.7036(7) 0.5454(5)
C14 C 0.3174(5) 0.7557(6) 0.6441(5)
H10 H 0.3408 0.8482 0.6680
C15 C 0.2543(5) 0.6694(5) 0.7050(4)
H11 H 0.2362 0.7045 0.7714
C16 C 0.4529(7) 0.7474(10) 0.3950(6)
H12 H 0.5090 0.6675 0.4152
H13 H 0.4972 0.8225 0.3646
H14 H 0.3813 0.7173 0.3404
C17 C 0.2282(5) 0.4021(6) 0.8542(5)
H15 H 0.1784 0.3457 0.8969
H16 H 0.2518 0.4905 0.8947
C18 C 0.3504(6) 0.3180(8) 0.8462(5)
H17 H 0.3291 0.2359 0.7990
H18 H 0.3908 0.2870 0.9189
H19 H 0.4072 0.3790 0.8155
C19 C -0.0619(5) 0.4006(6) 0.8071(5)
C20 C -0.1091(5) 0.4256(5) 0.9141(5)
C21 C -0.0546(5) 0.5207(5) 0.9937(5)
H20 H 0.0161 0.5731 0.9838
C22 C -0.1043(6) 0.5394(7) 1.0892(5)
H21 H -0.0668 0.6035 1.1437
C23 C -0.2089(6) 0.4627(8) 1.1025(5)
H22 H -0.2414 0.4729 1.1673
C24 C -0.2655(6) 0.3721(8) 1.0220(6)
H23 H -0.3395 0.3248 1.0302
C25 C -0.2151(5) 0.3489(6) 0.9281(5)
H24 H -0.2519 0.2827 0.8749
C26 C -0.1085(5) 0.4783(7) 0.5657(4)
H25 H -0.0449 0.4056 0.5614
H26 H -0.1840 0.4310 0.5808
N1 N -0.1393(7) 0.5582(7) 0.4583(5)
O1 O -0.0701(7) 0.5649(12) 0.4021(6)
O2 O -0.2443(6) 0.6057(6) 0.4297(5)
Br1 Br -0.43216(5) 0.97817(8) 0.84542(5)
O3 O 0.4105(4) 0.7985(5) 0.4898(4)
O4 O -0.0927(4) 0.2918(4) 0.7538(4)
loop_
_geom_bond_atom_site_label_1
_geom_bond_atom_site_label_2
_geom_bond_site_symmetry_1
_geom_bond_site_symmetry_2
C1 H1 1_555 1_555
C2 C1 1_555 1_555
H2 C2 1_555 1_555
C3 C2 1_555 1_555
C4 C3 1_555 1_555
H3 C4 1_555 1_555
C5 C4 1_555 1_555
H4 C5 1_555 1_555
C6 C1 1_555 1_555
C7 C6 1_555 1_555
H5 C7 1_555 1_555
C8 C7 1_555 1_555
H6 C8 1_555 1_555
C9 C8 1_555 1_555
H7 C9 1_555 1_555
C10 C9 1_555 1_555
C11 C10 1_555 1_555
H8 C11 1_555 1_555
C12 C11 1_555 1_555
H9 C12 1_555 1_555
C13 C12 1_555 1_555
C14 C13 1_555 1_555
H10 C14 1_555 1_555
C15 C10 1_555 1_555
H11 C15 1_555 1_555
C16 H12 1_555 1_555
H13 C16 1_555 1_555
H14 C16 1_555 1_555
C17 C9 1_555 1_555
H15 C17 1_555 1_555
H16 C17 1_555 1_555
C18 C17 1_555 1_555
H17 C18 1_555 1_555
H18 C18 1_555 1_555
H19 C18 1_555 1_555
C19 C8 1_555 1_555
C20 C19 1_555 1_555
C21 C20 1_555 1_555
H20 C21 1_555 1_555
C22 C21 1_555 1_555
H21 C22 1_555 1_555
C23 C22 1_555 1_555
H22 C23 1_555 1_555
C24 C23 1_555 1_555
H23 C24 1_555 1_555
C25 C20 1_555 1_555
H24 C25 1_555 1_555
C26 C7 1_555 1_555
H25 C26 1_555 1_555
H26 C26 1_555 1_555
N1 C26 1_555 1_555
O1 N1 1_555 1_555
O2 N1 1_555 1_555
Br1 C3 1_555 1_555
O3 C13 1_555 1_555
O4 C19 1_555 1_555
C5 C6 1_555 1_555
C14 C15 1_555 1_555
C16 O3 1_555 1_555
C24 C25 1_555 1_555

#END
