
#######################################################################
#
#                 Cambridge Crystallographic Data Centre
#                                CCDC 
#
#######################################################################
#
# If this CIF has been generated from an entry in the Cambridge 
# Structural Database, then it will include bibliographic, chemical, 
# crystal, experimental, refinement or atomic coordinate data resulting 
# from the CCDC's data processing and validation procedures.
#
#######################################################################

data_UCAYUU
_chemical_formula_moiety         'C25 H26 O2'
_chemical_name_systematic        '3-Benzyl-2,4-diphenylhexanoic acid'
_symmetry_cell_setting           monoclinic
_symmetry_space_group_name_H-M   'P 21'
_symmetry_Int_Tables_number      4
_space_group_name_Hall           'P 2yb'
loop_
_symmetry_equiv_pos_site_id
_symmetry_equiv_pos_as_xyz
1 x,y,z
2 -x,1/2+y,-z
_cell_length_a                   11.447(3)
_cell_length_b                   6.649(2)
_cell_length_c                   14.217(4)
_cell_angle_alpha                90
_cell_angle_beta                 110.166(3)
_cell_angle_gamma                90
_cell_volume                     1015.74
_exptl_crystal_colour            colorless
_exptl_crystal_description       block
_cell_formula_units_Z            2
loop_
_atom_site_label
_atom_site_type_symbol
_atom_site_fract_x
_atom_site_fract_y
_atom_site_fract_z
C1 C 0.8413(2) 0.1723(5) 0.65621(19)
H1 H 0.8449 0.0795 0.7061
C2 C 0.8816(3) 0.1176(6) 0.5783(3)
H2 H 0.9108 -0.0120 0.5754
C3 C 0.8783(3) 0.2552(8) 0.5057(3)
H3 H 0.9065 0.2194 0.4540
C4 C 0.8346(3) 0.4413(8) 0.5088(2)
H4 H 0.8320 0.5339 0.4591
C5 C 0.7938(2) 0.4946(5) 0.58521(19)
H5 H 0.7635 0.6240 0.5864
C6 C 0.7962(2) 0.3620(4) 0.66051(16)
C7 C 0.7576(2) 0.4326(4) 0.74585(18)
H6 H 0.7303 0.5711 0.7326
H7 H 0.8310 0.4326 0.8060
C8 C 0.65484(19) 0.3145(3) 0.76891(15)
H8 H 0.6827 0.1747 0.7823
C9 C 0.5318(2) 0.3145(3) 0.67689(15)
H9 H 0.5214 0.4494 0.6474
C10 C 0.5319(2) 0.1667(3) 0.59599(16)
C11 C 0.4148(2) 0.2670(3) 0.70170(16)
C12 C 0.4022(2) 0.0884(4) 0.74719(17)
H10 H 0.4656 -0.0067 0.7624
C13 C 0.2968(3) 0.0499(5) 0.77024(19)
H11 H 0.2900 -0.0700 0.8017
C14 C 0.2030(3) 0.1866(6) 0.7472(2)
H12 H 0.1319 0.1603 0.7627
C15 C 0.2131(3) 0.3627(6) 0.7011(2)
H13 H 0.1485 0.4557 0.6850
C16 C 0.3189(2) 0.4037(5) 0.67834(18)
H14 H 0.3251 0.5241 0.6471
C17 C 0.6378(2) 0.3989(3) 0.86546(15)
H15 H 0.5704 0.3204 0.8751
C18 C 0.7525(2) 0.3579(4) 0.95692(15)
C19 C 0.8465(2) 0.4972(5) 0.99734(18)
H16 H 0.8401 0.6230 0.9675
C20 C 0.9483(3) 0.4552(7) 1.0798(2)
H17 H 1.0098 0.5521 1.1046
C21 C 0.9604(3) 0.2758(7) 1.1254(3)
H18 H 1.0297 0.2489 1.1817
C22 C 0.8695(4) 0.1309(6) 1.0882(2)
H19 H 0.8773 0.0063 1.1195
C23 C 0.7658(3) 0.1727(4) 1.00338(18)
H20 H 0.7050 0.0747 0.9780
C24 C 0.5952(2) 0.6178(3) 0.85661(17)
H21 H 0.6648 0.7041 0.8598
H22 H 0.5309 0.6379 0.7918
C25 C 0.5455(3) 0.6785(4) 0.93791(19)
H23 H 0.6099 0.6643 1.0021
H24 H 0.4765 0.5937 0.9351
H25 H 0.5185 0.8160 0.9283
O1 O 0.57203(17) -0.0131(2) 0.62895(10)
H26 H 0.5536 -0.0922 0.5818
O2 O 0.49206(17) 0.2042(2) 0.50693(11)
loop_
_geom_bond_atom_site_label_1
_geom_bond_atom_site_label_2
_geom_bond_site_symmetry_1
_geom_bond_site_symmetry_2
C1 H1 1_555 1_555
C2 C1 1_555 1_555
H2 C2 1_555 1_555
C3 C2 1_555 1_555
H3 C3 1_555 1_555
C4 C3 1_555 1_555
H4 C4 1_555 1_555
C5 C4 1_555 1_555
H5 C5 1_555 1_555
C6 C1 1_555 1_555
C7 C6 1_555 1_555
H6 C7 1_555 1_555
H7 C7 1_555 1_555
C8 C7 1_555 1_555
H8 C8 1_555 1_555
C9 C8 1_555 1_555
H9 C9 1_555 1_555
C10 C9 1_555 1_555
C11 C9 1_555 1_555
C12 C11 1_555 1_555
H10 C12 1_555 1_555
C13 C12 1_555 1_555
H11 C13 1_555 1_555
C14 C13 1_555 1_555
H12 C14 1_555 1_555
C15 C14 1_555 1_555
H13 C15 1_555 1_555
C16 C11 1_555 1_555
H14 C16 1_555 1_555
C17 C8 1_555 1_555
H15 C17 1_555 1_555
C18 C17 1_555 1_555
C19 C18 1_555 1_555
H16 C19 1_555 1_555
C20 C19 1_555 1_555
H17 C20 1_555 1_555
C21 C20 1_555 1_555
H18 C21 1_555 1_555
C22 C21 1_555 1_555
H19 C22 1_555 1_555
C23 C18 1_555 1_555
H20 C23 1_555 1_555
C24 C17 1_555 1_555
H21 C24 1_555 1_555
H22 C24 1_555 1_555
C25 C24 1_555 1_555
H23 C25 1_555 1_555
H24 C25 1_555 1_555
H25 C25 1_555 1_555
O1 C10 1_555 1_555
H26 O1 1_555 1_555
O2 C10 1_555 1_555
C5 C6 1_555 1_555
C15 C16 1_555 1_555
C22 C23 1_555 1_555

#END
