
#######################################################################
#
#                 Cambridge Crystallographic Data Centre
#                                CCDC 
#
#######################################################################
#
# If this CIF has been generated from an entry in the Cambridge 
# Structural Database, then it will include bibliographic, chemical, 
# crystal, experimental, refinement or atomic coordinate data resulting 
# from the CCDC's data processing and validation procedures.
#
#######################################################################

data_UCAYIH
_chemical_formula_moiety         'C22 H20 O2'
_chemical_name_systematic        
trans-1,4-bis(phenylethynyl)cyclohexane-1,4-diol
_symmetry_cell_setting           triclinic
_symmetry_space_group_name_H-M   'P -1'
_symmetry_Int_Tables_number      2
_space_group_name_Hall           '-P 1'
loop_
_symmetry_equiv_pos_site_id
_symmetry_equiv_pos_as_xyz
1 x,y,z
2 -x,-y,-z
_cell_length_a                   17.6377(8)
_cell_length_b                   18.8315(9)
_cell_length_c                   23.3591(11)
_cell_angle_alpha                78.402(2)
_cell_angle_beta                 88.367(2)
_cell_angle_gamma                67.611(2)
_cell_volume                     7017.36
_exptl_crystal_colour            colorless
_exptl_crystal_description       block
_chemical_melting_point          '456 K'
_cell_formula_units_Z            16
_exptl_crystal_recrystallization_method acetone
loop_
_atom_site_label
_atom_site_type_symbol
_atom_site_fract_x
_atom_site_fract_y
_atom_site_fract_z
O1 O 0.77614(7) 0.24962(8) 0.40888(5)
H1 H 0.7791 0.2785 0.3771
O2 O 0.47690(7) 0.23965(6) 0.34332(5)
H2 H 0.4347 0.2813 0.3363
C1 C 0.70160(10) 0.23566(10) 0.40768(7)
C2 C 0.62746(10) 0.31406(10) 0.39678(7)
H3 H 0.6251 0.3408 0.4296
H4 H 0.6341 0.3482 0.3604
C3 C 0.54715(9) 0.30230(10) 0.39125(7)
H5 H 0.5380 0.2722 0.4289
H6 H 0.5009 0.3541 0.3829
C4 C 0.54825(9) 0.25850(9) 0.34262(7)
C5 C 0.62230(10) 0.18012(9) 0.35322(7)
H7 H 0.6151 0.1456 0.3892
H8 H 0.6246 0.1540 0.3201
C6 C 0.70263(10) 0.19066(10) 0.35966(7)
H9 H 0.7133 0.2194 0.3219
H10 H 0.7480 0.1384 0.3690
C7 C 0.69779(10) 0.19051(10) 0.46668(8)
C8 C 0.69003(10) 0.15930(10) 0.51504(7)
C15 C 0.55106(10) 0.30625(9) 0.28454(7)
C16 C 0.55363(10) 0.34288(10) 0.23702(7)
C29 C 0.67831(11) 0.12892(11) 0.57494(8)
C30 C 0.71091(19) 0.04805(12) 0.59849(8)
H26 H 0.7422 0.0123 0.5752
C31 C 0.69842(19) 0.02074(13) 0.65631(8)
H27 H 0.7207 -0.0341 0.6721
C32 C 0.65514(12) 0.07204(17) 0.69127(9)
H28 H 0.6467 0.0526 0.7307
C33 C 0.62299(12) 0.15210(12) 0.66784(9)
H29 H 0.5931 0.1876 0.6917
C34 C 0.63447(11) 0.18033(12) 0.61030(8)
H30 H 0.6121 0.2352 0.5948
C35 C 0.55765(13) 0.38664(13) 0.18007(8)
C36 C 0.63368(13) 0.37336(12) 0.15551(9)
H31 H 0.6827 0.3382 0.1775
C37 C 0.63823(14) 0.41497(14) 0.10045(9)
H32 H 0.6900 0.4066 0.0840
C38 C 0.56733(15) 0.46814(13) 0.06857(10)
H33 H 0.5703 0.4963 0.0305
C39 C 0.49153(14) 0.47954(13) 0.09210(9)
H34 H 0.4427 0.5152 0.0701
C40 C 0.48679(13) 0.43951(12) 0.14783(9)
H35 H 0.4350 0.4491 0.1645
O3 O 0.16961(7) 0.64753(6) 0.18056(5)
H36 H 0.1950 0.6656 0.1544
O4 O 0.32075(7) 0.35186(6) 0.32746(5)
H37 H 0.2971 0.3332 0.3546
C41 C 0.21619(9) 0.56517(9) 0.20179(7)
C42 C 0.15733(9) 0.53176(9) 0.23560(7)
H38 H 0.1317 0.5629 0.2655
H39 H 0.1130 0.5363 0.2083
C43 C 0.20191(10) 0.44575(9) 0.26544(7)
H40 H 0.2236 0.4140 0.2352
H41 H 0.1623 0.4266 0.2876
C44 C 0.27303(9) 0.43424(9) 0.30742(7)
C45 C 0.33154(10) 0.46852(9) 0.27422(7)
H42 H 0.3749 0.4647 0.3020
H43 H 0.3584 0.4372 0.2447
C46 C 0.28703(10) 0.55422(9) 0.24380(7)
H44 H 0.3266 0.5732 0.2216
H45 H 0.2650 0.5864 0.2737
C47 C 0.24622(10) 0.52723(10) 0.15153(7)
C48 C 0.26720(11) 0.49662(10) 0.11052(7)
C49 C 0.24235(10) 0.47080(9) 0.35830(7)
C50 C 0.21947(10) 0.50071(10) 0.39933(7)
C57 C 0.28931(12) 0.45956(10) 0.06078(7)
C58 C 0.34785(18) 0.38423(12) 0.06703(9)
H51 H 0.3760 0.3575 0.1039
C59 C 0.3657(2) 0.34718(13) 0.01979(10)
H52 H 0.4056 0.2951 0.0247
C60 C 0.32555(16) 0.38506(13) -0.03400(9)
H53 H 0.3379 0.3598 -0.0664
C61 C 0.26847(13) 0.45931(13) -0.04018(8)
H54 H 0.2404 0.4857 -0.0772
C62 C 0.25029(11) 0.49720(12) 0.00658(8)
H55 H 0.2109 0.5495 0.0012
C63 C 0.19437(15) 0.53891(11) 0.44845(8)
C64 C 0.24369(12) 0.51092(12) 0.50009(8)
H56 H 0.2901 0.4629 0.5048
C65 C 0.22304(13) 0.55192(13) 0.54504(9)
H57 H 0.2558 0.5314 0.5806
C66 C 0.15422(16) 0.62045(13) 0.53895(9)
H58 H 0.1425 0.6495 0.5692
C67 C 0.10532(14) 0.64789(13) 0.48830(10)
H59 H 0.0576 0.6948 0.4845
C68 C 0.12448(13) 0.60726(12) 0.44328(9)
H60 H 0.0894 0.6259 0.4089
O5 O 0.69023(7) 0.64276(7) 0.18183(5)
H61 H 0.6394 0.6688 0.1811
O6 O 0.82265(7) 0.33701(7) 0.31645(5)
H62 H 0.8731 0.3101 0.3164
C69 C 0.71313(9) 0.57700(9) 0.23035(7)
C70 C 0.80696(9) 0.53662(9) 0.23167(7)
H63 H 0.8237 0.5254 0.1926
H64 H 0.8319 0.5726 0.2404
C71 C 0.83959(9) 0.46009(9) 0.27736(7)
H65 H 0.8283 0.4720 0.3169
H66 H 0.8998 0.4348 0.2752
C72 C 0.79987(9) 0.40285(9) 0.26825(7)
C73 C 0.70619(9) 0.44377(9) 0.26744(7)
H67 H 0.6808 0.4078 0.2595
H68 H 0.6900 0.4557 0.3064
C74 C 0.67391(9) 0.51965(9) 0.22127(7)
H69 H 0.6136 0.5449 0.2231
H70 H 0.6858 0.5073 0.1819
C75 C 0.68740(10) 0.60443(9) 0.28522(7)
C76 C 0.66659(10) 0.62718(9) 0.32968(7)
C77 C 0.82620(10) 0.37556(9) 0.21294(7)
C78 C 0.84892(10) 0.35326(10) 0.16853(7)
C79 C 0.64521(10) 0.65593(9) 0.38307(7)
C80 C 0.57644(11) 0.65370(11) 0.41201(8)
H71 H 0.5409 0.6346 0.3960
C81 C 0.55866(11) 0.67961(13) 0.46407(9)
H72 H 0.5117 0.6771 0.4840
C82 C 0.60850(12) 0.70938(12) 0.48705(8)
H73 H 0.5956 0.7281 0.5224
C83 C 0.67714(13) 0.71203(12) 0.45840(8)
H74 H 0.7120 0.7319 0.4744
C84 C 0.69563(12) 0.68548(12) 0.40666(8)
H75 H 0.7432 0.6871 0.3873
C85 C 0.87248(10) 0.32806(10) 0.11415(7)
C86 C 0.83956(13) 0.27959(13) 0.09520(9)
H76 H 0.8042 0.2607 0.1194
C87 C 0.85864(14) 0.25830(14) 0.04148(9)
H77 H 0.8355 0.2257 0.0288
C88 C 0.91097(12) 0.28412(12) 0.00660(8)
H78 H 0.9239 0.2695 -0.0302
C89 C 0.94477(10) 0.33114(10) 0.02549(7)
H79 H 0.9811 0.3488 0.0015
C90 C 0.92598(10) 0.35312(10) 0.07877(7)
H80 H 0.9495 0.3856 0.0912
O7 O 0.77512(7) 0.26218(6) 0.90430(5)
H81 H 0.8166 0.2201 0.9131
O8 O 0.46945(7) 0.25998(7) 0.84625(5)
H82 H 0.4705 0.2242 0.8747
C91 C 0.70251(9) 0.24497(9) 0.90796(7)
C92 C 0.69959(9) 0.20043(9) 0.86094(7)
H83 H 0.7088 0.2287 0.8225
H84 H 0.7444 0.1478 0.8696
C93 C 0.61769(9) 0.19107(9) 0.85737(7)
H85 H 0.6109 0.1584 0.8945
H86 H 0.6175 0.1638 0.8253
C94 C 0.54557(9) 0.27109(9) 0.84637(7)
C95 C 0.54784(10) 0.31581(10) 0.89380(7)
H87 H 0.5032 0.3685 0.8850
H88 H 0.5382 0.2875 0.9320
C96 C 0.63001(10) 0.32457(9) 0.89795(7)
H89 H 0.6302 0.3509 0.9306
H90 H 0.6367 0.3581 0.8613
C97 C 0.69986(10) 0.20024(10) 0.96740(7)
C98 C 0.69419(10) 0.16917(10) 1.01638(7)
C105 C 0.55007(10) 0.31611(10) 0.78745(7)
C106 C 0.55893(10) 0.34973(10) 0.74004(7)
C113 C 0.68403(12) 0.14019(15) 1.07711(10)
C114 C 0.65465(11) 0.19337(11) 1.11416(8)
H101 H 0.6422 0.2476 1.0993
C115 C 0.64361(11) 0.16733(11) 1.17233(8)
H102 H 0.6245 0.2036 1.1976
C116 C 0.66037(12) 0.08860(12) 1.19409(8)
H103 H 0.6519 0.0710 1.2339
C117 C 0.68880(13) 0.03523(12) 1.15713(12)
H104 H 0.7003 -0.0188 1.1720
C118 C 0.70094(12) 0.06107(11) 1.09897(8)
H105 H 0.7214 0.0242 1.0743
C119 C 0.56963(11) 0.38783(10) 0.68233(8)
C120 C 0.5110(2) 0.45826(12) 0.65340(8)
H106 H 0.4644 0.4855 0.6730
C121 C 0.52107(13) 0.49000(11) 0.59640(9)
H107 H 0.4806 0.5383 0.5769
C122 C 0.58960(13) 0.45337(12) 0.56763(9)
H108 H 0.5954 0.4748 0.5281
C123 C 0.64938(13) 0.38380(13) 0.59632(9)
H109 H 0.6975 0.3585 0.5772
C124 C 0.63986(12) 0.35074(12) 0.65332(9)
H110 H 0.6812 0.3030 0.6729
O9 O -0.01714(7) 0.23438(8) 0.33784(5)
H111 H -0.0250 0.2111 0.3707
O10 O 0.26893(6) 0.26069(6) 0.41272(5)
H112 H 0.3126 0.2204 0.4191
C125 C 0.05457(10) 0.25177(10) 0.34222(7)
C126 C 0.13058(10) 0.17535(9) 0.35625(7)
H113 H 0.1226 0.1415 0.3923
H114 H 0.1377 0.1470 0.3238
C127 C 0.20787(9) 0.19090(9) 0.36485(7)
H115 H 0.2189 0.2201 0.3275
H116 H 0.2552 0.1402 0.3756
C128 C 0.20013(9) 0.23796(9) 0.41253(7)
C129 C 0.12366(9) 0.31453(9) 0.39888(7)
H117 H 0.1167 0.3425 0.4315
H118 H 0.1313 0.3488 0.3630
C130 C 0.04647(10) 0.29875(10) 0.39014(7)
H119 H -0.0010 0.3494 0.3796
H120 H 0.0356 0.2692 0.4274
C131 C 0.06054(10) 0.29766(10) 0.28415(7)
C132 C 0.06742(10) 0.33310(10) 0.23685(7)
C133 C 0.19686(9) 0.19223(9) 0.47140(7)
C134 C 0.19630(10) 0.15941(9) 0.52069(7)
C141 C 0.07490(10) 0.37250(10) 0.17876(7)
C142 C 0.02518(11) 0.45074(10) 0.15720(7)
H126 H -0.0129 0.4799 0.1817
C143 C 0.03111(12) 0.48618(11) 0.10023(8)
H127 H -0.0038 0.5394 0.0857
C144 C 0.08682(11) 0.44532(12) 0.06449(8)
H128 H 0.0906 0.4701 0.0254
C145 C 0.13718(13) 0.36858(14) 0.08571(9)
H129 H 0.1763 0.3403 0.0614
C146 C 0.13097(12) 0.33196(12) 0.14240(9)
H130 H 0.1656 0.2786 0.1565
C147 C 0.19673(11) 0.12425(11) 0.58159(8)
C148 C 0.26082(12) 0.11050(14) 0.62027(9)
H131 H 0.3074 0.1207 0.6060
C149 C 0.25830(13) 0.08170(15) 0.67936(10)
H132 H 0.3019 0.0741 0.7058
C150 C 0.19224(13) 0.06338(14) 0.69961(9)
H133 H 0.1909 0.0419 0.7399
C151 C 0.12764(13) 0.07709(13) 0.66185(9)
H134 H 0.0818 0.0654 0.6759
C152 C 0.12937(12) 0.10755(12) 0.60325(8)
H135 H 0.0845 0.1169 0.5773
O11 O 0.27800(7) 0.25067(7) 0.90475(5)
H136 H 0.2789 0.2839 0.8750
O12 O -0.01767(7) 0.23462(6) 0.83917(5)
H137 H -0.0601 0.2760 0.8315
C153 C 0.20394(9) 0.23623(10) 0.90275(7)
C154 C 0.20751(10) 0.18898(10) 0.85591(7)
H138 H 0.2180 0.2170 0.8178
H139 H 0.2537 0.1374 0.8663
C155 C 0.12789(9) 0.17620(9) 0.84972(7)
H140 H 0.1204 0.1431 0.8864
H141 H 0.1317 0.1480 0.8176
C156 C 0.05345(9) 0.25423(9) 0.83687(7)
C157 C 0.05049(9) 0.30146(9) 0.88363(7)
H142 H 0.0041 0.3530 0.8735
H143 H 0.0404 0.2733 0.9218
C158 C 0.12993(9) 0.31449(9) 0.88925(7)
H144 H 0.1261 0.3434 0.9209
H145 H 0.1376 0.3469 0.8523
C159 C 0.19862(10) 0.19176(10) 0.96152(7)
C160 C 0.19056(10) 0.15789(10) 1.00904(7)
C161 C 0.05699(10) 0.29863(9) 0.77750(7)
C162 C 0.05958(10) 0.33112(10) 0.72838(7)
C169 C 0.18240(10) 0.12017(10) 1.06779(7)
C170 C 0.12104(12) 0.16039(12) 1.10172(9)
H151 H 0.0829 0.2117 1.0854
C171 C 0.11488(13) 0.12641(13) 1.15888(9)
H152 H 0.0722 0.1542 1.1813
C172 C 0.16955(12) 0.05235(12) 1.18332(8)
H153 H 0.1661 0.0298 1.2230
C173 C 0.22990(12) 0.01145(10) 1.14994(8)
H154 H 0.2676 -0.0399 1.1666
C174 C 0.23604(11) 0.04449(10) 1.09241(7)
H155 H 0.2771 0.0154 1.0696
C175 C 0.06575(11) 0.36310(11) 0.66785(8)
C176 C 0.04698(12) 0.44400(11) 0.64813(8)
H156 H 0.0302 0.4785 0.6748
C177 C 0.05441(13) 0.47305(12) 0.58983(9)
H157 H 0.0437 0.5273 0.5769
C178 C 0.0784(2) 0.42365(17) 0.55059(9)
H158 H 0.0819 0.4444 0.5105
C179 C 0.09582(12) 0.34440(12) 0.56973(8)
H159 H 0.1124 0.3105 0.5426
C180 C 0.08975(11) 0.31404(11) 0.62808(8)
H160 H 0.1026 0.2594 0.6410
O13 O 0.92716(7) 0.14738(6) 0.92546(5)
H161 H 0.9511 0.1655 0.8983
C181 C 0.97370(10) 0.06492(9) 0.94692(7)
C182 C 1.04252(10) 0.05429(9) 0.99058(7)
H162 H 1.0829 0.0733 0.9696
H163 H 1.0189 0.0864 1.0203
C183 C 0.91364(10) 0.03134(9) 0.97866(7)
H164 H 0.8712 0.0353 0.9500
H165 H 0.8858 0.0627 1.0079
C184 C 1.00679(10) 0.02740(9) 0.89697(7)
C185 C 1.03112(10) -0.00263(10) 0.85602(7)
C186 C 1.05638(10) -0.04028(10) 0.80676(7)
C187 C 1.13422(12) -0.09894(12) 0.80748(9)
H166 H 1.1728 -0.1119 0.8393
C188 C 1.15544(14) -0.13818(13) 0.76154(9)
H167 H 1.2085 -0.1782 0.7621
C189 C 1.09988(12) -0.11915(12) 0.71481(8)
H168 H 1.1142 -0.1474 0.6841
C190 C 1.02527(12) -0.05967(12) 0.71290(8)
H169 H 0.9878 -0.0459 0.6803
C191 C 1.00341(11) -0.01954(11) 0.75834(8)
H170 H 0.9512 0.0221 0.7564
O13A O 1.07284(7) -0.14738(6) 1.07454(5)
H161A H 1.0489 -0.1655 1.1017
C181A C 1.02630(10) -0.06492(9) 1.05308(7)
C182A C 0.95748(10) -0.05429(9) 1.00942(7)
H162A H 0.9171 -0.0733 1.0304
H163A H 0.9811 -0.0864 0.9797
C183A C 1.08636(10) -0.03134(9) 1.02134(7)
H164A H 1.1288 -0.0353 1.0500
H165A H 1.1142 -0.0627 0.9921
C184A C 0.99321(10) -0.02740(9) 1.10303(7)
C185A C 0.96888(10) 0.00263(10) 1.14398(7)
C186A C 0.94362(10) 0.04028(10) 1.19324(7)
C187A C 0.86578(12) 0.09894(12) 1.19252(9)
H166A H 0.8272 0.1119 1.1607
C188A C 0.84456(14) 0.13818(13) 1.23846(9)
H167A H 0.7915 0.1782 1.2379
C189A C 0.90012(12) 0.11915(12) 1.28519(8)
H168A H 0.8858 0.1474 1.3159
C190A C 0.97473(12) 0.05967(12) 1.28710(8)
H169A H 1.0122 0.0459 1.3197
C191A C 0.99659(11) 0.01954(11) 1.24166(8)
H170A H 1.0488 -0.0221 1.2436
O14 O 0.42408(7) 0.14810(6) 0.42740(5)
H171 H 0.4480 0.1652 0.3997
C192 C 0.46896(10) 0.06526(9) 0.44754(7)
C193 C 0.41103(9) 0.03526(9) 0.48578(7)
H172 H 0.3909 0.0669 0.5162
H173 H 0.3630 0.0418 0.4613
C194 C 0.54594(10) 0.05113(9) 0.48493(7)
H174 H 0.5300 0.0832 0.5153
H175 H 0.5845 0.0681 0.4597
C195 C 0.49123(10) 0.02611(9) 0.39744(7)
C196 C 0.50850(10) -0.00696(10) 0.35763(7)
C203 C 0.52652(10) -0.04490(10) 0.30863(8)
C204 C 0.51146(12) 0.00104(11) 0.25181(8)
H181 H 0.4880 0.0567 0.2456
C205 C 0.52878(13) -0.03464(12) 0.20425(8)
H182 H 0.5167 -0.0035 0.1657
C206 C 0.56295(19) -0.11611(13) 0.21215(9)
H183 H 0.5772 -0.1403 0.1793
C207 C 0.57751(13) -0.16145(12) 0.26816(9)
H184 H 0.5996 -0.2171 0.2738
C208 C 0.55972(12) -0.12633(11) 0.31624(8)
H185 H 0.5695 -0.1578 0.3546
O14A O 0.57592(7) -0.14810(6) 0.57260(5)
H171A H 0.5520 -0.1652 0.6003
C192A C 0.53104(10) -0.06526(9) 0.55246(7)
C193A C 0.58897(9) -0.03526(9) 0.51422(7)
H172A H 0.6091 -0.0669 0.4838
H173A H 0.6370 -0.0418 0.5387
C194A C 0.45406(10) -0.05113(9) 0.51507(7)
H174A H 0.4700 -0.0832 0.4847
H175A H 0.4155 -0.0681 0.5403
C195A C 0.50877(10) -0.02611(9) 0.60256(7)
C196A C 0.49150(10) 0.00696(10) 0.64237(7)
C203A C 0.47348(10) 0.04490(10) 0.69137(8)
C204A C 0.48854(12) -0.00104(11) 0.74819(8)
H181A H 0.5120 -0.0567 0.7544
C205A C 0.47122(13) 0.03464(12) 0.79575(8)
H182A H 0.4833 0.0035 0.8343
C206A C 0.43705(19) 0.11611(13) 0.78785(9)
H183A H 0.4228 0.1403 0.8207
C207A C 0.42249(13) 0.16145(12) 0.73184(9)
H184A H 0.4004 0.2171 0.7262
C208A C 0.44028(12) 0.12633(11) 0.68376(8)
H185A H 0.4305 0.1578 0.6454
O15 O 0.43704(7) 0.15428(7) -0.06582(5)
H186 H 0.3860 0.1797 -0.0677
C209 C 0.45876(9) 0.08760(9) -0.01805(7)
C210 C 0.55228(9) 0.04498(9) -0.01723(7)
H187 H 0.5683 0.0341 -0.0565
H188 H 0.5789 0.0795 -0.0081
C211 C 0.41702(9) 0.03234(9) -0.02803(7)
H189 H 0.4281 0.0210 -0.0677
H190 H 0.3569 0.0589 -0.0260
C212 C 0.43407(9) 0.11387(9) 0.03745(7)
C213 C 0.41328(10) 0.13533(9) 0.08241(7)
C214 C 0.39175(10) 0.16157(9) 0.13661(7)
C215 C 0.43518(11) 0.19985(10) 0.15811(7)
H191 H 0.4782 0.2092 0.1366
C216 C 0.41604(12) 0.22418(11) 0.21065(8)
H192 H 0.4457 0.2505 0.2249
C217 C 0.35401(11) 0.21028(11) 0.24230(8)
H193 H 0.3411 0.2268 0.2784
C218 C 0.31101(11) 0.17217(11) 0.22136(8)
H194 H 0.2685 0.1625 0.2433
C219 C 0.32921(10) 0.14813(10) 0.16863(8)
H195 H 0.2989 0.1225 0.1543
O15A O 0.56296(7) -0.15428(7) 0.06582(5)
H186A H 0.6140 -0.1797 0.0677
C209A C 0.54124(9) -0.08760(9) 0.01805(7)
C210A C 0.44772(9) -0.04498(9) 0.01723(7)
H187A H 0.4317 -0.0341 0.0565
H188A H 0.4211 -0.0795 0.0081
C211A C 0.58298(9) -0.03234(9) 0.02803(7)
H189A H 0.5719 -0.0210 0.0677
H190A H 0.6431 -0.0589 0.0260
C212A C 0.56593(9) -0.11387(9) -0.03745(7)
C213A C 0.58672(10) -0.13533(9) -0.08241(7)
C214A C 0.60825(10) -0.16157(9) -0.13661(7)
C215A C 0.56482(11) -0.19985(10) -0.15811(7)
H191A H 0.5218 -0.2092 -0.1366
C216A C 0.58396(12) -0.22418(11) -0.21065(8)
H192A H 0.5543 -0.2505 -0.2249
C217A C 0.64599(11) -0.21028(11) -0.24230(8)
H193A H 0.6589 -0.2268 -0.2784
C218A C 0.68899(11) -0.17217(11) -0.22136(8)
H194A H 0.7315 -0.1625 -0.2433
C219A C 0.67079(10) -0.14813(10) -0.16863(8)
H195A H 0.7011 -0.1225 -0.1543
O16 O 0.93619(7) 0.15284(7) 0.43285(5)
H196 H 0.8852 0.1782 0.4312
C220 C 0.95837(10) 0.08684(10) 0.48122(7)
C221 C 0.91682(10) 0.03130(10) 0.47226(7)
H197 H 0.8567 0.0578 0.4744
H198 H 0.9278 0.0188 0.4329
C222 C 1.05182(9) 0.04467(10) 0.48153(7)
H199 H 1.0783 0.0799 0.4893
H200 H 1.0673 0.0326 0.4425
C223 C 0.93344(10) 0.11421(10) 0.53638(7)
C224 C 0.91187(10) 0.13557(10) 0.58112(7)
C225 C 0.88892(10) 0.16073(10) 0.63581(7)
C226 C 0.83289(10) 0.13873(10) 0.67019(7)
H201 H 0.8075 0.1081 0.6571
C227 C 0.81401(10) 0.16091(10) 0.72351(8)
H202 H 0.7760 0.1451 0.7469
C228 C 0.90532(13) 0.22887(13) 0.70890(9)
H203 H 0.9299 0.2601 0.7220
C229 C 0.85032(11) 0.20569(11) 0.74305(8)
H204 H 0.8374 0.2205 0.7798
C230 C 0.92472(12) 0.20652(12) 0.65568(8)
H205 H 0.9626 0.2227 0.6323
O16A O 1.06381(7) -0.15284(7) 0.56715(5)
H196A H 1.1148 -0.1782 0.5688
C220A C 1.04163(10) -0.08684(10) 0.51878(7)
C221A C 1.08318(10) -0.03130(10) 0.52774(7)
H197A H 1.1433 -0.0578 0.5256
H198A H 1.0722 -0.0188 0.5671
C222A C 0.94818(9) -0.04467(10) 0.51847(7)
H199A H 0.9217 -0.0799 0.5107
H200A H 0.9327 -0.0326 0.5575
C223A C 1.06656(10) -0.11421(10) 0.46362(7)
C224A C 1.08813(10) -0.13557(10) 0.41888(7)
C225A C 1.11108(10) -0.16073(10) 0.36419(7)
C226A C 1.16711(10) -0.13873(10) 0.32981(7)
H201A H 1.1925 -0.1081 0.3429
C227A C 1.18599(10) -0.16091(10) 0.27649(8)
H202A H 1.2240 -0.1451 0.2531
C228A C 1.09468(13) -0.22887(13) 0.29110(9)
H203A H 1.0701 -0.2601 0.2780
C229A C 1.14968(11) -0.20569(11) 0.25695(8)
H204A H 1.1626 -0.2205 0.2202
C230A C 1.07528(12) -0.20652(12) 0.34432(8)
H205A H 1.0374 -0.2227 0.3677
C9? C 0.68159(10) 0.11504(10) 0.56932(7)
C10? C 0.73830(10) 0.04205(10) 0.59657(7)
H11? H 0.7844 0.0150 0.5764
C11? C 0.72755(10) 0.00867(10) 0.65336(7)
H12? H 0.7663 -0.0412 0.6720
C12? C 0.66008(10) 0.04827(10) 0.68289(7)
H13? H 0.6527 0.0255 0.7217
C13? C 0.60337(10) 0.12126(10) 0.65564(7)
H14? H 0.5573 0.1483 0.6758
C14? C 0.61413(10) 0.15464(10) 0.59885(7)
H15? H 0.5754 0.2045 0.5802
C17? C 0.56720(10) 0.35564(10) 0.17323(7)
C18? C 0.59485(10) 0.30359(10) 0.13553(7)
H16? H 0.6092 0.2490 0.1501
C19? C 0.60149(10) 0.33142(10) 0.07658(7)
H17? H 0.6204 0.2958 0.0508
C20? C 0.58049(10) 0.41129(10) 0.05532(7)
H18? H 0.5850 0.4303 0.0150
C21? C 0.55284(10) 0.46334(10) 0.09301(7)
H19? H 0.5385 0.5179 0.0785
C22? C 0.54620(10) 0.43552(10) 0.15197(7)
H20? H 0.5273 0.4711 0.1777
C23? C 0.55119(10) 0.37916(10) 0.16988(7)
C24? C 0.62107(10) 0.39120(10) 0.14954(7)
H21? H 0.6660 0.3798 0.1761
C25? C 0.62522(10) 0.41997(10) 0.09038(7)
H22? H 0.6730 0.4282 0.0765
C26? C 0.55950(10) 0.43671(10) 0.05156(7)
H23? H 0.5623 0.4564 0.0111
C27? C 0.48962(10) 0.42467(10) 0.07189(7)
H24? H 0.4447 0.4361 0.0454
C28? C 0.48547(10) 0.39590(10) 0.13106(7)
H25? H 0.4377 0.3877 0.1450
C51? C 0.21892(10) 0.54492(10) 0.44354(7)
C52? C 0.23732(10) 0.50000(10) 0.50010(7)
H46? H 0.2612 0.4444 0.5062
C53? C 0.22085(10) 0.53647(10) 0.54775(7)
H47? H 0.2334 0.5058 0.5864
C54? C 0.18597(10) 0.61787(10) 0.53884(7)
H48? H 0.1747 0.6428 0.5714
C55? C 0.16756(10) 0.66279(10) 0.48229(7)
H49? H 0.1437 0.7184 0.4762
C56? C 0.18404(10) 0.62632(10) 0.43464(7)
H50? H 0.1715 0.6570 0.3960
C99? C 0.69407(10) 0.12228(10) 1.06711(7)
C100? C 0.76495(10) 0.07072(10) 1.10022(7)
H91? H 0.8172 0.0628 1.0847
C101? C 0.75931(10) 0.03072(10) 1.15604(7)
H92? H 0.8078 -0.0045 1.1787
C102? C 0.68280(10) 0.04226(10) 1.17875(7)
H93? H 0.6789 0.0149 1.2169
C103? C 0.61192(10) 0.09381(10) 1.14564(7)
H94? H 0.5596 0.1017 1.1612
C104? C 0.61755(10) 0.13382(10) 1.08982(7)
H95? H 0.5700 0.1730 1.0683
C107? C 0.57460(10) 0.37181(10) 0.67667(7)
C108? C 0.53675(10) 0.45157(10) 0.65288(7)
H96? H 0.5027 0.4862 0.6760
C109? C 0.54872(10) 0.48067(10) 0.59525(7)
H97? H 0.5229 0.5352 0.5790
C110? C 0.59855(10) 0.43001(10) 0.56142(7)
H98? H 0.6067 0.4499 0.5220
C111? C 0.63640(10) 0.35025(10) 0.58520(7)
H99? H 0.6704 0.3156 0.5621
C112? C 0.62442(10) 0.32115(10) 0.64283(7)
H100? H 0.6503 0.2666 0.6591
C135? C 0.18658(10) 0.12765(9) 0.58269(7)
C136? C 0.16424(10) 0.17977(9) 0.62049(7)
H121? H 0.1531 0.2338 0.6059
C137? C 0.15819(10) 0.15284(9) 0.67969(7)
H122? H 0.1429 0.1885 0.7055
C138? C 0.17448(10) 0.07379(9) 0.70111(7)
H123? H 0.1703 0.0554 0.7416
C139? C 0.19682(10) 0.02166(9) 0.66332(7)
H124? H 0.2079 -0.0324 0.6780
C140? C 0.20287(10) 0.04859(9) 0.60411(7)
H125? H 0.2181 0.0130 0.5783
C163? C 0.04806(10) 0.37860(10) 0.66965(7)
C164? C 0.11346(10) 0.40072(10) 0.65285(7)
H146? H 0.1529 0.3966 0.6815
C165? C 0.12110(10) 0.42892(10) 0.59414(7)
H147? H 0.1658 0.4440 0.5827
C166? C 0.06335(10) 0.43501(10) 0.55223(7)
H148? H 0.0686 0.4543 0.5121
C167? C -0.00204(10) 0.41289(10) 0.56902(7)
H149? H -0.0415 0.4170 0.5404
C168? C -0.00968(10) 0.38468(10) 0.62773(7)
H150? H -0.0544 0.3696 0.6392
C197? C 0.55232(10) -0.04187(10) 0.30246(7)
C198? C 0.50695(10) -0.01365(10) 0.24930(7)
H176? H 0.4609 0.0348 0.2431
C199? C 0.52893(10) -0.05636(10) 0.20519(7)
H177? H 0.4979 -0.0371 0.1689
C200? C 0.59627(10) -0.12730(10) 0.21424(7)
H178? H 0.6113 -0.1565 0.1841
C201? C 0.64164(10) -0.15552(10) 0.26740(7)
H179? H 0.6877 -0.2040 0.2736
C202? C 0.61966(10) -0.11280(10) 0.31151(7)
H180? H 0.6507 -0.1321 0.3478
loop_
_geom_bond_atom_site_label_1
_geom_bond_atom_site_label_2
_geom_bond_site_symmetry_1
_geom_bond_site_symmetry_2
O1 H1 1_555 1_555
O2 H2 1_555 1_555
C1 O1 1_555 1_555
C2 C1 1_555 1_555
H3 C2 1_555 1_555
H4 C2 1_555 1_555
C3 C2 1_555 1_555
H5 C3 1_555 1_555
H6 C3 1_555 1_555
C4 O2 1_555 1_555
C5 C4 1_555 1_555
H7 C5 1_555 1_555
H8 C5 1_555 1_555
C6 C1 1_555 1_555
H9 C6 1_555 1_555
H10 C6 1_555 1_555
C7 C1 1_555 1_555
C8 C7 1_555 1_555
C15 C4 1_555 1_555
C16 C15 1_555 1_555
C29 C8 1_555 1_555
C30 C29 1_555 1_555
H26 C30 1_555 1_555
C31 C30 1_555 1_555
H27 C31 1_555 1_555
C32 C31 1_555 1_555
H28 C32 1_555 1_555
C33 C32 1_555 1_555
H29 C33 1_555 1_555
C34 C29 1_555 1_555
H30 C34 1_555 1_555
C35 C16 1_555 1_555
C36 C35 1_555 1_555
H31 C36 1_555 1_555
C37 C36 1_555 1_555
H32 C37 1_555 1_555
C38 C37 1_555 1_555
H33 C38 1_555 1_555
C39 C38 1_555 1_555
H34 C39 1_555 1_555
C40 C35 1_555 1_555
H35 C40 1_555 1_555
O3 H36 1_555 1_555
O4 H37 1_555 1_555
C41 O3 1_555 1_555
C42 C41 1_555 1_555
H38 C42 1_555 1_555
H39 C42 1_555 1_555
C43 C42 1_555 1_555
H40 C43 1_555 1_555
H41 C43 1_555 1_555
C44 O4 1_555 1_555
C45 C44 1_555 1_555
H42 C45 1_555 1_555
H43 C45 1_555 1_555
C46 C41 1_555 1_555
H44 C46 1_555 1_555
H45 C46 1_555 1_555
C47 C41 1_555 1_555
C48 C47 1_555 1_555
C49 C44 1_555 1_555
C50 C49 1_555 1_555
C57 C48 1_555 1_555
C58 C57 1_555 1_555
H51 C58 1_555 1_555
C59 C58 1_555 1_555
H52 C59 1_555 1_555
C60 C59 1_555 1_555
H53 C60 1_555 1_555
C61 C60 1_555 1_555
H54 C61 1_555 1_555
C62 C57 1_555 1_555
H55 C62 1_555 1_555
C63 C50 1_555 1_555
C64 C63 1_555 1_555
H56 C64 1_555 1_555
C65 C64 1_555 1_555
H57 C65 1_555 1_555
C66 C65 1_555 1_555
H58 C66 1_555 1_555
C67 C66 1_555 1_555
H59 C67 1_555 1_555
C68 C63 1_555 1_555
H60 C68 1_555 1_555
O5 H61 1_555 1_555
O6 H62 1_555 1_555
C69 O5 1_555 1_555
C70 C69 1_555 1_555
H63 C70 1_555 1_555
H64 C70 1_555 1_555
C71 C70 1_555 1_555
H65 C71 1_555 1_555
H66 C71 1_555 1_555
C72 O6 1_555 1_555
C73 C72 1_555 1_555
H67 C73 1_555 1_555
H68 C73 1_555 1_555
C74 C69 1_555 1_555
H69 C74 1_555 1_555
H70 C74 1_555 1_555
C75 C69 1_555 1_555
C76 C75 1_555 1_555
C77 C72 1_555 1_555
C78 C77 1_555 1_555
C79 C76 1_555 1_555
C80 C79 1_555 1_555
H71 C80 1_555 1_555
C81 C80 1_555 1_555
H72 C81 1_555 1_555
C82 C81 1_555 1_555
H73 C82 1_555 1_555
C83 C82 1_555 1_555
H74 C83 1_555 1_555
C84 C79 1_555 1_555
H75 C84 1_555 1_555
C85 C78 1_555 1_555
C86 C85 1_555 1_555
H76 C86 1_555 1_555
C87 C86 1_555 1_555
H77 C87 1_555 1_555
C88 C87 1_555 1_555
H78 C88 1_555 1_555
C89 C88 1_555 1_555
H79 C89 1_555 1_555
C90 C85 1_555 1_555
H80 C90 1_555 1_555
O7 H81 1_555 1_555
O8 H82 1_555 1_555
C91 O7 1_555 1_555
C92 C91 1_555 1_555
H83 C92 1_555 1_555
H84 C92 1_555 1_555
C93 C92 1_555 1_555
H85 C93 1_555 1_555
H86 C93 1_555 1_555
C94 O8 1_555 1_555
C95 C94 1_555 1_555
H87 C95 1_555 1_555
H88 C95 1_555 1_555
C96 C91 1_555 1_555
H89 C96 1_555 1_555
H90 C96 1_555 1_555
C97 C91 1_555 1_555
C98 C97 1_555 1_555
C105 C94 1_555 1_555
C106 C105 1_555 1_555
C113 C98 1_555 1_555
C114 C113 1_555 1_555
H101 C114 1_555 1_555
C115 C114 1_555 1_555
H102 C115 1_555 1_555
C116 C115 1_555 1_555
H103 C116 1_555 1_555
C117 C116 1_555 1_555
H104 C117 1_555 1_555
C118 C113 1_555 1_555
H105 C118 1_555 1_555
C119 C106 1_555 1_555
C120 C119 1_555 1_555
H106 C120 1_555 1_555
C121 C120 1_555 1_555
H107 C121 1_555 1_555
C122 C121 1_555 1_555
H108 C122 1_555 1_555
C123 C122 1_555 1_555
H109 C123 1_555 1_555
C124 C119 1_555 1_555
H110 C124 1_555 1_555
O9 H111 1_555 1_555
O10 H112 1_555 1_555
C125 O9 1_555 1_555
C126 C125 1_555 1_555
H113 C126 1_555 1_555
H114 C126 1_555 1_555
C127 C126 1_555 1_555
H115 C127 1_555 1_555
H116 C127 1_555 1_555
C128 O10 1_555 1_555
C129 C128 1_555 1_555
H117 C129 1_555 1_555
H118 C129 1_555 1_555
C130 C125 1_555 1_555
H119 C130 1_555 1_555
H120 C130 1_555 1_555
C131 C125 1_555 1_555
C132 C131 1_555 1_555
C133 C128 1_555 1_555
C134 C133 1_555 1_555
C141 C132 1_555 1_555
C142 C141 1_555 1_555
H126 C142 1_555 1_555
C143 C142 1_555 1_555
H127 C143 1_555 1_555
C144 C143 1_555 1_555
H128 C144 1_555 1_555
C145 C144 1_555 1_555
H129 C145 1_555 1_555
C146 C141 1_555 1_555
H130 C146 1_555 1_555
C147 C134 1_555 1_555
C148 C147 1_555 1_555
H131 C148 1_555 1_555
C149 C148 1_555 1_555
H132 C149 1_555 1_555
C150 C149 1_555 1_555
H133 C150 1_555 1_555
C151 C150 1_555 1_555
H134 C151 1_555 1_555
C152 C147 1_555 1_555
H135 C152 1_555 1_555
O11 H136 1_555 1_555
O12 H137 1_555 1_555
C153 O11 1_555 1_555
C154 C153 1_555 1_555
H138 C154 1_555 1_555
H139 C154 1_555 1_555
C155 C154 1_555 1_555
H140 C155 1_555 1_555
H141 C155 1_555 1_555
C156 O12 1_555 1_555
C157 C156 1_555 1_555
H142 C157 1_555 1_555
H143 C157 1_555 1_555
C158 C153 1_555 1_555
H144 C158 1_555 1_555
H145 C158 1_555 1_555
C159 C153 1_555 1_555
C160 C159 1_555 1_555
C161 C156 1_555 1_555
C162 C161 1_555 1_555
C169 C160 1_555 1_555
C170 C169 1_555 1_555
H151 C170 1_555 1_555
C171 C170 1_555 1_555
H152 C171 1_555 1_555
C172 C171 1_555 1_555
H153 C172 1_555 1_555
C173 C172 1_555 1_555
H154 C173 1_555 1_555
C174 C169 1_555 1_555
H155 C174 1_555 1_555
C175 C162 1_555 1_555
C176 C175 1_555 1_555
H156 C176 1_555 1_555
C177 C176 1_555 1_555
H157 C177 1_555 1_555
C178 C177 1_555 1_555
H158 C178 1_555 1_555
C179 C178 1_555 1_555
H159 C179 1_555 1_555
C180 C175 1_555 1_555
H160 C180 1_555 1_555
O13 H161 1_555 1_555
C181 O13 1_555 1_555
C182 C181 1_555 1_555
H162 C182 1_555 1_555
H163 C182 1_555 1_555
C183 C181 1_555 1_555
H164 C183 1_555 1_555
H165 C183 1_555 1_555
C184 C181 1_555 1_555
C185 C184 1_555 1_555
C186 C185 1_555 1_555
C187 C186 1_555 1_555
H166 C187 1_555 1_555
C188 C187 1_555 1_555
H167 C188 1_555 1_555
C189 C188 1_555 1_555
H168 C189 1_555 1_555
C190 C189 1_555 1_555
H169 C190 1_555 1_555
C191 C186 1_555 1_555
H170 C191 1_555 1_555
O14 H171 1_555 1_555
C192 O14 1_555 1_555
C193 C192 1_555 1_555
H172 C193 1_555 1_555
H173 C193 1_555 1_555
C194 C192 1_555 1_555
H174 C194 1_555 1_555
H175 C194 1_555 1_555
C195 C192 1_555 1_555
C196 C195 1_555 1_555
C203 C196 1_555 1_555
C204 C203 1_555 1_555
H181 C204 1_555 1_555
C205 C204 1_555 1_555
H182 C205 1_555 1_555
C206 C205 1_555 1_555
H183 C206 1_555 1_555
C207 C206 1_555 1_555
H184 C207 1_555 1_555
C208 C203 1_555 1_555
H185 C208 1_555 1_555
O15 H186 1_555 1_555
C209 O15 1_555 1_555
C210 C209 1_555 1_555
H187 C210 1_555 1_555
H188 C210 1_555 1_555
C211 C209 1_555 1_555
H189 C211 1_555 1_555
H190 C211 1_555 1_555
C212 C209 1_555 1_555
C213 C212 1_555 1_555
C214 C213 1_555 1_555
C215 C214 1_555 1_555
H191 C215 1_555 1_555
C216 C215 1_555 1_555
H192 C216 1_555 1_555
C217 C216 1_555 1_555
H193 C217 1_555 1_555
C218 C217 1_555 1_555
H194 C218 1_555 1_555
C219 C214 1_555 1_555
H195 C219 1_555 1_555
O16 H196 1_555 1_555
C220 O16 1_555 1_555
C221 C220 1_555 1_555
H197 C221 1_555 1_555
H198 C221 1_555 1_555
C222 C220 1_555 1_555
H199 C222 1_555 1_555
H200 C222 1_555 1_555
C223 C220 1_555 1_555
C224 C223 1_555 1_555
C225 C224 1_555 1_555
C226 C225 1_555 1_555
H201 C226 1_555 1_555
C227 C226 1_555 1_555
H202 C227 1_555 1_555
C228 H203 1_555 1_555
C229 C227 1_555 1_555
H204 C229 1_555 1_555
C230 C225 1_555 1_555
H205 C230 1_555 1_555
O13A H161A 1_555 1_555
C181A O13A 1_555 1_555
C182A C183 1_555 1_555
H162A C182A 1_555 1_555
H163A C182A 1_555 1_555
C183A C182 1_555 1_555
H164A C183A 1_555 1_555
H165A C183A 1_555 1_555
C184A C181A 1_555 1_555
C185A C184A 1_555 1_555
C186A C185A 1_555 1_555
C187A C186A 1_555 1_555
H166A C187A 1_555 1_555
C188A C187A 1_555 1_555
H167A C188A 1_555 1_555
C189A C188A 1_555 1_555
H168A C189A 1_555 1_555
C190A C189A 1_555 1_555
H169A C190A 1_555 1_555
C191A C186A 1_555 1_555
H170A C191A 1_555 1_555
O14A H171A 1_555 1_555
C192A O14A 1_555 1_555
C193A C194 1_555 1_555
H172A C193A 1_555 1_555
H173A C193A 1_555 1_555
C194A C193 1_555 1_555
H174A C194A 1_555 1_555
H175A C194A 1_555 1_555
C195A C192A 1_555 1_555
C196A C195A 1_555 1_555
C203A C196A 1_555 1_555
C204A C203A 1_555 1_555
H181A C204A 1_555 1_555
C205A C204A 1_555 1_555
H182A C205A 1_555 1_555
C206A C205A 1_555 1_555
H183A C206A 1_555 1_555
C207A C206A 1_555 1_555
H184A C207A 1_555 1_555
C208A C203A 1_555 1_555
H185A C208A 1_555 1_555
O15A H186A 1_555 1_555
C209A O15A 1_555 1_555
C210A C211 1_555 1_555
H187A C210A 1_555 1_555
H188A C210A 1_555 1_555
C211A C210 1_555 1_555
H189A C211A 1_555 1_555
H190A C211A 1_555 1_555
C212A C209A 1_555 1_555
C213A C212A 1_555 1_555
C214A C213A 1_555 1_555
C215A C214A 1_555 1_555
H191A C215A 1_555 1_555
C216A C215A 1_555 1_555
H192A C216A 1_555 1_555
C217A C216A 1_555 1_555
H193A C217A 1_555 1_555
C218A C217A 1_555 1_555
H194A C218A 1_555 1_555
C219A C214A 1_555 1_555
H195A C219A 1_555 1_555
O16A H196A 1_555 1_555
C220A O16A 1_555 1_555
C221A C222 1_555 1_555
H197A C221A 1_555 1_555
H198A C221A 1_555 1_555
C222A C221 1_555 1_555
H199A C222A 1_555 1_555
H200A C222A 1_555 1_555
C223A C220A 1_555 1_555
C224A C223A 1_555 1_555
C225A C224A 1_555 1_555
C226A C225A 1_555 1_555
H201A C226A 1_555 1_555
C227A C226A 1_555 1_555
H202A C227A 1_555 1_555
C228A H203A 1_555 1_555
C229A C227A 1_555 1_555
H204A C229A 1_555 1_555
C230A C225A 1_555 1_555
H205A C230A 1_555 1_555
C3 C4 1_555 1_555
C5 C6 1_555 1_555
C33 C34 1_555 1_555
C39 C40 1_555 1_555
C43 C44 1_555 1_555
C45 C46 1_555 1_555
C61 C62 1_555 1_555
C67 C68 1_555 1_555
C71 C72 1_555 1_555
C73 C74 1_555 1_555
C83 C84 1_555 1_555
C89 C90 1_555 1_555
C93 C94 1_555 1_555
C95 C96 1_555 1_555
C117 C118 1_555 1_555
C123 C124 1_555 1_555
C127 C128 1_555 1_555
C129 C130 1_555 1_555
C145 C146 1_555 1_555
C151 C152 1_555 1_555
C155 C156 1_555 1_555
C157 C158 1_555 1_555
C173 C174 1_555 1_555
C179 C180 1_555 1_555
C190 C191 1_555 1_555
C207 C208 1_555 1_555
C218 C219 1_555 1_555
C228 C229 1_555 1_555
C228 C230 1_555 1_555
C181A C182A 1_555 1_555
C181A C183A 1_555 1_555
C190A C191A 1_555 1_555
C192A C193A 1_555 1_555
C192A C194A 1_555 1_555
C207A C208A 1_555 1_555
C209A C210A 1_555 1_555
C209A C211A 1_555 1_555
C218A C219A 1_555 1_555
C220A C221A 1_555 1_555
C220A C222A 1_555 1_555
C228A C229A 1_555 1_555
C228A C230A 1_555 1_555

#END
