
#######################################################################
#
#                 Cambridge Crystallographic Data Centre
#                                CCDC 
#
#######################################################################
#
# If this CIF has been generated from an entry in the Cambridge 
# Structural Database, then it will include bibliographic, chemical, 
# crystal, experimental, refinement or atomic coordinate data resulting 
# from the CCDC's data processing and validation procedures.
#
#######################################################################

data_UCAYED01
_chemical_name_common            pentafluorophenol
_chemical_formula_moiety         'C6 H1 F5 O1'
_chemical_name_systematic        2,3,4,5,6-pentafluorophenol
_symmetry_cell_setting           monoclinic
_symmetry_space_group_name_H-M   'P 21/c'
_symmetry_Int_Tables_number      14
_space_group_name_Hall           '-P 2ybc'
loop_
_symmetry_equiv_pos_site_id
_symmetry_equiv_pos_as_xyz
1 x,y,z
2 -x,1/2+y,1/2-z
3 -x,-y,-z
4 x,1/2-y,1/2+z
_cell_length_a                   13.073(3)
_cell_length_b                   4.9295(10)
_cell_length_c                   10.163(2)
_cell_angle_alpha                90
_cell_angle_beta                 107.31(3)
_cell_angle_gamma                90
_cell_volume                     625.275
_exptl_crystal_colour            colorless
_exptl_crystal_description       cylindrical
_chemical_melting_point          '307-309 K'
_cell_formula_units_Z            4
loop_
_atom_site_label
_atom_site_type_symbol
_atom_site_fract_x
_atom_site_fract_y
_atom_site_fract_z
C1 C 0.14718(15) 0.4961(4) 0.3912(2)
C2 C 0.21915(16) 0.3090(4) 0.3701(2)
C3 C 0.32350(16) 0.3021(4) 0.4512(2)
C4 C 0.35937(16) 0.4860(5) 0.5566(2)
C5 C 0.28886(18) 0.6742(4) 0.5796(2)
C6 C 0.18462(17) 0.6786(4) 0.4974(2)
O1 O 0.04343(11) 0.5109(3) 0.31175(18)
H1 H 0.0186 0.3371 0.2700
F1 F 0.18497(11) 0.1287(3) 0.26717(15)
F2 F 0.39042(11) 0.1156(3) 0.42774(19)
F3 F 0.46067(10) 0.4782(4) 0.63678(17)
F4 F 0.32239(12) 0.8551(3) 0.68205(15)
F5 F 0.11655(11) 0.8645(3) 0.52145(17)
loop_
_geom_bond_atom_site_label_1
_geom_bond_atom_site_label_2
_geom_bond_site_symmetry_1
_geom_bond_site_symmetry_2
C1 C2 1_555 1_555
C2 C3 1_555 1_555
C3 C4 1_555 1_555
C4 C5 1_555 1_555
C5 C6 1_555 1_555
C6 C1 1_555 1_555
O1 C1 1_555 1_555
H1 O1 1_555 1_555
F1 C2 1_555 1_555
F2 C3 1_555 1_555
F3 C4 1_555 1_555
F4 C5 1_555 1_555
F5 C6 1_555 1_555

#END
