
#######################################################################
#
#                 Cambridge Crystallographic Data Centre
#                                CCDC 
#
#######################################################################
#
# If this CIF has been generated from an entry in the Cambridge 
# Structural Database, then it will include bibliographic, chemical, 
# crystal, experimental, refinement or atomic coordinate data resulting 
# from the CCDC's data processing and validation procedures.
#
#######################################################################

data_UCEFOA
_chemical_formula_moiety         'C32 H39 N1 O5'
_chemical_name_systematic        
"dibutyl 3,3'-(5-t-butyl-2-(5-methyl-1,3-benzoxazol-2-yl)-1,3-phenylene)diacrylate"
_symmetry_cell_setting           triclinic
_symmetry_space_group_name_H-M   'P -1'
_symmetry_Int_Tables_number      2
_space_group_name_Hall           '-P 1'
loop_
_symmetry_equiv_pos_site_id
_symmetry_equiv_pos_as_xyz
1 x,y,z
2 -x,-y,-z
_cell_length_a                   9.181(9)
_cell_length_b                   11.850(11)
_cell_length_c                   14.065(13)
_cell_angle_alpha                100.841(16)
_cell_angle_beta                 93.205(16)
_cell_angle_gamma                101.852(16)
_cell_volume                     1463.72
_exptl_crystal_colour            colorless
_exptl_crystal_description       sheet
_cell_formula_units_Z            2
loop_
_atom_site_label
_atom_site_type_symbol
_atom_site_fract_x
_atom_site_fract_y
_atom_site_fract_z
N1 N 0.1872(3) 0.3527(2) 0.6129(2)
O1 O 0.2975(2) 0.21179(19) 0.64726(18)
O2 O 0.6307(3) 0.2339(2) 0.25741(17)
O3 O 0.4140(3) 0.1620(3) 0.3107(2)
O4 O 0.2929(3) 0.6484(3) 1.0268(2)
O5 O 0.2142(4) 0.4553(3) 0.9777(2)
C1 C 0.3094(3) 0.3261(3) 0.6361(2)
C2 C 0.0778(3) 0.2500(3) 0.6081(2)
C3 C -0.0775(4) 0.2250(4) 0.5880(3)
H1 H -0.1256 0.2819 0.5725
C4 C -0.1581(4) 0.1141(4) 0.5916(3)
C5 C -0.0853(4) 0.0310(4) 0.6135(3)
H2 H -0.1414 -0.0434 0.6150
C6 C 0.0700(4) 0.0533(3) 0.6336(3)
H3 H 0.1186 -0.0036 0.6484
C7 C 0.1461(3) 0.1646(3) 0.6299(2)
C8 C 0.4616(3) 0.4031(3) 0.6556(2)
C9 C 0.5595(3) 0.4059(3) 0.5829(2)
C10 C 0.6991(3) 0.4840(3) 0.6046(2)
H4 H 0.7637 0.4874 0.5561
C11 C 0.7455(3) 0.5568(3) 0.6952(2)
C12 C 0.6451(3) 0.5516(3) 0.7654(2)
H5 H 0.6735 0.5994 0.8268
C13 C 0.5036(3) 0.4773(3) 0.7472(2)
C14 C -0.3268(5) 0.0834(5) 0.5715(5)
H6 H -0.3562 0.0176 0.5177
H7 H -0.3605 0.1499 0.5559
H8 H -0.3707 0.0632 0.6281
C15 C 0.5147(3) 0.3277(3) 0.4880(2)
H9 H 0.4219 0.2760 0.4814
C16 C 0.5883(4) 0.3211(3) 0.4112(2)
H10 H 0.6781 0.3749 0.4124
C17 C 0.5332(4) 0.2313(3) 0.3236(2)
C18 C 0.5923(5) 0.1441(4) 0.1698(3)
H11 H 0.6386 0.1738 0.1165
H12 H 0.4848 0.1252 0.1538
C19 C 0.6440(5) 0.0326(4) 0.1817(3)
H13 H 0.7490 0.0541 0.2059
H14 H 0.5890 -0.0010 0.2304
C20 C 0.6243(6) -0.0575(4) 0.0923(3)
H15 H 0.6854 -0.0263 0.0451
H16 H 0.5207 -0.0754 0.0653
C21 C 0.6650(8) -0.1677(5) 0.1076(5)
H17 H 0.7572 -0.1490 0.1488
H18 H 0.6767 -0.2144 0.0461
H19 H 0.5874 -0.2112 0.1380
C22 C 0.9038(3) 0.6362(3) 0.7188(2)
C23 C 0.933(2) 0.7074(14) 0.6402(12)
H20 H 1.0377 0.7436 0.6455
H21 H 0.8760 0.7672 0.6479
H22 H 0.9045 0.6564 0.5774
C24 C 0.9231(13) 0.7113(17) 0.8193(10)
H23 H 1.0203 0.7632 0.8305
H24 H 0.9137 0.6617 0.8663
H25 H 0.8477 0.7569 0.8253
C25 C 1.0109(12) 0.5591(12) 0.7121(19)
H26 H 1.0200 0.5288 0.6450
H27 H 0.9760 0.4948 0.7437
H28 H 1.1067 0.6032 0.7434
C26 C 0.4004(4) 0.4740(3) 0.8230(2)
H29 H 0.3258 0.4061 0.8166
C27 C 0.4036(4) 0.5580(3) 0.8991(3)
H30 H 0.4775 0.6268 0.9080
C28 C 0.2937(4) 0.5464(3) 0.9704(3)
C29 C 0.1870(6) 0.6492(5) 1.0979(4)
H31 H 0.2171 0.6116 1.1490
H32 H 0.0895 0.6045 1.0676
C30 C 0.1769(9) 0.7674(6) 1.1394(5)
H33 H 0.2737 0.8078 1.1736
H34 H 0.1063 0.7626 1.1881
C31 C 0.1331(11) 0.8428(7) 1.0764(6)
H35 H 0.2067 0.8503 1.0298
H36 H 0.0390 0.8001 1.0398
C32 C 0.1156(9) 0.9569(7) 1.1150(6)
H37 H 0.0364 0.9526 1.1569
H38 H 0.0914 0.9940 1.0630
H39 H 0.2071 1.0023 1.1517
C33? C 0.8992(13) 0.7564(10) 0.7747(18)
H40? H 0.8482 0.7958 0.7342
H41? H 0.9994 0.8013 0.7943
H42? H 0.8471 0.7488 0.8313
C34? C 1.0023(14) 0.5829(17) 0.7824(18)
H43? H 1.1046 0.6246 0.7866
H44? H 0.9943 0.5013 0.7539
H45? H 0.9694 0.5894 0.8464
C35? C 0.9857(17) 0.646(2) 0.6289(9)
H46? H 0.9436 0.6948 0.5926
H47? H 0.9756 0.5692 0.5891
H48? H 1.0897 0.6808 0.6481
loop_
_geom_bond_atom_site_label_1
_geom_bond_atom_site_label_2
_geom_bond_site_symmetry_1
_geom_bond_site_symmetry_2
N1 C1 1_555 1_555
O1 C1 1_555 1_555
O2 C17 1_555 1_555
O3 C17 1_555 1_555
O4 C28 1_555 1_555
O5 C28 1_555 1_555
C1 C8 1_555 1_555
C2 N1 1_555 1_555
C3 C2 1_555 1_555
H1 C3 1_555 1_555
C4 C3 1_555 1_555
C5 C4 1_555 1_555
H2 C5 1_555 1_555
C6 C5 1_555 1_555
H3 C6 1_555 1_555
C7 O1 1_555 1_555
C8 C9 1_555 1_555
C9 C10 1_555 1_555
C10 H4 1_555 1_555
C11 C10 1_555 1_555
C12 C11 1_555 1_555
H5 C12 1_555 1_555
C13 C8 1_555 1_555
C14 C4 1_555 1_555
H6 C14 1_555 1_555
H7 C14 1_555 1_555
H8 C14 1_555 1_555
C15 C9 1_555 1_555
H9 C15 1_555 1_555
C16 C15 1_555 1_555
H10 C16 1_555 1_555
C17 C16 1_555 1_555
C18 O2 1_555 1_555
H11 C18 1_555 1_555
H12 C18 1_555 1_555
C19 C18 1_555 1_555
H13 C19 1_555 1_555
H14 C19 1_555 1_555
C20 C19 1_555 1_555
H15 C20 1_555 1_555
H16 C20 1_555 1_555
C21 C20 1_555 1_555
H17 C21 1_555 1_555
H18 C21 1_555 1_555
H19 C21 1_555 1_555
C22 C11 1_555 1_555
C23 C22 1_555 1_555
H20 C23 1_555 1_555
H21 C23 1_555 1_555
H22 C23 1_555 1_555
C24 C22 1_555 1_555
H23 C24 1_555 1_555
H24 C24 1_555 1_555
H25 C24 1_555 1_555
C25 C22 1_555 1_555
H26 C25 1_555 1_555
H27 C25 1_555 1_555
H28 C25 1_555 1_555
C26 C13 1_555 1_555
H29 C26 1_555 1_555
C27 C26 1_555 1_555
H30 C27 1_555 1_555
C28 C27 1_555 1_555
C29 O4 1_555 1_555
H31 C29 1_555 1_555
H32 C29 1_555 1_555
C30 C29 1_555 1_555
H33 C30 1_555 1_555
H34 C30 1_555 1_555
C31 C30 1_555 1_555
H35 C31 1_555 1_555
H36 C31 1_555 1_555
C32 C31 1_555 1_555
H37 C32 1_555 1_555
H38 C32 1_555 1_555
H39 C32 1_555 1_555
C2 C7 1_555 1_555
C6 C7 1_555 1_555
C12 C13 1_555 1_555

#END
