
#######################################################################
#
#                 Cambridge Crystallographic Data Centre
#                                CCDC 
#
#######################################################################
#
# If this CIF has been generated from an entry in the Cambridge 
# Structural Database, then it will include bibliographic, chemical, 
# crystal, experimental, refinement or atomic coordinate data resulting 
# from the CCDC's data processing and validation procedures.
#
#######################################################################

data_UCEFIU
_chemical_formula_moiety         'C25 H29 N1 O3'
_chemical_name_systematic        
'butyl 3-(5-t-butyl-2-(5-methyl-1,3-benzoxazol-2-yl)phenyl)acrylate'
_symmetry_cell_setting           triclinic
_symmetry_space_group_name_H-M   'P -1'
_symmetry_Int_Tables_number      2
_space_group_name_Hall           '-P 1'
loop_
_symmetry_equiv_pos_site_id
_symmetry_equiv_pos_as_xyz
1 x,y,z
2 -x,-y,-z
_cell_length_a                   8.567(5)
_cell_length_b                   11.294(6)
_cell_length_c                   11.868(6)
_cell_angle_alpha                87.148(7)
_cell_angle_beta                 80.145(6)
_cell_angle_gamma                81.838(7)
_cell_volume                     1119.51
_exptl_crystal_colour            colorless
_exptl_crystal_description       sheet
_cell_formula_units_Z            2
loop_
_atom_site_label
_atom_site_type_symbol
_atom_site_fract_x
_atom_site_fract_y
_atom_site_fract_z
N1 N 0.3137(3) 0.9833(2) 0.7211(2)
O1 O 0.2459(2) 0.96740(17) 0.54820(16)
O2 O 0.6069(3) 0.8025(2) 0.9345(2)
O3 O 0.5647(4) 0.6627(3) 1.0689(2)
C1 C 0.2557(3) 0.9194(3) 0.6560(2)
C2 C 0.3522(3) 1.0833(2) 0.6516(2)
C3 C 0.4244(4) 1.1796(3) 0.6732(3)
H1 H 0.4533 1.1871 0.7443
C4 C 0.4532(4) 1.2656(3) 0.5863(3)
C5 C 0.4086(4) 1.2500(3) 0.4805(3)
H2 H 0.4290 1.3069 0.4224
C6 C 0.3362(3) 1.1547(3) 0.4585(3)
H3 H 0.3056 1.1467 0.3881
C7 C 0.3113(3) 1.0718(2) 0.5461(2)
C8 C 0.1935(3) 0.8043(2) 0.6829(2)
C9 C 0.2420(3) 0.7234(2) 0.7676(2)
C10 C 0.1722(3) 0.6181(3) 0.7890(2)
H4 H 0.2052 0.5645 0.8450
C11 C 0.0558(3) 0.5900(2) 0.7303(2)
C12 C 0.0124(3) 0.6716(3) 0.6451(3)
H5 H -0.0649 0.6558 0.6038
C13 C 0.0807(4) 0.7742(3) 0.6209(3)
H6 H 0.0514 0.8251 0.5618
C14 C 0.3655(3) 0.7457(3) 0.8343(3)
H7 H 0.4198 0.8104 0.8096
C15 C 0.4069(4) 0.6865(3) 0.9222(3)
H8 H 0.3545 0.6213 0.9486
C16 C 0.5316(4) 0.7146(3) 0.9841(3)
C17 C 0.7346(5) 0.8382(4) 0.9848(4)
H9 H 0.8017 0.7681 1.0084
H10 H 0.6905 0.8856 1.0517
C18 C 0.8301(9) 0.9095(7) 0.8987(8)
H11 H 0.8681 0.8625 0.8308
H12 H 0.9230 0.9259 0.9288
C19 C 0.7396(11) 1.0259(7) 0.8654(11)
H13 H 0.7014 1.0736 0.9328
H14 H 0.6474 1.0103 0.8339
C20 C 0.8438(7) 1.0945(5) 0.7781(6)
H15 H 0.9439 1.0973 0.8033
H16 H 0.7911 1.1745 0.7694
H17 H 0.8630 1.0555 0.7061
C21 C -0.0235(3) 0.4768(3) 0.7553(2)
C22 C 0.0454(6) 0.3940(3) 0.8464(4)
H18 H -0.0111 0.3257 0.8603
H19 H 0.0338 0.4366 0.9160
H20 H 0.1567 0.3678 0.8199
C23 C -0.2022(5) 0.5124(4) 0.8027(4)
H21 H -0.2537 0.5561 0.7447
H22 H -0.2129 0.5615 0.8680
H23 H -0.2512 0.4416 0.8249
C24 C -0.0087(5) 0.4055(4) 0.6490(3)
H24 H -0.0628 0.4523 0.5939
H25 H -0.0560 0.3335 0.6681
H26 H 0.1023 0.3854 0.6172
C25 C 0.5321(6) 1.3714(3) 0.6053(4)
H27 H 0.4541 1.4417 0.6127
H28 H 0.6147 1.3820 0.5414
H29 H 0.5780 1.3581 0.6739
H30? H 0.8327 0.7850 0.9610
H31? H 0.7084 0.8327 1.0676
C26? C 0.758(2) 0.9632(13) 0.9483(11)
H32? H 0.8450 0.9855 0.9817
H33? H 0.6619 1.0164 0.9771
C27? C 0.795(3) 0.9792(16) 0.8213(12)
H34? H 0.8796 0.9164 0.7922
H35? H 0.7010 0.9680 0.7898
H36? H 0.8132 1.1521 0.8375
H37? H 0.7925 1.1217 0.7139
H38? H 0.9578 1.0853 0.7548
loop_
_geom_bond_atom_site_label_1
_geom_bond_atom_site_label_2
_geom_bond_site_symmetry_1
_geom_bond_site_symmetry_2
N1 C1 1_555 1_555
O1 C1 1_555 1_555
O2 C16 1_555 1_555
O3 C16 1_555 1_555
C1 C8 1_555 1_555
C2 N1 1_555 1_555
C3 C2 1_555 1_555
H1 C3 1_555 1_555
C4 C3 1_555 1_555
C5 C4 1_555 1_555
H2 C5 1_555 1_555
C6 C5 1_555 1_555
H3 C6 1_555 1_555
C7 O1 1_555 1_555
C8 C9 1_555 1_555
C9 C10 1_555 1_555
C10 H4 1_555 1_555
C11 C10 1_555 1_555
C12 C11 1_555 1_555
H5 C12 1_555 1_555
C13 C8 1_555 1_555
H6 C13 1_555 1_555
C14 C9 1_555 1_555
H7 C14 1_555 1_555
C15 C14 1_555 1_555
H8 C15 1_555 1_555
C16 C15 1_555 1_555
C17 O2 1_555 1_555
H9 C17 1_555 1_555
H10 C17 1_555 1_555
C18 C17 1_555 1_555
H11 C18 1_555 1_555
H12 C18 1_555 1_555
C19 C18 1_555 1_555
H13 C19 1_555 1_555
H14 C19 1_555 1_555
C20 C19 1_555 1_555
H15 C20 1_555 1_555
H16 C20 1_555 1_555
H17 C20 1_555 1_555
C21 C11 1_555 1_555
C22 C21 1_555 1_555
H18 C22 1_555 1_555
H19 C22 1_555 1_555
H20 C22 1_555 1_555
C23 C21 1_555 1_555
H21 C23 1_555 1_555
H22 C23 1_555 1_555
H23 C23 1_555 1_555
C24 C21 1_555 1_555
H24 C24 1_555 1_555
H25 C24 1_555 1_555
H26 C24 1_555 1_555
C25 C4 1_555 1_555
H27 C25 1_555 1_555
H28 C25 1_555 1_555
H29 C25 1_555 1_555
C2 C7 1_555 1_555
C6 C7 1_555 1_555
C12 C13 1_555 1_555

#END
