
#######################################################################
#
#                 Cambridge Crystallographic Data Centre
#                                CCDC 
#
#######################################################################
#
# If this CIF has been generated from an entry in the Cambridge 
# Structural Database, then it will include bibliographic, chemical, 
# crystal, experimental, refinement or atomic coordinate data resulting 
# from the CCDC's data processing and validation procedures.
#
#######################################################################

data_UCEFUG
_chemical_formula_moiety         'C23 H19 N1 O1'
_chemical_name_systematic        
5-methyl-2-(2-methyl-6-(2-phenylvinyl)phenyl)-1,3-benzoxazole
_symmetry_cell_setting           monoclinic
_symmetry_space_group_name_H-M   'P 21/c'
_symmetry_Int_Tables_number      14
_space_group_name_Hall           '-P 2ybc'
loop_
_symmetry_equiv_pos_site_id
_symmetry_equiv_pos_as_xyz
1 x,y,z
2 -x,1/2+y,1/2-z
3 -x,-y,-z
4 x,1/2-y,1/2+z
_cell_length_a                   12.985(7)
_cell_length_b                   4.030(2)
_cell_length_c                   32.768(17)
_cell_angle_alpha                90
_cell_angle_beta                 90.063(7)
_cell_angle_gamma                90
_cell_volume                     1714.73
_exptl_crystal_colour            colorless
_exptl_crystal_description       prism
_cell_formula_units_Z            4
loop_
_atom_site_label
_atom_site_type_symbol
_atom_site_fract_x
_atom_site_fract_y
_atom_site_fract_z
N1 N 0.29342(12) 0.8733(4) 0.18764(5)
O1 O 0.30741(10) 1.1533(4) 0.12882(4)
C1 C 0.24460(15) 1.0062(5) 0.15748(6)
C2 C 0.39764(14) 0.9327(5) 0.17947(6)
C3 C 0.48507(15) 0.8477(6) 0.20099(7)
H1 H 0.4807 0.7324 0.2255
C4 C 0.57932(16) 0.9388(6) 0.18507(7)
C5 C 0.58308(16) 1.1096(6) 0.14849(7)
H2 H 0.6472 1.1698 0.1382
C6 C 0.49673(16) 1.1948(6) 0.12651(7)
H3 H 0.5005 1.3084 0.1019
C7 C 0.40511(14) 1.1012(5) 0.14337(6)
C8 C 0.13392(14) 1.0206(5) 0.15001(6)
C9 C 0.09407(14) 0.9083(5) 0.11261(6)
C10 C -0.01101(16) 0.9328(6) 0.10654(7)
H4 H -0.0394 0.8601 0.0820
C11 C -0.07393(17) 1.0621(7) 0.13591(8)
H5 H -0.1444 1.0771 0.1312
C12 C -0.03394(17) 1.1696(6) 0.17217(8)
H6 H -0.0779 1.2570 0.1918
C13 C 0.06969(15) 1.1515(5) 0.18027(7)
C14 C 0.16057(15) 0.7581(6) 0.08201(7)
H7 H 0.2223 0.6695 0.0914
C15 C 0.14329(17) 0.7335(6) 0.04281(7)
H8 H 0.0813 0.8199 0.0333
C16 C 0.21083(17) 0.5852(6) 0.01255(7)
C17 C 0.30496(19) 0.4512(7) 0.02219(8)
H9 H 0.3262 0.4509 0.0493
C18 C 0.3685(2) 0.3181(8) -0.00674(10)
H10 H 0.4318 0.2290 0.0007
C19 C 0.3378(3) 0.3171(8) -0.04682(10)
H11 H 0.3804 0.2279 -0.0668
C20 C 0.2457(3) 0.4461(8) -0.05700(8)
H12 H 0.2250 0.4444 -0.0842
C21 C 0.1819(2) 0.5798(7) -0.02812(7)
H13 H 0.1187 0.6677 -0.0359
C22 C 0.11073(16) 1.2727(7) 0.22011(7)
H14 H 0.0563 1.3762 0.2353
H15 H 0.1646 1.4309 0.2153
H16 H 0.1377 1.0888 0.2354
C23 C 0.67641(17) 0.8522(7) 0.20760(9)
H17 H 0.7002 1.0425 0.2225
H18 H 0.7282 0.7846 0.1884
H19 H 0.6629 0.6739 0.2263
loop_
_geom_bond_atom_site_label_1
_geom_bond_atom_site_label_2
_geom_bond_site_symmetry_1
_geom_bond_site_symmetry_2
N1 C1 1_555 1_555
O1 C1 1_555 1_555
C1 C8 1_555 1_555
C2 N1 1_555 1_555
C3 C2 1_555 1_555
H1 C3 1_555 1_555
C4 C3 1_555 1_555
C5 C4 1_555 1_555
H2 C5 1_555 1_555
C6 C5 1_555 1_555
H3 C6 1_555 1_555
C7 O1 1_555 1_555
C8 C9 1_555 1_555
C9 C10 1_555 1_555
C10 H4 1_555 1_555
C11 C10 1_555 1_555
H5 C11 1_555 1_555
C12 C11 1_555 1_555
H6 C12 1_555 1_555
C13 C8 1_555 1_555
C14 C9 1_555 1_555
H7 C14 1_555 1_555
C15 C14 1_555 1_555
H8 C15 1_555 1_555
C16 C15 1_555 1_555
C17 C16 1_555 1_555
H9 C17 1_555 1_555
C18 C17 1_555 1_555
H10 C18 1_555 1_555
C19 C18 1_555 1_555
H11 C19 1_555 1_555
C20 C19 1_555 1_555
H12 C20 1_555 1_555
C21 C16 1_555 1_555
H13 C21 1_555 1_555
C22 C13 1_555 1_555
H14 C22 1_555 1_555
H15 C22 1_555 1_555
H16 C22 1_555 1_555
C23 C4 1_555 1_555
H17 C23 1_555 1_555
H18 C23 1_555 1_555
H19 C23 1_555 1_555
C2 C7 1_555 1_555
C6 C7 1_555 1_555
C12 C13 1_555 1_555
C20 C21 1_555 1_555

#END
