
#######################################################################
#
#                 Cambridge Crystallographic Data Centre
#                                CCDC 
#
#######################################################################
#
# If this CIF has been generated from an entry in the Cambridge 
# Structural Database, then it will include bibliographic, chemical, 
# crystal, experimental, refinement or atomic coordinate data resulting 
# from the CCDC's data processing and validation procedures.
#
#######################################################################

data_UCEGAN
_chemical_formula_moiety         'C22 H16 Cl1 N1 O3 S1'
_chemical_name_systematic        
2-(4-chlorophenyl)-3-((4-methylphenyl)sulfonyl)quinolin-4(1H)-one
_symmetry_cell_setting           monoclinic
_symmetry_space_group_name_H-M   'P 21/c'
_symmetry_Int_Tables_number      14
_space_group_name_Hall           '-P 2ybc'
loop_
_symmetry_equiv_pos_site_id
_symmetry_equiv_pos_as_xyz
1 x,y,z
2 -x,1/2+y,1/2-z
3 -x,-y,-z
4 x,1/2-y,1/2+z
_cell_length_a                   13.0925(19)
_cell_length_b                   22.517(3)
_cell_length_c                   13.722(2)
_cell_angle_alpha                90
_cell_angle_beta                 111.181(5)
_cell_angle_gamma                90
_cell_volume                     3772.01
_exptl_crystal_description       block
_cell_formula_units_Z            8
loop_
_atom_site_label
_atom_site_type_symbol
_atom_site_fract_x
_atom_site_fract_y
_atom_site_fract_z
S1 S 0.05383(7) 0.46803(3) 0.78917(6)
Cl1 Cl -0.44596(7) 0.55613(4) 0.78024(7)
O1 O 0.19749(17) 0.36313(9) 0.86326(17)
O2 O -0.04283(18) 0.50075(9) 0.72907(17)
O3 O 0.12672(19) 0.49303(10) 0.88533(17)
N1 N -0.1229(2) 0.32690(11) 0.8067(2)
H1 H -0.1907 0.3197 0.7957
C1 C 0.0990(3) 0.35131(14) 0.8450(2)
C2 C -0.1797(2) 0.42755(13) 0.7927(2)
C3 C -0.0926(3) 0.38334(13) 0.8022(2)
C4 C -0.0505(3) 0.27968(13) 0.8281(2)
C5 C 0.0613(3) 0.29108(13) 0.8516(2)
C6 C -0.2812(3) 0.42285(14) 0.7139(2)
H2 H -0.2940 0.3931 0.6639
C7 C -0.2438(3) 0.50967(14) 0.8660(3)
H3 H -0.2321 0.5385 0.9175
C8 C -0.1617(3) 0.47047(13) 0.8695(2)
H4 H -0.0939 0.4728 0.9236
C9 C 0.0712(3) 0.44894(14) 0.5998(2)
H5 H -0.0046 0.4445 0.5747
C10 C 0.0148(2) 0.39602(13) 0.8135(2)
C11 C -0.3436(3) 0.50557(14) 0.7851(3)
C12 C -0.3641(3) 0.46240(14) 0.7089(2)
H6 H -0.4321 0.4599 0.6553
C13 C 0.1282(3) 0.45731(14) 0.7049(3)
C14 C 0.0965(3) 0.18680(15) 0.8783(3)
H7 H 0.1455 0.1552 0.8961
C15 C 0.2407(3) 0.46303(14) 0.7425(3)
H8 H 0.2792 0.4686 0.8136
C16 C 0.1276(3) 0.44718(14) 0.5316(3)
H9 H 0.0890 0.4420 0.4605
C17 C 0.2405(3) 0.45305(14) 0.5676(3)
C18 C -0.0158(3) 0.17612(15) 0.8510(3)
H10 H -0.0410 0.1373 0.8486
C19 C -0.0887(3) 0.22197(14) 0.8279(3)
H11 H -0.1629 0.2148 0.8123
C20 C 0.2959(3) 0.46032(15) 0.6733(3)
H12 H 0.3718 0.4635 0.6988
C21 C 0.1344(3) 0.24321(14) 0.8790(3)
H13 H 0.2092 0.2499 0.8978
C22 C 0.3007(3) 0.45314(17) 0.4921(3)
H14 H 0.3546 0.4842 0.5107
H15 H 0.2496 0.4597 0.4225
H16 H 0.3363 0.4155 0.4952
S2 S 0.49113(7) 0.22585(4) 0.63961(7)
Cl2 Cl -0.04417(8) 0.15902(5) 0.57432(8)
O4 O 0.67457(17) 0.28740(9) 0.79682(17)
O5 O 0.55769(19) 0.17558(9) 0.68622(18)
O6 O 0.38211(18) 0.21639(10) 0.56544(18)
N2 N 0.3844(2) 0.32394(11) 0.82733(19)
H17 H 0.3236 0.3300 0.8363
C23 C 0.4748(2) 0.35591(13) 0.8879(2)
C24 C 0.5853(3) 0.30029(13) 0.8045(2)
C25 C 0.5767(2) 0.34427(13) 0.8792(2)
C26 C 0.2801(3) 0.25289(14) 0.7045(2)
C27 C 0.3857(2) 0.28399(13) 0.7554(2)
C28 C 0.5603(3) 0.26861(14) 0.5747(2)
C29 C 0.1851(3) 0.28470(15) 0.6546(2)
H18 H 0.1882 0.3258 0.6488
C30 C 0.6684(3) 0.37515(14) 0.9435(2)
H19 H 0.7362 0.3676 0.9387
C31 C 0.4837(2) 0.27320(13) 0.7400(2)
C32 C 0.5582(3) 0.42736(14) 1.0209(3)
H20 H 0.5526 0.4556 1.0681
C33 C 0.4666(3) 0.39745(14) 0.9602(2)
H21 H 0.3995 0.4047 0.9670
C34 C 0.6604(3) 0.41649(14) 1.0136(3)
H22 H 0.7221 0.4371 1.0558
C35 C 0.6658(3) 0.25451(14) 0.5824(3)
H23 H 0.7019 0.2224 0.6229
C36 C 0.2738(3) 0.19148(15) 0.7126(3)
H24 H 0.3373 0.1696 0.7454
C37 C 0.7173(3) 0.28822(15) 0.5297(3)
H25 H 0.7877 0.2781 0.5342
C38 C 0.5066(3) 0.31559(15) 0.5133(3)
H26 H 0.4348 0.3244 0.5062
C39 C 0.0851(3) 0.25567(17) 0.6132(3)
H27 H 0.0213 0.2770 0.5791
C40 C 0.0814(3) 0.19540(17) 0.6231(3)
C41 C 0.1744(3) 0.16277(16) 0.6723(3)
H28 H 0.1703 0.1218 0.6785
C42 C 0.6660(3) 0.33658(15) 0.4705(3)
C43 C 0.5597(3) 0.34958(16) 0.4624(3)
H29 H 0.5236 0.3817 0.4220
C44 C 0.7243(3) 0.37485(17) 0.4167(3)
H30 H 0.8016 0.3675 0.4467
H31 H 0.7102 0.4159 0.4258
H32 H 0.6980 0.3655 0.3435
loop_
_geom_bond_atom_site_label_1
_geom_bond_atom_site_label_2
_geom_bond_site_symmetry_1
_geom_bond_site_symmetry_2
S1 O2 1_555 1_555
Cl1 C11 1_555 1_555
O1 C1 1_555 1_555
O3 S1 1_555 1_555
N1 H1 1_555 1_555
C1 C5 1_555 1_555
C2 C3 1_555 1_555
C3 N1 1_555 1_555
C4 N1 1_555 1_555
C5 C4 1_555 1_555
C6 C2 1_555 1_555
H2 C6 1_555 1_555
C7 H3 1_555 1_555
C8 C2 1_555 1_555
H4 C8 1_555 1_555
C9 H5 1_555 1_555
C10 S1 1_555 1_555
C11 C7 1_555 1_555
C12 C6 1_555 1_555
H6 C12 1_555 1_555
C13 S1 1_555 1_555
C14 H7 1_555 1_555
C15 C13 1_555 1_555
H8 C15 1_555 1_555
C16 C9 1_555 1_555
H9 C16 1_555 1_555
C17 C16 1_555 1_555
C18 C14 1_555 1_555
H10 C18 1_555 1_555
C19 C4 1_555 1_555
H11 C19 1_555 1_555
C20 C15 1_555 1_555
H12 C20 1_555 1_555
C21 C5 1_555 1_555
H13 C21 1_555 1_555
C22 C17 1_555 1_555
H14 C22 1_555 1_555
H15 C22 1_555 1_555
H16 C22 1_555 1_555
S2 O5 1_555 1_555
Cl2 C40 1_555 1_555
O4 C24 1_555 1_555
O6 S2 1_555 1_555
N2 H17 1_555 1_555
C23 N2 1_555 1_555
C24 C25 1_555 1_555
C25 C23 1_555 1_555
C26 C27 1_555 1_555
C27 N2 1_555 1_555
C28 S2 1_555 1_555
C29 C26 1_555 1_555
H18 C29 1_555 1_555
C30 C25 1_555 1_555
H19 C30 1_555 1_555
C31 S2 1_555 1_555
C32 H20 1_555 1_555
C33 C23 1_555 1_555
H21 C33 1_555 1_555
C34 C30 1_555 1_555
H22 C34 1_555 1_555
C35 C28 1_555 1_555
H23 C35 1_555 1_555
C36 C26 1_555 1_555
H24 C36 1_555 1_555
C37 C35 1_555 1_555
H25 C37 1_555 1_555
C38 C28 1_555 1_555
H26 C38 1_555 1_555
C39 C29 1_555 1_555
H27 C39 1_555 1_555
C40 C39 1_555 1_555
C41 C36 1_555 1_555
H28 C41 1_555 1_555
C42 C37 1_555 1_555
C43 C38 1_555 1_555
H29 C43 1_555 1_555
C44 C42 1_555 1_555
H30 C44 1_555 1_555
H31 C44 1_555 1_555
H32 C44 1_555 1_555
C1 C10 1_555 1_555
C3 C10 1_555 1_555
C7 C8 1_555 1_555
C9 C13 1_555 1_555
C11 C12 1_555 1_555
C14 C21 1_555 1_555
C17 C20 1_555 1_555
C18 C19 1_555 1_555
C24 C31 1_555 1_555
C27 C31 1_555 1_555
C32 C33 1_555 1_555
C32 C34 1_555 1_555
C40 C41 1_555 1_555
C42 C43 1_555 1_555

#END
