
#######################################################################
#
#                 Cambridge Crystallographic Data Centre
#                                CCDC 
#
#######################################################################
#
# If this CIF has been generated from an entry in the Cambridge 
# Structural Database, then it will include bibliographic, chemical, 
# crystal, experimental, refinement or atomic coordinate data resulting 
# from the CCDC's data processing and validation procedures.
#
#######################################################################

data_UCEJAQ
_chemical_formula_moiety         'C32 H28 N6 O2'
_chemical_name_systematic        
3,3'-bis(2-phenoxyethyl)-5,5'-diphenyl-3H,3'H-4,4'-bi-1,2,3-triazole
_symmetry_cell_setting           triclinic
_symmetry_space_group_name_H-M   'P -1'
_symmetry_Int_Tables_number      2
_space_group_name_Hall           '-P 1'
loop_
_symmetry_equiv_pos_site_id
_symmetry_equiv_pos_as_xyz
1 x,y,z
2 -x,-y,-z
_cell_length_a                   9.999(3)
_cell_length_b                   11.950(4)
_cell_length_c                   12.963(4)
_cell_angle_alpha                77.768(4)
_cell_angle_beta                 71.783(3)
_cell_angle_gamma                66.201(3)
_cell_volume                     1339.62
_exptl_crystal_colour            colorless
_exptl_crystal_description       irregular
_cell_formula_units_Z            2
loop_
_atom_site_label
_atom_site_type_symbol
_atom_site_fract_x
_atom_site_fract_y
_atom_site_fract_z
C1 C 0.2188(2) 0.01177(18) 1.10524(15)
H1 H 0.1703 0.0932 1.0761
C2 C 0.1617(2) -0.02806(19) 1.21208(16)
H2 H 0.0732 0.0260 1.2559
C3 C 0.2330(2) -0.1466(2) 1.25559(15)
H3 H 0.1931 -0.1742 1.3286
C4 C 0.3628(2) -0.22402(18) 1.19145(16)
H4 H 0.4127 -0.3046 1.2215
C5 C 0.4217(2) -0.18581(17) 1.08346(15)
H5 H 0.5109 -0.2395 1.0400
C6 C 0.3475(2) -0.06779(17) 1.04071(14)
C7 C 0.50753(19) -0.10440(16) 0.86065(14)
H6 H 0.4781 -0.1729 0.8569
H7 H 0.6023 -0.1389 0.8848
C8 C 0.5288(2) -0.03077(17) 0.75082(14)
H8 H 0.5415 0.0446 0.7591
H9 H 0.6225 -0.0797 0.7006
C9 C 0.30382(19) 0.11801(16) 0.67540(13)
C10 C 0.21975(19) 0.09552(16) 0.62008(13)
C11 C 0.10148(19) 0.17914(16) 0.56536(14)
C12 C 0.0623(2) 0.13283(17) 0.49276(14)
H10 H 0.1133 0.0489 0.4791
C13 C -0.0502(2) 0.20816(18) 0.44059(15)
H11 H -0.0770 0.1750 0.3929
C14 C -0.1236(2) 0.33155(17) 0.45791(15)
H12 H -0.1988 0.3834 0.4210
C15 C -0.0860(2) 0.37885(17) 0.52993(15)
H13 H -0.1367 0.4630 0.5426
C16 C 0.02516(19) 0.30348(17) 0.58327(14)
H14 H 0.0496 0.3366 0.6323
N1 N 0.40090(16) 0.00406(14) 0.70235(12)
N2 N 0.37800(18) -0.08375(14) 0.66817(13)
N3 N 0.26799(18) -0.02871(14) 0.61881(13)
O1 O 0.39034(14) -0.02102(11) 0.93435(10)
C17 C 0.4416(2) 0.43474(17) 0.24239(15)
H15 H 0.5226 0.4446 0.2583
C18 C 0.4071(3) 0.48143(19) 0.14190(16)
H16 H 0.4653 0.5236 0.0891
C19 C 0.2898(2) 0.46757(19) 0.11754(16)
H17 H 0.2681 0.4994 0.0485
C20 C 0.2043(2) 0.4068(2) 0.19483(16)
H18 H 0.1228 0.3977 0.1789
C21 C 0.2367(2) 0.35914(18) 0.29511(15)
H19 H 0.1783 0.3168 0.3476
C22 C 0.3553(2) 0.37362(16) 0.31859(13)
C23 C 0.50253(19) 0.33240(16) 0.44538(14)
H20 H 0.4844 0.4180 0.4542
H21 H 0.5944 0.3028 0.3855
C24 C 0.5220(2) 0.25144(17) 0.54991(14)
H22 H 0.5393 0.1666 0.5391
H23 H 0.6129 0.2497 0.5666
C25 C 0.30038(19) 0.23051(16) 0.70539(13)
C26 C 0.21011(19) 0.30259(15) 0.79086(13)
C27 C 0.09242(19) 0.28404(16) 0.88792(14)
C28 C 0.0558(2) 0.34482(17) 0.97985(14)
H24 H 0.1081 0.3960 0.9794
C29 C -0.0560(2) 0.33109(17) 1.07166(14)
H25 H -0.0820 0.3748 1.1326
C30 C -0.1300(2) 0.25350(18) 1.07453(15)
H26 H -0.2058 0.2434 1.1376
C31 C -0.0924(2) 0.19074(19) 0.98461(16)
H27 H -0.1418 0.1367 0.9867
C32 C 0.0168(2) 0.20659(19) 0.89169(15)
H28 H 0.0404 0.1644 0.8302
N4 N 0.39205(16) 0.29155(13) 0.64355(11)
N5 N 0.36196(17) 0.39533(14) 0.68579(12)
N6 N 0.25068(17) 0.40282(14) 0.77509(12)
O2 O 0.37542(14) 0.32662(12) 0.42153(9)
loop_
_geom_bond_atom_site_label_1
_geom_bond_atom_site_label_2
_geom_bond_site_symmetry_1
_geom_bond_site_symmetry_2
C1 H1 1_555 1_555
C2 C1 1_555 1_555
H2 C2 1_555 1_555
C3 C2 1_555 1_555
H3 C3 1_555 1_555
C4 C3 1_555 1_555
H4 C4 1_555 1_555
C5 C4 1_555 1_555
H5 C5 1_555 1_555
C6 C1 1_555 1_555
C7 H6 1_555 1_555
H7 C7 1_555 1_555
C8 C7 1_555 1_555
H8 C8 1_555 1_555
H9 C8 1_555 1_555
C9 C10 1_555 1_555
C10 C11 1_555 1_555
C11 C12 1_555 1_555
C12 H10 1_555 1_555
C13 C12 1_555 1_555
H11 C13 1_555 1_555
C14 C13 1_555 1_555
H12 C14 1_555 1_555
C15 C14 1_555 1_555
H13 C15 1_555 1_555
C16 C11 1_555 1_555
H14 C16 1_555 1_555
N1 C8 1_555 1_555
N2 N1 1_555 1_555
N3 C10 1_555 1_555
O1 C6 1_555 1_555
C17 H15 1_555 1_555
C18 C17 1_555 1_555
H16 C18 1_555 1_555
C19 C18 1_555 1_555
H17 C19 1_555 1_555
C20 C19 1_555 1_555
H18 C20 1_555 1_555
C21 C20 1_555 1_555
H19 C21 1_555 1_555
C22 C17 1_555 1_555
C23 H20 1_555 1_555
H21 C23 1_555 1_555
C24 C23 1_555 1_555
H22 C24 1_555 1_555
H23 C24 1_555 1_555
C25 C9 1_555 1_555
C26 C25 1_555 1_555
C27 C26 1_555 1_555
C28 C27 1_555 1_555
H24 C28 1_555 1_555
C29 C28 1_555 1_555
H25 C29 1_555 1_555
C30 C29 1_555 1_555
H26 C30 1_555 1_555
C31 C30 1_555 1_555
H27 C31 1_555 1_555
C32 C27 1_555 1_555
H28 C32 1_555 1_555
N4 C24 1_555 1_555
N5 N4 1_555 1_555
N6 C26 1_555 1_555
O2 C22 1_555 1_555
C5 C6 1_555 1_555
C7 O1 1_555 1_555
C9 N1 1_555 1_555
C15 C16 1_555 1_555
N2 N3 1_555 1_555
C21 C22 1_555 1_555
C23 O2 1_555 1_555
C25 N4 1_555 1_555
C31 C32 1_555 1_555
N5 N6 1_555 1_555

#END
