
#######################################################################
#
#                 Cambridge Crystallographic Data Centre
#                                CCDC 
#
#######################################################################
#
# If this CIF has been generated from an entry in the Cambridge 
# Structural Database, then it will include bibliographic, chemical, 
# crystal, experimental, refinement or atomic coordinate data resulting 
# from the CCDC's data processing and validation procedures.
#
#######################################################################

data_UCEJIY
_chemical_formula_moiety         'C44 H44 N12,0.24(H2 O1)'
_chemical_name_systematic        
"3,4,17,18-tetraphenyl-8,9,10,11,12,13,22,23,24,25,26,27-dodecahydrotetrakis[1,2,3]triazolo[1,5-a:5',1'-c:1'',5''-k:5''',1'''-m][1,4,11,14]tetraazacycloicosine hydrate"
_symmetry_cell_setting           monoclinic
_symmetry_space_group_name_H-M   'P 21/c'
_symmetry_Int_Tables_number      14
_space_group_name_Hall           '-P 2ybc'
loop_
_symmetry_equiv_pos_site_id
_symmetry_equiv_pos_as_xyz
1 x,y,z
2 -x,1/2+y,1/2-z
3 -x,-y,-z
4 x,1/2-y,1/2+z
_cell_length_a                   12.898(6)
_cell_length_b                   32.520(15)
_cell_length_c                   9.330(4)
_cell_angle_alpha                90
_cell_angle_beta                 101.68(2)
_cell_angle_gamma                90
_cell_volume                     3832.37
_exptl_crystal_colour            colorless
_exptl_crystal_description       needle
_cell_formula_units_Z            4
loop_
_atom_site_label
_atom_site_type_symbol
_atom_site_fract_x
_atom_site_fract_y
_atom_site_fract_z
C1 C 0.8342(6) 0.30631(18) 0.5513(6)
H1 H 0.7988 0.3222 0.6122
C2 C 0.7775(5) 0.2787(2) 0.4527(7)
H2 H 0.7031 0.2763 0.4444
C3 C 0.8277(5) 0.25473(19) 0.3671(7)
H3 H 0.7883 0.2352 0.3025
C4 C 0.9358(6) 0.25880(19) 0.3742(6)
H4 H 0.9706 0.2426 0.3135
C5 C 0.9917(5) 0.2870(2) 0.4714(7)
H5 H 1.0656 0.2900 0.4765
C6 C 0.9431(5) 0.31100(19) 0.5617(7)
C7 C 1.0043(6) 0.3390(2) 0.6681(6)
C8 C 0.9732(5) 0.3748(2) 0.7232(7)
C9 C 0.8742(5) 0.39761(18) 0.6916(7)
C10 C 0.7926(5) 0.40320(18) 0.7636(7)
C11 C 0.7784(5) 0.3883(2) 0.9075(7)
C12 C 0.8283(4) 0.3525(2) 0.9667(7)
H6 H 0.8729 0.3380 0.9148
C13 C 0.8135(5) 0.3379(2) 1.1010(7)
H7 H 0.8498 0.3139 1.1417
C14 C 0.7466(5) 0.3581(2) 1.1759(7)
H8 H 0.7347 0.3474 1.2660
C15 C 0.6972(5) 0.3937(2) 1.1193(8)
H9 H 0.6530 0.4082 1.1720
C16 C 0.7118(5) 0.4083(2) 0.9859(7)
H10 H 0.6757 0.4325 0.9465
C17 C 1.0780(5) 0.4260(2) 0.9043(6)
H11 H 1.1521 0.4265 0.9593
H12 H 1.0310 0.4263 0.9761
C18 C 1.0563(5) 0.46486(19) 0.8058(7)
H13 H 1.0851 0.4603 0.7165
H14 H 0.9789 0.4687 0.7751
C19 C 1.1031(5) 0.5028(2) 0.8783(7)
H15 H 1.1812 0.5003 0.9017
H16 H 1.0785 0.5067 0.9712
C20 C 0.9014(4) 0.42103(19) 0.4416(6)
H17 H 0.8828 0.3972 0.3756
H18 H 0.9785 0.4200 0.4818
C21 C 0.8756(5) 0.45982(19) 0.3558(6)
H19 H 0.9006 0.4838 0.4186
H20 H 0.7980 0.4622 0.3223
C22 C 0.9293(5) 0.45952(19) 0.2226(7)
H21 H 0.9095 0.4340 0.1658
H22 H 1.0071 0.4595 0.2571
N1 N 1.1077(4) 0.33217(16) 0.7301(6)
N2 N 1.1414(4) 0.36196(19) 0.8213(5)
N3 N 1.0601(5) 0.38815(16) 0.8189(5)
N4 N 0.7177(4) 0.42730(15) 0.6787(6)
N5 N 0.7501(4) 0.43595(15) 0.5552(5)
N6 N 0.8441(4) 0.41797(15) 0.5626(6)
C1B C 1.1658(6) 0.69369(18) 0.4487(6)
H1B H 1.2012 0.6778 0.3878
C2B C 1.2225(5) 0.7213(2) 0.5473(7)
H2B H 1.2969 0.7237 0.5556
C3B C 1.1723(5) 0.74527(19) 0.6329(7)
H3B H 1.2117 0.7648 0.6975
C4B C 1.0642(6) 0.74120(19) 0.6258(6)
H4B H 1.0294 0.7574 0.6865
C5B C 1.0083(5) 0.7130(2) 0.5286(7)
H5B H 0.9344 0.7100 0.5235
C6B C 1.0569(5) 0.68900(19) 0.4383(7)
C7B C 0.9957(6) 0.6610(2) 0.3319(6)
C8B C 1.0268(5) 0.6252(2) 0.2768(7)
C9B C 1.1258(5) 0.60239(18) 0.3084(7)
C10B C 1.2074(5) 0.59680(18) 0.2364(7)
C11B C 1.2216(5) 0.6117(2) 0.0925(7)
C12B C 1.1717(4) 0.6475(2) 0.0333(7)
H6B H 1.1271 0.6620 0.0852
C13B C 1.1865(5) 0.6621(2) -0.1010(7)
H7B H 1.1502 0.6861 -0.1417
C14B C 1.2534(5) 0.6419(2) -0.1759(7)
H8B H 1.2653 0.6526 -0.2660
C15B C 1.3028(5) 0.6063(2) -0.1193(8)
H9B H 1.3470 0.5918 -0.1720
C16B C 1.2882(5) 0.5917(2) 0.0141(7)
H10B H 1.3243 0.5675 0.0535
C17B C 0.9220(5) 0.5740(2) 0.0957(6)
H11B H 0.8479 0.5735 0.0407
H12B H 0.9690 0.5737 0.0239
C18B C 0.9437(5) 0.53514(19) 0.1942(7)
H13B H 0.9149 0.5397 0.2835
H14B H 1.0211 0.5313 0.2249
C19B C 0.8969(5) 0.4972(2) 0.1217(7)
H15B H 0.8188 0.4997 0.0983
H16B H 0.9215 0.4933 0.0288
C20B C 1.0986(4) 0.57897(19) 0.5584(6)
H17B H 1.1172 0.6028 0.6244
H18B H 1.0215 0.5800 0.5182
C21B C 1.1244(5) 0.54018(19) 0.6442(6)
H19B H 1.0994 0.5162 0.5814
H20B H 1.2020 0.5378 0.6777
C22B C 1.0707(5) 0.54048(19) 0.7774(7)
H21B H 1.0905 0.5660 0.8342
H22B H 0.9929 0.5405 0.7429
N1B N 0.8923(4) 0.66783(16) 0.2699(6)
N2B N 0.8586(4) 0.63804(19) 0.1787(5)
N3B N 0.9399(5) 0.61185(16) 0.1811(5)
N4B N 1.2823(4) 0.57270(15) 0.3213(6)
N5B N 1.2499(4) 0.56405(15) 0.4448(5)
N6B N 1.1559(4) 0.58203(15) 0.4374(6)
C23 C 0.3968(5) 0.33010(19) 0.8863(7)
H23 H 0.3434 0.3461 0.8264
C24 C 0.3784(5) 0.31465(19) 1.0164(8)
H24 H 0.3140 0.3209 1.0460
C25 C 0.4525(6) 0.29015(19) 1.1042(7)
H25 H 0.4395 0.2789 1.1928
C26 C 0.5452(5) 0.28268(19) 1.0595(7)
H26 H 0.5977 0.2661 1.1190
C27 C 0.5650(5) 0.29857(19) 0.9296(8)
H27 H 0.6303 0.2926 0.9018
C28 C 0.4910(5) 0.32292(18) 0.8400(7)
C29 C 0.5112(5) 0.33718(19) 0.6990(7)
C30 C 0.4516(5) 0.36238(18) 0.5956(7)
C31 C 0.3538(5) 0.3857(2) 0.5889(7)
C32 C 0.2539(6) 0.3809(2) 0.5060(6)
C33 C 0.2162(5) 0.3483(2) 0.4007(7)
C34 C 0.2596(4) 0.3089(2) 0.4177(6)
H28 H 0.3119 0.3028 0.5024
C35 C 0.2285(5) 0.2786(2) 0.3146(8)
H29 H 0.2586 0.2519 0.3282
C36 C 0.1527(6) 0.2878(3) 0.1909(8)
H30 H 0.1310 0.2674 0.1180
C37 C 0.1089(5) 0.3265(3) 0.1742(8)
H31 H 0.0562 0.3325 0.0899
C38 C 0.1397(5) 0.3567(2) 0.2767(8)
H32 H 0.1087 0.3833 0.2627
C39 C 0.4718(4) 0.38284(18) 0.3384(6)
H33 H 0.3974 0.3757 0.2953
H34 H 0.5167 0.3718 0.2729
C40 C 0.4829(4) 0.42900(17) 0.3455(6)
H35 H 0.5574 0.4363 0.3872
H36 H 0.4382 0.4402 0.4108
C41 C 0.4498(4) 0.44832(18) 0.1932(6)
H37 H 0.4961 0.4374 0.1295
H38 H 0.3764 0.4398 0.1506
C42 C 0.4343(5) 0.44168(17) 0.7624(6)
H39 H 0.5027 0.4297 0.7505
H40 H 0.4268 0.4366 0.8644
C43 C 0.4371(5) 0.48751(17) 0.7376(6)
H41 H 0.3815 0.5010 0.7802
H42 H 0.4222 0.4932 0.6311
C44 C 0.5447(4) 0.50523(17) 0.8073(6)
H43 H 0.5638 0.4955 0.9098
H44 H 0.5982 0.4943 0.7547
N7 N 0.5954(4) 0.32435(14) 0.6437(6)
N8 N 0.5893(4) 0.33949(16) 0.5110(6)
N9 N 0.5019(4) 0.36319(14) 0.4815(5)
N10 N 0.1941(4) 0.41271(19) 0.5356(6)
N11 N 0.2513(5) 0.43715(15) 0.6330(6)
N12 N 0.3490(4) 0.42079(18) 0.6636(5)
C23B C 0.6032(5) 0.66990(19) 0.1137(7)
H23B H 0.6566 0.6539 0.1736
C24B C 0.6216(5) 0.68535(19) -0.0164(8)
H24B H 0.6860 0.6791 -0.0460
C25B C 0.5475(6) 0.70985(19) -0.1042(7)
H25B H 0.5605 0.7211 -0.1928
C26B C 0.4548(5) 0.71732(19) -0.0595(7)
H26B H 0.4023 0.7339 -0.1190
C27B C 0.4350(5) 0.70143(19) 0.0704(8)
H27B H 0.3697 0.7074 0.0982
C28B C 0.5090(5) 0.67708(18) 0.1600(7)
C29B C 0.4888(5) 0.66282(19) 0.3010(7)
C30B C 0.5484(5) 0.63762(18) 0.4044(7)
C31B C 0.6462(5) 0.6143(2) 0.4111(7)
C32B C 0.7461(6) 0.6191(2) 0.4940(6)
C33B C 0.7838(5) 0.6517(2) 0.5993(7)
C34B C 0.7404(4) 0.6911(2) 0.5823(6)
H28B H 0.6881 0.6972 0.4976
C35B C 0.7715(5) 0.7214(2) 0.6854(8)
H29B H 0.7414 0.7481 0.6718
C36B C 0.8473(6) 0.7122(3) 0.8091(8)
H30B H 0.8690 0.7326 0.8820
C37B C 0.8911(5) 0.6735(3) 0.8258(8)
H31B H 0.9438 0.6675 0.9101
C38B C 0.8603(5) 0.6433(2) 0.7233(8)
H32B H 0.8913 0.6167 0.7373
C39B C 0.5282(4) 0.61716(18) 0.6616(6)
H33B H 0.6026 0.6243 0.7047
H34B H 0.4833 0.6282 0.7271
C40B C 0.5171(4) 0.57100(17) 0.6545(6)
H35B H 0.4426 0.5637 0.6128
H36B H 0.5618 0.5598 0.5892
C41B C 0.5502(4) 0.55168(18) 0.8068(6)
H37B H 0.5039 0.5626 0.8705
H38B H 0.6236 0.5602 0.8494
C42B C 0.5657(5) 0.55832(17) 0.2376(6)
H39B H 0.4973 0.5703 0.2495
H40B H 0.5732 0.5634 0.1356
C43B C 0.5629(5) 0.51249(17) 0.2624(6)
H41B H 0.6185 0.4990 0.2198
H42B H 0.5778 0.5068 0.3689
C44B C 0.4553(4) 0.49477(17) 0.1927(6)
H43B H 0.4362 0.5045 0.0902
H44B H 0.4018 0.5057 0.2453
N7B N 0.4046(4) 0.67565(14) 0.3563(6)
N8B N 0.4107(4) 0.66051(16) 0.4890(6)
N9B N 0.4981(4) 0.63681(14) 0.5185(5)
N10B N 0.8059(4) 0.58729(19) 0.4644(6)
N11B N 0.7487(5) 0.56285(15) 0.3670(6)
N12B N 0.6510(4) 0.57921(18) 0.3364(5)
O1 O 0.209(2) 0.4728(9) 0.281(3)
loop_
_geom_bond_atom_site_label_1
_geom_bond_atom_site_label_2
_geom_bond_site_symmetry_1
_geom_bond_site_symmetry_2
C1 H1 1_555 1_555
C2 C1 1_555 1_555
H2 C2 1_555 1_555
C3 C2 1_555 1_555
H3 C3 1_555 1_555
C4 C3 1_555 1_555
H4 C4 1_555 1_555
C5 C4 1_555 1_555
H5 C5 1_555 1_555
C6 C1 1_555 1_555
C7 C6 1_555 1_555
C8 C7 1_555 1_555
C9 C8 1_555 1_555
C10 C9 1_555 1_555
C11 C10 1_555 1_555
C12 C11 1_555 1_555
H6 C12 1_555 1_555
C13 C12 1_555 1_555
H7 C13 1_555 1_555
C14 C13 1_555 1_555
H8 C14 1_555 1_555
C15 C14 1_555 1_555
H9 C15 1_555 1_555
C16 C11 1_555 1_555
H10 C16 1_555 1_555
C17 H11 1_555 1_555
H12 C17 1_555 1_555
C18 C17 1_555 1_555
H13 C18 1_555 1_555
H14 C18 1_555 1_555
C19 C18 1_555 1_555
H15 C19 1_555 1_555
H16 C19 1_555 1_555
C20 H17 1_555 1_555
H18 C20 1_555 1_555
C21 C20 1_555 1_555
H19 C21 1_555 1_555
H20 C21 1_555 1_555
C22 C21 1_555 1_555
H21 C22 1_555 1_555
H22 C22 1_555 1_555
N1 C7 1_555 1_555
N2 N1 1_555 1_555
N3 C8 1_555 1_555
N4 C10 1_555 1_555
N5 N4 1_555 1_555
N6 C9 1_555 1_555
C23 H23 1_555 1_555
C24 C23 1_555 1_555
H24 C24 1_555 1_555
C25 C24 1_555 1_555
H25 C25 1_555 1_555
C26 C25 1_555 1_555
H26 C26 1_555 1_555
C27 C26 1_555 1_555
H27 C27 1_555 1_555
C28 C23 1_555 1_555
C29 C28 1_555 1_555
C30 C29 1_555 1_555
C31 C30 1_555 1_555
C32 C31 1_555 1_555
C33 C32 1_555 1_555
C34 C33 1_555 1_555
H28 C34 1_555 1_555
C35 C34 1_555 1_555
H29 C35 1_555 1_555
C36 C35 1_555 1_555
H30 C36 1_555 1_555
C37 C36 1_555 1_555
H31 C37 1_555 1_555
C38 C33 1_555 1_555
H32 C38 1_555 1_555
C39 H33 1_555 1_555
H34 C39 1_555 1_555
C40 C39 1_555 1_555
H35 C40 1_555 1_555
H36 C40 1_555 1_555
C41 C40 1_555 1_555
H37 C41 1_555 1_555
H38 C41 1_555 1_555
C42 H39 1_555 1_555
H40 C42 1_555 1_555
C43 C42 1_555 1_555
H41 C43 1_555 1_555
H42 C43 1_555 1_555
C44 C43 1_555 1_555
H43 C44 1_555 1_555
H44 C44 1_555 1_555
N7 C29 1_555 1_555
N8 N7 1_555 1_555
N9 C30 1_555 1_555
N10 C32 1_555 1_555
N11 N10 1_555 1_555
N12 C31 1_555 1_555
C1B H1B 1_555 1_555
C2B C1B 1_555 1_555
H2B C2B 1_555 1_555
C3B C2B 1_555 1_555
H3B C3B 1_555 1_555
C4B C3B 1_555 1_555
H4B C4B 1_555 1_555
C5B C4B 1_555 1_555
H5B C5B 1_555 1_555
C6B C1B 1_555 1_555
C7B C6B 1_555 1_555
C8B C7B 1_555 1_555
C9B C8B 1_555 1_555
C10B C9B 1_555 1_555
C11B C10B 1_555 1_555
C12B C11B 1_555 1_555
H6B C12B 1_555 1_555
C13B C12B 1_555 1_555
H7B C13B 1_555 1_555
C14B C13B 1_555 1_555
H8B C14B 1_555 1_555
C15B C14B 1_555 1_555
H9B C15B 1_555 1_555
C16B C11B 1_555 1_555
H10B C16B 1_555 1_555
C17B H11B 1_555 1_555
H12B C17B 1_555 1_555
C18B C17B 1_555 1_555
H13B C18B 1_555 1_555
H14B C18B 1_555 1_555
C19B C22 1_555 1_555
H15B C19B 1_555 1_555
H16B C19B 1_555 1_555
C20B H17B 1_555 1_555
H18B C20B 1_555 1_555
C21B C20B 1_555 1_555
H19B C21B 1_555 1_555
H20B C21B 1_555 1_555
C22B C19 1_555 1_555
H21B C22B 1_555 1_555
H22B C22B 1_555 1_555
N1B C7B 1_555 1_555
N2B N1B 1_555 1_555
N3B C8B 1_555 1_555
N4B C10B 1_555 1_555
N5B N4B 1_555 1_555
N6B C9B 1_555 1_555
C23B H23B 1_555 1_555
C24B C23B 1_555 1_555
H24B C24B 1_555 1_555
C25B C24B 1_555 1_555
H25B C25B 1_555 1_555
C26B C25B 1_555 1_555
H26B C26B 1_555 1_555
C27B C26B 1_555 1_555
H27B C27B 1_555 1_555
C28B C23B 1_555 1_555
C29B C28B 1_555 1_555
C30B C29B 1_555 1_555
C31B C30B 1_555 1_555
C32B C31B 1_555 1_555
C33B C32B 1_555 1_555
C34B C33B 1_555 1_555
H28B C34B 1_555 1_555
C35B C34B 1_555 1_555
H29B C35B 1_555 1_555
C36B C35B 1_555 1_555
H30B C36B 1_555 1_555
C37B C36B 1_555 1_555
H31B C37B 1_555 1_555
C38B C33B 1_555 1_555
H32B C38B 1_555 1_555
C39B H33B 1_555 1_555
H34B C39B 1_555 1_555
C40B C39B 1_555 1_555
H35B C40B 1_555 1_555
H36B C40B 1_555 1_555
C41B C44 1_555 1_555
H37B C41B 1_555 1_555
H38B C41B 1_555 1_555
C42B H39B 1_555 1_555
H40B C42B 1_555 1_555
C43B C42B 1_555 1_555
H41B C43B 1_555 1_555
H42B C43B 1_555 1_555
C44B C41 1_555 1_555
H43B C44B 1_555 1_555
H44B C44B 1_555 1_555
N7B C29B 1_555 1_555
N8B N7B 1_555 1_555
N9B C30B 1_555 1_555
N10B C32B 1_555 1_555
N11B N10B 1_555 1_555
N12B C31B 1_555 1_555
C5 C6 1_555 1_555
C15 C16 1_555 1_555
C17 N3 1_555 1_555
C20 N6 1_555 1_555
N2 N3 1_555 1_555
N5 N6 1_555 1_555
C27 C28 1_555 1_555
C37 C38 1_555 1_555
C39 N9 1_555 1_555
C42 N12 1_555 1_555
N8 N9 1_555 1_555
N11 N12 1_555 1_555
C5B C6B 1_555 1_555
C15B C16B 1_555 1_555
C17B N3B 1_555 1_555
C18B C19B 1_555 1_555
C20B N6B 1_555 1_555
C21B C22B 1_555 1_555
N2B N3B 1_555 1_555
N5B N6B 1_555 1_555
C27B C28B 1_555 1_555
C37B C38B 1_555 1_555
C39B N9B 1_555 1_555
C40B C41B 1_555 1_555
C42B N12B 1_555 1_555
C43B C44B 1_555 1_555
N8B N9B 1_555 1_555
N11B N12B 1_555 1_555

#END
