
#######################################################################
#
#                 Cambridge Crystallographic Data Centre
#                                CCDC 
#
#######################################################################
#
# If this CIF has been generated from an entry in the Cambridge 
# Structural Database, then it will include bibliographic, chemical, 
# crystal, experimental, refinement or atomic coordinate data resulting 
# from the CCDC's data processing and validation procedures.
#
#######################################################################

data_UCEKAR
_chemical_formula_moiety         'C34 H34 N8 O2'
_chemical_name_systematic        
4-(5'-(4-(dimethylamino)phenyl)-3,3'-bis(4-methoxyphenyl)-3H,3'H-4,4'-bi-1,2,3-triazol-5-yl)-N,N-dimethylaniline
_symmetry_cell_setting           monoclinic
_symmetry_space_group_name_H-M   'P 21/n'
_symmetry_Int_Tables_number      14
_space_group_name_Hall           '-P 2yn'
loop_
_symmetry_equiv_pos_site_id
_symmetry_equiv_pos_as_xyz
1 x,y,z
2 1/2-x,1/2+y,1/2-z
3 -x,-y,-z
4 1/2+x,1/2-y,1/2+z
_cell_length_a                   11.575(4)
_cell_length_b                   14.130(5)
_cell_length_c                   19.212(7)
_cell_angle_alpha                90
_cell_angle_beta                 97.899(4)
_cell_angle_gamma                90
_cell_volume                     3112.4
_exptl_crystal_colour            colorless
_exptl_crystal_description       Irregular
_cell_formula_units_Z            4
loop_
_atom_site_label
_atom_site_type_symbol
_atom_site_fract_x
_atom_site_fract_y
_atom_site_fract_z
C1 C 1.29142(12) 0.70596(10) -0.08127(7)
H1 H 1.2240 0.6663 -0.0985
H2 H 1.3606 0.6821 -0.0998
H3 H 1.2762 0.7713 -0.0970
C2 C 1.21778(10) 0.72267(9) 0.02814(7)
C3 C 1.11165(11) 0.75715(10) -0.00467(7)
H4 H 1.1013 0.7708 -0.0535
C4 C 1.02077(11) 0.77154(9) 0.03447(7)
H5 H 0.9480 0.7948 0.0122
C5 C 1.03574(10) 0.75214(8) 0.10555(6)
C6 C 1.14249(11) 0.71961(10) 0.13888(7)
H6 H 1.1531 0.7074 0.1880
C7 C 1.23316(11) 0.70510(11) 0.10025(7)
H7 H 1.3063 0.6831 0.1229
C8 C 0.79281(9) 0.74160(8) 0.20287(6)
C9 C 0.87967(10) 0.69392(8) 0.17467(6)
C10 C 0.69946(10) 0.70692(8) 0.24038(6)
C11 C 0.60776(10) 0.76727(8) 0.25088(6)
H8 H 0.6068 0.8299 0.2329
C12 C 0.51864(11) 0.73815(9) 0.28674(7)
H9 H 0.4571 0.7807 0.2924
C13 C 0.51760(10) 0.64636(8) 0.31508(7)
C14 C 0.60857(10) 0.58471(8) 0.30353(6)
H10 H 0.6092 0.5217 0.3209
C15 C 0.69721(10) 0.61482(8) 0.26708(6)
H11 H 0.7578 0.5720 0.2601
C16 C 0.33439(12) 0.68202(11) 0.35916(9)
H12 H 0.3627 0.7429 0.3792
H13 H 0.2822 0.6533 0.3892
H14 H 0.2919 0.6921 0.3120
C17 C 0.43088(12) 0.52715(10) 0.38471(8)
H15 H 0.4153 0.4803 0.3470
H16 H 0.3697 0.5237 0.4152
H17 H 0.5067 0.5140 0.4124
C18 C 0.58286(15) 0.58894(13) -0.18918(8)
H18 H 0.6383 0.6389 -0.1971
H19 H 0.5117 0.5960 -0.2229
H20 H 0.6180 0.5270 -0.1956
C19 C 0.64365(11) 0.58442(9) -0.06517(7)
C20 C 0.61038(11) 0.58663(9) 0.00187(7)
H21 H 0.5311 0.5971 0.0074
C21 C 0.69283(11) 0.57363(9) 0.06031(7)
H22 H 0.6704 0.5739 0.1060
C22 C 0.80915(10) 0.56008(8) 0.05147(6)
C23 C 0.84287(11) 0.56006(9) -0.01471(6)
H23 H 0.9227 0.5523 -0.0200
C24 C 0.75983(12) 0.57149(9) -0.07366(7)
H24 H 0.7824 0.5705 -0.1194
C25 C 0.99001(9) 0.53970(8) 0.21778(6)
C26 C 0.91629(9) 0.59527(8) 0.17196(6)
C27 C 1.03468(9) 0.55333(8) 0.29230(6)
C28 C 1.08885(10) 0.47823(8) 0.33203(6)
H25 H 1.1041 0.4210 0.3090
C29 C 1.12055(10) 0.48548(9) 0.40379(7)
H26 H 1.1571 0.4333 0.4291
C30 C 1.09960(10) 0.56897(9) 0.44020(6)
C31 C 1.05038(10) 0.64604(8) 0.39967(6)
H27 H 1.0393 0.7047 0.4220
C32 C 1.01818(10) 0.63745(8) 0.32804(6)
H28 H 0.9839 0.6901 0.3023
C33 C 1.18621(12) 0.49980(10) 0.55216(7)
H29 H 1.1444 0.4400 0.5420
H30 H 1.1915 0.5139 0.6024
H31 H 1.2649 0.4944 0.5392
C34 C 1.10530(13) 0.66337(10) 0.54731(7)
H32 H 1.1615 0.7107 0.5357
H33 H 1.1160 0.6529 0.5982
H34 H 1.0259 0.6860 0.5320
N1 N 0.93901(8) 0.76300(7) 0.14424(5)
N2 N 0.89135(9) 0.84861(7) 0.15277(5)
N3 N 0.80382(8) 0.83612(7) 0.18861(5)
N4 N 0.43224(10) 0.61983(8) 0.35487(8)
N5 N 0.89368(8) 0.54258(7) 0.11217(5)
N6 N 0.95134(9) 0.45931(7) 0.11968(5)
N7 N 1.01053(9) 0.45814(7) 0.18311(5)
N8 N 1.12384(10) 0.57552(8) 0.51196(6)
O1 O 1.31107(8) 0.70319(8) -0.00592(5)
O2 O 0.55459(9) 0.59611(8) -0.11922(5)
loop_
_geom_bond_atom_site_label_1
_geom_bond_atom_site_label_2
_geom_bond_site_symmetry_1
_geom_bond_site_symmetry_2
C1 H1 1_555 1_555
H2 C1 1_555 1_555
H3 C1 1_555 1_555
C2 C3 1_555 1_555
C3 H4 1_555 1_555
C4 C3 1_555 1_555
H5 C4 1_555 1_555
C5 C4 1_555 1_555
C6 C5 1_555 1_555
H6 C6 1_555 1_555
C7 C2 1_555 1_555
H7 C7 1_555 1_555
C8 C9 1_555 1_555
C9 C26 1_555 1_555
C10 C8 1_555 1_555
C11 C10 1_555 1_555
H8 C11 1_555 1_555
C12 C11 1_555 1_555
H9 C12 1_555 1_555
C13 C12 1_555 1_555
C14 C13 1_555 1_555
H10 C14 1_555 1_555
C15 C10 1_555 1_555
H11 C15 1_555 1_555
C16 H12 1_555 1_555
H13 C16 1_555 1_555
H14 C16 1_555 1_555
C17 H15 1_555 1_555
H16 C17 1_555 1_555
H17 C17 1_555 1_555
C18 H18 1_555 1_555
H19 C18 1_555 1_555
H20 C18 1_555 1_555
C19 C20 1_555 1_555
C20 H21 1_555 1_555
C21 C20 1_555 1_555
H22 C21 1_555 1_555
C22 C21 1_555 1_555
C23 C22 1_555 1_555
H23 C23 1_555 1_555
C24 C19 1_555 1_555
H24 C24 1_555 1_555
C25 C26 1_555 1_555
C26 N5 1_555 1_555
C27 C25 1_555 1_555
C28 C27 1_555 1_555
H25 C28 1_555 1_555
C29 C28 1_555 1_555
H26 C29 1_555 1_555
C30 C29 1_555 1_555
C31 C30 1_555 1_555
H27 C31 1_555 1_555
C32 C27 1_555 1_555
H28 C32 1_555 1_555
C33 H29 1_555 1_555
H30 C33 1_555 1_555
H31 C33 1_555 1_555
C34 H32 1_555 1_555
H33 C34 1_555 1_555
H34 C34 1_555 1_555
N1 C5 1_555 1_555
N2 N1 1_555 1_555
N3 C8 1_555 1_555
N4 C13 1_555 1_555
N5 C22 1_555 1_555
N6 N5 1_555 1_555
N7 C25 1_555 1_555
N8 C30 1_555 1_555
O1 C1 1_555 1_555
O2 C18 1_555 1_555
C2 O1 1_555 1_555
C6 C7 1_555 1_555
C9 N1 1_555 1_555
C14 C15 1_555 1_555
C16 N4 1_555 1_555
C17 N4 1_555 1_555
C19 O2 1_555 1_555
C23 C24 1_555 1_555
C31 C32 1_555 1_555
C33 N8 1_555 1_555
C34 N8 1_555 1_555
N2 N3 1_555 1_555
N6 N7 1_555 1_555

#END
