
#######################################################################
#
#                 Cambridge Crystallographic Data Centre
#                                CCDC 
#
#######################################################################
#
# If this CIF has been generated from an entry in the Cambridge 
# Structural Database, then it will include bibliographic, chemical, 
# crystal, experimental, refinement or atomic coordinate data resulting 
# from the CCDC's data processing and validation procedures.
#
#######################################################################

data_UCEMEU
_chemical_compound_source        'Aconitum racemulosum'
_chemical_formula_moiety         'C22 H32 N2 O3'
_chemical_name_systematic        Racemulosine
_symmetry_cell_setting           orthorhombic
_symmetry_space_group_name_H-M   'P 21 21 21'
_symmetry_Int_Tables_number      19
_space_group_name_Hall           'P 2ac 2ab'
loop_
_symmetry_equiv_pos_site_id
_symmetry_equiv_pos_as_xyz
1 x,y,z
2 1/2-x,-y,1/2+z
3 1/2+x,1/2-y,-z
4 -x,1/2+y,1/2-z
_cell_length_a                   10.9720(10)
_cell_length_b                   12.3650(10)
_cell_length_c                   13.867(2)
_cell_angle_alpha                90
_cell_angle_beta                 90
_cell_angle_gamma                90
_cell_volume                     1881.32
_exptl_crystal_colour            colorless
_chemical_melting_point          228-230deg.C
_cell_formula_units_Z            4
_exptl_crystal_recrystallization_method chloroform/methanol
loop_
_atom_site_label
_atom_site_type_symbol
_atom_site_fract_x
_atom_site_fract_y
_atom_site_fract_z
O1 O -0.0417(2) 0.2953(2) 0.1315(2)
O2 O 0.4162(2) 0.5819(1) 0.2410(2)
O3 O 0.6143(2) 0.4771(1) 0.1605(2)
N1 N -0.0145(2) 0.4705(1) 0.2514(1)
N2 N 0.6460(2) 0.2996(2) 0.1802(3)
C1 C 0.0078(2) 0.3748(2) 0.0692(2)
C2 C -0.0840(2) 0.4642(2) 0.0423(2)
C3 C -0.0937(3) 0.6664(2) 0.0496(2)
C4 C -0.0386(2) 0.5672(2) 0.0938(2)
C5 C 0.1007(2) 0.5560(2) 0.0836(2)
C6 C 0.1766(2) 0.6205(2) 0.1569(2)
C7 C 0.2072(2) 0.5378(2) 0.2373(2)
C8 C 0.3365(2) 0.4907(2) 0.2249(2)
C9 C 0.3553(2) 0.4477(2) 0.1212(2)
C10 C 0.2414(2) 0.3897(2) 0.0796(2)
C11 C 0.1187(2) 0.4358(2) 0.1114(2)
C12 C 0.2604(2) 0.2683(2) 0.1043(2)
C13 C 0.3797(2) 0.2633(2) 0.1622(2)
C14 C 0.4514(2) 0.3570(2) 0.1173(2)
C15 C 0.3670(2) 0.4039(2) 0.3007(2)
C16 C 0.3587(2) 0.2841(2) 0.2705(2)
C17 C 0.1131(2) 0.4479(2) 0.2216(2)
C18 C -0.0394(3) 0.7416(2) 0.0027(2)
C19 C -0.0702(2) 0.5628(2) 0.2016(2)
C20 C 0.5766(2) 0.3837(2) 0.1566(2)
C21 C -0.0236(2) 0.4821(2) 0.3569(2)
C22 C -0.1525(3) 0.4632(3) 0.3926(2)
loop_
_geom_bond_atom_site_label_1
_geom_bond_atom_site_label_2
_geom_bond_site_symmetry_1
_geom_bond_site_symmetry_2
O1 C1 1_555 1_555
O2 C8 1_555 1_555
O3 C20 1_555 1_555
N1 C17 1_555 1_555
N2 C20 1_555 1_555
C1 C2 1_555 1_555
C2 C4 1_555 1_555
C3 C4 1_555 1_555
C4 C5 1_555 1_555
C5 C6 1_555 1_555
C6 C7 1_555 1_555
C7 C8 1_555 1_555
C8 C9 1_555 1_555
C9 C10 1_555 1_555
C10 C11 1_555 1_555
C11 C1 1_555 1_555
C12 C10 1_555 1_555
C13 C12 1_555 1_555
C14 C9 1_555 1_555
C15 C8 1_555 1_555
C16 C13 1_555 1_555
C17 C7 1_555 1_555
C18 C3 1_555 1_555
C19 N1 1_555 1_555
C20 C14 1_555 1_555
C21 N1 1_555 1_555
C22 C21 1_555 1_555
C4 C19 1_555 1_555
C5 C11 1_555 1_555
C11 C17 1_555 1_555
C13 C14 1_555 1_555
C15 C16 1_555 1_555

#END
