
#######################################################################
#
#                 Cambridge Crystallographic Data Centre
#                                CCDC 
#
#######################################################################
#
# If this CIF has been generated from an entry in the Cambridge 
# Structural Database, then it will include bibliographic, chemical, 
# crystal, experimental, refinement or atomic coordinate data resulting 
# from the CCDC's data processing and validation procedures.
#
#######################################################################

data_UCEQUR
_chemical_formula_moiety         'C25 H23 N3 O5'
_chemical_name_systematic        
'diethyl 5-((2-hydroxy-5-(phenyldiazenyl)benzylidene)amino)isophthalate'
_symmetry_cell_setting           monoclinic
_symmetry_space_group_name_H-M   'C m'
_symmetry_Int_Tables_number      8
_space_group_name_Hall           'C -2y'
loop_
_symmetry_equiv_pos_site_id
_symmetry_equiv_pos_as_xyz
1 x,y,z
2 x,-y,z
3 1/2+x,1/2+y,z
4 1/2+x,1/2-y,z
_cell_length_a                   18.2316(11)
_cell_length_b                   6.5802(4)
_cell_length_c                   12.6489(8)
_cell_angle_alpha                90
_cell_angle_beta                 131.652(2)
_cell_angle_gamma                90
_cell_volume                     1133.84
_exptl_crystal_colour            red
_exptl_crystal_description       Block
_chemical_melting_point          '380 K'
_cell_formula_units_Z            2
loop_
_atom_site_label
_atom_site_type_symbol
_atom_site_fract_x
_atom_site_fract_y
_atom_site_fract_z
C1 C 0.7888(2) 0.5000 0.4361(3)
H1 H 0.8531 0.5000 0.4688
C2 C 0.7077(3) 0.5000 0.2919(4)
C3 C 0.6137(2) 0.5000 0.2446(3)
H2 H 0.5583 0.5000 0.1459
C4 C 0.6003(2) 0.5000 0.3402(3)
C5 C 0.6824(2) 0.5000 0.4859(3)
H3 H 0.6740 0.5000 0.5525
C6 C 0.7760(2) 0.5000 0.5320(3)
C7 C 0.8655(2) 0.5000 0.6853(3)
C8 C 0.9285(3) 0.5000 0.9196(4)
H4 H 0.9693 0.6221 0.9462
C9 C 0.8905(4) 0.5000 0.9934(5)
H5 H 0.9457 0.5000 1.0959
H6 H 0.8503 0.3784 0.9664
C10 C 0.7274(2) 0.5000 0.1932(3)
C11 C 0.6609(3) 0.5000 -0.0419(3)
H7 H 0.6986 0.3779 -0.0268
C12 C 0.5629(4) 0.5000 -0.1887(5)
H8 H 0.5718 0.5000 -0.2570
H9 H 0.5262 0.6216 -0.2027
C13 C 0.4816(2) 0.5000 0.3625(3)
H10 H 0.5341 0.5000 0.4622
C14 C 0.38162(19) 0.5000 0.3057(3)
C15 C 0.3008(2) 0.5000 0.1573(3)
C16 C 0.2053(2) 0.5000 0.1064(3)
H11 H 0.1508 0.5000 0.0073
C17 C 0.1898(2) 0.5000 0.1989(3)
H12 H 0.1245 0.5000 0.1630
C18 C 0.2694(2) 0.5000 0.3466(3)
C19 C 0.3635(2) 0.5000 0.3963(3)
H13 H 0.4175 0.5000 0.4956
C20 C 0.1643(2) 0.5000 0.5025(3)
C21 C 0.0698(3) 0.5000 0.4522(4)
H14 H 0.0152 0.5000 0.3532
C22 C 0.0546(3) 0.5000 0.5456(5)
H15 H -0.0103 0.5000 0.5110
C23 C 0.1344(4) 0.5000 0.6903(5)
H16 H 0.1245 0.5000 0.7551
C24 C 0.2283(3) 0.5000 0.7394(4)
H17 H 0.2829 0.5000 0.8384
C25 C 0.2443(3) 0.5000 0.6477(3)
H18 H 0.3094 0.5000 0.6829
N1 N 0.50167(18) 0.5000 0.2824(3)
N2 N 0.25990(18) 0.5000 0.4491(3)
N3 N 0.17222(19) 0.5000 0.3974(3)
O1 O 0.94807(17) 0.5000 0.7317(3)
O2 O 0.84434(16) 0.5000 0.7685(2)
O3 O 0.80843(18) 0.5000 0.2347(3)
O4 O 0.64476(16) 0.5000 0.0569(2)
O5 O 0.31393(16) 0.5000 0.0650(2)
H19 H 0.3743 0.5000 0.1092
H4A H 0.9693 0.3779 0.9462
H6A H 0.8503 0.6216 0.9664
H7A H 0.6986 0.6221 -0.0268
H9A H 0.5262 0.3784 -0.2027
H20? H 0.9693 0.6221 0.9462
H21? H 0.8503 0.3784 0.9664
H22? H 0.6986 0.3779 -0.0268
H23? H 0.5262 0.6216 -0.2027
loop_
_geom_bond_atom_site_label_1
_geom_bond_atom_site_label_2
_geom_bond_site_symmetry_1
_geom_bond_site_symmetry_2
C1 H1 1_555 1_555
C2 C1 1_555 1_555
C3 C2 1_555 1_555
H2 C3 1_555 1_555
C4 C3 1_555 1_555
C5 C4 1_555 1_555
H3 C5 1_555 1_555
C6 C1 1_555 1_555
C7 C6 1_555 1_555
C8 H4 1_555 1_555
C9 C8 1_555 1_555
H5 C9 1_555 1_555
H6 C9 1_555 1_555
C10 C2 1_555 1_555
C11 H7 1_555 1_555
C12 C11 1_555 1_555
H8 C12 1_555 1_555
H9 C12 1_555 1_555
C13 H10 1_555 1_555
C14 C13 1_555 1_555
C15 C14 1_555 1_555
C16 C15 1_555 1_555
H11 C16 1_555 1_555
C17 C16 1_555 1_555
H12 C17 1_555 1_555
C18 C17 1_555 1_555
C19 C14 1_555 1_555
H13 C19 1_555 1_555
C20 C21 1_555 1_555
C21 H14 1_555 1_555
C22 C21 1_555 1_555
H15 C22 1_555 1_555
C23 C22 1_555 1_555
H16 C23 1_555 1_555
C24 C23 1_555 1_555
H17 C24 1_555 1_555
C25 C20 1_555 1_555
H18 C25 1_555 1_555
N1 C4 1_555 1_555
N2 C18 1_555 1_555
N3 C20 1_555 1_555
O1 C7 1_555 1_555
O2 C7 1_555 1_555
O3 C10 1_555 1_555
O4 C10 1_555 1_555
O5 C15 1_555 1_555
H19 O5 1_555 1_555
H4A C8 1_555 1_555
H6A C9 1_555 1_555
H7A C11 1_555 1_555
H9A C12 1_555 1_555
C5 C6 1_555 1_555
C8 O2 1_555 1_555
C11 O4 1_555 1_555
C13 N1 1_555 1_555
C18 C19 1_555 1_555
C24 C25 1_555 1_555
N2 N3 1_555 1_555

#END
