
#######################################################################
#
#                 Cambridge Crystallographic Data Centre
#                                CCDC 
#
#######################################################################
#
# If this CIF has been generated from an entry in the Cambridge 
# Structural Database, then it will include bibliographic, chemical, 
# crystal, experimental, refinement or atomic coordinate data resulting 
# from the CCDC's data processing and validation procedures.
#
#######################################################################

data_UCEREC
_chemical_formula_moiety         'C12 H9 N1 O1 S3'
_chemical_name_systematic        
'1-(1,3-dithiolan-2-ylidene)-2-oxo-2-phenylethyl thiocyanate'
_symmetry_cell_setting           orthorhombic
_symmetry_space_group_name_H-M   'P b c n'
_symmetry_Int_Tables_number      60
_space_group_name_Hall           '-P 2n 2ab'
loop_
_symmetry_equiv_pos_site_id
_symmetry_equiv_pos_as_xyz
1 x,y,z
2 1/2-x,1/2-y,1/2+z
3 1/2+x,1/2-y,-z
4 -x,y,1/2-z
5 -x,-y,-z
6 1/2+x,1/2+y,1/2-z
7 1/2-x,1/2+y,z
8 x,-y,1/2+z
_cell_length_a                   7.9629(3)
_cell_length_b                   16.9905(6)
_cell_length_c                   18.7808(5)
_cell_angle_alpha                90
_cell_angle_beta                 90
_cell_angle_gamma                90
_cell_volume                     2540.92
_exptl_crystal_colour            'light colorless'
_exptl_crystal_description       block
_cell_formula_units_Z            8
loop_
_atom_site_label
_atom_site_type_symbol
_atom_site_fract_x
_atom_site_fract_y
_atom_site_fract_z
S1 S 0.28290(11) 0.20142(5) 0.32784(4)
S2 S 0.22067(11) 0.32018(5) 0.21813(4)
S3 S 0.13325(10) 0.19416(4) 0.10477(4)
O1 O 0.2558(4) 0.05909(13) 0.26636(12)
N1 N 0.4393(5) 0.21640(19) 0.02958(14)
C1 C 0.3847(5) -0.00208(19) 0.12007(18)
H1 H 0.4833 0.0169 0.1402
C2 C 0.3925(6) -0.0559(2) 0.06490(19)
H2 H 0.4962 -0.0726 0.0478
C3 C 0.2487(7) -0.0844(2) 0.03556(19)
H3 H 0.2545 -0.1209 -0.0013
C4 C 0.0941(6) -0.0597(2) 0.06016(18)
H4 H -0.0040 -0.0794 0.0400
C5 C 0.0857(5) -0.00510(19) 0.11546(17)
H5 H -0.0180 0.0120 0.1322
C6 C 0.2315(4) 0.02354(16) 0.14533(15)
C7 C 0.2296(4) 0.08086(18) 0.20536(14)
C8 C 0.2053(4) 0.16409(16) 0.18990(13)
C9 C 0.2319(3) 0.22105(16) 0.24028(14)
C10 C 0.2527(7) 0.3565(2) 0.3055(2)
H6 H 0.3367 0.3978 0.3034
H7 H 0.1488 0.3803 0.3218
C11 C 0.3023(7) 0.3025(2) 0.3545(2)
H8 H 0.2367 0.3102 0.3974
H9 H 0.4189 0.3125 0.3664
C12 C 0.3178(5) 0.20718(18) 0.06120(15)
loop_
_geom_bond_atom_site_label_1
_geom_bond_atom_site_label_2
_geom_bond_site_symmetry_1
_geom_bond_site_symmetry_2
S1 C9 1_555 1_555
S2 C9 1_555 1_555
S3 C8 1_555 1_555
O1 C7 1_555 1_555
N1 C12 1_555 1_555
C1 H1 1_555 1_555
C2 C1 1_555 1_555
H2 C2 1_555 1_555
C3 C2 1_555 1_555
H3 C3 1_555 1_555
C4 C3 1_555 1_555
H4 C4 1_555 1_555
C5 C4 1_555 1_555
H5 C5 1_555 1_555
C6 C1 1_555 1_555
C7 C6 1_555 1_555
C8 C7 1_555 1_555
C9 C8 1_555 1_555
C10 S2 1_555 1_555
H6 C10 1_555 1_555
H7 C10 1_555 1_555
C11 S1 1_555 1_555
H8 C11 1_555 1_555
H9 C11 1_555 1_555
C12 S3 1_555 1_555
C5 C6 1_555 1_555
C10 C11 1_555 1_555

#END
