
#######################################################################
#
#                 Cambridge Crystallographic Data Centre
#                                CCDC 
#
#######################################################################
#
# If this CIF has been generated from an entry in the Cambridge 
# Structural Database, then it will include bibliographic, chemical, 
# crystal, experimental, refinement or atomic coordinate data resulting 
# from the CCDC's data processing and validation procedures.
#
#######################################################################

data_UCESIF
_chemical_formula_moiety         'C30 H32 N4 O2 Si1'
_chemical_name_systematic        
bis(N-(Dimethylamino)benzimidato-N,O)diphenylsilicon(iv)
_symmetry_cell_setting           monoclinic
_symmetry_space_group_name_H-M   'P 21/c'
_symmetry_Int_Tables_number      14
_space_group_name_Hall           '-P 2ybc'
loop_
_symmetry_equiv_pos_site_id
_symmetry_equiv_pos_as_xyz
1 x,y,z
2 -x,1/2+y,1/2-z
3 -x,-y,-z
4 x,1/2-y,1/2+z
_cell_length_a                   10.367(2)
_cell_length_b                   25.806(5)
_cell_length_c                   11.119(2)
_cell_angle_alpha                90
_cell_angle_beta                 108.74(3)
_cell_angle_gamma                90
_cell_volume                     2816.98
_exptl_crystal_colour            colorless
_exptl_crystal_description       prism
_chemical_melting_point          119deg.C
_cell_formula_units_Z            4
_exptl_crystal_recrystallization_method n-hexane
loop_
_atom_site_label
_atom_site_type_symbol
_atom_site_fract_x
_atom_site_fract_y
_atom_site_fract_z
Si1 Si 0.87908(6) 0.11575(2) 0.31961(5)
O1 O 1.02383(14) 0.12722(6) 0.43760(12)
O2 O 0.78894(14) 0.11890(5) 0.42126(12)
N1 N 1.18614(19) 0.14663(7) 0.33885(17)
N2 N 1.10001(19) 0.11416(7) 0.23762(16)
N3 N 0.57097(19) 0.08539(7) 0.32056(16)
N4 N 0.58954(19) 0.10607(7) 0.20658(16)
C1 C 1.1412(2) 0.14904(8) 0.4324(2)
C2 C 1.2205(2) 0.17642(8) 0.5504(2)
C3 C 1.1598(3) 0.19239(10) 0.6381(2)
H1 H 1.0676 0.1862 0.6232
C4 C 1.2354(3) 0.21737(11) 0.7476(3)
H2 H 1.1937 0.2283 0.8059
C5 C 1.3706(3) 0.22618(12) 0.7707(3)
H3 H 1.4212 0.2428 0.8451
C6 C 1.4328(3) 0.21057(13) 0.6846(3)
H4 H 1.5253 0.2167 0.7008
C7 C 1.3582(3) 0.18589(10) 0.5744(2)
H5 H 1.4002 0.1756 0.5159
C8 C 1.1687(3) 0.06345(10) 0.2548(2)
H6 H 1.1672 0.0482 0.3331
H7 H 1.2614 0.0680 0.2571
H8 H 1.1223 0.0411 0.1854
C9 C 1.1021(3) 0.13781(12) 0.1180(2)
H9 H 1.0571 0.1708 0.1072
H10 H 1.0557 0.1156 0.0483
H11 H 1.1947 0.1425 0.1203
C10 C 0.6730(2) 0.09474(8) 0.41949(19)
C11 C 0.6667(2) 0.08077(8) 0.54650(19)
C12 C 0.7801(2) 0.08492(9) 0.6534(2)
H12 H 0.8621 0.0963 0.6456
C13 C 0.7727(3) 0.07239(10) 0.7717(2)
H13 H 0.8499 0.0751 0.8429
C14 C 0.6522(3) 0.05593(11) 0.7849(2)
H14 H 0.6472 0.0481 0.8649
C15 C 0.5390(3) 0.05107(11) 0.6794(2)
H15 H 0.4576 0.0392 0.6878
C16 C 0.5455(3) 0.06370(10) 0.5608(2)
H16 H 0.4681 0.0607 0.4899
C17 C 0.5150(3) 0.07110(12) 0.1035(2)
H17 H 0.5588 0.0379 0.1155
H18 H 0.5143 0.0853 0.0235
H19 H 0.4231 0.0673 0.1040
C18 C 0.5238(3) 0.15744(11) 0.1894(3)
H20 H 0.5736 0.1800 0.2572
H21 H 0.4319 0.1540 0.1904
H22 H 0.5231 0.1718 0.1096
C19 C 0.8625(2) 0.04792(8) 0.26182(18)
C20 C 0.8594(2) 0.00821(9) 0.3460(2)
H23 H 0.8685 0.0164 0.4298
C21 C 0.8433(3) -0.04297(10) 0.3077(2)
H24 H 0.8428 -0.0688 0.3660
C22 C 0.8278(3) -0.05607(10) 0.1840(2)
H25 H 0.8154 -0.0905 0.1580
C23 C 0.8309(3) -0.01789(10) 0.0994(2)
H26 H 0.8215 -0.0264 0.0157
C24 C 0.8479(2) 0.03304(9) 0.13779(19)
H27 H 0.8497 0.0584 0.0789
C25 C 0.8403(2) 0.17376(8) 0.21579(19)
C26 C 0.7786(2) 0.17295(10) 0.0844(2)
H28 H 0.7575 0.1413 0.0427
C27 C 0.7483(3) 0.21842(12) 0.0149(2)
H29 H 0.7074 0.2171 -0.0728
C28 C 0.7782(3) 0.26548(12) 0.0750(3)
H30 H 0.7572 0.2960 0.0281
C29 C 0.8390(3) 0.26757(10) 0.2038(3)
H31 H 0.8589 0.2995 0.2445
C30 C 0.8710(2) 0.22210(8) 0.2738(2)
H32 H 0.9138 0.2239 0.3611
loop_
_geom_bond_atom_site_label_1
_geom_bond_atom_site_label_2
_geom_bond_site_symmetry_1
_geom_bond_site_symmetry_2
Si1 O1 1_555 1_555
O1 C1 1_555 1_555
O2 Si1 1_555 1_555
N1 N2 1_555 1_555
N2 C8 1_555 1_555
N3 N4 1_555 1_555
N4 C17 1_555 1_555
C1 N1 1_555 1_555
C2 C1 1_555 1_555
C3 C2 1_555 1_555
H1 C3 1_555 1_555
C4 C3 1_555 1_555
H2 C4 1_555 1_555
C5 C4 1_555 1_555
H3 C5 1_555 1_555
C6 C5 1_555 1_555
H4 C6 1_555 1_555
C7 C2 1_555 1_555
H5 C7 1_555 1_555
C8 H6 1_555 1_555
H7 C8 1_555 1_555
H8 C8 1_555 1_555
C9 N2 1_555 1_555
H9 C9 1_555 1_555
H10 C9 1_555 1_555
H11 C9 1_555 1_555
C10 O2 1_555 1_555
C11 C10 1_555 1_555
C12 C11 1_555 1_555
H12 C12 1_555 1_555
C13 C12 1_555 1_555
H13 C13 1_555 1_555
C14 C13 1_555 1_555
H14 C14 1_555 1_555
C15 C14 1_555 1_555
H15 C15 1_555 1_555
C16 C11 1_555 1_555
H16 C16 1_555 1_555
C17 H17 1_555 1_555
H18 C17 1_555 1_555
H19 C17 1_555 1_555
C18 N4 1_555 1_555
H20 C18 1_555 1_555
H21 C18 1_555 1_555
H22 C18 1_555 1_555
C19 Si1 1_555 1_555
C20 C19 1_555 1_555
H23 C20 1_555 1_555
C21 C20 1_555 1_555
H24 C21 1_555 1_555
C22 C21 1_555 1_555
H25 C22 1_555 1_555
C23 C22 1_555 1_555
H26 C23 1_555 1_555
C24 C19 1_555 1_555
H27 C24 1_555 1_555
C25 Si1 1_555 1_555
C26 C25 1_555 1_555
H28 C26 1_555 1_555
C27 C26 1_555 1_555
H29 C27 1_555 1_555
C28 C27 1_555 1_555
H30 C28 1_555 1_555
C29 C28 1_555 1_555
H31 C29 1_555 1_555
C30 C25 1_555 1_555
H32 C30 1_555 1_555
N3 C10 1_555 1_555
C6 C7 1_555 1_555
C15 C16 1_555 1_555
C23 C24 1_555 1_555
C29 C30 1_555 1_555

#END
