
#######################################################################
#
#                 Cambridge Crystallographic Data Centre
#                                CCDC 
#
#######################################################################
#
# If this CIF has been generated from an entry in the Cambridge 
# Structural Database, then it will include bibliographic, chemical, 
# crystal, experimental, refinement or atomic coordinate data resulting 
# from the CCDC's data processing and validation procedures.
#
#######################################################################

data_UCEYIK
_chemical_formula_moiety         'C26 H27 N1 O3 S2'
_chemical_name_systematic        
'1,6,8,13-Tetramethyl-16-phenyl-16-aza-7,19-dithiapentacyclo(11.5.1.0^2,12^.0^5,9^.0^14,18^)nonadeca-2(12),5,9-triene-15,17-dione 19-oxide'
_symmetry_cell_setting           monoclinic
_symmetry_space_group_name_H-M   'P 21/n'
_symmetry_Int_Tables_number      14
_space_group_name_Hall           '-P 2yn'
loop_
_symmetry_equiv_pos_site_id
_symmetry_equiv_pos_as_xyz
1 x,y,z
2 1/2-x,1/2+y,1/2-z
3 -x,-y,-z
4 1/2+x,1/2-y,1/2+z
_cell_length_a                   11.987(7)
_cell_length_b                   23.064(4)
_cell_length_c                   8.905(5)
_cell_angle_alpha                90
_cell_angle_beta                 110.610(10)
_cell_angle_gamma                90
_cell_volume                     2304.38
_exptl_crystal_colour            colorless
_exptl_crystal_description       prism
_chemical_melting_point          505-507K
_cell_formula_units_Z            4
loop_
_atom_site_label
_atom_site_type_symbol
_atom_site_fract_x
_atom_site_fract_y
_atom_site_fract_z
C1 C 0.8810(2) 0.56794(9) 1.0502(2)
H1 H 0.9621(2) 0.56400(9) 1.0527(2)
H2 H 0.8496(2) 0.52928(9) 1.0518(2)
C2 C 0.8823(2) 0.60096(10) 1.2021(2)
H3 H 0.8968(2) 0.57319(10) 1.2887(2)
H4 H 0.9488(2) 0.62782(10) 1.2327(2)
C3 C 0.7710(2) 0.63434(8) 1.1871(2)
C4 C 0.6531(2) 0.61061(9) 1.1224(2)
C5 C 0.6266(2) 0.55143(9) 1.0481(3)
H5 H 0.5563(2) 0.53596(9) 1.0639(3)
H6 H 0.6929(2) 0.52574(9) 1.1013(3)
C6 C 0.6057(2) 0.55318(10) 0.8674(3)
H7 H 0.6119(2) 0.51399(10) 0.8316(3)
H8 H 0.5249(2) 0.56635(10) 0.8109(3)
C7 C 0.6899(2) 0.59145(8) 0.8197(2)
C8 C 0.8077(2) 0.59749(8) 0.8971(2)
C9 C 0.7711(2) 0.69041(9) 1.2358(2)
C10 C 0.5664(2) 0.64818(9) 1.1247(2)
C11 C 0.8740(2) 0.73044(11) 1.3093(3)
H9 H 0.8451(2) 0.76725(11) 1.3304(3)
H10 H 0.9164(2) 0.73566(11) 1.2367(3)
H11 H 0.9266(2) 0.71411(11) 1.4080(3)
C12 C 0.4348(2) 0.63777(13) 1.0769(3)
H12 H 0.3964(2) 0.67271(13) 1.0918(3)
H13 H 0.4209(2) 0.60749(13) 1.1422(3)
H14 H 0.4029(2) 0.62646(13) 0.9661(3)
C13 C 0.8606(2) 0.64003(8) 0.8114(2)
C14 C 0.8426(2) 0.61544(8) 0.6422(2)
H15 H 0.8814(2) 0.64013(8) 0.5855(2)
C15 C 0.7086(2) 0.61198(8) 0.5515(2)
H16 H 0.6846(2) 0.63779(8) 0.4581(2)
C16 C 0.6478(2) 0.63004(9) 0.6723(2)
C17 C 0.9832(2) 0.66447(11) 0.9005(3)
H17 H 1.0051(2) 0.69066(11) 0.8317(3)
H18 H 1.0400(2) 0.63338(11) 0.9322(3)
H19 H 0.9825(2) 0.68488(11) 0.9940(3)
C18 C 0.5170(2) 0.64329(12) 0.5954(3)
H20 H 0.5045(2) 0.66803(12) 0.5042(3)
H21 H 0.4896(2) 0.66249(12) 0.6716(3)
H22 H 0.4735(2) 0.60782(12) 0.5613(3)
C19 C 0.8865(2) 0.55368(9) 0.6520(2)
C20 C 0.6835(2) 0.54957(9) 0.5005(2)
C21 C 0.7968(2) 0.45668(8) 0.5602(2)
C22 C 0.8172(2) 0.43119(10) 0.4325(3)
H23 H 0.8278(2) 0.45391(10) 0.3523(3)
C23 C 0.8218(2) 0.37152(10) 0.4250(3)
H24 H 0.8360(2) 0.35398(10) 0.3394(3)
C24 C 0.8057(2) 0.33794(10) 0.5424(3)
H25 H 0.8078(2) 0.29775(10) 0.5354(3)
C25 C 0.7864(2) 0.36352(9) 0.6710(3)
H26 H 0.7763(2) 0.34071(9) 0.7514(3)
C26 C 0.7820(2) 0.42313(9) 0.6798(3)
H27 H 0.7691(2) 0.44064(9) 0.7663(3)
N1 N 0.79026(14) 0.51882(7) 0.5684(2)
O1 O 0.7483(2) 0.73575(7) 0.6424(2)
O2 O 0.98600(13) 0.53601(7) 0.7220(2)
O3 O 0.59093(14) 0.52814(7) 0.4199(2)
S1 S 0.73991(5) 0.69447(2) 0.76643(6)
S2 S 0.62796(5) 0.71390(2) 1.20389(7)
loop_
_geom_bond_atom_site_label_1
_geom_bond_atom_site_label_2
_geom_bond_site_symmetry_1
_geom_bond_site_symmetry_2
C1 H1 1_555 1_555
H2 C1 1_555 1_555
C2 C1 1_555 1_555
H3 C2 1_555 1_555
H4 C2 1_555 1_555
C3 C2 1_555 1_555
C4 C3 1_555 1_555
C5 C4 1_555 1_555
H5 C5 1_555 1_555
H6 C5 1_555 1_555
C6 C5 1_555 1_555
H7 C6 1_555 1_555
H8 C6 1_555 1_555
C7 C6 1_555 1_555
C8 C1 1_555 1_555
C9 C3 1_555 1_555
C10 C4 1_555 1_555
C11 C9 1_555 1_555
H9 C11 1_555 1_555
H10 C11 1_555 1_555
H11 C11 1_555 1_555
C12 C10 1_555 1_555
H12 C12 1_555 1_555
H13 C12 1_555 1_555
H14 C12 1_555 1_555
C13 C8 1_555 1_555
C14 C13 1_555 1_555
H15 C14 1_555 1_555
C15 C14 1_555 1_555
H16 C15 1_555 1_555
C16 C7 1_555 1_555
C17 C13 1_555 1_555
H17 C17 1_555 1_555
H18 C17 1_555 1_555
H19 C17 1_555 1_555
C18 C16 1_555 1_555
H20 C18 1_555 1_555
H21 C18 1_555 1_555
H22 C18 1_555 1_555
C19 C14 1_555 1_555
C20 C15 1_555 1_555
C21 C22 1_555 1_555
C22 H23 1_555 1_555
C23 C22 1_555 1_555
H24 C23 1_555 1_555
C24 C23 1_555 1_555
H25 C24 1_555 1_555
C25 C24 1_555 1_555
H26 C25 1_555 1_555
C26 C21 1_555 1_555
H27 C26 1_555 1_555
N1 C19 1_555 1_555
O1 S1 1_555 1_555
O2 C19 1_555 1_555
O3 C20 1_555 1_555
S1 C13 1_555 1_555
S2 C9 1_555 1_555
C7 C8 1_555 1_555
C10 S2 1_555 1_555
C15 C16 1_555 1_555
C16 S1 1_555 1_555
C20 N1 1_555 1_555
C21 N1 1_555 1_555
C25 C26 1_555 1_555

#END
