
#######################################################################
#
#                 Cambridge Crystallographic Data Centre
#                                CCDC 
#
#######################################################################
#
# If this CIF has been generated from an entry in the Cambridge 
# Structural Database, then it will include bibliographic, chemical, 
# crystal, experimental, refinement or atomic coordinate data resulting 
# from the CCDC's data processing and validation procedures.
#
#######################################################################

data_UCICAN
_chemical_formula_moiety         'C24 H20 O2'
_chemical_name_systematic        4-(3,4-dimethoxy-1-naphthyl)biphenyl
_symmetry_cell_setting           triclinic
_symmetry_space_group_name_H-M   'P -1'
_symmetry_Int_Tables_number      2
_space_group_name_Hall           '-P 1'
loop_
_symmetry_equiv_pos_site_id
_symmetry_equiv_pos_as_xyz
1 x,y,z
2 -x,-y,-z
_cell_length_a                   6.6111(3)
_cell_length_b                   9.8830(5)
_cell_length_c                   14.4700(8)
_cell_angle_alpha                106.574(2)
_cell_angle_beta                 94.682(2)
_cell_angle_gamma                104.105(2)
_cell_volume                     867.138
_exptl_crystal_colour            colorless
_cell_formula_units_Z            2
loop_
_atom_site_label
_atom_site_type_symbol
_atom_site_fract_x
_atom_site_fract_y
_atom_site_fract_z
O1 O 1.17578(14) 0.55358(10) 1.34737(6)
O2 O 1.46614(14) 0.58270(10) 1.22881(6)
C1 C 0.8007(2) -0.22537(15) 0.44556(10)
H1 H 0.7768 -0.2859 0.3794
C2 C 0.9956(2) -0.18996(15) 0.50302(10)
H2 H 1.1063 -0.2252 0.4760
C3 C 1.0297(2) -0.10308(14) 0.59997(9)
H3 H 1.1643 -0.0791 0.6388
C4 C 0.8692(2) -0.05027(13) 0.64148(9)
C5 C 0.90586(19) 0.03939(13) 0.74600(9)
C6 C 1.04296(19) 0.01541(14) 0.81475(9)
H4 H 1.1123 -0.0590 0.7939
C7 C 1.07950(19) 0.09822(14) 0.91266(9)
H5 H 1.1744 0.0803 0.9577
C8 C 0.97890(19) 0.20755(13) 0.94611(9)
C9 C 1.02300(19) 0.29767(13) 1.05139(9)
C10 C 0.86750(19) 0.28418(13) 1.11349(9)
C11 C 0.92334(19) 0.36909(14) 1.21450(9)
C12 C 1.1281(2) 0.46780(14) 1.25029(9)
C13 C 1.2852(2) 0.49218(16) 1.40778(10)
H6 H 1.2035 0.3909 1.3986
H7 H 1.3019 0.5511 1.4765
H8 H 1.4248 0.4928 1.3894
C14 C 0.6607(2) 0.18595(14) 1.07980(9)
H9 H 0.6203 0.1294 1.0127
C15 C 0.5187(2) 0.17162(14) 1.14267(10)
H10 H 0.3819 0.1046 1.1190
C16 C 0.5747(2) 0.25584(15) 1.24242(10)
H11 H 0.4753 0.2452 1.2855
C17 C 0.7711(2) 0.35265(14) 1.27749(9)
H12 H 0.8063 0.4096 1.3447
C18 C 1.22125(19) 0.39393(14) 1.08977(9)
H13 H 1.3247 0.4015 1.0483
C19 C 1.27476(19) 0.48139(14) 1.18877(9)
C20 C 1.6174(2) 0.60263(15) 1.16538(10)
H14 H 1.6505 0.5096 1.1366
H15 H 1.7467 0.6778 1.2027
H16 H 1.5590 0.6341 1.1132
C21 C 0.8061(2) 0.14960(14) 0.77963(9)
H17 H 0.7129 0.1688 0.7346
C22 C 0.8412(2) 0.23120(15) 0.87781(9)
H18 H 0.7702 0.3046 0.8990
C23 C 0.6409(2) -0.17238(15) 0.48471(10)
H19 H 0.5077 -0.1955 0.4450
C24 C 0.6741(2) -0.08554(15) 0.58185(9)
H20 H 0.5632 -0.0497 0.6081
loop_
_geom_bond_atom_site_label_1
_geom_bond_atom_site_label_2
_geom_bond_site_symmetry_1
_geom_bond_site_symmetry_2
O1 C12 1_555 1_555
O2 C19 1_555 1_555
C1 H1 1_555 1_555
C2 C1 1_555 1_555
H2 C2 1_555 1_555
C3 C2 1_555 1_555
H3 C3 1_555 1_555
C4 C3 1_555 1_555
C5 C4 1_555 1_555
C6 C5 1_555 1_555
H4 C6 1_555 1_555
C7 C6 1_555 1_555
H5 C7 1_555 1_555
C8 C7 1_555 1_555
C9 C8 1_555 1_555
C10 C9 1_555 1_555
C11 C10 1_555 1_555
C12 C11 1_555 1_555
C13 O1 1_555 1_555
H6 C13 1_555 1_555
H7 C13 1_555 1_555
H8 C13 1_555 1_555
C14 C10 1_555 1_555
H9 C14 1_555 1_555
C15 C14 1_555 1_555
H10 C15 1_555 1_555
C16 C15 1_555 1_555
H11 C16 1_555 1_555
C17 C11 1_555 1_555
H12 C17 1_555 1_555
C18 C9 1_555 1_555
H13 C18 1_555 1_555
C19 C12 1_555 1_555
C20 O2 1_555 1_555
H14 C20 1_555 1_555
H15 C20 1_555 1_555
H16 C20 1_555 1_555
C21 C5 1_555 1_555
H17 C21 1_555 1_555
C22 C8 1_555 1_555
H18 C22 1_555 1_555
C23 C1 1_555 1_555
H19 C23 1_555 1_555
C24 C4 1_555 1_555
H20 C24 1_555 1_555
C16 C17 1_555 1_555
C18 C19 1_555 1_555
C21 C22 1_555 1_555
C23 C24 1_555 1_555

#END
