
#######################################################################
#
#                 Cambridge Crystallographic Data Centre
#                                CCDC 
#
#######################################################################
#
# If this CIF has been generated from an entry in the Cambridge 
# Structural Database, then it will include bibliographic, chemical, 
# crystal, experimental, refinement or atomic coordinate data resulting 
# from the CCDC's data processing and validation procedures.
#
#######################################################################

data_UCIDUH
_chemical_formula_moiety         'C27 H23 Cl1 O4'
_chemical_name_systematic        
'Methyl 2-((4-chlorophenyl)(5-ethyl-2-oxo-3-phenyl-2,3-dihydro-1-benzofuran-3-yl)methyl)acrylate'
_symmetry_cell_setting           orthorhombic
_symmetry_space_group_name_H-M   'P 21 21 21'
_symmetry_Int_Tables_number      19
_space_group_name_Hall           'P 2ac 2ab'
loop_
_symmetry_equiv_pos_site_id
_symmetry_equiv_pos_as_xyz
1 x,y,z
2 1/2+x,1/2-y,-z
3 -x,1/2+y,1/2-z
4 1/2-x,-y,1/2+z
_cell_length_a                   10.3903(13)
_cell_length_b                   18.681(2)
_cell_length_c                   23.400(3)
_cell_angle_alpha                90
_cell_angle_beta                 90
_cell_angle_gamma                90
_cell_volume                     4541.97
_exptl_crystal_colour            colorless
_exptl_crystal_description       prism
_cell_formula_units_Z            8
loop_
_atom_site_label
_atom_site_type_symbol
_atom_site_fract_x
_atom_site_fract_y
_atom_site_fract_z
Cl1 Cl 0.39860(4) 0.54693(2) 0.606287(19)
O1 O -0.22411(10) 0.28046(5) 0.51188(4)
O2 O -0.17637(10) 0.25929(5) 0.41994(4)
O3 O -0.22691(10) 0.54345(6) 0.55315(5)
O4 O -0.13225(10) 0.59682(5) 0.47883(5)
C1 C -0.16168(14) 0.29366(7) 0.46978(6)
C2 C -0.05641(13) 0.34811(7) 0.46759(6)
C3 C -0.07969(12) 0.41614(7) 0.50232(6)
H1 H -0.1309 0.4008 0.5364
C4 C -0.16907(13) 0.47064(7) 0.46834(6)
C5 C -0.18252(14) 0.53794(8) 0.50653(7)
C6 C -0.08259(14) 0.57427(7) 0.42649(7)
C7 C -0.10391(13) 0.50213(7) 0.41639(6)
C8 C -0.05426(13) 0.47240(8) 0.36668(6)
H2 H -0.0698 0.4235 0.3581
C9 C 0.01870(14) 0.51439(8) 0.32916(7)
C10 C 0.03815(15) 0.58622(8) 0.34186(7)
H3 H 0.0882 0.6145 0.3165
C11 C -0.01342(15) 0.61806(8) 0.39063(7)
H4 H -0.0014 0.6675 0.3987
C12 C 0.05164(15) 0.33077(8) 0.44100(7)
H5 H 0.0605 0.2848 0.4240
H6 H 0.1203 0.3643 0.4389
C13 C 0.04189(13) 0.45042(7) 0.52609(6)
C14 C 0.13610(13) 0.48346(7) 0.49251(7)
H7 H 0.1256 0.4852 0.4522
C15 C 0.24464(14) 0.51371(7) 0.51715(7)
H8 H 0.3076 0.5364 0.4940
C16 C 0.26024(14) 0.51053(7) 0.57548(7)
C17 C 0.16964(14) 0.47816(7) 0.61032(7)
H9 H 0.1818 0.4760 0.6505
C18 C 0.06077(14) 0.44899(7) 0.58520(6)
H10 H -0.0027 0.4274 0.6088
C19 C -0.30249(13) 0.43680(7) 0.45843(6)
C20 C -0.34282(13) 0.41735(7) 0.40411(7)
H11 H -0.2895 0.4268 0.3720
C21 C -0.46183(14) 0.38383(8) 0.39658(7)
H12 H -0.4891 0.3706 0.3593
C22 C -0.54021(15) 0.36986(8) 0.44309(8)
H13 H -0.6207 0.3466 0.4380
C23 C -0.50039(14) 0.39007(8) 0.49681(7)
H14 H -0.5544 0.3812 0.5288
C24 C -0.38251(14) 0.42320(8) 0.50486(7)
H15 H -0.3562 0.4367 0.5422
C25 C -0.27550(15) 0.20558(8) 0.41919(7)
H16 H -0.2560 0.1687 0.4477
H17 H -0.2795 0.1837 0.3812
H18 H -0.3586 0.2278 0.4282
C26 C 0.08203(17) 0.48017(10) 0.27812(7)
H19 H 0.1146 0.5180 0.2523
H20 H 0.0175 0.4517 0.2569
C27 C 0.19325(17) 0.43172(11) 0.29591(9)
H21 H 0.2567 0.4597 0.3174
H22 H 0.2340 0.4115 0.2618
H23 H 0.1605 0.3928 0.3200
Cl2 Cl 0.95914(4) 0.62060(2) 0.162791(19)
O5 O 0.32959(12) 0.88891(6) 0.22986(5)
O6 O 0.39274(12) 0.93449(6) 0.31403(5)
O7 O 0.34207(11) 0.62184(6) 0.21949(5)
O8 O 0.40461(10) 0.58565(5) 0.30596(5)
C28 C 0.39804(16) 0.88725(8) 0.27131(7)
C29 C 0.49917(14) 0.83146(7) 0.28154(6)
C30 C 0.47407(14) 0.75887(7) 0.25406(6)
H24 H 0.4219 0.7688 0.2190
C31 C 0.38514(14) 0.71241(7) 0.29420(6)
C32 C 0.37344(14) 0.63729(8) 0.26714(7)
C33 C 0.44687(14) 0.61939(8) 0.35602(7)
C34 C 0.44052(13) 0.69338(8) 0.35197(6)
C35 C 0.48404(15) 0.73360(9) 0.39779(6)
H25 H 0.4792 0.7844 0.3965
C36 C 0.53506(16) 0.69973(10) 0.44598(7)
C37 C 0.53733(16) 0.62497(11) 0.44786(8)
H26 H 0.5706 0.6018 0.4808
C38 C 0.49234(15) 0.58378(9) 0.40289(8)
H27 H 0.4930 0.5330 0.4045
C39 C 0.60338(15) 0.84839(8) 0.31075(7)
H28 H 0.6139 0.8956 0.3251
H29 H 0.6679 0.8134 0.3174
C40 C 0.59590(14) 0.72152(7) 0.23320(6)
C41 C 0.62193(14) 0.72175(8) 0.17474(6)
H30 H 0.5619 0.7433 0.1494
C42 C 0.73312(14) 0.69141(8) 0.15269(6)
H31 H 0.7500 0.6926 0.1128
C43 C 0.81863(14) 0.65956(8) 0.18984(7)
C44 C 0.79559(14) 0.65705(8) 0.24767(7)
H32 H 0.8550 0.6342 0.2726
C45 C 0.68430(14) 0.68836(8) 0.26936(6)
H33 H 0.6684 0.6871 0.3093
C46 C 0.24917(14) 0.74627(7) 0.29705(6)
C47 C 0.17252(15) 0.74808(8) 0.24857(7)
H34 H 0.2025 0.7270 0.2141
C48 C 0.05237(15) 0.78047(9) 0.24993(8)
H35 H 0.0008 0.7814 0.2164
C49 C 0.00774(16) 0.81114(9) 0.29921(8)
H36 H -0.0744 0.8335 0.2999
C50 C 0.08246(19) 0.80938(10) 0.34754(8)
H37 H 0.0518 0.8304 0.3819
C51 C 0.20317(16) 0.77686(9) 0.34649(7)
H38 H 0.2541 0.7758 0.3802
C52 C 0.2996(2) 0.99123(11) 0.30655(10)
H39 H 0.3262 1.0220 0.2747
H40 H 0.2945 1.0197 0.3416
H41 H 0.2151 0.9704 0.2982
C53 C 0.58815(19) 0.74369(14) 0.49456(8)
H42 H 0.5223 0.7791 0.5063
H43 H 0.6042 0.7117 0.5275
C54 C 0.7084(2) 0.78212(12) 0.48085(10)
H44 H 0.7707 0.7485 0.4644
H45 H 0.7441 0.8031 0.5158
H46 H 0.6902 0.8202 0.4532
loop_
_geom_bond_atom_site_label_1
_geom_bond_atom_site_label_2
_geom_bond_site_symmetry_1
_geom_bond_site_symmetry_2
Cl1 C16 1_555 1_555
Cl2 C43 1_555 1_555
O1 C1 1_555 1_555
O2 C1 1_555 1_555
O3 C5 1_555 1_555
O4 C5 1_555 1_555
O5 C28 1_555 1_555
O6 C28 1_555 1_555
O7 C32 1_555 1_555
O8 C32 1_555 1_555
C1 C2 1_555 1_555
C2 C3 1_555 1_555
C3 H1 1_555 1_555
C4 C3 1_555 1_555
C5 C4 1_555 1_555
C6 O4 1_555 1_555
C7 C4 1_555 1_555
C8 C7 1_555 1_555
H2 C8 1_555 1_555
C9 C8 1_555 1_555
C10 C9 1_555 1_555
H3 C10 1_555 1_555
C11 C6 1_555 1_555
H4 C11 1_555 1_555
C12 C2 1_555 1_555
H5 C12 1_555 1_555
H6 C12 1_555 1_555
C13 C3 1_555 1_555
C14 C13 1_555 1_555
H7 C14 1_555 1_555
C15 C14 1_555 1_555
H8 C15 1_555 1_555
C16 C15 1_555 1_555
C17 C16 1_555 1_555
H9 C17 1_555 1_555
C18 C13 1_555 1_555
H10 C18 1_555 1_555
C19 C4 1_555 1_555
C20 C19 1_555 1_555
H11 C20 1_555 1_555
C21 C20 1_555 1_555
H12 C21 1_555 1_555
C22 C21 1_555 1_555
H13 C22 1_555 1_555
C23 C22 1_555 1_555
H14 C23 1_555 1_555
C24 C19 1_555 1_555
H15 C24 1_555 1_555
C25 O2 1_555 1_555
H16 C25 1_555 1_555
H17 C25 1_555 1_555
H18 C25 1_555 1_555
C26 C9 1_555 1_555
H19 C26 1_555 1_555
H20 C26 1_555 1_555
C27 C26 1_555 1_555
H21 C27 1_555 1_555
H22 C27 1_555 1_555
H23 C27 1_555 1_555
C28 C29 1_555 1_555
C29 C30 1_555 1_555
C30 H24 1_555 1_555
C31 C30 1_555 1_555
C32 C31 1_555 1_555
C33 O8 1_555 1_555
C34 C31 1_555 1_555
C35 C34 1_555 1_555
H25 C35 1_555 1_555
C36 C35 1_555 1_555
C37 C36 1_555 1_555
H26 C37 1_555 1_555
C38 C33 1_555 1_555
H27 C38 1_555 1_555
C39 C29 1_555 1_555
H28 C39 1_555 1_555
H29 C39 1_555 1_555
C40 C30 1_555 1_555
C41 C40 1_555 1_555
H30 C41 1_555 1_555
C42 C41 1_555 1_555
H31 C42 1_555 1_555
C43 C42 1_555 1_555
C44 C43 1_555 1_555
H32 C44 1_555 1_555
C45 C40 1_555 1_555
H33 C45 1_555 1_555
C46 C31 1_555 1_555
C47 C46 1_555 1_555
H34 C47 1_555 1_555
C48 C47 1_555 1_555
H35 C48 1_555 1_555
C49 C48 1_555 1_555
H36 C49 1_555 1_555
C50 C49 1_555 1_555
H37 C50 1_555 1_555
C51 C46 1_555 1_555
H38 C51 1_555 1_555
C52 O6 1_555 1_555
H39 C52 1_555 1_555
H40 C52 1_555 1_555
H41 C52 1_555 1_555
C53 C36 1_555 1_555
H42 C53 1_555 1_555
H43 C53 1_555 1_555
C54 C53 1_555 1_555
H44 C54 1_555 1_555
H45 C54 1_555 1_555
H46 C54 1_555 1_555
C6 C7 1_555 1_555
C10 C11 1_555 1_555
C17 C18 1_555 1_555
C23 C24 1_555 1_555
C33 C34 1_555 1_555
C37 C38 1_555 1_555
C44 C45 1_555 1_555
C50 C51 1_555 1_555

#END
