
#######################################################################
#
#                 Cambridge Crystallographic Data Centre
#                                CCDC 
#
#######################################################################
#
# If this CIF has been generated from an entry in the Cambridge 
# Structural Database, then it will include bibliographic, chemical, 
# crystal, experimental, refinement or atomic coordinate data resulting 
# from the CCDC's data processing and validation procedures.
#
#######################################################################

data_UCIHIZ
_chemical_formula_moiety         'C13 H11 N3 O2'
_chemical_name_systematic        
3-((1,2-Dimethyl-5-oxo-1,5-dihydro-4H-imidazol-4-ylidene)methyl)-4-hydroxybenzonitrile
_symmetry_cell_setting           monoclinic
_symmetry_space_group_name_H-M   'C 2/c'
_symmetry_Int_Tables_number      15
_space_group_name_Hall           '-C 2yn'
loop_
_symmetry_equiv_pos_site_id
_symmetry_equiv_pos_as_xyz
1 x,y,z
2 -x,y,1/2-z
3 1/2+x,1/2+y,z
4 1/2-x,1/2+y,1/2-z
5 -x,-y,-z
6 x,-y,1/2+z
7 1/2-x,1/2-y,-z
8 1/2+x,1/2-y,1/2+z
_cell_length_a                   24.9655(10)
_cell_length_b                   3.83490(10)
_cell_length_c                   26.7584(10)
_cell_angle_alpha                90
_cell_angle_beta                 115.488(5)
_cell_angle_gamma                90
_cell_volume                     2312.52
_exptl_crystal_colour            colorless
_exptl_crystal_description       prism
_cell_formula_units_Z            8
loop_
_atom_site_label
_atom_site_type_symbol
_atom_site_fract_x
_atom_site_fract_y
_atom_site_fract_z
O1 O 0.41612(5) 0.5235(4) 0.49910(5)
O2 O 0.56473(6) 0.0638(3) 0.71292(5)
H1 H 0.5299 0.0855 0.6907
N1 N 0.38975(6) 0.5881(4) 0.57176(6)
N2 N 0.46849(6) 0.3562(4) 0.64190(6)
N3 N 0.74916(8) -0.3544(5) 0.59904(8)
C1 C 0.41673(8) 0.5046(5) 0.62728(8)
C2 C 0.42684(8) 0.4890(5) 0.54770(8)
C3 C 0.47832(7) 0.3369(5) 0.59435(7)
C4 C 0.33058(8) 0.7365(5) 0.54035(8)
H2 H 0.3244 0.9241 0.5610
H3 H 0.3012 0.5594 0.5339
H4 H 0.3274 0.8233 0.5055
C5 C 0.38931(9) 0.5833(5) 0.66510(8)
H5 H 0.3499 0.4879 0.6503
H6 H 0.3874 0.8314 0.6689
H7 H 0.4127 0.4818 0.7007
C6 C 0.52658(8) 0.2123(5) 0.58951(7)
H8 H 0.5242 0.2299 0.5539
C7 C 0.58150(7) 0.0561(4) 0.62927(7)
C8 C 0.59742(8) -0.0138(5) 0.68578(8)
C9 C 0.65172(8) -0.1766(5) 0.71763(8)
H9 H 0.6619 -0.2264 0.7546
C10 C 0.69024(8) -0.2644(5) 0.69540(8)
H10 H 0.7262 -0.3715 0.7173
C11 C 0.67552(8) -0.1933(5) 0.64034(8)
C12 C 0.62173(8) -0.0365(5) 0.60796(8)
H11 H 0.6121 0.0087 0.5709
C13 C 0.71618(8) -0.2836(5) 0.61677(8)
loop_
_geom_bond_atom_site_label_1
_geom_bond_atom_site_label_2
_geom_bond_site_symmetry_1
_geom_bond_site_symmetry_2
O1 C2 1_555 1_555
O2 H1 1_555 1_555
N1 C1 1_555 1_555
N2 C1 1_555 1_555
N3 C13 1_555 1_555
C1 C5 1_555 1_555
C2 N1 1_555 1_555
C3 N2 1_555 1_555
C4 N1 1_555 1_555
H2 C4 1_555 1_555
H3 C4 1_555 1_555
H4 C4 1_555 1_555
C5 H5 1_555 1_555
H6 C5 1_555 1_555
H7 C5 1_555 1_555
C6 C3 1_555 1_555
H8 C6 1_555 1_555
C7 C6 1_555 1_555
C8 O2 1_555 1_555
C9 C8 1_555 1_555
H9 C9 1_555 1_555
C10 C9 1_555 1_555
H10 C10 1_555 1_555
C11 C10 1_555 1_555
C12 C7 1_555 1_555
H11 C12 1_555 1_555
C13 C11 1_555 1_555
C2 C3 1_555 1_555
C7 C8 1_555 1_555
C11 C12 1_555 1_555

#END
