
#######################################################################
#
#                 Cambridge Crystallographic Data Centre
#                                CCDC 
#
#######################################################################
#
# If this CIF has been generated from an entry in the Cambridge 
# Structural Database, then it will include bibliographic, chemical, 
# crystal, experimental, refinement or atomic coordinate data resulting 
# from the CCDC's data processing and validation procedures.
#
#######################################################################

data_UCIJEX
_chemical_formula_moiety         'C26 H38 N6 O8,0.5(H2 O1)'
_chemical_name_systematic        
'6,19-Dibutyl-3,9,16,22-tetraoxa-6,12,13,19,25,26-hexaazatricyclo[22.2.1.1^11,14^]octacosa-1(27),11,14(28),24-tetraene-2,10,15,23-tetrone hemihydrate'
_symmetry_cell_setting           monoclinic
_symmetry_space_group_name_H-M   'C 2/c'
_symmetry_Int_Tables_number      15
_space_group_name_Hall           '-C 2yn'
loop_
_symmetry_equiv_pos_site_id
_symmetry_equiv_pos_as_xyz
1 x,y,z
2 -x,y,1/2-z
3 1/2+x,1/2+y,z
4 1/2-x,1/2+y,1/2-z
5 -x,-y,-z
6 x,-y,1/2+z
7 1/2-x,1/2-y,-z
8 1/2+x,1/2-y,1/2+z
_cell_length_a                   15.8510(3)
_cell_length_b                   31.3650(10)
_cell_length_c                   13.6220(4)
_cell_angle_alpha                90
_cell_angle_beta                 119.4050(10)
_cell_angle_gamma                90
_cell_volume                     5899.92
_cell_formula_units_Z            8
loop_
_atom_site_label
_atom_site_type_symbol
_atom_site_fract_x
_atom_site_fract_y
_atom_site_fract_z
O1 O 0.15071(11) 0.36793(6) 0.11330(14)
O3 O 0.21428(10) 0.32873(5) 0.02651(12)
O5 O 0.53781(14) 0.25129(6) 0.40544(16)
O7 O 0.58252(12) 0.30390(6) 0.53225(14)
N1 N 0.33363(13) 0.36024(7) 0.31486(15)
H2 H 0.3016 0.3817 0.3186
N3 N 0.41472(13) 0.34581(7) 0.40215(15)
N5 N 0.21848(13) 0.33762(7) -0.19069(15)
C1 C 0.30685(15) 0.33755(8) 0.21960(18)
C3 C 0.37475(16) 0.30595(8) 0.24647(19)
H4 H 0.3769 0.2851 0.1993
C5 C 0.43981(15) 0.31232(7) 0.36067(18)
C7 C 0.21601(16) 0.34717(8) 0.11620(18)
C9 C 0.13021(15) 0.33900(8) -0.08040(17)
H6 H 0.1248 0.3696 -0.0918
H7 H 0.0718 0.3287 -0.0822
C11 C 0.14355(16) 0.31762(9) -0.17067(19)
H10 H 0.1609 0.2880 -0.1498
H11 H 0.0823 0.3180 -0.2405
C13 C 0.27407(17) 0.30463(9) -0.2114(2)
H14 H 0.3141 0.3184 -0.2377
H15 H 0.2290 0.2861 -0.2713
C15 C 0.52389(16) 0.28575(8) 0.4330(2)
C17 C 0.33779(18) 0.27779(9) -0.1107(2)
H18 H 0.3013 0.2674 -0.0756
H19 H 0.3619 0.2535 -0.1334
C19 C 0.17370(17) 0.36570(9) -0.2910(2)
H22 H 0.1351 0.3481 -0.3567
H23 H 0.2251 0.3782 -0.3007
C21 C 0.11026(17) 0.40139(9) -0.2893(2)
H26 H 0.1495 0.4210 -0.2287
H27 H 0.0612 0.3896 -0.2743
C23 C 0.0611(2) 0.42576(10) -0.4002(2)
H30 H 0.1101 0.4404 -0.4104
H31 H 0.0289 0.4056 -0.4616
C25 C -0.0126(2) 0.45810(11) -0.4063(3)
H32 H -0.0624 0.4437 -0.3982
H33 H -0.0410 0.4724 -0.4777
H34 H 0.0189 0.4786 -0.3468
O1A O 0.84929(11) 0.36793(6) 0.38670(14)
O3A O 0.78572(10) 0.32873(5) 0.47349(12)
O5A O 0.46219(14) 0.25129(6) 0.09456(16)
O7A O 0.41748(12) 0.30390(6) -0.03225(14)
N1A N 0.66637(13) 0.36024(7) 0.18514(15)
H2A H 0.6984 0.3817 0.1814
N3A N 0.58528(13) 0.34581(7) 0.09785(15)
N5A N 0.78152(13) 0.33762(7) 0.69069(15)
C1A C 0.69315(15) 0.33755(8) 0.28040(18)
C3A C 0.62525(16) 0.30595(8) 0.25353(19)
H4A H 0.6231 0.2851 0.3007
C5A C 0.56019(15) 0.31232(7) 0.13933(18)
C7A C 0.78399(16) 0.34717(8) 0.38380(18)
C9A C 0.86979(15) 0.33900(8) 0.58040(17)
H6A H 0.8752 0.3696 0.5918
H7A H 0.9282 0.3287 0.5822
C11A C 0.85645(16) 0.31762(9) 0.67067(19)
H10A H 0.8391 0.2880 0.6498
H11A H 0.9177 0.3180 0.7405
C13A C 0.72593(17) 0.30463(9) 0.7114(2)
H14A H 0.6859 0.3184 0.7377
H15A H 0.7710 0.2861 0.7713
C15A C 0.47611(16) 0.28575(8) 0.0670(2)
C17A C 0.66221(18) 0.27779(9) 0.6107(2)
H18A H 0.6987 0.2674 0.5756
H19A H 0.6381 0.2535 0.6334
C19A C 0.82630(17) 0.36570(9) 0.7910(2)
H22A H 0.8649 0.3481 0.8567
H23A H 0.7749 0.3782 0.8007
C21A C 0.88974(17) 0.40139(9) 0.7893(2)
H26A H 0.8505 0.4210 0.7287
H27A H 0.9388 0.3896 0.7743
C23A C 0.9389(2) 0.42576(10) 0.9002(2)
H30A H 0.8899 0.4404 0.9104
H31A H 0.9711 0.4056 0.9616
C25A C 1.0126(2) 0.45810(11) 0.9063(3)
H32A H 1.0624 0.4437 0.8982
H33A H 1.0410 0.4724 0.9777
H34A H 0.9811 0.4786 0.8468
O2 O -0.06777(12) 0.10951(6) 0.34995(14)
O4 O 0.05521(11) 0.06982(6) 0.47933(13)
O6 O -0.12092(17) -0.00633(6) 0.72022(16)
O8 O -0.22348(14) 0.04550(6) 0.70578(16)
N2 N -0.16377(14) 0.09781(7) 0.47707(17)
H3 H -0.1876 0.1186 0.4302
N4 N -0.20083(14) 0.08419(7) 0.54036(17)
N6 N 0.26978(14) 0.08187(8) 0.61964(16)
C2 C -0.08443(16) 0.07549(8) 0.49401(19)
C4 C -0.06945(18) 0.04512(8) 0.5734(2)
H5 H -0.0208 0.0247 0.6032
C6 C -0.14369(17) 0.05172(8) 0.59970(19)
C8 C -0.03359(16) 0.08716(8) 0.43205(19)
C10 C 0.11512(17) 0.08436(10) 0.4322(2)
H8 H 0.1195 0.1152 0.4347
H9 H 0.0875 0.0753 0.3544
C12 C 0.21450(18) 0.06482(10) 0.5029(2)
H12 H 0.2071 0.0343 0.5069
H13 H 0.2521 0.0695 0.4652
C14 C 0.3162(2) 0.04705(11) 0.7004(2)
H16 H 0.3652 0.0589 0.7714
H17 H 0.3486 0.0284 0.6725
C16 C -0.16052(19) 0.02695(8) 0.6806(2)
C18 C 0.2470(2) 0.02125(10) 0.7207(2)
H20 H 0.1888 0.0154 0.6499
H21 H 0.2763 -0.0057 0.7556
C20 C 0.3440(2) 0.11332(12) 0.6310(3)
H24 H 0.3887 0.0994 0.6119
H25 H 0.3806 0.1220 0.7093
C22 C 0.3047(3) 0.15278(13) 0.5589(3)
H28 H 0.2534 0.1650 0.5693
H29 H 0.2777 0.1452 0.4801
C24 C 0.3872(4) 0.1861(2) 0.5923(5)
C26 C 0.3730(7) 0.2260(4) 0.5525(9)
H35 H 0.3478 0.2253 0.4724
H36 H 0.4334 0.2411 0.5875
H37 H 0.3276 0.2401 0.5688
O2A O 0.06777(12) 0.10951(6) 1.15005(14)
O4A O -0.05521(11) 0.06982(6) 1.02067(13)
O6A O 0.12092(17) -0.00633(6) 0.77978(16)
O8A O 0.22348(14) 0.04550(6) 0.79422(16)
N2A N 0.16377(14) 0.09781(7) 1.02293(17)
H3A H 0.1876 0.1186 1.0698
N4A N 0.20083(14) 0.08419(7) 0.95964(17)
N6A N -0.26978(14) 0.08187(8) 0.88036(16)
C2A C 0.08443(16) 0.07549(8) 1.00599(19)
C4A C 0.06945(18) 0.04512(8) 0.9266(2)
H5A H 0.0208 0.0247 0.8968
C6A C 0.14369(17) 0.05172(8) 0.90030(19)
C8A C 0.03359(16) 0.08716(8) 1.06795(19)
C10A C -0.11512(17) 0.08436(10) 1.0678(2)
H8A H -0.1195 0.1152 1.0653
H9A H -0.0875 0.0753 1.1456
C12A C -0.21450(18) 0.06482(10) 0.9971(2)
H12A H -0.2071 0.0343 0.9931
H13A H -0.2521 0.0695 1.0348
C14A C -0.3162(2) 0.04705(11) 0.7996(2)
H16A H -0.3652 0.0589 0.7286
H17A H -0.3486 0.0284 0.8275
C16A C 0.16052(19) 0.02695(8) 0.8194(2)
C18A C -0.2470(2) 0.02125(10) 0.7793(2)
H20A H -0.1888 0.0154 0.8501
H21A H -0.2763 -0.0057 0.7444
C20A C -0.3440(2) 0.11332(12) 0.8690(3)
H24A H -0.3887 0.0994 0.8881
H25A H -0.3806 0.1220 0.7907
C22A C -0.3047(3) 0.15278(13) 0.9411(3)
H28A H -0.2534 0.1650 0.9307
H29A H -0.2777 0.1452 1.0199
C24A C -0.3872(4) 0.1861(2) 0.9077(5)
C26A C -0.3730(7) 0.2260(4) 0.9475(9)
H35A H -0.3478 0.2253 1.0276
H36A H -0.4334 0.2411 0.9125
H37A H -0.3276 0.2401 0.9312
O9 O 0.0000 0.1809(2) 0.2500
H1 H 0.025(6) 0.168(2) 0.216(7)
H1A H -0.025(6) 0.168(2) 0.284(7)
C27? C 0.3638(8) 0.2172(4) 0.6628(9)
H38? H 0.3991 0.2432 0.6735
H39? H 0.3822 0.2046 0.7348
H40? H 0.2956 0.2231 0.6243
loop_
_geom_bond_atom_site_label_1
_geom_bond_atom_site_label_2
_geom_bond_site_symmetry_1
_geom_bond_site_symmetry_2
O1 C7 1_555 1_555
O2 C8 1_555 1_555
O3 C7 1_555 1_555
O4 C8 1_555 1_555
O5 C15 1_555 1_555
O6 C16 1_555 1_555
O7 C15 1_555 1_555
O8 C16 1_555 1_555
O9 H1 1_555 1_555
N1 H2 1_555 1_555
N2 H3 1_555 1_555
N3 N1 1_555 1_555
N4 N2 1_555 1_555
N5 C11 1_555 1_555
N6 C12 1_555 1_555
C1 N1 1_555 1_555
C2 N2 1_555 1_555
C3 C1 1_555 1_555
H4 C3 1_555 1_555
C4 C2 1_555 1_555
H5 C4 1_555 1_555
C5 N3 1_555 1_555
C6 N4 1_555 1_555
C7 C1 1_555 1_555
C8 C2 1_555 1_555
C9 O3 1_555 1_555
H6 C9 1_555 1_555
H7 C9 1_555 1_555
C10 O4 1_555 1_555
H8 C10 1_555 1_555
H9 C10 1_555 1_555
C11 C9 1_555 1_555
H10 C11 1_555 1_555
H11 C11 1_555 1_555
C12 C10 1_555 1_555
H12 C12 1_555 1_555
H13 C12 1_555 1_555
C13 N5 1_555 1_555
H14 C13 1_555 1_555
H15 C13 1_555 1_555
C14 N6 1_555 1_555
H16 C14 1_555 1_555
H17 C14 1_555 1_555
C15 C5 1_555 1_555
C16 C6 1_555 1_555
C17 C13 1_555 1_555
H18 C17 1_555 1_555
H19 C17 1_555 1_555
C18 C14 1_555 1_555
H20 C18 1_555 1_555
H21 C18 1_555 1_555
C19 N5 1_555 1_555
H22 C19 1_555 1_555
H23 C19 1_555 1_555
C20 N6 1_555 1_555
H24 C20 1_555 1_555
H25 C20 1_555 1_555
C21 C19 1_555 1_555
H26 C21 1_555 1_555
H27 C21 1_555 1_555
C22 C20 1_555 1_555
H28 C22 1_555 1_555
H29 C22 1_555 1_555
C23 C21 1_555 1_555
H30 C23 1_555 1_555
H31 C23 1_555 1_555
C24 C22 1_555 1_555
C25 C23 1_555 1_555
H32 C25 1_555 1_555
H33 C25 1_555 1_555
H34 C25 1_555 1_555
C26 C24 1_555 1_555
H35 C26 1_555 1_555
H36 C26 1_555 1_555
H37 C26 1_555 1_555
O1A C7A 1_555 1_555
O2A C8A 1_555 1_555
O3A C7A 1_555 1_555
O4A C8A 1_555 1_555
O5A C15A 1_555 1_555
O6A C16A 1_555 1_555
O7A C17 1_555 1_555
O8A C18 1_555 1_555
H1A O9 1_555 1_555
N1A H2A 1_555 1_555
N2A H3A 1_555 1_555
N3A N1A 1_555 1_555
N4A N2A 1_555 1_555
N5A C11A 1_555 1_555
N6A C12A 1_555 1_555
C1A N1A 1_555 1_555
C2A N2A 1_555 1_555
C3A C1A 1_555 1_555
H4A C3A 1_555 1_555
C4A C2A 1_555 1_555
H5A C4A 1_555 1_555
C5A N3A 1_555 1_555
C6A N4A 1_555 1_555
C7A C1A 1_555 1_555
C8A C2A 1_555 1_555
C9A O3A 1_555 1_555
H6A C9A 1_555 1_555
H7A C9A 1_555 1_555
C10A O4A 1_555 1_555
H8A C10A 1_555 1_555
H9A C10A 1_555 1_555
C11A C9A 1_555 1_555
H10A C11A 1_555 1_555
H11A C11A 1_555 1_555
C12A C10A 1_555 1_555
H12A C12A 1_555 1_555
H13A C12A 1_555 1_555
C13A N5A 1_555 1_555
H14A C13A 1_555 1_555
H15A C13A 1_555 1_555
C14A N6A 1_555 1_555
H16A C14A 1_555 1_555
H17A C14A 1_555 1_555
C15A O7A 1_555 1_555
C16A O8A 1_555 1_555
C17A O7 1_555 1_555
H18A C17A 1_555 1_555
H19A C17A 1_555 1_555
C18A O8 1_555 1_555
H20A C18A 1_555 1_555
H21A C18A 1_555 1_555
C19A N5A 1_555 1_555
H22A C19A 1_555 1_555
H23A C19A 1_555 1_555
C20A N6A 1_555 1_555
H24A C20A 1_555 1_555
H25A C20A 1_555 1_555
C21A C19A 1_555 1_555
H26A C21A 1_555 1_555
H27A C21A 1_555 1_555
C22A C20A 1_555 1_555
H28A C22A 1_555 1_555
H29A C22A 1_555 1_555
C23A C21A 1_555 1_555
H30A C23A 1_555 1_555
H31A C23A 1_555 1_555
C24A C22A 1_555 1_555
C25A C23A 1_555 1_555
H32A C25A 1_555 1_555
H33A C25A 1_555 1_555
H34A C25A 1_555 1_555
C26A C24A 1_555 1_555
H35A C26A 1_555 1_555
H36A C26A 1_555 1_555
H37A C26A 1_555 1_555
C3 C5 1_555 1_555
C4 C6 1_555 1_555
C3A C5A 1_555 1_555
C4A C6A 1_555 1_555
C5A C15A 1_555 1_555
C6A C16A 1_555 1_555
C13A C17A 1_555 1_555
C14A C18A 1_555 1_555

#END
