
#######################################################################
#
#                 Cambridge Crystallographic Data Centre
#                                CCDC 
#
#######################################################################
#
# If this CIF has been generated from an entry in the Cambridge 
# Structural Database, then it will include bibliographic, chemical, 
# crystal, experimental, refinement or atomic coordinate data resulting 
# from the CCDC's data processing and validation procedures.
#
#######################################################################

data_UCIJAT
_chemical_formula_moiety         'C20 H26 N6 O8,C2 H3 N1'
_chemical_name_systematic        
'6,19-dimethyl-3,9,16,22-tetraoxa-6,12,13,19,25,26-hexaazatricyclo[22.2.1.1^11,14^]octacosa-1(27),11,14(28),24-tetraene-2,10,15,23-tetrone acetonitrile solvate'
_symmetry_cell_setting           tetragonal
_symmetry_space_group_name_H-M   'I 41/a'
_symmetry_Int_Tables_number      88
_space_group_name_Hall           '-I 4ad'
loop_
_symmetry_equiv_pos_site_id
_symmetry_equiv_pos_as_xyz
1 x,y,z
2 -x,1/2-y,z
3 3/4-y,1/4+x,1/4+z
4 1/4+y,1/4-x,1/4+z
5 1/2+x,1/2+y,1/2+z
6 1/2-x,-y,1/2+z
7 1/4-y,3/4+x,3/4+z
8 3/4+y,3/4-x,3/4+z
9 -x,-y,-z
10 x,1/2+y,-z
11 1/4+y,3/4-x,3/4-z
12 3/4-y,3/4+x,3/4-z
13 1/2-x,1/2-y,1/2-z
14 1/2+x,y,1/2-z
15 3/4+y,1/4-x,1/4-z
16 1/4-y,1/4+x,1/4-z
_cell_length_a                   13.1070(2)
_cell_length_b                   13.1070(2)
_cell_length_c                   30.3510(7)
_cell_angle_alpha                90
_cell_angle_beta                 90
_cell_angle_gamma                90
_cell_volume                     5214.1
_exptl_crystal_colour            colorless
_cell_formula_units_Z            8
loop_
_atom_site_label
_atom_site_type_symbol
_atom_site_fract_x
_atom_site_fract_y
_atom_site_fract_z
O1 O 0.41827(16) 1.11314(16) 0.11062(7)
O2 O 0.55092(15) 1.05304(15) 0.07116(7)
O3 O 0.36799(18) 0.68798(17) -0.00410(7)
O4 O 0.75206(18) 0.84397(16) 0.04639(8)
N1 N 0.3240(2) 0.9209(2) 0.10179(9)
H1 H 0.296(3) 0.959(3) 0.1229(12)
N2 N 0.2845(2) 0.83335(19) 0.08797(9)
N3 N 0.77581(19) 1.05282(18) 0.08489(9)
C1 C 0.4065(2) 0.9499(2) 0.07831(10)
C2 C 0.4218(2) 0.8758(2) 0.04679(9)
H2 H 0.4727 0.8734 0.0255
C3 C 0.3437(2) 0.8048(2) 0.05395(9)
C4 C 0.4572(2) 1.0474(2) 0.08878(10)
C5 C 0.6088(2) 1.1429(2) 0.08326(12)
H3 H 0.6128 1.1475 0.1148
H4 H 0.5746 1.2020 0.0719
C6 C 0.7136(2) 1.1327(2) 0.06401(11)
H5 H 0.7049 1.1163 0.0334
H6 H 0.7478 1.1972 0.0666
C7 C 0.8380(3) 1.0969(3) 0.12077(14)
H7 H 0.8778 1.0445 0.1346
H8 H 0.8825 1.1482 0.1090
H9 H 0.7931 1.1272 0.1421
C8 C 0.8407(2) 1.0018(2) 0.05295(12)
H10 H 0.8888 0.9597 0.0684
H11 H 0.8768 1.0522 0.0361
C9 C 0.7832(3) 0.9336(2) 0.02188(12)
H12 H 0.8260 0.9150 -0.0025
H13 H 0.7248 0.9704 0.0112
C10 C 0.3230(2) 0.7114(2) 0.02877(10)
O1A O 0.58173(16) 0.38686(16) 0.11062(7)
O2A O 0.44908(15) 0.44696(15) 0.07116(7)
O3A O 0.63201(18) 0.81202(17) -0.00410(7)
O4A O 0.24794(18) 0.65603(16) 0.04639(8)
N1A N 0.6760(2) 0.5791(2) 0.10179(9)
H1A H 0.704(3) 0.541(3) 0.1229(12)
N2A N 0.7155(2) 0.66665(19) 0.08797(9)
N3A N 0.22419(19) 0.44718(18) 0.08489(9)
C1A C 0.5935(2) 0.5501(2) 0.07831(10)
C2A C 0.5782(2) 0.6242(2) 0.04679(9)
H2A H 0.5273 0.6266 0.0255
C3A C 0.6563(2) 0.6952(2) 0.05395(9)
C4A C 0.5428(2) 0.4526(2) 0.08878(10)
C5A C 0.3912(2) 0.3571(2) 0.08326(12)
H3A H 0.3872 0.3525 0.1148
H4A H 0.4254 0.2980 0.0719
C6A C 0.2864(2) 0.3673(2) 0.06401(11)
H5A H 0.2951 0.3837 0.0334
H6A H 0.2522 0.3028 0.0666
C7A C 0.1620(3) 0.4031(3) 0.12077(14)
H7A H 0.1222 0.4555 0.1346
H8A H 0.1175 0.3518 0.1090
H9A H 0.2069 0.3728 0.1421
C8A C 0.1593(2) 0.4982(2) 0.05295(12)
H10A H 0.1112 0.5403 0.0684
H11A H 0.1232 0.4478 0.0361
C9A C 0.2168(3) 0.5664(2) 0.02188(12)
H12A H 0.1740 0.5850 -0.0025
H13A H 0.2752 0.5296 0.0112
C10A C 0.6770(2) 0.7886(2) 0.02877(10)
N4? N 0.0000 0.7500 -0.03166(19)
C11? C 0.0079(3) 0.7607(3) 0.00607(19)
C12? C 0.0177(7) 0.7741(7) 0.05351(19)
H14? H -0.0489 0.7773 0.0666
H15? H 0.0539 0.8363 0.0595
H16? H 0.0547 0.7175 0.0657
loop_
_geom_bond_atom_site_label_1
_geom_bond_atom_site_label_2
_geom_bond_site_symmetry_1
_geom_bond_site_symmetry_2
O1 C4 1_555 1_555
O2 C4 1_555 1_555
O3 C10 1_555 1_555
O4 C9 1_555 1_555
N1 H1 1_555 1_555
N2 N1 1_555 1_555
N3 C6 1_555 1_555
C1 N1 1_555 1_555
C2 C1 1_555 1_555
H2 C2 1_555 1_555
C3 N2 1_555 1_555
C4 C1 1_555 1_555
C5 O2 1_555 1_555
H3 C5 1_555 1_555
H4 C5 1_555 1_555
C6 C5 1_555 1_555
H5 C6 1_555 1_555
H6 C6 1_555 1_555
C7 N3 1_555 1_555
H7 C7 1_555 1_555
H8 C7 1_555 1_555
H9 C7 1_555 1_555
C8 N3 1_555 1_555
H10 C8 1_555 1_555
H11 C8 1_555 1_555
C9 C8 1_555 1_555
H12 C9 1_555 1_555
H13 C9 1_555 1_555
C10 C3 1_555 1_555
O1A C4A 1_555 1_555
O2A C4A 1_555 1_555
O3A C10A 1_555 1_555
O4A C10 1_555 1_555
N1A H1A 1_555 1_555
N2A N1A 1_555 1_555
N3A C6A 1_555 1_555
C1A N1A 1_555 1_555
C2A C1A 1_555 1_555
H2A C2A 1_555 1_555
C3A N2A 1_555 1_555
C4A C1A 1_555 1_555
C5A O2A 1_555 1_555
H3A C5A 1_555 1_555
H4A C5A 1_555 1_555
C6A C5A 1_555 1_555
H5A C6A 1_555 1_555
H6A C6A 1_555 1_555
C7A N3A 1_555 1_555
H7A C7A 1_555 1_555
H8A C7A 1_555 1_555
H9A C7A 1_555 1_555
C8A N3A 1_555 1_555
H10A C8A 1_555 1_555
H11A C8A 1_555 1_555
C9A O4A 1_555 1_555
H12A C9A 1_555 1_555
H13A C9A 1_555 1_555
C10A O4 1_555 1_555
C2 C3 1_555 1_555
C2A C3A 1_555 1_555
C3A C10A 1_555 1_555
C8A C9A 1_555 1_555

#END
