
#######################################################################
#
#                 Cambridge Crystallographic Data Centre
#                                CCDC 
#
#######################################################################
#
# If this CIF has been generated from an entry in the Cambridge 
# Structural Database, then it will include bibliographic, chemical, 
# crystal, experimental, refinement or atomic coordinate data resulting 
# from the CCDC's data processing and validation procedures.
#
#######################################################################

data_UCIMUQ
_chemical_formula_moiety         'C28 H27 Cl1 O7'
_chemical_name_systematic        
'Dimethyl 2-(2-(4-chlorophenyl)vinyl)-2-hydroxy-3-((4-methoxybenzyl)oxy)-3-phenylsuccinate'
_symmetry_cell_setting           triclinic
_symmetry_space_group_name_H-M   'P -1'
_symmetry_Int_Tables_number      2
_space_group_name_Hall           '-P 1'
loop_
_symmetry_equiv_pos_site_id
_symmetry_equiv_pos_as_xyz
1 x,y,z
2 -x,-y,-z
_cell_length_a                   7.0490(3)
_cell_length_b                   10.2248(4)
_cell_length_c                   17.5540(7)
_cell_angle_alpha                96.5550(10)
_cell_angle_beta                 100.8540(10)
_cell_angle_gamma                98.8340(10)
_cell_volume                     1214.41
_exptl_crystal_colour            colorless
_exptl_crystal_description       block
_cell_formula_units_Z            2
loop_
_atom_site_label
_atom_site_type_symbol
_atom_site_fract_x
_atom_site_fract_y
_atom_site_fract_z
Cl1 Cl 0.18972(6) 0.87671(4) 0.39374(3)
O1 O -0.42995(15) 1.40787(10) 0.10564(6)
O2 O -0.74507(15) 1.38248(10) 0.11623(6)
O3 O -0.17315(13) 1.66632(10) 0.18676(6)
O4 O -0.05683(14) 1.51710(10) 0.25778(6)
O5 O -0.79414(16) 2.01339(11) -0.02056(7)
O6 O -0.66815(14) 1.39292(9) 0.26788(6)
H1 H -0.7447 1.4443 0.2525
O7 O -0.51296(13) 1.63873(8) 0.22388(5)
C1 C -0.57120(19) 1.77409(13) 0.09377(8)
H2 H -0.5287 1.6907 0.0862
C2 C -0.6532(2) 1.82802(14) 0.02870(9)
H3 H -0.6682 1.7810 -0.0226
C3 C -0.71298(19) 1.95068(14) 0.03903(9)
C4 C -0.6896(2) 2.01837(14) 0.11438(9)
H4 H -0.7281 2.1032 0.1219
C5 C -0.6105(2) 1.96257(13) 0.17825(9)
H5 H -0.5969 2.0092 0.2295
C6 C -0.55016(18) 1.83930(13) 0.16921(8)
C7 C -0.4659(2) 1.78272(13) 0.24086(8)
H6 H -0.3217 1.8124 0.2551
H7 H -0.5222 1.8148 0.2856
C8 C -0.38318(18) 1.56378(13) 0.26400(8)
C9 C -0.50188(19) 1.41468(13) 0.23487(8)
C10 C -0.3754(2) 1.31386(13) 0.25652(8)
H8 H -0.2938 1.2907 0.2216
C11 C -0.3670(2) 1.25430(13) 0.31980(8)
H9 H -0.4534 1.2711 0.3538
C12 C -0.2290(2) 1.16291(13) 0.33964(8)
C13 C -0.2638(2) 1.06842(14) 0.38904(8)
H10 H -0.3765 1.0651 0.4116
C14 C -0.1378(2) 0.97917(14) 0.40587(8)
H11 H -0.1639 0.9146 0.4392
C15 C 0.0262(2) 0.98610(14) 0.37329(8)
C16 C 0.0672(2) 1.08035(16) 0.32544(9)
H12 H 0.1816 1.0844 0.3040
C17 C -0.0592(2) 1.16832(15) 0.30918(9)
H13 H -0.0304 1.2338 0.2767
C18 C -0.5079(2) 1.63435(14) 0.38440(8)
H14 H -0.6279 1.6380 0.3501
C19 C -0.4901(2) 1.66499(15) 0.46464(9)
H15 H -0.5979 1.6888 0.4850
C20 C -0.3156(2) 1.66099(15) 0.51527(9)
H16 H -0.3028 1.6825 0.5703
C21 C -0.1609(2) 1.62561(15) 0.48512(9)
H17 H -0.0407 1.6232 0.5197
C22 C -0.1783(2) 1.59347(14) 0.40487(8)
H18 H -0.0707 1.5680 0.3851
C23 C -0.35196(19) 1.59822(13) 0.35320(8)
C24 C -0.18572(19) 1.57787(13) 0.23613(8)
C25 C 0.0131(2) 1.68880(18) 0.16312(10)
H19 H 0.0113 1.7549 0.1269
H20 H 0.0362 1.6045 0.1370
H21 H 0.1184 1.7222 0.2095
C26 C -0.5532(2) 1.40171(13) 0.14469(8)
C27 C -0.8018(3) 1.36845(18) 0.03148(9)
H22 H -0.9452 1.3547 0.0157
H23 H -0.7544 1.2914 0.0080
H24 H -0.7442 1.4498 0.0135
C28 C -0.8265(2) 1.94436(19) -0.09834(10)
H25 H -0.8847 1.9991 -0.1355
H26 H -0.9159 1.8590 -0.1030
H27 H -0.7011 1.9274 -0.1100
loop_
_geom_bond_atom_site_label_1
_geom_bond_atom_site_label_2
_geom_bond_site_symmetry_1
_geom_bond_site_symmetry_2
Cl1 C15 1_555 1_555
O1 C26 1_555 1_555
O2 C26 1_555 1_555
O3 C24 1_555 1_555
O4 C24 1_555 1_555
O5 C3 1_555 1_555
O6 H1 1_555 1_555
O7 C7 1_555 1_555
C1 H2 1_555 1_555
C2 C1 1_555 1_555
H3 C2 1_555 1_555
C3 C2 1_555 1_555
C4 C3 1_555 1_555
H4 C4 1_555 1_555
C5 C4 1_555 1_555
H5 C5 1_555 1_555
C6 C1 1_555 1_555
C7 C6 1_555 1_555
H6 C7 1_555 1_555
H7 C7 1_555 1_555
C8 O7 1_555 1_555
C9 O6 1_555 1_555
C10 C9 1_555 1_555
H8 C10 1_555 1_555
C11 C10 1_555 1_555
H9 C11 1_555 1_555
C12 C11 1_555 1_555
C13 C12 1_555 1_555
H10 C13 1_555 1_555
C14 C13 1_555 1_555
H11 C14 1_555 1_555
C15 C14 1_555 1_555
C16 C15 1_555 1_555
H12 C16 1_555 1_555
C17 C12 1_555 1_555
H13 C17 1_555 1_555
C18 H14 1_555 1_555
C19 C18 1_555 1_555
H15 C19 1_555 1_555
C20 C19 1_555 1_555
H16 C20 1_555 1_555
C21 C20 1_555 1_555
H17 C21 1_555 1_555
C22 C21 1_555 1_555
H18 C22 1_555 1_555
C23 C8 1_555 1_555
C24 C8 1_555 1_555
C25 O3 1_555 1_555
H19 C25 1_555 1_555
H20 C25 1_555 1_555
H21 C25 1_555 1_555
C26 C9 1_555 1_555
C27 O2 1_555 1_555
H22 C27 1_555 1_555
H23 C27 1_555 1_555
H24 C27 1_555 1_555
C28 O5 1_555 1_555
H25 C28 1_555 1_555
H26 C28 1_555 1_555
H27 C28 1_555 1_555
C5 C6 1_555 1_555
C8 C9 1_555 1_555
C16 C17 1_555 1_555
C18 C23 1_555 1_555
C22 C23 1_555 1_555

#END
