
#######################################################################
#
#                 Cambridge Crystallographic Data Centre
#                                CCDC 
#
#######################################################################
#
# If this CIF has been generated from an entry in the Cambridge 
# Structural Database, then it will include bibliographic, chemical, 
# crystal, experimental, refinement or atomic coordinate data resulting 
# from the CCDC's data processing and validation procedures.
#
#######################################################################

data_UCIQUV
_chemical_formula_moiety         'C20 H21 N1 O6'
_chemical_name_systematic        
'Diethyl (2Z,5Z)-5-((1-methyl-1H-indol-3-yl)methylidene)-2-hydroxy-4-oxohex-2-enedioate'
_symmetry_cell_setting           triclinic
_symmetry_space_group_name_H-M   'P -1'
_symmetry_Int_Tables_number      2
_space_group_name_Hall           '-P 1'
loop_
_symmetry_equiv_pos_site_id
_symmetry_equiv_pos_as_xyz
1 x,y,z
2 -x,-y,-z
_cell_length_a                   9.2790(6)
_cell_length_b                   9.4625(5)
_cell_length_c                   12.2999(8)
_cell_angle_alpha                77.479(5)
_cell_angle_beta                 82.454(5)
_cell_angle_gamma                62.810(6)
_cell_volume                     937.128
_exptl_crystal_colour            pink
_exptl_crystal_description       block
_chemical_melting_point          '86-87 deg.C'
_cell_formula_units_Z            2
loop_
_atom_site_label
_atom_site_type_symbol
_atom_site_fract_x
_atom_site_fract_y
_atom_site_fract_z
O1 O 0.44580(19) 0.24149(16) 0.20063(11)
O2 O 0.3338(2) -0.12983(18) 0.36056(12)
C1 C 0.4188(2) -0.0549(2) 0.31866(15)
C2 C 0.5376(2) -0.1132(2) 0.23267(16)
O3 O 0.73716(18) -0.20970(16) 0.05048(12)
C3 C 0.1249(2) 0.2810(2) 0.60401(15)
O4 O 0.4841(2) -0.33523(18) 0.23728(14)
C4 C 0.4855(2) 0.1796(2) 0.30660(16)
C5 C 0.5637(2) -0.2505(2) 0.19688(16)
N1 N 0.2009(2) 0.48112(19) 0.57115(14)
C6 C 0.3931(2) 0.0876(2) 0.36240(14)
C7 C 0.2932(2) 0.1261(2) 0.45218(15)
C8 C 0.6887(3) -0.3170(2) 0.10748(18)
C9 C 0.2428(2) 0.2556(2) 0.51268(15)
C10 C 0.1004(2) 0.4234(2) 0.63792(15)
C11 C 0.0377(3) 0.1984(3) 0.66062(17)
O5 O 0.7379(2) -0.45178(18) 0.09031(16)
C12 C -0.0078(3) 0.4856(3) 0.72432(18)
O6 O 0.5795(2) 0.1996(2) 0.35163(14)
C13 C 0.2846(3) 0.3817(2) 0.49774(17)
C14 C -0.0691(3) 0.2594(3) 0.7465(2)
C15 C 0.5319(3) 0.3276(3) 0.1338(2)
H1 H 0.4582(3) 0.4178(3) 0.0825(2)
H2 H 0.5711(3) 0.3702(3) 0.1821(2)
C16 C -0.0923(3) 0.4016(3) 0.7776(2)
C17 C 0.8583(3) -0.2622(3) -0.0383(2)
H3 H 0.9575(3) -0.3508(3) -0.0078(2)
H4 H 0.8194(3) -0.2990(3) -0.0908(2)
C18 C 0.2152(3) 0.6252(3) 0.5808(2)
H5 H 0.1109(5) 0.7170(5) 0.5720(15)
H6 H 0.254(2) 0.6110(9) 0.6528(6)
H7 H 0.2899(16) 0.6423(12) 0.5240(10)
C19 C 0.8891(4) -0.1236(3) -0.0952(2)
H8 H 0.9676(19) -0.1550(8) -0.1553(11)
H9 H 0.7899(6) -0.0360(9) -0.1241(16)
H10 H 0.930(2) -0.0896(17) -0.0430(5)
C20 C 0.6686(4) 0.2210(3) 0.0711(3)
H11 H 0.7154(17) 0.2830(5) 0.0207(13)
H12 H 0.7488(12) 0.1403(16) 0.1218(3)
H13 H 0.6316(6) 0.170(2) 0.0296(14)
H14 H 0.246(2) 0.053(2) 0.4800(16)
H15 H 0.607(3) -0.060(2) 0.1975(17)
H16 H 0.361(3) 0.396(2) 0.4417(17)
H17 H -0.165(3) 0.435(3) 0.840(2)
H18 H -0.011(3) 0.579(3) 0.748(2)
H19 H 0.049(3) 0.103(3) 0.6431(18)
H20 H -0.129(3) 0.201(3) 0.790(2)
H21 H 0.401(4) -0.257(4) 0.304(3)
loop_
_geom_bond_atom_site_label_1
_geom_bond_atom_site_label_2
_geom_bond_site_symmetry_1
_geom_bond_site_symmetry_2
O1 C4 1_555 1_555
O2 C1 1_555 1_555
C1 C2 1_555 1_555
C2 C5 1_555 1_555
O3 C8 1_555 1_555
C3 C9 1_555 1_555
O4 C5 1_555 1_555
C4 C6 1_555 1_555
C5 C8 1_555 1_555
N1 C10 1_555 1_555
C6 C1 1_555 1_555
C7 C6 1_555 1_555
C8 O5 1_555 1_555
C9 C7 1_555 1_555
C10 C3 1_555 1_555
C11 C3 1_555 1_555
C12 C10 1_555 1_555
O6 C4 1_555 1_555
C13 N1 1_555 1_555
C14 C11 1_555 1_555
C15 O1 1_555 1_555
H1 C15 1_555 1_555
H2 C15 1_555 1_555
C16 C12 1_555 1_555
C17 O3 1_555 1_555
H3 C17 1_555 1_555
H4 C17 1_555 1_555
C18 N1 1_555 1_555
H5 C18 1_555 1_555
H6 C18 1_555 1_555
H7 C18 1_555 1_555
C19 C17 1_555 1_555
H8 C19 1_555 1_555
H9 C19 1_555 1_555
H10 C19 1_555 1_555
C20 C15 1_555 1_555
H11 C20 1_555 1_555
H12 C20 1_555 1_555
H13 C20 1_555 1_555
H14 C7 1_555 1_555
H15 C2 1_555 1_555
H16 C13 1_555 1_555
H17 C16 1_555 1_555
H18 C12 1_555 1_555
H19 C11 1_555 1_555
H20 C14 1_555 1_555
H21 O4 1_555 1_555
C9 C13 1_555 1_555
C14 C16 1_555 1_555

#END
