
#######################################################################
#
#                 Cambridge Crystallographic Data Centre
#                                CCDC 
#
#######################################################################
#
# If this CIF has been generated from an entry in the Cambridge 
# Structural Database, then it will include bibliographic, chemical, 
# crystal, experimental, refinement or atomic coordinate data resulting 
# from the CCDC's data processing and validation procedures.
#
#######################################################################

data_UCIRUU
_chemical_formula_moiety         'C14 H13 N1 O3'
_chemical_name_systematic        
2-(N-Methyl-N-phenylamino)-5-methoxy-1,4-benzoquinone
_symmetry_cell_setting           monoclinic
_symmetry_space_group_name_H-M   'P 21/c'
_symmetry_Int_Tables_number      14
_space_group_name_Hall           '-P 2ybc'
loop_
_symmetry_equiv_pos_site_id
_symmetry_equiv_pos_as_xyz
1 x,y,z
2 -x,1/2+y,1/2-z
3 -x,-y,-z
4 x,1/2-y,1/2+z
_cell_length_a                   7.1495(14)
_cell_length_b                   6.6785(13)
_cell_length_c                   24.313(5)
_cell_angle_alpha                90
_cell_angle_beta                 95.63(3)
_cell_angle_gamma                90
_cell_volume                     1155.3
_exptl_crystal_colour            red
_exptl_crystal_description       platelet
_chemical_melting_point          '515-516 K'
_cell_formula_units_Z            4
loop_
_atom_site_label
_atom_site_type_symbol
_atom_site_fract_x
_atom_site_fract_y
_atom_site_fract_z
O1 O 0.1817(3) 0.3996(2) 0.56281(6)
O2 O 0.3204(2) -0.2047(2) 0.43166(5)
O3 O 0.3372(2) 0.1594(2) 0.39201(5)
N1 N 0.1673(2) 0.0175(2) 0.60638(6)
C1 C 0.1930(3) 0.1630(3) 0.64986(7)
C2 C 0.3721(3) 0.2110(3) 0.67220(8)
H1 H 0.4763 0.1586 0.6572
C3 C 0.3945(3) 0.3383(3) 0.71729(8)
H2 H 0.5147 0.3722 0.7326
C4 C 0.2403(4) 0.4149(3) 0.73963(8)
H3 H 0.2563 0.4999 0.7700
C5 C 0.0633(3) 0.3661(3) 0.71708(8)
H4 H -0.0409 0.4193 0.7320
C6 C 0.0388(3) 0.2387(3) 0.67251(7)
H5 H -0.0817 0.2037 0.6577
C7 C 0.1428(3) -0.1864(3) 0.62612(8)
H6 H 0.1264 -0.2760 0.5952
H7 H 0.0340 -0.1920 0.6463
H8 H 0.2520 -0.2252 0.6499
C8 C 0.2161(3) 0.0476(3) 0.55437(7)
C9 C 0.2215(3) 0.2617(3) 0.53401(7)
C10 C 0.2696(3) 0.2962(3) 0.47854(7)
H9 H 0.2809 0.4270 0.4661
C11 C 0.2981(3) 0.1446(3) 0.44472(7)
C12 C 0.2886(2) -0.0686(3) 0.46331(7)
C13 C 0.2458(3) -0.1036(3) 0.51875(7)
H10 H 0.2379 -0.2350 0.5309
C14 C 0.3532(4) 0.3595(3) 0.37140(8)
H11 H 0.3811 0.3546 0.3336
H12 H 0.4523 0.4285 0.3932
H13 H 0.2368 0.4294 0.3736
loop_
_geom_bond_atom_site_label_1
_geom_bond_atom_site_label_2
_geom_bond_site_symmetry_1
_geom_bond_site_symmetry_2
O1 C9 1_555 1_555
O2 C12 1_555 1_555
O3 C11 1_555 1_555
N1 C1 1_555 1_555
C1 C2 1_555 1_555
C2 H1 1_555 1_555
C3 C2 1_555 1_555
H2 C3 1_555 1_555
C4 C3 1_555 1_555
H3 C4 1_555 1_555
C5 C4 1_555 1_555
H4 C5 1_555 1_555
C6 C1 1_555 1_555
H5 C6 1_555 1_555
C7 N1 1_555 1_555
H6 C7 1_555 1_555
H7 C7 1_555 1_555
H8 C7 1_555 1_555
C8 N1 1_555 1_555
C9 C8 1_555 1_555
C10 C9 1_555 1_555
H9 C10 1_555 1_555
C11 C10 1_555 1_555
C12 C11 1_555 1_555
C13 C8 1_555 1_555
H10 C13 1_555 1_555
C14 O3 1_555 1_555
H11 C14 1_555 1_555
H12 C14 1_555 1_555
H13 C14 1_555 1_555
C5 C6 1_555 1_555
C12 C13 1_555 1_555

#END
