
#######################################################################
#
#                 Cambridge Crystallographic Data Centre
#                                CCDC 
#
#######################################################################
#
# If this CIF has been generated from an entry in the Cambridge 
# Structural Database, then it will include bibliographic, chemical, 
# crystal, experimental, refinement or atomic coordinate data resulting 
# from the CCDC's data processing and validation procedures.
#
#######################################################################

data_UCISAB
_chemical_formula_moiety         'C22 H20 O6'
_chemical_name_systematic        2,6-bis(2,4-Dimethoxyphenyl)-1,4-benzoquinone
_symmetry_cell_setting           monoclinic
_symmetry_space_group_name_H-M   'P 21/n'
_symmetry_Int_Tables_number      14
_space_group_name_Hall           '-P 2yn'
loop_
_symmetry_equiv_pos_site_id
_symmetry_equiv_pos_as_xyz
1 x,y,z
2 1/2-x,1/2+y,1/2-z
3 -x,-y,-z
4 1/2+x,1/2-y,1/2+z
_cell_length_a                   13.525(3)
_cell_length_b                   9.870(2)
_cell_length_c                   15.173(3)
_cell_angle_alpha                90
_cell_angle_beta                 115.28(3)
_cell_angle_gamma                90
_cell_volume                     1831.49
_exptl_crystal_colour            red
_exptl_crystal_description       platelet
_chemical_melting_point          204-205deg.C
_cell_formula_units_Z            4
loop_
_atom_site_label
_atom_site_type_symbol
_atom_site_fract_x
_atom_site_fract_y
_atom_site_fract_z
O1 O 0.80549(8) 0.09128(11) 0.41396(7)
O2 O 0.90050(9) 0.01515(10) 0.15674(7)
O3 O 1.14503(8) -0.09176(9) 0.27837(7)
O4 O 0.98062(10) -0.55246(10) 0.11271(9)
O5 O 1.13468(8) 0.01423(10) 0.10062(8)
O6 O 1.48316(8) -0.02147(10) 0.09812(8)
C1 C 0.80044(15) 0.0464(2) 0.49976(11)
H1 H 0.7694 0.1163 0.5242
H2 H 0.8728 0.0256 0.5477
H3 H 0.7557 -0.0333 0.4860
C2 C 0.84828(10) 0.00346(14) 0.37084(10)
C3 C 0.88689(11) -0.12401(14) 0.40379(10)
H4 H 0.8832 -0.1583 0.4594
C4 C 0.93115(11) -0.20075(14) 0.35378(10)
H5 H 0.9569 -0.2873 0.3761
C5 C 0.93808(10) -0.15305(13) 0.27284(9)
C6 C 0.89563(10) -0.02383(13) 0.23932(9)
C7 C 0.84985(10) 0.05291(13) 0.28699(9)
H6 H 0.8202 0.1374 0.2630
C8 C 0.86544(14) 0.14749(15) 0.12177(11)
H7 H 0.8743 0.1622 0.0630
H8 H 0.9084 0.2124 0.1701
H9 H 0.7898 0.1578 0.1085
C9 C 0.99105(10) -0.23459(13) 0.22381(9)
C10 C 0.95787(11) -0.35823(13) 0.18968(9)
H10 H 0.8978 -0.3949 0.1958
C11 C 1.01235(11) -0.43841(13) 0.14291(10)
C12 C 1.10217(11) -0.37433(13) 0.12952(10)
H11 H 1.1347 -0.4219 0.0959
C13 C 1.14010(10) -0.25088(12) 0.16308(8)
C14 C 1.09421(10) -0.18103(12) 0.22343(8)
C15 C 1.23243(10) -0.18881(12) 0.15060(8)
C16 C 1.32357(11) -0.26532(13) 0.16450(9)
H12 H 1.3270 -0.3544 0.1856
C17 C 1.40962(11) -0.21479(13) 0.14839(9)
H13 H 1.4698 -0.2688 0.1581
C18 C 1.40434(11) -0.08292(14) 0.11772(9)
C19 C 1.31468(11) -0.00181(13) 0.10373(10)
H14 H 1.3127 0.0878 0.0840
C20 C 1.22879(10) -0.05399(12) 0.11898(9)
C21 C 1.12559(13) 0.15042(15) 0.06853(12)
H15 H 1.0555 0.1858 0.0587
H16 H 1.1328 0.1541 0.0083
H17 H 1.1823 0.2037 0.1168
C22 C 1.58061(13) -0.09507(17) 0.11738(13)
H18 H 1.6290 -0.0403 0.1010
H19 H 1.5629 -0.1763 0.0789
H20 H 1.6157 -0.1184 0.1853
loop_
_geom_bond_atom_site_label_1
_geom_bond_atom_site_label_2
_geom_bond_site_symmetry_1
_geom_bond_site_symmetry_2
O1 C1 1_555 1_555
O2 C6 1_555 1_555
O3 C14 1_555 1_555
O4 C11 1_555 1_555
O5 C20 1_555 1_555
O6 C18 1_555 1_555
C1 H1 1_555 1_555
H2 C1 1_555 1_555
H3 C1 1_555 1_555
C2 O1 1_555 1_555
C3 C2 1_555 1_555
H4 C3 1_555 1_555
C4 C3 1_555 1_555
H5 C4 1_555 1_555
C5 C4 1_555 1_555
C6 C5 1_555 1_555
C7 C2 1_555 1_555
H6 C7 1_555 1_555
C8 O2 1_555 1_555
H7 C8 1_555 1_555
H8 C8 1_555 1_555
H9 C8 1_555 1_555
C9 C5 1_555 1_555
C10 C9 1_555 1_555
H10 C10 1_555 1_555
C11 C10 1_555 1_555
C12 C11 1_555 1_555
H11 C12 1_555 1_555
C13 C12 1_555 1_555
C14 C9 1_555 1_555
C15 C13 1_555 1_555
C16 C15 1_555 1_555
H12 C16 1_555 1_555
C17 C16 1_555 1_555
H13 C17 1_555 1_555
C18 C17 1_555 1_555
C19 C18 1_555 1_555
H14 C19 1_555 1_555
C20 C15 1_555 1_555
C21 O5 1_555 1_555
H15 C21 1_555 1_555
H16 C21 1_555 1_555
H17 C21 1_555 1_555
C22 O6 1_555 1_555
H18 C22 1_555 1_555
H19 C22 1_555 1_555
H20 C22 1_555 1_555
C6 C7 1_555 1_555
C13 C14 1_555 1_555
C19 C20 1_555 1_555

#END
