
#######################################################################
#
#                 Cambridge Crystallographic Data Centre
#                                CCDC 
#
#######################################################################
#
# If this CIF has been generated from an entry in the Cambridge 
# Structural Database, then it will include bibliographic, chemical, 
# crystal, experimental, refinement or atomic coordinate data resulting 
# from the CCDC's data processing and validation procedures.
#
#######################################################################

data_UCIXAG
_chemical_formula_moiety         'C34 H29 N3 O4 S1'
_chemical_name_systematic        
"Dimethyl 1,3-dibenzyl-2'-phenylimino-2',3'-dihydrospiro(benzimidazoline-2,3'-thiophene)-4',5'-dicarboxylate"
_symmetry_cell_setting           triclinic
_symmetry_space_group_name_H-M   'P -1'
_symmetry_Int_Tables_number      2
_space_group_name_Hall           '-P 1'
loop_
_symmetry_equiv_pos_site_id
_symmetry_equiv_pos_as_xyz
1 x,y,z
2 -x,-y,-z
_cell_length_a                   11.114(3)
_cell_length_b                   14.156(3)
_cell_length_c                   19.352(5)
_cell_angle_alpha                80.220(4)
_cell_angle_beta                 85.469(4)
_cell_angle_gamma                89.231(4)
_cell_volume                     2991.02
_chemical_melting_point          123-124deg.C
_cell_formula_units_Z            4
loop_
_atom_site_label
_atom_site_type_symbol
_atom_site_fract_x
_atom_site_fract_y
_atom_site_fract_z
C1 C 0.6316(2) 0.7362(2) 0.48166(16)
C2 C 0.7830(3) 0.8245(2) 0.51605(16)
C3 C 0.8843(3) 0.8784(2) 0.51835(19)
H1 H 0.9225 0.9131 0.4776
C4 C 0.9270(3) 0.8792(2) 0.5831(2)
H2 H 0.9947 0.9156 0.5863
C5 C 0.8718(3) 0.8273(2) 0.6428(2)
H3 H 0.9025 0.8290 0.6859
C6 C 0.7702(3) 0.7718(2) 0.64033(18)
H4 H 0.7331 0.7361 0.6810
C7 C 0.7267(3) 0.7714(2) 0.57653(17)
C8 C 0.6769(3) 0.6426(2) 0.45630(16)
C9 C 0.4752(3) 0.6939(2) 0.41378(16)
C10 C 0.5114(2) 0.7572(2) 0.45045(16)
C11 C 0.7753(3) 0.8245(2) 0.38854(17)
H5 H 0.7227 0.7974 0.3593
H6 H 0.8491 0.7870 0.3903
C12 C 0.8057(3) 0.9259(2) 0.35437(16)
C13 C 0.8944(3) 0.9407(3) 0.29942(18)
H7 H 0.9364 0.8884 0.2863
C14 C 0.9217(3) 1.0320(3) 0.26348(19)
H8 H 0.9800 1.0408 0.2257
C15 C 0.8625(3) 1.1085(3) 0.2840(2)
H9 H 0.8803 1.1700 0.2599
C16 C 0.7777(3) 1.0962(3) 0.3392(2)
H10 H 0.7388 1.1491 0.3533
C17 C 0.7492(3) 1.0047(2) 0.37449(18)
H11 H 0.6910 0.9966 0.4123
C18 C 0.5740(3) 0.6390(2) 0.59900(17)
H12 H 0.6357 0.5897 0.6010
H13 H 0.5081 0.6183 0.5750
C19 C 0.5283(3) 0.6479(2) 0.67241(17)
C20 C 0.5405(3) 0.5726(3) 0.7259(2)
H14 H 0.5790 0.5168 0.7166
C21 C 0.4963(4) 0.5788(4) 0.7934(2)
H15 H 0.5031 0.5264 0.8291
C22 C 0.4426(4) 0.6611(4) 0.8088(2)
H16 H 0.4153 0.6659 0.8548
C23 C 0.4299(3) 0.7357(3) 0.7557(2)
H17 H 0.3930 0.7918 0.7654
C24 C 0.4707(3) 0.7295(3) 0.6880(2)
H18 H 0.4594 0.7808 0.6521
C25 C 0.8287(3) 0.5260(2) 0.45077(17)
C26 C 0.9455(3) 0.5285(3) 0.4208(2)
H19 H 0.9884 0.5858 0.4120
C27 C 0.9983(4) 0.4464(4) 0.4040(3)
H20 H 1.0758 0.4484 0.3818
C28 C 0.9370(5) 0.3618(4) 0.4198(2)
H21 H 0.9741 0.3058 0.4100
C29 C 0.8214(5) 0.3586(3) 0.4500(2)
H22 H 0.7796 0.3009 0.4600
C30 C 0.7674(3) 0.4409(2) 0.46548(19)
H23 H 0.6888 0.4388 0.4861
C31 C 0.3609(3) 0.6916(3) 0.37860(18)
C32 C 0.1753(3) 0.7686(3) 0.3586(2)
H24 H 0.1863 0.7579 0.3109
H25 H 0.1394 0.8305 0.3597
H26 H 0.1234 0.7200 0.3857
C33 C 0.4438(3) 0.8452(2) 0.4651(2)
C34 C 0.3913(4) 1.0022(3) 0.4155(2)
H27 H 0.3063 0.9891 0.4190
H28 H 0.4116 1.0493 0.3744
H29 H 0.4117 1.0262 0.4566
N1 N 0.6242(2) 0.72783(16) 0.55805(13)
N2 N 0.7170(2) 0.81525(17) 0.45915(13)
N3 N 0.7801(2) 0.61150(18) 0.47024(14)
O1 O 0.3374(2) 0.62979(19) 0.34800(15)
O2 O 0.29070(19) 0.76501(17) 0.38818(12)
O3 O 0.3877(2) 0.84994(18) 0.51865(15)
O4 O 0.45797(19) 0.91495(15) 0.41002(12)
S1 S 0.57149(7) 0.59554(6) 0.40733(5)
C35 C 0.1614(3) 0.7068(2) 0.06688(16)
C36 C 0.2302(3) 0.8181(2) -0.02853(18)
C37 C 0.2530(3) 0.8679(2) -0.09537(19)
H30 H 0.1980 0.8686 -0.1293
C38 C 0.3611(4) 0.9171(3) -0.1102(2)
H31 H 0.3795 0.9516 -0.1551
C39 C 0.4412(3) 0.9159(3) -0.0604(2)
H32 H 0.5126 0.9505 -0.0720
C40 C 0.4193(3) 0.8645(2) 0.0074(2)
H33 H 0.4739 0.8642 0.0415
C41 C 0.3131(3) 0.8143(2) 0.02134(18)
C42 C 0.1902(3) 0.6028(2) 0.05686(19)
C43 C 0.0263(3) 0.6094(3) 0.15216(19)
C44 C 0.0599(3) 0.6985(2) 0.12410(18)
C45 C 0.0484(3) 0.7244(2) -0.04118(19)
H34 H 0.0040 0.6720 -0.0118
H35 H 0.0970 0.6980 -0.0772
C46 C -0.0405(3) 0.7947(2) -0.07627(18)
C47 C -0.1045(3) 0.7671(3) -0.1273(2)
H36 H -0.0871 0.7091 -0.1424
C48 C -0.1952(4) 0.8254(4) -0.1566(2)
H37 H -0.2387 0.8062 -0.1910
C49 C -0.2205(4) 0.9103(4) -0.1350(3)
H38 H -0.2818 0.9489 -0.1545
C50 C -0.1571(4) 0.9395(3) -0.0853(3)
H39 H -0.1742 0.9980 -0.0710
C51 C -0.0670(3) 0.8814(3) -0.0561(2)
H40 H -0.0234 0.9015 -0.0221
C52 C 0.3419(3) 0.7026(2) 0.13345(19)
H41 H 0.3990 0.6662 0.1079
H42 H 0.2926 0.6571 0.1666
C53 C 0.4108(3) 0.7625(3) 0.17376(18)
C54 C 0.3636(3) 0.8446(3) 0.19436(19)
H43 H 0.2872 0.8654 0.1821
C55 C 0.4285(4) 0.8961(3) 0.2329(2)
H44 H 0.3961 0.9520 0.2460
C56 C 0.5409(4) 0.8655(3) 0.25220(19)
H45 H 0.5849 0.9004 0.2781
C57 C 0.5867(3) 0.7835(3) 0.2328(2)
H46 H 0.6622 0.7618 0.2461
C58 C 0.5228(3) 0.7327(3) 0.19410(18)
H47 H 0.5556 0.6768 0.1813
C59 C 0.2889(3) 0.4907(2) -0.00182(18)
C60 C 0.3649(6) 0.4332(3) 0.0366(3)
H48 H 0.4031 0.4561 0.0715
C61 C 0.3873(5) 0.3411(4) 0.0253(3)
H49 H 0.4409 0.3030 0.0524
C62 C 0.3349(4) 0.3066(3) -0.0224(2)
H50 H 0.3502 0.2442 -0.0297
C63 C 0.2588(4) 0.3620(3) -0.0607(3)
H51 H 0.2194 0.3375 -0.0944
C64 C 0.2372(3) 0.4551(3) -0.0513(2)
H52 H 0.1860 0.4934 -0.0799
C65 C -0.0741(4) 0.5873(3) 0.2081(2)
C66 C -0.2081(4) 0.4682(4) 0.2657(2)
H53 H -0.1918 0.4796 0.3116
H54 H -0.2241 0.4012 0.2678
H55 H -0.2771 0.5050 0.2503
C67 C 0.0053(3) 0.7874(3) 0.1438(2)
C68 C -0.1557(3) 0.8966(3) 0.1220(2)
H56 H -0.1899 0.8912 0.1697
H57 H -0.2186 0.9092 0.0905
H58 H -0.0984 0.9482 0.1123
N4 N 0.1280(2) 0.76542(17) 0.00147(14)
N5 N 0.2644(2) 0.75735(18) 0.08382(14)
N6 N 0.2654(3) 0.58669(18) 0.00865(16)
O5 O -0.1220(3) 0.6449(2) 0.23876(17)
O6 O -0.1036(2) 0.4965(2) 0.21644(14)
O7 O 0.0498(2) 0.8358(2) 0.17906(17)
O8 O -0.0954(2) 0.80778(16) 0.11247(13)
S2 S 0.10439(9) 0.51701(6) 0.11762(6)
loop_
_geom_bond_atom_site_label_1
_geom_bond_atom_site_label_2
_geom_bond_site_symmetry_1
_geom_bond_site_symmetry_2
C1 C8 1_555 1_555
C2 C3 1_555 1_555
C3 H1 1_555 1_555
C4 C3 1_555 1_555
H2 C4 1_555 1_555
C5 C4 1_555 1_555
H3 C5 1_555 1_555
C6 C5 1_555 1_555
H4 C6 1_555 1_555
C7 C2 1_555 1_555
C8 N3 1_555 1_555
C9 C10 1_555 1_555
C10 C1 1_555 1_555
C11 H5 1_555 1_555
H6 C11 1_555 1_555
C12 C11 1_555 1_555
C13 C12 1_555 1_555
H7 C13 1_555 1_555
C14 C13 1_555 1_555
H8 C14 1_555 1_555
C15 C14 1_555 1_555
H9 C15 1_555 1_555
C16 C15 1_555 1_555
H10 C16 1_555 1_555
C17 C12 1_555 1_555
H11 C17 1_555 1_555
C18 H12 1_555 1_555
H13 C18 1_555 1_555
C19 C18 1_555 1_555
C20 C19 1_555 1_555
H14 C20 1_555 1_555
C21 C20 1_555 1_555
H15 C21 1_555 1_555
C22 C21 1_555 1_555
H16 C22 1_555 1_555
C23 C22 1_555 1_555
H17 C23 1_555 1_555
C24 C19 1_555 1_555
H18 C24 1_555 1_555
C25 C26 1_555 1_555
C26 H19 1_555 1_555
C27 C26 1_555 1_555
H20 C27 1_555 1_555
C28 C27 1_555 1_555
H21 C28 1_555 1_555
C29 C28 1_555 1_555
H22 C29 1_555 1_555
C30 C25 1_555 1_555
H23 C30 1_555 1_555
C31 C9 1_555 1_555
C32 H24 1_555 1_555
H25 C32 1_555 1_555
H26 C32 1_555 1_555
C33 C10 1_555 1_555
C34 H27 1_555 1_555
H28 C34 1_555 1_555
H29 C34 1_555 1_555
C35 C42 1_555 1_555
C36 C37 1_555 1_555
C37 H30 1_555 1_555
C38 C37 1_555 1_555
H31 C38 1_555 1_555
C39 C38 1_555 1_555
H32 C39 1_555 1_555
C40 C39 1_555 1_555
H33 C40 1_555 1_555
C41 C36 1_555 1_555
C42 N6 1_555 1_555
C43 C44 1_555 1_555
C44 C35 1_555 1_555
C45 H34 1_555 1_555
H35 C45 1_555 1_555
C46 C45 1_555 1_555
C47 C46 1_555 1_555
H36 C47 1_555 1_555
C48 C47 1_555 1_555
H37 C48 1_555 1_555
C49 C48 1_555 1_555
H38 C49 1_555 1_555
C50 C49 1_555 1_555
H39 C50 1_555 1_555
C51 C46 1_555 1_555
H40 C51 1_555 1_555
C52 H41 1_555 1_555
H42 C52 1_555 1_555
C53 C52 1_555 1_555
C54 C53 1_555 1_555
H43 C54 1_555 1_555
C55 C54 1_555 1_555
H44 C55 1_555 1_555
C56 C55 1_555 1_555
H45 C56 1_555 1_555
C57 C56 1_555 1_555
H46 C57 1_555 1_555
C58 C53 1_555 1_555
H47 C58 1_555 1_555
C59 C60 1_555 1_555
C60 H48 1_555 1_555
C61 C60 1_555 1_555
H49 C61 1_555 1_555
C62 C61 1_555 1_555
H50 C62 1_555 1_555
C63 C62 1_555 1_555
H51 C63 1_555 1_555
C64 C59 1_555 1_555
H52 C64 1_555 1_555
C65 C43 1_555 1_555
C66 H53 1_555 1_555
H54 C66 1_555 1_555
H55 C66 1_555 1_555
C67 C44 1_555 1_555
C68 H56 1_555 1_555
H57 C68 1_555 1_555
H58 C68 1_555 1_555
N1 C1 1_555 1_555
N2 C1 1_555 1_555
N3 C25 1_555 1_555
N4 C35 1_555 1_555
N5 C35 1_555 1_555
N6 C59 1_555 1_555
O1 C31 1_555 1_555
O2 C31 1_555 1_555
O3 C33 1_555 1_555
O4 C33 1_555 1_555
O5 C65 1_555 1_555
O6 C65 1_555 1_555
O7 C67 1_555 1_555
O8 C67 1_555 1_555
S1 C8 1_555 1_555
S2 C42 1_555 1_555
C2 N2 1_555 1_555
C6 C7 1_555 1_555
C7 N1 1_555 1_555
C9 S1 1_555 1_555
C11 N2 1_555 1_555
C16 C17 1_555 1_555
C18 N1 1_555 1_555
C23 C24 1_555 1_555
C29 C30 1_555 1_555
C32 O2 1_555 1_555
C34 O4 1_555 1_555
C36 N4 1_555 1_555
C40 C41 1_555 1_555
C41 N5 1_555 1_555
C43 S2 1_555 1_555
C45 N4 1_555 1_555
C50 C51 1_555 1_555
C52 N5 1_555 1_555
C57 C58 1_555 1_555
C63 C64 1_555 1_555
C66 O6 1_555 1_555
C68 O8 1_555 1_555

#END
