
#######################################################################
#
#                 Cambridge Crystallographic Data Centre
#                                CCDC 
#
#######################################################################
#
# If this CIF has been generated from an entry in the Cambridge 
# Structural Database, then it will include bibliographic, chemical, 
# crystal, experimental, refinement or atomic coordinate data resulting 
# from the CCDC's data processing and validation procedures.
#
#######################################################################

data_UCIXUB
_chemical_name_common            
'(S)-2-((S)-(4-Nitrophenoxy)(phenoxy)phosphorylamino)propionic acid isopropyl ester'
_chemical_formula_moiety         'C18 H21 N2 O7 P1'
_chemical_name_systematic        
'(S,S~p~)-Isopropyl N-((4-nitrophenoxy)(phenoxy)phosphoryl)-L-alaninate'
_symmetry_cell_setting           monoclinic
_symmetry_space_group_name_H-M   'P 21'
_symmetry_Int_Tables_number      4
_space_group_name_Hall           'P 2yb'
loop_
_symmetry_equiv_pos_site_id
_symmetry_equiv_pos_as_xyz
1 x,y,z
2 -x,1/2+y,-z
_cell_length_a                   5.3312(4)
_cell_length_b                   15.3388(8)
_cell_length_c                   23.7807(13)
_cell_angle_alpha                90
_cell_angle_beta                 92.891(3)
_cell_angle_gamma                90
_cell_volume                     1942.17
_chemical_melting_point          '62-66 deg.C'
_cell_formula_units_Z            4
_exptl_crystal_recrystallization_method 'diisopropyl ether'
loop_
_atom_site_label
_atom_site_type_symbol
_atom_site_fract_x
_atom_site_fract_y
_atom_site_fract_z
C1 C 0.3614(13) 0.1503(5) 0.2407(3)
H1 H 0.1952 0.1255 0.2312
C2 C 0.5617(18) 0.0808(5) 0.2291(4)
H2 H 0.7254 0.1032 0.2398
H3 H 0.5540 0.0667 0.1897
H4 H 0.5304 0.0292 0.2505
C3 C 0.3760(13) 0.1733(5) 0.3025(3)
C4 C 0.3117(18) 0.1158(6) 0.3949(3)
H5 H 0.4400 0.1588 0.4066
C5 C 0.0618(19) 0.1481(8) 0.4103(4)
H6 H -0.0668 0.1106 0.3942
H7 H 0.0370 0.2062 0.3961
H8 H 0.0537 0.1484 0.4505
C6 C 0.388(2) 0.0281(7) 0.4181(4)
H9 H 0.5374 0.0089 0.4010
H10 H 0.2551 -0.0131 0.4101
H11 H 0.4193 0.0324 0.4581
C7 C 0.1457(13) 0.4020(4) 0.2728(3)
C8 C -0.0716(14) 0.3671(5) 0.2959(3)
H12 H -0.1676 0.3246 0.2770
C9 C -0.1354(14) 0.3986(5) 0.3473(3)
H13 H -0.2740 0.3754 0.3643
C10 C 0.0015(13) 0.4636(5) 0.3742(3)
C11 C 0.2229(14) 0.4959(5) 0.3518(3)
H14 H 0.3215 0.5371 0.3712
C12 C 0.2885(13) 0.4653(5) 0.3008(3)
H15 H 0.4309 0.4871 0.2847
C13 C 0.2490(13) 0.2818(5) 0.0780(3)
C14 C 0.0524(14) 0.2934(5) 0.0393(3)
H16 H -0.0798 0.3305 0.0468
C15 C 0.0555(17) 0.2484(5) -0.0113(3)
H17 H -0.0749 0.2554 -0.0384
C16 C 0.2530(15) 0.1934(5) -0.0212(3)
H18 H 0.2539 0.1631 -0.0550
C17 C 0.4495(16) 0.1825(6) 0.0183(3)
H19 H 0.5817 0.1452 0.0111
C18 C 0.4472(15) 0.2278(5) 0.0687(3)
H20 H 0.5780 0.2216 0.0958
N1 N 0.3980(11) 0.2250(4) 0.2045(2)
H21 H 0.5455 0.2336 0.1925
N2 N -0.0745(13) 0.4997(4) 0.4269(3)
O1 O 0.3054(11) 0.1067(4) 0.3334(2)
O2 O 0.4534(10) 0.2419(3) 0.3212(2)
O3 O 0.2136(9) 0.3832(3) 0.2190(2)
O4 O -0.2854(11) 0.4771(4) 0.4430(2)
O5 O 0.0616(11) 0.5500(4) 0.4535(2)
O6 O 0.2534(10) 0.3340(3) 0.1272(2)
O7 O -0.0760(8) 0.2545(3) 0.18774(19)
P1 P 0.1776(3) 0.29303(11) 0.18532(7)
C19 C 0.8730(13) 0.8560(4) 0.2551(3)
H22 H 0.6943 0.8712 0.2539
C20 C 1.0153(15) 0.9261(5) 0.2887(3)
H23 H 1.1816 0.9057 0.2990
H24 H 0.9287 0.9390 0.3221
H25 H 1.0256 0.9778 0.2662
C21 C 0.9514(13) 0.8465(5) 0.1945(3)
C22 C 1.0669(15) 0.9277(6) 0.1139(3)
H26 H 0.9534 0.8901 0.0911
C23 C 1.033(2) 1.0223(6) 0.0962(4)
H27 H 1.1280 1.0591 0.1221
H28 H 0.8584 1.0376 0.0964
H29 H 1.0913 1.0300 0.0590
C24 C 1.3447(16) 0.8979(7) 0.1090(4)
H30 H 1.3653 0.8402 0.1241
H31 H 1.4545 0.9373 0.1297
H32 H 1.3853 0.8979 0.0701
C25 C 0.6217(13) 0.5980(4) 0.2156(3)
C26 C 0.4048(14) 0.6306(5) 0.1892(3)
H33 H 0.3117 0.6735 0.2063
C27 C 0.3292(14) 0.5980(5) 0.1367(3)
H34 H 0.1846 0.6189 0.1178
C28 C 0.4735(13) 0.5333(5) 0.1127(3)
C29 C 0.6929(15) 0.5041(5) 0.1370(3)
H35 H 0.7900 0.4631 0.1192
C30 C 0.7670(13) 0.5375(5) 0.1889(3)
H36 H 0.9176 0.5190 0.2064
C31 C 0.7269(12) 0.7287(5) 0.4086(3)
C32 C 0.5237(15) 0.7152(6) 0.4431(3)
H37 H 0.4075 0.6711 0.4352
C33 C 0.5016(16) 0.7690(6) 0.4890(3)
H38 H 0.3662 0.7615 0.5117
C34 C 0.6754(16) 0.8338(6) 0.5023(4)
H39 H 0.6585 0.8691 0.5337
C35 C 0.8776(18) 0.8453(6) 0.4674(4)
H40 H 0.9963 0.8886 0.4752
C36 C 0.8980(14) 0.7905(6) 0.4208(3)
H41 H 1.0329 0.7973 0.3979
N3 N 0.9027(11) 0.7728(4) 0.2835(3)
H42 H 1.0533 0.7553 0.2916
N4 N 0.3828(14) 0.4959(4) 0.0583(3)
O8 O 1.0030(10) 0.9250(3) 0.1733(2)
O9 O 0.9622(11) 0.7782(3) 0.1694(2)
O10 O 0.6999(9) 0.6183(3) 0.2703(2)
O11 O 0.1694(12) 0.5123(4) 0.0408(2)
O12 O 0.5276(12) 0.4497(4) 0.0328(2)
O13 O 0.7434(10) 0.6722(3) 0.36168(19)
O14 O 0.4267(9) 0.7512(3) 0.2940(2)
P2 P 0.6746(3) 0.70998(11) 0.30105(7)
loop_
_geom_bond_atom_site_label_1
_geom_bond_atom_site_label_2
_geom_bond_site_symmetry_1
_geom_bond_site_symmetry_2
C1 H1 1_555 1_555
C2 C1 1_555 1_555
H2 C2 1_555 1_555
H3 C2 1_555 1_555
H4 C2 1_555 1_555
C3 C1 1_555 1_555
C4 H5 1_555 1_555
C5 C4 1_555 1_555
H6 C5 1_555 1_555
H7 C5 1_555 1_555
H8 C5 1_555 1_555
C6 C4 1_555 1_555
H9 C6 1_555 1_555
H10 C6 1_555 1_555
H11 C6 1_555 1_555
C7 C8 1_555 1_555
C8 H12 1_555 1_555
C9 C8 1_555 1_555
H13 C9 1_555 1_555
C10 C9 1_555 1_555
C11 C10 1_555 1_555
H14 C11 1_555 1_555
C12 C7 1_555 1_555
H15 C12 1_555 1_555
C13 C14 1_555 1_555
C14 H16 1_555 1_555
C15 C14 1_555 1_555
H17 C15 1_555 1_555
C16 C15 1_555 1_555
H18 C16 1_555 1_555
C17 C16 1_555 1_555
H19 C17 1_555 1_555
C18 C13 1_555 1_555
H20 C18 1_555 1_555
N1 C1 1_555 1_555
H21 N1 1_555 1_555
N2 C10 1_555 1_555
O1 C3 1_555 1_555
O2 C3 1_555 1_555
O3 C7 1_555 1_555
O4 N2 1_555 1_555
O5 N2 1_555 1_555
O6 C13 1_555 1_555
O7 P1 1_555 1_555
P1 N1 1_555 1_555
C19 H22 1_555 1_555
C20 C19 1_555 1_555
H23 C20 1_555 1_555
H24 C20 1_555 1_555
H25 C20 1_555 1_555
C21 C19 1_555 1_555
C22 H26 1_555 1_555
C23 C22 1_555 1_555
H27 C23 1_555 1_555
H28 C23 1_555 1_555
H29 C23 1_555 1_555
C24 C22 1_555 1_555
H30 C24 1_555 1_555
H31 C24 1_555 1_555
H32 C24 1_555 1_555
C25 C26 1_555 1_555
C26 H33 1_555 1_555
C27 C26 1_555 1_555
H34 C27 1_555 1_555
C28 C27 1_555 1_555
C29 C28 1_555 1_555
H35 C29 1_555 1_555
C30 C25 1_555 1_555
H36 C30 1_555 1_555
C31 C32 1_555 1_555
C32 H37 1_555 1_555
C33 C32 1_555 1_555
H38 C33 1_555 1_555
C34 C33 1_555 1_555
H39 C34 1_555 1_555
C35 C34 1_555 1_555
H40 C35 1_555 1_555
C36 C31 1_555 1_555
H41 C36 1_555 1_555
N3 C19 1_555 1_555
H42 N3 1_555 1_555
N4 C28 1_555 1_555
O8 C21 1_555 1_555
O9 C21 1_555 1_555
O10 C25 1_555 1_555
O11 N4 1_555 1_555
O12 N4 1_555 1_555
O13 C31 1_555 1_555
O14 P2 1_555 1_555
P2 N3 1_555 1_555
C4 O1 1_555 1_555
C11 C12 1_555 1_555
C17 C18 1_555 1_555
O3 P1 1_555 1_555
O6 P1 1_555 1_555
C22 O8 1_555 1_555
C29 C30 1_555 1_555
C35 C36 1_555 1_555
O10 P2 1_555 1_555
O13 P2 1_555 1_555

#END
