
#######################################################################
#
#                 Cambridge Crystallographic Data Centre
#                                CCDC 
#
#######################################################################
#
# If this CIF has been generated from an entry in the Cambridge 
# Structural Database, then it will include bibliographic, chemical, 
# crystal, experimental, refinement or atomic coordinate data resulting 
# from the CCDC's data processing and validation procedures.
#
#######################################################################

data_UCIXUB01
_chemical_name_common            
'(2S)-Isopropyl 2-((4-nitrophenoxy)(phenoxy)phosphorylamino)propanoate'
_chemical_formula_moiety         'C18 H21 N2 O7 P1'
_chemical_name_systematic        
'Isopropyl N-((4-nitrophenoxy)(phenoxy)phosphoryl)alaninate'
_symmetry_cell_setting           monoclinic
_symmetry_space_group_name_H-M   'P 21'
_symmetry_Int_Tables_number      4
_space_group_name_Hall           'P 2yb'
loop_
_symmetry_equiv_pos_site_id
_symmetry_equiv_pos_as_xyz
1 x,y,z
2 -x,1/2+y,-z
_cell_length_a                   5.3347
_cell_length_b                   15.3094
_cell_length_c                   23.775
_cell_angle_alpha                90
_cell_angle_beta                 93.084
_cell_angle_gamma                90
_cell_volume                     1938.92
_cell_formula_units_Z            4
loop_
_atom_site_label
_atom_site_type_symbol
_atom_site_fract_x
_atom_site_fract_y
_atom_site_fract_z
P1 P 0.397119 0.73436 0.311493
O1 O 0.648182 0.6961 0.306195
O2 O 0.351748 0.8245 0.278026
O3 O 0.335811 0.7759 0.37023
O4 O 0.091923 0.6843 0.178896
O5 O 0.231637 0.5486 0.164806
O6 O 0.447588 0.9926 0.040967
O7 O 0.800201 0.9191 0.047734
N1 N 0.172487 0.6673 0.294595
H1 H 0.024383 0.6773 0.307843
N2 N 0.594709 0.9417 0.066098
C1 C 0.199854 0.5912 0.258809
H2 H 0.37152 0.5663 0.266366
C2 C 0.168838 0.6156 0.196915
C3 C 0.005600 0.5219 0.272818
H3 H 0.029518 0.5054 0.312602
H4 H 0.026689 0.4703 0.24916
H5 H -0.163779 0.5457 0.265635
C4 C 0.207166 0.5591 0.103144
H6 H 0.075574 0.6034 0.092388
C5 C 0.133699 0.4703 0.079931
H7 H 0.255378 0.4266 0.094323
H8 H 0.131919 0.4717 0.038774
H9 H -0.033806 0.4549 0.091808
C6 C 0.46114 0.5884 0.084995
H10 H 0.506129 0.6441 0.10313
H11 H 0.454505 0.5957 0.043997
H12 H 0.587602 0.5443 0.096014
C7 C 0.412516 0.8445 0.223284
C8 C 0.616877 0.8093 0.197702
H13 H 0.71595 0.7647 0.215682
C9 C 0.672665 0.8412 0.145099
H14 H 0.810714 0.8183 0.126147
C10 C 0.526533 0.9058 0.120759
C11 C 0.317506 0.9381 0.144791
H15 H 0.214234 0.9807 0.125958
C12 C 0.261423 0.9074 0.196996
H16 H 0.119449 0.9292 0.21499
C13 C 0.349988 0.7231 0.420195
C14 C 0.557364 0.7354 0.456747
H17 H 0.687686 0.7744 0.447632
C15 C 0.570386 0.6891 0.50731
H18 H 0.712326 0.6949 0.532905
C16 C 0.37378 0.6343 0.519841
H19 H 0.380248 0.6028 0.554313
C17 C 0.169398 0.6256 0.482449
H20 H 0.035790 0.5881 0.491604
C18 C 0.153716 0.6702 0.431618
H21 H 0.012250 0.6641 0.405916
P2 P 0.870958 0.15196 0.189163
O8 O 1.11781 0.1926 0.193387
O9 O 0.851416 0.0599 0.220104
O10 O 0.785041 0.1142 0.12902
O11 O 0.615916 0.2204 0.324464
O12 O 0.570789 0.3671 0.321166
O13 O 1.43746 -0.0459 0.444153
O14 O 1.07742 -0.1087 0.456359
N3 N 0.648413 0.2149 0.208869
H22 H 0.493072 0.1972 0.201515
N4 N 1.21489 -0.0616 0.429178
C19 C 0.682955 0.2981 0.237576
H23 H 0.864301 0.3144 0.23678
C20 C 0.618726 0.2891 0.29912
C21 C 0.529824 0.3682 0.205287
H24 H 0.602717 0.379 0.169048
H25 H 0.532518 0.4223 0.227351
H26 H 0.356157 0.3482 0.198959
C22 C 0.520136 0.3708 0.382274
H27 H 0.641 0.3327 0.404509
C23 C 0.251752 0.3402 0.389048
H28 H 0.134908 0.3793 0.368169
H29 H 0.21591 0.341 0.429055
H30 H 0.23167 0.2807 0.374427
C24 C 0.561263 0.465 0.398045
H31 H 0.7385 0.4799 0.394688
H32 H 0.515153 0.4742 0.436871
H33 H 0.457027 0.5021 0.372695
C25 C 0.937834 0.0401 0.275259
C26 C 1.16584 0.0714 0.298303
H34 H 1.25819 0.114 0.279103
C27 C 1.25496 0.0391 0.349749
H35 H 1.4083 0.0598 0.36707
C28 C 1.11615 -0.024 0.375539
C29 C 0.887345 -0.053 0.35371
H36 H 0.791899 -0.0942 0.373349
C30 C 0.800514 -0.0202 0.301834
H37 H 0.645107 -0.0399 0.28504
C31 C 0.796222 0.1702 0.081529
C32 C 0.986615 0.1562 0.045169
H38 H 1.10721 0.1113 0.052141
C33 C 0.996111 0.2098 -0.001850
H39 H 1.12479 0.2013 -0.027417
C34 C 0.819914 0.2756 -0.012065
H40 H 0.829774 0.3129 -0.043822
C35 C 0.630314 0.2859 0.024687
H41 H 0.508345 0.3304 0.017832
C36 C 0.61437 0.2322 0.071885
H42 H 0.481174 0.2386 0.096503
loop_
_geom_bond_atom_site_label_1
_geom_bond_atom_site_label_2
_geom_bond_site_symmetry_1
_geom_bond_site_symmetry_2
P1 O1 1_555 1_555
O2 P1 1_555 1_555
O3 P1 1_555 1_555
O4 C2 1_555 1_555
O5 C2 1_555 1_555
O6 N2 1_555 1_555
O7 N2 1_555 1_555
N1 P1 1_555 1_555
H1 N1 1_555 1_555
N2 C10 1_555 1_555
C1 N1 1_555 1_555
H2 C1 1_555 1_555
C2 C1 1_555 1_555
C3 C1 1_555 1_555
H3 C3 1_555 1_555
H4 C3 1_555 1_555
H5 C3 1_555 1_555
C4 O5 1_555 1_555
H6 C4 1_555 1_555
C5 C4 1_555 1_555
H7 C5 1_555 1_555
H8 C5 1_555 1_555
H9 C5 1_555 1_555
C6 C4 1_555 1_555
H10 C6 1_555 1_555
H11 C6 1_555 1_555
H12 C6 1_555 1_555
C7 O2 1_555 1_555
C8 C7 1_555 1_555
H13 C8 1_555 1_555
C9 C8 1_555 1_555
H14 C9 1_555 1_555
C10 C9 1_555 1_555
C11 C10 1_555 1_555
H15 C11 1_555 1_555
C12 C7 1_555 1_555
H16 C12 1_555 1_555
C13 O3 1_555 1_555
C14 C13 1_555 1_555
H17 C14 1_555 1_555
C15 C14 1_555 1_555
H18 C15 1_555 1_555
C16 C15 1_555 1_555
H19 C16 1_555 1_555
C17 C16 1_555 1_555
H20 C17 1_555 1_555
C18 C13 1_555 1_555
H21 C18 1_555 1_555
P2 O8 1_555 1_555
O9 P2 1_555 1_555
O10 P2 1_555 1_555
O11 C20 1_555 1_555
O12 C20 1_555 1_555
O13 N4 1_555 1_555
O14 N4 1_555 1_555
N3 P2 1_555 1_555
H22 N3 1_555 1_555
N4 C28 1_555 1_555
C19 N3 1_555 1_555
H23 C19 1_555 1_555
C20 C19 1_555 1_555
C21 C19 1_555 1_555
H24 C21 1_555 1_555
H25 C21 1_555 1_555
H26 C21 1_555 1_555
C22 O12 1_555 1_555
H27 C22 1_555 1_555
C23 C22 1_555 1_555
H28 C23 1_555 1_555
H29 C23 1_555 1_555
H30 C23 1_555 1_555
C24 C22 1_555 1_555
H31 C24 1_555 1_555
H32 C24 1_555 1_555
H33 C24 1_555 1_555
C25 O9 1_555 1_555
C26 C25 1_555 1_555
H34 C26 1_555 1_555
C27 C26 1_555 1_555
H35 C27 1_555 1_555
C28 C27 1_555 1_555
C29 C28 1_555 1_555
H36 C29 1_555 1_555
C30 C25 1_555 1_555
H37 C30 1_555 1_555
C31 O10 1_555 1_555
C32 C31 1_555 1_555
H38 C32 1_555 1_555
C33 C32 1_555 1_555
H39 C33 1_555 1_555
C34 C33 1_555 1_555
H40 C34 1_555 1_555
C35 C34 1_555 1_555
H41 C35 1_555 1_555
C36 C31 1_555 1_555
H42 C36 1_555 1_555
C11 C12 1_555 1_555
C17 C18 1_555 1_555
C29 C30 1_555 1_555
C35 C36 1_555 1_555

#END
