
#######################################################################
#
#                 Cambridge Crystallographic Data Centre
#                                CCDC 
#
#######################################################################
#
# If this CIF has been generated from an entry in the Cambridge 
# Structural Database, then it will include bibliographic, chemical, 
# crystal, experimental, refinement or atomic coordinate data resulting 
# from the CCDC's data processing and validation procedures.
#
#######################################################################

data_UCIXOU
_chemical_formula_moiety         'C33 H29 N3 O2 S1'
_chemical_name_systematic        
"Ethyl 1,3-dibenzyl-1'-phenyl-2',3'-dihydrospiro(benzimidazoline-2,3'-pyrrole)-2'-thione-4'-carboxylate"
_symmetry_cell_setting           triclinic
_symmetry_space_group_name_H-M   'P -1'
_symmetry_Int_Tables_number      2
_space_group_name_Hall           '-P 1'
loop_
_symmetry_equiv_pos_site_id
_symmetry_equiv_pos_as_xyz
1 x,y,z
2 -x,-y,-z
_cell_length_a                   9.7945(18)
_cell_length_b                   10.295(2)
_cell_length_c                   14.282(2)
_cell_angle_alpha                70.912(2)
_cell_angle_beta                 88.222(3)
_cell_angle_gamma                89.992(3)
_cell_volume                     1360.2
_chemical_melting_point          162-163deg.C
_cell_formula_units_Z            2
loop_
_atom_site_label
_atom_site_type_symbol
_atom_site_fract_x
_atom_site_fract_y
_atom_site_fract_z
S1 S 0.99583(7) 0.61539(8) 0.11193(6)
N1 N 0.73574(19) 0.57045(19) 0.27617(14)
N2 N 0.73521(19) 0.39840(19) 0.20908(15)
N3 N 0.76196(19) 0.7056(2) 0.02201(14)
O1 O 0.35472(19) 0.5716(2) 0.10600(14)
O2 O 0.43216(17) 0.5027(2) 0.25874(13)
C1 C 0.7206(2) 0.5467(2) 0.18155(17)
C2 C 0.8019(2) 0.4576(2) 0.34039(17)
C3 C 0.8604(2) 0.4400(3) 0.42926(18)
H1 H 0.8625 0.5109 0.4562
C4 C 0.9166(3) 0.3124(3) 0.4781(2)
H2 H 0.9577 0.2982 0.5385
C5 C 0.9125(3) 0.2077(3) 0.4391(2)
H3 H 0.9501 0.1233 0.4737
C6 C 0.8528(3) 0.2252(3) 0.3482(2)
H4 H 0.8496 0.1538 0.3218
C7 C 0.7992(2) 0.3511(2) 0.29939(18)
C8 C 0.8313(2) 0.6269(2) 0.10126(18)
C9 C 0.6206(2) 0.6830(2) 0.03851(19)
H5 H 0.5561 0.7236 -0.0084
C10 C 0.5894(2) 0.5972(2) 0.12844(18)
C11 C 0.7615(2) 0.7085(2) 0.27798(19)
H6 H 0.7331 0.7739 0.2160
H7 H 0.8591 0.7206 0.2822
C12 C 0.6895(2) 0.7409(2) 0.36242(18)
C13 C 0.7408(3) 0.8433(3) 0.3946(2)
H8 H 0.8234 0.8860 0.3678
C14 C 0.6711(3) 0.8830(3) 0.4661(2)
H9 H 0.7063 0.9532 0.4862
C15 C 0.5514(3) 0.8202(3) 0.5074(2)
H10 H 0.5047 0.8475 0.5554
C16 C 0.4999(3) 0.7166(3) 0.4780(2)
H11 H 0.4185 0.6727 0.5065
C17 C 0.5692(3) 0.6771(3) 0.4057(2)
H12 H 0.5338 0.6065 0.3861
C18 C 0.7577(3) 0.3363(3) 0.13222(19)
H13 H 0.8533 0.3124 0.1304
H14 H 0.7381 0.4036 0.0686
C19 C 0.6715(2) 0.2089(2) 0.14636(19)
C20 C 0.5692(3) 0.1665(3) 0.2183(2)
H15 H 0.5520 0.2158 0.2615
C21 C 0.4915(3) 0.0501(3) 0.2266(3)
H16 H 0.4236 0.0207 0.2761
C22 C 0.5145(3) -0.0212(3) 0.1620(3)
H17 H 0.4615 -0.0983 0.1669
C23 C 0.6149(3) 0.0210(3) 0.0908(3)
H18 H 0.6301 -0.0274 0.0468
C24 C 0.6944(3) 0.1344(3) 0.0826(2)
H19 H 0.7639 0.1611 0.0341
C25 C 0.8191(2) 0.7988(3) -0.0688(2)
C26 C 0.8748(3) 0.9208(3) -0.0706(2)
H20 H 0.8827 0.9420 -0.0125
C27 C 0.9196(4) 1.0132(4) -0.1613(3)
H21 H 0.9586 1.0967 -0.1639
C28 C 0.9070(3) 0.9825(4) -0.2458(3)
H22 H 0.9346 1.0460 -0.3064
C29 C 0.8542(4) 0.8597(5) -0.2421(3)
H23 H 0.8475 0.8382 -0.3002
C30 C 0.8098(3) 0.7655(3) -0.1528(2)
H24 H 0.7743 0.6806 -0.1503
C31 C 0.4481(3) 0.5563(3) 0.1612(2)
C32 C 0.2918(3) 0.4764(4) 0.2987(2)
H25 H 0.2913 0.4062 0.3635
H26 H 0.2379 0.4427 0.2555
C33 C 0.2301(3) 0.6040(5) 0.3073(3)
H27 H 0.2834 0.6371 0.3503
H28 H 0.1385 0.5847 0.3343
H29 H 0.2285 0.6726 0.2429
loop_
_geom_bond_atom_site_label_1
_geom_bond_atom_site_label_2
_geom_bond_site_symmetry_1
_geom_bond_site_symmetry_2
S1 C8 1_555 1_555
N1 C1 1_555 1_555
N2 C1 1_555 1_555
N3 C8 1_555 1_555
O1 C31 1_555 1_555
O2 C31 1_555 1_555
C1 C8 1_555 1_555
C2 N1 1_555 1_555
C3 C2 1_555 1_555
H1 C3 1_555 1_555
C4 C3 1_555 1_555
H2 C4 1_555 1_555
C5 C4 1_555 1_555
H3 C5 1_555 1_555
C6 C5 1_555 1_555
H4 C6 1_555 1_555
C7 N2 1_555 1_555
C9 N3 1_555 1_555
H5 C9 1_555 1_555
C10 C1 1_555 1_555
C11 N1 1_555 1_555
H6 C11 1_555 1_555
H7 C11 1_555 1_555
C12 C11 1_555 1_555
C13 C12 1_555 1_555
H8 C13 1_555 1_555
C14 C13 1_555 1_555
H9 C14 1_555 1_555
C15 C14 1_555 1_555
H10 C15 1_555 1_555
C16 C15 1_555 1_555
H11 C16 1_555 1_555
C17 C12 1_555 1_555
H12 C17 1_555 1_555
C18 N2 1_555 1_555
H13 C18 1_555 1_555
H14 C18 1_555 1_555
C19 C18 1_555 1_555
C20 C19 1_555 1_555
H15 C20 1_555 1_555
C21 C20 1_555 1_555
H16 C21 1_555 1_555
C22 C21 1_555 1_555
H17 C22 1_555 1_555
C23 C22 1_555 1_555
H18 C23 1_555 1_555
C24 C19 1_555 1_555
H19 C24 1_555 1_555
C25 N3 1_555 1_555
C26 C25 1_555 1_555
H20 C26 1_555 1_555
C27 C26 1_555 1_555
H21 C27 1_555 1_555
C28 C27 1_555 1_555
H22 C28 1_555 1_555
C29 C28 1_555 1_555
H23 C29 1_555 1_555
C30 C25 1_555 1_555
H24 C30 1_555 1_555
C31 C10 1_555 1_555
C32 O2 1_555 1_555
H25 C32 1_555 1_555
H26 C32 1_555 1_555
C33 C32 1_555 1_555
H27 C33 1_555 1_555
H28 C33 1_555 1_555
H29 C33 1_555 1_555
C2 C7 1_555 1_555
C6 C7 1_555 1_555
C9 C10 1_555 1_555
C16 C17 1_555 1_555
C23 C24 1_555 1_555
C29 C30 1_555 1_555

#END
