
#######################################################################
#
#                 Cambridge Crystallographic Data Centre
#                                CCDC 
#
#######################################################################
#
# If this CIF has been generated from an entry in the Cambridge 
# Structural Database, then it will include bibliographic, chemical, 
# crystal, experimental, refinement or atomic coordinate data resulting 
# from the CCDC's data processing and validation procedures.
#
#######################################################################

data_UCIXIO
_chemical_formula_moiety         'C24 H33 N3 O4 S1'
_chemical_name_systematic        
"Dimethyl 1,3-di-t-butyl-2'-phenylimino-2',3'-dihydrospiro(imidazolidine-2,3'-thiophene)-4',5'-dicarboxylate"
_symmetry_cell_setting           triclinic
_symmetry_space_group_name_H-M   'P -1'
_symmetry_Int_Tables_number      2
_space_group_name_Hall           '-P 1'
loop_
_symmetry_equiv_pos_site_id
_symmetry_equiv_pos_as_xyz
1 x,y,z
2 -x,-y,-z
_cell_length_a                   10.097(2)
_cell_length_b                   10.422(2)
_cell_length_c                   13.951(3)
_cell_angle_alpha                73.04(3)
_cell_angle_beta                 69.53(3)
_cell_angle_gamma                66.32(3)
_cell_volume                     1239.85
_exptl_crystal_colour            'pale yellow'
_chemical_melting_point          '359-360 K'
_cell_formula_units_Z            2
_exptl_crystal_recrystallization_method 'ethyl acetate/n-butane'
loop_
_atom_site_label
_atom_site_type_symbol
_atom_site_fract_x
_atom_site_fract_y
_atom_site_fract_z
S1 S 0.28314(8) -0.00847(6) 0.13854(5)
O1 O 0.5669(3) -0.1549(3) 0.3835(2)
O2 O 0.3363(3) -0.1230(3) 0.48288(14)
O3 O 0.3530(3) 0.1619(2) 0.32524(17)
O4 O 0.2761(3) 0.24523(19) 0.18133(15)
N1 N 0.5169(3) -0.3644(2) 0.27487(16)
N2 N 0.2730(3) -0.3158(2) 0.37204(16)
N3 N 0.2923(2) -0.2747(2) 0.14366(15)
C1 C 0.4923(5) -0.4979(3) 0.3271(3)
H1 H 0.4920 -0.5468 0.2778
H2 H 0.5707 -0.5590 0.3613
C2 C 0.3505(5) -0.4631(4) 0.4014(3)
H3 H 0.3635 -0.4815 0.4704
H4 H 0.2941 -0.5200 0.4019
C3 C 0.3712(3) -0.2503(2) 0.28427(17)
C4 C 0.3781(3) -0.1195(2) 0.30747(17)
C5 C 0.3335(3) 0.0026(2) 0.24408(17)
C6 C 0.3144(3) -0.1942(2) 0.18410(16)
C7 C 0.6521(3) -0.3681(3) 0.1869(2)
C8 C 0.7884(4) -0.4510(5) 0.2314(4)
H5 H 0.7856 -0.5448 0.2650
H6 H 0.7860 -0.4022 0.2809
H7 H 0.8789 -0.4580 0.1761
C9 C 0.6629(4) -0.2224(4) 0.1369(3)
H8 H 0.5825 -0.1681 0.1045
H9 H 0.7572 -0.2313 0.0854
H10 H 0.6557 -0.1749 0.1889
C10 C 0.6619(5) -0.4431(5) 0.1032(3)
H11 H 0.6542 -0.5357 0.1349
H12 H 0.7562 -0.4525 0.0516
H13 H 0.5815 -0.3877 0.0711
C11 C 0.1090(4) -0.2589(4) 0.4125(2)
C12 C 0.0719(5) -0.2964(5) 0.5309(2)
H14 H -0.0350 -0.2652 0.5593
H15 H 0.1148 -0.2501 0.5562
H16 H 0.1126 -0.3976 0.5516
C13 C 0.0314(5) -0.3252(6) 0.3734(3)
H17 H 0.0647 -0.3129 0.2990
H18 H -0.0752 -0.2794 0.3947
H19 H 0.0560 -0.4249 0.4022
C14 C 0.0467(4) -0.0984(4) 0.3849(3)
H20 H 0.0744 -0.0698 0.3108
H21 H 0.0868 -0.0564 0.4162
H22 H -0.0606 -0.0671 0.4104
C15 C 0.4383(3) -0.1357(3) 0.3955(2)
C16 C 0.3803(6) -0.1257(5) 0.5711(3)
H23 H 0.2963 -0.1196 0.6315
H24 H 0.4136 -0.0464 0.5580
H25 H 0.4605 -0.2128 0.5827
C17 C 0.3234(3) 0.1427(3) 0.25643(19)
C18 C 0.2599(5) 0.3876(3) 0.1868(3)
H26 H 0.2330 0.4522 0.1263
H27 H 0.3532 0.3885 0.1897
H28 H 0.1830 0.4166 0.2480
C19 C 0.2441(3) -0.2215(2) 0.05110(18)
C20 C 0.1110(3) -0.2297(3) 0.0521(2)
H29 H 0.0522 -0.2663 0.1134
C21 C 0.0650(4) -0.1838(4) -0.0374(3)
H30 H -0.0255 -0.1891 -0.0360
C22 C 0.1497(4) -0.1305(4) -0.1286(2)
H31 H 0.1169 -0.0993 -0.1886
C23 C 0.2833(4) -0.1234(4) -0.1308(2)
H32 H 0.3420 -0.0880 -0.1927
C24 C 0.3309(3) -0.1687(4) -0.0412(2)
H33 H 0.4217 -0.1638 -0.0430
loop_
_geom_bond_atom_site_label_1
_geom_bond_atom_site_label_2
_geom_bond_site_symmetry_1
_geom_bond_site_symmetry_2
S1 C5 1_555 1_555
O1 C15 1_555 1_555
O2 C15 1_555 1_555
O3 C17 1_555 1_555
O4 C17 1_555 1_555
N1 C1 1_555 1_555
N2 C2 1_555 1_555
N3 C6 1_555 1_555
C1 H1 1_555 1_555
H2 C1 1_555 1_555
C2 C1 1_555 1_555
H3 C2 1_555 1_555
H4 C2 1_555 1_555
C3 N1 1_555 1_555
C4 C3 1_555 1_555
C5 C4 1_555 1_555
C6 S1 1_555 1_555
C7 N1 1_555 1_555
C8 C7 1_555 1_555
H5 C8 1_555 1_555
H6 C8 1_555 1_555
H7 C8 1_555 1_555
C9 C7 1_555 1_555
H8 C9 1_555 1_555
H9 C9 1_555 1_555
H10 C9 1_555 1_555
C10 C7 1_555 1_555
H11 C10 1_555 1_555
H12 C10 1_555 1_555
H13 C10 1_555 1_555
C11 N2 1_555 1_555
C12 C11 1_555 1_555
H14 C12 1_555 1_555
H15 C12 1_555 1_555
H16 C12 1_555 1_555
C13 C11 1_555 1_555
H17 C13 1_555 1_555
H18 C13 1_555 1_555
H19 C13 1_555 1_555
C14 C11 1_555 1_555
H20 C14 1_555 1_555
H21 C14 1_555 1_555
H22 C14 1_555 1_555
C15 C4 1_555 1_555
C16 O2 1_555 1_555
H23 C16 1_555 1_555
H24 C16 1_555 1_555
H25 C16 1_555 1_555
C17 C5 1_555 1_555
C18 O4 1_555 1_555
H26 C18 1_555 1_555
H27 C18 1_555 1_555
H28 C18 1_555 1_555
C19 N3 1_555 1_555
C20 C19 1_555 1_555
H29 C20 1_555 1_555
C21 C20 1_555 1_555
H30 C21 1_555 1_555
C22 C21 1_555 1_555
H31 C22 1_555 1_555
C23 C22 1_555 1_555
H32 C23 1_555 1_555
C24 C19 1_555 1_555
H33 C24 1_555 1_555
N2 C3 1_555 1_555
C3 C6 1_555 1_555
C23 C24 1_555 1_555

#END
