
#######################################################################
#
#                 Cambridge Crystallographic Data Centre
#                                CCDC 
#
#######################################################################
#
# If this CIF has been generated from an entry in the Cambridge 
# Structural Database, then it will include bibliographic, chemical, 
# crystal, experimental, refinement or atomic coordinate data resulting 
# from the CCDC's data processing and validation procedures.
#
#######################################################################

data_UCOCAT
_chemical_formula_moiety         'C55 H50 N2 O7,C2 H2 Cl4'
_chemical_name_systematic        
'1-((7-((9,10-dioxo-9,10-dihydroanthracen-1-yl)ethynyl)-5,6-bis(octyloxy)-2-oxo-2,3-dihydro-1H-benzimidazol-4-yl)ethynyl)-9,10-anthraquinone 1,1,2,2-tetrachloroethane solvate'
_symmetry_cell_setting           monoclinic
_symmetry_space_group_name_H-M   'P 21/n'
_symmetry_Int_Tables_number      14
_space_group_name_Hall           '-P 2yn'
loop_
_symmetry_equiv_pos_site_id
_symmetry_equiv_pos_as_xyz
1 x,y,z
2 1/2-x,1/2+y,1/2-z
3 -x,-y,-z
4 1/2+x,1/2-y,1/2+z
_cell_length_a                   11.5586(7)
_cell_length_b                   37.6596(19)
_cell_length_c                   12.2407(7)
_cell_angle_alpha                90
_cell_angle_beta                 110.032(4)
_cell_angle_gamma                90
_cell_volume                     5005.93
_exptl_crystal_colour            red
_exptl_crystal_description       plate
_cell_formula_units_Z            4
loop_
_atom_site_label
_atom_site_type_symbol
_atom_site_fract_x
_atom_site_fract_y
_atom_site_fract_z
Cl1 Cl 0.6222(2) 0.88959(5) 0.7360(2)
Cl2 Cl 0.5167(3) 0.93757(6) 0.5305(3)
Cl3 Cl 0.8176(2) 0.93179(6) 0.6620(3)
Cl4 Cl 0.6986(3) 0.90141(6) 0.4198(2)
C1 C 0.6028(10) 0.8978(2) 0.5706(13)
H1 H 0.5595 0.8774 0.5208
C2 C 0.7172(10) 0.8972(2) 0.5872(13)
H2 H 0.7528 0.8736 0.6182
O1 O 0.6468(4) 0.82449(12) 0.5479(4)
O2 O 0.9437(4) 0.78964(12) 0.4630(4)
O3 O 1.3387(5) 0.80680(12) 0.3338(4)
O4 O 0.3625(4) 0.78276(12) 0.6358(4)
O5 O -0.0349(5) 0.79358(12) 0.7626(4)
O6 O 0.7685(4) 0.64131(11) 0.5101(4)
O7 O 0.5650(4) 0.63852(11) 0.5842(4)
N1 N 0.5669(5) 0.76891(14) 0.5664(5)
H3 H 0.5010 0.7755 0.5817
N2 N 0.7353(5) 0.77064(13) 0.5230(5)
H4 H 0.7989 0.7785 0.5061
C3 C 0.6010(6) 0.73401(17) 0.5588(6)
C4 C 0.7075(6) 0.73518(18) 0.5294(6)
C5 C 0.7642(6) 0.70457(17) 0.5106(6)
C6 C 0.7125(6) 0.67199(17) 0.5297(6)
C7 C 0.6087(6) 0.67104(17) 0.5609(6)
C8 C 0.5505(6) 0.70251(17) 0.5781(6)
C9 C 0.6504(6) 0.7920(2) 0.5467(6)
C10 C 0.8689(7) 0.70800(17) 0.4752(6)
C11 C 0.9509(7) 0.71823(17) 0.4448(6)
C12 C 1.0515(6) 0.72655(17) 0.4063(6)
C13 C 1.0930(6) 0.76179(17) 0.3974(6)
C14 C 1.1947(6) 0.76666(18) 0.3631(6)
C15 C 1.2540(6) 0.73802(18) 0.3361(6)
H5 H 1.3244 0.7418 0.3144
C16 C 1.2122(6) 0.70372(19) 0.3401(6)
H6 H 1.2513 0.6842 0.3180
C17 C 1.1129(6) 0.69827(18) 0.3767(6)
H7 H 1.0859 0.6747 0.3818
C18 C 1.0281(6) 0.79263(18) 0.4238(6)
C19 C 1.0711(6) 0.82875(17) 0.4066(6)
C20 C 1.1766(6) 0.83373(18) 0.3773(6)
C21 C 1.2447(7) 0.80316(19) 0.3570(6)
C22 C 1.0062(7) 0.85821(18) 0.4227(6)
H8 H 0.9332 0.8549 0.4406
C23 C 1.0461(7) 0.89198(19) 0.4129(6)
H9 H 1.0011 0.9119 0.4242
C24 C 1.1535(7) 0.89684(19) 0.3861(6)
H10 H 1.1822 0.9201 0.3800
C25 C 1.2175(7) 0.86787(18) 0.3687(6)
H11 H 1.2903 0.8713 0.3505
C26 C 0.4470(7) 0.70300(17) 0.6162(6)
C27 C 0.3631(7) 0.71147(17) 0.6473(6)
C28 C 0.2620(6) 0.71780(18) 0.6878(6)
C29 C 0.2048(6) 0.68846(19) 0.7162(6)
H12 H 0.2350 0.6654 0.7097
C30 C 0.1057(6) 0.69186(18) 0.7536(6)
H13 H 0.0702 0.6715 0.7756
C31 C 0.0584(6) 0.72563(18) 0.7587(6)
H14 H -0.0124 0.7282 0.7807
C32 C 0.1135(6) 0.75530(18) 0.7320(6)
C33 C 0.2174(6) 0.75228(17) 0.6977(6)
C34 C 0.0599(6) 0.79096(17) 0.7408(6)
C35 C 0.1247(6) 0.82291(17) 0.7225(6)
C36 C 0.2310(7) 0.81996(18) 0.6935(6)
C37 C 0.2765(6) 0.78454(17) 0.6733(6)
C38 C 0.0809(7) 0.85685(19) 0.7353(6)
H15 H 0.0079 0.8591 0.7539
C39 C 0.1415(7) 0.88666(19) 0.7213(7)
H16 H 0.1111 0.9095 0.7303
C40 C 0.2484(7) 0.88335(18) 0.6939(6)
H17 H 0.2919 0.9041 0.6862
C41 C 0.2924(7) 0.85010(18) 0.6774(6)
H18 H 0.3634 0.8481 0.6556
C42 C 0.8382(7) 0.62249(18) 0.6156(6)
H19 H 0.7864 0.6039 0.6331
H20 H 0.8655 0.6392 0.6821
C43 C 0.9483(7) 0.6058(2) 0.5962(7)
H21 H 0.9998 0.6249 0.5812
H22 H 0.9983 0.5935 0.6684
C44 C 0.9165(7) 0.57971(18) 0.4968(7)
H23 H 0.8691 0.5922 0.4241
H24 H 0.8628 0.5610 0.5104
C45 C 1.0284(7) 0.5622(2) 0.4809(7)
H25 H 1.0818 0.5810 0.4669
H26 H 1.0761 0.5499 0.5540
C46 C 0.9970(7) 0.53575(19) 0.3817(7)
H27 H 0.9414 0.5174 0.3944
H28 H 0.9517 0.5482 0.3082
C47 C 1.1081(7) 0.51763(19) 0.3688(7)
H29 H 1.1544 0.5056 0.4428
H30 H 1.1628 0.5359 0.3543
C48 C 1.0767(7) 0.4905(2) 0.2710(7)
H31 H 1.0244 0.4717 0.2865
H32 H 1.0286 0.5022 0.1970
C49 C 1.1903(8) 0.4735(2) 0.2579(8)
H33 H 1.1658 0.4531 0.2053
H34 H 1.2455 0.4656 0.3342
H35 H 1.2330 0.4909 0.2259
C50 C 0.4712(7) 0.6230(2) 0.4870(7)
H36 H 0.5089 0.6108 0.4360
H37 H 0.4154 0.6417 0.4410
C51 C 0.4007(8) 0.5972(2) 0.5320(9)
H38 H 0.3314 0.5880 0.4652
H39 H 0.3648 0.6101 0.5832
C52 C 0.4721(8) 0.5659(2) 0.5987(8)
H40 H 0.5490 0.5744 0.6581
H41 H 0.4949 0.5500 0.5448
C53 C 0.3940(8) 0.5442(2) 0.6604(9)
H42 H 0.3691 0.5603 0.7123
H43 H 0.3182 0.5352 0.6006
C54 C 0.4632(9) 0.5142(2) 0.7286(9)
H44 H 0.5376 0.5234 0.7899
H45 H 0.4907 0.4986 0.6770
C55 C 0.3892(8) 0.4924(2) 0.7849(8)
H46 H 0.3190 0.4818 0.7221
H47 H 0.4418 0.4726 0.8273
C56 C 0.3386(8) 0.5109(2) 0.8678(8)
H48 H 0.4062 0.5241 0.9257
H49 H 0.2762 0.5285 0.8239
C57 C 0.2811(8) 0.4863(2) 0.9307(8)
H50 H 0.2122 0.4737 0.8743
H51 H 0.2509 0.5000 0.9835
H52 H 0.3426 0.4691 0.9756
loop_
_geom_bond_atom_site_label_1
_geom_bond_atom_site_label_2
_geom_bond_site_symmetry_1
_geom_bond_site_symmetry_2
Cl1 C1 1_555 1_555
Cl2 C1 1_555 1_555
Cl3 C2 1_555 1_555
Cl4 C2 1_555 1_555
C1 H1 1_555 1_555
C2 C1 1_555 1_555
H2 C2 1_555 1_555
O1 C9 1_555 1_555
O2 C18 1_555 1_555
O3 C21 1_555 1_555
O4 C37 1_555 1_555
O5 C34 1_555 1_555
O6 C6 1_555 1_555
O7 C7 1_555 1_555
N1 H3 1_555 1_555
N2 H4 1_555 1_555
C3 N1 1_555 1_555
C4 N2 1_555 1_555
C5 C4 1_555 1_555
C6 C5 1_555 1_555
C7 C6 1_555 1_555
C8 C3 1_555 1_555
C9 N1 1_555 1_555
C10 C5 1_555 1_555
C11 C10 1_555 1_555
C12 C11 1_555 1_555
C13 C12 1_555 1_555
C14 C13 1_555 1_555
C15 C14 1_555 1_555
H5 C15 1_555 1_555
C16 C15 1_555 1_555
H6 C16 1_555 1_555
C17 C12 1_555 1_555
H7 C17 1_555 1_555
C18 C13 1_555 1_555
C19 C18 1_555 1_555
C20 C19 1_555 1_555
C21 C14 1_555 1_555
C22 C19 1_555 1_555
H8 C22 1_555 1_555
C23 C22 1_555 1_555
H9 C23 1_555 1_555
C24 C23 1_555 1_555
H10 C24 1_555 1_555
C25 C20 1_555 1_555
H11 C25 1_555 1_555
C26 C8 1_555 1_555
C27 C26 1_555 1_555
C28 C27 1_555 1_555
C29 C28 1_555 1_555
H12 C29 1_555 1_555
C30 C29 1_555 1_555
H13 C30 1_555 1_555
C31 C30 1_555 1_555
H14 C31 1_555 1_555
C32 C31 1_555 1_555
C33 C28 1_555 1_555
C34 C32 1_555 1_555
C35 C34 1_555 1_555
C36 C35 1_555 1_555
C37 C33 1_555 1_555
C38 C35 1_555 1_555
H15 C38 1_555 1_555
C39 C38 1_555 1_555
H16 C39 1_555 1_555
C40 C39 1_555 1_555
H17 C40 1_555 1_555
C41 C36 1_555 1_555
H18 C41 1_555 1_555
C42 O6 1_555 1_555
H19 C42 1_555 1_555
H20 C42 1_555 1_555
C43 C42 1_555 1_555
H21 C43 1_555 1_555
H22 C43 1_555 1_555
C44 C43 1_555 1_555
H23 C44 1_555 1_555
H24 C44 1_555 1_555
C45 C44 1_555 1_555
H25 C45 1_555 1_555
H26 C45 1_555 1_555
C46 C45 1_555 1_555
H27 C46 1_555 1_555
H28 C46 1_555 1_555
C47 C46 1_555 1_555
H29 C47 1_555 1_555
H30 C47 1_555 1_555
C48 C47 1_555 1_555
H31 C48 1_555 1_555
H32 C48 1_555 1_555
C49 C48 1_555 1_555
H33 C49 1_555 1_555
H34 C49 1_555 1_555
H35 C49 1_555 1_555
C50 O7 1_555 1_555
H36 C50 1_555 1_555
H37 C50 1_555 1_555
C51 C50 1_555 1_555
H38 C51 1_555 1_555
H39 C51 1_555 1_555
C52 C51 1_555 1_555
H40 C52 1_555 1_555
H41 C52 1_555 1_555
C53 C52 1_555 1_555
H42 C53 1_555 1_555
H43 C53 1_555 1_555
C54 C53 1_555 1_555
H44 C54 1_555 1_555
H45 C54 1_555 1_555
C55 C54 1_555 1_555
H46 C55 1_555 1_555
H47 C55 1_555 1_555
C56 C55 1_555 1_555
H48 C56 1_555 1_555
H49 C56 1_555 1_555
C57 C56 1_555 1_555
H50 C57 1_555 1_555
H51 C57 1_555 1_555
H52 C57 1_555 1_555
N2 C9 1_555 1_555
C3 C4 1_555 1_555
C7 C8 1_555 1_555
C16 C17 1_555 1_555
C20 C21 1_555 1_555
C24 C25 1_555 1_555
C32 C33 1_555 1_555
C36 C37 1_555 1_555
C40 C41 1_555 1_555

#END
