
#######################################################################
#
#                 Cambridge Crystallographic Data Centre
#                                CCDC 
#
#######################################################################
#
# If this CIF has been generated from an entry in the Cambridge 
# Structural Database, then it will include bibliographic, chemical, 
# crystal, experimental, refinement or atomic coordinate data resulting 
# from the CCDC's data processing and validation procedures.
#
#######################################################################

data_UCOCUK
_chemical_formula_moiety         'C24 H54 Li2 N2 P2 Si4'
_chemical_name_systematic        
syn-(\m~2~-4,10-Dicyclohexyl-2,2,6,6,8,8,12,12-octamethyl-1,7-diaza-4,10-diphospha-2,6,8,12-tetrasiladodecane-N,N,N',N',P,P')-di-lithium
_symmetry_cell_setting           monoclinic
_symmetry_space_group_name_H-M   'P 21/a'
_symmetry_Int_Tables_number      14
_space_group_name_Hall           '-P 2yab'
loop_
_symmetry_equiv_pos_site_id
_symmetry_equiv_pos_as_xyz
1 x,y,z
2 1/2+x,1/2-y,z
3 -x,-y,-z
4 1/2-x,1/2+y,-z
_cell_length_a                   13.626(2)
_cell_length_b                   16.582(3)
_cell_length_c                   15.3033(5)
_cell_angle_alpha                90
_cell_angle_beta                 102.4279(9)
_cell_angle_gamma                90
_cell_volume                     3376.7
_exptl_crystal_description       block
_cell_formula_units_Z            4
_exptl_crystal_recrystallization_method hexanes
loop_
_atom_site_label
_atom_site_type_symbol
_atom_site_fract_x
_atom_site_fract_y
_atom_site_fract_z
P1 P 0.38617(5) 0.52459(5) 0.25618(5)
P2 P 0.05892(5) 0.38410(4) 0.27377(5)
Si1 Si 0.23376(6) 0.65879(5) 0.27466(5)
Si2 Si 0.29027(6) 0.44606(5) 0.07482(5)
Si3 Si 0.10086(6) 0.35618(5) 0.08248(5)
Si4 Si 0.04847(6) 0.56802(5) 0.29096(5)
N1 N 0.1570(2) 0.57696(13) 0.25442(14)
N2 N 0.1852(2) 0.43099(14) 0.11624(14)
C1 C 0.3706(2) 0.6264(2) 0.2955(2)
C2 C 0.3588(2) 0.5364(2) 0.1335(2)
C3 C 0.0399(2) 0.3194(2) 0.1750(2)
C4 C -0.0180(2) 0.4743(2) 0.2366(2)
C5 C 0.2091(2) 0.7312(2) 0.1782(2)
C6 C 0.2256(2) 0.7202(2) 0.3760(2)
C7 C 0.2640(3) 0.4691(2) -0.0480(2)
C8 C 0.3840(3) 0.3617(2) 0.0943(3)
C9 C -0.0081(2) 0.3910(2) -0.0097(2)
C10 C 0.1489(3) 0.2631(2) 0.0362(2)
C11 C -0.0389(2) 0.6561(2) 0.2620(2)
C12 C 0.0658(2) 0.5525(2) 0.4143(2)
C13 C 0.5230(2) 0.5037(2) 0.2886(2)
C14 C 0.5545(2) 0.4953(2) 0.3904(2)
C15 C 0.6637(3) 0.4674(2) 0.4198(2)
C16 C 0.7336(2) 0.5232(2) 0.3844(2)
C17 C 0.7023(3) 0.5337(2) 0.2837(3)
C18 C 0.5928(2) 0.5618(2) 0.2560(2)
C19 C -0.0130(2) 0.3347(2) 0.3493(2)
C20 C 0.0453(2) 0.2640(2) 0.3989(2)
C21 C -0.0095(3) 0.2247(2) 0.4646(2)
C22 C -0.1162(3) 0.1999(2) 0.4198(2)
C23 C -0.1747(2) 0.2699(2) 0.3712(2)
C24 C -0.1200(2) 0.3079(2) 0.3047(2)
Li1 Li 0.2191(4) 0.4601(3) 0.2573(3)
Li2 Li 0.1288(4) 0.5408(3) 0.1293(3)
H1 H 0.3991 0.6287 0.3600
H2 H 0.4070 0.6638 0.2643
H3 H 0.3170 0.5845 0.1172
H4 H 0.4223 0.5431 0.1140
H5 H 0.0673 0.2660 0.1938
H6 H -0.0326 0.3149 0.1507
H7 H -0.0288 0.4792 0.1714
H8 H -0.0831 0.4690 0.2537
H9 H 0.2536 0.7780 0.1926
H10 H 0.2220 0.7045 0.1247
H11 H 0.1390 0.7490 0.1670
H12 H 0.2446 0.6867 0.4297
H13 H 0.2714 0.7663 0.3807
H14 H 0.1566 0.7396 0.3705
H15 H 0.2238 0.5184 -0.0598
H16 H 0.3276 0.4766 -0.0670
H17 H 0.2268 0.4241 -0.0813
H18 H 0.3529 0.3127 0.0650
H19 H 0.4421 0.3763 0.0694
H20 H 0.4061 0.3520 0.1587
H21 H -0.0438 0.4350 0.0127
H22 H 0.0179 0.4099 -0.0610
H23 H -0.0543 0.3459 -0.0282
H24 H 0.0926 0.2268 0.0129
H25 H 0.1821 0.2781 -0.0123
H26 H 0.1972 0.2358 0.0837
H27 H -0.0087 0.7039 0.2948
H28 H -0.0508 0.6665 0.1975
H29 H -0.1029 0.6439 0.2785
H30 H 0.0006 0.5409 0.4289
H31 H 0.1114 0.5070 0.4329
H32 H 0.0943 0.6013 0.4458
H33 H 0.5335 0.4509 0.2635
H34 H 0.5471 0.5477 0.4179
H35 H 0.5107 0.4557 0.4105
H36 H 0.6824 0.4669 0.4854
H37 H 0.6699 0.4129 0.3970
H38 H 0.7331 0.5761 0.4130
H39 H 0.8017 0.5008 0.3992
H40 H 0.7459 0.5740 0.2645
H41 H 0.7096 0.4820 0.2546
H42 H 0.5738 0.5651 0.1906
H43 H 0.5865 0.6151 0.2817
H44 H -0.0198 0.3747 0.3948
H45 H 0.0553 0.2235 0.3549
H46 H 0.1107 0.2835 0.4318
H47 H 0.0279 0.1766 0.4900
H48 H -0.0125 0.2631 0.5127
H49 H -0.1132 0.1567 0.3767
H50 H -0.1507 0.1801 0.4656
H51 H -0.2405 0.2505 0.3390
H52 H -0.1839 0.3106 0.4151
H53 H -0.1581 0.3551 0.2777
H54 H -0.1161 0.2684 0.2580
loop_
_geom_bond_atom_site_label_1
_geom_bond_atom_site_label_2
_geom_bond_site_symmetry_1
_geom_bond_site_symmetry_2
P1 C1 1_555 1_555
P2 C3 1_555 1_555
Si1 N1 1_555 1_555
Si2 N2 1_555 1_555
Si3 N2 1_555 1_555
Si4 N1 1_555 1_555
N1 Li1 1_555 1_555
N2 Li1 1_555 1_555
C1 Si1 1_555 1_555
C2 P1 1_555 1_555
C3 Si3 1_555 1_555
C4 P2 1_555 1_555
C5 Si1 1_555 1_555
C6 Si1 1_555 1_555
C7 Si2 1_555 1_555
C8 Si2 1_555 1_555
C9 Si3 1_555 1_555
C10 Si3 1_555 1_555
C11 Si4 1_555 1_555
C12 Si4 1_555 1_555
C13 P1 1_555 1_555
C14 C13 1_555 1_555
C15 C14 1_555 1_555
C16 C15 1_555 1_555
C17 C16 1_555 1_555
C18 C13 1_555 1_555
C19 P2 1_555 1_555
C20 C19 1_555 1_555
C21 C20 1_555 1_555
C22 C21 1_555 1_555
C23 C22 1_555 1_555
C24 C19 1_555 1_555
Li1 P1 1_555 1_555
Li2 N1 1_555 1_555
H1 C1 1_555 1_555
H2 C1 1_555 1_555
H3 C2 1_555 1_555
H4 C2 1_555 1_555
H5 C3 1_555 1_555
H6 C3 1_555 1_555
H7 C4 1_555 1_555
H8 C4 1_555 1_555
H9 C5 1_555 1_555
H10 C5 1_555 1_555
H11 C5 1_555 1_555
H12 C6 1_555 1_555
H13 C6 1_555 1_555
H14 C6 1_555 1_555
H15 C7 1_555 1_555
H16 C7 1_555 1_555
H17 C7 1_555 1_555
H18 C8 1_555 1_555
H19 C8 1_555 1_555
H20 C8 1_555 1_555
H21 C9 1_555 1_555
H22 C9 1_555 1_555
H23 C9 1_555 1_555
H24 C10 1_555 1_555
H25 C10 1_555 1_555
H26 C10 1_555 1_555
H27 C11 1_555 1_555
H28 C11 1_555 1_555
H29 C11 1_555 1_555
H30 C12 1_555 1_555
H31 C12 1_555 1_555
H32 C12 1_555 1_555
H33 C13 1_555 1_555
H34 C14 1_555 1_555
H35 C14 1_555 1_555
H36 C15 1_555 1_555
H37 C15 1_555 1_555
H38 C16 1_555 1_555
H39 C16 1_555 1_555
H40 C17 1_555 1_555
H41 C17 1_555 1_555
H42 C18 1_555 1_555
H43 C18 1_555 1_555
H44 C19 1_555 1_555
H45 C20 1_555 1_555
H46 C20 1_555 1_555
H47 C21 1_555 1_555
H48 C21 1_555 1_555
H49 C22 1_555 1_555
H50 C22 1_555 1_555
H51 C23 1_555 1_555
H52 C23 1_555 1_555
H53 C24 1_555 1_555
H54 C24 1_555 1_555
P2 Li1 1_555 1_555
Si2 C2 1_555 1_555
Si4 C4 1_555 1_555
N2 Li2 1_555 1_555
C17 C18 1_555 1_555
C23 C24 1_555 1_555

#END
