
#######################################################################
#
#                 Cambridge Crystallographic Data Centre
#                                CCDC 
#
#######################################################################
#
# If this CIF has been generated from an entry in the Cambridge 
# Structural Database, then it will include bibliographic, chemical, 
# crystal, experimental, refinement or atomic coordinate data resulting 
# from the CCDC's data processing and validation procedures.
#
#######################################################################

data_UCOCUN
_chemical_formula_moiety         'C15 H20 O2'
_chemical_name_systematic        
(3R,4aS,6S,7aS)-3-methyl-3-phenyloctahydrocyclopenta[c]pyran-6-ol
_symmetry_cell_setting           orthorhombic
_symmetry_space_group_name_H-M   'P 21 21 21'
_symmetry_Int_Tables_number      19
_space_group_name_Hall           'P 2ac 2ab'
loop_
_symmetry_equiv_pos_site_id
_symmetry_equiv_pos_as_xyz
1 x,y,z
2 1/2-x,-y,1/2+z
3 -x,1/2+y,1/2-z
4 1/2+x,1/2-y,-z
_cell_length_a                   6.3597(2)
_cell_length_b                   8.5694(2)
_cell_length_c                   22.6596(5)
_cell_angle_alpha                90
_cell_angle_beta                 90
_cell_angle_gamma                90
_cell_volume                     1234.92
_exptl_crystal_colour            colorless
_exptl_crystal_description       plate
_cell_formula_units_Z            4
_exptl_crystal_recrystallization_method hexane/dichloromethane
loop_
_atom_site_label
_atom_site_type_symbol
_atom_site_fract_x
_atom_site_fract_y
_atom_site_fract_z
O1 O 0.90965(18) 0.50606(14) 0.56002(5)
O2 O 0.38912(19) 0.88907(16) 0.55787(5)
H1 H 0.417(4) 0.937(3) 0.5267(9)
C1 C 0.7374(3) 0.4255(2) 0.58855(7)
C2 C 0.5749(3) 0.54620(19) 0.60894(7)
H2 H 0.5107 0.5954 0.5738
H3 H 0.4618 0.4917 0.6308
C3 C 0.6665(3) 0.6741(2) 0.64838(7)
H4 H 0.7002 0.6320 0.6884
C4 C 0.5211(3) 0.81651(19) 0.65300(7)
H5 H 0.5543 0.8782 0.6888
H6 H 0.3721 0.7835 0.6549
C5 C 0.5624(3) 0.9135(2) 0.59673(7)
H7 H 0.5732 1.0267 0.6071
C6 C 0.7743(3) 0.8548(2) 0.57238(8)
H8 H 0.7534 0.7989 0.5346
H9 H 0.8713 0.9434 0.5656
C7 C 0.8637(3) 0.7441(2) 0.61940(7)
H10 H 0.9395 0.8079 0.6496
C8 C 1.0124(3) 0.6197(2) 0.59678(8)
H11 H 1.1263 0.6703 0.5739
H12 H 1.0776 0.5659 0.6308
C9 C 0.6424(3) 0.3240(2) 0.54018(7)
H13 H 0.6054 0.3893 0.5062
H14 H 0.5157 0.2724 0.5552
H15 H 0.7449 0.2449 0.5280
C10 C 0.8232(3) 0.3190(2) 0.63735(7)
C11 C 0.7022(3) 0.2758(2) 0.68607(7)
H16 H 0.5683 0.3224 0.6920
C12 C 0.7759(3) 0.1650(2) 0.72603(7)
H17 H 0.6909 0.1356 0.7587
C13 C 0.9715(3) 0.0975(2) 0.71863(8)
H18 H 1.0212 0.0223 0.7461
C14 C 1.0942(3) 0.1407(2) 0.67083(8)
H19 H 1.2292 0.0954 0.6655
C15 C 1.0200(3) 0.2503(2) 0.63058(8)
H20 H 1.1053 0.2788 0.5979
loop_
_geom_bond_atom_site_label_1
_geom_bond_atom_site_label_2
_geom_bond_site_symmetry_1
_geom_bond_site_symmetry_2
O1 C1 1_555 1_555
O2 H1 1_555 1_555
C1 C2 1_555 1_555
C2 H2 1_555 1_555
H3 C2 1_555 1_555
C3 C2 1_555 1_555
H4 C3 1_555 1_555
C4 C3 1_555 1_555
H5 C4 1_555 1_555
H6 C4 1_555 1_555
C5 O2 1_555 1_555
H7 C5 1_555 1_555
C6 C5 1_555 1_555
H8 C6 1_555 1_555
H9 C6 1_555 1_555
C7 C3 1_555 1_555
H10 C7 1_555 1_555
C8 O1 1_555 1_555
H11 C8 1_555 1_555
H12 C8 1_555 1_555
C9 C1 1_555 1_555
H13 C9 1_555 1_555
H14 C9 1_555 1_555
H15 C9 1_555 1_555
C10 C1 1_555 1_555
C11 C10 1_555 1_555
H16 C11 1_555 1_555
C12 C11 1_555 1_555
H17 C12 1_555 1_555
C13 C12 1_555 1_555
H18 C13 1_555 1_555
C14 C13 1_555 1_555
H19 C14 1_555 1_555
C15 C10 1_555 1_555
H20 C15 1_555 1_555
C4 C5 1_555 1_555
C6 C7 1_555 1_555
C7 C8 1_555 1_555
C14 C15 1_555 1_555

#END
