
#######################################################################
#
#                 Cambridge Crystallographic Data Centre
#                                CCDC 
#
#######################################################################
#
# If this CIF has been generated from an entry in the Cambridge 
# Structural Database, then it will include bibliographic, chemical, 
# crystal, experimental, refinement or atomic coordinate data resulting 
# from the CCDC's data processing and validation procedures.
#
#######################################################################

data_UCODEY
_chemical_formula_moiety         'C15 H16 O2'
_chemical_name_systematic        
(3R,7aR)-3-methyl-3-phenyl-3,4,7,7a-tetrahydrocyclopenta[c]pyran-6(1H)-one
_symmetry_cell_setting           monoclinic
_symmetry_space_group_name_H-M   'P 21'
_symmetry_Int_Tables_number      4
_space_group_name_Hall           'P 2yb'
loop_
_symmetry_equiv_pos_site_id
_symmetry_equiv_pos_as_xyz
1 x,y,z
2 -x,1/2+y,-z
_cell_length_a                   9.2014(3)
_cell_length_b                   10.8506(3)
_cell_length_c                   12.1000(4)
_cell_angle_alpha                90
_cell_angle_beta                 91.8595(9)
_cell_angle_gamma                90
_cell_volume                     1207.44
_exptl_crystal_colour            colorless
_exptl_crystal_description       plate
_cell_formula_units_Z            4
_exptl_crystal_recrystallization_method hexane/dichloromethane
loop_
_atom_site_label
_atom_site_type_symbol
_atom_site_fract_x
_atom_site_fract_y
_atom_site_fract_z
O1 O 0.72729(12) 0.52786(12) -0.07588(9)
O2 O 0.64703(14) 0.27122(12) 0.32775(10)
C1 C 0.63275(18) 0.61411(15) -0.02262(13)
C2 C 0.69455(18) 0.63806(15) 0.09628(13)
H1 H 0.7895 0.6806 0.0934
H2 H 0.6270 0.6910 0.1371
C3 C 0.71236(17) 0.51715(15) 0.15290(14)
C4 C 0.64830(18) 0.47152(16) 0.24138(13)
H3 H 0.5862 0.5166 0.2878
C5 C 0.68787(17) 0.34118(16) 0.25653(13)
C6 C 0.79098(19) 0.30681(16) 0.16568(14)
H4 H 0.7512 0.2376 0.1208
H5 H 0.8872 0.2825 0.1976
C7 C 0.80377(18) 0.42294(16) 0.09513(14)
H6 H 0.9073 0.4508 0.0945
C8 C 0.74176(18) 0.41084(16) -0.02349(13)
H7 H 0.8068 0.3580 -0.0667
H8 H 0.6454 0.3704 -0.0223
C9 C 0.6422(2) 0.73014(17) -0.09302(14)
H9 H 0.7439 0.7562 -0.0964
H10 H 0.5849 0.7960 -0.0601
H11 H 0.6038 0.7128 -0.1679
C10 C 0.47566(18) 0.56699(15) -0.02501(13)
C11 C 0.42340(18) 0.50443(16) -0.11897(13)
H12 H 0.4876 0.4868 -0.1768
C12 C 0.27922(19) 0.46765(16) -0.12917(14)
H13 H 0.2451 0.4264 -0.1942
C13 C 0.18456(19) 0.49102(18) -0.04435(15)
H14 H 0.0857 0.4661 -0.0513
C14 C 0.23550(19) 0.55087(17) 0.05030(14)
H15 H 0.1717 0.5658 0.1090
C15 C 0.37984(19) 0.58930(16) 0.05986(14)
H16 H 0.4134 0.6311 0.1248
O3 O 0.09902(13) 0.47629(12) 0.32195(9)
O4 O 0.46587(15) 0.27841(13) 0.67486(11)
C16 C 0.09815(18) 0.57596(16) 0.40102(13)
C17 C 0.25744(18) 0.60369(16) 0.43827(14)
H17 H 0.3127 0.6337 0.3748
H18 H 0.2600 0.6681 0.4962
C18 C 0.32343(17) 0.48723(16) 0.48256(14)
C19 C 0.38286(17) 0.46351(17) 0.58238(14)
H19 H 0.4027 0.5236 0.6380
C20 C 0.41317(18) 0.33109(18) 0.59394(16)
C21 C 0.3631(2) 0.26897(18) 0.48646(16)
H20 H 0.2831 0.2103 0.4996
H21 H 0.4444 0.2238 0.4534
C22 C 0.31058(18) 0.37405(16) 0.41045(14)
H22 H 0.3774 0.3820 0.3473
C23 C 0.15371(19) 0.36244(16) 0.36583(14)
H23 H 0.1491 0.2989 0.3071
H24 H 0.0912 0.3349 0.4262
C24 C 0.0323(2) 0.68453(17) 0.33723(14)
H25 H 0.0931 0.7043 0.2746
H26 H 0.0272 0.7562 0.3862
H27 H -0.0658 0.6629 0.3098
C25 C 0.00079(18) 0.54377(15) 0.49739(14)
C26 C -0.12849(18) 0.48115(17) 0.47264(14)
H28 H -0.1500 0.4571 0.3984
C27 C -0.22594(18) 0.45324(16) 0.55313(15)
H29 H -0.3133 0.4106 0.5341
C28 C -0.19623(19) 0.48755(17) 0.66222(15)
H30 H -0.2632 0.4693 0.7181
C29 C -0.06772(19) 0.54870(17) 0.68825(14)
H31 H -0.0464 0.5720 0.7627
C30 C 0.03086(18) 0.57656(16) 0.60699(14)
H32 H 0.1189 0.6181 0.6264
loop_
_geom_bond_atom_site_label_1
_geom_bond_atom_site_label_2
_geom_bond_site_symmetry_1
_geom_bond_site_symmetry_2
O1 C1 1_555 1_555
O2 C5 1_555 1_555
C1 C2 1_555 1_555
C2 H1 1_555 1_555
H2 C2 1_555 1_555
C3 C2 1_555 1_555
C4 C3 1_555 1_555
H3 C4 1_555 1_555
C5 C4 1_555 1_555
C6 C5 1_555 1_555
H4 C6 1_555 1_555
H5 C6 1_555 1_555
C7 C3 1_555 1_555
H6 C7 1_555 1_555
C8 O1 1_555 1_555
H7 C8 1_555 1_555
H8 C8 1_555 1_555
C9 C1 1_555 1_555
H9 C9 1_555 1_555
H10 C9 1_555 1_555
H11 C9 1_555 1_555
C10 C1 1_555 1_555
C11 C10 1_555 1_555
H12 C11 1_555 1_555
C12 C11 1_555 1_555
H13 C12 1_555 1_555
C13 C12 1_555 1_555
H14 C13 1_555 1_555
C14 C13 1_555 1_555
H15 C14 1_555 1_555
C15 C10 1_555 1_555
H16 C15 1_555 1_555
O3 C16 1_555 1_555
O4 C20 1_555 1_555
C16 C17 1_555 1_555
C17 H17 1_555 1_555
H18 C17 1_555 1_555
C18 C17 1_555 1_555
C19 C18 1_555 1_555
H19 C19 1_555 1_555
C20 C19 1_555 1_555
C21 C20 1_555 1_555
H20 C21 1_555 1_555
H21 C21 1_555 1_555
C22 C18 1_555 1_555
H22 C22 1_555 1_555
C23 O3 1_555 1_555
H23 C23 1_555 1_555
H24 C23 1_555 1_555
C24 C16 1_555 1_555
H25 C24 1_555 1_555
H26 C24 1_555 1_555
H27 C24 1_555 1_555
C25 C16 1_555 1_555
C26 C25 1_555 1_555
H28 C26 1_555 1_555
C27 C26 1_555 1_555
H29 C27 1_555 1_555
C28 C27 1_555 1_555
H30 C28 1_555 1_555
C29 C28 1_555 1_555
H31 C29 1_555 1_555
C30 C25 1_555 1_555
H32 C30 1_555 1_555
C6 C7 1_555 1_555
C7 C8 1_555 1_555
C14 C15 1_555 1_555
C21 C22 1_555 1_555
C22 C23 1_555 1_555
C29 C30 1_555 1_555

#END
