
#######################################################################
#
#                 Cambridge Crystallographic Data Centre
#                                CCDC 
#
#######################################################################
#
# If this CIF has been generated from an entry in the Cambridge 
# Structural Database, then it will include bibliographic, chemical, 
# crystal, experimental, refinement or atomic coordinate data resulting 
# from the CCDC's data processing and validation procedures.
#
#######################################################################

data_UCOFOI
_chemical_formula_moiety         'C10 H9 N2 1+,C1 N1 S1 1-'
_chemical_name_systematic        "2,2'-Bipyridinium thiocyanate"
_symmetry_cell_setting           orthorhombic
_symmetry_space_group_name_H-M   'P c a 21'
_symmetry_Int_Tables_number      29
_space_group_name_Hall           'P 2c -2ac'
loop_
_symmetry_equiv_pos_site_id
_symmetry_equiv_pos_as_xyz
1 x,y,z
2 -x,-y,1/2+z
3 1/2-x,y,1/2+z
4 1/2+x,-y,z
_cell_length_a                   8.0954(2)
_cell_length_b                   11.7686(6)
_cell_length_c                   11.0026(6)
_cell_angle_alpha                90
_cell_angle_beta                 90
_cell_angle_gamma                90
_cell_volume                     1048.23
_exptl_crystal_colour            colorless
_exptl_crystal_description       plate
_chemical_melting_point          '401 K'
_cell_formula_units_Z            4
loop_
_atom_site_label
_atom_site_type_symbol
_atom_site_fract_x
_atom_site_fract_y
_atom_site_fract_z
S1 S 0.97990(4) 0.81858(3) 0.22438(6)
C1 C 0.7788(2) 0.81469(12) 0.2406(2)
N1 N 0.63655(19) 0.81096(13) 0.25650(18)
N2 N 0.3605(5) 0.8178(3) 0.4079(3)
C2 C 0.2759(3) 0.75006(17) 0.4847(2)
C3 C 0.1612(4) 0.8000(3) 0.5632(4)
C4 C 0.1425(8) 0.9171(3) 0.5642(5)
C5 C 0.2387(9) 0.9845(3) 0.4884(3)
C6 C 0.3461(11) 0.9316(4) 0.4093(7)
N3 N 0.3800(2) 0.59153(15) 0.37469(16)
C7 C 0.3088(3) 0.62650(17) 0.47771(17)
C8 C 0.2646(3) 0.55528(17) 0.5728(2)
C9 C 0.2940(3) 0.43905(19) 0.5592(2)
C10 C 0.3639(3) 0.4010(2) 0.4524(2)
C11 C 0.4078(3) 0.47899(19) 0.3649(2)
H1 H 0.4278 0.7863 0.3548
H2 H 0.0963 0.7539 0.6155
H3 H 0.0638 0.9514 0.6168
H4 H 0.2307 1.0650 0.4910
H5 H 0.4106 0.9761 0.3551
H6 H 0.2159 0.5846 0.6448
H7 H 0.2664 0.3873 0.6223
H8 H 0.3815 0.3221 0.4394
H9 H 0.4608 0.4519 0.2935
N4? N 0.139(3) 0.8202(17) 0.558(2)
C12? C 0.222(2) 0.7529(11) 0.483(2)
C13? C 0.354(4) 0.805(2) 0.423(3)
C14? C 0.353(8) 0.920(3) 0.401(5)
C15? C 0.244(6) 0.985(2) 0.467(3)
C16? C 0.155(6) 0.933(2) 0.556(4)
N5? N 0.1219(13) 0.5881(8) 0.5848(10)
C17? C 0.1956(18) 0.6284(9) 0.4840(10)
C18? C 0.2399(16) 0.5581(9) 0.3873(11)
C19? C 0.2140(16) 0.4412(9) 0.3993(11)
C20? C 0.1364(16) 0.4002(10) 0.5019(11)
C21? C 0.0969(16) 0.4775(9) 0.5947(11)
H10? H 0.0700 0.7894 0.6099
H11? H 0.4451 0.7607 0.3974
H12? H 0.4248 0.9528 0.3419
H13? H 0.2313 1.0637 0.4516
H14? H 0.1047 0.9768 0.6182
H15? H 0.2864 0.5889 0.3152
H16? H 0.2495 0.3905 0.3374
H17? H 0.1105 0.3218 0.5097
H18? H 0.0501 0.4491 0.6678
loop_
_geom_bond_atom_site_label_1
_geom_bond_atom_site_label_2
_geom_bond_site_symmetry_1
_geom_bond_site_symmetry_2
S1 C1 1_555 1_555
C1 N1 1_555 1_555
N2 C2 1_555 1_555
C2 C3 1_555 1_555
C3 C4 1_555 1_555
C4 C5 1_555 1_555
C5 C6 1_555 1_555
C6 N2 1_555 1_555
N3 C7 1_555 1_555
C7 C2 1_555 1_555
C8 C7 1_555 1_555
C9 C8 1_555 1_555
C10 C9 1_555 1_555
C11 N3 1_555 1_555
H1 N2 1_555 1_555
H2 C3 1_555 1_555
H3 C4 1_555 1_555
H4 C5 1_555 1_555
H5 C6 1_555 1_555
H6 C8 1_555 1_555
H7 C9 1_555 1_555
H8 C10 1_555 1_555
H9 C11 1_555 1_555
C10 C11 1_555 1_555

#END
