
#######################################################################
#
#                 Cambridge Crystallographic Data Centre
#                                CCDC 
#
#######################################################################
#
# If this CIF has been generated from an entry in the Cambridge 
# Structural Database, then it will include bibliographic, chemical, 
# crystal, experimental, refinement or atomic coordinate data resulting 
# from the CCDC's data processing and validation procedures.
#
#######################################################################

data_UCOGEA
_chemical_formula_moiety         'C21 H16 P1 S2 1+,Br1 1-,C1 H2 Cl2'
_chemical_name_systematic        
"4-Benzyl-4-phenyl-4H-thieno[2',3':4,5]phospholo[3,2-b]thiophen-4-ium bromide dichloromethane solvate"
_symmetry_cell_setting           monoclinic
_symmetry_space_group_name_H-M   'P 21/c'
_symmetry_Int_Tables_number      14
_space_group_name_Hall           '-P 2ybc'
loop_
_symmetry_equiv_pos_site_id
_symmetry_equiv_pos_as_xyz
1 x,y,z
2 -x,1/2+y,1/2-z
3 -x,-y,-z
4 x,1/2-y,1/2+z
_cell_length_a                   9.3870(4)
_cell_length_b                   16.2090(4)
_cell_length_c                   15.1530(5)
_cell_angle_alpha                90
_cell_angle_beta                 97.630(2)
_cell_angle_gamma                90
_cell_volume                     2285.17
_cell_formula_units_Z            4
loop_
_atom_site_label
_atom_site_type_symbol
_atom_site_fract_x
_atom_site_fract_y
_atom_site_fract_z
C1 C 0.5569(6) 0.1628(3) 0.1385(4)
H1 H 0.6039 0.2083 0.1187
C2 C 0.5406(5) 0.1503(3) 0.2250(3)
H2 H 0.5751 0.1855 0.2714
C3 C 0.4636(5) 0.0763(3) 0.2350(3)
C4 C 0.4266(5) 0.0345(3) 0.1568(3)
C5 C 0.3496(5) -0.0420(3) 0.1651(3)
C6 C 0.3202(5) -0.0592(3) 0.2502(3)
C7 C 0.2513(5) -0.1367(3) 0.2566(3)
H3 H 0.225 -0.1583 0.309
C8 C 0.2287(5) -0.1752(3) 0.1761(3)
H4 H 0.1825 -0.2259 0.1668
C9 C 0.2865(5) 0.0748(3) 0.3829(3)
C10 C 0.1573(5) 0.0411(3) 0.4011(3)
H5 H 0.1322 -0.0126 0.3837
C11 C 0.0664(5) 0.0886(3) 0.4455(3)
H6 H -0.02 0.0666 0.4584
C12 C 0.1033(6) 0.1677(3) 0.4705(4)
H7 H 0.0406 0.1995 0.4989
C13 C 0.2331(6) 0.2008(3) 0.4539(4)
H8 H 0.2583 0.2541 0.4724
C14 C 0.3251(5) 0.1545(3) 0.4099(3)
H9 H 0.4123 0.1766 0.3984
C15 C 0.5575(5) -0.0243(3) 0.3942(3)
H10 H 0.6076 0.0198 0.4287
H11 H 0.5245 -0.0635 0.4353
C16 C 0.6592(5) -0.0665(3) 0.3396(3)
C17 C 0.7668(5) -0.0224(3) 0.3062(4)
H12 H 0.7784 0.0335 0.3189
C18 C 0.8568(6) -0.0613(4) 0.2543(4)
H13 H 0.9292 -0.0317 0.2323
C19 C 0.8390(6) -0.1445(4) 0.2352(4)
H14 H 0.8988 -0.1707 0.1996
C20 C 0.7331(6) -0.1885(3) 0.2686(4)
H15 H 0.722 -0.2445 0.2561
C21 C 0.6434(6) -0.1500(3) 0.3205(4)
H16 H 0.5718 -0.1801 0.3429
S1 S 0.48189(16) 0.08588(8) 0.06911(9)
S2 S 0.29455(16) -0.12022(8) 0.09336(8)
P1 P 0.40482(13) 0.01763(7) 0.32305(7)
C22 C 0.0615(11) -0.3536(7) 0.3883(5)
H17 H 0.1431 -0.3902 0.4027
H18 H 0.089 -0.2999 0.413
Cl1 Cl 0.0271(2) -0.34422(12) 0.27225(13)
Cl2 Cl -0.0760(3) -0.38959(16) 0.43909(19)
Br1 Br 0.28908(5) -0.17399(3) 0.50036(3)
loop_
_geom_bond_atom_site_label_1
_geom_bond_atom_site_label_2
_geom_bond_site_symmetry_1
_geom_bond_site_symmetry_2
C1 H1 1_555 1_555
C2 C1 1_555 1_555
H2 C2 1_555 1_555
C3 C2 1_555 1_555
C4 C3 1_555 1_555
C5 C4 1_555 1_555
C6 C5 1_555 1_555
C7 C6 1_555 1_555
H3 C7 1_555 1_555
C8 C7 1_555 1_555
H4 C8 1_555 1_555
C9 C10 1_555 1_555
C10 H5 1_555 1_555
C11 C10 1_555 1_555
H6 C11 1_555 1_555
C12 C11 1_555 1_555
H7 C12 1_555 1_555
C13 C12 1_555 1_555
H8 C13 1_555 1_555
C14 C9 1_555 1_555
H9 C14 1_555 1_555
C15 H10 1_555 1_555
H11 C15 1_555 1_555
C16 C15 1_555 1_555
C17 C16 1_555 1_555
H12 C17 1_555 1_555
C18 C17 1_555 1_555
H13 C18 1_555 1_555
C19 C18 1_555 1_555
H14 C19 1_555 1_555
C20 C19 1_555 1_555
H15 C20 1_555 1_555
C21 C16 1_555 1_555
H16 C21 1_555 1_555
C22 H17 1_555 1_555
H18 C22 1_555 1_555
S1 C1 1_555 1_555
S2 C5 1_555 1_555
P1 C3 1_555 1_555
Cl1 C22 1_555 1_555
Cl2 C22 1_555 1_555
C4 S1 1_555 1_555
C6 P1 1_555 1_555
C8 S2 1_555 1_555
C9 P1 1_555 1_555
C13 C14 1_555 1_555
C15 P1 1_555 1_555
C20 C21 1_555 1_555

#END
