
#######################################################################
#
#                 Cambridge Crystallographic Data Centre
#                                CCDC 
#
#######################################################################
#
# If this CIF has been generated from an entry in the Cambridge 
# Structural Database, then it will include bibliographic, chemical, 
# crystal, experimental, refinement or atomic coordinate data resulting 
# from the CCDC's data processing and validation procedures.
#
#######################################################################

data_UCOHOM
_chemical_name_common            
(12-{[7,12-diphenyl-16,17,18-triazatetracyclo[11.2.1.1$3,6!.1$8,11!]octadeca-1,3,5,7,9,11,13(16),14-octaen-2-yl]diazenyl}-2,7-diphenyl-16,17,18-triazatetracyclo[11.2.1.1$3,6!.1$8,11!]octadeca-1(16),2,4,6,8,10,12,14-octaenato)(bis(methanolato))diboron
_chemical_formula_moiety         'C56 H38 B2 N8 O2'
_chemical_name_systematic        
6,6'-[diazenediyl]bis(3,9-diphenyl-9c-methoxy-8b,9b,9d-triaza-9c-boratricyclopenta[cd,gh,kl]phenalen-8b-ium-9c-uide)
_symmetry_cell_setting           orthorhombic
_symmetry_space_group_name_H-M   'P b c a'
_symmetry_Int_Tables_number      61
_space_group_name_Hall           '-P 2ac 2ab'
loop_
_symmetry_equiv_pos_site_id
_symmetry_equiv_pos_as_xyz
1 x,y,z
2 1/2-x,-y,1/2+z
3 1/2+x,1/2-y,-z
4 -x,1/2+y,1/2-z
5 -x,-y,-z
6 1/2+x,y,1/2-z
7 1/2-x,1/2+y,z
8 x,1/2-y,1/2+z
_cell_length_a                   12.658(3)
_cell_length_b                   20.839(5)
_cell_length_c                   15.411(4)
_cell_angle_alpha                90
_cell_angle_beta                 90
_cell_angle_gamma                90
_cell_volume                     4065.11
_exptl_crystal_colour            green
_exptl_crystal_description       prism
_cell_formula_units_Z            4
loop_
_atom_site_label
_atom_site_type_symbol
_atom_site_fract_x
_atom_site_fract_y
_atom_site_fract_z
N1 N 0.74224(19) 0.10927(12) 0.03858(18)
O1 O 0.73364(17) 0.19211(10) -0.07025(15)
N2 N 0.5989(2) 0.18457(12) 0.04477(18)
N3 N 0.4835(2) 0.02747(12) 0.01153(18)
N4 N 0.77058(19) 0.21728(12) 0.08560(18)
C1 C 0.6737(2) 0.05865(15) 0.0345(2)
C2 C 0.8207(3) 0.29971(15) 0.1693(2)
H1 H 0.8214 0.3401 0.1979
C3 C 0.5554(2) 0.23810(15) 0.0822(2)
C4 C 0.5265(2) 0.13658(15) 0.0362(2)
C5 C 0.7331(2) 0.27283(15) 0.1215(2)
C6 C 0.9066(2) 0.13897(15) 0.1079(2)
C7 C 0.6092(3) 0.36668(16) 0.2400(2)
H2 H 0.6691 0.3480 0.2672
C8 C 0.4273(2) 0.16271(16) 0.0617(2)
H3 H 0.3611 0.1413 0.0592
C9 C 0.5739(3) 0.34252(14) 0.1619(2)
C10 C 0.9017(3) 0.25715(16) 0.1662(2)
H4 H 0.9689 0.2628 0.1927
C11 C 0.7309(2) 0.00352(16) 0.0644(2)
H5 H 0.7049 -0.0392 0.0668
C12 C 0.8301(2) 0.02355(15) 0.0888(2)
H6 H 0.8847 -0.0029 0.1112
C13 C 0.4835(3) 0.37043(15) 0.1252(2)
H7 H 0.4570 0.3540 0.0719
C14 C 0.8696(2) 0.20231(15) 0.1165(2)
C15 C 0.6221(3) 0.28579(15) 0.1182(2)
C16 C 0.5632(2) 0.07264(15) 0.0230(2)
C17 C 1.0809(2) 0.08330(15) 0.0891(2)
H8 H 1.0595 0.0701 0.0328
C18 C 0.8366(2) 0.09106(15) 0.0745(2)
C19 C 1.2128(3) 0.08625(17) 0.2022(2)
H9 H 1.2809 0.0749 0.2231
C20 C 1.0448(3) 0.13743(16) 0.2242(2)
H10 H 0.9985 0.1607 0.2611
C21 C 1.0118(2) 0.11920(15) 0.1415(2)
C22 C 1.1454(3) 0.12147(16) 0.2524(2)
H11 H 1.1681 0.1354 0.3081
C23 C 0.4440(2) 0.22378(16) 0.0904(2)
H12 H 0.3915 0.2521 0.1122
C24 C 1.1803(3) 0.06724(17) 0.1199(3)
H13 H 1.2267 0.0429 0.0844
C25 C 0.4324(3) 0.42077(17) 0.1642(2)
H14 H 0.3717 0.4390 0.1377
C26 C 0.6875(3) 0.24985(17) -0.1024(3)
H15 H 0.6104 0.2471 -0.0980
H16 H 0.7077 0.2558 -0.1633
H17 H 0.7128 0.2863 -0.0680
C27 C 0.4696(3) 0.44523(17) 0.2430(3)
H18 H 0.4345 0.4798 0.2709
C28 C 0.5581(3) 0.41802(17) 0.2790(2)
H19 H 0.5849 0.4347 0.3320
B1 B 0.7129(3) 0.17752(18) 0.0181(3)
N1D N 0.25776(19) -0.10927(12) -0.03858(18)
O1D O 0.26636(17) -0.19211(10) 0.07025(15)
N2D N 0.4011(2) -0.18457(12) -0.04477(18)
N3D N 0.5165(2) -0.02747(12) -0.01153(18)
N4D N 0.22942(19) -0.21728(12) -0.08560(18)
C1D C 0.3263(2) -0.05865(15) -0.0345(2)
C2D C 0.1793(3) -0.29971(15) -0.1693(2)
H1D H 0.1786 -0.3401 -0.1979
C3D C 0.4446(2) -0.23810(15) -0.0822(2)
C4D C 0.4735(2) -0.13658(15) -0.0362(2)
C5D C 0.2669(2) -0.27283(15) -0.1215(2)
C6D C 0.0934(2) -0.13897(15) -0.1079(2)
C7D C 0.3908(3) -0.36668(16) -0.2400(2)
H2D H 0.3309 -0.3480 -0.2672
C8D C 0.5727(2) -0.16271(16) -0.0617(2)
H3D H 0.6389 -0.1413 -0.0592
C9D C 0.4261(3) -0.34252(14) -0.1619(2)
C10D C 0.0983(3) -0.25715(16) -0.1662(2)
H4D H 0.0311 -0.2628 -0.1927
C11D C 0.2691(2) -0.00352(16) -0.0644(2)
H5D H 0.2951 0.0392 -0.0668
C12D C 0.1699(2) -0.02355(15) -0.0888(2)
H6D H 0.1153 0.0029 -0.1112
C13D C 0.5165(3) -0.37043(15) -0.1252(2)
H7D H 0.5430 -0.3540 -0.0719
C14D C 0.1304(2) -0.20231(15) -0.1165(2)
C15D C 0.3779(3) -0.28579(15) -0.1182(2)
C16D C 0.4368(2) -0.07264(15) -0.0230(2)
C17D C -0.0809(2) -0.08330(15) -0.0891(2)
H8D H -0.0595 -0.0701 -0.0328
C18D C 0.1634(2) -0.09106(15) -0.0745(2)
C19D C -0.2128(3) -0.08625(17) -0.2022(2)
H9D H -0.2809 -0.0749 -0.2231
C20D C -0.0448(3) -0.13743(16) -0.2242(2)
H10D H 0.0015 -0.1607 -0.2611
C21D C -0.0118(2) -0.11920(15) -0.1415(2)
C22D C -0.1454(3) -0.12147(16) -0.2524(2)
H11D H -0.1681 -0.1354 -0.3081
C23D C 0.5560(2) -0.22378(16) -0.0904(2)
H12D H 0.6085 -0.2521 -0.1122
C24D C -0.1803(3) -0.06724(17) -0.1199(3)
H13D H -0.2267 -0.0429 -0.0844
C25D C 0.5676(3) -0.42077(17) -0.1642(2)
H14D H 0.6283 -0.4390 -0.1377
C26D C 0.3125(3) -0.24985(17) 0.1024(3)
H15D H 0.3896 -0.2471 0.0980
H16D H 0.2923 -0.2558 0.1633
H17D H 0.2872 -0.2863 0.0680
C27D C 0.5304(3) -0.44523(17) -0.2430(3)
H18D H 0.5655 -0.4798 -0.2709
C28D C 0.4419(3) -0.41802(17) -0.2790(2)
H19D H 0.4151 -0.4347 -0.3320
B1D B 0.2871(3) -0.17752(18) -0.0181(3)
loop_
_geom_bond_atom_site_label_1
_geom_bond_atom_site_label_2
_geom_bond_site_symmetry_1
_geom_bond_site_symmetry_2
N1 C1 1_555 1_555
O1 C26 1_555 1_555
N2 C3 1_555 1_555
N3 C16 1_555 1_555
N4 C5 1_555 1_555
C1 C11 1_555 1_555
C2 H1 1_555 1_555
C3 C15 1_555 1_555
C4 N2 1_555 1_555
C5 C2 1_555 1_555
C6 C14 1_555 1_555
C7 H2 1_555 1_555
C8 C4 1_555 1_555
H3 C8 1_555 1_555
C9 C7 1_555 1_555
C10 C2 1_555 1_555
H4 C10 1_555 1_555
C11 H5 1_555 1_555
C12 C11 1_555 1_555
H6 C12 1_555 1_555
C13 C9 1_555 1_555
H7 C13 1_555 1_555
C14 N4 1_555 1_555
C15 C5 1_555 1_555
C16 C1 1_555 1_555
C17 H8 1_555 1_555
C18 N1 1_555 1_555
C19 H9 1_555 1_555
C20 H10 1_555 1_555
C21 C6 1_555 1_555
C22 C19 1_555 1_555
H11 C22 1_555 1_555
C23 C3 1_555 1_555
H12 C23 1_555 1_555
C24 C17 1_555 1_555
H13 C24 1_555 1_555
C25 C13 1_555 1_555
H14 C25 1_555 1_555
C26 H15 1_555 1_555
H16 C26 1_555 1_555
H17 C26 1_555 1_555
C27 C25 1_555 1_555
H18 C27 1_555 1_555
C28 C7 1_555 1_555
H19 C28 1_555 1_555
B1 N1 1_555 1_555
N1D C1D 1_555 1_555
O1D C26D 1_555 1_555
N2D C3D 1_555 1_555
N3D N3 1_555 1_555
N4D C5D 1_555 1_555
C1D C11D 1_555 1_555
C2D H1D 1_555 1_555
C3D C15D 1_555 1_555
C4D N2D 1_555 1_555
C5D C2D 1_555 1_555
C6D C14D 1_555 1_555
C7D H2D 1_555 1_555
C8D C4D 1_555 1_555
H3D C8D 1_555 1_555
C9D C7D 1_555 1_555
C10D C2D 1_555 1_555
H4D C10D 1_555 1_555
C11D H5D 1_555 1_555
C12D C11D 1_555 1_555
H6D C12D 1_555 1_555
C13D C9D 1_555 1_555
H7D C13D 1_555 1_555
C14D N4D 1_555 1_555
C15D C5D 1_555 1_555
C16D N3D 1_555 1_555
C17D H8D 1_555 1_555
C18D N1D 1_555 1_555
C19D H9D 1_555 1_555
C20D H10D 1_555 1_555
C21D C6D 1_555 1_555
C22D C19D 1_555 1_555
H11D C22D 1_555 1_555
C23D C3D 1_555 1_555
H12D C23D 1_555 1_555
C24D C17D 1_555 1_555
H13D C24D 1_555 1_555
C25D C13D 1_555 1_555
H14D C25D 1_555 1_555
C26D H15D 1_555 1_555
H16D C26D 1_555 1_555
H17D C26D 1_555 1_555
C27D C25D 1_555 1_555
H18D C27D 1_555 1_555
C28D C7D 1_555 1_555
H19D C28D 1_555 1_555
B1D N1D 1_555 1_555
O1 B1 1_555 1_555
N2 B1 1_555 1_555
N4 B1 1_555 1_555
C4 C16 1_555 1_555
C6 C18 1_555 1_555
C8 C23 1_555 1_555
C9 C15 1_555 1_555
C10 C14 1_555 1_555
C12 C18 1_555 1_555
C17 C21 1_555 1_555
C19 C24 1_555 1_555
C20 C21 1_555 1_555
C20 C22 1_555 1_555
C27 C28 1_555 1_555
O1D B1D 1_555 1_555
N2D B1D 1_555 1_555
N4D B1D 1_555 1_555
C1D C16D 1_555 1_555
C4D C16D 1_555 1_555
C6D C18D 1_555 1_555
C8D C23D 1_555 1_555
C9D C15D 1_555 1_555
C10D C14D 1_555 1_555
C12D C18D 1_555 1_555
C17D C21D 1_555 1_555
C19D C24D 1_555 1_555
C20D C21D 1_555 1_555
C20D C22D 1_555 1_555
C27D C28D 1_555 1_555

#END
