
#######################################################################
#
#                 Cambridge Crystallographic Data Centre
#                                CCDC 
#
#######################################################################
#
# If this CIF has been generated from an entry in the Cambridge 
# Structural Database, then it will include bibliographic, chemical, 
# crystal, experimental, refinement or atomic coordinate data resulting 
# from the CCDC's data processing and validation procedures.
#
#######################################################################

data_UCOJAY
_chemical_formula_moiety         'C16 H21 N1 O4'
_chemical_name_systematic        
(4S)-3-((2R,3S)-3-Hydroxy-2-methyl-3-phenylpropionyl)-4-isopropyloxazolidin-2-one
_symmetry_cell_setting           monoclinic
_symmetry_space_group_name_H-M   'P 21'
_symmetry_Int_Tables_number      4
_space_group_name_Hall           'P 2yb'
loop_
_symmetry_equiv_pos_site_id
_symmetry_equiv_pos_as_xyz
1 x,y,z
2 -x,1/2+y,-z
_cell_length_a                   11.6191(10)
_cell_length_b                   6.1749(5)
_cell_length_c                   12.0431(10)
_cell_angle_alpha                90
_cell_angle_beta                 113.394(2)
_cell_angle_gamma                90
_cell_volume                     793.025
_exptl_crystal_colour            colorless
_exptl_crystal_description       block
_cell_formula_units_Z            2
_exptl_crystal_recrystallization_method toluene
loop_
_atom_site_label
_atom_site_type_symbol
_atom_site_fract_x
_atom_site_fract_y
_atom_site_fract_z
O1 O 0.3867(2) 0.5784(3) 0.01675(19)
H1 H 0.3771 0.6181 -0.0522
O2 O 0.59887(19) 0.2834(4) 0.19135(19)
O3 O 0.5394(2) 0.5608(4) 0.5043(2)
O4 O 0.3574(2) 0.5237(4) 0.3468(2)
N1 N 0.5480(2) 0.4363(4) 0.3336(2)
C1 C 0.2101(3) 0.3282(6) -0.0618(3)
C2 C 0.1648(3) 0.1345(6) -0.1206(3)
H2 H 0.2218 0.0247 -0.1180
C3 C 0.0374(4) 0.0980(7) -0.1833(3)
H3 H 0.0082 -0.0352 -0.2221
C4 C -0.0449(4) 0.2597(10) -0.1877(4)
H4 H -0.1315 0.2381 -0.2307
C5 C -0.0016(4) 0.4551(9) -0.1293(4)
H5 H -0.0588 0.5646 -0.1317
C6 C 0.1252(3) 0.4886(6) -0.0680(3)
H6 H 0.1542 0.6223 -0.0299
C7 C 0.3484(3) 0.3568(5) 0.0130(3)
H7 H 0.3976 0.2642 -0.0192
C8 C 0.3773(3) 0.2981(5) 0.1433(3)
H8 H 0.3247 0.3877 0.1729
C9 C 0.3540(3) 0.0572(6) 0.1603(3)
H9 H 0.4057 -0.0316 0.1319
H10 H 0.2663 0.0231 0.1144
H11 H 0.3755 0.0283 0.2454
C10 C 0.5143(3) 0.3415(5) 0.2209(3)
C11 C 0.4686(4) 0.5044(5) 0.3881(3)
C12 C 0.6692(3) 0.5064(6) 0.5352(3)
H12 H 0.6933 0.3806 0.5892
H13 H 0.7235 0.6284 0.5760
C13 C 0.6814(3) 0.4554(5) 0.4176(3)
H14 H 0.7226 0.3127 0.4246
C14 C 0.7530(3) 0.6226(6) 0.3781(3)
H15 H 0.7502 0.5765 0.2984
C15 C 0.8895(3) 0.6271(6) 0.4650(4)
H16 H 0.9388 0.6974 0.4266
H17 H 0.9193 0.4801 0.4869
H18 H 0.8978 0.7067 0.5373
C16 C 0.6968(4) 0.8484(6) 0.3626(4)
H19 H 0.6120 0.8455 0.3011
H20 H 0.7473 0.9474 0.3381
H21 H 0.6954 0.8966 0.4387
loop_
_geom_bond_atom_site_label_1
_geom_bond_atom_site_label_2
_geom_bond_site_symmetry_1
_geom_bond_site_symmetry_2
O1 H1 1_555 1_555
O2 C10 1_555 1_555
O3 C11 1_555 1_555
O4 C11 1_555 1_555
N1 C10 1_555 1_555
C1 C2 1_555 1_555
C2 H2 1_555 1_555
C3 C2 1_555 1_555
H3 C3 1_555 1_555
C4 C3 1_555 1_555
H4 C4 1_555 1_555
C5 C4 1_555 1_555
H5 C5 1_555 1_555
C6 C1 1_555 1_555
H6 C6 1_555 1_555
C7 O1 1_555 1_555
H7 C7 1_555 1_555
C8 C7 1_555 1_555
H8 C8 1_555 1_555
C9 C8 1_555 1_555
H9 C9 1_555 1_555
H10 C9 1_555 1_555
H11 C9 1_555 1_555
C10 C8 1_555 1_555
C11 N1 1_555 1_555
C12 O3 1_555 1_555
H12 C12 1_555 1_555
H13 C12 1_555 1_555
C13 N1 1_555 1_555
H14 C13 1_555 1_555
C14 C13 1_555 1_555
H15 C14 1_555 1_555
C15 C14 1_555 1_555
H16 C15 1_555 1_555
H17 C15 1_555 1_555
H18 C15 1_555 1_555
C16 C14 1_555 1_555
H19 C16 1_555 1_555
H20 C16 1_555 1_555
H21 C16 1_555 1_555
C1 C7 1_555 1_555
C5 C6 1_555 1_555
C12 C13 1_555 1_555

#END
