
#######################################################################
#
#                 Cambridge Crystallographic Data Centre
#                                CCDC 
#
#######################################################################
#
# If this CIF has been generated from an entry in the Cambridge 
# Structural Database, then it will include bibliographic, chemical, 
# crystal, experimental, refinement or atomic coordinate data resulting 
# from the CCDC's data processing and validation procedures.
#
#######################################################################

data_UCOKEF
_chemical_formula_moiety         'C17 H15 Br1 N2 O2 S1'
_chemical_name_systematic        
1-(4-bromophenyl)-4-methyl-5-((4-methylphenyl)sulfonyl)-1H-imidazole
_symmetry_cell_setting           monoclinic
_symmetry_space_group_name_H-M   'C c'
_symmetry_Int_Tables_number      9
_space_group_name_Hall           'C -2yc'
loop_
_symmetry_equiv_pos_site_id
_symmetry_equiv_pos_as_xyz
1 x,y,z
2 x,-y,1/2+z
3 1/2+x,1/2+y,z
4 1/2+x,1/2-y,1/2+z
_cell_length_a                   19.014(3)
_cell_length_b                   7.5145(13)
_cell_length_c                   12.568(2)
_cell_angle_alpha                90
_cell_angle_beta                 112.103(3)
_cell_angle_gamma                90
_cell_volume                     1663.75
_exptl_crystal_colour            yellow
_exptl_crystal_description       block
_cell_formula_units_Z            4
loop_
_atom_site_label
_atom_site_type_symbol
_atom_site_fract_x
_atom_site_fract_y
_atom_site_fract_z
C1 C 0.2082(5) 1.1489(12) 1.3545(9)
C2 C 0.2078(5) 1.0615(11) 1.2587(8)
H1 H 0.1620 1.0400 1.1981
C3 C 0.2762(4) 1.0043(11) 1.2515(7)
H2 H 0.2761 0.9490 1.1853
C4 C 0.3446(4) 1.0312(10) 1.3452(7)
C5 C 0.3446(4) 1.1199(10) 1.4429(7)
H3 H 0.3899 1.1400 1.5046
C6 C 0.2764(5) 1.1776(11) 1.4472(9)
H4 H 0.2761 1.2359 1.5123
C7 C 0.1336(6) 1.2084(15) 1.3589(13)
H5 H 0.1426 1.2680 1.4304
H6 H 0.1017 1.1066 1.3527
H7 H 0.1088 1.2885 1.2964
C8 C 0.4630(4) 0.7796(10) 1.4292(7)
C9 C 0.5166(4) 0.7717(12) 1.5393(8)
C10 C 0.4913(5) 0.5042(12) 1.4813(8)
H8 H 0.4909 0.3804 1.4809
C11 C 0.5510(5) 0.9218(13) 1.6217(9)
H9 H 0.5869 0.8747 1.6923
H10 H 0.5116 0.9841 1.6369
H11 H 0.5763 1.0023 1.5887
C12 C 0.3905(4) 0.5353(10) 1.2884(7)
C13 C 0.3165(5) 0.5535(11) 1.2730(8)
H12 H 0.3031 0.6161 1.3264
C14 C 0.2605(4) 0.4788(12) 1.1773(9)
H13 H 0.2096 0.4883 1.1671
C15 C 0.2814(5) 0.3905(10) 1.0978(7)
C16 C 0.3560(5) 0.3680(11) 1.1151(8)
H14 H 0.3692 0.3020 1.0629
C17 C 0.4118(4) 0.4416(12) 1.2090(8)
H15 H 0.4627 0.4297 1.2196
N1 N 0.4484(3) 0.6046(9) 1.3904(6)
N2 N 0.5334(4) 0.5993(10) 1.5697(7)
O1 O 0.4166(3) 0.9046(8) 1.2224(5)
O2 O 0.4855(3) 1.1025(8) 1.3868(6)
S1 S 0.43091(10) 0.9636(2) 1.33792(16)
Br1 Br 0.20601(6) 0.28685(11) 0.97347(7)
loop_
_geom_bond_atom_site_label_1
_geom_bond_atom_site_label_2
_geom_bond_site_symmetry_1
_geom_bond_site_symmetry_2
C1 C2 1_555 1_555
C2 H1 1_555 1_555
C3 C2 1_555 1_555
H2 C3 1_555 1_555
C4 C3 1_555 1_555
C5 C4 1_555 1_555
H3 C5 1_555 1_555
C6 C1 1_555 1_555
H4 C6 1_555 1_555
C7 C1 1_555 1_555
H5 C7 1_555 1_555
H6 C7 1_555 1_555
H7 C7 1_555 1_555
C8 C9 1_555 1_555
C9 C11 1_555 1_555
C10 H8 1_555 1_555
C11 H9 1_555 1_555
H10 C11 1_555 1_555
H11 C11 1_555 1_555
C12 C13 1_555 1_555
C13 H12 1_555 1_555
C14 C13 1_555 1_555
H13 C14 1_555 1_555
C15 C14 1_555 1_555
C16 C15 1_555 1_555
H14 C16 1_555 1_555
C17 C12 1_555 1_555
H15 C17 1_555 1_555
N1 C8 1_555 1_555
N2 C9 1_555 1_555
O1 S1 1_555 1_555
O2 S1 1_555 1_555
S1 C4 1_555 1_555
Br1 C15 1_555 1_555
C5 C6 1_555 1_555
C8 S1 1_555 1_555
C10 N1 1_555 1_555
C10 N2 1_555 1_555
C12 N1 1_555 1_555
C16 C17 1_555 1_555

#END
