
#######################################################################
#
#                 Cambridge Crystallographic Data Centre
#                                CCDC 
#
#######################################################################
#
# If this CIF has been generated from an entry in the Cambridge 
# Structural Database, then it will include bibliographic, chemical, 
# crystal, experimental, refinement or atomic coordinate data resulting 
# from the CCDC's data processing and validation procedures.
#
#######################################################################

data_UCOLAA
_chemical_compound_source        
'stem bark of Warburgia ugandensis Sprague (Canellaceae)'
_chemical_name_common            cinnamolide-3beta-ol-acetate
_chemical_formula_moiety         'C17 H24 O4'
_chemical_name_systematic        3\b-Acetoxy-7-drimen-12,11-olide
_symmetry_cell_setting           monoclinic
_symmetry_space_group_name_H-M   'P 21'
_symmetry_Int_Tables_number      4
_space_group_name_Hall           'P 2yb'
loop_
_symmetry_equiv_pos_site_id
_symmetry_equiv_pos_as_xyz
1 x,y,z
2 -x,1/2+y,-z
_cell_length_a                   6.802(3)
_cell_length_b                   7.918(4)
_cell_length_c                   14.302(8)
_cell_angle_alpha                90
_cell_angle_beta                 101.22(2)
_cell_angle_gamma                90
_cell_volume                     755.558
_exptl_crystal_colour            colorless
_exptl_crystal_description       prism
_cell_formula_units_Z            2
_exptl_crystal_recrystallization_method acetone/hexane
loop_
_atom_site_label
_atom_site_type_symbol
_atom_site_fract_x
_atom_site_fract_y
_atom_site_fract_z
O1 O 0.8176(3) 0.4883(3) 0.55905(12)
O2 O 0.9004(3) 0.7238(3) 0.64502(13)
O3 O 0.2946(2) 0.7821(3) 0.03214(12)
O4 O -0.0282(3) 0.7133(3) 0.02549(13)
C1 C 0.5137(4) 0.5137(4) 0.24430(18)
H1 H 0.5911 0.4071 0.2488
H2 H 0.3883 0.4910 0.2675
C2 C 0.4608(4) 0.5684(4) 0.13965(18)
H3 H 0.5848 0.5818 0.1138
H4 H 0.3767 0.4811 0.1017
C3 C 0.3484(4) 0.7340(4) 0.13273(17)
H5 H 0.2227 0.7178 0.1581
C4 C 0.4685(4) 0.8808(4) 0.18701(18)
C5 C 0.5321(4) 0.8218(4) 0.29222(18)
H6 H 0.4030 0.8075 0.3150
C6 C 0.6462(4) 0.9594(4) 0.35766(18)
H7 H 0.7580 1.0015 0.3290
H8 H 0.5544 1.0553 0.3609
C7 C 0.7284(4) 0.8995(4) 0.45640(19)
H9 H 0.7873 0.9790 0.5033
C8 C 0.7213(4) 0.7382(4) 0.48037(18)
C9 C 0.6281(4) 0.6011(4) 0.41395(19)
H10 H 0.4839 0.5919 0.4190
C10 C 0.6365(4) 0.6465(4) 0.30899(18)
C11 C 0.7360(4) 0.4441(4) 0.45954(19)
H11 H 0.6413 0.3483 0.4562
H12 H 0.8452 0.4117 0.4263
C12 C 0.8213(4) 0.6600(4) 0.5705(2)
C13 C 0.3243(4) 1.0323(4) 0.1838(2)
H13 H 0.2183 1.0040 0.2187
H14 H 0.2643 1.0581 0.1173
H15 H 0.3988 1.1309 0.2132
C14 C 0.6407(4) 0.9339(4) 0.1383(2)
H16 H 0.7388 0.9999 0.1830
H17 H 0.5877 1.0027 0.0821
H18 H 0.7057 0.8330 0.1187
C15 C 0.8545(3) 0.6492(4) 0.29435(18)
H19 H 0.9130 0.5362 0.3063
H20 H 0.9322 0.7300 0.3387
H21 H 0.8573 0.6829 0.2287
C16 C 0.1016(4) 0.7681(4) -0.01206(18)
C17 C 0.0738(4) 0.8303(4) -0.11191(18)
H22 H -0.0402 0.7720 -0.1512
H23 H 0.1953 0.8077 -0.1371
H24 H 0.0480 0.9521 -0.1132
loop_
_geom_bond_atom_site_label_1
_geom_bond_atom_site_label_2
_geom_bond_site_symmetry_1
_geom_bond_site_symmetry_2
O1 C11 1_555 1_555
O2 C12 1_555 1_555
O3 C3 1_555 1_555
O4 C16 1_555 1_555
C1 H1 1_555 1_555
H2 C1 1_555 1_555
C2 C1 1_555 1_555
H3 C2 1_555 1_555
H4 C2 1_555 1_555
C3 C2 1_555 1_555
H5 C3 1_555 1_555
C4 C3 1_555 1_555
C5 C4 1_555 1_555
H6 C5 1_555 1_555
C6 C5 1_555 1_555
H7 C6 1_555 1_555
H8 C6 1_555 1_555
C7 C6 1_555 1_555
H9 C7 1_555 1_555
C8 C7 1_555 1_555
C9 C8 1_555 1_555
H10 C9 1_555 1_555
C10 C1 1_555 1_555
C11 C9 1_555 1_555
H11 C11 1_555 1_555
H12 C11 1_555 1_555
C12 O1 1_555 1_555
C13 C4 1_555 1_555
H13 C13 1_555 1_555
H14 C13 1_555 1_555
H15 C13 1_555 1_555
C14 C4 1_555 1_555
H16 C14 1_555 1_555
H17 C14 1_555 1_555
H18 C14 1_555 1_555
C15 C10 1_555 1_555
H19 C15 1_555 1_555
H20 C15 1_555 1_555
H21 C15 1_555 1_555
C16 O3 1_555 1_555
C17 C16 1_555 1_555
H22 C17 1_555 1_555
H23 C17 1_555 1_555
H24 C17 1_555 1_555
C5 C10 1_555 1_555
C8 C12 1_555 1_555
C9 C10 1_555 1_555

#END
