
#######################################################################
#
#                 Cambridge Crystallographic Data Centre
#                                CCDC 
#
#######################################################################
#
# If this CIF has been generated from an entry in the Cambridge 
# Structural Database, then it will include bibliographic, chemical, 
# crystal, experimental, refinement or atomic coordinate data resulting 
# from the CCDC's data processing and validation procedures.
#
#######################################################################

data_UCOQUZ
_chemical_formula_moiety         'C18 H31 N1 O3 S2'
_chemical_name_systematic        
'(1R,2S,4R)-4-methylbenzenesulfinic acid (2,2-dimethyl-1-(1-(t-butylsulfonyl)ethyl)propyl)amide'
_symmetry_cell_setting           orthorhombic
_symmetry_space_group_name_H-M   'P 21 21 21'
_symmetry_Int_Tables_number      19
_space_group_name_Hall           'P 2ac 2ab'
loop_
_symmetry_equiv_pos_site_id
_symmetry_equiv_pos_as_xyz
1 x,y,z
2 -x,1/2+y,1/2-z
3 1/2-x,-y,1/2+z
4 1/2+x,1/2-y,-z
_cell_length_a                   9.435(1)
_cell_length_b                   11.465(1)
_cell_length_c                   19.104(2)
_cell_angle_alpha                90
_cell_angle_beta                 90
_cell_angle_gamma                90
_cell_volume                     2066.52
_exptl_crystal_colour            colorless
_exptl_crystal_description       plate
_cell_formula_units_Z            4
loop_
_atom_site_label
_atom_site_type_symbol
_atom_site_fract_x
_atom_site_fract_y
_atom_site_fract_z
C1 C -0.3189(6) -0.0160(4) 0.1770(3)
C2 C -0.2834(7) -0.0301(6) 0.1062(3)
C3 C -0.3628(7) -0.1062(6) 0.0665(3)
C4 C -0.4736(7) -0.1698(5) 0.0958(3)
C5 C -0.5052(7) -0.1539(5) 0.1669(3)
C6 C -0.4280(6) -0.0761(5) 0.2063(3)
C7 C -0.5568(11) -0.2543(8) 0.0536(4)
S1 S -0.2210(2) 0.0902(1) 0.22781(9)
N1 N -0.0736(5) 0.0140(3) 0.2340(2)
O1 O -0.2985(5) 0.0990(5) 0.2952(3)
C8 C 0.0583(5) 0.0768(4) 0.2484(2)
C9 C 0.1614(5) 0.0650(4) 0.1851(2)
C10 C 0.1290(6) 0.0431(4) 0.3181(2)
C11 C 0.1848(7) -0.0819(5) 0.3174(3)
C12 C 0.0208(9) 0.0558(6) 0.3769(3)
C13 C 0.2514(9) 0.1276(6) 0.3328(3)
C14 C 0.1355(7) -0.0406(5) 0.1388(3)
S2 S 0.1510(1) 0.2010(1) 0.13556(5)
O2 O 0.0294(5) 0.1941(5) 0.0907(2)
O3 O 0.1550(5) 0.2931(3) 0.1871(2)
C15 C 0.3087(6) 0.2213(5) 0.0816(3)
C16 C 0.4397(8) 0.2134(8) 0.1269(4)
C17 C 0.3130(12) 0.1357(9) 0.0225(4)
C18 C 0.2949(9) 0.3445(7) 0.0535(4)
H1 H -0.2058 0.0122 0.0859
H2 H -0.3413 -0.1156 0.0177
H3 H -0.5808 -0.1974 0.1881
H4 H -0.4513 -0.0642 0.2547
H5 H -0.6282 -0.2895 0.0825
H6 H -0.6012 -0.2143 0.0153
H7 H -0.4948 -0.3137 0.0357
H8 H -0.0741 -0.0692 0.2283
H9 H 0.0337 0.1575 0.2542
H10 H 0.2551 0.0518 0.2030
H11 H 0.2279 -0.0993 0.3617
H12 H 0.1077 -0.1348 0.3092
H13 H 0.2539 -0.0902 0.2808
H14 H 0.0640 0.0349 0.4206
H15 H -0.0114 0.1352 0.3790
H16 H -0.0583 0.0053 0.3680
H17 H 0.2960 0.1070 0.3762
H18 H 0.3195 0.1229 0.2956
H19 H 0.2153 0.2057 0.3358
H20 H 0.2032 -0.0412 0.1013
H21 H 0.1455 -0.1105 0.1661
H22 H 0.0414 -0.0368 0.1198
H23 H 0.5225 0.2241 0.0984
H24 H 0.4364 0.2729 0.1622
H25 H 0.4433 0.1381 0.1489
H26 H 0.3969 0.1485 -0.0049
H27 H 0.3141 0.0578 0.0409
H28 H 0.2308 0.1459 -0.0065
H29 H 0.3748 0.3620 0.0242
H30 H 0.2093 0.3509 0.0266
H31 H 0.2918 0.3985 0.0919
loop_
_geom_bond_atom_site_label_1
_geom_bond_atom_site_label_2
_geom_bond_site_symmetry_1
_geom_bond_site_symmetry_2
C1 C2 1_555 1_555
C2 C3 1_555 1_555
C3 C4 1_555 1_555
C4 C5 1_555 1_555
C5 C6 1_555 1_555
C6 C1 1_555 1_555
C7 C4 1_555 1_555
S1 C1 1_555 1_555
N1 S1 1_555 1_555
O1 S1 1_555 1_555
C8 N1 1_555 1_555
C9 C8 1_555 1_555
C10 C8 1_555 1_555
C11 C10 1_555 1_555
C12 C10 1_555 1_555
C13 C10 1_555 1_555
C14 C9 1_555 1_555
S2 C9 1_555 1_555
O2 S2 1_555 1_555
O3 S2 1_555 1_555
C15 S2 1_555 1_555
C16 C15 1_555 1_555
C17 C15 1_555 1_555
C18 C15 1_555 1_555
H1 C2 1_555 1_555
H2 C3 1_555 1_555
H3 C5 1_555 1_555
H4 C6 1_555 1_555
H5 C7 1_555 1_555
H6 C7 1_555 1_555
H7 C7 1_555 1_555
H8 N1 1_555 1_555
H9 C8 1_555 1_555
H10 C9 1_555 1_555
H11 C11 1_555 1_555
H12 C11 1_555 1_555
H13 C11 1_555 1_555
H14 C12 1_555 1_555
H15 C12 1_555 1_555
H16 C12 1_555 1_555
H17 C13 1_555 1_555
H18 C13 1_555 1_555
H19 C13 1_555 1_555
H20 C14 1_555 1_555
H21 C14 1_555 1_555
H22 C14 1_555 1_555
H23 C16 1_555 1_555
H24 C16 1_555 1_555
H25 C16 1_555 1_555
H26 C17 1_555 1_555
H27 C17 1_555 1_555
H28 C17 1_555 1_555
H29 C18 1_555 1_555
H30 C18 1_555 1_555
H31 C18 1_555 1_555

#END
