
#######################################################################
#
#                 Cambridge Crystallographic Data Centre
#                                CCDC 
#
#######################################################################
#
# If this CIF has been generated from an entry in the Cambridge 
# Structural Database, then it will include bibliographic, chemical, 
# crystal, experimental, refinement or atomic coordinate data resulting 
# from the CCDC's data processing and validation procedures.
#
#######################################################################

data_UCOSIP
_chemical_formula_moiety         'C19 H13 N7,H2 O1'
_chemical_name_systematic        
"3-methyl-6,8-bis(2-pyridyl)[1,2,3]triazolo[5',1':6,1]pyrido[2,3-d]pyrimidine monohydrate"
_symmetry_cell_setting           monoclinic
_symmetry_space_group_name_H-M   'P n'
_symmetry_Int_Tables_number      7
_space_group_name_Hall           'P -2yac'
loop_
_symmetry_equiv_pos_site_id
_symmetry_equiv_pos_as_xyz
1 x,y,z
2 1/2+x,-y,1/2+z
_cell_length_a                   11.734(2)
_cell_length_b                   3.7442(7)
_cell_length_c                   19.385(4)
_cell_angle_alpha                90
_cell_angle_beta                 99.57(3)
_cell_angle_gamma                90
_cell_volume                     839.817
_exptl_crystal_colour            yellow
_exptl_crystal_description       spike
_chemical_melting_point          '255-257 deg.C'
_cell_formula_units_Z            2
_exptl_crystal_recrystallization_method 'ethyl acetate'
loop_
_atom_site_label
_atom_site_type_symbol
_atom_site_fract_x
_atom_site_fract_y
_atom_site_fract_z
N1 N 0.6311(6) 0.9845(18) 0.6625(3)
N2 N 0.6971(6) 0.690(2) 0.4303(3)
N3 N 0.7353(6) 0.6352(19) 0.3705(4)
C1 C 0.6498(7) 0.480(2) 0.3222(4)
C2 C 0.5523(7) 0.432(2) 0.3526(4)
C3 C 0.4399(7) 0.297(2) 0.3335(4)
H1 H 0.4161 0.2024 0.2879
C4 C 0.3654(7) 0.300(2) 0.3798(4)
H2 H 0.2900 0.2031 0.3670
C5 C 0.4002(7) 0.452(2) 0.4488(4)
C6 C 0.3278(7) 0.4678(18) 0.5008(3)
N4 N 0.3712(5) 0.5970(17) 0.5649(3)
C7 C 0.4805(7) 0.725(2) 0.5765(4)
N5 N 0.5538(5) 0.7238(17) 0.5310(3)
C8 C 0.5123(6) 0.5851(19) 0.4694(4)
N6 N 0.5853(5) 0.5733(16) 0.4195(3)
C9 C 0.5187(6) 0.8864(19) 0.6475(4)
C10 C 0.6669(7) 1.130(2) 0.7262(4)
H3 H 0.7456 1.1985 0.7382
C11 C 0.5949(7) 1.183(2) 0.7749(4)
H4 H 0.6230 1.2888 0.8189
C12 C 0.4812(7) 1.078(2) 0.7577(4)
H5 H 0.4301 1.1090 0.7904
C13 C 0.4404(7) 0.926(2) 0.6925(4)
H6 H 0.3622 0.8542 0.6798
C14 C 0.6685(9) 0.379(2) 0.2494(5)
H7 H 0.6683 0.1183 0.2450
H8 H 0.7430 0.4732 0.2412
H9 H 0.6063 0.4800 0.2149
C15 C 0.2061(6) 0.3516(18) 0.4928(3)
N7 N 0.1399(5) 0.4159(16) 0.4306(3)
C16 C 0.0298(7) 0.327(2) 0.4250(4)
H10 H -0.0186 0.3725 0.3815
C17 C -0.0213(7) 0.172(2) 0.4777(4)
H11 H -0.1013 0.1162 0.4709
C18 C 0.0507(7) 0.105(2) 0.5404(4)
H12 H 0.0203 -0.0060 0.5775
C19 C 0.1655(7) 0.196(2) 0.5497(4)
H13 H 0.2152 0.1550 0.5929
O1 O 0.8027(15) 0.882(6) 0.5832(9)
O3 O 0.9145(15) 0.390(6) 0.6718(9)
O2? O 0.8192(19) 0.703(7) 0.5946(11)
O4? O 0.9160(17) 0.199(7) 0.6797(10)
loop_
_geom_bond_atom_site_label_1
_geom_bond_atom_site_label_2
_geom_bond_site_symmetry_1
_geom_bond_site_symmetry_2
N1 C9 1_555 1_555
N2 N3 1_555 1_555
N3 C1 1_555 1_555
C1 C2 1_555 1_555
C2 C3 1_555 1_555
C3 H1 1_555 1_555
C4 C3 1_555 1_555
H2 C4 1_555 1_555
C5 C4 1_555 1_555
C6 C5 1_555 1_555
N4 C6 1_555 1_555
C7 N4 1_555 1_555
N5 C7 1_555 1_555
C8 C5 1_555 1_555
N6 N2 1_555 1_555
C9 C7 1_555 1_555
C10 N1 1_555 1_555
H3 C10 1_555 1_555
C11 C10 1_555 1_555
H4 C11 1_555 1_555
C12 C11 1_555 1_555
H5 C12 1_555 1_555
C13 C9 1_555 1_555
H6 C13 1_555 1_555
C14 C1 1_555 1_555
H7 C14 1_555 1_555
H8 C14 1_555 1_555
H9 C14 1_555 1_555
C15 C6 1_555 1_555
N7 C15 1_555 1_555
C16 N7 1_555 1_555
H10 C16 1_555 1_555
C17 C16 1_555 1_555
H11 C17 1_555 1_555
C18 C17 1_555 1_555
H12 C18 1_555 1_555
C19 C15 1_555 1_555
H13 C19 1_555 1_555
C2 N6 1_555 1_555
N5 C8 1_555 1_555
C8 N6 1_555 1_555
C12 C13 1_555 1_555
C18 C19 1_555 1_555

#END
