
#######################################################################
#
#                 Cambridge Crystallographic Data Centre
#                                CCDC 
#
#######################################################################
#
# If this CIF has been generated from an entry in the Cambridge 
# Structural Database, then it will include bibliographic, chemical, 
# crystal, experimental, refinement or atomic coordinate data resulting 
# from the CCDC's data processing and validation procedures.
#
#######################################################################

data_UCOVOY
_chemical_formula_moiety         'C22 H22 N4 O2'
_chemical_name_systematic        
1,2-bis(6-methylpyridine-2-carboxamido)-4,5-dimethylbenzene
_symmetry_cell_setting           triclinic
_symmetry_space_group_name_H-M   'P -1'
_symmetry_Int_Tables_number      2
_space_group_name_Hall           '-P 1'
loop_
_symmetry_equiv_pos_site_id
_symmetry_equiv_pos_as_xyz
1 x,y,z
2 -x,-y,-z
_cell_length_a                   7.862(2)
_cell_length_b                   11.275(3)
_cell_length_c                   12.032(4)
_cell_angle_alpha                69.978(5)
_cell_angle_beta                 87.511(6)
_cell_angle_gamma                73.140(5)
_cell_volume                     957.176
_exptl_crystal_colour            colorless
_exptl_crystal_description       block
_cell_formula_units_Z            2
_exptl_crystal_recrystallization_method 'pyridine/diethyl ether'
loop_
_atom_site_label
_atom_site_type_symbol
_atom_site_fract_x
_atom_site_fract_y
_atom_site_fract_z
N1 N 0.3369(2) -0.05684(16) 0.43701(12)
N2 N 0.3046(2) 0.08691(16) 0.20600(13)
H1 H 0.374(3) 0.0115(18) 0.2444(15)
N3 N 0.2409(2) -0.03637(15) 0.05549(13)
H2 H 0.232(2) -0.0635(17) 0.1348(15)
N4 N 0.1873(2) -0.25736(15) 0.20197(13)
O1 O 0.0900(2) 0.25485(14) 0.23687(11)
O2 O 0.1942(2) -0.08828(13) -0.10523(11)
C1 C 0.3581(3) -0.1297(2) 0.55317(16)
C2 C 0.2677(3) -0.0827(2) 0.63725(17)
H3 H 0.2861 -0.1352 0.7170
C3 C 0.1505(3) 0.0418(2) 0.60268(17)
H4 H 0.0885 0.0749 0.6585
C4 C 0.1257(3) 0.1175(2) 0.48353(17)
H5 H 0.0458 0.2019 0.4573
C5 C 0.2224(3) 0.0646(2) 0.40476(15)
C6 C 0.1969(3) 0.1455(2) 0.27485(16)
C7 C 0.3109(3) 0.14677(18) 0.08104(15)
C8 C 0.3454(3) 0.26682(19) 0.03483(15)
H6 H 0.3650 0.3078 0.0862
C9 C 0.3518(3) 0.32853(19) -0.08653(16)
C10 C 0.3277(3) 0.26376(19) -0.16182(15)
C11 C 0.2925(3) 0.14319(19) -0.11554(15)
H7 H 0.2760 0.1009 -0.1666
C12 C 0.2812(2) 0.08398(18) 0.00583(15)
C13 C 0.2021(3) -0.11295(19) 0.00141(17)
C14 C 0.1702(3) -0.23699(18) 0.08625(16)
C15 C 0.1271(3) -0.3228(2) 0.04192(17)
H8 H 0.1154 -0.3045 -0.0393
C16 C 0.1018(3) -0.4369(2) 0.12174(19)
H9 H 0.0727 -0.4974 0.0953
C17 C 0.1202(3) -0.4597(2) 0.24011(18)
H10 H 0.1049 -0.5368 0.2949
C18 C 0.1617(3) -0.3685(2) 0.27901(17)
C19 C 0.3806(3) 0.46317(19) -0.13416(17)
H11 H 0.4813 0.4600 -0.1823
H12 H 0.4023 0.4892 -0.0693
H13 H 0.2764 0.5260 -0.1812
C20 C 0.3383(3) 0.3224(2) -0.29398(15)
H14 H 0.2600 0.4110 -0.3226
H15 H 0.3034 0.2702 -0.3320
H16 H 0.4583 0.3234 -0.3115
C21 C 0.4871(3) -0.2658(2) 0.58750(16)
H17 H 0.4277 -0.3261 0.5796
H18 H 0.5314 -0.2934 0.6682
H19 H 0.5846 -0.2649 0.5366
C22 C 0.1823(3) -0.3881(2) 0.40778(16)
H20 H 0.2079 -0.3131 0.4159
H21 H 0.2782 -0.4663 0.4454
H22 H 0.0738 -0.3974 0.4447
loop_
_geom_bond_atom_site_label_1
_geom_bond_atom_site_label_2
_geom_bond_site_symmetry_1
_geom_bond_site_symmetry_2
N1 C1 1_555 1_555
N2 H1 1_555 1_555
N3 H2 1_555 1_555
N4 C14 1_555 1_555
O1 C6 1_555 1_555
O2 C13 1_555 1_555
C1 C2 1_555 1_555
C2 H3 1_555 1_555
C3 C2 1_555 1_555
H4 C3 1_555 1_555
C4 C3 1_555 1_555
H5 C4 1_555 1_555
C5 N1 1_555 1_555
C6 N2 1_555 1_555
C7 N2 1_555 1_555
C8 C7 1_555 1_555
H6 C8 1_555 1_555
C9 C8 1_555 1_555
C10 C9 1_555 1_555
C11 C10 1_555 1_555
H7 C11 1_555 1_555
C12 N3 1_555 1_555
C13 N3 1_555 1_555
C14 C13 1_555 1_555
C15 C14 1_555 1_555
H8 C15 1_555 1_555
C16 C15 1_555 1_555
H9 C16 1_555 1_555
C17 C16 1_555 1_555
H10 C17 1_555 1_555
C18 N4 1_555 1_555
C19 C9 1_555 1_555
H11 C19 1_555 1_555
H12 C19 1_555 1_555
H13 C19 1_555 1_555
C20 C10 1_555 1_555
H14 C20 1_555 1_555
H15 C20 1_555 1_555
H16 C20 1_555 1_555
C21 C1 1_555 1_555
H17 C21 1_555 1_555
H18 C21 1_555 1_555
H19 C21 1_555 1_555
C22 C18 1_555 1_555
H20 C22 1_555 1_555
H21 C22 1_555 1_555
H22 C22 1_555 1_555
C4 C5 1_555 1_555
C5 C6 1_555 1_555
C7 C12 1_555 1_555
C11 C12 1_555 1_555
C17 C18 1_555 1_555

#END
