
#######################################################################
#
#                 Cambridge Crystallographic Data Centre
#                                CCDC 
#
#######################################################################
#
# If this CIF has been generated from an entry in the Cambridge 
# Structural Database, then it will include bibliographic, chemical, 
# crystal, experimental, refinement or atomic coordinate data resulting 
# from the CCDC's data processing and validation procedures.
#
#######################################################################

data_UCOZAO
_chemical_formula_moiety         'C40 H62 Li1 N1 O1 P2'
_chemical_name_systematic        
"(bis(2-(dicyclohexylphosphino)phenyl)amine-N,P,P')-(diethyl ether-O)-lithium"
_symmetry_cell_setting           triclinic
_symmetry_space_group_name_H-M   'P -1'
_symmetry_Int_Tables_number      2
_space_group_name_Hall           '-P 1'
loop_
_symmetry_equiv_pos_site_id
_symmetry_equiv_pos_as_xyz
1 x,y,z
2 -x,-y,-z
_cell_length_a                   10.28900(10)
_cell_length_b                   10.9240(2)
_cell_length_c                   19.3070(3)
_cell_angle_alpha                82.5160(10)
_cell_angle_beta                 76.7630(10)
_cell_angle_gamma                63.9670(10)
_cell_volume                     1896.98
_exptl_crystal_colour            yellow
_exptl_crystal_description       prism
_cell_formula_units_Z            2
_exptl_crystal_recrystallization_method 'diethyl ether'
loop_
_atom_site_label
_atom_site_type_symbol
_atom_site_fract_x
_atom_site_fract_y
_atom_site_fract_z
P1 P 0.68190(5) 0.02970(5) 0.18621(2)
P2 P 0.21037(5) 0.19604(5) 0.33949(2)
O1 O 0.3132(2) 0.27614(19) 0.15036(9)
N1 N 0.44004(16) -0.04522(15) 0.25541(8)
C1 C 0.7802(2) 0.0770(2) 0.10104(10)
H1 H 0.8683 -0.0011 0.0833
C2 C 0.6808(2) 0.1272(2) 0.04595(11)
H2 H 0.6619 0.0540 0.0350
H3 H 0.5894 0.2005 0.0653
C3 C 0.7503(3) 0.1807(3) -0.02272(12)
H4 H 0.8401 0.1070 -0.0433
H5 H 0.6844 0.2148 -0.0558
C4 C 0.7904(3) 0.2913(3) -0.00804(14)
H6 H 0.8384 0.3193 -0.0516
H7 H 0.7011 0.3674 0.0107
C5 C 0.8904(3) 0.2432(3) 0.04575(13)
H8 H 0.9805 0.1686 0.0263
H9 H 0.9116 0.3153 0.0561
C6 C 0.8228(3) 0.1889(2) 0.11457(11)
H10 H 0.7355 0.2635 0.1364
H11 H 0.8924 0.1538 0.1458
C7 C 0.8227(2) -0.04220(19) 0.24357(10)
H12 H 0.8328 0.0367 0.2535
C8 C 0.9732(3) -0.1497(3) 0.21159(14)
H13 H 0.9631 -0.2287 0.2019
H14 H 1.0132 -0.1141 0.1682
C9 C 1.0791(3) -0.1924(3) 0.26325(17)
H15 H 1.1714 -0.2635 0.2428
H16 H 1.0946 -0.1153 0.2714
C10 C 1.0182(4) -0.2443(3) 0.33348(19)
H17 H 1.0090 -0.3255 0.3267
H18 H 1.0848 -0.2647 0.3654
C11 C 0.8675(3) -0.1379(3) 0.36604(14)
H19 H 0.8277 -0.1751 0.4089
H20 H 0.8774 -0.0595 0.3770
C12 C 0.7602(3) -0.0932(3) 0.31478(11)
H21 H 0.6690 -0.0209 0.3352
H22 H 0.7426 -0.1695 0.3075
C13 C 0.6617(2) -0.11909(18) 0.16500(9)
C14 C 0.7604(2) -0.2105(2) 0.11249(10)
H23 H 0.8453 -0.1976 0.0866
C15 C 0.7393(3) -0.3199(2) 0.09662(11)
H24 H 0.8107 -0.3825 0.0614
C16 C 0.6142(3) -0.3351(2) 0.13240(11)
H25 H 0.5956 -0.4082 0.1210
C17 C 0.5150(2) -0.2473(2) 0.18426(11)
H26 H 0.4287 -0.2593 0.2084
C18 C 0.5367(2) -0.13843(18) 0.20451(9)
C19 C 0.36799(19) -0.08413(18) 0.31733(9)
C20 C 0.4082(2) -0.22107(19) 0.34324(10)
H27 H 0.4900 -0.2935 0.3166
C21 C 0.3346(2) -0.2547(2) 0.40634(11)
H28 H 0.3628 -0.3484 0.4218
C22 C 0.2187(2) -0.1557(2) 0.44896(11)
H29 H 0.1674 -0.1828 0.4917
C23 C 0.1814(2) -0.0208(2) 0.42720(10)
H30 H 0.1057 0.0512 0.4565
C24 C 0.25216(19) 0.01747(18) 0.36317(10)
C25 C 0.0058(2) 0.28748(18) 0.34674(10)
H31 H -0.0336 0.3162 0.3950
C26 C -0.0660(2) 0.2023(2) 0.32916(12)
H32 H -0.0246 0.1715 0.2814
H33 H -0.0484 0.1251 0.3618
C27 C -0.2322(2) 0.2863(2) 0.33568(14)
H34 H -0.2744 0.2321 0.3224
H35 H -0.2756 0.3130 0.3840
C28 C -0.2681(3) 0.4134(2) 0.28777(14)
H36 H -0.2312 0.3879 0.2390
H37 H -0.3729 0.4667 0.2950
C29 C -0.1952(2) 0.4999(2) 0.30214(13)
H38 H -0.2130 0.5765 0.2690
H39 H -0.2368 0.5319 0.3497
C30 C -0.0296(2) 0.41528(19) 0.29725(12)
H40 H 0.0120 0.4712 0.3092
H41 H 0.0122 0.3879 0.2489
C31 C 0.2407(2) 0.25125(18) 0.41936(10)
H42 H 0.1862 0.2247 0.4610
C32 C 0.1900(2) 0.40556(19) 0.41903(10)
H43 H 0.2397 0.4329 0.3758
H44 H 0.0856 0.4502 0.4209
C33 C 0.2266(2) 0.4470(2) 0.48195(11)
H45 H 0.1971 0.5436 0.4802
H46 H 0.1748 0.4216 0.5251
C34 C 0.3907(2) 0.3740(2) 0.48264(13)
H47 H 0.4436 0.4000 0.4401
H48 H 0.4106 0.3993 0.5235
C35 C 0.4425(3) 0.2207(2) 0.48453(13)
H49 H 0.5474 0.1770 0.4815
H50 H 0.3951 0.1930 0.5285
C36 C 0.4046(2) 0.1763(2) 0.42292(12)
H51 H 0.4326 0.0799 0.4284
H52 H 0.4609 0.1955 0.3795
C37 C 0.3703(5) 0.4362(3) 0.1939(3)
H53 H 0.3635 0.5272 0.1905
H54 H 0.4721 0.3723 0.1846
H55 H 0.3245 0.4185 0.2410
C38 C 0.2984(5) 0.4127(4) 0.1421(3)
H56 H 0.3436 0.4290 0.0947
H57 H 0.1960 0.4752 0.1510
C39 C 0.2423(5) 0.2486(5) 0.10276(19)
H58 H 0.1392 0.3090 0.1102
H59 H 0.2882 0.2610 0.0548
C40 C 0.2626(5) 0.1079(5) 0.1125(2)
H60 H 0.2159 0.0924 0.0790
H61 H 0.2162 0.0937 0.1600
H62 H 0.3651 0.0458 0.1046
Li1 Li 0.3996(4) 0.1469(3) 0.22679(17)
loop_
_geom_bond_atom_site_label_1
_geom_bond_atom_site_label_2
_geom_bond_site_symmetry_1
_geom_bond_site_symmetry_2
P1 C1 1_555 1_555
P2 C24 1_555 1_555
O1 C38 1_555 1_555
N1 C18 1_555 1_555
C1 H1 1_555 1_555
C2 C1 1_555 1_555
H2 C2 1_555 1_555
H3 C2 1_555 1_555
C3 C2 1_555 1_555
H4 C3 1_555 1_555
H5 C3 1_555 1_555
C4 C3 1_555 1_555
H6 C4 1_555 1_555
H7 C4 1_555 1_555
C5 C4 1_555 1_555
H8 C5 1_555 1_555
H9 C5 1_555 1_555
C6 C1 1_555 1_555
H10 C6 1_555 1_555
H11 C6 1_555 1_555
C7 P1 1_555 1_555
H12 C7 1_555 1_555
C8 C7 1_555 1_555
H13 C8 1_555 1_555
H14 C8 1_555 1_555
C9 C8 1_555 1_555
H15 C9 1_555 1_555
H16 C9 1_555 1_555
C10 C9 1_555 1_555
H17 C10 1_555 1_555
H18 C10 1_555 1_555
C11 C10 1_555 1_555
H19 C11 1_555 1_555
H20 C11 1_555 1_555
C12 C7 1_555 1_555
H21 C12 1_555 1_555
H22 C12 1_555 1_555
C13 P1 1_555 1_555
C14 C13 1_555 1_555
H23 C14 1_555 1_555
C15 C14 1_555 1_555
H24 C15 1_555 1_555
C16 C15 1_555 1_555
H25 C16 1_555 1_555
C17 C16 1_555 1_555
H26 C17 1_555 1_555
C18 C13 1_555 1_555
C19 N1 1_555 1_555
C20 C19 1_555 1_555
H27 C20 1_555 1_555
C21 C20 1_555 1_555
H28 C21 1_555 1_555
C22 C21 1_555 1_555
H29 C22 1_555 1_555
C23 C22 1_555 1_555
H30 C23 1_555 1_555
C24 C19 1_555 1_555
C25 P2 1_555 1_555
H31 C25 1_555 1_555
C26 C25 1_555 1_555
H32 C26 1_555 1_555
H33 C26 1_555 1_555
C27 C26 1_555 1_555
H34 C27 1_555 1_555
H35 C27 1_555 1_555
C28 C27 1_555 1_555
H36 C28 1_555 1_555
H37 C28 1_555 1_555
C29 C28 1_555 1_555
H38 C29 1_555 1_555
H39 C29 1_555 1_555
C30 C25 1_555 1_555
H40 C30 1_555 1_555
H41 C30 1_555 1_555
C31 P2 1_555 1_555
H42 C31 1_555 1_555
C32 C31 1_555 1_555
H43 C32 1_555 1_555
H44 C32 1_555 1_555
C33 C32 1_555 1_555
H45 C33 1_555 1_555
H46 C33 1_555 1_555
C34 C33 1_555 1_555
H47 C34 1_555 1_555
H48 C34 1_555 1_555
C35 C34 1_555 1_555
H49 C35 1_555 1_555
H50 C35 1_555 1_555
C36 C31 1_555 1_555
H51 C36 1_555 1_555
H52 C36 1_555 1_555
C37 H53 1_555 1_555
H54 C37 1_555 1_555
H55 C37 1_555 1_555
C38 C37 1_555 1_555
H56 C38 1_555 1_555
H57 C38 1_555 1_555
C39 O1 1_555 1_555
H58 C39 1_555 1_555
H59 C39 1_555 1_555
C40 C39 1_555 1_555
H60 C40 1_555 1_555
H61 C40 1_555 1_555
H62 C40 1_555 1_555
Li1 P1 1_555 1_555
P2 Li1 1_555 1_555
O1 Li1 1_555 1_555
N1 Li1 1_555 1_555
C5 C6 1_555 1_555
C11 C12 1_555 1_555
C17 C18 1_555 1_555
C23 C24 1_555 1_555
C29 C30 1_555 1_555
C35 C36 1_555 1_555

#END
