
#######################################################################
#
#                 Cambridge Crystallographic Data Centre
#                                CCDC 
#
#######################################################################
#
# If this CIF has been generated from an entry in the Cambridge 
# Structural Database, then it will include bibliographic, chemical, 
# crystal, experimental, refinement or atomic coordinate data resulting 
# from the CCDC's data processing and validation procedures.
#
#######################################################################

data_UCUPEO
_chemical_formula_moiety         'C25 H21 N3 O2'
_chemical_name_systematic        
'Methyl 5-amino-1-benzyl-4-(2-(4-methylphenyl)ethynyl)-1H-benzimidazole-6-carboxylate'
_symmetry_cell_setting           monoclinic
_symmetry_space_group_name_H-M   'P 21/n'
_symmetry_Int_Tables_number      14
_space_group_name_Hall           '-P 2yn'
loop_
_symmetry_equiv_pos_site_id
_symmetry_equiv_pos_as_xyz
1 x,y,z
2 1/2-x,1/2+y,1/2-z
3 -x,-y,-z
4 1/2+x,1/2-y,1/2+z
_cell_length_a                   12.7484(1)
_cell_length_b                   6.2552(2)
_cell_length_c                   26.2696(5)
_cell_angle_alpha                90
_cell_angle_beta                 100.3894(7)
_cell_angle_gamma                90
_cell_volume                     2060.49
_exptl_crystal_colour            'light yellow'
_exptl_crystal_description       needle
_chemical_melting_point          212-214deg.C
_cell_formula_units_Z            4
_exptl_crystal_recrystallization_method hexane/chloroform
loop_
_atom_site_label
_atom_site_type_symbol
_atom_site_fract_x
_atom_site_fract_y
_atom_site_fract_z
O1 O 0.36418(14) -0.1479(3) 0.41963(6)
O2 O 0.38940(18) 0.1532(4) 0.46578(7)
N1 N 0.70397(15) 0.1995(3) 0.29864(7)
N2 N 0.60486(13) -0.0978(3) 0.28508(6)
N3 N 0.5389(3) 0.4261(5) 0.44530(9)
C1 C 0.67990(17) 0.0272(4) 0.27002(9)
C2 C 0.50347(17) -0.0494(4) 0.35886(7)
C3 C 0.49108(18) 0.0913(4) 0.39875(7)
C4 C 0.5522(2) 0.2829(4) 0.40649(8)
C5 C 0.62912(18) 0.3279(3) 0.37533(8)
C6 C 0.63833(16) 0.1871(3) 0.33520(7)
C7 C 0.57540(15) 0.0034(3) 0.32740(7)
C8 C 0.55326(18) -0.2830(4) 0.25797(9)
C9 C 0.44155(16) -0.2318(3) 0.22939(7)
C10 C 0.3636(2) -0.3863(5) 0.22364(10)
C11 C 0.2630(2) -0.3435(6) 0.19573(13)
C12 C 0.2393(2) -0.1483(6) 0.17359(12)
C13 C 0.3157(2) 0.0088(5) 0.17956(10)
C14 C 0.41646(18) -0.0335(4) 0.20738(8)
C15 C 0.4114(2) 0.0395(5) 0.43153(8)
C16 C 0.2832(3) -0.2108(7) 0.44888(13)
C17 C 0.7001(2) 0.5136(5) 0.38523(9)
C18 C 0.7558(2) 0.6490(4) 0.39417(9)
C19 C 0.8323(2) 0.8305(4) 0.40381(8)
C20 C 0.9159(3) 0.8561(5) 0.37632(11)
C21 C 0.9863(3) 1.0174(6) 0.38765(12)
C22 C 0.9793(2) 1.1653(4) 0.42629(10)
C23 C 0.8948(3) 1.1380(5) 0.45254(12)
C24 C 0.8244(2) 0.9782(4) 0.44194(11)
C25 C 1.0591(4) 1.3416(7) 0.4389(2)
H1 H 1.041(3) 1.039(5) 0.3729(12)
H2 H 0.474(2) 0.091(4) 0.2123(9)
H3 H 0.6006(19) -0.328(4) 0.2324(9)
H4 H 0.7094(16) -0.012(3) 0.2400(9)
H5 H 0.3803(19) -0.510(4) 0.2387(10)
H6 H 0.5507(17) -0.397(4) 0.2831(9)
H7 H 0.299(2) 0.153(5) 0.1614(12)
H8 H 0.460(2) -0.183(4) 0.3538(9)
H9 H 1.023(3) 1.470(7) 0.4284(16)
H10 H 0.226(3) -0.107(6) 0.4402(13)
H11 H 0.306(3) -0.187(5) 0.4850(16)
H12 H 0.884(3) 1.237(6) 0.4722(13)
H13 H 1.105(5) 1.327(8) 0.418(2)
H14 H 0.920(3) 0.752(6) 0.3455(16)
H15 H 0.263(3) -0.377(8) 0.4405(17)
H16 H 0.166(3) -0.120(5) 0.1532(13)
H17 H 0.762(2) 0.962(4) 0.4607(10)
H18 H 0.212(3) -0.453(5) 0.1893(13)
H19 H 1.100(4) 1.327(7) 0.472(2)
H20 H 0.578(2) 0.538(5) 0.4459(11)
H21 H 0.462(5) 0.370(9) 0.466(3)
loop_
_geom_bond_atom_site_label_1
_geom_bond_atom_site_label_2
_geom_bond_site_symmetry_1
_geom_bond_site_symmetry_2
O1 C15 1_555 1_555
O2 C15 1_555 1_555
N1 C1 1_555 1_555
N2 C1 1_555 1_555
N3 C4 1_555 1_555
C1 H4 1_555 1_555
C2 C3 1_555 1_555
C3 C4 1_555 1_555
C4 C5 1_555 1_555
C5 C6 1_555 1_555
C6 N1 1_555 1_555
C7 N2 1_555 1_555
C8 N2 1_555 1_555
C9 C8 1_555 1_555
C10 C9 1_555 1_555
C11 C10 1_555 1_555
C12 C11 1_555 1_555
C13 C12 1_555 1_555
C14 C9 1_555 1_555
C15 C3 1_555 1_555
C16 O1 1_555 1_555
C17 C5 1_555 1_555
C18 C17 1_555 1_555
C19 C18 1_555 1_555
C20 C19 1_555 1_555
C21 C20 1_555 1_555
C22 C21 1_555 1_555
C23 C22 1_555 1_555
C24 C19 1_555 1_555
C25 C22 1_555 1_555
H1 C21 1_555 1_555
H2 C14 1_555 1_555
H3 C8 1_555 1_555
H5 C10 1_555 1_555
H6 C8 1_555 1_555
H7 C13 1_555 1_555
H8 C2 1_555 1_555
H9 C25 1_555 1_555
H10 C16 1_555 1_555
H11 C16 1_555 1_555
H12 C23 1_555 1_555
H13 C25 1_555 1_555
H14 C20 1_555 1_555
H15 C16 1_555 1_555
H16 C12 1_555 1_555
H17 C24 1_555 1_555
H18 C11 1_555 1_555
H19 C25 1_555 1_555
H20 N3 1_555 1_555
H21 N3 1_555 1_555
C2 C7 1_555 1_555
C6 C7 1_555 1_555
C13 C14 1_555 1_555
C23 C24 1_555 1_555

#END
