
#######################################################################
#
#                 Cambridge Crystallographic Data Centre
#                                CCDC 
#
#######################################################################
#
# If this CIF has been generated from an entry in the Cambridge 
# Structural Database, then it will include bibliographic, chemical, 
# crystal, experimental, refinement or atomic coordinate data resulting 
# from the CCDC's data processing and validation procedures.
#
#######################################################################

data_UCUYIB
_chemical_formula_moiety         'C16 H18 N4 O5 S1'
_chemical_name_systematic        
2,2-Dimethyl-6-(3-((1-phenyl-1H-tetrazol-5-yl)sulfonyl)propyl)-4H-1,3-dioxin-4-one
_symmetry_cell_setting           triclinic
_symmetry_space_group_name_H-M   'P -1'
_symmetry_Int_Tables_number      2
_space_group_name_Hall           '-P 1'
loop_
_symmetry_equiv_pos_site_id
_symmetry_equiv_pos_as_xyz
1 x,y,z
2 -x,-y,-z
_cell_length_a                   8.4081(9)
_cell_length_b                   9.4005(6)
_cell_length_c                   11.5532(8)
_cell_angle_alpha                106.593(5)
_cell_angle_beta                 91.705(6)
_cell_angle_gamma                97.885(9)
_cell_volume                     864.58
_exptl_crystal_colour            colorless
_chemical_melting_point          '79-81 deg.C'
_cell_formula_units_Z            2
loop_
_atom_site_label
_atom_site_type_symbol
_atom_site_fract_x
_atom_site_fract_y
_atom_site_fract_z
S1 S 0.4247(1) 0.7617(1) 0.6773(1)
O1 O -0.2211(2) 0.9235(2) 0.6059(2)
N1 N 0.6592(3) 0.9026(2) 0.8672(2)
C1 C 0.5424(3) 0.9134(3) 0.7899(2)
O2 O -0.1688(2) 0.8870(2) 0.4147(2)
N2 N 0.7164(3) 1.0427(3) 0.9378(2)
C2 C 0.3931(3) 0.8391(3) 0.5576(2)
O3 O 0.0215(2) 0.7329(2) 0.3267(2)
C3 C 0.3467(3) 0.7160(3) 0.4383(3)
N3 N 0.6371(4) 1.1325(3) 0.9027(3)
O4 O 0.2757(3) 0.7301(3) 0.7284(2)
N4 N 0.5255(3) 1.0551(3) 0.8103(2)
C4 C 0.1837(3) 0.6183(3) 0.4329(2)
O5 O 0.5215(3) 0.6457(2) 0.6406(2)
C5 C 0.0456(3) 0.7023(3) 0.4332(2)
C6 C -0.0431(3) 0.7512(3) 0.5259(2)
C7 C -0.1519(3) 0.8550(3) 0.5218(2)
C8 C -0.1299(3) 0.7805(3) 0.3063(2)
C9 C -0.1041(4) 0.8640(3) 0.2138(2)
C10 C -0.2614(4) 0.6469(3) 0.2682(3)
C11 C 0.7240(3) 0.7742(3) 0.8813(2)
C12 C 0.8882(3) 0.7733(3) 0.8755(2)
C13 C 0.9507(4) 0.6486(4) 0.8857(3)
C14 C 0.8487(4) 0.5267(3) 0.9001(2)
C15 C 0.6854(4) 0.5304(3) 0.9071(2)
C16 C 0.6220(3) 0.6555(3) 0.8988(2)
H1 H 0.3082 0.9006 0.5758
H2 H 0.4907 0.9031 0.5500
H3 H 0.4294 0.6517 0.4237
H4 H 0.3449 0.7623 0.3733
H5 H 0.1721 0.5337 0.3601
H6 H 0.1811 0.5789 0.5020
H7 H -0.0343 0.7178 0.5939
H8 H -0.0772 0.7974 0.1396
H9 H -0.0177 0.9462 0.2432
H10 H -0.2008 0.9020 0.1993
H11 H -0.2347 0.5765 0.1960
H12 H -0.3612 0.6793 0.2527
H13 H -0.2721 0.5996 0.3317
H14 H 0.9553 0.8553 0.8650
H15 H 1.0608 0.6463 0.8829
H16 H 0.8904 0.4418 0.9051
H17 H 0.6181 0.4485 0.9174
H18 H 0.5125 0.6595 0.9048
loop_
_geom_bond_atom_site_label_1
_geom_bond_atom_site_label_2
_geom_bond_site_symmetry_1
_geom_bond_site_symmetry_2
S1 C1 1_555 1_555
O1 C7 1_555 1_555
N1 C1 1_555 1_555
C1 N4 1_555 1_555
O2 C7 1_555 1_555
N2 N1 1_555 1_555
C2 S1 1_555 1_555
O3 C5 1_555 1_555
C3 C2 1_555 1_555
N3 N2 1_555 1_555
O4 S1 1_555 1_555
N4 N3 1_555 1_555
C4 C3 1_555 1_555
O5 S1 1_555 1_555
C5 C4 1_555 1_555
C6 C5 1_555 1_555
C7 C6 1_555 1_555
C8 O2 1_555 1_555
C9 C8 1_555 1_555
C10 C8 1_555 1_555
C11 N1 1_555 1_555
C12 C11 1_555 1_555
C13 C12 1_555 1_555
C14 C13 1_555 1_555
C15 C14 1_555 1_555
C16 C11 1_555 1_555
H1 C2 1_555 1_555
H2 C2 1_555 1_555
H3 C3 1_555 1_555
H4 C3 1_555 1_555
H5 C4 1_555 1_555
H6 C4 1_555 1_555
H7 C6 1_555 1_555
H8 C9 1_555 1_555
H9 C9 1_555 1_555
H10 C9 1_555 1_555
H11 C10 1_555 1_555
H12 C10 1_555 1_555
H13 C10 1_555 1_555
H14 C12 1_555 1_555
H15 C13 1_555 1_555
H16 C14 1_555 1_555
H17 C15 1_555 1_555
H18 C16 1_555 1_555
O3 C8 1_555 1_555
C15 C16 1_555 1_555

#END
