
#######################################################################
#
#                 Cambridge Crystallographic Data Centre
#                                CCDC 
#
#######################################################################
#
# If this CIF has been generated from an entry in the Cambridge 
# Structural Database, then it will include bibliographic, chemical, 
# crystal, experimental, refinement or atomic coordinate data resulting 
# from the CCDC's data processing and validation procedures.
#
#######################################################################

data_UCUYEX
_chemical_formula_moiety         'C12 H16 Br2 O4'
_chemical_name_systematic        
(2'R,3a'R,5'R,6a'R)-2',5'-Dibromohexahydrodispiro(1,3-dioxolane-2,1'-pentalene-4',2''-(1,3)dioxolane)
_symmetry_cell_setting           monoclinic
_symmetry_space_group_name_H-M   'P 21'
_symmetry_Int_Tables_number      4
_space_group_name_Hall           'P 2yb'
loop_
_symmetry_equiv_pos_site_id
_symmetry_equiv_pos_as_xyz
1 x,y,z
2 -x,1/2+y,-z
_cell_length_a                   8.3113(4)
_cell_length_b                   6.0897(3)
_cell_length_c                   13.7254(5)
_cell_angle_alpha                90
_cell_angle_beta                 99.810(3)
_cell_angle_gamma                90
_cell_volume                     684.531
_exptl_crystal_colour            colorless
_chemical_melting_point          '118-120 deg.C'
_cell_formula_units_Z            2
_exptl_crystal_recrystallization_method methanol
loop_
_atom_site_label
_atom_site_type_symbol
_atom_site_fract_x
_atom_site_fract_y
_atom_site_fract_z
Br1 Br 0.9501(1) 0.8669(1) 0.3914(1)
Br2 Br 1.5373(1) 0.3613(2) 0.1200(1)
O1 O 1.0021(6) 0.6180(9) 0.1200(3)
C1 C 0.9658(8) 0.6530(12) 0.2868(5)
C2 C 1.0403(9) 0.7619(12) 0.2032(5)
O2 O 0.9747(7) 0.9684(9) 0.1700(4)
O3 O 1.5461(6) 0.5391(9) 0.3385(4)
C3 C 1.2220(8) 0.7761(11) 0.2421(5)
O4 O 1.3880(7) 0.2316(8) 0.3232(4)
C4 C 1.2575(8) 0.5967(11) 0.3239(5)
C5 C 1.0934(9) 0.4782(12) 0.3236(5)
C6 C 1.3913(9) 0.4508(11) 0.2947(5)
C7 C 1.3628(9) 0.4754(12) 0.1816(5)
C8 C 1.3323(9) 0.7190(13) 0.1652(5)
C9 C 1.6394(9) 0.3669(18) 0.3896(7)
C10 C 1.5211(13) 0.1912(16) 0.3986(8)
C11 C 0.8328(10) 0.9217(16) 0.0964(6)
C12 C 0.8823(10) 0.7225(17) 0.0471(6)
H1 H 0.8594 0.5869 0.2615
H2 H 1.2499 0.9217 0.2705
H3 H 1.2953 0.6647 0.3884
H4 H 1.0826 0.3525 0.2796
H5 H 1.0834 0.4292 0.3896
H6 H 1.2623 0.3967 0.1543
H7 H 1.2769 0.7484 0.0984
H8 H 1.4336 0.8013 0.1775
H9 H 1.6929 0.4155 0.4543
H10 H 1.7218 0.3161 0.3526
H11 H 1.5682 0.0482 0.3901
H12 H 1.4875 0.1963 0.4628
H13 H 0.8090 1.0423 0.0500
H14 H 0.7378 0.8934 0.1269
H15 H 0.7895 0.6265 0.0270
H16 H 0.9287 0.7615 -0.0108
loop_
_geom_bond_atom_site_label_1
_geom_bond_atom_site_label_2
_geom_bond_site_symmetry_1
_geom_bond_site_symmetry_2
Br1 C1 1_555 1_555
Br2 C7 1_555 1_555
O1 C2 1_555 1_555
C1 C2 1_555 1_555
C2 O2 1_555 1_555
O2 C11 1_555 1_555
O3 C6 1_555 1_555
C3 C2 1_555 1_555
O4 C6 1_555 1_555
C4 C3 1_555 1_555
C5 C1 1_555 1_555
C6 C4 1_555 1_555
C7 C6 1_555 1_555
C8 C3 1_555 1_555
C9 O3 1_555 1_555
C10 O4 1_555 1_555
C11 C12 1_555 1_555
C12 O1 1_555 1_555
H1 C1 1_555 1_555
H2 C3 1_555 1_555
H3 C4 1_555 1_555
H4 C5 1_555 1_555
H5 C5 1_555 1_555
H6 C7 1_555 1_555
H7 C8 1_555 1_555
H8 C8 1_555 1_555
H9 C9 1_555 1_555
H10 C9 1_555 1_555
H11 C10 1_555 1_555
H12 C10 1_555 1_555
H13 C11 1_555 1_555
H14 C11 1_555 1_555
H15 C12 1_555 1_555
H16 C12 1_555 1_555
C4 C5 1_555 1_555
C7 C8 1_555 1_555
C9 C10 1_555 1_555

#END
