
#######################################################################
#
#                 Cambridge Crystallographic Data Centre
#                                CCDC 
#
#######################################################################
#
# If this CIF has been generated from an entry in the Cambridge 
# Structural Database, then it will include bibliographic, chemical, 
# crystal, experimental, refinement or atomic coordinate data resulting 
# from the CCDC's data processing and validation procedures.
#
#######################################################################

data_UCUYID
_chemical_formula_moiety         'C26 H16 Cl2'
_chemical_name_systematic        anti-9,10-Bis(2-chlorophenyl)phenanthrene
_symmetry_cell_setting           monoclinic
_symmetry_space_group_name_H-M   'P 21/c'
_symmetry_Int_Tables_number      14
_space_group_name_Hall           '-P 2ybc'
loop_
_symmetry_equiv_pos_site_id
_symmetry_equiv_pos_as_xyz
1 x,y,z
2 -x,1/2+y,1/2-z
3 -x,-y,-z
4 x,1/2-y,1/2+z
_cell_length_a                   11.7842(4)
_cell_length_b                   10.5042(4)
_cell_length_c                   16.7068(6)
_cell_angle_alpha                90
_cell_angle_beta                 109.462(2)
_cell_angle_gamma                90
_cell_volume                     1949.87
_exptl_crystal_colour            colorless
_cell_formula_units_Z            4
loop_
_atom_site_label
_atom_site_type_symbol
_atom_site_fract_x
_atom_site_fract_y
_atom_site_fract_z
C1 C 0.26202(13) 0.77777(14) 0.16859(8)
C2 C 0.31604(16) 0.89038(16) 0.15743(9)
H1 H 0.2736 0.9667 0.1490
C3 C 0.43335(17) 0.88753(18) 0.15895(10)
H2 H 0.4708 0.9623 0.1513
C4 C 0.49544(15) 0.7746(2) 0.17164(10)
H3 H 0.5746 0.7732 0.1722
C5 C 0.44091(13) 0.66285(16) 0.18364(9)
H4 H 0.4843 0.5871 0.1928
C6 C 0.32214(12) 0.66213(14) 0.18216(8)
C7 C 0.26426(11) 0.54142(13) 0.19611(8)
C8 C 0.22400(11) 0.45409(13) 0.13282(8)
C9 C 0.23850(12) 0.47755(13) 0.04843(8)
C10 C 0.32943(13) 0.42009(15) 0.02544(9)
C11 C 0.34517(16) 0.44532(17) -0.05157(10)
H5 H 0.4078 0.4073 -0.0650
C12 C 0.26747(17) 0.52692(19) -0.10793(10)
H6 H 0.2770 0.5437 -0.1600
C13 C 0.17557(17) 0.58384(18) -0.08762(10)
H7 H 0.1228 0.6389 -0.1259
C14 C 0.16167(14) 0.55915(16) -0.01021(9)
H8 H 0.0993 0.5982 0.0029
C15 C 0.16505(11) 0.33897(13) 0.14548(8)
C16 C 0.11232(14) 0.25371(15) 0.07821(10)
H9 H 0.1187 0.2699 0.0251
C17 C 0.05202(16) 0.14772(16) 0.08946(12)
H10 H 0.0162 0.0937 0.0439
C18 C 0.04420(16) 0.12060(16) 0.16878(12)
H11 H 0.0037 0.0481 0.1764
C19 C 0.09594(14) 0.20019(14) 0.23562(11)
H12 H 0.0913 0.1800 0.2886
C20 C 0.15616(11) 0.31202(13) 0.22625(9)
C21 C 0.20657(11) 0.40126(13) 0.29544(8)
C22 C 0.20876(14) 0.37661(16) 0.37896(9)
H13 H 0.1775 0.3003 0.3907
C23 C 0.25572(17) 0.46220(18) 0.44277(10)
H14 H 0.2572 0.4432 0.4975
C24 C 0.30139(16) 0.57762(18) 0.42670(9)
H15 H 0.3315 0.6365 0.4702
C25 C 0.30194(14) 0.60449(15) 0.34639(9)
H16 H 0.3329 0.6818 0.3359
C26 C 0.25629(11) 0.51675(13) 0.27964(8)
Cl1 Cl 0.11263(4) 0.78316(4) 0.16494(3)
Cl2 Cl 0.42828(4) 0.31573(5) 0.09579(3)
loop_
_geom_bond_atom_site_label_1
_geom_bond_atom_site_label_2
_geom_bond_site_symmetry_1
_geom_bond_site_symmetry_2
C1 C2 1_555 1_555
C2 H1 1_555 1_555
C3 C2 1_555 1_555
H2 C3 1_555 1_555
C4 C3 1_555 1_555
H3 C4 1_555 1_555
C5 C4 1_555 1_555
H4 C5 1_555 1_555
C6 C1 1_555 1_555
C7 C6 1_555 1_555
C8 C7 1_555 1_555
C9 C8 1_555 1_555
C10 C9 1_555 1_555
C11 C10 1_555 1_555
H5 C11 1_555 1_555
C12 C11 1_555 1_555
H6 C12 1_555 1_555
C13 C12 1_555 1_555
H7 C13 1_555 1_555
C14 C9 1_555 1_555
H8 C14 1_555 1_555
C15 C8 1_555 1_555
C16 C15 1_555 1_555
H9 C16 1_555 1_555
C17 C16 1_555 1_555
H10 C17 1_555 1_555
C18 C17 1_555 1_555
H11 C18 1_555 1_555
C19 C18 1_555 1_555
H12 C19 1_555 1_555
C20 C15 1_555 1_555
C21 C20 1_555 1_555
C22 C21 1_555 1_555
H13 C22 1_555 1_555
C23 C22 1_555 1_555
H14 C23 1_555 1_555
C24 C23 1_555 1_555
H15 C24 1_555 1_555
C25 C24 1_555 1_555
H16 C25 1_555 1_555
C26 C7 1_555 1_555
Cl1 C1 1_555 1_555
Cl2 C10 1_555 1_555
C5 C6 1_555 1_555
C13 C14 1_555 1_555
C19 C20 1_555 1_555
C21 C26 1_555 1_555
C25 C26 1_555 1_555

#END
