
#######################################################################
#
#                 Cambridge Crystallographic Data Centre
#                                CCDC 
#
#######################################################################
#
# If this CIF has been generated from an entry in the Cambridge 
# Structural Database, then it will include bibliographic, chemical, 
# crystal, experimental, refinement or atomic coordinate data resulting 
# from the CCDC's data processing and validation procedures.
#
#######################################################################

data_UDABEI
_chemical_formula_moiety         'C25 H22 O1 S1'
_chemical_name_systematic        4-Phenyl-2-(9H-thioxanthen-9-yl)cyclohexanone
_symmetry_cell_setting           tetragonal
_symmetry_space_group_name_H-M   'P 43'
_symmetry_Int_Tables_number      78
_space_group_name_Hall           'P 4cw'
loop_
_symmetry_equiv_pos_site_id
_symmetry_equiv_pos_as_xyz
1 x,y,z
2 -x,-y,1/2+z
3 -y,x,3/4+z
4 y,-x,1/4+z
_cell_length_a                   9.7389(2)
_cell_length_b                   9.7389(2)
_cell_length_c                   20.8131(3)
_cell_angle_alpha                90
_cell_angle_beta                 90
_cell_angle_gamma                90
_cell_volume                     1974.04
_cell_formula_units_Z            4
loop_
_atom_site_label
_atom_site_type_symbol
_atom_site_fract_x
_atom_site_fract_y
_atom_site_fract_z
S1 S 1.06561(5) 1.36283(6) 0.51586(3)
O1 O 0.68456(17) 1.42235(17) 0.39905(8)
C1 C 0.45574(17) 0.97705(17) 0.51827(9)
C2 C 0.66198(18) 1.11354(18) 0.48301(9)
H1 H 0.7153 1.0548 0.5112
H2 H 0.6636 1.0733 0.4404
C3 C 0.72900(18) 1.25616(18) 0.48046(8)
H3 H 0.8166 1.2471 0.4577
C4 C 0.86484(18) 1.22003(19) 0.58134(8)
C5 C 0.4260(2) 0.9346(2) 0.57991(10)
H4 H 0.4379 0.9959 0.6137
C6 C 0.3793(2) 0.8038(2) 0.59280(11)
H5 H 0.3608 0.7777 0.6349
C7 C 0.8248(2) 1.1180(2) 0.62409(9)
H6 H 0.7339 1.1133 0.6375
C8 C 0.42937(19) 1.2067(2) 0.46074(10)
H7 H 0.3344 1.2099 0.4747
H8 H 0.4321 1.1666 0.4181
C9 C 0.76033(17) 1.31321(18) 0.54964(8)
H9 H 0.6754 1.3097 0.5748
C10 C 0.6391(2) 1.3527(2) 0.44214(9)
C11 C 0.7184(2) 1.5672(2) 0.55970(9)
H10 H 0.6285 1.5473 0.5716
C12 C 0.51296(16) 1.11857(17) 0.50709(8)
H11 H 0.5136 1.1659 0.5486
C13 C 0.80841(18) 1.45983(18) 0.54725(8)
C14 C 0.3599(2) 0.7125(2) 0.54378(12)
H12 H 0.3291 0.6239 0.5523
C15 C 0.4890(2) 1.3531(2) 0.45873(11)
H13 H 0.4394 1.4068 0.4271
H14 H 0.4763 1.3964 0.5003
C16 C 1.00330(19) 1.2285(2) 0.56541(9)
C17 C 0.94331(19) 1.4926(2) 0.53091(9)
C18 C 0.9195(3) 1.0227(2) 0.64705(10)
H15 H 0.8915 0.9547 0.6756
C19 C 1.0973(2) 1.1328(2) 0.58792(11)
H16 H 1.1892 1.1390 0.5761
C20 C 0.9843(2) 1.6293(2) 0.52654(11)
H17 H 1.0744 1.6505 0.5157
C21 C 0.8921(3) 1.7328(2) 0.53819(11)
H18 H 0.9198 1.8238 0.5348
C22 C 1.0539(3) 1.0292(2) 0.62759(12)
H19 H 1.1160 0.9629 0.6414
C23 C 0.4333(3) 0.8838(2) 0.46938(10)
H20 H 0.4499 0.9098 0.4271
C24 C 0.7587(3) 1.7026(2) 0.55490(11)
H21 H 0.6964 1.7729 0.5629
C25 C 0.3864(3) 0.7527(2) 0.48215(12)
H22 H 0.3729 0.6913 0.4485
loop_
_geom_bond_atom_site_label_1
_geom_bond_atom_site_label_2
_geom_bond_site_symmetry_1
_geom_bond_site_symmetry_2
S1 C16 1_555 1_555
O1 C10 1_555 1_555
C1 C5 1_555 1_555
C2 H1 1_555 1_555
H2 C2 1_555 1_555
C3 C2 1_555 1_555
H3 C3 1_555 1_555
C4 C7 1_555 1_555
C5 H4 1_555 1_555
C6 C5 1_555 1_555
H5 C6 1_555 1_555
C7 H6 1_555 1_555
C8 H7 1_555 1_555
H8 C8 1_555 1_555
C9 C3 1_555 1_555
H9 C9 1_555 1_555
C10 C3 1_555 1_555
C11 H10 1_555 1_555
C12 C1 1_555 1_555
H11 C12 1_555 1_555
C13 C9 1_555 1_555
C14 C6 1_555 1_555
H12 C14 1_555 1_555
C15 C8 1_555 1_555
H13 C15 1_555 1_555
H14 C15 1_555 1_555
C16 C4 1_555 1_555
C17 S1 1_555 1_555
C18 C7 1_555 1_555
H15 C18 1_555 1_555
C19 C16 1_555 1_555
H16 C19 1_555 1_555
C20 C17 1_555 1_555
H17 C20 1_555 1_555
C21 C20 1_555 1_555
H18 C21 1_555 1_555
C22 C18 1_555 1_555
H19 C22 1_555 1_555
C23 C1 1_555 1_555
H20 C23 1_555 1_555
C24 C11 1_555 1_555
H21 C24 1_555 1_555
C25 C14 1_555 1_555
H22 C25 1_555 1_555
C2 C12 1_555 1_555
C4 C9 1_555 1_555
C8 C12 1_555 1_555
C10 C15 1_555 1_555
C11 C13 1_555 1_555
C13 C17 1_555 1_555
C19 C22 1_555 1_555
C21 C24 1_555 1_555
C23 C25 1_555 1_555

#END
