
#######################################################################
#
#                 Cambridge Crystallographic Data Centre
#                                CCDC 
#
#######################################################################
#
# If this CIF has been generated from an entry in the Cambridge 
# Structural Database, then it will include bibliographic, chemical, 
# crystal, experimental, refinement or atomic coordinate data resulting 
# from the CCDC's data processing and validation procedures.
#
#######################################################################

data_UDACEK
_chemical_formula_moiety         
'C25 H34 N1 O6 1+,C16 H20 N2 2+,3(Cl1 O4 1-),0.75(C6 H6),0.5(H2 O1)'
_chemical_name_systematic        
'1-(3-ammoniopropyl)-4-(2-phenylethenyl)pyridin-1-ium 4-[2-(2,3,5,6,8,9,11,12,14,15-decahydro-1,4,7,10,13,16-benzohexaoxacyclooctadecin-18-yl)ethenyl]-1-ethylpyridin-1-ium triperchlorate benzene solvate hemihydrate'
_symmetry_cell_setting           monoclinic
_symmetry_space_group_name_H-M   'C 2/c'
_symmetry_Int_Tables_number      15
_space_group_name_Hall           '-C 2yn'
loop_
_symmetry_equiv_pos_site_id
_symmetry_equiv_pos_as_xyz
1 x,y,z
2 -x,y,1/2-z
3 1/2+x,1/2+y,z
4 1/2-x,1/2+y,1/2-z
5 -x,-y,-z
6 x,-y,1/2+z
7 1/2-x,1/2-y,-z
8 1/2+x,1/2-y,1/2+z
_cell_length_a                   14.7960(7)
_cell_length_b                   18.2958(8)
_cell_length_c                   39.0444(19)
_cell_angle_alpha                90
_cell_angle_beta                 90.322(2)
_cell_angle_gamma                90
_cell_volume                     10569.3
_exptl_crystal_colour            yellow
_exptl_crystal_description       block
_cell_formula_units_Z            8
_exptl_crystal_recrystallization_method acetonitrile/benzene
loop_
_atom_site_label
_atom_site_type_symbol
_atom_site_fract_x
_atom_site_fract_y
_atom_site_fract_z
Cl1 Cl 0.2976(4) 0.3984(3) 0.11023(14)
O1 O 0.3607(17) 0.420(2) 0.0853(6)
O2 O 0.277(2) 0.3259(9) 0.1066(9)
O3 O 0.3394(15) 0.4117(12) 0.1427(4)
O4 O 0.2222(12) 0.4427(12) 0.1084(5)
Cl2 Cl 0.8350(5) 0.4676(4) 0.12834(17)
O5 O 0.7801(12) 0.4899(12) 0.1562(5)
O6 O 0.8076(13) 0.3987(8) 0.1189(5)
O7 O 0.9243(9) 0.4745(10) 0.1384(4)
O8 O 0.8194(19) 0.5170(13) 0.1011(5)
O9 O 0.0261(6) 0.2482(5) 0.1198(2)
O10 O 0.0581(8) 0.2878(7) 0.0509(3)
O11 O 0.1330(10) 0.1894(8) 0.0034(3)
O12 O 0.0966(15) 0.0488(12) 0.0230(5)
O13 O 0.1058(8) 0.0106(6) 0.0956(3)
O14 O 0.0452(5) 0.1166(4) 0.14112(19)
N1 N 0.1880(6) 0.1547(5) 0.38316(16)
C1 C 0.1763(6) 0.1003(4) 0.3587(2)
H1 H 0.1768 0.0504 0.3654
C2 C 0.1638(7) 0.1189(5) 0.32449(19)
H2 H 0.1558 0.0817 0.3078
C3 C 0.1630(7) 0.1920(5) 0.31473(17)
C4 C 0.1748(7) 0.2464(4) 0.3392(3)
H3 H 0.1742 0.2963 0.3325
C5 C 0.1873(7) 0.2278(4) 0.3734(2)
H4 H 0.1953 0.2650 0.3901
C6 C 0.144(3) 0.173(2) 0.2788(6)
H5 H 0.1477 0.1243 0.2707
C7 C 0.122(2) 0.226(2) 0.2591(5)
H6 H 0.1187 0.2740 0.2677
C8 C 0.1019(6) 0.2094(5) 0.22058(16)
C9 C 0.0937(7) 0.2814(5) 0.2098(2)
H7 H 0.1053 0.3203 0.2253
C10 C 0.0684(7) 0.2967(4) 0.1762(2)
H8 H 0.0627 0.3460 0.1688
C11 C 0.0514(6) 0.2399(5) 0.15341(16)
C12 C 0.0596(6) 0.1678(4) 0.16423(19)
C13 C 0.0849(6) 0.1525(4) 0.1978(2)
H9 H 0.0905 0.1033 0.2052
C14 C 0.0220(12) 0.3242(9) 0.1067(4)
H10 H -0.0217 0.3529 0.1203
H11 H 0.0821 0.3475 0.1089
C15 C -0.0060(12) 0.3231(10) 0.0708(4)
H12 H -0.0647 0.2977 0.0686
H13 H -0.0139 0.3739 0.0625
C16 C 0.0282(13) 0.2887(11) 0.0162(4)
H14 H 0.0078 0.3381 0.0092
H15 H -0.0212 0.2532 0.0122
C17 C 0.1101(15) 0.2676(12) -0.0014(5)
H16 H 0.1608 0.2979 0.0071
H17 H 0.1026 0.2775 -0.0262
C18 C 0.0933(18) 0.1418(14) -0.0152(6)
H18 H 0.0987 0.1537 -0.0398
H19 H 0.0285 0.1376 -0.0093
C19 C 0.1408(15) 0.0769(12) -0.0069(5)
H20 H 0.2051 0.0876 -0.0020
H21 H 0.1372 0.0414 -0.0260
C20 C 0.165(3) -0.007(2) 0.0365(9)
H22 H 0.1809 -0.0446 0.0194
H23 H 0.2205 0.0162 0.0459
C21 C 0.1018(19) -0.0349(16) 0.0642(7)
H24 H 0.0391 -0.0353 0.0552
H25 H 0.1185 -0.0858 0.0701
C22 C 0.0458(12) -0.0084(9) 0.1205(4)
H26 H 0.0536 -0.0603 0.1270
H27 H -0.0171 -0.0009 0.1124
C23 C 0.0666(12) 0.0406(9) 0.1501(4)
H28 H 0.0306 0.0255 0.1702
H29 H 0.1314 0.0364 0.1562
C24 C 0.1943(10) 0.1351(8) 0.4198(3)
H30 H 0.2254 0.1748 0.4325
H31 H 0.2307 0.0900 0.4224
C25 C 0.1030(9) 0.1231(8) 0.4348(4)
H32 H 0.1089 0.1154 0.4596
H33 H 0.0751 0.0800 0.4243
H34 H 0.0651 0.1661 0.4305
N2 N 0.1497(7) 0.1584(5) 0.0781(2)
H35 H 0.1400 0.1725 0.0560
H36 H 0.1129 0.1842 0.0922
H37 H 0.1377 0.1098 0.0802
C26 C 0.2452(8) 0.1723(7) 0.0876(3)
H38 H 0.2834 0.1321 0.0787
H39 H 0.2654 0.2183 0.0767
C27 C 0.2572(9) 0.1779(7) 0.1248(3)
H40 H 0.2328 0.1332 0.1356
H41 H 0.2217 0.2200 0.1332
C28 C 0.3559(10) 0.1875(8) 0.1358(3)
H42 H 0.3914 0.1441 0.1289
H43 H 0.3820 0.2309 0.1244
N3 N 0.3604(6) 0.1965(5) 0.17249(16)
C29 C 0.3642(6) 0.2660(4) 0.1869(2)
H44 H 0.3616 0.3080 0.1726
C30 C 0.3719(7) 0.2740(4) 0.2222(2)
H45 H 0.3745 0.3215 0.2320
C31 C 0.3757(7) 0.2127(6) 0.24308(16)
C32 C 0.3719(7) 0.1432(5) 0.2287(2)
H46 H 0.3746 0.1012 0.2430
C33 C 0.3643(6) 0.1351(4) 0.1934(2)
H47 H 0.3617 0.0877 0.1836
C34 C 0.3865(11) 0.2222(10) 0.2796(3)
H48 H 0.3842 0.2711 0.2877
C35 C 0.3985(12) 0.1743(10) 0.3018(4)
H49 H 0.4003 0.1252 0.2940
C36 C 0.4107(8) 0.1865(7) 0.3403(2)
C37 C 0.4134(8) 0.1219(5) 0.3591(3)
H50 H 0.4087 0.0762 0.3477
C38 C 0.4227(9) 0.1243(6) 0.3945(3)
H51 H 0.4245 0.0802 0.4073
C39 C 0.4295(9) 0.1912(7) 0.4112(2)
H52 H 0.4359 0.1928 0.4354
C40 C 0.4268(8) 0.2558(6) 0.3924(3)
H53 H 0.4314 0.3015 0.4038
C41 C 0.4175(8) 0.2534(5) 0.3570(3)
H54 H 0.4157 0.2975 0.3442
C42 C -0.068(3) 0.484(2) -0.0210(11)
H55 H -0.1170 0.4724 -0.0358
C43 C 0.018(2) 0.4865(14) -0.0325(7)
H56 H 0.0249 0.4767 -0.0562
C44 C 0.082(3) 0.4982(19) -0.0180(9)
H57 H 0.1403 0.4976 -0.0284
C42D C 0.068(3) 0.516(2) 0.0210(11)
H55D H 0.1170 0.5276 0.0358
C43D C -0.018(2) 0.5135(14) 0.0325(7)
H56D H -0.0249 0.5233 0.0562
C44D C -0.082(3) 0.5018(19) 0.0180(9)
H57D H -0.1403 0.5024 0.0284
O15 O 0.308(4) -0.015(3) 0.2840(14)
O16? O 0.3108(11) 0.4592(7) 0.0880(4)
O17? O 0.3794(11) 0.3593(11) 0.1105(6)
O18? O 0.2344(16) 0.3527(13) 0.0930(7)
O19? O 0.269(2) 0.4182(16) 0.1415(5)
C45? C 0.1459(12) 0.2237(9) 0.2811(3)
H58? H 0.1484 0.2750 0.2774
C46? C 0.1273(12) 0.1796(9) 0.2570(3)
H59? H 0.1289 0.1284 0.2610
O20? O 0.254(4) -0.075(3) 0.2375(14)
Cl3? Cl 0.5068(12) 0.4562(3) 0.2485(5)
O21? O 0.5647(15) 0.4175(12) 0.2271(6)
O22? O 0.4297(14) 0.4766(13) 0.2297(6)
O23? O 0.4804(17) 0.4121(12) 0.2762(5)
O24? O 0.5502(17) 0.5181(10) 0.2612(7)
Cl4? Cl 0.2261(9) 0.2183(7) 0.5133(3)
O25? O 0.2789(17) 0.1725(12) 0.4919(6)
O26? O 0.2582(17) 0.2104(14) 0.5471(5)
O27? O 0.1370(12) 0.1898(14) 0.5130(7)
O28? O 0.2261(17) 0.2875(10) 0.5018(6)
C47? C 0.4684(12) -0.0379(12) 0.2536(7)
H60? H 0.5315 -0.0355 0.2493
C48? C 0.4084(17) -0.0507(12) 0.2267(5)
H61? H 0.4306 -0.0570 0.2041
C49? C 0.3161(16) -0.0543(13) 0.2329(5)
H62? H 0.2752 -0.0630 0.2145
C50? C 0.2838(12) -0.0450(13) 0.2660(6)
H63? H 0.2207 -0.0474 0.2702
C51? C 0.3437(18) -0.0323(13) 0.2928(4)
H64? H 0.3216 -0.0259 0.3154
C52? C 0.4360(16) -0.0287(12) 0.2866(6)
H65? H 0.4770 -0.0200 0.3050
loop_
_geom_bond_atom_site_label_1
_geom_bond_atom_site_label_2
_geom_bond_site_symmetry_1
_geom_bond_site_symmetry_2
Cl1 O1 1_555 1_555
O2 Cl1 1_555 1_555
O3 Cl1 1_555 1_555
O4 Cl1 1_555 1_555
Cl2 O5 1_555 1_555
O6 Cl2 1_555 1_555
O7 Cl2 1_555 1_555
O8 Cl2 1_555 1_555
O9 C11 1_555 1_555
O10 C15 1_555 1_555
O11 C17 1_555 1_555
O12 C19 1_555 1_555
O13 C21 1_555 1_555
O14 C12 1_555 1_555
N1 C1 1_555 1_555
C1 H1 1_555 1_555
C2 C1 1_555 1_555
H2 C2 1_555 1_555
C3 C2 1_555 1_555
C4 C3 1_555 1_555
H3 C4 1_555 1_555
C5 N1 1_555 1_555
H4 C5 1_555 1_555
C6 C3 1_555 1_555
H5 C6 1_555 1_555
C7 C6 1_555 1_555
H6 C7 1_555 1_555
C8 C7 1_555 1_555
C9 C8 1_555 1_555
H7 C9 1_555 1_555
C10 C9 1_555 1_555
H8 C10 1_555 1_555
C11 C10 1_555 1_555
C12 C11 1_555 1_555
C13 C8 1_555 1_555
H9 C13 1_555 1_555
C14 O9 1_555 1_555
H10 C14 1_555 1_555
H11 C14 1_555 1_555
C15 C14 1_555 1_555
H12 C15 1_555 1_555
H13 C15 1_555 1_555
C16 O10 1_555 1_555
H14 C16 1_555 1_555
H15 C16 1_555 1_555
C17 C16 1_555 1_555
H16 C17 1_555 1_555
H17 C17 1_555 1_555
C18 O11 1_555 1_555
H18 C18 1_555 1_555
H19 C18 1_555 1_555
C19 C18 1_555 1_555
H20 C19 1_555 1_555
H21 C19 1_555 1_555
C20 O12 1_555 1_555
H22 C20 1_555 1_555
H23 C20 1_555 1_555
C21 C20 1_555 1_555
H24 C21 1_555 1_555
H25 C21 1_555 1_555
C22 O13 1_555 1_555
H26 C22 1_555 1_555
H27 C22 1_555 1_555
C23 O14 1_555 1_555
H28 C23 1_555 1_555
H29 C23 1_555 1_555
C24 N1 1_555 1_555
H30 C24 1_555 1_555
H31 C24 1_555 1_555
C25 C24 1_555 1_555
H32 C25 1_555 1_555
H33 C25 1_555 1_555
H34 C25 1_555 1_555
N2 H35 1_555 1_555
H36 N2 1_555 1_555
H37 N2 1_555 1_555
C26 N2 1_555 1_555
H38 C26 1_555 1_555
H39 C26 1_555 1_555
C27 C26 1_555 1_555
H40 C27 1_555 1_555
H41 C27 1_555 1_555
C28 C27 1_555 1_555
H42 C28 1_555 1_555
H43 C28 1_555 1_555
N3 C28 1_555 1_555
C29 N3 1_555 1_555
H44 C29 1_555 1_555
C30 C29 1_555 1_555
H45 C30 1_555 1_555
C31 C30 1_555 1_555
C32 C31 1_555 1_555
H46 C32 1_555 1_555
C33 N3 1_555 1_555
H47 C33 1_555 1_555
C34 C31 1_555 1_555
H48 C34 1_555 1_555
C35 C34 1_555 1_555
H49 C35 1_555 1_555
C36 C35 1_555 1_555
C37 C36 1_555 1_555
H50 C37 1_555 1_555
C38 C37 1_555 1_555
H51 C38 1_555 1_555
C39 C38 1_555 1_555
H52 C39 1_555 1_555
C40 C39 1_555 1_555
H53 C40 1_555 1_555
C41 C36 1_555 1_555
H54 C41 1_555 1_555
C42 H55 1_555 1_555
C43 C42 1_555 1_555
H56 C43 1_555 1_555
C44 C43 1_555 1_555
H57 C44 1_555 1_555
C42D C44 1_555 1_555
H55D C42D 1_555 1_555
C43D C42D 1_555 1_555
H56D C43D 1_555 1_555
C44D C42 1_555 1_555
H57D C44D 1_555 1_555
C4 C5 1_555 1_555
C12 C13 1_555 1_555
C22 C23 1_555 1_555
C32 C33 1_555 1_555
C40 C41 1_555 1_555
C43D C44D 1_555 1_555

#END
