
#######################################################################
#
#                 Cambridge Crystallographic Data Centre
#                                CCDC 
#
#######################################################################
#
# If this CIF has been generated from an entry in the Cambridge 
# Structural Database, then it will include bibliographic, chemical, 
# crystal, experimental, refinement or atomic coordinate data resulting 
# from the CCDC's data processing and validation procedures.
#
#######################################################################

data_UDACIO
_chemical_formula_moiety         'C36 H31 N3 O12,C4 H8 O2'
_chemical_name_systematic        
'(7-(acetyl(4-nitrobenzoyl)amino)-1,2,3-trimethoxy-9-oxo-5,6,7,9-tetrahydrobenzo[a]heptalen-10-yl)methyl 4-nitrobenzoate ethyl acetate solvate'
_symmetry_cell_setting           monoclinic
_symmetry_space_group_name_H-M   'P 21'
_symmetry_Int_Tables_number      4
_space_group_name_Hall           'P 2yb'
loop_
_symmetry_equiv_pos_site_id
_symmetry_equiv_pos_as_xyz
1 x,y,z
2 -x,1/2+y,-z
_cell_length_a                   13.869(9)
_cell_length_b                   9.736(8)
_cell_length_c                   14.969(11)
_cell_angle_alpha                90
_cell_angle_beta                 105.103(18)
_cell_angle_gamma                90
_cell_volume                     1951.43
_exptl_crystal_colour            colorless
_exptl_crystal_description       Prism
_cell_formula_units_Z            2
loop_
_atom_site_label
_atom_site_type_symbol
_atom_site_fract_x
_atom_site_fract_y
_atom_site_fract_z
O1 O -0.3484(5) -0.3467(7) -0.6914(5)
O2 O 0.2629(4) -0.5687(6) -0.7993(4)
C1 C 0.1240(6) -0.2978(8) -0.6571(5)
O3 O 0.3659(5) -0.3535(9) -0.7132(5)
O4 O -0.3014(5) -0.7431(6) -0.6163(5)
C2 C 0.2203(5) -0.4836(9) -0.7472(6)
C3 C -0.0553(6) -0.1936(8) -0.7662(5)
H1 H -0.0052 -0.2320 -0.7947
C4 C -0.0339(5) -0.4314(8) -0.7002(6)
C5 C -0.1968(6) -0.3035(8) -0.7242(6)
H2 H -0.2250 -0.2190 -0.7451
C6 C -0.2435(6) -0.5344(8) -0.6691(6)
N1 N -0.1256(5) -0.1201(7) -0.8401(5)
C7 C -0.2570(9) -1.2048(10) -0.4898(6)
O5 O -0.1815(6) 0.0434(8) -0.7562(5)
C8 C 0.0717(6) -0.1924(9) -0.6145(5)
H3 H 0.1209 -0.1347 -0.5734
H4 H 0.0331 -0.2381 -0.5777
C9 C -0.3270(7) -0.9507(9) -0.5513(6)
C10 C 0.1206(6) -0.5056(8) -0.7454(6)
C11 C -0.2314(7) -0.9891(10) -0.5513(6)
H5 H -0.1905 -0.9288 -0.5728
C12 C 0.0732(5) -0.4127(9) -0.6999(6)
C13 C 0.2235(6) -0.2780(9) -0.6590(6)
H6 H 0.2587 -0.2024 -0.6292
O6 O 0.0693(5) -0.6118(8) -0.7902(7)
O7 O -0.1122(7) 0.4367(9) -1.1365(6)
C14 C -0.1558(6) -0.6020(10) -0.6608(7)
H7 H -0.1572 -0.6948 -0.6463
C15 C -0.3875(8) -1.0440(11) -0.5193(7)
H8 H -0.4516 -1.0185 -0.5175
C16 C -0.2631(6) -0.3929(10) -0.6934(6)
C17 C -0.1804(8) 0.3153(11) -1.0330(7)
C18 C -0.1960(8) -1.1185(11) -0.5188(7)
H9 H -0.1311 -1.1448 -0.5173
O8 O -0.4487(5) -0.7720(9) -0.5821(6)
C19 C -0.1011(5) -0.3170(8) -0.7291(5)
O9 O -0.1152(5) -0.3019(8) -0.9322(5)
C20 C -0.0618(6) -0.5540(10) -0.6706(7)
H10 H -0.0103 -0.6178 -0.6539
C21 C -0.1606(7) -0.1992(12) -0.9230(6)
C22 C 0.0030(6) -0.1034(9) -0.6864(6)
H11 H 0.0419 -0.0359 -0.7096
H12 H -0.0431 -0.0549 -0.6588
O10 O -0.2582(7) 0.4971(10) -1.1232(7)
C23 C 0.2695(5) -0.3695(10) -0.7044(6)
C24 C -0.3653(8) -0.8164(10) -0.5832(7)
C25 C -0.2376(8) 0.3292(10) -0.9713(7)
H13 H -0.2787 0.4052 -0.9728
C26 C -0.2319(8) 0.2255(11) -0.9065(7)
H14 H -0.2697 0.2322 -0.8637
C27 C -0.1713(6) 0.1126(9) -0.9044(6)
C28 C -0.1627(7) 0.0100(10) -0.8298(7)
C29 C -0.1174(8) 0.2044(10) -1.0329(8)
H15 H -0.0794 0.1991 -1.0756
C30 C -0.3326(7) -0.6080(11) -0.6479(9)
H16 H -0.3548 -0.5583 -0.6007
H17 H -0.3877 -0.6126 -0.7032
N2 N -0.1851(8) 0.4252(9) -1.1033(6)
C31 C -0.1126(8) 0.1048(10) -0.9695(7)
H18 H -0.0706 0.0300 -0.9682
C32 C 0.4215(7) -0.2385(15) -0.6712(8)
H19 H 0.4864 -0.2404 -0.6828
H20 H 0.3874 -0.1558 -0.6966
H21 H 0.4286 -0.2409 -0.6057
C33 C -0.2569(8) -0.1613(12) -0.9885(7)
H22 H -0.2806 -0.0767 -0.9690
H23 H -0.2475 -0.1502 -1.0494
H24 H -0.3050 -0.2325 -0.9895
C34 C -0.3532(10) -1.1704(12) -0.4913(7)
H25 H -0.3945 -1.2339 -0.4730
N3 N -0.2195(14) -1.3413(13) -0.4582(7)
C35 C 0.3402(11) -0.6592(16) -0.7502(10)
H26 H 0.3640 -0.7133 -0.7936
H27 H 0.3942 -0.6061 -0.7129
H28 H 0.3140 -0.7188 -0.7111
O11 O -0.1345(13) -1.3675(13) -0.4560(10)
O12 O -0.2741(12) -1.4243(11) -0.4335(9)
C36 C 0.078(3) -0.710(4) -0.818(3)
H29 H 0.0138 -0.7491 -0.8456
H30 H 0.1149 -0.7012 -0.8639
H31 H 0.1142 -0.7692 -0.7691
O13 O -0.4644(9) 0.0476(16) -0.9577(8)
C37 C -0.5077(15) 0.060(4) -1.0485(17)
C38 C -0.4628(16) 0.086(4) -1.1112(15)
C39 C -0.4959(18) 0.066(7) -0.8881(13)
H32 H -0.4980 0.1642 -0.8796
H33 H -0.5647 0.0344 -0.9047
C40 C -0.4584(18) 0.018(4) -0.8132(18)
H34 H -0.4960 0.0465 -0.7708
H35 H -0.4583 -0.0799 -0.8170
H36 H -0.3910 0.0511 -0.7917
O14 O -0.582(3) 0.007(6) -1.0673(18)
loop_
_geom_bond_atom_site_label_1
_geom_bond_atom_site_label_2
_geom_bond_site_symmetry_1
_geom_bond_site_symmetry_2
O1 C16 1_555 1_555
O2 C2 1_555 1_555
C1 C8 1_555 1_555
O3 C23 1_555 1_555
O4 C24 1_555 1_555
C2 C10 1_555 1_555
C3 H1 1_555 1_555
C4 C12 1_555 1_555
C5 H2 1_555 1_555
C6 C14 1_555 1_555
N1 C3 1_555 1_555
C7 C18 1_555 1_555
O5 C28 1_555 1_555
C8 H3 1_555 1_555
H4 C8 1_555 1_555
C9 C11 1_555 1_555
C10 C12 1_555 1_555
C11 H5 1_555 1_555
C12 C1 1_555 1_555
C13 C1 1_555 1_555
H6 C13 1_555 1_555
O6 C10 1_555 1_555
O7 N2 1_555 1_555
C14 H7 1_555 1_555
C15 C9 1_555 1_555
H8 C15 1_555 1_555
C16 C5 1_555 1_555
C17 C25 1_555 1_555
C18 C11 1_555 1_555
H9 C18 1_555 1_555
O8 C24 1_555 1_555
C19 C3 1_555 1_555
O9 C21 1_555 1_555
C20 C4 1_555 1_555
H10 C20 1_555 1_555
C21 N1 1_555 1_555
C22 C3 1_555 1_555
H11 C22 1_555 1_555
H12 C22 1_555 1_555
O10 N2 1_555 1_555
C23 C2 1_555 1_555
C24 C9 1_555 1_555
C25 H13 1_555 1_555
C26 C25 1_555 1_555
H14 C26 1_555 1_555
C27 C26 1_555 1_555
C28 N1 1_555 1_555
C29 C17 1_555 1_555
H15 C29 1_555 1_555
C30 O4 1_555 1_555
H16 C30 1_555 1_555
H17 C30 1_555 1_555
N2 C17 1_555 1_555
C31 C27 1_555 1_555
H18 C31 1_555 1_555
C32 O3 1_555 1_555
H19 C32 1_555 1_555
H20 C32 1_555 1_555
H21 C32 1_555 1_555
C33 C21 1_555 1_555
H22 C33 1_555 1_555
H23 C33 1_555 1_555
H24 C33 1_555 1_555
C34 C7 1_555 1_555
H25 C34 1_555 1_555
N3 C7 1_555 1_555
C35 O2 1_555 1_555
H26 C35 1_555 1_555
H27 C35 1_555 1_555
H28 C35 1_555 1_555
O11 N3 1_555 1_555
O12 N3 1_555 1_555
C36 O6 1_555 1_555
H29 C36 1_555 1_555
H30 C36 1_555 1_555
H31 C36 1_555 1_555
O13 C37 1_555 1_555
C37 C38 1_555 1_555
C39 O13 1_555 1_555
H32 C39 1_555 1_555
H33 C39 1_555 1_555
C40 C39 1_555 1_555
H34 C40 1_555 1_555
H35 C40 1_555 1_555
H36 C40 1_555 1_555
O14 C37 1_555 1_555
C4 C19 1_555 1_555
C5 C19 1_555 1_555
C6 C16 1_555 1_555
C6 C30 1_555 1_555
C8 C22 1_555 1_555
C13 C23 1_555 1_555
C14 C20 1_555 1_555
C15 C34 1_555 1_555
C27 C28 1_555 1_555
C29 C31 1_555 1_555

#END
