
#######################################################################
#
#                 Cambridge Crystallographic Data Centre
#                                CCDC 
#
#######################################################################
#
# If this CIF has been generated from an entry in the Cambridge 
# Structural Database, then it will include bibliographic, chemical, 
# crystal, experimental, refinement or atomic coordinate data resulting 
# from the CCDC's data processing and validation procedures.
#
#######################################################################

data_UDAHIQ
_chemical_compound_source        'Caesalpinia minax Hance'
_chemical_formula_moiety         'C25 H34 O10'
_chemical_name_systematic        Spirocaesalmin
_chemical_properties_biological  
'activity against respiratory syncytial virus and in vitro antiviral activity'
_symmetry_cell_setting           orthorhombic
_symmetry_space_group_name_H-M   'P 21 21 21'
_symmetry_Int_Tables_number      19
_space_group_name_Hall           'P 2ac 2ab'
loop_
_symmetry_equiv_pos_site_id
_symmetry_equiv_pos_as_xyz
1 x,y,z
2 1/2-x,-y,1/2+z
3 -x,1/2+y,1/2-z
4 1/2+x,1/2-y,-z
_cell_length_a                   11.8436(6)
_cell_length_b                   12.9482(6)
_cell_length_c                   16.3048(8)
_cell_angle_alpha                90
_cell_angle_beta                 90
_cell_angle_gamma                90
_cell_volume                     2500.39
_exptl_crystal_colour            colorless
_exptl_crystal_description       prism
_chemical_melting_point          289-291deg.C
_cell_formula_units_Z            4
_exptl_crystal_recrystallization_method hexane/acetone
loop_
_atom_site_label
_atom_site_type_symbol
_atom_site_fract_x
_atom_site_fract_y
_atom_site_fract_z
O1 O 0.33395(17) 0.36894(16) -0.18939(12)
O2 O 0.3804(2) 0.2568(2) -0.28780(17)
O3 O 0.28769(16) 0.42668(14) -0.02985(14)
H1 H 0.2695 0.4282 -0.0784
O4 O 0.41614(16) 0.28799(15) 0.17366(12)
O5 O 0.2403(3) 0.3245(4) 0.20852(17)
O6 O 0.5555(2) 0.05467(18) 0.12875(14)
O7 O 0.3739(2) 0.03840(18) 0.16395(14)
O8 O 0.4893(2) -0.10330(16) 0.00138(16)
O9 O 0.3746(3) -0.0738(2) -0.11354(17)
O10 O 0.2552(2) 0.0583(2) -0.09799(15)
C1 C 0.4518(3) 0.3925(2) -0.17056(18)
H2 H 0.5011 0.3495 -0.2046
C2 C 0.4708(3) 0.5057(2) -0.1916(2)
H3 H 0.5507 0.5211 -0.1874
H4 H 0.4481 0.5176 -0.2480
C3 C 0.4058(3) 0.5785(2) -0.1362(2)
H5 H 0.3258 0.5692 -0.1463
H6 H 0.4248 0.6489 -0.1511
C4 C 0.4279(3) 0.5644(2) -0.0440(2)
C5 C 0.4077(2) 0.4471(2) -0.02246(18)
C6 C 0.4292(3) 0.4211(2) 0.06779(17)
H7 H 0.5092 0.4278 0.0795
H8 H 0.3888 0.4697 0.1023
C7 C 0.3910(3) 0.3120(2) 0.08777(16)
H9 H 0.3095 0.3064 0.0786
C8 C 0.4515(2) 0.2339(2) 0.03445(16)
H10 H 0.5324 0.2362 0.0469
C9 C 0.4345(2) 0.2593(2) -0.05622(16)
H11 H 0.3531 0.2564 -0.0669
C10 C 0.4743(2) 0.3689(2) -0.07910(17)
C11 C 0.4872(3) 0.1649(2) -0.09745(18)
H12 H 0.5690 0.1695 -0.0975
H13 H 0.4609 0.1578 -0.1535
C12 C 0.3474(3) 0.0223(3) -0.0856(2)
C13 C 0.4465(2) 0.0734(2) -0.04398(17)
C14 C 0.4111(2) 0.1224(2) 0.04007(17)
H14 H 0.3285 0.1224 0.0434
C15 C 0.5312(3) -0.0121(2) -0.04107(19)
H15 H 0.6122 0.0025 -0.0438
C16 C 0.4834(4) -0.0988(3) -0.0843(3)
H16 H 0.5326 -0.1433 -0.1172
C17 C 0.4571(3) 0.0668(2) 0.11408(19)
C18 C 0.3411(3) 0.6313(3) 0.0021(2)
H17 H 0.3536 0.7027 -0.0106
H18 H 0.3493 0.6208 0.0601
H19 H 0.2662 0.6119 -0.0144
C19 C 0.5458(3) 0.6050(3) -0.0208(2)
H20 H 0.5515 0.6766 -0.0354
H21 H 0.6023 0.5663 -0.0497
H22 H 0.5571 0.5974 0.0372
C20 C 0.6040(2) 0.3745(2) -0.06880(19)
H23 H 0.6234 0.3618 -0.0125
H24 H 0.6300 0.4419 -0.0845
H25 H 0.6390 0.3234 -0.1030
C21 C 0.3107(3) 0.3008(3) -0.2489(2)
C22 C 0.1866(3) 0.2877(3) -0.2583(3)
H26 H 0.1715 0.2391 -0.3013
H27 H 0.1530 0.3530 -0.2717
H28 H 0.1552 0.2627 -0.2078
C23 C 0.3318(4) 0.2964(3) 0.2273(2)
C24 C 0.3670(3) 0.2681(3) 0.3128(2)
H29 H 0.3038 0.2755 0.3492
H30 H 0.4269 0.3129 0.3302
H31 H 0.3928 0.1978 0.3136
C25 C 0.4103(4) -0.0096(3) 0.2406(2)
H32 H 0.3452 -0.0280 0.2725
H33 H 0.4560 0.0383 0.2709
H34 H 0.4535 -0.0705 0.2287
loop_
_geom_bond_atom_site_label_1
_geom_bond_atom_site_label_2
_geom_bond_site_symmetry_1
_geom_bond_site_symmetry_2
O1 C1 1_555 1_555
O2 C21 1_555 1_555
O3 H1 1_555 1_555
O4 C7 1_555 1_555
O5 C23 1_555 1_555
O6 C17 1_555 1_555
O7 C17 1_555 1_555
O8 C15 1_555 1_555
O9 C12 1_555 1_555
O10 C12 1_555 1_555
C1 H2 1_555 1_555
C2 C1 1_555 1_555
H3 C2 1_555 1_555
H4 C2 1_555 1_555
C3 C2 1_555 1_555
H5 C3 1_555 1_555
H6 C3 1_555 1_555
C4 C3 1_555 1_555
C5 O3 1_555 1_555
C6 C5 1_555 1_555
H7 C6 1_555 1_555
H8 C6 1_555 1_555
C7 C6 1_555 1_555
H9 C7 1_555 1_555
C8 C7 1_555 1_555
H10 C8 1_555 1_555
C9 C8 1_555 1_555
H11 C9 1_555 1_555
C10 C1 1_555 1_555
C11 C9 1_555 1_555
H12 C11 1_555 1_555
H13 C11 1_555 1_555
C12 C13 1_555 1_555
C13 C11 1_555 1_555
C14 C8 1_555 1_555
H14 C14 1_555 1_555
C15 C13 1_555 1_555
H15 C15 1_555 1_555
C16 O8 1_555 1_555
H16 C16 1_555 1_555
C17 C14 1_555 1_555
C18 C4 1_555 1_555
H17 C18 1_555 1_555
H18 C18 1_555 1_555
H19 C18 1_555 1_555
C19 C4 1_555 1_555
H20 C19 1_555 1_555
H21 C19 1_555 1_555
H22 C19 1_555 1_555
C20 C10 1_555 1_555
H23 C20 1_555 1_555
H24 C20 1_555 1_555
H25 C20 1_555 1_555
C21 O1 1_555 1_555
C22 C21 1_555 1_555
H26 C22 1_555 1_555
H27 C22 1_555 1_555
H28 C22 1_555 1_555
C23 O4 1_555 1_555
C24 C23 1_555 1_555
H29 C24 1_555 1_555
H30 C24 1_555 1_555
H31 C24 1_555 1_555
C25 O7 1_555 1_555
H32 C25 1_555 1_555
H33 C25 1_555 1_555
H34 C25 1_555 1_555
O9 C16 1_555 1_555
C4 C5 1_555 1_555
C5 C10 1_555 1_555
C9 C10 1_555 1_555
C13 C14 1_555 1_555
C15 C16 1_555 1_555

#END
