
#######################################################################
#
#                 Cambridge Crystallographic Data Centre
#                                CCDC 
#
#######################################################################
#
# If this CIF has been generated from an entry in the Cambridge 
# Structural Database, then it will include bibliographic, chemical, 
# crystal, experimental, refinement or atomic coordinate data resulting 
# from the CCDC's data processing and validation procedures.
#
#######################################################################

data_UDALER
_chemical_formula_moiety         'C26 H44 N2 O2 S2'
_chemical_name_systematic        'bis(N,N-Dicyclohexylthiocarbamoyl) disulfide'
_symmetry_cell_setting           monoclinic
_symmetry_space_group_name_H-M   'C 2/c'
_symmetry_Int_Tables_number      15
_space_group_name_Hall           '-C 2yn'
loop_
_symmetry_equiv_pos_site_id
_symmetry_equiv_pos_as_xyz
1 x,y,z
2 1/2+x,1/2+y,z
3 -x,y,1/2-z
4 1/2-x,1/2+y,1/2-z
5 -x,-y,-z
6 1/2-x,1/2-y,-z
7 x,-y,1/2+z
8 1/2+x,1/2-y,1/2+z
_cell_length_a                   12.868(3)
_cell_length_b                   25.435(6)
_cell_length_c                   9.080(2)
_cell_angle_alpha                90
_cell_angle_beta                 116.579(3)
_cell_angle_gamma                90
_cell_volume                     2657.79
_exptl_crystal_colour            yellow
_exptl_crystal_description       block
_chemical_melting_point          '468 K(dec.)'
_cell_formula_units_Z            4
_exptl_crystal_recrystallization_method chloroform
loop_
_atom_site_label
_atom_site_type_symbol
_atom_site_fract_x
_atom_site_fract_y
_atom_site_fract_z
S1 S 0.45764(5) 0.05959(3) 0.32018(9)
N1 N 0.26971(17) 0.11701(8) 0.2759(3)
O1 O 0.34661(16) 0.13382(8) 0.0954(2)
C1 C 0.3461(2) 0.11028(10) 0.2130(3)
C2 C 0.1818(2) 0.15968(10) 0.2081(3)
H1 H 0.1391 0.1596 0.2744
C3 C 0.2350(2) 0.21386(11) 0.2277(4)
H2 H 0.2810 0.2155 0.1675
H3 H 0.2864 0.2201 0.3432
C4 C 0.1427(3) 0.25628(12) 0.1649(4)
H4 H 0.1038 0.2579 0.2349
H5 H 0.1793 0.2901 0.1706
C5 C 0.0543(2) 0.24583(12) -0.0102(4)
H6 H 0.0916 0.2482 -0.0821
H7 H -0.0060 0.2724 -0.0442
C6 C 0.0002(2) 0.19199(12) -0.0272(4)
H8 H -0.0536 0.1858 -0.1417
H9 H -0.0433 0.1907 0.0366
C7 C 0.0924(2) 0.14929(11) 0.0320(3)
H10 H 0.0560 0.1154 0.0259
H11 H 0.1306 0.1482 -0.0389
C8 C 0.2781(2) 0.08843(10) 0.4222(3)
H12 H 0.3340 0.0599 0.4428
C9 C 0.1634(2) 0.06283(11) 0.3941(3)
H13 H 0.1050 0.0898 0.3718
H14 H 0.1370 0.0398 0.2990
C10 C 0.1783(3) 0.03140(13) 0.5440(4)
H15 H 0.1035 0.0174 0.5267
H16 H 0.2299 0.0020 0.5585
C11 C 0.2274(3) 0.06483(13) 0.6979(4)
H17 H 0.1712 0.0916 0.6888
H18 H 0.2406 0.0430 0.7922
C12 C 0.3398(3) 0.09089(12) 0.7255(3)
H19 H 0.3991 0.0643 0.7491
H20 H 0.3651 0.1141 0.8201
C13 C 0.3256(2) 0.12247(11) 0.5749(3)
H21 H 0.2732 0.1517 0.5591
H22 H 0.4003 0.1367 0.5931
S1B S 0.54236(5) 0.05959(3) 0.17982(9)
N1B N 0.73029(17) 0.11701(8) 0.2241(3)
O1B O 0.65339(16) 0.13382(8) 0.4046(2)
C1B C 0.6539(2) 0.11028(10) 0.2870(3)
C2B C 0.8182(2) 0.15968(10) 0.2919(3)
H1B H 0.8609 0.1596 0.2256
C3B C 0.7650(2) 0.21386(11) 0.2723(4)
H2B H 0.7190 0.2155 0.3325
H3B H 0.7136 0.2201 0.1568
C4B C 0.8573(3) 0.25628(12) 0.3351(4)
H4B H 0.8962 0.2579 0.2651
H5B H 0.8207 0.2901 0.3294
C5B C 0.9457(2) 0.24583(12) 0.5102(4)
H6B H 0.9084 0.2482 0.5821
H7B H 1.0060 0.2724 0.5442
C6B C 0.9998(2) 0.19199(12) 0.5272(4)
H8B H 1.0536 0.1858 0.6417
H9B H 1.0433 0.1907 0.4634
C7B C 0.9076(2) 0.14929(11) 0.4680(3)
H10B H 0.9440 0.1154 0.4741
H11B H 0.8694 0.1482 0.5389
C8B C 0.7219(2) 0.08843(10) 0.0778(3)
H12B H 0.6660 0.0599 0.0572
C9B C 0.8366(2) 0.06283(11) 0.1059(3)
H13B H 0.8950 0.0898 0.1282
H14B H 0.8630 0.0398 0.2010
C10B C 0.8217(3) 0.03140(13) -0.0440(4)
H15B H 0.8965 0.0174 -0.0267
H16B H 0.7701 0.0020 -0.0585
C11B C 0.7726(3) 0.06483(13) -0.1979(4)
H17B H 0.8288 0.0916 -0.1888
H18B H 0.7594 0.0430 -0.2922
C12B C 0.6602(3) 0.09089(12) -0.2255(3)
H19B H 0.6009 0.0643 -0.2491
H20B H 0.6349 0.1141 -0.3201
C13B C 0.6744(2) 0.12247(11) -0.0749(3)
H21B H 0.7268 0.1517 -0.0591
H22B H 0.5997 0.1367 -0.0931
loop_
_geom_bond_atom_site_label_1
_geom_bond_atom_site_label_2
_geom_bond_site_symmetry_1
_geom_bond_site_symmetry_2
S1 C1 1_555 1_555
N1 C1 1_555 1_555
O1 C1 1_555 1_555
C2 N1 1_555 1_555
H1 C2 1_555 1_555
C3 C2 1_555 1_555
H2 C3 1_555 1_555
H3 C3 1_555 1_555
C4 C3 1_555 1_555
H4 C4 1_555 1_555
H5 C4 1_555 1_555
C5 C4 1_555 1_555
H6 C5 1_555 1_555
H7 C5 1_555 1_555
C6 C5 1_555 1_555
H8 C6 1_555 1_555
H9 C6 1_555 1_555
C7 C2 1_555 1_555
H10 C7 1_555 1_555
H11 C7 1_555 1_555
C8 N1 1_555 1_555
H12 C8 1_555 1_555
C9 C8 1_555 1_555
H13 C9 1_555 1_555
H14 C9 1_555 1_555
C10 C9 1_555 1_555
H15 C10 1_555 1_555
H16 C10 1_555 1_555
C11 C10 1_555 1_555
H17 C11 1_555 1_555
H18 C11 1_555 1_555
C12 C11 1_555 1_555
H19 C12 1_555 1_555
H20 C12 1_555 1_555
C13 C8 1_555 1_555
H21 C13 1_555 1_555
H22 C13 1_555 1_555
S1B S1 1_555 1_555
N1B C1B 1_555 1_555
O1B C1B 1_555 1_555
C1B S1B 1_555 1_555
C2B N1B 1_555 1_555
H1B C2B 1_555 1_555
C3B C2B 1_555 1_555
H2B C3B 1_555 1_555
H3B C3B 1_555 1_555
C4B C3B 1_555 1_555
H4B C4B 1_555 1_555
H5B C4B 1_555 1_555
C5B C4B 1_555 1_555
H6B C5B 1_555 1_555
H7B C5B 1_555 1_555
C6B C5B 1_555 1_555
H8B C6B 1_555 1_555
H9B C6B 1_555 1_555
C7B C2B 1_555 1_555
H10B C7B 1_555 1_555
H11B C7B 1_555 1_555
C8B N1B 1_555 1_555
H12B C8B 1_555 1_555
C9B C8B 1_555 1_555
H13B C9B 1_555 1_555
H14B C9B 1_555 1_555
C10B C9B 1_555 1_555
H15B C10B 1_555 1_555
H16B C10B 1_555 1_555
C11B C10B 1_555 1_555
H17B C11B 1_555 1_555
H18B C11B 1_555 1_555
C12B C11B 1_555 1_555
H19B C12B 1_555 1_555
H20B C12B 1_555 1_555
C13B C8B 1_555 1_555
H21B C13B 1_555 1_555
H22B C13B 1_555 1_555
C6 C7 1_555 1_555
C12 C13 1_555 1_555
C6B C7B 1_555 1_555
C12B C13B 1_555 1_555

#END
