
#######################################################################
#
#                 Cambridge Crystallographic Data Centre
#                                CCDC 
#
#######################################################################
#
# If this CIF has been generated from an entry in the Cambridge 
# Structural Database, then it will include bibliographic, chemical, 
# crystal, experimental, refinement or atomic coordinate data resulting 
# from the CCDC's data processing and validation procedures.
#
#######################################################################

data_UDANAR
_chemical_formula_moiety         'C33 H24 N4,H2 O1'
_chemical_name_systematic        
'4-(pyridin-4-yl)-N,N-bis(4-(pyridin-4-yl)phenyl)aniline monohydrate'
_symmetry_cell_setting           monoclinic
_symmetry_space_group_name_H-M   'P 21/n'
_symmetry_Int_Tables_number      14
_space_group_name_Hall           '-P 2yn'
loop_
_symmetry_equiv_pos_site_id
_symmetry_equiv_pos_as_xyz
1 x,y,z
2 1/2-x,1/2+y,1/2-z
3 -x,-y,-z
4 1/2+x,1/2-y,1/2+z
_cell_length_a                   10.4601(10)
_cell_length_b                   21.902(2)
_cell_length_c                   11.8257(12)
_cell_angle_alpha                90
_cell_angle_beta                 105.6440(10)
_cell_angle_gamma                90
_cell_volume                     2608.87
_exptl_crystal_colour            yellow
_exptl_crystal_description       block
_cell_formula_units_Z            4
loop_
_atom_site_label
_atom_site_type_symbol
_atom_site_fract_x
_atom_site_fract_y
_atom_site_fract_z
C1 C 0.90380(18) 0.82964(8) 0.89915(16)
C2 C 1.00274(19) 0.85155(9) 0.85208(16)
H1 H 1.006463 0.838417 0.778246
C3 C 1.09544(19) 0.89251(9) 0.91342(17)
H2 H 1.160169 0.907147 0.879763
C4 C 1.09428(18) 0.91249(8) 1.02499(17)
C5 C 0.99398(19) 0.89069(9) 1.07102(18)
H3 H 0.990219 0.903713 1.144912
C6 C 0.9003(2) 0.85028(10) 1.00948(17)
H4 H 0.833789 0.836594 1.041966
C7 C 1.19846(19) 0.95451(9) 1.09176(19)
C8 C 1.2606(2) 0.99616(10) 1.0352(2)
H5 H 1.233148 0.999817 0.953906
C9 C 1.3612(3) 1.03143(13) 1.0984(4)
H6 H 1.400291 1.058454 1.057081
C10 C 1.3473(3) 0.99190(13) 1.2690(3)
H7 H 1.375937 0.990746 1.350551
C11 C 1.2434(2) 0.95287(10) 1.2127(2)
H8 H 1.205435 0.926416 1.255986
C12 C 0.76746(17) 0.79325(9) 0.71029(16)
C13 C 0.72659(19) 0.84932(9) 0.66020(16)
H9 H 0.722613 0.882577 0.708045
C14 C 0.69162(18) 0.85650(9) 0.54001(16)
H10 H 0.665072 0.894774 0.508195
C15 C 0.69503(16) 0.80792(8) 0.46502(15)
C16 C 0.73658(19) 0.75193(9) 0.51714(17)
C17 C 0.77088(18) 0.74450(9) 0.63734(16)
H11 H 0.796574 0.706229 0.669563
C18 C 0.65157(17) 0.81494(8) 0.33565(16)
C19 C 0.56575(19) 0.86123(9) 0.28207(17)
H12 H 0.534527 0.888976 0.327876
C20 C 0.5266(2) 0.86630(10) 0.16184(18)
H13 H 0.471289 0.898659 0.129431
C21 C 0.6425(2) 0.78314(11) 0.14013(19)
H14 H 0.668419 0.755078 0.091601
C22 C 0.6896(2) 0.77502(9) 0.25951(17)
H15 H 0.746791 0.742830 0.289147
C23 C 0.77280(18) 0.73514(8) 0.89026(15)
C24 C 0.86317(18) 0.70729(9) 0.98324(17)
H16 H 0.949501 0.722150 1.008274
C25 C 0.82647(18) 0.65780(9) 1.03902(16)
H17 H 0.888890 0.639850 1.101370
C26 C 0.69830(17) 0.63382(8) 1.00466(15)
C27 C 0.60943(18) 0.66133(9) 0.90890(16)
H18 H 0.523769 0.645828 0.882365
C28 C 0.64534(18) 0.71104(9) 0.85235(16)
H19 H 0.583985 0.728470 0.788613
C29 C 0.65753(18) 0.58292(8) 1.06983(15)
C30 C 0.7457(2) 0.53842(10) 1.12775(18)
H20 H 0.834005 0.539402 1.125952
C31 C 0.7012(3) 0.49273(10) 1.18798(19)
H21 H 0.762608 0.463629 1.225972
C32 C 0.4943(2) 0.52994(10) 1.14146(18)
H22 H 0.407002 0.527876 1.145982
C33 C 0.5279(2) 0.57751(9) 1.07841(16)
H23 H 0.463975 0.605892 1.041732
N1 N 0.80877(15) 0.78733(7) 0.83474(13)
N2 N 1.4079(2) 1.03058(11) 1.2132(3)
N3 N 0.56245(17) 0.82824(9) 0.08917(14)
N4 N 0.5774(2) 0.48707(8) 1.19591(16)
H24 H 0.7431(16) 0.7174(8) 0.4681(16)
O1 O 0.4171(3) 0.84645(12) -0.1526(2)
H25 H 0.459521 0.871774 -0.183303
H26 H 0.460(4) 0.838(2) -0.0716(19)
loop_
_geom_bond_atom_site_label_1
_geom_bond_atom_site_label_2
_geom_bond_site_symmetry_1
_geom_bond_site_symmetry_2
C1 C2 1_555 1_555
C2 H1 1_555 1_555
C3 C2 1_555 1_555
H2 C3 1_555 1_555
C4 C3 1_555 1_555
C5 C4 1_555 1_555
H3 C5 1_555 1_555
C6 C1 1_555 1_555
H4 C6 1_555 1_555
C7 C4 1_555 1_555
C8 C7 1_555 1_555
H5 C8 1_555 1_555
C9 C8 1_555 1_555
H6 C9 1_555 1_555
C10 H7 1_555 1_555
C11 C7 1_555 1_555
H8 C11 1_555 1_555
C12 C13 1_555 1_555
C13 H9 1_555 1_555
C14 C13 1_555 1_555
H10 C14 1_555 1_555
C15 C14 1_555 1_555
C16 C15 1_555 1_555
C17 C12 1_555 1_555
H11 C17 1_555 1_555
C18 C15 1_555 1_555
C19 C18 1_555 1_555
H12 C19 1_555 1_555
C20 C19 1_555 1_555
H13 C20 1_555 1_555
C21 H14 1_555 1_555
C22 C18 1_555 1_555
H15 C22 1_555 1_555
C23 C24 1_555 1_555
C24 H16 1_555 1_555
C25 C24 1_555 1_555
H17 C25 1_555 1_555
C26 C25 1_555 1_555
C27 C26 1_555 1_555
H18 C27 1_555 1_555
C28 C23 1_555 1_555
H19 C28 1_555 1_555
C29 C26 1_555 1_555
C30 C29 1_555 1_555
H20 C30 1_555 1_555
C31 C30 1_555 1_555
H21 C31 1_555 1_555
C32 H22 1_555 1_555
C33 C29 1_555 1_555
H23 C33 1_555 1_555
N1 C1 1_555 1_555
N2 C9 1_555 1_555
N3 C20 1_555 1_555
N4 C31 1_555 1_555
H24 C16 1_555 1_555
O1 H25 1_555 1_555
H26 O1 1_555 1_555
C5 C6 1_555 1_555
C10 C11 1_555 1_555
C10 N2 1_555 1_555
C12 N1 1_555 1_555
C16 C17 1_555 1_555
C21 C22 1_555 1_555
C21 N3 1_555 1_555
C23 N1 1_555 1_555
C27 C28 1_555 1_555
C32 C33 1_555 1_555
C32 N4 1_555 1_555

#END
