
#######################################################################
#
#                 Cambridge Crystallographic Data Centre
#                                CCDC 
#
#######################################################################
#
# If this CIF has been generated from an entry in the Cambridge 
# Structural Database, then it will include bibliographic, chemical, 
# crystal, experimental, refinement or atomic coordinate data resulting 
# from the CCDC's data processing and validation procedures.
#
#######################################################################

data_UDAWOL
_chemical_formula_moiety         'C17 H25 N1 O1'
_chemical_name_systematic        (+-)-1-benzyl-9-methylazacyclodecan-2-one
_symmetry_cell_setting           monoclinic
_symmetry_space_group_name_H-M   'P 21/a'
_symmetry_Int_Tables_number      14
_space_group_name_Hall           '-P 2yab'
loop_
_symmetry_equiv_pos_site_id
_symmetry_equiv_pos_as_xyz
1 x,y,z
2 1/2+x,1/2-y,z
3 -x,-y,-z
4 1/2-x,1/2+y,-z
_cell_length_a                   8.6690(2)
_cell_length_b                   15.7588(3)
_cell_length_c                   11.4462(2)
_cell_angle_alpha                90
_cell_angle_beta                 102.0894(11)
_cell_angle_gamma                90
_cell_volume                     1529.02
_exptl_crystal_colour            colorless
_exptl_crystal_description       'hexagonal plate'
_chemical_melting_point          46-49deg.C
_cell_formula_units_Z            4
loop_
_atom_site_label
_atom_site_type_symbol
_atom_site_fract_x
_atom_site_fract_y
_atom_site_fract_z
O1 O 0.56688(13) 0.37972(7) 0.4813(1)
N1 N 0.82270(14) 0.36671(7) 0.4699(1)
C1 C 0.68173(17) 0.40768(9) 0.44589(12)
C2 C 0.66354(18) 0.4907(1) 0.37694(14)
C3 C 0.52485(19) 0.48889(11) 0.26926(16)
C4 C 0.5219(2) 0.41738(12) 0.17917(15)
C5 C 0.6403(2) 0.42241(13) 0.09698(15)
C6 C 0.8146(2) 0.41430(11) 0.15496(14)
C7 C 0.8584(2) 0.3306(1) 0.22149(13)
C8 C 0.99962(17) 0.3347(1) 0.32655(13)
C9 C 0.96618(16) 0.38952(9) 0.42935(13)
C10 C 0.83787(19) 0.29013(9) 0.54517(13)
C11 C 0.92196(17) 0.3080(1) 0.67250(12)
C12 C 1.0381(2) 0.25379(12) 0.73077(15)
C13 C 1.1153(3) 0.26988(16) 0.84799(17)
C14 C 1.0742(3) 0.33958(15) 0.90715(16)
C15 C 0.9579(3) 0.39339(12) 0.85050(16)
C16 C 0.8822(2) 0.3784(1) 0.73330(14)
C17 C 1.1484(2) 0.36819(11) 0.29078(16)
H1 H 0.64632(18) 0.5375(1) 0.43176(14)
H2 H 0.76252(18) 0.5018(1) 0.34761(14)
H3 H 0.52473(19) 0.54388(11) 0.22563(16)
H4 H 0.42613(19) 0.48426(11) 0.30100(16)
H5 H 0.5422(2) 0.36304(12) 0.22492(15)
H6 H 0.4138(2) 0.41599(12) 0.12712(15)
H7 H 0.6252(2) 0.47856(13) 0.05545(15)
H8 H 0.6140(2) 0.37585(13) 0.03673(15)
H9 H 0.8434(2) 0.46189(11) 0.21324(14)
H10 H 0.8770(2) 0.41914(11) 0.09100(14)
H11 H 0.8828(2) 0.2882(1) 0.16293(13)
H12 H 0.7649(2) 0.3110(1) 0.25264(13)
H13 H 1.01791(17) 0.2746(1) 0.35401(13)
H14 H 1.05751(16) 0.38383(9) 0.49858(13)
H15 H 0.95662(16) 0.44992(9) 0.40202(13)
H16 H 0.89869(19) 0.24633(9) 0.51047(13)
H17 H 0.73001(19) 0.26793(9) 0.54586(13)
H18 H 1.0671(2) 0.20271(12) 0.68816(15)
H19 H 1.2002(3) 0.23072(16) 0.88921(17)
H20 H 1.1290(3) 0.35114(15) 0.99154(16)
H21 H 0.9276(3) 0.44364(12) 0.89413(16)
H22 H 0.7987(2) 0.4184(1) 0.69218(14)
H23 H 1.2369(2) 0.36952(11) 0.36257(16)
H24 H 1.1285(2) 0.42684(11) 0.25769(16)
H25 H 1.1772(2) 0.33018(11) 0.22872(16)
loop_
_geom_bond_atom_site_label_1
_geom_bond_atom_site_label_2
_geom_bond_site_symmetry_1
_geom_bond_site_symmetry_2
O1 C1 1_555 1_555
N1 C1 1_555 1_555
C1 C2 1_555 1_555
C2 C3 1_555 1_555
C3 C4 1_555 1_555
C4 C5 1_555 1_555
C5 C6 1_555 1_555
C6 C7 1_555 1_555
C7 C8 1_555 1_555
C8 C9 1_555 1_555
C9 N1 1_555 1_555
C10 N1 1_555 1_555
C11 C10 1_555 1_555
C12 C11 1_555 1_555
C13 C12 1_555 1_555
C14 C13 1_555 1_555
C15 C14 1_555 1_555
C16 C11 1_555 1_555
C17 C8 1_555 1_555
H1 C2 1_555 1_555
H2 C2 1_555 1_555
H3 C3 1_555 1_555
H4 C3 1_555 1_555
H5 C4 1_555 1_555
H6 C4 1_555 1_555
H7 C5 1_555 1_555
H8 C5 1_555 1_555
H9 C6 1_555 1_555
H10 C6 1_555 1_555
H11 C7 1_555 1_555
H12 C7 1_555 1_555
H13 C8 1_555 1_555
H14 C9 1_555 1_555
H15 C9 1_555 1_555
H16 C10 1_555 1_555
H17 C10 1_555 1_555
H18 C12 1_555 1_555
H19 C13 1_555 1_555
H20 C14 1_555 1_555
H21 C15 1_555 1_555
H22 C16 1_555 1_555
H23 C17 1_555 1_555
H24 C17 1_555 1_555
H25 C17 1_555 1_555
C15 C16 1_555 1_555

#END
