
#######################################################################
#
#                 Cambridge Crystallographic Data Centre
#                                CCDC 
#
#######################################################################
#
# If this CIF has been generated from an entry in the Cambridge 
# Structural Database, then it will include bibliographic, chemical, 
# crystal, experimental, refinement or atomic coordinate data resulting 
# from the CCDC's data processing and validation procedures.
#
#######################################################################

data_UDECAK
_chemical_formula_moiety         'C15 H17 N1 O1'
_chemical_name_systematic        
7-(4-(dimethylamino)phenyl)hepta-2,4,6-trienal
_symmetry_cell_setting           triclinic
_symmetry_space_group_name_H-M   'P -1'
_symmetry_Int_Tables_number      2
_space_group_name_Hall           '-P 1'
loop_
_symmetry_equiv_pos_site_id
_symmetry_equiv_pos_as_xyz
1 x,y,z
2 -x,-y,-z
_cell_length_a                   9.6042(5)
_cell_length_b                   10.3342(6)
_cell_length_c                   13.7915(11)
_cell_angle_alpha                84.357(2)
_cell_angle_beta                 84.618(2)
_cell_angle_gamma                70.839(4)
_cell_volume                     1283.97
_exptl_crystal_colour            'dark purple'
_exptl_crystal_description       plate
_cell_formula_units_Z            4
loop_
_atom_site_label
_atom_site_type_symbol
_atom_site_fract_x
_atom_site_fract_y
_atom_site_fract_z
O1 O 0.5506(3) -0.2675(3) 0.4534(2)
N1 N -0.2497(3) 0.5243(2) -0.30636(18)
C1 C 0.4454(4) -0.1758(4) 0.4224(3)
C2 C 0.3999(3) -0.1554(3) 0.3244(2)
C3 C 0.2856(3) -0.0469(3) 0.2948(2)
C4 C 0.2349(3) -0.0165(3) 0.1991(2)
C5 C 0.1257(3) 0.0986(3) 0.1718(2)
C6 C 0.0719(3) 0.1383(3) 0.0772(2)
C7 C -0.0240(3) 0.2635(3) 0.0542(2)
C8 C -0.0813(3) 0.3236(3) -0.0398(2)
C9 C -0.1519(3) 0.4654(3) -0.0506(2)
C10 C -0.2044(3) 0.5327(3) -0.1374(2)
C11 C -0.1932(3) 0.4592(3) -0.2202(2)
C12 C -0.1229(3) 0.3160(3) -0.2098(2)
C13 C -0.0683(3) 0.2502(3) -0.1227(2)
C14 C -0.3012(3) 0.6737(3) -0.3185(3)
C15 C -0.2219(4) 0.4514(4) -0.3941(2)
H1 H 0.3894 -0.1125 0.4692
H2 H 0.4525 -0.2216 0.2786
H3 H 0.2308 0.0187 0.3405
H4 H 0.2794 -0.0803 0.1502
H5 H 0.0756 0.1638 0.2189
H6 H 0.1047 0.0740 0.0276
H7 H -0.0635 0.3268 0.1040
H8 H -0.1653 0.5198 0.0042
H9 H -0.2479 0.6308 -0.1428
H10 H -0.1126 0.2618 -0.2643
H11 H -0.0207 0.1526 -0.1192
H12 H -0.3433 0.7034 -0.3821
H13 H -0.2180 0.7078 -0.3151
H14 H -0.3768 0.7104 -0.2666
H15 H -0.2744 0.5128 -0.4472
H16 H -0.2568 0.3718 -0.3823
H17 H -0.1156 0.4203 -0.4123
O2 O 0.9593(3) -0.1665(3) 0.5274(2)
N2 N 0.2497(3) 0.5543(3) -0.29090(19)
C16 C 0.8802(4) -0.1474(4) 0.4606(3)
C17 C 0.8660(3) -0.0472(3) 0.3790(3)
C18 C 0.7710(3) -0.0332(3) 0.3115(2)
C19 C 0.7442(3) 0.0625(3) 0.2278(2)
C20 C 0.6391(3) 0.0752(3) 0.1656(2)
C21 C 0.6028(3) 0.1691(3) 0.0818(2)
C22 C 0.4920(3) 0.1781(3) 0.0265(2)
C23 C 0.4382(3) 0.2722(3) -0.0572(2)
C24 C 0.3172(3) 0.2646(3) -0.1029(2)
C25 C 0.2560(3) 0.3543(3) -0.1792(2)
C26 C 0.3135(3) 0.4599(3) -0.2162(2)
C27 C 0.4378(3) 0.4663(3) -0.1716(2)
C28 C 0.4966(3) 0.3761(3) -0.0949(2)
C29 C 0.3390(4) 0.6223(4) -0.3537(3)
C30 C 0.1290(3) 0.5359(4) -0.3377(3)
H18 H 0.8213 -0.2072 0.4652
H19 H 0.9264 0.0113 0.3736
H20 H 0.7121 -0.0931 0.3163
H21 H 0.8029 0.1223 0.2139
H22 H 0.5785 0.0167 0.1764
H23 H 0.6600 0.2291 0.0625
H24 H 0.4351 0.1169 0.0416
H25 H 0.2731 0.1950 -0.0810
H26 H 0.1729 0.3455 -0.2084
H27 H 0.4824 0.5353 -0.1945
H28 H 0.5801 0.3857 -0.0668
H29 H 0.2762 0.6900 -0.3995
H30 H 0.4165 0.5540 -0.3901
H31 H 0.3843 0.6688 -0.3136
H32 H 0.0900 0.6139 -0.3851
H33 H 0.0505 0.5306 -0.2883
H34 H 0.1650 0.4508 -0.3715
loop_
_geom_bond_atom_site_label_1
_geom_bond_atom_site_label_2
_geom_bond_site_symmetry_1
_geom_bond_site_symmetry_2
O1 C1 1_555 1_555
N1 C11 1_555 1_555
C1 C2 1_555 1_555
C2 C3 1_555 1_555
C3 C4 1_555 1_555
C4 C5 1_555 1_555
C5 C6 1_555 1_555
C6 C7 1_555 1_555
C7 C8 1_555 1_555
C8 C9 1_555 1_555
C9 C10 1_555 1_555
C10 C11 1_555 1_555
C11 C12 1_555 1_555
C12 C13 1_555 1_555
C13 C8 1_555 1_555
C14 N1 1_555 1_555
C15 N1 1_555 1_555
H1 C1 1_555 1_555
H2 C2 1_555 1_555
H3 C3 1_555 1_555
H4 C4 1_555 1_555
H5 C5 1_555 1_555
H6 C6 1_555 1_555
H7 C7 1_555 1_555
H8 C9 1_555 1_555
H9 C10 1_555 1_555
H10 C12 1_555 1_555
H11 C13 1_555 1_555
H12 C14 1_555 1_555
H13 C14 1_555 1_555
H14 C14 1_555 1_555
H15 C15 1_555 1_555
H16 C15 1_555 1_555
H17 C15 1_555 1_555
O2 C16 1_555 1_555
N2 C26 1_555 1_555
C16 C17 1_555 1_555
C17 C18 1_555 1_555
C18 C19 1_555 1_555
C19 C20 1_555 1_555
C20 C21 1_555 1_555
C21 C22 1_555 1_555
C22 C23 1_555 1_555
C23 C24 1_555 1_555
C24 C25 1_555 1_555
C25 C26 1_555 1_555
C26 C27 1_555 1_555
C27 C28 1_555 1_555
C28 C23 1_555 1_555
C29 N2 1_555 1_555
C30 N2 1_555 1_555
H18 C16 1_555 1_555
H19 C17 1_555 1_555
H20 C18 1_555 1_555
H21 C19 1_555 1_555
H22 C20 1_555 1_555
H23 C21 1_555 1_555
H24 C22 1_555 1_555
H25 C24 1_555 1_555
H26 C25 1_555 1_555
H27 C27 1_555 1_555
H28 C28 1_555 1_555
H29 C29 1_555 1_555
H30 C29 1_555 1_555
H31 C29 1_555 1_555
H32 C30 1_555 1_555
H33 C30 1_555 1_555
H34 C30 1_555 1_555

#END
