
#######################################################################
#
#                 Cambridge Crystallographic Data Centre
#                                CCDC 
#
#######################################################################
#
# If this CIF has been generated from an entry in the Cambridge 
# Structural Database, then it will include bibliographic, chemical, 
# crystal, experimental, refinement or atomic coordinate data resulting 
# from the CCDC's data processing and validation procedures.
#
#######################################################################

data_UDEDOY
_chemical_formula_moiety         'C11 H13 N1 O3'
_chemical_name_systematic        
1-(2-Phenyl-4,5-dihydro-1,3-oxazol-5-yl)ethane-1,2-diol
_symmetry_cell_setting           monoclinic
_symmetry_space_group_name_H-M   'P 21'
_symmetry_Int_Tables_number      4
_space_group_name_Hall           'P 2yb'
loop_
_symmetry_equiv_pos_site_id
_symmetry_equiv_pos_as_xyz
1 x,y,z
2 -x,1/2+y,-z
_cell_length_a                   4.8977(2)
_cell_length_b                   9.8763(3)
_cell_length_c                   10.9901(4)
_cell_angle_alpha                90
_cell_angle_beta                 93.229(2)
_cell_angle_gamma                90
_cell_volume                     530.76
_exptl_crystal_colour            colorless
_exptl_crystal_description       flakes
_cell_formula_units_Z            2
loop_
_atom_site_label
_atom_site_type_symbol
_atom_site_fract_x
_atom_site_fract_y
_atom_site_fract_z
C1 C 0.8852(6) -0.0060(3) -0.0537(2)
H1 H 1.0804 -0.0285 -0.0487
C2 C 0.7153(7) -0.1356(3) -0.0529(3)
H2 H 0.5779 -0.1361 -0.1200
H3 H 0.8308 -0.2148 -0.0594
C3 C 0.6468(5) -0.0220(3) 0.1153(3)
C4 C 0.5509(6) 0.0276(3) 0.2321(3)
C5 C 0.3540(7) -0.0441(3) 0.2913(3)
H4 H 0.2841 -0.1243 0.2578
C6 C 0.2621(9) 0.0034(4) 0.3995(4)
H5 H 0.1302 -0.0450 0.4389
C7 C 0.3645(9) 0.1223(4) 0.4498(3)
H6 H 0.3024 0.1542 0.5229
C8 C 0.5577(8) 0.1926(4) 0.3912(3)
H7 H 0.6277 0.2724 0.4252
C9 C 0.6510(7) 0.1471(3) 0.2821(3)
H8 H 0.7806 0.1969 0.2425
C10 C 0.8223(5) 0.0890(3) -0.1593(2)
H9 H 0.9312 0.1716 -0.1467
C11 C 0.8858(6) 0.0271(3) -0.2808(3)
H10 H 0.7473 -0.0400 -0.3030
H11 H 0.8750 0.0974 -0.3425
N1 N 0.5865(5) -0.1338(3) 0.0647(2)
O1 O 0.8127(4) 0.0623(2) 0.05768(17)
O2 O 0.5411(3) 0.12432(19) -0.16758(19)
H12 H 0.5184 0.1942 -0.1291
O3 O 1.1441(4) -0.0344(2) -0.2810(2)
H13 H 1.2595 0.0166 -0.2493
loop_
_geom_bond_atom_site_label_1
_geom_bond_atom_site_label_2
_geom_bond_site_symmetry_1
_geom_bond_site_symmetry_2
C1 H1 1_555 1_555
C2 C1 1_555 1_555
H2 C2 1_555 1_555
H3 C2 1_555 1_555
C3 C4 1_555 1_555
C4 C5 1_555 1_555
C5 H4 1_555 1_555
C6 C5 1_555 1_555
H5 C6 1_555 1_555
C7 C6 1_555 1_555
H6 C7 1_555 1_555
C8 C7 1_555 1_555
H7 C8 1_555 1_555
C9 C4 1_555 1_555
H8 C9 1_555 1_555
C10 C1 1_555 1_555
H9 C10 1_555 1_555
C11 C10 1_555 1_555
H10 C11 1_555 1_555
H11 C11 1_555 1_555
N1 C2 1_555 1_555
O1 C1 1_555 1_555
O2 C10 1_555 1_555
H12 O2 1_555 1_555
O3 C11 1_555 1_555
H13 O3 1_555 1_555
C3 N1 1_555 1_555
C3 O1 1_555 1_555
C8 C9 1_555 1_555

#END
