
#######################################################################
#
#                 Cambridge Crystallographic Data Centre
#                                CCDC 
#
#######################################################################
#
# If this CIF has been generated from an entry in the Cambridge 
# Structural Database, then it will include bibliographic, chemical, 
# crystal, experimental, refinement or atomic coordinate data resulting 
# from the CCDC's data processing and validation procedures.
#
#######################################################################

data_UDEDIR
_chemical_formula_moiety         'C24 H24 N2 O6,H2 O1'
_chemical_name_systematic        
"N,N'-bis(2-Methoxybenzoyl)-2,5-dimethoxy-1,4-phenylenediamine monohydrate"
_symmetry_cell_setting           monoclinic
_symmetry_space_group_name_H-M   'P 21/n'
_symmetry_Int_Tables_number      14
_space_group_name_Hall           '-P 2yn'
loop_
_symmetry_equiv_pos_site_id
_symmetry_equiv_pos_as_xyz
1 x,y,z
2 1/2-x,1/2+y,1/2-z
3 -x,-y,-z
4 1/2+x,1/2-y,1/2+z
_cell_length_a                   10.5861(8)
_cell_length_b                   14.5692(12)
_cell_length_c                   14.5369(12)
_cell_angle_alpha                90
_cell_angle_beta                 100.128(2)
_cell_angle_gamma                90
_cell_volume                     2207.1
_exptl_crystal_colour            colorless
_chemical_melting_point          'above 220deg.C(dec)'
_cell_formula_units_Z            4
loop_
_atom_site_label
_atom_site_type_symbol
_atom_site_fract_x
_atom_site_fract_y
_atom_site_fract_z
O1 O 0.10783(10) -0.00034(7) 0.31285(7)
O2 O 0.59332(9) 0.12769(6) 0.44659(7)
O3 O 0.25298(11) 0.13450(8) 0.62446(8)
O4 O 0.63484(10) 0.20447(7) 0.66112(7)
O5 O 0.42195(11) 0.05305(8) 0.12044(8)
O6 O 0.08526(10) -0.09599(7) 0.10085(8)
N1 N 0.43355(13) 0.12560(8) 0.56269(9)
N2 N 0.26658(13) 0.00483(9) 0.19673(9)
C1 C 0.43618(13) 0.06795(9) 0.31854(10)
H1 H 0.4945 0.0700 0.2776
C2 C 0.31266(14) 0.03615(9) 0.28771(10)
C3 C 0.22722(14) 0.03291(9) 0.35032(10)
C4 C 0.26296(13) 0.06244(9) 0.44102(10)
H2 H 0.2046 0.0605 0.4819
C5 C 0.38626(13) 0.09517(9) 0.47139(10)
C6 C 0.47266(13) 0.09641(9) 0.40940(10)
C7 C 0.01671(15) -0.01082(12) 0.37222(12)
H3 H 0.0496 -0.0523 0.4220
H4 H -0.0615 -0.0350 0.3371
H5 H 0.0001 0.0478 0.3979
C8 C 0.68925(14) 0.12329(11) 0.38940(12)
H6 H 0.6967 0.0613 0.3686
H7 H 0.7700 0.1429 0.4248
H8 H 0.6658 0.1627 0.3362
C9 C 0.36971(16) 0.14372(9) 0.63244(11)
C10 C 0.44866(14) 0.17432(9) 0.72336(10)
C11 C 0.38725(16) 0.17404(11) 0.80051(11)
H9 H 0.3021 0.1552 0.7929
C12 C 0.44873(19) 0.20085(11) 0.88760(12)
H10 H 0.4062 0.1989 0.9384
C13 C 0.5734(2) 0.23053(11) 0.89883(12)
H11 H 0.6153 0.2493 0.9574
C14 C 0.63684(16) 0.23271(10) 0.82432(12)
H12 H 0.7211 0.2536 0.8324
C15 C 0.57605(15) 0.20400(10) 0.73757(11)
C16 C 0.76656(16) 0.22898(12) 0.67072(13)
H13 H 0.7780 0.2911 0.6925
H14 H 0.7936 0.2236 0.6113
H15 H 0.8171 0.1887 0.7149
C17 C 0.32095(15) 0.01195(10) 0.11995(11)
C18 C 0.25014(14) -0.03047(9) 0.03210(10)
C19 C 0.30495(16) -0.01782(10) -0.04687(11)
H16 H 0.3816 0.0145 -0.0415
C20 C 0.24947(18) -0.05161(12) -0.13282(12)
H17 H 0.2879 -0.0417 -0.1848
C21 C 0.13730(18) -0.09989(11) -0.14114(12)
H18 H 0.0988 -0.1222 -0.1993
C22 C 0.08107(16) -0.11564(11) -0.06442(12)
H19 H 0.0054 -0.1493 -0.0705
C23 C 0.13685(15) -0.08153(10) 0.02188(11)
C24 C -0.02694(15) -0.14988(12) 0.09621(13)
H20 H -0.0974 -0.1199 0.0570
H21 H -0.0463 -0.1573 0.1579
H22 H -0.0132 -0.2090 0.0706
H23 H 0.1890(14) -0.0230(9) 0.1885(10)
H24 H 0.5207(14) 0.1368(9) 0.5749(10)
O7 O 0.05116(17) 0.25707(13) 0.66532(14)
H25 H 0.034(3) 0.3118(19) 0.633(3)
H26 H 0.118(2) 0.2274(16) 0.6443(17)
loop_
_geom_bond_atom_site_label_1
_geom_bond_atom_site_label_2
_geom_bond_site_symmetry_1
_geom_bond_site_symmetry_2
O1 C3 1_555 1_555
O2 C6 1_555 1_555
O3 C9 1_555 1_555
O4 C15 1_555 1_555
O5 C17 1_555 1_555
O6 C23 1_555 1_555
O7 H25 1_555 1_555
N1 C5 1_555 1_555
N2 C2 1_555 1_555
C1 H1 1_555 1_555
C2 C1 1_555 1_555
C3 C2 1_555 1_555
C4 C3 1_555 1_555
H2 C4 1_555 1_555
C5 C4 1_555 1_555
C6 C1 1_555 1_555
C7 O1 1_555 1_555
H3 C7 1_555 1_555
H4 C7 1_555 1_555
H5 C7 1_555 1_555
C8 O2 1_555 1_555
H6 C8 1_555 1_555
H7 C8 1_555 1_555
H8 C8 1_555 1_555
C9 N1 1_555 1_555
C10 C9 1_555 1_555
C11 C10 1_555 1_555
H9 C11 1_555 1_555
C12 C11 1_555 1_555
H10 C12 1_555 1_555
C13 C12 1_555 1_555
H11 C13 1_555 1_555
C14 C13 1_555 1_555
H12 C14 1_555 1_555
C15 C10 1_555 1_555
C16 O4 1_555 1_555
H13 C16 1_555 1_555
H14 C16 1_555 1_555
H15 C16 1_555 1_555
C17 N2 1_555 1_555
C18 C17 1_555 1_555
C19 C18 1_555 1_555
H16 C19 1_555 1_555
C20 C19 1_555 1_555
H17 C20 1_555 1_555
C21 C20 1_555 1_555
H18 C21 1_555 1_555
C22 C21 1_555 1_555
H19 C22 1_555 1_555
C23 C18 1_555 1_555
C24 O6 1_555 1_555
H20 C24 1_555 1_555
H21 C24 1_555 1_555
H22 C24 1_555 1_555
H23 N2 1_555 1_555
H24 N1 1_555 1_555
H26 O7 1_555 1_555
C5 C6 1_555 1_555
C14 C15 1_555 1_555
C22 C23 1_555 1_555

#END
