
#######################################################################
#
#                 Cambridge Crystallographic Data Centre
#                                CCDC 
#
#######################################################################
#
# If this CIF has been generated from an entry in the Cambridge 
# Structural Database, then it will include bibliographic, chemical, 
# crystal, experimental, refinement or atomic coordinate data resulting 
# from the CCDC's data processing and validation procedures.
#
#######################################################################

data_UDEDEN
_chemical_formula_moiety         'C23 H22 N2 O5'
_chemical_name_systematic        
N,N'-bis(2-Methoxyphenyl)-2-methoxyisophthalamide
_symmetry_cell_setting           orthorhombic
_symmetry_space_group_name_H-M   'P b c a'
_symmetry_Int_Tables_number      61
_space_group_name_Hall           '-P 2ac 2ab'
loop_
_symmetry_equiv_pos_site_id
_symmetry_equiv_pos_as_xyz
1 x,y,z
2 1/2-x,-y,1/2+z
3 -x,1/2+y,1/2-z
4 1/2+x,1/2-y,-z
5 -x,-y,-z
6 1/2+x,y,1/2-z
7 x,1/2-y,1/2+z
8 1/2-x,1/2+y,z
_cell_length_a                   13.7345(12)
_cell_length_b                   16.8989(16)
_cell_length_c                   17.6432(17)
_cell_angle_alpha                90
_cell_angle_beta                 90
_cell_angle_gamma                90
_cell_volume                     4094.95
_exptl_crystal_colour            colorless
_chemical_melting_point          170-172deg.C
_cell_formula_units_Z            8
_exptl_crystal_recrystallization_method 'ethyl acetate'
loop_
_atom_site_label
_atom_site_type_symbol
_atom_site_fract_x
_atom_site_fract_y
_atom_site_fract_z
O1 O 0.14382(8) 0.08313(7) 0.53482(7)
O2 O 0.22066(10) -0.05719(9) 0.71457(8)
O3 O -0.14049(10) 0.16766(8) 0.51742(9)
O4 O 0.33208(9) -0.02474(8) 0.45856(7)
O5 O 0.15872(10) 0.18806(8) 0.38194(8)
N1 N 0.25091(12) -0.04013(10) 0.58976(10)
N2 N 0.00179(12) 0.15239(9) 0.45469(10)
C1 C 0.07145(13) 0.05630(10) 0.58363(10)
C2 C 0.09679(13) 0.00280(11) 0.64080(10)
C3 C 0.02294(16) -0.02319(12) 0.68929(12)
C4 C -0.07191(17) 0.00064(13) 0.67911(14)
C5 C -0.09540(15) 0.05157(13) 0.62137(13)
C6 C -0.02431(13) 0.08137(10) 0.57264(11)
C7 C 0.19584(14) -0.03318(11) 0.65216(11)
C8 C -0.05942(14) 0.13793(11) 0.51268(12)
C9 C 0.33975(13) -0.08014(11) 0.57913(11)
C10 C 0.38534(16) -0.12661(13) 0.63334(14)
C11 C 0.47088(17) -0.16576(13) 0.61497(15)
C12 C 0.51043(17) -0.15941(13) 0.54469(15)
C13 C 0.46620(15) -0.11258(12) 0.49000(13)
C14 C 0.38209(13) -0.07291(11) 0.50720(11)
C15 C -0.00867(15) 0.20496(11) 0.39315(12)
C16 C -0.09578(18) 0.23685(13) 0.36943(14)
C17 C -0.0959(3) 0.28905(16) 0.30878(16)
C18 C -0.0121(3) 0.30810(17) 0.27235(17)
C19 C 0.0754(2) 0.27531(14) 0.29403(14)
C20 C 0.07736(16) 0.22401(11) 0.35455(12)
C21 C 0.20275(16) 0.14664(13) 0.56443(13)
H1 H 0.1627 0.1924 0.5726
H2 H 0.2532 0.1592 0.5288
H3 H 0.2315 0.1305 0.6116
C22 C 0.36884(15) -0.01721(13) 0.38330(11)
H4 H 0.4329 0.0054 0.3849
H5 H 0.3266 0.0165 0.3544
H6 H 0.3718 -0.0685 0.3600
C23 C 0.25033(14) 0.20715(14) 0.34880(14)
H7 H 0.2487 0.1953 0.2956
H8 H 0.3006 0.1766 0.3727
H9 H 0.2634 0.2625 0.3558
H10 H 0.2262(15) -0.0208(12) 0.5492(12)
H11 H 0.0606(11) 0.1289(9) 0.4582(10)
H12 H 0.0400(12) -0.0617(10) 0.7271(11)
H13 H -0.1196(13) -0.0179(11) 0.7096(12)
H14 H -0.1605(13) 0.0710(10) 0.6135(10)
H15 H 0.3565(13) -0.1274(11) 0.6815(12)
H16 H 0.4995(12) -0.1969(11) 0.6534(11)
H17 H 0.5698(13) -0.1874(11) 0.5291(11)
H18 H 0.4950(12) -0.1049(10) 0.4393(11)
H19 H -0.1546(12) 0.2216(10) 0.3960(11)
H20 H -0.1568(17) 0.3078(14) 0.2950(14)
H21 H -0.0134(16) 0.3421(15) 0.2309(16)
H22 H 0.1332(16) 0.2859(14) 0.2659(15)
loop_
_geom_bond_atom_site_label_1
_geom_bond_atom_site_label_2
_geom_bond_site_symmetry_1
_geom_bond_site_symmetry_2
O1 C1 1_555 1_555
O2 C7 1_555 1_555
O3 C8 1_555 1_555
O4 C14 1_555 1_555
O5 C20 1_555 1_555
N1 C7 1_555 1_555
N2 C8 1_555 1_555
C1 C2 1_555 1_555
C2 C3 1_555 1_555
C3 C4 1_555 1_555
C4 C5 1_555 1_555
C5 C6 1_555 1_555
C6 C1 1_555 1_555
C7 C2 1_555 1_555
C8 C6 1_555 1_555
C9 N1 1_555 1_555
C10 C9 1_555 1_555
C11 C10 1_555 1_555
C12 C11 1_555 1_555
C13 C12 1_555 1_555
C14 C9 1_555 1_555
C15 N2 1_555 1_555
C16 C15 1_555 1_555
C17 C16 1_555 1_555
C18 C17 1_555 1_555
C19 C18 1_555 1_555
C20 C15 1_555 1_555
C21 O1 1_555 1_555
H1 C21 1_555 1_555
H2 C21 1_555 1_555
H3 C21 1_555 1_555
C22 O4 1_555 1_555
H4 C22 1_555 1_555
H5 C22 1_555 1_555
H6 C22 1_555 1_555
C23 O5 1_555 1_555
H7 C23 1_555 1_555
H8 C23 1_555 1_555
H9 C23 1_555 1_555
H10 N1 1_555 1_555
H11 N2 1_555 1_555
H12 C3 1_555 1_555
H13 C4 1_555 1_555
H14 C5 1_555 1_555
H15 C10 1_555 1_555
H16 C11 1_555 1_555
H17 C12 1_555 1_555
H18 C13 1_555 1_555
H19 C16 1_555 1_555
H20 C17 1_555 1_555
H21 C18 1_555 1_555
H22 C19 1_555 1_555
C13 C14 1_555 1_555
C19 C20 1_555 1_555

#END
