
#######################################################################
#
#                 Cambridge Crystallographic Data Centre
#                                CCDC 
#
#######################################################################
#
# If this CIF has been generated from an entry in the Cambridge 
# Structural Database, then it will include bibliographic, chemical, 
# crystal, experimental, refinement or atomic coordinate data resulting 
# from the CCDC's data processing and validation procedures.
#
#######################################################################

data_UDERIE
_chemical_formula_moiety         'C8 H8 S4,C6 Br4 O2'
_chemical_name_systematic        
"4,4'-Dimethyl-1,1',3,3'-tetrathiafulvalene 2,3,5,6-tetrabromo-p-benzoquinone"
_symmetry_cell_setting           triclinic
_symmetry_space_group_name_H-M   'P -1'
_symmetry_Int_Tables_number      2
_space_group_name_Hall           '-P 1'
loop_
_symmetry_equiv_pos_site_id
_symmetry_equiv_pos_as_xyz
1 x,y,z
2 -x,-y,-z
_cell_length_a                   7.754(2)
_cell_length_b                   8.873(2)
_cell_length_c                   7.382(4)
_cell_angle_alpha                106.59(3)
_cell_angle_beta                 91.58(3)
_cell_angle_gamma                95.91(2)
_cell_volume                     483.296
_cell_formula_units_Z            1
loop_
_atom_site_label
_atom_site_type_symbol
_atom_site_fract_x
_atom_site_fract_y
_atom_site_fract_z
S1 S 0.2418(1) 0.5201(1) 0.3857(2)
S2 S 0.4155(1) 0.2454(1) 0.4066(2)
C1 C 0.4288(5) 0.4506(5) 0.4570(6)
C2 C 0.1251(5) 0.3340(6) 0.3006(6)
C3 C 0.2009(6) 0.2068(5) 0.3099(6)
C4 C 0.1206(7) 0.0400(6) 0.2515(9)
C1A C 0.5712(5) 0.5494(5) 0.5430(6)
S1A S 0.7582(1) 0.4799(1) 0.6143(2)
C2A C 0.8749(5) 0.6660(6) 0.6994(6)
C3A C 0.7991(6) 0.7932(5) 0.6901(6)
S2A S 0.5845(1) 0.7546(1) 0.5934(2)
C4A C 0.8794(7) 0.9600(6) 0.7485(9)
O1 O 0.2674(4) 0.6858(4) -0.0601(5)
Br1 Br 0.11470(7) 0.34710(7) -0.19316(8)
Br2 Br 0.58555(7) 0.88694(6) 0.14541(8)
C5 C 0.3719(5) 0.6012(5) -0.0283(6)
C6 C 0.3347(5) 0.4265(4) -0.0896(6)
C7 C 0.5455(5) 0.6686(4) 0.0670(5)
C7A C 0.4545(5) 0.3314(4) -0.0670(5)
Br2A Br 0.41445(7) 0.11306(6) -0.14541(8)
C5A C 0.6281(5) 0.3988(5) 0.0283(6)
O1A O 0.7326(4) 0.3142(4) 0.0601(5)
C6A C 0.6653(5) 0.5735(4) 0.0896(6)
Br1A Br 0.88530(7) 0.65290(7) 0.19316(8)
loop_
_geom_bond_atom_site_label_1
_geom_bond_atom_site_label_2
_geom_bond_site_symmetry_1
_geom_bond_site_symmetry_2
S1 C1 1_555 1_555
S2 C1 1_555 1_555
C1 C1A 1_555 1_555
C2 S1 1_555 1_555
C3 S2 1_555 1_555
C4 C3 1_555 1_555
O1 C5 1_555 1_555
Br1 C6 1_555 1_555
Br2 C7 1_555 1_555
C5 C6 1_555 1_555
C6 C7A 1_555 1_555
C7 C5 1_555 1_555
C1A S1A 1_555 1_555
S1A C2A 1_555 1_555
C2A C3A 1_555 1_555
C3A S2A 1_555 1_555
S2A C1A 1_555 1_555
C4A C3A 1_555 1_555
C7A Br2A 1_555 1_555
C5A C7A 1_555 1_555
O1A C5A 1_555 1_555
C6A C7 1_555 1_555
Br1A C6A 1_555 1_555
C2 C3 1_555 1_555
C5A C6A 1_555 1_555

#END
