
#######################################################################
#
#                 Cambridge Crystallographic Data Centre
#                                CCDC 
#
#######################################################################
#
# If this CIF has been generated from an entry in the Cambridge 
# Structural Database, then it will include bibliographic, chemical, 
# crystal, experimental, refinement or atomic coordinate data resulting 
# from the CCDC's data processing and validation procedures.
#
#######################################################################

data_UDERIE01
_chemical_formula_moiety         'C8 H8 S4,C6 Br4 O2'
_chemical_name_systematic        
"4,4'-Dimethyl-1,1',3,3'-tetrathiafulvalene 2,3,5,6-tetrabromo-p-benzoquinone"
_symmetry_cell_setting           triclinic
_symmetry_space_group_name_H-M   'P -1'
_symmetry_Int_Tables_number      2
_space_group_name_Hall           '-P 1'
loop_
_symmetry_equiv_pos_site_id
_symmetry_equiv_pos_as_xyz
1 x,y,z
2 -x,-y,-z
_cell_length_a                   7.733(3)
_cell_length_b                   8.754(3)
_cell_length_c                   7.353(5)
_cell_angle_alpha                105.70(4)
_cell_angle_beta                 91.67(4)
_cell_angle_gamma                95.80(3)
_cell_volume                     475.905
_cell_formula_units_Z            1
loop_
_atom_site_label
_atom_site_type_symbol
_atom_site_fract_x
_atom_site_fract_y
_atom_site_fract_z
S1 S 0.2408(1) 0.51998(10) 0.3857(1)
S2 S 0.4170(1) 0.24321(9) 0.4100(1)
C1 C 0.4290(4) 0.4505(3) 0.4569(4)
C2 C 0.1250(4) 0.3315(4) 0.3016(5)
C3 C 0.2018(4) 0.2053(4) 0.3134(5)
C4 C 0.1230(5) 0.0341(5) 0.2546(6)
C1A C 0.5710(4) 0.5495(3) 0.5431(4)
S1A S 0.7592(1) 0.48002(10) 0.6143(1)
C2A C 0.8750(4) 0.6685(4) 0.6984(5)
C3A C 0.7982(4) 0.7947(4) 0.6866(5)
S2A S 0.5830(1) 0.75679(9) 0.5900(1)
C4A C 0.8770(5) 0.9659(5) 0.7454(6)
O1 O 0.2688(3) 0.6894(3) -0.0623(4)
Br1 Br 0.11791(6) 0.34918(6) -0.18933(7)
Br2 Br 0.59066(7) 0.88619(5) 0.13950(8)
C5 C 0.3723(4) 0.6038(3) -0.0297(4)
C6 C 0.3341(4) 0.4268(3) -0.0875(4)
C7 C 0.5465(4) 0.6693(3) 0.0648(4)
C7A C 0.4535(4) 0.3307(3) -0.0648(4)
Br2A Br 0.40934(7) 0.11381(5) -0.13950(8)
C5A C 0.6277(4) 0.3962(3) 0.0297(4)
O1A O 0.7312(3) 0.3106(3) 0.0623(4)
C6A C 0.6659(4) 0.5732(3) 0.0875(4)
Br1A Br 0.88209(6) 0.65082(6) 0.18933(7)
Cl1? Cl 0.11791(6) 0.34918(6) -0.18933(7)
Cl2? Cl 0.40934(7) 0.11381(5) -0.13950(8)
loop_
_geom_bond_atom_site_label_1
_geom_bond_atom_site_label_2
_geom_bond_site_symmetry_1
_geom_bond_site_symmetry_2
S1 C1 1_555 1_555
S2 C1 1_555 1_555
C1 C1A 1_555 1_555
C2 S1 1_555 1_555
C3 S2 1_555 1_555
C4 C3 1_555 1_555
O1 C5 1_555 1_555
Br1 C6 1_555 1_555
Br2 C7 1_555 1_555
C5 C6 1_555 1_555
C6 C7A 1_555 1_555
C7 C5 1_555 1_555
C1A S1A 1_555 1_555
S1A C2A 1_555 1_555
C2A C3A 1_555 1_555
C3A S2A 1_555 1_555
S2A C1A 1_555 1_555
C4A C3A 1_555 1_555
C7A Br2A 1_555 1_555
C5A C7A 1_555 1_555
O1A C5A 1_555 1_555
C6A C7 1_555 1_555
Br1A C6A 1_555 1_555
C2 C3 1_555 1_555
C5A C6A 1_555 1_555

#END
