
#######################################################################
#
#                 Cambridge Crystallographic Data Centre
#                                CCDC 
#
#######################################################################
#
# If this CIF has been generated from an entry in the Cambridge 
# Structural Database, then it will include bibliographic, chemical, 
# crystal, experimental, refinement or atomic coordinate data resulting 
# from the CCDC's data processing and validation procedures.
#
#######################################################################

data_UDEYAG
_chemical_name_common            
(7R)-3,6-anhydro-2-deoxy-7-C-chloro-5,7-O-methylidene-D-ido-heptono-1,4-lactone
_chemical_formula_moiety         'C8 H9 Cl1 O5'
_chemical_name_systematic        
4-chlorohexahydro-2H,7H-furo[2',3':4,5]furo[3,2-d][1,3]dioxin-7-one
_symmetry_cell_setting           orthorhombic
_symmetry_space_group_name_H-M   'P 21 21 21'
_symmetry_Int_Tables_number      19
_space_group_name_Hall           'P 2ac 2ab'
loop_
_symmetry_equiv_pos_site_id
_symmetry_equiv_pos_as_xyz
1 x,y,z
2 1/2-x,-y,1/2+z
3 1/2+x,1/2-y,-z
4 -x,1/2+y,1/2-z
_cell_length_a                   6.1243(4)
_cell_length_b                   7.3243(4)
_cell_length_c                   19.6817(10)
_cell_angle_alpha                90
_cell_angle_beta                 90
_cell_angle_gamma                90
_cell_volume                     882.846
_exptl_crystal_colour            colorless
_exptl_crystal_description       prism
_cell_formula_units_Z            4
loop_
_atom_site_label
_atom_site_type_symbol
_atom_site_fract_x
_atom_site_fract_y
_atom_site_fract_z
Cl1 Cl 0.18056(17) 0.63596(11) 0.23585(4)
O1 O 0.1353(3) 0.7452(2) 0.43143(8)
O2 O 0.1914(4) 1.1748(2) 0.40143(9)
O3 O 0.4269(4) 0.5272(3) 0.33904(10)
O4 O 0.5670(3) 0.8043(3) 0.37773(10)
O5 O -0.1328(4) 1.2938(3) 0.42556(10)
C1 C 0.0004(5) 1.1768(4) 0.43592(13)
C2 C 0.3272(5) 1.0253(4) 0.42203(12)
H1 H 0.4616 1.0672 0.4441
C3 C 0.1894(5) 0.9062(3) 0.46925(12)
H2 H 0.2695 0.8757 0.5108
C4 C 0.1782(5) 0.7797(3) 0.36129(11)
H3 H 0.0531 0.8409 0.3402
C5 C 0.3743(5) 0.9046(4) 0.36146(12)
H4 H 0.3887 0.974 0.3191
C6 C -0.0086(5) 1.0228(4) 0.48477(14)
H5 H -0.1418 0.9531 0.4787
H6 H -0.0031 1.0675 0.5311
C7 C 0.2210(5) 0.5971(4) 0.32668(13)
H7 H 0.1121 0.5087 0.3425
C8 C 0.5968(5) 0.6578(4) 0.33352(15)
H8 H 0.7353 0.5993 0.3434
H9 H 0.6025 0.7029 0.2872
loop_
_geom_bond_atom_site_label_1
_geom_bond_atom_site_label_2
_geom_bond_site_symmetry_1
_geom_bond_site_symmetry_2
Cl1 C7 1_555 1_555
O1 C3 1_555 1_555
O2 C1 1_555 1_555
O3 C7 1_555 1_555
O4 C5 1_555 1_555
O5 C1 1_555 1_555
C1 C6 1_555 1_555
C2 O2 1_555 1_555
H1 C2 1_555 1_555
C3 C2 1_555 1_555
H2 C3 1_555 1_555
C4 O1 1_555 1_555
H3 C4 1_555 1_555
C5 C2 1_555 1_555
H4 C5 1_555 1_555
C6 C3 1_555 1_555
H5 C6 1_555 1_555
H6 C6 1_555 1_555
C7 C4 1_555 1_555
H7 C7 1_555 1_555
C8 O3 1_555 1_555
H8 C8 1_555 1_555
H9 C8 1_555 1_555
O4 C8 1_555 1_555
C4 C5 1_555 1_555

#END
