
#######################################################################
#
#                 Cambridge Crystallographic Data Centre
#                                CCDC 
#
#######################################################################
#
# If this CIF has been generated from an entry in the Cambridge 
# Structural Database, then it will include bibliographic, chemical, 
# crystal, experimental, refinement or atomic coordinate data resulting 
# from the CCDC's data processing and validation procedures.
#
#######################################################################

data_UDEYEK
_chemical_name_common            
(7R)-3,6-anhydro-2-deoxy-7-C-bromo-5,7-O-methylidene-D-ido-heptono-1,4-lactone
_chemical_formula_moiety         'C8 H9 Br1 O5'
_chemical_name_systematic        
4-bromohexahydro-2H,7H-furo[2',3':4,5]furo[3,2-d][1,3]dioxin-7-one
_symmetry_cell_setting           orthorhombic
_symmetry_space_group_name_H-M   'P 21 21 21'
_symmetry_Int_Tables_number      19
_space_group_name_Hall           'P 2ac 2ab'
loop_
_symmetry_equiv_pos_site_id
_symmetry_equiv_pos_as_xyz
1 x,y,z
2 1/2-x,-y,1/2+z
3 -x,1/2+y,1/2-z
4 1/2+x,1/2-y,-z
_cell_length_a                   6.1304(2)
_cell_length_b                   7.3062(2)
_cell_length_c                   20.2224(6)
_cell_angle_alpha                90
_cell_angle_beta                 90
_cell_angle_gamma                90
_cell_volume                     905.76
_exptl_crystal_colour            colorless
_exptl_crystal_description       plate
_cell_formula_units_Z            4
loop_
_atom_site_label
_atom_site_type_symbol
_atom_site_fract_x
_atom_site_fract_y
_atom_site_fract_z
Br1 Br 0.68074(7) 0.85390(6) 0.76618(2)
O1 O 0.3632(5) 0.2075(4) 0.57353(14)
O2 O 0.6343(3) 0.7552(3) 0.56742(11)
O3 O 0.6879(4) 0.3240(3) 0.59565(12)
O4 O 1.0656(3) 0.6935(3) 0.61818(12)
O5 O 0.9255(4) 0.9719(3) 0.65683(13)
C1 C 0.4972(5) 0.3233(4) 0.56278(16)
C2 C 0.4879(5) 0.4786(4) 0.51536(17)
H1 H 0.355413 0.549044 0.521694
H2 H 0.49154 0.434211 0.470161
C3 C 0.6857(5) 0.5938(4) 0.52986(14)
H3 H 0.764826 0.624523 0.489237
C4 C 0.8248(5) 0.4739(4) 0.57589(16)
H4 H 0.958586 0.431683 0.55421
C5 C 0.8726(5) 0.5937(4) 0.63456(17)
H5 H 0.887587 0.523881 0.675692
C6 C 0.6777(5) 0.7199(4) 0.63517(14)
H6 H 0.552573 0.658345 0.65554
C7 C 0.7206(5) 0.9014(4) 0.66966(17)
H7 H 0.610673 0.990202 0.655237
C8 C 1.0963(5) 0.8413(5) 0.6616(2)
H8 H 1.234088 0.900373 0.651647
H9 H 1.103605 0.795703 0.706611
loop_
_geom_bond_atom_site_label_1
_geom_bond_atom_site_label_2
_geom_bond_site_symmetry_1
_geom_bond_site_symmetry_2
Br1 C7 1_555 1_555
O1 C1 1_555 1_555
O2 C3 1_555 1_555
O3 C1 1_555 1_555
O4 C5 1_555 1_555
O5 C7 1_555 1_555
C1 C2 1_555 1_555
C2 H1 1_555 1_555
H2 C2 1_555 1_555
C3 C2 1_555 1_555
H3 C3 1_555 1_555
C4 O3 1_555 1_555
H4 C4 1_555 1_555
C5 C4 1_555 1_555
H5 C5 1_555 1_555
C6 O2 1_555 1_555
H6 C6 1_555 1_555
C7 C6 1_555 1_555
H7 C7 1_555 1_555
C8 O4 1_555 1_555
H8 C8 1_555 1_555
H9 C8 1_555 1_555
O5 C8 1_555 1_555
C3 C4 1_555 1_555
C5 C6 1_555 1_555

#END
