
#######################################################################
#
#                 Cambridge Crystallographic Data Centre
#                                CCDC 
#
#######################################################################
#
# If this CIF has been generated from an entry in the Cambridge 
# Structural Database, then it will include bibliographic, chemical, 
# crystal, experimental, refinement or atomic coordinate data resulting 
# from the CCDC's data processing and validation procedures.
#
#######################################################################

data_UDEYIO
_chemical_name_common            
(7R)-3,6-anhydro-2-deoxy-7-C-iodo-5,7-O-methylidene-D-ido-heptono-1,4-lactone
_chemical_formula_moiety         'C8 H9 I1 O5'
_chemical_name_systematic        
4-iodohexahydro-2H,7H-furo[2',3':4,5]furo[3,2-d][1,3]dioxin-7-one
_symmetry_cell_setting           orthorhombic
_symmetry_space_group_name_H-M   'P 21 21 21'
_symmetry_Int_Tables_number      19
_space_group_name_Hall           'P 2ac 2ab'
loop_
_symmetry_equiv_pos_site_id
_symmetry_equiv_pos_as_xyz
1 x,y,z
2 1/2-x,-y,1/2+z
3 1/2+x,1/2-y,-z
4 -x,1/2+y,1/2-z
_cell_length_a                   6.1413(3)
_cell_length_b                   7.3100(3)
_cell_length_c                   21.1587(8)
_cell_angle_alpha                90
_cell_angle_beta                 90
_cell_angle_gamma                90
_cell_volume                     949.875
_exptl_crystal_colour            colorless
_exptl_crystal_description       prism
_cell_formula_units_Z            4
loop_
_atom_site_label
_atom_site_type_symbol
_atom_site_fract_x
_atom_site_fract_y
_atom_site_fract_z
I1 I 0.69384(9) 0.65856(7) 0.23362(2)
O1 O 0.3401(10) 1.2878(7) 0.4279(3)
C1 C 0.4766(11) 1.1742(9) 0.4391(3)
C2 C 0.4711(10) 1.0210(8) 0.4853(3)
H1 H 0.3391 0.9496 0.4804
H2 H 0.4775 1.0673 0.5283
O2 O 0.6168(7) 0.7471(6) 0.4333(2)
C3 C 0.6682(10) 0.9070(8) 0.4708(3)
H3 H 0.7468 0.8737 0.5094
C4 C 0.8067(11) 1.0291(8) 0.4281(3)
H4 H 0.9373 1.0735 0.4499
O3 O 0.6686(8) 1.1768(5) 0.4082(2)
C5 C 0.8632(9) 0.9104(8) 0.3718(3)
H5 H 0.8825 0.9815 0.3329
O4 O 1.0551(7) 0.8126(6) 0.3894(2)
O5 O 0.9209(7) 0.5337(6) 0.3523(2)
C6 C 1.0916(10) 0.6620(10) 0.3497(3)
H6 H 1.2265 0.6027 0.3619
H7 H 1.1078 0.7048 0.3066
C7 C 0.6685(9) 0.7837(7) 0.3688(3)
H8 H 0.5461 0.8444 0.3478
C8 C 0.7200(10) 0.6025(8) 0.3365(3)
H9 H 0.6084 0.5129 0.3482
loop_
_geom_bond_atom_site_label_1
_geom_bond_atom_site_label_2
_geom_bond_site_symmetry_1
_geom_bond_site_symmetry_2
I1 C8 1_555 1_555
O1 C1 1_555 1_555
C1 C2 1_555 1_555
C2 H1 1_555 1_555
H2 C2 1_555 1_555
O2 C3 1_555 1_555
C3 C2 1_555 1_555
H3 C3 1_555 1_555
C4 C3 1_555 1_555
H4 C4 1_555 1_555
O3 C1 1_555 1_555
C5 C4 1_555 1_555
H5 C5 1_555 1_555
O4 C5 1_555 1_555
O5 C6 1_555 1_555
C6 O4 1_555 1_555
H6 C6 1_555 1_555
H7 C6 1_555 1_555
C7 O2 1_555 1_555
H8 C7 1_555 1_555
C8 O5 1_555 1_555
H9 C8 1_555 1_555
C4 O3 1_555 1_555
C5 C7 1_555 1_555
C7 C8 1_555 1_555

#END
