
#######################################################################
#
#                 Cambridge Crystallographic Data Centre
#                                CCDC 
#
#######################################################################
#
# If this CIF has been generated from an entry in the Cambridge 
# Structural Database, then it will include bibliographic, chemical, 
# crystal, experimental, refinement or atomic coordinate data resulting 
# from the CCDC's data processing and validation procedures.
#
#######################################################################

data_UDICEQ
_chemical_formula_moiety         'C30 H30 Cl1 N1 O7'
_chemical_name_systematic        
'Dimethyl 2-(2-chlorophenyl)-4-(ethoxycarbonylmethyl)-3-(1-naphthylcarbamoyl)cyclopentane-1,1-dicarboxylate'
_symmetry_cell_setting           hexagonal
_symmetry_space_group_name_H-M   'P 65'
_symmetry_Int_Tables_number      170
_space_group_name_Hall           'P 65'
loop_
_symmetry_equiv_pos_site_id
_symmetry_equiv_pos_as_xyz
1 x,y,z
2 -y,x-y,2/3+z
3 -x+y,-x,1/3+z
4 -x,-y,1/2+z
5 y,-x+y,1/6+z
6 x-y,x,5/6+z
_cell_length_a                   15.3532(2)
_cell_length_b                   15.3532(2)
_cell_length_c                   20.8238(5)
_cell_angle_alpha                90
_cell_angle_beta                 90
_cell_angle_gamma                120
_cell_volume                     4250.97
_exptl_crystal_colour            colorless
_exptl_crystal_description       'hexagonal prism'
_cell_formula_units_Z            6
loop_
_atom_site_label
_atom_site_type_symbol
_atom_site_fract_x
_atom_site_fract_y
_atom_site_fract_z
Cl1 Cl 0.44953(4) -0.07521(4) 0.08259(5)
O1 O 0.16479(9) -0.07565(10) 0.14355(7)
O2 O 0.59623(11) 0.31020(11) 0.14506(11)
O3 O 0.61076(9) 0.17303(11) 0.15533(9)
O4 O 0.39847(12) 0.00833(11) 0.24696(8)
O5 O 0.52096(12) 0.15798(13) 0.27932(8)
N1 N 0.16611(10) -0.01991(9) 0.04363(7)
H1 H 0.1945 0.0309 0.0174
C1 C 0.46907(12) 0.02716(14) 0.03654(9)
C2 C 0.51428(16) 0.0396(2) -0.02335(11)
H2 H 0.5322 -0.0073 -0.0379
C3 C 0.53263(18) 0.1199(3) -0.06105(11)
H3 H 0.5627 0.1280 -0.1016
C4 C 0.50725(18) 0.1882(2) -0.03970(11)
H4 H 0.5208 0.2440 -0.0653
C5 C 0.46151(14) 0.17562(16) 0.01973(10)
H5 H 0.4442 0.2232 0.0336
C6 C 0.44062(11) 0.09450(12) 0.05918(8)
C7 C 0.38815(10) 0.08012(10) 0.12300(7)
H6 H 0.3659 0.0109 0.1379
C8 C 0.45317(11) 0.15445(11) 0.17810(8)
C9 C 0.39790(13) 0.21217(12) 0.19542(9)
H7 H 0.4085 0.2328 0.2406
H8 H 0.4208 0.2719 0.1683
C10 C 0.28842(12) 0.13623(12) 0.18258(8)
H9 H 0.2637 0.0831 0.2158
C11 C 0.29359(10) 0.09170(11) 0.11790(8)
H10 H 0.3035 0.1399 0.0832
C12 C 0.20191(10) -0.00875(12) 0.10329(8)
C13 C 0.56100(12) 0.22378(14) 0.15798(9)
C14 C 0.71305(17) 0.2290(2) 0.1325(2)
H11 H 0.7133 0.2488 0.0882
H12 H 0.7439 0.1873 0.1351
H13 H 0.7507 0.2886 0.1587
C15 C 0.45302(13) 0.09552(14) 0.23748(8)
C16 C 0.5262(3) 0.1143(3) 0.33947(11)
H14 H 0.4659 0.0957 0.3643
H15 H 0.5847 0.1629 0.3634
H16 H 0.5315 0.0550 0.3312
C17 C 0.2195 0.1816 0.1802
H17 H 0.1516 0.1287 0.1732
H18 H 0.2387 0.2270 0.1445
O6 O 0.2535 0.3263 0.2471
O7 O 0.1866 0.1730 0.2891
C18 C 0.2234 0.2377 0.2412
C19 C 0.1863 0.2157 0.3516
H21 H 0.1396 0.1631 0.3794
H22 H 0.1638 0.2635 0.3466
C22 C 0.2881 0.2668 0.3825
H25 H 0.2843 0.2936 0.4233
H26 H 0.3104 0.2190 0.3885
H27 H 0.3348 0.3204 0.3553
C23 C 0.08310(12) -0.11186(12) 0.02111(8)
C24 C -0.01230(14) -0.12916(18) 0.02894(10)
H31 H -0.0234 -0.0814 0.0500
C25 C -0.09414(15) -0.2185(2) 0.00543(12)
H32 H -0.1600 -0.2308 0.0116
C26 C -0.07925(17) -0.28669(19) -0.02574(12)
H33 H -0.1350 -0.3455 -0.0415
C27 C 0.01811(16) -0.27182(14) -0.03526(10)
C28 C 0.0373(2) -0.34118(15) -0.06870(12)
H34 H -0.0167 -0.3993 -0.0867
C29 C 0.1309(3) -0.3253(2) -0.07509(14)
H35 H 0.1417 -0.3726 -0.0970
C30 C 0.2124(2) -0.23935(19) -0.04968(13)
H36 H 0.2775 -0.2301 -0.0537
C31 C 0.19928(15) -0.16848(15) -0.01902(10)
H37 H 0.2554 -0.1097 -0.0035
C32 C 0.10156(12) -0.18282(12) -0.01043(9)
H19? H 0.1643 0.1439 0.1515
H20? H 0.2561 0.2500 0.1657
O8? O 0.1115 0.1145 0.2822
O9? O 0.2505 0.2719 0.2721
C20? C 0.1806 0.1762 0.2502
C21? C 0.2446 0.2999 0.3384
H23? H 0.1751 0.2731 0.3496
H24? H 0.2768 0.3719 0.3411
H28? H 0.2813 0.2878 0.4247
H29? H 0.2552 0.1947 0.3810
H30? H 0.3581 0.2947 0.3725
loop_
_geom_bond_atom_site_label_1
_geom_bond_atom_site_label_2
_geom_bond_site_symmetry_1
_geom_bond_site_symmetry_2
Cl1 C1 1_555 1_555
O1 C12 1_555 1_555
O2 C13 1_555 1_555
O3 C13 1_555 1_555
O4 C15 1_555 1_555
O5 C15 1_555 1_555
N1 H1 1_555 1_555
C1 C2 1_555 1_555
C2 H2 1_555 1_555
C3 C2 1_555 1_555
H3 C3 1_555 1_555
C4 C3 1_555 1_555
H4 C4 1_555 1_555
C5 C4 1_555 1_555
H5 C5 1_555 1_555
C6 C1 1_555 1_555
C7 C6 1_555 1_555
H6 C7 1_555 1_555
C8 C7 1_555 1_555
C9 C8 1_555 1_555
H7 C9 1_555 1_555
H8 C9 1_555 1_555
C10 C9 1_555 1_555
H9 C10 1_555 1_555
C11 C7 1_555 1_555
H10 C11 1_555 1_555
C12 N1 1_555 1_555
C13 C8 1_555 1_555
C14 O3 1_555 1_555
H11 C14 1_555 1_555
H12 C14 1_555 1_555
H13 C14 1_555 1_555
C15 C8 1_555 1_555
C16 O5 1_555 1_555
H14 C16 1_555 1_555
H15 C16 1_555 1_555
H16 C16 1_555 1_555
C17 C10 1_555 1_555
H17 C17 1_555 1_555
H18 C17 1_555 1_555
O6 C18 1_555 1_555
O7 C18 1_555 1_555
C18 C17 1_555 1_555
C19 O7 1_555 1_555
H21 C19 1_555 1_555
H22 C19 1_555 1_555
C22 C19 1_555 1_555
H25 C22 1_555 1_555
H26 C22 1_555 1_555
H27 C22 1_555 1_555
C23 N1 1_555 1_555
C24 C23 1_555 1_555
H31 C24 1_555 1_555
C25 C24 1_555 1_555
H32 C25 1_555 1_555
C26 C25 1_555 1_555
H33 C26 1_555 1_555
C27 C26 1_555 1_555
C28 C27 1_555 1_555
H34 C28 1_555 1_555
C29 C28 1_555 1_555
H35 C29 1_555 1_555
C30 C29 1_555 1_555
H36 C30 1_555 1_555
C31 C30 1_555 1_555
H37 C31 1_555 1_555
C32 C23 1_555 1_555
C5 C6 1_555 1_555
C10 C11 1_555 1_555
C11 C12 1_555 1_555
C27 C32 1_555 1_555
C31 C32 1_555 1_555

#END
