
#######################################################################
#
#                 Cambridge Crystallographic Data Centre
#                                CCDC 
#
#######################################################################
#
# If this CIF has been generated from an entry in the Cambridge 
# Structural Database, then it will include bibliographic, chemical, 
# crystal, experimental, refinement or atomic coordinate data resulting 
# from the CCDC's data processing and validation procedures.
#
#######################################################################

data_UDIJOJ
_chemical_name_common            N-(3,4-dimethoxybenzyl)phthalimide
_chemical_formula_moiety         'C17 H15 N1 O4'
_chemical_name_systematic        
2-((3,4-dimethoxyphenyl)methyl)-1H-isoindole-1,3(2H)-dione
_symmetry_cell_setting           monoclinic
_symmetry_space_group_name_H-M   'P 21/c'
_symmetry_Int_Tables_number      14
_space_group_name_Hall           '-P 2ybc'
loop_
_symmetry_equiv_pos_site_id
_symmetry_equiv_pos_as_xyz
1 x,y,z
2 -x,1/2+y,1/2-z
3 -x,-y,-z
4 x,1/2-y,1/2+z
_cell_length_a                   5.4520(2)
_cell_length_b                   26.2451(9)
_cell_length_c                   9.9566(5)
_cell_angle_alpha                90
_cell_angle_beta                 96.063(4)
_cell_angle_gamma                90
_cell_volume                     1416.7
_exptl_crystal_description       block
_cell_formula_units_Z            4
loop_
_atom_site_label
_atom_site_type_symbol
_atom_site_fract_x
_atom_site_fract_y
_atom_site_fract_z
O1 O 0.2801(3) 0.19006(5) 0.41042(16)
O2 O 0.6054(3) 0.18516(5) 0.24162(17)
O3 O 0.7304(3) 0.43812(6) 0.48216(17)
O4 O 0.0407(3) 0.42875(6) 0.18048(18)
N1 N 0.3662(3) 0.42289(6) 0.34758(19)
C1 C 0.3812(3) 0.32798(7) 0.36158(19)
C2 C 0.2820(3) 0.28286(7) 0.4079(2)
H1 H 0.1597 0.2846 0.4662
C3 C 0.5435(3) 0.23320(7) 0.2782(2)
C4 C 0.3624(3) 0.23590(7) 0.3688(2)
C5 C 0.5618(4) 0.32511(7) 0.2764(2)
H2 H 0.6311 0.3548 0.2462
C6 C 0.5779(4) 0.49497(7) 0.2984(2)
C7 C 0.5809(4) 0.45016(7) 0.3891(2)
C8 C 0.2302(4) 0.44571(7) 0.2366(2)
C9 C 0.3686(4) 0.49267(7) 0.2075(2)
C10 C 0.6429(4) 0.27772(8) 0.2343(2)
H3 H 0.7654 0.2762 0.1761
C11 C 0.2881(4) 0.37769(7) 0.4147(2)
H4 H 0.1092 0.3768 0.4058
H5 H 0.3443 0.3802 0.5102
C12 C 0.0983(4) 0.19047(8) 0.5030(2)
H6 H -0.0465 0.2078 0.4630
H7 H 0.1620 0.2078 0.5841
H8 H 0.0566 0.1561 0.5243
C13 C 0.7944(4) 0.18013(9) 0.1545(2)
H9 H 0.7481 0.1983 0.0721
H10 H 0.8171 0.1448 0.1346
H11 H 0.9456 0.1939 0.1979
C14 C 0.7444(4) 0.53463(8) 0.2971(3)
H12 H 0.8871 0.5357 0.3570
C15 C 0.3140(5) 0.53033(8) 0.1126(3)
H13 H 0.1730 0.5288 0.0514
C16 C 0.4790(5) 0.57064(8) 0.1125(3)
H14 H 0.4470 0.5969 0.0504
C17 C 0.6887(5) 0.57262(8) 0.2023(3)
H15 H 0.7955 0.6001 0.1993
loop_
_geom_bond_atom_site_label_1
_geom_bond_atom_site_label_2
_geom_bond_site_symmetry_1
_geom_bond_site_symmetry_2
O1 C4 1_555 1_555
O2 C3 1_555 1_555
O3 C7 1_555 1_555
O4 C8 1_555 1_555
N1 C7 1_555 1_555
C1 C2 1_555 1_555
C2 H1 1_555 1_555
C3 C4 1_555 1_555
C4 C2 1_555 1_555
C5 C1 1_555 1_555
H2 C5 1_555 1_555
C6 C7 1_555 1_555
C8 N1 1_555 1_555
C9 C6 1_555 1_555
C10 C3 1_555 1_555
H3 C10 1_555 1_555
C11 N1 1_555 1_555
H4 C11 1_555 1_555
H5 C11 1_555 1_555
C12 O1 1_555 1_555
H6 C12 1_555 1_555
H7 C12 1_555 1_555
H8 C12 1_555 1_555
C13 O2 1_555 1_555
H9 C13 1_555 1_555
H10 C13 1_555 1_555
H11 C13 1_555 1_555
C14 C6 1_555 1_555
H12 C14 1_555 1_555
C15 C9 1_555 1_555
H13 C15 1_555 1_555
C16 C15 1_555 1_555
H14 C16 1_555 1_555
C17 C14 1_555 1_555
H15 C17 1_555 1_555
C1 C11 1_555 1_555
C5 C10 1_555 1_555
C8 C9 1_555 1_555
C16 C17 1_555 1_555

#END
