
#######################################################################
#
#                 Cambridge Crystallographic Data Centre
#                                CCDC 
#
#######################################################################
#
# If this CIF has been generated from an entry in the Cambridge 
# Structural Database, then it will include bibliographic, chemical, 
# crystal, experimental, refinement or atomic coordinate data resulting 
# from the CCDC's data processing and validation procedures.
#
#######################################################################

data_UDIKEA
_chemical_formula_moiety         'C17 H20 F2 N2 O2'
_chemical_name_systematic        
4',4'-difluoro-1'-isopropyl-3,4-dihydro-2H,5'H-spiro[1,3-oxazino[3,2-a]indole-10,3'-pyrrolidin]-5'-one
_symmetry_cell_setting           triclinic
_symmetry_space_group_name_H-M   'P -1'
_symmetry_Int_Tables_number      2
_space_group_name_Hall           '-P 1'
loop_
_symmetry_equiv_pos_site_id
_symmetry_equiv_pos_as_xyz
1 x,y,z
2 -x,-y,-z
_cell_length_a                   8.5902(17)
_cell_length_b                   9.3135(17)
_cell_length_c                   11.049(2)
_cell_angle_alpha                102.174(3)
_cell_angle_beta                 110.0560(10)
_cell_angle_gamma                104.622(3)
_cell_volume                     759.231
_exptl_crystal_colour            colorless
_exptl_crystal_description       Prism
_chemical_melting_point          '176-177 deg.C'
_cell_formula_units_Z            2
loop_
_atom_site_label
_atom_site_type_symbol
_atom_site_fract_x
_atom_site_fract_y
_atom_site_fract_z
F1 F 0.38414(8) 0.72117(8) 0.77037(6)
F2 F 0.46778(8) 0.56160(7) 0.87365(6)
O1 O -0.02502(10) 0.70377(9) 0.88762(8)
O2 O 0.64043(9) 0.90867(8) 1.04010(7)
N1 N -0.01391(11) 0.59652(11) 0.67606(9)
N2 N 0.42535(11) 0.77436(10) 1.09822(8)
C1 C 0.38814(13) 0.67216(12) 0.87831(10)
C2 C 0.20671(12) 0.60524(11) 0.87994(9)
C3 C 0.10302(12) 0.43857(11) 0.78468(10)
C4 C 0.12632(13) 0.30007(12) 0.79633(11)
H1 H 0.2111 0.2986 0.8779
C5 C 0.02262(14) 0.16183(12) 0.68562(11)
H2 H 0.0372 0.0653 0.6910
C6 C -0.10185(14) 0.16625(13) 0.56776(11)
H3 H -0.1706 0.0718 0.4929
C7 C -0.12899(14) 0.30483(13) 0.55601(10)
H4 H -0.2166 0.3056 0.4756
C8 C -0.02366(13) 0.44229(12) 0.66592(10)
C9 C 0.08645(13) 0.69466(12) 0.81859(10)
H5 H 0.1591 0.8018 0.8270
C10 C -0.15216(15) 0.77042(14) 0.82386(12)
H6 H -0.0895 0.8751 0.8233
H7 H -0.2234 0.7839 0.8765
C11 C -0.27347(14) 0.66352(14) 0.67854(12)
H8 H -0.3574 0.7119 0.6338
H9 H -0.3429 0.5615 0.6793
C12 C -0.16254(14) 0.63745(14) 0.59885(12)
H10 H -0.2383 0.5519 0.5109
H11 H -0.1168 0.7342 0.5789
C13 C 0.26051(13) 0.63631(11) 1.03360(10)
H12 H 0.1679 0.6590 1.0600
H13 H 0.2813 0.5451 1.0595
C14 C 0.50286(12) 0.80431(11) 1.01514(10)
C15 C 0.50005(13) 0.87101(11) 1.24198(10)
H14 H 0.6212 0.9450 1.2659
C16 C 0.51844(15) 0.76846(13) 1.33303(10)
H15 H 0.4007 0.6979 1.3141
H16 H 0.5772 0.8353 1.4289
H17 H 0.5893 0.7063 1.3146
C17 C 0.38749(16) 0.96790(13) 1.26256(12)
H18 H 0.3761 1.0291 1.2000
H19 H 0.4440 1.0393 1.3568
H20 H 0.2697 0.8979 1.2441
loop_
_geom_bond_atom_site_label_1
_geom_bond_atom_site_label_2
_geom_bond_site_symmetry_1
_geom_bond_site_symmetry_2
F1 C1 1_555 1_555
F2 C1 1_555 1_555
O1 C9 1_555 1_555
O2 C14 1_555 1_555
N1 C8 1_555 1_555
N2 C13 1_555 1_555
C1 C2 1_555 1_555
C2 C3 1_555 1_555
C3 C4 1_555 1_555
C4 H1 1_555 1_555
C5 C4 1_555 1_555
H2 C5 1_555 1_555
C6 C5 1_555 1_555
H3 C6 1_555 1_555
C7 C6 1_555 1_555
H4 C7 1_555 1_555
C8 C3 1_555 1_555
C9 N1 1_555 1_555
H5 C9 1_555 1_555
C10 O1 1_555 1_555
H6 C10 1_555 1_555
H7 C10 1_555 1_555
C11 C10 1_555 1_555
H8 C11 1_555 1_555
H9 C11 1_555 1_555
C12 N1 1_555 1_555
H10 C12 1_555 1_555
H11 C12 1_555 1_555
C13 C2 1_555 1_555
H12 C13 1_555 1_555
H13 C13 1_555 1_555
C14 N2 1_555 1_555
C15 N2 1_555 1_555
H14 C15 1_555 1_555
C16 C15 1_555 1_555
H15 C16 1_555 1_555
H16 C16 1_555 1_555
H17 C16 1_555 1_555
C17 C15 1_555 1_555
H18 C17 1_555 1_555
H19 C17 1_555 1_555
H20 C17 1_555 1_555
C1 C14 1_555 1_555
C2 C9 1_555 1_555
C7 C8 1_555 1_555
C11 C12 1_555 1_555

#END
