
#######################################################################
#
#                 Cambridge Crystallographic Data Centre
#                                CCDC 
#
#######################################################################
#
# If this CIF has been generated from an entry in the Cambridge 
# Structural Database, then it will include bibliographic, chemical, 
# crystal, experimental, refinement or atomic coordinate data resulting 
# from the CCDC's data processing and validation procedures.
#
#######################################################################

data_UDINIE
_chemical_formula_moiety         'C23 H37 B20 N1'
_chemical_name_systematic        
\a,\a'-bis(2-Phenyl-1,2-carboran-1-yl)lutidine
_symmetry_cell_setting           monoclinic
_symmetry_space_group_name_H-M   'C 2/c'
_symmetry_Int_Tables_number      15
_space_group_name_Hall           '-C 2yn'
loop_
_symmetry_equiv_pos_site_id
_symmetry_equiv_pos_as_xyz
1 x,y,z
2 1/2+x,1/2+y,z
3 x,-y,1/2+z
4 1/2+x,1/2-y,1/2+z
5 -x,-y,-z
6 1/2-x,1/2-y,-z
7 -x,y,1/2-z
8 1/2-x,1/2+y,1/2-z
_cell_length_a                   33.910(2)
_cell_length_b                   7.764(1)
_cell_length_c                   27.005(2)
_cell_angle_alpha                90
_cell_angle_beta                 116.98(1)
_cell_angle_gamma                90
_cell_volume                     6336.01
_exptl_crystal_colour            colorless
_exptl_crystal_description       prism
_chemical_melting_point          504.7-506.2K
_cell_formula_units_Z            8
_exptl_crystal_recrystallization_method 'diethyl ether'
loop_
_atom_site_label
_atom_site_type_symbol
_atom_site_fract_x
_atom_site_fract_y
_atom_site_fract_z
C1 C 0.29955(10) 0.7082(4) 0.68447(13)
C2 C 0.35357(10) 0.7522(4) 0.72933(13)
B1 B 0.31454(12) 0.7365(5) 0.7538(2)
H1 H 0.31414(12) 0.6321(5) 0.7812(2)
B2 B 0.26504(14) 0.8274(5) 0.7017(2)
H2 H 0.23222(14) 0.7843(5) 0.6955(2)
B3 B 0.27491(14) 0.8855(5) 0.6449(2)
H3 H 0.24858(14) 0.8795(5) 0.6018(2)
B4 B 0.33061(13) 0.8323(5) 0.6627(2)
H4 H 0.34053(13) 0.7894(5) 0.6311(2)
B5 B 0.35568(14) 0.8995(5) 0.7770(2)
H5 H 0.38204(14) 0.9032(5) 0.8201(2)
B6 B 0.30022(15) 0.9507(6) 0.7599(2)
H6 H 0.29030(15) 0.9883(6) 0.7920(2)
B7 B 0.27597(15) 1.0444(6) 0.6922(2)
H7 H 0.25024(15) 1.1444(6) 0.6799(2)
B8 B 0.31665(15) 1.0475(5) 0.6682(2)
H8 H 0.31753(15) 1.1486(5) 0.6401(2)
B9 B 0.36576(15) 0.9586(5) 0.7204(2)
H9 H 0.39861(15) 1.0007(5) 0.7263(2)
B10 B 0.33170(15) 1.0897(6) 0.7391(2)
H10 H 0.34212(15) 1.2185(6) 0.7575(2)
C3 C 0.12182(11) 0.3172(4) 0.51148(14)
C4 C 0.07179(11) 0.2702(4) 0.45594(14)
B11 B 0.07538(13) 0.2965(6) 0.5217(2)
H11 H 0.06021(13) 0.4046(6) 0.5332(2)
B12 B 0.12729(14) 0.2072(6) 0.5690(2)
H12 H 0.14580(14) 0.2560(6) 0.6117(2)
B13 B 0.15432(15) 0.1377(5) 0.5302(2)
H13 H 0.19061(15) 0.1410(5) 0.5476(2)
B14 B 0.12001(13) 0.1841(5) 0.4594(2)
H14 H 0.13367(13) 0.2203(5) 0.4309(2)
B15 B 0.04349(15) 0.1298(6) 0.4763(2)
H15 H 0.00718(15) 0.1282(6) 0.4586(2)
B16 B 0.0779(2) 0.0853(6) 0.5469(2)
H16 H 0.0639(2) 0.0538(6) 0.5755(2)
B17 B 0.1271(2) -0.0137(6) 0.5531(2)
H17 H 0.1453(2) -0.1099(6) 0.5855(2)
B18 B 0.1226(2) -0.0271(6) 0.4844(2)
H18 H 0.1380(2) -0.1322(6) 0.4720(2)
B19 B 0.07088(15) 0.0599(5) 0.4376(2)
H19 H 0.05258(15) 0.0125(5) 0.3946(2)
B20 B 0.0753(2) -0.0614(6) 0.4955(2)
H20 H 0.0599(2) -0.1892(6) 0.4906(2)
C5 C 0.38754(10) 0.6093(4) 0.74562(15)
C6 C 0.40633(12) 0.5603(5) 0.7116(2)
H21 H 0.39761(12) 0.6150(5) 0.6776(2)
C7 C 0.43783(14) 0.4314(6) 0.7275(2)
H22 H 0.44986(14) 0.3996(6) 0.7040(2)
C8 C 0.45145(13) 0.3500(5) 0.7776(2)
H23 H 0.47263(13) 0.2632(5) 0.7881(2)
C9 C 0.43364(13) 0.3976(5) 0.8122(2)
H24 H 0.44293(13) 0.3434(5) 0.8464(2)
C10 C 0.40176(12) 0.5264(5) 0.7963(2)
H25 H 0.38981(12) 0.5573(5) 0.8200(2)
C11 C 0.28839(11) 0.5227(4) 0.66332(14)
H26 H 0.31573(11) 0.4610(4) 0.67254(14)
H27 H 0.27369(11) 0.4666(4) 0.68253(14)
C12 C 0.25923(11) 0.5100(4) 0.60160(14)
C13 C 0.27651(12) 0.4995(5) 0.5641(2)
H28 H 0.30695(12) 0.4935(5) 0.5766(2)
C14 C 0.24820(15) 0.4983(5) 0.5084(2)
H29 H 0.25919(15) 0.4936(5) 0.4825(2)
C15 C 0.04782(11) 0.4085(5) 0.41332(15)
C16 C 0.01283(13) 0.4973(5) 0.4147(2)
H30 H 0.00474(13) 0.4729(5) 0.4426(2)
C17 C -0.01013(14) 0.6207(6) 0.3757(2)
H31 H -0.03365(14) 0.6779(6) 0.3772(2)
C18 C 0.00138(15) 0.6600(6) 0.3346(2)
H32 H -0.01372(15) 0.7454(6) 0.3087(2)
C19 C 0.03555(15) 0.5713(6) 0.3319(2)
H33 H 0.04314(15) 0.5958(6) 0.3036(2)
C20 C 0.05874(12) 0.4466(5) 0.3709(2)
H34 H 0.08177(12) 0.3879(5) 0.3686(2)
C21 C 0.13938(11) 0.5004(4) 0.5154(2)
H35 H 0.12283(11) 0.5575(4) 0.4799(2)
H36 H 0.13436(11) 0.5635(4) 0.5431(2)
C22 C 0.18821(11) 0.5072(4) 0.5307(2)
C23 C 0.20318(14) 0.5038(5) 0.4911(2)
H37 H 0.18335(14) 0.5054(5) 0.4535(2)
N1 N 0.21558(9) 0.5124(3) 0.58555(12)
loop_
_geom_bond_atom_site_label_1
_geom_bond_atom_site_label_2
_geom_bond_site_symmetry_1
_geom_bond_site_symmetry_2
C1 C2 1_555 1_555
C2 B1 1_555 1_555
B1 C1 1_555 1_555
H1 B1 1_555 1_555
B2 C1 1_555 1_555
H2 B2 1_555 1_555
B3 C1 1_555 1_555
H3 B3 1_555 1_555
B4 C1 1_555 1_555
H4 B4 1_555 1_555
B5 C2 1_555 1_555
H5 B5 1_555 1_555
B6 B1 1_555 1_555
H6 B6 1_555 1_555
B7 B2 1_555 1_555
H7 B7 1_555 1_555
B8 B3 1_555 1_555
H8 B8 1_555 1_555
B9 C2 1_555 1_555
H9 B9 1_555 1_555
B10 B5 1_555 1_555
H10 B10 1_555 1_555
C3 C4 1_555 1_555
C4 B11 1_555 1_555
B11 C3 1_555 1_555
H11 B11 1_555 1_555
B12 C3 1_555 1_555
H12 B12 1_555 1_555
B13 C3 1_555 1_555
H13 B13 1_555 1_555
B14 C3 1_555 1_555
H14 B14 1_555 1_555
B15 C4 1_555 1_555
H15 B15 1_555 1_555
B16 B11 1_555 1_555
H16 B16 1_555 1_555
B17 B12 1_555 1_555
H17 B17 1_555 1_555
B18 B13 1_555 1_555
H18 B18 1_555 1_555
B19 C4 1_555 1_555
H19 B19 1_555 1_555
B20 B15 1_555 1_555
H20 B20 1_555 1_555
C5 C2 1_555 1_555
C6 C5 1_555 1_555
H21 C6 1_555 1_555
C7 C6 1_555 1_555
H22 C7 1_555 1_555
C8 C7 1_555 1_555
H23 C8 1_555 1_555
C9 C8 1_555 1_555
H24 C9 1_555 1_555
C10 C5 1_555 1_555
H25 C10 1_555 1_555
C11 C1 1_555 1_555
H26 C11 1_555 1_555
H27 C11 1_555 1_555
C12 C11 1_555 1_555
C13 C12 1_555 1_555
H28 C13 1_555 1_555
C14 C13 1_555 1_555
H29 C14 1_555 1_555
C15 C4 1_555 1_555
C16 C15 1_555 1_555
H30 C16 1_555 1_555
C17 C16 1_555 1_555
H31 C17 1_555 1_555
C18 C17 1_555 1_555
H32 C18 1_555 1_555
C19 C18 1_555 1_555
H33 C19 1_555 1_555
C20 C15 1_555 1_555
H34 C20 1_555 1_555
C21 C3 1_555 1_555
H35 C21 1_555 1_555
H36 C21 1_555 1_555
C22 C21 1_555 1_555
C23 C14 1_555 1_555
H37 C23 1_555 1_555
N1 C12 1_555 1_555
C2 B4 1_555 1_555
B1 B5 1_555 1_555
B1 B2 1_555 1_555
B2 B6 1_555 1_555
B2 B3 1_555 1_555
B3 B7 1_555 1_555
B3 B4 1_555 1_555
B4 B9 1_555 1_555
B4 B8 1_555 1_555
B5 B9 1_555 1_555
B5 B6 1_555 1_555
B6 B10 1_555 1_555
B6 B7 1_555 1_555
B7 B8 1_555 1_555
B7 B10 1_555 1_555
B8 B9 1_555 1_555
B8 B10 1_555 1_555
B9 B10 1_555 1_555
C4 B14 1_555 1_555
B11 B15 1_555 1_555
B11 B12 1_555 1_555
B12 B16 1_555 1_555
B12 B13 1_555 1_555
B13 B17 1_555 1_555
B13 B14 1_555 1_555
B14 B19 1_555 1_555
B14 B18 1_555 1_555
B15 B19 1_555 1_555
B15 B16 1_555 1_555
B16 B20 1_555 1_555
B16 B17 1_555 1_555
B17 B18 1_555 1_555
B17 B20 1_555 1_555
B18 B19 1_555 1_555
B18 B20 1_555 1_555
B19 B20 1_555 1_555
C9 C10 1_555 1_555
C19 C20 1_555 1_555
C22 C23 1_555 1_555
C22 N1 1_555 1_555

#END
