
#######################################################################
#
#                 Cambridge Crystallographic Data Centre
#                                CCDC 
#
#######################################################################
#
# If this CIF has been generated from an entry in the Cambridge 
# Structural Database, then it will include bibliographic, chemical, 
# crystal, experimental, refinement or atomic coordinate data resulting 
# from the CCDC's data processing and validation procedures.
#
#######################################################################

data_UDIXAH
_chemical_name_common            
(1S,4R,5R,8S,9S,10R,13S,14S,16S,17S)-11-ethyl-16-methoxy-13-(methoxymethyl)-11-azahexacyclo(7.7.2.1$2,5!.0$1,10!.0$3,8!.0$13,17!)nonadecane-4,5,8,14,17-pentaol
_chemical_formula_moiety         'C24 H39 N1 O8'
_chemical_name_systematic        'Circinasine F'
_symmetry_cell_setting           orthorhombic
_symmetry_space_group_name_H-M   'C 2 2 21'
_symmetry_Int_Tables_number      20
_space_group_name_Hall           'C 2n 2'
loop_
_symmetry_equiv_pos_site_id
_symmetry_equiv_pos_as_xyz
1 x,y,z
2 -x,-y,1/2+z
3 -x,y,1/2-z
4 x,-y,-z
5 1/2+x,1/2+y,z
6 1/2-x,1/2-y,1/2+z
7 1/2-x,1/2+y,1/2-z
8 1/2+x,1/2-y,-z
_cell_length_a                   13.491(3)
_cell_length_b                   15.501(3)
_cell_length_c                   21.975(4)
_cell_angle_alpha                90
_cell_angle_beta                 90
_cell_angle_gamma                90
_cell_volume                     4595.5
_exptl_crystal_colour            colorless
_exptl_crystal_description       Sheet
_chemical_melting_point          '239-240 deg.C'
_cell_formula_units_Z            8
_exptl_crystal_recrystallization_method acetone
loop_
_atom_site_label
_atom_site_type_symbol
_atom_site_fract_x
_atom_site_fract_y
_atom_site_fract_z
N1 N 0.2422(6) 0.1659(6) 0.9187(3)
O1 O 0.0228(6) 0.2212(4) 0.8400(3)
O2 O 0.0424(8) 0.0756(5) 1.0346(4)
H1 H -0.0144 0.0651 1.0457
O3 O 0.0736(6) 0.3469(4) 1.0156(3)
H2 H 0.0604 0.3279 1.0494
O4 O 0.3577(8) 0.4687(7) 0.9258(5)
H3 H 0.4102 0.4452 0.9348
O5 O 0.1040(7) 0.5130(5) 0.7525(3)
H4 H 0.0441 0.5072 0.7573
O6 O 0.2257(9) 0.5935(6) 0.8621(4)
H5 H 0.2641 0.5927 0.8332
O7 O 0.3077(10) 0.5244(6) 0.7573(4)
O8 O 0.0799(7) 0.2403(6) 1.1147(3)
C1 C 0.0321(6) 0.2337(5) 0.9056(4)
H6 H -0.0248 0.2680 0.9191
C2 C 0.0259(7) 0.1473(5) 0.9359(4)
H7 H 0.0748 0.1087 0.9185
H8 H -0.0392 0.1226 0.9293
C3 C 0.0447(7) 0.1576(6) 1.0042(4)
H9 H -0.0066 0.1950 1.0215
C4 C 0.1496(7) 0.2003(5) 1.0149(3)
C5 C 0.1490(7) 0.2932(7) 0.9874(4)
C6 C 0.2522(7) 0.3313(7) 0.9946(4)
H10 H 0.2907 0.2994 1.0243
H11 H 0.2492 0.3914 1.0065
C7 C 0.2977(6) 0.3204(7) 0.9264(4)
H12 H 0.3658 0.2983 0.9277
C8 C 0.2928(9) 0.4063(8) 0.8948(5)
C9 C 0.1843(8) 0.4444(6) 0.9030(4)
H13 H 0.1758 0.4641 0.9450
C10 C 0.1045(6) 0.3812(6) 0.8878(4)
H14 H 0.0416 0.4024 0.9043
C11 C 0.1279(6) 0.2883(5) 0.9171(3)
C12 C 0.1001(10) 0.3854(7) 0.8182(4)
H15 H 0.1314 0.3351 0.8003
H16 H 0.0320 0.3884 0.8043
C13 C 0.1565(9) 0.4677(7) 0.8008(4)
C14 C 0.1590(8) 0.5204(5) 0.8581(4)
H17 H 0.0916 0.5405 0.8668
C15 C 0.3233(10) 0.3986(8) 0.8248(6)
H18 H 0.3912 0.4184 0.8208
H19 H 0.3223 0.3380 0.8139
C16 C 0.2583(8) 0.4490(6) 0.7773(4)
H20 H 0.2506 0.4115 0.7417
C17 C 0.2255(6) 0.2529(6) 0.8990(4)
H21 H 0.2308 0.2550 0.8546
C18 C 0.1661(11) 0.2031(7) 1.0843(4)
H22 H 0.1775 0.1451 1.0994
H23 H 0.2244 0.2375 1.0933
C19 C 0.2322(10) 0.1509(7) 0.9860(4)
H24 H 0.2217 0.0899 0.9931
H25 H 0.2940 0.1669 1.0057
C20 C 0.3390(13) 0.1250(11) 0.8945(7)
H26 H 0.3409 0.1321 0.8507
H27 H 0.3947 0.1567 0.9113
C21 C 0.3530(12) 0.0294(10) 0.9092(7)
H28 H 0.4138 0.0093 0.8914
H29 H 0.2985 -0.0030 0.8928
H30 H 0.3554 0.0216 0.9525
C22 C -0.0791(9) 0.2160(16) 0.8228(6)
H31 H -0.0839 0.2091 0.7795
H32 H -0.1126 0.2679 0.8348
H33 H -0.1093 0.1674 0.8426
C23 C 0.3704(15) 0.5231(17) 0.7112(9)
H34 H 0.3943 0.5805 0.7038
H35 H 0.3372 0.5020 0.6756
H36 H 0.4252 0.4860 0.7209
C24 C 0.0850(14) 0.2431(8) 1.1772(5)
H37 H 0.0248 0.2673 1.1931
H38 H 0.1402 0.2781 1.1893
H39 H 0.0935 0.1857 1.1928
loop_
_geom_bond_atom_site_label_1
_geom_bond_atom_site_label_2
_geom_bond_site_symmetry_1
_geom_bond_site_symmetry_2
N1 C17 1_555 1_555
O1 C1 1_555 1_555
O2 H1 1_555 1_555
O3 H2 1_555 1_555
O4 H3 1_555 1_555
O5 H4 1_555 1_555
O6 H5 1_555 1_555
O7 C16 1_555 1_555
O8 C18 1_555 1_555
C1 H6 1_555 1_555
C2 C1 1_555 1_555
H7 C2 1_555 1_555
H8 C2 1_555 1_555
C3 O2 1_555 1_555
H9 C3 1_555 1_555
C4 C3 1_555 1_555
C5 O3 1_555 1_555
C6 C5 1_555 1_555
H10 C6 1_555 1_555
H11 C6 1_555 1_555
C7 C6 1_555 1_555
H12 C7 1_555 1_555
C8 O4 1_555 1_555
C9 C8 1_555 1_555
H13 C9 1_555 1_555
C10 C9 1_555 1_555
H14 C10 1_555 1_555
C11 C1 1_555 1_555
C12 C10 1_555 1_555
H15 C12 1_555 1_555
H16 C12 1_555 1_555
C13 O5 1_555 1_555
C14 O6 1_555 1_555
H17 C14 1_555 1_555
C15 C8 1_555 1_555
H18 C15 1_555 1_555
H19 C15 1_555 1_555
C16 C13 1_555 1_555
H20 C16 1_555 1_555
C17 C7 1_555 1_555
H21 C17 1_555 1_555
C18 C4 1_555 1_555
H22 C18 1_555 1_555
H23 C18 1_555 1_555
C19 N1 1_555 1_555
H24 C19 1_555 1_555
H25 C19 1_555 1_555
C20 N1 1_555 1_555
H26 C20 1_555 1_555
H27 C20 1_555 1_555
C21 C20 1_555 1_555
H28 C21 1_555 1_555
H29 C21 1_555 1_555
H30 C21 1_555 1_555
C22 O1 1_555 1_555
H31 C22 1_555 1_555
H32 C22 1_555 1_555
H33 C22 1_555 1_555
C23 O7 1_555 1_555
H34 C23 1_555 1_555
H35 C23 1_555 1_555
H36 C23 1_555 1_555
C24 O8 1_555 1_555
H37 C24 1_555 1_555
H38 C24 1_555 1_555
H39 C24 1_555 1_555
C2 C3 1_555 1_555
C4 C5 1_555 1_555
C4 C19 1_555 1_555
C5 C11 1_555 1_555
C7 C8 1_555 1_555
C9 C14 1_555 1_555
C10 C11 1_555 1_555
C11 C17 1_555 1_555
C12 C13 1_555 1_555
C13 C14 1_555 1_555
C15 C16 1_555 1_555

#END
