
#######################################################################
#
#                 Cambridge Crystallographic Data Centre
#                                CCDC 
#
#######################################################################
#
# If this CIF has been generated from an entry in the Cambridge 
# Structural Database, then it will include bibliographic, chemical, 
# crystal, experimental, refinement or atomic coordinate data resulting 
# from the CCDC's data processing and validation procedures.
#
#######################################################################

data_UDIZAL
_chemical_formula_moiety         'C15 H8 I1 O2 1+,C1 F3 O3 S1 1-'
_chemical_name_systematic        
'6-oxo-6H-[1]benzopyrano[3,4-b][1]benziodol-7-ium trifluoromethanesulfonate'
_symmetry_cell_setting           monoclinic
_symmetry_space_group_name_H-M   'P 21/c'
_symmetry_Int_Tables_number      14
_space_group_name_Hall           '-P 2ybc'
loop_
_symmetry_equiv_pos_site_id
_symmetry_equiv_pos_as_xyz
1 x,y,z
2 -x,1/2+y,1/2-z
3 -x,-y,-z
4 x,1/2-y,1/2+z
_cell_length_a                   15.4730(5)
_cell_length_b                   10.6138(3)
_cell_length_c                   9.7310(4)
_cell_angle_alpha                90
_cell_angle_beta                 94.197(3)
_cell_angle_gamma                90
_cell_volume                     1593.81
_exptl_crystal_colour            colorless
_exptl_crystal_description       block
_cell_formula_units_Z            4
loop_
_atom_site_label
_atom_site_type_symbol
_atom_site_fract_x
_atom_site_fract_y
_atom_site_fract_z
S1 S 0.66848(10) 0.09653(13) 0.13987(18)
F1 F 0.5108(3) 0.1877(4) 0.1158(5)
F2 F 0.5734(3) 0.1981(5) 0.3206(5)
F3 F 0.5259(3) 0.0203(5) 0.2387(6)
O1 O 0.7192(3) 0.0421(4) 0.2551(6)
O2 O 0.6983(3) 0.2216(4) 0.1039(5)
O3 O 0.6483(3) 0.0161(4) 0.0222(6)
C1 C 0.5646(4) 0.1270(7) 0.2070(8)
O4 O 0.9269(3) 0.5572(4) 0.6151(5)
O5 O 0.9136(3) 0.3523(4) 0.5701(5)
C2 C 0.8363(4) 0.4957(6) 0.4215(7)
C3 C 0.7426(4) 0.6220(6) 0.2717(7)
C4 C 0.7195(4) 0.5082(6) 0.2034(7)
C5 C 0.6193(4) 0.6057(6) 0.0437(7)
H1 H 0.578289 0.602426 -0.033719
C6 C 0.6377(4) 0.7201(6) 0.1083(8)
H2 H 0.608581 0.794142 0.075153
C7 C 0.8095(4) 0.6137(6) 0.3875(7)
C8 C 0.6975(4) 0.7278(6) 0.2201(7)
H3 H 0.708456 0.807198 0.263053
C9 C 0.6602(4) 0.4964(6) 0.0909(7)
H4 H 0.648044 0.417260 0.048092
C10 C 0.9558(4) 0.7699(6) 0.6616(7)
H5 H 0.993025 0.743774 0.738278
C11 C 0.8940(4) 0.4594(6) 0.5375(8)
C12 C 0.8450(4) 0.8455(6) 0.4383(7)
H6 H 0.807187 0.873217 0.362974
C13 C 0.9461(4) 0.8956(7) 0.6294(8)
H7 H 0.977026 0.957086 0.684217
C14 C 0.8522(4) 0.7157(6) 0.4662(7)
C15 C 0.9098(4) 0.6821(6) 0.5791(7)
C16 C 0.8913(4) 0.9332(6) 0.5175(8)
H8 H 0.885860 1.020120 0.495475
I1 I 0.78366(2) 0.35323(3) 0.29811(4)
loop_
_geom_bond_atom_site_label_1
_geom_bond_atom_site_label_2
_geom_bond_site_symmetry_1
_geom_bond_site_symmetry_2
S1 O1 1_555 1_555
F1 C1 1_555 1_555
F2 C1 1_555 1_555
F3 C1 1_555 1_555
O2 S1 1_555 1_555
O3 S1 1_555 1_555
C1 S1 1_555 1_555
O4 C11 1_555 1_555
O5 C11 1_555 1_555
C2 C7 1_555 1_555
C3 C4 1_555 1_555
C4 C9 1_555 1_555
C5 H1 1_555 1_555
C6 C5 1_555 1_555
H2 C6 1_555 1_555
C7 C3 1_555 1_555
C8 C3 1_555 1_555
H3 C8 1_555 1_555
C9 C5 1_555 1_555
H4 C9 1_555 1_555
C10 H5 1_555 1_555
C11 C2 1_555 1_555
C12 H6 1_555 1_555
C13 C10 1_555 1_555
H7 C13 1_555 1_555
C14 C7 1_555 1_555
C15 O4 1_555 1_555
C16 C12 1_555 1_555
H8 C16 1_555 1_555
I1 C2 1_555 1_555
C4 I1 1_555 1_555
C6 C8 1_555 1_555
C10 C15 1_555 1_555
C12 C14 1_555 1_555
C13 C16 1_555 1_555
C14 C15 1_555 1_555

#END
