
#######################################################################
#
#                 Cambridge Crystallographic Data Centre
#                                CCDC 
#
#######################################################################
#
# If this CIF has been generated from an entry in the Cambridge 
# Structural Database, then it will include bibliographic, chemical, 
# crystal, experimental, refinement or atomic coordinate data resulting 
# from the CCDC's data processing and validation procedures.
#
#######################################################################

data_UDOGAW
_chemical_compound_source        'seeds of Xylocarpus granatum'
_chemical_name_common            'Granaxylocarpin D dihydrate'
_chemical_formula_moiety         'C35 H44 O15,2(H2 O1)'
_chemical_name_systematic        
'Methyl hydroxy(5,6a,11,12-tetrakis(acetyloxy)-1-furan-3-yl-4b,11a-dihydroxy-8,9a-dimethyl-3-oxohexadecahydro-6,8-methanoindeno[5,4-f]isochromen-9-yl)acetate dihydrate'
_chemical_properties_biological  
'Inactive against both P-388 (murine leukemia) and A-549 (human lung carcinoma) cell lines'
_symmetry_cell_setting           monoclinic
_symmetry_space_group_name_H-M   'P 21'
_symmetry_Int_Tables_number      4
_space_group_name_Hall           'P 2yb'
loop_
_symmetry_equiv_pos_site_id
_symmetry_equiv_pos_as_xyz
1 x,y,z
2 -x,1/2+y,-z
_cell_length_a                   10.8338(13)
_cell_length_b                   12.2421(15)
_cell_length_c                   14.0333(16)
_cell_angle_alpha                90
_cell_angle_beta                 96.445(2)
_cell_angle_gamma                90
_cell_volume                     1849.45
_exptl_crystal_colour            colorless
_exptl_crystal_description       prismatic
_chemical_melting_point          '221-222 deg.C'
_cell_formula_units_Z            2
_exptl_crystal_recrystallization_method methanol
loop_
_atom_site_label
_atom_site_type_symbol
_atom_site_fract_x
_atom_site_fract_y
_atom_site_fract_z
O1 O 0.4466(6) 1.0343(6) 0.1315(4)
O2 O 0.3132(5) 0.9172(4) 0.0629(3)
O3 O 0.0037(6) 0.7974(5) -0.1424(4)
O4 O 0.2442(4) 0.6778(3) 0.5063(2)
O5 O 0.2315(6) 0.8091(4) 0.6134(3)
O6 O -0.0527(3) 0.8837(3) 0.2855(2)
O7 O -0.1278(9) 1.0367(6) 0.3353(4)
O8 O -0.1551(7) 0.5181(4) 0.3788(4)
O9 O -0.3203(4) 0.5798(6) 0.2256(4)
O10 O -0.1646(3) 0.6171(4) 0.1405(3)
O11 O 0.3768(3) 0.7544(3) 0.3757(2)
O12 O 0.3342(4) 0.5352(4) 0.1408(3)
O13 O 0.2432(7) 0.4119(4) 0.0464(5)
O14 O 0.2586(4) 0.9474(3) 0.3144(3)
O15 O 0.1264(6) 1.0154(5) 0.1900(5)
C1 C 0.1356(5) 0.7098(4) 0.4433(3)
C2 C 0.1338(5) 0.8269(3) 0.3974(3)
C3 C -0.0090(5) 0.8464(4) 0.3809(3)
C4 C -0.0680(5) 0.7380(4) 0.3993(3)
C5 C -0.0242(5) 0.6571(4) 0.3221(3)
H1 H -0.0233 0.6988 0.2626
C6 C -0.1074(6) 0.5582(5) 0.2985(5)
C7 C -0.2124(6) 0.5867(5) 0.2191(5)
C8 C 0.2897(4) 0.7512(4) 0.2916(3)
C9 C 0.2125(5) 0.6438(4) 0.2843(3)
C10 C 0.1157(5) 0.6293(4) 0.3591(3)
C11 C 0.1516(4) 0.6223(4) 0.1816(3)
H2 H 0.1081 0.5529 0.1801
H3 H 0.0906 0.6789 0.1638
C12 C 0.2442(5) 0.6198(5) 0.1088(3)
H4 H 0.2026 0.6023 0.0450
C13 C 0.3176(5) 0.7237(5) 0.1057(4)
C14 C 0.3747(5) 0.7541(5) 0.2077(4)
C15 C 0.4508(5) 0.8594(6) 0.2048(4)
H5 H 0.4570 0.8927 0.2678
H6 H 0.5343 0.8397 0.1924
C16 C 0.4024(7) 0.9435(7) 0.1324(5)
C17 C 0.2361(5) 0.8204(5) 0.0663(4)
H7 H 0.1759 0.8348 0.1119
C18 C 0.4234(6) 0.7041(8) 0.0406(5)
H8 H 0.4889 0.6626 0.0753
H9 H 0.4554 0.7731 0.0221
H10 H 0.3908 0.6645 -0.0157
C19 C 0.1336(7) 0.5110(4) 0.3964(4)
H11 H 0.2130 0.5045 0.4339
H12 H 0.1298 0.4616 0.3430
H13 H 0.0691 0.4932 0.4354
C20 C 0.1653(5) 0.8084(5) -0.0305(4)
C21 C 0.0440(7) 0.8103(8) -0.0460(5)
H14 H -0.0083 0.8192 0.0016
C22 C 0.2059(7) 0.7990(7) -0.1229(5)
H15 H 0.2881 0.7988 -0.1361
C23 C 0.1087(9) 0.7906(6) -0.1859(5)
H16 H 0.1111 0.7813 -0.2514
C24 C 0.2815(6) 0.7300(5) 0.5858(4)
C25 C 0.3925(8) 0.6767(7) 0.6390(5)
H17 H 0.4663 0.7018 0.6137
H18 H 0.3858 0.5989 0.6315
H19 H 0.3968 0.6950 0.7057
C26 C -0.1183(7) 0.9767(6) 0.2730(4)
C27 C -0.1684(8) 0.9930(7) 0.1740(5)
H20 H -0.2557 0.9769 0.1667
H21 H -0.1269 0.9455 0.1335
H22 H -0.1560 1.0676 0.1561
C28 C -0.2044(6) 0.7506(6) 0.4063(5)
H23 H -0.2169 0.8047 0.4538
H24 H -0.2381 0.6821 0.4242
H25 H -0.2455 0.7732 0.3453
C29 C 0.0161(6) 0.7056(5) 0.4894(4)
H26 H 0.0144 0.7583 0.5408
H27 H -0.0020 0.6331 0.5120
C30 C 0.1981(5) 0.8419(4) 0.3053(3)
H28 H 0.1346 0.8433 0.2499
C31 C -0.2467(7) 0.6463(8) 0.0570(6)
H29 H -0.3234 0.6070 0.0568
H30 H -0.2087 0.6281 0.0004
H31 H -0.2629 0.7234 0.0577
C32 C 0.3256(6) 0.4361(5) 0.1051(4)
C33 C 0.4249(8) 0.3647(7) 0.1500(6)
H32 H 0.3972 0.2902 0.1466
H33 H 0.4451 0.3853 0.2159
H34 H 0.4972 0.3721 0.1168
C34 C 0.2037(8) 1.0306(6) 0.2615(8)
C35 C 0.2590(12) 1.1375(7) 0.2990(11)
H35 H 0.2690 1.1853 0.2462
H36 H 0.3385 1.1243 0.3347
H37 H 0.2047 1.1710 0.3401
H38 H 0.151(4) 0.866(4) 0.456(2)
H39 H -0.042(4) 0.895(3) 0.425(3)
H40 H -0.068(4) 0.500(3) 0.267(3)
H41 H -0.219(6) 0.482(7) 0.361(3)
H42 H 0.266(5) 0.583(3) 0.297(4)
H43 H 0.421(6) 0.699(4) 0.388(5)
H44 H 0.441(3) 0.704(3) 0.229(3)
O16 O 0.5194(5) 0.5668(5) 0.3842(4)
H45 H 0.528(5) 0.515(3) 0.431(3)
H46 H 0.584(6) 0.572(9) 0.344(5)
O17 O 0.4788(12) 0.4130(11) 0.5272(8)
H47 H 0.469(4) 0.369(3) 0.478(2)
H48 H 0.555(8) 0.443(18) 0.523(12)
loop_
_geom_bond_atom_site_label_1
_geom_bond_atom_site_label_2
_geom_bond_site_symmetry_1
_geom_bond_site_symmetry_2
O1 C16 1_555 1_555
O2 C16 1_555 1_555
O3 C21 1_555 1_555
O4 C1 1_555 1_555
O5 C24 1_555 1_555
O6 C3 1_555 1_555
O7 C26 1_555 1_555
O8 C6 1_555 1_555
O9 C7 1_555 1_555
O10 C7 1_555 1_555
O11 C8 1_555 1_555
O12 C12 1_555 1_555
O13 C32 1_555 1_555
O14 C30 1_555 1_555
O15 C34 1_555 1_555
O16 H45 1_555 1_555
O17 H47 1_555 1_555
C1 C2 1_555 1_555
C2 C3 1_555 1_555
C3 C4 1_555 1_555
C4 C5 1_555 1_555
C5 H1 1_555 1_555
C6 C5 1_555 1_555
C7 C6 1_555 1_555
C8 C9 1_555 1_555
C9 C10 1_555 1_555
C10 C1 1_555 1_555
C11 C9 1_555 1_555
H2 C11 1_555 1_555
H3 C11 1_555 1_555
C12 C11 1_555 1_555
H4 C12 1_555 1_555
C13 C12 1_555 1_555
C14 C8 1_555 1_555
C15 C14 1_555 1_555
H5 C15 1_555 1_555
H6 C15 1_555 1_555
C16 C15 1_555 1_555
C17 O2 1_555 1_555
H7 C17 1_555 1_555
C18 C13 1_555 1_555
H8 C18 1_555 1_555
H9 C18 1_555 1_555
H10 C18 1_555 1_555
C19 C10 1_555 1_555
H11 C19 1_555 1_555
H12 C19 1_555 1_555
H13 C19 1_555 1_555
C20 C17 1_555 1_555
C21 C20 1_555 1_555
H14 C21 1_555 1_555
C22 C20 1_555 1_555
H15 C22 1_555 1_555
C23 O3 1_555 1_555
H16 C23 1_555 1_555
C24 O4 1_555 1_555
C25 C24 1_555 1_555
H17 C25 1_555 1_555
H18 C25 1_555 1_555
H19 C25 1_555 1_555
C26 O6 1_555 1_555
C27 C26 1_555 1_555
H20 C27 1_555 1_555
H21 C27 1_555 1_555
H22 C27 1_555 1_555
C28 C4 1_555 1_555
H23 C28 1_555 1_555
H24 C28 1_555 1_555
H25 C28 1_555 1_555
C29 C1 1_555 1_555
H26 C29 1_555 1_555
H27 C29 1_555 1_555
C30 C2 1_555 1_555
H28 C30 1_555 1_555
C31 O10 1_555 1_555
H29 C31 1_555 1_555
H30 C31 1_555 1_555
H31 C31 1_555 1_555
C32 O12 1_555 1_555
C33 C32 1_555 1_555
H32 C33 1_555 1_555
H33 C33 1_555 1_555
H34 C33 1_555 1_555
C34 O14 1_555 1_555
C35 C34 1_555 1_555
H35 C35 1_555 1_555
H36 C35 1_555 1_555
H37 C35 1_555 1_555
H38 C2 1_555 1_555
H39 C3 1_555 1_555
H40 C6 1_555 1_555
H41 O8 1_555 1_555
H42 C9 1_555 1_555
H43 O11 1_555 1_555
H44 C14 1_555 1_555
H46 O16 1_555 1_555
H48 O17 1_555 1_555
C4 C29 1_555 1_555
C5 C10 1_555 1_555
C8 C30 1_555 1_555
C13 C14 1_555 1_555
C13 C17 1_555 1_555
C22 C23 1_555 1_555

#END
