
#######################################################################
#
#                 Cambridge Crystallographic Data Centre
#                                CCDC 
#
#######################################################################
#
# If this CIF has been generated from an entry in the Cambridge 
# Structural Database, then it will include bibliographic, chemical, 
# crystal, experimental, refinement or atomic coordinate data resulting 
# from the CCDC's data processing and validation procedures.
#
#######################################################################

data_UDOJUT
_chemical_formula_moiety         'C11 H10 F1 N5 O1'
_chemical_name_systematic        
N'-(4-Fluorobenzylidene)-2-(1H-1,2,4-triazol-1-yl)acetohydrazide
_chemical_properties_biological  
'Some fungicidal activity against G. zeae, A. solani and P. piricola'
_symmetry_cell_setting           monoclinic
_symmetry_space_group_name_H-M   'P 21'
_symmetry_Int_Tables_number      4
_space_group_name_Hall           'P 2yb'
loop_
_symmetry_equiv_pos_site_id
_symmetry_equiv_pos_as_xyz
1 x,y,z
2 -x,1/2+y,-z
_cell_length_a                   4.905(1)
_cell_length_b                   8.1600(16)
_cell_length_c                   14.105(3)
_cell_angle_alpha                90.00
_cell_angle_beta                 93.33(3)
_cell_angle_gamma                90.00
_cell_volume                     563.597
_exptl_crystal_colour            colorless
_chemical_melting_point          '221-223 deg.C'
_cell_formula_units_Z            2
_exptl_crystal_recrystallization_method ethanol
loop_
_atom_site_label
_atom_site_type_symbol
_atom_site_fract_x
_atom_site_fract_y
_atom_site_fract_z
O1 O 0.0346(7) 0.5537(5) 0.5473(2)
F1 F 1.0160(8) 0.1922(5) -0.0040(3)
N1 N 0.3003(11) 0.2988(7) 0.7750(3)
N2 N 0.5893(9) 0.4134(6) 0.6972(3)
N3 N 0.4018(7) 0.3463(5) 0.6365(2)
N4 N 0.1828(8) 0.5065(5) 0.4029(2)
H1 H 0.0676 0.5744 0.3766
N5 N 0.3648(7) 0.4249(5) 0.3482(2)
C1 C 0.5305(8) 0.3845(6) 0.7853(3)
H2 H 0.6263 0.4161 0.8411
C2 C 0.2120(8) 0.2717(6) 0.6867(2)
H3 H 0.0568 0.2149 0.6644
C3 C 0.3844(9) 0.3515(6) 0.5339(3)
H4 H 0.3272 0.2451 0.5093
H5 H 0.5634 0.3751 0.5114
C4 C 0.1857(8) 0.4795(6) 0.4974(3)
C5 C 0.3476(9) 0.4612(6) 0.2606(3)
H6 H 0.2163 0.5363 0.2383
C6 C 0.5310(9) 0.3873(6) 0.1933(3)
C7 C 0.7315(9) 0.2736(6) 0.2207(3)
H7 H 0.7558 0.2420 0.2840
C8 C 0.8941(10) 0.2078(7) 0.1539(4)
H8 H 1.0288 0.1315 0.1713
C9 C 0.8530(10) 0.2573(7) 0.0618(3)
C10 C 0.6609(10) 0.3680(8) 0.0321(3)
H9 H 0.6403 0.3994 -0.0312
C11 C 0.4968(10) 0.4329(7) 0.0990(3)
H10 H 0.3618 0.5082 0.0803
loop_
_geom_bond_atom_site_label_1
_geom_bond_atom_site_label_2
_geom_bond_site_symmetry_1
_geom_bond_site_symmetry_2
O1 C4 1_555 1_555
F1 C9 1_555 1_555
N1 C1 1_555 1_555
N2 N3 1_555 1_555
N3 C2 1_555 1_555
N4 H1 1_555 1_555
N5 N4 1_555 1_555
C1 N2 1_555 1_555
H2 C1 1_555 1_555
C2 N1 1_555 1_555
H3 C2 1_555 1_555
C3 N3 1_555 1_555
H4 C3 1_555 1_555
H5 C3 1_555 1_555
C4 N4 1_555 1_555
C5 N5 1_555 1_555
H6 C5 1_555 1_555
C6 C5 1_555 1_555
C7 C6 1_555 1_555
H7 C7 1_555 1_555
C8 C7 1_555 1_555
H8 C8 1_555 1_555
C9 C8 1_555 1_555
C10 C9 1_555 1_555
H9 C10 1_555 1_555
C11 C6 1_555 1_555
H10 C11 1_555 1_555
C3 C4 1_555 1_555
C10 C11 1_555 1_555

#END
