
#######################################################################
#
#                 Cambridge Crystallographic Data Centre
#                                CCDC 
#
#######################################################################
#
# If this CIF has been generated from an entry in the Cambridge 
# Structural Database, then it will include bibliographic, chemical, 
# crystal, experimental, refinement or atomic coordinate data resulting 
# from the CCDC's data processing and validation procedures.
#
#######################################################################

data_UDOJOP
_chemical_formula_moiety         'C29 H38 O4,0.5(C2 H3 N1)'
_chemical_name_systematic        
'10-hydroxy-2,4a,6a,9,12b,14a-hexamethyl-11-oxo-1,2,3,4,4a,5,6,6a,11,12b,13,14,14a,14b-tetradecahydropicene-2-carboxylic acid acetonitrile solvate'
_symmetry_cell_setting           orthorhombic
_symmetry_space_group_name_H-M   'P 21 21 21'
_symmetry_Int_Tables_number      19
_space_group_name_Hall           'P 2ac 2ab'
loop_
_symmetry_equiv_pos_site_id
_symmetry_equiv_pos_as_xyz
1 x,y,z
2 1/2+x,1/2-y,-z
3 -x,1/2+y,1/2-z
4 1/2-x,-y,1/2+z
_cell_length_a                   12.324(2)
_cell_length_b                   19.653(4)
_cell_length_c                   21.863(4)
_cell_angle_alpha                90
_cell_angle_beta                 90
_cell_angle_gamma                90
_cell_volume                     5295.3
_exptl_crystal_colour            red
_exptl_crystal_description       block
_cell_formula_units_Z            8
loop_
_atom_site_label
_atom_site_type_symbol
_atom_site_fract_x
_atom_site_fract_y
_atom_site_fract_z
O1 O 0.73849(17) 0.39791(11) 0.36642(10)
H1 H 0.791(3) 0.3661(19) 0.3764(17)
O2 O 1.08106(16) 0.84649(10) 0.55035(8)
O3 O 1.22043(15) 0.79047(10) 0.50824(9)
H2 H 1.2056 0.7621 0.5358
O4 O 0.95943(18) 0.41010(11) 0.36098(10)
C1 C 1.0815(2) 0.86036(13) 0.36345(12)
H3 H 1.1066 0.8625 0.3200
C2 C 1.0248(2) 0.78908(13) 0.36803(11)
C3 C 1.2964(2) 0.92445(15) 0.48471(13)
H4 H 1.2952 0.9419 0.5267
H5 H 1.3191 0.9608 0.4568
H6 H 1.3477 0.8865 0.4820
C4 C 1.1810(2) 0.89940(13) 0.46673(12)
C5 C 1.1874(2) 0.87097(13) 0.40086(12)
H7 H 1.2249 0.8265 0.4030
H8 H 1.2346 0.9019 0.3770
C6 C 1.1059(2) 0.73302(13) 0.35028(13)
H9 H 1.1313 0.7411 0.3079
H10 H 1.1698 0.7357 0.3776
C7 C 1.0570(2) 0.66164(14) 0.35442(13)
H11 H 1.0420 0.6512 0.3979
H12 H 1.1111 0.6283 0.3396
C8 C 0.9512(2) 0.65260(14) 0.31743(12)
C9 C 0.8951(2) 0.58578(14) 0.33563(12)
C10 C 0.9545(2) 0.52866(14) 0.34540(13)
H13 H 1.0314 0.5318 0.3460
C11 C 0.9036(2) 0.46303(15) 0.35491(13)
C12 C 0.7855(2) 0.45986(14) 0.35641(13)
C13 C 1.1534(2) 0.84369(14) 0.51256(12)
C14 C 1.1012(2) 0.95869(14) 0.47040(12)
H14 H 1.0863 0.9687 0.5140
H15 H 1.1356 0.9995 0.4523
C15 C 0.9937(2) 0.94560(14) 0.43781(13)
H16 H 0.9491 0.9875 0.4397
H17 H 0.9540 0.9093 0.4599
C16 C 1.0068(2) 0.92414(14) 0.36989(12)
C17 C 0.9280(2) 0.78742(14) 0.32119(12)
C18 C 0.8453(2) 0.84156(14) 0.34129(14)
H18 H 0.8195 0.8307 0.3831
H19 H 0.7819 0.8401 0.3135
C19 C 0.8933(2) 0.91407(14) 0.34093(14)
H20 H 0.8418 0.9444 0.3625
H21 H 0.8970 0.9296 0.2979
C20 C 0.9627(2) 0.80463(15) 0.25425(13)
H22 H 0.9052 0.7907 0.2259
H23 H 1.0298 0.7803 0.2443
H24 H 0.9749 0.8537 0.2505
C21 C 0.8780(2) 0.71545(14) 0.32251(11)
C22 C 0.7239(2) 0.51618(14) 0.34773(12)
C23 C 0.7774(2) 0.58150(14) 0.33701(12)
C24 C 0.7200(2) 0.64029(15) 0.33056(12)
H25 H 0.6431 0.6375 0.3289
C25 C 0.7696(2) 0.70620(14) 0.32610(12)
H26 H 0.7240 0.7452 0.3257
C26 C 0.6018(2) 0.51252(15) 0.35010(13)
H27 H 0.5793 0.4655 0.3581
H28 H 0.5717 0.5275 0.3109
H29 H 0.5750 0.5421 0.3829
C27 C 0.9805(2) 0.64185(15) 0.24872(13)
H30 H 0.9137 0.6394 0.2245
H31 H 1.0213 0.5994 0.2441
H32 H 1.0249 0.6800 0.2344
C28 C 0.9808(2) 0.77130(14) 0.43226(12)
H33 H 0.9267 0.7350 0.4288
H34 H 0.9471 0.8117 0.4504
H35 H 1.0407 0.7559 0.4583
C29 C 1.0599(2) 0.98396(14) 0.33525(13)
H36 H 1.0672 0.9722 0.2919
H37 H 1.1317 0.9931 0.3526
H38 H 1.0143 1.0246 0.3393
O5 O 0.50315(17) 0.24794(10) 0.13519(9)
H39 H 0.460(3) 0.2337(18) 0.1091(16)
O6 O 0.66633(16) 0.72479(10) -0.08723(9)
O7 O 0.48775(16) 0.70519(10) -0.08653(9)
H40 H 0.4902 0.6659 -0.0714
O8 O 0.36758(16) 0.31546(10) 0.05743(9)
C30 C 0.6502(2) 0.83886(14) -0.00945(13)
H41 H 0.6310 0.8858 0.0028
H42 H 0.7018 0.8419 -0.0441
C31 C 0.5479(2) 0.80227(14) -0.03087(13)
C32 C 0.4740(2) 0.78498(14) 0.02430(12)
H43 H 0.4177 0.7529 0.0098
H44 H 0.4362 0.8273 0.0365
C33 C 0.5258(2) 0.75381(13) 0.08312(13)
H45 H 0.4739 0.7665 0.1164
C34 C 0.5307(2) 0.67431(13) 0.08657(12)
C35 C 0.5698(2) 0.65355(13) 0.15244(12)
C36 C 0.5617(2) 0.57606(13) 0.16040(12)
C37 C 0.4592(2) 0.53814(14) 0.13981(13)
C38 C 0.4767(2) 0.46161(14) 0.13292(12)
C39 C 0.4151(2) 0.42381(14) 0.09501(13)
H46 H 0.3655 0.4460 0.0684
C40 C 0.4226(2) 0.35043(14) 0.09381(12)
C41 C 0.4974(2) 0.31724(13) 0.13640(12)
C42 C 0.5759(2) 0.74010(14) -0.06967(13)
C43 C 0.6325(2) 0.79243(14) 0.10051(13)
C44 C 0.6992(2) 0.75631(14) 0.15125(13)
H47 H 0.7768 0.7665 0.1439
H48 H 0.6795 0.7775 0.1908
C45 C 0.6884(2) 0.67888(13) 0.15877(13)
H49 H 0.7164 0.6657 0.1995
H50 H 0.7337 0.6561 0.1275
C46 C 0.6057(2) 0.63995(14) 0.03912(12)
H51 H 0.6253 0.5943 0.0534
H52 H 0.6717 0.6672 0.0340
H53 H 0.5679 0.6365 -0.0002
C47 C 0.4150(2) 0.64570(14) 0.07720(13)
H54 H 0.3664 0.6651 0.1088
H55 H 0.3878 0.6604 0.0367
C48 C 0.4105(2) 0.56837(14) 0.08085(13)
H56 H 0.4498 0.5493 0.0453
H57 H 0.3338 0.5538 0.0776
C49 C 0.6385(2) 0.53993(14) 0.19048(12)
H58 H 0.7004 0.5633 0.2056
C50 C 0.6308(2) 0.46835(14) 0.20058(12)
H59 H 0.6804 0.4476 0.2281
C51 C 0.5551(2) 0.42814(14) 0.17233(12)
C52 C 0.5599(2) 0.35405(14) 0.17585(12)
C53 C 0.6368(2) 0.31971(14) 0.21963(13)
H60 H 0.6313 0.2702 0.2149
H61 H 0.6181 0.3324 0.2617
H62 H 0.7113 0.3342 0.2107
C54 C 0.3733(2) 0.54389(15) 0.19229(14)
H63 H 0.3112 0.5146 0.1829
H64 H 0.3489 0.5912 0.1958
H65 H 0.4062 0.5295 0.2310
C55 C 0.5033(2) 0.68719(14) 0.20454(13)
H66 H 0.4258 0.6849 0.1946
H67 H 0.5252 0.7349 0.2089
H68 H 0.5168 0.6630 0.2430
C56 C 0.6015(2) 0.86309(15) 0.12637(14)
H69 H 0.6673 0.8869 0.1397
H70 H 0.5525 0.8573 0.1613
H71 H 0.5652 0.8898 0.0945
C57 C 0.7064(2) 0.80355(14) 0.04434(13)
H72 H 0.7697 0.8312 0.0569
H73 H 0.7339 0.7588 0.0304
C58 C 0.4828(2) 0.84948(15) -0.07419(14)
H74 H 0.5276 0.8612 -0.1097
H75 H 0.4626 0.8911 -0.0523
H76 H 0.4170 0.8260 -0.0880
N1 N 0.2659(4) 0.4932(2) -0.0464(2)
C59 C 0.2278(3) 0.4413(2) -0.0581(2)
C60 C 0.1812(3) 0.3746(2) -0.0723(2)
H77 H 0.2204 0.3393 -0.0497
H78 H 0.1875 0.3659 -0.1163
H79 H 0.1045 0.3740 -0.0604
loop_
_geom_bond_atom_site_label_1
_geom_bond_atom_site_label_2
_geom_bond_site_symmetry_1
_geom_bond_site_symmetry_2
O1 H1 1_555 1_555
O2 C13 1_555 1_555
O3 H2 1_555 1_555
O4 C11 1_555 1_555
C1 H3 1_555 1_555
C2 C1 1_555 1_555
C3 H4 1_555 1_555
H5 C3 1_555 1_555
H6 C3 1_555 1_555
C4 C3 1_555 1_555
C5 C1 1_555 1_555
H7 C5 1_555 1_555
H8 C5 1_555 1_555
C6 C2 1_555 1_555
H9 C6 1_555 1_555
H10 C6 1_555 1_555
C7 C6 1_555 1_555
H11 C7 1_555 1_555
H12 C7 1_555 1_555
C8 C7 1_555 1_555
C9 C8 1_555 1_555
C10 C9 1_555 1_555
H13 C10 1_555 1_555
C11 C10 1_555 1_555
C12 O1 1_555 1_555
C13 O3 1_555 1_555
C14 C4 1_555 1_555
H14 C14 1_555 1_555
H15 C14 1_555 1_555
C15 C14 1_555 1_555
H16 C15 1_555 1_555
H17 C15 1_555 1_555
C16 C1 1_555 1_555
C17 C2 1_555 1_555
C18 C17 1_555 1_555
H18 C18 1_555 1_555
H19 C18 1_555 1_555
C19 C16 1_555 1_555
H20 C19 1_555 1_555
H21 C19 1_555 1_555
C20 C17 1_555 1_555
H22 C20 1_555 1_555
H23 C20 1_555 1_555
H24 C20 1_555 1_555
C21 C8 1_555 1_555
C22 C12 1_555 1_555
C23 C9 1_555 1_555
C24 C23 1_555 1_555
H25 C24 1_555 1_555
C25 C21 1_555 1_555
H26 C25 1_555 1_555
C26 C22 1_555 1_555
H27 C26 1_555 1_555
H28 C26 1_555 1_555
H29 C26 1_555 1_555
C27 C8 1_555 1_555
H30 C27 1_555 1_555
H31 C27 1_555 1_555
H32 C27 1_555 1_555
C28 C2 1_555 1_555
H33 C28 1_555 1_555
H34 C28 1_555 1_555
H35 C28 1_555 1_555
C29 C16 1_555 1_555
H36 C29 1_555 1_555
H37 C29 1_555 1_555
H38 C29 1_555 1_555
O5 H39 1_555 1_555
O6 C42 1_555 1_555
O7 H40 1_555 1_555
O8 C40 1_555 1_555
C30 H41 1_555 1_555
H42 C30 1_555 1_555
C31 C30 1_555 1_555
C32 C31 1_555 1_555
H43 C32 1_555 1_555
H44 C32 1_555 1_555
C33 C32 1_555 1_555
H45 C33 1_555 1_555
C34 C33 1_555 1_555
C35 C34 1_555 1_555
C36 C35 1_555 1_555
C37 C36 1_555 1_555
C38 C37 1_555 1_555
C39 C38 1_555 1_555
H46 C39 1_555 1_555
C40 C39 1_555 1_555
C41 O5 1_555 1_555
C42 O7 1_555 1_555
C43 C33 1_555 1_555
C44 C43 1_555 1_555
H47 C44 1_555 1_555
H48 C44 1_555 1_555
C45 C35 1_555 1_555
H49 C45 1_555 1_555
H50 C45 1_555 1_555
C46 C34 1_555 1_555
H51 C46 1_555 1_555
H52 C46 1_555 1_555
H53 C46 1_555 1_555
C47 C34 1_555 1_555
H54 C47 1_555 1_555
H55 C47 1_555 1_555
C48 C37 1_555 1_555
H56 C48 1_555 1_555
H57 C48 1_555 1_555
C49 C36 1_555 1_555
H58 C49 1_555 1_555
C50 C49 1_555 1_555
H59 C50 1_555 1_555
C51 C38 1_555 1_555
C52 C41 1_555 1_555
C53 C52 1_555 1_555
H60 C53 1_555 1_555
H61 C53 1_555 1_555
H62 C53 1_555 1_555
C54 C37 1_555 1_555
H63 C54 1_555 1_555
H64 C54 1_555 1_555
H65 C54 1_555 1_555
C55 C35 1_555 1_555
H66 C55 1_555 1_555
H67 C55 1_555 1_555
H68 C55 1_555 1_555
C56 C43 1_555 1_555
H69 C56 1_555 1_555
H70 C56 1_555 1_555
H71 C56 1_555 1_555
C57 C30 1_555 1_555
H72 C57 1_555 1_555
H73 C57 1_555 1_555
C58 C31 1_555 1_555
H74 C58 1_555 1_555
H75 C58 1_555 1_555
H76 C58 1_555 1_555
N1 C59 1_555 1_555
C59 C60 1_555 1_555
C60 H77 1_555 1_555
H78 C60 1_555 1_555
H79 C60 1_555 1_555
C4 C5 1_555 1_555
C4 C13 1_555 1_555
C11 C12 1_555 1_555
C15 C16 1_555 1_555
C17 C21 1_555 1_555
C18 C19 1_555 1_555
C22 C23 1_555 1_555
C24 C25 1_555 1_555
C31 C42 1_555 1_555
C40 C41 1_555 1_555
C43 C57 1_555 1_555
C44 C45 1_555 1_555
C47 C48 1_555 1_555
C50 C51 1_555 1_555
C51 C52 1_555 1_555

#END
