
#######################################################################
#
#                 Cambridge Crystallographic Data Centre
#                                CCDC 
#
#######################################################################
#
# If this CIF has been generated from an entry in the Cambridge 
# Structural Database, then it will include bibliographic, chemical, 
# crystal, experimental, refinement or atomic coordinate data resulting 
# from the CCDC's data processing and validation procedures.
#
#######################################################################

data_UDOQOV
_chemical_formula_moiety         'C10 H19 B10 N1 O2'
_chemical_name_systematic        
1-(3-Methoxyphenylcarbamoyl)-1,2-dicarba-closo-dodecaborane(11)
_symmetry_cell_setting           orthorhombic
_symmetry_space_group_name_H-M   'C m c a'
_symmetry_Int_Tables_number      64
_space_group_name_Hall           '-C 2ac 2'
loop_
_symmetry_equiv_pos_site_id
_symmetry_equiv_pos_as_xyz
1 x,y,z
2 -x,1/2-y,1/2+z
3 x,-y,-z
4 -x,1/2+y,1/2-z
5 1/2+x,1/2+y,z
6 1/2-x,-y,1/2+z
7 1/2+x,1/2-y,-z
8 1/2-x,y,1/2-z
9 -x,-y,-z
10 x,1/2+y,1/2-z
11 -x,y,z
12 x,1/2-y,1/2+z
13 1/2-x,1/2-y,-z
14 1/2+x,y,1/2-z
15 1/2-x,1/2+y,z
16 1/2+x,-y,1/2+z
_cell_length_a                   7.2645(7)
_cell_length_b                   21.8580(13)
_cell_length_c                   20.1778(15)
_cell_angle_alpha                90
_cell_angle_beta                 90
_cell_angle_gamma                90
_cell_volume                     3203.98
_cell_formula_units_Z            8
loop_
_atom_site_label
_atom_site_type_symbol
_atom_site_fract_x
_atom_site_fract_y
_atom_site_fract_z
O1 O 0.5000 0.29430(8) 0.76728(9)
O2 O 0.5000 0.59593(8) 0.74606(10)
N1 N 0.5000 0.50375(9) 0.69370(10)
H1 H 0.5000 0.4881 0.6546
C1 C 0.5000 0.56514(10) 0.69658(11)
C2 C 0.5000 0.59593(9) 0.62869(11)
C3 C 0.5000 0.46150(10) 0.74702(11)
C4 C 0.5000 0.39994(10) 0.72981(12)
H2 H 0.5000 0.3885 0.6854
C5 C 0.5000 0.37310(12) 0.84485(13)
H3 H 0.5000 0.3435 0.8780
C6 C 0.5000 0.47951(11) 0.81279(12)
H4 H 0.5000 0.5207 0.8244
C7 C 0.5000 0.35607(11) 0.77853(12)
C8 C 0.5000 0.67045(10) 0.63238(12)
H5 H 0.5000 0.6937 0.6807
C9 C 0.5000 0.43407(12) 0.86090(13)
H6 H 0.5000 0.4453 0.9054
C10 C 0.5000 0.27416(13) 0.70026(15)
B1 B 0.3776(3) 0.57158(9) 0.56199(9)
H7 H 0.2988 0.5286 0.5602
B2 B 0.5000 0.68143(12) 0.49804(14)
H8 H 0.5000 0.7105 0.4536
B3 B 0.3779(3) 0.70235(9) 0.57009(10)
H9 H 0.2992 0.7452 0.5738
B4 B 0.2998(3) 0.63470(9) 0.60917(11)
H10 H 0.1720 0.6333 0.6384
B5 B 0.3012(3) 0.63934(10) 0.52209(11)
H11 H 0.1726 0.6408 0.4934
B6 B 0.5000 0.60040(13) 0.49275(14)
H12 H 0.5000 0.5765 0.4448
B1J B 0.6224(3) 0.57158(9) 0.56199(9)
H7J H 0.7012 0.5286 0.5602
B3J B 0.6221(3) 0.70235(9) 0.57009(10)
H9J H 0.7008 0.7452 0.5738
B4J B 0.7002(3) 0.63470(9) 0.60917(11)
H10J H 0.8280 0.6333 0.6384
B5J B 0.6988(3) 0.63934(10) 0.52209(11)
H11J H 0.8274 0.6408 0.4934
H13? H 0.4961 0.2303 0.6991
H14? H 0.6098 0.2882 0.6786
H15? H 0.3941 0.2904 0.6779
loop_
_geom_bond_atom_site_label_1
_geom_bond_atom_site_label_2
_geom_bond_site_symmetry_1
_geom_bond_site_symmetry_2
O1 C7 1_555 1_555
O2 C1 1_555 1_555
N1 H1 1_555 1_555
C1 N1 1_555 1_555
C2 C1 1_555 1_555
C3 N1 1_555 1_555
C4 C3 1_555 1_555
H2 C4 1_555 1_555
C5 H3 1_555 1_555
C6 C3 1_555 1_555
H4 C6 1_555 1_555
C7 C4 1_555 1_555
C8 C2 1_555 1_555
H5 C8 1_555 1_555
C9 C5 1_555 1_555
H6 C9 1_555 1_555
C10 O1 1_555 1_555
B1 C2 1_555 1_555
H7 B1 1_555 1_555
B2 H8 1_555 1_555
B3 C8 1_555 1_555
H9 B3 1_555 1_555
B4 C2 1_555 1_555
H10 B4 1_555 1_555
B5 B1 1_555 1_555
H11 B5 1_555 1_555
B6 B1 1_555 1_555
H12 B6 1_555 1_555
B1J C2 1_555 1_555
H7J B1J 1_555 1_555
B3J C8 1_555 1_555
H9J B3J 1_555 1_555
B4J C2 1_555 1_555
H10J B4J 1_555 1_555
B5J B2 1_555 1_555
H11J B5J 1_555 1_555
C5 C7 1_555 1_555
C6 C9 1_555 1_555
C8 B4 1_555 1_555
C8 B4J 1_555 1_555
B1 B4 1_555 1_555
B1 B1J 1_555 1_555
B2 B3 1_555 1_555
B2 B5 1_555 1_555
B2 B6 1_555 1_555
B2 B3J 1_555 1_555
B3 B4 1_555 1_555
B3 B5 1_555 1_555
B3 B3J 1_555 1_555
B4 B5 1_555 1_555
B5 B6 1_555 1_555
B6 B1J 1_555 1_555
B6 B5J 1_555 1_555
B1J B4J 1_555 1_555
B1J B5J 1_555 1_555
B3J B4J 1_555 1_555
B3J B5J 1_555 1_555
B4J B5J 1_555 1_555

#END
