
#######################################################################
#
#                 Cambridge Crystallographic Data Centre
#                                CCDC 
#
#######################################################################
#
# If this CIF has been generated from an entry in the Cambridge 
# Structural Database, then it will include bibliographic, chemical, 
# crystal, experimental, refinement or atomic coordinate data resulting 
# from the CCDC's data processing and validation procedures.
#
#######################################################################

data_UDOQOW
_chemical_formula_moiety         'C2 H5 N4 1+,C4 H1 N8 O5 1-,C3 H7 N1 O1'
_chemical_name_systematic        
'3-Amino-1,2,4-triazolium 3-nitro-4-(5-nitramino-1,2,4-triazol-3-yl)furazanate N,N-dimethylformamide solvate'
_symmetry_cell_setting           orthorhombic
_symmetry_space_group_name_H-M   'P b c a'
_symmetry_Int_Tables_number      61
_space_group_name_Hall           '-P 2ac 2ab'
loop_
_symmetry_equiv_pos_site_id
_symmetry_equiv_pos_as_xyz
1 x,y,z
2 1/2-x,-y,1/2+z
3 1/2+x,1/2-y,-z
4 -x,1/2+y,1/2-z
5 -x,-y,-z
6 1/2+x,y,1/2-z
7 1/2-x,1/2+y,z
8 x,1/2-y,1/2+z
_cell_length_a                   15.9652(19)
_cell_length_b                   8.1198(9)
_cell_length_c                   26.015(2)
_cell_angle_alpha                90
_cell_angle_beta                 90
_cell_angle_gamma                90
_cell_volume                     3372.43
_exptl_crystal_description       column
_chemical_melting_point          '182 deg.C (dec.)'
_cell_formula_units_Z            8
loop_
_atom_site_label
_atom_site_type_symbol
_atom_site_fract_x
_atom_site_fract_y
_atom_site_fract_z
C1 C 0.2636(2) 0.5515(4) 0.41985(12)
C2 C 0.2611(2) 0.3947(4) 0.35548(12)
N1 N 0.34241(19) 0.4141(3) 0.36413(10)
N2 N 0.34251(19) 0.5146(4) 0.40610(10)
H1 H 0.3898(15) 0.551(4) 0.4196(12)
N3 N 0.20972(18) 0.4753(3) 0.38820(10)
N4 N 0.23115(18) 0.6497(3) 0.45795(10)
N5 N 0.28565(19) 0.7205(4) 0.48853(11)
O1 O 0.36335(16) 0.6988(3) 0.48396(9)
O2 O 0.25750(17) 0.8124(3) 0.52332(9)
O3 O 0.1592(10) 0.166(2) 0.2567(6)
N6 N 0.2398(10) 0.141(2) 0.2397(6)
C3 C 0.2851(9) 0.220(2) 0.2726(6)
C4 C 0.2360(13) 0.295(4) 0.3112(9)
N7 N 0.1571(12) 0.263(3) 0.3006(7)
N8 N 0.3760(10) 0.2196(17) 0.2657(5)
O4 O 0.4142(11) 0.1070(18) 0.2856(7)
O5 O 0.4060(9) 0.3308(14) 0.2407(6)
C7 C 0.9983(2) 0.1063(4) 0.06096(13)
C8 C 1.0250(3) -0.0506(5) 0.12643(15)
H2 H 1.0160 -0.1210 0.1551
N12 N 1.0986(2) -0.0081(4) 0.11013(12)
N13 N 1.08150(19) 0.0927(4) 0.06779(11)
N14 N 0.96171(19) 0.0167(4) 0.09792(11)
H3 H 0.9086(13) 0.005(4) 0.1048(13)
N15 N 0.9588(2) 0.1915(4) 0.02487(12)
H4 H 0.989(2) 0.249(4) 0.0024(12)
H5 H 0.9060(12) 0.202(5) 0.0271(14)
C9 C 0.0821(3) 0.5549(4) 0.07764(14)
H6 H 0.1237 0.5830 0.0530
C10 C 0.1954(2) 0.4319(5) 0.12582(15)
H7 H 0.2273 0.4662 0.0955
H8 H 0.2004 0.3124 0.1303
H9 H 0.2175 0.4878 0.1563
C11 C 0.0488(3) 0.4262(6) 0.15894(14)
H10 H -0.0086 0.4456 0.1470
H11 H 0.0592 0.4911 0.1901
H12 H 0.0562 0.3090 0.1666
N16 N 0.10757(19) 0.4753(4) 0.11897(11)
O9 O 0.00906(17) 0.5967(3) 0.06779(9)
O6? O 0.1371(10) 0.178(3) 0.2656(6)
N9? N 0.2133(11) 0.151(2) 0.2421(6)
C5? C 0.2674(9) 0.223(3) 0.2726(7)
C6? C 0.2264(14) 0.298(5) 0.3147(10)
N10? N 0.1455(13) 0.269(3) 0.3101(7)
N11? N 0.3563(11) 0.2209(19) 0.2605(6)
O7? O 0.4029(11) 0.151(2) 0.2908(6)
O8? O 0.3785(10) 0.285(2) 0.2207(6)
loop_
_geom_bond_atom_site_label_1
_geom_bond_atom_site_label_2
_geom_bond_site_symmetry_1
_geom_bond_site_symmetry_2
C1 N2 1_555 1_555
C2 N1 1_555 1_555
N1 N2 1_555 1_555
N2 H1 1_555 1_555
N3 C1 1_555 1_555
N4 C1 1_555 1_555
N5 N4 1_555 1_555
O1 N5 1_555 1_555
O2 N5 1_555 1_555
O3 N6 1_555 1_555
N6 C3 1_555 1_555
C3 C4 1_555 1_555
C4 C2 1_555 1_555
N7 O3 1_555 1_555
N8 C3 1_555 1_555
O4 N8 1_555 1_555
O5 N8 1_555 1_555
C7 N13 1_555 1_555
C8 H2 1_555 1_555
N12 C8 1_555 1_555
N13 N12 1_555 1_555
N14 C7 1_555 1_555
H3 N14 1_555 1_555
N15 C7 1_555 1_555
H4 N15 1_555 1_555
H5 N15 1_555 1_555
C9 H6 1_555 1_555
C10 H7 1_555 1_555
H8 C10 1_555 1_555
H9 C10 1_555 1_555
C11 H10 1_555 1_555
H11 C11 1_555 1_555
H12 C11 1_555 1_555
N16 C9 1_555 1_555
O9 C9 1_555 1_555
C2 N3 1_555 1_555
C4 N7 1_555 1_555
C8 N14 1_555 1_555
C10 N16 1_555 1_555
C11 N16 1_555 1_555

#END
