
#######################################################################
#
#                 Cambridge Crystallographic Data Centre
#                                CCDC 
#
#######################################################################
#
# If this CIF has been generated from an entry in the Cambridge 
# Structural Database, then it will include bibliographic, chemical, 
# crystal, experimental, refinement or atomic coordinate data resulting 
# from the CCDC's data processing and validation procedures.
#
#######################################################################

data_UDORAI
_chemical_formula_moiety         'C18 H26 B10 N2 O4'
_chemical_name_systematic        
1,2-bis(3-Methoxyphenylcarbamoyl)-1,2-dicarba-closo-dodecaborane(10)
_symmetry_cell_setting           monoclinic
_symmetry_space_group_name_H-M   'P 21/c'
_symmetry_Int_Tables_number      14
_space_group_name_Hall           '-P 2ybc'
loop_
_symmetry_equiv_pos_site_id
_symmetry_equiv_pos_as_xyz
1 x,y,z
2 -x,1/2+y,1/2-z
3 -x,-y,-z
4 x,1/2-y,1/2+z
_cell_length_a                   10.9013(10)
_cell_length_b                   15.5194(10)
_cell_length_c                   14.2472(10)
_cell_angle_alpha                90
_cell_angle_beta                 98.225(7)
_cell_angle_gamma                90
_cell_volume                     2385.57
_cell_formula_units_Z            4
loop_
_atom_site_label
_atom_site_type_symbol
_atom_site_fract_x
_atom_site_fract_y
_atom_site_fract_z
N1 N 0.4452(2) 0.08813(14) 0.35078(15)
H1 H 0.3948 0.0510 0.3688
O1 O 0.5132(2) 0.22517(14) 0.36894(16)
C1 C 0.5178(3) 0.06261(16) 0.27940(18)
C2 C 0.3602(2) 0.18178(17) 0.46226(17)
N2 N 0.5992(2) 0.18182(15) 0.69072(15)
H2 H 0.5614 0.2200 0.7198
C3 C 0.4093(2) 0.18336(17) 0.57799(17)
C4 C 0.4508(3) 0.16583(17) 0.39118(18)
O2 O 0.8672(2) 0.13133(16) 0.98429(16)
O3 O 0.8349(2) 0.06837(16) 0.22291(17)
C5 C 0.4594(3) 0.01761(18) 0.20248(19)
H3 H 0.3750 0.0059 0.1964
C6 C 0.7350(3) 0.15920(18) 0.83621(19)
H4 H 0.6761 0.1864 0.8672
C7 C 0.6423(3) 0.08174(18) 0.28921(19)
H5 H 0.6798 0.1126 0.3415
C8 C 0.7153(3) 0.15121(18) 0.7381(2)
O4 O 0.5920(2) 0.1106(2) 0.55264(18)
C9 C 0.5441(3) 0.15677(19) 0.6058(2)
C10 C 0.7116(3) 0.05429(19) 0.2198(2)
C11 C 0.6533(3) 0.0085(2) 0.1421(2)
H6 H 0.6989 -0.0096 0.0953
B1 B 0.3320(3) 0.2603(2) 0.6322(2)
H7 H 0.3721 0.2968 0.6954
B2 B 0.2952(4) 0.1494(2) 0.6396(2)
H8 H 0.3118 0.1144 0.7074
C12 C 0.5301(3) -0.0100(2) 0.1339(2)
H9 H 0.4926 -0.0415 0.0821
B3 B 0.3163(3) 0.0990(2) 0.5311(2)
H10 H 0.3471 0.0317 0.5277
B4 B 0.2494(3) 0.2578(2) 0.4323(2)
H11 H 0.2353 0.2925 0.3643
B5 B 0.3782(3) 0.2805(2) 0.5195(2)
H12 H 0.4485 0.3290 0.5089
C13 C 0.8421(3) 0.1267(2) 0.8879(2)
B6 B 0.2124(3) 0.1469(2) 0.4398(2)
H13 H 0.1742 0.1100 0.3764
B7 B 0.2274(4) 0.3077(2) 0.5402(3)
H14 H 0.1980 0.3753 0.5430
C14 C 0.9287(3) 0.0851(3) 0.8421(3)
H15 H 0.9994 0.0612 0.8768
B8 B 0.1766(4) 0.2265(3) 0.6148(3)
H16 H 0.1136 0.2416 0.6663
C15 C 0.8036(3) 0.1116(2) 0.6913(2)
H17 H 0.7921 0.1067 0.6256
C16 C 0.9094(3) 0.0794(3) 0.7456(3)
H18 H 0.9694 0.0530 0.7151
C17 C 0.7967(4) 0.1909(3) 1.0307(2)
H19 H 0.7972 0.2462 1.0004
H20 H 0.8325 0.1961 1.0960
H21 H 0.7129 0.1707 1.0269
B9 B 0.1671(4) 0.1267(3) 0.5526(3)
H22 H 0.0984 0.0771 0.5634
B10 B 0.1247(4) 0.2256(3) 0.4908(3)
H23 H 0.0280 0.2400 0.4615
C18 C 0.8954(3) 0.1225(3) 0.2947(3)
H24 H 0.9799 0.1309 0.2849
H25 H 0.8937 0.0962 0.3555
H26 H 0.8539 0.1772 0.2926
loop_
_geom_bond_atom_site_label_1
_geom_bond_atom_site_label_2
_geom_bond_site_symmetry_1
_geom_bond_site_symmetry_2
N1 H1 1_555 1_555
O1 C4 1_555 1_555
C1 N1 1_555 1_555
C2 C3 1_555 1_555
N2 H2 1_555 1_555
C3 C9 1_555 1_555
C4 N1 1_555 1_555
O2 C13 1_555 1_555
O3 C10 1_555 1_555
C5 C1 1_555 1_555
H3 C5 1_555 1_555
C6 H4 1_555 1_555
C7 C1 1_555 1_555
H5 C7 1_555 1_555
C8 N2 1_555 1_555
O4 C9 1_555 1_555
C9 N2 1_555 1_555
C10 C7 1_555 1_555
C11 C10 1_555 1_555
H6 C11 1_555 1_555
B1 C3 1_555 1_555
H7 B1 1_555 1_555
B2 C3 1_555 1_555
H8 B2 1_555 1_555
C12 C5 1_555 1_555
H9 C12 1_555 1_555
B3 C2 1_555 1_555
H10 B3 1_555 1_555
B4 C2 1_555 1_555
H11 B4 1_555 1_555
B5 C2 1_555 1_555
H12 B5 1_555 1_555
C13 C6 1_555 1_555
B6 C2 1_555 1_555
H13 B6 1_555 1_555
B7 B1 1_555 1_555
H14 B7 1_555 1_555
C14 C13 1_555 1_555
H15 C14 1_555 1_555
B8 B1 1_555 1_555
H16 B8 1_555 1_555
C15 C8 1_555 1_555
H17 C15 1_555 1_555
C16 C14 1_555 1_555
H18 C16 1_555 1_555
C17 O2 1_555 1_555
H19 C17 1_555 1_555
H20 C17 1_555 1_555
H21 C17 1_555 1_555
B9 B2 1_555 1_555
H22 B9 1_555 1_555
B10 B4 1_555 1_555
H23 B10 1_555 1_555
C18 O3 1_555 1_555
H24 C18 1_555 1_555
H25 C18 1_555 1_555
H26 C18 1_555 1_555
C2 C4 1_555 1_555
C3 B3 1_555 1_555
C3 B5 1_555 1_555
C6 C8 1_555 1_555
C11 C12 1_555 1_555
B1 B2 1_555 1_555
B1 B5 1_555 1_555
B2 B3 1_555 1_555
B2 B8 1_555 1_555
B3 B6 1_555 1_555
B3 B9 1_555 1_555
B4 B5 1_555 1_555
B4 B6 1_555 1_555
B4 B7 1_555 1_555
B5 B7 1_555 1_555
B6 B9 1_555 1_555
B6 B10 1_555 1_555
B7 B8 1_555 1_555
B7 B10 1_555 1_555
B8 B9 1_555 1_555
B8 B10 1_555 1_555
C15 C16 1_555 1_555
B9 B10 1_555 1_555

#END
