
#######################################################################
#
#                 Cambridge Crystallographic Data Centre
#                                CCDC 
#
#######################################################################
#
# If this CIF has been generated from an entry in the Cambridge 
# Structural Database, then it will include bibliographic, chemical, 
# crystal, experimental, refinement or atomic coordinate data resulting 
# from the CCDC's data processing and validation procedures.
#
#######################################################################

data_UDOXUH
_chemical_formula_moiety         'C33 H37 N1 O12,H4 N1 1+,F6 P1 1-'
_chemical_name_systematic        
'cis-5,8,11,14,21,24,27,30,34,42-decaoxa-44-azapentacyclo[16.14.11.1^36,40^.0^4,31^.0^15,20^]tetratetraconta-1,3,15,17,19,31,36(44),37,39-nonaene-35,41-dione ammonium clathrate hexafluorophosphate'
_symmetry_cell_setting           triclinic
_symmetry_space_group_name_H-M   'P -1'
_symmetry_Int_Tables_number      2
_space_group_name_Hall           '-P 1'
loop_
_symmetry_equiv_pos_site_id
_symmetry_equiv_pos_as_xyz
1 x,y,z
2 -x,-y,-z
_cell_length_a                   9.6495(17)
_cell_length_b                   10.9594(15)
_cell_length_c                   17.261(3)
_cell_angle_alpha                93.100(12)
_cell_angle_beta                 95.003(14)
_cell_angle_gamma                97.215(13)
_cell_volume                     1800.13
_exptl_crystal_colour            colorless
_exptl_crystal_description       plate
_cell_formula_units_Z            2
loop_
_atom_site_label
_atom_site_type_symbol
_atom_site_fract_x
_atom_site_fract_y
_atom_site_fract_z
P1 P 0.30278(8) 0.51226(7) 0.13555(5)
F1 F 0.24740(18) 0.36842(15) 0.13945(10)
F2 F 0.35794(18) 0.65495(15) 0.13109(11)
F3 F 0.16441(17) 0.52773(16) 0.08071(10)
F4 F 0.22516(19) 0.54331(16) 0.21065(10)
F5 F 0.38071(18) 0.48045(16) 0.06033(10)
F6 F 0.44159(18) 0.49629(16) 0.18951(10)
O1 O 0.9940(2) 1.10984(17) 0.28674(11)
O2 O 0.8718(2) 1.30694(17) 0.21748(12)
O3 O 0.7250(2) 1.25335(17) 0.07043(12)
O4 O 0.5289(2) 1.08466(17) 0.13876(12)
O5 O 1.0799(2) 0.92290(17) 0.21913(11)
O6 O 1.0386(2) 0.90119(18) 0.05696(11)
O7 O 0.8025(2) 0.78417(18) 0.11999(12)
O8 O 0.6094(2) 0.89107(19) 0.19579(13)
O9 O 0.7915(2) 0.64536(18) 0.45820(12)
O10 O 0.8596(2) 0.5334(2) 0.55624(13)
O11 O 0.4175(2) 0.85625(17) 0.46115(11)
O12 O 0.2320(2) 0.79238(19) 0.52549(12)
N1 N 0.5605(2) 0.6843(2) 0.51955(14)
C1 C 0.9783(3) 1.0022(3) 0.32541(17)
C2 C 1.0246(3) 0.9003(3) 0.28835(17)
C3 C 1.0099(3) 0.7884(3) 0.32170(16)
H5 H 1.0426 0.7191 0.2973
C4 C 0.9468(3) 0.7770(3) 0.39148(17)
C5 C 0.9015(3) 0.8777(3) 0.42671(18)
H6 H 0.8585 0.8696 0.4739
C6 C 0.9174(3) 0.9911(3) 0.39464(17)
H7 H 0.8867 1.0606 0.4200
C7 C 0.4817(3) 1.0593(3) 0.20956(18)
C8 C 0.5276(3) 0.9547(3) 0.24203(18)
C9 C 0.4873(3) 0.9204(3) 0.31371(18)
H8 H 0.5203 0.8508 0.3360
C10 C 0.3985(3) 0.9872(3) 0.35334(17)
C11 C 0.3529(3) 1.0891(3) 0.32032(17)
H9 H 0.2926 1.1354 0.3470
C12 C 0.3935(3) 1.1249(3) 0.24902(18)
H10 H 0.3605 1.1949 0.2272
C13 C 0.9680(4) 1.2204(3) 0.32890(18)
H11 H 1.0341 1.2380 0.3765
H12 H 0.8710 1.2111 0.3443
C14 C 0.8893(3) 1.3880(3) 0.15650(17)
H13 H 0.9663 1.3667 0.1261
H14 H 0.9139 1.4740 0.1787
C15 C 0.9888(4) 1.3223(3) 0.27544(17)
H15 H 0.9945 1.4031 0.3049
H16 H 1.0771 1.3192 0.2506
C16 C 0.7558(3) 1.3764(3) 0.10478(19)
H17 H 0.6784 1.3960 0.1354
H18 H 0.7649 1.4353 0.0634
C17 C 0.5810(3) 1.2228(3) 0.04140(18)
H19 H 0.5714 1.1508 0.0032
H20 H 0.5496 1.2929 0.0139
C18 C 0.4890(3) 1.1935(3) 0.10495(19)
H21 H 0.5009 1.2632 0.1450
H22 H 0.3893 1.1790 0.0835
C19 C 1.1313(3) 0.8230(3) 0.17878(17)
H23 H 1.0610 0.7484 0.1746
H24 H 1.2190 0.8037 0.2069
C20 C 1.1583(3) 0.8636(3) 0.09956(18)
H25 H 1.2353 0.9333 0.1051
H26 H 1.1903 0.7950 0.0691
C21 C 0.9445(4) 0.8070(3) 0.0134(2)
H27 H 1.0001 0.7580 -0.0189
H28 H 0.8815 0.8470 -0.0227
C22 C 0.8575(4) 0.7221(3) 0.0569(2)
H29 H 0.7788 0.6785 0.0212
H30 H 0.9140 0.6597 0.0776
C23 C 0.6963(3) 0.7104(3) 0.15285(19)
H31 H 0.7316 0.6340 0.1696
H32 H 0.6154 0.6867 0.1133
C24 C 0.6494(3) 0.7787(3) 0.22186(18)
H33 H 0.5690 0.7292 0.2421
H34 H 0.7269 0.7955 0.2641
C25 C 0.9275(3) 0.6545(3) 0.42774(19)
H35 H 0.9302 0.5861 0.3882
H36 H 1.0025 0.6509 0.4702
C26 C 0.7742(3) 0.5897(3) 0.52392(18)
C27 C 0.3401(3) 0.9490(3) 0.42738(17)
H37 H 0.3469 1.0217 0.4649
H38 H 0.2398 0.9152 0.4163
C28 C 0.3511(3) 0.7860(3) 0.51076(17)
C29 C 0.6368(3) 0.6042(3) 0.55384(17)
C30 C 0.5948(3) 0.5374(3) 0.61557(17)
H39 H 0.6529 0.4832 0.6391
C31 C 0.4665(3) 0.5514(3) 0.64208(18)
H40 H 0.4344 0.5061 0.6839
C32 C 0.3853(3) 0.6318(3) 0.60712(17)
H41 H 0.2962 0.6424 0.6239
C33 C 0.4371(3) 0.6968(3) 0.54693(16)
N2 N 0.8456(3) 1.0519(3) 0.13425(17)
H1 H 0.775(4) 0.990(3) 0.141(3)
H2 H 0.879(4) 1.086(3) 0.1813(14)
H3 H 0.917(4) 1.030(5) 0.105(3)
H4 H 0.791(4) 1.113(3) 0.128(2)
loop_
_geom_bond_atom_site_label_1
_geom_bond_atom_site_label_2
_geom_bond_site_symmetry_1
_geom_bond_site_symmetry_2
P1 F1 1_555 1_555
F2 P1 1_555 1_555
F3 P1 1_555 1_555
F4 P1 1_555 1_555
F5 P1 1_555 1_555
F6 P1 1_555 1_555
O1 C1 1_555 1_555
O2 C14 1_555 1_555
O3 C16 1_555 1_555
O4 C7 1_555 1_555
O5 C2 1_555 1_555
O6 C20 1_555 1_555
O7 C22 1_555 1_555
O8 C8 1_555 1_555
O9 C25 1_555 1_555
O10 C26 1_555 1_555
O11 C27 1_555 1_555
O12 C28 1_555 1_555
N1 C29 1_555 1_555
N2 H1 1_555 1_555
H2 N2 1_555 1_555
H3 N2 1_555 1_555
H4 N2 1_555 1_555
C1 C2 1_555 1_555
C2 C3 1_555 1_555
C3 H5 1_555 1_555
C4 C3 1_555 1_555
C5 C4 1_555 1_555
H6 C5 1_555 1_555
C6 C1 1_555 1_555
H7 C6 1_555 1_555
C7 C8 1_555 1_555
C8 C9 1_555 1_555
C9 H8 1_555 1_555
C10 C9 1_555 1_555
C11 C10 1_555 1_555
H9 C11 1_555 1_555
C12 C7 1_555 1_555
H10 C12 1_555 1_555
C13 O1 1_555 1_555
H11 C13 1_555 1_555
H12 C13 1_555 1_555
C14 H13 1_555 1_555
H14 C14 1_555 1_555
C15 O2 1_555 1_555
H15 C15 1_555 1_555
H16 C15 1_555 1_555
C16 C14 1_555 1_555
H17 C16 1_555 1_555
H18 C16 1_555 1_555
C17 O3 1_555 1_555
H19 C17 1_555 1_555
H20 C17 1_555 1_555
C18 O4 1_555 1_555
H21 C18 1_555 1_555
H22 C18 1_555 1_555
C19 O5 1_555 1_555
H23 C19 1_555 1_555
H24 C19 1_555 1_555
C20 C19 1_555 1_555
H25 C20 1_555 1_555
H26 C20 1_555 1_555
C21 O6 1_555 1_555
H27 C21 1_555 1_555
H28 C21 1_555 1_555
C22 C21 1_555 1_555
H29 C22 1_555 1_555
H30 C22 1_555 1_555
C23 O7 1_555 1_555
H31 C23 1_555 1_555
H32 C23 1_555 1_555
C24 O8 1_555 1_555
H33 C24 1_555 1_555
H34 C24 1_555 1_555
C25 C4 1_555 1_555
H35 C25 1_555 1_555
H36 C25 1_555 1_555
C26 O9 1_555 1_555
C27 C10 1_555 1_555
H37 C27 1_555 1_555
H38 C27 1_555 1_555
C28 O11 1_555 1_555
C29 C26 1_555 1_555
C30 C29 1_555 1_555
H39 C30 1_555 1_555
C31 C30 1_555 1_555
H40 C31 1_555 1_555
C32 C31 1_555 1_555
H41 C32 1_555 1_555
C33 N1 1_555 1_555
C5 C6 1_555 1_555
C11 C12 1_555 1_555
C13 C15 1_555 1_555
C17 C18 1_555 1_555
C23 C24 1_555 1_555
C28 C33 1_555 1_555
C32 C33 1_555 1_555

#END
