
#######################################################################
#
#                 Cambridge Crystallographic Data Centre
#                                CCDC 
#
#######################################################################
#
# If this CIF has been generated from an entry in the Cambridge 
# Structural Database, then it will include bibliographic, chemical, 
# crystal, experimental, refinement or atomic coordinate data resulting 
# from the CCDC's data processing and validation procedures.
#
#######################################################################

data_UDOXAN
_chemical_formula_moiety         'C33 H37 N1 O12'
_chemical_name_systematic        
cis-5,8,11,14,21,24,27,30,34,42-decaoxa-44-azapentacyclo[16.14.11.1^36,40^.0^4,31^.0^15,20^]tetratetraconta-1,3,15,17,19,31,36(44),37,39-nonaene-35,41-dione
_symmetry_cell_setting           triclinic
_symmetry_space_group_name_H-M   'P -1'
_symmetry_Int_Tables_number      2
_space_group_name_Hall           '-P 1'
loop_
_symmetry_equiv_pos_site_id
_symmetry_equiv_pos_as_xyz
1 x,y,z
2 -x,-y,-z
_cell_length_a                   7.2580(15)
_cell_length_b                   12.171(2)
_cell_length_c                   17.846(3)
_cell_angle_alpha                74.797(16)
_cell_angle_beta                 89.679(16)
_cell_angle_gamma                79.180(16)
_cell_volume                     1492.66
_exptl_crystal_colour            colorless
_exptl_crystal_description       plate
_cell_formula_units_Z            2
_exptl_crystal_recrystallization_method pentane/acetone
loop_
_atom_site_label
_atom_site_type_symbol
_atom_site_fract_x
_atom_site_fract_y
_atom_site_fract_z
O1 O 0.3759(3) -0.04797(17) 0.25132(14)
O4 O 0.3624(7) -0.1672(5) 0.1230(3)
O5 O -0.013(2) 0.0898(14) 0.0749(7)
O6 O -0.2944(3) 0.27443(15) 0.11480(11)
O7 O 0.2328(3) 0.15390(15) 0.26542(11)
O8 O 0.1451(2) 0.45991(15) 0.17747(9)
O9 O -0.1120(2) 0.67939(14) 0.10035(10)
O10 O -0.3072(3) 0.49626(13) 0.07639(10)
O11 O 0.1625(3) 0.06485(19) 0.68278(11)
O12 O 0.1342(2) 0.11616(15) 0.55256(10)
O13 O -0.3624(3) 0.59797(16) 0.46956(11)
O14 O -0.2533(2) 0.44953(14) 0.41831(9)
N1 N -0.0754(3) 0.32194(18) 0.55046(11)
C1 C 0.3436(4) -0.0415(2) 0.32582(19)
C2 C 0.2658(3) 0.0692(2) 0.33406(16)
C3 C 0.2295(3) 0.0856(2) 0.40697(16)
H1 H 0.1786 0.1609 0.4122
C4 C 0.2678(3) -0.0088(2) 0.47323(17)
C5 C 0.3448(4) -0.1172(2) 0.4639(2)
H2 H 0.3720 -0.1816 0.5085
C6 C 0.3834(4) -0.1343(2) 0.3911(2)
H3 H 0.4370 -0.2094 0.3862
C7 C -0.3068(3) 0.32474(19) 0.17529(14)
C8 C -0.3152(3) 0.4456(2) 0.15396(14)
C9 C -0.3261(3) 0.5037(2) 0.21157(14)
H4 H -0.3266 0.5846 0.1976
C10 C -0.3361(3) 0.4460(2) 0.28899(14)
C11 C -0.3289(3) 0.3268(2) 0.30987(15)
H5 H -0.3351 0.2865 0.3629
C12 C -0.3127(3) 0.2667(2) 0.25275(15)
H6 H -0.3056 0.1851 0.2672
C13 C 0.4745(4) -0.1570(2) 0.2419(2)
H7 H 0.3956 -0.2166 0.2576
H8 H 0.5917 -0.1831 0.2751
C14 C 0.5196(4) -0.1411(3) 0.1584(2)
H9 H 0.622(3) -0.203(2) 0.1508(18)
H10 H 0.565(6) -0.067(3) 0.140(3)
C18 C 0.1804(7) -0.1005(4) 0.1267(3)
H17 H 0.1451 -0.1150 0.1816
H18 H 0.0880 -0.1262 0.0978
C19 C 0.1713(8) 0.0284(5) 0.0930(3)
H19 H 0.2305 0.0592 0.1310
H20 H 0.2437 0.0409 0.0454
C20 C -0.1239(7) 0.0839(4) 0.1449(3)
H21 H -0.1387 0.0026 0.1669
H22 H -0.0520 0.1053 0.1841
C21 C -0.2943(5) 0.1521(3) 0.1333(2)
H23 H -0.402(3) 0.131(2) 0.1624(16)
H25 H -0.331(10) 0.153(6) 0.0791(17)
C22 C 0.1872(3) 0.27286(19) 0.26704(14)
H26 H 0.2832 0.2918 0.2982
H27 H 0.0630 0.2902 0.2890
C23 C 0.1850(3) 0.3392(2) 0.18315(14)
H28 H 0.3085 0.3181 0.1615
H29 H 0.0881 0.3194 0.1529
C24 C 0.1591(4) 0.5260(2) 0.09984(14)
H30 H 0.0844 0.5002 0.0638
H31 H 0.2917 0.5141 0.0852
C25 C 0.0875(4) 0.6526(2) 0.09349(15)
H32 H 0.1506 0.6747 0.1348
H33 H 0.1205 0.6993 0.0427
C26 C -0.2162(4) 0.6854(2) 0.03114(14)
H34 H -0.1307 0.6531 -0.0045
H35 H -0.2682 0.7677 0.0047
C27 C -0.3729(4) 0.6201(2) 0.04798(14)
H36 H -0.4519 0.6479 0.0872
H37 H -0.4523 0.6364 -0.0001
C28 C 0.0077(3) 0.2563(2) 0.61818(14)
C29 C 0.0051(4) 0.2942(3) 0.68530(15)
H38 H 0.0597 0.2430 0.7330
C30 C -0.0783(4) 0.4076(3) 0.68144(16)
H39 H -0.0775 0.4369 0.7258
C31 C -0.1629(4) 0.4776(3) 0.61152(16)
H40 H -0.2198 0.5562 0.6065
C32 C -0.1628(3) 0.4298(2) 0.54858(14)
C33 C 0.1082(3) 0.1355(2) 0.62186(14)
C34 C 0.2347(4) 0.0009(2) 0.55400(17)
H41 H 0.1608 -0.0573 0.5808
H42 H 0.3565 -0.0151 0.5833
C35 C -0.2697(3) 0.5020(2) 0.47537(14)
C36 C -0.3600(3) 0.5158(2) 0.34725(13)
H43 H -0.3152 0.5895 0.3263
H44 H -0.4945 0.5348 0.3580
O2? O 0.3864(8) -0.1246(5) 0.0926(3)
O3? O -0.047(2) 0.0949(14) 0.0543(8)
C15? C 0.2683(8) -0.0128(5) 0.0659(3)
H11? H 0.2638 0.0120 0.0084
H12? H 0.3213 0.0443 0.0854
C16? C 0.0718(9) -0.0153(4) 0.0938(3)
H13? H 0.0246 -0.0802 0.0816
H14? H 0.0715 -0.0264 0.1508
C17? C -0.2329(8) 0.1005(4) 0.0731(3)
H15? H -0.2573 0.0204 0.0876
H16? H -0.3117 0.1436 0.0257
H24? H -0.195(17) 0.109(12) 0.174(7)
loop_
_geom_bond_atom_site_label_1
_geom_bond_atom_site_label_2
_geom_bond_site_symmetry_1
_geom_bond_site_symmetry_2
O1 C1 1_555 1_555
O4 C14 1_555 1_555
O5 C19 1_555 1_555
O6 C7 1_555 1_555
O7 C2 1_555 1_555
O8 C23 1_555 1_555
O9 C25 1_555 1_555
O10 C8 1_555 1_555
O11 C33 1_555 1_555
O12 C33 1_555 1_555
O13 C35 1_555 1_555
O14 C35 1_555 1_555
N1 C28 1_555 1_555
C1 C2 1_555 1_555
C2 C3 1_555 1_555
C3 H1 1_555 1_555
C4 C3 1_555 1_555
C5 C4 1_555 1_555
H2 C5 1_555 1_555
C6 C1 1_555 1_555
H3 C6 1_555 1_555
C7 C8 1_555 1_555
C8 C9 1_555 1_555
C9 H4 1_555 1_555
C10 C9 1_555 1_555
C11 C10 1_555 1_555
H5 C11 1_555 1_555
C12 C7 1_555 1_555
H6 C12 1_555 1_555
C13 O1 1_555 1_555
H7 C13 1_555 1_555
H8 C13 1_555 1_555
C14 C13 1_555 1_555
H9 C14 1_555 1_555
H10 C14 1_555 1_555
C18 O4 1_555 1_555
H17 C18 1_555 1_555
H18 C18 1_555 1_555
C19 C18 1_555 1_555
H19 C19 1_555 1_555
H20 C19 1_555 1_555
C20 O5 1_555 1_555
H21 C20 1_555 1_555
H22 C20 1_555 1_555
C21 O6 1_555 1_555
H23 C21 1_555 1_555
H25 C21 1_555 1_555
C22 O7 1_555 1_555
H26 C22 1_555 1_555
H27 C22 1_555 1_555
C23 C22 1_555 1_555
H28 C23 1_555 1_555
H29 C23 1_555 1_555
C24 O8 1_555 1_555
H30 C24 1_555 1_555
H31 C24 1_555 1_555
C25 C24 1_555 1_555
H32 C25 1_555 1_555
H33 C25 1_555 1_555
C26 O9 1_555 1_555
H34 C26 1_555 1_555
H35 C26 1_555 1_555
C27 O10 1_555 1_555
H36 C27 1_555 1_555
H37 C27 1_555 1_555
C28 C29 1_555 1_555
C29 H38 1_555 1_555
C30 C29 1_555 1_555
H39 C30 1_555 1_555
C31 C30 1_555 1_555
H40 C31 1_555 1_555
C32 N1 1_555 1_555
C33 C28 1_555 1_555
C34 O12 1_555 1_555
H41 C34 1_555 1_555
H42 C34 1_555 1_555
C35 C32 1_555 1_555
C36 O14 1_555 1_555
H43 C36 1_555 1_555
H44 C36 1_555 1_555
C4 C34 1_555 1_555
C5 C6 1_555 1_555
C10 C36 1_555 1_555
C11 C12 1_555 1_555
C20 C21 1_555 1_555
C26 C27 1_555 1_555
C31 C32 1_555 1_555

#END
