
#######################################################################
#
#                 Cambridge Crystallographic Data Centre
#                                CCDC 
#
#######################################################################
#
# If this CIF has been generated from an entry in the Cambridge 
# Structural Database, then it will include bibliographic, chemical, 
# crystal, experimental, refinement or atomic coordinate data resulting 
# from the CCDC's data processing and validation procedures.
#
#######################################################################

data_UDOZEV
_chemical_formula_moiety         'C8 H12 N6 O4 S2,H2 O1'
_chemical_name_systematic        
"2,2'-(2-(1,2-dihydroxyethyl)-5-oxofuran-3,4(2H,5H)-diylidene)dihydrazinecarbothioamide monohydrate"
_symmetry_cell_setting           triclinic
_symmetry_space_group_name_H-M   'P 1'
_symmetry_Int_Tables_number      1
_space_group_name_Hall           'P 1'
loop_
_symmetry_equiv_pos_site_id
_symmetry_equiv_pos_as_xyz
1 x,y,z
_cell_length_a                   6.9561(8)
_cell_length_b                   10.0812(12)
_cell_length_c                   11.4702(14)
_cell_angle_alpha                65.473(11)
_cell_angle_beta                 87.147(9)
_cell_angle_gamma                75.179(10)
_cell_volume                     705.973
_exptl_crystal_colour            brown
_exptl_crystal_description       prism
_cell_formula_units_Z            2
loop_
_atom_site_label
_atom_site_type_symbol
_atom_site_fract_x
_atom_site_fract_y
_atom_site_fract_z
S1 S 0.5407(3) -0.9144(3) 1.8939(2)
O1 O 0.6521(8) -1.5525(6) 1.6709(5)
N1 N 0.4936(9) -1.0440(7) 1.6230(6)
C1 C 0.6067(11) -1.4182(10) 1.6304(9)
S2 S 0.8585(3) -1.7615(2) 2.1038(2)
O2 O 0.5680(7) -1.3259(5) 1.5043(5)
N2 N 0.5126(8) -1.0477(7) 1.7417(7)
H1 H 0.5267 -1.1306 1.8096
C2 C 0.5841(10) -1.3252(8) 1.7031(8)
O3 O 0.8353(7) -1.1245(5) 1.4428(5)
H2 H 0.8372 -1.1182 1.5117
N3 N 0.4760(10) -0.7942(8) 1.6412(6)
H3 H 0.4589 -0.8025 1.5710
H4 H 0.4716 -0.7074 1.6394
C3 C 0.5158(11) -1.1713(10) 1.6170(7)
N4 N 0.6220(8) -1.3734(7) 1.8292(6)
O4 O 0.4436(10) -1.0359(7) 1.2031(6)
H5 H 0.4083 -0.9448 1.1833
C4 C 0.5047(11) -1.1678(9) 1.4850(7)
H6 H 0.3665 -1.1245 1.4490
N5 N 0.6956(9) -1.5210(7) 1.8992(6)
H7 H 0.7070 -1.5829 1.8640
C5 C 0.6336(11) -1.0854(8) 1.3949(7)
H8 H 0.5784 -0.9786 1.3769
N6 N 0.7148(9) -1.4826(8) 2.0795(7)
H9 H 0.6543 -1.3895 2.0349
H10 H 0.7491 -1.5131 2.1593
C6 C 0.6422(11) -1.0955(9) 1.2618(7)
H11 H 0.7297 -1.0375 1.2076
H12 H 0.6930 -1.1997 1.2738
C7 C 0.5085(10) -0.9128(10) 1.7498(8)
C8 C 0.7536(10) -1.5754(9) 2.0272(8)
S3 S 0.1249(3) -1.4409(2) 1.6017(2)
O5 O 0.0142(7) -0.7984(6) 1.8240(6)
N7 N 0.0755(9) -1.3008(7) 1.8746(6)
C9 C 0.0174(11) -0.9285(11) 1.8670(9)
S4 S -0.0787(4) -0.5814(2) 1.3820(2)
O6 O 0.0365(8) -1.0201(6) 1.9930(6)
N8 N 0.0816(9) -1.3044(7) 1.7559(5)
H13 H 0.0498 -1.2213 1.6878
C10 C 0.0135(10) -1.0193(9) 1.7925(8)
N9 N 0.2060(10) -1.5568(8) 1.8508(7)
H14 H 0.2144 -1.5490 1.9221
H15 H 0.2432 -1.6440 1.8487
O7 O 0.4032(7) -1.2217(5) 2.0361(4)
H16 H 0.4340 -1.1701 2.0680
C11 C 0.0488(11) -1.1749(9) 1.8845(7)
N10 N -0.0050(8) -0.9744(7) 1.6695(6)
O8 O 0.4085(8) -1.3930(6) 2.3041(5)
H17 H 0.4015 -1.4184 2.3984
C12 C 0.0469(12) -1.1730(9) 2.0175(7)
H18 H -0.0695 -1.2028 2.0617
N11 N -0.0262(8) -0.8222(8) 1.5953(7)
H19 H -0.0190 -0.7648 1.6325
C13 C 0.2423(11) -1.2777(8) 2.0998(7)
H20 H 0.2589 -1.3793 2.1044
N12 N -0.0637(9) -0.8596(8) 1.4155(7)
H21 H -0.0475 -0.9534 1.4660
H22 H -0.0832 -0.8297 1.3341
C14 C 0.2234(12) -1.2855(10) 2.2363(8)
H23 H 0.2120 -1.1876 2.2362
H24 H 0.1087 -1.3212 2.2746
C15 C 0.1367(11) -1.4363(10) 1.7456(8)
C16 C -0.0585(11) -0.7596(10) 1.4638(9)
O9 O 0.4171(9) -0.6832(9) 1.3492(7)
H25 H 0.4485 -0.6255 1.3419
H26 H 0.3053 -0.6404 1.3405
O10 O 0.3134(11) -0.7125(9) 1.1321(7)
H27 H 0.3692 -0.6718 1.0613
H28 H 0.3356 -0.7014 1.1924
loop_
_geom_bond_atom_site_label_1
_geom_bond_atom_site_label_2
_geom_bond_site_symmetry_1
_geom_bond_site_symmetry_2
S1 C7 1_555 1_555
O1 C1 1_555 1_555
N1 N2 1_555 1_555
C1 O2 1_555 1_555
S2 C8 1_555 1_555
O2 C4 1_555 1_555
N2 H1 1_555 1_555
C2 C1 1_555 1_555
O3 H2 1_555 1_555
N3 H3 1_555 1_555
H4 N3 1_555 1_555
C3 N1 1_555 1_555
N4 C2 1_555 1_555
O4 H5 1_555 1_555
C4 C3 1_555 1_555
H6 C4 1_555 1_555
N5 N4 1_555 1_555
H7 N5 1_555 1_555
C5 O3 1_555 1_555
H8 C5 1_555 1_555
N6 H9 1_555 1_555
H10 N6 1_555 1_555
C6 O4 1_555 1_555
H11 C6 1_555 1_555
H12 C6 1_555 1_555
C7 N2 1_555 1_555
C8 N5 1_555 1_555
S3 C15 1_555 1_555
O5 C9 1_555 1_555
N7 N8 1_555 1_555
C9 O6 1_555 1_555
S4 C16 1_555 1_555
O6 C12 1_555 1_555
N8 H13 1_555 1_555
C10 C9 1_555 1_555
N9 H14 1_555 1_555
H15 N9 1_555 1_555
O7 H16 1_555 1_555
C11 N7 1_555 1_555
N10 C10 1_555 1_555
O8 H17 1_555 1_555
C12 C11 1_555 1_555
H18 C12 1_555 1_555
N11 N10 1_555 1_555
H19 N11 1_555 1_555
C13 O7 1_555 1_555
H20 C13 1_555 1_555
N12 H21 1_555 1_555
H22 N12 1_555 1_555
C14 O8 1_555 1_555
H23 C14 1_555 1_555
H24 C14 1_555 1_555
C15 N8 1_555 1_555
C16 N11 1_555 1_555
O9 H25 1_555 1_555
H26 O9 1_555 1_555
O10 H27 1_555 1_555
H28 O10 1_555 1_555
C2 C3 1_555 1_555
N3 C7 1_555 1_555
C4 C5 1_555 1_555
C5 C6 1_555 1_555
N6 C8 1_555 1_555
C10 C11 1_555 1_555
N9 C15 1_555 1_555
C12 C13 1_555 1_555
C13 C14 1_555 1_555
N12 C16 1_555 1_555

#END
