
#######################################################################
#
#                 Cambridge Crystallographic Data Centre
#                                CCDC 
#
#######################################################################
#
# If this CIF has been generated from an entry in the Cambridge 
# Structural Database, then it will include bibliographic, chemical, 
# crystal, experimental, refinement or atomic coordinate data resulting 
# from the CCDC's data processing and validation procedures.
#
#######################################################################

data_UDOZOD
_chemical_name_common            'O-methyl 4-methylcarboxysydnone N-oxide'
_chemical_formula_moiety         'C5 H6 N2 O5'
_chemical_name_systematic        
3-methoxy-4-(methoxycarbonyl)-5-oxo-4,5-dihydro-1,2,3-oxadiazol-3-ium-4-ide
_symmetry_cell_setting           orthorhombic
_symmetry_space_group_name_H-M   'P 21 21 21'
_symmetry_Int_Tables_number      19
_space_group_name_Hall           'P 2ac 2ab'
loop_
_symmetry_equiv_pos_site_id
_symmetry_equiv_pos_as_xyz
1 x,y,z
2 1/2-x,-y,1/2+z
3 -x,1/2+y,1/2-z
4 1/2+x,1/2-y,-z
_cell_length_a                   5.0184(7)
_cell_length_b                   7.3717(10)
_cell_length_c                   18.440(2)
_cell_angle_alpha                90
_cell_angle_beta                 90
_cell_angle_gamma                90
_cell_volume                     682.172
_exptl_crystal_colour            colorless
_exptl_crystal_description       flake
_chemical_melting_point          '41-42 deg.C'
_cell_formula_units_Z            4
loop_
_atom_site_label
_atom_site_type_symbol
_atom_site_fract_x
_atom_site_fract_y
_atom_site_fract_z
N1 N 1.0506(3) 0.9239(2) 0.59939(8)
N2 N 1.2356(3) 0.9679(2) 0.55374(9)
O1 O 0.8632(2) 1.04673(17) 0.61799(8)
O2 O 1.3863(3) 0.81183(18) 0.54672(7)
C1 C 1.0574(3) 0.7511(2) 0.62598(9)
C2 C 1.2807(3) 0.6714(2) 0.59127(10)
O3 O 1.3862(2) 0.52405(17) 0.59146(8)
C3 C 0.8909(3) 0.6684(3) 0.68127(10)
O4 O 0.9373(3) 0.51730(17) 0.70400(7)
O5 O 0.6895(3) 0.77377(16) 0.70370(7)
C4 C 0.5338(4) 0.6994(2) 0.76268(10)
H1 H 0.3921 0.7849 0.7758
H2 H 0.6493 0.6790 0.8047
H3 H 0.4544 0.5840 0.7475
C5 C 0.8740(4) 1.2114(2) 0.57416(9)
H4 H 0.7337 1.2951 0.5899
H5 H 0.8472 1.1802 0.5230
H6 H 1.0483 1.2693 0.5802
loop_
_geom_bond_atom_site_label_1
_geom_bond_atom_site_label_2
_geom_bond_site_symmetry_1
_geom_bond_site_symmetry_2
N1 N2 1_555 1_555
N2 O2 1_555 1_555
O1 N1 1_555 1_555
O2 C2 1_555 1_555
C1 N1 1_555 1_555
C2 C1 1_555 1_555
O3 C2 1_555 1_555
C3 C1 1_555 1_555
O4 C3 1_555 1_555
O5 C3 1_555 1_555
C4 O5 1_555 1_555
H1 C4 1_555 1_555
H2 C4 1_555 1_555
H3 C4 1_555 1_555
C5 O1 1_555 1_555
H4 C5 1_555 1_555
H5 C5 1_555 1_555
H6 C5 1_555 1_555

#END
