
#######################################################################
#
#                 Cambridge Crystallographic Data Centre
#                                CCDC 
#
#######################################################################
#
# If this CIF has been generated from an entry in the Cambridge 
# Structural Database, then it will include bibliographic, chemical, 
# crystal, experimental, refinement or atomic coordinate data resulting 
# from the CCDC's data processing and validation procedures.
#
#######################################################################

data_UDUDED
_chemical_formula_moiety         'C60 H66 O6'
_chemical_name_systematic        
1,2,7,8,13,14-hexabutoxytribenzeno[a,g,m]coronene
_symmetry_cell_setting           triclinic
_symmetry_space_group_name_H-M   'P -1'
_symmetry_Int_Tables_number      2
_space_group_name_Hall           '-P 1'
loop_
_symmetry_equiv_pos_site_id
_symmetry_equiv_pos_as_xyz
1 x,y,z
2 -x,-y,-z
_cell_length_a                   12.320(3)
_cell_length_b                   13.408(3)
_cell_length_c                   14.101(3)
_cell_angle_alpha                86.890(8)
_cell_angle_beta                 87.282(6)
_cell_angle_gamma                84.369(6)
_cell_volume                     2312.56
_exptl_crystal_colour            colorless
_exptl_crystal_description       block
_cell_formula_units_Z            2
_exptl_crystal_recrystallization_method acetone
loop_
_atom_site_label
_atom_site_type_symbol
_atom_site_fract_x
_atom_site_fract_y
_atom_site_fract_z
O1 O 0.17427(9) 0.41280(8) -0.09228(8)
O2 O 0.29595(9) 0.48324(8) 0.03163(8)
O3 O 0.20726(9) 0.36508(8) 0.52414(8)
O4 O 0.02079(9) 0.28093(8) 0.57532(8)
O5 O -0.29002(9) 0.08925(8) 0.24065(8)
O6 O -0.23240(9) 0.10152(8) 0.05487(8)
C1 C 0.16818(13) 0.37160(11) -0.00048(11)
C2 C 0.23167(13) 0.40899(11) 0.06461(12)
C3 C 0.23190(12) 0.37102(11) 0.16057(12)
C4 C 0.31147(13) 0.39386(11) 0.22754(12)
C5 C 0.41176(13) 0.42932(12) 0.19572(13)
H1 H 0.4265 0.4399 0.1294
C6 C 0.48856(14) 0.44902(13) 0.25784(14)
H2 H 0.5554 0.4728 0.2346
C7 C 0.46772(15) 0.43401(14) 0.35463(14)
H3 H 0.5197 0.4490 0.3981
C8 C 0.37166(14) 0.39739(13) 0.38797(13)
H4 H 0.3588 0.3875 0.4546
C9 C 0.29197(13) 0.37411(11) 0.32642(12)
C10 C 0.19315(13) 0.32641(11) 0.35950(12)
C11 C 0.15591(13) 0.31912(11) 0.45599(12)
C12 C 0.06381(13) 0.27094(12) 0.48333(11)
C13 C 0.01396(13) 0.21406(11) 0.42031(11)
C14 C -0.06558(13) 0.14345(11) 0.45180(11)
C15 C -0.07145(14) 0.10428(12) 0.54691(12)
H5 H -0.0275 0.1284 0.5926
C16 C -0.13986(14) 0.03173(12) 0.57437(12)
H6 H -0.1438 0.0073 0.6388
C17 C -0.20320(14) -0.00592(12) 0.50811(13)
H7 H -0.2508 -0.0555 0.5274
C18 C -0.19691(14) 0.02878(12) 0.41444(12)
H8 H -0.2388 0.0013 0.3693
C19 C -0.12901(13) 0.10472(11) 0.38439(11)
C20 C -0.11383(13) 0.13572(11) 0.28394(11)
C21 C -0.18684(13) 0.11655(11) 0.21495(12)
C22 C -0.15857(13) 0.12472(11) 0.11838(11)
C23 C -0.06107(13) 0.16463(11) 0.08593(11)
C24 C -0.02297(13) 0.16818(11) -0.01400(11)
C25 C -0.05606(14) 0.10263(12) -0.07966(12)
H9 H -0.1093 0.0584 -0.0598
C26 C -0.01340(14) 0.10086(13) -0.17182(12)
H10 H -0.0369 0.0558 -0.2145
C27 C 0.06433(14) 0.16561(12) -0.20179(12)
H11 H 0.0934 0.1654 -0.2654
C28 C 0.09906(14) 0.22958(12) -0.13981(12)
H12 H 0.1525 0.2731 -0.1613
C29 C 0.05760(13) 0.23273(11) -0.04438(11)
C30 C 0.10319(13) 0.29186(11) 0.02464(11)
C31 C 0.08713(12) 0.26705(11) 0.12331(11)
C32 C 0.15064(12) 0.30686(11) 0.19090(11)
C33 C 0.13057(13) 0.28507(11) 0.29217(12)
C34 C 0.04358(13) 0.22607(11) 0.32204(11)
C35 C -0.02118(12) 0.18599(11) 0.25305(11)
C36 C 0.00193(13) 0.20395(11) 0.15400(11)
C37 C 0.07831(13) 0.47519(12) -0.12063(12)
H13 H 0.0646 0.5329 -0.0793
H14 H 0.0139 0.4362 -0.1149
C38 C 0.09750(13) 0.51199(12) -0.22271(12)
H15 H 0.0312 0.5534 -0.2439
H16 H 0.1093 0.4534 -0.2631
C39 C 0.19491(14) 0.57367(13) -0.23744(12)
H17 H 0.2609 0.5335 -0.2140
H18 H 0.1819 0.6342 -0.1997
C40 C 0.21488(15) 0.60562(13) -0.34177(12)
H19 H 0.2227 0.5462 -0.3800
H20 H 0.2818 0.6397 -0.3491
H21 H 0.1530 0.6514 -0.3633
C41 C 0.25227(14) 0.58298(12) 0.05466(14)
H22 H 0.2466 0.5883 0.1245
H23 H 0.1784 0.5979 0.0297
C42 C 0.32733(15) 0.65669(13) 0.01064(14)
H24 H 0.2924 0.7255 0.0192
H25 H 0.3355 0.6470 -0.0585
C43 C 0.44030(15) 0.64844(13) 0.05093(13)
H26 H 0.4786 0.5821 0.0369
H27 H 0.4326 0.6521 0.1209
C44 C 0.50948(15) 0.73012(13) 0.01100(15)
H28 H 0.5161 0.7280 -0.0584
H29 H 0.5822 0.7192 0.0372
H30 H 0.4747 0.7958 0.0285
C45 C 0.24481(15) 0.30159(13) 0.60501(13)
H31 H 0.2555 0.2308 0.5873
H32 H 0.1892 0.3069 0.6580
C46 C 0.35049(15) 0.33342(13) 0.63627(13)
H33 H 0.3443 0.4076 0.6366
H34 H 0.4091 0.3126 0.5889
C47 C 0.38390(17) 0.29095(14) 0.73361(14)
H35 H 0.4536 0.3167 0.7480
H36 H 0.3280 0.3159 0.7817
C48 C 0.39781(18) 0.17804(15) 0.74324(16)
H37 H 0.3280 0.1517 0.7335
H38 H 0.4221 0.1566 0.8070
H39 H 0.4524 0.1523 0.6956
C49 C -0.04525(15) 0.37577(13) 0.58589(13)
H40 H -0.0935 0.3894 0.5316
H41 H 0.0026 0.4309 0.5865
C50 C -0.11321(15) 0.37093(14) 0.67762(14)
H42 H -0.1531 0.4355 0.6846
H43 H -0.0637 0.3605 0.7285
C51 C -0.19494(19) 0.29235(18) 0.69080(18)
H44 H -0.2298 0.2958 0.7554
H45 H -0.1555 0.2248 0.6855
C52 C -0.2837(2) 0.3071(2) 0.6174(3)
H46 H -0.3359 0.2568 0.6305
H47 H -0.2501 0.2993 0.5535
H48 H -0.3220 0.3744 0.6213
C53 C -0.36926(14) 0.17565(13) 0.24840(15)
H49 H -0.3663 0.2192 0.1895
H50 H -0.3528 0.2152 0.3023
C54 C -0.48100(14) 0.14026(14) 0.26392(14)
H51 H -0.4945 0.0990 0.2104
H52 H -0.5355 0.1996 0.2622
C55 C -0.49970(17) 0.07946(15) 0.35614(15)
H53 H -0.5690 0.0483 0.3532
H54 H -0.4401 0.0246 0.3619
C56 C -0.5047(3) 0.13911(18) 0.44308(17)
H55 H -0.4355 0.1685 0.4479
H56 H -0.5173 0.0951 0.4995
H57 H -0.5645 0.1928 0.4389
C57 C -0.25555(14) -0.00286(12) 0.05786(12)
H58 H -0.2685 -0.0277 0.1244
H59 H -0.1930 -0.0448 0.0295
C58 C -0.35547(14) -0.00813(13) 0.00234(13)
H60 H -0.4162 0.0352 0.0317
H61 H -0.3758 -0.0779 0.0081
C59 C -0.34417(14) 0.02341(13) -0.10318(12)
H62 H -0.4178 0.0341 -0.1293
H63 H -0.3117 0.0882 -0.1097
C60 C -0.27429(16) -0.05273(15) -0.16181(15)
H64 H -0.1993 -0.0594 -0.1402
H65 H -0.2743 -0.0300 -0.2290
H66 H -0.3042 -0.1179 -0.1539
H67? H -0.1326 0.4365 0.7011
H68? H -0.0763 0.3287 0.7256
C61? C -0.2159(8) 0.3302(15) 0.6364(8)
H69? H -0.2462 0.3794 0.5873
H70? H -0.1925 0.2669 0.6051
C62? C -0.3051(10) 0.3112(14) 0.7109(12)
H71? H -0.3424 0.3754 0.7300
H72? H -0.2729 0.2747 0.7665
H73? H -0.3578 0.2711 0.6846
loop_
_geom_bond_atom_site_label_1
_geom_bond_atom_site_label_2
_geom_bond_site_symmetry_1
_geom_bond_site_symmetry_2
O1 C1 1_555 1_555
O2 C2 1_555 1_555
O3 C11 1_555 1_555
O4 C12 1_555 1_555
O5 C21 1_555 1_555
O6 C22 1_555 1_555
C1 C2 1_555 1_555
C2 C3 1_555 1_555
C3 C4 1_555 1_555
C4 C5 1_555 1_555
C5 H1 1_555 1_555
C6 C5 1_555 1_555
H2 C6 1_555 1_555
C7 C6 1_555 1_555
H3 C7 1_555 1_555
C8 C7 1_555 1_555
H4 C8 1_555 1_555
C9 C4 1_555 1_555
C10 C9 1_555 1_555
C11 C10 1_555 1_555
C12 C11 1_555 1_555
C13 C12 1_555 1_555
C14 C13 1_555 1_555
C15 C14 1_555 1_555
H5 C15 1_555 1_555
C16 C15 1_555 1_555
H6 C16 1_555 1_555
C17 C16 1_555 1_555
H7 C17 1_555 1_555
C18 C17 1_555 1_555
H8 C18 1_555 1_555
C19 C14 1_555 1_555
C20 C19 1_555 1_555
C21 C20 1_555 1_555
C22 C21 1_555 1_555
C23 C22 1_555 1_555
C24 C23 1_555 1_555
C25 C24 1_555 1_555
H9 C25 1_555 1_555
C26 C25 1_555 1_555
H10 C26 1_555 1_555
C27 C26 1_555 1_555
H11 C27 1_555 1_555
C28 C27 1_555 1_555
H12 C28 1_555 1_555
C29 C24 1_555 1_555
C30 C1 1_555 1_555
C31 C30 1_555 1_555
C32 C3 1_555 1_555
C33 C10 1_555 1_555
C34 C13 1_555 1_555
C35 C20 1_555 1_555
C36 C23 1_555 1_555
C37 O1 1_555 1_555
H13 C37 1_555 1_555
H14 C37 1_555 1_555
C38 C37 1_555 1_555
H15 C38 1_555 1_555
H16 C38 1_555 1_555
C39 C38 1_555 1_555
H17 C39 1_555 1_555
H18 C39 1_555 1_555
C40 C39 1_555 1_555
H19 C40 1_555 1_555
H20 C40 1_555 1_555
H21 C40 1_555 1_555
C41 O2 1_555 1_555
H22 C41 1_555 1_555
H23 C41 1_555 1_555
C42 C41 1_555 1_555
H24 C42 1_555 1_555
H25 C42 1_555 1_555
C43 C42 1_555 1_555
H26 C43 1_555 1_555
H27 C43 1_555 1_555
C44 C43 1_555 1_555
H28 C44 1_555 1_555
H29 C44 1_555 1_555
H30 C44 1_555 1_555
C45 O3 1_555 1_555
H31 C45 1_555 1_555
H32 C45 1_555 1_555
C46 C45 1_555 1_555
H33 C46 1_555 1_555
H34 C46 1_555 1_555
C47 C46 1_555 1_555
H35 C47 1_555 1_555
H36 C47 1_555 1_555
C48 C47 1_555 1_555
H37 C48 1_555 1_555
H38 C48 1_555 1_555
H39 C48 1_555 1_555
C49 O4 1_555 1_555
H40 C49 1_555 1_555
H41 C49 1_555 1_555
C50 C49 1_555 1_555
H42 C50 1_555 1_555
H43 C50 1_555 1_555
C51 C50 1_555 1_555
H44 C51 1_555 1_555
H45 C51 1_555 1_555
C52 C51 1_555 1_555
H46 C52 1_555 1_555
H47 C52 1_555 1_555
H48 C52 1_555 1_555
C53 O5 1_555 1_555
H49 C53 1_555 1_555
H50 C53 1_555 1_555
C54 C53 1_555 1_555
H51 C54 1_555 1_555
H52 C54 1_555 1_555
C55 C54 1_555 1_555
H53 C55 1_555 1_555
H54 C55 1_555 1_555
C56 C55 1_555 1_555
H55 C56 1_555 1_555
H56 C56 1_555 1_555
H57 C56 1_555 1_555
C57 O6 1_555 1_555
H58 C57 1_555 1_555
H59 C57 1_555 1_555
C58 C57 1_555 1_555
H60 C58 1_555 1_555
H61 C58 1_555 1_555
C59 C58 1_555 1_555
H62 C59 1_555 1_555
H63 C59 1_555 1_555
C60 C59 1_555 1_555
H64 C60 1_555 1_555
H65 C60 1_555 1_555
H66 C60 1_555 1_555
C8 C9 1_555 1_555
C18 C19 1_555 1_555
C28 C29 1_555 1_555
C29 C30 1_555 1_555
C31 C32 1_555 1_555
C31 C36 1_555 1_555
C32 C33 1_555 1_555
C33 C34 1_555 1_555
C34 C35 1_555 1_555
C35 C36 1_555 1_555

#END
