
#######################################################################
#
#                 Cambridge Crystallographic Data Centre
#                                CCDC 
#
#######################################################################
#
# If this CIF has been generated from an entry in the Cambridge 
# Structural Database, then it will include bibliographic, chemical, 
# crystal, experimental, refinement or atomic coordinate data resulting 
# from the CCDC's data processing and validation procedures.
#
#######################################################################

data_UDUGAC
_chemical_formula_moiety         'C38 H32 O5'
_chemical_name_systematic        
rac-(RS)-4-((4'-methoxy-4-(methoxymethyl)-3-((4-methoxyphenyl)ethynyl)biphenyl-2-yl)(4-methoxyphenyl)methylene)-2,5-cyclohexadien-1-one
_symmetry_cell_setting           triclinic
_symmetry_space_group_name_H-M   'P -1'
_symmetry_Int_Tables_number      2
_space_group_name_Hall           '-P 1'
loop_
_symmetry_equiv_pos_site_id
_symmetry_equiv_pos_as_xyz
1 x,y,z
2 -x,-y,-z
_cell_length_a                   9.882(2)
_cell_length_b                   11.409(2)
_cell_length_c                   14.987(3)
_cell_angle_alpha                103.72(1)
_cell_angle_beta                 95.62(2)
_cell_angle_gamma                108.65(1)
_cell_volume                     1527.31
_chemical_melting_point          '168-169 deg.C'
_cell_formula_units_Z            2
_exptl_crystal_recrystallization_method petroleum/dichloromethane
loop_
_atom_site_label
_atom_site_type_symbol
_atom_site_fract_x
_atom_site_fract_y
_atom_site_fract_z
O1 O 0.82534(14) 1.01734(12) 0.72755(8)
O2 O 0.38851(14) 0.20435(11) 0.14654(8)
O3 O 0.71716(15) 1.09604(12) 0.15043(10)
O4 O 0.05133(13) 0.67535(12) 0.52626(9)
O5 O -0.00805(15) 0.62287(14) -0.17247(9)
C1 C 0.78434(16) 0.84364(15) 0.48127(11)
H1 H 0.8112 0.8589 0.4261
C2 C 0.82775(17) 0.94580(15) 0.56182(11)
H2 H 0.8826 1.0283 0.5606
C3 C 0.78896(17) 0.92421(16) 0.64392(11)
C4 C 0.70737(18) 0.80092(17) 0.64460(12)
H3 H 0.6803 0.7862 0.6998
C5 C 0.66589(17) 0.69976(16) 0.56409(11)
H4 H 0.6128 0.6171 0.5660
C6 C 0.70204(16) 0.71909(14) 0.47994(10)
C7 C 0.65371(16) 0.61072(14) 0.39200(10)
C8 C 0.69763(18) 0.50517(16) 0.38391(12)
H5 H 0.7572 0.5015 0.4344
C9 C 0.65416(19) 0.40582(15) 0.30208(12)
H6 H 0.6849 0.3362 0.2987
C10 C 0.56637(17) 0.40676(14) 0.22512(11)
C11 C 0.52136(16) 0.51265(13) 0.23123(10)
C12 C 0.56400(15) 0.61380(13) 0.31496(10)
C13 C 0.42991(17) 0.51989(14) 0.15344(11)
C14 C 0.35506(18) 0.53347(14) 0.09199(11)
C15 C 0.26351(17) 0.55761(15) 0.02393(10)
C16 C 0.2313(2) 0.66877(17) 0.04484(12)
H7 H 0.2714 0.7284 0.1033
C17 C 0.1414(2) 0.69415(18) -0.01848(13)
H8 H 0.1209 0.7697 -0.0024
C18 C 0.08271(18) 0.60765(18) -0.10490(12)
C19 C 0.1166(2) 0.49832(18) -0.12791(13)
H9 H 0.0789 0.4405 -0.1873
C20 C 0.2056(2) 0.47243(16) -0.06476(12)
H10 H 0.2270 0.3974 -0.0816
C21 C 0.50687(15) 0.72162(13) 0.32282(10)
C22 C 0.55846(15) 0.81633(13) 0.28051(10)
C23 C 0.49491(16) 0.91383(13) 0.27858(10)
H11 H 0.4165 0.9133 0.3083
C24 C 0.54496(18) 1.00455(15) 0.23560(11)
H12 H 0.4996 1.0645 0.2352
C25 C 0.66861(19) 1.01171(15) 0.18941(11)
C26 C 0.73215(18) 0.91442(15) 0.19115(11)
H13 H 0.8117 0.9157 0.1624
C27 C 0.67978(17) 0.82253(14) 0.23295(10)
H14 H 0.7228 0.7607 0.2314
C28 C 0.38852(15) 0.71476(13) 0.37755(10)
C29 C 0.40197(17) 0.81029(14) 0.45756(11)
H15 H 0.4865 0.8829 0.4770
C30 C 0.29263(17) 0.80080(15) 0.50968(11)
H16 H 0.3047 0.8659 0.5640
C31 C 0.16631(17) 0.69486(15) 0.48086(11)
C32 C 0.15002(18) 0.59909(16) 0.40017(11)
H17 H 0.0637 0.5283 0.3795
C33 C 0.26045(17) 0.60765(15) 0.35014(11)
H18 H 0.2494 0.5409 0.2972
C34 C 0.9083(2) 1.14459(18) 0.73096(15)
H19 H 0.9988 1.1467 0.7118
H20 H 0.9273 1.1994 0.7937
H21 H 0.8556 1.1745 0.6897
C35 C 0.5174(2) 0.29623(15) 0.13787(11)
H22 H 0.4997 0.3260 0.0839
H23 H 0.5918 0.2582 0.1297
C36 C 0.3295(3) 0.0981(2) 0.06526(15)
H24 H 0.3031 0.1273 0.0134
H25 H 0.2448 0.0361 0.0754
H26 H 0.4006 0.0588 0.0518
C37 C 0.0649(2) 0.7661(2) 0.61196(12)
H27 H 0.1426 0.7677 0.6566
H28 H -0.0244 0.7424 0.6349
H29 H 0.0859 0.8501 0.6027
C38 C -0.0603(2) 0.7256(2) -0.14854(16)
H30 H -0.1081 0.7194 -0.0962
H31 H -0.1280 0.7211 -0.2009
H32 H 0.0197 0.8062 -0.1323
loop_
_geom_bond_atom_site_label_1
_geom_bond_atom_site_label_2
_geom_bond_site_symmetry_1
_geom_bond_site_symmetry_2
O1 C3 1_555 1_555
O2 C35 1_555 1_555
O3 C25 1_555 1_555
O4 C31 1_555 1_555
O5 C18 1_555 1_555
C1 H1 1_555 1_555
C2 C1 1_555 1_555
H2 C2 1_555 1_555
C3 C2 1_555 1_555
C4 C3 1_555 1_555
H3 C4 1_555 1_555
C5 C4 1_555 1_555
H4 C5 1_555 1_555
C6 C1 1_555 1_555
C7 C6 1_555 1_555
C8 C7 1_555 1_555
H5 C8 1_555 1_555
C9 C8 1_555 1_555
H6 C9 1_555 1_555
C10 C9 1_555 1_555
C11 C10 1_555 1_555
C12 C7 1_555 1_555
C13 C11 1_555 1_555
C14 C13 1_555 1_555
C15 C14 1_555 1_555
C16 C15 1_555 1_555
H7 C16 1_555 1_555
C17 C16 1_555 1_555
H8 C17 1_555 1_555
C18 C17 1_555 1_555
C19 C18 1_555 1_555
H9 C19 1_555 1_555
C20 C15 1_555 1_555
H10 C20 1_555 1_555
C21 C12 1_555 1_555
C22 C21 1_555 1_555
C23 C22 1_555 1_555
H11 C23 1_555 1_555
C24 C23 1_555 1_555
H12 C24 1_555 1_555
C25 C24 1_555 1_555
C26 C25 1_555 1_555
H13 C26 1_555 1_555
C27 C22 1_555 1_555
H14 C27 1_555 1_555
C28 C21 1_555 1_555
C29 C28 1_555 1_555
H15 C29 1_555 1_555
C30 C29 1_555 1_555
H16 C30 1_555 1_555
C31 C30 1_555 1_555
C32 C31 1_555 1_555
H17 C32 1_555 1_555
C33 C28 1_555 1_555
H18 C33 1_555 1_555
C34 O1 1_555 1_555
H19 C34 1_555 1_555
H20 C34 1_555 1_555
H21 C34 1_555 1_555
C35 C10 1_555 1_555
H22 C35 1_555 1_555
H23 C35 1_555 1_555
C36 O2 1_555 1_555
H24 C36 1_555 1_555
H25 C36 1_555 1_555
H26 C36 1_555 1_555
C37 O4 1_555 1_555
H27 C37 1_555 1_555
H28 C37 1_555 1_555
H29 C37 1_555 1_555
C38 O5 1_555 1_555
H30 C38 1_555 1_555
H31 C38 1_555 1_555
H32 C38 1_555 1_555
C5 C6 1_555 1_555
C11 C12 1_555 1_555
C19 C20 1_555 1_555
C26 C27 1_555 1_555
C32 C33 1_555 1_555

#END
