
#######################################################################
#
#                 Cambridge Crystallographic Data Centre
#                                CCDC 
#
#######################################################################
#
# If this CIF has been generated from an entry in the Cambridge 
# Structural Database, then it will include bibliographic, chemical, 
# crystal, experimental, refinement or atomic coordinate data resulting 
# from the CCDC's data processing and validation procedures.
#
#######################################################################

data_UDUNIR
_chemical_formula_moiety         'C20 H18 Br2 N2 O3'
_chemical_name_systematic        
'(E)-2-(2-(4-Bromobenzoylmethylene)imidazolidin-1-yl)ethyl 4-bromobenzoate'
_symmetry_cell_setting           triclinic
_symmetry_space_group_name_H-M   'P -1'
_symmetry_Int_Tables_number      2
_space_group_name_Hall           '-P 1'
loop_
_symmetry_equiv_pos_site_id
_symmetry_equiv_pos_as_xyz
1 x,y,z
2 -x,-y,-z
_cell_length_a                   7.3733(15)
_cell_length_b                   11.117(2)
_cell_length_c                   12.954(2)
_cell_angle_alpha                104.635(10)
_cell_angle_beta                 105.108(11)
_cell_angle_gamma                96.700(9)
_cell_volume                     972.746
_exptl_crystal_colour            colorless
_exptl_crystal_description       prism
_chemical_melting_point          '449-450 K'
_cell_formula_units_Z            2
_exptl_crystal_recrystallization_method acetone
loop_
_atom_site_label
_atom_site_type_symbol
_atom_site_fract_x
_atom_site_fract_y
_atom_site_fract_z
Br1 Br 0.11210(7) 0.92243(5) 0.38589(6)
Br2 Br 0.22475(12) 0.75878(7) -0.04472(7)
N1 N 0.8470(6) 0.3228(4) 0.3643(4)
H1 H 0.904(8) 0.388(5) 0.405(5)
N2 N 0.5887(5) 0.1767(4) 0.2816(4)
O1 O 0.8064(4) 0.5665(3) 0.4319(3)
O2 O 0.2955(6) 0.2177(3) 0.0964(3)
O3 O 0.2102(9) 0.1289(4) -0.0866(4)
C1 C 0.6565(6) 0.3019(4) 0.3296(4)
C2 C 0.9211(7) 0.2063(5) 0.3468(5)
H2 H 0.9879 0.1942 0.4175
H3 H 1.0075 0.2062 0.3017
C3 C 0.7435(8) 0.1057(5) 0.2862(5)
H4 H 0.7447 0.0616 0.2116
H5 H 0.7313 0.0445 0.3269
C4 C 0.5481(6) 0.3957(4) 0.3401(4)
H6 H 0.4154 0.3720 0.3129
C5 C 0.6293(6) 0.5236(4) 0.3895(4)
C6 C 0.4998(6) 0.6184(4) 0.3882(3)
C7 C 0.3073(6) 0.5882(4) 0.3806(3)
H7 H 0.2549 0.5059 0.3755
C8 C 0.1921(6) 0.6777(4) 0.3803(4)
H8 H 0.0641 0.6568 0.3764
C9 C 0.2711(6) 0.7988(4) 0.3861(4)
C10 C 0.4601(6) 0.8321(4) 0.3943(4)
H9 H 0.5111 0.9142 0.3980
C11 C 0.5735(6) 0.7422(4) 0.3969(4)
H10 H 0.7028 0.7652 0.4046
C12 C 0.3886(8) 0.1157(5) 0.2361(5)
H11 H 0.3151 0.1671 0.2748
H12 H 0.3738 0.0342 0.2505
C13 C 0.3079(9) 0.0958(5) 0.1128(6)
H13 H 0.3906 0.0557 0.0735
H14 H 0.1820 0.0415 0.0843
C14 C 0.2466(9) 0.2216(6) -0.0085(6)
C15 C 0.2433(7) 0.3529(5) -0.0155(4)
C16 C 0.2172(8) 0.3767(6) -0.1179(5)
H15 H 0.2028 0.3100 -0.1814
C17 C 0.2120(9) 0.4968(6) -0.1280(5)
H16 H 0.1944 0.5119 -0.1971
C18 C 0.2339(7) 0.5940(5) -0.0324(5)
C19 C 0.2565(8) 0.5734(5) 0.0685(5)
H17 H 0.2674 0.6401 0.1313
C20 C 0.2631(8) 0.4530(5) 0.0773(4)
H18 H 0.2812 0.4391 0.1468
loop_
_geom_bond_atom_site_label_1
_geom_bond_atom_site_label_2
_geom_bond_site_symmetry_1
_geom_bond_site_symmetry_2
Br1 C9 1_555 1_555
Br2 C18 1_555 1_555
N1 H1 1_555 1_555
N2 C1 1_555 1_555
O1 C5 1_555 1_555
O2 C13 1_555 1_555
O3 C14 1_555 1_555
C1 N1 1_555 1_555
C2 N1 1_555 1_555
H2 C2 1_555 1_555
H3 C2 1_555 1_555
C3 N2 1_555 1_555
H4 C3 1_555 1_555
H5 C3 1_555 1_555
C4 C1 1_555 1_555
H6 C4 1_555 1_555
C5 C4 1_555 1_555
C6 C5 1_555 1_555
C7 C6 1_555 1_555
H7 C7 1_555 1_555
C8 C7 1_555 1_555
H8 C8 1_555 1_555
C9 C8 1_555 1_555
C10 C9 1_555 1_555
H9 C10 1_555 1_555
C11 C6 1_555 1_555
H10 C11 1_555 1_555
C12 N2 1_555 1_555
H11 C12 1_555 1_555
H12 C12 1_555 1_555
C13 C12 1_555 1_555
H13 C13 1_555 1_555
H14 C13 1_555 1_555
C14 O2 1_555 1_555
C15 C14 1_555 1_555
C16 C15 1_555 1_555
H15 C16 1_555 1_555
C17 C16 1_555 1_555
H16 C17 1_555 1_555
C18 C17 1_555 1_555
C19 C18 1_555 1_555
H17 C19 1_555 1_555
C20 C15 1_555 1_555
H18 C20 1_555 1_555
C2 C3 1_555 1_555
C10 C11 1_555 1_555
C19 C20 1_555 1_555

#END
