
#######################################################################
#
#                 Cambridge Crystallographic Data Centre
#                                CCDC 
#
#######################################################################
#
# If this CIF has been generated from an entry in the Cambridge 
# Structural Database, then it will include bibliographic, chemical, 
# crystal, experimental, refinement or atomic coordinate data resulting 
# from the CCDC's data processing and validation procedures.
#
#######################################################################

data_UDURIV
_chemical_formula_moiety         'C15 H26 Cl1 N5 O1'
_chemical_name_systematic        
4-Chloro-6-morpholino-N^2^-(2,4,4-trimethylpentan-2-yl)-1,3,5-triazin-2-amine
_symmetry_cell_setting           monoclinic
_symmetry_space_group_name_H-M   'P 21/n'
_symmetry_Int_Tables_number      14
_space_group_name_Hall           '-P 2yn'
loop_
_symmetry_equiv_pos_site_id
_symmetry_equiv_pos_as_xyz
1 x,y,z
2 1/2-x,1/2+y,1/2-z
3 -x,-y,-z
4 1/2+x,1/2-y,1/2+z
_cell_length_a                   14.119(3)
_cell_length_b                   7.4964(17)
_cell_length_c                   17.083(4)
_cell_angle_alpha                90
_cell_angle_beta                 101.939(4)
_cell_angle_gamma                90
_cell_volume                     1768.98
_exptl_crystal_colour            colorless
_exptl_crystal_description       prism
_chemical_melting_point          '369-371 K'
_cell_formula_units_Z            4
_exptl_crystal_recrystallization_method methanol
loop_
_atom_site_label
_atom_site_type_symbol
_atom_site_fract_x
_atom_site_fract_y
_atom_site_fract_z
Cl1 Cl 0.43258(4) 0.68022(8) 1.16149(3)
O1 O 0.31616(10) 0.8309(2) 0.72604(8)
N1 N 0.43414(11) 0.7080(2) 1.01064(9)
N2 N 0.58416(11) 0.7425(2) 1.10318(8)
N3 N 0.57800(10) 0.7775(2) 0.96303(8)
N4 N 0.72149(11) 0.8004(2) 1.05739(9)
N5 N 0.43047(11) 0.7482(2) 0.87630(9)
C1 C 0.48256(13) 0.7441(2) 0.95198(10)
C2 C 0.49106(13) 0.7137(2) 1.08183(11)
C3 C 0.62534(12) 0.7724(2) 1.03887(10)
C4 C 0.47478(15) 0.7818(3) 0.80787(11)
H1 H 0.4837 0.6699 0.7818
H2 H 0.5378 0.8366 0.8257
C5 C 0.41114(15) 0.9024(3) 0.75028(12)
H3 H 0.4075 1.0178 0.7752
H4 H 0.4392 0.9197 0.7036
C6 C 0.27284(14) 0.8130(3) 0.79388(12)
H5 H 0.2075 0.7675 0.7768
H6 H 0.2688 0.9294 0.8178
C7 C 0.32985(14) 0.6891(3) 0.85542(12)
H7 H 0.3022 0.6883 0.9029
H8 H 0.3269 0.5688 0.8342
C8 C 0.78825(13) 0.8290(3) 1.00235(10)
C9 C 0.88419(15) 0.8807(3) 1.05725(13)
H9 H 0.8739 0.9798 1.0901
H10 H 0.9300 0.9137 1.0254
H11 H 0.9088 0.7812 1.0907
C10 C 0.75325(16) 0.9854(3) 0.94675(13)
H12 H 0.6952 0.9521 0.9096
H13 H 0.8024 1.0169 0.9179
H14 H 0.7401 1.0858 0.9778
C11 C 0.79641(13) 0.6485(2) 0.96018(11)
H15 H 0.7311 0.6017 0.9451
H16 H 0.8315 0.5688 1.0008
C12 C 0.84258(13) 0.6268(3) 0.88572(11)
C13 C 0.85638(17) 0.4252(3) 0.87652(14)
H17 H 0.7955 0.3656 0.8732
H18 H 0.9022 0.3813 0.9220
H19 H 0.8801 0.4028 0.8287
C14 C 0.94073(16) 0.7175(3) 0.89346(15)
H20 H 0.9672 0.6897 0.8475
H21 H 0.9838 0.6757 0.9409
H22 H 0.9329 0.8443 0.8968
C15 C 0.77405(17) 0.6911(3) 0.80975(12)
H23 H 0.7701 0.8189 0.8104
H24 H 0.7109 0.6412 0.8073
H25 H 0.7981 0.6536 0.7638
H26 H 0.7492(13) 0.778(2) 1.1082(6)
loop_
_geom_bond_atom_site_label_1
_geom_bond_atom_site_label_2
_geom_bond_site_symmetry_1
_geom_bond_site_symmetry_2
Cl1 C2 1_555 1_555
O1 C5 1_555 1_555
N1 C1 1_555 1_555
N2 C2 1_555 1_555
N3 C1 1_555 1_555
N4 C3 1_555 1_555
N5 C1 1_555 1_555
C2 N1 1_555 1_555
C3 N2 1_555 1_555
C4 N5 1_555 1_555
H1 C4 1_555 1_555
H2 C4 1_555 1_555
C5 C4 1_555 1_555
H3 C5 1_555 1_555
H4 C5 1_555 1_555
C6 O1 1_555 1_555
H5 C6 1_555 1_555
H6 C6 1_555 1_555
C7 N5 1_555 1_555
H7 C7 1_555 1_555
H8 C7 1_555 1_555
C8 N4 1_555 1_555
C9 C8 1_555 1_555
H9 C9 1_555 1_555
H10 C9 1_555 1_555
H11 C9 1_555 1_555
C10 C8 1_555 1_555
H12 C10 1_555 1_555
H13 C10 1_555 1_555
H14 C10 1_555 1_555
C11 C8 1_555 1_555
H15 C11 1_555 1_555
H16 C11 1_555 1_555
C12 C11 1_555 1_555
C13 C12 1_555 1_555
H17 C13 1_555 1_555
H18 C13 1_555 1_555
H19 C13 1_555 1_555
C14 C12 1_555 1_555
H20 C14 1_555 1_555
H21 C14 1_555 1_555
H22 C14 1_555 1_555
C15 C12 1_555 1_555
H23 C15 1_555 1_555
H24 C15 1_555 1_555
H25 C15 1_555 1_555
H26 N4 1_555 1_555
N3 C3 1_555 1_555
C6 C7 1_555 1_555

#END
