
#######################################################################
#
#                 Cambridge Crystallographic Data Centre
#                                CCDC 
#
#######################################################################
#
# If this CIF has been generated from an entry in the Cambridge 
# Structural Database, then it will include bibliographic, chemical, 
# crystal, experimental, refinement or atomic coordinate data resulting 
# from the CCDC's data processing and validation procedures.
#
#######################################################################

data_UDURUG
_chemical_compound_source        'stem bark of Aglaia cordata'
_chemical_formula_moiety         'C24 H30 O7'
_chemical_name_systematic        'Aglacin B'
_chemical_properties_biological  'no cytotoxic or insecticidal activity'
_symmetry_cell_setting           orthorhombic
_symmetry_space_group_name_H-M   'P 21 21 21'
_symmetry_Int_Tables_number      19
_space_group_name_Hall           'P 2ac 2ab'
loop_
_symmetry_equiv_pos_site_id
_symmetry_equiv_pos_as_xyz
1 x,y,z
2 1/2-x,-y,1/2+z
3 -x,1/2+y,1/2-z
4 1/2+x,1/2-y,-z
_cell_length_a                   6.8133(4)
_cell_length_b                   11.6291(9)
_cell_length_c                   28.1522(18)
_cell_angle_alpha                90
_cell_angle_beta                 90
_cell_angle_gamma                90
_cell_volume                     2230.57
_exptl_crystal_colour            colorless
_exptl_crystal_description       needles
_chemical_melting_point          138-139deg.C
_cell_formula_units_Z            4
_exptl_crystal_recrystallization_method methanol
loop_
_atom_site_label
_atom_site_type_symbol
_atom_site_fract_x
_atom_site_fract_y
_atom_site_fract_z
O1 O 0.3665(4) 0.40769(15) 0.08393(7)
O2 O 0.4595(2) 1.12165(13) 0.03595(6)
O3 O 0.8210(2) 1.07647(12) 0.07185(5)
O4 O 0.9030(2) 0.85666(13) 0.10665(5)
O5 O 1.0416(2) 0.59321(15) 0.25325(5)
O6 O 0.8134(2) 0.72455(16) 0.30615(5)
O7 O 0.4912(2) 0.82610(13) 0.27022(5)
C1 C 0.4104(3) 0.80979(17) 0.06166(6)
C2 C 0.3643(3) 0.92082(18) 0.04570(7)
H1 H 0.2442 0.9336 0.0309
C3 C 0.4926(3) 1.01136(17) 0.05144(7)
C4 C 0.6758(3) 0.99293(17) 0.07255(7)
C5 C 0.7202(3) 0.88341(17) 0.08944(7)
C6 C 0.5871(3) 0.79209(16) 0.08585(6)
C7 C 0.2708(3) 0.71209(18) 0.05021(8)
H2 H 0.1584 0.7153 0.0713
H3 H 0.2238 0.7199 0.0178
C8 C 0.3742(4) 0.59760(18) 0.05593(7)
H4 H 0.4762 0.5909 0.0315
C9 C 0.2545(5) 0.4874(2) 0.05676(9)
H5 H 0.1276 0.5006 0.0714
H6 H 0.2341 0.4588 0.0248
C10 C 0.2756(4) 1.1470(2) 0.01541(10)
H7 H 0.2671 1.2281 0.0093
H8 H 0.1729 1.1248 0.0369
H9 H 0.2619 1.1055 -0.0139
C11 C 0.7854(4) 1.1767(2) 0.10030(10)
H10 H 0.8933 1.2292 0.0970
H11 H 0.7724 1.1546 0.1330
H12 H 0.6667 1.2134 0.0899
C12 C 0.9776(4) 0.9210(2) 0.14505(10)
H13 H 1.0599 0.8728 0.1643
H14 H 0.8707 0.9495 0.1639
H15 H 1.0531 0.9845 0.1331
C13 C 0.6899(3) 0.69106(15) 0.16175(6)
C14 C 0.8534(3) 0.63723(16) 0.18166(7)
H16 H 0.9388 0.5959 0.1624
C15 C 0.8891(3) 0.64501(17) 0.23001(7)
C16 C 0.7657(3) 0.70971(18) 0.25911(6)
C17 C 0.6029(3) 0.76391(16) 0.23919(7)
C18 C 0.5662(3) 0.75472(16) 0.19097(7)
H17 H 0.4576 0.7916 0.1780
C19 C 0.6401(3) 0.67795(16) 0.10948(6)
H18 H 0.7545 0.6457 0.0931
C20 C 0.4695(3) 0.59361(17) 0.10436(7)
H19 H 0.3696 0.6154 0.1277
C21 C 0.5108(5) 0.46576(19) 0.11088(8)
H20 H 0.6412 0.4468 0.0995
H21 H 0.5014 0.4446 0.1441
C22 C 1.1782(4) 0.5303(2) 0.22638(9)
H22 H 1.2754 0.4979 0.2471
H23 H 1.2407 0.5803 0.2039
H24 H 1.1118 0.4696 0.2098
C23 C 0.6846(4) 0.6732(3) 0.33891(8)
H25 H 0.7324 0.6855 0.3706
H26 H 0.6768 0.5921 0.3328
H27 H 0.5566 0.7068 0.3358
C24 C 0.3074(4) 0.8671(2) 0.25478(9)
H28 H 0.2393 0.9014 0.2810
H29 H 0.2314 0.8043 0.2425
H30 H 0.3264 0.9235 0.2303
loop_
_geom_bond_atom_site_label_1
_geom_bond_atom_site_label_2
_geom_bond_site_symmetry_1
_geom_bond_site_symmetry_2
O1 C9 1_555 1_555
O2 C3 1_555 1_555
O3 C4 1_555 1_555
O4 C5 1_555 1_555
O5 C15 1_555 1_555
O6 C16 1_555 1_555
O7 C17 1_555 1_555
C1 C2 1_555 1_555
C2 H1 1_555 1_555
C3 C2 1_555 1_555
C4 C3 1_555 1_555
C5 C4 1_555 1_555
C6 C1 1_555 1_555
C7 C1 1_555 1_555
H2 C7 1_555 1_555
H3 C7 1_555 1_555
C8 C7 1_555 1_555
H4 C8 1_555 1_555
C9 C8 1_555 1_555
H5 C9 1_555 1_555
H6 C9 1_555 1_555
C10 O2 1_555 1_555
H7 C10 1_555 1_555
H8 C10 1_555 1_555
H9 C10 1_555 1_555
C11 O3 1_555 1_555
H10 C11 1_555 1_555
H11 C11 1_555 1_555
H12 C11 1_555 1_555
C12 O4 1_555 1_555
H13 C12 1_555 1_555
H14 C12 1_555 1_555
H15 C12 1_555 1_555
C13 C14 1_555 1_555
C14 H16 1_555 1_555
C15 C14 1_555 1_555
C16 C15 1_555 1_555
C17 C16 1_555 1_555
C18 C13 1_555 1_555
H17 C18 1_555 1_555
C19 C6 1_555 1_555
H18 C19 1_555 1_555
C20 C8 1_555 1_555
H19 C20 1_555 1_555
C21 O1 1_555 1_555
H20 C21 1_555 1_555
H21 C21 1_555 1_555
C22 O5 1_555 1_555
H22 C22 1_555 1_555
H23 C22 1_555 1_555
H24 C22 1_555 1_555
C23 O6 1_555 1_555
H25 C23 1_555 1_555
H26 C23 1_555 1_555
H27 C23 1_555 1_555
C24 O7 1_555 1_555
H28 C24 1_555 1_555
H29 C24 1_555 1_555
H30 C24 1_555 1_555
C5 C6 1_555 1_555
C13 C19 1_555 1_555
C17 C18 1_555 1_555
C19 C20 1_555 1_555
C20 C21 1_555 1_555

#END
