
#######################################################################
#
#                 Cambridge Crystallographic Data Centre
#                                CCDC 
#
#######################################################################
#
# If this CIF has been generated from an entry in the Cambridge 
# Structural Database, then it will include bibliographic, chemical, 
# crystal, experimental, refinement or atomic coordinate data resulting 
# from the CCDC's data processing and validation procedures.
#
#######################################################################

data_UDURAP
_chemical_formula_moiety         'C23 H18 N2 O1'
_chemical_name_systematic        
1-hydroxy-3-phenyl-4,5,6,7-tetrahydroazepino[3,2,1-jk]carbazole-2-carbonitrile
_symmetry_cell_setting           triclinic
_symmetry_space_group_name_H-M   'P -1'
_symmetry_Int_Tables_number      2
_space_group_name_Hall           '-P 1'
loop_
_symmetry_equiv_pos_site_id
_symmetry_equiv_pos_as_xyz
1 x,y,z
2 -x,-y,-z
_cell_length_a                   10.0747(3)
_cell_length_b                   10.1323(3)
_cell_length_c                   10.7896(3)
_cell_angle_alpha                68.543(3)
_cell_angle_beta                 62.333(3)
_cell_angle_gamma                65.904(3)
_cell_volume                     869.056
_exptl_crystal_colour            colorless
_exptl_crystal_description       block
_cell_formula_units_Z            2
loop_
_atom_site_label
_atom_site_type_symbol
_atom_site_fract_x
_atom_site_fract_y
_atom_site_fract_z
O1 O 0.12802(12) 0.19307(11) 0.24991(10)
N1 N 0.31986(12) 0.57053(11) 0.17030(11)
N2 N 0.09956(16) -0.03431(13) 0.59031(13)
C1 C 0.40182(16) 0.11583(16) 0.65145(15)
H1 H 0.4927 0.1010 0.5705
C2 C 0.28966(13) 0.58283(13) 0.05268(12)
C3 C 0.30815(16) 0.68938(15) -0.07571(14)
H2 H 0.3489 0.7651 -0.0944
C4 C 0.26367(17) 0.67803(17) -0.17385(14)
H3 H 0.2741 0.7481 -0.2599
C5 C 0.20383(16) 0.56499(18) -0.14759(14)
H4 H 0.1739 0.5614 -0.2156
C6 C 0.18793(15) 0.45768(16) -0.02211(13)
H5 H 0.1493 0.3812 -0.0056
C7 C 0.23117(13) 0.46665(13) 0.07955(12)
C8 C 0.22878(12) 0.37927(12) 0.21970(11)
C9 C 0.28468(12) 0.44658(12) 0.27200(12)
C10 C 0.29655(13) 0.39243(13) 0.40823(12)
C11 C 0.25086(12) 0.26559(13) 0.49075(12)
C12 C 0.19297(13) 0.19682(12) 0.43940(12)
C13 C 0.18073(13) 0.25365(13) 0.30465(12)
C14 C 0.38726(17) 0.66709(16) 0.17991(15)
H6 H 0.4029 0.7440 0.0929
H7 H 0.4890 0.6099 0.1861
C15 C 0.2870(2) 0.73840(17) 0.30688(19)
H8 H 0.3366 0.8055 0.3020
H9 H 0.1871 0.7980 0.2975
C16 C 0.2553(2) 0.63753(17) 0.45277(17)
H10 H 0.1449 0.6439 0.4950
H11 H 0.2746 0.6752 0.5117
C17 C 0.34842(17) 0.47453(15) 0.46184(14)
H12 H 0.4584 0.4670 0.4059
H13 H 0.3375 0.4274 0.5608
C18 C 0.25973(13) 0.19750(13) 0.63618(12)
C19 C 0.4099(2) 0.05588(17) 0.78682(18)
H14 H 0.5060 0.0006 0.7958
C20 C 0.2776(2) 0.07752(17) 0.90685(16)
H15 H 0.2838 0.0388 0.9972
C21 C 0.1355(2) 0.1568(2) 0.89326(16)
H16 H 0.0450 0.1704 0.9747
C22 C 0.12649(16) 0.21658(18) 0.75887(14)
H17 H 0.0297 0.2702 0.7508
C23 C 0.14375(14) 0.06784(13) 0.52608(12)
H18 H 0.069(2) 0.132(2) 0.317(2)
loop_
_geom_bond_atom_site_label_1
_geom_bond_atom_site_label_2
_geom_bond_site_symmetry_1
_geom_bond_site_symmetry_2
O1 C13 1_555 1_555
N1 C2 1_555 1_555
N2 C23 1_555 1_555
C1 H1 1_555 1_555
C2 C3 1_555 1_555
C3 H2 1_555 1_555
C4 C3 1_555 1_555
H3 C4 1_555 1_555
C5 C4 1_555 1_555
H4 C5 1_555 1_555
C6 C5 1_555 1_555
H5 C6 1_555 1_555
C7 C2 1_555 1_555
C8 C7 1_555 1_555
C9 N1 1_555 1_555
C10 C9 1_555 1_555
C11 C10 1_555 1_555
C12 C11 1_555 1_555
C13 C8 1_555 1_555
C14 N1 1_555 1_555
H6 C14 1_555 1_555
H7 C14 1_555 1_555
C15 C14 1_555 1_555
H8 C15 1_555 1_555
H9 C15 1_555 1_555
C16 C15 1_555 1_555
H10 C16 1_555 1_555
H11 C16 1_555 1_555
C17 C10 1_555 1_555
H12 C17 1_555 1_555
H13 C17 1_555 1_555
C18 C1 1_555 1_555
C19 C1 1_555 1_555
H14 C19 1_555 1_555
C20 C19 1_555 1_555
H15 C20 1_555 1_555
C21 C20 1_555 1_555
H16 C21 1_555 1_555
C22 C18 1_555 1_555
H17 C22 1_555 1_555
C23 C12 1_555 1_555
H18 O1 1_555 1_555
C6 C7 1_555 1_555
C8 C9 1_555 1_555
C11 C18 1_555 1_555
C12 C13 1_555 1_555
C16 C17 1_555 1_555
C21 C22 1_555 1_555

#END
