
#######################################################################
#
#                 Cambridge Crystallographic Data Centre
#                                CCDC 
#
#######################################################################
#
# If this CIF has been generated from an entry in the Cambridge 
# Structural Database, then it will include bibliographic, chemical, 
# crystal, experimental, refinement or atomic coordinate data resulting 
# from the CCDC's data processing and validation procedures.
#
#######################################################################

data_UDUSAO
_chemical_formula_moiety         'C16 H16 N2 O3'
_chemical_name_systematic        
9-(4-Methoxybenzoyl)-1,2,3,4-tetrahydro-6H-pyrido(1,2-a)pyrimidin-6-one
_symmetry_cell_setting           triclinic
_symmetry_space_group_name_H-M   'P -1'
_symmetry_Int_Tables_number      2
_space_group_name_Hall           '-P 1'
loop_
_symmetry_equiv_pos_site_id
_symmetry_equiv_pos_as_xyz
1 x,y,z
2 -x,-y,-z
_cell_length_a                   7.9544(18)
_cell_length_b                   8.3320(19)
_cell_length_c                   11.063(3)
_cell_angle_alpha                77.913(3)
_cell_angle_beta                 73.384(4)
_cell_angle_gamma                77.641(4)
_cell_volume                     677.657
_exptl_crystal_colour            colorless
_exptl_crystal_description       prism
_chemical_melting_point          '437-439 K'
_cell_formula_units_Z            2
_exptl_crystal_recrystallization_method 'ethyl acetate'
loop_
_atom_site_label
_atom_site_type_symbol
_atom_site_fract_x
_atom_site_fract_y
_atom_site_fract_z
O1 O 0.58919(16) 0.28590(17) 0.11492(13)
O2 O -0.22334(15) 0.58455(15) 0.22135(13)
O3 O -0.29821(17) 1.13578(14) 0.55187(12)
N1 N 0.29385(17) 0.30686(16) 0.13068(13)
N2 N -0.00321(18) 0.32891(16) 0.13146(13)
H1 H -0.1095 0.3840 0.1478
C1 C 0.3389(3) 0.1542(2) 0.0723(2)
H2 H 0.4377 0.0815 0.1006
H3 H 0.3757 0.1833 -0.0199
C2 C 0.1820(3) 0.0633(2) 0.10810(19)
H4 H 0.2112 -0.0306 0.0625
H5 H 0.1541 0.0213 0.1990
C3 C 0.0250(2) 0.1795(2) 0.07471(17)
H6 H 0.0460 0.2086 -0.0174
H7 H -0.0798 0.1262 0.1069
C4 C 0.1214(2) 0.38749(18) 0.16018(14)
C5 C 0.0801(2) 0.53028(18) 0.22182(14)
C6 C 0.2259(2) 0.5872(2) 0.23969(16)
H8 H 0.2029 0.6824 0.2771
C7 C 0.3953(2) 0.5109(2) 0.20547(16)
H9 H 0.4854 0.5546 0.2190
C8 C 0.4387(2) 0.3644(2) 0.14882(15)
C9 C -0.0996(2) 0.61628(19) 0.25642(16)
C10 C -0.1457(2) 0.75394(18) 0.33420(15)
C11 C -0.2538(2) 0.8991(2) 0.29682(15)
H10 H -0.2930 0.9084 0.2237
C12 C -0.3050(2) 1.03035(19) 0.36520(16)
H11 H -0.3734 1.1283 0.3362
C13 C -0.2537(2) 1.01488(19) 0.47683(15)
C14 C -0.1506(2) 0.8687(2) 0.51784(16)
H12 H -0.1187 0.8564 0.5943
C15 C -0.0949(2) 0.7414(2) 0.44651(16)
H13 H -0.0221 0.6456 0.4738
C16 C -0.3885(3) 1.2929(2) 0.5050(2)
H14 H -0.3154 1.3387 0.4253
H15 H -0.4122 1.3671 0.5658
H16 H -0.4986 1.2790 0.4923
loop_
_geom_bond_atom_site_label_1
_geom_bond_atom_site_label_2
_geom_bond_site_symmetry_1
_geom_bond_site_symmetry_2
O1 C8 1_555 1_555
O2 C9 1_555 1_555
O3 C13 1_555 1_555
N1 C1 1_555 1_555
N2 H1 1_555 1_555
C1 H2 1_555 1_555
H3 C1 1_555 1_555
C2 C1 1_555 1_555
H4 C2 1_555 1_555
H5 C2 1_555 1_555
C3 N2 1_555 1_555
H6 C3 1_555 1_555
H7 C3 1_555 1_555
C4 N1 1_555 1_555
C5 C4 1_555 1_555
C6 C5 1_555 1_555
H8 C6 1_555 1_555
C7 C6 1_555 1_555
H9 C7 1_555 1_555
C8 N1 1_555 1_555
C9 C5 1_555 1_555
C10 C9 1_555 1_555
C11 C10 1_555 1_555
H10 C11 1_555 1_555
C12 C11 1_555 1_555
H11 C12 1_555 1_555
C13 C12 1_555 1_555
C14 C13 1_555 1_555
H12 C14 1_555 1_555
C15 C10 1_555 1_555
H13 C15 1_555 1_555
C16 O3 1_555 1_555
H14 C16 1_555 1_555
H15 C16 1_555 1_555
H16 C16 1_555 1_555
N2 C4 1_555 1_555
C2 C3 1_555 1_555
C7 C8 1_555 1_555
C14 C15 1_555 1_555

#END
