
#######################################################################
#
#                 Cambridge Crystallographic Data Centre
#                                CCDC 
#
#######################################################################
#
# If this CIF has been generated from an entry in the Cambridge 
# Structural Database, then it will include bibliographic, chemical, 
# crystal, experimental, refinement or atomic coordinate data resulting 
# from the CCDC's data processing and validation procedures.
#
#######################################################################

data_UDUVIZ
_chemical_formula_moiety         'C23 H17 N3 O2'
_chemical_name_systematic        
3-Hydroxy-N'-(phenyl(2-pyridyl)methylene)-2-naphthohydrazide
_symmetry_cell_setting           monoclinic
_symmetry_space_group_name_H-M   'P 21/c'
_symmetry_Int_Tables_number      14
_space_group_name_Hall           '-P 2ybc'
loop_
_symmetry_equiv_pos_site_id
_symmetry_equiv_pos_as_xyz
1 x,y,z
2 -x,1/2+y,1/2-z
3 -x,-y,-z
4 x,1/2-y,1/2+z
_cell_length_a                   13.9214(18)
_cell_length_b                   17.238(2)
_cell_length_c                   7.7751(16)
_cell_angle_alpha                90
_cell_angle_beta                 104.294(2)
_cell_angle_gamma                90
_cell_volume                     1808.08
_exptl_crystal_colour            yellow
_exptl_crystal_description       block
_chemical_melting_point          '475-476 K'
_cell_formula_units_Z            4
_exptl_crystal_recrystallization_method dichloromethane
loop_
_atom_site_label
_atom_site_type_symbol
_atom_site_fract_x
_atom_site_fract_y
_atom_site_fract_z
N1 N 0.12667(15) 0.45180(13) 0.8333(3)
H1 H 0.1275 0.5007 0.8551
N2 N 0.04182(16) 0.41633(12) 0.7402(3)
N3 N 0.01643(16) 0.57354(13) 0.8659(3)
O1 O 0.21182(14) 0.33844(12) 0.8614(3)
O2 O 0.35617(16) 0.32793(12) 1.1398(4)
H2 H 0.3047 0.3140 1.0702
C1 C 0.2092(2) 0.40821(17) 0.8904(4)
C2 C 0.3136(2) 0.52678(16) 0.9791(4)
H3 H 0.2677 0.5553 0.8956
C3 C 0.29691(18) 0.44932(16) 0.9980(4)
C4 C 0.3682(2) 0.40554(17) 1.1233(5)
C5 C 0.4488(2) 0.44150(19) 1.2260(5)
H4 H 0.4941 0.4125 1.3092
C6 C 0.4661(2) 0.52093(18) 1.2106(4)
C7 C 0.39797(19) 0.56455(16) 1.0821(4)
C8 C 0.4168(2) 0.64417(17) 1.0631(5)
H5 H 0.3729 0.6732 0.9778
C9 C 0.4980(2) 0.6791(2) 1.1672(5)
H6 H 0.5092 0.7317 1.1530
C10 C 0.5644(2) 0.6364(2) 1.2949(5)
H7 H 0.6196 0.6608 1.3664
C11 C 0.5499(2) 0.5599(2) 1.3165(5)
H8 H 0.5955 0.5323 1.4023
C12 C -0.0393(2) 0.45569(15) 0.6996(4)
C13 C -0.05324(19) 0.53912(15) 0.7360(4)
C14 C -0.1321(2) 0.58120(17) 0.6364(4)
H9 H -0.1795 0.5569 0.5474
C15 C -0.1403(2) 0.65894(18) 0.6692(5)
H10 H -0.1927 0.6877 0.6018
C16 C -0.0705(2) 0.69346(17) 0.8019(5)
H11 H -0.0748 0.7459 0.8270
C17 C 0.0057(2) 0.64892(16) 0.8969(4)
H12 H 0.0526 0.6724 0.9881
C18 C -0.1255(2) 0.40909(15) 0.6010(4)
C19 C -0.2175(2) 0.41381(17) 0.6401(4)
H13 H -0.2266 0.4482 0.7269
C20 C -0.2955(2) 0.3681(2) 0.5517(5)
H14 H -0.3564 0.3710 0.5805
C21 C -0.2828(3) 0.31836(19) 0.4211(5)
H15 H -0.3359 0.2888 0.3588
C22 C -0.1918(2) 0.31210(17) 0.3818(4)
H16 H -0.1831 0.2777 0.2948
C23 C -0.1137(2) 0.35729(16) 0.4726(4)
H17 H -0.0522 0.3527 0.4467
loop_
_geom_bond_atom_site_label_1
_geom_bond_atom_site_label_2
_geom_bond_site_symmetry_1
_geom_bond_site_symmetry_2
N1 H1 1_555 1_555
N2 N1 1_555 1_555
N3 C13 1_555 1_555
O1 C1 1_555 1_555
O2 H2 1_555 1_555
C1 N1 1_555 1_555
C2 H3 1_555 1_555
C3 C1 1_555 1_555
C4 O2 1_555 1_555
C5 C4 1_555 1_555
H4 C5 1_555 1_555
C6 C5 1_555 1_555
C7 C2 1_555 1_555
C8 C7 1_555 1_555
H5 C8 1_555 1_555
C9 C8 1_555 1_555
H6 C9 1_555 1_555
C10 C9 1_555 1_555
H7 C10 1_555 1_555
C11 C6 1_555 1_555
H8 C11 1_555 1_555
C12 N2 1_555 1_555
C13 C12 1_555 1_555
C14 C13 1_555 1_555
H9 C14 1_555 1_555
C15 C14 1_555 1_555
H10 C15 1_555 1_555
C16 C15 1_555 1_555
H11 C16 1_555 1_555
C17 N3 1_555 1_555
H12 C17 1_555 1_555
C18 C12 1_555 1_555
C19 C18 1_555 1_555
H13 C19 1_555 1_555
C20 C19 1_555 1_555
H14 C20 1_555 1_555
C21 C20 1_555 1_555
H15 C21 1_555 1_555
C22 C21 1_555 1_555
H16 C22 1_555 1_555
C23 C18 1_555 1_555
H17 C23 1_555 1_555
C2 C3 1_555 1_555
C3 C4 1_555 1_555
C6 C7 1_555 1_555
C10 C11 1_555 1_555
C16 C17 1_555 1_555
C22 C23 1_555 1_555

#END
