
#######################################################################
#
#                 Cambridge Crystallographic Data Centre
#                                CCDC 
#
#######################################################################
#
# If this CIF has been generated from an entry in the Cambridge 
# Structural Database, then it will include bibliographic, chemical, 
# crystal, experimental, refinement or atomic coordinate data resulting 
# from the CCDC's data processing and validation procedures.
#
#######################################################################

data_UDUVAR
_chemical_formula_moiety         'C16 H22 N4 S2'
_chemical_name_systematic        
4,4',6,6'-Tetramethyl-2,2'-(butane-1,4-diyldithio)dipyrimidine
_symmetry_cell_setting           monoclinic
_symmetry_space_group_name_H-M   'P 21/c'
_symmetry_Int_Tables_number      14
_space_group_name_Hall           '-P 2ybc'
loop_
_symmetry_equiv_pos_site_id
_symmetry_equiv_pos_as_xyz
1 x,y,z
2 -x,1/2+y,1/2-z
3 -x,-y,-z
4 x,1/2-y,1/2+z
_cell_length_a                   5.3851(2)
_cell_length_b                   12.6233(6)
_cell_length_c                   13.3282(6)
_cell_angle_alpha                90
_cell_angle_beta                 97.048(3)
_cell_angle_gamma                90
_cell_volume                     899.175
_exptl_crystal_colour            colorless
_exptl_crystal_description       prism
_cell_formula_units_Z            2
_exptl_crystal_recrystallization_method dichloromethane/2-propanol
loop_
_atom_site_label
_atom_site_type_symbol
_atom_site_fract_x
_atom_site_fract_y
_atom_site_fract_z
C1 C -0.7375(4) 0.7125(2) 0.12509(18)
H1 H -0.8199 0.6453 0.1274
H2 H -0.6684 0.7189 0.0623
H3 H -0.8561 0.7684 0.1303
C2 C -0.5309(4) 0.72010(18) 0.21157(16)
C3 C -0.5043(4) 0.80616(17) 0.27491(17)
H4 H -0.6156 0.8626 0.2653
C4 C -0.3120(4) 0.80799(16) 0.35237(16)
C5 C -0.2650(5) 0.89945(18) 0.4234(2)
H5 H -0.0991 0.9262 0.4207
H6 H -0.2810 0.8765 0.4910
H7 H -0.3847 0.9544 0.4043
C6 C -0.1932(3) 0.64617(15) 0.30250(14)
C7 C 0.2211(3) 0.57281(15) 0.42539(14)
H8 H 0.3101 0.6365 0.4101
H9 H 0.1287 0.5882 0.4817
C8 C 0.4073(3) 0.48445(14) 0.45449(14)
H10 H 0.4976 0.4685 0.3977
H11 H 0.3180 0.4211 0.4704
N1 N -0.1516(3) 0.72556(12) 0.36750(12)
N2 N -0.3725(3) 0.63767(13) 0.22425(12)
S1 S 0.00656(9) 0.53510(4) 0.31687(4)
C1B C 1.7375(4) 0.2875(2) 0.87491(18)
H1B H 1.8199 0.3547 0.8726
H2B H 1.6684 0.2811 0.9377
H3B H 1.8561 0.2316 0.8697
C2B C 1.5309(4) 0.27990(18) 0.78843(16)
C3B C 1.5043(4) 0.19384(17) 0.72509(17)
H4B H 1.6156 0.1374 0.7347
C4B C 1.3120(4) 0.19201(16) 0.64763(16)
C5B C 1.2650(5) 0.10055(18) 0.5766(2)
H5B H 1.0991 0.0738 0.5793
H6B H 1.2810 0.1235 0.5090
H7B H 1.3847 0.0456 0.5957
C6B C 1.1932(3) 0.35383(15) 0.69750(14)
C7B C 0.7789(3) 0.42719(15) 0.57461(14)
H8B H 0.6899 0.3635 0.5899
H9B H 0.8713 0.4118 0.5183
C8B C 0.5927(3) 0.51555(14) 0.54551(14)
H10B H 0.5024 0.5315 0.6023
H11B H 0.6820 0.5789 0.5296
N1B N 1.1516(3) 0.27444(12) 0.63250(12)
N2B N 1.3725(3) 0.36233(13) 0.77575(12)
S1B S 0.99344(9) 0.46490(4) 0.68313(4)
loop_
_geom_bond_atom_site_label_1
_geom_bond_atom_site_label_2
_geom_bond_site_symmetry_1
_geom_bond_site_symmetry_2
C1 H1 1_555 1_555
H2 C1 1_555 1_555
H3 C1 1_555 1_555
C2 C1 1_555 1_555
C3 C2 1_555 1_555
H4 C3 1_555 1_555
C4 C3 1_555 1_555
C5 C4 1_555 1_555
H5 C5 1_555 1_555
H6 C5 1_555 1_555
H7 C5 1_555 1_555
C6 N1 1_555 1_555
C7 H8 1_555 1_555
H9 C7 1_555 1_555
C8 C7 1_555 1_555
H10 C8 1_555 1_555
H11 C8 1_555 1_555
N1 C4 1_555 1_555
N2 C2 1_555 1_555
S1 C6 1_555 1_555
C1B H1B 1_555 1_555
H2B C1B 1_555 1_555
H3B C1B 1_555 1_555
C2B C1B 1_555 1_555
C3B C2B 1_555 1_555
H4B C3B 1_555 1_555
C4B C3B 1_555 1_555
C5B C4B 1_555 1_555
H5B C5B 1_555 1_555
H6B C5B 1_555 1_555
H7B C5B 1_555 1_555
C6B N1B 1_555 1_555
C7B H8B 1_555 1_555
H9B C7B 1_555 1_555
C8B C8 1_555 1_555
H10B C8B 1_555 1_555
H11B C8B 1_555 1_555
N1B C4B 1_555 1_555
N2B C2B 1_555 1_555
S1B C6B 1_555 1_555
C6 N2 1_555 1_555
C7 S1 1_555 1_555
C6B N2B 1_555 1_555
C7B C8B 1_555 1_555
C7B S1B 1_555 1_555

#END
