
#######################################################################
#
#                 Cambridge Crystallographic Data Centre
#                                CCDC 
#
#######################################################################
#
# If this CIF has been generated from an entry in the Cambridge 
# Structural Database, then it will include bibliographic, chemical, 
# crystal, experimental, refinement or atomic coordinate data resulting 
# from the CCDC's data processing and validation procedures.
#
#######################################################################

data_UFACIQ
_chemical_formula_moiety         'C15 H16 O5'
_chemical_name_systematic        
1,2,8,10-tetrahydroxy-6-methyl-1,4a,9a,10-tetrahydroanthracen-9(2H)-one
_symmetry_cell_setting           monoclinic
_symmetry_space_group_name_H-M   'P 21'
_symmetry_Int_Tables_number      4
_space_group_name_Hall           'P 2yb'
loop_
_symmetry_equiv_pos_site_id
_symmetry_equiv_pos_as_xyz
1 x,y,z
2 -x,1/2+y,-z
_cell_length_a                   5.8641(4)
_cell_length_b                   9.4679(6)
_cell_length_c                   11.6419(7)
_cell_angle_alpha                90
_cell_angle_beta                 94.465(6)
_cell_angle_gamma                90
_cell_volume                     644.405
_exptl_crystal_colour            white
_exptl_crystal_description       block
_cell_formula_units_Z            2
loop_
_atom_site_label
_atom_site_type_symbol
_atom_site_fract_x
_atom_site_fract_y
_atom_site_fract_z
O1 O 0.4439(6) 0.2921(4) -0.0410(2)
H1 H 0.3751 0.2716 0.0154
O2 O 0.3519(5) 0.2956(4) 0.1702(2)
O3 O 0.7323(5) 0.6994(3) 0.2678(2)
H2 H 0.6946 0.7341 0.2046
O4 O 0.7045(5) 0.1873(3) 0.3821(3)
H3 H 0.6545 0.1095 0.3984
O5 O 0.3652(5) 0.4041(4) 0.5631(3)
H4 H 0.3076 0.3490 0.6068
C1 C 1.0929(8) 0.5642(5) -0.1561(4)
H5 H 1.0954 0.4939 -0.2154
H6 H 1.2451 0.5781 -0.1213
H7 H 1.0360 0.6515 -0.1890
C2 C 0.9394(7) 0.5156(4) -0.0657(3)
C3 C 0.7576(7) 0.4270(5) -0.0927(3)
H8 H 0.7281 0.3964 -0.1683
C4 C 0.6170(6) 0.3822(5) -0.0090(3)
C5 C 0.6578(6) 0.4262(4) 0.1060(3)
C6 C 0.8409(6) 0.5208(4) 0.1320(3)
C7 C 0.9772(6) 0.5626(4) 0.0486(3)
H9 H 1.0983 0.6237 0.0679
C8 C 0.5182(6) 0.3722(4) 0.1949(3)
C9 C 0.5789(6) 0.4131(4) 0.3192(3)
H10 H 0.4776 0.4909 0.3374
C10 C 0.8257(6) 0.4666(4) 0.3399(3)
H11 H 0.9276 0.3865 0.3289
C11 C 0.8784(7) 0.5796(4) 0.2534(3)
H12 H 1.0384 0.6089 0.2677
C12 C 0.5403(7) 0.2929(4) 0.4031(3)
H13 H 0.3855 0.2548 0.3880
C13 C 0.5747(7) 0.3449(5) 0.5273(3)
H14 H 0.6172 0.2641 0.5770
C14 C 0.7543(7) 0.4556(5) 0.5465(3)
H15 H 0.7905 0.4864 0.6215
C15 C 0.8651(7) 0.5127(5) 0.4638(3)
H16 H 0.9710 0.5837 0.4826
loop_
_geom_bond_atom_site_label_1
_geom_bond_atom_site_label_2
_geom_bond_site_symmetry_1
_geom_bond_site_symmetry_2
O1 H1 1_555 1_555
O2 C8 1_555 1_555
O3 H2 1_555 1_555
O4 H3 1_555 1_555
O5 H4 1_555 1_555
C1 H5 1_555 1_555
H6 C1 1_555 1_555
H7 C1 1_555 1_555
C2 C1 1_555 1_555
C3 C2 1_555 1_555
H8 C3 1_555 1_555
C4 O1 1_555 1_555
C5 C4 1_555 1_555
C6 C5 1_555 1_555
C7 C2 1_555 1_555
H9 C7 1_555 1_555
C8 C5 1_555 1_555
C9 C8 1_555 1_555
H10 C9 1_555 1_555
C10 C9 1_555 1_555
H11 C10 1_555 1_555
C11 O3 1_555 1_555
H12 C11 1_555 1_555
C12 O4 1_555 1_555
H13 C12 1_555 1_555
C13 O5 1_555 1_555
H14 C13 1_555 1_555
C14 C13 1_555 1_555
H15 C14 1_555 1_555
C15 C10 1_555 1_555
H16 C15 1_555 1_555
C3 C4 1_555 1_555
C6 C7 1_555 1_555
C6 C11 1_555 1_555
C9 C12 1_555 1_555
C10 C11 1_555 1_555
C12 C13 1_555 1_555
C14 C15 1_555 1_555

#END
