
#######################################################################
#
#                 Cambridge Crystallographic Data Centre
#                                CCDC 
#
#######################################################################
#
# If this CIF has been generated from an entry in the Cambridge 
# Structural Database, then it will include bibliographic, chemical, 
# crystal, experimental, refinement or atomic coordinate data resulting 
# from the CCDC's data processing and validation procedures.
#
#######################################################################

data_UFAHOZ
_chemical_formula_moiety         'C10 H12 N2 O3'
_chemical_name_systematic        
N'-(4-Methoxybenzylidene)methoxyformohydrazide
_symmetry_cell_setting           triclinic
_symmetry_space_group_name_H-M   'P -1'
_symmetry_Int_Tables_number      2
_space_group_name_Hall           '-P 1'
loop_
_symmetry_equiv_pos_site_id
_symmetry_equiv_pos_as_xyz
1 x,y,z
2 -x,-y,-z
_cell_length_a                   7.3738(16)
_cell_length_b                   9.671(2)
_cell_length_c                   14.689(3)
_cell_angle_alpha                89.128(4)
_cell_angle_beta                 85.961(4)
_cell_angle_gamma                87.693(4)
_cell_volume                     1043.97
_exptl_crystal_colour            colorless
_exptl_crystal_description       prism
_chemical_melting_point          '464-466 K'
_cell_formula_units_Z            4
loop_
_atom_site_label
_atom_site_type_symbol
_atom_site_fract_x
_atom_site_fract_y
_atom_site_fract_z
O1 O 1.0466(3) 0.72191(18) -0.27347(12)
O2 O 0.4251(3) 0.72508(15) 0.24793(12)
O3 O 0.3898(3) 0.92926(15) 0.32026(11)
N1 N 0.6155(3) 0.85722(18) 0.10837(13)
N2 N 0.5379(3) 0.92379(19) 0.18515(14)
C1 C 1.1315(5) 0.8106(3) -0.34000(18)
H1 H 1.0423 0.8755 -0.3620
H2 H 1.1851 0.7565 -0.3899
H3 H 1.2243 0.8598 -0.3131
C2 C 0.9621(3) 0.7807(2) -0.19683(17)
C3 C 0.8874(4) 0.6903(2) -0.13273(18)
H4 H 0.8954 0.5958 -0.1440
C4 C 0.8010(3) 0.7373(2) -0.05229(17)
H5 H 0.7531 0.6744 -0.0094
C5 C 0.7851(3) 0.8790(2) -0.03477(16)
C6 C 0.8608(4) 0.9673(2) -0.10001(17)
H6 H 0.8516 1.0620 -0.0895
C7 C 0.9497(4) 0.9210(2) -0.18051(17)
H7 H 1.0004 0.9834 -0.2229
C8 C 0.6944(3) 0.9342(2) 0.04870(16)
H8 H 0.6943 1.0289 0.0586
C9 C 0.4497(4) 0.8480(2) 0.24991(17)
C10 C 0.2883(4) 0.8629(3) 0.39364(19)
H9 H 0.1935 0.8119 0.3699
H10 H 0.2354 0.9315 0.4351
H11 H 0.3677 0.8008 0.4253
H23 H 0.543(3) 1.0150(11) 0.1909(16)
O4 O 0.1151(3) 0.22590(17) 0.70570(12)
O5 O 0.6009(2) 0.21963(15) 0.15450(11)
O6 O 0.6331(2) 0.42596(15) 0.08266(11)
N3 N 0.4456(3) 0.35778(19) 0.30239(13)
N4 N 0.5092(3) 0.42285(19) 0.22325(14)
C11 C 0.0553(4) 0.3160(3) 0.77846(17)
H12 H 0.1506 0.3770 0.7898
H13 H 0.0253 0.2623 0.8325
H14 H -0.0503 0.3696 0.7621
C12 C 0.1746(3) 0.2837(2) 0.62447(17)
C13 C 0.1735(4) 0.4221(3) 0.60634(18)
H15 H 0.1303 0.4850 0.6508
C14 C 0.2377(5) 0.4679(3) 0.52072(19)
H16 H 0.2366 0.5627 0.5090
C15 C 0.3028(3) 0.3802(2) 0.45221(16)
C16 C 0.3010(4) 0.2401(3) 0.47233(18)
H17 H 0.3434 0.1766 0.4281
C17 C 0.2375(4) 0.1938(3) 0.55668(19)
H18 H 0.2369 0.0991 0.5685
C18 C 0.3728(4) 0.4349(2) 0.36433(16)
H19 H 0.3635 0.5298 0.3535
C19 C 0.5820(3) 0.3447(2) 0.15391(16)
C20 C 0.7034(4) 0.3552(3) 0.00160(17)
H20 H 0.8084 0.2986 0.0149
H21 H 0.7369 0.4218 -0.0451
H22 H 0.6118 0.2978 -0.0192
H24 H 0.496(3) 0.5137(11) 0.2144(17)
loop_
_geom_bond_atom_site_label_1
_geom_bond_atom_site_label_2
_geom_bond_site_symmetry_1
_geom_bond_site_symmetry_2
O1 C1 1_555 1_555
O2 C9 1_555 1_555
O3 C9 1_555 1_555
O4 C11 1_555 1_555
O5 C19 1_555 1_555
O6 C19 1_555 1_555
N1 N2 1_555 1_555
N2 C9 1_555 1_555
N3 N4 1_555 1_555
N4 C19 1_555 1_555
C1 H1 1_555 1_555
H2 C1 1_555 1_555
H3 C1 1_555 1_555
C2 O1 1_555 1_555
C3 C2 1_555 1_555
H4 C3 1_555 1_555
C4 C3 1_555 1_555
H5 C4 1_555 1_555
C5 C4 1_555 1_555
C6 C5 1_555 1_555
H6 C6 1_555 1_555
C7 C2 1_555 1_555
H7 C7 1_555 1_555
C8 N1 1_555 1_555
H8 C8 1_555 1_555
C10 O3 1_555 1_555
H9 C10 1_555 1_555
H10 C10 1_555 1_555
H11 C10 1_555 1_555
C11 H12 1_555 1_555
H13 C11 1_555 1_555
H14 C11 1_555 1_555
C12 O4 1_555 1_555
C13 C12 1_555 1_555
H15 C13 1_555 1_555
C14 C13 1_555 1_555
H16 C14 1_555 1_555
C15 C14 1_555 1_555
C16 C15 1_555 1_555
H17 C16 1_555 1_555
C17 C12 1_555 1_555
H18 C17 1_555 1_555
C18 N3 1_555 1_555
H19 C18 1_555 1_555
C20 O6 1_555 1_555
H20 C20 1_555 1_555
H21 C20 1_555 1_555
H22 C20 1_555 1_555
H23 N2 1_555 1_555
H24 N4 1_555 1_555
C5 C8 1_555 1_555
C6 C7 1_555 1_555
C15 C18 1_555 1_555
C16 C17 1_555 1_555

#END
