
#######################################################################
#
#                 Cambridge Crystallographic Data Centre
#                                CCDC 
#
#######################################################################
#
# If this CIF has been generated from an entry in the Cambridge 
# Structural Database, then it will include bibliographic, chemical, 
# crystal, experimental, refinement or atomic coordinate data resulting 
# from the CCDC's data processing and validation procedures.
#
#######################################################################

data_UFALIX
_chemical_formula_moiety         'C12 H9 N1 O5 S1'
_chemical_name_systematic        '4-Nitrophenyl benzenesulfonate'
_symmetry_cell_setting           monoclinic
_symmetry_space_group_name_H-M   'P 21/c'
_symmetry_Int_Tables_number      14
_space_group_name_Hall           '-P 2ybc'
loop_
_symmetry_equiv_pos_site_id
_symmetry_equiv_pos_as_xyz
1 x,y,z
2 -x,1/2+y,1/2-z
3 -x,-y,-z
4 x,1/2-y,1/2+z
_cell_length_a                   10.015(3)
_cell_length_b                   10.852(4)
_cell_length_c                   11.396(4)
_cell_angle_alpha                90
_cell_angle_beta                 101.651(8)
_cell_angle_gamma                90
_cell_volume                     1213.03
_exptl_crystal_colour            colorless
_exptl_crystal_description       block
_chemical_melting_point          '340-342 K'
_cell_formula_units_Z            4
_exptl_crystal_recrystallization_method acetone/ethanol
loop_
_atom_site_label
_atom_site_type_symbol
_atom_site_fract_x
_atom_site_fract_y
_atom_site_fract_z
S1 S 0.88009(4) 0.64514(3) 0.20115(3)
C1 C 0.84763(14) 0.53463(13) 0.08707(13)
C2 C 0.77611(15) 0.56938(15) -0.02609(13)
C3 C 0.75429(15) 0.48225(16) -0.11640(14)
C4 C 0.80280(15) 0.36285(15) -0.09411(14)
C5 C 0.87286(16) 0.32943(15) 0.01874(15)
C6 C 0.89596(15) 0.41514(14) 0.11100(14)
O1 O 0.98137(11) 0.59973(11) 0.29756(9)
O2 O 0.89369(13) 0.76432(10) 0.15216(10)
O3 O 0.73797(11) 0.65581(10) 0.24513(9)
C7 C 0.70056(15) 0.56091(13) 0.31653(13)
C8 C 0.75723(16) 0.55939(14) 0.43750(13)
C9 C 0.71255(15) 0.47233(14) 0.50931(13)
C10 C 0.61342(14) 0.38957(13) 0.45633(13)
C11 C 0.55842(15) 0.38921(15) 0.33496(14)
C12 C 0.60276(15) 0.47702(15) 0.26344(13)
N1 N 0.56559(13) 0.29760(13) 0.53293(12)
O4 O 0.59839(14) 0.31087(12) 0.64123(11)
O5 O 0.49469(14) 0.21269(13) 0.48477(12)
H1 H 0.7429(19) 0.6529(17) -0.0389(16)
H2 H 0.7063(19) 0.5073(18) -0.1976(17)
H3 H 0.7882(19) 0.3017(17) -0.1583(16)
H4 H 0.910(2) 0.2527(19) 0.0343(17)
H5 H 0.9479(19) 0.3944(18) 0.1900(17)
H6 H 0.8242(18) 0.6151(17) 0.4690(16)
H7 H 0.7501(19) 0.4703(17) 0.5940(17)
H8 H 0.4911(19) 0.3330(17) 0.3031(16)
H9 H 0.5667(19) 0.4819(17) 0.1794(17)
loop_
_geom_bond_atom_site_label_1
_geom_bond_atom_site_label_2
_geom_bond_site_symmetry_1
_geom_bond_site_symmetry_2
S1 C1 1_555 1_555
C1 C2 1_555 1_555
C2 C3 1_555 1_555
C3 C4 1_555 1_555
C4 C5 1_555 1_555
C5 C6 1_555 1_555
C6 C1 1_555 1_555
O1 S1 1_555 1_555
O2 S1 1_555 1_555
O3 S1 1_555 1_555
C7 O3 1_555 1_555
C8 C7 1_555 1_555
C9 C8 1_555 1_555
C10 C9 1_555 1_555
C11 C10 1_555 1_555
C12 C7 1_555 1_555
N1 C10 1_555 1_555
O4 N1 1_555 1_555
O5 N1 1_555 1_555
H1 C2 1_555 1_555
H2 C3 1_555 1_555
H3 C4 1_555 1_555
H4 C5 1_555 1_555
H5 C6 1_555 1_555
H6 C8 1_555 1_555
H7 C9 1_555 1_555
H8 C11 1_555 1_555
H9 C12 1_555 1_555
C11 C12 1_555 1_555

#END
