
#######################################################################
#
#                 Cambridge Crystallographic Data Centre
#                                CCDC 
#
#######################################################################
#
# If this CIF has been generated from an entry in the Cambridge 
# Structural Database, then it will include bibliographic, chemical, 
# crystal, experimental, refinement or atomic coordinate data resulting 
# from the CCDC's data processing and validation procedures.
#
#######################################################################

data_UFALOD
_chemical_name_common            4-Phenylsulfonyloxyacetanilide
_chemical_formula_moiety         'C14 H13 N1 O4 S1'
_chemical_name_systematic        N-(4-(Acetylamino)phenyl)benzenesulfonate
_symmetry_cell_setting           monoclinic
_symmetry_space_group_name_H-M   'P 21/n'
_symmetry_Int_Tables_number      14
_space_group_name_Hall           '-P 2yn'
loop_
_symmetry_equiv_pos_site_id
_symmetry_equiv_pos_as_xyz
1 x,y,z
2 1/2-x,1/2+y,1/2-z
3 -x,-y,-z
4 1/2+x,1/2-y,1/2+z
_cell_length_a                   11.9028(14)
_cell_length_b                   8.7768(9)
_cell_length_c                   13.7394(15)
_cell_angle_alpha                90
_cell_angle_beta                 110.144(4)
_cell_angle_gamma                90
_cell_volume                     1347.54
_exptl_crystal_colour            colorless
_exptl_crystal_description       block
_chemical_melting_point          '386-387 K'
_cell_formula_units_Z            4
_exptl_crystal_recrystallization_method 'aqueous ethanol'
loop_
_atom_site_label
_atom_site_type_symbol
_atom_site_fract_x
_atom_site_fract_y
_atom_site_fract_z
S1 S 0.68262(3) 0.63484(4) 0.48846(3)
C1 C 0.75999(13) 0.57481(16) 0.61551(11)
C2 C 0.88245(14) 0.60072(18) 0.65761(12)
C3 C 0.94228(15) 0.5596(2) 0.75990(13)
C4 C 0.88100(15) 0.4921(2) 0.81739(12)
C5 C 0.75873(16) 0.4664(2) 0.77403(13)
C6 C 0.69649(14) 0.50892(19) 0.67272(12)
O1 O 0.76729(10) 0.68778(12) 0.44310(9)
O2 O 0.58457(10) 0.73088(13) 0.48467(9)
O3 O 0.61972(9) 0.48512(12) 0.43025(8)
C7 C 0.69032(12) 0.35872(16) 0.42162(11)
C8 C 0.76458(13) 0.36714(17) 0.36377(11)
C9 C 0.82522(14) 0.23759(17) 0.35126(11)
C10 C 0.81121(13) 0.10049(17) 0.39774(11)
C11 C 0.73370(14) 0.09522(17) 0.45465(12)
C12 C 0.67308(13) 0.22412(17) 0.46683(12)
N1 N 0.86890(12) -0.03536(15) 0.38809(10)
C13 C 0.96450(13) -0.05347(18) 0.35576(12)
O4 O 1.01465(12) 0.05343(14) 0.33170(12)
C14 C 1.00092(16) -0.2161(2) 0.35039(14)
H1 H 0.9265(18) 0.651(2) 0.6176(16)
H2 H 1.0294(19) 0.578(2) 0.7907(16)
H3 H 0.9233(19) 0.461(2) 0.8887(16)
H4 H 0.720(2) 0.421(2) 0.8139(17)
H5 H 0.6112(19) 0.493(2) 0.6414(15)
H6 H 0.7745(16) 0.462(2) 0.3331(14)
H7 H 0.8753(17) 0.244(2) 0.3133(14)
H8 H 0.7254(15) 0.002(2) 0.4843(13)
H9 H 0.6220(17) 0.221(2) 0.5066(15)
H10 H 0.8453(17) -0.117(2) 0.4077(14)
H11 H 0.949(2) -0.270(2) 0.3034(17)
H12 H 1.0039(19) -0.273(2) 0.4107(17)
H13 H 1.076(2) -0.222(2) 0.3411(16)
loop_
_geom_bond_atom_site_label_1
_geom_bond_atom_site_label_2
_geom_bond_site_symmetry_1
_geom_bond_site_symmetry_2
S1 C1 1_555 1_555
C1 C2 1_555 1_555
C2 C3 1_555 1_555
C3 C4 1_555 1_555
C4 C5 1_555 1_555
C5 C6 1_555 1_555
C6 C1 1_555 1_555
O1 S1 1_555 1_555
O2 S1 1_555 1_555
O3 S1 1_555 1_555
C7 O3 1_555 1_555
C8 C7 1_555 1_555
C9 C8 1_555 1_555
C10 C9 1_555 1_555
C11 C10 1_555 1_555
C12 C7 1_555 1_555
N1 C10 1_555 1_555
C13 N1 1_555 1_555
O4 C13 1_555 1_555
C14 C13 1_555 1_555
H1 C2 1_555 1_555
H2 C3 1_555 1_555
H3 C4 1_555 1_555
H4 C5 1_555 1_555
H5 C6 1_555 1_555
H6 C8 1_555 1_555
H7 C9 1_555 1_555
H8 C11 1_555 1_555
H9 C12 1_555 1_555
H10 N1 1_555 1_555
H11 C14 1_555 1_555
H12 C14 1_555 1_555
H13 C14 1_555 1_555
C11 C12 1_555 1_555

#END
