
#######################################################################
#
#                 Cambridge Crystallographic Data Centre
#                                CCDC 
#
#######################################################################
#
# If this CIF has been generated from an entry in the Cambridge 
# Structural Database, then it will include bibliographic, chemical, 
# crystal, experimental, refinement or atomic coordinate data resulting 
# from the CCDC's data processing and validation procedures.
#
#######################################################################

data_UFAPUN
_chemical_compound_source        'underground organs of Ligularia platyglossa'
_chemical_formula_moiety         'C15 H16 O4'
_chemical_name_systematic        
1-hydroxy-2-oxo-(14\a,15\a)eremophil-1(10),7(11),8(9)-trien-12,8-olide
_chemical_properties_biological  'Activity against the HL-60 cell line'
_symmetry_cell_setting           orthorhombic
_symmetry_space_group_name_H-M   'P 21 21 21'
_symmetry_Int_Tables_number      19
_space_group_name_Hall           'P 2ac 2ab'
loop_
_symmetry_equiv_pos_site_id
_symmetry_equiv_pos_as_xyz
1 x,y,z
2 1/2-x,-y,1/2+z
3 -x,1/2+y,1/2-z
4 1/2+x,1/2-y,-z
_cell_length_a                   6.5553(13)
_cell_length_b                   19.256(3)
_cell_length_c                   20.007(3)
_cell_angle_alpha                90
_cell_angle_beta                 90
_cell_angle_gamma                90
_cell_volume                     2525.46
_exptl_crystal_colour            yellow
_exptl_crystal_description       needle
_chemical_melting_point          '211-213 deg.C'
_cell_formula_units_Z            8
loop_
_atom_site_label
_atom_site_type_symbol
_atom_site_fract_x
_atom_site_fract_y
_atom_site_fract_z
C1 C -0.0971(10) 0.3367(3) 0.4105(3)
C2 C 0.0270(11) 0.2756(3) 0.4166(3)
C3 C 0.1973(11) 0.2675(3) 0.3679(3)
H1 H 0.1490 0.2398 0.3300
H2 H 0.3082 0.2417 0.3894
C4 C 0.2819(11) 0.3358(3) 0.3415(3)
H3 H 0.3465 0.3596 0.3800
C5 C 0.1136(11) 0.3847(3) 0.3154(3)
C6 C 0.2042(11) 0.4577(3) 0.3048(3)
H4 H 0.2944 0.4686 0.3425
H5 H 0.2877 0.4573 0.2642
C7 C 0.0486(11) 0.5136(3) 0.2988(3)
C8 C -0.1483(10) 0.5031(3) 0.3290(3)
C9 C -0.2000(10) 0.4467(3) 0.3636(3)
H6 H -0.3258 0.4449 0.3861
C10 C -0.0622(10) 0.3881(3) 0.3664(3)
C11 C 0.0530(13) 0.5786(3) 0.2737(3)
C12 C -0.1481(13) 0.6097(3) 0.2855(3)
C13 C 0.2197(14) 0.6174(3) 0.2390(3)
H7 H 0.3436 0.5899 0.2396
H8 H 0.2437 0.6611 0.2619
H9 H 0.1801 0.6265 0.1931
C14 C 0.0221(12) 0.3584(3) 0.2488(3)
H10 H 0.1203 0.3651 0.2131
H11 H -0.1013 0.3841 0.2388
H12 H -0.0099 0.3094 0.2527
C15 C 0.4526(11) 0.3210(3) 0.2908(3)
H13 H 0.5586 0.2936 0.3121
H14 H 0.5098 0.3645 0.2753
H15 H 0.3971 0.2955 0.2532
O1 O -0.0120(8) 0.2319(2) 0.4603(2)
O2 O -0.2581(7) 0.3441(2) 0.4540(2)
H16 H -0.2550 0.3001 0.4705
O3 O -0.2665(8) 0.56126(19) 0.3205(2)
O4 O -0.2133(9) 0.6660(2) 0.2718(2)
C16 C 0.3502(10) 0.5635(3) 0.0282(3)
C17 C 0.4677(11) 0.6061(3) 0.0747(3)
C18 C 0.6524(10) 0.5741(3) 0.1053(3)
H17 H 0.6175 0.5580 0.1504
H18 H 0.7578 0.6099 0.1098
C19 C 0.7411(11) 0.5132(3) 0.0661(3)
H19 H 0.7989 0.5323 0.0243
C20 C 0.5749(10) 0.4607(3) 0.0461(3)
C21 C 0.6716(10) 0.4069(3) -0.0032(3)
H20 H 0.7553 0.4318 -0.0360
H21 H 0.7616 0.3757 0.0219
C22 C 0.5155(11) 0.3645(3) -0.0394(3)
C23 C 0.3142(11) 0.3944(3) -0.0497(3)
C24 C 0.2600(11) 0.4567(3) -0.0291(3)
H22 H 0.1329 0.4751 -0.0417
C25 C 0.3957(10) 0.4969(3) 0.0129(3)
C26 C 0.5211(11) 0.3020(3) -0.0700(3)
C27 C 0.3180(13) 0.2900(3) -0.0984(3)
C28 C 0.6871(12) 0.2505(3) -0.0768(3)
H23 H 0.8101 0.2685 -0.0562
H24 H 0.7124 0.2417 -0.1238
H25 H 0.6476 0.2076 -0.0549
C29 C 0.4922(11) 0.4195(3) 0.1069(3)
H26 H 0.4390 0.4517 0.1399
H27 H 0.6017 0.3925 0.1266
H28 H 0.3841 0.3886 0.0924
C30 C 0.9162(10) 0.4827(3) 0.1056(3)
H29 H 1.0178 0.5183 0.1137
H30 H 0.9772 0.4450 0.0804
H31 H 0.8659 0.4652 0.1479
O5 O 0.4074(8) 0.6652(2) 0.0874(2)
O6 O 0.1795(7) 0.5943(2) 0.0009(2)
H32 H 0.2309 0.6400 0.0180
O7 O 0.1980(7) 0.3489(2) -0.0862(2)
O8 O 0.2493(9) 0.2408(2) -0.1274(3)
loop_
_geom_bond_atom_site_label_1
_geom_bond_atom_site_label_2
_geom_bond_site_symmetry_1
_geom_bond_site_symmetry_2
C1 C2 1_555 1_555
C2 C3 1_555 1_555
C3 H1 1_555 1_555
H2 C3 1_555 1_555
C4 C3 1_555 1_555
H3 C4 1_555 1_555
C5 C4 1_555 1_555
C6 C5 1_555 1_555
H4 C6 1_555 1_555
H5 C6 1_555 1_555
C7 C6 1_555 1_555
C8 C7 1_555 1_555
C9 C8 1_555 1_555
H6 C9 1_555 1_555
C10 C1 1_555 1_555
C11 C7 1_555 1_555
C12 C11 1_555 1_555
C13 C11 1_555 1_555
H7 C13 1_555 1_555
H8 C13 1_555 1_555
H9 C13 1_555 1_555
C14 C5 1_555 1_555
H10 C14 1_555 1_555
H11 C14 1_555 1_555
H12 C14 1_555 1_555
C15 C4 1_555 1_555
H13 C15 1_555 1_555
H14 C15 1_555 1_555
H15 C15 1_555 1_555
O1 C2 1_555 1_555
O2 C1 1_555 1_555
H16 O2 1_555 1_555
O3 C8 1_555 1_555
O4 C12 1_555 1_555
C16 C17 1_555 1_555
C17 C18 1_555 1_555
C18 H17 1_555 1_555
H18 C18 1_555 1_555
C19 C18 1_555 1_555
H19 C19 1_555 1_555
C20 C19 1_555 1_555
C21 C20 1_555 1_555
H20 C21 1_555 1_555
H21 C21 1_555 1_555
C22 C21 1_555 1_555
C23 C22 1_555 1_555
C24 C23 1_555 1_555
H22 C24 1_555 1_555
C25 C16 1_555 1_555
C26 C22 1_555 1_555
C27 C26 1_555 1_555
C28 C26 1_555 1_555
H23 C28 1_555 1_555
H24 C28 1_555 1_555
H25 C28 1_555 1_555
C29 C20 1_555 1_555
H26 C29 1_555 1_555
H27 C29 1_555 1_555
H28 C29 1_555 1_555
C30 C19 1_555 1_555
H29 C30 1_555 1_555
H30 C30 1_555 1_555
H31 C30 1_555 1_555
O5 C17 1_555 1_555
O6 C16 1_555 1_555
H32 O6 1_555 1_555
O7 C23 1_555 1_555
O8 C27 1_555 1_555
C5 C10 1_555 1_555
C9 C10 1_555 1_555
C12 O3 1_555 1_555
C20 C25 1_555 1_555
C24 C25 1_555 1_555
C27 O7 1_555 1_555

#END
