
#######################################################################
#
#                 Cambridge Crystallographic Data Centre
#                                CCDC 
#
#######################################################################
#
# If this CIF has been generated from an entry in the Cambridge 
# Structural Database, then it will include bibliographic, chemical, 
# crystal, experimental, refinement or atomic coordinate data resulting 
# from the CCDC's data processing and validation procedures.
#
#######################################################################

data_UFARIF
_chemical_formula_moiety         'C142 H114 O2,3(C1 H1 Cl3)'
_chemical_name_systematic        
'2,7,13,19,24,30-hexa-t-butyl-9,11,15,17,26,28,32,34-octaphenyl-11,15,28,32-tetrahydro-11,32:15,28-dimethanotetrabenzo[i1j1,jk,tu,yz]pyreno[4,5-b]decacene-35,36-dione chloroform solvate'
_symmetry_cell_setting           triclinic
_symmetry_space_group_name_H-M   'P -1'
_symmetry_Int_Tables_number      2
_space_group_name_Hall           '-P 1'
loop_
_symmetry_equiv_pos_site_id
_symmetry_equiv_pos_as_xyz
1 x,y,z
2 -x,-y,-z
_cell_length_a                   15.825(3)
_cell_length_b                   21.087(5)
_cell_length_c                   23.318(5)
_cell_angle_alpha                104.423(3)
_cell_angle_beta                 108.654(3)
_cell_angle_gamma                100.145(3)
_cell_volume                     6857.07
_exptl_crystal_colour            yellow
_exptl_crystal_description       needle
_cell_formula_units_Z            2
loop_
_atom_site_label
_atom_site_type_symbol
_atom_site_fract_x
_atom_site_fract_y
_atom_site_fract_z
C1 C 0.3491(4) 0.2408(2) 0.5591(3)
H1 H 0.377296 0.287674 0.568065
C2 C 0.3546(4) 0.2169(2) 0.6105(2)
C3 C 0.3111(4) 0.1479(3) 0.5954(3)
H2 H 0.310963 0.130420 0.629201
C4 C 0.2681(4) 0.1039(2) 0.5326(3)
C5 C 0.2249(4) 0.0319(3) 0.5173(3)
H3 H 0.222171 0.014516 0.550689
C6 C 0.1889(4) -0.0104(3) 0.4565(3)
H4 H 0.157991 -0.056720 0.447635
C7 C 0.1955(4) 0.0124(3) 0.4037(3)
C8 C 0.1597(4) -0.0315(3) 0.3416(3)
H5 H 0.129435 -0.077933 0.332900
C9 C 0.1666(4) -0.0098(3) 0.2913(3)
C10 C 0.2123(4) 0.0580(2) 0.3070(2)
H6 H 0.218220 0.073548 0.273174
C11 C 0.2502(4) 0.1053(2) 0.3683(2)
C12 C 0.2383(4) 0.0827(2) 0.4178(2)
C13 C 0.2710(4) 0.1287(2) 0.4815(2)
C14 C 0.3043(4) 0.1994(2) 0.4953(2)
C15 C 0.3001(3) 0.2256(2) 0.4410(2)
C16 C 0.3043(3) 0.2937(2) 0.4453(2)
C17 C 0.3177(3) 0.3187(2) 0.3974(2)
C18 C 0.3213(3) 0.3887(2) 0.4006(2)
H7 H 0.307553 0.417260 0.432962
C19 C 0.3440(3) 0.4134(2) 0.3580(2)
C20 C 0.3437(3) 0.4820(2) 0.3462(2)
C21 C 0.2519(3) 0.4625(2) 0.2879(2)
C22 C 0.1652(3) 0.4727(2) 0.2854(2)
C23 C 0.0864(3) 0.4405(2) 0.2269(2)
C24 C -0.0013(3) 0.4475(2) 0.2247(2)
C25 C 0.1526(3) 0.5095(2) 0.3404(2)
H8 H 0.204718 0.531201 0.379643
C26 C 0.0649(3) 0.5144(2) 0.3379(2)
C27 C -0.0110(4) 0.4842(2) 0.2803(2)
H9 H -0.070520 0.488455 0.278498
C28 C -0.0804(3) 0.4134(2) 0.1648(2)
C29 C -0.1850(3) 0.4043(2) 0.1513(2)
C30 C -0.2172(3) 0.3303(2) 0.1509(2)
C31 C -0.2428(3) 0.3045(2) 0.1931(2)
H10 H -0.252181 0.333984 0.227222
C32 C -0.2554(3) 0.2344(2) 0.1867(2)
C33 C -0.2783(3) 0.2071(2) 0.2322(2)
C34 C -0.2956(3) 0.1368(2) 0.2223(2)
C35 C -0.3088(3) 0.1067(2) 0.2707(2)
C36 C -0.2799(4) 0.1443(2) 0.3357(2)
H11 H -0.243989 0.190465 0.350541
C37 C -0.3013(4) 0.1169(2) 0.3793(2)
C38 C -0.3509(4) 0.0483(3) 0.3591(2)
H12 H -0.367549 0.029617 0.388323
C39 C -0.3759(4) 0.0073(2) 0.2957(2)
C40 C -0.4266(4) -0.0630(2) 0.2735(2)
H13 H -0.442206 -0.082271 0.302804
C41 C -0.4528(4) -0.1023(2) 0.2128(2)
H14 H -0.488484 -0.148300 0.199476
C42 C -0.4282(4) -0.0765(2) 0.1674(2)
C43 C -0.4552(3) -0.1181(2) 0.1031(2)
H15 H -0.491389 -0.164019 0.089433
C44 C -0.4301(3) -0.0931(2) 0.0605(2)
C45 C -0.3764(3) -0.0263(2) 0.0810(2)
H16 H -0.358743 -0.009429 0.051113
C46 C -0.3469(3) 0.0177(2) 0.1441(2)
C47 C -0.3755(3) -0.0074(2) 0.1871(2)
C48 C -0.3524(4) 0.0357(2) 0.2512(2)
C49 C -0.2975(3) 0.0917(2) 0.1635(2)
C50 C -0.2597(3) 0.1196(2) 0.1256(2)
C51 C -0.2411(3) 0.1900(2) 0.1347(2)
C52 C -0.2124(3) 0.2192(2) 0.0931(2)
H17 H -0.198848 0.191311 0.060257
C53 C -0.2036(3) 0.2858(2) 0.0987(2)
C54 C -0.1682(3) 0.3290(2) 0.0643(2)
C55 C -0.0703(3) 0.3694(2) 0.1140(2)
C56 C 0.0148(3) 0.3546(2) 0.1177(2)
C57 C 0.0952(3) 0.3933(2) 0.1739(2)
C58 C 0.1816(3) 0.3791(2) 0.1795(2)
C59 C 0.0211(4) 0.2997(2) 0.0726(2)
H18 H -0.032941 0.273412 0.035694
C60 C 0.1026(4) 0.2826(2) 0.0798(2)
C61 C 0.1833(4) 0.3230(2) 0.1324(2)
H19 H 0.240441 0.312378 0.136493
C62 C 0.2608(3) 0.4182(2) 0.2364(2)
C63 C 0.3583(3) 0.4080(2) 0.2573(2)
C64 C 0.3562(3) 0.3693(2) 0.3051(2)
C65 C 0.3538(3) 0.3035(2) 0.3008(2)
H20 H 0.365855 0.275894 0.267006
C66 C 0.3335(3) 0.2752(2) 0.3461(2)
C67 C 0.3204(3) 0.2049(2) 0.3388(2)
C68 C 0.2936(3) 0.1797(2) 0.3823(2)
C69 C 0.4112(4) 0.2627(2) 0.6806(2)
C70 C 0.4252(5) 0.3387(3) 0.6867(3)
H21 H 0.464287 0.366870 0.731073
H22 H 0.364749 0.348314 0.674797
H23 H 0.455452 0.349112 0.658182
C71 C 0.3623(5) 0.2497(3) 0.7251(3)
H24 H 0.347207 0.201015 0.720026
H25 H 0.305002 0.263820 0.714246
H26 H 0.403273 0.275964 0.769603
C72 C 0.5039(5) 0.2466(3) 0.7018(3)
H27 H 0.538556 0.259004 0.676259
H28 H 0.493287 0.197753 0.695716
H29 H 0.539799 0.272701 0.747224
C73 C 0.2811(4) 0.3412(2) 0.4958(2)
C74 C 0.1898(4) 0.3298(3) 0.4887(3)
H30 H 0.144496 0.290958 0.455708
C75 C 0.1637(5) 0.3744(4) 0.5293(4)
H31 H 0.100370 0.365729 0.524465
C76 C 0.2286(4) 0.4316(3) 0.5771(3)
H32 H 0.209636 0.462784 0.604046
C77 C 0.3194(4) 0.4429(2) 0.5851(2)
H33 H 0.364554 0.481155 0.618962
C78 C 0.3464(4) 0.3986(2) 0.5440(2)
H34 H 0.409745 0.407572 0.548882
C79 C 0.3758(3) 0.5482(2) 0.4014(2)
C80 C 0.4150(3) 0.5519(2) 0.4657(2)
H35 H 0.418087 0.511366 0.476210
C81 C 0.4494(3) 0.6147(2) 0.5141(2)
H36 H 0.473401 0.616831 0.557629
C82 C 0.4489(4) 0.6736(2) 0.4990(2)
H37 H 0.474905 0.716587 0.532116
C83 C 0.4109(4) 0.6705(2) 0.4362(3)
H38 H 0.409642 0.711345 0.426076
C84 C 0.3740(3) 0.6079(2) 0.3871(2)
H39 H 0.347656 0.606185 0.343785
C85 C 0.0507(4) 0.5524(3) 0.3984(2)
C86 C -0.0158(5) 0.5054(3) 0.4118(3)
H40 H 0.005784 0.465185 0.414973
H41 H -0.076986 0.491349 0.376961
H42 H -0.020268 0.528669 0.452237
C87 C 0.1387(5) 0.5881(4) 0.4537(3)
H43 H 0.125618 0.611613 0.490473
H44 H 0.177117 0.621480 0.443058
H45 H 0.171908 0.554960 0.464544
C88 C 0.0048(5) 0.6116(3) 0.3839(3)
H46 H -0.012444 0.632381 0.419488
H47 H -0.050693 0.592252 0.344249
H48 H 0.049640 0.646477 0.379227
C89 C -0.2158(3) 0.4625(2) 0.1821(2)
C90 C -0.2870(4) 0.4535(2) 0.2037(2)
H49 H -0.317280 0.409044 0.200663
C91 C -0.3152(4) 0.5093(3) 0.2300(3)
H50 H -0.364924 0.502648 0.244333
C92 C -0.2707(4) 0.5734(3) 0.2351(3)
H51 H -0.287874 0.611511 0.254838
C93 C -0.2012(4) 0.5834(3) 0.2118(3)
H52 H -0.172491 0.627711 0.213441
C94 C -0.1743(4) 0.5277(2) 0.1862(2)
H53 H -0.125617 0.534487 0.170857
C95 C -0.2917(4) 0.2571(2) 0.2842(2)
C96 C -0.2159(4) 0.3122(2) 0.3292(2)
H54 H -0.155357 0.315845 0.328884
C97 C -0.2313(4) 0.3613(2) 0.3743(2)
H55 H -0.180877 0.399440 0.403859
C98 C -0.3178(4) 0.3558(3) 0.3770(2)
H56 H -0.326930 0.389718 0.408089
C99 C -0.3909(4) 0.3008(2) 0.3343(2)
H57 H -0.450072 0.295691 0.337201
C100 C -0.3788(4) 0.2526(2) 0.2870(2)
H58 H -0.430677 0.216252 0.256257
C101 C -0.2691(4) 0.1635(3) 0.4506(2)
C102 C -0.2992(5) 0.2279(3) 0.4518(3)
H59 H -0.276931 0.258145 0.496186
H60 H -0.367172 0.216192 0.432767
H61 H -0.273126 0.251185 0.427188
C103 C -0.3179(5) 0.1285(3) 0.4864(3)
H62 H -0.302531 0.085394 0.485923
H63 H -0.385295 0.119393 0.465221
H64 H -0.297222 0.158299 0.530760
C104 C -0.1653(5) 0.1795(4) 0.4821(3)
H65 H -0.135828 0.207804 0.462412
H66 H -0.147248 0.136959 0.476543
H67 H -0.145299 0.204202 0.527911
C105 C -0.4587(3) -0.1372(2) -0.0106(2)
C106 C -0.5348(4) -0.2036(2) -0.0289(2)
H68 H -0.509030 -0.232919 -0.005512
H69 H -0.557192 -0.227378 -0.075084
H70 H -0.586421 -0.192751 -0.017775
C107 C -0.3737(4) -0.1534(3) -0.0198(3)
H71 H -0.324731 -0.110893 -0.006249
H72 H -0.389536 -0.178052 -0.065122
H73 H -0.351546 -0.181753 0.006001
C108 C -0.4977(4) -0.0979(2) -0.0550(2)
H74 H -0.549762 -0.084119 -0.046689
H75 H -0.519270 -0.127112 -0.099719
H76 H -0.448963 -0.057254 -0.047149
C109 C -0.2324(3) 0.0773(2) 0.0753(2)
C110 C -0.1595(4) 0.0496(2) 0.0953(3)
H77 H -0.131386 0.054459 0.139333
C111 C -0.1269(4) 0.0148(3) 0.0515(3)
H78 H -0.077396 -0.004623 0.065617
C112 C -0.1666(5) 0.0086(3) -0.0119(3)
H79 H -0.143790 -0.014703 -0.041601
C113 C -0.2395(5) 0.0358(2) -0.0334(3)
H80 H -0.266572 0.031248 -0.077433
C114 C -0.2729(4) 0.0701(2) 0.0102(2)
H81 H -0.323204 0.088545 -0.004277
C115 C -0.1856(4) 0.3003(2) -0.0066(2)
C116 C -0.1358(4) 0.3346(2) -0.0334(2)
H82 H -0.088562 0.375763 -0.006936
C117 C -0.1521(4) 0.3110(3) -0.0971(3)
H83 H -0.115290 0.335236 -0.114088
C118 C -0.2218(4) 0.2523(3) -0.1370(2)
H84 H -0.233393 0.236029 -0.181362
C119 C -0.2742(4) 0.2178(3) -0.1116(2)
H85 H -0.322306 0.177242 -0.138606
C120 C -0.2576(4) 0.2413(2) -0.0473(2)
H86 H -0.295136 0.217498 -0.030441
C121 C 0.1054(4) 0.2203(3) 0.0309(2)
C122 C 0.0293(8) 0.1568(5) 0.0244(6)
H87 H 0.026223 0.116855 -0.009327
H88 H -0.031259 0.166328 0.013295
H89 H 0.045469 0.147585 0.065164
C123 C 0.0718(7) 0.2302(5) -0.0359(4)
H90 H 0.121434 0.263142 -0.038399
H91 H 0.016933 0.247293 -0.041793
H92 H 0.055821 0.186464 -0.069506
C124 C 0.1970(7) 0.2046(5) 0.0466(5)
H93 H 0.192240 0.163944 0.012910
H94 H 0.214323 0.196136 0.087700
H95 H 0.244372 0.243318 0.049401
C125 C 0.4011(3) 0.3896(2) 0.2083(2)
C126 C 0.3836(4) 0.4185(2) 0.1591(2)
H96 H 0.344469 0.448004 0.156483
C127 C 0.4240(4) 0.4037(3) 0.1142(2)
H97 H 0.413879 0.424292 0.081610
C128 C 0.4784(4) 0.3596(2) 0.1166(2)
H98 H 0.503182 0.348206 0.084534
C129 C 0.4971(4) 0.3319(2) 0.1650(2)
H99 H 0.536131 0.302415 0.167267
C130 C 0.4583(3) 0.3475(2) 0.2112(2)
H100 H 0.471731 0.328643 0.245004
C131 C 0.3436(4) 0.1627(2) 0.2881(2)
C132 C 0.2983(4) 0.1500(2) 0.2224(2)
H101 H 0.245875 0.166366 0.207856
C133 C 0.3286(4) 0.1139(2) 0.1781(3)
H102 H 0.298392 0.107091 0.133832
C134 C 0.4016(4) 0.0884(2) 0.1984(3)
H103 H 0.421687 0.063479 0.167811
C135 C 0.4470(4) 0.0979(2) 0.2622(2)
H104 H 0.497329 0.079208 0.275725
C136 C 0.4177(4) 0.1358(2) 0.3070(2)
H105 H 0.449298 0.143080 0.351288
C137 C 0.1291(5) -0.0571(3) 0.2219(3)
C138 C 0.0596(6) -0.0307(4) 0.1805(3)
H106 H 0.008529 -0.028985 0.195518
H107 H 0.035083 -0.061008 0.136059
H108 H 0.089793 0.015260 0.183033
C139 C 0.2088(6) -0.0592(3) 0.1994(3)
H109 H 0.233041 -0.014815 0.195983
H110 H 0.186662 -0.094496 0.157420
H111 H 0.258285 -0.069755 0.230272
C140 C 0.0795(6) -0.1306(3) 0.2164(3)
H112 H 0.125791 -0.151545 0.237199
H113 H 0.046510 -0.158196 0.171129
H114 H 0.034987 -0.128194 0.237486
C141 C 0.4082(4) 0.4802(2) 0.3086(2)
C142 C -0.2168(4) 0.3872(2) 0.0772(3)
O1 O 0.4763(2) 0.52121(16) 0.31523(15)
O2 O -0.2629(3) 0.41028(17) 0.04188(16)
C146 C 0.8350(5) 0.5187(3) 0.9969(3)
H124 H 0.799023 0.469865 0.983367
Cl1 Cl 0.94196(13) 0.53112(8) 1.05813(8)
Cl2 Cl 0.85060(15) 0.53371(10) 0.93021(9)
Cl3 Cl 0.7697(2) 0.56946(12) 1.02416(12)
C147 C 0.1287(6) 0.6401(3) 0.2649(3)
H125 H 0.096339 0.601716 0.274941
Cl4 Cl 0.1881(2) 0.60838(12) 0.21905(12)
Cl5 Cl 0.19910(16) 0.70339(10) 0.33607(10)
Cl6 Cl 0.04178(15) 0.67328(12) 0.21969(10)
C148 C 0.4069(5) 0.9371(3) 0.4051(3)
H126 H 0.381560 0.951080 0.439013
Cl7 Cl 0.51794(13) 0.92627(8) 0.44125(8)
Cl8 Cl 0.33177(13) 0.85978(8) 0.34802(8)
Cl9 Cl 0.41623(12) 1.00157(8) 0.37027(8)
C143? C 0.1655(12) 0.1806(8) 0.0666(8)
H115? H 0.134950 0.161858 0.091641
H116? H 0.226791 0.211640 0.095267
H117? H 0.172552 0.143337 0.035266
C144? C 0.1765(12) 0.2515(9) -0.0019(8)
H118? H 0.187393 0.213747 -0.030192
H119? H 0.235711 0.280278 0.032149
H120? H 0.147733 0.278779 -0.026654
C145? C 0.0227(13) 0.1787(10) -0.0173(10)
H121? H -0.019355 0.161009 0.001671
H122? H 0.034681 0.140632 -0.044470
H123? H -0.005959 0.205074 -0.043220
loop_
_geom_bond_atom_site_label_1
_geom_bond_atom_site_label_2
_geom_bond_site_symmetry_1
_geom_bond_site_symmetry_2
C1 H1 1_555 1_555
C2 C1 1_555 1_555
C3 C2 1_555 1_555
H2 C3 1_555 1_555
C4 C3 1_555 1_555
C5 C4 1_555 1_555
H3 C5 1_555 1_555
C6 C5 1_555 1_555
H4 C6 1_555 1_555
C7 C6 1_555 1_555
C8 C7 1_555 1_555
H5 C8 1_555 1_555
C9 C8 1_555 1_555
C10 C9 1_555 1_555
H6 C10 1_555 1_555
C11 C10 1_555 1_555
C12 C7 1_555 1_555
C13 C4 1_555 1_555
C14 C1 1_555 1_555
C15 C14 1_555 1_555
C16 C15 1_555 1_555
C17 C16 1_555 1_555
C18 C17 1_555 1_555
H7 C18 1_555 1_555
C19 C18 1_555 1_555
C20 C19 1_555 1_555
C21 C20 1_555 1_555
C22 C21 1_555 1_555
C23 C22 1_555 1_555
C24 C23 1_555 1_555
C25 C22 1_555 1_555
H8 C25 1_555 1_555
C26 C25 1_555 1_555
C27 C24 1_555 1_555
H9 C27 1_555 1_555
C28 C24 1_555 1_555
C29 C28 1_555 1_555
C30 C29 1_555 1_555
C31 C30 1_555 1_555
H10 C31 1_555 1_555
C32 C31 1_555 1_555
C33 C32 1_555 1_555
C34 C33 1_555 1_555
C35 C34 1_555 1_555
C36 C35 1_555 1_555
H11 C36 1_555 1_555
C37 C36 1_555 1_555
C38 C37 1_555 1_555
H12 C38 1_555 1_555
C39 C38 1_555 1_555
C40 C39 1_555 1_555
H13 C40 1_555 1_555
C41 C40 1_555 1_555
H14 C41 1_555 1_555
C42 C41 1_555 1_555
C43 C42 1_555 1_555
H15 C43 1_555 1_555
C44 C43 1_555 1_555
C45 C44 1_555 1_555
H16 C45 1_555 1_555
C46 C45 1_555 1_555
C47 C42 1_555 1_555
C48 C35 1_555 1_555
C49 C34 1_555 1_555
C50 C49 1_555 1_555
C51 C32 1_555 1_555
C52 C51 1_555 1_555
H17 C52 1_555 1_555
C53 C30 1_555 1_555
C54 C53 1_555 1_555
C55 C28 1_555 1_555
C56 C55 1_555 1_555
C57 C23 1_555 1_555
C58 C57 1_555 1_555
C59 C56 1_555 1_555
H18 C59 1_555 1_555
C60 C59 1_555 1_555
C61 C58 1_555 1_555
H19 C61 1_555 1_555
C62 C21 1_555 1_555
C63 C62 1_555 1_555
C64 C19 1_555 1_555
C65 C64 1_555 1_555
H20 C65 1_555 1_555
C66 C17 1_555 1_555
C67 C66 1_555 1_555
C68 C11 1_555 1_555
C69 C2 1_555 1_555
C70 C69 1_555 1_555
H21 C70 1_555 1_555
H22 C70 1_555 1_555
H23 C70 1_555 1_555
C71 C69 1_555 1_555
H24 C71 1_555 1_555
H25 C71 1_555 1_555
H26 C71 1_555 1_555
C72 C69 1_555 1_555
H27 C72 1_555 1_555
H28 C72 1_555 1_555
H29 C72 1_555 1_555
C73 C16 1_555 1_555
C74 C73 1_555 1_555
H30 C74 1_555 1_555
C75 C74 1_555 1_555
H31 C75 1_555 1_555
C76 C75 1_555 1_555
H32 C76 1_555 1_555
C77 C76 1_555 1_555
H33 C77 1_555 1_555
C78 C73 1_555 1_555
H34 C78 1_555 1_555
C79 C20 1_555 1_555
C80 C79 1_555 1_555
H35 C80 1_555 1_555
C81 C80 1_555 1_555
H36 C81 1_555 1_555
C82 C81 1_555 1_555
H37 C82 1_555 1_555
C83 C82 1_555 1_555
H38 C83 1_555 1_555
C84 C79 1_555 1_555
H39 C84 1_555 1_555
C85 C26 1_555 1_555
C86 C85 1_555 1_555
H40 C86 1_555 1_555
H41 C86 1_555 1_555
H42 C86 1_555 1_555
C87 C85 1_555 1_555
H43 C87 1_555 1_555
H44 C87 1_555 1_555
H45 C87 1_555 1_555
C88 C85 1_555 1_555
H46 C88 1_555 1_555
H47 C88 1_555 1_555
H48 C88 1_555 1_555
C89 C29 1_555 1_555
C90 C89 1_555 1_555
H49 C90 1_555 1_555
C91 C90 1_555 1_555
H50 C91 1_555 1_555
C92 C91 1_555 1_555
H51 C92 1_555 1_555
C93 C92 1_555 1_555
H52 C93 1_555 1_555
C94 C89 1_555 1_555
H53 C94 1_555 1_555
C95 C33 1_555 1_555
C96 C95 1_555 1_555
H54 C96 1_555 1_555
C97 C96 1_555 1_555
H55 C97 1_555 1_555
C98 C97 1_555 1_555
H56 C98 1_555 1_555
C99 C98 1_555 1_555
H57 C99 1_555 1_555
C100 C95 1_555 1_555
H58 C100 1_555 1_555
C101 C37 1_555 1_555
C102 C101 1_555 1_555
H59 C102 1_555 1_555
H60 C102 1_555 1_555
H61 C102 1_555 1_555
C103 C101 1_555 1_555
H62 C103 1_555 1_555
H63 C103 1_555 1_555
H64 C103 1_555 1_555
C104 C101 1_555 1_555
H65 C104 1_555 1_555
H66 C104 1_555 1_555
H67 C104 1_555 1_555
C105 C44 1_555 1_555
C106 C105 1_555 1_555
H68 C106 1_555 1_555
H69 C106 1_555 1_555
H70 C106 1_555 1_555
C107 C105 1_555 1_555
H71 C107 1_555 1_555
H72 C107 1_555 1_555
H73 C107 1_555 1_555
C108 C105 1_555 1_555
H74 C108 1_555 1_555
H75 C108 1_555 1_555
H76 C108 1_555 1_555
C109 C50 1_555 1_555
C110 C109 1_555 1_555
H77 C110 1_555 1_555
C111 C110 1_555 1_555
H78 C111 1_555 1_555
C112 C111 1_555 1_555
H79 C112 1_555 1_555
C113 C112 1_555 1_555
H80 C113 1_555 1_555
C114 C109 1_555 1_555
H81 C114 1_555 1_555
C115 C54 1_555 1_555
C116 C115 1_555 1_555
H82 C116 1_555 1_555
C117 C116 1_555 1_555
H83 C117 1_555 1_555
C118 C117 1_555 1_555
H84 C118 1_555 1_555
C119 C118 1_555 1_555
H85 C119 1_555 1_555
C120 C115 1_555 1_555
H86 C120 1_555 1_555
C121 C60 1_555 1_555
C122 C121 1_555 1_555
H87 C122 1_555 1_555
H88 C122 1_555 1_555
H89 C122 1_555 1_555
C123 C121 1_555 1_555
H90 C123 1_555 1_555
H91 C123 1_555 1_555
H92 C123 1_555 1_555
C124 C121 1_555 1_555
H93 C124 1_555 1_555
H94 C124 1_555 1_555
H95 C124 1_555 1_555
C125 C63 1_555 1_555
C126 C125 1_555 1_555
H96 C126 1_555 1_555
C127 C126 1_555 1_555
H97 C127 1_555 1_555
C128 C127 1_555 1_555
H98 C128 1_555 1_555
C129 C128 1_555 1_555
H99 C129 1_555 1_555
C130 C125 1_555 1_555
H100 C130 1_555 1_555
C131 C67 1_555 1_555
C132 C131 1_555 1_555
H101 C132 1_555 1_555
C133 C132 1_555 1_555
H102 C133 1_555 1_555
C134 C133 1_555 1_555
H103 C134 1_555 1_555
C135 C134 1_555 1_555
H104 C135 1_555 1_555
C136 C131 1_555 1_555
H105 C136 1_555 1_555
C137 C9 1_555 1_555
C138 C137 1_555 1_555
H106 C138 1_555 1_555
H107 C138 1_555 1_555
H108 C138 1_555 1_555
C139 C137 1_555 1_555
H109 C139 1_555 1_555
H110 C139 1_555 1_555
H111 C139 1_555 1_555
C140 C137 1_555 1_555
H112 C140 1_555 1_555
H113 C140 1_555 1_555
H114 C140 1_555 1_555
C141 C20 1_555 1_555
C142 C29 1_555 1_555
O1 C141 1_555 1_555
O2 C142 1_555 1_555
C146 H124 1_555 1_555
Cl1 C146 1_555 1_555
Cl2 C146 1_555 1_555
Cl3 C146 1_555 1_555
C147 H125 1_555 1_555
Cl4 C147 1_555 1_555
Cl5 C147 1_555 1_555
Cl6 C147 1_555 1_555
C148 H126 1_555 1_555
Cl7 C148 1_555 1_555
Cl8 C148 1_555 1_555
Cl9 C148 1_555 1_555
C11 C12 1_555 1_555
C12 C13 1_555 1_555
C13 C14 1_555 1_555
C15 C68 1_555 1_555
C26 C27 1_555 1_555
C39 C48 1_555 1_555
C46 C47 1_555 1_555
C46 C49 1_555 1_555
C47 C48 1_555 1_555
C50 C51 1_555 1_555
C52 C53 1_555 1_555
C54 C55 1_555 1_555
C54 C142 1_555 1_555
C56 C57 1_555 1_555
C58 C62 1_555 1_555
C60 C61 1_555 1_555
C63 C64 1_555 1_555
C63 C141 1_555 1_555
C65 C66 1_555 1_555
C67 C68 1_555 1_555
C77 C78 1_555 1_555
C83 C84 1_555 1_555
C93 C94 1_555 1_555
C99 C100 1_555 1_555
C113 C114 1_555 1_555
C119 C120 1_555 1_555
C129 C130 1_555 1_555
C135 C136 1_555 1_555

#END
