
#######################################################################
#
#                 Cambridge Crystallographic Data Centre
#                                CCDC 
#
#######################################################################
#
# If this CIF has been generated from an entry in the Cambridge 
# Structural Database, then it will include bibliographic, chemical, 
# crystal, experimental, refinement or atomic coordinate data resulting 
# from the CCDC's data processing and validation procedures.
#
#######################################################################

data_UFECIU
_chemical_formula_moiety         'C22 H19 Br1 N2 O1'
_chemical_name_systematic        
2-(4-bromophenyl)-3-[6-(dimethylamino)-1-methoxynaphthalen-2-yl]prop-2-enenitrile
_symmetry_cell_setting           triclinic
_symmetry_space_group_name_H-M   'P -1'
_symmetry_Int_Tables_number      2
_space_group_name_Hall           '-P 1'
loop_
_symmetry_equiv_pos_site_id
_symmetry_equiv_pos_as_xyz
1 x,y,z
2 -x,-y,-z
_cell_length_a                   5.915(4)
_cell_length_b                   10.921(7)
_cell_length_c                   14.869(10)
_cell_angle_alpha                90.463(8)
_cell_angle_beta                 98.885(9)
_cell_angle_gamma                105.620(9)
_cell_volume                     912.685
_exptl_crystal_colour            yellow
_exptl_crystal_description       lath
_cell_formula_units_Z            2
_exptl_crystal_recrystallization_method 
'Re-crystallisation from solvent: dichloromethane/methanol'
loop_
_atom_site_label
_atom_site_type_symbol
_atom_site_fract_x
_atom_site_fract_y
_atom_site_fract_z
C1 C 0.6890(7) 0.2029(3) 0.3740(2)
C2 C 0.4539(7) 0.1335(3) 0.3410(2)
C3 C 0.3008(7) 0.0570(4) 0.3956(2)
H1 H 0.357343 0.053572 0.458670
C4 C 0.0774(7) -0.0111(4) 0.3610(3)
H2 H -0.019756 -0.060990 0.399983
C5 C -0.0157(7) -0.0094(4) 0.2665(3)
C6 C 0.1308(7) 0.0633(4) 0.2116(3)
H3 H 0.072885 0.064301 0.148432
C7 C 0.3623(7) 0.1357(3) 0.2464(2)
C8 C 0.5141(7) 0.2113(3) 0.1912(2)
H4 H 0.456453 0.214681 0.128218
C9 C 0.7381(7) 0.2788(4) 0.2254(2)
H5 H 0.834592 0.328107 0.185929
C10 C 0.8339(7) 0.2778(4) 0.3198(2)
O1 O 0.7779(5) 0.1895(2) 0.46399(16)
C11 C 0.7456(8) 0.2812(4) 0.5266(2)
H6 H 0.839297 0.366403 0.514624
H7 H 0.798434 0.261140 0.589135
H8 H 0.576860 0.278809 0.518944
N1 N -0.2433(6) -0.0796(3) 0.2329(2)
C12 C -0.3956(8) -0.1535(4) 0.2920(3)
H9 H -0.322713 -0.217647 0.319917
H10 H -0.551155 -0.195990 0.256134
H11 H -0.415872 -0.097033 0.339804
C13 C -0.3438(8) -0.0700(4) 0.1388(3)
H12 H -0.320566 0.019940 0.125567
H13 H -0.514359 -0.113597 0.128800
H14 H -0.264501 -0.109693 0.098500
C14 C 1.0752(7) 0.3454(4) 0.3583(2)
H15 H 1.135128 0.317263 0.415003
C15 C 1.2272(7) 0.4427(4) 0.3253(2)
C16 C 1.4645(7) 0.4919(4) 0.3737(2)
N2 N 1.6546(6) 0.5374(4) 0.4089(2)
C17 C 1.1777(7) 0.5154(4) 0.2431(2)
C18 C 1.3071(7) 0.5219(4) 0.1722(2)
H16 H 1.426001 0.477794 0.174892
C19 C 1.2640(7) 0.5924(4) 0.0970(2)
H17 H 1.351785 0.596710 0.048232
C20 C 1.0916(7) 0.6558(4) 0.0951(2)
Br1 Br 1.03521(9) 0.75353(4) -0.00706(3)
C21 C 0.9617(7) 0.6530(4) 0.1647(2)
H18 H 0.846029 0.699180 0.162217
C22 C 1.0045(7) 0.5805(4) 0.2387(2)
H19 H 0.914126 0.575425 0.286781
loop_
_geom_bond_atom_site_label_1
_geom_bond_atom_site_label_2
_geom_bond_site_symmetry_1
_geom_bond_site_symmetry_2
C1 C2 1_555 1_555
C2 C3 1_555 1_555
C3 H1 1_555 1_555
C4 C3 1_555 1_555
H2 C4 1_555 1_555
C5 C4 1_555 1_555
C6 C5 1_555 1_555
H3 C6 1_555 1_555
C7 C2 1_555 1_555
C8 C7 1_555 1_555
H4 C8 1_555 1_555
C9 C8 1_555 1_555
H5 C9 1_555 1_555
C10 C1 1_555 1_555
O1 C1 1_555 1_555
C11 O1 1_555 1_555
H6 C11 1_555 1_555
H7 C11 1_555 1_555
H8 C11 1_555 1_555
N1 C5 1_555 1_555
C12 N1 1_555 1_555
H9 C12 1_555 1_555
H10 C12 1_555 1_555
H11 C12 1_555 1_555
C13 N1 1_555 1_555
H12 C13 1_555 1_555
H13 C13 1_555 1_555
H14 C13 1_555 1_555
C14 C10 1_555 1_555
H15 C14 1_555 1_555
C15 C14 1_555 1_555
C16 C15 1_555 1_555
N2 C16 1_555 1_555
C17 C15 1_555 1_555
C18 C17 1_555 1_555
H16 C18 1_555 1_555
C19 C18 1_555 1_555
H17 C19 1_555 1_555
C20 C19 1_555 1_555
Br1 C20 1_555 1_555
C21 C20 1_555 1_555
H18 C21 1_555 1_555
C22 C17 1_555 1_555
H19 C22 1_555 1_555
C6 C7 1_555 1_555
C9 C10 1_555 1_555
C21 C22 1_555 1_555

#END
