
#######################################################################
#
#                 Cambridge Crystallographic Data Centre
#                                CCDC 
#
#######################################################################
#
# If this CIF has been generated from an entry in the Cambridge 
# Structural Database, then it will include bibliographic, chemical, 
# crystal, experimental, refinement or atomic coordinate data resulting 
# from the CCDC's data processing and validation procedures.
#
#######################################################################

data_UFECOA
_chemical_formula_moiety         'C24 H18 F6 N2 O1'
_chemical_name_systematic        
2-[3,5-bis(trifluoromethyl)phenyl]-3-[6-(dimethylamino)-1-methoxynaphthalen-2-yl]prop-2-enenitrile
_symmetry_cell_setting           monoclinic
_symmetry_space_group_name_H-M   'P 21/c'
_symmetry_Int_Tables_number      14
_space_group_name_Hall           '-P 2ybc'
loop_
_symmetry_equiv_pos_site_id
_symmetry_equiv_pos_as_xyz
1 x,y,z
2 -x,1/2+y,1/2-z
3 -x,-y,-z
4 x,1/2-y,1/2+z
_cell_length_a                   17.9189(4)
_cell_length_b                   7.47854(15)
_cell_length_c                   31.4202(6)
_cell_angle_alpha                90
_cell_angle_beta                 103.7184(19)
_cell_angle_gamma                90
_cell_volume                     4090.42
_exptl_crystal_colour            yellow
_exptl_crystal_description       block
_cell_formula_units_Z            8
_exptl_crystal_recrystallization_method 
'Re-crystallisation from solvent: dichloromethane/methanol'
loop_
_atom_site_label
_atom_site_type_symbol
_atom_site_fract_x
_atom_site_fract_y
_atom_site_fract_z
F1 F 0.10304(6) 0.23954(15) 0.14834(4)
F2 F 0.16409(7) 0.47972(18) 0.17125(4)
F3 F 0.08321(7) 0.47551(18) 0.10873(4)
F4 F 0.14970(6) 0.12665(16) -0.01305(3)
F5 F 0.26908(6) 0.08573(15) -0.01141(3)
F6 F 0.22087(6) 0.34987(14) -0.02103(3)
O1 O 0.58456(6) 0.22728(15) 0.08387(3)
N1 N 0.41077(8) 0.1469(2) 0.22876(5)
N2 N 0.91395(8) -0.0537(2) 0.19320(5)
C1 C 0.33177(9) 0.2298(2) 0.11974(5)
C2 C 0.27411(9) 0.2935(2) 0.13902(5)
H1 H 0.285390 0.315531 0.169656
C3 C 0.20053(10) 0.3248(2) 0.11371(5)
C4 C 0.18238(9) 0.2933(2) 0.06906(5)
H2 H 0.131990 0.315156 0.051862
C5 C 0.23946(9) 0.2291(2) 0.04988(5)
C6 C 0.31322(9) 0.1973(2) 0.07449(5)
H3 H 0.351330 0.153293 0.060702
C7 C 0.13834(10) 0.3813(2) 0.13546(6)
C8 C 0.22041(10) 0.1964(2) 0.00123(5)
C9 C 0.41275(9) 0.1605(2) 0.19262(5)
C10 C 0.40951(9) 0.1879(2) 0.14669(5)
C11 C 0.47157(9) 0.1770(2) 0.12939(5)
H4 H 0.462397 0.212947 0.099599
C12 C 0.54980(9) 0.1200(2) 0.14838(5)
C13 C 0.60467(9) 0.1434(2) 0.12398(5)
C14 C 0.68225(9) 0.0908(2) 0.14025(5)
C15 C 0.73945(10) 0.1183(2) 0.11662(5)
H5 H 0.725695 0.170435 0.088259
C16 C 0.81401(10) 0.0711(2) 0.13394(5)
H6 H 0.850963 0.089262 0.117116
C17 C 0.83790(9) -0.0048(2) 0.17658(5)
C18 C 0.78225(9) -0.0326(2) 0.20018(5)
H7 H 0.796824 -0.082617 0.228741
C19 C 0.70481(9) 0.0120(2) 0.18249(5)
C20 C 0.64754(9) -0.0182(2) 0.20631(5)
H8 H 0.661340 -0.075410 0.234060
C21 C 0.57325(9) 0.0336(2) 0.19002(5)
H9 H 0.536336 0.011831 0.206689
C22 C 0.56275(10) 0.1069(2) 0.04723(5)
H10 H 0.545963 0.176003 0.020152
H11 H 0.520585 0.030299 0.051271
H12 H 0.606862 0.032428 0.045359
C23 C 0.93831(10) -0.1065(3) 0.23873(6)
H13 H 0.933204 -0.004740 0.257490
H14 H 0.992089 -0.145044 0.245090
H15 H 0.906128 -0.205375 0.244411
C24 C 0.97352(10) 0.0256(3) 0.17447(6)
H16 H 0.964192 -0.006501 0.143413
H17 H 1.023926 -0.019580 0.190083
H18 H 0.972392 0.155970 0.177357
F7 F 0.87958(7) 0.43359(15) 0.09471(4)
F8 F 0.88698(6) 0.71675(14) 0.10439(3)
F9 F 0.95117(6) 0.54191(19) 0.15411(3)
F10 F 0.78043(7) 0.57376(15) 0.28080(3)
F11 F 0.71929(6) 0.32930(16) 0.26179(3)
F12 F 0.84141(6) 0.33916(17) 0.26932(3)
O2 O 0.43076(6) 0.77781(15) 0.16992(3)
N3 N 0.59657(8) 0.6575(2) 0.02985(5)
N4 N 0.09289(8) 0.8149(2) 0.04233(5)
C25 C 0.67970(9) 0.5820(2) 0.13976(5)
C26 C 0.74365(9) 0.5965(2) 0.12176(5)
H19 H 0.737175 0.636167 0.092394
C27 C 0.81668(9) 0.5533(2) 0.14637(5)
C28 C 0.82793(9) 0.4967(2) 0.18924(5)
H20 H 0.877860 0.466892 0.205930
C29 C 0.76463(9) 0.4841(2) 0.20742(5)
C30 C 0.69114(9) 0.5255(2) 0.18329(5)
H21 H 0.648638 0.515400 0.196354
C31 C 0.88326(10) 0.5615(3) 0.12511(5)
C32 C 0.77603(9) 0.4306(2) 0.25448(5)
C33 C 0.59717(9) 0.6378(2) 0.06622(5)
C34 C 0.60132(9) 0.6200(2) 0.11244(5)
C35 C 0.53804(9) 0.6391(2) 0.12840(5)
H22 H 0.546929 0.639410 0.159438
C36 C 0.45815(9) 0.6593(2) 0.10469(5)
C37 C 0.40533(9) 0.7241(2) 0.12694(5)
C38 C 0.32665(9) 0.7478(2) 0.10623(5)
C39 C 0.27319(9) 0.8211(2) 0.12816(5)
H23 H 0.290266 0.856724 0.157908
C40 C 0.19761(10) 0.8417(2) 0.10740(6)
H24 H 0.163051 0.890094 0.123093
C41 C 0.16950(9) 0.7919(2) 0.06263(6)
C42 C 0.22173(9) 0.7219(2) 0.04052(5)
H25 H 0.204287 0.688806 0.010620
C43 C 0.29994(9) 0.6991(2) 0.06156(5)
C44 C 0.35348(10) 0.6259(2) 0.03948(5)
H26 H 0.336267 0.590088 0.009758
C45 C 0.42908(9) 0.6060(2) 0.06004(5)
H27 H 0.463269 0.555656 0.044380
C46 C 0.41654(10) 0.6513(2) 0.20145(5)
H28 H 0.362672 0.613397 0.193219
H29 H 0.427335 0.707099 0.230484
H30 H 0.449906 0.546940 0.202157
C47 C 0.06336(11) 0.7370(3) -0.00052(7)
H31 H 0.088714 0.792448 -0.021614
H32 H 0.007861 0.757801 -0.009754
H33 H 0.073498 0.608135 0.000795
C48 C 0.03887(11) 0.8729(3) 0.06723(7)
H34 H 0.038520 0.786777 0.090681
H35 H -0.012656 0.880591 0.047819
H36 H 0.054166 0.990703 0.080025
loop_
_geom_bond_atom_site_label_1
_geom_bond_atom_site_label_2
_geom_bond_site_symmetry_1
_geom_bond_site_symmetry_2
F1 C7 1_555 1_555
F2 C7 1_555 1_555
F3 C7 1_555 1_555
F4 C8 1_555 1_555
F5 C8 1_555 1_555
F6 C8 1_555 1_555
O1 C13 1_555 1_555
N1 C9 1_555 1_555
N2 C17 1_555 1_555
C1 C2 1_555 1_555
C2 H1 1_555 1_555
C3 C2 1_555 1_555
C4 C3 1_555 1_555
H2 C4 1_555 1_555
C5 C4 1_555 1_555
C6 C1 1_555 1_555
H3 C6 1_555 1_555
C7 C3 1_555 1_555
C8 C5 1_555 1_555
C9 C10 1_555 1_555
C10 C1 1_555 1_555
C11 C10 1_555 1_555
H4 C11 1_555 1_555
C12 C11 1_555 1_555
C13 C12 1_555 1_555
C14 C13 1_555 1_555
C15 C14 1_555 1_555
H5 C15 1_555 1_555
C16 C15 1_555 1_555
H6 C16 1_555 1_555
C17 C16 1_555 1_555
C18 C17 1_555 1_555
H7 C18 1_555 1_555
C19 C14 1_555 1_555
C20 C19 1_555 1_555
H8 C20 1_555 1_555
C21 C12 1_555 1_555
H9 C21 1_555 1_555
C22 O1 1_555 1_555
H10 C22 1_555 1_555
H11 C22 1_555 1_555
H12 C22 1_555 1_555
C23 N2 1_555 1_555
H13 C23 1_555 1_555
H14 C23 1_555 1_555
H15 C23 1_555 1_555
C24 N2 1_555 1_555
H16 C24 1_555 1_555
H17 C24 1_555 1_555
H18 C24 1_555 1_555
F7 C31 1_555 1_555
F8 C31 1_555 1_555
F9 C31 1_555 1_555
F10 C32 1_555 1_555
F11 C32 1_555 1_555
F12 C32 1_555 1_555
O2 C37 1_555 1_555
N3 C33 1_555 1_555
N4 C41 1_555 1_555
C25 C26 1_555 1_555
C26 H19 1_555 1_555
C27 C26 1_555 1_555
C28 C27 1_555 1_555
H20 C28 1_555 1_555
C29 C28 1_555 1_555
C30 C25 1_555 1_555
H21 C30 1_555 1_555
C31 C27 1_555 1_555
C32 C29 1_555 1_555
C33 C34 1_555 1_555
C34 C25 1_555 1_555
C35 C34 1_555 1_555
H22 C35 1_555 1_555
C36 C35 1_555 1_555
C37 C36 1_555 1_555
C38 C37 1_555 1_555
C39 C38 1_555 1_555
H23 C39 1_555 1_555
C40 C39 1_555 1_555
H24 C40 1_555 1_555
C41 C40 1_555 1_555
C42 C41 1_555 1_555
H25 C42 1_555 1_555
C43 C38 1_555 1_555
C44 C43 1_555 1_555
H26 C44 1_555 1_555
C45 C36 1_555 1_555
H27 C45 1_555 1_555
C46 O2 1_555 1_555
H28 C46 1_555 1_555
H29 C46 1_555 1_555
H30 C46 1_555 1_555
C47 N4 1_555 1_555
H31 C47 1_555 1_555
H32 C47 1_555 1_555
H33 C47 1_555 1_555
C48 N4 1_555 1_555
H34 C48 1_555 1_555
H35 C48 1_555 1_555
H36 C48 1_555 1_555
C5 C6 1_555 1_555
C18 C19 1_555 1_555
C20 C21 1_555 1_555
C29 C30 1_555 1_555
C42 C43 1_555 1_555
C44 C45 1_555 1_555

#END
