
#######################################################################
#
#                 Cambridge Crystallographic Data Centre
#                                CCDC 
#
#######################################################################
#
# If this CIF has been generated from an entry in the Cambridge 
# Structural Database, then it will include bibliographic, chemical, 
# crystal, experimental, refinement or atomic coordinate data resulting 
# from the CCDC's data processing and validation procedures.
#
#######################################################################

data_UFECOX
_chemical_formula_moiety         'C16 H12 Br1 N1 O2'
_chemical_name_systematic        
N-(2-Bromo-4-methylphenyl)-1,2,3,4-tetrahydroisoquinoline-1,3-dione
_symmetry_cell_setting           monoclinic
_symmetry_space_group_name_H-M   'P 21/n'
_symmetry_Int_Tables_number      14
_space_group_name_Hall           '-P 2yn'
loop_
_symmetry_equiv_pos_site_id
_symmetry_equiv_pos_as_xyz
1 x,y,z
2 1/2+x,1/2-y,1/2+z
3 -x,-y,-z
4 1/2-x,1/2+y,1/2-z
_cell_length_a                   15.847(2)
_cell_length_b                   7.9190(7)
_cell_length_c                   11.0602(11)
_cell_angle_alpha                90
_cell_angle_beta                 94.750(9)
_cell_angle_gamma                90
_cell_volume                     1383.2
_exptl_crystal_colour            colorless
_exptl_crystal_description       prism
_chemical_melting_point          395-397K
_cell_formula_units_Z            4
_exptl_crystal_recrystallization_method 'ethyl acetate/hexane'
loop_
_atom_site_label
_atom_site_type_symbol
_atom_site_fract_x
_atom_site_fract_y
_atom_site_fract_z
Br1 Br 0.18497(3) 0.23293(5) 0.67278(4)
N1 N 0.15445(17) 0.1708(4) 0.9412(3)
O1 O 0.03927(15) 0.3324(3) 0.8949(2)
O2 O 0.26553(19) 0.0036(4) 0.9991(3)
C1 C 0.1095(2) 0.3218(4) 0.9440(3)
C2 C 0.1520(2) 0.4689(5) 1.0072(4)
H1 H 0.1132 0.5169 1.0611
H2 H 0.1616 0.5538 0.9467
C3 C 0.2748(2) 0.5659(5) 1.1457(4)
H3 H 0.2505 0.6727 1.1456
C4 C 0.3506(2) 0.5368(7) 1.2113(4)
H4 H 0.3774 0.6242 1.2557
C5 C 0.3873(2) 0.3804(7) 1.2121(4)
H5 H 0.4386 0.3618 1.2571
C6 C 0.3485(3) 0.2511(5) 1.1468(4)
H6 H 0.3736 0.1449 1.1471
C7 C 0.2332(2) 0.1397(5) 1.0058(3)
C8 C 0.2714(2) 0.2792(5) 1.0797(3)
C9 C 0.2346(2) 0.4363(5) 1.0797(3)
C10 C 0.1205(2) 0.0402(4) 0.8621(3)
C11 C 0.1288(2) 0.0497(5) 0.7388(3)
C12 C 0.0964(2) -0.0765(5) 0.6620(4)
H7 H 0.1023 -0.0688 0.5792
C13 C 0.0555(2) -0.2129(5) 0.7065(4)
C14 C 0.0476(2) -0.2220(4) 0.8305(4)
H8 H 0.0205 -0.3144 0.8620
C15 C 0.0791(2) -0.0966(4) 0.9071(4)
H9 H 0.0725 -0.1039 0.9897
C16 C 0.0203(3) -0.3502(6) 0.6226(5)
H10 H -0.0331 -0.3144 0.5834
H11 H 0.0122 -0.4510 0.6685
H12 H 0.0592 -0.3725 0.5625
loop_
_geom_bond_atom_site_label_1
_geom_bond_atom_site_label_2
_geom_bond_site_symmetry_1
_geom_bond_site_symmetry_2
Br1 C11 1_555 1_555
N1 C1 1_555 1_555
O1 C1 1_555 1_555
O2 C7 1_555 1_555
C1 C2 1_555 1_555
C2 H1 1_555 1_555
H2 C2 1_555 1_555
C3 H3 1_555 1_555
C4 C3 1_555 1_555
H4 C4 1_555 1_555
C5 C4 1_555 1_555
H5 C5 1_555 1_555
C6 C5 1_555 1_555
H6 C6 1_555 1_555
C7 N1 1_555 1_555
C8 C6 1_555 1_555
C9 C2 1_555 1_555
C10 N1 1_555 1_555
C11 C10 1_555 1_555
C12 C11 1_555 1_555
H7 C12 1_555 1_555
C13 C12 1_555 1_555
C14 C13 1_555 1_555
H8 C14 1_555 1_555
C15 C10 1_555 1_555
H9 C15 1_555 1_555
C16 C13 1_555 1_555
H10 C16 1_555 1_555
H11 C16 1_555 1_555
H12 C16 1_555 1_555
C3 C9 1_555 1_555
C7 C8 1_555 1_555
C8 C9 1_555 1_555
C14 C15 1_555 1_555

#END
