
#######################################################################
#
#                 Cambridge Crystallographic Data Centre
#                                CCDC 
#
#######################################################################
#
# If this CIF has been generated from an entry in the Cambridge 
# Structural Database, then it will include bibliographic, chemical, 
# crystal, experimental, refinement or atomic coordinate data resulting 
# from the CCDC's data processing and validation procedures.
#
#######################################################################

data_UFEDAN
_chemical_formula_moiety         'C28 H26 N3 O1 1+,F6 P1 1-'
_chemical_name_systematic        
'4-(4-{1-cyano-2-[6-(dimethylamino)-1-methoxynaphthalen-2-yl]ethenyl}phenyl)-1-methylpyridin-1-ium hexafluorophosphate'
_symmetry_cell_setting           monoclinic
_symmetry_space_group_name_H-M   'P 21/n'
_symmetry_Int_Tables_number      14
_space_group_name_Hall           '-P 2yn'
loop_
_symmetry_equiv_pos_site_id
_symmetry_equiv_pos_as_xyz
1 x,y,z
2 1/2-x,1/2+y,1/2-z
3 -x,-y,-z
4 1/2+x,1/2-y,1/2+z
_cell_length_a                   6.5913(2)
_cell_length_b                   41.8715(13)
_cell_length_c                   9.9659(3)
_cell_angle_alpha                90
_cell_angle_beta                 101.479(2)
_cell_angle_gamma                90
_cell_volume                     2695.45
_exptl_crystal_colour            red
_exptl_crystal_description       prismatic
_cell_formula_units_Z            4
_exptl_crystal_recrystallization_method 
'Re-crystallisation from solvent: dichloromethane/methanol'
loop_
_atom_site_label
_atom_site_type_symbol
_atom_site_fract_x
_atom_site_fract_y
_atom_site_fract_z
P1 P 0.4680(2) 0.20543(3) 0.63479(12)
F1 F 0.246(2) 0.2122(4) 0.5653(16)
F2 F 0.6919(17) 0.1981(3) 0.7164(11)
F3 F 0.360(3) 0.1754(3) 0.6670(17)
F4 F 0.422(2) 0.2258(3) 0.7589(9)
F5 F 0.527(2) 0.1899(4) 0.5120(11)
F6 F 0.542(2) 0.2371(2) 0.5628(13)
N1 N -0.3131(5) 0.21122(8) 1.1867(4)
N2 N 0.9522(10) 0.0828(2) 1.2925(5)
N3 N 1.6944(7) 0.02452(11) 0.6289(4)
O1 O 0.8756(6) 0.10115(11) 0.6819(4)
C1 C -0.1183(7) 0.18798(11) 1.0390(4)
H1 H -0.102004 0.184175 0.949833
C2 C -0.2841(7) 0.20552(11) 1.0606(5)
H2 H -0.377814 0.213570 0.985967
C3 C -0.1771(8) 0.20010(13) 1.2935(5)
H3 H -0.197357 0.204308 1.381527
C4 C -0.0092(7) 0.18271(12) 1.2770(4)
H4 H 0.083335 0.175376 1.353710
C5 C 0.0256(6) 0.17578(10) 1.1470(4)
C6 C 0.2050(6) 0.15695(10) 1.1263(4)
C7 C 0.3278(7) 0.14008(12) 1.2318(4)
H5 H 0.295645 0.140492 1.318485
C8 C 0.4957(7) 0.12281(12) 1.2113(4)
H6 H 0.574469 0.111858 1.284803
C9 C 0.5522(6) 0.12111(10) 1.0840(4)
C10 C 0.4292(7) 0.13790(11) 0.9785(4)
H7 H 0.460499 0.137216 0.891586
C11 C 0.2621(7) 0.15555(11) 0.9989(4)
H8 H 0.185049 0.166858 0.925831
C12 C 0.7368(7) 0.10263(10) 1.0655(4)
C13 C 0.8564(9) 0.09070(15) 1.1893(5)
C14 C 0.8000(7) 0.09881(11) 0.9459(4)
H9 H 0.714381 0.108499 0.871650
C15 C 0.9749(7) 0.08257(10) 0.9119(4)
C16 C 1.1106(8) 0.06257(12) 1.0034(5)
H10 H 1.085330 0.059346 1.090917
C17 C 1.2769(9) 0.04787(12) 0.9679(5)
H11 H 1.362824 0.035178 1.031698
C18 C 1.3207(7) 0.05162(10) 0.8357(4)
C19 C 1.4878(7) 0.03624(11) 0.7965(5)
H12 H 1.571343 0.022994 0.859212
C20 C 1.5333(7) 0.03996(11) 0.6689(5)
C21 C 1.4019(8) 0.05967(14) 0.5768(5)
H13 H 1.428988 0.062755 0.489601
C22 C 1.2359(8) 0.07443(14) 0.6111(5)
H14 H 1.149778 0.086749 0.545756
C23 C 1.1905(7) 0.07160(11) 0.7433(4)
C24 C 1.0199(7) 0.08620(12) 0.7825(4)
C25 C 0.9263(13) 0.13052(17) 0.6605(10)
H15 H 0.937911 0.142561 0.743672
H16 H 0.821647 0.139883 0.590750
H17 H 1.056551 0.130759 0.631333
C26 C 1.8207(10) 0.00191(14) 0.7186(6)
H18 H 1.885859 0.012495 0.801410
H19 H 1.924838 -0.006641 0.673717
H20 H 1.735086 -0.015133 0.740093
C27 C 1.7496(9) 0.03042(14) 0.4981(6)
H21 H 1.646389 0.021327 0.426678
H22 H 1.881442 0.020830 0.496720
H23 H 1.757636 0.053021 0.483904
C28 C -0.4920(8) 0.23083(12) 1.2078(6)
H24 H -0.558112 0.220651 1.273981
H25 H -0.589116 0.232895 1.122611
H26 H -0.444271 0.251626 1.240352
F7? F 0.302(2) 0.2241(3) 0.5338(14)
F8? F 0.575(2) 0.1809(3) 0.7416(8)
F9? F 0.321(3) 0.2011(5) 0.731(2)
F10? F 0.524(2) 0.2353(3) 0.7260(19)
F11? F 0.454(3) 0.1791(4) 0.5229(14)
F12? F 0.671(3) 0.2137(5) 0.603(2)
loop_
_geom_bond_atom_site_label_1
_geom_bond_atom_site_label_2
_geom_bond_site_symmetry_1
_geom_bond_site_symmetry_2
P1 F1 1_555 1_555
F2 P1 1_555 1_555
F3 P1 1_555 1_555
F4 P1 1_555 1_555
F5 P1 1_555 1_555
F6 P1 1_555 1_555
N1 C2 1_555 1_555
N2 C13 1_555 1_555
N3 C20 1_555 1_555
O1 C24 1_555 1_555
C1 H1 1_555 1_555
C2 C1 1_555 1_555
H2 C2 1_555 1_555
C3 N1 1_555 1_555
H3 C3 1_555 1_555
C4 C3 1_555 1_555
H4 C4 1_555 1_555
C5 C1 1_555 1_555
C6 C5 1_555 1_555
C7 C6 1_555 1_555
H5 C7 1_555 1_555
C8 C7 1_555 1_555
H6 C8 1_555 1_555
C9 C8 1_555 1_555
C10 C9 1_555 1_555
H7 C10 1_555 1_555
C11 C6 1_555 1_555
H8 C11 1_555 1_555
C12 C9 1_555 1_555
C13 C12 1_555 1_555
C14 C12 1_555 1_555
H9 C14 1_555 1_555
C15 C14 1_555 1_555
C16 C15 1_555 1_555
H10 C16 1_555 1_555
C17 C16 1_555 1_555
H11 C17 1_555 1_555
C18 C17 1_555 1_555
C19 C18 1_555 1_555
H12 C19 1_555 1_555
C20 C19 1_555 1_555
C21 C20 1_555 1_555
H13 C21 1_555 1_555
C22 C21 1_555 1_555
H14 C22 1_555 1_555
C23 C18 1_555 1_555
C24 C15 1_555 1_555
C25 O1 1_555 1_555
H15 C25 1_555 1_555
H16 C25 1_555 1_555
H17 C25 1_555 1_555
C26 N3 1_555 1_555
H18 C26 1_555 1_555
H19 C26 1_555 1_555
H20 C26 1_555 1_555
C27 N3 1_555 1_555
H21 C27 1_555 1_555
H22 C27 1_555 1_555
H23 C27 1_555 1_555
C28 N1 1_555 1_555
H24 C28 1_555 1_555
H25 C28 1_555 1_555
H26 C28 1_555 1_555
C4 C5 1_555 1_555
C10 C11 1_555 1_555
C22 C23 1_555 1_555
C23 C24 1_555 1_555

#END
