
#######################################################################
#
#                 Cambridge Crystallographic Data Centre
#                                CCDC 
#
#######################################################################
#
# If this CIF has been generated from an entry in the Cambridge 
# Structural Database, then it will include bibliographic, chemical, 
# crystal, experimental, refinement or atomic coordinate data resulting 
# from the CCDC's data processing and validation procedures.
#
#######################################################################

data_UFEFET
_chemical_formula_moiety         'C35 H76 N2 O1 2+,C7 H5 O3 1-,4(H2 O1),Cl1 1-'
_chemical_name_systematic        
'2-hydroxy-N^1^,N^1^,N^3^,N^3^-tetramethyl-N^1^,N^3^-ditetradecylpropane-1,3-diaminium chloride 2-hydroxybenzoate tetrahydrate'
_symmetry_cell_setting           triclinic
_symmetry_space_group_name_H-M   'P -1'
_symmetry_Int_Tables_number      2
_space_group_name_Hall           '-P 1'
loop_
_symmetry_equiv_pos_site_id
_symmetry_equiv_pos_as_xyz
1 x,y,z
2 -x,-y,-z
_cell_length_a                   9.2108(8)
_cell_length_b                   9.4525(8)
_cell_length_c                   29.308(3)
_cell_angle_alpha                87.928(2)
_cell_angle_beta                 83.1320(10)
_cell_angle_gamma                71.2010(10)
_cell_volume                     2398.24
_cell_formula_units_Z            2
loop_
_atom_site_label
_atom_site_type_symbol
_atom_site_fract_x
_atom_site_fract_y
_atom_site_fract_z
Cl1 Cl 0.2528(3) 0.1944(3) 0.00014(8)
N1 N 0.1462(7) 0.7171(6) 0.08091(17)
N2 N 0.4697(6) 0.9975(5) 0.14132(15)
O1 O 0.2560(5) 0.8029(5) 0.17099(13)
H1 H 0.2938 0.8419 0.1889
C1 C 0.3711(12) -0.1759(11) 0.6054(3)
H2 H 0.3817 -0.2733 0.5942
H3 H 0.3245 -0.1655 0.6368
H4 H 0.4710 -0.1636 0.6038
C2 C 0.2756(12) -0.0643(12) 0.5779(3)
H5 H 0.1936 0.0134 0.5917
C3 C 0.3076(10) -0.0733(10) 0.5280(3)
H6 H 0.3901 -0.1506 0.5142
C4 C 0.2097(10) 0.0395(10) 0.4999(3)
H7 H 0.2137 0.1358 0.5089
H8 H 0.1045 0.0399 0.5083
C5 C 0.2390(10) 0.0313(9) 0.4492(2)
H9 H 0.2338 -0.0643 0.4399
H10 H 0.3441 0.0307 0.4406
C6 C 0.1393(10) 0.1466(9) 0.4224(3)
H11 H 0.1418 0.2425 0.4324
H12 H 0.0345 0.1450 0.4303
C7 C 0.1726(9) 0.1401(8) 0.3711(3)
H13 H 0.2764 0.1441 0.3631
H14 H 0.1719 0.0437 0.3611
C8 C 0.0673(9) 0.2574(8) 0.3446(2)
H15 H 0.0587 0.3541 0.3568
H16 H -0.0344 0.2461 0.3497
C9 C 0.1128(9) 0.2582(8) 0.2940(2)
H17 H 0.1070 0.1674 0.2811
H18 H 0.2198 0.2551 0.2889
C10 C 0.0179(9) 0.3899(8) 0.2679(2)
H19 H 0.0090 0.4814 0.2836
H20 H -0.0853 0.3837 0.2681
C11 C 0.0853(9) 0.3980(8) 0.2187(2)
H21 H 0.1946 0.3832 0.2184
H22 H 0.0759 0.3154 0.2019
C12 C 0.0157(8) 0.5394(8) 0.1930(2)
H23 H -0.0881 0.5460 0.1875
H24 H 0.0087 0.6247 0.2116
C13 C 0.1109(8) 0.5444(7) 0.1476(2)
H25 H 0.1150 0.4610 0.1286
H26 H 0.2155 0.5347 0.1530
C14 C 0.0430(7) 0.6886(7) 0.1228(2)
H27 H 0.0201 0.7707 0.1443
H28 H -0.0539 0.6889 0.1130
C15 C 0.1761(9) 0.5949(8) 0.0466(2)
H29 H 0.2212 0.6223 0.0178
H30 H 0.0805 0.5793 0.0424
H31 H 0.2457 0.5044 0.0576
C16 C 0.0549(7) 0.8635(7) 0.0592(2)
H32 H 0.0155 0.9397 0.0825
H33 H -0.0294 0.8493 0.0458
H34 H 0.1214 0.8934 0.0359
C17 C 0.2972(7) 0.7264(7) 0.0914(2)
H35 H 0.3540 0.7426 0.0627
H36 H 0.3553 0.6300 0.1031
C18 C 0.2943(7) 0.8453(7) 0.12533(19)
H37 H 0.2170 0.9398 0.1182
C19 C 0.4508(8) 0.8641(7) 0.11888(19)
H38 H 0.4807 0.8691 0.0861
H39 H 0.5233 0.7747 0.1303
C20 C 0.6304(7) 0.9999(8) 0.1256(2)
H40 H 0.6434 1.0080 0.0927
H41 H 0.7040 0.9092 0.1349
H42 H 0.6463 1.0839 0.1392
C21 C 0.3577(7) 1.1391(7) 0.1249(2)
H43 H 0.3846 1.2235 0.1336
H44 H 0.2551 1.1478 0.1385
H45 H 0.3620 1.1361 0.0920
C22 C 0.4464(7) 0.9958(7) 0.19358(18)
H46 H 0.4561 1.0874 0.2047
H47 H 0.3415 0.9969 0.2032
C23 C 0.5541(8) 0.8667(7) 0.2165(2)
H48 H 0.6591 0.8684 0.2093
H49 H 0.5493 0.7737 0.2049
C24 C 0.5119(8) 0.8738(8) 0.2682(2)
H50 H 0.4075 0.8702 0.2751
H51 H 0.5133 0.9687 0.2794
C25 C 0.6193(9) 0.7483(8) 0.2938(2)
H52 H 0.6135 0.6536 0.2839
H53 H 0.7245 0.7483 0.2856
C26 C 0.5823(9) 0.7608(8) 0.3447(2)
H54 H 0.4760 0.7638 0.3525
H55 H 0.5900 0.8550 0.3543
C27 C 0.6829(9) 0.6378(8) 0.3712(2)
H56 H 0.7892 0.6341 0.3630
H57 H 0.6742 0.5438 0.3617
C28 C 0.6481(9) 0.6498(9) 0.4225(2)
H58 H 0.6545 0.7450 0.4317
H59 H 0.5421 0.6523 0.4306
C29 C 0.7478(9) 0.5303(8) 0.4505(2)
H60 H 0.7429 0.4348 0.4410
H61 H 0.8536 0.5291 0.4430
C30 C 0.7102(10) 0.5421(9) 0.5015(2)
H62 H 0.6046 0.5424 0.5089
H63 H 0.7134 0.6385 0.5108
C31 C 0.8090(10) 0.4255(8) 0.5304(2)
H64 H 0.8062 0.3290 0.5211
H65 H 0.9145 0.4255 0.5233
C32 C 0.7705(9) 0.4379(9) 0.5803(2)
H66 H 0.6641 0.4405 0.5873
H67 H 0.7757 0.5335 0.5896
C33 C 0.8645(9) 0.3222(9) 0.6089(2)
H68 H 0.9706 0.3211 0.6024
H69 H 0.8612 0.2264 0.5992
C34 C 0.8227(11) 0.3340(10) 0.6596(3)
H70 H 0.7169 0.3339 0.6661
H71 H 0.8245 0.4305 0.6692
C35 C 0.9192(11) 0.2173(10) 0.6893(3)
H72 H 0.9230 0.1201 0.6796
H73 H 0.8745 0.2336 0.7207
H74 H 1.0218 0.2236 0.6865
O2 O 0.0258(6) 0.8791(5) 0.85674(16)
O3 O 0.0104(6) 1.0117(6) 0.79235(16)
O4 O 0.2201(6) 0.9241(7) 0.72618(18)
H75 H 0.1261 0.9481 0.7321
C36 C 0.0741(9) 0.9019(9) 0.8155(3)
C37 C 0.2245(9) 0.7887(8) 0.7964(2)
C38 C 0.3028(10) 0.6655(9) 0.8208(2)
H76 H 0.2605 0.6507 0.8504
C39 C 0.4409(11) 0.5634(9) 0.8033(3)
H77 H 0.4927 0.4833 0.8208
C40 C 0.4985(10) 0.5829(10) 0.7602(3)
H78 H 0.5893 0.5127 0.7474
C41 C 0.4277(10) 0.7026(11) 0.7346(3)
H79 H 0.4726 0.7154 0.7053
C42 C 0.2871(10) 0.8072(9) 0.7522(3)
O5 O 0.2606(6) 0.4270(5) 0.92538(17)
O6 O 0.4070(7) 0.8608(8) 0.99019(19)
O7 O 0.0335(8) 0.6997(7) 0.9300(2)
O8 O 0.5431(8) 0.3750(7) 0.0724(3)
loop_
_geom_bond_atom_site_label_1
_geom_bond_atom_site_label_2
_geom_bond_site_symmetry_1
_geom_bond_site_symmetry_2
N1 C14 1_555 1_555
N2 C19 1_555 1_555
O1 H1 1_555 1_555
C1 H2 1_555 1_555
H3 C1 1_555 1_555
H4 C1 1_555 1_555
C2 C1 1_555 1_555
H5 C2 1_555 1_555
C3 C2 1_555 1_555
H6 C3 1_555 1_555
C4 C3 1_555 1_555
H7 C4 1_555 1_555
H8 C4 1_555 1_555
C5 C4 1_555 1_555
H9 C5 1_555 1_555
H10 C5 1_555 1_555
C6 C5 1_555 1_555
H11 C6 1_555 1_555
H12 C6 1_555 1_555
C7 C6 1_555 1_555
H13 C7 1_555 1_555
H14 C7 1_555 1_555
C8 C7 1_555 1_555
H15 C8 1_555 1_555
H16 C8 1_555 1_555
C9 C8 1_555 1_555
H17 C9 1_555 1_555
H18 C9 1_555 1_555
C10 C9 1_555 1_555
H19 C10 1_555 1_555
H20 C10 1_555 1_555
C11 C10 1_555 1_555
H21 C11 1_555 1_555
H22 C11 1_555 1_555
C12 C11 1_555 1_555
H23 C12 1_555 1_555
H24 C12 1_555 1_555
C13 C12 1_555 1_555
H25 C13 1_555 1_555
H26 C13 1_555 1_555
C14 C13 1_555 1_555
H27 C14 1_555 1_555
H28 C14 1_555 1_555
C15 N1 1_555 1_555
H29 C15 1_555 1_555
H30 C15 1_555 1_555
H31 C15 1_555 1_555
C16 N1 1_555 1_555
H32 C16 1_555 1_555
H33 C16 1_555 1_555
H34 C16 1_555 1_555
C17 N1 1_555 1_555
H35 C17 1_555 1_555
H36 C17 1_555 1_555
C18 O1 1_555 1_555
H37 C18 1_555 1_555
C19 C18 1_555 1_555
H38 C19 1_555 1_555
H39 C19 1_555 1_555
C20 N2 1_555 1_555
H40 C20 1_555 1_555
H41 C20 1_555 1_555
H42 C20 1_555 1_555
C21 N2 1_555 1_555
H43 C21 1_555 1_555
H44 C21 1_555 1_555
H45 C21 1_555 1_555
C22 N2 1_555 1_555
H46 C22 1_555 1_555
H47 C22 1_555 1_555
C23 C22 1_555 1_555
H48 C23 1_555 1_555
H49 C23 1_555 1_555
C24 C23 1_555 1_555
H50 C24 1_555 1_555
H51 C24 1_555 1_555
C25 C24 1_555 1_555
H52 C25 1_555 1_555
H53 C25 1_555 1_555
C26 C25 1_555 1_555
H54 C26 1_555 1_555
H55 C26 1_555 1_555
C27 C26 1_555 1_555
H56 C27 1_555 1_555
H57 C27 1_555 1_555
C28 C27 1_555 1_555
H58 C28 1_555 1_555
H59 C28 1_555 1_555
C29 C28 1_555 1_555
H60 C29 1_555 1_555
H61 C29 1_555 1_555
C30 C29 1_555 1_555
H62 C30 1_555 1_555
H63 C30 1_555 1_555
C31 C30 1_555 1_555
H64 C31 1_555 1_555
H65 C31 1_555 1_555
C32 C31 1_555 1_555
H66 C32 1_555 1_555
H67 C32 1_555 1_555
C33 C32 1_555 1_555
H68 C33 1_555 1_555
H69 C33 1_555 1_555
C34 C33 1_555 1_555
H70 C34 1_555 1_555
H71 C34 1_555 1_555
C35 C34 1_555 1_555
H72 C35 1_555 1_555
H73 C35 1_555 1_555
H74 C35 1_555 1_555
O2 C36 1_555 1_555
O3 C36 1_555 1_555
O4 H75 1_555 1_555
C36 C37 1_555 1_555
C37 C38 1_555 1_555
C38 H76 1_555 1_555
C39 C38 1_555 1_555
H77 C39 1_555 1_555
C40 C39 1_555 1_555
H78 C40 1_555 1_555
C41 C40 1_555 1_555
H79 C41 1_555 1_555
C42 O4 1_555 1_555
C17 C18 1_555 1_555
C37 C42 1_555 1_555
C41 C42 1_555 1_555

#END
