
#######################################################################
#
#                 Cambridge Crystallographic Data Centre
#                                CCDC 
#
#######################################################################
#
# If this CIF has been generated from an entry in the Cambridge 
# Structural Database, then it will include bibliographic, chemical, 
# crystal, experimental, refinement or atomic coordinate data resulting 
# from the CCDC's data processing and validation procedures.
#
#######################################################################

data_UFEMAT
_chemical_formula_moiety         'C33 H30 N6'
_chemical_name_systematic        
cis,trans,trans-tris(Benzimidazol-1-ylmethyl)-2,4,6-trimethylbenzene
_symmetry_cell_setting           monoclinic
_symmetry_space_group_name_H-M   'P 21/c'
_symmetry_Int_Tables_number      14
_space_group_name_Hall           '-P 2ybc'
loop_
_symmetry_equiv_pos_site_id
_symmetry_equiv_pos_as_xyz
1 x,y,z
2 -x,1/2+y,1/2-z
3 -x,-y,-z
4 x,1/2-y,1/2+z
_cell_length_a                   17.571(4)
_cell_length_b                   10.860(2)
_cell_length_c                   14.126(3)
_cell_angle_alpha                90
_cell_angle_beta                 92.89(3)
_cell_angle_gamma                90
_cell_volume                     2692.11
_exptl_crystal_colour            colorless
_cell_formula_units_Z            4
_exptl_crystal_recrystallization_method acetone
loop_
_atom_site_label
_atom_site_type_symbol
_atom_site_fract_x
_atom_site_fract_y
_atom_site_fract_z
N1 N 0.6536(3) 0.0135(5) 0.9629(3)
N2 N 0.7045(2) 0.1079(4) 0.8396(3)
N3 N 0.7703(3) -0.0462(4) 0.3145(3)
N4 N 0.7273(2) -0.1575(4) 0.4351(2)
N5 N 0.9717(3) -0.3700(4) 0.8971(3)
N6 N 0.9891(2) -0.2222(4) 0.7921(3)
C1 C 0.5639(4) -0.2154(7) 0.2696(5)
C2 C 0.5898(5) -0.1437(7) 0.1955(5)
C3 C 0.6576(4) -0.0851(6) 0.2008(4)
C4 C 0.700(3) -0.0976(5) 0.2872(3)
C5 C 0.6734(3) -0.1688(5) 0.3605(3)
C6 C 0.6057(3) -0.2304(6) 0.3531(4)
C7 C 0.7819(3) -0.0846(5) 0.4026(4)
C8 C 0.7228(3) -0.2169(5) 0.5297(3)
C9 C 0.6612(3) -0.0044(6) 0.6260(4)
C10 C 0.8687(3) -0.2949(5) 0.5760(3)
C11 C 1.1208(3) -0.1586(5) 0.8521(4)
C12 C 1.1750(3) -0.1883(6) 0.9227(5)
C13 C 1.1632(4) -0.2812(7) 0.9885(4)
C14 C 1.0972(4) -0.3477(6) 0.9870(4)
C15 C 1.0417(3) -0.3188(5) 0.9162(3)
C16 C 1.0541(3) -0.2258(5) 0.8502(3)
C17 C 0.9430(3) -0.3102(5) 0.8239(4)
C18 C 0.9740(3) -0.1436(5) 0.7087(3)
C19 C 0.9048(3) 0.0435(5) 0.8216(3)
C20 C 0.8913(3) -0.1147(5) 0.6912(3)
C21 C 0.8462(3) -0.1826(5) 0.6244(3)
C22 C 0.7716(3) -0.1464(5) 0.6045(3)
C23 C 0.7416(3) -0.0450(5) 0.6498(3)
C24 C 0.7860(3) 0.0189(5) 0.7170(3)
C25 C 0.8590(3) -0.0178(4) 0.7417(3)
C26 C 0.7548(3) 0.1336(5) 0.7617(3)
C27 C 0.7020(3) 0.0057(5) 0.8956(3)
C28 C 0.6536(3) 0.1883(5) 0.8773(3)
C29 C 0.6336(3) 0.3063(5) 0.8517(4)
C30 C 0.5795(3) 0.3614(5) 0.9037(4)
C31 C 0.5478(3) 0.3031(7) 0.9800(4)
C32 C 0.5683(3) 0.1853(7) 1.0072(4)
C33 C 0.6231(3) 0.1283(5) 0.9542(3)
loop_
_geom_bond_atom_site_label_1
_geom_bond_atom_site_label_2
_geom_bond_site_symmetry_1
_geom_bond_site_symmetry_2
N1 C27 1_555 1_555
N2 C26 1_555 1_555
N3 C4 1_555 1_555
N4 C5 1_555 1_555
N5 C15 1_555 1_555
N6 C16 1_555 1_555
C1 C2 1_555 1_555
C2 C3 1_555 1_555
C3 C4 1_555 1_555
C4 C5 1_555 1_555
C5 C6 1_555 1_555
C6 C1 1_555 1_555
C7 N3 1_555 1_555
C8 N4 1_555 1_555
C9 C23 1_555 1_555
C10 C21 1_555 1_555
C11 C12 1_555 1_555
C12 C13 1_555 1_555
C13 C14 1_555 1_555
C14 C15 1_555 1_555
C15 C16 1_555 1_555
C16 C11 1_555 1_555
C17 N5 1_555 1_555
C18 N6 1_555 1_555
C19 C25 1_555 1_555
C20 C18 1_555 1_555
C21 C20 1_555 1_555
C22 C8 1_555 1_555
C23 C22 1_555 1_555
C24 C23 1_555 1_555
C25 C20 1_555 1_555
C26 C24 1_555 1_555
C27 N2 1_555 1_555
C28 N2 1_555 1_555
C29 C28 1_555 1_555
C30 C29 1_555 1_555
C31 C30 1_555 1_555
C32 C31 1_555 1_555
C33 N1 1_555 1_555
N4 C7 1_555 1_555
N6 C17 1_555 1_555
C21 C22 1_555 1_555
C24 C25 1_555 1_555
C28 C33 1_555 1_555
C32 C33 1_555 1_555

#END
