
#######################################################################
#
#                 Cambridge Crystallographic Data Centre
#                                CCDC 
#
#######################################################################
#
# If this CIF has been generated from an entry in the Cambridge 
# Structural Database, then it will include bibliographic, chemical, 
# crystal, experimental, refinement or atomic coordinate data resulting 
# from the CCDC's data processing and validation procedures.
#
#######################################################################

data_UFEMOK01
_chemical_formula_moiety         'C7 H16 N2 2+,3(B1 F4 1-),H4 N1 1+'
_chemical_name_systematic        
'ammonium 1-methyl-1,4-diazabicyclo[2.2.2]octane-1,4-diium tris(tetrafluoroborate)'
_symmetry_cell_setting           cubic
_symmetry_space_group_name_H-M   'P m -3 m'
_symmetry_Int_Tables_number      221
_space_group_name_Hall           '-P 4 2 3'
loop_
_symmetry_equiv_pos_site_id
_symmetry_equiv_pos_as_xyz
1 x,y,z
2 -x,-y,z
3 -x,y,-z
4 x,-y,-z
5 z,x,y
6 z,-x,-y
7 -z,-x,y
8 -z,x,-y
9 y,z,x
10 -y,z,-x
11 y,-z,-x
12 -y,-z,x
13 y,x,-z
14 -y,-x,-z
15 y,-x,z
16 -y,x,z
17 x,z,-y
18 -x,z,y
19 -x,-z,-y
20 x,-z,y
21 z,y,-x
22 z,-y,x
23 -z,y,x
24 -z,-y,-x
25 -x,-y,-z
26 x,y,-z
27 x,-y,z
28 -x,y,z
29 -z,-x,-y
30 -z,x,y
31 z,x,-y
32 z,-x,y
33 -y,-z,-x
34 y,-z,x
35 -y,z,x
36 y,z,-x
37 -y,-x,z
38 y,x,z
39 -y,x,-z
40 y,-x,-z
41 -x,-z,y
42 x,-z,-y
43 x,z,y
44 -x,z,-y
45 -z,-y,x
46 -z,y,-x
47 z,-y,-x
48 z,y,x
_cell_length_a                   7.4699(6)
_cell_length_b                   7.4699(6)
_cell_length_c                   7.4699(6)
_cell_angle_alpha                90
_cell_angle_beta                 90
_cell_angle_gamma                90
_cell_volume                     416.816
_exptl_crystal_colour            colorless
_exptl_crystal_description       block
_cell_formula_units_Z            1
loop_
_atom_site_label
_atom_site_type_symbol
_atom_site_fract_x
_atom_site_fract_y
_atom_site_fract_z
F1 F 0.145(2) -0.602(2) 1.0000
B1 B 0.0000 -0.5000 1.0000
F1A F -0.145(2) -0.398(2) 1.0000
F1B F -0.145(2) -0.602(2) 1.0000
F1C F 0.145(2) -0.398(2) 1.0000
F1T F 0.0000 -0.602(2) 0.855(2)
F1U F 0.0000 -0.398(2) 1.145(2)
F1V F 0.0000 -0.602(2) 1.145(2)
F1W F 0.0000 -0.398(2) 0.855(2)
C1 C 0.374(3) -0.626(3) 1.374(3)
C2 C 0.5000 -0.5000 1.259(5)
C1A C 0.626(3) -0.374(3) 1.374(3)
C2D C 0.259(5) -0.5000 1.5000
C1C C 0.374(3) -0.374(3) 1.626(3)
C2F C 0.741(5) -0.5000 1.5000
C1B C 0.626(3) -0.626(3) 1.626(3)
C2H C 0.5000 -0.741(5) 1.5000
C2J C 0.5000 -0.259(5) 1.5000
C1N C 0.374(3) -0.374(3) 1.374(3)
C1O C 0.626(3) -0.626(3) 1.374(3)
C1L C 0.374(3) -0.626(3) 1.626(3)
C1M C 0.626(3) -0.374(3) 1.626(3)
C2B C 0.5000 -0.5000 1.741(5)
N1 N 0.0000 0.0000 -1.0000
loop_
_geom_bond_atom_site_label_1
_geom_bond_atom_site_label_2
_geom_bond_site_symmetry_1
_geom_bond_site_symmetry_2
F1 B1 1_555 1_555
B1 F1A 1_555 1_555
C1 C2 1_555 1_555
C2 C1A 1_555 1_555
F1A F1B 1_555 1_555
F1B B1 1_555 1_555
F1C F1 1_555 1_555
F1T B1 1_555 1_555
F1U B1 1_555 1_555
F1V B1 1_555 1_555
F1W B1 1_555 1_555
C1A C2F 1_555 1_555
C2D C1 1_555 1_555
C1C C2D 1_555 1_555
C2F C1B 1_555 1_555
C1B C2H 1_555 1_555
C2H C1 1_555 1_555
C2J C1A 1_555 1_555
C1N C2 1_555 1_555
C1O C2 1_555 1_555
C1L C2D 1_555 1_555
C1M C2F 1_555 1_555
C2B C1C 1_555 1_555
B1 F1C 1_555 1_555
F1T F1W 1_555 1_555
F1U F1V 1_555 1_555
C2D C1N 1_555 1_555
C1C C2J 1_555 1_555
C2F C1O 1_555 1_555
C1B C2B 1_555 1_555
C2H C1O 1_555 1_555
C2H C1L 1_555 1_555
C2J C1N 1_555 1_555
C2J C1M 1_555 1_555
C1L C2B 1_555 1_555
C1M C2B 1_555 1_555

#END
