
#######################################################################
#
#                 Cambridge Crystallographic Data Centre
#                                CCDC 
#
#######################################################################
#
# If this CIF has been generated from an entry in the Cambridge 
# Structural Database, then it will include bibliographic, chemical, 
# crystal, experimental, refinement or atomic coordinate data resulting 
# from the CCDC's data processing and validation procedures.
#
#######################################################################

data_UFENUP
_chemical_formula_moiety         'C12 H16 N2 O4'
_chemical_name_systematic        
1,3-bis(Methoxymethyl)-5-methylcyclopenta[d]pyrimidine-2,4-(7H)-dione
_symmetry_cell_setting           monoclinic
_symmetry_space_group_name_H-M   'P 21/n'
_symmetry_Int_Tables_number      14
_space_group_name_Hall           '-P 2yn'
loop_
_symmetry_equiv_pos_site_id
_symmetry_equiv_pos_as_xyz
1 x,y,z
2 1/2-x,1/2+y,1/2-z
3 -x,-y,-z
4 1/2+x,1/2-y,1/2+z
_cell_length_a                   4.3736(3)
_cell_length_b                   18.3636(11)
_cell_length_c                   14.9891(12)
_cell_angle_alpha                90
_cell_angle_beta                 94.117(4)
_cell_angle_gamma                90
_cell_volume                     1200.74
_exptl_crystal_colour            colorless
_exptl_crystal_description       needle
_chemical_melting_point          '124.7-125.0 deg.C'
_cell_formula_units_Z            4
_exptl_crystal_recrystallization_method methanol
loop_
_atom_site_label
_atom_site_type_symbol
_atom_site_fract_x
_atom_site_fract_y
_atom_site_fract_z
O1 O 0.7433(10) 0.0787(2) 0.9484(3)
O2 O 1.1763(11) 0.0784(2) 0.7620(3)
O3 O 0.7484(11) 0.0690(2) 0.5590(3)
O4 O 0.5748(13) 0.2339(3) 0.5884(3)
N1 N 0.8890(12) 0.1588(3) 0.8333(3)
N2 N 0.8724(12) 0.1548(3) 0.6759(3)
C1 C 0.9933(13) 0.1269(3) 0.7579(4)
C2 C 0.6616(15) 0.2143(3) 0.6640(4)
C3 C 0.5750(16) 0.2454(3) 0.7463(4)
C4 C 0.6863(16) 0.2172(3) 0.8260(4)
C5 C 0.5760(17) 0.2584(3) 0.9006(5)
C6 C 0.3771(19) 0.3158(4) 0.8521(6)
C7 C 0.3827(18) 0.3088(4) 0.7635(5)
C8 C 0.231(2) 0.3566(4) 0.6936(6)
C9 C 0.9702(14) 0.1257(3) 0.9215(4)
C10 C 0.7301(16) 0.0111(3) 0.9024(4)
C11 C 0.9683(16) 0.1193(4) 0.5945(4)
C12 C 0.751(2) 0.0012(4) 0.6048(5)
H1 H 0.7459 0.2806 0.9372
H2 H 0.4561 0.2277 0.9385
H3 H 0.2648 0.3515 0.8806
H4 H 0.1321 0.3969 0.7219
H5 H 0.0779 0.3287 0.6580
H6 H 0.3823 0.3752 0.6554
H7 H 1.1623 0.0985 0.9189
H8 H 1.0044 0.1644 0.9661
H9 H 0.6372 0.0181 0.8423
H10 H 0.6083 -0.0231 0.9341
H11 H 0.9359 -0.0080 0.8994
H12 H 1.0020 0.1565 0.5494
H13 H 1.1631 0.0939 0.6085
H14 H 0.9613 -0.0148 0.6173
H15 H 0.6400 -0.0348 0.5679
H16 H 0.6542 0.0069 0.6606
loop_
_geom_bond_atom_site_label_1
_geom_bond_atom_site_label_2
_geom_bond_site_symmetry_1
_geom_bond_site_symmetry_2
O1 C9 1_555 1_555
O2 C1 1_555 1_555
O3 C11 1_555 1_555
O4 C2 1_555 1_555
N1 C1 1_555 1_555
N2 C1 1_555 1_555
C2 N2 1_555 1_555
C3 C2 1_555 1_555
C4 N1 1_555 1_555
C5 C4 1_555 1_555
C6 C5 1_555 1_555
C7 C3 1_555 1_555
C8 C7 1_555 1_555
C9 N1 1_555 1_555
C10 O1 1_555 1_555
C11 N2 1_555 1_555
C12 O3 1_555 1_555
H1 C5 1_555 1_555
H2 C5 1_555 1_555
H3 C6 1_555 1_555
H4 C8 1_555 1_555
H5 C8 1_555 1_555
H6 C8 1_555 1_555
H7 C9 1_555 1_555
H8 C9 1_555 1_555
H9 C10 1_555 1_555
H10 C10 1_555 1_555
H11 C10 1_555 1_555
H12 C11 1_555 1_555
H13 C11 1_555 1_555
H14 C12 1_555 1_555
H15 C12 1_555 1_555
H16 C12 1_555 1_555
C3 C4 1_555 1_555
C6 C7 1_555 1_555

#END
