
#######################################################################
#
#                 Cambridge Crystallographic Data Centre
#                                CCDC 
#
#######################################################################
#
# If this CIF has been generated from an entry in the Cambridge 
# Structural Database, then it will include bibliographic, chemical, 
# crystal, experimental, refinement or atomic coordinate data resulting 
# from the CCDC's data processing and validation procedures.
#
#######################################################################

data_UFEPAW
_chemical_formula_moiety         'C13 H19 N1 O1'
_chemical_name_systematic        
'8-Methyl-1,2,3,4,5,6,7,9a-octahydro-3a,6-methanocyclopentacycloocten-10-one oxime'
_symmetry_cell_setting           monoclinic
_symmetry_space_group_name_H-M   'P 21/c'
_symmetry_Int_Tables_number      14
_space_group_name_Hall           '-P 2ybc'
loop_
_symmetry_equiv_pos_site_id
_symmetry_equiv_pos_as_xyz
1 x,y,z
2 -x,1/2+y,1/2-z
3 -x,-y,-z
4 x,1/2-y,1/2+z
_cell_length_a                   8.4097(6)
_cell_length_b                   21.5673(16)
_cell_length_c                   6.4084(5)
_cell_angle_alpha                90
_cell_angle_beta                 101.320(2)
_cell_angle_gamma                90
_cell_volume                     1139.71
_cell_formula_units_Z            4
loop_
_atom_site_label
_atom_site_type_symbol
_atom_site_fract_x
_atom_site_fract_y
_atom_site_fract_z
O1 O 0.1875(2) 0.4876(1) 0.9852(2)
N1 N 0.0898(2) 0.5311(1) 0.8496(2)
C1 C 0.0969(2) 0.6099(1) 0.5783(3)
C2 C 0.1705(2) 0.5606(1) 0.7334(3)
C3 C 0.3486(2) 0.5550(1) 0.7301(3)
C4 C 0.4465(2) 0.5912(1) 0.9160(3)
C5 C 0.4116(2) 0.6596(1) 0.9299(3)
C6 C 0.2812(2) 0.6910(1) 0.8344(3)
C7 C 0.1240(2) 0.6736(1) 0.6910(3)
C8 C 0.1944(3) 0.6016(1) 0.4011(3)
C9 C 0.3646(3) 0.5814(1) 0.5106(3)
C10 C -0.0883(2) 0.6068(1) 0.5050(3)
C11 C -0.1624(3) 0.6513(1) 0.6391(4)
C12 C -0.0213(2) 0.6799(1) 0.7958(4)
C13 C 0.5461(3) 0.6935(1) 1.0771(4)
H1 H 0.3817 0.5104 0.7403
H2 H 0.4295 0.5714 1.0493
H3 H 0.5628 0.5865 0.9109
H4 H 0.2894 0.7342 0.8635
H5 H 0.1074 0.7050 0.5740
H6 H 0.1437 0.5697 0.2983
H7 H 0.1991 0.6411 0.3238
H8 H 0.4398 0.6172 0.5285
H9 H 0.4067 0.5493 0.4252
H10 H -0.1192 0.6183 0.3529
H11 H -0.1273 0.5641 0.5225
H12 H -0.2364 0.6292 0.7162
H13 H -0.2246 0.6838 0.5491
H14 H -0.0431 0.7241 0.8215
H15 H -0.0030 0.6575 0.9333
H16 H 0.5139 0.7367 1.0919
H17 H 0.6450 0.6924 1.0178
H18 H 0.5667 0.6735 1.2171
H19 H 0.1170(30) 0.4755(11) 1.0590(40)
loop_
_geom_bond_atom_site_label_1
_geom_bond_atom_site_label_2
_geom_bond_site_symmetry_1
_geom_bond_site_symmetry_2
O1 N1 1_555 1_555
N1 C2 1_555 1_555
C1 C2 1_555 1_555
C2 C3 1_555 1_555
C3 C4 1_555 1_555
C4 C5 1_555 1_555
C5 C6 1_555 1_555
C6 C7 1_555 1_555
C7 C1 1_555 1_555
C8 C1 1_555 1_555
C9 C3 1_555 1_555
C10 C1 1_555 1_555
C11 C10 1_555 1_555
C12 C7 1_555 1_555
C13 C5 1_555 1_555
H1 C3 1_555 1_555
H2 C4 1_555 1_555
H3 C4 1_555 1_555
H4 C6 1_555 1_555
H5 C7 1_555 1_555
H6 C8 1_555 1_555
H7 C8 1_555 1_555
H8 C9 1_555 1_555
H9 C9 1_555 1_555
H10 C10 1_555 1_555
H11 C10 1_555 1_555
H12 C11 1_555 1_555
H13 C11 1_555 1_555
H14 C12 1_555 1_555
H15 C12 1_555 1_555
H16 C13 1_555 1_555
H17 C13 1_555 1_555
H18 C13 1_555 1_555
H19 O1 1_555 1_555
C8 C9 1_555 1_555
C11 C12 1_555 1_555

#END
