
#######################################################################
#
#                 Cambridge Crystallographic Data Centre
#                                CCDC 
#
#######################################################################
#
# If this CIF has been generated from an entry in the Cambridge 
# Structural Database, then it will include bibliographic, chemical, 
# crystal, experimental, refinement or atomic coordinate data resulting 
# from the CCDC's data processing and validation procedures.
#
#######################################################################

data_UFEWIN
_chemical_formula_moiety         'C10 H16 N2 O2'
_chemical_name_systematic        
'N-t-Butyl-N-hydroxy-5-methylpyridin-2-amine 1-oxide'
_symmetry_cell_setting           tetragonal
_symmetry_space_group_name_H-M   'P 43 21 2'
_symmetry_Int_Tables_number      96
_space_group_name_Hall           'P 4nw 2abw'
loop_
_symmetry_equiv_pos_site_id
_symmetry_equiv_pos_as_xyz
1 x,y,z
2 -x,-y,1/2+z
3 1/2-y,1/2+x,3/4+z
4 1/2+y,1/2-x,1/4+z
5 1/2-x,1/2+y,3/4-z
6 1/2+x,1/2-y,1/4-z
7 y,x,-z
8 -y,-x,1/2-z
_cell_length_a                   9.0599(3)
_cell_length_b                   9.0599(3)
_cell_length_c                   27.0222(18)
_cell_angle_alpha                90
_cell_angle_beta                 90
_cell_angle_gamma                90
_cell_volume                     2218.03
_cell_formula_units_Z            8
loop_
_atom_site_label
_atom_site_type_symbol
_atom_site_fract_x
_atom_site_fract_y
_atom_site_fract_z
C1 C 0.45350(17) 0.12273(18) 0.08447(6)
H1 H 0.5331 0.1688 0.0997
C2 C 0.47428(16) 0.05816(18) 0.03898(5)
C3 C 0.35329(18) -0.00844(19) 0.01669(5)
H2 H 0.3626 -0.0514 -0.0144
C4 C 0.21995(17) -0.01064(17) 0.04071(5)
H3 H 0.1393 -0.0550 0.0255
C5 C 0.20260(15) 0.05165(15) 0.08720(5)
C6 C 0.03448(18) -0.06879(18) 0.14667(6)
C7 C 0.0150(3) -0.2116(2) 0.11711(8)
H4 H 0.1072 -0.2379 0.1019
H5 H -0.0583 -0.1970 0.0919
H6 H -0.0159 -0.2893 0.1389
C8 C 0.1601(2) -0.0877(2) 0.18336(7)
H7 H 0.2503 -0.1061 0.1657
H8 H 0.1392 -0.1695 0.2048
H9 H 0.1703 0.0006 0.2027
C9 C -0.1059(2) -0.0297(3) 0.17472(8)
H10 H -0.1293 -0.1076 0.1975
H11 H -0.1857 -0.0176 0.1517
H12 H -0.0912 0.0606 0.1926
C10 C 0.6233(2) 0.0631(3) 0.01483(7)
H13 H 0.6692 0.1565 0.0216
H14 H 0.6123 0.0512 -0.0203
H15 H 0.6837 -0.0150 0.0277
N1 N 0.32073(13) 0.12166(14) 0.10795(4)
N2 N 0.06832(12) 0.05985(12) 0.11355(4)
O1 O 0.30741(13) 0.18804(14) 0.15108(4)
O2 O -0.04717(12) 0.06852(13) 0.07693(4)
H16 H -0.094(2) 0.151(2) 0.0862(7)
loop_
_geom_bond_atom_site_label_1
_geom_bond_atom_site_label_2
_geom_bond_site_symmetry_1
_geom_bond_site_symmetry_2
C1 H1 1_555 1_555
C2 C1 1_555 1_555
C3 C2 1_555 1_555
H2 C3 1_555 1_555
C4 C3 1_555 1_555
H3 C4 1_555 1_555
C5 C4 1_555 1_555
C6 C7 1_555 1_555
C7 H4 1_555 1_555
H5 C7 1_555 1_555
H6 C7 1_555 1_555
C8 C6 1_555 1_555
H7 C8 1_555 1_555
H8 C8 1_555 1_555
H9 C8 1_555 1_555
C9 C6 1_555 1_555
H10 C9 1_555 1_555
H11 C9 1_555 1_555
H12 C9 1_555 1_555
C10 C2 1_555 1_555
H13 C10 1_555 1_555
H14 C10 1_555 1_555
H15 C10 1_555 1_555
N1 C1 1_555 1_555
N2 C5 1_555 1_555
O1 N1 1_555 1_555
O2 N2 1_555 1_555
H16 O2 1_555 1_555
C5 N1 1_555 1_555
C6 N2 1_555 1_555

#END
