
#######################################################################
#
#                 Cambridge Crystallographic Data Centre
#                                CCDC 
#
#######################################################################
#
# If this CIF has been generated from an entry in the Cambridge 
# Structural Database, then it will include bibliographic, chemical, 
# crystal, experimental, refinement or atomic coordinate data resulting 
# from the CCDC's data processing and validation procedures.
#
#######################################################################

data_UFIDEV
_chemical_formula_moiety         'C13 H18 Cl1 N1 O1 S1'
_chemical_name_systematic        
2-benzyl-1-(t-butylsulfinyl)-3-chloroaziridine
_symmetry_cell_setting           orthorhombic
_symmetry_space_group_name_H-M   'P 21 21 21'
_symmetry_Int_Tables_number      19
_space_group_name_Hall           'P 2ac 2ab'
loop_
_symmetry_equiv_pos_site_id
_symmetry_equiv_pos_as_xyz
1 x,y,z
2 1/2-x,-y,1/2+z
3 -x,1/2+y,1/2-z
4 1/2+x,1/2-y,-z
_cell_length_a                   6.8451(9)
_cell_length_b                   12.6321(17)
_cell_length_c                   17.386(2)
_cell_angle_alpha                90
_cell_angle_beta                 90
_cell_angle_gamma                90
_cell_volume                     1503.33
_exptl_crystal_colour            colorless
_exptl_crystal_description       block
_cell_formula_units_Z            4
loop_
_atom_site_label
_atom_site_type_symbol
_atom_site_fract_x
_atom_site_fract_y
_atom_site_fract_z
S1 S 0.17417(12) 0.21327(6) 0.12560(4)
C1 C -0.0560(5) 0.1876(2) 0.17734(17)
C2 C -0.0213(5) 0.2196(3) 0.26096(18)
H1 H 0.0090 0.2937 0.2634
H2 H 0.0857 0.1795 0.2815
H3 H -0.1370 0.2057 0.2905
C3 C -0.0863(7) 0.0688(3) 0.1693(3)
H4 H -0.2053 0.0488 0.1946
H5 H 0.0216 0.0320 0.1923
H6 H -0.0945 0.0506 0.1158
C4 C -0.2237(5) 0.2502(3) 0.1422(2)
H7 H -0.2258 0.2393 0.0876
H8 H -0.2060 0.3242 0.1529
H9 H -0.3450 0.2267 0.1640
O1 O 0.1432(4) 0.18099(16) 0.04418(12)
N1 N 0.1725(4) 0.34955(17) 0.13158(13)
C5 C 0.0188(5) 0.5767(3) -0.0037(2)
C6 C 0.1250(5) 0.4109(2) 0.06086(17)
H10 H 0.0936 0.3674 0.0158
C7 C 0.0031(5) 0.5105(3) 0.06882(19)
H11 H -0.1324 0.4916 0.0777
H12 H 0.0484 0.5513 0.1126
C8 C 0.1508(6) 0.6569(3) -0.0116(2)
H13 H 0.2317 0.6742 0.0295
C9 C 0.1667(7) 0.7133(3) -0.0801(2)
H14 H 0.2594 0.7668 -0.0846
C10 C 0.3271(5) 0.4004(2) 0.08836(18)
H15 H 0.4107 0.3529 0.0583
C11 C -0.0994(7) 0.5556(3) -0.0654(3)
H16 H -0.1934 0.5028 -0.0613
Cl1 Cl 0.44864(14) 0.50429(8) 0.13611(7)
C12 C 0.0499(7) 0.6911(3) -0.1394(3)
H17 H 0.0591 0.7303 -0.1846
C13 C -0.0820(7) 0.6116(4) -0.1339(3)
H18 H -0.1605 0.5945 -0.1757
loop_
_geom_bond_atom_site_label_1
_geom_bond_atom_site_label_2
_geom_bond_site_symmetry_1
_geom_bond_site_symmetry_2
S1 C1 1_555 1_555
C1 C2 1_555 1_555
C2 H1 1_555 1_555
H2 C2 1_555 1_555
H3 C2 1_555 1_555
C3 C1 1_555 1_555
H4 C3 1_555 1_555
H5 C3 1_555 1_555
H6 C3 1_555 1_555
C4 C1 1_555 1_555
H7 C4 1_555 1_555
H8 C4 1_555 1_555
H9 C4 1_555 1_555
O1 S1 1_555 1_555
N1 S1 1_555 1_555
C5 C7 1_555 1_555
C6 N1 1_555 1_555
H10 C6 1_555 1_555
C7 C6 1_555 1_555
H11 C7 1_555 1_555
H12 C7 1_555 1_555
C8 C5 1_555 1_555
H13 C8 1_555 1_555
C9 C8 1_555 1_555
H14 C9 1_555 1_555
C10 N1 1_555 1_555
H15 C10 1_555 1_555
C11 C5 1_555 1_555
H16 C11 1_555 1_555
Cl1 C10 1_555 1_555
C12 C9 1_555 1_555
H17 C12 1_555 1_555
C13 C11 1_555 1_555
H18 C13 1_555 1_555
C6 C10 1_555 1_555
C12 C13 1_555 1_555

#END
