
#######################################################################
#
#                 Cambridge Crystallographic Data Centre
#                                CCDC 
#
#######################################################################
#
# If this CIF has been generated from an entry in the Cambridge 
# Structural Database, then it will include bibliographic, chemical, 
# crystal, experimental, refinement or atomic coordinate data resulting 
# from the CCDC's data processing and validation procedures.
#
#######################################################################

data_UFIGAU
_chemical_formula_moiety         'C30 H30 Br1 N3 O3'
_chemical_name_systematic        
8-bromo-2-t-butyl-3a-[(1-cyano-3,3-dimethyl-2-oxobutylidene)amino]-4-(4-methylphenyl)-3a,9b-dihydro-4H-furo[2,3-c][1]benzopyran-1-carbonitrile
_symmetry_cell_setting           triclinic
_symmetry_space_group_name_H-M   'P -1'
_symmetry_Int_Tables_number      2
_space_group_name_Hall           '-P 1'
loop_
_symmetry_equiv_pos_site_id
_symmetry_equiv_pos_as_xyz
1 x,y,z
2 -x,-y,-z
_cell_length_a                   10.5691(18)
_cell_length_b                   12.489(2)
_cell_length_c                   13.082(2)
_cell_angle_alpha                113.373(5)
_cell_angle_beta                 95.324(5)
_cell_angle_gamma                113.736(5)
_cell_volume                     1383.97
_exptl_crystal_colour            yellow
_exptl_crystal_description       block
_cell_formula_units_Z            2
loop_
_atom_site_label
_atom_site_type_symbol
_atom_site_fract_x
_atom_site_fract_y
_atom_site_fract_z
Br1 Br 0.60893(5) 0.09789(5) 0.66920(4)
C1 C 0.1943(5) 0.5880(4) 0.9025(4)
H1 H 0.2932 0.6174 0.9262
C2 C 0.1373(5) 0.6654(5) 0.9684(4)
H2 H 0.1990 0.7451 1.0355
C3 C -0.0062(4) 0.6272(4) 0.9370(4)
C4 C -0.0668(5) 0.7102(5) 1.0112(4)
H3 H -0.0153 0.7499 1.0921
H4 H -0.1677 0.6546 0.9976
H5 H -0.0558 0.7788 0.9910
C5 C -0.0921(5) 0.5106(5) 0.8364(4)
H6 H -0.1902 0.4836 0.8111
C6 C -0.0371(4) 0.4313(4) 0.7709(4)
H7 H -0.0991 0.3513 0.7040
C7 C 0.1079(4) 0.4701(4) 0.8041(3)
C8 C 0.1667(4) 0.3813(4) 0.7376(3)
H8 H 0.0893 0.2888 0.7008
C9 C 0.2300(4) 0.4073(3) 0.6437(3)
C10 C 0.2819(4) 0.3057(3) 0.5833(3)
H9 H 0.3555 0.3443 0.5496
C11 C 0.3491(4) 0.2732(3) 0.6655(3)
C12 C 0.4269(4) 0.2054(3) 0.6334(3)
H10 H 0.4307 0.1716 0.5570
C13 C 0.4984(4) 0.1873(4) 0.7125(3)
C14 C 0.4961(4) 0.2384(4) 0.8267(3)
H11 H 0.5448 0.2258 0.8803
C15 C 0.4218(5) 0.3077(4) 0.8608(3)
H12 H 0.4212 0.3435 0.9379
C16 C 0.3478(4) 0.3247(4) 0.7808(3)
C17 C 0.1200(4) 0.0655(5) 0.4199(3)
C18 C 0.1439(4) 0.1982(3) 0.4837(3)
C19 C 0.0598(4) 0.2493(4) 0.4671(3)
C20 C -0.0780(4) 0.1988(4) 0.3769(3)
C21 C -0.1964(5) 0.1986(6) 0.4367(5)
H13 H -0.2080 0.1455 0.4754
H14 H -0.2862 0.1620 0.3792
H15 H -0.1690 0.2880 0.4930
C22 C -0.0504(6) 0.2919(6) 0.3242(5)
H16 H -0.0131 0.3813 0.3854
H17 H -0.1395 0.2658 0.2716
H18 H 0.0189 0.2873 0.2824
C23 C -0.1300(6) 0.0586(5) 0.2826(5)
H19 H -0.0583 0.0565 0.2431
H20 H -0.2191 0.0289 0.2277
H21 H -0.1459 0.0010 0.3171
C24 C 0.3535(4) 0.5344(4) 0.5081(4)
C25 C 0.3992(4) 0.5978(3) 0.6351(3)
C26 C 0.5299(4) 0.7351(4) 0.6902(3)
C27 C 0.6021(4) 0.8168(4) 0.8201(3)
C28 C 0.7440(6) 0.9377(5) 0.8440(4)
H22 H 0.8079 0.9084 0.8093
H23 H 0.7889 0.9931 0.9267
H24 H 0.7240 0.9875 0.8108
C29 C 0.5005(6) 0.8635(6) 0.8757(4)
H25 H 0.4887 0.9212 0.8490
H26 H 0.5411 0.9108 0.9591
H27 H 0.4079 0.7878 0.8539
C30 C 0.6370(5) 0.7382(4) 0.8711(4)
H28 H 0.5485 0.6691 0.8666
H29 H 0.6950 0.7966 0.9513
H30 H 0.6894 0.6993 0.8277
N1 N 0.1053(4) -0.0400(4) 0.3744(3)
N2 N 0.3447(3) 0.5420(3) 0.6951(2)
N3 N 0.3275(4) 0.4841(4) 0.4091(3)
O1 O 0.2795(3) 0.3983(3) 0.8224(2)
O2 O 0.1133(2) 0.3789(2) 0.5530(2)
O3 O 0.5705(3) 0.7749(3) 0.6229(3)
loop_
_geom_bond_atom_site_label_1
_geom_bond_atom_site_label_2
_geom_bond_site_symmetry_1
_geom_bond_site_symmetry_2
Br1 C13 1_555 1_555
C1 H1 1_555 1_555
C2 C1 1_555 1_555
H2 C2 1_555 1_555
C3 C2 1_555 1_555
C4 C3 1_555 1_555
H3 C4 1_555 1_555
H4 C4 1_555 1_555
H5 C4 1_555 1_555
C5 C3 1_555 1_555
H6 C5 1_555 1_555
C6 C5 1_555 1_555
H7 C6 1_555 1_555
C7 C1 1_555 1_555
C8 C7 1_555 1_555
H8 C8 1_555 1_555
C9 C8 1_555 1_555
C10 C9 1_555 1_555
H9 C10 1_555 1_555
C11 C10 1_555 1_555
C12 C11 1_555 1_555
H10 C12 1_555 1_555
C13 C12 1_555 1_555
C14 C13 1_555 1_555
H11 C14 1_555 1_555
C15 C14 1_555 1_555
H12 C15 1_555 1_555
C16 C11 1_555 1_555
C17 C18 1_555 1_555
C18 C10 1_555 1_555
C19 C18 1_555 1_555
C20 C19 1_555 1_555
C21 C20 1_555 1_555
H13 C21 1_555 1_555
H14 C21 1_555 1_555
H15 C21 1_555 1_555
C22 C20 1_555 1_555
H16 C22 1_555 1_555
H17 C22 1_555 1_555
H18 C22 1_555 1_555
C23 C20 1_555 1_555
H19 C23 1_555 1_555
H20 C23 1_555 1_555
H21 C23 1_555 1_555
C24 C25 1_555 1_555
C25 C26 1_555 1_555
C26 C27 1_555 1_555
C27 C28 1_555 1_555
C28 H22 1_555 1_555
H23 C28 1_555 1_555
H24 C28 1_555 1_555
C29 C27 1_555 1_555
H25 C29 1_555 1_555
H26 C29 1_555 1_555
H27 C29 1_555 1_555
C30 C27 1_555 1_555
H28 C30 1_555 1_555
H29 C30 1_555 1_555
H30 C30 1_555 1_555
N1 C17 1_555 1_555
N2 C9 1_555 1_555
N3 C24 1_555 1_555
O1 C8 1_555 1_555
O2 C9 1_555 1_555
O3 C26 1_555 1_555
C6 C7 1_555 1_555
C15 C16 1_555 1_555
C16 O1 1_555 1_555
C19 O2 1_555 1_555
C25 N2 1_555 1_555

#END
