
#######################################################################
#
#                 Cambridge Crystallographic Data Centre
#                                CCDC 
#
#######################################################################
#
# If this CIF has been generated from an entry in the Cambridge 
# Structural Database, then it will include bibliographic, chemical, 
# crystal, experimental, refinement or atomic coordinate data resulting 
# from the CCDC's data processing and validation procedures.
#
#######################################################################

data_UFIGIC
_chemical_formula_moiety         'C30 H30 Cl1 N3 O4'
_chemical_name_systematic        
2-t-butyl-8-chloro-3a-[(1-cyano-3,3-dimethyl-2-oxobutylidene)amino]-4-(4-methoxyphenyl)-3a,9b-dihydro-4H-furo[2,3-c][1]benzopyran-1-carbonitrile
_symmetry_cell_setting           triclinic
_symmetry_space_group_name_H-M   'P -1'
_symmetry_Int_Tables_number      2
_space_group_name_Hall           '-P 1'
loop_
_symmetry_equiv_pos_site_id
_symmetry_equiv_pos_as_xyz
1 x,y,z
2 -x,-y,-z
_cell_length_a                   10.1744(8)
_cell_length_b                   12.6935(11)
_cell_length_c                   13.1360(12)
_cell_angle_alpha                113.581(3)
_cell_angle_beta                 93.921(3)
_cell_angle_gamma                112.484(2)
_cell_volume                     1386.69
_exptl_crystal_colour            yellow
_exptl_crystal_description       block
_cell_formula_units_Z            2
loop_
_atom_site_label
_atom_site_type_symbol
_atom_site_fract_x
_atom_site_fract_y
_atom_site_fract_z
C1 C 0.3453(2) 0.81914(19) 0.27908(17)
C2 C 0.4212(3) 0.8020(2) 0.35847(19)
H1 H 0.4179 0.8364 0.4349
C3 C 0.5013(3) 0.7341(2) 0.3236(2)
H2 H 0.5519 0.7218 0.3762
C4 C 0.5062(2) 0.6842(2) 0.2105(2)
C5 C 0.4340(2) 0.70252(19) 0.13139(18)
H3 H 0.4401 0.6696 0.0556
C6 C 0.3516(2) 0.77055(18) 0.16523(16)
C7 C 0.2841(2) 0.80365(18) 0.08351(16)
H4 H 0.3609 0.8425 0.0507
C8 C 0.2234(2) 0.90040(18) 0.14342(15)
C9 C 0.1562(2) 0.87296(19) 0.23655(17)
H5 H 0.0813 0.7831 0.2007
C10 C 0.0871(2) 0.95719(19) 0.30020(17)
C11 C 0.1630(2) 1.0643(2) 0.40410(19)
H6 H 0.2605 1.0870 0.4350
C12 C 0.0983(2) 1.1396(2) 0.46445(19)
H7 H 0.1524 1.2126 0.5344
C13 C -0.0462(2) 1.1058(2) 0.42023(19)
C14 C -0.0446(3) 1.2835(2) 0.5794(2)
H8 H 0.0002 1.2637 0.6315
H9 H -0.1117 1.3152 0.6116
H10 H 0.0304 1.3478 0.5671
C15 C -0.1250(3) 0.9973(2) 0.3167(2)
H11 H -0.2230 0.9738 0.2863
C16 C -0.0591(2) 0.9238(2) 0.25810(19)
H12 H -0.1139 0.8501 0.1888
C17 C 0.1284(2) 0.5716(2) -0.07821(18)
C18 C 0.1482(2) 0.69982(19) -0.01474(16)
C19 C 0.0587(2) 0.74981(19) -0.03046(16)
C20 C -0.0790(2) 0.7011(2) -0.12127(19)
C21 C -0.1239(4) 0.5646(4) -0.2152(3)
H13 H -0.0454 0.5635 -0.2516
H14 H -0.2110 0.5372 -0.2715
H15 H -0.1435 0.5073 -0.1816
C22 C -0.0523(5) 0.7922(4) -0.1734(4)
H16 H -0.0251 0.8773 -0.1137
H17 H -0.1406 0.7641 -0.2287
H18 H 0.0258 0.7930 -0.2106
C23 C -0.2077(4) 0.6962(4) -0.0641(3)
H19 H -0.2165 0.6467 -0.0233
H20 H -0.2978 0.6569 -0.1223
H21 H -0.1888 0.7820 -0.0112
C24 C 0.3472(2) 1.0296(2) 0.0101(2)
C25 C 0.3872(2) 1.08893(18) 0.13622(16)
C26 C 0.5108(2) 1.2261(2) 0.19171(18)
C27 C 0.5742(3) 1.3035(2) 0.32028(19)
C28 C 0.7017(4) 1.4319(3) 0.3470(3)
H22 H 0.7777 1.4171 0.3133
H23 H 0.7405 1.4835 0.4289
H24 H 0.6672 1.4761 0.3157
C29 C 0.4551(4) 1.3288(3) 0.3762(2)
H25 H 0.4255 1.3789 0.3499
H26 H 0.4936 1.3751 0.4584
H27 H 0.3715 1.2484 0.3556
C30 C 0.6289(3) 1.2323(3) 0.3680(3)
H28 H 0.5466 1.1561 0.3586
H29 H 0.6783 1.2870 0.4483
H30 H 0.6961 1.2089 0.3273
Cl1 Cl 0.61058(7) 0.60040(7) 0.16844(6)
N1 N 0.1144(2) 0.4690(2) -0.12365(19)
N2 N 0.33460(17) 1.03264(15) 0.19493(13)
N3 N 0.3271(2) 0.9833(2) -0.08701(19)
O1 O 0.27098(16) 0.89038(14) 0.32052(11)
O2 O -0.12223(18) 1.17112(16) 0.47328(14)
O3 O 0.10616(14) 0.87392(12) 0.05425(11)
O4 O 0.5525(2) 1.26663(16) 0.12484(14)
C31? C -0.0455(15) 0.6458(14) -0.2429(11)
H31? H -0.0089 0.5849 -0.2481
H32? H 0.0271 0.7150 -0.2512
H33? H -0.1344 0.6040 -0.3029
C32? C -0.1012(17) 0.8212(14) -0.1113(13)
H34? H -0.1811 0.7939 -0.1738
H35? H -0.0125 0.8830 -0.1144
H36? H -0.1233 0.8595 -0.0395
C33? C -0.1995(13) 0.6044(15) -0.1077(12)
H37? H -0.1846 0.5289 -0.1296
H38? H -0.2906 0.5829 -0.1559
H39? H -0.2032 0.6373 -0.0288
loop_
_geom_bond_atom_site_label_1
_geom_bond_atom_site_label_2
_geom_bond_site_symmetry_1
_geom_bond_site_symmetry_2
C1 C2 1_555 1_555
C2 H1 1_555 1_555
C3 C2 1_555 1_555
H2 C3 1_555 1_555
C4 C3 1_555 1_555
C5 C4 1_555 1_555
H3 C5 1_555 1_555
C6 C1 1_555 1_555
C7 C6 1_555 1_555
H4 C7 1_555 1_555
C8 C7 1_555 1_555
C9 C8 1_555 1_555
H5 C9 1_555 1_555
C10 C9 1_555 1_555
C11 C10 1_555 1_555
H6 C11 1_555 1_555
C12 C11 1_555 1_555
H7 C12 1_555 1_555
C13 C12 1_555 1_555
C14 H8 1_555 1_555
H9 C14 1_555 1_555
H10 C14 1_555 1_555
C15 C13 1_555 1_555
H11 C15 1_555 1_555
C16 C10 1_555 1_555
H12 C16 1_555 1_555
C17 C18 1_555 1_555
C18 C7 1_555 1_555
C19 C18 1_555 1_555
C20 C19 1_555 1_555
C21 C20 1_555 1_555
H13 C21 1_555 1_555
H14 C21 1_555 1_555
H15 C21 1_555 1_555
C22 C20 1_555 1_555
H16 C22 1_555 1_555
H17 C22 1_555 1_555
H18 C22 1_555 1_555
C23 C20 1_555 1_555
H19 C23 1_555 1_555
H20 C23 1_555 1_555
H21 C23 1_555 1_555
C24 C25 1_555 1_555
C25 C26 1_555 1_555
C26 C27 1_555 1_555
C27 C28 1_555 1_555
C28 H22 1_555 1_555
H23 C28 1_555 1_555
H24 C28 1_555 1_555
C29 C27 1_555 1_555
H25 C29 1_555 1_555
H26 C29 1_555 1_555
H27 C29 1_555 1_555
C30 C27 1_555 1_555
H28 C30 1_555 1_555
H29 C30 1_555 1_555
H30 C30 1_555 1_555
Cl1 C4 1_555 1_555
N1 C17 1_555 1_555
N2 C8 1_555 1_555
N3 C24 1_555 1_555
O1 C1 1_555 1_555
O2 C13 1_555 1_555
O3 C8 1_555 1_555
O4 C26 1_555 1_555
C5 C6 1_555 1_555
C9 O1 1_555 1_555
C14 O2 1_555 1_555
C15 C16 1_555 1_555
C19 O3 1_555 1_555
C25 N2 1_555 1_555

#END
