
#######################################################################
#
#                 Cambridge Crystallographic Data Centre
#                                CCDC 
#
#######################################################################
#
# If this CIF has been generated from an entry in the Cambridge 
# Structural Database, then it will include bibliographic, chemical, 
# crystal, experimental, refinement or atomic coordinate data resulting 
# from the CCDC's data processing and validation procedures.
#
#######################################################################

data_UFIGOI
_chemical_formula_moiety         'C25 H22 Br2 N2 O2'
_chemical_name_systematic        
9-bromo-5-(2-bromophenyl)-2-t-butyl-3-ethoxy-5H-[1]benzopyrano[3,4-b]pyridine-1-carbonitrile
_symmetry_cell_setting           monoclinic
_symmetry_space_group_name_H-M   'P 21/c'
_symmetry_Int_Tables_number      14
_space_group_name_Hall           '-P 2ybc'
loop_
_symmetry_equiv_pos_site_id
_symmetry_equiv_pos_as_xyz
1 x,y,z
2 -x,1/2+y,1/2-z
3 -x,-y,-z
4 x,1/2-y,1/2+z
_cell_length_a                   6.8119(12)
_cell_length_b                   15.187(3)
_cell_length_c                   22.922(4)
_cell_angle_alpha                90
_cell_angle_beta                 98.315(5)
_cell_angle_gamma                90
_cell_volume                     2346.41
_exptl_crystal_colour            colorless
_exptl_crystal_description       block
_cell_formula_units_Z            4
loop_
_atom_site_label
_atom_site_type_symbol
_atom_site_fract_x
_atom_site_fract_y
_atom_site_fract_z
Br1 Br -0.66567(8) 0.87479(4) 0.29881(3)
Br2 Br 0.19081(10) 0.70427(5) 0.61025(3)
C1 C -0.0613(6) 0.8888(3) 0.41969(17)
C2 C -0.1826(7) 0.9615(3) 0.4136(2)
H1 H -0.1447 1.0125 0.4347
C3 C -0.3599(7) 0.9591(3) 0.3762(2)
H2 H -0.4409 1.0086 0.3710
C4 C -0.4152(6) 0.8820(3) 0.34660(19)
C5 C -0.2921(7) 0.8097(3) 0.35075(19)
H3 H -0.3322 0.7587 0.3300
C6 C -0.1069(6) 0.8129(3) 0.38603(17)
C7 C 0.0451(6) 0.7436(3) 0.39075(17)
C8 C 0.1798(6) 0.7417(3) 0.44203(17)
C9 C 0.1585(7) 0.8098(3) 0.48876(17)
H4 H 0.0511 0.7923 0.5105
C10 C 0.3466(7) 0.8223(3) 0.53134(17)
C11 C 0.3827(7) 0.7809(3) 0.58511(19)
C12 C 0.5594(8) 0.7910(3) 0.6225(2)
H5 H 0.5810 0.7619 0.6585
C13 C 0.7029(8) 0.8451(4) 0.6052(2)
H6 H 0.8218 0.8532 0.6302
C14 C 0.6736(7) 0.8862(3) 0.5531(2)
H7 H 0.7731 0.9214 0.5418
C15 C 0.4947(7) 0.8764(3) 0.5156(2)
H8 H 0.4745 0.9063 0.4798
C16 C -0.0326(8) 0.6991(3) 0.2888(2)
C17 C 0.0786(7) 0.6825(3) 0.34627(18)
C18 C 0.2259(7) 0.6188(3) 0.3556(2)
C19 C 0.2642(11) 0.5473(5) 0.3112(3)
C20 C 0.2817(13) 0.4582(5) 0.3400(3)
H9 H 0.2802 0.4135 0.3103
H10 H 0.1723 0.4492 0.3614
H11 H 0.4040 0.4548 0.3666
C21 C 0.4548(12) 0.5687(5) 0.2867(3)
H12 H 0.5639 0.5695 0.3183
H13 H 0.4426 0.6254 0.2680
H14 H 0.4779 0.5247 0.2584
C22 C 0.1034(12) 0.5373(5) 0.2585(3)
H15 H 0.1351 0.4887 0.2347
H16 H 0.0949 0.5903 0.2355
H17 H -0.0215 0.5265 0.2719
O1 O 0.5341(18) 0.5878(8) 0.4159(5)
C23 C 0.678(3) 0.6075(14) 0.4680(9)
H18 H 0.6201 0.5981 0.5037
H19 H 0.7220 0.6682 0.4672
C24 C 0.8496(16) 0.5460(8) 0.4660(5)
H20 H 0.8079 0.4866 0.4717
H21 H 0.9558 0.5613 0.4965
H22 H 0.8947 0.5506 0.4283
N1 N -0.1161(8) 0.7210(4) 0.2450(2)
N2 N 0.3289(6) 0.6859(2) 0.45148(16)
C25 C 0.3504(8) 0.6272(3) 0.4106(2)
O2 O 0.1098(4) 0.89315(18) 0.45983(12)
O3? O 0.473(2) 0.5543(9) 0.4289(7)
C26? C 0.600(2) 0.5642(11) 0.4848(6)
H23? H 0.6596 0.5081 0.4977
H24? H 0.5250 0.5856 0.5147
C27? C 0.755(4) 0.628(2) 0.4753(17)
H25? H 0.8247 0.6072 0.4444
H26? H 0.8468 0.6345 0.5110
H27? H 0.6951 0.6838 0.4643
loop_
_geom_bond_atom_site_label_1
_geom_bond_atom_site_label_2
_geom_bond_site_symmetry_1
_geom_bond_site_symmetry_2
Br1 C4 1_555 1_555
Br2 C11 1_555 1_555
C1 C2 1_555 1_555
C2 H1 1_555 1_555
C3 C2 1_555 1_555
H2 C3 1_555 1_555
C4 C3 1_555 1_555
C5 C4 1_555 1_555
H3 C5 1_555 1_555
C6 C1 1_555 1_555
C7 C6 1_555 1_555
C8 C7 1_555 1_555
C9 C8 1_555 1_555
H4 C9 1_555 1_555
C10 C9 1_555 1_555
C11 C10 1_555 1_555
C12 C11 1_555 1_555
H5 C12 1_555 1_555
C13 C12 1_555 1_555
H6 C13 1_555 1_555
C14 C13 1_555 1_555
H7 C14 1_555 1_555
C15 C10 1_555 1_555
H8 C15 1_555 1_555
C16 C17 1_555 1_555
C17 C7 1_555 1_555
C18 C17 1_555 1_555
C19 C18 1_555 1_555
C20 C19 1_555 1_555
H9 C20 1_555 1_555
H10 C20 1_555 1_555
H11 C20 1_555 1_555
C21 C19 1_555 1_555
H12 C21 1_555 1_555
H13 C21 1_555 1_555
H14 C21 1_555 1_555
C22 C19 1_555 1_555
H15 C22 1_555 1_555
H16 C22 1_555 1_555
H17 C22 1_555 1_555
O1 C23 1_555 1_555
C23 H18 1_555 1_555
H19 C23 1_555 1_555
C24 C23 1_555 1_555
H20 C24 1_555 1_555
H21 C24 1_555 1_555
H22 C24 1_555 1_555
N1 C16 1_555 1_555
N2 C8 1_555 1_555
C25 C18 1_555 1_555
O2 C1 1_555 1_555
C5 C6 1_555 1_555
C9 O2 1_555 1_555
C14 C15 1_555 1_555
O1 C25 1_555 1_555
N2 C25 1_555 1_555

#END
