
#######################################################################
#
#                 Cambridge Crystallographic Data Centre
#                                CCDC 
#
#######################################################################
#
# If this CIF has been generated from an entry in the Cambridge 
# Structural Database, then it will include bibliographic, chemical, 
# crystal, experimental, refinement or atomic coordinate data resulting 
# from the CCDC's data processing and validation procedures.
#
#######################################################################

data_UFIHAV
_chemical_formula_moiety         'C24 H20 Br1 N3 O4'
_chemical_name_systematic        
9-bromo-2-t-butyl-3-methoxy-5-(2-nitrophenyl)-5H-[1]benzopyrano[3,4-b]pyridine-1-carbonitrile
_symmetry_cell_setting           triclinic
_symmetry_space_group_name_H-M   'P -1'
_symmetry_Int_Tables_number      2
_space_group_name_Hall           '-P 1'
loop_
_symmetry_equiv_pos_site_id
_symmetry_equiv_pos_as_xyz
1 x,y,z
2 -x,-y,-z
_cell_length_a                   9.0719(4)
_cell_length_b                   11.2308(4)
_cell_length_c                   11.5065(4)
_cell_angle_alpha                80.4220(10)
_cell_angle_beta                 76.3630(10)
_cell_angle_gamma                70.8480(10)
_cell_volume                     1071.15
_exptl_crystal_colour            colorless
_exptl_crystal_description       block
_cell_formula_units_Z            2
loop_
_atom_site_label
_atom_site_type_symbol
_atom_site_fract_x
_atom_site_fract_y
_atom_site_fract_z
Br1 Br 0.17789(3) 0.41914(2) 0.04558(2)
C1 C 0.44479(19) 0.36223(15) 0.35742(14)
C2 C 0.3519(2) 0.28525(16) 0.35940(15)
H1 H 0.3462 0.2214 0.4216
C3 C 0.2677(2) 0.30358(16) 0.26861(16)
H2 H 0.2031 0.2537 0.2698
C4 C 0.2816(2) 0.39751(16) 0.17632(15)
C5 C 0.36853(19) 0.47859(15) 0.17587(15)
H3 H 0.3748 0.5415 0.1128
C6 C 0.44669(19) 0.46555(15) 0.27030(14)
C7 C 0.53876(19) 0.54818(15) 0.28313(14)
C8 C 0.66224(19) 0.49236(15) 0.34371(14)
C9 C 0.68699(19) 0.35895(15) 0.40163(14)
H4 H 0.7357 0.3507 0.4712
C10 C 0.79625(18) 0.25787(15) 0.31932(14)
C11 C 0.8334(2) 0.29089(16) 0.19678(15)
H5 H 0.7947 0.3750 0.1670
C12 C 0.9268(2) 0.20220(17) 0.11677(16)
H6 H 0.9489 0.2274 0.0350
C13 C 0.9862(2) 0.07737(16) 0.15865(15)
H7 H 1.0507 0.0183 0.1057
C14 C 0.9497(2) 0.04004(16) 0.28006(15)
H8 H 0.9880 -0.0444 0.3090
C15 C 0.85576(18) 0.12933(15) 0.35797(14)
C16 C 0.3687(2) 0.73888(15) 0.19246(15)
C17 C 0.51070(19) 0.67950(15) 0.24364(14)
C18 C 0.61025(19) 0.74608(15) 0.25791(14)
C19 C 0.59178(19) 0.88800(15) 0.22096(14)
C20 C 0.7350(2) 0.90057(17) 0.12173(16)
H9 H 0.7374 0.8609 0.0533
H10 H 0.8317 0.8601 0.1516
H11 H 0.7252 0.9886 0.0985
C21 C 0.5827(2) 0.95313(16) 0.33140(16)
H12 H 0.5741 1.0409 0.3078
H13 H 0.6772 0.9128 0.3641
H14 H 0.4913 0.9463 0.3911
C22 C 0.4420(2) 0.96267(16) 0.17023(16)
H15 H 0.3493 0.9583 0.2296
H16 H 0.4430 0.9269 0.0997
H17 H 0.4401 1.0495 0.1496
C23 C 0.74110(19) 0.66986(15) 0.31292(14)
C24 C 0.9786(2) 0.64958(17) 0.38067(18)
H18 H 0.9374 0.6225 0.4619
H19 H 1.0469 0.6992 0.3807
H20 H 1.0379 0.5768 0.3378
N1 N 0.82175(16) 0.08058(13) 0.48524(13)
N2 N 0.2542(2) 0.77598(15) 0.15479(15)
N3 N 0.76399(16) 0.55053(13) 0.35719(12)
O1 O 0.53420(13) 0.33582(10) 0.44524(10)
O2 O 0.78339(16) 0.15328(12) 0.56311(11)
O3 O 0.83562(15) -0.03315(11) 0.50849(11)
O4 O 0.84848(14) 0.72518(11) 0.32293(11)
loop_
_geom_bond_atom_site_label_1
_geom_bond_atom_site_label_2
_geom_bond_site_symmetry_1
_geom_bond_site_symmetry_2
Br1 C4 1_555 1_555
C1 C2 1_555 1_555
C2 H1 1_555 1_555
C3 C2 1_555 1_555
H2 C3 1_555 1_555
C4 C3 1_555 1_555
C5 C4 1_555 1_555
H3 C5 1_555 1_555
C6 C1 1_555 1_555
C7 C6 1_555 1_555
C8 C7 1_555 1_555
C9 C8 1_555 1_555
H4 C9 1_555 1_555
C10 C9 1_555 1_555
C11 C10 1_555 1_555
H5 C11 1_555 1_555
C12 C11 1_555 1_555
H6 C12 1_555 1_555
C13 C12 1_555 1_555
H7 C13 1_555 1_555
C14 C13 1_555 1_555
H8 C14 1_555 1_555
C15 C10 1_555 1_555
C16 C17 1_555 1_555
C17 C7 1_555 1_555
C18 C17 1_555 1_555
C19 C18 1_555 1_555
C20 C19 1_555 1_555
H9 C20 1_555 1_555
H10 C20 1_555 1_555
H11 C20 1_555 1_555
C21 C19 1_555 1_555
H12 C21 1_555 1_555
H13 C21 1_555 1_555
H14 C21 1_555 1_555
C22 C19 1_555 1_555
H15 C22 1_555 1_555
H16 C22 1_555 1_555
H17 C22 1_555 1_555
C23 C18 1_555 1_555
C24 H18 1_555 1_555
H19 C24 1_555 1_555
H20 C24 1_555 1_555
N1 C15 1_555 1_555
N2 C16 1_555 1_555
N3 C8 1_555 1_555
O1 C1 1_555 1_555
O2 N1 1_555 1_555
O3 N1 1_555 1_555
O4 C23 1_555 1_555
C5 C6 1_555 1_555
C9 O1 1_555 1_555
C14 C15 1_555 1_555
C23 N3 1_555 1_555
C24 O4 1_555 1_555

#END
