
#######################################################################
#
#                 Cambridge Crystallographic Data Centre
#                                CCDC 
#
#######################################################################
#
# If this CIF has been generated from an entry in the Cambridge 
# Structural Database, then it will include bibliographic, chemical, 
# crystal, experimental, refinement or atomic coordinate data resulting 
# from the CCDC's data processing and validation procedures.
#
#######################################################################

data_UFILED
_chemical_formula_moiety         'C24 H17 N1 S1'
_chemical_name_systematic        9-(4-(phenylsulfanyl)phenyl)-9H-carbazole
_symmetry_cell_setting           monoclinic
_symmetry_space_group_name_H-M   'P 21/c'
_symmetry_Int_Tables_number      14
_space_group_name_Hall           '-P 2ybc'
loop_
_symmetry_equiv_pos_site_id
_symmetry_equiv_pos_as_xyz
1 x,y,z
2 -x,1/2+y,1/2-z
3 -x,-y,-z
4 x,1/2-y,1/2+z
_cell_length_a                   14.7755(6)
_cell_length_b                   16.6199(6)
_cell_length_c                   7.5149(3)
_cell_angle_alpha                90
_cell_angle_beta                 100.0350(10)
_cell_angle_gamma                90
_cell_volume                     1817.18
_exptl_crystal_colour            yellow
_exptl_crystal_description       block
_cell_formula_units_Z            4
loop_
_atom_site_label
_atom_site_type_symbol
_atom_site_fract_x
_atom_site_fract_y
_atom_site_fract_z
N1 N 0.70138(8) 0.91108(7) 1.02256(15)
S1 S 0.65337(3) 1.11912(2) 0.36524(5)
C1 C 0.83465(10) 1.07470(9) 0.35093(19)
H1 H 0.8277 1.0306 0.4279
C2 C 0.76202(10) 1.12778(8) 0.29818(18)
C3 C 0.77235(11) 1.19144(9) 0.18116(19)
H2 H 0.7228 1.2274 0.1433
C4 C 0.73702(10) 1.07618(8) 0.71166(19)
H3 H 0.7730 1.1236 0.7121
C5 C 0.67460(9) 1.05507(9) 0.55678(18)
C6 C 0.62324(10) 0.98497(9) 0.55571(18)
H4 H 0.5816 0.9700 0.4499
C7 C 0.63255(10) 0.93673(8) 0.70897(18)
H5 H 0.5973 0.8889 0.7079
C8 C 0.69369(9) 0.95871(8) 0.86416(18)
C9 C 0.85479(11) 1.20188(10) 0.1207(2)
H6 H 0.8614 1.2448 0.0406
C10 C 0.92784(12) 1.15008(11) 0.1762(2)
H7 H 0.9848 1.1580 0.1364
C11 C 0.91710(11) 1.08640(10) 0.2907(2)
H8 H 0.9668 1.0505 0.3279
C12 C 0.78329(10) 0.88483(8) 1.12911(19)
C13 C 0.87354(11) 0.89537(9) 1.1041(2)
H9 H 0.8877 0.9245 1.0037
C14 C 0.76146(11) 0.83951(8) 1.27492(19)
C15 C 0.62774(10) 0.88276(8) 1.09944(18)
C16 C 0.53379(10) 0.89454(8) 1.0446(2)
H10 H 0.5106 0.9265 0.9420
C17 C 0.74663(9) 1.02822(8) 0.86435(18)
H11 H 0.7893 1.0426 0.9693
C18 C 0.47521(11) 0.85789(9) 1.1454(2)
H12 H 0.4107 0.8649 1.1106
C19 C 0.50854(12) 0.81077(9) 1.2970(2)
H13 H 0.4666 0.7856 1.3620
C20 C 0.60175(12) 0.80056(9) 1.3530(2)
H14 H 0.6243 0.7691 1.4568
C21 C 0.66267(10) 0.83721(8) 1.25480(18)
C22 C 0.83237(12) 0.80662(9) 1.4022(2)
H15 H 0.8189 0.7768 1.5022
C23 C 0.92194(12) 0.81838(10) 1.3797(2)
H16 H 0.9706 0.7968 1.4658
C24 C 0.94230(12) 0.86157(10) 1.2321(2)
H17 H 1.0047 0.8680 1.2188
loop_
_geom_bond_atom_site_label_1
_geom_bond_atom_site_label_2
_geom_bond_site_symmetry_1
_geom_bond_site_symmetry_2
N1 C8 1_555 1_555
S1 C2 1_555 1_555
C1 H1 1_555 1_555
C2 C1 1_555 1_555
C3 C2 1_555 1_555
H2 C3 1_555 1_555
C4 H3 1_555 1_555
C5 S1 1_555 1_555
C6 C5 1_555 1_555
H4 C6 1_555 1_555
C7 C6 1_555 1_555
H5 C7 1_555 1_555
C8 C7 1_555 1_555
C9 C3 1_555 1_555
H6 C9 1_555 1_555
C10 C9 1_555 1_555
H7 C10 1_555 1_555
C11 C1 1_555 1_555
H8 C11 1_555 1_555
C12 N1 1_555 1_555
C13 C12 1_555 1_555
H9 C13 1_555 1_555
C14 C12 1_555 1_555
C15 N1 1_555 1_555
C16 C15 1_555 1_555
H10 C16 1_555 1_555
C17 C4 1_555 1_555
H11 C17 1_555 1_555
C18 C16 1_555 1_555
H12 C18 1_555 1_555
C19 C18 1_555 1_555
H13 C19 1_555 1_555
C20 C19 1_555 1_555
H14 C20 1_555 1_555
C21 C14 1_555 1_555
C22 C14 1_555 1_555
H15 C22 1_555 1_555
C23 C22 1_555 1_555
H16 C23 1_555 1_555
C24 C13 1_555 1_555
H17 C24 1_555 1_555
C4 C5 1_555 1_555
C8 C17 1_555 1_555
C10 C11 1_555 1_555
C15 C21 1_555 1_555
C20 C21 1_555 1_555
C23 C24 1_555 1_555

#END
