
#######################################################################
#
#                 Cambridge Crystallographic Data Centre
#                                CCDC 
#
#######################################################################
#
# If this CIF has been generated from an entry in the Cambridge 
# Structural Database, then it will include bibliographic, chemical, 
# crystal, experimental, refinement or atomic coordinate data resulting 
# from the CCDC's data processing and validation procedures.
#
#######################################################################

data_UFILAZ
_chemical_formula_moiety         'C24 H17 N1 O1'
_chemical_name_systematic        9-(4-phenoxyphenyl)-9H-carbazole
_symmetry_cell_setting           monoclinic
_symmetry_space_group_name_H-M   'P 21/n'
_symmetry_Int_Tables_number      14
_space_group_name_Hall           '-P 2yn'
loop_
_symmetry_equiv_pos_site_id
_symmetry_equiv_pos_as_xyz
1 x,y,z
2 1/2-x,1/2+y,1/2-z
3 -x,-y,-z
4 1/2+x,1/2-y,1/2+z
_cell_length_a                   16.0364(4)
_cell_length_b                   7.5753(2)
_cell_length_c                   16.7540(4)
_cell_angle_alpha                90
_cell_angle_beta                 117.2140(10)
_cell_angle_gamma                90
_cell_volume                     1809.99
_exptl_crystal_colour            yellow
_exptl_crystal_description       block
_cell_formula_units_Z            4
loop_
_atom_site_label
_atom_site_type_symbol
_atom_site_fract_x
_atom_site_fract_y
_atom_site_fract_z
C1 C 0.69913(17) 0.9354(3) -0.15751(14)
H1 H 0.6366 0.9300 -0.1692
O1 O 0.93045(9) 0.76843(17) 0.00132(10)
C2 C 0.88101(12) 0.4662(2) -0.00957(11)
H2 H 0.8692 0.4625 -0.0693
C3 C 0.86880(11) 0.3172(2) 0.03118(10)
H3 H 0.8498 0.2120 -0.0007
C4 C 0.63129(14) -0.0094(3) 0.04877(14)
H4 H 0.5732 0.0037 -0.0011
C5 C 0.91433(13) 0.4805(2) 0.16687(11)
H5 H 0.9249 0.4856 0.2262
C6 C 0.92815(13) 0.6287(2) 0.12661(13)
H6 H 0.9490 0.7332 0.1588
C7 C 1.03229(13) 0.1440(3) 0.29271(12)
H7 H 1.0589 0.2363 0.2756
C8 C 1.08447(17) 0.0478(3) 0.36904(14)
H8 H 1.1475 0.0748 0.4039
C9 C 0.76677(13) 0.8410(2) -0.08632(12)
H9 H 0.7500 0.7721 -0.0500
C10 C 0.91076(11) 0.6205(2) 0.03862(11)
N1 N 0.87204(9) 0.17168(16) 0.16177(8)
C11 C 0.78886(11) 0.0781(2) 0.13440(10)
C12 C 0.70349(12) 0.1029(2) 0.05995(12)
H10 H 0.6949 0.1922 0.0188
C13 C 0.64353(17) -0.1417(3) 0.11044(17)
H11 H 0.5935 -0.2152 0.1014
C14 C 0.93910(11) 0.0994(2) 0.24224(10)
C15 C 0.80236(13) -0.0549(2) 0.19749(11)
C16 C 0.7247(2) 1.0366(3) -0.21049(15)
H12 H 0.6795 1.0989 -0.2587
C17 C 0.85840(13) 0.85045(19) -0.07020(11)
C18 C 0.88484(10) 0.32455(18) 0.11934(10)
C19 C 1.0445(2) -0.0894(4) 0.39502(16)
H13 H 1.0810 -0.1514 0.4475
C20 C 0.95248(19) -0.1346(3) 0.34473(14)
H14 H 0.9266 -0.2269 0.3626
C21 C 0.89801(13) -0.0414(2) 0.26652(11)
C22 C 0.72778(17) -0.1656(3) 0.18405(16)
H15 H 0.7354 -0.2549 0.2249
C23 C 0.88443(17) 0.9530(2) -0.12273(13)
H16 H 0.9469 0.9589 -0.1111
C24 C 0.8175(3) 1.0460(3) -0.19227(17)
H17 H 0.8347 1.1166 -0.2277
loop_
_geom_bond_atom_site_label_1
_geom_bond_atom_site_label_2
_geom_bond_site_symmetry_1
_geom_bond_site_symmetry_2
C1 H1 1_555 1_555
O1 C10 1_555 1_555
C2 H2 1_555 1_555
C3 C2 1_555 1_555
H3 C3 1_555 1_555
C4 H4 1_555 1_555
C5 H5 1_555 1_555
C6 C5 1_555 1_555
H6 C6 1_555 1_555
C7 H7 1_555 1_555
C8 C7 1_555 1_555
H8 C8 1_555 1_555
C9 C1 1_555 1_555
H9 C9 1_555 1_555
C10 C2 1_555 1_555
N1 C11 1_555 1_555
C11 C12 1_555 1_555
C12 C4 1_555 1_555
H10 C12 1_555 1_555
C13 C4 1_555 1_555
H11 C13 1_555 1_555
C14 C7 1_555 1_555
C15 C11 1_555 1_555
C16 C1 1_555 1_555
H12 C16 1_555 1_555
C17 O1 1_555 1_555
C18 C3 1_555 1_555
C19 C8 1_555 1_555
H13 C19 1_555 1_555
C20 C19 1_555 1_555
H14 C20 1_555 1_555
C21 C14 1_555 1_555
C22 C13 1_555 1_555
H15 C22 1_555 1_555
C23 C17 1_555 1_555
H16 C23 1_555 1_555
C24 C16 1_555 1_555
H17 C24 1_555 1_555
C5 C18 1_555 1_555
C6 C10 1_555 1_555
C9 C17 1_555 1_555
N1 C14 1_555 1_555
N1 C18 1_555 1_555
C15 C21 1_555 1_555
C15 C22 1_555 1_555
C20 C21 1_555 1_555
C23 C24 1_555 1_555

#END
