
#######################################################################
#
#                 Cambridge Crystallographic Data Centre
#                                CCDC 
#
#######################################################################
#
# If this CIF has been generated from an entry in the Cambridge 
# Structural Database, then it will include bibliographic, chemical, 
# crystal, experimental, refinement or atomic coordinate data resulting 
# from the CCDC's data processing and validation procedures.
#
#######################################################################

data_UFIMAX01
_chemical_formula_moiety         'C10 H10 O1 S8'
_chemical_name_systematic        
'(R)-anti-6,10-Diethyl[1,2,3]trithiolo[4,5-h]benzopentathiepin 7-oxide'
_symmetry_cell_setting           orthorhombic
_symmetry_space_group_name_H-M   'P 21 21 21'
_symmetry_Int_Tables_number      19
_space_group_name_Hall           'P 2ac 2ab'
loop_
_symmetry_equiv_pos_site_id
_symmetry_equiv_pos_as_xyz
1 x,y,z
2 1/2-x,-y,1/2+z
3 1/2+x,1/2-y,-z
4 -x,1/2+y,1/2-z
_cell_length_a                   18.793(2)
_cell_length_b                   20.675(2)
_cell_length_c                   8.091(2)
_cell_angle_alpha                90
_cell_angle_beta                 90
_cell_angle_gamma                90
_cell_volume                     3143.72
_exptl_crystal_colour            yellow
_exptl_crystal_description       prismatic
_chemical_melting_point          128-129deg.C
_cell_formula_units_Z            8
_exptl_crystal_recrystallization_method hexane/dichloromethane
loop_
_atom_site_label
_atom_site_type_symbol
_atom_site_fract_x
_atom_site_fract_y
_atom_site_fract_z
S1 S 0.21802(8) 0.02970(7) 0.5507(2)
S2 S 0.29032(8) 0.09218(8) 0.4349(2)
S3 S 0.33191(6) 0.13463(7) 0.6429(2)
S4 S 0.17822(6) 0.20613(6) 1.1837(2)
S5 S 0.10273(6) 0.27277(6) 1.1225(2)
S6 S 0.00961(6) 0.23526(8) 1.2129(2)
S7 S -0.01293(6) 0.16144(7) 1.0510(2)
S8 S 0.06435(6) 0.09445(6) 1.0969(2)
O1 O 0.2526(3) -0.0266(2) 0.6305(7)
C1 C 0.2542(2) 0.1296(2) 0.7630(6)
C2 C 0.2475(2) 0.1683(2) 0.9045(6)
C3 C 0.1862(2) 0.1595(2) 1.0000(6)
C4 C 0.1339(2) 0.1132(2) 0.9571(6)
C5 C 0.1399(2) 0.0761(2) 0.8127(6)
C6 C 0.2024(2) 0.0853(2) 0.7176(6)
C7 C 0.3059(2) 0.2148(3) 0.9496(7)
C8 C 0.3622(3) 0.1840(4) 1.0578(8)
C9 C 0.0821(3) 0.0309(3) 0.7547(8)
C10 C 0.0277(3) 0.0658(3) 0.6473(10)
H1 H 0.2856 0.2506 1.0093
H2 H 0.3275 0.2309 0.8520
H3 H 0.3418 0.1686 1.1578
H4 H 0.3986 0.2146 1.0840
H5 H 0.3835 0.1485 1.0006
H6 H 0.0584 0.0132 0.8489
H7 H 0.1030 -0.0036 0.6935
H8 H 0.0068 0.1001 0.7078
H9 H 0.0516 0.0836 0.5524
H10 H -0.0077 0.0366 0.6112
S9 S 0.32017(7) 0.39774(7) 1.1155(2)
S10 S 0.26045(9) 0.42355(8) 0.9072(2)
S11 S 0.18263(9) 0.47542(7) 1.0248(2)
S12 S 0.06285(6) 0.41086(6) 1.6150(2)
S13 S -0.00924(6) 0.33995(7) 1.5593(2)
S14 S 0.01960(7) 0.26359(7) 1.7059(2)
S15 S 0.11353(6) 0.23314(6) 1.6025(2)
S16 S 0.18564(6) 0.30246(6) 1.6677(2)
O2 O 0.3602(2) 0.4524(2) 1.1844(6)
C11 C 0.1851(3) 0.4301(2) 1.2077(6)
C12 C 0.1278(2) 0.4369(2) 1.3221(6)
C13 C 0.1309(2) 0.3988(2) 1.4627(6)
C14 C 0.1866(2) 0.3545(2) 1.4927(6)
C15 C 0.2448(2) 0.3513(2) 1.3835(6)
C16 C 0.2426(2) 0.3911(2) 1.2431(6)
C17 C 0.0664(3) 0.4802(3) 1.2801(8)
C18 C 0.0090(3) 0.4447(3) 1.1844(10)
C19 C 0.3084(2) 0.3079(2) 1.4154(7)
C20 C 0.3610(3) 0.3371(3) 1.5369(8)
H11 H 0.0461 0.4970 1.3799
H12 H 0.0830 0.5156 1.2151
H13 H -0.0076 0.4086 1.2495
H14 H -0.0292 0.4719 1.1596
H15 H 0.0291 0.4276 1.0847
H16 H 0.2921 0.2677 1.4590
H17 H 0.3327 0.3002 1.3141
H18 H 0.3379 0.3447 1.6401
H19 H 0.3788 0.3767 1.4950
H20 H 0.3997 0.3079 1.5544
loop_
_geom_bond_atom_site_label_1
_geom_bond_atom_site_label_2
_geom_bond_site_symmetry_1
_geom_bond_site_symmetry_2
S1 S2 1_555 1_555
S2 S3 1_555 1_555
S3 C1 1_555 1_555
S4 S5 1_555 1_555
S5 S6 1_555 1_555
S6 S7 1_555 1_555
S7 S8 1_555 1_555
S8 C4 1_555 1_555
S9 S10 1_555 1_555
S10 S11 1_555 1_555
S11 C11 1_555 1_555
S12 S13 1_555 1_555
S13 S14 1_555 1_555
S14 S15 1_555 1_555
S15 S16 1_555 1_555
S16 C14 1_555 1_555
O1 S1 1_555 1_555
O2 S9 1_555 1_555
C1 C2 1_555 1_555
C2 C3 1_555 1_555
C3 S4 1_555 1_555
C4 C3 1_555 1_555
C5 C4 1_555 1_555
C6 S1 1_555 1_555
C7 C2 1_555 1_555
C8 C7 1_555 1_555
C9 C5 1_555 1_555
C10 C9 1_555 1_555
C11 C12 1_555 1_555
C12 C13 1_555 1_555
C13 S12 1_555 1_555
C14 C13 1_555 1_555
C15 C14 1_555 1_555
C16 S9 1_555 1_555
C17 C12 1_555 1_555
C18 C17 1_555 1_555
C19 C15 1_555 1_555
C20 C19 1_555 1_555
H1 C7 1_555 1_555
H2 C7 1_555 1_555
H3 C8 1_555 1_555
H4 C8 1_555 1_555
H5 C8 1_555 1_555
H6 C9 1_555 1_555
H7 C9 1_555 1_555
H8 C10 1_555 1_555
H9 C10 1_555 1_555
H10 C10 1_555 1_555
H11 C17 1_555 1_555
H12 C17 1_555 1_555
H13 C18 1_555 1_555
H14 C18 1_555 1_555
H15 C18 1_555 1_555
H16 C19 1_555 1_555
H17 C19 1_555 1_555
H18 C20 1_555 1_555
H19 C20 1_555 1_555
H20 C20 1_555 1_555
C1 C6 1_555 1_555
C5 C6 1_555 1_555
C11 C16 1_555 1_555
C15 C16 1_555 1_555

#END
