
#######################################################################
#
#                 Cambridge Crystallographic Data Centre
#                                CCDC 
#
#######################################################################
#
# If this CIF has been generated from an entry in the Cambridge 
# Structural Database, then it will include bibliographic, chemical, 
# crystal, experimental, refinement or atomic coordinate data resulting 
# from the CCDC's data processing and validation procedures.
#
#######################################################################

data_UFINIJ
_chemical_formula_moiety         'C33 H24 N2'
_chemical_name_systematic        
9-(2-methylphenyl)-14-phenyl-9,14-dihydrodibenzo[a,c]phenazine
_symmetry_cell_setting           triclinic
_symmetry_space_group_name_H-M   'P -1'
_symmetry_Int_Tables_number      2
_space_group_name_Hall           '-P 1'
loop_
_symmetry_equiv_pos_site_id
_symmetry_equiv_pos_as_xyz
1 x,y,z
2 -x,-y,-z
_cell_length_a                   10.1576(3)
_cell_length_b                   10.7406(3)
_cell_length_c                   11.4109(3)
_cell_angle_alpha                88.4931(8)
_cell_angle_beta                 72.2282(8)
_cell_angle_gamma                76.8445(8)
_cell_volume                     1153.14
_exptl_crystal_colour            colorless
_exptl_crystal_description       block
_cell_formula_units_Z            2
loop_
_atom_site_label
_atom_site_type_symbol
_atom_site_fract_x
_atom_site_fract_y
_atom_site_fract_z
N1 N 0.34051(12) 0.29322(11) 0.29792(10)
N2 N 0.35837(12) 0.26914(11) 0.05611(10)
C1 C 0.47762(14) 0.25879(13) 0.20731(12)
C2 C 0.59981(15) 0.26666(13) 0.24220(13)
C3 C 0.58599(17) 0.31222(15) 0.36122(14)
H1 H 0.4962 0.3272 0.4231
C4 C 0.7018(2) 0.33511(17) 0.38836(16)
H2 H 0.6916 0.3661 0.4686
C5 C 0.8341(2) 0.31272(18) 0.29793(18)
H3 H 0.9131 0.3313 0.3160
C6 C 0.85053(17) 0.26394(16) 0.18292(16)
H4 H 0.9417 0.2474 0.1228
C7 C 0.73486(15) 0.23792(14) 0.15237(13)
C8 C 0.74768(15) 0.18198(14) 0.03331(13)
C9 C 0.88220(16) 0.12750(16) -0.04996(15)
H5 H 0.9650 0.1336 -0.0303
C10 C 0.89704(17) 0.06581(17) -0.15868(15)
H6 H 0.9890 0.0314 -0.2139
C11 C 0.77700(17) 0.05389(16) -0.18773(14)
H7 H 0.7871 0.0090 -0.2618
C12 C 0.64357(16) 0.10689(15) -0.10962(13)
H8 H 0.5626 0.0971 -0.1303
C13 C 0.62431(14) 0.17564(13) 0.00084(12)
C14 C 0.48550(14) 0.23342(13) 0.08787(12)
C15 C 0.24404(14) 0.38547(13) 0.25330(12)
C16 C 0.14953(17) 0.48886(14) 0.32668(14)
H9 H 0.1504 0.5020 0.4084
C17 C 0.05380(18) 0.57300(15) 0.28068(15)
H10 H -0.0123 0.6428 0.3311
C18 C 0.05554(18) 0.55429(16) 0.16043(15)
H11 H -0.0110 0.6110 0.1292
C19 C 0.15271(16) 0.45423(15) 0.08525(14)
H12 H 0.1534 0.4434 0.0027
C20 C 0.25021(14) 0.36884(13) 0.13070(13)
C21 C 0.29105(14) 0.19525(13) 0.37217(11)
C22 C 0.14770(15) 0.21108(14) 0.43945(13)
H13 H 0.0814 0.2874 0.4337
C23 C 0.10155(16) 0.11586(16) 0.51484(14)
H14 H 0.0037 0.1278 0.5601
C24 C 0.19585(17) 0.00407(15) 0.52498(14)
H15 H 0.1637 -0.0605 0.5769
C25 C 0.33814(17) -0.01225(15) 0.45819(14)
H16 H 0.4038 -0.0889 0.4644
C26 C 0.38608(15) 0.08177(14) 0.38240(13)
H17 H 0.4840 0.0690 0.3372
C27 C 0.34829(15) 0.25002(14) -0.06513(13)
C28 C 0.27737(15) 0.15735(15) -0.08216(14)
H18 H 0.2396 0.1078 -0.0155
C29 C 0.26295(17) 0.13875(17) -0.19639(16)
H19 H 0.2184 0.0740 -0.2098
C30 C 0.31378(18) 0.21504(18) -0.29140(15)
H20 H 0.3018 0.2039 -0.3695
C31 C 0.38094(19) 0.30595(17) -0.27364(15)
H21 H 0.4148 0.3574 -0.3400
C32 C 0.40149(17) 0.32576(15) -0.15973(15)
C33 C 0.4784(2) 0.42262(18) -0.14342(17)
H22 H 0.4169 0.4843 -0.0764
H23 H 0.5048 0.4675 -0.2199
H24 H 0.5644 0.3801 -0.1232
loop_
_geom_bond_atom_site_label_1
_geom_bond_atom_site_label_2
_geom_bond_site_symmetry_1
_geom_bond_site_symmetry_2
N1 C1 1_555 1_555
N2 C14 1_555 1_555
C1 C2 1_555 1_555
C2 C3 1_555 1_555
C3 H1 1_555 1_555
C4 C3 1_555 1_555
H2 C4 1_555 1_555
C5 C4 1_555 1_555
H3 C5 1_555 1_555
C6 C5 1_555 1_555
H4 C6 1_555 1_555
C7 C2 1_555 1_555
C8 C7 1_555 1_555
C9 C8 1_555 1_555
H5 C9 1_555 1_555
C10 C9 1_555 1_555
H6 C10 1_555 1_555
C11 C10 1_555 1_555
H7 C11 1_555 1_555
C12 C11 1_555 1_555
H8 C12 1_555 1_555
C13 C8 1_555 1_555
C14 C1 1_555 1_555
C15 N1 1_555 1_555
C16 C15 1_555 1_555
H9 C16 1_555 1_555
C17 C16 1_555 1_555
H10 C17 1_555 1_555
C18 C17 1_555 1_555
H11 C18 1_555 1_555
C19 C18 1_555 1_555
H12 C19 1_555 1_555
C20 N2 1_555 1_555
C21 N1 1_555 1_555
C22 C21 1_555 1_555
H13 C22 1_555 1_555
C23 C22 1_555 1_555
H14 C23 1_555 1_555
C24 C23 1_555 1_555
H15 C24 1_555 1_555
C25 C24 1_555 1_555
H16 C25 1_555 1_555
C26 C21 1_555 1_555
H17 C26 1_555 1_555
C27 N2 1_555 1_555
C28 C27 1_555 1_555
H18 C28 1_555 1_555
C29 C28 1_555 1_555
H19 C29 1_555 1_555
C30 C29 1_555 1_555
H20 C30 1_555 1_555
C31 C30 1_555 1_555
H21 C31 1_555 1_555
C32 C27 1_555 1_555
C33 C32 1_555 1_555
H22 C33 1_555 1_555
H23 C33 1_555 1_555
H24 C33 1_555 1_555
C6 C7 1_555 1_555
C12 C13 1_555 1_555
C13 C14 1_555 1_555
C15 C20 1_555 1_555
C19 C20 1_555 1_555
C25 C26 1_555 1_555
C31 C32 1_555 1_555

#END
