
#######################################################################
#
#                 Cambridge Crystallographic Data Centre
#                                CCDC 
#
#######################################################################
#
# If this CIF has been generated from an entry in the Cambridge 
# Structural Database, then it will include bibliographic, chemical, 
# crystal, experimental, refinement or atomic coordinate data resulting 
# from the CCDC's data processing and validation procedures.
#
#######################################################################

data_UFINOO
_chemical_formula_moiety         'C5 H9 N2 1+,C2 H2 N9 1-'
_chemical_name_systematic        
'1,3-Dimethyl-1H-imidazol-3-ium 5-(1H-tetrazol-5-ylamino)tetrazol-1-ide'
_symmetry_cell_setting           monoclinic
_symmetry_space_group_name_H-M   'P 21/n'
_symmetry_Int_Tables_number      14
_space_group_name_Hall           '-P 2yn'
loop_
_symmetry_equiv_pos_site_id
_symmetry_equiv_pos_as_xyz
1 x,y,z
2 1/2-x,1/2+y,1/2-z
3 -x,-y,-z
4 1/2+x,1/2-y,1/2+z
_cell_length_a                   14.0653(4)
_cell_length_b                   6.9507(2)
_cell_length_c                   22.4699(7)
_cell_angle_alpha                90
_cell_angle_beta                 93.996(3)
_cell_angle_gamma                90
_cell_volume                     2191.4
_exptl_crystal_colour            colorless
_exptl_crystal_description       block
_cell_formula_units_Z            8
_exptl_crystal_recrystallization_method 'ethyl acetate/methanol'
loop_
_atom_site_label
_atom_site_type_symbol
_atom_site_fract_x
_atom_site_fract_y
_atom_site_fract_z
N1 N 0.62643(10) -0.1137(2) 0.17611(7)
H1 H 0.6427 -0.1557 0.1413
N2 N 0.78800(10) -0.1305(2) 0.21265(7)
N3 N 0.83295(10) -0.1287(2) 0.26787(7)
N4 N 0.76966(11) -0.1107(2) 0.30770(7)
N5 N 0.68045(10) -0.1030(2) 0.28011(7)
N6 N 0.47220(10) -0.0530(2) 0.13267(6)
N7 N 0.39089(10) 0.0170(2) 0.15410(7)
N8 N 0.40322(10) 0.0571(2) 0.21023(7)
N9 N 0.49532(10) 0.0121(2) 0.22727(7)
H2 H 0.5208(17) 0.030(3) 0.2662(11)
C1 C 0.69627(12) -0.1150(2) 0.22292(8)
C2 C 0.53587(12) -0.0536(2) 0.17933(8)
N10 N 0.85270(9) 0.7092(2) 0.10708(6)
H3 H 0.8365 0.7640 0.1402
N11 N 0.98696(10) 0.6295(2) 0.05261(6)
N12 N 1.07580(10) 0.5649(2) 0.07017(7)
N13 N 1.08649(10) 0.5557(2) 0.12824(7)
N14 N 1.00386(10) 0.6110(2) 0.15149(6)
N15 N 0.69387(10) 0.7315(2) 0.06601(6)
N16 N 0.64923(10) 0.6820(2) 0.01217(7)
N17 N 0.70876(10) 0.6089(2) -0.02262(6)
N18 N 0.79562(10) 0.60939(19) 0.00809(6)
H4 H 0.8494(14) 0.561(3) -0.0100(9)
C3 C 0.94631(12) 0.6523(2) 0.10349(7)
C4 C 0.78495(12) 0.6844(2) 0.06202(7)
N19 N 0.36417(10) 0.5460(2) 0.25935(7)
N20 N 0.42012(10) 0.50336(19) 0.17349(6)
C5 C 0.44303(12) 0.5115(2) 0.23151(8)
H5 H 0.5052 0.4955 0.2502
C6 C 0.32390(12) 0.5334(2) 0.16372(8)
H6 H 0.2886 0.5347 0.1261
C7 C 0.28871(12) 0.5604(3) 0.21715(8)
H7 H 0.2241 0.5848 0.2244
C8 C 0.48560(13) 0.4621(3) 0.12726(8)
H8 H 0.4593 0.3587 0.1014
H9 H 0.5474 0.4219 0.1460
H10 H 0.4940 0.5780 0.1034
C9 C 0.35783(14) 0.5664(3) 0.32383(8)
H11 H 0.3797 0.6949 0.3364
H12 H 0.3980 0.4690 0.3447
H13 H 0.2915 0.5488 0.3336
N21 N 0.83378(11) 0.1564(2) 0.05336(7)
N22 N 0.68733(10) 0.1665(2) 0.01847(6)
C10 C 0.74614(13) 0.2034(2) 0.06612(8)
H14 H 0.7284 0.2545 0.1029
C11 C 0.83063(14) 0.0868(3) -0.00389(9)
H15 H 0.8833 0.0425 -0.0243
C12 C 0.73919(13) 0.0929(2) -0.02575(8)
H16 H 0.7151 0.0537 -0.0644
C13 C 0.91921(14) 0.1758(3) 0.09401(10)
H17 H 0.9027 0.2414 0.1305
H18 H 0.9672 0.2512 0.0747
H19 H 0.9449 0.0479 0.1041
C14 C 0.58406(12) 0.1967(3) 0.01427(8)
H20 H 0.5572 0.1546 -0.0250
H21 H 0.5704 0.3336 0.0196
H22 H 0.5554 0.1221 0.0454
loop_
_geom_bond_atom_site_label_1
_geom_bond_atom_site_label_2
_geom_bond_site_symmetry_1
_geom_bond_site_symmetry_2
N1 H1 1_555 1_555
N2 N3 1_555 1_555
N3 N4 1_555 1_555
N4 N5 1_555 1_555
N5 C1 1_555 1_555
N6 N7 1_555 1_555
N7 N8 1_555 1_555
N8 N9 1_555 1_555
N9 H2 1_555 1_555
C1 N1 1_555 1_555
C2 N1 1_555 1_555
N10 H3 1_555 1_555
N11 N12 1_555 1_555
N12 N13 1_555 1_555
N13 N14 1_555 1_555
N14 C3 1_555 1_555
N15 N16 1_555 1_555
N16 N17 1_555 1_555
N17 N18 1_555 1_555
N18 H4 1_555 1_555
C3 N10 1_555 1_555
C4 N10 1_555 1_555
N19 C5 1_555 1_555
N20 C5 1_555 1_555
C5 H5 1_555 1_555
C6 N20 1_555 1_555
H6 C6 1_555 1_555
C7 N19 1_555 1_555
H7 C7 1_555 1_555
C8 N20 1_555 1_555
H8 C8 1_555 1_555
H9 C8 1_555 1_555
H10 C8 1_555 1_555
C9 N19 1_555 1_555
H11 C9 1_555 1_555
H12 C9 1_555 1_555
H13 C9 1_555 1_555
N21 C10 1_555 1_555
N22 C10 1_555 1_555
C10 H14 1_555 1_555
C11 N21 1_555 1_555
H15 C11 1_555 1_555
C12 N22 1_555 1_555
H16 C12 1_555 1_555
C13 N21 1_555 1_555
H17 C13 1_555 1_555
H18 C13 1_555 1_555
H19 C13 1_555 1_555
C14 N22 1_555 1_555
H20 C14 1_555 1_555
H21 C14 1_555 1_555
H22 C14 1_555 1_555
N2 C1 1_555 1_555
N6 C2 1_555 1_555
N9 C2 1_555 1_555
N11 C3 1_555 1_555
N15 C4 1_555 1_555
N18 C4 1_555 1_555
C6 C7 1_555 1_555
C11 C12 1_555 1_555

#END
