
#######################################################################
#
#                 Cambridge Crystallographic Data Centre
#                                CCDC 
#
#######################################################################
#
# If this CIF has been generated from an entry in the Cambridge 
# Structural Database, then it will include bibliographic, chemical, 
# crystal, experimental, refinement or atomic coordinate data resulting 
# from the CCDC's data processing and validation procedures.
#
#######################################################################

data_UFINUV
_chemical_formula_moiety         'C34 H26 N2'
_chemical_name_systematic        
9,14-bis(2-methylphenyl)-9,14-dihydrodibenzo[a,c]phenazine
_symmetry_cell_setting           monoclinic
_symmetry_space_group_name_H-M   'P 21'
_symmetry_Int_Tables_number      4
_space_group_name_Hall           'P 2yb'
loop_
_symmetry_equiv_pos_site_id
_symmetry_equiv_pos_as_xyz
1 x,y,z
2 -x,1/2+y,-z
_cell_length_a                   9.2002(3)
_cell_length_b                   8.8836(3)
_cell_length_c                   14.6838(5)
_cell_angle_alpha                90
_cell_angle_beta                 96.4204(15)
_cell_angle_gamma                90
_cell_volume                     1192.59
_exptl_crystal_colour            'orange yellow'
_exptl_crystal_description       block
_cell_formula_units_Z            2
loop_
_atom_site_label
_atom_site_type_symbol
_atom_site_fract_x
_atom_site_fract_y
_atom_site_fract_z
N1 N 0.1289(3) 0.9634(3) 0.32537(18)
N2 N 0.0147(3) 1.1395(3) 0.16936(18)
C1 C 0.2207(3) 1.0627(4) 0.2809(2)
C2 C 0.3683(4) 1.0752(4) 0.3129(2)
H1 H 0.4060 1.0199 0.3657
C3 C 0.4615(4) 1.1659(5) 0.2698(3)
H2 H 0.5618 1.1732 0.2931
C4 C 0.4081(4) 1.2460(5) 0.1925(3)
H3 H 0.4717 1.3072 0.1617
C5 C 0.2613(4) 1.2364(4) 0.1605(3)
H4 H 0.2249 1.2922 0.1077
C6 C 0.1653(4) 1.1470(4) 0.2039(2)
C7 C -0.0210(3) 0.9559(4) 0.2883(2)
C8 C -0.1219(4) 0.8718(4) 0.3377(2)
C9 C -0.0843(4) 0.8262(5) 0.4297(2)
H5 H 0.0089 0.8521 0.4602
C10 C -0.1798(4) 0.7453(5) 0.4757(3)
H6 H -0.1507 0.7119 0.5365
C11 C -0.3188(4) 0.7119(5) 0.4341(3)
H7 H -0.3842 0.6549 0.4661
C12 C -0.3617(4) 0.7611(5) 0.3469(3)
H8 H -0.4582 0.7403 0.3197
C13 C -0.2657(4) 0.8419(4) 0.2965(2)
C14 C -0.3088(4) 0.8940(4) 0.2040(2)
C15 C -0.4417(4) 0.8508(5) 0.1545(3)
H9 H -0.5067 0.7878 0.1830
C16 C -0.4803(4) 0.8973(5) 0.0655(3)
H10 H -0.5712 0.8678 0.0335
C17 C -0.3849(4) 0.9877(5) 0.0233(3)
H11 H -0.4105 1.0191 -0.0383
C18 C -0.2543(4) 1.0324(4) 0.0693(2)
H12 H -0.1901 1.0934 0.0388
C19 C -0.2132(4) 0.9896(4) 0.1614(2)
C20 C -0.0720(3) 1.0295(4) 0.2093(2)
C21 C 0.1965(4) 0.8196(5) 0.3509(3)
C22 C 0.2605(5) 0.8049(8) 0.4453(4)
H13 H 0.2618 0.8894 0.4851
C23 C 0.3182(6) 0.6732(9) 0.4774(4)
H14 H 0.3571 0.6597 0.5396
C24 C 0.3165(6) 0.5599(8) 0.4138(5)
H15 H 0.3559 0.4665 0.4363
C25 C 0.2681(6) 0.5624(7) 0.3264(5)
H16 H 0.2756 0.4774 0.2880
C26 C 0.2016(5) 0.7047(5) 0.2911(4)
C27 C 0.1516(6) 0.7183(7) 0.1982(5)
H17 H 0.1929 0.8095 0.1736
H18 H 0.0446 0.7251 0.1906
H19 H 0.1822 0.6301 0.1651
C28 C -0.0552(4) 1.2824(4) 0.1443(2)
C29 C -0.0549(4) 1.3342(5) 0.0543(2)
H20 H -0.0060 1.2776 0.0121
C30 C -0.1246(4) 1.4666(5) 0.0260(3)
H21 H -0.1229 1.5015 -0.0350
C31 C -0.1964(5) 1.5473(5) 0.0871(3)
H22 H -0.2486 1.6359 0.0674
C32 C -0.1935(5) 1.5005(5) 0.1774(3)
H23 H -0.2420 1.5588 0.2190
C33 C -0.1202(4) 1.3685(4) 0.2082(2)
C34 C -0.1100(5) 1.3293(5) 0.3082(3)
H24 H -0.0080 1.3072 0.3310
H25 H -0.1707 1.2408 0.3165
H26 H -0.1446 1.4145 0.3424
loop_
_geom_bond_atom_site_label_1
_geom_bond_atom_site_label_2
_geom_bond_site_symmetry_1
_geom_bond_site_symmetry_2
N1 C1 1_555 1_555
N2 C6 1_555 1_555
C1 C2 1_555 1_555
C2 H1 1_555 1_555
C3 C2 1_555 1_555
H2 C3 1_555 1_555
C4 C3 1_555 1_555
H3 C4 1_555 1_555
C5 C4 1_555 1_555
H4 C5 1_555 1_555
C6 C1 1_555 1_555
C7 N1 1_555 1_555
C8 C7 1_555 1_555
C9 C8 1_555 1_555
H5 C9 1_555 1_555
C10 C9 1_555 1_555
H6 C10 1_555 1_555
C11 C10 1_555 1_555
H7 C11 1_555 1_555
C12 C11 1_555 1_555
H8 C12 1_555 1_555
C13 C8 1_555 1_555
C14 C13 1_555 1_555
C15 C14 1_555 1_555
H9 C15 1_555 1_555
C16 C15 1_555 1_555
H10 C16 1_555 1_555
C17 C16 1_555 1_555
H11 C17 1_555 1_555
C18 C17 1_555 1_555
H12 C18 1_555 1_555
C19 C14 1_555 1_555
C20 N2 1_555 1_555
C21 N1 1_555 1_555
C22 C21 1_555 1_555
H13 C22 1_555 1_555
C23 C22 1_555 1_555
H14 C23 1_555 1_555
C24 C23 1_555 1_555
H15 C24 1_555 1_555
C25 C24 1_555 1_555
H16 C25 1_555 1_555
C26 C21 1_555 1_555
C27 C26 1_555 1_555
H17 C27 1_555 1_555
H18 C27 1_555 1_555
H19 C27 1_555 1_555
C28 N2 1_555 1_555
C29 C28 1_555 1_555
H20 C29 1_555 1_555
C30 C29 1_555 1_555
H21 C30 1_555 1_555
C31 C30 1_555 1_555
H22 C31 1_555 1_555
C32 C31 1_555 1_555
H23 C32 1_555 1_555
C33 C28 1_555 1_555
C34 C33 1_555 1_555
H24 C34 1_555 1_555
H25 C34 1_555 1_555
H26 C34 1_555 1_555
C5 C6 1_555 1_555
C7 C20 1_555 1_555
C12 C13 1_555 1_555
C18 C19 1_555 1_555
C19 C20 1_555 1_555
C25 C26 1_555 1_555
C32 C33 1_555 1_555

#END
