
#######################################################################
#
#                 Cambridge Crystallographic Data Centre
#                                CCDC 
#
#######################################################################
#
# If this CIF has been generated from an entry in the Cambridge 
# Structural Database, then it will include bibliographic, chemical, 
# crystal, experimental, refinement or atomic coordinate data resulting 
# from the CCDC's data processing and validation procedures.
#
#######################################################################

data_UFIWAK
_chemical_formula_moiety         'C40 H49 Na1 O8 Si2'
_chemical_name_systematic        
([5H,5'H-[5,5'-bidibenzo[b,d]silole]]-5-yl)-tetrakis(1,4-dioxane)-sodium
_symmetry_cell_setting           monoclinic
_symmetry_space_group_name_H-M   'C c'
_symmetry_Int_Tables_number      9
_space_group_name_Hall           'C -2yc'
loop_
_symmetry_equiv_pos_site_id
_symmetry_equiv_pos_as_xyz
1 x,y,z
2 x,-y,1/2+z
3 1/2+x,1/2+y,z
4 1/2+x,1/2-y,1/2+z
_cell_length_a                   25.195(5)
_cell_length_b                   9.4880(19)
_cell_length_c                   19.143(4)
_cell_angle_alpha                90
_cell_angle_beta                 123.74(3)
_cell_angle_gamma                90
_cell_volume                     3805.36
_exptl_crystal_colour            yellow
_exptl_crystal_description       block
_cell_formula_units_Z            4
loop_
_atom_site_label
_atom_site_type_symbol
_atom_site_fract_x
_atom_site_fract_y
_atom_site_fract_z
Si1 Si 0.35792(6) 0.40637(12) 0.22878(8)
H1 H 0.349(4) 0.510(9) 0.212(5)
Si2 Si 0.29058(7) 0.21556(13) 0.15665(8)
Na1 Na 0.32100(10) -0.1019(2) 0.19228(12)
C1 C 0.4625(3) 0.4041(4) 0.3895(3)
C2 C 0.4401(2) 0.3957(4) 0.2484(3)
C3 C 0.4872(3) 0.3917(4) 0.3349(3)
C4 C 0.3954(2) 0.4149(5) 0.3459(3)
C5 C 0.4579(3) 0.3832(5) 0.1913(4)
H2 H 0.426216 0.383296 0.132624
C6 C 0.3675(3) 0.4283(5) 0.3914(4)
H3 H 0.322403 0.434659 0.362481
C7 C 0.5000(3) 0.4059(6) 0.4776(3)
H4 H 0.545107 0.397337 0.507691
C8 C 0.1733(2) 0.3487(6) 0.0682(3)
C9 C 0.1970(2) 0.3515(5) 0.0127(3)
C10 C 0.4049(4) 0.4324(6) 0.4782(4)
H5 H 0.385794 0.443561 0.508883
C11 C 0.1905(4) 0.4112(7) -0.1147(4)
H6 H 0.168075 0.453528 -0.168757
C12 C 0.1644(3) 0.4074(7) -0.0678(4)
H7 H 0.122765 0.444324 -0.091325
C13 C 0.2834(3) 0.2931(7) -0.0008(3)
H8 H 0.324081 0.251711 0.021450
C14 C 0.4703(3) 0.4202(7) 0.5198(4)
H9 H 0.495675 0.421684 0.579508
C15 C 0.5509(3) 0.3779(6) 0.3639(4)
H10 H 0.582390 0.375603 0.422638
C16 C 0.5216(3) 0.3706(6) 0.2201(4)
H11 H 0.533435 0.364146 0.180951
C17 C 0.5692(3) 0.3672(7) 0.3068(5)
H12 H 0.612947 0.357811 0.326363
C18 C 0.1997(3) 0.2874(6) 0.2063(4)
H13 H 0.228579 0.249618 0.260800
C19 C 0.2512(4) 0.3508(8) -0.0805(3)
H14 H 0.269897 0.349776 -0.111995
C20 C 0.1147(3) 0.3966(9) 0.0491(5)
H15 H 0.085173 0.435804 -0.004774
C21 C 0.1422(4) 0.3365(9) 0.1860(5)
H16 H 0.132139 0.334945 0.227020
C22 C 0.0984(4) 0.3883(10) 0.1074(6)
H17 H 0.057529 0.418040 0.092941
C23 C 0.2173(3) 0.2911(5) 0.1487(3)
C24 C 0.2580(2) 0.2936(5) 0.0477(3)
O1 O 0.2419(3) -0.1889(5) 0.2114(4)
C25 C 0.2153(3) -0.0934(6) 0.2408(4)
H18 H 0.242667 -0.008630 0.263901
H19 H 0.214147 -0.138196 0.286648
C26 C 0.1510(3) -0.0517(8) 0.1740(5)
H20 H 0.134999 0.013972 0.198416
H21 H 0.154145 0.002320 0.132121
O2 O 0.1056(3) -0.1550(8) 0.1315(5)
C27 C 0.1327(4) -0.2401(12) 0.1067(8)
H22 H 0.134910 -0.189731 0.063088
H23 H 0.103332 -0.320779 0.078486
C28 C 0.1961(3) -0.2985(6) 0.1665(6)
H24 H 0.194272 -0.360258 0.206805
H25 H 0.209498 -0.356601 0.135950
O3 O 0.3883(4) -0.0971(5) 0.3388(3)
C29 C 0.4137(9) 0.0342(9) 0.3779(5)
H26 H 0.456073 0.046945 0.386795
H27 H 0.385451 0.110425 0.340261
C30 C 0.4200(8) 0.0452(12) 0.4524(7)
H28 H 0.376731 0.055111 0.441063
H29 H 0.443369 0.133492 0.479644
O4 O 0.4506(5) -0.0636(9) 0.5095(4)
C31 C 0.4292(7) -0.1879(12) 0.4751(7)
H30 H 0.386369 -0.201857 0.464379
H31 H 0.457771 -0.261073 0.515461
C32 C 0.4250(8) -0.2073(10) 0.3984(6)
H32 H 0.404747 -0.299468 0.373764
H33 H 0.468458 -0.208597 0.410020
O5 O 0.4155(3) -0.1237(5) 0.1972(5)
C33 C 0.4423(4) -0.0089(12) 0.1816(10)
H34 H 0.431036 0.077723 0.199551
H35 H 0.421795 -0.002031 0.120191
C34 C 0.5084(4) -0.0100(11) 0.2203(7)
H36 H 0.515502 0.016364 0.175987
H37 H 0.525284 0.068904 0.260931
O6 O 0.5474(3) -0.1197(7) 0.2611(6)
C35 C 0.5204(5) -0.2206(15) 0.2746(11)
H38 H 0.532370 -0.209144 0.333087
H39 H 0.540815 -0.308763 0.273338
C36 C 0.4543(4) -0.2447(7) 0.2251(11)
H40 H 0.443005 -0.303036 0.257932
H41 H 0.444048 -0.300345 0.175348
O7 O 0.2548(4) -0.1800(7) 0.0541(3)
C37 C 0.2063(5) -0.0941(13) -0.0115(6)
H42 H 0.195209 -0.017449 0.013365
H43 H 0.167507 -0.151670 -0.047525
C38 C 0.2263(12) -0.0337(16) -0.0622(13)
H44 H 0.195947 0.040286 -0.099366
H45 H 0.269149 0.009332 -0.025975
O8 O 0.2280(7) -0.1390(13) -0.1084(7)
C39 C 0.2607(5) -0.2402(10) -0.0619(5)
H46 H 0.300892 -0.235110 -0.059614
H47 H 0.238254 -0.325079 -0.095659
C40 C 0.2805(6) -0.2775(10) 0.0207(5)
H48 H 0.327750 -0.276475 0.057425
H49 H 0.265936 -0.374378 0.020628
O9? O 0.2820(10) -0.180(2) 0.0590(9)
C41? C 0.2410(9) -0.2881(15) 0.0035(9)
H50? H 0.219252 -0.333916 0.027540
H51? H 0.266840 -0.360485 -0.001770
C42? C 0.1944(12) -0.234(2) -0.0775(12)
H52? H 0.195592 -0.295636 -0.118358
H53? H 0.152416 -0.250193 -0.085742
O10? O 0.1935(10) -0.103(2) -0.1017(16)
C43? C 0.2479(12) -0.042(3) -0.0629(16)
H54? H 0.241256 0.055640 -0.050343
H55? H 0.260873 -0.033404 -0.102976
C44? C 0.3008(7) -0.098(3) 0.0128(15)
H56? H 0.328604 -0.019858 0.048796
H57? H 0.326039 -0.158326 -0.000682
loop_
_geom_bond_atom_site_label_1
_geom_bond_atom_site_label_2
_geom_bond_site_symmetry_1
_geom_bond_site_symmetry_2
Si1 H1 1_555 1_555
Si2 Si1 1_555 1_555
Na1 Si2 1_555 1_555
C1 C3 1_555 1_555
C2 Si1 1_555 1_555
C3 C2 1_555 1_555
C4 Si1 1_555 1_555
C5 C2 1_555 1_555
H2 C5 1_555 1_555
C6 C4 1_555 1_555
H3 C6 1_555 1_555
C7 C1 1_555 1_555
H4 C7 1_555 1_555
C8 C9 1_555 1_555
C9 C12 1_555 1_555
C10 C6 1_555 1_555
H5 C10 1_555 1_555
C11 H6 1_555 1_555
C12 C11 1_555 1_555
H7 C12 1_555 1_555
C13 H8 1_555 1_555
C14 C7 1_555 1_555
H9 C14 1_555 1_555
C15 C3 1_555 1_555
H10 C15 1_555 1_555
C16 C5 1_555 1_555
H11 C16 1_555 1_555
C17 C15 1_555 1_555
H12 C17 1_555 1_555
C18 H13 1_555 1_555
C19 C11 1_555 1_555
H14 C19 1_555 1_555
C20 C8 1_555 1_555
H15 C20 1_555 1_555
C21 C18 1_555 1_555
H16 C21 1_555 1_555
C22 C20 1_555 1_555
H17 C22 1_555 1_555
C23 Si2 1_555 1_555
C24 Si2 1_555 1_555
O1 Na1 1_555 1_555
C25 O1 1_555 1_555
H18 C25 1_555 1_555
H19 C25 1_555 1_555
C26 C25 1_555 1_555
H20 C26 1_555 1_555
H21 C26 1_555 1_555
O2 C26 1_555 1_555
C27 O2 1_555 1_555
H22 C27 1_555 1_555
H23 C27 1_555 1_555
C28 O1 1_555 1_555
H24 C28 1_555 1_555
H25 C28 1_555 1_555
O3 Na1 1_555 1_555
C29 O3 1_555 1_555
H26 C29 1_555 1_555
H27 C29 1_555 1_555
C30 C29 1_555 1_555
H28 C30 1_555 1_555
H29 C30 1_555 1_555
O4 C30 1_555 1_555
C31 O4 1_555 1_555
H30 C31 1_555 1_555
H31 C31 1_555 1_555
C32 O3 1_555 1_555
H32 C32 1_555 1_555
H33 C32 1_555 1_555
O5 Na1 1_555 1_555
C33 O5 1_555 1_555
H34 C33 1_555 1_555
H35 C33 1_555 1_555
C34 C33 1_555 1_555
H36 C34 1_555 1_555
H37 C34 1_555 1_555
O6 C34 1_555 1_555
C35 O6 1_555 1_555
H38 C35 1_555 1_555
H39 C35 1_555 1_555
C36 O5 1_555 1_555
H40 C36 1_555 1_555
H41 C36 1_555 1_555
O7 Na1 1_555 1_555
C37 O7 1_555 1_555
H42 C37 1_555 1_555
H43 C37 1_555 1_555
C38 C37 1_555 1_555
H44 C38 1_555 1_555
H45 C38 1_555 1_555
O8 C38 1_555 1_555
C39 O8 1_555 1_555
H46 C39 1_555 1_555
H47 C39 1_555 1_555
C40 O7 1_555 1_555
H48 C40 1_555 1_555
H49 C40 1_555 1_555
C1 C4 1_555 1_555
C8 C23 1_555 1_555
C9 C24 1_555 1_555
C10 C14 1_555 1_555
C13 C19 1_555 1_555
C13 C24 1_555 1_555
C16 C17 1_555 1_555
C18 C23 1_555 1_555
C21 C22 1_555 1_555
C27 C28 1_555 1_555
C31 C32 1_555 1_555
C35 C36 1_555 1_555
C39 C40 1_555 1_555

#END
