
#######################################################################
#
#                 Cambridge Crystallographic Data Centre
#                                CCDC 
#
#######################################################################
#
# If this CIF has been generated from an entry in the Cambridge 
# Structural Database, then it will include bibliographic, chemical, 
# crystal, experimental, refinement or atomic coordinate data resulting 
# from the CCDC's data processing and validation procedures.
#
#######################################################################

data_UFIWEO
_chemical_formula_moiety         'C15 H9 Cl1 F2 O1'
_chemical_name_systematic        
3-(3-chloro-2,6-difluorophenyl)-2,3-dihydro-1H-inden-1-one
_symmetry_cell_setting           monoclinic
_symmetry_space_group_name_H-M   'P 21/c'
_symmetry_Int_Tables_number      14
_space_group_name_Hall           '-P 2ybc'
loop_
_symmetry_equiv_pos_site_id
_symmetry_equiv_pos_as_xyz
1 x,y,z
2 -x,1/2+y,1/2-z
3 -x,-y,-z
4 x,1/2-y,1/2+z
_cell_length_a                   10.7627(6)
_cell_length_b                   12.6174(7)
_cell_length_c                   9.1065(4)
_cell_angle_alpha                90
_cell_angle_beta                 101.936(2)
_cell_angle_gamma                90
_cell_volume                     1209.9
_exptl_crystal_colour            colorless
_exptl_crystal_description       block
_cell_formula_units_Z            4
loop_
_atom_site_label
_atom_site_type_symbol
_atom_site_fract_x
_atom_site_fract_y
_atom_site_fract_z
C1 C 0.14201(10) 0.66831(9) 0.50739(12)
C2 C 0.13541(9) 0.57226(9) 0.41311(11)
C3 C 0.09730(10) 0.56288(10) 0.25697(12)
H1 H 0.071026 0.623137 0.195863
C4 C 0.09917(11) 0.46264(11) 0.19441(13)
H2 H 0.074187 0.453966 0.088786
C5 C 0.13758(12) 0.37410(11) 0.28568(14)
H3 H 0.137118 0.306040 0.240970
C6 C 0.17641(11) 0.38423(9) 0.44078(13)
H4 H 0.203230 0.324142 0.502020
C7 C 0.17489(9) 0.48457(8) 0.50362(11)
C8 C 0.20995(10) 0.51441(9) 0.66911(11)
H5 H 0.144153 0.484403 0.720417
C9 C 0.19845(11) 0.63678(9) 0.66882(12)
H6 H 0.142395 0.659809 0.736349
H7 H 0.282972 0.669738 0.702924
C10 C 0.33807(9) 0.47169(8) 0.74619(11)
C11 C 0.45002(10) 0.50007(9) 0.70254(11)
C12 C 0.56871(10) 0.46222(10) 0.76951(13)
H8 H 0.642193 0.484195 0.735164
C13 C 0.57834(11) 0.39130(10) 0.88821(13)
H9 H 0.658971 0.364304 0.936066
C14 C 0.46978(11) 0.36005(8) 0.93658(12)
C15 C 0.35242(10) 0.40076(8) 0.86518(11)
Cl1 Cl 0.47826(4) 0.27317(2) 1.08411(4)
F1 F 0.44103(7) 0.56977(6) 0.58841(8)
F2 F 0.24782(7) 0.37048(6) 0.91426(8)
O1 O 0.10820(11) 0.75741(8) 0.46542(11)
loop_
_geom_bond_atom_site_label_1
_geom_bond_atom_site_label_2
_geom_bond_site_symmetry_1
_geom_bond_site_symmetry_2
C1 C2 1_555 1_555
C2 C3 1_555 1_555
C3 H1 1_555 1_555
C4 C3 1_555 1_555
H2 C4 1_555 1_555
C5 C4 1_555 1_555
H3 C5 1_555 1_555
C6 C5 1_555 1_555
H4 C6 1_555 1_555
C7 C2 1_555 1_555
C8 C7 1_555 1_555
H5 C8 1_555 1_555
C9 C1 1_555 1_555
H6 C9 1_555 1_555
H7 C9 1_555 1_555
C10 C8 1_555 1_555
C11 C10 1_555 1_555
C12 C11 1_555 1_555
H8 C12 1_555 1_555
C13 C12 1_555 1_555
H9 C13 1_555 1_555
C14 C13 1_555 1_555
C15 C10 1_555 1_555
Cl1 C14 1_555 1_555
F1 C11 1_555 1_555
F2 C15 1_555 1_555
O1 C1 1_555 1_555
C6 C7 1_555 1_555
C8 C9 1_555 1_555
C14 C15 1_555 1_555

#END
