
#######################################################################
#
#                 Cambridge Crystallographic Data Centre
#                                CCDC 
#
#######################################################################
#
# If this CIF has been generated from an entry in the Cambridge 
# Structural Database, then it will include bibliographic, chemical, 
# crystal, experimental, refinement or atomic coordinate data resulting 
# from the CCDC's data processing and validation procedures.
#
#######################################################################

data_UFIWEN
_chemical_formula_moiety         'C16 H9 Cl2 N1 O2'
_chemical_name_systematic        
(4-Chlorophenyl)(5-(4-chlorophenyl)-1,3-oxazol-2-yl)methanone
_symmetry_cell_setting           monoclinic
_symmetry_space_group_name_H-M   'P 21/c'
_symmetry_Int_Tables_number      14
_space_group_name_Hall           '-P 2ybc'
loop_
_symmetry_equiv_pos_site_id
_symmetry_equiv_pos_as_xyz
1 x,y,z
2 -x,1/2+y,1/2-z
3 -x,-y,-z
4 x,1/2-y,1/2+z
_cell_length_a                   8.893(3)
_cell_length_b                   27.739(9)
_cell_length_c                   11.812(4)
_cell_angle_alpha                90
_cell_angle_beta                 107.275(4)
_cell_angle_gamma                90
_cell_volume                     2782.38
_exptl_crystal_colour            yellow
_exptl_crystal_description       block
_cell_formula_units_Z            8
loop_
_atom_site_label
_atom_site_type_symbol
_atom_site_fract_x
_atom_site_fract_y
_atom_site_fract_z
Cl1 Cl 0.18947(17) 0.22034(5) 0.96472(15)
O1 O 0.7057(3) -0.01848(10) 0.9080(2)
Cl2 Cl 1.08406(18) -0.21339(5) 0.80007(13)
C1 C 0.9094(5) -0.09396(16) 0.8972(4)
H1 H 0.9394 -0.0717 0.9586
C2 C 1.0062(6) -0.13254(16) 0.8954(4)
H2 H 1.1014 -0.1362 0.9546
C3 C 0.5404(6) -0.02645(19) 0.7305(4)
H3 H 0.4899 -0.0384 0.6552
N1 N 0.4962(5) 0.01464(16) 0.7790(3)
C4 C 0.7243(6) -0.12221(17) 0.7187(4)
H4 H 0.6294 -0.1188 0.6590
C5 C 0.8196(6) -0.16101(17) 0.7166(4)
H5 H 0.7896 -0.1838 0.6564
O2 O 0.7286(4) 0.04709(13) 1.0696(3)
C6 C 0.3107(5) 0.17122(16) 0.9679(4)
C7 C 0.4555(6) 0.16968(18) 1.0516(5)
H6 H 0.4886 0.1947 1.1056
C8 C 0.9601(6) -0.16551(16) 0.8049(4)
C9 C 0.5510(6) 0.13035(18) 1.0541(4)
H7 H 0.6480 0.1286 1.1121
C10 C 0.5056(5) 0.09344(15) 0.9722(4)
C11 C 0.6170(5) 0.05270(16) 0.9816(4)
C12 C 0.5969(5) 0.01764(16) 0.8842(4)
C13 C 0.6673(5) -0.04660(15) 0.8082(4)
C14 C 0.7675(5) -0.08792(15) 0.8086(3)
C15 C 0.3584(5) 0.09594(18) 0.8892(4)
H8 H 0.3258 0.0714 0.8335
C16 C 0.2594(6) 0.13449(19) 0.8881(4)
H9 H 0.1593 0.1355 0.8339
Cl3 Cl 0.57409(19) 0.28162(6) 0.90689(16)
Cl4 Cl 1.0084(2) -0.17545(5) 0.42575(13)
C17 C 0.7441(6) 0.20925(18) 0.8573(4)
H10 H 0.8276 0.2217 0.9177
O3 O 0.7859(4) 0.03617(11) 0.5984(2)
C18 C 0.8514(6) -0.09396(17) 0.4394(4)
H11 H 0.7793 -0.1039 0.3688
O4 O 0.5645(5) 0.10212(15) 0.5322(3)
N2 N 0.8899(5) 0.06853(14) 0.7764(3)
C19 C 0.9704(6) 0.02682(16) 0.7670(4)
H12 H 1.0549 0.0142 0.8263
C20 C 1.0698(6) -0.06373(17) 0.6475(4)
H13 H 1.1441 -0.0535 0.7168
C21 C 0.5981(5) 0.23147(17) 0.8279(4)
C22 C 0.7651(5) 0.16874(17) 0.7970(4)
H14 H 0.8618 0.1530 0.8189
C23 C 0.9074(5) 0.00702(15) 0.6580(4)
C24 C 0.9356(5) -0.03644(15) 0.5986(4)
C25 C 0.4992(5) 0.17499(17) 0.6726(4)
H15 H 0.4173 0.1643 0.6085
C26 C 0.4765(6) 0.21464(18) 0.7362(5)
H16 H 0.3789 0.2298 0.7168
C27 C 0.6417(5) 0.15091(16) 0.7026(4)
C28 C 0.6565(5) 0.10851(17) 0.6297(4)
C29 C 0.7832(5) 0.07247(16) 0.6751(4)
C30 C 0.8276(6) -0.05177(16) 0.4941(4)
H17 H 0.7380 -0.0334 0.4603
C31 C 0.9840(6) -0.12108(17) 0.4916(4)
C32 C 1.0939(6) -0.10641(18) 0.5934(4)
H18 H 1.1839 -0.1248 0.6262
loop_
_geom_bond_atom_site_label_1
_geom_bond_atom_site_label_2
_geom_bond_site_symmetry_1
_geom_bond_site_symmetry_2
Cl1 C6 1_555 1_555
O1 C12 1_555 1_555
Cl2 C8 1_555 1_555
C1 H1 1_555 1_555
C2 C1 1_555 1_555
H2 C2 1_555 1_555
C3 H3 1_555 1_555
N1 C3 1_555 1_555
C4 H4 1_555 1_555
C5 C4 1_555 1_555
H5 C5 1_555 1_555
O2 C11 1_555 1_555
C6 C7 1_555 1_555
C7 H6 1_555 1_555
C8 C2 1_555 1_555
C9 C7 1_555 1_555
H7 C9 1_555 1_555
C10 C9 1_555 1_555
C11 C10 1_555 1_555
C12 N1 1_555 1_555
C13 O1 1_555 1_555
C14 C1 1_555 1_555
C15 C10 1_555 1_555
H8 C15 1_555 1_555
C16 C6 1_555 1_555
H9 C16 1_555 1_555
Cl3 C21 1_555 1_555
Cl4 C31 1_555 1_555
C17 H10 1_555 1_555
O3 C23 1_555 1_555
C18 H11 1_555 1_555
O4 C28 1_555 1_555
N2 C19 1_555 1_555
C19 H12 1_555 1_555
C20 H13 1_555 1_555
C21 C17 1_555 1_555
C22 C17 1_555 1_555
H14 C22 1_555 1_555
C23 C19 1_555 1_555
C24 C20 1_555 1_555
C25 H15 1_555 1_555
C26 C21 1_555 1_555
H16 C26 1_555 1_555
C27 C22 1_555 1_555
C28 C27 1_555 1_555
C29 O3 1_555 1_555
C30 C18 1_555 1_555
H17 C30 1_555 1_555
C31 C18 1_555 1_555
C32 C20 1_555 1_555
H18 C32 1_555 1_555
C3 C13 1_555 1_555
C4 C14 1_555 1_555
C5 C8 1_555 1_555
C11 C12 1_555 1_555
C13 C14 1_555 1_555
C15 C16 1_555 1_555
N2 C29 1_555 1_555
C23 C24 1_555 1_555
C24 C30 1_555 1_555
C25 C26 1_555 1_555
C25 C27 1_555 1_555
C28 C29 1_555 1_555
C31 C32 1_555 1_555

#END
