
#######################################################################
#
#                 Cambridge Crystallographic Data Centre
#                                CCDC 
#
#######################################################################
#
# If this CIF has been generated from an entry in the Cambridge 
# Structural Database, then it will include bibliographic, chemical, 
# crystal, experimental, refinement or atomic coordinate data resulting 
# from the CCDC's data processing and validation procedures.
#
#######################################################################

data_UFIWAJ
_chemical_formula_moiety         'C16 H16 N2 O3,C1 H1 Cl3'
_chemical_name_systematic        
't-Butyl 7-cyano-1-oxo-2,3-dihydro-1H-2-benzazepine-5-carboxylate chloroform solvate'
_symmetry_cell_setting           triclinic
_symmetry_space_group_name_H-M   'P -1'
_symmetry_Int_Tables_number      2
_space_group_name_Hall           '-P 1'
loop_
_symmetry_equiv_pos_site_id
_symmetry_equiv_pos_as_xyz
1 x,y,z
2 -x,-y,-z
_cell_length_a                   9.7614(10)
_cell_length_b                   10.2988(10)
_cell_length_c                   10.4722(11)
_cell_angle_alpha                80.745(8)
_cell_angle_beta                 71.023(9)
_cell_angle_gamma                89.009(8)
_cell_volume                     981.907
_exptl_crystal_colour            colorless
_exptl_crystal_description       block
_cell_formula_units_Z            2
loop_
_atom_site_label
_atom_site_type_symbol
_atom_site_fract_x
_atom_site_fract_y
_atom_site_fract_z
Cl1 Cl 1.3707(2) 0.6963(3) 0.2529(2)
Cl2 Cl 1.1327(4) 0.7974(4) 0.4455(3)
Cl3 Cl 1.0829(4) 0.6028(5) 0.3044(7)
C1 C 1.1891(8) 0.7367(8) 0.2893(7)
H1 H 1.1791 0.8047 0.2162
O1 O 0.4875(4) 0.8250(4) 0.5042(4)
O2 O 0.8158(5) 0.9840(4) -0.1143(4)
O3 O 0.6888(4) 0.7922(4) -0.0402(3)
N1 N 0.6857(5) 0.9572(4) 0.3902(4)
H2 H 0.6473 1.0207 0.4323
N2 N 0.9010(12) 0.3077(8) 0.1407(10)
C2 C 0.6556(6) 0.6078(5) 0.4276(5)
H3 H 0.6073 0.6008 0.5211
C3 C 0.7018(6) 0.4965(5) 0.3746(6)
H4 H 0.6859 0.4146 0.4305
C4 C 0.7742(6) 0.5086(5) 0.2335(5)
C5 C 0.7971(6) 0.6301(5) 0.1526(5)
H5 H 0.8465 0.6361 0.0594
C6 C 0.7495(5) 0.7444(5) 0.2046(5)
C7 C 0.6784(5) 0.7325(5) 0.3463(5)
C8 C 0.6082(6) 0.8424(5) 0.4194(5)
C9 C 0.8326(6) 0.9788(5) 0.2897(5)
H6 H 0.8941 0.9091 0.3101
H7 H 0.8742 1.0620 0.2946
C10 C 0.8249(5) 0.9802(5) 0.1490(5)
H8 H 0.8506 1.0573 0.0853
C11 C 0.7817(5) 0.8726(5) 0.1125(5)
C12 C 0.7665(6) 0.8905(5) -0.0281(5)
C13 C 0.6520(7) 0.7904(6) -0.1687(5)
C14 C 0.7871(8) 0.7961(8) -0.2868(6)
H9 H 0.8583 0.7437 -0.2597
H10 H 0.8232 0.8857 -0.3177
H11 H 0.7673 0.7627 -0.3598
C15 C 0.5729(10) 0.6540(9) -0.1329(8)
H12 H 0.5026 0.6448 -0.0429
H13 H 0.6421 0.5863 -0.1354
H14 H 0.5249 0.6463 -0.1983
C16 C 0.5537(9) 0.8988(9) -0.1843(8)
H15 H 0.6086 0.9808 -0.2164
H16 H 0.4811 0.9024 -0.0974
H17 H 0.5078 0.8833 -0.2491
C17 C 0.8285(7) 0.3931(6) 0.1747(6)
N3? N 0.740(2) 0.2898(15) 0.223(2)
N4? N 0.837(2) 0.4012(16) 0.0457(15)
loop_
_geom_bond_atom_site_label_1
_geom_bond_atom_site_label_2
_geom_bond_site_symmetry_1
_geom_bond_site_symmetry_2
Cl1 C1 1_555 1_555
Cl2 C1 1_555 1_555
Cl3 C1 1_555 1_555
C1 H1 1_555 1_555
O1 C8 1_555 1_555
O2 C12 1_555 1_555
O3 C12 1_555 1_555
N1 H2 1_555 1_555
N2 C17 1_555 1_555
C2 H3 1_555 1_555
C3 C2 1_555 1_555
H4 C3 1_555 1_555
C4 C3 1_555 1_555
C5 C4 1_555 1_555
H5 C5 1_555 1_555
C6 C5 1_555 1_555
C7 C2 1_555 1_555
C8 N1 1_555 1_555
C9 N1 1_555 1_555
H6 C9 1_555 1_555
H7 C9 1_555 1_555
C10 C9 1_555 1_555
H8 C10 1_555 1_555
C11 C6 1_555 1_555
C12 C11 1_555 1_555
C13 O3 1_555 1_555
C14 C13 1_555 1_555
H9 C14 1_555 1_555
H10 C14 1_555 1_555
H11 C14 1_555 1_555
C15 C13 1_555 1_555
H12 C15 1_555 1_555
H13 C15 1_555 1_555
H14 C15 1_555 1_555
C16 C13 1_555 1_555
H15 C16 1_555 1_555
H16 C16 1_555 1_555
H17 C16 1_555 1_555
C17 C4 1_555 1_555
C6 C7 1_555 1_555
C7 C8 1_555 1_555
C10 C11 1_555 1_555

#END
