
#######################################################################
#
#                 Cambridge Crystallographic Data Centre
#                                CCDC 
#
#######################################################################
#
# If this CIF has been generated from an entry in the Cambridge 
# Structural Database, then it will include bibliographic, chemical, 
# crystal, experimental, refinement or atomic coordinate data resulting 
# from the CCDC's data processing and validation procedures.
#
#######################################################################

data_UFODEZ
_chemical_formula_moiety         'C14 H14 O4'
_chemical_name_systematic        4-Hydroxy-3-(oxan-3-yl)coumarin
_symmetry_cell_setting           monoclinic
_symmetry_space_group_name_H-M   'P 21/c'
_symmetry_Int_Tables_number      14
_space_group_name_Hall           '-P 2ybc'
loop_
_symmetry_equiv_pos_site_id
_symmetry_equiv_pos_as_xyz
1 x,y,z
2 -x,1/2+y,1/2-z
3 -x,-y,-z
4 x,1/2-y,1/2+z
_cell_length_a                   9.5925(3)
_cell_length_b                   11.0832(3)
_cell_length_c                   11.6146(3)
_cell_angle_alpha                90
_cell_angle_beta                 108.327(2)
_cell_angle_gamma                90
_cell_volume                     1172.18
_exptl_crystal_colour            colorless
_exptl_crystal_description       chunk
_chemical_melting_point          '99-102 deg.C'
_cell_formula_units_Z            4
_exptl_crystal_recrystallization_method 'diethyl ether'
loop_
_atom_site_label
_atom_site_type_symbol
_atom_site_fract_x
_atom_site_fract_y
_atom_site_fract_z
O1 O 0.90206(10) 0.13339(7) 0.62427(7)
O2 O 0.63427(9) -0.07715(7) 0.35052(7)
O3 O 0.6216(1) 0.06130(8) 0.21241(7)
O4 O 0.94380(8) 0.34363(7) 0.54366(7)
C1 C 0.8163(1) 0.07262(10) 0.52868(10)
C2 C 0.7728(1) -0.04600(10) 0.56001(9)
C3 C 0.8178(1) -0.0922(1) 0.67829(9)
C4 C 0.7722(1) -0.2054(1) 0.70144(10)
C5 C 0.6824(1) -0.2753(1) 0.6073(1)
C6 C 0.6372(1) -0.2321(1) 0.4896(1)
C7 C 0.6828(1) -0.11698(10) 0.46806(9)
C8 C 0.6727(1) 0.03536(10) 0.31894(10)
C9 C 0.7704(1) 0.11176(9) 0.41113(9)
C10 C 0.8041(1) 0.23078(10) 0.36044(9)
C11 C 0.6772(1) 0.32155(10) 0.34120(10)
C12 C 0.6796(1) 0.3788(1) 0.4612(1)
C13 C 0.8289(1) 0.43342(10) 0.5244(1)
C14 C 0.9478(1) 0.29180(10) 0.43049(10)
H1 H 0.8693 -0.0523 0.7334
H2 H 0.7974 -0.2339 0.7756
H3 H 0.6549 -0.3474 0.6280
H4 H 0.5782 -0.2774 0.4205
H5 H 0.8075 0.2101 0.2806
H6 H 0.5870 0.2807 0.3077
H7 H 0.6868 0.3876 0.2882
H8 H 0.6523 0.3289 0.5073
H9 H 0.6026 0.4371 0.4440
H10 H 0.8453 0.5017 0.4746
H11 H 0.8421 0.4628 0.6048
H12 H 0.9703 0.3532 0.3794
H13 H 1.0280 0.2381 0.4531
H14 H 0.9100 0.2007 0.6127
loop_
_geom_bond_atom_site_label_1
_geom_bond_atom_site_label_2
_geom_bond_site_symmetry_1
_geom_bond_site_symmetry_2
O1 C1 1_555 1_555
O2 C7 1_555 1_555
O3 C8 1_555 1_555
O4 C13 1_555 1_555
C1 C2 1_555 1_555
C2 C3 1_555 1_555
C3 C4 1_555 1_555
C4 C5 1_555 1_555
C5 C6 1_555 1_555
C6 C7 1_555 1_555
C7 C2 1_555 1_555
C8 O2 1_555 1_555
C9 C1 1_555 1_555
C10 C9 1_555 1_555
C11 C10 1_555 1_555
C12 C11 1_555 1_555
C13 C12 1_555 1_555
C14 O4 1_555 1_555
H1 C3 1_555 1_555
H2 C4 1_555 1_555
H3 C5 1_555 1_555
H4 C6 1_555 1_555
H5 C10 1_555 1_555
H6 C11 1_555 1_555
H7 C11 1_555 1_555
H8 C12 1_555 1_555
H9 C12 1_555 1_555
H10 C13 1_555 1_555
H11 C13 1_555 1_555
H12 C14 1_555 1_555
H13 C14 1_555 1_555
H14 O1 1_555 1_555
C8 C9 1_555 1_555
C10 C14 1_555 1_555

#END
