
#######################################################################
#
#                 Cambridge Crystallographic Data Centre
#                                CCDC 
#
#######################################################################
#
# If this CIF has been generated from an entry in the Cambridge 
# Structural Database, then it will include bibliographic, chemical, 
# crystal, experimental, refinement or atomic coordinate data resulting 
# from the CCDC's data processing and validation procedures.
#
#######################################################################

data_UFOHOP
_chemical_formula_moiety         'C32 H24 N2'
_chemical_name_systematic        1,1',2,2'-tetraphenyl-1H,1'H-3,3'-bipyrrole
_symmetry_cell_setting           triclinic
_symmetry_space_group_name_H-M   'P -1'
_symmetry_Int_Tables_number      2
_space_group_name_Hall           '-P 1'
loop_
_symmetry_equiv_pos_site_id
_symmetry_equiv_pos_as_xyz
1 x,y,z
2 -x,-y,-z
_cell_length_a                   6.4844(14)
_cell_length_b                   8.045(3)
_cell_length_c                   11.586(3)
_cell_angle_alpha                93.14(2)
_cell_angle_beta                 100.28(2)
_cell_angle_gamma                93.56(2)
_cell_volume                     592.221
_exptl_crystal_colour            colorless
_exptl_crystal_description       block
_cell_formula_units_Z            1
loop_
_atom_site_label
_atom_site_type_symbol
_atom_site_fract_x
_atom_site_fract_y
_atom_site_fract_z
N1 N 0.2223(3) 0.8221(3) 0.63677(19)
C1 C 0.1651(5) 0.8341(4) 0.8402(3)
H1 H 0.3052 0.8715 0.8662
C2 C 0.0327(6) 0.8116(4) 0.9198(3)
H2 H 0.0832 0.8352 0.9997
C3 C -0.1738(6) 0.7545(4) 0.8814(3)
H3 H -0.2623 0.7382 0.9353
C4 C -0.2489(5) 0.7219(4) 0.7640(3)
H4 H -0.3889 0.6840 0.7383
C5 C -0.1186(4) 0.7446(4) 0.6832(3)
H5 H -0.1703 0.7222 0.6033
C6 C 0.0886(4) 0.8007(3) 0.7217(2)
C7 C 0.2567(4) 0.6997(4) 0.5570(3)
H6 H 0.2005 0.5897 0.5506
C8 C 0.3868(4) 0.7659(3) 0.4888(2)
H7 H 0.4359 0.7085 0.4286
C9 C 0.4352(4) 0.9389(3) 0.5254(2)
C10 C 0.3332(4) 0.9692(3) 0.6190(2)
C11 C 0.3260(4) 1.1209(3) 0.6954(2)
C12 C 0.1427(5) 1.2010(4) 0.6901(3)
H8 H 0.0219 1.1598 0.6380
C13 C 0.1391(7) 1.3443(4) 0.7633(4)
H9 H 0.0159 1.3986 0.7600
C14 C 0.3176(9) 1.4047(4) 0.8400(3)
H10 H 0.3151 1.5003 0.8885
C15 C 0.4980(7) 1.3259(4) 0.8456(3)
H11 H 0.6184 1.3676 0.8979
C16 C 0.5031(5) 1.1844(4) 0.7741(3)
H12 H 0.6271 1.1309 0.7787
N1A N 0.7777(3) 1.1779(3) 0.36323(19)
C1A C 0.8349(5) 1.1659(4) 0.1598(3)
H1A H 0.6948 1.1285 0.1338
C2A C 0.9673(6) 1.1884(4) 0.0802(3)
H2A H 0.9168 1.1648 0.0003
C3A C 1.1738(6) 1.2455(4) 0.1186(3)
H3A H 1.2623 1.2618 0.0647
C4A C 1.2489(5) 1.2781(4) 0.2360(3)
H4A H 1.3889 1.3160 0.2617
C5A C 1.1186(4) 1.2554(4) 0.3168(3)
H5A H 1.1703 1.2778 0.3967
C6A C 0.9114(4) 1.1993(3) 0.2783(2)
C7A C 0.7433(4) 1.3003(4) 0.4430(3)
H6A H 0.7995 1.4103 0.4494
C8A C 0.6132(4) 1.2341(3) 0.5112(2)
H7A H 0.5641 1.2915 0.5714
C9A C 0.5648(4) 1.0611(3) 0.4746(2)
C10A C 0.6668(4) 1.0308(3) 0.3810(2)
C11A C 0.6740(4) 0.8791(3) 0.3046(2)
C12A C 0.8573(5) 0.7990(4) 0.3099(3)
H8A H 0.9781 0.8402 0.3620
C13A C 0.8609(7) 0.6557(4) 0.2367(4)
H9A H 0.9841 0.6014 0.2400
C14A C 0.6824(9) 0.5953(4) 0.1600(3)
H10A H 0.6849 0.4997 0.1115
C15A C 0.5020(7) 0.6741(4) 0.1544(3)
H11A H 0.3816 0.6324 0.1021
C16A C 0.4969(5) 0.8156(4) 0.2259(3)
H12A H 0.3729 0.8691 0.2213
loop_
_geom_bond_atom_site_label_1
_geom_bond_atom_site_label_2
_geom_bond_site_symmetry_1
_geom_bond_site_symmetry_2
N1 C6 1_555 1_555
C1 H1 1_555 1_555
C2 C1 1_555 1_555
H2 C2 1_555 1_555
C3 C2 1_555 1_555
H3 C3 1_555 1_555
C4 C3 1_555 1_555
H4 C4 1_555 1_555
C5 C4 1_555 1_555
H5 C5 1_555 1_555
C6 C1 1_555 1_555
C7 N1 1_555 1_555
H6 C7 1_555 1_555
C8 C7 1_555 1_555
H7 C8 1_555 1_555
C9 C8 1_555 1_555
C10 N1 1_555 1_555
C11 C10 1_555 1_555
C12 C11 1_555 1_555
H8 C12 1_555 1_555
C13 C12 1_555 1_555
H9 C13 1_555 1_555
C14 C13 1_555 1_555
H10 C14 1_555 1_555
C15 C14 1_555 1_555
H11 C15 1_555 1_555
C16 C11 1_555 1_555
H12 C16 1_555 1_555
N1A C6A 1_555 1_555
C1A H1A 1_555 1_555
C2A C1A 1_555 1_555
H2A C2A 1_555 1_555
C3A C2A 1_555 1_555
H3A C3A 1_555 1_555
C4A C3A 1_555 1_555
H4A C4A 1_555 1_555
C5A C4A 1_555 1_555
H5A C5A 1_555 1_555
C6A C1A 1_555 1_555
C7A N1A 1_555 1_555
H6A C7A 1_555 1_555
C8A C7A 1_555 1_555
H7A C8A 1_555 1_555
C9A C9 1_555 1_555
C10A N1A 1_555 1_555
C11A C10A 1_555 1_555
C12A C11A 1_555 1_555
H8A C12A 1_555 1_555
C13A C12A 1_555 1_555
H9A C13A 1_555 1_555
C14A C13A 1_555 1_555
H10A C14A 1_555 1_555
C15A C14A 1_555 1_555
H11A C15A 1_555 1_555
C16A C11A 1_555 1_555
H12A C16A 1_555 1_555
C5 C6 1_555 1_555
C9 C10 1_555 1_555
C15 C16 1_555 1_555
C5A C6A 1_555 1_555
C8A C9A 1_555 1_555
C9A C10A 1_555 1_555
C15A C16A 1_555 1_555

#END
