
#######################################################################
#
#                 Cambridge Crystallographic Data Centre
#                                CCDC 
#
#######################################################################
#
# If this CIF has been generated from an entry in the Cambridge 
# Structural Database, then it will include bibliographic, chemical, 
# crystal, experimental, refinement or atomic coordinate data resulting 
# from the CCDC's data processing and validation procedures.
#
#######################################################################

data_UFOVET
_chemical_formula_moiety         'C5 H2 N8 O2,C1 H4 O1,H2 O1'
_chemical_name_systematic        
'4-amino-7-nitro[1,2,4]triazolo[5,1-c][1,2,4]triazine-3-carbonitrile methanol solvate monohydrate'
_symmetry_cell_setting           monoclinic
_symmetry_space_group_name_H-M   'P 21/c'
_symmetry_Int_Tables_number      14
_space_group_name_Hall           '-P 2ybc'
loop_
_symmetry_equiv_pos_site_id
_symmetry_equiv_pos_as_xyz
1 x,y,z
2 -x,1/2+y,1/2-z
3 -x,-y,-z
4 x,1/2-y,1/2+z
_cell_length_a                   6.2321(8)
_cell_length_b                   5.9535(7)
_cell_length_c                   29.279(4)
_cell_angle_alpha                90
_cell_angle_beta                 93.811(5)
_cell_angle_gamma                90
_cell_volume                     1083.93
_exptl_crystal_description       column
_cell_formula_units_Z            4
loop_
_atom_site_label
_atom_site_type_symbol
_atom_site_fract_x
_atom_site_fract_y
_atom_site_fract_z
C1 C 0.0415(4) 0.9475(5) 0.16923(9)
C2 C 0.1363(4) 1.1702(5) 0.12019(9)
C3 C 0.4628(4) 1.1557(5) 0.06813(9)
C4 C 0.4494(4) 0.9710(5) 0.09856(9)
C5 C 0.6345(5) 1.1645(5) 0.03764(10)
N1 N -0.0201(3) 1.1410(4) 0.14892(8)
N2 N 0.2178(3) 0.8468(4) 0.15753(7)
N3 N 0.2796(3) 0.9955(4) 0.12531(7)
N4 N 0.1588(4) 1.3386(4) 0.09037(8)
N5 N 0.3249(4) 1.3269(4) 0.06466(8)
N6 N -0.0875(4) 0.8446(4) 0.20355(8)
N7 N 0.7716(4) 1.1674(5) 0.01357(9)
N8 N 0.5753(4) 0.7968(4) 0.10265(8)
H1 H 0.551(4) 0.686(4) 0.1238(8)
H2 H 0.696(4) 0.791(5) 0.0852(9)
O1 O -0.2698(3) 0.9161(3) 0.20621(7)
O2 O -0.0043(3) 0.6932(4) 0.22658(7)
C6 C -0.5049(5) 0.8979(5) 0.29571(10)
H3 H -0.3924 1.0112 0.2929
H4 H -0.6184 0.9198 0.2713
H5 H -0.4428 0.7476 0.2931
O3 O -0.5943(3) 0.9200(4) 0.33937(7)
H6 H -0.711(4) 0.850(5) 0.3399(10)
O4 O 0.0452(3) 0.2423(4) 0.43646(7)
H7 H -0.011(5) 0.118(4) 0.4288(10)
H8 H 0.002(5) 0.272(5) 0.4628(8)
loop_
_geom_bond_atom_site_label_1
_geom_bond_atom_site_label_2
_geom_bond_site_symmetry_1
_geom_bond_site_symmetry_2
C1 N1 1_555 1_555
C2 N1 1_555 1_555
C3 C4 1_555 1_555
C4 N3 1_555 1_555
C5 C3 1_555 1_555
N2 C1 1_555 1_555
N3 C2 1_555 1_555
N4 C2 1_555 1_555
N5 C3 1_555 1_555
N6 C1 1_555 1_555
N7 C5 1_555 1_555
N8 C4 1_555 1_555
H1 N8 1_555 1_555
H2 N8 1_555 1_555
O1 N6 1_555 1_555
O2 N6 1_555 1_555
C6 H3 1_555 1_555
H4 C6 1_555 1_555
H5 C6 1_555 1_555
O3 C6 1_555 1_555
H6 O3 1_555 1_555
O4 H7 1_555 1_555
H8 O4 1_555 1_555
N2 N3 1_555 1_555
N4 N5 1_555 1_555

#END
