
#######################################################################
#
#                 Cambridge Crystallographic Data Centre
#                                CCDC 
#
#######################################################################
#
# If this CIF has been generated from an entry in the Cambridge 
# Structural Database, then it will include bibliographic, chemical, 
# crystal, experimental, refinement or atomic coordinate data resulting 
# from the CCDC's data processing and validation procedures.
#
#######################################################################

data_UFUBUV
_chemical_formula_moiety         'C21 H18 B1 N1 O2'
_chemical_name_systematic        
9-[4-(4-methyl-1,3,2-dioxaborolan-2-yl)phenyl]-9H-carbazole
_symmetry_cell_setting           triclinic
_symmetry_space_group_name_H-M   'P -1'
_symmetry_Int_Tables_number      2
_space_group_name_Hall           '-P 1'
loop_
_symmetry_equiv_pos_site_id
_symmetry_equiv_pos_as_xyz
1 x,y,z
2 -x,-y,-z
_cell_length_a                   8.0038(19)
_cell_length_b                   17.3205(12)
_cell_length_c                   26.7265(10)
_cell_angle_alpha                101.028(11)
_cell_angle_beta                 91.667(10)
_cell_angle_gamma                100.889(2)
_cell_volume                     3563.01
_exptl_crystal_colour            colorless
_exptl_crystal_description       block
_cell_formula_units_Z            8
loop_
_atom_site_label
_atom_site_type_symbol
_atom_site_fract_x
_atom_site_fract_y
_atom_site_fract_z
O1 O 0.7534(5) 0.9418(3) 0.17036(15)
O2 O 0.9460(5) 0.8929(2) 0.11878(14)
C1 C 0.0130(9) 0.7786(5) -0.0933(2)
C2 C -0.1177(10) 0.8046(6) -0.1169(3)
H1 H -0.1950 0.7691 -0.1413
C3 C -0.1293(11) 0.8831(7) -0.1036(3)
H2 H -0.2168 0.9014 -0.1185
C4 C -0.0113(10) 0.9365(4) -0.0677(3)
H3 H -0.0193 0.9903 -0.0599
C5 C 0.1205(8) 0.9108(5) -0.0429(2)
H4 H 0.1986 0.9461 -0.0187
C6 C 0.1272(8) 0.8309(5) -0.0564(2)
N1 N 0.2444(6) 0.7897(3) -0.03886(16)
C7 C 0.2050(9) 0.7107(5) -0.0650(2)
C8 C 0.0608(8) 0.7033(5) -0.0988(2)
C9 C 0.0027(10) 0.6293(6) -0.1297(3)
H5 H -0.0900 0.6224 -0.1530
C10 C 0.0776(13) 0.5660(6) -0.1269(3)
H6 H 0.0362 0.5164 -0.1481
C11 C 0.2206(11) 0.5756(5) -0.0912(3)
H7 H 0.2702 0.5319 -0.0890
C12 C 0.2862(8) 0.6497(5) -0.0597(2)
H8 H 0.3794 0.6573 -0.0364
C13 C 0.3800(8) 0.8230(3) 0.0010(2)
C14 C 0.3426(7) 0.8586(3) 0.0486(2)
H9 H 0.2312 0.8634 0.0553
C15 C 0.4727(7) 0.8873(3) 0.08649(19)
H10 H 0.4469 0.9121 0.1186
C16 C 0.6417(7) 0.8806(3) 0.0785(2)
C17 C 0.6747(7) 0.8454(3) 0.0297(2)
H11 H 0.7855 0.8399 0.0228
C18 C 0.5451(8) 0.8181(3) -0.0092(2)
H12 H 0.5705 0.7965 -0.0420
C19 C 1.0335(8) 0.9224(4) 0.1689(2)
H13 H 1.1323 0.9639 0.1675
H14 H 1.0713 0.8791 0.1814
C20 C 0.9098(10) 0.9551(8) 0.2025(3)
C21 C 0.9339(9) 1.0057(5) 0.2418(3)
H15 H 0.8263 1.0160 0.2534
H16 H 1.0023 1.0543 0.2356
H17 H 0.9919 0.9866 0.2675
B1 B 0.7813(9) 0.9058(4) 0.1227(3)
O3 O 0.8498(6) 0.6597(3) 0.07696(15)
O4 O 0.6192(5) 0.6300(3) 0.02140(17)
C22 C 0.1058(7) 0.7280(4) 0.2419(2)
C23 C 0.0217(8) 0.6509(4) 0.2227(2)
H18 H 0.0617 0.6189 0.1955
C24 C -0.1259(8) 0.6220(4) 0.2453(2)
H19 H -0.1848 0.5697 0.2331
C25 C -0.1864(8) 0.6699(5) 0.2856(3)
H20 H -0.2858 0.6497 0.2999
C26 C -0.1008(9) 0.7465(4) 0.3045(2)
H21 H -0.1407 0.7786 0.3317
C27 C 0.0467(8) 0.7758(4) 0.2824(2)
C28 C 0.1666(8) 0.8499(4) 0.2944(2)
C29 C 0.2938(7) 0.8448(4) 0.2592(2)
N2 N 0.2569(6) 0.7701(3) 0.22758(15)
C30 C 0.4292(7) 0.9083(4) 0.2598(2)
H22 H 0.5120 0.9039 0.2363
C31 C 0.4388(8) 0.9773(4) 0.2953(3)
H23 H 0.5291 1.0202 0.2961
C32 C 0.3138(10) 0.9836(4) 0.3304(2)
H24 H 0.3212 1.0311 0.3543
C33 C 0.1809(9) 0.9212(4) 0.3301(2)
H25 H 0.0992 0.9264 0.3539
C34 C 0.3596(7) 0.7403(3) 0.1886(2)
C35 C 0.5303(7) 0.7420(3) 0.2006(2)
H26 H 0.5769 0.7616 0.2339
C36 C 0.6315(7) 0.7142(3) 0.1622(2)
H27 H 0.7460 0.7156 0.1703
C37 C 0.5656(7) 0.6850(3) 0.1128(2)
C38 C 0.3920(8) 0.6824(3) 0.10249(19)
H28 H 0.3440 0.6607 0.0695
C39 C 0.2884(7) 0.7110(3) 0.1398(2)
H29 H 0.1742 0.7103 0.1318
C40 C 0.9135(10) 0.6330(5) 0.0276(3)
H30 H 0.9543 0.5836 0.0268
H31 H 1.0063 0.6735 0.0205
C41 C 0.7644(11) 0.6201(5) -0.0107(3)
C42 C 0.7211(10) 0.5392(5) -0.0399(3)
H32 H 0.6240 0.5342 -0.0631
H33 H 0.6944 0.5026 -0.0172
H34 H 0.8160 0.5270 -0.0589
B2 B 0.6787(11) 0.6566(5) 0.0699(3)
O5 O -0.0895(5) 0.4198(3) 0.37512(17)
O6 O -0.3059(6) 0.3844(3) 0.42540(17)
C43 C 0.2778(8) 0.2112(4) 0.56207(19)
C44 C 0.4023(8) 0.2048(4) 0.5984(2)
C45 C 0.3862(9) 0.1350(5) 0.6171(2)
H35 H 0.4682 0.1296 0.6409
C46 C 0.2486(10) 0.0732(4) 0.6005(3)
H36 H 0.2350 0.0270 0.6141
C47 C 0.1286(8) 0.0806(4) 0.5629(2)
H37 H 0.0390 0.0376 0.5510
C48 C 0.1392(8) 0.1497(4) 0.5431(2)
H38 H 0.0588 0.1545 0.5186
N3 N 0.3217(6) 0.2853(3) 0.54844(16)
C49 C 0.4781(8) 0.3264(4) 0.5757(2)
C50 C 0.5268(8) 0.2772(4) 0.6070(2)
C51 C 0.6802(9) 0.3035(5) 0.6386(2)
H39 H 0.7158 0.2716 0.6594
C52 C 0.7727(10) 0.3771(6) 0.6371(3)
H40 H 0.8739 0.3957 0.6575
C53 C 0.7215(9) 0.4257(4) 0.6062(3)
H41 H 0.7890 0.4757 0.6061
C54 C 0.5690(8) 0.4001(4) 0.5752(2)
H42 H 0.5320 0.4328 0.5552
C55 C 0.2168(7) 0.3177(3) 0.5173(2)
C56 C 0.2740(7) 0.3433(3) 0.4742(2)
H43 H 0.3855 0.3428 0.4656
C57 C 0.1619(8) 0.3699(3) 0.4437(2)
H44 H 0.2009 0.3871 0.4145
C58 C -0.0055(8) 0.3720(3) 0.4552(2)
C59 C -0.0573(7) 0.3475(3) 0.4992(2)
H45 H -0.1684 0.3483 0.5082
C60 C 0.0525(8) 0.3217(3) 0.5305(2)
H46 H 0.0153 0.3069 0.5606
C61 C -0.2499(11) 0.4270(7) 0.3515(4)
C62 C -0.3915(9) 0.4005(5) 0.3803(3)
H47 H -0.4658 0.3523 0.3612
H48 H -0.4575 0.4420 0.3898
C63 C -0.2439(10) 0.4735(6) 0.3211(4)
H49 H -0.1308 0.4841 0.3096
H50 H -0.2729 0.5229 0.3379
H51 H -0.3235 0.4492 0.2923
B3 B -0.1325(11) 0.3948(5) 0.4190(3)
O7 O -0.1911(5) 0.1384(3) 0.44275(16)
O8 O -0.4006(5) 0.1749(2) 0.39735(14)
C64 C 0.3871(6) 0.2197(4) 0.23704(18)
C65 C 0.3999(6) 0.1405(4) 0.23568(18)
H52 H 0.3329 0.1088 0.2549
C66 C 0.5181(7) 0.1112(4) 0.2041(2)
H53 H 0.5300 0.0582 0.2018
C67 C 0.6198(7) 0.1595(5) 0.1757(2)
H54 H 0.6990 0.1384 0.1553
C68 C 0.6040(7) 0.2373(5) 0.1777(2)
H55 H 0.6723 0.2692 0.1589
C69 C 0.4830(7) 0.2683(4) 0.20852(19)
C70 C 0.4319(7) 0.3428(4) 0.2168(2)
C71 C 0.3030(7) 0.3377(4) 0.25125(19)
N4 N 0.2750(5) 0.2623(3) 0.26383(14)
C72 C 0.2263(7) 0.4016(4) 0.2695(2)
H56 H 0.1434 0.3976 0.2931
C73 C 0.2766(9) 0.4715(4) 0.2518(2)
H57 H 0.2276 0.5156 0.2634
C74 C 0.4018(10) 0.4761(4) 0.2161(3)
H58 H 0.4320 0.5229 0.2035
C75 C 0.4791(8) 0.4138(5) 0.1997(2)
H59 H 0.5643 0.4187 0.1769
C76 C 0.1460(7) 0.2329(3) 0.29605(18)
C77 C 0.1935(6) 0.2025(3) 0.33734(19)
H60 H 0.3064 0.1991 0.3438
C78 C 0.0682(7) 0.1770(3) 0.36900(18)
H61 H 0.0990 0.1554 0.3964
C79 C -0.1028(7) 0.1828(3) 0.3610(2)
C80 C -0.1442(6) 0.2119(3) 0.3181(2)
H62 H -0.2570 0.2150 0.3113
C81 C -0.0234(7) 0.2363(3) 0.28523(19)
H63 H -0.0549 0.2547 0.2565
C82 C -0.4740(8) 0.1592(5) 0.4449(2)
H64 H -0.5115 0.2061 0.4634
H65 H -0.5703 0.1145 0.4379
C83 C -0.3394(15) 0.1407(6) 0.4734(4)
C84 C -0.3478(9) 0.0980(5) 0.5068(4)
H66 H -0.2384 0.0850 0.5126
H67 H -0.4308 0.0495 0.4952
H68 H -0.3807 0.1270 0.5381
B4 B -0.2347(9) 0.1641(4) 0.4001(3)
loop_
_geom_bond_atom_site_label_1
_geom_bond_atom_site_label_2
_geom_bond_site_symmetry_1
_geom_bond_site_symmetry_2
O1 C20 1_555 1_555
O2 C19 1_555 1_555
C1 C2 1_555 1_555
C2 H1 1_555 1_555
C3 C2 1_555 1_555
H2 C3 1_555 1_555
C4 C3 1_555 1_555
H3 C4 1_555 1_555
C5 C4 1_555 1_555
H4 C5 1_555 1_555
C6 C1 1_555 1_555
N1 C6 1_555 1_555
C7 N1 1_555 1_555
C8 C1 1_555 1_555
C9 C8 1_555 1_555
H5 C9 1_555 1_555
C10 C9 1_555 1_555
H6 C10 1_555 1_555
C11 C10 1_555 1_555
H7 C11 1_555 1_555
C12 C7 1_555 1_555
H8 C12 1_555 1_555
C13 N1 1_555 1_555
C14 C13 1_555 1_555
H9 C14 1_555 1_555
C15 C14 1_555 1_555
H10 C15 1_555 1_555
C16 C15 1_555 1_555
C17 C16 1_555 1_555
H11 C17 1_555 1_555
C18 C13 1_555 1_555
H12 C18 1_555 1_555
C19 H13 1_555 1_555
H14 C19 1_555 1_555
C20 C19 1_555 1_555
C21 C20 1_555 1_555
H15 C21 1_555 1_555
H16 C21 1_555 1_555
H17 C21 1_555 1_555
B1 O1 1_555 1_555
O3 C40 1_555 1_555
O4 C41 1_555 1_555
C22 C23 1_555 1_555
C23 H18 1_555 1_555
C24 C23 1_555 1_555
H19 C24 1_555 1_555
C25 C24 1_555 1_555
H20 C25 1_555 1_555
C26 C25 1_555 1_555
H21 C26 1_555 1_555
C27 C22 1_555 1_555
C28 C27 1_555 1_555
C29 C28 1_555 1_555
N2 C22 1_555 1_555
C30 C29 1_555 1_555
H22 C30 1_555 1_555
C31 C30 1_555 1_555
H23 C31 1_555 1_555
C32 C31 1_555 1_555
H24 C32 1_555 1_555
C33 C28 1_555 1_555
H25 C33 1_555 1_555
C34 N2 1_555 1_555
C35 C34 1_555 1_555
H26 C35 1_555 1_555
C36 C35 1_555 1_555
H27 C36 1_555 1_555
C37 C36 1_555 1_555
C38 C37 1_555 1_555
H28 C38 1_555 1_555
C39 C34 1_555 1_555
H29 C39 1_555 1_555
C40 H30 1_555 1_555
H31 C40 1_555 1_555
C41 C40 1_555 1_555
C42 C41 1_555 1_555
H32 C42 1_555 1_555
H33 C42 1_555 1_555
H34 C42 1_555 1_555
B2 O3 1_555 1_555
O5 C61 1_555 1_555
O6 C62 1_555 1_555
C43 C44 1_555 1_555
C44 C45 1_555 1_555
C45 H35 1_555 1_555
C46 C45 1_555 1_555
H36 C46 1_555 1_555
C47 C46 1_555 1_555
H37 C47 1_555 1_555
C48 C43 1_555 1_555
H38 C48 1_555 1_555
N3 C43 1_555 1_555
C49 N3 1_555 1_555
C50 C44 1_555 1_555
C51 C50 1_555 1_555
H39 C51 1_555 1_555
C52 C51 1_555 1_555
H40 C52 1_555 1_555
C53 C52 1_555 1_555
H41 C53 1_555 1_555
C54 C49 1_555 1_555
H42 C54 1_555 1_555
C55 N3 1_555 1_555
C56 C55 1_555 1_555
H43 C56 1_555 1_555
C57 C56 1_555 1_555
H44 C57 1_555 1_555
C58 C57 1_555 1_555
C59 C58 1_555 1_555
H45 C59 1_555 1_555
C60 C55 1_555 1_555
H46 C60 1_555 1_555
C61 C62 1_555 1_555
C62 H47 1_555 1_555
H48 C62 1_555 1_555
C63 C61 1_555 1_555
H49 C63 1_555 1_555
H50 C63 1_555 1_555
H51 C63 1_555 1_555
B3 O5 1_555 1_555
O7 C83 1_555 1_555
O8 C82 1_555 1_555
C64 C65 1_555 1_555
C65 H52 1_555 1_555
C66 C65 1_555 1_555
H53 C66 1_555 1_555
C67 C66 1_555 1_555
H54 C67 1_555 1_555
C68 C67 1_555 1_555
H55 C68 1_555 1_555
C69 C64 1_555 1_555
C70 C69 1_555 1_555
C71 C70 1_555 1_555
N4 C64 1_555 1_555
C72 C71 1_555 1_555
H56 C72 1_555 1_555
C73 C72 1_555 1_555
H57 C73 1_555 1_555
C74 C73 1_555 1_555
H58 C74 1_555 1_555
C75 C70 1_555 1_555
H59 C75 1_555 1_555
C76 N4 1_555 1_555
C77 C76 1_555 1_555
H60 C77 1_555 1_555
C78 C77 1_555 1_555
H61 C78 1_555 1_555
C79 C78 1_555 1_555
C80 C79 1_555 1_555
H62 C80 1_555 1_555
C81 C76 1_555 1_555
H63 C81 1_555 1_555
C82 H64 1_555 1_555
H65 C82 1_555 1_555
C83 C82 1_555 1_555
C84 C83 1_555 1_555
H66 C84 1_555 1_555
H67 C84 1_555 1_555
H68 C84 1_555 1_555
B4 O7 1_555 1_555
O2 B1 1_555 1_555
C5 C6 1_555 1_555
C7 C8 1_555 1_555
C11 C12 1_555 1_555
C16 B1 1_555 1_555
C17 C18 1_555 1_555
O4 B2 1_555 1_555
C26 C27 1_555 1_555
C29 N2 1_555 1_555
C32 C33 1_555 1_555
C37 B2 1_555 1_555
C38 C39 1_555 1_555
O6 B3 1_555 1_555
C47 C48 1_555 1_555
C49 C50 1_555 1_555
C53 C54 1_555 1_555
C58 B3 1_555 1_555
C59 C60 1_555 1_555
O8 B4 1_555 1_555
C68 C69 1_555 1_555
C71 N4 1_555 1_555
C74 C75 1_555 1_555
C79 B4 1_555 1_555
C80 C81 1_555 1_555

#END
