
#######################################################################
#
#                 Cambridge Crystallographic Data Centre
#                                CCDC 
#
#######################################################################
#
# If this CIF has been generated from an entry in the Cambridge 
# Structural Database, then it will include bibliographic, chemical, 
# crystal, experimental, refinement or atomic coordinate data resulting 
# from the CCDC's data processing and validation procedures.
#
#######################################################################

data_UFUCAC
_chemical_formula_moiety         'C24 H24 B1 N1 O2'
_chemical_name_systematic        
9-[4-(4,4,5,5-tetramethyl-1,3,2-dioxaborolan-2-yl)phenyl]-9H-carbazole
_symmetry_cell_setting           monoclinic
_symmetry_space_group_name_H-M   'P 2/c'
_symmetry_Int_Tables_number      13
_space_group_name_Hall           '-P 2yc'
loop_
_symmetry_equiv_pos_site_id
_symmetry_equiv_pos_as_xyz
1 x,y,z
2 -x,y,1/2-z
3 -x,-y,-z
4 x,-y,1/2+z
_cell_length_a                   24.979(2)
_cell_length_b                   8.9400(10)
_cell_length_c                   19.1000(5)
_cell_angle_alpha                90
_cell_angle_beta                 104.664(12)
_cell_angle_gamma                90
_cell_volume                     4126.33
_exptl_crystal_colour            colorless
_exptl_crystal_description       block
_cell_formula_units_Z            8
loop_
_atom_site_label
_atom_site_type_symbol
_atom_site_fract_x
_atom_site_fract_y
_atom_site_fract_z
O1 O -0.07690(9) 0.4724(3) 0.09706(14)
O2 O -0.01294(9) 0.2920(3) 0.11505(14)
C1 C 0.15637(13) 0.9876(4) 0.2257(2)
C2 C 0.13650(14) 1.0399(4) 0.1563(2)
H1 H 0.1083 0.9902 0.1234
C3 C 0.15956(16) 1.1670(5) 0.1371(2)
H2 H 0.1467 1.2046 0.0905
C4 C 0.20147(17) 1.2405(5) 0.1855(3)
H3 H 0.2164 1.3271 0.1712
C5 C 0.22128(15) 1.1879(5) 0.2541(3)
H4 H 0.2495 1.2385 0.2865
C6 C 0.19922(12) 1.0594(4) 0.2752(2)
C7 C 0.20982(12) 0.9756(4) 0.3405(2)
C8 C 0.17278(13) 0.8561(4) 0.3295(2)
N1 N 0.14082(10) 0.8632(3) 0.25891(17)
C9 C 0.16953(14) 0.7572(4) 0.3830(2)
H5 H 0.1438 0.6799 0.3749
C10 C 0.20650(17) 0.7781(5) 0.4495(2)
H6 H 0.2056 0.7129 0.4872
C11 C 0.24453(17) 0.8921(6) 0.4617(3)
H7 H 0.2693 0.9015 0.5069
C12 C 0.24639(14) 0.9911(5) 0.4086(3)
H8 H 0.2719 1.0689 0.4175
C13 C 0.10038(13) 0.7571(4) 0.22499(19)
C14 C 0.11344(13) 0.6089(4) 0.2242(2)
H9 H 0.1492 0.5766 0.2458
C15 C 0.07375(13) 0.5081(4) 0.1917(2)
H10 H 0.0829 0.4072 0.1920
C16 C 0.02050(13) 0.5520(4) 0.15825(19)
C17 C 0.00896(13) 0.7019(4) 0.1598(2)
H11 H -0.0266 0.7349 0.1378
C18 C 0.04787(13) 0.8043(4) 0.1923(2)
H12 H 0.0388 0.9052 0.1923
C19 C -0.10488(14) 0.3423(4) 0.0605(2)
C20 C -0.1130(2) 0.3685(6) -0.0201(3)
H13 H -0.1389 0.4485 -0.0356
H14 H -0.1269 0.2789 -0.0461
H15 H -0.0782 0.3946 -0.0295
C21 C -0.15946(15) 0.3298(5) 0.0787(3)
H16 H -0.1828 0.4114 0.0570
H17 H -0.1539 0.3330 0.1302
H18 H -0.1767 0.2368 0.0604
C22 C -0.06430(14) 0.2153(4) 0.0903(2)
C23 C -0.07453(19) 0.1457(6) 0.1585(3)
H19 H -0.0478 0.0682 0.1756
H20 H -0.1111 0.1039 0.1478
H21 H -0.0711 0.2211 0.1951
C24 C -0.0596(2) 0.0928(6) 0.0403(3)
H22 H -0.0546 0.1342 -0.0040
H23 H -0.0927 0.0336 0.0301
H24 H -0.0284 0.0310 0.0622
B1 B -0.02384(16) 0.4381(5) 0.1230(2)
O3 O 0.48467(9) -0.1546(3) 0.12711(15)
O4 O 0.54469(10) 0.0277(3) 0.12721(15)
C25 C 0.32074(12) 0.5392(4) 0.17043(18)
C26 C 0.32130(14) 0.5890(4) 0.10283(19)
H25 H 0.3411 0.5388 0.0748
C27 C 0.29168(16) 0.7154(5) 0.0781(2)
H26 H 0.2914 0.7517 0.0324
C28 C 0.26248(14) 0.7896(4) 0.1189(2)
H27 H 0.2428 0.8753 0.1005
C29 C 0.26177(12) 0.7404(4) 0.1858(2)
H28 H 0.2417 0.7916 0.2131
C30 C 0.29144(11) 0.6127(4) 0.21317(17)
N2 N 0.34781(10) 0.4179(3) 0.20901(14)
C31 C 0.33767(11) 0.4170(3) 0.27618(17)
C32 C 0.30210(11) 0.5347(3) 0.28053(17)
C33 C 0.28698(13) 0.5587(4) 0.3439(2)
H29 H 0.2629 0.6359 0.3475
C34 C 0.30800(14) 0.4670(4) 0.4016(2)
H30 H 0.2975 0.4812 0.4444
C35 C 0.34457(14) 0.3539(4) 0.3973(2)
H31 H 0.3591 0.2949 0.4378
C36 C 0.35978(12) 0.3271(4) 0.33476(19)
H32 H 0.3843 0.2505 0.3318
C37 C 0.38248(12) 0.3137(4) 0.18498(16)
C38 C 0.43168(13) 0.3595(4) 0.1739(2)
H33 H 0.4415 0.4600 0.1787
C39 C 0.46672(13) 0.2566(4) 0.15568(19)
H34 H 0.5002 0.2886 0.1480
C40 C 0.45331(13) 0.1074(4) 0.14853(17)
C41 C 0.40286(14) 0.0661(4) 0.15763(19)
H35 H 0.3923 -0.0337 0.1515
C42 C 0.36722(14) 0.1685(4) 0.1756(2)
H36 H 0.3330 0.1378 0.1813
C43 C 0.57378(14) -0.1045(4) 0.11550(19)
C44 C 0.62722(18) -0.1057(5) 0.1706(3)
H37 H 0.6493 -0.0228 0.1625
H38 H 0.6463 -0.1975 0.1672
H39 H 0.6207 -0.0975 0.2179
C45 C 0.5859(2) -0.0893(6) 0.0434(3)
H40 H 0.6119 -0.0093 0.0450
H41 H 0.5523 -0.0677 0.0075
H42 H 0.6015 -0.1810 0.0313
C46 C 0.53298(15) -0.2297(4) 0.1186(2)
C47 C 0.5158(3) -0.3219(8) 0.0535(4)
H43 H 0.5047 -0.2585 0.0118
H44 H 0.4853 -0.3841 0.0571
H45 H 0.5462 -0.3837 0.0490
C48 C 0.5512(2) -0.3246(7) 0.1852(4)
H46 H 0.5239 -0.4005 0.1850
H47 H 0.5552 -0.2630 0.2274
H48 H 0.5860 -0.3708 0.1860
B2 B 0.49440(16) -0.0073(5) 0.1333(2)
loop_
_geom_bond_atom_site_label_1
_geom_bond_atom_site_label_2
_geom_bond_site_symmetry_1
_geom_bond_site_symmetry_2
O1 C19 1_555 1_555
O2 C22 1_555 1_555
C1 C2 1_555 1_555
C2 H1 1_555 1_555
C3 C2 1_555 1_555
H2 C3 1_555 1_555
C4 C3 1_555 1_555
H3 C4 1_555 1_555
C5 C4 1_555 1_555
H4 C5 1_555 1_555
C6 C1 1_555 1_555
C7 C6 1_555 1_555
C8 C7 1_555 1_555
N1 C1 1_555 1_555
C9 C8 1_555 1_555
H5 C9 1_555 1_555
C10 C9 1_555 1_555
H6 C10 1_555 1_555
C11 C10 1_555 1_555
H7 C11 1_555 1_555
C12 C7 1_555 1_555
H8 C12 1_555 1_555
C13 N1 1_555 1_555
C14 C13 1_555 1_555
H9 C14 1_555 1_555
C15 C14 1_555 1_555
H10 C15 1_555 1_555
C16 C15 1_555 1_555
C17 C16 1_555 1_555
H11 C17 1_555 1_555
C18 C13 1_555 1_555
H12 C18 1_555 1_555
C19 C20 1_555 1_555
C20 H13 1_555 1_555
H14 C20 1_555 1_555
H15 C20 1_555 1_555
C21 C19 1_555 1_555
H16 C21 1_555 1_555
H17 C21 1_555 1_555
H18 C21 1_555 1_555
C22 C19 1_555 1_555
C23 C22 1_555 1_555
H19 C23 1_555 1_555
H20 C23 1_555 1_555
H21 C23 1_555 1_555
C24 C22 1_555 1_555
H22 C24 1_555 1_555
H23 C24 1_555 1_555
H24 C24 1_555 1_555
B1 O1 1_555 1_555
O3 C46 1_555 1_555
O4 C43 1_555 1_555
C25 C26 1_555 1_555
C26 H25 1_555 1_555
C27 C26 1_555 1_555
H26 C27 1_555 1_555
C28 C27 1_555 1_555
H27 C28 1_555 1_555
C29 C28 1_555 1_555
H28 C29 1_555 1_555
C30 C25 1_555 1_555
N2 C25 1_555 1_555
C31 N2 1_555 1_555
C32 C30 1_555 1_555
C33 C32 1_555 1_555
H29 C33 1_555 1_555
C34 C33 1_555 1_555
H30 C34 1_555 1_555
C35 C34 1_555 1_555
H31 C35 1_555 1_555
C36 C31 1_555 1_555
H32 C36 1_555 1_555
C37 N2 1_555 1_555
C38 C37 1_555 1_555
H33 C38 1_555 1_555
C39 C38 1_555 1_555
H34 C39 1_555 1_555
C40 C39 1_555 1_555
C41 C40 1_555 1_555
H35 C41 1_555 1_555
C42 C37 1_555 1_555
H36 C42 1_555 1_555
C43 C44 1_555 1_555
C44 H37 1_555 1_555
H38 C44 1_555 1_555
H39 C44 1_555 1_555
C45 C43 1_555 1_555
H40 C45 1_555 1_555
H41 C45 1_555 1_555
H42 C45 1_555 1_555
C46 C43 1_555 1_555
C47 C46 1_555 1_555
H43 C47 1_555 1_555
H44 C47 1_555 1_555
H45 C47 1_555 1_555
C48 C46 1_555 1_555
H46 C48 1_555 1_555
H47 C48 1_555 1_555
H48 C48 1_555 1_555
B2 O3 1_555 1_555
O2 B1 1_555 1_555
C5 C6 1_555 1_555
C8 N1 1_555 1_555
C11 C12 1_555 1_555
C16 B1 1_555 1_555
C17 C18 1_555 1_555
O4 B2 1_555 1_555
C29 C30 1_555 1_555
C31 C32 1_555 1_555
C35 C36 1_555 1_555
C40 B2 1_555 1_555
C41 C42 1_555 1_555

#END
