
#######################################################################
#
#                 Cambridge Crystallographic Data Centre
#                                CCDC 
#
#######################################################################
#
# If this CIF has been generated from an entry in the Cambridge 
# Structural Database, then it will include bibliographic, chemical, 
# crystal, experimental, refinement or atomic coordinate data resulting 
# from the CCDC's data processing and validation procedures.
#
#######################################################################

data_UFUCEF
_chemical_formula_moiety         'C34 H56 O5,0.5(C1 H2 Cl2)'
_chemical_name_systematic        
'3,12-Di-O-acetylprotopanaxadiol dichloromethane solvate'
_symmetry_cell_setting           monoclinic
_symmetry_space_group_name_H-M   'P 21'
_symmetry_Int_Tables_number      4
_space_group_name_Hall           'P 2yb'
loop_
_symmetry_equiv_pos_site_id
_symmetry_equiv_pos_as_xyz
1 x,y,z
2 -x,1/2+y,-z
_cell_length_a                   11.2356(2)
_cell_length_b                   11.9742(3)
_cell_length_c                   24.8296(6)
_cell_angle_alpha                90
_cell_angle_beta                 93.4470(10)
_cell_angle_gamma                90
_cell_volume                     3334.46
_exptl_crystal_colour            colorless
_exptl_crystal_description       block
_cell_formula_units_Z            4
loop_
_atom_site_label
_atom_site_type_symbol
_atom_site_fract_x
_atom_site_fract_y
_atom_site_fract_z
O1 O 0.2625(2) -0.14305(19) 0.17300(9)
O2 O 0.1746(3) -0.1244(2) 0.25181(10)
O3 O 0.80305(16) 0.39979(16) 0.14084(8)
O4 O 0.87128(19) 0.3747(3) 0.22662(9)
O5 O 0.84688(19) 0.62930(19) 0.16603(8)
H1 H 0.8448 0.6728 0.1925
C1 C 0.5000(3) 0.0777(3) 0.17327(13)
H2 H 0.5873 0.0692 0.1713
H3 H 0.4857 0.1163 0.2075
C2 C 0.4435(3) -0.0379(3) 0.17410(14)
H4 H 0.4748 -0.0790 0.2066
H5 H 0.4650 -0.0805 0.1419
C3 C 0.3082(3) -0.0289(3) 0.17454(12)
H6 H 0.2870 0.0072 0.2090
C4 C 0.2498(3) 0.0366(3) 0.12685(13)
C5 C 0.3128(3) 0.1522(3) 0.12680(12)
H7 H 0.2966 0.1861 0.1624
C6 C 0.2579(3) 0.2343(3) 0.08495(13)
H8 H 0.2806 0.2121 0.0485
H9 H 0.1699 0.2313 0.0853
C7 C 0.3003(3) 0.3533(3) 0.09677(13)
H10 H 0.2709 0.3774 0.1317
H11 H 0.2649 0.4036 0.0685
C8 C 0.4369(2) 0.3654(2) 0.09901(11)
C9 C 0.4939(3) 0.2743(2) 0.13676(11)
H12 H 0.4669 0.2925 0.1734
C10 C 0.4518(2) 0.1512(3) 0.12574(12)
C11 C 0.6296(3) 0.2857(2) 0.14197(13)
H13 H 0.6608 0.2344 0.1707
H14 H 0.6617 0.2607 0.1077
C12 C 0.6778(2) 0.4026(2) 0.15480(11)
H15 H 0.6728 0.4193 0.1941
C13 C 0.6158(2) 0.4929(2) 0.12106(11)
H16 H 0.6355 0.4796 0.0828
C14 C 0.4778(2) 0.4812(3) 0.12298(11)
C15 C 0.4343(3) 0.5852(3) 0.09110(13)
H17 H 0.3590 0.6134 0.1048
H18 H 0.4205 0.5672 0.0523
C16 C 0.5341(3) 0.6728(3) 0.09957(15)
H19 H 0.5046 0.7384 0.1190
H20 H 0.5608 0.6981 0.0643
C17 C 0.6386(3) 0.6178(3) 0.13291(11)
H21 H 0.6239 0.6300 0.1718
C18 C 0.4759(3) 0.3546(3) 0.04001(12)
H22 H 0.4255 0.2993 0.0205
H23 H 0.5594 0.3305 0.0406
H24 H 0.4675 0.4270 0.0219
C19 C 0.4987(3) 0.1022(3) 0.07329(13)
H25 H 0.5778 0.1329 0.0677
H26 H 0.4438 0.1220 0.0426
H27 H 0.5040 0.0208 0.0764
C20 C 0.7636(3) 0.6667(3) 0.12361(12)
C21 C 0.7584(3) 0.7953(3) 0.12562(15)
H28 H 0.7210 0.8188 0.1584
H29 H 0.7114 0.8231 0.0939
H30 H 0.8394 0.8256 0.1258
C22 C 0.8142(3) 0.6262(3) 0.07112(12)
H31 H 0.8194 0.5437 0.0721
H32 H 0.7575 0.6467 0.0406
C23 C 0.9366(3) 0.6731(3) 0.06022(15)
H33 H 0.9264 0.7460 0.0418
H34 H 0.9820 0.6861 0.0951
C24 C 1.0074(3) 0.5971(3) 0.02620(14)
H35 H 0.9904 0.5197 0.0295
C25 C 1.0901(3) 0.6221(3) -0.00778(12)
C26 C 1.1562(3) 0.5337(3) -0.03657(15)
H36 H 1.1250 0.4600 -0.0276
H37 H 1.2412 0.5375 -0.0254
H38 H 1.1455 0.5457 -0.0756
C27 C 1.1282(5) 0.7393(4) -0.01960(19)
H39 H 1.0697 0.7921 -0.0066
H40 H 1.1334 0.7486 -0.0586
H41 H 1.2064 0.7539 -0.0013
C28 C 0.2517(4) -0.0295(3) 0.07405(14)
H42 H 0.3329 -0.0558 0.0691
H43 H 0.2254 0.0187 0.0437
H44 H 0.1980 -0.0938 0.0755
C29 C 0.1181(3) 0.0538(3) 0.13899(15)
H45 H 0.0809 -0.0188 0.1449
H46 H 0.0760 0.0913 0.1084
H47 H 0.1136 0.0999 0.1714
C30 C 0.4408(3) 0.4981(3) 0.18197(12)
H48 H 0.4532 0.5763 0.1925
H49 H 0.4895 0.4498 0.2064
H50 H 0.3564 0.4788 0.1841
C31 C 0.1971(3) -0.1790(3) 0.21293(13)
C32 C 0.1546(3) -0.2965(3) 0.20212(15)
H51 H 0.1749 -0.3432 0.2338
H52 H 0.1932 -0.3266 0.1709
H53 H 0.0679 -0.2964 0.1947
C33 C 0.8885(3) 0.3895(3) 0.17998(12)
C34 C 1.0101(3) 0.3979(3) 0.15762(13)
H54 H 1.0358 0.4761 0.1581
H55 H 1.0062 0.3700 0.1205
H56 H 1.0672 0.3532 0.1798
O6 O 0.21670(19) 1.26150(17) 0.33737(8)
O7 O 0.2039(3) 1.2697(3) 0.24712(11)
O8 O 0.76453(18) 0.71006(17) 0.34864(8)
O9 O 0.7940(3) 0.7399(2) 0.26130(10)
O10 O 0.7708(3) 0.49230(19) 0.31086(10)
H57 H 0.7822 0.4450 0.2867
C35 C 0.4544(3) 1.0403(2) 0.32676(12)
H58 H 0.5411 1.0480 0.3228
H59 H 0.4200 0.9992 0.2949
C36 C 0.3983(3) 1.1567(3) 0.32789(13)
H60 H 0.4372 1.2008 0.3577
H61 H 0.4111 1.1959 0.2936
C37 C 0.2662(3) 1.1484(2) 0.33554(13)
H62 H 0.2269 1.1075 0.3042
C38 C 0.2362(3) 1.0897(3) 0.38771(12)
C39 C 0.2981(3) 0.9732(3) 0.38656(12)
H63 H 0.2609 0.9359 0.3537
C40 C 0.2685(3) 0.8964(3) 0.43309(14)
H64 H 0.1827 0.9028 0.4396
H65 H 0.3149 0.9195 0.4664
C41 C 0.2981(3) 0.7749(3) 0.41984(14)
H66 H 0.2463 0.7505 0.3884
H67 H 0.2801 0.7271 0.4509
C42 C 0.4294(3) 0.7579(2) 0.40719(12)
C43 C 0.4672(2) 0.8477(2) 0.36588(11)
H68 H 0.4211 0.8290 0.3314
C44 C 0.4343(2) 0.9720(2) 0.37793(11)
C45 C 0.5981(3) 0.8325(2) 0.35389(12)
H69 H 0.6480 0.8562 0.3861
H70 H 0.6160 0.8833 0.3240
C46 C 0.6353(3) 0.7129(2) 0.33863(12)
H71 H 0.6134 0.6982 0.2996
C47 C 0.5841(3) 0.6227(2) 0.37332(12)
H72 H 0.6255 0.6271 0.4101
C48 C 0.4486(3) 0.6421(2) 0.37931(12)
C49 C 0.4166(3) 0.5373(3) 0.41187(14)
H73 H 0.3313 0.5179 0.4052
H74 H 0.4335 0.5494 0.4510
C50 C 0.4975(3) 0.4446(3) 0.39065(16)
H75 H 0.4488 0.3891 0.3696
H76 H 0.5402 0.4058 0.4213
C51 C 0.5885(3) 0.5003(2) 0.35422(13)
H77 H 0.5522 0.4984 0.3165
C52 C 0.5033(3) 0.7657(3) 0.46151(12)
H78 H 0.4760 0.8298 0.4820
H79 H 0.5877 0.7754 0.4548
H80 H 0.4931 0.6971 0.4822
C53 C 0.5119(3) 1.0222(3) 0.42515(13)
H81 H 0.5924 0.9906 0.4254
H82 H 0.4765 1.0046 0.4593
H83 H 0.5162 1.1035 0.4208
C54 C 0.7100(3) 0.4402(3) 0.35358(13)
C55 C 0.6866(4) 0.3171(3) 0.33845(17)
H84 H 0.6266 0.3131 0.3082
H85 H 0.6574 0.2773 0.3695
H86 H 0.7608 0.2825 0.3280
C56 C 0.7872(3) 0.4538(3) 0.40523(14)
H87 H 0.7399 0.4327 0.4360
H88 H 0.8089 0.5335 0.4095
C57 C 0.9017(3) 0.3841(3) 0.40764(17)
H89 H 0.8817 0.3058 0.4161
H90 H 0.9351 0.3849 0.3716
C58 C 0.9942(3) 0.4246(4) 0.44826(17)
H91 H 1.0245 0.4972 0.4419
C59 C 1.0406(4) 0.3735(5) 0.4924(2)
C60 C 1.1372(5) 0.4238(6) 0.5279(2)
H92 H 1.2109 0.3812 0.5248
H93 H 1.1145 0.4221 0.5654
H94 H 1.1498 0.5014 0.5170
C61 C 1.0014(5) 0.2565(6) 0.5097(2)
H95 H 0.9378 0.2292 0.4843
H96 H 0.9718 0.2603 0.5460
H97 H 1.0695 0.2054 0.5099
C62 C 0.2703(3) 1.1608(3) 0.43776(13)
H98 H 0.3539 1.1838 0.4370
H99 H 0.2594 1.1169 0.4704
H100 H 0.2193 1.2272 0.4378
C63 C 0.0999(3) 1.0726(3) 0.38532(16)
H101 H 0.0771 1.0381 0.4190
H102 H 0.0761 1.0239 0.3549
H103 H 0.0601 1.1451 0.3806
C64 C 0.3780(3) 0.6339(3) 0.32384(14)
H104 H 0.4211 0.6740 0.2966
H105 H 0.2989 0.6674 0.3264
H106 H 0.3693 0.5553 0.3134
C65 C 0.1886(3) 1.3113(3) 0.29009(14)
C66 C 0.1356(3) 1.4241(3) 0.29753(15)
H107 H 0.1738 1.4782 0.2744
H108 H 0.1484 1.4468 0.3354
H109 H 0.0499 1.4215 0.2877
C67 C 0.8330(3) 0.7205(3) 0.30705(14)
C68 C 0.9627(3) 0.7069(4) 0.32392(18)
H110 H 0.9887 0.6315 0.3147
H111 H 0.9745 0.7183 0.3630
H112 H 1.0095 0.7620 0.3051
C69 C 0.9137(6) 0.0723(9) 0.2579(3)
H113 H 0.9396 0.1502 0.2649
H114 H 0.9860 0.0248 0.2593
Cl1 Cl 0.8221(4) 0.0296(4) 0.30948(18)
Cl2 Cl 0.84525(14) 0.06474(19) 0.19428(7)
C70? C 0.8972(11) -0.0019(11) 0.2522(4)
H115? H 0.9831 -0.0192 0.2580
H116? H 0.8570 -0.0624 0.2309
Cl3? Cl 0.8285(10) 0.0215(14) 0.3151(5)
Cl4? Cl 0.8739(8) 0.1266(8) 0.2222(5)
loop_
_geom_bond_atom_site_label_1
_geom_bond_atom_site_label_2
_geom_bond_site_symmetry_1
_geom_bond_site_symmetry_2
O1 C3 1_555 1_555
O2 C31 1_555 1_555
O3 C12 1_555 1_555
O4 C33 1_555 1_555
O5 H1 1_555 1_555
C1 H2 1_555 1_555
H3 C1 1_555 1_555
C2 C1 1_555 1_555
H4 C2 1_555 1_555
H5 C2 1_555 1_555
C3 C2 1_555 1_555
H6 C3 1_555 1_555
C4 C3 1_555 1_555
C5 C4 1_555 1_555
H7 C5 1_555 1_555
C6 C5 1_555 1_555
H8 C6 1_555 1_555
H9 C6 1_555 1_555
C7 C6 1_555 1_555
H10 C7 1_555 1_555
H11 C7 1_555 1_555
C8 C7 1_555 1_555
C9 C8 1_555 1_555
H12 C9 1_555 1_555
C10 C1 1_555 1_555
C11 C9 1_555 1_555
H13 C11 1_555 1_555
H14 C11 1_555 1_555
C12 C11 1_555 1_555
H15 C12 1_555 1_555
C13 C12 1_555 1_555
H16 C13 1_555 1_555
C14 C8 1_555 1_555
C15 C14 1_555 1_555
H17 C15 1_555 1_555
H18 C15 1_555 1_555
C16 C15 1_555 1_555
H19 C16 1_555 1_555
H20 C16 1_555 1_555
C17 C13 1_555 1_555
H21 C17 1_555 1_555
C18 C8 1_555 1_555
H22 C18 1_555 1_555
H23 C18 1_555 1_555
H24 C18 1_555 1_555
C19 C10 1_555 1_555
H25 C19 1_555 1_555
H26 C19 1_555 1_555
H27 C19 1_555 1_555
C20 O5 1_555 1_555
C21 C20 1_555 1_555
H28 C21 1_555 1_555
H29 C21 1_555 1_555
H30 C21 1_555 1_555
C22 C20 1_555 1_555
H31 C22 1_555 1_555
H32 C22 1_555 1_555
C23 C22 1_555 1_555
H33 C23 1_555 1_555
H34 C23 1_555 1_555
C24 C23 1_555 1_555
H35 C24 1_555 1_555
C25 C24 1_555 1_555
C26 C25 1_555 1_555
H36 C26 1_555 1_555
H37 C26 1_555 1_555
H38 C26 1_555 1_555
C27 C25 1_555 1_555
H39 C27 1_555 1_555
H40 C27 1_555 1_555
H41 C27 1_555 1_555
C28 C4 1_555 1_555
H42 C28 1_555 1_555
H43 C28 1_555 1_555
H44 C28 1_555 1_555
C29 C4 1_555 1_555
H45 C29 1_555 1_555
H46 C29 1_555 1_555
H47 C29 1_555 1_555
C30 C14 1_555 1_555
H48 C30 1_555 1_555
H49 C30 1_555 1_555
H50 C30 1_555 1_555
C31 O1 1_555 1_555
C32 C31 1_555 1_555
H51 C32 1_555 1_555
H52 C32 1_555 1_555
H53 C32 1_555 1_555
C33 O3 1_555 1_555
C34 C33 1_555 1_555
H54 C34 1_555 1_555
H55 C34 1_555 1_555
H56 C34 1_555 1_555
O6 C37 1_555 1_555
O7 C65 1_555 1_555
O8 C46 1_555 1_555
O9 C67 1_555 1_555
O10 H57 1_555 1_555
C35 H58 1_555 1_555
H59 C35 1_555 1_555
C36 C35 1_555 1_555
H60 C36 1_555 1_555
H61 C36 1_555 1_555
C37 C36 1_555 1_555
H62 C37 1_555 1_555
C38 C37 1_555 1_555
C39 C38 1_555 1_555
H63 C39 1_555 1_555
C40 C39 1_555 1_555
H64 C40 1_555 1_555
H65 C40 1_555 1_555
C41 C40 1_555 1_555
H66 C41 1_555 1_555
H67 C41 1_555 1_555
C42 C41 1_555 1_555
C43 C42 1_555 1_555
H68 C43 1_555 1_555
C44 C35 1_555 1_555
C45 C43 1_555 1_555
H69 C45 1_555 1_555
H70 C45 1_555 1_555
C46 C45 1_555 1_555
H71 C46 1_555 1_555
C47 C46 1_555 1_555
H72 C47 1_555 1_555
C48 C42 1_555 1_555
C49 C48 1_555 1_555
H73 C49 1_555 1_555
H74 C49 1_555 1_555
C50 C49 1_555 1_555
H75 C50 1_555 1_555
H76 C50 1_555 1_555
C51 C47 1_555 1_555
H77 C51 1_555 1_555
C52 C42 1_555 1_555
H78 C52 1_555 1_555
H79 C52 1_555 1_555
H80 C52 1_555 1_555
C53 C44 1_555 1_555
H81 C53 1_555 1_555
H82 C53 1_555 1_555
H83 C53 1_555 1_555
C54 O10 1_555 1_555
C55 C54 1_555 1_555
H84 C55 1_555 1_555
H85 C55 1_555 1_555
H86 C55 1_555 1_555
C56 C54 1_555 1_555
H87 C56 1_555 1_555
H88 C56 1_555 1_555
C57 C56 1_555 1_555
H89 C57 1_555 1_555
H90 C57 1_555 1_555
C58 C57 1_555 1_555
H91 C58 1_555 1_555
C59 C58 1_555 1_555
C60 C59 1_555 1_555
H92 C60 1_555 1_555
H93 C60 1_555 1_555
H94 C60 1_555 1_555
C61 C59 1_555 1_555
H95 C61 1_555 1_555
H96 C61 1_555 1_555
H97 C61 1_555 1_555
C62 C38 1_555 1_555
H98 C62 1_555 1_555
H99 C62 1_555 1_555
H100 C62 1_555 1_555
C63 C38 1_555 1_555
H101 C63 1_555 1_555
H102 C63 1_555 1_555
H103 C63 1_555 1_555
C64 C48 1_555 1_555
H104 C64 1_555 1_555
H105 C64 1_555 1_555
H106 C64 1_555 1_555
C65 O6 1_555 1_555
C66 C65 1_555 1_555
H107 C66 1_555 1_555
H108 C66 1_555 1_555
H109 C66 1_555 1_555
C67 O8 1_555 1_555
C68 C67 1_555 1_555
H110 C68 1_555 1_555
H111 C68 1_555 1_555
H112 C68 1_555 1_555
C69 H113 1_555 1_555
H114 C69 1_555 1_555
Cl1 C69 1_555 1_555
Cl2 C69 1_555 1_555
C5 C10 1_555 1_555
C9 C10 1_555 1_555
C13 C14 1_555 1_555
C16 C17 1_555 1_555
C17 C20 1_555 1_555
C39 C44 1_555 1_555
C43 C44 1_555 1_555
C47 C48 1_555 1_555
C50 C51 1_555 1_555
C51 C54 1_555 1_555

#END
