
#######################################################################
#
#                 Cambridge Crystallographic Data Centre
#                                CCDC 
#
#######################################################################
#
# If this CIF has been generated from an entry in the Cambridge 
# Structural Database, then it will include bibliographic, chemical, 
# crystal, experimental, refinement or atomic coordinate data resulting 
# from the CCDC's data processing and validation procedures.
#
#######################################################################

data_UFUGAG
_chemical_formula_moiety         'C20 H17 N1 O4'
_chemical_name_systematic        
'methyl 4-[(1H-indol-3-yl)methyl]-2-oxo-3,4-dihydro-2H-1-benzopyran-3-carboxylate'
_symmetry_cell_setting           monoclinic
_symmetry_space_group_name_H-M   'P 21'
_symmetry_Int_Tables_number      4
_space_group_name_Hall           'P 2yb'
loop_
_symmetry_equiv_pos_site_id
_symmetry_equiv_pos_as_xyz
1 x,y,z
2 -x,1/2+y,-z
_cell_length_a                   6.6490(2)
_cell_length_b                   12.8665(4)
_cell_length_c                   9.6024(3)
_cell_angle_alpha                90
_cell_angle_beta                 91.4588(11)
_cell_angle_gamma                90
_cell_volume                     821.213
_exptl_crystal_colour            brown
_exptl_crystal_description       Plate
_cell_formula_units_Z            2
loop_
_atom_site_label
_atom_site_type_symbol
_atom_site_fract_x
_atom_site_fract_y
_atom_site_fract_z
O1 O 0.8509(3) 0.69150(15) 0.4432(2)
C1 C 0.8360(3) 0.7632(2) 0.5464(3)
C2 C 0.6268(3) 0.79149(19) 0.5921(2)
H1 H 0.6332 0.8602 0.6383
C3 C 0.4702(3) 0.79723(19) 0.4713(2)
H2 H 0.3351 0.7932 0.5119
C4 C 0.4953(3) 0.70348(19) 0.3797(2)
C5 C 0.3359(4) 0.6626(2) 0.2996(3)
H3 H 0.2086 0.6943 0.3024
C6 C 0.3625(5) 0.5762(3) 0.2160(3)
H4 H 0.2539 0.5498 0.1623
C7 C 0.5482(6) 0.5289(2) 0.2118(3)
H5 H 0.5656 0.4700 0.1555
C8 C 0.7087(5) 0.5674(2) 0.2895(3)
H6 H 0.8354 0.5351 0.2871
C9 C 0.6796(4) 0.6545(2) 0.3713(3)
O2 O 0.9873(2) 0.79582(19) 0.5995(2)
C10 C 0.5685(3) 0.71088(17) 0.6991(2)
O3 O 0.6543(3) 0.62987(14) 0.7180(2)
O4 O 0.4105(3) 0.74142(14) 0.76958(19)
C11 C 0.3423(5) 0.6697(2) 0.8747(3)
H7 H 0.3358 0.6001 0.8360
H8 H 0.2099 0.6904 0.9044
H9 H 0.4357 0.6707 0.9539
C12 C 0.4836(3) 0.90092(19) 0.3924(3)
H10 H 0.3880 0.8987 0.3131
H11 H 0.4401 0.9566 0.4545
C13 C 0.6868(3) 0.92949(18) 0.3387(2)
C14 C 0.8192(4) 0.9968(2) 0.4007(3)
H12 H 0.7993 1.0302 0.4863
N1 N 0.9850(3) 1.00900(17) 0.3213(2)
H13 H 1.0886 1.0478 0.3424
C15 C 0.9620(3) 0.95035(17) 0.2033(2)
C16 C 1.0844(4) 0.9427(2) 0.0881(3)
H14 H 1.2062 0.9795 0.0839
C17 C 1.0204(4) 0.8794(2) -0.0188(3)
H15 H 1.0996 0.8726 -0.0980
C18 C 0.8390(5) 0.8246(2) -0.0121(3)
H16 H 0.8004 0.7807 -0.0864
C19 C 0.7159(4) 0.8333(2) 0.1002(3)
H17 H 0.5939 0.7965 0.1026
C20 C 0.7758(3) 0.89803(18) 0.2110(2)
loop_
_geom_bond_atom_site_label_1
_geom_bond_atom_site_label_2
_geom_bond_site_symmetry_1
_geom_bond_site_symmetry_2
O1 C1 1_555 1_555
C1 C2 1_555 1_555
C2 H1 1_555 1_555
C3 C2 1_555 1_555
H2 C3 1_555 1_555
C4 C3 1_555 1_555
C5 C4 1_555 1_555
H3 C5 1_555 1_555
C6 C5 1_555 1_555
H4 C6 1_555 1_555
C7 C6 1_555 1_555
H5 C7 1_555 1_555
C8 C7 1_555 1_555
H6 C8 1_555 1_555
C9 O1 1_555 1_555
O2 C1 1_555 1_555
C10 C2 1_555 1_555
O3 C10 1_555 1_555
O4 C10 1_555 1_555
C11 O4 1_555 1_555
H7 C11 1_555 1_555
H8 C11 1_555 1_555
H9 C11 1_555 1_555
C12 C3 1_555 1_555
H10 C12 1_555 1_555
H11 C12 1_555 1_555
C13 C12 1_555 1_555
C14 C13 1_555 1_555
H12 C14 1_555 1_555
N1 C14 1_555 1_555
H13 N1 1_555 1_555
C15 N1 1_555 1_555
C16 C15 1_555 1_555
H14 C16 1_555 1_555
C17 C16 1_555 1_555
H15 C17 1_555 1_555
C18 C17 1_555 1_555
H16 C18 1_555 1_555
C19 C18 1_555 1_555
H17 C19 1_555 1_555
C20 C13 1_555 1_555
C4 C9 1_555 1_555
C8 C9 1_555 1_555
C15 C20 1_555 1_555
C19 C20 1_555 1_555

#END
