
#######################################################################
#
#                 Cambridge Crystallographic Data Centre
#                                CCDC 
#
#######################################################################
#
# If this CIF has been generated from an entry in the Cambridge 
# Structural Database, then it will include bibliographic, chemical, 
# crystal, experimental, refinement or atomic coordinate data resulting 
# from the CCDC's data processing and validation procedures.
#
#######################################################################

data_UFUWUN
_chemical_formula_moiety         'C11 H14 N1 P1'
_chemical_name_systematic        2-t-Butyl-1H-1,3-benzoazaphosphole
_symmetry_cell_setting           orthorhombic
_symmetry_space_group_name_H-M   'F d d 2'
_symmetry_Int_Tables_number      43
_space_group_name_Hall           'F 2 -2d'
loop_
_symmetry_equiv_pos_site_id
_symmetry_equiv_pos_as_xyz
1 x,y,z
2 -x,-y,z
3 1/4+x,1/4-y,1/4+z
4 1/4-x,1/4+y,1/4+z
5 x,1/2+y,1/2+z
6 -x,1/2-y,1/2+z
7 1/4+x,3/4-y,3/4+z
8 1/4-x,3/4+y,3/4+z
9 1/2+x,y,1/2+z
10 1/2-x,-y,1/2+z
11 3/4+x,1/4-y,3/4+z
12 3/4-x,1/4+y,3/4+z
13 1/2+x,1/2+y,z
14 1/2-x,1/2-y,z
15 3/4+x,3/4-y,1/4+z
16 3/4-x,3/4+y,1/4+z
_cell_length_a                   23.670(5)
_cell_length_b                   29.490(6)
_cell_length_c                   6.1850(10)
_cell_angle_alpha                90
_cell_angle_beta                 90
_cell_angle_gamma                90
_cell_volume                     4317.31
_exptl_crystal_colour            colorless
_exptl_crystal_description       prism
_cell_formula_units_Z            16
loop_
_atom_site_label
_atom_site_type_symbol
_atom_site_fract_x
_atom_site_fract_y
_atom_site_fract_z
C1 C 0.26443(10) 0.11137(9) 0.4710(6)
C2 C 0.23029(12) 0.15329(10) 0.5247(6)
C3 C 0.17204(14) 0.14081(11) 0.6043(7)
H1 H 0.15130(14) 0.16792(11) 0.6372(7)
H2 H 0.17526(14) 0.12255(11) 0.7322(7)
H3 H 0.15254(14) 0.12403(11) 0.4942(7)
C4 C 0.32291(11) 0.04604(10) 0.3540(6)
C5 C 0.35570(12) 0.01077(10) 0.2677(7)
H4 H 0.37084(12) 0.01340(10) 0.1296(7)
C6 C 0.36549(14) -0.02795(12) 0.3885(7)
H5 H 0.38766(14) -0.05112(12) 0.3318(7)
C7 C 0.34263(14) -0.03240(12) 0.5922(8)
H6 H 0.34928(14) -0.05885(12) 0.6700(8)
C8 C 0.31023(13) 0.00122(11) 0.6834(6)
H7 H 0.29522(13) -0.00191(11) 0.8216(6)
C9 C 0.30061(13) 0.04055(10) 0.5601(5)
C10 C 0.22511(14) 0.18363(11) 0.3258(6)
H8 H 0.26214(14) 0.19158(11) 0.2751(6)
H9 H 0.20478(14) 0.21068(11) 0.3632(6)
H10 H 0.20515(14) 0.16771(11) 0.2140(6)
C11 C 0.2619(2) 0.18055(11) 0.6996(7)
H11 H 0.2989(2) 0.18835(11) 0.6477(7)
H12 H 0.2653(2) 0.16253(11) 0.8282(7)
H13 H 0.2413(2) 0.20774(11) 0.7317(7)
N1 N 0.26844(12) 0.07735(10) 0.6220(6)
H14 H 0.2552(10) 0.0780(8) 0.7455(47)
P1 P 0.30131(4) 0.09920(3) 0.2402(2)
loop_
_geom_bond_atom_site_label_1
_geom_bond_atom_site_label_2
_geom_bond_site_symmetry_1
_geom_bond_site_symmetry_2
C1 C2 1_555 1_555
C2 C3 1_555 1_555
C3 H1 1_555 1_555
H2 C3 1_555 1_555
H3 C3 1_555 1_555
C4 C5 1_555 1_555
C5 H4 1_555 1_555
C6 C5 1_555 1_555
H5 C6 1_555 1_555
C7 C6 1_555 1_555
H6 C7 1_555 1_555
C8 C7 1_555 1_555
H7 C8 1_555 1_555
C9 C4 1_555 1_555
C10 C2 1_555 1_555
H8 C10 1_555 1_555
H9 C10 1_555 1_555
H10 C10 1_555 1_555
C11 C2 1_555 1_555
H11 C11 1_555 1_555
H12 C11 1_555 1_555
H13 C11 1_555 1_555
N1 C1 1_555 1_555
H14 N1 1_555 1_555
P1 C1 1_555 1_555
C4 P1 1_555 1_555
C8 C9 1_555 1_555
C9 N1 1_555 1_555

#END
