
#######################################################################
#
#                 Cambridge Crystallographic Data Centre
#                                CCDC 
#
#######################################################################
#
# If this CIF has been generated from an entry in the Cambridge 
# Structural Database, then it will include bibliographic, chemical, 
# crystal, experimental, refinement or atomic coordinate data resulting 
# from the CCDC's data processing and validation procedures.
#
#######################################################################

data_UFUYAW
_chemical_name_common            
"(12S,18S)-N12,N18-bis[(1S)-1-phenylethyl]-(2H,8H,12H,18H-(3,7),(13,17)-dimetheno-dinaphtho[2,1-j:1',2'-s][1,9]dioxacycloicosin-12,18-diamine) dihydrate"
_chemical_formula_moiety         'C52 H46 N2 O2,2(H2 O1)'
_chemical_name_systematic        
"(S,S,S,S)-N,N'-bis(1-phenylethyl)-13,21-dioxaheptacyclo[31.3.1.1^15,19^.0^3,12^.0^4,9^.0^22,31^.0^25,30^] octatriaconta-1(37),3,5,7,9,11,15(38),16,18,22,24,26,28,30,33,35-hexadecaene-2,32-diamine dihydrate"
_symmetry_cell_setting           orthorhombic
_symmetry_space_group_name_H-M   'P 21 21 21'
_symmetry_Int_Tables_number      19
_space_group_name_Hall           'P 2ac 2ab'
loop_
_symmetry_equiv_pos_site_id
_symmetry_equiv_pos_as_xyz
1 x,y,z
2 1/2-x,-y,1/2+z
3 -x,1/2+y,1/2-z
4 1/2+x,1/2-y,-z
_cell_length_a                   14.258(3)
_cell_length_b                   17.892(4)
_cell_length_c                   18.382(4)
_cell_angle_alpha                90
_cell_angle_beta                 90
_cell_angle_gamma                90
_cell_volume                     4689.32
_cell_formula_units_Z            4
loop_
_atom_site_label
_atom_site_type_symbol
_atom_site_fract_x
_atom_site_fract_y
_atom_site_fract_z
O1 O 0.7643(2) 0.37061(19) -0.09112(17)
O2 O 0.7805(2) 0.6578(2) -0.11768(17)
N1 N 0.6387(3) 0.3046(2) -0.1919(3)
N2 N 0.8747(2) 0.60408(19) -0.2479(2)
C1 C 0.8074(3) 0.3468(2) -0.2121(3)
C2 C 0.8783(3) 0.3356(2) -0.2653(3)
C3 C 0.8594(4) 0.3182(3) -0.3391(3)
H1 H 0.7972 0.3150 -0.3541
C4 C 0.9279(4) 0.3062(4) -0.3885(3)
H2 H 0.9125 0.2922 -0.4357
C5 C 1.0221(4) 0.3149(4) -0.3686(4)
H3 H 1.0693 0.3088 -0.4030
C6 C 1.0439(4) 0.3323(3) -0.2995(4)
H4 H 1.1067 0.3378 -0.2867
C7 C 0.9737(3) 0.3426(3) -0.2451(3)
C8 C 0.9969(3) 0.3587(3) -0.1736(4)
H5 H 1.0597 0.3643 -0.1611
C9 C 0.9306(3) 0.3667(3) -0.1213(3)
H6 H 0.9482 0.3759 -0.0734
C10 C 0.8354(3) 0.3611(2) -0.1398(3)
C11 C 0.7853(4) 0.3793(3) -0.0162(3)
H7 H 0.8350 0.3447 -0.0035
H8 H 0.7303 0.3656 0.0118
C12 C 0.8146(3) 0.4560(4) 0.0056(2)
C13 C 0.8694(4) 0.4684(5) 0.0671(3)
H9 H 0.8928 0.4277 0.0928
C14 C 0.8893(5) 0.5381(7) 0.0902(4)
H10 H 0.9262 0.5448 0.1314
C15 C 0.8556(5) 0.5994(5) 0.0535(4)
H11 H 0.8687 0.6473 0.0701
C16 C 0.8035(5) 0.5895(4) -0.0068(3)
C17 C 0.7841(4) 0.5187(3) -0.0305(3)
H12 H 0.7489 0.5128 -0.0727
C18 C 0.7641(6) 0.6580(4) -0.0428(3)
H13 H 0.6971 0.6603 -0.0340
H14 H 0.7924 0.7021 -0.0215
C19 C 0.7502(3) 0.7161(3) -0.1597(3)
C20 C 0.7210(4) 0.7828(4) -0.1292(4)
H15 H 0.7210 0.7880 -0.0788
C21 C 0.6926(4) 0.8404(4) -0.1710(5)
H16 H 0.6719 0.8844 -0.1493
C22 C 0.6940(3) 0.8342(3) -0.2480(5)
C23 C 0.6707(4) 0.8936(3) -0.2971(6)
H17 H 0.6519 0.9392 -0.2778
C24 C 0.6748(6) 0.8864(4) -0.3683(6)
H18 H 0.6579 0.9261 -0.3982
C25 C 0.7040(5) 0.8200(4) -0.3982(4)
H19 H 0.7076 0.8162 -0.4486
C26 C 0.7275(4) 0.7602(3) -0.3577(3)
H20 H 0.7456 0.7161 -0.3805
C27 C 0.7250(3) 0.7637(3) -0.2802(3)
C28 C 0.7506(3) 0.7039(2) -0.2338(2)
C29 C 0.7779(3) 0.6273(2) -0.2635(2)
H21 H 0.7735 0.6312 -0.3166
C30 C 0.7077(3) 0.5665(2) -0.2411(2)
C31 C 0.6145(3) 0.5829(2) -0.2271(2)
H22 H 0.5943 0.6323 -0.2279
C32 C 0.5515(3) 0.5266(3) -0.2122(3)
H23 H 0.4894 0.5387 -0.2022
C33 C 0.5790(3) 0.4527(2) -0.2117(2)
H24 H 0.5357 0.4152 -0.2020
C34 C 0.6716(3) 0.4352(2) -0.2257(2)
C35 C 0.7342(3) 0.4918(2) -0.2407(2)
H25 H 0.7963 0.4796 -0.2509
C36 C 0.7037(3) 0.3533(2) -0.2316(2)
H26 H 0.6984 0.3396 -0.2831
C37 C 0.6527(3) 0.2241(2) -0.2044(3)
H27 H 0.7177 0.2106 -0.1932
C38 C 0.5852(5) 0.1840(3) -0.1509(3)
H28 H 0.6040 0.1943 -0.1018
H29 H 0.5875 0.1310 -0.1594
H30 H 0.5224 0.2017 -0.1585
C39 C 0.6302(3) 0.2031(2) -0.2822(3)
C40 C 0.6843(4) 0.1509(4) -0.3193(4)
H31 H 0.7367 0.1307 -0.2965
C41 C 0.6630(6) 0.1289(4) -0.3865(6)
H32 H 0.7010 0.0938 -0.4094
C42 C 0.5862(6) 0.1566(5) -0.4229(4)
H33 H 0.5709 0.1405 -0.4695
C43 C 0.5322(5) 0.2103(4) -0.3865(4)
H34 H 0.4803 0.2312 -0.4095
C44 C 0.5551(3) 0.2319(3) -0.3187(3)
H35 H 0.5182 0.2678 -0.2958
C45 C 0.9454(3) 0.6443(2) -0.2904(2)
H36 H 0.9300 0.6977 -0.2911
C46 C 1.0412(3) 0.6336(3) -0.2556(3)
H37 H 1.0425 0.6584 -0.2092
H38 H 1.0886 0.6545 -0.2866
H39 H 1.0529 0.5812 -0.2489
C47 C 0.9470(3) 0.6149(3) -0.3676(2)
C48 C 0.9694(4) 0.6624(3) -0.4255(3)
H40 H 0.9796 0.7130 -0.4171
C49 C 0.9763(4) 0.6340(5) -0.4956(3)
H41 H 0.9912 0.6660 -0.5338
C50 C 0.9618(4) 0.5609(5) -0.5093(3)
H42 H 0.9674 0.5427 -0.5565
C51 C 0.9388(4) 0.5133(3) -0.4537(3)
H43 H 0.9277 0.4630 -0.4632
C52 C 0.9322(3) 0.5400(3) -0.3844(3)
H44 H 0.9172 0.5071 -0.3471
H45 H 0.644(4) 0.314(3) -0.149(3)
H46 H 0.887(3) 0.619(3) -0.204(3)
O3 O 0.6909(4) 0.9696(4) 0.9806(3)
O4 O 0.5918(9) 0.9531(9) 1.0406(8)
O5? O 0.7771(12) 1.0269(8) 0.9178(8)
loop_
_geom_bond_atom_site_label_1
_geom_bond_atom_site_label_2
_geom_bond_site_symmetry_1
_geom_bond_site_symmetry_2
O1 C10 1_555 1_555
O2 C18 1_555 1_555
N1 C36 1_555 1_555
N2 C29 1_555 1_555
C1 C2 1_555 1_555
C2 C3 1_555 1_555
C3 H1 1_555 1_555
C4 C3 1_555 1_555
H2 C4 1_555 1_555
C5 C4 1_555 1_555
H3 C5 1_555 1_555
C6 C5 1_555 1_555
H4 C6 1_555 1_555
C7 C2 1_555 1_555
C8 C7 1_555 1_555
H5 C8 1_555 1_555
C9 C8 1_555 1_555
H6 C9 1_555 1_555
C10 C1 1_555 1_555
C11 O1 1_555 1_555
H7 C11 1_555 1_555
H8 C11 1_555 1_555
C12 C11 1_555 1_555
C13 C12 1_555 1_555
H9 C13 1_555 1_555
C14 C13 1_555 1_555
H10 C14 1_555 1_555
C15 C14 1_555 1_555
H11 C15 1_555 1_555
C16 C15 1_555 1_555
C17 C12 1_555 1_555
H12 C17 1_555 1_555
C18 C16 1_555 1_555
H13 C18 1_555 1_555
H14 C18 1_555 1_555
C19 O2 1_555 1_555
C20 C19 1_555 1_555
H15 C20 1_555 1_555
C21 C20 1_555 1_555
H16 C21 1_555 1_555
C22 C21 1_555 1_555
C23 C22 1_555 1_555
H17 C23 1_555 1_555
C24 C23 1_555 1_555
H18 C24 1_555 1_555
C25 C24 1_555 1_555
H19 C25 1_555 1_555
C26 C25 1_555 1_555
H20 C26 1_555 1_555
C27 C22 1_555 1_555
C28 C19 1_555 1_555
C29 C28 1_555 1_555
H21 C29 1_555 1_555
C30 C29 1_555 1_555
C31 C30 1_555 1_555
H22 C31 1_555 1_555
C32 C31 1_555 1_555
H23 C32 1_555 1_555
C33 C32 1_555 1_555
H24 C33 1_555 1_555
C34 C33 1_555 1_555
C35 C30 1_555 1_555
H25 C35 1_555 1_555
C36 C1 1_555 1_555
H26 C36 1_555 1_555
C37 N1 1_555 1_555
H27 C37 1_555 1_555
C38 C37 1_555 1_555
H28 C38 1_555 1_555
H29 C38 1_555 1_555
H30 C38 1_555 1_555
C39 C37 1_555 1_555
C40 C39 1_555 1_555
H31 C40 1_555 1_555
C41 C40 1_555 1_555
H32 C41 1_555 1_555
C42 C41 1_555 1_555
H33 C42 1_555 1_555
C43 C42 1_555 1_555
H34 C43 1_555 1_555
C44 C39 1_555 1_555
H35 C44 1_555 1_555
C45 N2 1_555 1_555
H36 C45 1_555 1_555
C46 C45 1_555 1_555
H37 C46 1_555 1_555
H38 C46 1_555 1_555
H39 C46 1_555 1_555
C47 C45 1_555 1_555
C48 C47 1_555 1_555
H40 C48 1_555 1_555
C49 C48 1_555 1_555
H41 C49 1_555 1_555
C50 C49 1_555 1_555
H42 C50 1_555 1_555
C51 C50 1_555 1_555
H43 C51 1_555 1_555
C52 C47 1_555 1_555
H44 C52 1_555 1_555
H45 N1 1_555 1_555
H46 N2 1_555 1_555
C6 C7 1_555 1_555
C9 C10 1_555 1_555
C16 C17 1_555 1_555
C26 C27 1_555 1_555
C27 C28 1_555 1_555
C34 C35 1_555 1_555
C34 C36 1_555 1_555
C43 C44 1_555 1_555
C51 C52 1_555 1_555

#END
