
#######################################################################
#
#                 Cambridge Crystallographic Data Centre
#                                CCDC 
#
#######################################################################
#
# If this CIF has been generated from an entry in the Cambridge 
# Structural Database, then it will include bibliographic, chemical, 
# crystal, experimental, refinement or atomic coordinate data resulting 
# from the CCDC's data processing and validation procedures.
#
#######################################################################

data_UFUYAY
_chemical_formula_moiety         'C13 H27 B3 O6 Si1'
_chemical_name_systematic        
'[bis(1,3,2-dioxaborinan-2-yl)(1,3,2-dioxaborinan-2-yl)methyl](trimethyl)silane'
_symmetry_cell_setting           rhombohedral
_symmetry_space_group_name_H-M   'R -3'
_symmetry_Int_Tables_number      148
_space_group_name_Hall           '-R 3'
loop_
_symmetry_equiv_pos_site_id
_symmetry_equiv_pos_as_xyz
1 x,y,z
2 -y,x-y,z
3 -x+y,-x,z
4 2/3+x,1/3+y,1/3+z
5 2/3-y,1/3+x-y,1/3+z
6 2/3-x+y,1/3-x,1/3+z
7 1/3+x,2/3+y,2/3+z
8 1/3-y,2/3+x-y,2/3+z
9 1/3-x+y,2/3-x,2/3+z
10 -x,-y,-z
11 y,-x+y,-z
12 x-y,x,-z
13 1/3-x,2/3-y,2/3-z
14 1/3+y,2/3-x+y,2/3-z
15 1/3+x-y,2/3+x,2/3-z
16 2/3-x,1/3-y,1/3-z
17 2/3+y,1/3-x+y,1/3-z
18 2/3+x-y,1/3+x,1/3-z
_cell_length_a                   13.9278(5)
_cell_length_b                   13.9278(5)
_cell_length_c                   16.2145(8)
_cell_angle_alpha                90
_cell_angle_beta                 90
_cell_angle_gamma                120
_cell_volume                     2723.95
_exptl_crystal_colour            colorless
_exptl_crystal_description       chunk
_cell_formula_units_Z            6
loop_
_atom_site_label
_atom_site_type_symbol
_atom_site_fract_x
_atom_site_fract_y
_atom_site_fract_z
C1 C 0.6667 0.3333 0.55385(9)
C2 C 0.3870(4) 0.1668(3) 0.4363(3)
H1 H 0.3784 0.18 0.3775
H2 H 0.3262 0.167 0.4678
C3 C 0.38101(10) 0.05263(10) 0.44630(8)
H3 H 0.3065 -0.0084 0.4309
H4 H 0.4366 0.0489 0.4104
C4 C 0.40456(8) 0.04281(8) 0.53504(8)
H5 H 0.3468 0.0438 0.5701
H6 H 0.4021 -0.0287 0.544
C5 C 0.52719(8) 0.30009(9) 0.71066(6)
H7 H 0.4723 0.2236 0.6962
H8 H 0.5056 0.3509 0.6862
H9 H 0.5309 0.3085 0.7708
B1 B 0.55293(9) 0.23473(9) 0.52239(7)
O1 O 0.4913(6) 0.2523(6) 0.4661(5)
O2 O 0.51170(6) 0.13249(6) 0.55846(4)
Si1 Si 0.6667 0.3333 0.67007(3)
C2A C 0.8332(3) 0.2202(5) 0.4363(3)
H1A H 0.82 0.1984 0.3775
H2A H 0.833 0.1592 0.4678
C3A C 0.94737(10) 0.32838(14) 0.44630(8)
H3A H 1.0084 0.3149 0.4309
H4A H 0.9511 0.3877 0.4104
C4A C 0.95719(8) 0.36175(11) 0.53504(8)
H5A H 0.9562 0.3030 0.5701
H6A H 1.0287 0.4308 0.544
C5A C 0.69991(9) 0.22710(12) 0.71066(6)
H7A H 0.7764 0.2487 0.6962
H8A H 0.6491 0.1547 0.6862
H9A H 0.6915 0.2224 0.7708
B1A B 0.76527(9) 0.31820(13) 0.52239(7)
O1A O 0.7477(6) 0.2390(8) 0.4661(5)
O2A O 0.86751(6) 0.37921(8) 0.55846(4)
C2B C 0.7798(5) 0.6130(4) 0.4363(3)
H1B H 0.8016 0.6216 0.3775
H2B H 0.8408 0.6738 0.4678
C3B C 0.67162(14) 0.61899(10) 0.44630(8)
H3B H 0.6851 0.6935 0.4309
H4B H 0.6123 0.5634 0.4104
C4B C 0.63825(11) 0.59544(8) 0.53504(8)
H5B H 0.6970 0.6532 0.5701
H6B H 0.5692 0.5979 0.544
C5B C 0.77290(12) 0.47281(8) 0.71066(6)
H7B H 0.7513 0.5277 0.6962
H8B H 0.8453 0.4944 0.6862
H9B H 0.7776 0.4691 0.7708
B1B B 0.68180(13) 0.44707(9) 0.52239(7)
O1B O 0.7610(8) 0.5087(6) 0.4661(5)
O2B O 0.62079(8) 0.48830(6) 0.55846(4)
C6? C 0.4035(10) 0.1618(6) 0.4217(8)
H10? H 0.3398 0.1701 0.4386
H11? H 0.4075 0.1658 0.3607
H12? H 0.4261 0.0316 0.4116
H13? H 0.302 -0.0011 0.4351
O3? O 0.5056(10) 0.2569(9) 0.4549(8)
loop_
_geom_bond_atom_site_label_1
_geom_bond_atom_site_label_2
_geom_bond_site_symmetry_1
_geom_bond_site_symmetry_2
C1 B1 1_555 1_555
C2 H1 1_555 1_555
H2 C2 1_555 1_555
C3 C2 1_555 1_555
H3 C3 1_555 1_555
H4 C3 1_555 1_555
C4 C3 1_555 1_555
H5 C4 1_555 1_555
H6 C4 1_555 1_555
C5 H7 1_555 1_555
H8 C5 1_555 1_555
H9 C5 1_555 1_555
B1 O1 1_555 1_555
O1 C2 1_555 1_555
O2 C4 1_555 1_555
Si1 C1 1_555 1_555
C2A H1A 1_555 1_555
H2A C2A 1_555 1_555
C3A C2A 1_555 1_555
H3A C3A 1_555 1_555
H4A C3A 1_555 1_555
C4A C3A 1_555 1_555
H5A C4A 1_555 1_555
H6A C4A 1_555 1_555
C5A Si1 1_555 1_555
H7A C5A 1_555 1_555
H8A C5A 1_555 1_555
H9A C5A 1_555 1_555
B1A C1 1_555 1_555
O1A C2A 1_555 1_555
O2A C4A 1_555 1_555
C2B H1B 1_555 1_555
H2B C2B 1_555 1_555
C3B C2B 1_555 1_555
H3B C3B 1_555 1_555
H4B C3B 1_555 1_555
C4B C3B 1_555 1_555
H5B C4B 1_555 1_555
H6B C4B 1_555 1_555
C5B Si1 1_555 1_555
H7B C5B 1_555 1_555
H8B C5B 1_555 1_555
H9B C5B 1_555 1_555
B1B C1 1_555 1_555
O1B C2B 1_555 1_555
O2B C4B 1_555 1_555
C5 Si1 1_555 1_555
B1 O2 1_555 1_555
B1A O1A 1_555 1_555
B1A O2A 1_555 1_555
B1B O1B 1_555 1_555
B1B O2B 1_555 1_555

#END
