
#######################################################################
#
#                 Cambridge Crystallographic Data Centre
#                                CCDC 
#
#######################################################################
#
# If this CIF has been generated from an entry in the Cambridge 
# Structural Database, then it will include bibliographic, chemical, 
# crystal, experimental, refinement or atomic coordinate data resulting 
# from the CCDC's data processing and validation procedures.
#
#######################################################################

data_UFUZUT
_chemical_formula_moiety         'C22 H21 N1 O2'
_chemical_name_systematic        
N-benzyl-2-(4-methoxyphenyl)-2-phenylacetamide
_symmetry_cell_setting           monoclinic
_symmetry_space_group_name_H-M   'P 21'
_symmetry_Int_Tables_number      4
_space_group_name_Hall           'P 2yb'
loop_
_symmetry_equiv_pos_site_id
_symmetry_equiv_pos_as_xyz
1 x,y,z
2 -x,1/2+y,-z
_cell_length_a                   9.7539(8)
_cell_length_b                   10.5155(19)
_cell_length_c                   17.617(4)
_cell_angle_alpha                90
_cell_angle_beta                 102.660(9)
_cell_angle_gamma                90
_cell_volume                     1762.99
_exptl_crystal_colour            colorless
_exptl_crystal_description       block
_cell_formula_units_Z            4
loop_
_atom_site_label
_atom_site_type_symbol
_atom_site_fract_x
_atom_site_fract_y
_atom_site_fract_z
N1 N 0.1729(2) 0.3028(2) 0.33650(14)
H1 H 0.078(4) 0.302(3) 0.3267(18)
O1 O 0.2426(2) 0.96827(19) 0.24860(14)
C1 C 0.1236(3) 0.3685(3) 0.14435(15)
O2 O 0.36032(19) 0.3714(2) 0.29236(12)
C2 C 0.0039(3) 0.2995(3) 0.11096(17)
H2 H -0.0745 0.2998 0.1348
C3 C -0.0024(3) 0.2303(4) 0.04342(19)
H3 H -0.0852 0.1841 0.0212
C4 C 0.1118(3) 0.2280(4) 0.00775(19)
H4 H 0.1076 0.1799 -0.0383
C5 C 0.1289(3) 0.4366(3) 0.22089(16)
H5 H 0.0335 0.4277 0.2325
C6 C 0.2375(3) 0.3664(3) 0.10793(16)
H6 H 0.3200 0.4131 0.1297
C7 C 0.2311(3) 0.2966(3) 0.04016(18)
H7 H 0.3092 0.2960 0.0161
C8 C 0.1621(3) 0.5787(3) 0.22357(16)
C9 C 0.1767(3) 0.6499(3) 0.15948(17)
H8 H 0.1692 0.6084 0.1109
C10 C 0.2020(3) 0.7805(3) 0.16414(17)
H9 H 0.2107 0.8270 0.1192
C11 C 0.2145(3) 0.8418(3) 0.23528(18)
C12 C 0.1965(3) 0.7729(3) 0.29975(17)
H10 H 0.2020 0.8149 0.3481
C13 C 0.1707(3) 0.6436(3) 0.29384(17)
H11 H 0.1586 0.5979 0.3384
C14 C 0.2754(4) 1.0423(3) 0.1874(2)
H12 H 0.3560 1.0047 0.1708
H13 H 0.2985 1.1292 0.2058
H14 H 0.1942 1.0439 0.1433
C15 C 0.1755(3) 0.1585(3) 0.44672(17)
C16 C 0.2610(3) 0.2330(4) 0.4004(2)
H15 H 0.3222 0.2937 0.4353
H16 H 0.3223 0.1738 0.3793
C17 C 0.2320(3) 0.3677(3) 0.28648(15)
C18 C 0.1839(4) 0.1854(3) 0.5249(2)
H17 H 0.2410 0.2536 0.5492
C19 C 0.1078(5) 0.1116(5) 0.5679(2)
H18 H 0.1144 0.1293 0.6215
C20 C 0.0243(4) 0.0142(4) 0.5329(3)
H19 H -0.0279 -0.0349 0.5619
C21 C 0.0157(4) -0.0127(3) 0.4551(3)
H20 H -0.0422 -0.0802 0.4307
C22 C 0.0919(3) 0.0593(3) 0.4130(2)
H21 H 0.0865 0.0397 0.3598
N2 N 0.6679(2) 0.3009(2) 0.33264(14)
O3 O 0.7412(2) 0.9485(2) 0.22249(15)
O4 O 0.85275(18) 0.3350(2) 0.27691(12)
H22 H 0.575(4) 0.309(3) 0.327(2)
C23 C 0.6202(2) 0.3507(3) 0.13362(16)
C24 C 0.6102(3) 0.4162(3) 0.06392(17)
H23 H 0.6117 0.5065 0.0642
C25 C 0.5978(3) 0.3511(3) -0.00634(18)
H24 H 0.5901 0.3976 -0.0533
C26 C 0.5966(3) 0.2197(3) -0.00823(19)
H25 H 0.5892 0.1755 -0.0560
C27 C 0.6062(3) 0.1538(3) 0.0608(2)
H26 H 0.6060 0.0634 0.0604
C28 C 0.6161(3) 0.2181(3) 0.13028(17)
H27 H 0.6201 0.1710 0.1767
C29 C 0.6251(3) 0.4177(3) 0.21113(16)
H28 H 0.5293 0.4096 0.2223
C30 C 0.6593(3) 0.5589(3) 0.21284(16)
C31 C 0.7816(3) 0.6047(3) 0.19346(17)
H29 H 0.8446 0.5465 0.1778
C32 C 0.8131(3) 0.7336(3) 0.19653(17)
H30 H 0.8974 0.7629 0.1838
C33 C 0.7206(3) 0.8196(3) 0.21842(18)
C34 C 0.5987(3) 0.7750(3) 0.2372(2)
H31 H 0.5351 0.8336 0.2519
C35 C 0.5682(3) 0.6462(3) 0.23469(17)
H32 H 0.4842 0.6173 0.2481
C36 C 0.8681(3) 0.9956(3) 0.2060(2)
H33 H 0.8699 0.9770 0.1517
H34 H 0.9484 0.9544 0.2404
H35 H 0.8734 1.0877 0.2144
C37 C 0.7264(3) 0.3480(3) 0.27650(16)
C38 C 0.7512(3) 0.2293(3) 0.39807(19)
H36 H 0.7978 0.2893 0.4389
H37 H 0.8251 0.1807 0.3802
C39 C 0.6605(3) 0.1393(3) 0.43158(16)
C40 C 0.6414(3) 0.1563(3) 0.50668(18)
H38 H 0.6878 0.2246 0.5371
C41 C 0.5560(4) 0.0756(3) 0.5383(2)
H39 H 0.5444 0.0886 0.5899
C42 C 0.4885(4) -0.0230(3) 0.4945(2)
H40 H 0.4283 -0.0776 0.5152
C43 C 0.5084(4) -0.0426(3) 0.4200(2)
H41 H 0.4631 -0.1120 0.3901
C44 C 0.5940(3) 0.0383(3) 0.38864(19)
H42 H 0.6068 0.0242 0.3374
loop_
_geom_bond_atom_site_label_1
_geom_bond_atom_site_label_2
_geom_bond_site_symmetry_1
_geom_bond_site_symmetry_2
N1 H1 1_555 1_555
O1 C11 1_555 1_555
C1 C2 1_555 1_555
O2 C17 1_555 1_555
C2 H2 1_555 1_555
C3 C2 1_555 1_555
H3 C3 1_555 1_555
C4 C3 1_555 1_555
H4 C4 1_555 1_555
C5 C1 1_555 1_555
H5 C5 1_555 1_555
C6 C1 1_555 1_555
H6 C6 1_555 1_555
C7 C4 1_555 1_555
H7 C7 1_555 1_555
C8 C5 1_555 1_555
C9 C8 1_555 1_555
H8 C9 1_555 1_555
C10 C9 1_555 1_555
H9 C10 1_555 1_555
C11 C10 1_555 1_555
C12 C11 1_555 1_555
H10 C12 1_555 1_555
C13 C8 1_555 1_555
H11 C13 1_555 1_555
C14 O1 1_555 1_555
H12 C14 1_555 1_555
H13 C14 1_555 1_555
H14 C14 1_555 1_555
C15 C16 1_555 1_555
C16 N1 1_555 1_555
H15 C16 1_555 1_555
H16 C16 1_555 1_555
C17 N1 1_555 1_555
C18 C15 1_555 1_555
H17 C18 1_555 1_555
C19 C18 1_555 1_555
H18 C19 1_555 1_555
C20 C19 1_555 1_555
H19 C20 1_555 1_555
C21 C20 1_555 1_555
H20 C21 1_555 1_555
C22 C15 1_555 1_555
H21 C22 1_555 1_555
N2 H22 1_555 1_555
O3 C33 1_555 1_555
O4 C37 1_555 1_555
C23 C24 1_555 1_555
C24 H23 1_555 1_555
C25 C24 1_555 1_555
H24 C25 1_555 1_555
C26 C25 1_555 1_555
H25 C26 1_555 1_555
C27 C26 1_555 1_555
H26 C27 1_555 1_555
C28 C23 1_555 1_555
H27 C28 1_555 1_555
C29 C23 1_555 1_555
H28 C29 1_555 1_555
C30 C29 1_555 1_555
C31 C30 1_555 1_555
H29 C31 1_555 1_555
C32 C31 1_555 1_555
H30 C32 1_555 1_555
C33 C32 1_555 1_555
C34 C33 1_555 1_555
H31 C34 1_555 1_555
C35 C30 1_555 1_555
H32 C35 1_555 1_555
C36 O3 1_555 1_555
H33 C36 1_555 1_555
H34 C36 1_555 1_555
H35 C36 1_555 1_555
C37 N2 1_555 1_555
C38 N2 1_555 1_555
H36 C38 1_555 1_555
H37 C38 1_555 1_555
C39 C38 1_555 1_555
C40 C39 1_555 1_555
H38 C40 1_555 1_555
C41 C40 1_555 1_555
H39 C41 1_555 1_555
C42 C41 1_555 1_555
H40 C42 1_555 1_555
C43 C42 1_555 1_555
H41 C43 1_555 1_555
C44 C39 1_555 1_555
H42 C44 1_555 1_555
C5 C17 1_555 1_555
C6 C7 1_555 1_555
C12 C13 1_555 1_555
C21 C22 1_555 1_555
C27 C28 1_555 1_555
C29 C37 1_555 1_555
C34 C35 1_555 1_555
C43 C44 1_555 1_555

#END
