
#######################################################################
#
#                 Cambridge Crystallographic Data Centre
#                                CCDC 
#
#######################################################################
#
# If this CIF has been generated from an entry in the Cambridge 
# Structural Database, then it will include bibliographic, chemical, 
# crystal, experimental, refinement or atomic coordinate data resulting 
# from the CCDC's data processing and validation procedures.
#
#######################################################################

data_UGACAH
_chemical_formula_moiety         'C26 H37 N1 O6 S1'
_chemical_name_systematic        
2,3-bis(t-Butylperoxy)-1-(p-toluenesulfonyl)-3-phenylpiperidine
_symmetry_cell_setting           monoclinic
_symmetry_space_group_name_H-M   'P 21/c'
_symmetry_Int_Tables_number      14
_space_group_name_Hall           '-P 2ybc'
loop_
_symmetry_equiv_pos_site_id
_symmetry_equiv_pos_as_xyz
1 x,y,z
2 -x,1/2+y,1/2-z
3 -x,-y,-z
4 x,1/2-y,1/2+z
_cell_length_a                   10.472(2)
_cell_length_b                   29.329(6)
_cell_length_c                   8.9052(18)
_cell_angle_alpha                90
_cell_angle_beta                 96.42(3)
_cell_angle_gamma                90
_cell_volume                     2717.93
_chemical_melting_point          '149-151 deg.C'
_cell_formula_units_Z            4
_exptl_crystal_recrystallization_method 'ethyl acetate/dichloromethane'
loop_
_atom_site_label
_atom_site_type_symbol
_atom_site_fract_x
_atom_site_fract_y
_atom_site_fract_z
S1 S 0.3580(1) 0.4227(1) 0.5522(1)
O1 O 0.4911(2) 0.4104(1) 0.5631(3)
O2 O 0.3158(2) 0.4515(1) 0.6660(2)
O3 O 0.3453(2) 0.3491(1) 0.8350(2)
O4 O 0.4044(2) 0.3152(1) 0.9422(2)
O5 O 0.0617(2) 0.3518(1) 0.5833(2)
O6 O -0.0002(2) 0.3903(1) 0.5000(2)
N1 N 0.2678(2) 0.3773(1) 0.5442(3)
C1 C 0.2361(5) 0.5185(2) -0.0472(5)
C2 C 0.2660(3) 0.4943(1) 0.0995(4)
C3 C 0.3866(3) 0.4961(1) 0.1787(4)
C4 C 0.4159(3) 0.4735(1) 0.3142(4)
C5 C 0.3214(3) 0.4487(1) 0.3740(3)
C6 C 0.1988(3) 0.4471(1) 0.2984(4)
C7 C 0.1739(3) 0.4691(1) 0.1621(4)
C8 C 0.3029(3) 0.3382(1) 0.4537(3)
C9 C 0.3553(3) 0.2997(1) 0.5546(4)
C10 C 0.2627(3) 0.2871(1) 0.6681(3)
C11 C 0.2306(3) 0.3284(1) 0.7608(3)
C12 C 0.1803(3) 0.3678(1) 0.6550(3)
C13 C 0.1348(3) 0.3193(1) 0.8747(3)
C14 C 0.0487(3) 0.2836(1) 0.8608(4)
C15 C -0.0405(4) 0.2782(2) 0.9632(5)
C16 C -0.0459(4) 0.3077(2) 1.0798(5)
C17 C 0.0388(4) 0.3434(1) 1.0963(4)
C18 C 0.1280(3) 0.3492(1) 0.9937(4)
C19 C 0.5254(3) 0.3346(1) 1.0093(4)
C20 C 0.6148(4) 0.3404(2) 0.8911(4)
C21 C 0.4986(4) 0.3795(1) 1.0838(4)
C22 C 0.5702(4) 0.2988(1) 1.1253(4)
C23 C -0.1293(3) 0.3959(1) 0.5436(4)
C24 C -0.2057(4) 0.3526(2) 0.5108(5)
C25 C -0.1231(4) 0.4086(1) 0.7067(4)
C26 C -0.1791(4) 0.4347(2) 0.4425(5)
H1 H 0.1730(30) 0.5028(12) -0.1130(40)
H2 H 0.1810(30) 0.5410(12) -0.0410(40)
H3 H 0.3060(30) 0.5258(11) -0.1010(40)
H4 H 0.4502 0.5132 0.1399
H5 H 0.4985 0.4749 0.3646
H6 H 0.1339 0.4313 0.3393
H7 H 0.0921 0.4669 0.1100
H8 H 0.3670 0.3475 0.3893
H9 H 0.2277 0.3277 0.3893
H10 H 0.4371 0.3087 0.6082
H11 H 0.3699 0.2733 0.4933
H12 H 0.3011 0.2636 0.7353
H13 H 0.1843 0.2749 0.6148
H14 H 0.1740(30) 0.3946(11) 0.7180(30)
H15 H 0.0504 0.2629 0.7819
H16 H -0.0978 0.2539 0.9518
H17 H -0.1064 0.3037 1.1476
H18 H 0.0365 0.3637 1.1760
H19 H 0.1845 0.3737 1.0052
H20 H 0.6278 0.3115 0.8445
H21 H 0.6957 0.3520 0.9370
H22 H 0.5783 0.3616 0.8159
H23 H 0.4641 0.4008 1.0082
H24 H 0.5771 0.3913 1.1352
H25 H 0.4377 0.3747 1.1552
H26 H 0.5039 0.2932 1.1891
H27 H 0.6462 0.3093 1.1856
H28 H 0.5891 0.2710 1.0748
H29 H -0.2026 0.3440 0.4073
H30 H -0.2933 0.3577 0.5284
H31 H -0.1696 0.3287 0.5758
H32 H -0.0878 0.3836 0.7677
H33 H -0.2080 0.4153 0.7314
H34 H -0.0695 0.4349 0.7257
H35 H -0.1247 0.4608 0.4625
H36 H -0.2650 0.4422 0.4620
H37 H -0.1795 0.4258 0.3387
loop_
_geom_bond_atom_site_label_1
_geom_bond_atom_site_label_2
_geom_bond_site_symmetry_1
_geom_bond_site_symmetry_2
S1 O1 1_555 1_555
O2 S1 1_555 1_555
O3 O4 1_555 1_555
O4 C19 1_555 1_555
O5 O6 1_555 1_555
O6 C23 1_555 1_555
N1 S1 1_555 1_555
C1 C2 1_555 1_555
C2 C3 1_555 1_555
C3 C4 1_555 1_555
C4 C5 1_555 1_555
C5 S1 1_555 1_555
C6 C5 1_555 1_555
C7 C2 1_555 1_555
C8 N1 1_555 1_555
C9 C8 1_555 1_555
C10 C9 1_555 1_555
C11 O3 1_555 1_555
C12 O5 1_555 1_555
C13 C11 1_555 1_555
C14 C13 1_555 1_555
C15 C14 1_555 1_555
C16 C15 1_555 1_555
C17 C16 1_555 1_555
C18 C13 1_555 1_555
C19 C20 1_555 1_555
C20 H20 1_555 1_555
C21 C19 1_555 1_555
C22 C19 1_555 1_555
C23 C24 1_555 1_555
C24 H29 1_555 1_555
C25 C23 1_555 1_555
C26 C23 1_555 1_555
H1 C1 1_555 1_555
H2 C1 1_555 1_555
H3 C1 1_555 1_555
H4 C3 1_555 1_555
H5 C4 1_555 1_555
H6 C6 1_555 1_555
H7 C7 1_555 1_555
H8 C8 1_555 1_555
H9 C8 1_555 1_555
H10 C9 1_555 1_555
H11 C9 1_555 1_555
H12 C10 1_555 1_555
H13 C10 1_555 1_555
H14 C12 1_555 1_555
H15 C14 1_555 1_555
H16 C15 1_555 1_555
H17 C16 1_555 1_555
H18 C17 1_555 1_555
H19 C18 1_555 1_555
H21 C20 1_555 1_555
H22 C20 1_555 1_555
H23 C21 1_555 1_555
H24 C21 1_555 1_555
H25 C21 1_555 1_555
H26 C22 1_555 1_555
H27 C22 1_555 1_555
H28 C22 1_555 1_555
H30 C24 1_555 1_555
H31 C24 1_555 1_555
H32 C25 1_555 1_555
H33 C25 1_555 1_555
H34 C25 1_555 1_555
H35 C26 1_555 1_555
H36 C26 1_555 1_555
H37 C26 1_555 1_555
N1 C12 1_555 1_555
C6 C7 1_555 1_555
C10 C11 1_555 1_555
C11 C12 1_555 1_555
C17 C18 1_555 1_555

#END
