
#######################################################################
#
#                 Cambridge Crystallographic Data Centre
#                                CCDC 
#
#######################################################################
#
# If this CIF has been generated from an entry in the Cambridge 
# Structural Database, then it will include bibliographic, chemical, 
# crystal, experimental, refinement or atomic coordinate data resulting 
# from the CCDC's data processing and validation procedures.
#
#######################################################################

data_UGADIS
_chemical_formula_moiety         'C60 H52 B2 Cl2 N4'
_chemical_name_systematic        
5,10-dichloro-1,9-dimesityl-2,3,5,7,8,10-hexaphenyl-1,9-dihydrodiimidazo[1,2-c:2',1'-f][1,3,2,5]diazadiborinine-4,6-diium-5,10-diide
_symmetry_cell_setting           orthorhombic
_symmetry_space_group_name_H-M   'P 21 21 21'
_symmetry_Int_Tables_number      19
_space_group_name_Hall           'P 2ac 2ab'
loop_
_symmetry_equiv_pos_site_id
_symmetry_equiv_pos_as_xyz
1 x,y,z
2 1/2-x,-y,1/2+z
3 -x,1/2+y,1/2-z
4 1/2+x,1/2-y,-z
_cell_length_a                   13.2726(3)
_cell_length_b                   15.0907(4)
_cell_length_c                   24.9296(6)
_cell_angle_alpha                90
_cell_angle_beta                 90
_cell_angle_gamma                90
_cell_volume                     4993.22
_exptl_crystal_colour            colorless
_exptl_crystal_description       needle
_chemical_melting_point          '161 deg.C (dec.)'
_cell_formula_units_Z            4
_exptl_crystal_recrystallization_method toluene
loop_
_atom_site_label
_atom_site_type_symbol
_atom_site_fract_x
_atom_site_fract_y
_atom_site_fract_z
B1 B 0.2899(5) 0.9595(4) 0.1288(2)
B2 B 0.3437(4) 0.9146(4) 0.0074(2)
C1 C 0.2846(4) 1.0281(4) 0.0789(2)
C2 C 0.2951(4) 1.0823(4) -0.0046(2)
C3 C 0.2679(4) 1.1498(4) 0.0273(2)
C4 C 0.2979(4) 0.8622(4) 0.1033(2)
C5 C 0.3207(4) 0.7530(4) 0.0434(2)
C6 C 0.2990(4) 0.7145(4) 0.0911(2)
C7 C 0.3098(4) 1.0863(4) -0.0643(2)
C8 C 0.2263(5) 1.0809(4) -0.0972(2)
H1 H 0.16082 1.075231 -0.08223
C9 C 0.2396(6) 1.0841(5) -0.1534(2)
H2 H 0.182883 1.08218 -0.176649
C10 C 0.3362(6) 1.0900(5) -0.1744(3)
H3 H 0.345678 1.089002 -0.21215
C11 C 0.4183(6) 1.0973(5) -0.1411(3)
H4 H 0.48387 1.103325 -0.155898
C12 C 0.4052(5) 1.0959(4) -0.0855(2)
H5 H 0.461759 1.101533 -0.062334
C13 C 0.2471(4) 1.2426(4) 0.0126(2)
C14 C 0.1497(5) 1.2706(4) 0.0010(3)
H6 H 0.095066 1.230605 0.005478
C15 C 0.1311(6) 1.3564(5) -0.0170(3)
H7 H 0.064089 1.374643 -0.024708
C16 C 0.2092(6) 1.4141(5) -0.0237(3)
H8 H 0.196238 1.472955 -0.035378
C17 C 0.3064(6) 1.3878(5) -0.0136(3)
H9 H 0.36053 1.427991 -0.019042
C18 C 0.3256(5) 1.3021(4) 0.0048(3)
H10 H 0.392862 1.284221 0.011948
C19 C 0.2432(4) 1.1690(4) 0.1267(2)
C20 C 0.3245(5) 1.2069(4) 0.1524(2)
C21 C 0.4312(5) 1.1975(5) 0.1326(3)
H11 H 0.471002 1.164527 0.159069
H12 H 0.460763 1.256373 0.127445
H13 H 0.431388 1.165363 0.098441
C22 C 0.3055(6) 1.2592(4) 0.1977(2)
H14 H 0.360811 1.28456 0.216375
C23 C 0.2099(6) 1.2750(4) 0.2160(2)
C24 C 0.1924(8) 1.3384(6) 0.2630(3)
H15 H 0.215361 1.310496 0.296296
H16 H 0.120439 1.352096 0.265755
H17 H 0.23032 1.393272 0.256967
C25 C 0.1302(5) 1.2386(5) 0.1880(3)
H18 H 0.063672 1.250507 0.200045
C26 C 0.1432(4) 1.1847(4) 0.1427(2)
C27 C 0.0537(5) 1.1476(5) 0.1138(3)
H19 H 0.076579 1.109151 0.084587
H20 H 0.013454 1.196301 0.099018
H21 H 0.012475 1.113209 0.138901
C28 C 0.3483(5) 0.7039(4) -0.0071(2)
C29 C 0.2746(6) 0.6694(4) -0.0396(2)
H22 H 0.205546 0.679322 -0.031576
C30 C 0.3020(7) 0.6193(5) -0.0848(3)
H23 H 0.251735 0.59735 -0.108456
C31 C 0.4036(7) 0.6020(5) -0.0946(3)
H24 H 0.422351 0.566923 -0.124586
C32 C 0.4758(6) 0.6349(5) -0.0616(3)
H25 H 0.544878 0.62288 -0.068514
C33 C 0.4485(5) 0.6859(4) -0.0179(2)
H26 H 0.499345 0.708934 0.005003
C34 C 0.2836(5) 0.6200(4) 0.1037(2)
C35 C 0.1921(5) 0.5816(5) 0.0888(3)
H27 H 0.141283 0.61662 0.072388
C36 C 0.1755(6) 0.4929(5) 0.0981(3)
H28 H 0.11299 0.467405 0.087932
C37 C 0.2472(6) 0.4407(5) 0.1217(3)
H29 H 0.23501 0.379395 0.127351
C38 C 0.3375(6) 0.4783(5) 0.1373(3)
H30 H 0.38774 0.44281 0.153915
C39 C 0.3550(5) 0.5685(5) 0.1286(3)
H31 H 0.416576 0.594396 0.140031
C40 C 0.2690(4) 0.7637(4) 0.1845(2)
C41 C 0.3528(4) 0.7569(4) 0.2178(2)
C42 C 0.4583(4) 0.7733(4) 0.1989(2)
H32 H 0.45953 0.775272 0.159639
H33 H 0.502204 0.725344 0.211516
H34 H 0.482355 0.829903 0.2133
C43 C 0.3366(5) 0.7290(4) 0.2708(2)
H35 H 0.392326 0.726519 0.29469
C44 C 0.2427(5) 0.7051(5) 0.2894(2)
C45 C 0.2290(6) 0.6744(6) 0.3468(3)
H36 H 0.294219 0.656257 0.361531
H37 H 0.18234 0.624068 0.347631
H38 H 0.201431 0.723042 0.368321
C46 C 0.1621(5) 0.7100(5) 0.2544(2)
H39 H 0.097353 0.692705 0.266763
C47 C 0.1722(4) 0.7394(4) 0.2018(2)
C48 C 0.0812(4) 0.7448(5) 0.1666(3)
H40 H 0.045943 0.800775 0.173223
H41 H 0.036055 0.695108 0.174555
H42 H 0.101962 0.741981 0.128898
C49 C 0.3848(4) 0.9821(4) 0.1676(2)
C50 C 0.3758(4) 1.0060(4) 0.2214(2)
H43 H 0.310896 1.009656 0.237357
C51 C 0.4611(5) 1.0244(4) 0.2521(2)
H44 H 0.453499 1.041607 0.288586
C52 C 0.5558(5) 1.0182(4) 0.2304(3)
H45 H 0.613475 1.029665 0.251888
C53 C 0.5667(4) 0.9952(4) 0.1776(3)
H46 H 0.632133 0.991865 0.162259
C54 C 0.4822(5) 0.9767(4) 0.1461(2)
H47 H 0.490901 0.960348 0.109554
C55 C 0.2934(4) 0.8872(4) -0.0487(2)
C56 C 0.1882(5) 0.8764(4) -0.0506(2)
H48 H 0.149627 0.885665 -0.019033
C57 C 0.1397(5) 0.8523(5) -0.0978(3)
H49 H 0.068541 0.84545 -0.098292
C58 C 0.1944(5) 0.8384(5) -0.1438(3)
H50 H 0.161226 0.820095 -0.175758
C59 C 0.2979(5) 0.8509(4) -0.1438(2)
H51 H 0.335388 0.843926 -0.175951
C60 C 0.3464(5) 0.8738(4) -0.0964(2)
H52 H 0.417547 0.880433 -0.096394
Cl1 Cl 0.16566(10) 0.96521(10) 0.16628(5)
Cl2 Cl 0.48622(9) 0.92222(9) 0.00217(5)
N1 N 0.3053(3) 1.0061(3) 0.02731(17)
N2 N 0.2610(3) 1.1154(3) 0.07968(17)
N3 N 0.3197(3) 0.8443(3) 0.05139(18)
N4 N 0.2852(3) 0.7830(3) 0.12802(16)
loop_
_geom_bond_atom_site_label_1
_geom_bond_atom_site_label_2
_geom_bond_site_symmetry_1
_geom_bond_site_symmetry_2
B1 C1 1_555 1_555
B2 C55 1_555 1_555
C1 N1 1_555 1_555
C2 C3 1_555 1_555
C3 C13 1_555 1_555
C4 B1 1_555 1_555
C5 C6 1_555 1_555
C6 C34 1_555 1_555
C7 C2 1_555 1_555
C8 C7 1_555 1_555
H1 C8 1_555 1_555
C9 C8 1_555 1_555
H2 C9 1_555 1_555
C10 C9 1_555 1_555
H3 C10 1_555 1_555
C11 C10 1_555 1_555
H4 C11 1_555 1_555
C12 C7 1_555 1_555
H5 C12 1_555 1_555
C13 C14 1_555 1_555
C14 H6 1_555 1_555
C15 C14 1_555 1_555
H7 C15 1_555 1_555
C16 C15 1_555 1_555
H8 C16 1_555 1_555
C17 C16 1_555 1_555
H9 C17 1_555 1_555
C18 C13 1_555 1_555
H10 C18 1_555 1_555
C19 C20 1_555 1_555
C20 C21 1_555 1_555
C21 H11 1_555 1_555
H12 C21 1_555 1_555
H13 C21 1_555 1_555
C22 C20 1_555 1_555
H14 C22 1_555 1_555
C23 C22 1_555 1_555
C24 C23 1_555 1_555
H15 C24 1_555 1_555
H16 C24 1_555 1_555
H17 C24 1_555 1_555
C25 C23 1_555 1_555
H18 C25 1_555 1_555
C26 C19 1_555 1_555
C27 C26 1_555 1_555
H19 C27 1_555 1_555
H20 C27 1_555 1_555
H21 C27 1_555 1_555
C28 C5 1_555 1_555
C29 C28 1_555 1_555
H22 C29 1_555 1_555
C30 C29 1_555 1_555
H23 C30 1_555 1_555
C31 C30 1_555 1_555
H24 C31 1_555 1_555
C32 C31 1_555 1_555
H25 C32 1_555 1_555
C33 C28 1_555 1_555
H26 C33 1_555 1_555
C34 C35 1_555 1_555
C35 H27 1_555 1_555
C36 C35 1_555 1_555
H28 C36 1_555 1_555
C37 C36 1_555 1_555
H29 C37 1_555 1_555
C38 C37 1_555 1_555
H30 C38 1_555 1_555
C39 C34 1_555 1_555
H31 C39 1_555 1_555
C40 C41 1_555 1_555
C41 C42 1_555 1_555
C42 H32 1_555 1_555
H33 C42 1_555 1_555
H34 C42 1_555 1_555
C43 C41 1_555 1_555
H35 C43 1_555 1_555
C44 C43 1_555 1_555
C45 C44 1_555 1_555
H36 C45 1_555 1_555
H37 C45 1_555 1_555
H38 C45 1_555 1_555
C46 C44 1_555 1_555
H39 C46 1_555 1_555
C47 C40 1_555 1_555
C48 C47 1_555 1_555
H40 C48 1_555 1_555
H41 C48 1_555 1_555
H42 C48 1_555 1_555
C49 B1 1_555 1_555
C50 C49 1_555 1_555
H43 C50 1_555 1_555
C51 C50 1_555 1_555
H44 C51 1_555 1_555
C52 C51 1_555 1_555
H45 C52 1_555 1_555
C53 C52 1_555 1_555
H46 C53 1_555 1_555
C54 C49 1_555 1_555
H47 C54 1_555 1_555
C55 C56 1_555 1_555
C56 H48 1_555 1_555
C57 C56 1_555 1_555
H49 C57 1_555 1_555
C58 C57 1_555 1_555
H50 C58 1_555 1_555
C59 C58 1_555 1_555
H51 C59 1_555 1_555
C60 C55 1_555 1_555
H52 C60 1_555 1_555
Cl1 B1 1_555 1_555
Cl2 B2 1_555 1_555
N1 B2 1_555 1_555
N2 C1 1_555 1_555
N3 B2 1_555 1_555
N4 C4 1_555 1_555
C2 N1 1_555 1_555
C3 N2 1_555 1_555
C4 N3 1_555 1_555
C5 N3 1_555 1_555
C6 N4 1_555 1_555
C11 C12 1_555 1_555
C17 C18 1_555 1_555
C19 N2 1_555 1_555
C25 C26 1_555 1_555
C32 C33 1_555 1_555
C38 C39 1_555 1_555
C40 N4 1_555 1_555
C46 C47 1_555 1_555
C53 C54 1_555 1_555
C59 C60 1_555 1_555

#END
