
#######################################################################
#
#                 Cambridge Crystallographic Data Centre
#                                CCDC 
#
#######################################################################
#
# If this CIF has been generated from an entry in the Cambridge 
# Structural Database, then it will include bibliographic, chemical, 
# crystal, experimental, refinement or atomic coordinate data resulting 
# from the CCDC's data processing and validation procedures.
#
#######################################################################

data_UGAFAM
_chemical_formula_moiety         'C60 H55 B2 N5,0.5(C6 H6),0.25(C6 H14)'
_chemical_name_systematic        
"5-amino-10-hydrido-1,9-dimesityl-2,3,5,7,8,10-hexaphenyl-1,9-dihydrodiimidazo[1,2-c:2',1'-f][1,3,2,5]diazadiborinine-4,6-diium-5,10-diide benzene n-hexane solvate"
_symmetry_cell_setting           monoclinic
_symmetry_space_group_name_H-M   'C 2/c'
_symmetry_Int_Tables_number      15
_space_group_name_Hall           '-C 2yn'
loop_
_symmetry_equiv_pos_site_id
_symmetry_equiv_pos_as_xyz
1 x,y,z
2 -x,y,1/2-z
3 1/2+x,1/2+y,z
4 1/2-x,1/2+y,1/2-z
5 -x,-y,-z
6 x,-y,1/2+z
7 1/2-x,1/2-y,-z
8 1/2+x,1/2-y,1/2+z
_cell_length_a                   27.9185(11)
_cell_length_b                   22.0482(10)
_cell_length_c                   22.1114(11)
_cell_angle_alpha                90
_cell_angle_beta                 128.3298(11)
_cell_angle_gamma                90
_cell_volume                     10677
_exptl_crystal_colour            colorless
_exptl_crystal_description       block
_cell_formula_units_Z            8
loop_
_atom_site_label
_atom_site_type_symbol
_atom_site_fract_x
_atom_site_fract_y
_atom_site_fract_z
C61 C 0.25630(19) 0.25353(18) 0.0664(3)
H56 H 0.260174 0.256443 0.11214
C62 C 0.23624(19) 0.20051(18) 0.0249(3)
H57 H 0.227367 0.166285 0.04255
C63 C 0.22915(19) 0.19740(18) -0.0418(3)
H58 H 0.214113 0.161226 -0.071588
C61F C 0.24370(19) 0.24647(18) -0.0664(3)
H56F H 0.239826 0.243557 -0.11214
C62F C 0.26376(19) 0.29949(18) -0.0249(3)
H57F H 0.272633 0.333715 -0.04255
C63F C 0.27085(19) 0.30260(18) 0.0418(3)
H58F H 0.285887 0.338774 0.071588
B1 B 1.23488(16) 0.99132(18) 1.0944(2)
H1 H 1.2288(15) 1.0430(14) 1.1016(19)
C1 C 1.17447(13) 0.95457(15) 1.06651(18)
C2 C 1.07643(13) 0.92351(14) 0.99432(18)
C3 C 1.11079(13) 0.88556(15) 1.05567(18)
C4 C 1.08957(12) 0.83128(14) 1.07269(17)
C5 C 1.09928(14) 0.77401(15) 1.0567(2)
H2 H 1.120512 0.769657 1.036154
C6 C 1.07842(15) 0.72287(16) 1.0704(2)
H3 H 1.085328 0.683793 1.059044
C7 C 1.04785(15) 0.72850(16) 1.10023(19)
H4 H 1.03386 0.693446 1.110071
C8 C 1.03754(16) 0.78546(16) 1.1159(2)
H5 H 1.016071 0.789576 1.13618
C9 C 1.05827(14) 0.83670(15) 1.10223(19)
H6 H 1.050947 0.875728 1.113207
C10 C 1.0100(4) 0.9182(6) 0.9310(8)
C11 C 0.9801(4) 0.8647(6) 0.8924(8)
H7 H 1.001927 0.827411 0.909117
C12 C 0.9184(4) 0.8657(6) 0.8295(7)
H8 H 0.898008 0.82909 0.8032
C13 C 0.8865(4) 0.9202(7) 0.8051(7)
H9 H 0.844353 0.920863 0.762145
C14 C 0.9164(5) 0.9737(6) 0.8437(8)
H10 H 0.894616 1.010957 0.827007
C15 C 0.9781(5) 0.9727(6) 0.9066(8)
H11 H 0.998535 1.009279 0.932925
C16 C 1.10355(13) 1.00887(14) 0.94372(17)
C17 C 1.10138(14) 1.07087(15) 0.95524(19)
C18 C 1.09218(15) 1.10994(18) 0.8996(2)
H12 H 1.090841 1.152401 0.905697
C19 C 1.08489(17) 1.0886(2) 0.8352(2)
C20 C 1.08517(16) 1.02630(19) 0.8251(2)
H13 H 1.078515 1.011536 0.780039
C21 C 1.09488(14) 0.98570(17) 0.87893(19)
C22 C 1.09821(19) 0.91885(18) 0.8678(2)
H14 H 1.101671 0.912952 0.826672
H15 H 1.061138 0.898823 0.853481
H16 H 1.13397 0.901292 0.915836
C23 C 1.0770(2) 1.1329(2) 0.7768(3)
H17 H 1.075715 1.174479 0.791454
H18 H 1.038862 1.124021 0.725523
H19 H 1.111463 1.128826 0.775716
C24 C 1.10812(16) 1.09523(16) 1.0237(2)
H20 H 1.148729 1.113299 1.060197
H21 H 1.103174 1.062098 1.048934
H22 H 1.076864 1.126178 1.006506
C25 C 1.24970(13) 0.98149(15) 1.03478(19)
C26 C 1.2679(2) 0.9267(2) 1.0251(3)
H23 H 1.273539 0.893224 1.0559
C27 C 1.2783(3) 0.9189(3) 0.9716(4)
H24 H 1.291448 0.880548 0.967105
C28 C 1.26976(19) 0.9665(3) 0.9249(3)
H25 H 1.275132 0.961273 0.886759
C29 C 1.2534(2) 1.0210(2) 0.9357(3)
H26 H 1.247587 1.05475 0.905058
C30 C 1.24497(17) 1.02819(19) 0.9905(2)
H27 H 1.235421 1.06747 0.997947
C31 C 1.28800(14) 0.96608(16) 1.17876(19)
C32 C 1.38010(14) 0.95427(18) 1.2946(2)
C33 C 1.34152(14) 0.91143(16) 1.28710(19)
C34 C 1.35541(13) 0.86658(16) 1.34529(19)
C35 C 1.38272(15) 0.81094(18) 1.3534(2)
H28 H 1.391418 0.800946 1.319361
C36 C 1.39734(17) 0.77022(19) 1.4098(2)
H29 H 1.415808 0.73254 1.41434
C37 C 1.38511(16) 0.78429(17) 1.4596(2)
H30 H 1.39514 0.756295 1.498593
C38 C 1.35831(15) 0.83902(16) 1.4530(2)
H31 H 1.349864 0.84875 1.487434
C39 C 1.34378(14) 0.87958(17) 1.3965(2)
H32 H 1.325423 0.917212 1.392455
C40 C 1.44419(15) 0.9677(2) 1.3589(2)
C41 C 1.48746(17) 0.9209(2) 1.3914(2)
H33 H 1.475734 0.880752 1.371696
C42 C 1.54831(18) 0.9342(3) 1.4534(3)
H34 H 1.578068 0.902898 1.47543
C43 C 1.5656(2) 0.9921(3) 1.4829(3)
H35 H 1.606877 1.000516 1.525329
C44 C 1.52324(19) 1.0372(3) 1.4509(2)
H36 H 1.535299 1.077185 1.471104
C45 C 1.46337(17) 1.0258(2) 1.3899(2)
H37 H 1.434531 1.057927 1.36843
C46 C 1.3685(4) 1.0391(2) 1.2121(5)
C47 C 1.3533(3) 1.0957(3) 1.2232(4)
C48 C 1.3710(2) 1.1480(2) 1.2066(3)
H38 H 1.360609 1.186701 1.214215
C49 C 1.4039(2) 1.1436(2) 1.1788(3)
C50 C 1.4192(2) 1.0869(3) 1.1676(3)
H39 H 1.441664 1.083927 1.14865
C51 C 1.4015(3) 1.0347(2) 1.1843(5)
C52 C 1.4196(5) 0.9741(4) 1.1747(7)
H40 H 1.430072 0.947372 1.216761
H41 H 1.455086 0.9786 1.175893
H42 H 1.385567 0.956566 1.125244
C53 C 1.4219(3) 1.1997(3) 1.1585(4)
H43 H 1.385923 1.21668 1.110142
H44 H 1.452769 1.189217 1.152257
H45 H 1.438807 1.229702 1.199782
C54 C 1.3192(4) 1.0993(6) 1.2569(6)
H46 H 1.275318 1.094407 1.21547
H47 H 1.32687 1.138785 1.28178
H48 H 1.333655 1.066959 1.29507
B2 B 1.2262(3) 0.8748(3) 1.1816(4)
C55 C 1.2419(3) 0.8075(2) 1.1741(3)
C56 C 1.2508(3) 0.7605(2) 1.2225(3)
H49 H 1.24536 0.76832 1.260184
C57 C 1.2674(4) 0.7027(3) 1.2170(4)
H50 H 1.272553 0.671694 1.250485
C58 C 1.2764(3) 0.6893(3) 1.1643(3)
H51 H 1.289478 0.650107 1.162121
C59 C 1.2659(3) 0.7347(3) 1.1144(4)
H52 H 1.269597 0.726107 1.075414
C60 C 1.2497(3) 0.7932(3) 1.1205(4)
H53 H 1.243949 0.823826 1.086299
N1 N 1.2088(2) 0.8811(3) 1.2344(3)
H54 H 1.169864 0.886241 1.207149
H55 H 1.232704 0.902097 1.273749
N2 N 1.17153(11) 0.90553(12) 1.10049(15)
N3 N 1.11710(10) 0.96636(11) 1.00205(14)
N4 N 1.28412(11) 0.91981(13) 1.21487(15)
N5 N 1.34579(12) 0.98798(14) 1.22653(16)
C64? C 1.0111(5) 0.9333(7) 0.9286(9)
C65? C 0.9786(5) 0.8815(7) 0.8873(9)
H59? H 0.999387 0.843803 0.900621
C66? C 0.9166(6) 0.8839(7) 0.8274(8)
H60? H 0.895208 0.848099 0.799446
C67? C 0.8856(6) 0.9384(7) 0.8080(8)
H61? H 0.843318 0.940337 0.765605
C68? C 0.9160(6) 0.9894(7) 0.8498(9)
H62? H 0.894379 1.026349 0.838404
C69? C 0.9784(6) 0.9872(7) 0.9088(9)
H63? H 0.999312 1.023215 0.936415
C70? C 1.3656(7) 1.0368(5) 1.2048(11)
C71? C 1.3553(6) 1.0980(5) 1.2078(9)
C72? C 1.3818(5) 1.1416(4) 1.1916(7)
H64? H 1.374769 1.183458 1.193632
C73? C 1.4187(5) 1.1240(5) 1.1724(5)
C74? C 1.4290(5) 1.0628(6) 1.1693(7)
H65? H 1.454155 1.050808 1.156198
C75? C 1.4024(7) 1.0192(4) 1.1855(9)
C76? C 1.4147(9) 0.9529(7) 1.1823(13)
H66? H 1.423653 0.94757 1.146195
H67? H 1.378702 0.928828 1.164909
H68? H 1.449781 0.939272 1.233738
C77? C 1.4444(6) 1.1702(8) 1.1503(8)
H69? H 1.416706 1.205037 1.12637
H70? H 1.44901 1.152287 1.113615
H71? H 1.48434 1.183564 1.196427
C78? C 1.3157(6) 1.1194(4) 1.2319(7)
H72? H 1.329081 1.159757 1.255243
H73? H 1.320638 1.090699 1.269285
H74? H 1.272635 1.120957 1.186228
B3? B 1.2210(5) 0.8911(5) 1.1914(6)
C79? C 1.2340(3) 0.8205(2) 1.2003(4)
C80? C 1.2279(3) 0.7857(3) 1.2476(4)
H75? H 1.214946 0.804186 1.274189
C81? C 1.2406(4) 0.7240(3) 1.2561(4)
H76? H 1.23643 0.700255 1.288437
C82? C 1.2595(4) 0.6970(2) 1.2173(5)
H77? H 1.268249 0.654807 1.223063
C83? C 1.2657(4) 0.7317(3) 1.1700(5)
H78? H 1.278583 0.713288 1.143438
C84? C 1.2529(4) 0.7935(3) 1.1615(4)
H79? H 1.257099 0.817219 1.129189
N6? N 1.2037(3) 0.9162(4) 1.2404(4)
H80? H 1.231744 0.941472 1.273647
H81? H 1.166561 0.930281 1.209996
C85? C 0.9561(8) 0.2699(11) 0.1740(11)
H82? H 0.970842 0.297869 0.153687
H83? H 0.95933 0.227941 0.160902
C86? C 0.8914(8) 0.2838(13) 0.1377(14)
H84? H 0.886669 0.277042 0.178026
H85? H 0.886213 0.327861 0.12694
C87? C 0.8397(9) 0.2547(11) 0.0687(12)
H86? H 0.801808 0.271177 0.055804
H87? H 0.840961 0.262188 0.026015
H88? H 0.84142 0.210893 0.07758
C88? C 1.1055(8) 0.2784(11) 0.3900(9)
H89? H 1.148681 0.274441 0.412625
H90? H 1.098443 0.318482 0.40216
H91? H 1.094946 0.246954 0.411222
C89? C 1.0650(8) 0.2708(11) 0.3006(10)
H92? H 1.076134 0.302103 0.279182
H93? H 1.072633 0.230477 0.288257
C90? C 0.9966(8) 0.2767(8) 0.2630(9)
H94? H 0.989041 0.316816 0.275866
H95? H 0.985345 0.245083 0.284009
loop_
_geom_bond_atom_site_label_1
_geom_bond_atom_site_label_2
_geom_bond_site_symmetry_1
_geom_bond_site_symmetry_2
B1 H1 1_555 1_555
C1 B1 1_555 1_555
C2 C3 1_555 1_555
C3 C4 1_555 1_555
C4 C5 1_555 1_555
C5 H2 1_555 1_555
C6 C5 1_555 1_555
H3 C6 1_555 1_555
C7 C6 1_555 1_555
H4 C7 1_555 1_555
C8 C7 1_555 1_555
H5 C8 1_555 1_555
C9 C4 1_555 1_555
H6 C9 1_555 1_555
C10 C2 1_555 1_555
C11 C10 1_555 1_555
H7 C11 1_555 1_555
C12 C11 1_555 1_555
H8 C12 1_555 1_555
C13 C12 1_555 1_555
H9 C13 1_555 1_555
C14 C13 1_555 1_555
H10 C14 1_555 1_555
C15 C10 1_555 1_555
H11 C15 1_555 1_555
C16 C17 1_555 1_555
C17 C18 1_555 1_555
C18 H12 1_555 1_555
C19 C18 1_555 1_555
C20 C19 1_555 1_555
H13 C20 1_555 1_555
C21 C16 1_555 1_555
C22 C21 1_555 1_555
H14 C22 1_555 1_555
H15 C22 1_555 1_555
H16 C22 1_555 1_555
C23 C19 1_555 1_555
H17 C23 1_555 1_555
H18 C23 1_555 1_555
H19 C23 1_555 1_555
C24 C17 1_555 1_555
H20 C24 1_555 1_555
H21 C24 1_555 1_555
H22 C24 1_555 1_555
C25 B1 1_555 1_555
C26 C25 1_555 1_555
H23 C26 1_555 1_555
C27 C26 1_555 1_555
H24 C27 1_555 1_555
C28 C27 1_555 1_555
H25 C28 1_555 1_555
C29 C28 1_555 1_555
H26 C29 1_555 1_555
C30 C25 1_555 1_555
H27 C30 1_555 1_555
C31 B1 1_555 1_555
C32 C33 1_555 1_555
C33 C34 1_555 1_555
C34 C35 1_555 1_555
C35 H28 1_555 1_555
C36 C35 1_555 1_555
H29 C36 1_555 1_555
C37 C36 1_555 1_555
H30 C37 1_555 1_555
C38 C37 1_555 1_555
H31 C38 1_555 1_555
C39 C34 1_555 1_555
H32 C39 1_555 1_555
C40 C32 1_555 1_555
C41 C40 1_555 1_555
H33 C41 1_555 1_555
C42 C41 1_555 1_555
H34 C42 1_555 1_555
C43 C42 1_555 1_555
H35 C43 1_555 1_555
C44 C43 1_555 1_555
H36 C44 1_555 1_555
C45 C40 1_555 1_555
H37 C45 1_555 1_555
C46 C47 1_555 1_555
C47 C48 1_555 1_555
C48 H38 1_555 1_555
C49 C48 1_555 1_555
C50 C49 1_555 1_555
H39 C50 1_555 1_555
C51 C46 1_555 1_555
C52 C51 1_555 1_555
H40 C52 1_555 1_555
H41 C52 1_555 1_555
H42 C52 1_555 1_555
C53 C49 1_555 1_555
H43 C53 1_555 1_555
H44 C53 1_555 1_555
H45 C53 1_555 1_555
C54 C47 1_555 1_555
H46 C54 1_555 1_555
H47 C54 1_555 1_555
H48 C54 1_555 1_555
B2 C55 1_555 1_555
C55 C56 1_555 1_555
C56 H49 1_555 1_555
C57 C56 1_555 1_555
H50 C57 1_555 1_555
C58 C57 1_555 1_555
H51 C58 1_555 1_555
C59 C58 1_555 1_555
H52 C59 1_555 1_555
C60 C55 1_555 1_555
H53 C60 1_555 1_555
N1 B2 1_555 1_555
H54 N1 1_555 1_555
H55 N1 1_555 1_555
N2 C1 1_555 1_555
N3 C1 1_555 1_555
N4 C31 1_555 1_555
N5 C31 1_555 1_555
C61 H56 1_555 1_555
C62 C61 1_555 1_555
H57 C62 1_555 1_555
C63 C62 1_555 1_555
H58 C63 1_555 1_555
C61F C63 1_555 1_555
H56F C61F 1_555 1_555
C62F C61F 1_555 1_555
H57F C62F 1_555 1_555
C63F C61 1_555 1_555
H58F C63F 1_555 1_555
C2 N3 1_555 1_555
C3 N2 1_555 1_555
C8 C9 1_555 1_555
C14 C15 1_555 1_555
C16 N3 1_555 1_555
C20 C21 1_555 1_555
C29 C30 1_555 1_555
C32 N5 1_555 1_555
C33 N4 1_555 1_555
C38 C39 1_555 1_555
C44 C45 1_555 1_555
C46 N5 1_555 1_555
C50 C51 1_555 1_555
B2 N2 1_555 1_555
B2 N4 1_555 1_555
C59 C60 1_555 1_555
C62F C63F 1_555 1_555

#END
