
#######################################################################
#
#                 Cambridge Crystallographic Data Centre
#                                CCDC 
#
#######################################################################
#
# If this CIF has been generated from an entry in the Cambridge 
# Structural Database, then it will include bibliographic, chemical, 
# crystal, experimental, refinement or atomic coordinate data resulting 
# from the CCDC's data processing and validation procedures.
#
#######################################################################

data_UGAFUG
_chemical_formula_moiety         'C25 H20 O3'
_chemical_name_systematic        
2'-hydroxy-3',6'-diphenyl-3H-spiro[1-benzofuran-2,1'-cyclohex[3]en]-3-one
_symmetry_cell_setting           triclinic
_symmetry_space_group_name_H-M   'P -1'
_symmetry_Int_Tables_number      2
_space_group_name_Hall           '-P 1'
loop_
_symmetry_equiv_pos_site_id
_symmetry_equiv_pos_as_xyz
1 x,y,z
2 -x,-y,-z
_cell_length_a                   9.7293(6)
_cell_length_b                   10.3037(6)
_cell_length_c                   11.0457(7)
_cell_angle_alpha                78.297(2)
_cell_angle_beta                 64.000(2)
_cell_angle_gamma                74.493(2)
_cell_volume                     954.312
_exptl_crystal_colour            colorless
_exptl_crystal_description       Block
_cell_formula_units_Z            2
loop_
_atom_site_label
_atom_site_type_symbol
_atom_site_fract_x
_atom_site_fract_y
_atom_site_fract_z
O1 O 0.62198(8) 0.81638(7) 0.60746(7)
O2 O 0.97818(8) 0.61735(7) 0.40239(7)
O3 O 0.73649(8) 0.45098(7) 0.57994(7)
H1 H 0.828(2) 0.4330(17) 0.5875(17)
C1 C 0.69969(10) 0.69819(9) 0.53121(9)
C2 C 0.87419(11) 0.69164(9) 0.48435(9)
C3 C 0.88395(11) 0.78695(10) 0.56038(10)
C4 C 1.00951(12) 0.81454(11) 0.57457(11)
H2 H 1.1134 0.7673 0.5287
C5 C 0.97721(14) 0.91277(11) 0.65749(11)
H3 H 1.0596 0.9323 0.6705
C6 C 0.82366(14) 0.98379(11) 0.72252(11)
H4 H 0.8051 1.0521 0.7773
C7 C 0.69771(13) 0.95781(10) 0.70976(10)
H5 H 0.5941 1.0063 0.7542
C8 C 0.73195(12) 0.85675(9) 0.62812(9)
C9 C 0.65206(11) 0.57524(9) 0.63690(9)
H6 H 0.6758 0.5790 0.7154
C10 C 0.47884(11) 0.58053(9) 0.68745(9)
C11 C 0.40065(11) 0.64553(9) 0.61131(10)
H7 H 0.2937 0.6409 0.6451
C12 C 0.46866(11) 0.72507(9) 0.47691(10)
H8 H 0.4224 0.8224 0.4871
H9 H 0.4390 0.6981 0.4120
C13 C 0.64738(11) 0.70562(9) 0.41775(9)
H10 H 0.6910 0.6153 0.3813
C14 C 0.70644(10) 0.81010(9) 0.29923(9)
C15 C 0.68153(12) 0.94627(10) 0.31647(10)
H11 H 0.6311 0.9744 0.4052
C16 C 0.72966(12) 1.04144(10) 0.20538(11)
H12 H 0.7117 1.1338 0.2187
C17 C 0.80368(13) 1.00177(11) 0.07534(11)
H13 H 0.8368 1.0665 -0.0005
C18 C 0.82905(15) 0.86671(12) 0.05672(11)
H14 H 0.8796 0.8389 -0.0321
C19 C 0.78056(13) 0.77185(11) 0.16803(10)
H15 H 0.7983 0.6797 0.1542
C20 C 0.40132(11) 0.51174(10) 0.82448(10)
C21 C 0.48178(13) 0.39579(11) 0.87489(11)
H16 H 0.5884 0.3611 0.8216
C22 C 0.40700(14) 0.33090(12) 1.00243(11)
H17 H 0.4626 0.2518 1.0350
C23 C 0.25200(14) 0.38103(12) 1.08207(11)
H18 H 0.2007 0.3353 1.1681
C24 C 0.17204(13) 0.49836(12) 1.03559(11)
H19 H 0.0667 0.5345 1.0910
C25 C 0.24588(12) 0.56319(11) 0.90797(10)
H20 H 0.1902 0.6434 0.8770
loop_
_geom_bond_atom_site_label_1
_geom_bond_atom_site_label_2
_geom_bond_site_symmetry_1
_geom_bond_site_symmetry_2
O1 C1 1_555 1_555
O2 C2 1_555 1_555
O3 H1 1_555 1_555
C1 C2 1_555 1_555
C2 C3 1_555 1_555
C3 C4 1_555 1_555
C4 H2 1_555 1_555
C5 C4 1_555 1_555
H3 C5 1_555 1_555
C6 C5 1_555 1_555
H4 C6 1_555 1_555
C7 C6 1_555 1_555
H5 C7 1_555 1_555
C8 O1 1_555 1_555
C9 O3 1_555 1_555
H6 C9 1_555 1_555
C10 C9 1_555 1_555
C11 C10 1_555 1_555
H7 C11 1_555 1_555
C12 C11 1_555 1_555
H8 C12 1_555 1_555
H9 C12 1_555 1_555
C13 C1 1_555 1_555
H10 C13 1_555 1_555
C14 C13 1_555 1_555
C15 C14 1_555 1_555
H11 C15 1_555 1_555
C16 C15 1_555 1_555
H12 C16 1_555 1_555
C17 C16 1_555 1_555
H13 C17 1_555 1_555
C18 C17 1_555 1_555
H14 C18 1_555 1_555
C19 C14 1_555 1_555
H15 C19 1_555 1_555
C20 C10 1_555 1_555
C21 C20 1_555 1_555
H16 C21 1_555 1_555
C22 C21 1_555 1_555
H17 C22 1_555 1_555
C23 C22 1_555 1_555
H18 C23 1_555 1_555
C24 C23 1_555 1_555
H19 C24 1_555 1_555
C25 C20 1_555 1_555
H20 C25 1_555 1_555
C1 C9 1_555 1_555
C3 C8 1_555 1_555
C7 C8 1_555 1_555
C12 C13 1_555 1_555
C18 C19 1_555 1_555
C24 C25 1_555 1_555

#END
