
#######################################################################
#
#                 Cambridge Crystallographic Data Centre
#                                CCDC 
#
#######################################################################
#
# If this CIF has been generated from an entry in the Cambridge 
# Structural Database, then it will include bibliographic, chemical, 
# crystal, experimental, refinement or atomic coordinate data resulting 
# from the CCDC's data processing and validation procedures.
#
#######################################################################

data_UGAMUM
_chemical_formula_moiety         'C31 H22 N4'
_chemical_name_systematic        
9-(4-((2-(Pyridin-2-yl)-1H-benzimidazol-1-yl)methyl)phenyl)-9H-carbazole
_symmetry_cell_setting           monoclinic
_symmetry_space_group_name_H-M   'P 21/c'
_symmetry_Int_Tables_number      14
_space_group_name_Hall           '-P 2ybc'
loop_
_symmetry_equiv_pos_site_id
_symmetry_equiv_pos_as_xyz
1 x,y,z
2 -x,1/2+y,1/2-z
3 -x,-y,-z
4 x,1/2-y,1/2+z
_cell_length_a                   9.4419(8)
_cell_length_b                   33.151(3)
_cell_length_c                   7.7622(6)
_cell_angle_alpha                90
_cell_angle_beta                 101.9560(10)
_cell_angle_gamma                90
_cell_volume                     2376.93
_exptl_crystal_colour            colorless
_exptl_crystal_description       block
_cell_formula_units_Z            4
loop_
_atom_site_label
_atom_site_type_symbol
_atom_site_fract_x
_atom_site_fract_y
_atom_site_fract_z
C1 C -0.0901(2) 0.04856(8) 0.3218(3)
C2 C -0.1482(3) 0.08323(9) 0.3688(3)
H1 H -0.0891 0.1042 0.4284
C3 C -0.2957(4) 0.08658(11) 0.3266(4)
H2 H -0.3405 0.1101 0.3606
C4 C -0.3826(3) 0.05584(15) 0.2338(4)
H3 H -0.4848 0.0590 0.2037
C5 C -0.3191(3) 0.02122(11) 0.1868(4)
H4 H -0.3759 0.0003 0.1234
C6 C -0.1720(3) 0.01797(8) 0.2343(3)
C7 C 0.0463(3) -0.00235(6) 0.2739(3)
C8 C 0.1738(3) -0.02855(7) 0.2661(3)
C9 C 0.1523(3) -0.06637(9) 0.1857(3)
H5 H 0.0576 -0.0757 0.1359
C10 C 0.2713(5) -0.08959(9) 0.1804(4)
H6 H 0.2599 -0.1153 0.1248
C11 C 0.4044(4) -0.07604(12) 0.2539(5)
H7 H 0.4876 -0.0921 0.2527
C12 C 0.4173(3) -0.03952(10) 0.3287(4)
H8 H 0.5120 -0.0304 0.3799
C13 C 0.1786(2) 0.05998(6) 0.4276(3)
H9 H 0.2616 0.0424 0.4784
H10 H 0.1536 0.0761 0.5246
C14 C 0.2227(2) 0.08820(6) 0.2944(3)
C15 C 0.2807(3) 0.12583(7) 0.3457(3)
H11 H 0.2929 0.1339 0.4654
C16 C 0.3211(3) 0.15186(7) 0.2251(3)
H12 H 0.3604 0.1776 0.2621
C17 C 0.3043(2) 0.14049(6) 0.0511(3)
C18 C 0.2493(2) 0.10266(6) -0.0011(3)
H13 H 0.2397 0.0944 -0.1202
C19 C 0.2085(2) 0.07707(6) 0.1200(3)
H14 H 0.1699 0.0513 0.0828
C20 C 0.4792(3) 0.18219(6) -0.0783(3)
C21 C 0.6086(3) 0.17557(7) 0.0399(4)
H15 H 0.6125 0.1594 0.1419
C22 C 0.7320(3) 0.19334(8) 0.0041(4)
H16 H 0.8224 0.1892 0.0825
C23 C 0.7260(4) 0.21733(8) -0.1457(5)
H17 H 0.8122 0.2293 -0.1669
C24 C 0.5981(4) 0.22381(7) -0.2616(4)
H18 H 0.5954 0.2400 -0.3631
C25 C 0.4711(3) 0.20639(6) -0.2300(3)
C26 C 0.3220(3) 0.20666(6) -0.3222(3)
C27 C 0.2471(4) 0.22565(7) -0.4737(3)
H19 H 0.2971 0.2425 -0.5404
C28 C 0.1007(4) 0.21995(8) -0.5261(4)
H20 H 0.0495 0.2328 -0.6299
C29 C 0.0261(3) 0.19544(8) -0.4284(4)
H21 H -0.0754 0.1919 -0.4673
C30 C 0.0967(3) 0.17617(7) -0.2759(3)
H22 H 0.0457 0.1596 -0.2094
C31 C 0.2449(3) 0.18208(6) -0.2246(3)
N1 N 0.0547(2) 0.03479(5) 0.3488(2)
N2 N -0.0816(2) -0.01499(7) 0.2051(2)
N3 N 0.3074(2) -0.01505(6) 0.3369(3)
N4 N 0.3415(2) 0.16753(5) -0.0769(2)
loop_
_geom_bond_atom_site_label_1
_geom_bond_atom_site_label_2
_geom_bond_site_symmetry_1
_geom_bond_site_symmetry_2
C1 C2 1_555 1_555
C2 H1 1_555 1_555
C3 C2 1_555 1_555
H2 C3 1_555 1_555
C4 C3 1_555 1_555
H3 C4 1_555 1_555
C5 C4 1_555 1_555
H4 C5 1_555 1_555
C6 C1 1_555 1_555
C7 C8 1_555 1_555
C8 C9 1_555 1_555
C9 H5 1_555 1_555
C10 C9 1_555 1_555
H6 C10 1_555 1_555
C11 C10 1_555 1_555
H7 C11 1_555 1_555
C12 C11 1_555 1_555
H8 C12 1_555 1_555
C13 H9 1_555 1_555
H10 C13 1_555 1_555
C14 C13 1_555 1_555
C15 C14 1_555 1_555
H11 C15 1_555 1_555
C16 C15 1_555 1_555
H12 C16 1_555 1_555
C17 C16 1_555 1_555
C18 C17 1_555 1_555
H13 C18 1_555 1_555
C19 C14 1_555 1_555
H14 C19 1_555 1_555
C20 C21 1_555 1_555
C21 H15 1_555 1_555
C22 C21 1_555 1_555
H16 C22 1_555 1_555
C23 C22 1_555 1_555
H17 C23 1_555 1_555
C24 C23 1_555 1_555
H18 C24 1_555 1_555
C25 C20 1_555 1_555
C26 C25 1_555 1_555
C27 C26 1_555 1_555
H19 C27 1_555 1_555
C28 C27 1_555 1_555
H20 C28 1_555 1_555
C29 C28 1_555 1_555
H21 C29 1_555 1_555
C30 C29 1_555 1_555
H22 C30 1_555 1_555
C31 C26 1_555 1_555
N1 C1 1_555 1_555
N2 C6 1_555 1_555
N3 C8 1_555 1_555
N4 C17 1_555 1_555
C5 C6 1_555 1_555
C7 N1 1_555 1_555
C7 N2 1_555 1_555
C12 N3 1_555 1_555
C13 N1 1_555 1_555
C18 C19 1_555 1_555
C20 N4 1_555 1_555
C24 C25 1_555 1_555
C30 C31 1_555 1_555
C31 N4 1_555 1_555

#END
