
#######################################################################
#
#                 Cambridge Crystallographic Data Centre
#                                CCDC 
#
#######################################################################
#
# If this CIF has been generated from an entry in the Cambridge 
# Structural Database, then it will include bibliographic, chemical, 
# crystal, experimental, refinement or atomic coordinate data resulting 
# from the CCDC's data processing and validation procedures.
#
#######################################################################

data_UGAROM
_chemical_compound_source        
'Isolated from a medicinal Chinese herb, Clerodendrum trichotomum Thunberg.'
_chemical_name_common            '17-hydroxymandarone B unknown solvate'
_chemical_formula_moiety         'C20 H24 O5'
_chemical_name_systematic        
'7,11-dihydroxy-9-(hydroxymethyl)-4,4,11b-trimethyl-1,3,4,8,9,11b-hexahydrophenanthro[3,2-b]furan-6(2H)-one unknown solvate'
_symmetry_cell_setting           monoclinic
_symmetry_space_group_name_H-M   'C 2'
_symmetry_Int_Tables_number      5
_space_group_name_Hall           'C 2y'
loop_
_symmetry_equiv_pos_site_id
_symmetry_equiv_pos_as_xyz
1 x,y,z
2 -x,y,-z
3 1/2+x,1/2+y,z
4 1/2-x,1/2+y,-z
_cell_length_a                   19.3772(7)
_cell_length_b                   8.3180(3)
_cell_length_c                   11.8120(6)
_cell_angle_alpha                90
_cell_angle_beta                 109.092(3)
_cell_angle_gamma                90
_cell_volume                     1799.13
_exptl_crystal_colour            yellow
_exptl_crystal_description       block
_cell_formula_units_Z            4
loop_
_atom_site_label
_atom_site_type_symbol
_atom_site_fract_x
_atom_site_fract_y
_atom_site_fract_z
O1 O 0.63430(17) 0.1145(3) 0.6490(2)
O2 O 0.6238(2) 0.8217(3) 0.5498(2)
H1 H 0.6151 0.8959 0.5888
O3 O 0.64706(17) 0.8339(3) 0.7955(2)
O4 O 0.66010(14) 0.2810(3) 0.83658(17)
H2 H 0.6539 0.1988 0.7962
O5 O 0.5367(2) 0.8156(7) 0.9149(3)
H3 H 0.5212 0.8333 0.8426
C1 C 0.67489(17) 0.6180(5) 0.3922(3)
H4 H 0.6681 0.7304 0.4077
H5 H 0.7237 0.5873 0.4419
C2 C 0.6687(2) 0.5985(5) 0.2609(3)
H6 H 0.6210 0.6347 0.2104
H7 H 0.7054 0.6644 0.2437
C3 C 0.6793(2) 0.4264(6) 0.2337(3)
H8 H 0.7284 0.3938 0.2804
H9 H 0.6747 0.4171 0.1497
C4 C 0.6249(2) 0.3115(5) 0.2605(3)
C5 C 0.62357(14) 0.3445(4) 0.3880(2)
C6 C 0.62809(18) 0.2213(4) 0.4628(3)
H10 H 0.6277 0.1177 0.4330
C7 C 0.63362(15) 0.2394(4) 0.5873(2)
C8 C 0.64154(12) 0.3967(3) 0.6397(2)
C9 C 0.63380(12) 0.5333(3) 0.5651(2)
C10 C 0.61854(12) 0.5161(3) 0.4284(2)
C11 C 0.63478(17) 0.6842(4) 0.6156(3)
C12 C 0.64623(16) 0.6919(4) 0.7387(3)
C13 C 0.65605(13) 0.5618(4) 0.8131(2)
C14 C 0.65277(13) 0.4097(3) 0.7649(2)
C15 C 0.66328(17) 0.6180(5) 0.9371(2)
H11 H 0.7086 0.5809 0.9949
H12 H 0.6226 0.5815 0.9611
C16 C 0.6628(2) 0.8002(5) 0.9238(3)
H13 H 0.7110 0.8432 0.9693
C17 C 0.6043(3) 0.8844(6) 0.9633(3)
H14 H 0.6184 0.8806 1.0500
H15 H 0.6017 0.9964 0.9396
C18 C 0.6534(3) 0.1393(7) 0.2500(4)
H16 H 0.6996 0.1234 0.3115
H17 H 0.6592 0.1264 0.1728
H18 H 0.6189 0.0615 0.2590
C19 C 0.5485(3) 0.3259(8) 0.1661(3)
H19 H 0.5149 0.2579 0.1882
H20 H 0.5506 0.2934 0.0893
H21 H 0.5322 0.4354 0.1618
C20 C 0.53957(17) 0.5775(5) 0.3673(3)
H22 H 0.5056 0.5007 0.3790
H23 H 0.5309 0.5912 0.2831
H24 H 0.5333 0.6786 0.4019
loop_
_geom_bond_atom_site_label_1
_geom_bond_atom_site_label_2
_geom_bond_site_symmetry_1
_geom_bond_site_symmetry_2
O1 C7 1_555 1_555
O2 H1 1_555 1_555
O3 C12 1_555 1_555
O4 H2 1_555 1_555
O5 H3 1_555 1_555
C1 H4 1_555 1_555
H5 C1 1_555 1_555
C2 C1 1_555 1_555
H6 C2 1_555 1_555
H7 C2 1_555 1_555
C3 C2 1_555 1_555
H8 C3 1_555 1_555
H9 C3 1_555 1_555
C4 C3 1_555 1_555
C5 C4 1_555 1_555
C6 C5 1_555 1_555
H10 C6 1_555 1_555
C7 C6 1_555 1_555
C8 C7 1_555 1_555
C9 C8 1_555 1_555
C10 C1 1_555 1_555
C11 O2 1_555 1_555
C12 C11 1_555 1_555
C13 C12 1_555 1_555
C14 O4 1_555 1_555
C15 C13 1_555 1_555
H11 C15 1_555 1_555
H12 C15 1_555 1_555
C16 O3 1_555 1_555
H13 C16 1_555 1_555
C17 O5 1_555 1_555
H14 C17 1_555 1_555
H15 C17 1_555 1_555
C18 C4 1_555 1_555
H16 C18 1_555 1_555
H17 C18 1_555 1_555
H18 C18 1_555 1_555
C19 C4 1_555 1_555
H19 C19 1_555 1_555
H20 C19 1_555 1_555
H21 C19 1_555 1_555
C20 C10 1_555 1_555
H22 C20 1_555 1_555
H23 C20 1_555 1_555
H24 C20 1_555 1_555
C5 C10 1_555 1_555
C8 C14 1_555 1_555
C9 C10 1_555 1_555
C9 C11 1_555 1_555
C13 C14 1_555 1_555
C15 C16 1_555 1_555
C16 C17 1_555 1_555

#END
