
#######################################################################
#
#                 Cambridge Crystallographic Data Centre
#                                CCDC 
#
#######################################################################
#
# If this CIF has been generated from an entry in the Cambridge 
# Structural Database, then it will include bibliographic, chemical, 
# crystal, experimental, refinement or atomic coordinate data resulting 
# from the CCDC's data processing and validation procedures.
#
#######################################################################

data_UGAREC
_chemical_formula_moiety         'C20 H22 O5'
_chemical_name_systematic        
7,11-dihydroxy-4,4,9,11b-tetramethyl-1,4a,5,11b-tetrahydrophenanthro[3,2-b]furan-3,6(2H,4H)-dione
_symmetry_cell_setting           orthorhombic
_symmetry_space_group_name_H-M   'P 21 21 21'
_symmetry_Int_Tables_number      19
_space_group_name_Hall           'P 2ac 2ab'
loop_
_symmetry_equiv_pos_site_id
_symmetry_equiv_pos_as_xyz
1 x,y,z
2 1/2+x,1/2-y,-z
3 -x,1/2+y,1/2-z
4 1/2-x,-y,1/2+z
_cell_length_a                   8.22140(10)
_cell_length_b                   10.0997(2)
_cell_length_c                   20.3117(4)
_cell_angle_alpha                90
_cell_angle_beta                 90
_cell_angle_gamma                90
_cell_volume                     1686.56
_exptl_crystal_colour            yellow
_exptl_crystal_description       block
_cell_formula_units_Z            4
loop_
_atom_site_label
_atom_site_type_symbol
_atom_site_fract_x
_atom_site_fract_y
_atom_site_fract_z
O1 O 0.1162(3) 0.6772(2) -0.04028(11)
O2 O -0.16344(18) 0.17247(18) 0.16958(9)
O3 O 0.00083(19) -0.03184(16) 0.19439(9)
H1 H -0.0822 0.0122 0.1898
O4 O 0.55018(17) 0.24495(17) 0.11373(10)
H2 H 0.6274 0.2116 0.1332
O5 O 0.55485(16) -0.01727(14) 0.16455(7)
C1 C 0.3299(3) 0.3914(2) 0.02936(12)
H3 H 0.4445 0.3721 0.0353
H4 H 0.2849 0.3249 0.0001
C2 C 0.3118(4) 0.5283(3) -0.00265(14)
H5 H 0.3867 0.5883 0.0191
H6 H 0.3460 0.5211 -0.0482
C3 C 0.1478(4) 0.5894(2) -0.00147(11)
C4 C 0.0222(3) 0.5493(2) 0.05061(11)
C5 C 0.0622(2) 0.41191(19) 0.08111(10)
H7 H 0.0333 0.3479 0.0468
C6 C -0.0480(3) 0.3779(2) 0.13870(12)
H8 H -0.0148 0.4276 0.1773
H9 H -0.1592 0.4019 0.1282
C7 C -0.0386(2) 0.2343(2) 0.15280(10)
C8 C 0.1181(2) 0.1697(2) 0.14886(10)
C9 C 0.2588(2) 0.24182(19) 0.12584(9)
C10 C 0.2429(2) 0.38269(19) 0.09689(10)
C11 C 0.4095(2) 0.18274(19) 0.13219(10)
C12 C 0.4154(2) 0.0543(2) 0.15761(10)
C13 C 0.2830(2) -0.0191(2) 0.17810(10)
C14 C 0.1299(2) 0.0388(2) 0.17364(10)
C15 C 0.3474(3) -0.1447(2) 0.19906(10)
H10 H 0.2885 -0.2155 0.2161
C16 C 0.5082(3) -0.1398(2) 0.18935(10)
C17 C 0.6412(3) -0.2380(2) 0.19616(13)
H11 H 0.6839 -0.2591 0.1534
H12 H 0.5997 -0.3170 0.2164
H13 H 0.7262 -0.2016 0.2231
C18 C -0.1459(3) 0.5420(3) 0.01700(14)
H14 H -0.1476 0.4691 -0.0133
H15 H -0.1661 0.6230 -0.0064
H16 H -0.2286 0.5295 0.0498
C19 C 0.0175(4) 0.6644(2) 0.10102(13)
H17 H -0.0384 0.6360 0.1400
H18 H -0.0386 0.7386 0.0821
H19 H 0.1266 0.6899 0.1121
C20 C 0.3188(3) 0.4787(2) 0.14730(13)
H20 H 0.2495 0.4849 0.1852
H21 H 0.3303 0.5647 0.1277
H22 H 0.4237 0.4464 0.1604
loop_
_geom_bond_atom_site_label_1
_geom_bond_atom_site_label_2
_geom_bond_site_symmetry_1
_geom_bond_site_symmetry_2
O1 C3 1_555 1_555
O2 C7 1_555 1_555
O3 H1 1_555 1_555
O4 H2 1_555 1_555
O5 C12 1_555 1_555
C1 H3 1_555 1_555
H4 C1 1_555 1_555
C2 C1 1_555 1_555
H5 C2 1_555 1_555
H6 C2 1_555 1_555
C3 C2 1_555 1_555
C4 C3 1_555 1_555
C5 C4 1_555 1_555
H7 C5 1_555 1_555
C6 C5 1_555 1_555
H8 C6 1_555 1_555
H9 C6 1_555 1_555
C7 C6 1_555 1_555
C8 C7 1_555 1_555
C9 C8 1_555 1_555
C10 C1 1_555 1_555
C11 O4 1_555 1_555
C12 C11 1_555 1_555
C13 C12 1_555 1_555
C14 O3 1_555 1_555
C15 C13 1_555 1_555
H10 C15 1_555 1_555
C16 O5 1_555 1_555
C17 C16 1_555 1_555
H11 C17 1_555 1_555
H12 C17 1_555 1_555
H13 C17 1_555 1_555
C18 C4 1_555 1_555
H14 C18 1_555 1_555
H15 C18 1_555 1_555
H16 C18 1_555 1_555
C19 C4 1_555 1_555
H17 C19 1_555 1_555
H18 C19 1_555 1_555
H19 C19 1_555 1_555
C20 C10 1_555 1_555
H20 C20 1_555 1_555
H21 C20 1_555 1_555
H22 C20 1_555 1_555
C5 C10 1_555 1_555
C8 C14 1_555 1_555
C9 C10 1_555 1_555
C9 C11 1_555 1_555
C13 C14 1_555 1_555
C15 C16 1_555 1_555

#END
