
#######################################################################
#
#                 Cambridge Crystallographic Data Centre
#                                CCDC 
#
#######################################################################
#
# If this CIF has been generated from an entry in the Cambridge 
# Structural Database, then it will include bibliographic, chemical, 
# crystal, experimental, refinement or atomic coordinate data resulting 
# from the CCDC's data processing and validation procedures.
#
#######################################################################

data_UGAVUW01
_chemical_formula_moiety         'C4 H6 N6 O6'
_chemical_name_systematic        
4-(dinitromethylidene)-1-nitro-1,3,5-triazinane
_symmetry_cell_setting           orthorhombic
_symmetry_space_group_name_H-M   'P b c a'
_symmetry_Int_Tables_number      61
_space_group_name_Hall           '-P 2ac 2ab'
loop_
_symmetry_equiv_pos_site_id
_symmetry_equiv_pos_as_xyz
1 x,y,z
2 1/2-x,-y,1/2+z
3 -x,1/2+y,1/2-z
4 1/2+x,1/2-y,-z
5 -x,-y,-z
6 1/2+x,y,1/2-z
7 x,1/2-y,1/2+z
8 1/2-x,1/2+y,z
_cell_length_a                   8.8210(19)
_cell_length_b                   9.509(2)
_cell_length_c                   19.681(4)
_cell_angle_alpha                90
_cell_angle_beta                 90
_cell_angle_gamma                90
_cell_volume                     1650.82
_exptl_crystal_colour            colorless
_exptl_crystal_description       block
_cell_formula_units_Z            8
loop_
_atom_site_label
_atom_site_type_symbol
_atom_site_fract_x
_atom_site_fract_y
_atom_site_fract_z
O1 O 0.8732(3) 0.6502(2) 0.65153(12)
O2 O 1.0352(3) 0.5539(3) 0.58384(13)
O3 O 0.9711(3) 0.2994(3) 0.55330(14)
O4 O 0.7459(3) 0.2872(3) 0.51196(13)
N1 N 0.5259(3) 0.4113(3) 0.57584(13)
H1 H 0.5472 0.3691 0.5372
N2 N 0.9082(3) 0.5574(3) 0.60891(13)
N3 N 0.6017(3) 0.5609(3) 0.65942(13)
H2 H 0.6743 0.6022 0.6827
N4 N 0.3601(3) 0.4546(3) 0.67007(13)
N5 N 0.8417(3) 0.3455(3) 0.54911(14)
O5 O 0.3270(3) 0.2422(3) 0.71402(16)
N6 N 0.3802(4) 0.3556(3) 0.72128(16)
C1 C 0.6372(3) 0.4796(3) 0.60714(14)
C2 C 0.7947(3) 0.4627(3) 0.58742(15)
O6 O 0.4499(5) 0.3913(3) 0.77203(14)
C3 C 0.4442(4) 0.5831(4) 0.67896(18)
H3 H 0.4391 0.6132 0.7271
H4 H 0.3993 0.6583 0.6506
C4 C 0.3698(4) 0.4016(4) 0.60128(16)
H5 H 0.3016 0.4568 0.5715
H6 H 0.3361 0.3023 0.6002
loop_
_geom_bond_atom_site_label_1
_geom_bond_atom_site_label_2
_geom_bond_site_symmetry_1
_geom_bond_site_symmetry_2
O1 N2 1_555 1_555
O2 N2 1_555 1_555
O3 N5 1_555 1_555
O4 N5 1_555 1_555
N1 H1 1_555 1_555
N2 C2 1_555 1_555
N3 H2 1_555 1_555
N4 N6 1_555 1_555
N5 C2 1_555 1_555
O5 N6 1_555 1_555
N6 O6 1_555 1_555
C1 N1 1_555 1_555
C2 C1 1_555 1_555
C3 N3 1_555 1_555
H3 C3 1_555 1_555
H4 C3 1_555 1_555
C4 N1 1_555 1_555
H5 C4 1_555 1_555
H6 C4 1_555 1_555
N3 C1 1_555 1_555
N4 C3 1_555 1_555
N4 C4 1_555 1_555

#END
