
#######################################################################
#
#                 Cambridge Crystallographic Data Centre
#                                CCDC 
#
#######################################################################
#
# If this CIF has been generated from an entry in the Cambridge 
# Structural Database, then it will include bibliographic, chemical, 
# crystal, experimental, refinement or atomic coordinate data resulting 
# from the CCDC's data processing and validation procedures.
#
#######################################################################

data_UGAVUW
_chemical_formula_moiety         'C4 H6 N6 O6'
_chemical_name_systematic        
4-(dinitromethylidene)-1-nitro-1,3,5-triazinane
_symmetry_cell_setting           orthorhombic
_symmetry_space_group_name_H-M   'P n m a'
_symmetry_Int_Tables_number      62
_space_group_name_Hall           '-P 2ac 2n'
loop_
_symmetry_equiv_pos_site_id
_symmetry_equiv_pos_as_xyz
1 x,y,z
2 1/2-x,-y,1/2+z
3 -x,1/2+y,-z
4 1/2+x,1/2-y,1/2-z
5 -x,-y,-z
6 1/2+x,y,1/2-z
7 x,1/2-y,z
8 1/2-x,1/2+y,1/2+z
_cell_length_a                   7.1223(15)
_cell_length_b                   10.448(2)
_cell_length_c                   11.389(3)
_cell_angle_alpha                90
_cell_angle_beta                 90
_cell_angle_gamma                90
_cell_volume                     847.499
_exptl_crystal_colour            colorless
_exptl_crystal_description       block
_cell_formula_units_Z            4
loop_
_atom_site_label
_atom_site_type_symbol
_atom_site_fract_x
_atom_site_fract_y
_atom_site_fract_z
N1 N 0.2295(3) 0.3588(2) 0.47802(19)
N2 N 0.4648(4) 0.2500 0.3675(3)
O1 O 0.0379(3) 0.4678(2) 0.63852(17)
O2 O 0.6802(3) 0.35267(19) 0.4778(2)
N3 N 0.6182(4) 0.2500 0.4486(3)
N4 N 0.0082(3) 0.3649(3) 0.6868(2)
C1 C 0.1744(4) 0.2500 0.5265(3)
C2 C 0.0601(4) 0.2500 0.6320(3)
C3 C 0.3482(4) 0.3639(2) 0.3747(2)
H1 H 0.177(4) 0.425(3) 0.518(2)
O3 O -0.1074(15) 0.3842(10) 0.7623(12)
H2 H 0.263(4) 0.359(3) 0.302(2)
H3 H 0.415(4) 0.437(4) 0.379(3)
N1F N 0.2295(3) 0.1412(2) 0.47802(19)
O1F O 0.0379(3) 0.0322(2) 0.63852(17)
O2F O 0.6802(3) 0.14733(19) 0.4778(2)
N4F N 0.0082(3) 0.1351(3) 0.6868(2)
C3F C 0.3482(4) 0.1361(2) 0.3747(2)
H1F H 0.177(4) 0.075(3) 0.518(2)
O3F O -0.1074(15) 0.1158(10) 0.7623(12)
H2F H 0.263(4) 0.141(3) 0.302(2)
H3F H 0.415(4) 0.063(4) 0.379(3)
O4? O -0.026(2) 0.3446(10) 0.7992(7)
loop_
_geom_bond_atom_site_label_1
_geom_bond_atom_site_label_2
_geom_bond_site_symmetry_1
_geom_bond_site_symmetry_2
N1 C1 1_555 1_555
N2 N3 1_555 1_555
O1 N4 1_555 1_555
O2 N3 1_555 1_555
N3 O2F 1_555 1_555
N4 C2 1_555 1_555
C1 C2 1_555 1_555
C2 N4F 1_555 1_555
C3 N1 1_555 1_555
H1 N1 1_555 1_555
O3 N4 1_555 1_555
H2 C3 1_555 1_555
H3 C3 1_555 1_555
N1F C1 1_555 1_555
O1F N4F 1_555 1_555
N4F O3F 1_555 1_555
C3F N2 1_555 1_555
H1F N1F 1_555 1_555
H2F C3F 1_555 1_555
H3F C3F 1_555 1_555
N2 C3 1_555 1_555
N1F C3F 1_555 1_555

#END
