
#######################################################################
#
#                 Cambridge Crystallographic Data Centre
#                                CCDC 
#
#######################################################################
#
# If this CIF has been generated from an entry in the Cambridge 
# Structural Database, then it will include bibliographic, chemical, 
# crystal, experimental, refinement or atomic coordinate data resulting 
# from the CCDC's data processing and validation procedures.
#
#######################################################################

data_UGECIT
_chemical_formula_moiety         'C26 H22 N2 O1'
_chemical_name_systematic        
N,N-Dimethyl-3,8-diphenyl-1,8-dihydroindeno[2,1-b]pyrrole-2-carboxamide
_symmetry_cell_setting           monoclinic
_symmetry_space_group_name_H-M   'P 21/c'
_symmetry_Int_Tables_number      14
_space_group_name_Hall           '-P 2ybc'
loop_
_symmetry_equiv_pos_site_id
_symmetry_equiv_pos_as_xyz
1 x,y,z
2 -x,1/2+y,1/2-z
3 -x,-y,-z
4 x,1/2-y,1/2+z
_cell_length_a                   11.2217(12)
_cell_length_b                   13.0120(13)
_cell_length_c                   14.5899(16)
_cell_angle_alpha                90
_cell_angle_beta                 102.684(2)
_cell_angle_gamma                90
_cell_volume                     2078.38
_exptl_crystal_colour            colorless
_exptl_crystal_description       prismatic
_chemical_melting_point          251-254deg.C
_cell_formula_units_Z            4
loop_
_atom_site_label
_atom_site_type_symbol
_atom_site_fract_x
_atom_site_fract_y
_atom_site_fract_z
O1 O -0.14158(15) 0.93867(11) -0.06904(12)
N1 N 0.05925(16) 0.85892(14) 0.06782(13)
N2 N -0.14744(18) 0.78836(14) -0.14532(13)
C1 C -0.11189(19) 0.84736(16) -0.06915(15)
C2 C -0.03710(18) 0.80237(16) 0.01788(15)
C3 C -0.04784(19) 0.71221(16) 0.06677(15)
C4 C 0.04967(19) 0.71511(16) 0.14812(15)
C5 C 0.11067(19) 0.80568(16) 0.14600(15)
C6 C 0.2155(2) 0.82224(17) 0.22804(16)
H1 H 0.1970 0.8807 0.2649
C7 C 0.2052(2) 0.72274(17) 0.28172(16)
C8 C 0.1072(2) 0.66114(17) 0.23527(15)
C9 C 0.0834(2) 0.56968(18) 0.27571(17)
H2 H 0.0184 0.5287 0.2462
C10 C 0.1571(2) 0.5391(2) 0.36078(19)
H3 H 0.1413 0.4772 0.3878
C11 C 0.2524(3) 0.5990(2) 0.40498(18)
H4 H 0.3011 0.5773 0.4617
C12 C 0.2773(2) 0.6915(2) 0.36636(17)
H5 H 0.3419 0.7322 0.3971
C13 C -0.14507(19) 0.63417(17) 0.04127(15)
C14 C -0.1202(2) 0.53027(18) 0.05236(18)
H6 H -0.0409 0.5090 0.0786
C15 C -0.2102(3) 0.4576(2) 0.0254(2)
H7 H -0.1915 0.3882 0.0339
C16 C -0.3267(3) 0.4874(2) -0.0136(2)
H8 H -0.3872 0.4382 -0.0327
C17 C -0.3547(2) 0.5904(3) -0.0246(2)
H9 H -0.4343 0.6105 -0.0511
C18 C -0.2655(2) 0.66362(19) 0.00322(18)
H10 H -0.2855 0.7330 -0.0033
C19 C 0.3378(2) 0.83991(18) 0.20283(17)
C20 C 0.3786(3) 0.7745(2) 0.1441(2)
H11 H 0.3318 0.7172 0.1212
C21 C 0.4874(3) 0.7906(3) 0.1176(2)
H12 H 0.5135 0.7441 0.0777
C22 C 0.5560(3) 0.8730(3) 0.1490(3)
H13 H 0.6284 0.8848 0.1295
C23 C 0.5195(3) 0.9391(3) 0.2093(4)
H14 H 0.5674 0.9958 0.2319
C24 C 0.4096(3) 0.9219(2) 0.2376(3)
H15 H 0.3856 0.9664 0.2800
C25 C -0.0974(3) 0.68834(18) -0.15993(18)
H16 H -0.0264 0.6754 -0.1111
H17 H -0.0752 0.6872 -0.2198
H18 H -0.1576 0.6362 -0.1585
C26 C -0.2348(3) 0.8304(2) -0.2247(2)
H19 H -0.3003 0.8628 -0.2029
H20 H -0.2670 0.7761 -0.2675
H21 H -0.1950 0.8802 -0.2562
H22 H 0.079(2) 0.9245(17) 0.0536(16)
loop_
_geom_bond_atom_site_label_1
_geom_bond_atom_site_label_2
_geom_bond_site_symmetry_1
_geom_bond_site_symmetry_2
O1 C1 1_555 1_555
N1 C2 1_555 1_555
N2 C1 1_555 1_555
C1 C2 1_555 1_555
C2 C3 1_555 1_555
C3 C4 1_555 1_555
C4 C5 1_555 1_555
C5 N1 1_555 1_555
C6 C5 1_555 1_555
H1 C6 1_555 1_555
C7 C6 1_555 1_555
C8 C4 1_555 1_555
C9 C8 1_555 1_555
H2 C9 1_555 1_555
C10 C9 1_555 1_555
H3 C10 1_555 1_555
C11 C10 1_555 1_555
H4 C11 1_555 1_555
C12 C7 1_555 1_555
H5 C12 1_555 1_555
C13 C3 1_555 1_555
C14 C13 1_555 1_555
H6 C14 1_555 1_555
C15 C14 1_555 1_555
H7 C15 1_555 1_555
C16 C15 1_555 1_555
H8 C16 1_555 1_555
C17 C16 1_555 1_555
H9 C17 1_555 1_555
C18 C13 1_555 1_555
H10 C18 1_555 1_555
C19 C6 1_555 1_555
C20 C19 1_555 1_555
H11 C20 1_555 1_555
C21 C20 1_555 1_555
H12 C21 1_555 1_555
C22 C21 1_555 1_555
H13 C22 1_555 1_555
C23 C22 1_555 1_555
H14 C23 1_555 1_555
C24 C19 1_555 1_555
H15 C24 1_555 1_555
C25 N2 1_555 1_555
H16 C25 1_555 1_555
H17 C25 1_555 1_555
H18 C25 1_555 1_555
C26 N2 1_555 1_555
H19 C26 1_555 1_555
H20 C26 1_555 1_555
H21 C26 1_555 1_555
H22 N1 1_555 1_555
C7 C8 1_555 1_555
C11 C12 1_555 1_555
C17 C18 1_555 1_555
C23 C24 1_555 1_555

#END
