
#######################################################################
#
#                 Cambridge Crystallographic Data Centre
#                                CCDC 
#
#######################################################################
#
# If this CIF has been generated from an entry in the Cambridge 
# Structural Database, then it will include bibliographic, chemical, 
# crystal, experimental, refinement or atomic coordinate data resulting 
# from the CCDC's data processing and validation procedures.
#
#######################################################################

data_UGEGUK
_chemical_name_common            
"S-sibutramine O,O'-di-p-anisoyl-(R,R)-tartaric acid"
_chemical_formula_moiety         'C20 H17 O10 1-,C17 H27 Cl1 N1 1+'
_chemical_name_systematic        
'1-(1-(4-chlorophenyl)cyclobutyl)-N,N,3-trimethylbutan-1-aminium 3-carboxy-2,3-bis((4-methoxybenzoyl)oxy)propanoate'
_symmetry_cell_setting           monoclinic
_symmetry_space_group_name_H-M   'P 21'
_symmetry_Int_Tables_number      4
_space_group_name_Hall           'P 2yb'
loop_
_symmetry_equiv_pos_site_id
_symmetry_equiv_pos_as_xyz
1 x,y,z
2 -x,1/2+y,-z
_cell_length_a                   7.972(3)
_cell_length_b                   10.367(3)
_cell_length_c                   22.220(7)
_cell_angle_alpha                90
_cell_angle_beta                 98.388(5)
_cell_angle_gamma                90
_cell_volume                     1816.74
_exptl_crystal_colour            colorless
_exptl_crystal_description       block
_chemical_melting_point          '388 K'
_cell_formula_units_Z            2
_chemical_properties_physical    Deliquescent
_exptl_crystal_recrystallization_method 'isopropyl alcoho/ethanol/methanol'
loop_
_atom_site_label
_atom_site_type_symbol
_atom_site_fract_x
_atom_site_fract_y
_atom_site_fract_z
C1 C 0.1476(9) 0.1456(10) 0.5321(3)
C2 C 0.1547(8) 0.0569(8) 0.4870(3)
H1 H 0.0813 -0.0158 0.4831
C3 C 0.2721(8) 0.0753(7) 0.4468(3)
H2 H 0.2853 0.0107 0.4175
C4 C 0.3693(7) 0.1859(6) 0.4490(2)
C5 C 0.3516(8) 0.2767(7) 0.4953(3)
H3 H 0.4162 0.3539 0.4975
C6 C 0.2445(8) 0.2560(8) 0.5366(3)
H4 H 0.2367 0.3168 0.5681
C7 C 0.4947(7) 0.2098(6) 0.4053(3)
C8 C 0.4350(7) 0.3044(6) 0.3528(3)
H5 H 0.5268 0.3060 0.3265
C9 C 0.1118(7) 0.2985(8) 0.3283(4)
H6 H 0.0951 0.3884 0.3152
H7 H 0.1119 0.2929 0.3723
H8 H 0.0197 0.2454 0.3073
C10 C 0.2813(10) 0.2653(8) 0.2461(3)
H9 H 0.1898 0.2140 0.2235
H10 H 0.3908 0.2349 0.2364
H11 H 0.2660 0.3562 0.2346
C11 C 0.4154(8) 0.4420(6) 0.3738(3)
H12 H 0.5108 0.4613 0.4062
H13 H 0.3097 0.4474 0.3921
C12 C 0.4098(10) 0.5465(7) 0.3251(4)
H14 H 0.3090 0.5295 0.2937
C13 C 0.3830(9) 0.6772(7) 0.3546(4)
H15 H 0.4842 0.6993 0.3833
H16 H 0.2847 0.6720 0.3763
H17 H 0.3631 0.7437 0.3230
C14 C 0.5631(12) 0.5501(9) 0.2936(4)
H18 H 0.6652 0.5554 0.3240
H19 H 0.5572 0.6257 0.2669
H20 H 0.5674 0.4716 0.2693
C15 C 0.5710(8) 0.0834(7) 0.3813(3)
H21 H 0.5162 0.0033 0.3929
H22 H 0.5771 0.0848 0.3371
C16 C 0.7351(10) 0.1120(9) 0.4198(4)
H23 H 0.7592 0.0540 0.4555
H24 H 0.8321 0.1133 0.3966
C17 C 0.6807(9) 0.2424(8) 0.4359(4)
H25 H 0.7343 0.3128 0.4154
H26 H 0.6914 0.2578 0.4802
Cl1 Cl 0.0086(3) 0.1160(3) 0.5850(1)
N1 N 0.2773(6) 0.2510(5) 0.3132(2)
H27 H 0.2783 0.1626 0.3205
C18 C 0.6793(6) 0.9194(6) 0.2634(2)
C19 C 0.8510(6) 0.9741(5) 0.2555(2)
H28 H 0.8900 1.0316 0.2909
C20 C 0.9824(6) 0.8677(6) 0.2538(2)
H29 H 0.9751 0.8062 0.2880
C21 C 1.1643(6) 0.9199(5) 0.2591(2)
C22 C 0.7589(6) 1.1596(5) 0.1983(3)
C23 C 0.7116(7) 1.2079(6) 0.1360(3)
C24 C 0.6201(8) 1.3223(7) 0.1252(3)
H30 H 0.5948 1.3721 0.1586
C25 C 0.5668(9) 1.3636(7) 0.0679(3)
H31 H 0.5053 1.4420 0.0613
C26 C 0.6017(8) 1.2915(7) 0.0184(3)
C27 C 0.6907(8) 1.1788(7) 0.0268(3)
H32 H 0.7154 1.1305 -0.0071
C28 C 0.7451(7) 1.1350(6) 0.0863(3)
H33 H 0.8049 1.0557 0.0926
C29 C 0.5759(11) 1.2734(9) -0.0891(3)
H34 H 0.5427 1.1829 -0.0863
H35 H 0.6981 1.2786 -0.0903
H36 H 0.5142 1.3116 -0.1262
C30 C 0.9873(7) 0.6785(6) 0.1940(3)
C31 C 0.9540(6) 0.6330(6) 0.1295(3)
C32 C 0.8645(7) 0.7044(6) 0.0831(3)
H37 H 0.8201 0.7861 0.0919
C33 C 0.8386(7) 0.6593(6) 0.0241(3)
H38 H 0.7755 0.7103 -0.0068
C34 C 0.9021(8) 0.5418(7) 0.0088(3)
C35 C 0.9918(9) 0.4672(7) 0.0559(3)
H39 H 1.0365 0.3857 0.0468
C36 C 1.0154(8) 0.5114(6) 0.1150(3)
H40 H 1.0738 0.4591 0.1464
C37 C 0.7990(12) 0.5624(9) -0.0946(3)
H41 H 0.8587 0.6437 -0.0993
H42 H 0.6847 0.5809 -0.0856
H43 H 0.7910 0.5128 -0.1325
O1 O 0.5541(5) 0.9533(4) 0.2219(2)
O2 O 0.6704(5) 0.8482(4) 0.3071(2)
O3 O 1.2009(5) 0.9982(4) 0.3023(2)
O4 O 1.2556(4) 0.8808(4) 0.2230(2)
H44 H 1.3584 0.9066 0.2313
O5 O 0.8467(4) 1.0475(4) 0.2011(2)
O6 O 0.7232(5) 1.2139(4) 0.2441(2)
O7 O 0.5365(6) 1.3417(5) -0.0377(2)
O8 O 0.9345(4) 0.8014(4) 0.1970(2)
O9 O 1.0481(6) 0.6154(5) 0.2356(2)
O10 O 0.8882(7) 0.4910(5) -0.0470(2)
loop_
_geom_bond_atom_site_label_1
_geom_bond_atom_site_label_2
_geom_bond_site_symmetry_1
_geom_bond_site_symmetry_2
C1 C2 1_555 1_555
C2 H1 1_555 1_555
C3 C2 1_555 1_555
H2 C3 1_555 1_555
C4 C3 1_555 1_555
C5 C4 1_555 1_555
H3 C5 1_555 1_555
C6 C1 1_555 1_555
H4 C6 1_555 1_555
C7 C4 1_555 1_555
C8 C7 1_555 1_555
H5 C8 1_555 1_555
C9 H6 1_555 1_555
H7 C9 1_555 1_555
H8 C9 1_555 1_555
C10 H9 1_555 1_555
H10 C10 1_555 1_555
H11 C10 1_555 1_555
C11 C8 1_555 1_555
H12 C11 1_555 1_555
H13 C11 1_555 1_555
C12 C11 1_555 1_555
H14 C12 1_555 1_555
C13 C12 1_555 1_555
H15 C13 1_555 1_555
H16 C13 1_555 1_555
H17 C13 1_555 1_555
C14 C12 1_555 1_555
H18 C14 1_555 1_555
H19 C14 1_555 1_555
H20 C14 1_555 1_555
C15 C7 1_555 1_555
H21 C15 1_555 1_555
H22 C15 1_555 1_555
C16 C15 1_555 1_555
H23 C16 1_555 1_555
H24 C16 1_555 1_555
C17 C7 1_555 1_555
H25 C17 1_555 1_555
H26 C17 1_555 1_555
Cl1 C1 1_555 1_555
N1 C8 1_555 1_555
H27 N1 1_555 1_555
C18 C19 1_555 1_555
C19 H28 1_555 1_555
C20 C19 1_555 1_555
H29 C20 1_555 1_555
C21 C20 1_555 1_555
C22 C23 1_555 1_555
C23 C24 1_555 1_555
C24 H30 1_555 1_555
C25 C24 1_555 1_555
H31 C25 1_555 1_555
C26 C25 1_555 1_555
C27 C26 1_555 1_555
H32 C27 1_555 1_555
C28 C23 1_555 1_555
H33 C28 1_555 1_555
C29 H34 1_555 1_555
H35 C29 1_555 1_555
H36 C29 1_555 1_555
C30 C31 1_555 1_555
C31 C32 1_555 1_555
C32 H37 1_555 1_555
C33 C32 1_555 1_555
H38 C33 1_555 1_555
C34 C33 1_555 1_555
C35 C34 1_555 1_555
H39 C35 1_555 1_555
C36 C31 1_555 1_555
H40 C36 1_555 1_555
C37 H41 1_555 1_555
H42 C37 1_555 1_555
H43 C37 1_555 1_555
O1 C18 1_555 1_555
O2 C18 1_555 1_555
O3 C21 1_555 1_555
O4 C21 1_555 1_555
H44 O4 1_555 1_555
O5 C19 1_555 1_555
O6 C22 1_555 1_555
O7 C26 1_555 1_555
O8 C20 1_555 1_555
O9 C30 1_555 1_555
O10 C34 1_555 1_555
C5 C6 1_555 1_555
C9 N1 1_555 1_555
C10 N1 1_555 1_555
C16 C17 1_555 1_555
C22 O5 1_555 1_555
C27 C28 1_555 1_555
C29 O7 1_555 1_555
C30 O8 1_555 1_555
C35 C36 1_555 1_555
C37 O10 1_555 1_555

#END
