
#######################################################################
#
#                 Cambridge Crystallographic Data Centre
#                                CCDC 
#
#######################################################################
#
# If this CIF has been generated from an entry in the Cambridge 
# Structural Database, then it will include bibliographic, chemical, 
# crystal, experimental, refinement or atomic coordinate data resulting 
# from the CCDC's data processing and validation procedures.
#
#######################################################################

data_UGEHAR
_chemical_name_common            
"R-sibutramin L-O,O'-di-p-anisoyl-(R,R)-tartaric acid"
_chemical_formula_moiety         'C20 H17 O10 1-,C17 H27 Cl1 N1 1+'
_chemical_name_systematic        
'1-(1-(4-chlorophenyl)cyclobutyl)-N,N,3-trimethylbutan-1-aminium 3-carboxy-2,3-bis((4-methoxybenzoyl)oxy)propanoate'
_symmetry_cell_setting           orthorhombic
_symmetry_space_group_name_H-M   'P 21 21 21'
_symmetry_Int_Tables_number      19
_space_group_name_Hall           'P 2ac 2ab'
loop_
_symmetry_equiv_pos_site_id
_symmetry_equiv_pos_as_xyz
1 x,y,z
2 1/2-x,-y,1/2+z
3 -x,1/2+y,1/2-z
4 1/2+x,1/2-y,-z
_cell_length_a                   12.6906(11)
_cell_length_b                   14.6766(13)
_cell_length_c                   19.2061(18)
_cell_angle_alpha                90
_cell_angle_beta                 90
_cell_angle_gamma                90
_cell_volume                     3577.23
_exptl_crystal_colour            colorless
_exptl_crystal_description       block
_chemical_melting_point          '459 K'
_cell_formula_units_Z            4
_chemical_properties_physical    Deliquescent
_exptl_crystal_recrystallization_method 'isopropyl alcohol/ethanol/methanol'
loop_
_atom_site_label
_atom_site_type_symbol
_atom_site_fract_x
_atom_site_fract_y
_atom_site_fract_z
C1 C 0.15764(14) 0.23023(13) 0.38323(9)
C2 C 0.09000(14) 0.25396(13) 0.44692(9)
H1 H 0.0299 0.2931 0.4314
C3 C 0.16189(14) 0.39194(12) 0.49023(9)
C4 C 0.22192(13) 0.43459(13) 0.54754(9)
C5 C 0.26366(15) 0.38529(13) 0.60248(10)
H2 H 0.2575 0.3208 0.6027
C6 C 0.31438(15) 0.42860(14) 0.65726(10)
H3 H 0.3420 0.3940 0.6949
C7 C 0.32450(15) 0.52248(13) 0.65676(9)
C8 C 0.28589(16) 0.57256(14) 0.60081(10)
H4 H 0.2947 0.6368 0.5997
C9 C 0.23524(15) 0.52924(13) 0.54736(9)
H5 H 0.2087 0.5640 0.5095
C10 C 0.3940(2) 0.52485(18) 0.77202(11)
H6 H 0.3311 0.4926 0.7886
H7 H 0.4169 0.5688 0.8074
H8 H 0.4505 0.4808 0.7634
C11 C -0.02592(14) 0.18437(13) 0.53969(10)
C12 C 0.04622(15) 0.16735(14) 0.47805(10)
H9 H 0.0051 0.1348 0.4413
C13 C 0.12114(17) 0.01989(14) 0.48611(10)
C14 C 0.21280(17) -0.03393(14) 0.50933(10)
C15 C 0.29715(17) 0.00297(15) 0.54497(10)
H10 H 0.2979 0.0662 0.5554
C16 C 0.38102(18) -0.05158(16) 0.56571(11)
H11 H 0.4387 -0.0263 0.5907
C17 C 0.3791(2) -0.14403(16) 0.54928(11)
C18 C 0.2967(2) -0.18089(16) 0.51262(12)
H12 H 0.2973 -0.2437 0.5006
C19 C 0.2136(2) -0.12681(15) 0.49340(12)
H13 H 0.1558 -0.1528 0.4690
C20 C 0.5369(3) -0.1724(2) 0.61159(16)
H14 H 0.5739 -0.1213 0.5896
H15 H 0.5870 -0.2217 0.6209
H16 H 0.5055 -0.1520 0.6555
O1 O 0.25466(10) 0.25172(11) 0.38344(7)
O2 O 0.11248(10) 0.19005(10) 0.33590(7)
O3 O -0.00673(12) 0.16174(12) 0.59835(8)
O4 O -0.11124(10) 0.22665(10) 0.51844(7)
H17 H -0.1533 0.2323 0.5519
O5 O 0.14758(9) 0.30157(8) 0.50040(6)
O6 O 0.12630(11) 0.43225(10) 0.44075(7)
O7 O 0.36965(12) 0.57192(10) 0.70896(7)
O8 O 0.13308(10) 0.11043(9) 0.49833(7)
O9 O 0.04466(14) -0.01154(11) 0.45811(10)
O10 O 0.45726(16) -0.20396(13) 0.56692(10)
C21 C 0.18016(16) -0.13014(13) 0.22831(10)
C22 C 0.15614(15) -0.07351(13) 0.28333(10)
H18 H 0.0894 -0.0772 0.3056
C23 C 0.23039(14) -0.01135(13) 0.30554(10)
H19 H 0.2131 0.0290 0.3425
C24 C 0.32974(14) -0.00611(12) 0.27546(9)
C25 C 0.35188(15) -0.06551(13) 0.22026(9)
H20 H 0.4194 -0.0639 0.1990
C26 C 0.27732(16) -0.12644(13) 0.19620(10)
H21 H 0.2928 -0.1653 0.1580
C27 C 0.41314(14) 0.06061(12) 0.30166(9)
C28 C 0.43042(14) 0.14551(12) 0.25602(9)
H22 H 0.4868 0.1817 0.2796
C29 C 0.25063(16) 0.18183(14) 0.20317(10)
H23 H 0.1865 0.2170 0.2123
H24 H 0.2348 0.1166 0.2065
H25 H 0.2766 0.1959 0.1563
C30 C 0.36221(18) 0.30400(13) 0.24740(11)
H26 H 0.3992 0.3125 0.2031
H27 H 0.4084 0.3222 0.2859
H28 H 0.2984 0.3416 0.2479
C31 C 0.46950(16) 0.12917(14) 0.18127(10)
H29 H 0.4286 0.0783 0.1609
H30 H 0.4545 0.1843 0.1533
C32 C 0.58701(17) 0.10684(15) 0.17477(11)
H31 H 0.6035 0.0558 0.2075
C33 C 0.65540(19) 0.1872(2) 0.19378(16)
H32 H 0.7296 0.1716 0.1862
H33 H 0.6445 0.2028 0.2429
H34 H 0.6366 0.2395 0.1646
C34 C 0.6109(2) 0.0751(2) 0.10101(14)
H35 H 0.5926 0.1235 0.0680
H36 H 0.5694 0.0205 0.0906
H37 H 0.6861 0.0609 0.0969
C35 C 0.40248(16) 0.07941(13) 0.38154(9)
H38 H 0.4370 0.1364 0.3971
H39 H 0.3293 0.0755 0.3991
C36 C 0.46802(16) -0.00656(15) 0.39464(11)
H40 H 0.4256 -0.0628 0.3997
H41 H 0.5198 -0.0005 0.4329
C37 C 0.51507(15) 0.00675(14) 0.32176(10)
H42 H 0.5247 -0.0506 0.2954
H43 H 0.5800 0.0441 0.3211
Cl1 Cl 0.08606(4) -0.20882(3) 0.20038(3)
N1 N 0.33274(12) 0.20616(10) 0.25554(8)
H44 H 0.3015 0.2004 0.2991
loop_
_geom_bond_atom_site_label_1
_geom_bond_atom_site_label_2
_geom_bond_site_symmetry_1
_geom_bond_site_symmetry_2
C1 C2 1_555 1_555
C2 H1 1_555 1_555
C3 C4 1_555 1_555
C4 C5 1_555 1_555
C5 H2 1_555 1_555
C6 C5 1_555 1_555
H3 C6 1_555 1_555
C7 C6 1_555 1_555
C8 C7 1_555 1_555
H4 C8 1_555 1_555
C9 C4 1_555 1_555
H5 C9 1_555 1_555
C10 H6 1_555 1_555
H7 C10 1_555 1_555
H8 C10 1_555 1_555
C11 C12 1_555 1_555
C12 C2 1_555 1_555
H9 C12 1_555 1_555
C13 C14 1_555 1_555
C14 C15 1_555 1_555
C15 H10 1_555 1_555
C16 C15 1_555 1_555
H11 C16 1_555 1_555
C17 C16 1_555 1_555
C18 C17 1_555 1_555
H12 C18 1_555 1_555
C19 C14 1_555 1_555
H13 C19 1_555 1_555
C20 H14 1_555 1_555
H15 C20 1_555 1_555
H16 C20 1_555 1_555
O1 C1 1_555 1_555
O2 C1 1_555 1_555
O3 C11 1_555 1_555
O4 C11 1_555 1_555
H17 O4 1_555 1_555
O5 C2 1_555 1_555
O6 C3 1_555 1_555
O7 C7 1_555 1_555
O8 C12 1_555 1_555
O9 C13 1_555 1_555
O10 C17 1_555 1_555
C21 C22 1_555 1_555
C22 H18 1_555 1_555
C23 C22 1_555 1_555
H19 C23 1_555 1_555
C24 C23 1_555 1_555
C25 C24 1_555 1_555
H20 C25 1_555 1_555
C26 C21 1_555 1_555
H21 C26 1_555 1_555
C27 C24 1_555 1_555
C28 C27 1_555 1_555
H22 C28 1_555 1_555
C29 H23 1_555 1_555
H24 C29 1_555 1_555
H25 C29 1_555 1_555
C30 H26 1_555 1_555
H27 C30 1_555 1_555
H28 C30 1_555 1_555
C31 C28 1_555 1_555
H29 C31 1_555 1_555
H30 C31 1_555 1_555
C32 C31 1_555 1_555
H31 C32 1_555 1_555
C33 C32 1_555 1_555
H32 C33 1_555 1_555
H33 C33 1_555 1_555
H34 C33 1_555 1_555
C34 C32 1_555 1_555
H35 C34 1_555 1_555
H36 C34 1_555 1_555
H37 C34 1_555 1_555
C35 C27 1_555 1_555
H38 C35 1_555 1_555
H39 C35 1_555 1_555
C36 C35 1_555 1_555
H40 C36 1_555 1_555
H41 C36 1_555 1_555
C37 C27 1_555 1_555
H42 C37 1_555 1_555
H43 C37 1_555 1_555
Cl1 C21 1_555 1_555
N1 C28 1_555 1_555
H44 N1 1_555 1_555
C3 O5 1_555 1_555
C8 C9 1_555 1_555
C10 O7 1_555 1_555
C13 O8 1_555 1_555
C18 C19 1_555 1_555
C20 O10 1_555 1_555
C25 C26 1_555 1_555
C29 N1 1_555 1_555
C30 N1 1_555 1_555
C36 C37 1_555 1_555

#END
