
#######################################################################
#
#                 Cambridge Crystallographic Data Centre
#                                CCDC 
#
#######################################################################
#
# If this CIF has been generated from an entry in the Cambridge 
# Structural Database, then it will include bibliographic, chemical, 
# crystal, experimental, refinement or atomic coordinate data resulting 
# from the CCDC's data processing and validation procedures.
#
#######################################################################

data_UGEJOF
_chemical_compound_source        
'rhizomes of Beesia calthifolia (Maxim.) Ulbr. (Ranunculaceae)'
_chemical_name_common            'Beesioside J hydrate'
_chemical_formula_moiety         'C39 H62 O12,2.5(H2 O1)'
_chemical_name_systematic        
'(20S,24R)-15\a,16\b-Diacetoxy-20,24-epoxy-9,19-cyclolanostane-3\b,18,25-triol-3-O-\b-D-xylopyranoside hydrate'
_chemical_properties_biological  
'Beesia calthifolia is a Chinese folk herb medicine used to treat colds, rheumatic arthritis, dysentery, sore throats and headaches'
_symmetry_cell_setting           orthorhombic
_symmetry_space_group_name_H-M   'P 2 21 21'
_symmetry_Int_Tables_number      18
_space_group_name_Hall           'P 2bc 2'
loop_
_symmetry_equiv_pos_site_id
_symmetry_equiv_pos_as_xyz
1 x,y,z
2 -x,1/2-y,1/2+z
3 x,-y,-z
4 -x,1/2+y,1/2-z
_cell_length_a                   9.970(1)
_cell_length_b                   15.514(1)
_cell_length_c                   26.265(1)
_cell_angle_alpha                90
_cell_angle_beta                 90
_cell_angle_gamma                90
_cell_volume                     4062.53
_exptl_crystal_colour            colorless
_exptl_crystal_description       plate
_chemical_melting_point          '471-475 K'
_cell_formula_units_Z            4
_exptl_crystal_recrystallization_method 'ethyl acetate/methanol'
loop_
_atom_site_label
_atom_site_type_symbol
_atom_site_fract_x
_atom_site_fract_y
_atom_site_fract_z
O1 O 0.0526(5) 0.8820(3) 0.1888(2)
O2 O 0.2581(5) 0.8194(3) 0.2773(2)
O3 O -0.1525(5) 1.0124(3) 0.1984(2)
O4 O 0.5367(5) 1.2585(3) 0.5093(2)
O5 O 0.1070(5) 1.0653(3) 0.2269(2)
O6 O -0.0721(5) 1.0161(3) 0.0931(2)
O7 O 0.1219(8) 0.7452(3) 0.1785(2)
O8 O 0.3964(6) 0.8548(4) 0.2122(2)
O9 O 0.5440(5) 1.2283(3) 0.5945(2)
O10 O 0.7772(7) 1.3489(4) 0.5144(2)
O11 O 0.8339(5) 1.4147(3) 0.6170(1)
O12 O 0.8030(9) 1.2784(5) 0.6921(3)
C1 C 0.2260(8) 1.1354(5) 0.4706(3)
C2 C 0.3165(8) 1.2066(5) 0.4918(3)
C3 C 0.4643(8) 1.1822(4) 0.4927(3)
C4 C 0.5177(7) 1.1513(4) 0.4407(3)
C5 C 0.4226(7) 1.0771(4) 0.4220(3)
C6 C 0.4718(8) 1.0292(5) 0.3737(3)
C7 C 0.3713(8) 0.9601(5) 0.3588(3)
C8 C 0.2418(6) 1.0033(4) 0.3392(2)
C9 C 0.1805(7) 1.0674(4) 0.3785(2)
C10 C 0.2782(7) 1.1080(4) 0.4180(2)
C11 C 0.0343(8) 1.0525(4) 0.3958(3)
C12 C -0.0637(7) 1.0210(4) 0.3529(2)
C13 C 0.0056(6) 0.9903(4) 0.3036(2)
C14 C 0.1345(7) 0.9388(4) 0.3194(2)
C15 C 0.1759(7) 0.8964(4) 0.2693(2)
C16 C 0.0437(7) 0.8678(4) 0.2439(2)
C17 C -0.0705(7) 0.9219(4) 0.2696(2)
C18 C 0.0334(7) 1.0743(4) 0.2733(2)
C19 C 0.2287(7) 1.1602(4) 0.3721(3)
C20 C -0.1908(7) 0.9482(4) 0.2365(2)
C21 C -0.3030(8) 0.9864(5) 0.2698(3)
C22 C -0.2472(8) 0.8711(4) 0.2044(3)
C23 C -0.2678(8) 0.9076(5) 0.1510(3)
C24 C -0.2475(7) 1.0049(5) 0.1569(3)
C25 C -0.1960(8) 1.0547(5) 0.1105(3)
C26 C -0.1715(9) 1.1503(5) 0.1250(3)
C27 C -0.2990(9) 1.0473(6) 0.0675(3)
C28 C 0.1033(8) 0.8665(4) 0.3589(2)
C29 C 0.6636(8) 1.1161(5) 0.4472(3)
C30 C 0.5262(9) 1.2274(5) 0.4022(3)
C31 C 0.0924(8) 0.8135(5) 0.1608(3)
C32 C 0.1011(9) 0.8356(6) 0.1056(3)
C33 C 0.3589(7) 0.8056(5) 0.2448(3)
C34 C 0.4199(9) 0.7167(5) 0.2530(3)
C35 C 0.6247(8) 1.2474(5) 0.5506(3)
C36 C 0.6965(8) 1.3328(5) 0.5582(3)
C37 C 0.7811(7) 1.3302(4) 0.6069(3)
C38 C 0.6975(9) 1.2982(5) 0.6524(3)
C39 C 0.6321 1.2139(5) 0.6378(3)
H1 H 0.042 1.038 0.211
H3 H 0.821 1.313 0.516
H4 H 0.774 1.440 0.626
H5 H 0.124 1.156 0.467
H6 H 0.231 1.080 0.496
H7 H 0.303 1.263 0.467
H8 H 0.282 1.223 0.529
H9 H 0.477 1.130 0.520
H10 H 0.424 1.029 0.452
H11 H 0.569 1.000 0.381
H12 H 0.483 1.075 0.343
H13 H 0.412 0.919 0.330
H14 H 0.347 0.921 0.392
H15 H 0.272 1.042 0.307
H16 H 0.032 1.006 0.426
H17 H -0.005 1.114 0.410
H18 H -0.132 1.073 0.343
H19 H -0.122 0.967 0.368
H20 H 0.227 0.943 0.245
H21 H 0.027 0.800 0.251
H22 H -0.113 0.878 0.298
H23 H 0.090 1.117 0.298
H24 H -0.063 1.104 0.264
H25 H 0.296 1.179 0.342
H26 H 0.157 1.214 0.378
H27 H -0.330 0.942 0.300
H28 H -0.393 0.998 0.247
H29 H -0.263 1.046 0.285
H30 H -0.342 0.847 0.220
H31 H -0.177 0.817 0.203
H32 H -0.368 0.894 0.136
H33 H -0.195 0.882 0.124
H34 H -0.345 1.034 0.168
H35 H -0.265 1.176 0.140
H36 H -0.148 1.185 0.090
H37 H -0.090 1.150 0.152
H38 H -0.400 1.064 0.081
H39 H -0.303 0.983 0.052
H40 H -0.266 1.093 0.039
H41 H 0.033 0.894 0.386
H42 H 0.197 0.854 0.379
H43 H 0.065 0.812 0.338
H44 H 0.704 1.096 0.410
H45 H 0.663 1.061 0.472
H46 H 0.721 1.169 0.463
H47 H 0.570 1.208 0.366
H48 H 0.586 1.281 0.417
H49 H 0.423 1.248 0.397
H50 H 0.013 0.874 0.095
H51 H 0.098 0.777 0.083
H52 H 0.193 0.871 0.101
H53 H 0.529 0.720 0.249
H54 H 0.383 0.673 0.224
H55 H 0.390 0.697 0.290
H56 H 0.699 1.197 0.543
H57 H 0.622 1.384 0.562
H58 H 0.864 1.285 0.601
H59 H 0.576 1.186 0.670
H60 H 0.711 1.164 0.628
O13 O 0.3818(7) -0.0139(4) 0.1388(3)
H61 H 0.332 -0.064 0.143
H62 H 0.420 -0.037 0.112
O14 O 0.5786 0.4340(6) 0.4593(3)
O15 O 0.0538(9) 0.0000 0.0000
H2? H 0.596 1.193 0.590
loop_
_geom_bond_atom_site_label_1
_geom_bond_atom_site_label_2
_geom_bond_site_symmetry_1
_geom_bond_site_symmetry_2
O1 C16 1_555 1_555
O2 C15 1_555 1_555
O3 C20 1_555 1_555
O4 C3 1_555 1_555
O5 C18 1_555 1_555
O6 C25 1_555 1_555
O7 C31 1_555 1_555
O8 C33 1_555 1_555
O9 C35 1_555 1_555
O10 C36 1_555 1_555
O11 C37 1_555 1_555
O12 C38 1_555 1_555
C1 C2 1_555 1_555
C2 C3 1_555 1_555
C3 C4 1_555 1_555
C4 C5 1_555 1_555
C5 C6 1_555 1_555
C6 C7 1_555 1_555
C7 C8 1_555 1_555
C8 C9 1_555 1_555
C9 C10 1_555 1_555
C10 C1 1_555 1_555
C11 C9 1_555 1_555
C12 C11 1_555 1_555
C13 C12 1_555 1_555
C14 C8 1_555 1_555
C15 C14 1_555 1_555
C16 C15 1_555 1_555
C17 C13 1_555 1_555
C18 C13 1_555 1_555
C19 C9 1_555 1_555
C20 C17 1_555 1_555
C21 C20 1_555 1_555
C22 C20 1_555 1_555
C23 C22 1_555 1_555
C24 O3 1_555 1_555
C25 C24 1_555 1_555
C26 C25 1_555 1_555
C27 C25 1_555 1_555
C28 C14 1_555 1_555
C29 C4 1_555 1_555
C30 C4 1_555 1_555
C31 O1 1_555 1_555
C32 C31 1_555 1_555
C33 O2 1_555 1_555
C34 C33 1_555 1_555
C35 O4 1_555 1_555
C36 C35 1_555 1_555
C37 C36 1_555 1_555
C38 C37 1_555 1_555
C39 O9 1_555 1_555
O13 H61 1_555 1_555
H1 O5 1_555 1_555
H3 O10 1_555 1_555
H4 O11 1_555 1_555
H5 C1 1_555 1_555
H6 C1 1_555 1_555
H7 C2 1_555 1_555
H8 C2 1_555 1_555
H9 C3 1_555 1_555
H10 C5 1_555 1_555
H11 C6 1_555 1_555
H12 C6 1_555 1_555
H13 C7 1_555 1_555
H14 C7 1_555 1_555
H15 C8 1_555 1_555
H16 C11 1_555 1_555
H17 C11 1_555 1_555
H18 C12 1_555 1_555
H19 C12 1_555 1_555
H20 C15 1_555 1_555
H21 C16 1_555 1_555
H22 C17 1_555 1_555
H23 C18 1_555 1_555
H24 C18 1_555 1_555
H25 C19 1_555 1_555
H26 C19 1_555 1_555
H27 C21 1_555 1_555
H28 C21 1_555 1_555
H29 C21 1_555 1_555
H30 C22 1_555 1_555
H31 C22 1_555 1_555
H32 C23 1_555 1_555
H33 C23 1_555 1_555
H34 C24 1_555 1_555
H35 C26 1_555 1_555
H36 C26 1_555 1_555
H37 C26 1_555 1_555
H38 C27 1_555 1_555
H39 C27 1_555 1_555
H40 C27 1_555 1_555
H41 C28 1_555 1_555
H42 C28 1_555 1_555
H43 C28 1_555 1_555
H44 C29 1_555 1_555
H45 C29 1_555 1_555
H46 C29 1_555 1_555
H47 C30 1_555 1_555
H48 C30 1_555 1_555
H49 C30 1_555 1_555
H50 C32 1_555 1_555
H51 C32 1_555 1_555
H52 C32 1_555 1_555
H53 C34 1_555 1_555
H54 C34 1_555 1_555
H55 C34 1_555 1_555
H56 C35 1_555 1_555
H57 C36 1_555 1_555
H58 C37 1_555 1_555
H59 C39 1_555 1_555
H60 C39 1_555 1_555
H62 O13 1_555 1_555
C5 C10 1_555 1_555
C10 C19 1_555 1_555
C13 C14 1_555 1_555
C16 C17 1_555 1_555
C23 C24 1_555 1_555
C38 C39 1_555 1_555

#END
