
#######################################################################
#
#                 Cambridge Crystallographic Data Centre
#                                CCDC 
#
#######################################################################
#
# If this CIF has been generated from an entry in the Cambridge 
# Structural Database, then it will include bibliographic, chemical, 
# crystal, experimental, refinement or atomic coordinate data resulting 
# from the CCDC's data processing and validation procedures.
#
#######################################################################

data_UGEMEA
_chemical_formula_moiety         'C27 H41 N1 O2,C1 H4 O1'
_chemical_name_systematic        '17,23-epoxyveratraman-3-ol methanol solvate'
_symmetry_cell_setting           triclinic
_symmetry_space_group_name_H-M   'P 1'
_symmetry_Int_Tables_number      1
_space_group_name_Hall           'P 1'
loop_
_symmetry_equiv_pos_site_id
_symmetry_equiv_pos_as_xyz
1 x,y,z
_cell_length_a                   6.0381(11)
_cell_length_b                   14.009(3)
_cell_length_c                   15.861(3)
_cell_angle_alpha                74.360(5)
_cell_angle_beta                 89.903(4)
_cell_angle_gamma                87.953(4)
_cell_volume                     1291.1
_exptl_crystal_colour            colorless
_exptl_crystal_description       prismatic
_cell_formula_units_Z            2
loop_
_atom_site_label
_atom_site_type_symbol
_atom_site_fract_x
_atom_site_fract_y
_atom_site_fract_z
N1 N 0.1727(8) 1.0006(4) 1.0190(3)
O1 O 0.5323(8) 0.9277(4) 0.1531(3)
H1 H 0.5392 0.9872 0.1292
O2 O 0.0115(6) 1.0397(3) 0.7946(3)
C1 C 0.6072(10) 0.9775(5) 0.3732(4)
H2 H 0.6687 1.0331 0.3895
H3 H 0.6955 0.9185 0.4019
C2 C 0.6265(11) 0.9951(6) 0.2742(4)
H4 H 0.5515 1.0576 0.2449
H5 H 0.7815 0.9994 0.2579
C3 C 0.5257(11) 0.9123(6) 0.2450(4)
H6 H 0.6105 0.8508 0.2722
C4 C 0.2898(11) 0.8988(6) 0.2746(4)
H7 H 0.2361 0.8404 0.2607
H8 H 0.2004 0.9555 0.2416
C5 C 0.2567(10) 0.8879(5) 0.3710(4)
C6 C 0.1404(10) 0.8155(5) 0.4205(4)
H9 H 0.0839 0.7702 0.3936
C7 C 0.0919(12) 0.8002(5) 0.5150(4)
H10 H 0.1752 0.7420 0.5487
H11 H -0.0645 0.7882 0.5248
C8 C 0.1505(9) 0.8882(4) 0.5464(4)
H12 H 0.0359 0.9406 0.5255
C9 C 0.3723(9) 0.9273(4) 0.5075(4)
H13 H 0.4792 0.8709 0.5222
C10 C 0.3647(9) 0.9645(4) 0.4075(4)
C11 C 0.4386(10) 0.9978(4) 0.5611(4)
H14 H 0.5980 0.9952 0.5698
H15 H 0.3906 1.0655 0.5322
C12 C 0.3210(9) 0.9604(5) 0.6477(4)
C13 C 0.3174(9) 1.0021(5) 0.7136(4)
C14 C 0.1844(10) 0.8740(4) 0.6442(4)
H16 H 0.2752 0.8131 0.6672
C15 C -0.0146(11) 0.8700(5) 0.7023(4)
H17 H -0.0965 0.8110 0.7045
H18 H -0.1123 0.9277 0.6795
C16 C 0.0674(11) 0.8679(5) 0.7930(4)
H19 H 0.1698 0.8115 0.8138
H20 H -0.0572 0.8594 0.8326
C17 C 0.1845(10) 0.9637(5) 0.7943(4)
C18 C 0.4359(12) 1.0984(5) 0.7070(5)
H21 H 0.5813 1.0832 0.7325
H22 H 0.3527 1.1380 0.7376
H23 H 0.4482 1.1345 0.6465
C19 C 0.2337(11) 1.0639(5) 0.3761(4)
H24 H 0.2065 1.0783 0.3142
H25 H 0.3178 1.1156 0.3881
H26 H 0.0950 1.0598 0.4063
C20 C 0.3245(10) 0.9512(5) 0.8828(4)
H27 H 0.4724 0.9763 0.8666
C21 C 0.3527(15) 0.8479(5) 0.9436(4)
H28 H 0.4144 0.8515 0.9983
H29 H 0.4506 0.8086 0.9175
H30 H 0.2112 0.8179 0.9535
C22 C 0.1984(9) 1.0254(5) 0.9236(4)
H31 H 0.2686 1.0896 0.9043
C23 C -0.0288(9) 1.0357(4) 0.8832(4)
H32 H -0.1100 0.9759 0.9101
C24 C -0.1532(9) 1.1244(5) 0.8988(4)
H33 H -0.3007 1.1302 0.8734
H34 H -0.0763 1.1844 0.8716
C25 C -0.1685(10) 1.1109(5) 0.9973(4)
H35 H -0.2601 1.0536 1.0212
C26 C 0.0633(11) 1.0861(5) 1.0411(4)
H36 H 0.1549 1.1433 1.0221
H37 H 0.0479 1.0715 1.1042
C27 C -0.2761(13) 1.1977(6) 1.0220(5)
H38 H -0.1975 1.2565 0.9955
H39 H -0.2724 1.1857 1.0845
H40 H -0.4272 1.2064 1.0018
H41 H 0.291(7) 0.980(5) 1.048(4)
N2 N 0.4727(8) 0.4035(4) 0.4228(3)
O3 O 0.1215(8) 0.4933(4) -0.4807(3)
H42 H -0.0019 0.5100 -0.5024
O4 O 0.6430(6) 0.3631(3) 0.2189(2)
C28 C 0.0506(9) 0.4342(5) -0.2365(4)
H43 H -0.0112 0.3777 -0.1949
H44 H -0.0368 0.4927 -0.2338
C29 C 0.0274(10) 0.4205(5) -0.3277(4)
H45 H -0.1281 0.4168 -0.3413
H46 H 0.1022 0.3588 -0.3300
C30 C 0.1272(10) 0.5063(5) -0.3946(4)
H47 H 0.0442 0.5677 -0.3945
C31 C 0.3655(10) 0.5159(5) -0.3717(4)
H48 H 0.4508 0.4587 -0.3790
H49 H 0.4224 0.5744 -0.4125
C32 C 0.3999(9) 0.5237(4) -0.2804(4)
C33 C 0.5200(10) 0.5961(5) -0.2636(4)
H50 H 0.5768 0.6423 -0.3116
C34 C 0.5703(11) 0.6090(5) -0.1755(4)
H51 H 0.4882 0.6668 -0.1679
H52 H 0.7271 0.6202 -0.1713
C35 C 0.5092(9) 0.5180(4) -0.1031(4)
H53 H 0.6235 0.4656 -0.0996
C36 C 0.2860(9) 0.4804(4) -0.1244(4)
H54 H 0.1794 0.5369 -0.1352
C37 C 0.2930(9) 0.4454(4) -0.2077(4)
C38 C 0.2215(10) 0.4084(5) -0.0380(4)
H55 H 0.0619 0.4098 -0.0307
H56 H 0.2716 0.3412 -0.0360
C39 C 0.3353(9) 0.4436(4) 0.0330(4)
C40 C 0.3392(9) 0.3993(4) 0.1176(4)
C41 C 0.4736(11) 0.5315(4) -0.0116(4)
H57 H 0.3822 0.5922 -0.0175
C42 C 0.6708(11) 0.5355(5) 0.0449(4)
H58 H 0.7513 0.5950 0.0196
H59 H 0.7698 0.4784 0.0486
C43 C 0.5903(13) 0.5356(5) 0.1356(4)
H60 H 0.4894 0.5923 0.1310
H61 H 0.7158 0.5425 0.1713
C44 C 0.4708(10) 0.4394(5) 0.1812(4)
C45 C 0.2188(12) 0.3058(5) 0.1556(4)
H62 H 0.0651 0.3219 0.1624
H63 H 0.2820 0.2722 0.2117
H64 H 0.2323 0.2635 0.1171
C46 C 0.4169(11) 0.3462(5) -0.1946(4)
H65 H 0.4400 0.3330 -0.2504
H66 H 0.3314 0.2947 -0.1581
H67 H 0.5575 0.3481 -0.1671
C47 C 0.3287(10) 0.4501(5) 0.2628(4)
H68 H 0.1817 0.4245 0.2578
C48 C 0.2969(16) 0.5540(6) 0.2747(5)
H69 H 0.2342 0.5499 0.3312
H70 H 0.1988 0.5929 0.2300
H71 H 0.4376 0.5847 0.2705
C49 C 0.4503(9) 0.3779(5) 0.3400(4)
H72 H 0.3820 0.3132 0.3515
C50 C 0.6816(9) 0.3686(4) 0.3054(3)
H73 H 0.7591 0.4295 0.3030
C51 C 0.8083(9) 0.2826(4) 0.3645(4)
H74 H 0.9570 0.2778 0.3424
H75 H 0.7354 0.2214 0.3667
C52 C 0.8186(10) 0.2982(5) 0.4554(4)
H76 H 0.9071 0.3565 0.4518
C53 C 0.5867(10) 0.3201(5) 0.4866(4)
H77 H 0.4995 0.2614 0.4955
H78 H 0.5991 0.3359 0.5423
C54 C 0.9282(12) 0.2110(5) 0.5231(4)
H79 H 0.8514 0.1517 0.5247
H80 H 0.9222 0.2235 0.5796
H81 H 1.0800 0.2028 0.5075
H82 H 0.346(6) 0.417(4) 0.440(4)
O5 O 0.7328(9) 0.5568(4) 0.4352(4)
H83 H 0.6374 0.5185 0.4301
C55 C 0.6423(17) 0.6514(6) 0.4165(6)
H84 H 0.4841 0.6489 0.4219
H85 H 0.6794 0.6867 0.3578
H86 H 0.7000 0.6849 0.4567
O6 O 0.8953(10) 0.8533(4) 0.0969(5)
H87 H 0.9997 0.8865 0.0744
C56 C 0.961(2) 0.7602(8) 0.1254(8)
H88 H 1.1182 0.7542 0.1172
H89 H 0.8859 0.7217 0.0933
H90 H 0.9281 0.7362 0.1865
loop_
_geom_bond_atom_site_label_1
_geom_bond_atom_site_label_2
_geom_bond_site_symmetry_1
_geom_bond_site_symmetry_2
N1 C22 1_555 1_555
O1 H1 1_555 1_555
O2 C17 1_555 1_555
C1 H2 1_555 1_555
H3 C1 1_555 1_555
C2 C1 1_555 1_555
H4 C2 1_555 1_555
H5 C2 1_555 1_555
C3 O1 1_555 1_555
H6 C3 1_555 1_555
C4 C3 1_555 1_555
H7 C4 1_555 1_555
H8 C4 1_555 1_555
C5 C4 1_555 1_555
C6 C5 1_555 1_555
H9 C6 1_555 1_555
C7 C6 1_555 1_555
H10 C7 1_555 1_555
H11 C7 1_555 1_555
C8 C7 1_555 1_555
H12 C8 1_555 1_555
C9 C8 1_555 1_555
H13 C9 1_555 1_555
C10 C1 1_555 1_555
C11 C9 1_555 1_555
H14 C11 1_555 1_555
H15 C11 1_555 1_555
C12 C11 1_555 1_555
C13 C12 1_555 1_555
C14 C8 1_555 1_555
H16 C14 1_555 1_555
C15 C14 1_555 1_555
H17 C15 1_555 1_555
H18 C15 1_555 1_555
C16 C15 1_555 1_555
H19 C16 1_555 1_555
H20 C16 1_555 1_555
C17 C13 1_555 1_555
C18 C13 1_555 1_555
H21 C18 1_555 1_555
H22 C18 1_555 1_555
H23 C18 1_555 1_555
C19 C10 1_555 1_555
H24 C19 1_555 1_555
H25 C19 1_555 1_555
H26 C19 1_555 1_555
C20 C17 1_555 1_555
H27 C20 1_555 1_555
C21 C20 1_555 1_555
H28 C21 1_555 1_555
H29 C21 1_555 1_555
H30 C21 1_555 1_555
C22 C20 1_555 1_555
H31 C22 1_555 1_555
C23 O2 1_555 1_555
H32 C23 1_555 1_555
C24 C23 1_555 1_555
H33 C24 1_555 1_555
H34 C24 1_555 1_555
C25 C24 1_555 1_555
H35 C25 1_555 1_555
C26 N1 1_555 1_555
H36 C26 1_555 1_555
H37 C26 1_555 1_555
C27 C25 1_555 1_555
H38 C27 1_555 1_555
H39 C27 1_555 1_555
H40 C27 1_555 1_555
H41 N1 1_555 1_555
N2 C49 1_555 1_555
O3 H42 1_555 1_555
O4 C44 1_555 1_555
C28 H43 1_555 1_555
H44 C28 1_555 1_555
C29 C28 1_555 1_555
H45 C29 1_555 1_555
H46 C29 1_555 1_555
C30 O3 1_555 1_555
H47 C30 1_555 1_555
C31 C30 1_555 1_555
H48 C31 1_555 1_555
H49 C31 1_555 1_555
C32 C31 1_555 1_555
C33 C32 1_555 1_555
H50 C33 1_555 1_555
C34 C33 1_555 1_555
H51 C34 1_555 1_555
H52 C34 1_555 1_555
C35 C34 1_555 1_555
H53 C35 1_555 1_555
C36 C35 1_555 1_555
H54 C36 1_555 1_555
C37 C28 1_555 1_555
C38 C36 1_555 1_555
H55 C38 1_555 1_555
H56 C38 1_555 1_555
C39 C38 1_555 1_555
C40 C39 1_555 1_555
C41 C35 1_555 1_555
H57 C41 1_555 1_555
C42 C41 1_555 1_555
H58 C42 1_555 1_555
H59 C42 1_555 1_555
C43 C42 1_555 1_555
H60 C43 1_555 1_555
H61 C43 1_555 1_555
C44 C40 1_555 1_555
C45 C40 1_555 1_555
H62 C45 1_555 1_555
H63 C45 1_555 1_555
H64 C45 1_555 1_555
C46 C37 1_555 1_555
H65 C46 1_555 1_555
H66 C46 1_555 1_555
H67 C46 1_555 1_555
C47 C44 1_555 1_555
H68 C47 1_555 1_555
C48 C47 1_555 1_555
H69 C48 1_555 1_555
H70 C48 1_555 1_555
H71 C48 1_555 1_555
C49 C47 1_555 1_555
H72 C49 1_555 1_555
C50 O4 1_555 1_555
H73 C50 1_555 1_555
C51 C50 1_555 1_555
H74 C51 1_555 1_555
H75 C51 1_555 1_555
C52 C51 1_555 1_555
H76 C52 1_555 1_555
C53 N2 1_555 1_555
H77 C53 1_555 1_555
H78 C53 1_555 1_555
C54 C52 1_555 1_555
H79 C54 1_555 1_555
H80 C54 1_555 1_555
H81 C54 1_555 1_555
H82 N2 1_555 1_555
O5 H83 1_555 1_555
C55 O5 1_555 1_555
H84 C55 1_555 1_555
H85 C55 1_555 1_555
H86 C55 1_555 1_555
O6 H87 1_555 1_555
C56 O6 1_555 1_555
H88 C56 1_555 1_555
H89 C56 1_555 1_555
H90 C56 1_555 1_555
C2 C3 1_555 1_555
C5 C10 1_555 1_555
C9 C10 1_555 1_555
C12 C14 1_555 1_555
C16 C17 1_555 1_555
C22 C23 1_555 1_555
C25 C26 1_555 1_555
C29 C30 1_555 1_555
C32 C37 1_555 1_555
C36 C37 1_555 1_555
C39 C41 1_555 1_555
C43 C44 1_555 1_555
C49 C50 1_555 1_555
C52 C53 1_555 1_555

#END
