
#######################################################################
#
#                 Cambridge Crystallographic Data Centre
#                                CCDC 
#
#######################################################################
#
# If this CIF has been generated from an entry in the Cambridge 
# Structural Database, then it will include bibliographic, chemical, 
# crystal, experimental, refinement or atomic coordinate data resulting 
# from the CCDC's data processing and validation procedures.
#
#######################################################################

data_UGEMAW
_chemical_formula_moiety         'C27 H41 N1 O3,2.25(H2 O1)'
_chemical_name_systematic        '17,23-epoxyveratraman-3,14-diol hydrate'
_symmetry_cell_setting           monoclinic
_symmetry_space_group_name_H-M   'C 2'
_symmetry_Int_Tables_number      5
_space_group_name_Hall           'C 2y'
loop_
_symmetry_equiv_pos_site_id
_symmetry_equiv_pos_as_xyz
1 x,y,z
2 -x,y,-z
3 1/2+x,1/2+y,z
4 1/2-x,1/2+y,-z
_cell_length_a                   34.055(9)
_cell_length_b                   13.724(4)
_cell_length_c                   11.893(3)
_cell_angle_alpha                90
_cell_angle_beta                 107.029(5)
_cell_angle_gamma                90
_cell_volume                     5314.74
_exptl_crystal_colour            colorless
_exptl_crystal_description       prismatic
_cell_formula_units_Z            8
loop_
_atom_site_label
_atom_site_type_symbol
_atom_site_fract_x
_atom_site_fract_y
_atom_site_fract_z
O1 O 0.51761(7) 0.0191(2) 0.7230(3)
H1 H 0.5297 0.0629 0.7664
O2 O 0.29974(7) 0.27691(14) 0.38632(18)
H2 H 0.2861 0.2676 0.3179
O3 O 0.17632(5) 0.10361(15) 0.39421(16)
N1 N 0.09716(8) 0.1323(2) 0.1195(3)
C1 C 0.41258(10) 0.0090(3) 0.5056(3)
H3 H 0.3977 -0.0444 0.4586
H4 H 0.4167 0.0584 0.4519
C2 C 0.45452(10) -0.0284(3) 0.5782(4)
H5 H 0.4511 -0.0831 0.6260
H6 H 0.4700 -0.0506 0.5263
C3 C 0.47771(10) 0.0523(3) 0.6564(3)
H7 H 0.4813 0.1059 0.6058
C4 C 0.45330(10) 0.0904(3) 0.7349(3)
H8 H 0.4503 0.0389 0.7877
H9 H 0.4683 0.1435 0.7823
C5 C 0.41126(9) 0.1259(3) 0.6652(3)
C6 C 0.39857(10) 0.2152(3) 0.6781(3)
H10 H 0.4166 0.2551 0.7326
C7 C 0.35776(9) 0.2580(2) 0.6129(3)
H11 H 0.3610 0.3025 0.5529
H12 H 0.3468 0.2943 0.6668
C8 C 0.32818(8) 0.1764(2) 0.5559(2)
H13 H 0.3205 0.1407 0.6177
C9 C 0.34952(9) 0.1064(2) 0.4936(2)
H14 H 0.3609 0.1463 0.4425
C10 C 0.38576(9) 0.0525(2) 0.5771(3)
C11 C 0.31422(9) 0.0470(2) 0.4117(3)
H15 H 0.3196 0.0337 0.3375
H16 H 0.3106 -0.0143 0.4480
C12 C 0.27664(8) 0.1111(2) 0.3935(2)
C13 C 0.23796(8) 0.08749(19) 0.3393(2)
C14 C 0.28912(8) 0.2052(2) 0.4606(2)
C15 C 0.25400(9) 0.2414(2) 0.5037(3)
H17 H 0.2611 0.3038 0.5426
H18 H 0.2488 0.1956 0.5597
C16 C 0.21598(9) 0.2519(2) 0.3989(3)
H19 H 0.2215 0.2988 0.3444
H20 H 0.1937 0.2773 0.4257
C17 C 0.20239(8) 0.1559(2) 0.3342(2)
C18 C 0.22738(9) -0.0114(2) 0.2839(3)
H21 H 0.2519 -0.0497 0.2979
H22 H 0.2150 -0.0040 0.2007
H23 H 0.2085 -0.0434 0.3177
C19 C 0.37146(11) -0.0294(3) 0.6452(3)
H24 H 0.3520 -0.0036 0.6817
H25 H 0.3947 -0.0551 0.7045
H26 H 0.3588 -0.0805 0.5917
C20 C 0.17391(9) 0.1717(2) 0.2040(2)
H27 H 0.1876 0.1444 0.1493
C21 C 0.16163(10) 0.2768(3) 0.1682(3)
H28 H 0.1428 0.2778 0.0903
H29 H 0.1857 0.3139 0.1694
H30 H 0.1487 0.3048 0.2223
C22 C 0.13694(9) 0.1081(2) 0.2019(2)
H31 H 0.1435 0.0404 0.1883
C23 C 0.13478(8) 0.1169(2) 0.3266(2)
H32 H 0.1261 0.1831 0.3392
C24 C 0.10484(10) 0.0452(3) 0.3506(3)
H33 H 0.1025 0.0547 0.4292
H34 H 0.1141 -0.0210 0.3446
C25 C 0.06322(10) 0.0626(3) 0.2587(4)
H35 H 0.0536 0.1276 0.2725
C26 C 0.06685(11) 0.0605(3) 0.1349(4)
H36 H 0.0750 -0.0042 0.1179
H37 H 0.0403 0.0746 0.0795
C27 C 0.03137(12) -0.0119(4) 0.2735(5)
H38 H 0.0053 0.0012 0.2170
H39 H 0.0287 -0.0071 0.3514
H40 H 0.0402 -0.0765 0.2612
H41 H 0.0991(11) 0.130(3) 0.051(4)
O4 O 0.28339(16) 0.4742(3) 0.4108(3)
H42 H 0.3074(8) 0.468(3) 0.405(3)
H43 H 0.2936(15) 0.512(3) 0.467(4)
O5 O 0.51333(10) 0.8381(3) 0.8241(3)
H44 H 0.4936(16) 0.826(6) 0.849(6)
H45 H 0.520(4) 0.896(3) 0.824(14)
O6 O 0.26378(8) 0.2701(2) 0.1443(2)
H46 H 0.2854(9) 0.256(3) 0.128(4)
H47 H 0.2640(14) 0.3289(19) 0.137(4)
O7 O 0.05369(12) 0.3181(3) 0.0864(4)
H48 H 0.0702(16) 0.272(4) 0.095(6)
H49 H 0.0365(14) 0.275(3) 0.058(5)
O8 O 0.0000 0.7589(7) 0.0000
H50 H 0.0142(11) 0.816(2) 0.015(4)
H50A H -0.0142(11) 0.816(2) -0.015(4)
N2 N 0.05675(8) 0.6956(2) -0.1375(3)
O9 O 0.48371(7) 0.7134(2) 0.3753(2)
H51 H 0.4857 0.7473 0.3205
O10 O 0.25387(7) 0.46863(16) 0.16807(19)
H52 H 0.2651 0.4863 0.2357
O11 O 0.16488(5) 0.67970(14) -0.10830(16)
C28 C 0.37123(9) 0.7115(3) 0.3567(3)
H53 H 0.3543 0.7596 0.3805
H54 H 0.3709 0.6525 0.4014
C29 C 0.41532(10) 0.7495(3) 0.3869(3)
H55 H 0.4157 0.8110 0.3469
H56 H 0.4257 0.7610 0.4709
C30 C 0.44262(9) 0.6776(3) 0.3505(3)
H57 H 0.4433 0.6175 0.3955
C31 C 0.42576(9) 0.6535(3) 0.2205(3)
H58 H 0.4283 0.7104 0.1748
H59 H 0.4422 0.6018 0.2015
C32 C 0.38147(8) 0.6220(2) 0.1859(2)
C33 C 0.36985(9) 0.5400(2) 0.1265(3)
H60 H 0.3903 0.5027 0.1101
C34 C 0.32668(9) 0.5018(2) 0.0830(3)
H61 H 0.3237 0.4459 0.1298
H62 H 0.3210 0.4808 0.0019
C35 C 0.29656(8) 0.5802(2) 0.0916(2)
H63 H 0.2944 0.6267 0.0276
C36 C 0.31147(8) 0.6353(2) 0.2078(2)
H64 H 0.3163 0.5866 0.2707
C37 C 0.35222(8) 0.6892(2) 0.2238(2)
C38 C 0.27362(8) 0.6944(2) 0.2120(2)
H65 H 0.2717 0.6978 0.2917
H66 H 0.2748 0.7600 0.1831
C39 C 0.23733(8) 0.6391(2) 0.1329(2)
C40 C 0.19883(8) 0.6716(2) 0.0940(2)
C41 C 0.25288(8) 0.5489(2) 0.0881(2)
C42 C 0.22511(8) 0.5178(2) -0.0306(2)
H67 H 0.2326 0.4530 -0.0495
H68 H 0.2282 0.5623 -0.0908
C43 C 0.18078(8) 0.5182(2) -0.0273(3)
H69 H 0.1631 0.4945 -0.1018
H70 H 0.1781 0.4743 0.0340
C44 C 0.16685(8) 0.6194(2) -0.0041(2)
C45 C 0.18744(10) 0.7692(2) 0.1318(3)
H71 H 0.2091 0.7920 0.1980
H72 H 0.1625 0.7635 0.1535
H73 H 0.1834 0.8147 0.0681
C46 C 0.34618(10) 0.7845(2) 0.1533(3)
H74 H 0.3722 0.8071 0.1479
H75 H 0.3344 0.8328 0.1921
H76 H 0.3281 0.7732 0.0757
C47 C 0.12192(8) 0.6215(2) 0.0080(3)
H77 H 0.1232 0.6464 0.0863
C48 C 0.09890(10) 0.5249(3) -0.0108(4)
H78 H 0.0724 0.5338 0.0007
H79 H 0.1142 0.4777 0.0444
H80 H 0.0956 0.5022 -0.0894
C49 C 0.10130(8) 0.6985(2) -0.0836(3)
H81 H 0.1084 0.7628 -0.0476
C50 C 0.12324(8) 0.6863(2) -0.1756(2)
H82 H 0.1147 0.6251 -0.2181
C51 C 0.11428(9) 0.7699(2) -0.2608(3)
H83 H 0.1278 0.7599 -0.3212
H84 H 0.1243 0.8303 -0.2201
C52 C 0.06771(10) 0.7752(3) -0.3162(3)
H85 H 0.0588 0.7174 -0.3656
C53 C 0.04535(10) 0.7767(3) -0.2222(3)
H86 H 0.0513 0.8378 -0.1796
H87 H 0.0160 0.7742 -0.2604
C54 C 0.05675(15) 0.8667(4) -0.3945(4)
H88 H 0.0692 0.9229 -0.3503
H89 H 0.0275 0.8749 -0.4204
H90 H 0.0667 0.8593 -0.4616
H91 H 0.0424(16) 0.690(5) -0.093(4)
loop_
_geom_bond_atom_site_label_1
_geom_bond_atom_site_label_2
_geom_bond_site_symmetry_1
_geom_bond_site_symmetry_2
O1 H1 1_555 1_555
O2 H2 1_555 1_555
O3 C17 1_555 1_555
N1 C22 1_555 1_555
C1 H3 1_555 1_555
H4 C1 1_555 1_555
C2 C1 1_555 1_555
H5 C2 1_555 1_555
H6 C2 1_555 1_555
C3 O1 1_555 1_555
H7 C3 1_555 1_555
C4 C3 1_555 1_555
H8 C4 1_555 1_555
H9 C4 1_555 1_555
C5 C4 1_555 1_555
C6 C5 1_555 1_555
H10 C6 1_555 1_555
C7 C6 1_555 1_555
H11 C7 1_555 1_555
H12 C7 1_555 1_555
C8 C7 1_555 1_555
H13 C8 1_555 1_555
C9 C8 1_555 1_555
H14 C9 1_555 1_555
C10 C1 1_555 1_555
C11 C9 1_555 1_555
H15 C11 1_555 1_555
H16 C11 1_555 1_555
C12 C11 1_555 1_555
C13 C12 1_555 1_555
C14 O2 1_555 1_555
C15 C14 1_555 1_555
H17 C15 1_555 1_555
H18 C15 1_555 1_555
C16 C15 1_555 1_555
H19 C16 1_555 1_555
H20 C16 1_555 1_555
C17 C13 1_555 1_555
C18 C13 1_555 1_555
H21 C18 1_555 1_555
H22 C18 1_555 1_555
H23 C18 1_555 1_555
C19 C10 1_555 1_555
H24 C19 1_555 1_555
H25 C19 1_555 1_555
H26 C19 1_555 1_555
C20 C17 1_555 1_555
H27 C20 1_555 1_555
C21 C20 1_555 1_555
H28 C21 1_555 1_555
H29 C21 1_555 1_555
H30 C21 1_555 1_555
C22 C20 1_555 1_555
H31 C22 1_555 1_555
C23 O3 1_555 1_555
H32 C23 1_555 1_555
C24 C23 1_555 1_555
H33 C24 1_555 1_555
H34 C24 1_555 1_555
C25 C24 1_555 1_555
H35 C25 1_555 1_555
C26 N1 1_555 1_555
H36 C26 1_555 1_555
H37 C26 1_555 1_555
C27 C25 1_555 1_555
H38 C27 1_555 1_555
H39 C27 1_555 1_555
H40 C27 1_555 1_555
H41 N1 1_555 1_555
O4 H42 1_555 1_555
H43 O4 1_555 1_555
O5 H44 1_555 1_555
H45 O5 1_555 1_555
O6 H46 1_555 1_555
H47 O6 1_555 1_555
O7 H48 1_555 1_555
H49 O7 1_555 1_555
O8 H50 1_555 1_555
N2 C49 1_555 1_555
O9 H51 1_555 1_555
O10 H52 1_555 1_555
O11 C44 1_555 1_555
C28 H53 1_555 1_555
H54 C28 1_555 1_555
C29 C28 1_555 1_555
H55 C29 1_555 1_555
H56 C29 1_555 1_555
C30 O9 1_555 1_555
H57 C30 1_555 1_555
C31 C30 1_555 1_555
H58 C31 1_555 1_555
H59 C31 1_555 1_555
C32 C31 1_555 1_555
C33 C32 1_555 1_555
H60 C33 1_555 1_555
C34 C33 1_555 1_555
H61 C34 1_555 1_555
H62 C34 1_555 1_555
C35 C34 1_555 1_555
H63 C35 1_555 1_555
C36 C35 1_555 1_555
H64 C36 1_555 1_555
C37 C28 1_555 1_555
C38 C36 1_555 1_555
H65 C38 1_555 1_555
H66 C38 1_555 1_555
C39 C38 1_555 1_555
C40 C39 1_555 1_555
C41 O10 1_555 1_555
C42 C41 1_555 1_555
H67 C42 1_555 1_555
H68 C42 1_555 1_555
C43 C42 1_555 1_555
H69 C43 1_555 1_555
H70 C43 1_555 1_555
C44 C40 1_555 1_555
C45 C40 1_555 1_555
H71 C45 1_555 1_555
H72 C45 1_555 1_555
H73 C45 1_555 1_555
C46 C37 1_555 1_555
H74 C46 1_555 1_555
H75 C46 1_555 1_555
H76 C46 1_555 1_555
C47 C44 1_555 1_555
H77 C47 1_555 1_555
C48 C47 1_555 1_555
H78 C48 1_555 1_555
H79 C48 1_555 1_555
H80 C48 1_555 1_555
C49 C47 1_555 1_555
H81 C49 1_555 1_555
C50 O11 1_555 1_555
H82 C50 1_555 1_555
C51 C50 1_555 1_555
H83 C51 1_555 1_555
H84 C51 1_555 1_555
C52 C51 1_555 1_555
H85 C52 1_555 1_555
C53 N2 1_555 1_555
H86 C53 1_555 1_555
H87 C53 1_555 1_555
C54 C52 1_555 1_555
H88 C54 1_555 1_555
H89 C54 1_555 1_555
H90 C54 1_555 1_555
H91 N2 1_555 1_555
H50A O8 1_555 1_555
C2 C3 1_555 1_555
C5 C10 1_555 1_555
C8 C14 1_555 1_555
C9 C10 1_555 1_555
C12 C14 1_555 1_555
C16 C17 1_555 1_555
C22 C23 1_555 1_555
C25 C26 1_555 1_555
C29 C30 1_555 1_555
C32 C37 1_555 1_555
C35 C41 1_555 1_555
C36 C37 1_555 1_555
C39 C41 1_555 1_555
C43 C44 1_555 1_555
C49 C50 1_555 1_555
C52 C53 1_555 1_555

#END
