
#######################################################################
#
#                 Cambridge Crystallographic Data Centre
#                                CCDC 
#
#######################################################################
#
# If this CIF has been generated from an entry in the Cambridge 
# Structural Database, then it will include bibliographic, chemical, 
# crystal, experimental, refinement or atomic coordinate data resulting 
# from the CCDC's data processing and validation procedures.
#
#######################################################################

data_UGETAB
_chemical_formula_moiety         'C20 H13 N3'
_chemical_name_systematic        
5-Phenyl-11H-pyrido(4',3':4,5)pyrrolo(2,3-b)quinoline
_symmetry_cell_setting           triclinic
_symmetry_space_group_name_H-M   'P -1'
_symmetry_Int_Tables_number      2
_space_group_name_Hall           '-P 1'
loop_
_symmetry_equiv_pos_site_id
_symmetry_equiv_pos_as_xyz
1 x,y,z
2 -x,-y,-z
_cell_length_a                   10.403(2)
_cell_length_b                   11.382(2)
_cell_length_c                   14.365(2)
_cell_angle_alpha                88.52(2)
_cell_angle_beta                 69.23(2)
_cell_angle_gamma                74.51(2)
_cell_volume                     1528.12
_chemical_melting_point          '323-324 deg.C'
_cell_formula_units_Z            4
_exptl_crystal_recrystallization_method 'absolute ethanol/chloroform'
loop_
_atom_site_label
_atom_site_type_symbol
_atom_site_fract_x
_atom_site_fract_y
_atom_site_fract_z
N1 N -0.3969(3) 0.1221(3) 1.0739(2)
N2 N -0.7572(3) 0.0923(3) 1.1214(2)
N3 N -0.2121(3) 0.2148(3) 0.9917(2)
C1 C -0.5301(4) 0.1299(3) 1.0737(2)
C2 C -0.6310(4) 0.0734(3) 1.1303(3)
C3 C -0.7854(4) 0.1698(4) 1.0546(3)
C4 C -0.6920(4) 0.2306(3) 0.9939(3)
C5 C -0.5605(4) 0.2109(3) 1.0038(2)
C6 C -0.4358(4) 0.2551(3) 0.9591(2)
C7 C -0.3982(4) 0.3362(3) 0.8883(2)
C8 C -0.2662(4) 0.3601(3) 0.8714(3)
C9 C -0.2194(4) 0.4488(4) 0.8062(3)
C10 C -0.0969(5) 0.4772(4) 0.7962(3)
C11 C -0.0108(5) 0.4175(4) 0.8481(3)
C12 C -0.0494(4) 0.3298(4) 0.9100(3)
C13 C -0.1770(4) 0.2995(3) 0.9244(3)
C14 C -0.3375(4) 0.1984(3) 1.0067(3)
C15 C -0.4922(4) 0.3929(3) 0.8317(3)
C16 C -0.5963(4) 0.5018(4) 0.8671(3)
C17 C -0.6846(5) 0.5530(4) 0.8149(3)
C18 C -0.6702(4) 0.4953(4) 0.7284(3)
C19 C -0.5673(5) 0.3866(4) 0.6924(3)
C20 C -0.4784(4) 0.3363(3) 0.7440(3)
H1 H -0.3566(3) 0.0767(3) 1.1102(2)
H2 H -0.6096(4) 0.0202(3) 1.1763(3)
H3 H -0.8744(4) 0.1836(4) 1.0488(3)
H4 H -0.7166(4) 0.2826(3) 0.9482(3)
H5 H -0.2742(4) 0.4883(4) 0.7697(3)
H6 H -0.0701(5) 0.5370(4) 0.7543(3)
H7 H 0.0732(5) 0.4375(4) 0.8405(3)
H8 H 0.0099(4) 0.2894(4) 0.9431(3)
H9 H -0.6076(4) 0.5414(4) 0.9264(3)
H10 H -0.7540(5) 0.6270(4) 0.8391(3)
H11 H -0.7300(4) 0.5296(4) 0.6938(3)
H12 H -0.5573(5) 0.3467(4) 0.6335(3)
H13 H -0.4080(4) 0.2630(3) 0.7189(3)
N4 N 0.0658(3) 0.9563(3) 0.2449(2)
N5 N -0.2534(3) 0.9661(3) 0.1862(2)
N6 N 0.1895(3) 0.9157(3) 0.3580(2)
C21 C -0.0590(4) 0.9410(3) 0.2411(2)
C22 C -0.1276(4) 0.9845(3) 0.1759(3)
C23 C -0.3108(4) 0.9020(4) 0.2623(3)
C24 C -0.2498(4) 0.8558(3) 0.3306(3)
C25 C -0.1198(4) 0.8760(3) 0.3217(2)
C26 C -0.0275(4) 0.8541(3) 0.3791(3)
C27 C -0.0319(4) 0.8034(3) 0.4677(2)
C28 C 0.0758(4) 0.8120(3) 0.5051(3)
C29 C 0.0801(5) 0.7674(3) 0.5971(3)
C30 C 0.1849(6) 0.7773(4) 0.6304(4)
C31 C 0.2916(6) 0.8306(4) 0.5737(4)
C32 C 0.2906(4) 0.8743(4) 0.4842(3)
C33 C 0.1832(4) 0.8674(3) 0.4475(3)
C34 C 0.0846(4) 0.9082(3) 0.3291(3)
C35 C -0.1457(4) 0.7428(3) 0.5216(3)
C36 C -0.2546(5) 0.7960(4) 0.6078(3)
C37 C -0.3626(5) 0.7412(5) 0.6550(3)
C38 C -0.3601(6) 0.6315(5) 0.6166(4)
C39 C -0.2496(6) 0.5759(4) 0.5306(4)
C40 C -0.1429(5) 0.6311(4) 0.4833(3)
H14 H 0.1228(3) 0.9904(3) 0.2014(2)
H15 H -0.0854(4) 1.0277(3) 0.1234(3)
H16 H -0.3977(4) 0.8881(4) 0.2690(3)
H17 H -0.2942(4) 0.8121(3) 0.3818(3)
H18 H 0.0107(5) 0.7307(3) 0.6355(3)
H19 H 0.1852(6) 0.7484(4) 0.6915(4)
H20 H 0.3630(6) 0.8363(4) 0.5967(4)
H21 H 0.3621(4) 0.9093(4) 0.4467(3)
H22 H -0.2563(5) 0.8697(4) 0.6353(3)
H23 H -0.4372(5) 0.7793(5) 0.7130(3)
H24 H -0.4325(6) 0.5948(5) 0.6484(4)
H25 H -0.2468(6) 0.5010(4) 0.5043(4)
H26 H -0.0684(5) 0.5931(4) 0.4252(3)
loop_
_geom_bond_atom_site_label_1
_geom_bond_atom_site_label_2
_geom_bond_site_symmetry_1
_geom_bond_site_symmetry_2
N1 C1 1_555 1_555
N2 C2 1_555 1_555
N3 C13 1_555 1_555
C1 C2 1_555 1_555
C2 H2 1_555 1_555
C3 N2 1_555 1_555
C4 C3 1_555 1_555
C5 C1 1_555 1_555
C6 C5 1_555 1_555
C7 C6 1_555 1_555
C8 C7 1_555 1_555
C9 C8 1_555 1_555
C10 C9 1_555 1_555
C11 C10 1_555 1_555
C12 C11 1_555 1_555
C13 C8 1_555 1_555
C14 N1 1_555 1_555
C15 C7 1_555 1_555
C16 C15 1_555 1_555
C17 C16 1_555 1_555
C18 C17 1_555 1_555
C19 C18 1_555 1_555
C20 C15 1_555 1_555
N4 C21 1_555 1_555
N5 C22 1_555 1_555
N6 C33 1_555 1_555
C21 C22 1_555 1_555
C22 H15 1_555 1_555
C23 N5 1_555 1_555
C24 C23 1_555 1_555
C25 C21 1_555 1_555
C26 C25 1_555 1_555
C27 C26 1_555 1_555
C28 C27 1_555 1_555
C29 C28 1_555 1_555
C30 C29 1_555 1_555
C31 C30 1_555 1_555
C32 C31 1_555 1_555
C33 C28 1_555 1_555
C34 N4 1_555 1_555
C35 C27 1_555 1_555
C36 C35 1_555 1_555
C37 C36 1_555 1_555
C38 C37 1_555 1_555
C39 C38 1_555 1_555
C40 C35 1_555 1_555
H1 N1 1_555 1_555
H3 C3 1_555 1_555
H4 C4 1_555 1_555
H5 C9 1_555 1_555
H6 C10 1_555 1_555
H7 C11 1_555 1_555
H8 C12 1_555 1_555
H9 C16 1_555 1_555
H10 C17 1_555 1_555
H11 C18 1_555 1_555
H12 C19 1_555 1_555
H13 C20 1_555 1_555
H14 N4 1_555 1_555
H16 C23 1_555 1_555
H17 C24 1_555 1_555
H18 C29 1_555 1_555
H19 C30 1_555 1_555
H20 C31 1_555 1_555
H21 C32 1_555 1_555
H22 C36 1_555 1_555
H23 C37 1_555 1_555
H24 C38 1_555 1_555
H25 C39 1_555 1_555
H26 C40 1_555 1_555
N3 C14 1_555 1_555
C4 C5 1_555 1_555
C6 C14 1_555 1_555
C12 C13 1_555 1_555
C19 C20 1_555 1_555
N6 C34 1_555 1_555
C24 C25 1_555 1_555
C26 C34 1_555 1_555
C32 C33 1_555 1_555
C39 C40 1_555 1_555

#END
