
#######################################################################
#
#                 Cambridge Crystallographic Data Centre
#                                CCDC 
#
#######################################################################
#
# If this CIF has been generated from an entry in the Cambridge 
# Structural Database, then it will include bibliographic, chemical, 
# crystal, experimental, refinement or atomic coordinate data resulting 
# from the CCDC's data processing and validation procedures.
#
#######################################################################

data_UGETOR
_chemical_formula_moiety         'C25 H22 N2 O1'
_chemical_name_systematic        
1-Benzyl-5'-methyl-3'-phenyl-3',4'-dihydrospiro[indole-3,2'-pyrrol]-2(1H)-one
_symmetry_cell_setting           monoclinic
_symmetry_space_group_name_H-M   'P c'
_symmetry_Int_Tables_number      7
_space_group_name_Hall           'P -2yc'
loop_
_symmetry_equiv_pos_site_id
_symmetry_equiv_pos_as_xyz
1 x,y,z
2 x,-y,1/2+z
_cell_length_a                   12.5176(7)
_cell_length_b                   14.1111(8)
_cell_length_c                   11.2892(6)
_cell_angle_alpha                90
_cell_angle_beta                 102.823(6)
_cell_angle_gamma                90
_cell_volume                     1944.36
_cell_formula_units_Z            4
loop_
_atom_site_label
_atom_site_type_symbol
_atom_site_fract_x
_atom_site_fract_y
_atom_site_fract_z
C1 C -0.4470(3) -0.8614(2) -0.3778(3)
C2 C -0.5539(3) -0.8895(3) -0.3869(3)
H1 H -0.6090 -0.8631 -0.4468
C3 C -0.5809(3) -0.9561(3) -0.3089(4)
H2 H -0.6536 -0.9744 -0.3172
C4 C -0.5015(4) -0.9952(3) -0.2193(3)
H3 H -0.5198 -1.0391 -0.1656
C5 C -0.3950(3) -0.9692(3) -0.2098(3)
H4 H -0.3405 -0.9958 -0.1495
C6 C -0.3674(3) -0.9035(2) -0.2891(3)
H5 H -0.2942 -0.8875 -0.2826
C7 C -0.4030(3) -0.6836(2) -0.4085(3)
C8 C -0.4225(3) -0.7859(2) -0.4618(3)
H6 H -0.4869 -0.7821 -0.5293
C9 C -0.3230(3) -0.7978(3) -0.5192(3)
H7 H -0.2630 -0.8291 -0.4640
H8 H -0.3418 -0.8332 -0.5945
C10 C -0.2952(3) -0.6966(3) -0.5412(3)
C11 C -0.2194(3) -0.6723(3) -0.6217(3)
H9 H -0.2167 -0.6047 -0.6305
H10 H -0.2453 -0.7008 -0.7000
H11 H -0.1473 -0.6957 -0.5863
C12 C -0.5056(3) -0.6344(2) -0.3945(3)
C13 C -0.5997(3) -0.6112(3) -0.4768(3)
H12 H -0.6076 -0.6264 -0.5584
C14 C -0.6826(3) -0.5651(3) -0.4376(4)
H13 H -0.7460 -0.5481 -0.4937
C15 C -0.6729(3) -0.5439(3) -0.3167(4)
H14 H -0.7298 -0.5128 -0.2921
C16 C -0.5790(3) -0.5683(2) -0.2310(3)
H15 H -0.5725 -0.5556 -0.1489
C17 C -0.4961(3) -0.6119(2) -0.2726(3)
C18 C -0.3321(3) -0.6806(2) -0.2772(3)
C19 C -0.3518(3) -0.6196(2) -0.0759(3)
H16 H -0.3567 -0.5518 -0.0634
H17 H -0.2750 -0.6371 -0.0532
C20 C -0.4129(3) -0.6705(2) 0.0060(3)
C21 C -0.4414(3) -0.7641(3) -0.0115(3)
H18 H -0.4262 -0.7963 -0.0777
C22 C -0.4927(3) -0.8112(3) 0.0680(4)
H19 H -0.5101 -0.8750 0.0559
C23 C -0.5177(3) -0.7647(4) 0.1639(4)
H20 H -0.5522 -0.7966 0.2172
C24 C -0.4921(4) -0.6720(4) 0.1811(4)
H21 H -0.5104 -0.6399 0.2458
C25 C -0.4384(3) -0.6235(3) 0.1032(3)
H22 H -0.4200 -0.5600 0.1169
N1 N -0.3397(2) -0.6347(2) -0.4860(2)
N2 N -0.3928(2) -0.64026(19) -0.2040(2)
O1 O -0.23851(18) -0.70779(18) -0.2438(2)
C26 C -0.9098(3) -0.6353(2) -0.8531(3)
C27 C -0.9987(3) -0.5976(3) -0.9339(3)
H23 H -1.0099 -0.6129 -1.0159
C28 C -1.0720(3) -0.5373(3) -0.8954(4)
H24 H -1.1311 -0.5123 -0.9515
C29 C -1.0569(3) -0.5145(3) -0.7740(4)
H25 H -1.1059 -0.4746 -0.7476
C30 C -0.9699(4) -0.5509(3) -0.6936(4)
H26 H -0.9591 -0.5359 -0.6116
C31 C -0.8975(3) -0.6101(3) -0.7327(3)
H27 H -0.8380 -0.6339 -0.6760
C32 C -0.8562(3) -0.8102(2) -0.8652(3)
C33 C -0.8296(3) -0.7037(2) -0.8850(3)
H28 H -0.7585 -0.6902 -0.8309
C34 C -0.8111(3) -0.7061(3) -1.0146(3)
H29 H -0.8764 -0.6867 -1.0732
H30 H -0.7506 -0.6654 -1.0225
C35 C -0.7850(3) -0.8077(3) -1.0306(3)
C36 C -0.7409(3) -0.8424(3) -1.1355(3)
H31 H -0.7198 -0.9076 -1.1228
H32 H -0.6782 -0.8052 -1.1419
H33 H -0.7963 -0.8365 -1.2090
C37 C -0.9754(3) -0.8349(2) -0.8807(3)
C38 C -1.0623(3) -0.8275(3) -0.9790(3)
H34 H -1.0520 -0.8037 -1.0524
C39 C -1.1653(3) -0.8561(3) -0.9674(4)
H35 H -1.2246 -0.8504 -1.0332
C40 C -1.1806(3) -0.8928(3) -0.8598(4)
H36 H -1.2505 -0.9116 -0.8537
C41 C -1.0938(3) -0.9024(3) -0.7599(3)
H37 H -1.1040 -0.9275 -0.6870
C42 C -0.9925(3) -0.8736(2) -0.7728(3)
C43 C -0.8090(3) -0.8419(2) -0.7344(3)
C44 C -0.8767(3) -0.9196(3) -0.5670(3)
H38 H -0.7991 -0.9302 -0.5343
H39 H -0.9130 -0.9807 -0.5737
C45 C -0.9217(3) -0.8579(2) -0.4798(3)
C46 C -0.9948(3) -0.8942(3) -0.4163(3)
H40 H -1.0160 -0.9574 -0.4263
C47 C -1.0370(3) -0.8371(3) -0.3377(3)
H41 H -1.0855 -0.8625 -0.2946
C48 C -1.0080(3) -0.7450(3) -0.3232(3)
H42 H -1.0386 -0.7066 -0.2726
C49 C -0.9332(3) -0.7079(3) -0.3835(3)
H43 H -0.9119 -0.6448 -0.3723
C50 C -0.8898(3) -0.7649(3) -0.4606(3)
H44 H -0.8383 -0.7400 -0.5000
N3 N -0.8065(2) -0.8645(2) -0.9504(2)
N4 N -0.8914(2) -0.87795(19) -0.6875(2)
O2 O -0.71349(18) -0.8347(2) -0.6797(2)
loop_
_geom_bond_atom_site_label_1
_geom_bond_atom_site_label_2
_geom_bond_site_symmetry_1
_geom_bond_site_symmetry_2
C1 C2 1_555 1_555
C2 H1 1_555 1_555
C3 C2 1_555 1_555
H2 C3 1_555 1_555
C4 C3 1_555 1_555
H3 C4 1_555 1_555
C5 C4 1_555 1_555
H4 C5 1_555 1_555
C6 C1 1_555 1_555
H5 C6 1_555 1_555
C7 C8 1_555 1_555
C8 C1 1_555 1_555
H6 C8 1_555 1_555
C9 C8 1_555 1_555
H7 C9 1_555 1_555
H8 C9 1_555 1_555
C10 C9 1_555 1_555
C11 C10 1_555 1_555
H9 C11 1_555 1_555
H10 C11 1_555 1_555
H11 C11 1_555 1_555
C12 C7 1_555 1_555
C13 C12 1_555 1_555
H12 C13 1_555 1_555
C14 C13 1_555 1_555
H13 C14 1_555 1_555
C15 C14 1_555 1_555
H14 C15 1_555 1_555
C16 C15 1_555 1_555
H15 C16 1_555 1_555
C17 C12 1_555 1_555
C18 C7 1_555 1_555
C19 H16 1_555 1_555
H17 C19 1_555 1_555
C20 C19 1_555 1_555
C21 C20 1_555 1_555
H18 C21 1_555 1_555
C22 C21 1_555 1_555
H19 C22 1_555 1_555
C23 C22 1_555 1_555
H20 C23 1_555 1_555
C24 C23 1_555 1_555
H21 C24 1_555 1_555
C25 C20 1_555 1_555
H22 C25 1_555 1_555
N1 C7 1_555 1_555
N2 C17 1_555 1_555
O1 C18 1_555 1_555
C26 C27 1_555 1_555
C27 H23 1_555 1_555
C28 C27 1_555 1_555
H24 C28 1_555 1_555
C29 C28 1_555 1_555
H25 C29 1_555 1_555
C30 C29 1_555 1_555
H26 C30 1_555 1_555
C31 C26 1_555 1_555
H27 C31 1_555 1_555
C32 C33 1_555 1_555
C33 C26 1_555 1_555
H28 C33 1_555 1_555
C34 C33 1_555 1_555
H29 C34 1_555 1_555
H30 C34 1_555 1_555
C35 C34 1_555 1_555
C36 C35 1_555 1_555
H31 C36 1_555 1_555
H32 C36 1_555 1_555
H33 C36 1_555 1_555
C37 C32 1_555 1_555
C38 C37 1_555 1_555
H34 C38 1_555 1_555
C39 C38 1_555 1_555
H35 C39 1_555 1_555
C40 C39 1_555 1_555
H36 C40 1_555 1_555
C41 C40 1_555 1_555
H37 C41 1_555 1_555
C42 C37 1_555 1_555
C43 C32 1_555 1_555
C44 H38 1_555 1_555
H39 C44 1_555 1_555
C45 C44 1_555 1_555
C46 C45 1_555 1_555
H40 C46 1_555 1_555
C47 C46 1_555 1_555
H41 C47 1_555 1_555
C48 C47 1_555 1_555
H42 C48 1_555 1_555
C49 C48 1_555 1_555
H43 C49 1_555 1_555
C50 C45 1_555 1_555
H44 C50 1_555 1_555
N3 C32 1_555 1_555
N4 C42 1_555 1_555
O2 C43 1_555 1_555
C5 C6 1_555 1_555
C10 N1 1_555 1_555
C16 C17 1_555 1_555
C18 N2 1_555 1_555
C19 N2 1_555 1_555
C24 C25 1_555 1_555
C30 C31 1_555 1_555
C35 N3 1_555 1_555
C41 C42 1_555 1_555
C43 N4 1_555 1_555
C44 N4 1_555 1_555
C49 C50 1_555 1_555

#END
