
#######################################################################
#
#                 Cambridge Crystallographic Data Centre
#                                CCDC 
#
#######################################################################
#
# If this CIF has been generated from an entry in the Cambridge 
# Structural Database, then it will include bibliographic, chemical, 
# crystal, experimental, refinement or atomic coordinate data resulting 
# from the CCDC's data processing and validation procedures.
#
#######################################################################

data_UGETEF
_chemical_formula_moiety         'C21 H20 N4'
_chemical_name_systematic        
4-(Pent-1-ynyl)-11-n-propyl-6H-pyrido(4',3':4,5)pyrrolo(2,3-b)(1,5)naphthyridine
_symmetry_cell_setting           monoclinic
_symmetry_space_group_name_H-M   'P 21/c'
_symmetry_Int_Tables_number      14
_space_group_name_Hall           '-P 2ybc'
loop_
_symmetry_equiv_pos_site_id
_symmetry_equiv_pos_as_xyz
1 x,y,z
2 -x,1/2+y,1/2-z
3 -x,-y,-z
4 x,1/2-y,1/2+z
_cell_length_a                   10.128(1)
_cell_length_b                   10.543(1)
_cell_length_c                   17.093(1)
_cell_angle_alpha                90
_cell_angle_beta                 104.886(8)
_cell_angle_gamma                90
_cell_volume                     1763.93
_cell_formula_units_Z            4
_exptl_crystal_recrystallization_method chloroform
loop_
_atom_site_label
_atom_site_type_symbol
_atom_site_fract_x
_atom_site_fract_y
_atom_site_fract_z
N1 N 0.0728(2) 0.4383(2) 0.1873(1)
N2 N -0.0345(2) 0.1049(2) 0.1889(1)
N3 N 0.2683(2) 0.5798(2) -0.0663(1)
N4 N 0.1681(2) 0.6052(2) 0.1269(1)
C1 C 0.0409(2) 0.3126(2) 0.1706(1)
C2 C -0.0147(3) 0.2246(2) 0.2137(1)
C3 C -0.0004(3) 0.0704(2) 0.1213(2)
C4 C 0.0540(3) 0.1506(2) 0.0743(1)
C5 C 0.0755(2) 0.2769(2) 0.0991(1)
C6 C 0.1297(2) 0.3899(2) 0.0697(1)
C7 C 0.1758(2) 0.4194(2) 0.0028(1)
C8 C 0.2217(2) 0.5469(2) -0.0007(1)
C9 C 0.3110(3) 0.6973(3) -0.0695(2)
C10 C 0.3147(3) 0.7881(3) -0.0098(2)
C11 C 0.2712(2) 0.7591(2) 0.0575(2)
C12 C 0.2183(2) 0.6338(2) 0.0623(1)
C13 C 0.1271(2) 0.4870(2) 0.1282(1)
C14 C 0.1813(3) 0.3255(2) -0.0621(1)
C15 C 0.3156(3) 0.2545(3) -0.0453(2)
C16 C 0.3218(3) 0.1607(3) -0.1111(2)
C17 C 0.2808(3) 0.8468(2) 0.1222(2)
C18 C 0.2974(3) 0.9204(3) 0.1771(2)
C19 C 0.3230(3) 1.0090(3) 0.2449(2)
C20 C 0.4709(4) 1.0490(3) 0.2735(2)
C21 C 0.5194(5) 1.1245(4) 0.2124(2)
H1 H 0.0606(2) 0.4795(2) 0.2283(1)
H2 H -0.0383(3) 0.2498(2) 0.2604(1)
H3 H -0.0143(3) -0.0137(2) 0.1050(2)
H4 H 0.0756(3) 0.1218(2) 0.0277(1)
H5 H 0.3407(3) 0.7211(3) -0.1145(2)
H6 H 0.3469(3) 0.8692(3) -0.0158(2)
H7 H 0.1673(3) 0.3697(2) -0.1134(1)
H8 H 0.1075(3) 0.2650(2) -0.0671(1)
H9 H 0.3895(3) 0.3151(3) -0.0396(2)
H10 H 0.3291(3) 0.2095(3) 0.0057(2)
H11 H 0.4117(7) 0.1244(14) -0.1001(7)
H12 H 0.3019(20) 0.2035(5) -0.1624(3)
H13 H 0.2559(14) 0.0947(10) -0.1127(8)
H14 H 0.2957(3) 0.9698(3) 0.2897(2)
H15 H 0.2669(3) 1.0839(3) 0.2289(2)
H16 H 0.4828(4) 1.0990(3) 0.3224(2)
H17 H 0.5273(4) 0.9738(3) 0.2870(2)
H18 H 0.6095(11) 1.1564(20) 0.2364(5)
H19 H 0.4583(14) 1.1943(14) 0.1943(11)
H20 H 0.5216(25) 1.0715(7) 0.1671(7)
loop_
_geom_bond_atom_site_label_1
_geom_bond_atom_site_label_2
_geom_bond_site_symmetry_1
_geom_bond_site_symmetry_2
N1 C1 1_555 1_555
N2 C2 1_555 1_555
N3 C8 1_555 1_555
N4 C12 1_555 1_555
C1 C2 1_555 1_555
C2 H2 1_555 1_555
C3 N2 1_555 1_555
C4 C3 1_555 1_555
C5 C1 1_555 1_555
C6 C5 1_555 1_555
C7 C6 1_555 1_555
C8 C7 1_555 1_555
C9 N3 1_555 1_555
C10 C9 1_555 1_555
C11 C10 1_555 1_555
C12 C8 1_555 1_555
C13 N1 1_555 1_555
C14 C7 1_555 1_555
C15 C14 1_555 1_555
C16 C15 1_555 1_555
C17 C11 1_555 1_555
C18 C17 1_555 1_555
C19 C18 1_555 1_555
C20 C19 1_555 1_555
C21 C20 1_555 1_555
H1 N1 1_555 1_555
H3 C3 1_555 1_555
H4 C4 1_555 1_555
H5 C9 1_555 1_555
H6 C10 1_555 1_555
H7 C14 1_555 1_555
H8 C14 1_555 1_555
H9 C15 1_555 1_555
H10 C15 1_555 1_555
H11 C16 1_555 1_555
H12 C16 1_555 1_555
H13 C16 1_555 1_555
H14 C19 1_555 1_555
H15 C19 1_555 1_555
H16 C20 1_555 1_555
H17 C20 1_555 1_555
H18 C21 1_555 1_555
H19 C21 1_555 1_555
H20 C21 1_555 1_555
N4 C13 1_555 1_555
C4 C5 1_555 1_555
C6 C13 1_555 1_555
C11 C12 1_555 1_555

#END
