
#######################################################################
#
#                 Cambridge Crystallographic Data Centre
#                                CCDC 
#
#######################################################################
#
# If this CIF has been generated from an entry in the Cambridge 
# Structural Database, then it will include bibliographic, chemical, 
# crystal, experimental, refinement or atomic coordinate data resulting 
# from the CCDC's data processing and validation procedures.
#
#######################################################################

data_UGIBUJ
_chemical_formula_moiety         'C27 H41 N1 O3'
_chemical_name_systematic        
'12,13-dihydro-17,23-epoxy-11,13-cycloveratraman-3,7-diol unknown solvate'
_symmetry_cell_setting           monoclinic
_symmetry_space_group_name_H-M   'P 21'
_symmetry_Int_Tables_number      4
_space_group_name_Hall           'P 2yb'
loop_
_symmetry_equiv_pos_site_id
_symmetry_equiv_pos_as_xyz
1 x,y,z
2 -x,1/2+y,-z
_cell_length_a                   10.991(2)
_cell_length_b                   13.589(3)
_cell_length_c                   18.102(4)
_cell_angle_alpha                90
_cell_angle_beta                 104.405(4)
_cell_angle_gamma                90
_cell_volume                     2618.66
_exptl_crystal_colour            colorless
_exptl_crystal_description       prism
_cell_formula_units_Z            4
loop_
_atom_site_label
_atom_site_type_symbol
_atom_site_fract_x
_atom_site_fract_y
_atom_site_fract_z
O1 O 0.0106(2) -0.36788(16) -0.44923(11)
H1 H 0.0511 -0.4206 -0.4473
O2 O 0.2172(2) -0.3245(2) -0.06585(12)
H2 H 0.2294 -0.2809 -0.0961
O3 O -0.37982(17) -0.15678(14) -0.13165(10)
N1 N -0.5354(2) -0.04043(19) 0.00186(14)
H3 H -0.559(3) -0.092(3) 0.0290(19)
C1 C -0.0513(3) -0.2001(2) -0.29916(16)
H4 H -0.1132 -0.1463 -0.3033
H5 H 0.0336 -0.1708 -0.2822
C2 C -0.0653(3) -0.2454(2) -0.37747(15)
H6 H -0.1525 -0.2692 -0.3973
H7 H -0.0486 -0.1949 -0.4131
C3 C 0.0251(3) -0.3301(2) -0.37336(16)
H8 H 0.1129 -0.3053 -0.3539
C4 C -0.0008(3) -0.4082(2) -0.31885(16)
H9 H -0.0865 -0.4349 -0.3387
H10 H 0.0596 -0.4630 -0.3154
C5 C 0.0108(3) -0.3651(2) -0.24038(16)
C6 C 0.0871(3) -0.4051(2) -0.17935(16)
H11 H 0.1373 -0.4589 -0.1876
C7 C 0.1013(3) -0.3728(2) -0.09774(16)
H12 H 0.0958 -0.4323 -0.0662
C8 C -0.0076(3) -0.3064(2) -0.09667(15)
H13 H -0.0852 -0.3477 -0.1105
C9 C -0.0199(3) -0.2291(2) -0.15807(15)
H14 H 0.0692 -0.2120 -0.1567
C10 C -0.0699(3) -0.2740(2) -0.23781(15)
C11 C -0.0705(2) -0.1360(2) -0.13017(15)
H15 H -0.0379 -0.0755 -0.1502
C12 C -0.0317(3) -0.1401(2) -0.04340(16)
H16 H 0.0282 -0.0899 -0.0146
C13 C -0.1647(3) -0.1103(2) -0.08117(15)
C14 C -0.0108(3) -0.2498(2) -0.02217(16)
H17 H 0.0708 -0.2585 0.0167
C15 C -0.1177(3) -0.2919(2) 0.00799(15)
H18 H -0.1035 -0.3631 0.0183
H19 H -0.1194 -0.2590 0.0565
C16 C -0.2434(3) -0.2769(2) -0.04967(16)
H20 H -0.3106 -0.3086 -0.0305
H21 H -0.2409 -0.3091 -0.0984
C17 C -0.2739(2) -0.1681(2) -0.06400(15)
C18 C -0.1889(3) -0.0002(2) -0.08914(17)
H22 H -0.2484 0.0189 -0.0594
H23 H -0.2242 0.0161 -0.1430
H24 H -0.1098 0.0354 -0.0702
C19 C -0.2081(3) -0.3018(2) -0.25247(15)
H25 H -0.2192 -0.3487 -0.2136
H26 H -0.2360 -0.3320 -0.3030
H27 H -0.2580 -0.2426 -0.2503
C20 C -0.3217(3) -0.1207(2) 0.00411(15)
H28 H -0.2583 -0.0722 0.0321
C21 C -0.3559(3) -0.1929(2) 0.06135(16)
H29 H -0.3836 -0.1559 0.1007
H30 H -0.2821 -0.2325 0.0853
H31 H -0.4238 -0.2364 0.0345
C22 C -0.4406(3) -0.0658(2) -0.03897(15)
H32 H -0.4132 -0.0033 -0.0592
C23 C -0.4892(3) -0.1338(2) -0.10617(16)
H33 H -0.5232 -0.1952 -0.0883
C24 C -0.5922(3) -0.0828(2) -0.16521(16)
H34 H -0.6278 -0.1285 -0.2077
H35 H -0.5576 -0.0249 -0.1862
C25 C -0.6950(3) -0.0503(2) -0.12623(17)
H36 H -0.7363 -0.1108 -0.1125
C26 C -0.6403(3) 0.0074(2) -0.05281(17)
H37 H -0.6112 0.0721 -0.0668
H38 H -0.7084 0.0197 -0.0270
C27 C -0.7944(3) 0.0105(3) -0.1800(2)
H39 H -0.8590 0.0301 -0.1541
H40 H -0.8329 -0.0286 -0.2252
H41 H -0.7556 0.0695 -0.1954
N2 N -0.0621(2) -0.6760(2) -0.46295(15)
H42 H -0.053(4) -0.721(4) -0.485(3)
O4 O -0.5951(2) -0.41125(16) -0.11167(11)
H43 H -0.6546 -0.3836 -0.0973
O5 O -0.86602(17) -0.54603(14) -0.46941(11)
H44 H -0.9279 -0.5843 -0.4794
O6 O -0.38230(17) -0.61696(14) -0.45826(11)
C28 C -0.5312(3) -0.3688(2) -0.30405(15)
H45 H -0.4634 -0.3333 -0.3201
H46 H -0.6109 -0.3337 -0.3260
C29 C -0.5048(3) -0.3649(2) -0.21738(16)
H47 H -0.4232 -0.3967 -0.1943
H48 H -0.5004 -0.2956 -0.2001
C30 C -0.6094(3) -0.4181(2) -0.19245(16)
H49 H -0.6901 -0.3848 -0.2178
C31 C -0.6188(3) -0.5240(2) -0.21965(16)
H50 H -0.5418 -0.5597 -0.1932
H51 H -0.6910 -0.5559 -0.2058
C32 C -0.6352(3) -0.5323(2) -0.30485(16)
C33 C -0.7268(3) -0.5865(2) -0.34773(16)
H52 H -0.7802 -0.6200 -0.3221
C34 C -0.7544(2) -0.6002(2) -0.43264(15)
H53 H -0.7689 -0.6717 -0.4447
C35 C -0.6410(2) -0.5658(2) -0.46052(15)
H54 H -0.5720 -0.6145 -0.4421
C36 C -0.5962(2) -0.46746(19) -0.42369(15)
H55 H -0.6748 -0.4280 -0.4295
C37 C -0.5410(2) -0.47350(19) -0.33726(15)
C38 C -0.5270(3) -0.4174(2) -0.47706(15)
H56 H -0.5247 -0.3440 -0.4735
C39 C -0.5880(3) -0.4565(2) -0.55537(15)
H57 H -0.6271 -0.4093 -0.5969
C40 C -0.4465(3) -0.4605(2) -0.52735(16)
C41 C -0.6559(3) -0.5518(2) -0.54741(15)
H58 H -0.7471 -0.5442 -0.5732
C42 C -0.6011(3) -0.6378(2) -0.58537(16)
H59 H -0.5999 -0.6979 -0.5542
H60 H -0.6576 -0.6505 -0.6363
C43 C -0.4686(3) -0.6192(2) -0.59463(16)
H61 H -0.4746 -0.5812 -0.6421
H62 H -0.4288 -0.6832 -0.6002
C44 C -0.3839(3) -0.56263(19) -0.52726(15)
C45 C -0.3823(3) -0.3777(2) -0.56016(18)
H63 H -0.4274 -0.3159 -0.5584
H64 H -0.3830 -0.3930 -0.6132
H65 H -0.2953 -0.3710 -0.5300
C46 C -0.4135(3) -0.5244(2) -0.31500(16)
H66 H -0.4211 -0.5912 -0.3360
H67 H -0.3845 -0.5275 -0.2593
H68 H -0.3528 -0.4871 -0.3354
C47 C -0.2402(3) -0.5584(2) -0.53048(16)
H69 H -0.2106 -0.4890 -0.5202
C48 C -0.2125(3) -0.5903(3) -0.60498(17)
H70 H -0.1221 -0.5847 -0.6008
H71 H -0.2585 -0.5480 -0.6464
H72 H -0.2389 -0.6588 -0.6158
C49 C -0.1751(2) -0.6210(2) -0.46150(15)
H73 H -0.1513 -0.5749 -0.4171
C50 C -0.2801(2) -0.68411(19) -0.44793(16)
H74 H -0.3008 -0.7363 -0.4881
C51 C -0.2413(3) -0.7322(2) -0.37000(16)
H75 H -0.3106 -0.7729 -0.3605
H76 H -0.2184 -0.6818 -0.3294
C52 C -0.1270(3) -0.7969(2) -0.37182(18)
H77 H -0.1546 -0.8479 -0.4123
C53 C -0.0237(3) -0.7341(2) -0.39281(19)
H78 H 0.0105 -0.6886 -0.3500
H79 H 0.0454 -0.7784 -0.3976
C54 C -0.0766(4) -0.8496(3) -0.2958(2)
H80 H -0.0044 -0.8903 -0.2987
H81 H -0.1426 -0.8915 -0.2849
H82 H -0.0506 -0.8008 -0.2551
loop_
_geom_bond_atom_site_label_1
_geom_bond_atom_site_label_2
_geom_bond_site_symmetry_1
_geom_bond_site_symmetry_2
O1 H1 1_555 1_555
O2 H2 1_555 1_555
O3 C17 1_555 1_555
N1 H3 1_555 1_555
C1 H4 1_555 1_555
H5 C1 1_555 1_555
C2 C1 1_555 1_555
H6 C2 1_555 1_555
H7 C2 1_555 1_555
C3 O1 1_555 1_555
H8 C3 1_555 1_555
C4 C3 1_555 1_555
H9 C4 1_555 1_555
H10 C4 1_555 1_555
C5 C4 1_555 1_555
C6 C5 1_555 1_555
H11 C6 1_555 1_555
C7 O2 1_555 1_555
H12 C7 1_555 1_555
C8 C7 1_555 1_555
H13 C8 1_555 1_555
C9 C8 1_555 1_555
H14 C9 1_555 1_555
C10 C1 1_555 1_555
C11 C9 1_555 1_555
H15 C11 1_555 1_555
C12 C11 1_555 1_555
H16 C12 1_555 1_555
C13 C11 1_555 1_555
C14 C8 1_555 1_555
H17 C14 1_555 1_555
C15 C14 1_555 1_555
H18 C15 1_555 1_555
H19 C15 1_555 1_555
C16 C15 1_555 1_555
H20 C16 1_555 1_555
H21 C16 1_555 1_555
C17 C13 1_555 1_555
C18 C13 1_555 1_555
H22 C18 1_555 1_555
H23 C18 1_555 1_555
H24 C18 1_555 1_555
C19 C10 1_555 1_555
H25 C19 1_555 1_555
H26 C19 1_555 1_555
H27 C19 1_555 1_555
C20 C17 1_555 1_555
H28 C20 1_555 1_555
C21 C20 1_555 1_555
H29 C21 1_555 1_555
H30 C21 1_555 1_555
H31 C21 1_555 1_555
C22 N1 1_555 1_555
H32 C22 1_555 1_555
C23 O3 1_555 1_555
H33 C23 1_555 1_555
C24 C23 1_555 1_555
H34 C24 1_555 1_555
H35 C24 1_555 1_555
C25 C24 1_555 1_555
H36 C25 1_555 1_555
C26 N1 1_555 1_555
H37 C26 1_555 1_555
H38 C26 1_555 1_555
C27 C25 1_555 1_555
H39 C27 1_555 1_555
H40 C27 1_555 1_555
H41 C27 1_555 1_555
N2 H42 1_555 1_555
O4 H43 1_555 1_555
O5 H44 1_555 1_555
O6 C44 1_555 1_555
C28 H45 1_555 1_555
H46 C28 1_555 1_555
C29 C28 1_555 1_555
H47 C29 1_555 1_555
H48 C29 1_555 1_555
C30 O4 1_555 1_555
H49 C30 1_555 1_555
C31 C30 1_555 1_555
H50 C31 1_555 1_555
H51 C31 1_555 1_555
C32 C31 1_555 1_555
C33 C32 1_555 1_555
H52 C33 1_555 1_555
C34 O5 1_555 1_555
H53 C34 1_555 1_555
C35 C34 1_555 1_555
H54 C35 1_555 1_555
C36 C35 1_555 1_555
H55 C36 1_555 1_555
C37 C28 1_555 1_555
C38 C36 1_555 1_555
H56 C38 1_555 1_555
C39 C38 1_555 1_555
H57 C39 1_555 1_555
C40 C38 1_555 1_555
C41 C35 1_555 1_555
H58 C41 1_555 1_555
C42 C41 1_555 1_555
H59 C42 1_555 1_555
H60 C42 1_555 1_555
C43 C42 1_555 1_555
H61 C43 1_555 1_555
H62 C43 1_555 1_555
C44 C40 1_555 1_555
C45 C40 1_555 1_555
H63 C45 1_555 1_555
H64 C45 1_555 1_555
H65 C45 1_555 1_555
C46 C37 1_555 1_555
H66 C46 1_555 1_555
H67 C46 1_555 1_555
H68 C46 1_555 1_555
C47 C44 1_555 1_555
H69 C47 1_555 1_555
C48 C47 1_555 1_555
H70 C48 1_555 1_555
H71 C48 1_555 1_555
H72 C48 1_555 1_555
C49 N2 1_555 1_555
H73 C49 1_555 1_555
C50 O6 1_555 1_555
H74 C50 1_555 1_555
C51 C50 1_555 1_555
H75 C51 1_555 1_555
H76 C51 1_555 1_555
C52 C51 1_555 1_555
H77 C52 1_555 1_555
C53 N2 1_555 1_555
H78 C53 1_555 1_555
H79 C53 1_555 1_555
C54 C52 1_555 1_555
H80 C54 1_555 1_555
H81 C54 1_555 1_555
H82 C54 1_555 1_555
C2 C3 1_555 1_555
C5 C10 1_555 1_555
C6 C7 1_555 1_555
C9 C10 1_555 1_555
C12 C13 1_555 1_555
C12 C14 1_555 1_555
C16 C17 1_555 1_555
C20 C22 1_555 1_555
C22 C23 1_555 1_555
C25 C26 1_555 1_555
C29 C30 1_555 1_555
C32 C37 1_555 1_555
C33 C34 1_555 1_555
C36 C37 1_555 1_555
C39 C40 1_555 1_555
C39 C41 1_555 1_555
C43 C44 1_555 1_555
C47 C49 1_555 1_555
C49 C50 1_555 1_555
C52 C53 1_555 1_555

#END
