
#######################################################################
#
#                 Cambridge Crystallographic Data Centre
#                                CCDC 
#
#######################################################################
#
# If this CIF has been generated from an entry in the Cambridge 
# Structural Database, then it will include bibliographic, chemical, 
# crystal, experimental, refinement or atomic coordinate data resulting 
# from the CCDC's data processing and validation procedures.
#
#######################################################################

data_UGIBOD
_chemical_formula_moiety         'C27 H41 N1 O3'
_chemical_name_systematic        
12,13-dihydro-17,23-epoxy-11,13-cycloveratraman-3,14-diol
_symmetry_cell_setting           orthorhombic
_symmetry_space_group_name_H-M   'P 21 21 21'
_symmetry_Int_Tables_number      19
_space_group_name_Hall           'P 2ac 2ab'
loop_
_symmetry_equiv_pos_site_id
_symmetry_equiv_pos_as_xyz
1 x,y,z
2 1/2+x,1/2-y,-z
3 -x,1/2+y,1/2-z
4 1/2-x,-y,1/2+z
_cell_length_a                   12.3240(2)
_cell_length_b                   13.4207(3)
_cell_length_c                   14.4119(3)
_cell_angle_alpha                90
_cell_angle_beta                 90
_cell_angle_gamma                90
_cell_volume                     2383.68
_exptl_crystal_colour            colorless
_exptl_crystal_description       block
_cell_formula_units_Z            4
loop_
_atom_site_label
_atom_site_type_symbol
_atom_site_fract_x
_atom_site_fract_y
_atom_site_fract_z
N1 N 0.95186(10) 0.43050(9) 1.03465(9)
O1 O 0.78471(9) 1.28430(8) 1.02536(8)
H1 H 0.8222 1.3363 1.0303
O2 O 0.89631(8) 0.79826(7) 0.63121(7)
H2 H 0.8423 0.7743 0.6036
O3 O 0.88767(8) 0.69178(7) 1.00714(7)
C1 C 0.96274(12) 1.06895(10) 0.94815(10)
H3 H 1.0140 1.0270 0.9838
H4 H 1.0036 1.0996 0.8963
C2 C 0.91993(12) 1.15196(10) 1.01152(10)
H5 H 0.8864 1.1218 1.0673
H6 H 0.9814 1.1940 1.0322
C3 C 0.83684(12) 1.21668(11) 0.96242(10)
H7 H 0.8744 1.2561 0.9131
C4 C 0.74768(12) 1.15442(11) 0.91753(11)
H8 H 0.7006 1.1268 0.9668
H9 H 0.7024 1.1983 0.8781
C5 C 0.79032(11) 1.06986(10) 0.85906(10)
C6 C 0.75830(11) 1.05679(11) 0.77141(10)
H10 H 0.7151 1.1079 0.7446
C7 C 0.78469(11) 0.96790(10) 0.71112(10)
H11 H 0.8380 0.9868 0.6629
H12 H 0.7182 0.9435 0.6800
C8 C 0.83140(11) 0.88717(10) 0.77297(10)
H13 H 0.7721 0.8657 0.8159
C9 C 0.92015(10) 0.93379(10) 0.83272(9)
H14 H 0.9589 0.9802 0.7898
C10 C 0.87264(11) 1.00182(10) 0.90776(10)
C11 C 1.00194(11) 0.85288(10) 0.85296(10)
H15 H 1.0772 0.8796 0.8604
C12 C 0.99357(11) 0.77708(10) 0.77464(10)
H16 H 1.0580 0.7650 0.7340
C13 C 0.99503(11) 0.73963(10) 0.87370(10)
C14 C 0.88043(11) 0.79075(10) 0.72962(9)
C15 C 0.80677(11) 0.70298(10) 0.75346(10)
H17 H 0.8377 0.6411 0.7270
H18 H 0.7345 0.7136 0.7252
C16 C 0.79434(11) 0.69102(10) 0.85886(10)
H19 H 0.7610 0.7522 0.8846
H20 H 0.7446 0.6348 0.8716
C17 C 0.90206(11) 0.67204(10) 0.90809(10)
C18 C 1.10696(11) 0.70990(11) 0.90975(10)
H21 H 1.1194 0.6390 0.8973
H22 H 1.1106 0.7220 0.9767
H23 H 1.1627 0.7496 0.8783
C19 C 0.81938(14) 0.94104(11) 0.98558(10)
H24 H 0.7581 0.9033 0.9603
H25 H 0.7934 0.9862 1.0342
H26 H 0.8727 0.8948 1.0119
C20 C 0.93543(11) 0.55759(10) 0.90097(10)
H27 H 1.0037 0.5522 0.8639
C21 C 0.85229(12) 0.48372(10) 0.86213(11)
H28 H 0.8853 0.4174 0.8578
H29 H 0.8292 0.5055 0.8003
H30 H 0.7892 0.4810 0.9034
C22 C 0.96127(11) 0.53394(10) 1.00238(10)
H31 H 1.0360 0.5586 1.0167
C23 C 0.88014(11) 0.59839(10) 1.05331(10)
H32 H 0.8056 0.5705 1.0444
C24 C 0.90555(12) 0.60281(11) 1.15570(10)
H33 H 0.8492 0.6417 1.1886
H34 H 0.9765 0.6356 1.1657
C25 C 0.90867(12) 0.49535(12) 1.19326(10)
H35 H 0.8334 0.4677 1.1905
C26 C 0.98220(12) 0.42904(11) 1.13401(11)
H36 H 1.0582 0.4519 1.1406
H37 H 0.9781 0.3597 1.1573
C27 C 0.94615(13) 0.49291(14) 1.29403(11)
H38 H 0.9425 0.4244 1.3174
H39 H 0.8990 0.5357 1.3315
H40 H 1.0211 0.5170 1.2980
H41 H 1.0013(14) 0.3918(12) 1.0025(11)
loop_
_geom_bond_atom_site_label_1
_geom_bond_atom_site_label_2
_geom_bond_site_symmetry_1
_geom_bond_site_symmetry_2
N1 C22 1_555 1_555
O1 H1 1_555 1_555
O2 H2 1_555 1_555
O3 C17 1_555 1_555
C1 H3 1_555 1_555
H4 C1 1_555 1_555
C2 C1 1_555 1_555
H5 C2 1_555 1_555
H6 C2 1_555 1_555
C3 O1 1_555 1_555
H7 C3 1_555 1_555
C4 C3 1_555 1_555
H8 C4 1_555 1_555
H9 C4 1_555 1_555
C5 C4 1_555 1_555
C6 C5 1_555 1_555
H10 C6 1_555 1_555
C7 C6 1_555 1_555
H11 C7 1_555 1_555
H12 C7 1_555 1_555
C8 C7 1_555 1_555
H13 C8 1_555 1_555
C9 C8 1_555 1_555
H14 C9 1_555 1_555
C10 C1 1_555 1_555
C11 C9 1_555 1_555
H15 C11 1_555 1_555
C12 C11 1_555 1_555
H16 C12 1_555 1_555
C13 C11 1_555 1_555
C14 O2 1_555 1_555
C15 C14 1_555 1_555
H17 C15 1_555 1_555
H18 C15 1_555 1_555
C16 C15 1_555 1_555
H19 C16 1_555 1_555
H20 C16 1_555 1_555
C17 C13 1_555 1_555
C18 C13 1_555 1_555
H21 C18 1_555 1_555
H22 C18 1_555 1_555
H23 C18 1_555 1_555
C19 C10 1_555 1_555
H24 C19 1_555 1_555
H25 C19 1_555 1_555
H26 C19 1_555 1_555
C20 C17 1_555 1_555
H27 C20 1_555 1_555
C21 C20 1_555 1_555
H28 C21 1_555 1_555
H29 C21 1_555 1_555
H30 C21 1_555 1_555
C22 C20 1_555 1_555
H31 C22 1_555 1_555
C23 O3 1_555 1_555
H32 C23 1_555 1_555
C24 C23 1_555 1_555
H33 C24 1_555 1_555
H34 C24 1_555 1_555
C25 C24 1_555 1_555
H35 C25 1_555 1_555
C26 N1 1_555 1_555
H36 C26 1_555 1_555
H37 C26 1_555 1_555
C27 C25 1_555 1_555
H38 C27 1_555 1_555
H39 C27 1_555 1_555
H40 C27 1_555 1_555
H41 N1 1_555 1_555
C2 C3 1_555 1_555
C5 C10 1_555 1_555
C8 C14 1_555 1_555
C9 C10 1_555 1_555
C12 C13 1_555 1_555
C12 C14 1_555 1_555
C16 C17 1_555 1_555
C22 C23 1_555 1_555
C25 C26 1_555 1_555

#END
