
#######################################################################
#
#                 Cambridge Crystallographic Data Centre
#                                CCDC 
#
#######################################################################
#
# If this CIF has been generated from an entry in the Cambridge 
# Structural Database, then it will include bibliographic, chemical, 
# crystal, experimental, refinement or atomic coordinate data resulting 
# from the CCDC's data processing and validation procedures.
#
#######################################################################

data_UGIBIX
_chemical_name_common            
N-((2-Butyl-4-chloro-1-methyl-1H-imidazol-5-yl)carbonyl)alanine
_chemical_formula_moiety         'C12 H18 Cl1 N3 O3'
_chemical_name_systematic        
'(S)-2-(2-butyl-4-chloro-1-methyl-1H-imidazole-5-carboxamido)propanoic acid'
_symmetry_cell_setting           orthorhombic
_symmetry_space_group_name_H-M   'P 21 21 21'
_symmetry_Int_Tables_number      19
_space_group_name_Hall           'P 2ac 2ab'
loop_
_symmetry_equiv_pos_site_id
_symmetry_equiv_pos_as_xyz
1 x,y,z
2 1/2-x,-y,1/2+z
3 -x,1/2+y,1/2-z
4 1/2+x,1/2-y,-z
_cell_length_a                   8.7681(7)
_cell_length_b                   10.5374(8)
_cell_length_c                   15.7630(12)
_cell_angle_alpha                90
_cell_angle_beta                 90
_cell_angle_gamma                90
_cell_volume                     1456.39
_exptl_crystal_colour            colorless
_exptl_crystal_description       block
_cell_formula_units_Z            4
loop_
_atom_site_label
_atom_site_type_symbol
_atom_site_fract_x
_atom_site_fract_y
_atom_site_fract_z
C1 C 0.6845(3) 0.4516(2) 0.62741(14)
C2 C 0.7249(3) 0.4679(2) 0.71092(14)
C3 C 0.8152(3) 0.2872(3) 0.67660(18)
C4 C 0.5822(3) 0.5236(2) 0.56978(14)
C5 C 0.4936(3) 0.7308(2) 0.52509(14)
H1 H 0.3889 0.7079 0.5406
C6 C 0.5179(4) 0.8693(3) 0.5494(2)
H2 H 0.5014 0.8795 0.6092
H3 H 0.4474 0.9217 0.5187
H4 H 0.6204 0.8940 0.5356
C7 C 0.5091(2) 0.7150(2) 0.42946(15)
C8 C 0.7364(5) 0.2729(4) 0.52308(19)
H5 H 0.8227 0.2177 0.5161
H6 H 0.7385 0.3374 0.4801
H7 H 0.6441 0.2245 0.5180
C9 C 0.8960(5) 0.1628(3) 0.6796(3)
H8 H 0.9519 0.1517 0.6270
H9 H 0.9697 0.1650 0.7254
C10 C 0.7950(7) 0.0523(4) 0.6919(3)
H10 H 0.7114 0.0584 0.6519
H11 H 0.8520 -0.0239 0.6782
C11 C 0.7320(6) 0.0380(4) 0.7761(3)
H12 H 0.6363 -0.0076 0.7715
H13 H 0.7093 0.1218 0.7982
C12 C 0.8374(7) -0.0339(6) 0.8428(4)
H14 H 0.7860 -0.0384 0.8965
H15 H 0.9316 0.0115 0.8494
H16 H 0.8582 -0.1182 0.8228
Cl1 Cl 0.68290(9) 0.59417(7) 0.77520(4)
N1 N 0.8035(2) 0.3677(2) 0.74126(13)
N2 N 0.7427(3) 0.3325(2) 0.60733(13)
N3 N 0.5957(2) 0.6502(2) 0.57355(12)
H17 H 0.672(3) 0.682(2) 0.5950(17)
O1 O 0.4879(2) 0.46915(19) 0.52455(12)
O2 O 0.4071(2) 0.74542(18) 0.38176(11)
O3 O 0.64185(18) 0.67162(18) 0.40520(11)
H18 H 0.650(3) 0.663(3) 0.348(2)
C13? C 0.7490(14) -0.1004(10) 0.8051(10)
H19? H 0.7075 -0.1096 0.8612
H20? H 0.8551 -0.1231 0.8057
H21? H 0.6951 -0.1550 0.7667
loop_
_geom_bond_atom_site_label_1
_geom_bond_atom_site_label_2
_geom_bond_site_symmetry_1
_geom_bond_site_symmetry_2
C1 C2 1_555 1_555
C2 Cl1 1_555 1_555
C3 C9 1_555 1_555
C4 C1 1_555 1_555
C5 H1 1_555 1_555
C6 C5 1_555 1_555
H2 C6 1_555 1_555
H3 C6 1_555 1_555
H4 C6 1_555 1_555
C7 C5 1_555 1_555
C8 H5 1_555 1_555
H6 C8 1_555 1_555
H7 C8 1_555 1_555
C9 H8 1_555 1_555
H9 C9 1_555 1_555
C10 C9 1_555 1_555
H10 C10 1_555 1_555
H11 C10 1_555 1_555
C11 C10 1_555 1_555
H12 C11 1_555 1_555
H13 C11 1_555 1_555
C12 C11 1_555 1_555
H14 C12 1_555 1_555
H15 C12 1_555 1_555
H16 C12 1_555 1_555
N1 C2 1_555 1_555
N2 C1 1_555 1_555
N3 C4 1_555 1_555
H17 N3 1_555 1_555
O1 C4 1_555 1_555
O2 C7 1_555 1_555
O3 C7 1_555 1_555
H18 O3 1_555 1_555
C3 N1 1_555 1_555
C3 N2 1_555 1_555
C5 N3 1_555 1_555
C8 N2 1_555 1_555

#END
