
#######################################################################
#
#                 Cambridge Crystallographic Data Centre
#                                CCDC 
#
#######################################################################
#
# If this CIF has been generated from an entry in the Cambridge 
# Structural Database, then it will include bibliographic, chemical, 
# crystal, experimental, refinement or atomic coordinate data resulting 
# from the CCDC's data processing and validation procedures.
#
#######################################################################

data_UGICEU
_chemical_formula_moiety         'C27 H41 N1 O2'
_chemical_name_systematic        
12,13-dihydro-17,23-epoxy-11,13-cycloveratraman-3-ol
_symmetry_cell_setting           monoclinic
_symmetry_space_group_name_H-M   'C 2'
_symmetry_Int_Tables_number      5
_space_group_name_Hall           'C 2y'
loop_
_symmetry_equiv_pos_site_id
_symmetry_equiv_pos_as_xyz
1 x,y,z
2 -x,y,-z
3 1/2+x,1/2+y,z
4 1/2-x,1/2+y,-z
_cell_length_a                   19.6232(19)
_cell_length_b                   10.5173(11)
_cell_length_c                   25.152(2)
_cell_angle_alpha                90
_cell_angle_beta                 110.187(2)
_cell_angle_gamma                90
_cell_volume                     4872.07
_exptl_crystal_colour            colorless
_exptl_crystal_description       prismatic
_cell_formula_units_Z            8
loop_
_atom_site_label
_atom_site_type_symbol
_atom_site_fract_x
_atom_site_fract_y
_atom_site_fract_z
N1 N 0.94754(14) 0.6633(3) 0.72245(9)
O1 O 0.76238(10) 0.6135(2) 0.23338(7)
H1 H 0.7263 0.5679 0.2237
O2 O 0.89931(9) 0.70666(17) 0.57073(6)
C1 C 0.74046(13) 0.7201(3) 0.36922(9)
H2 H 0.7290 0.6734 0.3983
H3 H 0.7027 0.7831 0.3538
C2 C 0.73987(15) 0.6283(3) 0.32231(9)
H4 H 0.7744 0.5604 0.3380
H5 H 0.6920 0.5908 0.3059
C3 C 0.75952(13) 0.6972(3) 0.27677(9)
H6 H 0.7224 0.7618 0.2598
C4 C 0.83158(13) 0.7623(2) 0.30129(9)
H7 H 0.8409 0.8112 0.2718
H8 H 0.8694 0.6986 0.3146
C5 C 0.83492(12) 0.8497(2) 0.34973(8)
C6 C 0.85257(13) 0.9710(2) 0.34927(10)
H9 H 0.8611 1.0003 0.3172
C7 C 0.86021(16) 1.0662(3) 0.39581(10)
H10 H 0.8190 1.1235 0.3849
H11 H 0.9040 1.1160 0.4028
C8 C 0.86389(14) 0.9936(2) 0.44902(9)
H12 H 0.9093 0.9449 0.4613
C9 C 0.80147(13) 0.8986(2) 0.43242(9)
H13 H 0.7617 0.9466 0.4053
C10 C 0.81315(12) 0.7887(2) 0.39656(9)
C11 C 0.77606(13) 0.8823(3) 0.48256(10)
H14 H 0.7239 0.8653 0.4709
C12 C 0.79757(15) 1.0038(3) 0.51660(10)
H15 H 0.7594 1.0583 0.5211
C13 C 0.81379(14) 0.8788(3) 0.54756(10)
C14 C 0.85899(15) 1.0648(3) 0.50151(10)
H16 H 0.8480 1.1547 0.4922
C15 C 0.93005(16) 1.0531(3) 0.55118(11)
H17 H 0.9689 1.0926 0.5414
H18 H 0.9259 1.0972 0.5838
C16 C 0.94815(14) 0.9152(3) 0.56585(10)
H19 H 0.9940 0.9108 0.5971
H20 H 0.9548 0.8735 0.5336
C17 C 0.89145(14) 0.8413(3) 0.58222(9)
C18 C 0.75691(15) 0.8383(4) 0.57289(11)
H21 H 0.7093 0.8577 0.5467
H22 H 0.7648 0.8833 0.6077
H23 H 0.7608 0.7485 0.5802
C19 C 0.87114(14) 0.6955(3) 0.43158(10)
H24 H 0.8739 0.6248 0.4083
H25 H 0.8586 0.6655 0.4630
H26 H 0.9173 0.7377 0.4454
C20 C 0.90690(14) 0.8450(3) 0.64951(10)
H27 H 0.8643 0.8808 0.6559
C21 C 0.97439(17) 0.9179(3) 0.68601(11)
H28 H 1.0170 0.8782 0.6831
H29 H 0.9768 0.9170 0.7248
H30 H 0.9716 1.0042 0.6730
C22 C 0.91148(13) 0.7040(3) 0.66373(9)
H31 H 0.8614 0.6732 0.6524
C23 C 0.94271(15) 0.6497(3) 0.62204(10)
H32 H 0.9929 0.6791 0.6316
C24 C 0.94168(16) 0.5073(3) 0.62238(11)
H33 H 0.9645 0.4742 0.5967
H34 H 0.8921 0.4766 0.6103
C25 C 0.98318(17) 0.4638(3) 0.68271(12)
H35 H 1.0335 0.4930 0.6928
C26 C 0.95131(16) 0.5247(3) 0.72343(11)
H36 H 0.9026 0.4917 0.7153
H37 H 0.9800 0.4981 0.7615
C27 C 0.9843(2) 0.3179(3) 0.68850(17)
H38 H 1.0084 0.2814 0.6648
H39 H 0.9354 0.2866 0.6771
H40 H 1.0098 0.2948 0.7272
H41 H 0.9924(16) 0.696(3) 0.7379(13)
N2 N 0.86142(13) 0.9615(2) 0.80750(10)
O3 O 0.87773(11) 0.5888(3) 1.19231(7)
H42 H 0.8456 0.5907 1.2062
O4 O 0.85747(8) 0.67504(14) 0.88492(6)
C28 C 0.76110(12) 0.5545(2) 1.03866(9)
H43 H 0.7211 0.6062 1.0151
H44 H 0.7430 0.4687 1.0388
C29 C 0.78618(13) 0.6064(3) 1.09898(10)
H45 H 0.7991 0.6953 1.0986
H46 H 0.7466 0.6009 1.1136
C30 C 0.84999(14) 0.5344(3) 1.13703(9)
H47 H 0.8349 0.4468 1.1403
C31 C 0.91085(13) 0.5315(3) 1.11340(9)
H48 H 0.9494 0.4771 1.1369
H49 H 0.9305 0.6166 1.1146
C32 C 0.88593(12) 0.4834(2) 1.05306(9)
C33 C 0.91798(13) 0.3846(3) 1.03860(10)
H50 H 0.9554 0.3452 1.0672
C34 C 0.89877(13) 0.3315(2) 0.97982(10)
H51 H 0.8708 0.2539 0.9765
H52 H 0.9427 0.3112 0.9722
C35 C 0.85495(11) 0.4282(2) 0.93765(9)
H53 H 0.8865 0.5006 0.9379
C36 C 0.79410(11) 0.4744(2) 0.95728(9)
H54 H 0.7753 0.3961 0.9683
C37 C 0.82082(11) 0.5522(2) 1.01215(8)
C38 C 0.73389(12) 0.5160(2) 0.90442(9)
H55 H 0.6855 0.5131 0.9076
C39 C 0.74109(12) 0.4356(2) 0.85693(9)
H56 H 0.7006 0.3812 0.8350
C40 C 0.73511(11) 0.5771(2) 0.84921(9)
C41 C 0.81834(12) 0.3840(2) 0.87579(9)
H57 H 0.8164 0.2909 0.8750
C42 C 0.85891(13) 0.4292(2) 0.83659(10)
H58 H 0.9084 0.4507 0.8595
H59 H 0.8608 0.3600 0.8116
C43 C 0.82354(13) 0.5437(2) 0.80098(9)
H60 H 0.7826 0.5153 0.7688
H61 H 0.8582 0.5835 0.7865
C44 C 0.79710(12) 0.6424(2) 0.83431(9)
C45 C 0.65880(13) 0.6198(3) 0.81325(10)
H62 H 0.6241 0.5588 0.8165
H63 H 0.6554 0.6262 0.7744
H64 H 0.6489 0.7012 0.8262
C46 C 0.84082(15) 0.6874(2) 1.00186(10)
H65 H 0.7992 0.7288 0.9756
H66 H 0.8793 0.6854 0.9865
H67 H 0.8566 0.7333 1.0370
C47 C 0.77535(14) 0.7727(2) 0.80171(9)
H68 H 0.7301 0.8024 0.8059
C48 C 0.76468(19) 0.7698(3) 0.73844(10)
H69 H 0.8100 0.7497 0.7337
H70 H 0.7481 0.8515 0.7220
H71 H 0.7293 0.7063 0.7200
C49 C 0.83674(12) 0.8604(2) 0.83621(9)
H72 H 0.8201 0.9018 0.8645
C50 C 0.89637(12) 0.7712(2) 0.86795(9)
H73 H 0.9182 0.7347 0.8417
C51 C 0.95384(12) 0.8384(2) 0.91483(9)
H74 H 0.9923 0.7796 0.9348
H75 H 0.9333 0.8734 0.9417
C52 C 0.98394(13) 0.9452(2) 0.88774(11)
H76 H 1.0083 0.9054 0.8639
C53 C 0.92289(15) 1.0284(3) 0.84958(12)
H77 H 0.9039 1.0791 0.8735
H78 H 0.9436 1.0867 0.8294
C54 C 1.03959(15) 1.0258(3) 0.93167(12)
H79 H 1.0167 1.0688 0.9547
H80 H 1.0596 1.0873 0.9130
H81 H 1.0777 0.9723 0.9552
H82 H 0.8767(15) 0.919(3) 0.7815(12)
loop_
_geom_bond_atom_site_label_1
_geom_bond_atom_site_label_2
_geom_bond_site_symmetry_1
_geom_bond_site_symmetry_2
N1 C22 1_555 1_555
O1 H1 1_555 1_555
O2 C17 1_555 1_555
C1 H2 1_555 1_555
H3 C1 1_555 1_555
C2 C1 1_555 1_555
H4 C2 1_555 1_555
H5 C2 1_555 1_555
C3 O1 1_555 1_555
H6 C3 1_555 1_555
C4 C3 1_555 1_555
H7 C4 1_555 1_555
H8 C4 1_555 1_555
C5 C4 1_555 1_555
C6 C5 1_555 1_555
H9 C6 1_555 1_555
C7 C6 1_555 1_555
H10 C7 1_555 1_555
H11 C7 1_555 1_555
C8 C7 1_555 1_555
H12 C8 1_555 1_555
C9 C8 1_555 1_555
H13 C9 1_555 1_555
C10 C1 1_555 1_555
C11 C9 1_555 1_555
H14 C11 1_555 1_555
C12 C11 1_555 1_555
H15 C12 1_555 1_555
C13 C11 1_555 1_555
C14 C8 1_555 1_555
H16 C14 1_555 1_555
C15 C14 1_555 1_555
H17 C15 1_555 1_555
H18 C15 1_555 1_555
C16 C15 1_555 1_555
H19 C16 1_555 1_555
H20 C16 1_555 1_555
C17 C13 1_555 1_555
C18 C13 1_555 1_555
H21 C18 1_555 1_555
H22 C18 1_555 1_555
H23 C18 1_555 1_555
C19 C10 1_555 1_555
H24 C19 1_555 1_555
H25 C19 1_555 1_555
H26 C19 1_555 1_555
C20 C17 1_555 1_555
H27 C20 1_555 1_555
C21 C20 1_555 1_555
H28 C21 1_555 1_555
H29 C21 1_555 1_555
H30 C21 1_555 1_555
C22 C20 1_555 1_555
H31 C22 1_555 1_555
C23 O2 1_555 1_555
H32 C23 1_555 1_555
C24 C23 1_555 1_555
H33 C24 1_555 1_555
H34 C24 1_555 1_555
C25 C24 1_555 1_555
H35 C25 1_555 1_555
C26 N1 1_555 1_555
H36 C26 1_555 1_555
H37 C26 1_555 1_555
C27 C25 1_555 1_555
H38 C27 1_555 1_555
H39 C27 1_555 1_555
H40 C27 1_555 1_555
H41 N1 1_555 1_555
N2 C49 1_555 1_555
O3 H42 1_555 1_555
O4 C44 1_555 1_555
C28 H43 1_555 1_555
H44 C28 1_555 1_555
C29 C28 1_555 1_555
H45 C29 1_555 1_555
H46 C29 1_555 1_555
C30 O3 1_555 1_555
H47 C30 1_555 1_555
C31 C30 1_555 1_555
H48 C31 1_555 1_555
H49 C31 1_555 1_555
C32 C31 1_555 1_555
C33 C32 1_555 1_555
H50 C33 1_555 1_555
C34 C33 1_555 1_555
H51 C34 1_555 1_555
H52 C34 1_555 1_555
C35 C34 1_555 1_555
H53 C35 1_555 1_555
C36 C35 1_555 1_555
H54 C36 1_555 1_555
C37 C28 1_555 1_555
C38 C36 1_555 1_555
H55 C38 1_555 1_555
C39 C38 1_555 1_555
H56 C39 1_555 1_555
C40 C38 1_555 1_555
C41 C35 1_555 1_555
H57 C41 1_555 1_555
C42 C41 1_555 1_555
H58 C42 1_555 1_555
H59 C42 1_555 1_555
C43 C42 1_555 1_555
H60 C43 1_555 1_555
H61 C43 1_555 1_555
C44 C40 1_555 1_555
C45 C40 1_555 1_555
H62 C45 1_555 1_555
H63 C45 1_555 1_555
H64 C45 1_555 1_555
C46 C37 1_555 1_555
H65 C46 1_555 1_555
H66 C46 1_555 1_555
H67 C46 1_555 1_555
C47 C44 1_555 1_555
H68 C47 1_555 1_555
C48 C47 1_555 1_555
H69 C48 1_555 1_555
H70 C48 1_555 1_555
H71 C48 1_555 1_555
C49 C47 1_555 1_555
H72 C49 1_555 1_555
C50 O4 1_555 1_555
H73 C50 1_555 1_555
C51 C50 1_555 1_555
H74 C51 1_555 1_555
H75 C51 1_555 1_555
C52 C51 1_555 1_555
H76 C52 1_555 1_555
C53 N2 1_555 1_555
H77 C53 1_555 1_555
H78 C53 1_555 1_555
C54 C52 1_555 1_555
H79 C54 1_555 1_555
H80 C54 1_555 1_555
H81 C54 1_555 1_555
H82 N2 1_555 1_555
C2 C3 1_555 1_555
C5 C10 1_555 1_555
C9 C10 1_555 1_555
C12 C13 1_555 1_555
C12 C14 1_555 1_555
C16 C17 1_555 1_555
C22 C23 1_555 1_555
C25 C26 1_555 1_555
C29 C30 1_555 1_555
C32 C37 1_555 1_555
C36 C37 1_555 1_555
C39 C40 1_555 1_555
C39 C41 1_555 1_555
C43 C44 1_555 1_555
C49 C50 1_555 1_555
C52 C53 1_555 1_555

#END
