
#######################################################################
#
#                 Cambridge Crystallographic Data Centre
#                                CCDC 
#
#######################################################################
#
# If this CIF has been generated from an entry in the Cambridge 
# Structural Database, then it will include bibliographic, chemical, 
# crystal, experimental, refinement or atomic coordinate data resulting 
# from the CCDC's data processing and validation procedures.
#
#######################################################################

data_UGICIX
_chemical_formula_moiety         'C31 H25 N1 O2'
_chemical_name_systematic        
(1R*,4S*)-7-methyl-1,3,4,5-tetraphenyl-3,4-dihydro-1H-furo[3,4-d][1,2]oxazine
_symmetry_cell_setting           monoclinic
_symmetry_space_group_name_H-M   'P 21/n'
_symmetry_Int_Tables_number      14
_space_group_name_Hall           '-P 2yn'
loop_
_symmetry_equiv_pos_site_id
_symmetry_equiv_pos_as_xyz
1 x,y,z
2 1/2-x,1/2+y,1/2-z
3 -x,-y,-z
4 1/2+x,1/2-y,1/2+z
_cell_length_a                   14.6442(2)
_cell_length_b                   10.5076(2)
_cell_length_c                   15.9170(3)
_cell_angle_alpha                90
_cell_angle_beta                 106.1450(10)
_cell_angle_gamma                90
_cell_volume                     2352.64
_exptl_crystal_colour            light
_exptl_crystal_description       block
_cell_formula_units_Z            4
loop_
_atom_site_label
_atom_site_type_symbol
_atom_site_fract_x
_atom_site_fract_y
_atom_site_fract_z
O1 O 0.81194(6) 0.72323(8) -0.00762(6)
O2 O 0.86464(6) 1.09337(9) -0.12814(6)
N1 N 0.77923(8) 0.81068(10) 0.04837(7)
C1 C 0.75239(10) 1.31119(13) -0.14371(9)
H1 H 0.8076 1.3115 -0.1640
C2 C 0.69747(11) 1.42033(14) -0.15134(11)
H2 H 0.7154 1.4947 -0.1767
C3 C 0.61716(12) 1.42177(15) -0.12245(11)
H3 H 0.5805 1.4973 -0.1266
C4 C 0.59028(12) 1.31283(15) -0.08739(11)
H4 H 0.5342 1.3129 -0.0685
C5 C 0.64457(11) 1.20334(14) -0.07962(10)
H5 H 0.6251 1.1287 -0.0556
C6 C 0.72753(10) 1.20113(13) -0.10660(9)
C7 C 0.63402(10) 0.80893(13) -0.15334(9)
H6 H 0.6921 0.8075 -0.1689
C8 C 0.55277(11) 0.76023(14) -0.21044(10)
H7 H 0.5555 0.7249 -0.2646
C9 C 0.46743(11) 0.76247(15) -0.18933(11)
H8 H 0.4114 0.7297 -0.2290
C10 C 0.46448(11) 0.81277(16) -0.10997(11)
H9 H 0.4061 0.8146 -0.0950
C11 C 0.54609(10) 0.86045(14) -0.05223(10)
H10 H 0.5434 0.8938 0.0025
C12 C 0.63194(9) 0.86018(12) -0.07326(9)
C13 C 0.71215(11) 0.80030(17) 0.17027(10)
H11 H 0.7277 0.8877 0.1811
C14 C 0.67103(12) 0.7335(2) 0.22520(12)
H12 H 0.6579 0.7755 0.2734
C15 C 0.64900(13) 0.6068(2) 0.21053(14)
H13 H 0.6222 0.5607 0.2493
C16 C 0.66587(13) 0.54716(18) 0.13963(14)
H14 H 0.6499 0.4598 0.1291
C17 C 0.70590(11) 0.61305(14) 0.08322(11)
H15 H 0.7163 0.5714 0.0337
C18 C 0.73065(9) 0.73950(14) 0.09926(9)
C19 C 0.90003(11) 0.65239(14) -0.15242(10)
H16 H 0.8375 0.6809 -0.1807
C20 C 0.94708(13) 0.57355(15) -0.19627(11)
H17 H 0.9162 0.5469 -0.2542
C21 C 1.03838(13) 0.53359(15) -0.15634(12)
H18 H 1.0708 0.4804 -0.1869
C22 C 1.08239(12) 0.57075(17) -0.07233(12)
H19 H 1.1455 0.5436 -0.0446
C23 C 1.03505(11) 0.64767(15) -0.02800(11)
H20 H 1.0656 0.6720 0.0306
C24 C 0.94408(9) 0.68973(12) -0.06736(9)
C25 C 0.72157(9) 0.91132(12) -0.00914(9)
H21 H 0.7026 0.9759 0.0290
C26 C 0.78901(9) 0.97384(12) -0.05306(9)
C27 C 0.87134(9) 0.90694(12) -0.06079(9)
C28 C 0.89814(9) 0.77961(13) -0.01803(9)
H22 H 0.9429 0.7937 0.0413
C29 C 0.78722(9) 1.08753(13) -0.09432(9)
C30 C 0.91493(9) 0.98142(12) -0.10696(9)
C31 C 0.99914(10) 0.96560(14) -0.14070(10)
H23 H 1.0290 0.8831 -0.1218
H24 H 1.0448 1.0339 -0.1178
H25 H 0.9791 0.9694 -0.2047
loop_
_geom_bond_atom_site_label_1
_geom_bond_atom_site_label_2
_geom_bond_site_symmetry_1
_geom_bond_site_symmetry_2
O1 N1 1_555 1_555
O2 C29 1_555 1_555
N1 C18 1_555 1_555
C1 H1 1_555 1_555
C2 C1 1_555 1_555
H2 C2 1_555 1_555
C3 C2 1_555 1_555
H3 C3 1_555 1_555
C4 C3 1_555 1_555
H4 C4 1_555 1_555
C5 C4 1_555 1_555
H5 C5 1_555 1_555
C6 C1 1_555 1_555
C7 H6 1_555 1_555
C8 C7 1_555 1_555
H7 C8 1_555 1_555
C9 C8 1_555 1_555
H8 C9 1_555 1_555
C10 C9 1_555 1_555
H9 C10 1_555 1_555
C11 C10 1_555 1_555
H10 C11 1_555 1_555
C12 C7 1_555 1_555
C13 H11 1_555 1_555
C14 C13 1_555 1_555
H12 C14 1_555 1_555
C15 C14 1_555 1_555
H13 C15 1_555 1_555
C16 C15 1_555 1_555
H14 C16 1_555 1_555
C17 C16 1_555 1_555
H15 C17 1_555 1_555
C18 C13 1_555 1_555
C19 H16 1_555 1_555
C20 C19 1_555 1_555
H17 C20 1_555 1_555
C21 C20 1_555 1_555
H18 C21 1_555 1_555
C22 C21 1_555 1_555
H19 C22 1_555 1_555
C23 C22 1_555 1_555
H20 C23 1_555 1_555
C24 C19 1_555 1_555
C25 N1 1_555 1_555
H21 C25 1_555 1_555
C26 C25 1_555 1_555
C27 C26 1_555 1_555
C28 O1 1_555 1_555
H22 C28 1_555 1_555
C29 C6 1_555 1_555
C30 O2 1_555 1_555
C31 C30 1_555 1_555
H23 C31 1_555 1_555
H24 C31 1_555 1_555
H25 C31 1_555 1_555
C5 C6 1_555 1_555
C11 C12 1_555 1_555
C12 C25 1_555 1_555
C17 C18 1_555 1_555
C23 C24 1_555 1_555
C24 C28 1_555 1_555
C26 C29 1_555 1_555
C27 C28 1_555 1_555
C27 C30 1_555 1_555

#END
