
#######################################################################
#
#                 Cambridge Crystallographic Data Centre
#                                CCDC 
#
#######################################################################
#
# If this CIF has been generated from an entry in the Cambridge 
# Structural Database, then it will include bibliographic, chemical, 
# crystal, experimental, refinement or atomic coordinate data resulting 
# from the CCDC's data processing and validation procedures.
#
#######################################################################

data_UGIFIA
_chemical_formula_moiety         'C17 H28 O4'
_chemical_name_systematic        
4-(Hydroxymethyl)-3'-(2-hydroxypropan-2-yl)-7-vinylspiro[bicyclo[2.2.1]heptane-2,1'-cyclopentane]-2',3-diol
_symmetry_cell_setting           triclinic
_symmetry_space_group_name_H-M   'P -1'
_symmetry_Int_Tables_number      2
_space_group_name_Hall           '-P 1'
loop_
_symmetry_equiv_pos_site_id
_symmetry_equiv_pos_as_xyz
1 x,y,z
2 -x,-y,-z
_cell_length_a                   7.5520(15)
_cell_length_b                   10.867(2)
_cell_length_c                   19.923(4)
_cell_angle_alpha                101.99(3)
_cell_angle_beta                 94.72(3)
_cell_angle_gamma                90.48(3)
_cell_volume                     1593.39
_exptl_crystal_colour            colorless
_exptl_crystal_description       plate-like
_chemical_melting_point          139-141deg.C
_cell_formula_units_Z            4
_exptl_crystal_recrystallization_method methanol/benzene
loop_
_atom_site_label
_atom_site_type_symbol
_atom_site_fract_x
_atom_site_fract_y
_atom_site_fract_z
O1 O -0.0681(6) 0.5566(5) 0.3342(2)
H1 H -0.0383 0.5829 0.3009
O2 O 0.3969(6) 0.5466(4) 0.2905(2)
H2 H 0.4321 0.5392 0.2521
O3 O 0.6322(6) 0.1931(5) 0.2623(3)
H3 H 0.6010 0.1778 0.2983
O4 O 0.5742(5) 0.4957(4) 0.1670(2)
H4 H 0.6670 0.5372 0.1705
C1 C 0.3240(9) 0.2646(6) 0.3415(3)
H5 H 0.3272 0.1733 0.3378
C2 C 0.1449(9) 0.3223(6) 0.3624(3)
H6 H 0.0531 0.2967 0.3242
C3 C 0.2107(9) 0.4597(6) 0.3648(3)
C4 C 0.2732(8) 0.4453(6) 0.2906(3)
H7 H 0.1696 0.4519 0.2586
C5 C 0.3417(8) 0.3052(6) 0.2734(3)
C6 C 0.2275(8) 0.2302(6) 0.2113(3)
H8 H 0.2452 0.1405 0.2064
H9 H 0.1025 0.2468 0.2153
C7 C 0.2930(8) 0.2771(6) 0.1509(3)
H10 H 0.2519 0.3611 0.1500
H11 H 0.2534 0.2212 0.1075
C8 C 0.4965(8) 0.2769(6) 0.1648(4)
H12 H 0.5334 0.1916 0.1453
C9 C 0.5306(8) 0.2954(6) 0.2447(4)
H13 H 0.5974 0.3747 0.2628
C10 C 0.4571(9) 0.3394(6) 0.3983(3)
H14 H 0.5733 0.3447 0.3815
H15 H 0.4684 0.3005 0.4380
C11 C 0.3747(9) 0.4728(6) 0.4169(3)
H16 H 0.3414 0.4911 0.4639
H17 H 0.4564 0.5381 0.4108
C12 C 0.0792(10) 0.2980(6) 0.4271(4)
H18 H 0.1544 0.3197 0.4673
C13 C -0.0793(10) 0.2475(7) 0.4314(4)
H19 H -0.1580 0.2247 0.3922
H20 H -0.1116 0.2351 0.4736
C14 C 0.6023(9) 0.3668(6) 0.1317(4)
C15 C 0.8023(8) 0.3381(6) 0.1391(4)
H21 H 0.8683 0.3945 0.1187
H22 H 0.8205 0.2529 0.1161
H23 H 0.8423 0.3489 0.1870
C16 C 0.5381(9) 0.3553(7) 0.0563(3)
H24 H 0.6103 0.4090 0.0364
H25 H 0.4165 0.3801 0.0527
H26 H 0.5469 0.2696 0.0323
C17 C 0.0818(9) 0.5648(6) 0.3846(3)
H27 H 0.0397 0.5607 0.4288
H28 H 0.1433 0.6452 0.3895
O5 O 1.3471(6) 0.6916(5) 0.1508(3)
H29 H 1.3234 0.7341 0.1879
O6 O 0.8888(6) 0.6278(4) 0.2080(2)
H30 H 0.9055 0.6156 0.2473
O7 O 0.5490(6) 0.9250(4) 0.2234(2)
H31 H 0.5337 0.8986 0.1816
O8 O 0.6623(6) 0.7151(4) 0.3661(3)
H32 H 0.5731 0.6742 0.3477
C18 C 0.8673(8) 0.9090(6) 0.1495(4)
H33 H 0.8391 0.9977 0.1523
C19 C 1.0583(8) 0.8770(6) 0.1283(3)
H34 H 1.1469 0.9163 0.1655
C20 C 1.0304(8) 0.7340(6) 0.1292(3)
C21 C 0.9818(8) 0.7427(5) 0.2036(3)
H35 H 1.0914 0.7523 0.2345
C22 C 0.8734(8) 0.8692(6) 0.2198(3)
C23 C 0.9839(8) 0.9621(6) 0.2784(3)
H36 H 1.1104 0.9526 0.2742
H37 H 0.9537 1.0486 0.2782
C24 C 0.9296(8) 0.9230(6) 0.3434(3)
H38 H 0.9672 0.9859 0.3843
H39 H 0.9787 0.8427 0.3479
C25 C 0.7242(8) 0.9137(6) 0.3305(3)
H40 H 0.6833 1.0004 0.3373
C26 C 0.6927(8) 0.8573(6) 0.2518(3)
H41 H 0.6578 0.7682 0.2447
C27 C 0.7507(8) 0.8189(6) 0.0934(4)
H42 H 0.7279 0.8541 0.0527
H43 H 0.6381 0.8007 0.1100
C28 C 0.8636(8) 0.6974(6) 0.0775(4)
H44 H 0.8007 0.6247 0.0860
H45 H 0.8949 0.6801 0.0302
C29 C 1.1061(10) 0.9034(6) 0.0603(4)
H46 H 1.0190 0.8879 0.0235
C30 C 1.2603(10) 0.9461(6) 0.0496(4)
H47 H 1.3504 0.9626 0.0852
H48 H 1.2805 0.9601 0.0064
C31 C 0.6241(9) 0.8502(6) 0.3783(4)
C32 C 0.4232(8) 0.8653(7) 0.3663(4)
H49 H 0.3954 0.9526 0.3794
H50 H 0.3624 0.8180 0.3935
H51 H 0.3858 0.8348 0.3184
C33 C 0.6862(9) 0.9021(7) 0.4525(4)
H52 H 0.8087 0.8825 0.4607
H53 H 0.6157 0.8653 0.4815
H54 H 0.6738 0.9918 0.4626
C34 C 1.1861(8) 0.6496(6) 0.1093(3)
H55 H 1.1567 0.5647 0.1137
H56 H 1.2045 0.6469 0.0614
loop_
_geom_bond_atom_site_label_1
_geom_bond_atom_site_label_2
_geom_bond_site_symmetry_1
_geom_bond_site_symmetry_2
O1 H1 1_555 1_555
O2 H2 1_555 1_555
O3 H3 1_555 1_555
O4 H4 1_555 1_555
C1 H5 1_555 1_555
C2 C1 1_555 1_555
H6 C2 1_555 1_555
C3 C2 1_555 1_555
C4 O2 1_555 1_555
H7 C4 1_555 1_555
C5 C1 1_555 1_555
C6 C5 1_555 1_555
H8 C6 1_555 1_555
H9 C6 1_555 1_555
C7 C6 1_555 1_555
H10 C7 1_555 1_555
H11 C7 1_555 1_555
C8 C7 1_555 1_555
H12 C8 1_555 1_555
C9 O3 1_555 1_555
H13 C9 1_555 1_555
C10 C1 1_555 1_555
H14 C10 1_555 1_555
H15 C10 1_555 1_555
C11 C3 1_555 1_555
H16 C11 1_555 1_555
H17 C11 1_555 1_555
C12 C2 1_555 1_555
H18 C12 1_555 1_555
C13 C12 1_555 1_555
H19 C13 1_555 1_555
H20 C13 1_555 1_555
C14 O4 1_555 1_555
C15 C14 1_555 1_555
H21 C15 1_555 1_555
H22 C15 1_555 1_555
H23 C15 1_555 1_555
C16 C14 1_555 1_555
H24 C16 1_555 1_555
H25 C16 1_555 1_555
H26 C16 1_555 1_555
C17 O1 1_555 1_555
H27 C17 1_555 1_555
H28 C17 1_555 1_555
O5 H29 1_555 1_555
O6 H30 1_555 1_555
O7 H31 1_555 1_555
O8 H32 1_555 1_555
C18 H33 1_555 1_555
C19 C18 1_555 1_555
H34 C19 1_555 1_555
C20 C19 1_555 1_555
C21 O6 1_555 1_555
H35 C21 1_555 1_555
C22 C18 1_555 1_555
C23 C22 1_555 1_555
H36 C23 1_555 1_555
H37 C23 1_555 1_555
C24 C23 1_555 1_555
H38 C24 1_555 1_555
H39 C24 1_555 1_555
C25 C24 1_555 1_555
H40 C25 1_555 1_555
C26 O7 1_555 1_555
H41 C26 1_555 1_555
C27 C18 1_555 1_555
H42 C27 1_555 1_555
H43 C27 1_555 1_555
C28 C20 1_555 1_555
H44 C28 1_555 1_555
H45 C28 1_555 1_555
C29 C19 1_555 1_555
H46 C29 1_555 1_555
C30 C29 1_555 1_555
H47 C30 1_555 1_555
H48 C30 1_555 1_555
C31 O8 1_555 1_555
C32 C31 1_555 1_555
H49 C32 1_555 1_555
H50 C32 1_555 1_555
H51 C32 1_555 1_555
C33 C31 1_555 1_555
H52 C33 1_555 1_555
H53 C33 1_555 1_555
H54 C33 1_555 1_555
C34 O5 1_555 1_555
H55 C34 1_555 1_555
H56 C34 1_555 1_555
C3 C4 1_555 1_555
C3 C17 1_555 1_555
C4 C5 1_555 1_555
C5 C9 1_555 1_555
C8 C9 1_555 1_555
C8 C14 1_555 1_555
C10 C11 1_555 1_555
C20 C21 1_555 1_555
C20 C34 1_555 1_555
C21 C22 1_555 1_555
C22 C26 1_555 1_555
C25 C26 1_555 1_555
C25 C31 1_555 1_555
C27 C28 1_555 1_555

#END
