
#######################################################################
#
#                 Cambridge Crystallographic Data Centre
#                                CCDC 
#
#######################################################################
#
# If this CIF has been generated from an entry in the Cambridge 
# Structural Database, then it will include bibliographic, chemical, 
# crystal, experimental, refinement or atomic coordinate data resulting 
# from the CCDC's data processing and validation procedures.
#
#######################################################################

data_UGISOU
_chemical_formula_moiety         'C22 H19 F1 N2 O3,C1 H2 Cl2'
_chemical_name_systematic        
'8-(4-fluorobenzoyl)-7-(2-oxo-2-phenylethyl)-1,3,4,7-tetrahydropyrrolo[1,2-a]pyrimidin-6(2H)-one dichloromethane solvate'
_symmetry_cell_setting           monoclinic
_symmetry_space_group_name_H-M   'P 21/c'
_symmetry_Int_Tables_number      14
_space_group_name_Hall           '-P 2ybc'
loop_
_symmetry_equiv_pos_site_id
_symmetry_equiv_pos_as_xyz
1 x,y,z
2 -x,1/2+y,1/2-z
3 -x,-y,-z
4 x,1/2-y,1/2+z
_cell_length_a                   9.9049(18)
_cell_length_b                   24.490(4)
_cell_length_c                   8.7934(16)
_cell_angle_alpha                90
_cell_angle_beta                 96.040(3)
_cell_angle_gamma                90
_cell_volume                     2121.18
_exptl_crystal_colour            brown
_exptl_crystal_description       prism
_cell_formula_units_Z            4
loop_
_atom_site_label
_atom_site_type_symbol
_atom_site_fract_x
_atom_site_fract_y
_atom_site_fract_z
Cl1 Cl 0.62094(11) 0.01110(5) 0.13645(15)
Cl2 Cl 0.83924(19) -0.01247(9) 0.37175(15)
C1 C 0.7901(4) 0.02419(18) 0.2063(4)
H1 H 0.8498 0.0144 0.1270
H2 H 0.8013 0.0637 0.2278
F1 F 0.50850(17) 0.11993(7) 0.35187(19)
O1 O 0.77515(19) 0.18666(8) 1.0990(2)
O2 O 1.07698(18) 0.26229(7) 1.0645(2)
O3 O 0.92249(19) 0.03837(7) 0.8928(2)
N1 N 1.1056(2) 0.07561(8) 1.1221(2)
H3 H 1.0761 0.0447 1.0798
N2 N 1.1131(2) 0.17101(8) 1.1166(2)
C2 C 0.6074(3) 0.11137(11) 0.4694(3)
C3 C 0.7316(3) 0.13603(10) 0.4621(3)
H4 H 0.7488 0.1573 0.3759
C4 C 0.8314(2) 0.12889(10) 0.5848(3)
H5 H 0.9171 0.1463 0.5838
C5 C 0.8059(2) 0.09627(10) 0.7091(3)
C6 C 0.9094(2) 0.08661(10) 0.8437(3)
C7 C 0.9824(2) 0.13027(9) 0.9170(3)
C8 C 0.9752(2) 0.19144(9) 0.8898(3)
H6 H 1.0259 0.1995 0.7999
C9 C 0.8361(2) 0.21904(10) 0.8611(3)
H7 H 0.8474 0.2589 0.8753
H8 H 0.7985 0.2125 0.7539
C10 C 0.7364(2) 0.19832(10) 0.9667(3)
C11 C 0.5915(2) 0.19083(10) 0.9026(3)
C12 C 0.5125(3) 0.15343(11) 0.9741(3)
H9 H 0.5486 0.1358 1.0657
C13 C 0.3810(3) 0.14206(12) 0.9110(3)
H10 H 0.3280 0.1159 0.9580
C14 C 0.3266(3) 0.16899(13) 0.7790(3)
H11 H 0.2367 0.1611 0.7362
C15 C 0.5785(3) 0.07865(11) 0.5891(3)
H12 H 0.4920 0.0619 0.5899
C16 C 0.6800(2) 0.07088(10) 0.7085(3)
H13 H 0.6633 0.0478 0.7914
C17 C 1.0678(2) 0.12179(10) 1.0526(3)
C18 C 1.1939(3) 0.07337(10) 1.2658(3)
H14 H 1.2896 0.0696 1.2443
H15 H 1.1702 0.0412 1.3258
C19 C 1.1774(3) 0.12525(10) 1.3576(3)
H16 H 1.0849 0.1265 1.3905
H17 H 1.2435 0.1251 1.4502
C20 C 1.2005(3) 0.17532(10) 1.2612(3)
H18 H 1.1782 0.2089 1.3162
H19 H 1.2969 0.1773 1.2412
C21 C 1.0580(2) 0.21432(9) 1.0312(3)
C22 C 0.4034(3) 0.20716(12) 0.7100(3)
H20 H 0.3652 0.2262 0.6216
C23 C 0.5366(3) 0.21773(11) 0.7703(3)
H21 H 0.5900 0.2432 0.7214
loop_
_geom_bond_atom_site_label_1
_geom_bond_atom_site_label_2
_geom_bond_site_symmetry_1
_geom_bond_site_symmetry_2
Cl1 C1 1_555 1_555
Cl2 C1 1_555 1_555
C1 H1 1_555 1_555
H2 C1 1_555 1_555
F1 C2 1_555 1_555
O1 C10 1_555 1_555
O2 C21 1_555 1_555
O3 C6 1_555 1_555
N1 H3 1_555 1_555
N2 C17 1_555 1_555
C2 C3 1_555 1_555
C3 H4 1_555 1_555
C4 C3 1_555 1_555
H5 C4 1_555 1_555
C5 C4 1_555 1_555
C6 C5 1_555 1_555
C7 C6 1_555 1_555
C8 C7 1_555 1_555
H6 C8 1_555 1_555
C9 C8 1_555 1_555
H7 C9 1_555 1_555
H8 C9 1_555 1_555
C10 C9 1_555 1_555
C11 C10 1_555 1_555
C12 C11 1_555 1_555
H9 C12 1_555 1_555
C13 C12 1_555 1_555
H10 C13 1_555 1_555
C14 C13 1_555 1_555
H11 C14 1_555 1_555
C15 C2 1_555 1_555
H12 C15 1_555 1_555
C16 C5 1_555 1_555
H13 C16 1_555 1_555
C17 N1 1_555 1_555
C18 N1 1_555 1_555
H14 C18 1_555 1_555
H15 C18 1_555 1_555
C19 C18 1_555 1_555
H16 C19 1_555 1_555
H17 C19 1_555 1_555
C20 N2 1_555 1_555
H18 C20 1_555 1_555
H19 C20 1_555 1_555
C21 N2 1_555 1_555
C22 C14 1_555 1_555
H20 C22 1_555 1_555
C23 C11 1_555 1_555
H21 C23 1_555 1_555
C7 C17 1_555 1_555
C8 C21 1_555 1_555
C15 C16 1_555 1_555
C19 C20 1_555 1_555
C22 C23 1_555 1_555

#END
