
#######################################################################
#
#                 Cambridge Crystallographic Data Centre
#                                CCDC 
#
#######################################################################
#
# If this CIF has been generated from an entry in the Cambridge 
# Structural Database, then it will include bibliographic, chemical, 
# crystal, experimental, refinement or atomic coordinate data resulting 
# from the CCDC's data processing and validation procedures.
#
#######################################################################

data_UGIVEN
_chemical_formula_moiety         'C12 H16 N4 S2'
_chemical_name_systematic        
1,1'-but-2-ene-1,4-diylbis(3-methyl-1,3-dihydro-2H-imidazole-2-thione)
_symmetry_cell_setting           triclinic
_symmetry_space_group_name_H-M   'P -1'
_symmetry_Int_Tables_number      2
_space_group_name_Hall           '-P 1'
loop_
_symmetry_equiv_pos_site_id
_symmetry_equiv_pos_as_xyz
1 x,y,z
2 -x,-y,-z
_cell_length_a                   7.0196(16)
_cell_length_b                   7.2219(17)
_cell_length_c                   7.4813(18)
_cell_angle_alpha                87.479(4)
_cell_angle_beta                 65.560(3)
_cell_angle_gamma                78.797(3)
_cell_volume                     338.419
_exptl_crystal_colour            colorless
_exptl_crystal_description       block
_cell_formula_units_Z            1
loop_
_atom_site_label
_atom_site_type_symbol
_atom_site_fract_x
_atom_site_fract_y
_atom_site_fract_z
S1 S 0.31833(10) 0.19989(9) 0.78829(10)
N1 N 0.4472(4) 0.5383(3) 0.7556(3)
N2 N 0.6852(4) 0.3014(3) 0.7610(3)
C1 C 0.4840(4) 0.3466(4) 0.7691(4)
C2 C 0.8961(4) 0.0190(4) 0.5553(4)
H1 H 0.8030 -0.0119 0.5032
C3 C 0.8001(4) 0.1081(4) 0.7584(4)
H2 H 0.7006 0.0320 0.8502
H3 H 0.9143 0.1104 0.8029
C4 C 0.7706(5) 0.4622(4) 0.7419(4)
H4 H 0.9085 0.4673 0.7329
C5 C 0.6229(5) 0.6095(4) 0.7386(4)
H5 H 0.6364 0.7383 0.7269
C6 C 0.2491(5) 0.6511(4) 0.7598(4)
H6 H 0.2254 0.6125 0.6478
H7 H 0.2586 0.7850 0.7519
H8 H 0.1300 0.6315 0.8824
S1A S 1.68167(10) -0.19989(9) 0.21171(10)
N1A N 1.5528(4) -0.5383(3) 0.2444(3)
N2A N 1.3148(4) -0.3014(3) 0.2390(3)
C1A C 1.5160(4) -0.3466(4) 0.2309(4)
C2A C 1.1039(4) -0.0190(4) 0.4447(4)
H1A H 1.1970 0.0119 0.4968
C3A C 1.1999(4) -0.1081(4) 0.2416(4)
H2A H 1.2994 -0.0320 0.1498
H3A H 1.0857 -0.1104 0.1971
C4A C 1.2294(5) -0.4622(4) 0.2581(4)
H4A H 1.0915 -0.4673 0.2671
C5A C 1.3771(5) -0.6095(4) 0.2614(4)
H5A H 1.3636 -0.7383 0.2731
C6A C 1.7509(5) -0.6511(4) 0.2402(4)
H6A H 1.7746 -0.6125 0.3522
H7A H 1.7414 -0.7850 0.2481
H8A H 1.8700 -0.6315 0.1176
loop_
_geom_bond_atom_site_label_1
_geom_bond_atom_site_label_2
_geom_bond_site_symmetry_1
_geom_bond_site_symmetry_2
S1 C1 1_555 1_555
N1 C1 1_555 1_555
N2 C1 1_555 1_555
C2 H1 1_555 1_555
C3 N2 1_555 1_555
H2 C3 1_555 1_555
H3 C3 1_555 1_555
C4 N2 1_555 1_555
H4 C4 1_555 1_555
C5 N1 1_555 1_555
H5 C5 1_555 1_555
C6 N1 1_555 1_555
H6 C6 1_555 1_555
H7 C6 1_555 1_555
H8 C6 1_555 1_555
S1A C1A 1_555 1_555
N1A C1A 1_555 1_555
N2A C1A 1_555 1_555
C2A C2 1_555 1_555
H1A C2A 1_555 1_555
C3A N2A 1_555 1_555
H2A C3A 1_555 1_555
H3A C3A 1_555 1_555
C4A N2A 1_555 1_555
H4A C4A 1_555 1_555
C5A N1A 1_555 1_555
H5A C5A 1_555 1_555
C6A N1A 1_555 1_555
H6A C6A 1_555 1_555
H7A C6A 1_555 1_555
H8A C6A 1_555 1_555
C2 C3 1_555 1_555
C4 C5 1_555 1_555
C2A C3A 1_555 1_555
C4A C5A 1_555 1_555

#END
