
#######################################################################
#
#                 Cambridge Crystallographic Data Centre
#                                CCDC 
#
#######################################################################
#
# If this CIF has been generated from an entry in the Cambridge 
# Structural Database, then it will include bibliographic, chemical, 
# crystal, experimental, refinement or atomic coordinate data resulting 
# from the CCDC's data processing and validation procedures.
#
#######################################################################

data_UGIXAL
_chemical_formula_moiety         'C26 H16 N6 O1'
_chemical_name_systematic        
4-(2-Azidophenyl)-5-benzoyl-2-(1H-indol-3-yl)-1H-pyrrole-3-carbonitrile
_symmetry_cell_setting           triclinic
_symmetry_space_group_name_H-M   'P -1'
_symmetry_Int_Tables_number      2
_space_group_name_Hall           '-P 1'
loop_
_symmetry_equiv_pos_site_id
_symmetry_equiv_pos_as_xyz
1 x,y,z
2 -x,-y,-z
_cell_length_a                   8.1834(6)
_cell_length_b                   11.3713(8)
_cell_length_c                   12.6853(8)
_cell_angle_alpha                108.070(3)
_cell_angle_beta                 105.164(4)
_cell_angle_gamma                90.256(3)
_cell_volume                     1078.42
_exptl_crystal_colour            yellow
_exptl_crystal_description       block
_cell_formula_units_Z            2
loop_
_atom_site_label
_atom_site_type_symbol
_atom_site_fract_x
_atom_site_fract_y
_atom_site_fract_z
C1 C -0.0917(3) -0.39241(16) 0.12464(15)
H1 H 0.0075 -0.4097 0.1024
C2 C -0.3428(2) -0.42040(17) 0.15320(15)
C3 C -0.4944(3) -0.4692(2) 0.15954(19)
H2 H -0.5245 -0.5544 0.1333
C4 C -0.5968(3) -0.3873(3) 0.2057(2)
H3 H -0.6987 -0.4173 0.2117
C5 C -0.5540(3) -0.2602(3) 0.2443(2)
H4 H -0.6281 -0.2069 0.2747
C6 C -0.4056(3) -0.2119(2) 0.23854(17)
H5 H -0.3783 -0.1264 0.2641
C7 C -0.2954(2) -0.29262(16) 0.19367(14)
C8 C -0.1326(2) -0.27646(15) 0.17555(13)
C9 C -0.0284(2) -0.16159(14) 0.20815(13)
C10 C 0.0785(2) -0.12214(15) 0.15429(13)
C11 C 0.1096(2) -0.19675(16) 0.05005(15)
C12 C 0.1570(2) -0.00185(15) 0.22359(14)
C13 C 0.2907(2) 0.06488(15) 0.20018(15)
C14 C 0.2675(3) 0.07898(19) 0.09230(18)
H6 H 0.1646 0.0494 0.0362
C15 C 0.3950(4) 0.1362(2) 0.0672(2)
H7 H 0.3775 0.1455 -0.0052
C16 C 0.5461(4) 0.1790(2) 0.1486(3)
H8 H 0.6317 0.2173 0.1314
C17 C 0.5740(3) 0.1663(2) 0.2556(2)
H9 H 0.6777 0.1965 0.3107
C18 C 0.4479(3) 0.10869(17) 0.28161(17)
C19 C 0.0923(2) 0.03026(15) 0.31786(14)
C20 C 0.1247(2) 0.13755(16) 0.42355(14)
N1 N -0.2164(2) -0.47857(14) 0.11122(14)
N2 N -0.01795(18) -0.06776(12) 0.30625(11)
N3 N 0.1341(2) -0.25813(15) -0.03298(14)
N4 N 0.4701(2) 0.08726(16) 0.38885(14)
N5 N 0.6075(2) 0.12980(17) 0.46065(17)
O1 O 0.1155(2) 0.12110(12) 0.51215(10)
N6 N 0.7264(2) 0.16569(9) 0.53511(10)
C21 C 0.1727(2) 0.26171(9) 0.41748(10)
C22 C 0.1178(2) 0.29254(9) 0.31689(10)
H10 H 0.0559 0.2330 0.2489
C23 C 0.1552(2) 0.41233(9) 0.31797(10)
H11 H 0.1185 0.4330 0.2507
C24 C 0.2476(2) 0.50129(9) 0.41964(10)
H12 H 0.2727 0.5814 0.4204
C25 C 0.3026(2) 0.47046(9) 0.52023(10)
H13 H 0.3644 0.5300 0.5883
C26 C 0.2651(2) 0.35067(9) 0.51915(10)
H14 H 0.3019 0.3300 0.5865
H15 H -0.060(2) -0.0740(17) 0.3647(12)
H16 H -0.214(3) -0.5632(10) 0.0821(18)
C27? C 0.1467(2) 0.26296(9) 0.42353(10)
C28? C 0.0825(2) 0.29348(9) 0.32352(10)
H17? H 0.0316 0.2315 0.2542
C29? C 0.0943(2) 0.41672(9) 0.32710(10)
H18? H 0.0513 0.4371 0.2602
C30? C 0.1703(2) 0.50943(9) 0.43068(10)
H19? H 0.1781 0.5919 0.4331
C31? C 0.2345(2) 0.47891(9) 0.53069(10)
H20? H 0.2853 0.5409 0.6000
C32? C 0.2227(2) 0.35568(9) 0.52712(10)
H21? H 0.2657 0.3353 0.5940
loop_
_geom_bond_atom_site_label_1
_geom_bond_atom_site_label_2
_geom_bond_site_symmetry_1
_geom_bond_site_symmetry_2
C1 H1 1_555 1_555
C2 C3 1_555 1_555
C3 H2 1_555 1_555
C4 C3 1_555 1_555
H3 C4 1_555 1_555
C5 C4 1_555 1_555
H4 C5 1_555 1_555
C6 C5 1_555 1_555
H5 C6 1_555 1_555
C7 C2 1_555 1_555
C8 C1 1_555 1_555
C9 C8 1_555 1_555
C10 C9 1_555 1_555
C11 C10 1_555 1_555
C12 C10 1_555 1_555
C13 C12 1_555 1_555
C14 C13 1_555 1_555
H6 C14 1_555 1_555
C15 C14 1_555 1_555
H7 C15 1_555 1_555
C16 C15 1_555 1_555
H8 C16 1_555 1_555
C17 C16 1_555 1_555
H9 C17 1_555 1_555
C18 C13 1_555 1_555
C19 C12 1_555 1_555
C20 C19 1_555 1_555
N1 C1 1_555 1_555
N2 C9 1_555 1_555
N3 C11 1_555 1_555
N4 C18 1_555 1_555
N5 N4 1_555 1_555
O1 C20 1_555 1_555
N6 N5 1_555 1_555
C21 C20 1_555 1_555
C22 C21 1_555 1_555
H10 C22 1_555 1_555
C23 C22 1_555 1_555
H11 C23 1_555 1_555
C24 C23 1_555 1_555
H12 C24 1_555 1_555
C25 C24 1_555 1_555
H13 C25 1_555 1_555
C26 C21 1_555 1_555
H14 C26 1_555 1_555
H15 N2 1_555 1_555
H16 N1 1_555 1_555
C2 N1 1_555 1_555
C6 C7 1_555 1_555
C7 C8 1_555 1_555
C17 C18 1_555 1_555
C19 N2 1_555 1_555
C25 C26 1_555 1_555

#END
