
#######################################################################
#
#                 Cambridge Crystallographic Data Centre
#                                CCDC 
#
#######################################################################
#
# If this CIF has been generated from an entry in the Cambridge 
# Structural Database, then it will include bibliographic, chemical, 
# crystal, experimental, refinement or atomic coordinate data resulting 
# from the CCDC's data processing and validation procedures.
#
#######################################################################

data_UGIZAM
_chemical_formula_moiety         'C14 H28 Ca1 O4'
_chemical_name_systematic        
bis(\h^3^-Allyl)-(2,5,8,11-tetraoxadodecane-O,O',O'',O''')-calcium
_symmetry_cell_setting           monoclinic
_symmetry_space_group_name_H-M   'P 21/n'
_symmetry_Int_Tables_number      14
_space_group_name_Hall           '-P 2yn'
loop_
_symmetry_equiv_pos_site_id
_symmetry_equiv_pos_as_xyz
1 x,y,z
2 1/2-x,1/2+y,1/2-z
3 -x,-y,-z
4 1/2+x,1/2-y,1/2+z
_cell_length_a                   8.4399(4)
_cell_length_b                   22.9328(11)
_cell_length_c                   9.0724(4)
_cell_angle_alpha                90
_cell_angle_beta                 107.8020(10)
_cell_angle_gamma                90
_cell_volume                     1671.89
_exptl_crystal_colour            colorless
_exptl_crystal_description       block
_cell_formula_units_Z            4
loop_
_atom_site_label
_atom_site_type_symbol
_atom_site_fract_x
_atom_site_fract_y
_atom_site_fract_z
Ca1 Ca 0.65203(3) 0.881122(10) 0.80159(3)
O1 O 0.87738(11) 0.87009(4) 1.04944(10)
O2 O 0.90407(11) 0.83146(4) 0.77819(10)
O3 O 0.38723(11) 0.90724(4) 0.60521(10)
O4 O 0.61521(11) 0.83781(4) 0.53991(10)
C1 C 0.46696(17) 0.84785(6) 0.98446(16)
H1 H 0.5704 0.8536 1.0625
H2 H 0.3746 0.8720 0.9814
C2 C 0.45081(17) 0.80414(6) 0.87490(16)
H3 H 0.3377 0.8002 0.7979
C3 C 0.5672(2) 0.76505(6) 0.85916(18)
H4 H 0.6768 0.7658 0.9297
H5 H 0.5384 0.7372 0.7777
C4 C 0.6528(2) 0.99699(6) 0.8751(2)
H6 H 0.5428 0.9925 0.8072
H7 H 0.6705 1.0088 0.9792
C5 C 0.7806(3) 0.98686(8) 0.8248(3)
H8 H 0.8893 0.9898 0.9088
C6 C 0.7993(2) 0.96978(7) 0.68602(19)
H9 H 0.7039 0.9626 0.5996
H10 H 0.9075 0.9651 0.6764
C7 C 0.88914(19) 0.90410(7) 1.18474(15)
H11 H 0.9357 0.8801 1.2773
H12 H 0.7781 0.9177 1.1816
H13 H 0.9617 0.9378 1.1879
C8 C 1.03788(16) 0.85493(6) 1.03920(16)
H14 H 1.1095 0.8404 1.1403
H15 H 1.0919 0.8895 1.0102
C9 C 1.01435(16) 0.80848(6) 0.91847(16)
H16 H 1.1225 0.7981 0.9040
H17 H 0.9661 0.7730 0.9500
C10 C 0.87661(17) 0.79261(6) 0.64972(16)
H18 H 0.8204 0.7567 0.6680
H19 H 0.9837 0.7817 0.6339
C11 C 0.76865(17) 0.82460(6) 0.51089(15)
H20 H 0.8240 0.8610 0.4943
H21 H 0.7478 0.8000 0.4172
C12 C 0.50340(18) 0.87019(6) 0.41673(15)
H22 H 0.4796 0.8483 0.3184
H23 H 0.5537 0.9081 0.4039
C13 C 0.34601(17) 0.87981(6) 0.45694(16)
H24 H 0.2693 0.9049 0.3780
H25 H 0.2901 0.8421 0.4597
C14 C 0.24155(17) 0.92464(7) 0.64331(19)
H26 H 0.1774 0.9524 0.5656
H27 H 0.2745 0.9432 0.7455
H28 H 0.1730 0.8903 0.6449
C15? C 0.6984(6) 0.99226(16) 0.7332(6)
H29? H 0.6025 1.0051 0.6437
loop_
_geom_bond_atom_site_label_1
_geom_bond_atom_site_label_2
_geom_bond_site_symmetry_1
_geom_bond_site_symmetry_2
Ca1 O1 1_555 1_555
O1 C7 1_555 1_555
O2 Ca1 1_555 1_555
O3 Ca1 1_555 1_555
O4 Ca1 1_555 1_555
C1 Ca1 1_555 1_555
H1 C1 1_555 1_555
H2 C1 1_555 1_555
C2 Ca1 1_555 1_555
H3 C2 1_555 1_555
C3 Ca1 1_555 1_555
H4 C3 1_555 1_555
H5 C3 1_555 1_555
C4 Ca1 1_555 1_555
H6 C4 1_555 1_555
H7 C4 1_555 1_555
C5 Ca1 1_555 1_555
H8 C5 1_555 1_555
C6 Ca1 1_555 1_555
H9 C6 1_555 1_555
H10 C6 1_555 1_555
C7 H11 1_555 1_555
H12 C7 1_555 1_555
H13 C7 1_555 1_555
C8 O1 1_555 1_555
H14 C8 1_555 1_555
H15 C8 1_555 1_555
C9 O2 1_555 1_555
H16 C9 1_555 1_555
H17 C9 1_555 1_555
C10 O2 1_555 1_555
H18 C10 1_555 1_555
H19 C10 1_555 1_555
C11 O4 1_555 1_555
H20 C11 1_555 1_555
H21 C11 1_555 1_555
C12 O4 1_555 1_555
H22 C12 1_555 1_555
H23 C12 1_555 1_555
C13 O3 1_555 1_555
H24 C13 1_555 1_555
H25 C13 1_555 1_555
C14 O3 1_555 1_555
H26 C14 1_555 1_555
H27 C14 1_555 1_555
H28 C14 1_555 1_555
C1 C2 1_555 1_555
C2 C3 1_555 1_555
C4 C5 1_555 1_555
C5 C6 1_555 1_555
C8 C9 1_555 1_555
C10 C11 1_555 1_555
C12 C13 1_555 1_555

#END
