
#######################################################################
#
#                 Cambridge Crystallographic Data Centre
#                                CCDC 
#
#######################################################################
#
# If this CIF has been generated from an entry in the Cambridge 
# Structural Database, then it will include bibliographic, chemical, 
# crystal, experimental, refinement or atomic coordinate data resulting 
# from the CCDC's data processing and validation procedures.
#
#######################################################################

data_UGOCOK
_chemical_formula_moiety         'C9 H8 F1 N1 O4'
_chemical_name_systematic        'methyl fluoro(2-nitrophenyl)acetate'
_symmetry_cell_setting           orthorhombic
_symmetry_space_group_name_H-M   'P n a 21'
_symmetry_Int_Tables_number      33
_space_group_name_Hall           'P 2c -2n'
loop_
_symmetry_equiv_pos_site_id
_symmetry_equiv_pos_as_xyz
1 x,y,z
2 -x,-y,1/2+z
3 1/2-x,1/2+y,1/2+z
4 1/2+x,1/2-y,z
_cell_length_a                   7.2946(7)
_cell_length_b                   16.473(2)
_cell_length_c                   7.7761(11)
_cell_angle_alpha                90
_cell_angle_beta                 90
_cell_angle_gamma                90
_cell_volume                     934.407
_exptl_crystal_colour            colorless
_exptl_crystal_description       plate
_cell_formula_units_Z            4
loop_
_atom_site_label
_atom_site_type_symbol
_atom_site_fract_x
_atom_site_fract_y
_atom_site_fract_z
F1 F -0.0948(3) 0.54214(16) 0.5006(4)
O1 O 0.1291(4) 0.6194(2) 0.2703(5)
O2 O -0.0611(5) 0.7204(2) 0.2400(5)
O3 O 0.2015(4) 0.45331(19) 0.4317(4)
O4 O 0.3607(4) 0.5140(2) 0.6415(5)
N1 N 0.0447(5) 0.6783(2) 0.3274(5)
C1 C 0.0922(5) 0.6428(3) 0.6353(6)
C2 C 0.0776(6) 0.7012(3) 0.5063(6)
C3 C 0.0926(6) 0.7840(3) 0.5406(8)
C4 C 0.1348(6) 0.8089(3) 0.7053(7)
C5 C 0.1567(6) 0.7518(3) 0.8337(8)
C6 C 0.1320(6) 0.6695(3) 0.8007(7)
C7 C 0.0556(6) 0.5538(3) 0.6101(6)
C8 C 0.2121(6) 0.5017(3) 0.5461(6)
C9 C 0.5143(7) 0.4604(3) 0.6032(8)
H1 H 0.075(8) 0.815(3) 0.438(9)
H2 H 0.133(7) 0.865(4) 0.749(8)
H3 H 0.130(6) 0.632(3) 0.900(8)
H4 H 0.018(6) 0.533(3) 0.718(7)
H5 H 0.546(7) 0.469(3) 0.471(8)
H6 H 0.490(10) 0.394(4) 0.623(11)
H7 H 0.608(7) 0.476(3) 0.689(8)
H8 H 0.175(5) 0.770(3) 0.954(7)
loop_
_geom_bond_atom_site_label_1
_geom_bond_atom_site_label_2
_geom_bond_site_symmetry_1
_geom_bond_site_symmetry_2
F1 C7 1_555 1_555
O1 N1 1_555 1_555
O2 N1 1_555 1_555
O3 C8 1_555 1_555
O4 C8 1_555 1_555
N1 C2 1_555 1_555
C1 C2 1_555 1_555
C2 C3 1_555 1_555
C3 C4 1_555 1_555
C4 C5 1_555 1_555
C5 C6 1_555 1_555
C6 C1 1_555 1_555
C7 C1 1_555 1_555
C8 C7 1_555 1_555
C9 O4 1_555 1_555
H1 C3 1_555 1_555
H2 C4 1_555 1_555
H3 C6 1_555 1_555
H4 C7 1_555 1_555
H5 C9 1_555 1_555
H6 C9 1_555 1_555
H7 C9 1_555 1_555
H8 C5 1_555 1_555

#END
