
#######################################################################
#
#                 Cambridge Crystallographic Data Centre
#                                CCDC 
#
#######################################################################
#
# If this CIF has been generated from an entry in the Cambridge 
# Structural Database, then it will include bibliographic, chemical, 
# crystal, experimental, refinement or atomic coordinate data resulting 
# from the CCDC's data processing and validation procedures.
#
#######################################################################

data_UGODAX
_chemical_formula_moiety         'C17 H17 O1 P1 Si1'
_chemical_name_systematic        
'5,10,10-trimethyl-5,10-dihydro[1]benzosilolo[3,2-b]phosphindole 5-oxide'
_symmetry_cell_setting           orthorhombic
_symmetry_space_group_name_H-M   'P c a 21'
_symmetry_Int_Tables_number      29
_space_group_name_Hall           'P 2c -2ac'
loop_
_symmetry_equiv_pos_site_id
_symmetry_equiv_pos_as_xyz
1 x,y,z
2 -x,-y,1/2+z
3 1/2-x,y,1/2+z
4 1/2+x,-y,z
_cell_length_a                   14.4427(8)
_cell_length_b                   6.5207(4)
_cell_length_c                   16.6673(8)
_cell_angle_alpha                90
_cell_angle_beta                 90
_cell_angle_gamma                90
_cell_volume                     1569.67
_cell_formula_units_Z            4
loop_
_atom_site_label
_atom_site_type_symbol
_atom_site_fract_x
_atom_site_fract_y
_atom_site_fract_z
P1 P 0.47308(6) 0.39342(15) 0.53160(5)
Si1 Si 0.48708(6) 0.06456(15) 0.75841(6)
O1 O 0.4078(2) 0.3481(6) 0.46545(19)
C1 C 0.5844(2) 0.2654(6) 0.5292(2)
C2 C 0.6525(3) 0.2749(8) 0.4719(3)
H1 H 0.6445 0.3547 0.4261
C3 C 0.7342(3) 0.1625(8) 0.4832(3)
H2 H 0.7813 0.1681 0.4452
C4 C 0.7444(3) 0.0434(7) 0.5512(3)
H3 H 0.7979 -0.0342 0.5577
C5 C 0.6766(3) 0.0375(7) 0.6097(3)
H4 H 0.6854 -0.0402 0.6559
C6 C 0.5954(2) 0.1479(6) 0.5992(2)
C7 C 0.5168(2) 0.1637(5) 0.6552(2)
C8 C 0.4470(3) 0.2869(6) 0.6301(2)
C9 C 0.3677(2) 0.3188(5) 0.6837(2)
C10 C 0.3760(2) 0.2165(5) 0.7583(2)
C11 C 0.3078(3) 0.2403(7) 0.8145(3)
H5 H 0.3126 0.1728 0.8635
C12 C 0.2310(3) 0.3651(7) 0.7992(3)
H6 H 0.1856 0.3826 0.8382
C13 C 0.2232(3) 0.4613(7) 0.7266(3)
H7 H 0.1718 0.5430 0.7164
C14 C 0.2907(3) 0.4389(6) 0.6681(3)
H8 H 0.2843 0.5040 0.6187
C15 C 0.4975(3) 0.6640(7) 0.5451(3)
H9 H 0.4403 0.7381 0.5501
H10 H 0.5312 0.7144 0.4995
H11 H 0.5338 0.6829 0.5927
C16 C 0.4687(3) -0.2170(6) 0.7619(3)
H12 H 0.5243 -0.2858 0.7456
H13 H 0.4191 -0.2537 0.7264
H14 H 0.4531 -0.2572 0.8157
C17 C 0.5723(3) 0.1400(7) 0.8359(3)
H15 H 0.5721 0.2865 0.8418
H16 H 0.6329 0.0951 0.8201
H17 H 0.5560 0.0776 0.8862
loop_
_geom_bond_atom_site_label_1
_geom_bond_atom_site_label_2
_geom_bond_site_symmetry_1
_geom_bond_site_symmetry_2
P1 O1 1_555 1_555
Si1 C7 1_555 1_555
C1 P1 1_555 1_555
C2 C1 1_555 1_555
H1 C2 1_555 1_555
C3 C2 1_555 1_555
H2 C3 1_555 1_555
C4 C3 1_555 1_555
H3 C4 1_555 1_555
C5 C4 1_555 1_555
H4 C5 1_555 1_555
C6 C1 1_555 1_555
C7 C6 1_555 1_555
C8 P1 1_555 1_555
C9 C8 1_555 1_555
C10 Si1 1_555 1_555
C11 C10 1_555 1_555
H5 C11 1_555 1_555
C12 C11 1_555 1_555
H6 C12 1_555 1_555
C13 C12 1_555 1_555
H7 C13 1_555 1_555
C14 C9 1_555 1_555
H8 C14 1_555 1_555
C15 P1 1_555 1_555
H9 C15 1_555 1_555
H10 C15 1_555 1_555
H11 C15 1_555 1_555
C16 Si1 1_555 1_555
H12 C16 1_555 1_555
H13 C16 1_555 1_555
H14 C16 1_555 1_555
C17 Si1 1_555 1_555
H15 C17 1_555 1_555
H16 C17 1_555 1_555
H17 C17 1_555 1_555
C5 C6 1_555 1_555
C7 C8 1_555 1_555
C9 C10 1_555 1_555
C13 C14 1_555 1_555

#END
