
#######################################################################
#
#                 Cambridge Crystallographic Data Centre
#                                CCDC 
#
#######################################################################
#
# If this CIF has been generated from an entry in the Cambridge 
# Structural Database, then it will include bibliographic, chemical, 
# crystal, experimental, refinement or atomic coordinate data resulting 
# from the CCDC's data processing and validation procedures.
#
#######################################################################

data_UGOWOD
_chemical_formula_moiety         'C20 H31 N1 O4'
_chemical_name_systematic        
'ent-7\a-hydroxy-16-E-hydroxyiminobeyeran-19-oic acid'
_chemical_properties_biological  'biological activity'
_symmetry_cell_setting           monoclinic
_symmetry_space_group_name_H-M   'P 21'
_symmetry_Int_Tables_number      4
_space_group_name_Hall           'P 2yb'
loop_
_symmetry_equiv_pos_site_id
_symmetry_equiv_pos_as_xyz
1 x,y,z
2 -x,1/2+y,-z
_cell_length_a                   8.64800(10)
_cell_length_b                   8.89210(10)
_cell_length_c                   11.69010(10)
_cell_angle_alpha                90
_cell_angle_beta                 92.6000(10)
_cell_angle_gamma                90
_cell_volume                     898.03
_chemical_melting_point          '214-216 deg.C'
_cell_formula_units_Z            2
loop_
_atom_site_label
_atom_site_type_symbol
_atom_site_fract_x
_atom_site_fract_y
_atom_site_fract_z
O1 O -0.01285(13) -0.18790(11) 0.72521(10)
O2 O 0.03314(12) -0.06446(12) 0.88841(8)
O3 O 0.01707(12) 0.53171(11) 0.81028(10)
O4 O 0.69873(13) 0.37190(14) 0.98744(9)
N1 N 0.68835(13) 0.48309(14) 0.90058(10)
C1 C 0.16287(18) 0.16936(16) 0.55497(11)
H1 H 0.1141 0.2570 0.5196
H2 H 0.2594 0.1522 0.5179
C2 C 0.0582(2) 0.03441(17) 0.53314(12)
H3 H 0.1116 -0.0563 0.5589
H4 H 0.0342 0.0249 0.4516
C3 C -0.09072(17) 0.05111(16) 0.59575(12)
H5 H -0.1527 -0.0389 0.5835
H6 H -0.1490 0.1352 0.5632
C4 C -0.06434(14) 0.07650(13) 0.72451(11)
C5 C 0.04395(14) 0.21537(13) 0.74275(11)
H7 H -0.0114 0.2975 0.7027
C6 C 0.06832(14) 0.27195(14) 0.86575(10)
H8 H -0.0289 0.2681 0.9039
H9 H 0.1419 0.2075 0.9073
C7 C 0.12867(15) 0.43266(14) 0.86629(11)
H10 H 0.1458 0.4653 0.9459
C8 C 0.28116(14) 0.44433(14) 0.80636(10)
C9 C 0.27544(14) 0.36298(14) 0.68874(11)
H11 H 0.2098 0.4263 0.6380
C10 C 0.19973(15) 0.20387(14) 0.68259(10)
C11 C 0.43626(16) 0.36698(17) 0.63798(12)
H12 H 0.5025 0.2945 0.6783
H13 H 0.4264 0.3362 0.5584
C12 C 0.51367(16) 0.52049(17) 0.64472(13)
H14 H 0.4660 0.5854 0.5865
H15 H 0.6220 0.5094 0.6284
C13 C 0.50173(15) 0.59552(16) 0.76202(12)
C14 C 0.32900(15) 0.60861(15) 0.78608(12)
H16 H 0.2708 0.6516 0.7211
H17 H 0.3136 0.6699 0.8533
C15 C 0.41720(15) 0.39038(16) 0.88699(11)
H18 H 0.3941 0.4057 0.9666
H19 H 0.4384 0.2846 0.8750
C16 C 0.55257(15) 0.48567(16) 0.85497(12)
C17 C 0.58718(19) 0.74491(18) 0.76670(17)
H20 H 0.6939 0.7289 0.7510
H21 H 0.5804 0.7882 0.8415
H22 H 0.5412 0.8120 0.7105
C18 C -0.22264(15) 0.11097(17) 0.77497(14)
H23 H -0.2898 0.0257 0.7640
H24 H -0.2682 0.1969 0.7369
H25 H -0.2082 0.1316 0.8553
C19 C -0.00684(14) -0.06429(15) 0.78780(11)
C20 C 0.30436(16) 0.07851(15) 0.73279(13)
H26 H 0.2511 -0.0160 0.7264
H27 H 0.3298 0.0994 0.8120
H28 H 0.3976 0.0737 0.6914
H29 H 0.782(2) 0.386(2) 1.0238(16)
H30 H 0.002(2) -0.256(2) 0.7662(14)
H31 H -0.067(2) 0.515(2) 0.8418(16)
loop_
_geom_bond_atom_site_label_1
_geom_bond_atom_site_label_2
_geom_bond_site_symmetry_1
_geom_bond_site_symmetry_2
O1 C19 1_555 1_555
O2 C19 1_555 1_555
O3 C7 1_555 1_555
O4 N1 1_555 1_555
N1 C16 1_555 1_555
C1 H1 1_555 1_555
H2 C1 1_555 1_555
C2 C1 1_555 1_555
H3 C2 1_555 1_555
H4 C2 1_555 1_555
C3 C2 1_555 1_555
H5 C3 1_555 1_555
H6 C3 1_555 1_555
C4 C3 1_555 1_555
C5 C4 1_555 1_555
H7 C5 1_555 1_555
C6 C5 1_555 1_555
H8 C6 1_555 1_555
H9 C6 1_555 1_555
C7 C6 1_555 1_555
H10 C7 1_555 1_555
C8 C7 1_555 1_555
C9 C8 1_555 1_555
H11 C9 1_555 1_555
C10 C1 1_555 1_555
C11 C9 1_555 1_555
H12 C11 1_555 1_555
H13 C11 1_555 1_555
C12 C11 1_555 1_555
H14 C12 1_555 1_555
H15 C12 1_555 1_555
C13 C12 1_555 1_555
C14 C8 1_555 1_555
H16 C14 1_555 1_555
H17 C14 1_555 1_555
C15 C8 1_555 1_555
H18 C15 1_555 1_555
H19 C15 1_555 1_555
C16 C13 1_555 1_555
C17 C13 1_555 1_555
H20 C17 1_555 1_555
H21 C17 1_555 1_555
H22 C17 1_555 1_555
C18 C4 1_555 1_555
H23 C18 1_555 1_555
H24 C18 1_555 1_555
H25 C18 1_555 1_555
C19 C4 1_555 1_555
C20 C10 1_555 1_555
H26 C20 1_555 1_555
H27 C20 1_555 1_555
H28 C20 1_555 1_555
H29 O4 1_555 1_555
H30 O1 1_555 1_555
H31 O3 1_555 1_555
C5 C10 1_555 1_555
C9 C10 1_555 1_555
C13 C14 1_555 1_555
C15 C16 1_555 1_555

#END
