
#######################################################################
#
#                 Cambridge Crystallographic Data Centre
#                                CCDC 
#
#######################################################################
#
# If this CIF has been generated from an entry in the Cambridge 
# Structural Database, then it will include bibliographic, chemical, 
# crystal, experimental, refinement or atomic coordinate data resulting 
# from the CCDC's data processing and validation procedures.
#
#######################################################################

data_UGOXIY01
_chemical_formula_moiety         'C28 H20 F12 N2 O4'
_chemical_name_systematic        
'Diethyl 2,5-bis((3,5-bis(trifluoromethyl)phenyl)amino)terephthalate'
_symmetry_cell_setting           triclinic
_symmetry_space_group_name_H-M   'P -1'
_symmetry_Int_Tables_number      2
_space_group_name_Hall           '-P 1'
loop_
_symmetry_equiv_pos_site_id
_symmetry_equiv_pos_as_xyz
1 x,y,z
2 -x,-y,-z
_cell_length_a                   4.5738(9)
_cell_length_b                   15.511(3)
_cell_length_c                   20.190(4)
_cell_angle_alpha                93.12(3)
_cell_angle_beta                 94.85(3)
_cell_angle_gamma                92.38(3)
_cell_volume                     1423.59
_exptl_crystal_colour            yellow
_exptl_crystal_description       block
_cell_formula_units_Z            2
loop_
_atom_site_label
_atom_site_type_symbol
_atom_site_fract_x
_atom_site_fract_y
_atom_site_fract_z
C1 C 0.1121(9) 0.4919(2) 0.2268(2)
H1 H 0.0577 0.4335 0.2266
C2 C 0.0307(8) 0.5476(3) 0.2757(2)
C3 C 0.0988(9) 0.6354(3) 0.2771(2)
H2 H 0.0368 0.6730 0.3101
C4 C 0.2615(9) 0.6652(3) 0.2281(2)
C5 C 0.3546(9) 0.6105(3) 0.1794(2)
H3 H 0.4700 0.6322 0.1478
C6 C 0.2771(8) 0.5222(2) 0.17692(19)
C7 C 0.3168(9) 0.5499(2) 0.0336(2)
H4 H 0.1907 0.5843 0.0560
C8 C 0.4382(8) 0.4820(2) 0.0659(2)
C9 C 0.6278(9) 0.4303(2) 0.0302(2)
C10 C 0.7581(9) 0.3533(3) 0.0591(2)
C11 C 1.0449(12) 0.2315(3) 0.0364(2)
H5 H 0.8897 0.1922 0.0482
H6 H 1.1902 0.2410 0.0742
C12 C 1.1831(15) 0.1957(4) -0.0236(3)
H7 H 1.0368 0.1876 -0.0606
H8 H 1.2643 0.1412 -0.0140
H9 H 1.3364 0.2353 -0.0343
C13 C 0.3467(13) 0.7591(3) 0.2287(3)
C14 C -0.1254(10) 0.5121(3) 0.3317(2)
F1 F 0.4954(10) 0.7809(2) 0.1791(2)
F2 F 0.1327(9) 0.8098(2) 0.2341(3)
F3 F 0.5359(10) 0.7833(2) 0.2822(2)
F4 F -0.2955(7) 0.5688(2) 0.35859(17)
F5 F 0.0605(7) 0.4881(2) 0.37995(15)
F6 F -0.3006(7) 0.4431(2) 0.31222(16)
N1 N 0.3691(9) 0.4630(2) 0.12925(18)
H19 H 0.3843 0.4104 0.1401
O1 O 0.7168(8) 0.3266(2) 0.11242(16)
O2 O 0.9258(7) 0.31334(19) 0.01685(15)
C1A C 0.8879(9) 0.5081(2) -0.2268(2)
H1A H 0.9423 0.5665 -0.2266
C2A C 0.9693(8) 0.4524(3) -0.2757(2)
C3A C 0.9012(9) 0.3646(3) -0.2771(2)
H2A H 0.9632 0.3270 -0.3101
C4A C 0.7385(9) 0.3348(3) -0.2281(2)
C5A C 0.6454(9) 0.3895(3) -0.1794(2)
H3A H 0.5300 0.3678 -0.1478
C6A C 0.7229(8) 0.4778(2) -0.17692(19)
C7A C 0.6832(9) 0.4501(2) -0.0336(2)
H4A H 0.8093 0.4157 -0.0560
C8A C 0.5618(8) 0.5180(2) -0.0659(2)
C9A C 0.3722(9) 0.5697(2) -0.0302(2)
C10A C 0.2419(9) 0.6467(3) -0.0591(2)
C11A C -0.0449(12) 0.7685(3) -0.0364(2)
H5A H 0.1103 0.8078 -0.0482
H6A H -0.1902 0.7590 -0.0742
C12A C -0.1831(15) 0.8043(4) 0.0236(3)
H7A H -0.0368 0.8124 0.0606
H8A H -0.2643 0.8588 0.0140
H9A H -0.3364 0.7647 0.0343
C13A C 0.6533(13) 0.2409(3) -0.2287(3)
C14A C 1.1254(10) 0.4879(3) -0.3317(2)
F1A F 0.5046(10) 0.2191(2) -0.1791(2)
F2A F 0.8673(9) 0.1902(2) -0.2341(3)
F3A F 0.4641(10) 0.2167(2) -0.2822(2)
F4A F 1.2955(7) 0.4312(2) -0.35859(17)
F5A F 0.9395(7) 0.5119(2) -0.37995(15)
F6A F 1.3006(7) 0.5569(2) -0.31222(16)
N1A N 0.6309(9) 0.5370(2) -0.12925(18)
H19A H 0.6157 0.5896 -0.1401
O1A O 0.2832(8) 0.6734(2) -0.11242(16)
O2A O 0.0742(7) 0.68666(19) -0.01685(15)
C15 C 0.0857(11) 1.0966(3) 0.3217(2)
H10 H 0.1983 1.1103 0.3617
C16 C 0.0849(10) 1.1531(3) 0.2712(2)
C17 C -0.0766(10) 1.1333(3) 0.2114(2)
H11 H -0.0799 1.1721 0.1778
C18 C -0.2338(10) 1.0552(3) 0.2020(2)
C19 C -0.2380(11) 0.9995(3) 0.2519(2)
H12 H -0.3477 0.9475 0.2448
C20 C -0.0817(12) 1.0192(3) 0.3130(2)
C21 C -0.1153(12) 1.0589(3) 0.4585(2)
H13 H -0.1953 1.0992 0.4306
C22 C -0.0417(13) 0.9802(3) 0.4304(2)
C23 C 0.0755(12) 0.9193(3) 0.4737(2)
C24 C 0.1408(14) 0.8319(3) 0.4479(3)
C25 C 0.383(2) 0.7022(4) 0.4681(4)
H14 H 0.2059 0.6701 0.4496
H15 H 0.5199 0.7042 0.4339
C26 C 0.508(3) 0.6618(6) 0.5228(4)
H16 H 0.6580 0.6997 0.5463
H17 H 0.5932 0.6094 0.5080
H18 H 0.3591 0.6485 0.5519
C27 C -0.3989(13) 1.0328(4) 0.1357(3)
C28 C 0.2581(11) 1.2373(3) 0.2831(3)
F7 F -0.5845(11) 0.9664(3) 0.1363(2)
F8 F -0.2271(10) 1.0173(3) 0.08876(19)
F9 F -0.5563(9) 1.0962(2) 0.11427(18)
F10 F 0.3462(10) 1.2681(3) 0.2280(2)
F11 F 0.1104(8) 1.2972(2) 0.3112(2)
F12 F 0.5005(7) 1.2307(3) 0.3234(2)
N2 N -0.0909(14) 0.9605(2) 0.3623(2)
H20 H -0.1306 0.9072 0.3496
O3 O 0.0457(12) 0.7998(2) 0.39388(19)
O4 O 0.3133(10) 0.7911(2) 0.49027(19)
C15A C -0.0857(11) 0.9034(3) 0.6783(2)
H10A H -0.1983 0.8897 0.6383
C16A C -0.0849(10) 0.8469(3) 0.7288(2)
C17A C 0.0766(10) 0.8667(3) 0.7886(2)
H11A H 0.0799 0.8279 0.8222
C18A C 0.2338(10) 0.9448(3) 0.7980(2)
C19A C 0.2380(11) 1.0005(3) 0.7481(2)
H12A H 0.3477 1.0525 0.7552
C20A C 0.0817(12) 0.9808(3) 0.6870(2)
C21A C 0.1153(12) 0.9411(3) 0.5415(2)
H13A H 0.1953 0.9008 0.5694
C22A C 0.0417(13) 1.0198(3) 0.5696(2)
C23A C -0.0755(12) 1.0807(3) 0.5263(2)
C24A C -0.1408(14) 1.1681(3) 0.5521(3)
C25A C -0.383(2) 1.2978(4) 0.5319(4)
H14A H -0.2059 1.3299 0.5504
H15A H -0.5199 1.2958 0.5661
C26A C -0.508(3) 1.3382(6) 0.4772(4)
H16A H -0.6580 1.3003 0.4537
H17A H -0.5932 1.3906 0.4920
H18A H -0.3591 1.3515 0.4481
C27A C 0.3989(13) 0.9672(4) 0.8643(3)
C28A C -0.2581(11) 0.7627(3) 0.7169(3)
F7A F 0.5845(11) 1.0336(3) 0.8637(2)
F8A F 0.2271(10) 0.9827(3) 0.91124(19)
F9A F 0.5563(9) 0.9038(2) 0.88573(18)
F10A F -0.3462(10) 0.7319(3) 0.7720(2)
F11A F -0.1104(8) 0.7028(2) 0.6888(2)
F12A F -0.5005(7) 0.7693(3) 0.6766(2)
N2A N 0.0909(14) 1.0395(2) 0.6377(2)
H20A H 0.1306 1.0928 0.6504
O3A O -0.0457(12) 1.2002(2) 0.60612(19)
O4A O -0.3133(10) 1.2089(2) 0.50973(19)
loop_
_geom_bond_atom_site_label_1
_geom_bond_atom_site_label_2
_geom_bond_site_symmetry_1
_geom_bond_site_symmetry_2
C1 H1 1_555 1_555
C2 C1 1_555 1_555
C3 C2 1_555 1_555
H2 C3 1_555 1_555
C4 C3 1_555 1_555
C5 C4 1_555 1_555
H3 C5 1_555 1_555
C6 C1 1_555 1_555
C7 H4 1_555 1_555
C8 C7 1_555 1_555
C9 C8 1_555 1_555
C10 C9 1_555 1_555
C11 H5 1_555 1_555
H6 C11 1_555 1_555
C12 C11 1_555 1_555
H7 C12 1_555 1_555
H8 C12 1_555 1_555
H9 C12 1_555 1_555
C13 C4 1_555 1_555
C14 C2 1_555 1_555
C15 H10 1_555 1_555
C16 C15 1_555 1_555
C17 C16 1_555 1_555
H11 C17 1_555 1_555
C18 C17 1_555 1_555
C19 C18 1_555 1_555
H12 C19 1_555 1_555
C20 C15 1_555 1_555
C21 H13 1_555 1_555
C22 C21 1_555 1_555
C23 C22 1_555 1_555
C24 C23 1_555 1_555
C25 H14 1_555 1_555
H15 C25 1_555 1_555
C26 C25 1_555 1_555
H16 C26 1_555 1_555
H17 C26 1_555 1_555
H18 C26 1_555 1_555
C27 C18 1_555 1_555
C28 C16 1_555 1_555
F1 C13 1_555 1_555
F2 C13 1_555 1_555
F3 C13 1_555 1_555
F4 C14 1_555 1_555
F5 C14 1_555 1_555
F6 C14 1_555 1_555
F7 C27 1_555 1_555
F8 C27 1_555 1_555
F9 C27 1_555 1_555
F10 C28 1_555 1_555
F11 C28 1_555 1_555
F12 C28 1_555 1_555
N1 C6 1_555 1_555
H19 N1 1_555 1_555
N2 C20 1_555 1_555
H20 N2 1_555 1_555
O1 C10 1_555 1_555
O2 C10 1_555 1_555
O3 C24 1_555 1_555
O4 C24 1_555 1_555
C1A H1A 1_555 1_555
C2A C1A 1_555 1_555
C3A C2A 1_555 1_555
H2A C3A 1_555 1_555
C4A C3A 1_555 1_555
C5A C4A 1_555 1_555
H3A C5A 1_555 1_555
C6A C1A 1_555 1_555
C7A C9 1_555 1_555
H4A C7A 1_555 1_555
C8A C7A 1_555 1_555
C9A C7 1_555 1_555
C10A C9A 1_555 1_555
C11A H5A 1_555 1_555
H6A C11A 1_555 1_555
C12A C11A 1_555 1_555
H7A C12A 1_555 1_555
H8A C12A 1_555 1_555
H9A C12A 1_555 1_555
C13A C4A 1_555 1_555
C14A C2A 1_555 1_555
C15A H10A 1_555 1_555
C16A C15A 1_555 1_555
C17A C16A 1_555 1_555
H11A C17A 1_555 1_555
C18A C17A 1_555 1_555
C19A C18A 1_555 1_555
H12A C19A 1_555 1_555
C20A C15A 1_555 1_555
C21A C23 1_555 1_555
H13A C21A 1_555 1_555
C22A C21A 1_555 1_555
C23A C21 1_555 1_555
C24A C23A 1_555 1_555
C25A H14A 1_555 1_555
H15A C25A 1_555 1_555
C26A C25A 1_555 1_555
H16A C26A 1_555 1_555
H17A C26A 1_555 1_555
H18A C26A 1_555 1_555
C27A C18A 1_555 1_555
C28A C16A 1_555 1_555
F1A C13A 1_555 1_555
F2A C13A 1_555 1_555
F3A C13A 1_555 1_555
F4A C14A 1_555 1_555
F5A C14A 1_555 1_555
F6A C14A 1_555 1_555
F7A C27A 1_555 1_555
F8A C27A 1_555 1_555
F9A C27A 1_555 1_555
F10A C28A 1_555 1_555
F11A C28A 1_555 1_555
F12A C28A 1_555 1_555
N1A C6A 1_555 1_555
H19A N1A 1_555 1_555
N2A C20A 1_555 1_555
H20A N2A 1_555 1_555
O1A C10A 1_555 1_555
O2A C10A 1_555 1_555
O3A C24A 1_555 1_555
O4A C24A 1_555 1_555
C5 C6 1_555 1_555
C8 N1 1_555 1_555
C11 O2 1_555 1_555
C19 C20 1_555 1_555
C22 N2 1_555 1_555
C25 O4 1_555 1_555
C5A C6A 1_555 1_555
C8A C9A 1_555 1_555
C8A N1A 1_555 1_555
C11A O2A 1_555 1_555
C19A C20A 1_555 1_555
C22A C23A 1_555 1_555
C22A N2A 1_555 1_555
C25A O4A 1_555 1_555

#END
