
#######################################################################
#
#                 Cambridge Crystallographic Data Centre
#                                CCDC 
#
#######################################################################
#
# If this CIF has been generated from an entry in the Cambridge 
# Structural Database, then it will include bibliographic, chemical, 
# crystal, experimental, refinement or atomic coordinate data resulting 
# from the CCDC's data processing and validation procedures.
#
#######################################################################

data_UGOXEU01
_chemical_formula_moiety         'C26 H22 F6 N2 O4'
_chemical_name_systematic        
'Diethyl 2,5-bis((4-(trifluoromethyl)phenyl)amino)terephthalate'
_symmetry_cell_setting           orthorhombic
_symmetry_space_group_name_H-M   'P b c a'
_symmetry_Int_Tables_number      61
_space_group_name_Hall           '-P 2ac 2ab'
loop_
_symmetry_equiv_pos_site_id
_symmetry_equiv_pos_as_xyz
1 x,y,z
2 1/2-x,-y,1/2+z
3 -x,1/2+y,1/2-z
4 1/2+x,1/2-y,-z
5 -x,-y,-z
6 1/2+x,y,1/2-z
7 x,1/2-y,1/2+z
8 1/2-x,1/2+y,z
_cell_length_a                   10.322(2)
_cell_length_b                   10.832(2)
_cell_length_c                   22.146(4)
_cell_angle_alpha                90
_cell_angle_beta                 90
_cell_angle_gamma                90
_cell_volume                     2476.1
_exptl_crystal_colour            yellow
_exptl_crystal_description       block
_cell_formula_units_Z            4
loop_
_atom_site_label
_atom_site_type_symbol
_atom_site_fract_x
_atom_site_fract_y
_atom_site_fract_z
C1 C 0.0651(2) 0.7293(2) 0.64769(10)
H1 H 0.0081 0.6630 0.6446
C2 C 0.0737(3) 0.7949(3) 0.70117(11)
H2 H 0.0222 0.7720 0.7338
C3 C 0.1565(3) 0.8928(2) 0.70690(11)
C4 C 0.2340(3) 0.9252(2) 0.65840(12)
H3 H 0.2915 0.9910 0.6619
C5 C 0.2264(2) 0.8609(2) 0.60552(11)
H4 H 0.2792 0.8837 0.5734
C6 C 0.1414(2) 0.7621(2) 0.59850(10)
C7 C 0.0723(2) 0.6022(2) 0.52256(9)
C8 C 0.1271(2) 0.5187(2) 0.48071(9)
C9 C 0.0553(2) 0.4190(2) 0.45965(10)
H5 H 0.0939 0.3643 0.4327
C10 C 0.2620(2) 0.5346(2) 0.45888(10)
C11 C 0.4399(3) 0.4406(3) 0.40940(14)
H6 H 0.4473 0.5078 0.3806
H7 H 0.5009 0.4549 0.4420
C12 C 0.4673(4) 0.3231(4) 0.37999(19)
H8 H 0.4647 0.2580 0.4094
H9 H 0.5518 0.3261 0.3619
H10 H 0.4036 0.3079 0.3493
C13 C 0.1663(4) 0.9628(4) 0.76423(15)
N1 N 0.1438(2) 0.70148(19) 0.54323(9)
H11 H 0.1988 0.7304 0.5177
O1 O 0.30805(16) 0.43373(16) 0.43302(8)
O2 O 0.32514(19) 0.6276(2) 0.46408(10)
F1 F 0.0645(3) 0.9502(3) 0.80044(13)
F2 F 0.1829(5) 1.0812(3) 0.75800(13)
F3 F 0.2598(5) 0.9176(6) 0.79986(18)
C1D C -0.0651(2) 0.2707(2) 0.35231(10)
H1D H -0.0081 0.3370 0.3554
C2D C -0.0737(3) 0.2051(3) 0.29883(11)
H2D H -0.0222 0.2280 0.2662
C3D C -0.1565(3) 0.1072(2) 0.29310(11)
C4D C -0.2340(3) 0.0748(2) 0.34160(12)
H3D H -0.2915 0.0090 0.3381
C5D C -0.2264(2) 0.1391(2) 0.39448(11)
H4D H -0.2792 0.1163 0.4266
C6D C -0.1414(2) 0.2379(2) 0.40150(10)
C7D C -0.0723(2) 0.3978(2) 0.47744(9)
C8D C -0.1271(2) 0.4813(2) 0.51929(9)
C9D C -0.0553(2) 0.5810(2) 0.54035(10)
H5D H -0.0939 0.6357 0.5673
C10D C -0.2620(2) 0.4654(2) 0.54112(10)
C11D C -0.4399(3) 0.5594(3) 0.59060(14)
H6D H -0.4473 0.4922 0.6194
H7D H -0.5009 0.5451 0.5580
C12D C -0.4673(4) 0.6769(4) 0.62001(19)
H8D H -0.4647 0.7420 0.5906
H9D H -0.5518 0.6739 0.6381
H10D H -0.4036 0.6921 0.6507
C13D C -0.1663(4) 0.0372(4) 0.23577(15)
N1D N -0.1438(2) 0.29852(19) 0.45677(9)
H11D H -0.1988 0.2696 0.4823
O1D O -0.30805(16) 0.56627(16) 0.56698(8)
O2D O -0.32514(19) 0.3724(2) 0.53592(10)
F1D F -0.0645(3) 0.0498(3) 0.19956(13)
F2D F -0.1829(5) -0.0812(3) 0.24200(13)
F3D F -0.2598(5) 0.0824(6) 0.20014(18)
F4? F 0.179(2) 0.9027(16) 0.8122(6)
F5? F 0.2817(14) 1.0212(15) 0.7682(6)
F6? F 0.0597(18) 1.0319(19) 0.7683(8)
loop_
_geom_bond_atom_site_label_1
_geom_bond_atom_site_label_2
_geom_bond_site_symmetry_1
_geom_bond_site_symmetry_2
C1 H1 1_555 1_555
C2 C1 1_555 1_555
H2 C2 1_555 1_555
C3 C2 1_555 1_555
C4 C3 1_555 1_555
H3 C4 1_555 1_555
C5 C4 1_555 1_555
H4 C5 1_555 1_555
C6 C1 1_555 1_555
C7 C8 1_555 1_555
C8 C9 1_555 1_555
C9 H5 1_555 1_555
C10 C8 1_555 1_555
C11 H6 1_555 1_555
H7 C11 1_555 1_555
C12 C11 1_555 1_555
H8 C12 1_555 1_555
H9 C12 1_555 1_555
H10 C12 1_555 1_555
C13 C3 1_555 1_555
N1 C6 1_555 1_555
H11 N1 1_555 1_555
O1 C10 1_555 1_555
O2 C10 1_555 1_555
F1 C13 1_555 1_555
F2 C13 1_555 1_555
F3 C13 1_555 1_555
C1D H1D 1_555 1_555
C2D C1D 1_555 1_555
H2D C2D 1_555 1_555
C3D C2D 1_555 1_555
C4D C3D 1_555 1_555
H3D C4D 1_555 1_555
C5D C4D 1_555 1_555
H4D C5D 1_555 1_555
C6D C1D 1_555 1_555
C7D C9 1_555 1_555
C8D C7D 1_555 1_555
C9D C7 1_555 1_555
H5D C9D 1_555 1_555
C10D C8D 1_555 1_555
C11D H6D 1_555 1_555
H7D C11D 1_555 1_555
C12D C11D 1_555 1_555
H8D C12D 1_555 1_555
H9D C12D 1_555 1_555
H10D C12D 1_555 1_555
C13D C3D 1_555 1_555
N1D C6D 1_555 1_555
H11D N1D 1_555 1_555
O1D C10D 1_555 1_555
O2D C10D 1_555 1_555
F1D C13D 1_555 1_555
F2D C13D 1_555 1_555
F3D C13D 1_555 1_555
C5 C6 1_555 1_555
C7 N1 1_555 1_555
C11 O1 1_555 1_555
C5D C6D 1_555 1_555
C7D N1D 1_555 1_555
C8D C9D 1_555 1_555
C11D O1D 1_555 1_555

#END
