
#######################################################################
#
#                 Cambridge Crystallographic Data Centre
#                                CCDC 
#
#######################################################################
#
# If this CIF has been generated from an entry in the Cambridge 
# Structural Database, then it will include bibliographic, chemical, 
# crystal, experimental, refinement or atomic coordinate data resulting 
# from the CCDC's data processing and validation procedures.
#
#######################################################################

data_UGOXIZ01
_chemical_formula_moiety         'C12 H11 Cl1 N2 O1'
_chemical_name_systematic        
N-(4-chlorophenyl)-5-methyl-6-oxa-4-azaspiro[2.4]hept-4-en-7-imine
_symmetry_cell_setting           monoclinic
_symmetry_space_group_name_H-M   'C 2/c'
_symmetry_Int_Tables_number      15
_space_group_name_Hall           '-C 2yn'
loop_
_symmetry_equiv_pos_site_id
_symmetry_equiv_pos_as_xyz
1 x,y,z
2 -x,y,1/2-z
3 1/2+x,1/2+y,z
4 1/2-x,1/2+y,1/2-z
5 -x,-y,-z
6 x,-y,1/2+z
7 1/2-x,1/2-y,-z
8 1/2+x,1/2-y,1/2+z
_cell_length_a                   23.827(6)
_cell_length_b                   7.4104(19)
_cell_length_c                   14.707(4)
_cell_angle_alpha                90
_cell_angle_beta                 116.100(5)
_cell_angle_gamma                90
_cell_volume                     2331.98
_exptl_crystal_colour            colorless
_exptl_crystal_description       block
_cell_formula_units_Z            8
loop_
_atom_site_label
_atom_site_type_symbol
_atom_site_fract_x
_atom_site_fract_y
_atom_site_fract_z
Cl1 Cl 0.29960(7) -0.2743(3) 0.23619(12)
O1 O 0.59010(10) 0.1039(4) 0.43724(17)
N1 N 0.49742(15) 0.2805(4) 0.3719(2)
N2 N 0.66308(16) 0.3249(5) 0.4895(3)
C1 C 0.46674(18) -0.0440(6) 0.3654(3)
H1 H 0.5077 -0.0816 0.4038
C2 C 0.55580(19) 0.2626(5) 0.4137(3)
C3 C 0.39281(19) 0.1878(7) 0.2824(3)
H2 H 0.3836 0.3083 0.2643
C4 C 0.45423(17) 0.1375(6) 0.3412(3)
C5 C 0.4191(2) -0.1685(7) 0.3330(3)
H3 H 0.4278 -0.2896 0.3500
C6 C 0.69774(18) 0.0067(6) 0.5152(3)
H4 H 0.7393 0.0534 0.5382
H5 H 0.6888 -0.0743 0.4596
H6 H 0.6944 -0.0569 0.5695
C7 C 0.65275(18) 0.1568(6) 0.4819(3)
C8 C 0.3451(2) 0.0631(9) 0.2502(3)
H7 H 0.3040 0.0994 0.2116
C9 C 0.60287(18) 0.4088(6) 0.4477(3)
C10 C 0.3586(2) -0.1128(9) 0.2753(3)
C11 C 0.5926(2) 0.5816(6) 0.4924(4)
H8 H 0.5530 0.5963 0.4957
H9 H 0.6283 0.6348 0.5484
C12 C 0.5918(2) 0.5849(6) 0.3908(4)
H10 H 0.6270 0.6401 0.3851
H11 H 0.5518 0.6016 0.3324
loop_
_geom_bond_atom_site_label_1
_geom_bond_atom_site_label_2
_geom_bond_site_symmetry_1
_geom_bond_site_symmetry_2
Cl1 C10 1_555 1_555
O1 C2 1_555 1_555
N1 C2 1_555 1_555
N2 C7 1_555 1_555
C1 H1 1_555 1_555
C2 C9 1_555 1_555
C3 H2 1_555 1_555
C4 N1 1_555 1_555
C5 C1 1_555 1_555
H3 C5 1_555 1_555
C6 H4 1_555 1_555
H5 C6 1_555 1_555
H6 C6 1_555 1_555
C7 O1 1_555 1_555
C8 C3 1_555 1_555
H7 C8 1_555 1_555
C9 N2 1_555 1_555
C10 C5 1_555 1_555
C11 C9 1_555 1_555
H8 C11 1_555 1_555
H9 C11 1_555 1_555
C12 C9 1_555 1_555
H10 C12 1_555 1_555
H11 C12 1_555 1_555
C1 C4 1_555 1_555
C3 C4 1_555 1_555
C6 C7 1_555 1_555
C8 C10 1_555 1_555
C11 C12 1_555 1_555

#END
