
#######################################################################
#
#                 Cambridge Crystallographic Data Centre
#                                CCDC 
#
#######################################################################
#
# If this CIF has been generated from an entry in the Cambridge 
# Structural Database, then it will include bibliographic, chemical, 
# crystal, experimental, refinement or atomic coordinate data resulting 
# from the CCDC's data processing and validation procedures.
#
#######################################################################

data_UGUBUV
_chemical_formula_moiety         'C16 H15 N1 O5 S1'
_chemical_name_systematic        
'Dimethyl 3-amino-5-(2-oxo-2-phenylethyl)thiophene-2,4-dicarboxylate'
_symmetry_cell_setting           monoclinic
_symmetry_space_group_name_H-M   'P 21/c'
_symmetry_Int_Tables_number      14
_space_group_name_Hall           '-P 2ybc'
loop_
_symmetry_equiv_pos_site_id
_symmetry_equiv_pos_as_xyz
1 x,y,z
2 -x,1/2+y,1/2-z
3 -x,-y,-z
4 x,1/2-y,1/2+z
_cell_length_a                   14.073(5)
_cell_length_b                   13.465(5)
_cell_length_c                   8.576(5)
_cell_angle_alpha                90
_cell_angle_beta                 93.433(5)
_cell_angle_gamma                90
_cell_volume                     1622.18
_exptl_crystal_colour            yellow
_exptl_crystal_description       needle
_cell_formula_units_Z            4
loop_
_atom_site_label
_atom_site_type_symbol
_atom_site_fract_x
_atom_site_fract_y
_atom_site_fract_z
S1 S 0.73465(3) 0.37481(3) 0.13362(5)
O1 O 0.79006(10) 0.57872(10) 0.20567(17)
O2 O 0.60947(9) 0.16338(10) 0.30779(15)
O3 O 0.83476(9) 0.06708(9) 0.26706(16)
N1 N 0.95444(12) 0.34192(16) 0.4277(2)
C1 C 0.63845(11) 0.12107(12) 0.19563(19)
O4 O 0.95177(10) 0.13951(11) 0.41331(19)
O5 O 0.91106(11) 0.54677(10) 0.38091(18)
C2 C 0.61160(11) 0.01540(12) 0.1616(2)
C3 C 0.76154(12) 0.25307(12) 0.16694(19)
C4 C 0.83971(11) 0.24072(12) 0.27063(19)
C5 C 0.70082(13) 0.17477(12) 0.0853(2)
H1 H 0.7400(5) 0.1288(6) 0.0392(7)
H2 H 0.6624(5) 0.2044(4) 0.0060(11)
C6 C 0.55702(16) -0.18063(16) 0.1089(3)
H3 H 0.5374(5) -0.2539(18) 0.0898(6)
C7 C 0.60351(16) -0.12966(15) -0.0007(3)
H4 H 0.6158(4) -0.1579(8) -0.085(2)
C8 C 0.63081(13) -0.03160(14) 0.0247(2)
H5 H 0.6618(7) 0.0019(8) -0.0500(17)
C9 C 0.88189(13) 0.14612(14) 0.3242(2)
C10 C 0.87861(11) 0.33431(13) 0.3248(2)
C11 C 0.82783(12) 0.41396(13) 0.2597(2)
C12 C 0.53664(18) -0.13414(16) 0.2440(3)
H6 H 0.5048(9) -0.1677(10) 0.317(2)
C13 C 0.56361(15) -0.03659(16) 0.2721(3)
H7 H 0.5490(4) -0.0047(8) 0.369(2)
C14 C 0.84853(13) 0.51697(14) 0.2896(2)
C15 C 0.81051(19) 0.68337(15) 0.2245(4)
H8 H 0.7673(11) 0.7193(6) 0.165(2)
H9 H 0.8702(11) 0.6962(4) 0.194(2)
H10 H 0.8069(14) 0.7006(5) 0.3267(18)
C16 C 0.87058(18) -0.02923(15) 0.3161(3)
H11 H 0.8305(9) -0.0780(7) 0.2751(18)
H12 H 0.8735(12) -0.0329(5) 0.4235(16)
H13 H 0.9305(10) -0.0382(6) 0.2809(18)
H14 H 0.9701(16) 0.4021(18) 0.461(3)
H15 H 0.9770(17) 0.2882(18) 0.472(3)
loop_
_geom_bond_atom_site_label_1
_geom_bond_atom_site_label_2
_geom_bond_site_symmetry_1
_geom_bond_site_symmetry_2
S1 C3 1_555 1_555
O1 C14 1_555 1_555
O2 C1 1_555 1_555
O3 C9 1_555 1_555
N1 C10 1_555 1_555
C1 C2 1_555 1_555
O4 C9 1_555 1_555
O5 C14 1_555 1_555
C2 C8 1_555 1_555
C3 C4 1_555 1_555
C4 C9 1_555 1_555
C5 C1 1_555 1_555
H1 C5 1_555 1_555
H2 C5 1_555 1_555
C6 H3 1_555 1_555
C7 C6 1_555 1_555
H4 C7 1_555 1_555
C8 C7 1_555 1_555
H5 C8 1_555 1_555
C10 C4 1_555 1_555
C11 S1 1_555 1_555
C12 C6 1_555 1_555
H6 C12 1_555 1_555
C13 C2 1_555 1_555
H7 C13 1_555 1_555
C14 C11 1_555 1_555
C15 O1 1_555 1_555
H8 C15 1_555 1_555
H9 C15 1_555 1_555
H10 C15 1_555 1_555
C16 O3 1_555 1_555
H11 C16 1_555 1_555
H12 C16 1_555 1_555
H13 C16 1_555 1_555
H14 N1 1_555 1_555
H15 N1 1_555 1_555
C3 C5 1_555 1_555
C10 C11 1_555 1_555
C12 C13 1_555 1_555

#END
