
#######################################################################
#
#                 Cambridge Crystallographic Data Centre
#                                CCDC 
#
#######################################################################
#
# If this CIF has been generated from an entry in the Cambridge 
# Structural Database, then it will include bibliographic, chemical, 
# crystal, experimental, refinement or atomic coordinate data resulting 
# from the CCDC's data processing and validation procedures.
#
#######################################################################

data_UGUHOT01
_chemical_compound_source        'leaves and stems of Toddalia aculeata'
_chemical_name_common            
'4-Hydroxy-1-methylpyrrolidin-2-carboxylic acid'
_chemical_formula_moiety         'C6 H11 N1 O3'
_chemical_name_systematic        4-Hydroxy-N-methylproline
_chemical_properties_biological  'strong antibacterial activity'
_symmetry_cell_setting           monoclinic
_symmetry_space_group_name_H-M   'P 21'
_symmetry_Int_Tables_number      4
_space_group_name_Hall           'P 2yb'
loop_
_symmetry_equiv_pos_site_id
_symmetry_equiv_pos_as_xyz
1 x,y,z
2 -x,1/2+y,-z
_cell_length_a                   6.7460(10)
_cell_length_b                   5.851(2)
_cell_length_c                   8.887(2)
_cell_angle_alpha                90
_cell_angle_beta                 100.830(10)
_cell_angle_gamma                90
_cell_volume                     344.53
_exptl_crystal_colour            colorless
_chemical_melting_point          '233-234 deg.C'
_cell_formula_units_Z            2
loop_
_atom_site_label
_atom_site_type_symbol
_atom_site_fract_x
_atom_site_fract_y
_atom_site_fract_z
O1 O 0.60183(17) 0.5849(2) 0.47522(12)
O2 O 0.65376(17) 0.7865(3) 0.27199(13)
O3 O 0.12697(17) 0.3111(3) -0.04752(11)
H1 H 0.1890 0.2904 -0.1173
C1 C 0.5617(2) 0.6440(3) 0.33732(15)
C2 C 0.38162(19) 0.5263(2) 0.23590(13)
H2 H 0.3072 0.6384 0.1651
C3 C 0.4371(2) 0.3229(3) 0.14523(15)
H3 H 0.5293 0.2207 0.2100
H4 H 0.4979 0.3723 0.0601
C4 C 0.2320(2) 0.2079(3) 0.08858(14)
H5 H 0.2477 0.0432 0.0747
C5 C 0.1119(2) 0.2565(3) 0.21504(16)
H6 H -0.0163 0.3274 0.1726
H7 H 0.0864 0.1159 0.2660
N1 N 0.24039(15) 0.4158(2) 0.32577(11)
H8 H 0.3161 0.3285 0.3998
C6 C 0.1237(2) 0.5791(3) 0.40327(18)
H9 H 0.0373 0.4957 0.4580
H10 H 0.0433 0.6753 0.3281
H11 H 0.2152 0.6717 0.4737
loop_
_geom_bond_atom_site_label_1
_geom_bond_atom_site_label_2
_geom_bond_site_symmetry_1
_geom_bond_site_symmetry_2
O1 C1 1_555 1_555
O2 C1 1_555 1_555
O3 H1 1_555 1_555
C1 C2 1_555 1_555
C2 H2 1_555 1_555
C3 C2 1_555 1_555
H3 C3 1_555 1_555
H4 C3 1_555 1_555
C4 O3 1_555 1_555
H5 C4 1_555 1_555
C5 C4 1_555 1_555
H6 C5 1_555 1_555
H7 C5 1_555 1_555
N1 C2 1_555 1_555
H8 N1 1_555 1_555
C6 N1 1_555 1_555
H9 C6 1_555 1_555
H10 C6 1_555 1_555
H11 C6 1_555 1_555
C3 C4 1_555 1_555
C5 N1 1_555 1_555

#END
