
#######################################################################
#
#                 Cambridge Crystallographic Data Centre
#                                CCDC 
#
#######################################################################
#
# If this CIF has been generated from an entry in the Cambridge 
# Structural Database, then it will include bibliographic, chemical, 
# crystal, experimental, refinement or atomic coordinate data resulting 
# from the CCDC's data processing and validation procedures.
#
#######################################################################

data_UGUJAH
_chemical_formula_moiety         'C16 H16 O2'
_chemical_name_systematic        
6,6-Dimethyl-2-phenyl-4,5,6,7-tetrahydrobenzofuran-4-one
_symmetry_cell_setting           monoclinic
_symmetry_space_group_name_H-M   'P 21/c'
_symmetry_Int_Tables_number      14
_space_group_name_Hall           '-P 2ybc'
loop_
_symmetry_equiv_pos_site_id
_symmetry_equiv_pos_as_xyz
1 x,y,z
2 x,1/2-y,1/2+z
3 -x,-y,-z
4 -x,1/2+y,1/2-z
_cell_length_a                   5.9261(3)
_cell_length_b                   11.1029(6)
_cell_length_c                   19.6978(11)
_cell_angle_alpha                90
_cell_angle_beta                 95.5210(10)
_cell_angle_gamma                90
_cell_volume                     1290.04
_exptl_crystal_colour            colorless
_exptl_crystal_description       block
_cell_formula_units_Z            4
_exptl_crystal_recrystallization_method 'petroleum ether-ethyl acetate'
loop_
_atom_site_label
_atom_site_type_symbol
_atom_site_fract_x
_atom_site_fract_y
_atom_site_fract_z
O1 O 0.15951(18) 0.92435(10) 0.12959(5)
O2 O -0.2391(2) 1.25676(10) 0.18815(6)
C1 C 0.1602(3) 1.02093(14) 0.17239(7)
C2 C 0.3476(3) 1.04185(16) 0.22640(8)
H1 H 0.4746 1.0791 0.2069
H2 H 0.3981 0.9657 0.2467
C3 C 0.2631(3) 1.12510(14) 0.28160(8)
C4 C 0.1331(3) 1.23240(14) 0.24656(8)
H3 H 0.0781 1.2833 0.2815
H4 H 0.2380 1.2798 0.2227
C5 C -0.0654(3) 1.19711(14) 0.19654(8)
C6 C -0.0296(3) 1.08724(14) 0.15819(8)
C7 C -0.1630(3) 1.02746(14) 0.10399(8)
H5 H -0.3046 1.0510 0.0839
C8 C -0.0428(3) 0.93004(14) 0.08766(7)
C9 C -0.0831(3) 0.83434(13) 0.03713(7)
C10 C -0.2926(3) 0.82647(16) -0.00152(9)
H6 H -0.4051 0.8823 0.0054
C11 C -0.3357(3) 0.73705(17) -0.04995(9)
H7 H -0.4754 0.7337 -0.0758
C12 C -0.1704(3) 0.65270(16) -0.05990(9)
H8 H -0.1992 0.5919 -0.0920
C13 C 0.0375(3) 0.65922(15) -0.02193(9)
H9 H 0.1490 0.6027 -0.0287
C14 C 0.0817(3) 0.74926(14) 0.02626(8)
H10 H 0.2225 0.7528 0.0515
C15 C 0.1062(3) 1.05533(16) 0.32505(9)
H11 H -0.0216 1.0253 0.2964
H12 H 0.0543 1.1079 0.3590
H13 H 0.1877 0.9891 0.3470
C16 C 0.4655(3) 1.17231(19) 0.32773(10)
H14 H 0.4127 1.2233 0.3622
H15 H 0.5629 1.2176 0.3010
H16 H 0.5481 1.1057 0.3489
loop_
_geom_bond_atom_site_label_1
_geom_bond_atom_site_label_2
_geom_bond_site_symmetry_1
_geom_bond_site_symmetry_2
O1 C1 1_555 1_555
O2 C5 1_555 1_555
C1 C2 1_555 1_555
C2 H1 1_555 1_555
H2 C2 1_555 1_555
C3 C2 1_555 1_555
C4 C3 1_555 1_555
H3 C4 1_555 1_555
H4 C4 1_555 1_555
C5 C4 1_555 1_555
C6 C1 1_555 1_555
C7 C6 1_555 1_555
H5 C7 1_555 1_555
C8 O1 1_555 1_555
C9 C8 1_555 1_555
C10 C9 1_555 1_555
H6 C10 1_555 1_555
C11 C10 1_555 1_555
H7 C11 1_555 1_555
C12 C11 1_555 1_555
H8 C12 1_555 1_555
C13 C12 1_555 1_555
H9 C13 1_555 1_555
C14 C9 1_555 1_555
H10 C14 1_555 1_555
C15 C3 1_555 1_555
H11 C15 1_555 1_555
H12 C15 1_555 1_555
H13 C15 1_555 1_555
C16 C3 1_555 1_555
H14 C16 1_555 1_555
H15 C16 1_555 1_555
H16 C16 1_555 1_555
C5 C6 1_555 1_555
C7 C8 1_555 1_555
C13 C14 1_555 1_555

#END
