
#######################################################################
#
#                 Cambridge Crystallographic Data Centre
#                                CCDC 
#
#######################################################################
#
# If this CIF has been generated from an entry in the Cambridge 
# Structural Database, then it will include bibliographic, chemical, 
# crystal, experimental, refinement or atomic coordinate data resulting 
# from the CCDC's data processing and validation procedures.
#
#######################################################################

data_UGUKUE
_chemical_formula_moiety         'C38 H34 N10 4+,4(N1 O3 1-),4(H2 O1)'
_chemical_name_systematic        
'2,16,22,36,41,45-Hexa-aza-5,13,25,33-tetraazonianonacyclo[35.3.1.1^2,5^.1^7,11^.1^13,16^.1^17,21^.1^22,25^.1^27,31^.1^33,36^]octatetraconta-1(41),3,5(48),7(47),8,10,13(46),14,17(45),18,20,23,25(44),27(43),28,30,33(42),34,37,39-icosaene tetranitrate tetrahydrate'
_symmetry_cell_setting           monoclinic
_symmetry_space_group_name_H-M   'P 21/c'
_symmetry_Int_Tables_number      14
_space_group_name_Hall           '-P 2ybc'
loop_
_symmetry_equiv_pos_site_id
_symmetry_equiv_pos_as_xyz
1 x,y,z
2 -x,1/2+y,1/2-z
3 -x,-y,-z
4 x,1/2-y,1/2+z
_cell_length_a                   11.295(2)
_cell_length_b                   25.244(5)
_cell_length_c                   14.836(3)
_cell_angle_alpha                90
_cell_angle_beta                 99.61(3)
_cell_angle_gamma                90
_cell_volume                     4170.84
_exptl_crystal_colour            colorless
_exptl_crystal_description       block
_cell_formula_units_Z            4
loop_
_atom_site_label
_atom_site_type_symbol
_atom_site_fract_x
_atom_site_fract_y
_atom_site_fract_z
N1 N 0.39709(17) 0.12282(7) 1.13104(12)
N2 N 0.35385(16) 0.19198(7) 1.04650(13)
N3 N 0.23183(16) 0.19806(7) 0.90584(12)
N4 N 0.11190(16) 0.19322(8) 0.76437(12)
N5 N 0.00427(17) 0.12727(8) 0.70607(12)
N6 N -0.31499(16) 0.11949(7) 0.97941(12)
N7 N -0.28401(16) 0.18564(7) 1.07263(12)
N8 N -0.15899(16) 0.18813(8) 1.21223(12)
N9 N -0.03212(17) 0.17969(8) 1.34976(12)
N10 N 0.07843(17) 0.11246(8) 1.39710(13)
C1 C 0.3386(2) 0.13945(9) 1.05114(15)
H1 H 0.2947 0.1184 1.0061
C2 C 0.4516(2) 0.16577(9) 1.17967(15)
H2 H 0.4981 0.1648 1.2376
C3 C 0.4244(2) 0.20894(9) 1.12731(15)
H3 H 0.4481 0.2436 1.1422
C4 C 0.3124(2) 0.22281(9) 0.96670(15)
C5 C 0.3579(2) 0.27271(9) 0.95449(16)
H4 H 0.4123 0.2891 0.9999
C6 C 0.3183(2) 0.29707(9) 0.87141(17)
H5 H 0.3465 0.3307 0.8603
C7 C 0.2370(2) 0.27192(9) 0.80444(16)
H6 H 0.2109 0.2873 0.7477
C8 C 0.1972(2) 0.22264(9) 0.82697(15)
C9 C 0.0863(2) 0.14191(9) 0.77592(15)
H7 H 0.1202 0.1205 0.8244
C10 C 0.0435(2) 0.21116(10) 0.68345(15)
H8 H 0.0444 0.2450 0.6588
C11 C -0.0244(2) 0.16984(10) 0.64779(16)
H9 H -0.0801 0.1699 0.5940
C12 C -0.0502(2) 0.07403(10) 0.69397(16)
H10 H 0.0020 0.0487 0.7303
H11 H -0.0577 0.0637 0.6303
C13 C -0.1725(2) 0.07285(9) 0.72244(15)
C14 C -0.2762(2) 0.07454(9) 0.65661(15)
H12 H -0.2700 0.0772 0.5950
C15 C -0.3885(2) 0.07233(9) 0.68271(15)
H13 H -0.4574 0.0736 0.6386
C16 C -0.3982(2) 0.06818(9) 0.77471(15)
H14 H -0.4735 0.0656 0.7919
C17 C -0.2953(2) 0.06789(8) 0.84105(15)
C18 C -0.1824(2) 0.07000(9) 0.81461(15)
H15 H -0.1135 0.0695 0.8588
C19 C -0.3078(2) 0.06556(9) 0.94104(15)
H16 H -0.3796 0.0459 0.9475
H17 H -0.2393 0.0471 0.9751
C20 C -0.2583(2) 0.13445(9) 1.06069(15)
H18 H -0.2091 0.1132 1.1024
C21 C -0.3796(2) 0.16218(9) 0.93720(15)
H19 H -0.4278 0.1622 0.8799
C22 C -0.3593(2) 0.20348(9) 0.99513(15)
H20 H -0.3899 0.2376 0.9851
C23 C -0.24121(19) 0.21433(9) 1.15499(15)
C24 C -0.2864(2) 0.26352(9) 1.17200(15)
H21 H -0.3426 0.2808 1.1290
C25 C -0.2435(2) 0.28578(9) 1.25657(15)
H22 H -0.2716 0.3188 1.2713
C26 C -0.1589(2) 0.25925(9) 1.31975(15)
H23 H -0.1300 0.2733 1.3771
C27 C -0.12039(19) 0.21083(9) 1.29231(15)
C28 C -0.0020(2) 0.13049(9) 1.32865(15)
H24 H -0.0322 0.1122 1.2754
C29 C 0.0311(2) 0.19273(10) 1.43535(15)
H25 H 0.0265 0.2244 1.4666
C30 C 0.1004(2) 0.15065(11) 1.46422(16)
H26 H 0.1533 0.1479 1.5192
C31 C 0.1316(2) 0.05888(10) 1.39999(17)
H27 H 0.0807 0.0361 1.3573
H28 H 0.1352 0.0442 1.4608
C32 C 0.2566(2) 0.05996(9) 1.37585(15)
C33 C 0.3580(2) 0.05679(9) 1.44392(16)
H29 H 0.3492 0.0545 1.5050
C34 C 0.4718(2) 0.05706(10) 1.42051(16)
H30 H 0.5390 0.0553 1.4661
C35 C 0.4861(2) 0.05992(9) 1.32968(16)
H31 H 0.5627 0.0595 1.3144
C36 C 0.3856(2) 0.06346(9) 1.26132(15)
C37 C 0.2711(2) 0.06355(9) 1.28465(15)
H32 H 0.2040 0.0660 1.2391
C38 C 0.4009(2) 0.06686(9) 1.16224(16)
H33 H 0.4771 0.0512 1.1549
H34 H 0.3374 0.0470 1.1248
N11 N -0.31478(18) 0.16379(8) 1.41364(14)
O1 O -0.2551(2) 0.17378(9) 1.48945(13)
O2 O -0.41034(16) 0.18784(7) 1.38649(14)
O3 O -0.27754(16) 0.13046(7) 1.36219(13)
N12 N 0.0262(2) 0.16238(10) 1.04740(15)
O4 O 0.0036(3) 0.12551(12) 0.9928(2)
O5 O -0.03200(18) 0.20444(9) 1.02980(13)
O6 O 0.10398(16) 0.15880(8) 1.11775(13)
N13 N 0.37971(19) 0.15428(8) 0.71081(15)
O7 O 0.3200(2) 0.15139(13) 0.63372(16)
O8 O 0.35121(19) 0.12761(9) 0.77367(16)
O9 O 0.46863(18) 0.18346(8) 0.72776(16)
N14 N 0.31630(19) 0.02845(9) 0.89219(14)
O10 O 0.3216(2) -0.00569(9) 0.83164(14)
O11 O 0.40761(17) 0.04310(8) 0.94296(12)
O12 O 0.21534(17) 0.04698(8) 0.90140(14)
O13 O 0.13423(18) -0.05011(8) 0.53738(13)
H35 H 0.179(3) -0.0812(7) 0.5618(19)
H36 H 0.164(3) -0.0214(7) 0.5777(18)
O14 O 0.0839(4) 0.03302(14) 1.0569(3)
H37 H 0.134(5) 0.028(2) 1.010(3)
H38 H 0.043(5) 0.0674(13) 1.041(4)
O15 O -0.0668(2) 0.04655(9) 1.17940(15)
H39 H -0.021(3) 0.0470(16) 1.1316(19)
H40 H -0.133(2) 0.0230(13) 1.164(2)
O16 O 0.2193(2) 0.03852(10) 0.65396(15)
H41 H 0.246(3) 0.0218(11) 0.7111(14)
H42 H 0.248(3) 0.0740(6) 0.656(2)
loop_
_geom_bond_atom_site_label_1
_geom_bond_atom_site_label_2
_geom_bond_site_symmetry_1
_geom_bond_site_symmetry_2
N1 C1 1_555 1_555
N2 C1 1_555 1_555
N3 C4 1_555 1_555
N4 C8 1_555 1_555
N5 C9 1_555 1_555
N6 C19 1_555 1_555
N7 C20 1_555 1_555
N8 C23 1_555 1_555
N9 C27 1_555 1_555
N10 C28 1_555 1_555
C1 H1 1_555 1_555
C2 N1 1_555 1_555
H2 C2 1_555 1_555
C3 N2 1_555 1_555
H3 C3 1_555 1_555
C4 N2 1_555 1_555
C5 C4 1_555 1_555
H4 C5 1_555 1_555
C6 C5 1_555 1_555
H5 C6 1_555 1_555
C7 C6 1_555 1_555
H6 C7 1_555 1_555
C8 N3 1_555 1_555
C9 N4 1_555 1_555
H7 C9 1_555 1_555
C10 N4 1_555 1_555
H8 C10 1_555 1_555
C11 N5 1_555 1_555
H9 C11 1_555 1_555
C12 N5 1_555 1_555
H10 C12 1_555 1_555
H11 C12 1_555 1_555
C13 C12 1_555 1_555
C14 C13 1_555 1_555
H12 C14 1_555 1_555
C15 C14 1_555 1_555
H13 C15 1_555 1_555
C16 C15 1_555 1_555
H14 C16 1_555 1_555
C17 C16 1_555 1_555
C18 C13 1_555 1_555
H15 C18 1_555 1_555
C19 C17 1_555 1_555
H16 C19 1_555 1_555
H17 C19 1_555 1_555
C20 N6 1_555 1_555
H18 C20 1_555 1_555
C21 N6 1_555 1_555
H19 C21 1_555 1_555
C22 N7 1_555 1_555
H20 C22 1_555 1_555
C23 N7 1_555 1_555
C24 C23 1_555 1_555
H21 C24 1_555 1_555
C25 C24 1_555 1_555
H22 C25 1_555 1_555
C26 C25 1_555 1_555
H23 C26 1_555 1_555
C27 N8 1_555 1_555
C28 N9 1_555 1_555
H24 C28 1_555 1_555
C29 N9 1_555 1_555
H25 C29 1_555 1_555
C30 N10 1_555 1_555
H26 C30 1_555 1_555
C31 N10 1_555 1_555
H27 C31 1_555 1_555
H28 C31 1_555 1_555
C32 C31 1_555 1_555
C33 C32 1_555 1_555
H29 C33 1_555 1_555
C34 C33 1_555 1_555
H30 C34 1_555 1_555
C35 C34 1_555 1_555
H31 C35 1_555 1_555
C36 C35 1_555 1_555
C37 C32 1_555 1_555
H32 C37 1_555 1_555
C38 N1 1_555 1_555
H33 C38 1_555 1_555
H34 C38 1_555 1_555
N11 O1 1_555 1_555
O2 N11 1_555 1_555
O3 N11 1_555 1_555
N12 O4 1_555 1_555
O5 N12 1_555 1_555
O6 N12 1_555 1_555
N13 O7 1_555 1_555
O8 N13 1_555 1_555
O9 N13 1_555 1_555
N14 O10 1_555 1_555
O11 N14 1_555 1_555
O12 N14 1_555 1_555
O13 H35 1_555 1_555
H36 O13 1_555 1_555
O14 H37 1_555 1_555
H38 O14 1_555 1_555
O15 H39 1_555 1_555
H40 O15 1_555 1_555
O16 H41 1_555 1_555
H42 O16 1_555 1_555
C2 C3 1_555 1_555
C7 C8 1_555 1_555
C10 C11 1_555 1_555
C17 C18 1_555 1_555
C21 C22 1_555 1_555
C26 C27 1_555 1_555
C29 C30 1_555 1_555
C36 C37 1_555 1_555
C36 C38 1_555 1_555

#END
