
#######################################################################
#
#                 Cambridge Crystallographic Data Centre
#                                CCDC 
#
#######################################################################
#
# If this CIF has been generated from an entry in the Cambridge 
# Structural Database, then it will include bibliographic, chemical, 
# crystal, experimental, refinement or atomic coordinate data resulting 
# from the CCDC's data processing and validation procedures.
#
#######################################################################

data_UGULUF
_chemical_formula_moiety         'C7 H10 N1 1+,C8 H6 Cl1 O3 1-,H2 O1'
_chemical_name_systematic        
'Benzylammonium (4-chlorophenoxy)acetate monohydrate'
_symmetry_cell_setting           monoclinic
_symmetry_space_group_name_H-M   'P 21/n'
_symmetry_Int_Tables_number      14
_space_group_name_Hall           '-P 2yn'
loop_
_symmetry_equiv_pos_site_id
_symmetry_equiv_pos_as_xyz
1 x,y,z
2 1/2-x,1/2+y,1/2-z
3 -x,-y,-z
4 1/2+x,1/2-y,1/2+z
_cell_length_a                   6.7577(5)
_cell_length_b                   8.3490(7)
_cell_length_c                   28.658(2)
_cell_angle_alpha                90
_cell_angle_beta                 95.765(2)
_cell_angle_gamma                90
_cell_volume                     1608.71
_exptl_crystal_colour            colorless
_exptl_crystal_description       block
_chemical_melting_point          '110-112 deg.C'
_cell_formula_units_Z            4
loop_
_atom_site_label
_atom_site_type_symbol
_atom_site_fract_x
_atom_site_fract_y
_atom_site_fract_z
Cl1 Cl 0.2097(2) 0.48926(17) 0.74369(5)
O1 O 0.7755(3) 0.9087(3) 0.53052(8)
O2 O 0.5946(4) 0.6928(3) 0.54071(9)
O3 O 0.3046(3) 0.8696(3) 0.57581(8)
C1 C 0.6288(5) 0.8378(5) 0.54478(11)
C2 C 0.4854(5) 0.9454(4) 0.56730(13)
H1 H 0.5500 0.9847 0.5968
H2 H 0.4550 1.0372 0.5471
C3 C 0.2948(6) 0.7824(4) 0.61602(12)
C4 C 0.1140(6) 0.7122(5) 0.62085(14)
H3 H 0.0095 0.7248 0.5974
C5 C 0.0864(7) 0.6230(5) 0.66025(17)
H4 H -0.0361 0.5759 0.6636
C6 C 0.2428(8) 0.6047(5) 0.69451(14)
C7 C 0.4215(7) 0.6746(5) 0.69015(14)
H5 H 0.5251 0.6632 0.7139
C8 C 0.4497(6) 0.7627(5) 0.65049(13)
H6 H 0.5729 0.8085 0.6472
N1 N 0.0456(4) 0.7894(3) 0.47215(11)
H7 H 0.1129 0.7036 0.4833
H8 H -0.0517 0.8105 0.4900
H9 H 0.1274 0.8730 0.4725
C9 C -0.0403(6) 0.7581(5) 0.42356(14)
H10 H -0.1409 0.8381 0.4145
H11 H -0.1045 0.6541 0.4222
C10 C 0.1145(6) 0.7616(5) 0.38958(14)
C11 C 0.0927(7) 0.8601(6) 0.35129(15)
H12 H -0.0180 0.9265 0.3465
C12 C 0.2361(10) 0.8617(7) 0.31928(16)
H13 H 0.2204 0.9282 0.2931
C13 C 0.3994(10) 0.7649(8) 0.3267(2)
H14 H 0.4952 0.7655 0.3056
C14 C 0.4217(7) 0.6680(6) 0.3648(2)
H15 H 0.5338 0.6032 0.3698
C15 C 0.2811(6) 0.6643(5) 0.39615(15)
H16 H 0.2977 0.5962 0.4219
O4 O 0.2445(3) 0.5259(3) 0.51728(9)
H17 H 0.3448 0.5835 0.5263
H18 H 0.2816 0.4541 0.4990
loop_
_geom_bond_atom_site_label_1
_geom_bond_atom_site_label_2
_geom_bond_site_symmetry_1
_geom_bond_site_symmetry_2
Cl1 C6 1_555 1_555
O1 C1 1_555 1_555
O2 C1 1_555 1_555
O3 C2 1_555 1_555
C1 C2 1_555 1_555
C2 H1 1_555 1_555
H2 C2 1_555 1_555
C3 O3 1_555 1_555
C4 C3 1_555 1_555
H3 C4 1_555 1_555
C5 C4 1_555 1_555
H4 C5 1_555 1_555
C6 C5 1_555 1_555
C7 C6 1_555 1_555
H5 C7 1_555 1_555
C8 C3 1_555 1_555
H6 C8 1_555 1_555
N1 H7 1_555 1_555
H8 N1 1_555 1_555
H9 N1 1_555 1_555
C9 N1 1_555 1_555
H10 C9 1_555 1_555
H11 C9 1_555 1_555
C10 C9 1_555 1_555
C11 C10 1_555 1_555
H12 C11 1_555 1_555
C12 C11 1_555 1_555
H13 C12 1_555 1_555
C13 C12 1_555 1_555
H14 C13 1_555 1_555
C14 C13 1_555 1_555
H15 C14 1_555 1_555
C15 C10 1_555 1_555
H16 C15 1_555 1_555
O4 H17 1_555 1_555
H18 O4 1_555 1_555
C7 C8 1_555 1_555
C14 C15 1_555 1_555

#END
