
#######################################################################
#
#                 Cambridge Crystallographic Data Centre
#                                CCDC 
#
#######################################################################
#
# If this CIF has been generated from an entry in the Cambridge 
# Structural Database, then it will include bibliographic, chemical, 
# crystal, experimental, refinement or atomic coordinate data resulting 
# from the CCDC's data processing and validation procedures.
#
#######################################################################

data_UGUMOA
_chemical_formula_moiety         'C36 H32 N12 4+,2(N1 O3 1-),2(F6 P1 1-)'
_chemical_name_systematic        
'2,16,22,36,41,43,45,47-octaaza-5,13,25,33-tetraazonianonacyclo[35.3.1.1^2,5^.1^7,11^.1^13,16^.1^17,21^.1^22,25^.1^27,31^.1^33,36^]octatetraconta-1(41),3,5(48),7(47),8,10,13(46),14,17(45),18,20,23,25(44),27(43),28,30,33(42),34,37,39-icosaene bis(hexafluorophosphate) dinitrate'
_symmetry_cell_setting           triclinic
_symmetry_space_group_name_H-M   'P -1'
_symmetry_Int_Tables_number      2
_space_group_name_Hall           '-P 1'
loop_
_symmetry_equiv_pos_site_id
_symmetry_equiv_pos_as_xyz
1 x,y,z
2 -x,-y,-z
_cell_length_a                   7.9364(7)
_cell_length_b                   11.1651(12)
_cell_length_c                   11.9799(11)
_cell_angle_alpha                76.686(4)
_cell_angle_beta                 87.191(3)
_cell_angle_gamma                80.387(4)
_cell_volume                     1018.45
_exptl_crystal_colour            colorless
_exptl_crystal_description       block
_cell_formula_units_Z            1
loop_
_atom_site_label
_atom_site_type_symbol
_atom_site_fract_x
_atom_site_fract_y
_atom_site_fract_z
P1 P 0.64999(12) 0.74745(9) 0.35179(8)
F1 F 0.4509(3) 0.7818(3) 0.3368(2)
F2 F 0.8503(3) 0.7092(2) 0.3690(2)
F3 F 0.6325(3) 0.6045(2) 0.3998(2)
F4 F 0.6707(4) 0.8901(2) 0.30642(19)
F5 F 0.6322(3) 0.7706(2) 0.47869(18)
F6 F 0.6702(3) 0.7256(2) 0.22512(19)
N1 N -0.2138(4) 0.4152(2) 0.7946(2)
N2 N -0.0225(3) 0.5241(2) 0.7165(2)
N3 N 0.1016(3) 0.6897(2) 0.6139(2)
N4 N 0.2010(3) 0.8642(2) 0.5047(2)
N5 N 0.1123(3) 0.9808(2) 0.3424(2)
N6 N 0.1715(3) 0.8434(3) 0.1636(2)
C1 C -0.3199(5) 0.3482(3) 0.8836(3)
H1 H -0.4401 0.3687 0.8581
H2 H -0.3142 0.3786 0.9545
C2 C -0.0721(4) 0.4537(3) 0.8144(3)
H3 H -0.0154 0.4347 0.8858
C3 C -0.2550(5) 0.4601(3) 0.6804(3)
H4 H -0.3496 0.4449 0.6431
C4 C -0.1374(4) 0.5289(3) 0.6322(3)
H5 H -0.1334 0.5729 0.5544
C5 C 0.1136(4) 0.5959(3) 0.7049(3)
C6 C 0.2398(4) 0.5683(3) 0.7865(3)
H6 H 0.2421 0.4996 0.8505
C7 C 0.3620(4) 0.6449(3) 0.7709(3)
H7 H 0.4510 0.6297 0.8250
C8 C 0.3556(4) 0.7438(3) 0.6767(3)
H8 H 0.4393 0.7973 0.6639
C9 C 0.2221(4) 0.7613(3) 0.6022(3)
C10 C 0.1092(4) 0.8711(3) 0.4129(3)
H9 H 0.0510 0.8078 0.4001
C11 C 0.2655(4) 0.9745(3) 0.4914(3)
H10 H 0.3352 0.9951 0.5441
C12 C 0.2107(4) 1.0464(3) 0.3902(3)
H11 H 0.2351 1.1277 0.3574
C13 C 0.0307(4) 1.0229(3) 0.2295(3)
H12 H 0.0155 1.1151 0.2063
H13 H -0.0837 0.9976 0.2347
C14 C 0.1373(4) 0.9681(3) 0.1402(3)
C15 C 0.1937(4) 1.0429(3) 0.0426(3)
H14 H 0.1636 1.1310 0.0282
C16 C 0.2956(5) 0.9865(3) -0.0344(3)
H15 H 0.3380 1.0357 -0.1022
C17 C 0.3345(4) 0.8587(3) -0.0115(3)
H16 H 0.4042 0.8178 -0.0627
C18 C 0.2691(4) 0.7908(3) 0.0886(3)
N1A N 0.2138(4) 0.5848(2) 0.2054(2)
N2A N 0.0225(3) 0.4759(2) 0.2835(2)
N3A N -0.1016(3) 0.3103(2) 0.3861(2)
N4A N -0.2010(3) 0.1358(2) 0.4953(2)
N5A N -0.1123(3) 0.0192(2) 0.6576(2)
N6A N -0.1715(3) 0.1566(3) 0.8364(2)
C1A C 0.3199(5) 0.6518(3) 0.1164(3)
H1A H 0.4401 0.6313 0.1419
H2A H 0.3142 0.6214 0.0455
C2A C 0.0721(4) 0.5463(3) 0.1856(3)
H3A H 0.0154 0.5653 0.1142
C3A C 0.2550(5) 0.5399(3) 0.3196(3)
H4A H 0.3496 0.5551 0.3569
C4A C 0.1374(4) 0.4711(3) 0.3678(3)
H5A H 0.1334 0.4271 0.4456
C5A C -0.1136(4) 0.4041(3) 0.2951(3)
C6A C -0.2398(4) 0.4317(3) 0.2135(3)
H6A H -0.2421 0.5004 0.1495
C7A C -0.3620(4) 0.3551(3) 0.2291(3)
H7A H -0.4510 0.3703 0.1750
C8A C -0.3556(4) 0.2562(3) 0.3233(3)
H8A H -0.4393 0.2027 0.3361
C9A C -0.2221(4) 0.2387(3) 0.3978(3)
C10A C -0.1092(4) 0.1289(3) 0.5871(3)
H9A H -0.0510 0.1922 0.5999
C11A C -0.2655(4) 0.0255(3) 0.5086(3)
H10A H -0.3352 0.0049 0.4559
C12A C -0.2107(4) -0.0464(3) 0.6098(3)
H11A H -0.2351 -0.1277 0.6426
C13A C -0.0307(4) -0.0229(3) 0.7705(3)
H12A H -0.0155 -0.1151 0.7937
H13A H 0.0837 0.0024 0.7653
C14A C -0.1373(4) 0.0319(3) 0.8598(3)
C15A C -0.1937(4) -0.0429(3) 0.9574(3)
H14A H -0.1636 -0.1310 0.9718
C16A C -0.2956(5) 0.0135(3) 1.0344(3)
H15A H -0.3380 -0.0357 1.1022
C17A C -0.3345(4) 0.1413(3) 1.0115(3)
H16A H -0.4042 0.1822 1.0627
C18A C -0.2691(4) 0.2092(3) 0.9114(3)
N7 N 0.7684(4) 0.6709(3) -0.0924(2)
O1 O 0.6680(3) 0.6087(2) -0.0317(2)
O2 O 0.7196(4) 0.7393(3) -0.1857(2)
O3 O 0.9189(3) 0.6627(2) -0.0612(2)
loop_
_geom_bond_atom_site_label_1
_geom_bond_atom_site_label_2
_geom_bond_site_symmetry_1
_geom_bond_site_symmetry_2
P1 F1 1_555 1_555
F2 P1 1_555 1_555
F3 P1 1_555 1_555
F4 P1 1_555 1_555
F5 P1 1_555 1_555
F6 P1 1_555 1_555
N1 C1 1_555 1_555
N2 C2 1_555 1_555
N3 C5 1_555 1_555
N4 C9 1_555 1_555
N5 C10 1_555 1_555
N6 C14 1_555 1_555
C1 H1 1_555 1_555
H2 C1 1_555 1_555
C2 N1 1_555 1_555
H3 C2 1_555 1_555
C3 N1 1_555 1_555
H4 C3 1_555 1_555
C4 N2 1_555 1_555
H5 C4 1_555 1_555
C5 N2 1_555 1_555
C6 C5 1_555 1_555
H6 C6 1_555 1_555
C7 C6 1_555 1_555
H7 C7 1_555 1_555
C8 C7 1_555 1_555
H8 C8 1_555 1_555
C9 N3 1_555 1_555
C10 N4 1_555 1_555
H9 C10 1_555 1_555
C11 N4 1_555 1_555
H10 C11 1_555 1_555
C12 N5 1_555 1_555
H11 C12 1_555 1_555
C13 N5 1_555 1_555
H12 C13 1_555 1_555
H13 C13 1_555 1_555
C14 C13 1_555 1_555
C15 C14 1_555 1_555
H14 C15 1_555 1_555
C16 C15 1_555 1_555
H15 C16 1_555 1_555
C17 C16 1_555 1_555
H16 C17 1_555 1_555
C18 N6 1_555 1_555
N7 O1 1_555 1_555
O2 N7 1_555 1_555
O3 N7 1_555 1_555
N1A C1A 1_555 1_555
N2A C2A 1_555 1_555
N3A C5A 1_555 1_555
N4A C9A 1_555 1_555
N5A C10A 1_555 1_555
N6A C14A 1_555 1_555
C1A C18 1_555 1_555
H1A C1A 1_555 1_555
H2A C1A 1_555 1_555
C2A N1A 1_555 1_555
H3A C2A 1_555 1_555
C3A N1A 1_555 1_555
H4A C3A 1_555 1_555
C4A N2A 1_555 1_555
H5A C4A 1_555 1_555
C5A N2A 1_555 1_555
C6A C5A 1_555 1_555
H6A C6A 1_555 1_555
C7A C6A 1_555 1_555
H7A C7A 1_555 1_555
C8A C7A 1_555 1_555
H8A C8A 1_555 1_555
C9A N3A 1_555 1_555
C10A N4A 1_555 1_555
H9A C10A 1_555 1_555
C11A N4A 1_555 1_555
H10A C11A 1_555 1_555
C12A N5A 1_555 1_555
H11A C12A 1_555 1_555
C13A N5A 1_555 1_555
H12A C13A 1_555 1_555
H13A C13A 1_555 1_555
C14A C13A 1_555 1_555
C15A C14A 1_555 1_555
H14A C15A 1_555 1_555
C16A C15A 1_555 1_555
H15A C16A 1_555 1_555
C17A C16A 1_555 1_555
H16A C17A 1_555 1_555
C18A C1 1_555 1_555
C3 C4 1_555 1_555
C8 C9 1_555 1_555
C11 C12 1_555 1_555
C17 C18 1_555 1_555
N6A C18A 1_555 1_555
C3A C4A 1_555 1_555
C8A C9A 1_555 1_555
C11A C12A 1_555 1_555
C17A C18A 1_555 1_555

#END
