
#######################################################################
#
#                 Cambridge Crystallographic Data Centre
#                                CCDC 
#
#######################################################################
#
# If this CIF has been generated from an entry in the Cambridge 
# Structural Database, then it will include bibliographic, chemical, 
# crystal, experimental, refinement or atomic coordinate data resulting 
# from the CCDC's data processing and validation procedures.
#
#######################################################################

data_UGUMAM
_chemical_formula_moiety         '2(C7 H10 N1 1+),C24 H18 N2 O6 2-'
_chemical_name_systematic        
'bis(Benzylammonium) 2,5-bis(benzylcarbamoyl)terephthalate'
_symmetry_cell_setting           monoclinic
_symmetry_space_group_name_H-M   'P 21/c'
_symmetry_Int_Tables_number      14
_space_group_name_Hall           '-P 2ybc'
loop_
_symmetry_equiv_pos_site_id
_symmetry_equiv_pos_as_xyz
1 x,y,z
2 -x,1/2+y,1/2-z
3 -x,-y,-z
4 x,1/2-y,1/2+z
_cell_length_a                   15.8100(12)
_cell_length_b                   5.6638(3)
_cell_length_c                   20.1245(17)
_cell_angle_alpha                90
_cell_angle_beta                 106.857(2)
_cell_angle_gamma                90
_cell_volume                     1724.61
_exptl_crystal_colour            colorless
_exptl_crystal_description       block
_chemical_melting_point          '241-245 deg.C'
_cell_formula_units_Z            2
loop_
_atom_site_label
_atom_site_type_symbol
_atom_site_fract_x
_atom_site_fract_y
_atom_site_fract_z
N1 N 0.85177(16) 0.4833(5) 0.47189(13)
H1 H 0.8722 0.4933 0.5163
O1 O 0.85676(14) 0.6169(4) 0.36769(10)
O2 O 1.05866(14) 0.5855(4) 0.38343(10)
O3 O 1.01815(15) 0.9180(4) 0.32398(10)
C1 C 0.7840(2) 0.3098(6) 0.44130(17)
H2 H 0.7812 0.1969 0.4768
H3 H 0.8013 0.2245 0.4055
C2 C 0.6935(2) 0.4117(7) 0.41004(17)
C3 C 0.6659(3) 0.6112(8) 0.4354(2)
H4 H 0.7050 0.6908 0.4720
C4 C 0.5813(3) 0.6979(9) 0.4080(2)
H5 H 0.5640 0.8332 0.4268
C5 C 0.5233(3) 0.5873(10) 0.3539(2)
H6 H 0.4663 0.6451 0.3355
C6 C 0.5498(3) 0.3927(12) 0.3272(2)
H7 H 0.5111 0.3173 0.2894
C7 C 0.6345(3) 0.3032(8) 0.3557(2)
H8 H 0.6512 0.1665 0.3372
C8 C 0.8826(2) 0.6270(6) 0.43201(16)
C9 C 1.0284(2) 0.7897(7) 0.37664(15)
C10 C 1.00815(19) 0.9004(6) 0.43838(13)
C11 C 0.94602(19) 0.8122(5) 0.46873(13)
C12 C 0.93936(19) 0.9129(6) 0.52987(14)
H9 H 0.8981 0.8526 0.5502
N1B N 1.14823(16) 1.5167(5) 0.52811(13)
H1B H 1.1278 1.5067 0.4837
O1B O 1.14324(14) 1.3831(4) 0.63231(10)
O2B O 0.94134(14) 1.4145(4) 0.61657(10)
O3B O 0.98185(15) 1.0820(4) 0.67602(10)
C1B C 1.2160(2) 1.6902(6) 0.55870(17)
H2B H 1.2188 1.8031 0.5232
H3B H 1.1987 1.7755 0.5945
C2B C 1.3065(2) 1.5883(7) 0.58996(17)
C3B C 1.3341(3) 1.3888(8) 0.5646(2)
H4B H 1.2950 1.3092 0.5280
C4B C 1.4187(3) 1.3021(9) 0.5920(2)
H5B H 1.4360 1.1668 0.5732
C5B C 1.4767(3) 1.4127(10) 0.6461(2)
H6B H 1.5337 1.3549 0.6645
C6B C 1.4502(3) 1.6073(12) 0.6728(2)
H7B H 1.4889 1.6827 0.7106
C7B C 1.3655(3) 1.6968(8) 0.6443(2)
H8B H 1.3488 1.8335 0.6628
C8B C 1.1174(2) 1.3730(6) 0.56799(16)
C9B C 0.9716(2) 1.2103(7) 0.62336(15)
C10B C 0.99185(19) 1.0996(6) 0.56162(13)
C11B C 1.05398(19) 1.1878(5) 0.53127(13)
C12B C 1.06064(19) 1.0871(6) 0.47013(14)
H9B H 1.1019 1.1474 0.4498
N2 N 0.09231(17) 0.7839(5) 0.22421(11)
H10 H 0.0702 0.8511 0.2555
H11 H 0.0525 0.6859 0.1978
H12 H 0.1057 0.8951 0.1977
C13 C 0.1735(2) 0.6496(7) 0.26036(17)
H13 H 0.1988 0.5827 0.2260
H14 H 0.1576 0.5202 0.2860
C14 C 0.2413(2) 0.7999(7) 0.30931(18)
C15 C 0.2755(3) 0.9979(8) 0.2873(2)
H15 H 0.2559 1.0410 0.2408
C16 C 0.3383(3) 1.1338(8) 0.3330(2)
H16 H 0.3594 1.2701 0.3175
C17 C 0.3698(3) 1.0687(10) 0.4013(2)
H17 H 0.4129 1.1593 0.4320
C18 C 0.3382(3) 0.8731(10) 0.4237(2)
H18 H 0.3599 0.8279 0.4700
C19 C 0.2740(3) 0.7396(8) 0.37854(19)
H19 H 0.2522 0.6062 0.3949
loop_
_geom_bond_atom_site_label_1
_geom_bond_atom_site_label_2
_geom_bond_site_symmetry_1
_geom_bond_site_symmetry_2
N1 H1 1_555 1_555
O1 C8 1_555 1_555
O2 C9 1_555 1_555
O3 C9 1_555 1_555
C1 N1 1_555 1_555
H2 C1 1_555 1_555
H3 C1 1_555 1_555
C2 C1 1_555 1_555
C3 C2 1_555 1_555
H4 C3 1_555 1_555
C4 C3 1_555 1_555
H5 C4 1_555 1_555
C5 C4 1_555 1_555
H6 C5 1_555 1_555
C6 C5 1_555 1_555
H7 C6 1_555 1_555
C7 C2 1_555 1_555
H8 C7 1_555 1_555
C8 N1 1_555 1_555
C9 C10 1_555 1_555
C10 C11 1_555 1_555
C11 C8 1_555 1_555
C12 C11 1_555 1_555
H9 C12 1_555 1_555
N2 H10 1_555 1_555
H11 N2 1_555 1_555
H12 N2 1_555 1_555
C13 N2 1_555 1_555
H13 C13 1_555 1_555
H14 C13 1_555 1_555
C14 C13 1_555 1_555
C15 C14 1_555 1_555
H15 C15 1_555 1_555
C16 C15 1_555 1_555
H16 C16 1_555 1_555
C17 C16 1_555 1_555
H17 C17 1_555 1_555
C18 C17 1_555 1_555
H18 C18 1_555 1_555
C19 C14 1_555 1_555
H19 C19 1_555 1_555
N1B H1B 1_555 1_555
O1B C8B 1_555 1_555
O2B C9B 1_555 1_555
O3B C9B 1_555 1_555
C1B N1B 1_555 1_555
H2B C1B 1_555 1_555
H3B C1B 1_555 1_555
C2B C1B 1_555 1_555
C3B C2B 1_555 1_555
H4B C3B 1_555 1_555
C4B C3B 1_555 1_555
H5B C4B 1_555 1_555
C5B C4B 1_555 1_555
H6B C5B 1_555 1_555
C6B C5B 1_555 1_555
H7B C6B 1_555 1_555
C7B C2B 1_555 1_555
H8B C7B 1_555 1_555
C8B N1B 1_555 1_555
C9B C10B 1_555 1_555
C10B C12 1_555 1_555
C11B C8B 1_555 1_555
C12B C10 1_555 1_555
H9B C12B 1_555 1_555
C6 C7 1_555 1_555
C18 C19 1_555 1_555
C6B C7B 1_555 1_555
C10B C11B 1_555 1_555
C11B C12B 1_555 1_555

#END
