
#######################################################################
#
#                 Cambridge Crystallographic Data Centre
#                                CCDC 
#
#######################################################################
#
# If this CIF has been generated from an entry in the Cambridge 
# Structural Database, then it will include bibliographic, chemical, 
# crystal, experimental, refinement or atomic coordinate data resulting 
# from the CCDC's data processing and validation procedures.
#
#######################################################################

data_UGUMIU
_chemical_formula_moiety         
'C38 H34 N10 4+,2(C3 H7 N1 O1),6(H2 O1),4(Cl1 1-)'
_chemical_name_systematic        
'2,16,22,36,41,45-hexaaza-5,13,25,33-tetraazonianonacyclo[35.3.1.1^2,5^.1^7,11^.1^13,16^.1^17,21^.1^22,25^.1^27,31^.1^33,36^]octatetraconta-1(41),3,5(48),7(47),8,10,13(46),14,17(45),18,20,23,25(44),27(43),28,30,33(42),34,37,39-icosaene tetrachloride N,N-dimethylformamide solvate hexahydrate'
_symmetry_cell_setting           triclinic
_symmetry_space_group_name_H-M   'P -1'
_symmetry_Int_Tables_number      2
_space_group_name_Hall           '-P 1'
loop_
_symmetry_equiv_pos_site_id
_symmetry_equiv_pos_as_xyz
1 x,y,z
2 -x,-y,-z
_cell_length_a                   9.4978(19)
_cell_length_b                   16.910(3)
_cell_length_c                   17.332(4)
_cell_angle_alpha                70.07(3)
_cell_angle_beta                 82.72(3)
_cell_angle_gamma                79.55(3)
_cell_volume                     2567.19
_exptl_crystal_colour            colorless
_exptl_crystal_description       prism
_cell_formula_units_Z            2
loop_
_atom_site_label
_atom_site_type_symbol
_atom_site_fract_x
_atom_site_fract_y
_atom_site_fract_z
N1 N 0.7019(2) 0.46523(14) 0.28003(14)
N2 N 0.5252(2) 0.51509(14) 0.35013(14)
N3 N 0.5251(2) 0.60832(14) 0.42120(14)
N4 N 0.5503(2) 0.69779(14) 0.49168(14)
N5 N 0.7426(2) 0.74445(14) 0.50042(14)
N6 N 0.7376(2) 0.99287(14) 0.18145(14)
N7 N 0.5423(2) 0.97781(14) 0.13991(14)
N8 N 0.5125(2) 0.88719(14) 0.07085(14)
N9 N 0.5032(2) 0.79422(14) 0.00002(14)
N10 N 0.6752(2) 0.70845(14) -0.03617(14)
C1 C 0.6655(3) 0.51577(17) 0.32533(17)
H1 H 0.7261 0.5464 0.3379
C2 C 0.5834(3) 0.43064(19) 0.2751(2)
H2 H 0.5807 0.3931 0.2468
C3 C 0.4730(3) 0.46113(18) 0.31870(18)
H3 H 0.3797 0.4487 0.3264
C4 C 0.4472(3) 0.56091(17) 0.40139(16)
C5 C 0.3045(3) 0.55406(18) 0.42808(18)
H4 H 0.2549 0.5195 0.4131
C6 C 0.2395(3) 0.60083(18) 0.47788(18)
H5 H 0.1439 0.5982 0.4970
C7 C 0.3159(3) 0.65180(18) 0.49965(18)
H6 H 0.2737 0.6844 0.5325
C8 C 0.4582(3) 0.65145(16) 0.46974(17)
C9 C 0.6908(3) 0.69678(17) 0.46736(17)
H7 H 0.7423 0.6677 0.4334
C10 C 0.5135(3) 0.74843(18) 0.54238(17)
H8 H 0.4235 0.7600 0.5677
C11 C 0.6344(3) 0.77717(18) 0.54742(18)
H9 H 0.6434 0.8125 0.5770
C12 C 0.8924(3) 0.76145(18) 0.48602(19)
H10 H 0.9507 0.7226 0.4604
H11 H 0.9309 0.7525 0.5381
C13 C 0.8975(3) 0.85231(17) 0.43066(18)
C14 C 0.8920(3) 0.91711(18) 0.46382(18)
H12 H 0.8902 0.9045 0.5205
C15 C 0.8891(3) 1.00071(18) 0.41220(19)
H13 H 0.8862 1.0438 0.4346
C16 C 0.8905(3) 1.02057(18) 0.32780(18)
H14 H 0.8883 1.0767 0.2937
C17 C 0.8953(3) 0.95610(17) 0.29408(17)
C18 C 0.8992(3) 0.87203(17) 0.34562(17)
H15 H 0.9028 0.8289 0.3232
C19 C 0.8887(3) 0.97739(19) 0.20272(17)
H16 H 0.9333 1.0277 0.1738
H17 H 0.9414 0.9307 0.1855
C20 C 0.6822(3) 0.94680(18) 0.14778(17)
H18 H 0.7314 0.9011 0.1324
C21 C 0.6309(3) 1.05507(17) 0.19601(17)
H19 H 0.6418 1.0956 0.2191
C22 C 0.5091(3) 1.04574(17) 0.17053(17)
H20 H 0.4196 1.0784 0.1729
C23 C 0.4474(3) 0.94647(17) 0.10319(16)
C24 C 0.3026(3) 0.97842(19) 0.10180(18)
H21 H 0.2622 1.0193 0.1262
C25 C 0.2213(3) 0.94604(19) 0.06200(18)
H22 H 0.1237 0.9662 0.0584
C26 C 0.2832(3) 0.88418(18) 0.02746(18)
H23 H 0.2293 0.8617 0.0010
C27 C 0.4295(3) 0.85719(17) 0.03403(16)
C28 C 0.6446(3) 0.76550(17) 0.00223(17)
H24 H 0.7099 0.7828 0.0266
C29 C 0.4426(3) 0.75265(18) -0.04155(18)
H25 H 0.3465 0.7603 -0.0520
C30 C 0.5499(3) 0.69952(19) -0.06357(19)
H26 H 0.5418 0.6631 -0.0921
C31 C 0.8175(3) 0.65869(17) -0.04552(18)
H27 H 0.8913 0.6844 -0.0330
H28 H 0.8366 0.6590 -0.1019
C32 C 0.8358(3) 0.54971(18) 0.09534(18)
H29 H 0.8441 0.5932 0.1151
C33 C 0.8213(3) 0.56789(17) 0.01197(18)
C34 C 0.8093(3) 0.50296(18) -0.01805(19)
H30 H 0.7981 0.5150 -0.0736
C35 C 0.8143(3) 0.42009(19) 0.0356(2)
H31 H 0.8077 0.3765 0.0156
C36 C 0.8290(3) 0.40172(18) 0.11895(19)
H32 H 0.8328 0.3460 0.1543
C37 C 0.8382(3) 0.46668(18) 0.14958(18)
C38 C 0.8474(3) 0.44862(19) 0.24022(18)
H33 H 0.8887 0.3897 0.2654
H34 H 0.9093 0.4845 0.2482
N11 N 0.3209(3) 0.70049(18) 0.21008(18)
C39 C 0.4544(4) 0.7075(2) 0.2127(2)
H35 H 0.4727 0.7433 0.2396
C40 C 0.2789(5) 0.6461(3) 0.1696(3)
H36 H 0.3632 0.6176 0.1480
H37 H 0.2199 0.6803 0.1256
H38 H 0.2259 0.6047 0.2088
C41 C 0.2026(4) 0.7489(3) 0.2469(3)
H39 H 0.2415 0.7822 0.2718
H40 H 0.1477 0.7101 0.2881
H41 H 0.1416 0.7858 0.2049
O1 O 0.5595(3) 0.66984(16) 0.18180(16)
N12 N 0.4045(3) 0.9320(2) 0.37480(18)
C42 C 0.5080(4) 0.8855(2) 0.3452(2)
H42 H 0.6012 0.8936 0.3482
C43 C 0.4335(7) 0.9950(4) 0.4078(3)
H43 H 0.5351 0.9958 0.4032
H44 H 0.3988 0.9809 0.4646
H45 H 0.3860 1.0500 0.3774
C44 C 0.2566(5) 0.9228(5) 0.3761(4)
H46 H 0.2506 0.8796 0.3528
H47 H 0.2044 0.9758 0.3446
H48 H 0.2160 0.9066 0.4319
O2 O 0.4954(5) 0.8332(2) 0.3143(2)
O3 O 1.1279(3) 0.41848(14) 0.38302(15)
H49 H 1.065(4) 0.4714(14) 0.370(2)
H50 H 1.156(4) 0.405(2) 0.3334(14)
O4 O 1.1600(2) 0.18659(15) 0.31931(15)
H51 H 1.0585(13) 0.198(2) 0.330(2)
H52 H 1.193(3) 0.2394(13) 0.289(2)
O5 O 0.1919(2) 1.12765(16) 0.18523(16)
H53 H 0.111(3) 1.153(2) 0.153(2)
H54 H 0.180(4) 1.147(2) 0.2318(16)
O6 O -0.0697(3) 0.84522(17) 0.0794(2)
H55 H -0.031(5) 0.833(2) 0.0303(14)
H56 H -0.091(5) 0.7930(15) 0.1199(18)
O7 O 0.4348(3) 0.8019(2) -0.2793(2)
H57 H 0.372(4) 0.771(3) -0.2343(15)
H58 H 0.389(4) 0.808(3) -0.3284(13)
O8 O -0.1779(4) 0.7112(2) 0.18936(19)
H59 H -0.2792(19) 0.7089(19) 0.1989(18)
H60 H -0.136(4) 0.679(3) 0.242(2)
Cl1 Cl 0.83075(8) 0.23070(5) 0.36299(5)
Cl2 Cl 1.28854(10) 0.35617(6) 0.23612(5)
Cl3 Cl 0.94419(8) 0.60047(5) 0.35815(5)
Cl4 Cl 0.07509(9) 0.80944(5) -0.07951(5)
loop_
_geom_bond_atom_site_label_1
_geom_bond_atom_site_label_2
_geom_bond_site_symmetry_1
_geom_bond_site_symmetry_2
N1 C1 1_555 1_555
N2 C1 1_555 1_555
N3 C4 1_555 1_555
N4 C8 1_555 1_555
N5 C9 1_555 1_555
N6 C19 1_555 1_555
N7 C20 1_555 1_555
N8 C23 1_555 1_555
N9 C27 1_555 1_555
N10 C28 1_555 1_555
C1 H1 1_555 1_555
C2 N1 1_555 1_555
H2 C2 1_555 1_555
C3 N2 1_555 1_555
H3 C3 1_555 1_555
C4 N2 1_555 1_555
C5 C4 1_555 1_555
H4 C5 1_555 1_555
C6 C5 1_555 1_555
H5 C6 1_555 1_555
C7 C6 1_555 1_555
H6 C7 1_555 1_555
C8 N3 1_555 1_555
C9 N4 1_555 1_555
H7 C9 1_555 1_555
C10 N4 1_555 1_555
H8 C10 1_555 1_555
C11 N5 1_555 1_555
H9 C11 1_555 1_555
C12 N5 1_555 1_555
H10 C12 1_555 1_555
H11 C12 1_555 1_555
C13 C12 1_555 1_555
C14 C13 1_555 1_555
H12 C14 1_555 1_555
C15 C14 1_555 1_555
H13 C15 1_555 1_555
C16 C15 1_555 1_555
H14 C16 1_555 1_555
C17 C16 1_555 1_555
C18 C13 1_555 1_555
H15 C18 1_555 1_555
C19 C17 1_555 1_555
H16 C19 1_555 1_555
H17 C19 1_555 1_555
C20 N6 1_555 1_555
H18 C20 1_555 1_555
C21 N6 1_555 1_555
H19 C21 1_555 1_555
C22 N7 1_555 1_555
H20 C22 1_555 1_555
C23 N7 1_555 1_555
C24 C23 1_555 1_555
H21 C24 1_555 1_555
C25 C24 1_555 1_555
H22 C25 1_555 1_555
C26 C25 1_555 1_555
H23 C26 1_555 1_555
C27 N8 1_555 1_555
C28 N9 1_555 1_555
H24 C28 1_555 1_555
C29 N9 1_555 1_555
H25 C29 1_555 1_555
C30 N10 1_555 1_555
H26 C30 1_555 1_555
C31 N10 1_555 1_555
H27 C31 1_555 1_555
H28 C31 1_555 1_555
C32 H29 1_555 1_555
C33 C31 1_555 1_555
C34 C33 1_555 1_555
H30 C34 1_555 1_555
C35 C34 1_555 1_555
H31 C35 1_555 1_555
C36 C35 1_555 1_555
H32 C36 1_555 1_555
C37 C32 1_555 1_555
C38 N1 1_555 1_555
H33 C38 1_555 1_555
H34 C38 1_555 1_555
N11 C39 1_555 1_555
C39 H35 1_555 1_555
C40 N11 1_555 1_555
H36 C40 1_555 1_555
H37 C40 1_555 1_555
H38 C40 1_555 1_555
C41 N11 1_555 1_555
H39 C41 1_555 1_555
H40 C41 1_555 1_555
H41 C41 1_555 1_555
O1 C39 1_555 1_555
N12 C42 1_555 1_555
C42 H42 1_555 1_555
C43 N12 1_555 1_555
H43 C43 1_555 1_555
H44 C43 1_555 1_555
H45 C43 1_555 1_555
C44 N12 1_555 1_555
H46 C44 1_555 1_555
H47 C44 1_555 1_555
H48 C44 1_555 1_555
O2 C42 1_555 1_555
O3 H49 1_555 1_555
H50 O3 1_555 1_555
O4 H51 1_555 1_555
H52 O4 1_555 1_555
O5 H53 1_555 1_555
H54 O5 1_555 1_555
O6 H55 1_555 1_555
H56 O6 1_555 1_555
O7 H57 1_555 1_555
H58 O7 1_555 1_555
O8 H59 1_555 1_555
H60 O8 1_555 1_555
C2 C3 1_555 1_555
C7 C8 1_555 1_555
C10 C11 1_555 1_555
C17 C18 1_555 1_555
C21 C22 1_555 1_555
C26 C27 1_555 1_555
C29 C30 1_555 1_555
C32 C33 1_555 1_555
C36 C37 1_555 1_555
C37 C38 1_555 1_555

#END
