
#######################################################################
#
#                 Cambridge Crystallographic Data Centre
#                                CCDC 
#
#######################################################################
#
# If this CIF has been generated from an entry in the Cambridge 
# Structural Database, then it will include bibliographic, chemical, 
# crystal, experimental, refinement or atomic coordinate data resulting 
# from the CCDC's data processing and validation procedures.
#
#######################################################################

data_UGUNAN
_chemical_formula_moiety         '2(C20 H12),C6 H4 N2 O4'
_chemical_name_systematic        '1,4-dinitrobenzene bis(perylene)'
_symmetry_cell_setting           triclinic
_symmetry_space_group_name_H-M   'P -1'
_symmetry_Int_Tables_number      2
_space_group_name_Hall           '-P 1'
loop_
_symmetry_equiv_pos_site_id
_symmetry_equiv_pos_as_xyz
1 x,y,z
2 -x,-y,-z
_cell_length_a                   7.7488(12)
_cell_length_b                   9.7125(15)
_cell_length_c                   10.6864(17)
_cell_angle_alpha                80.829(7)
_cell_angle_beta                 84.943(7)
_cell_angle_gamma                89.495(6)
_cell_volume                     790.878
_exptl_crystal_colour            black
_exptl_crystal_description       platelet
_cell_formula_units_Z            1
loop_
_atom_site_label
_atom_site_type_symbol
_atom_site_fract_x
_atom_site_fract_y
_atom_site_fract_z
C1 C -0.0924(4) 0.0925(3) 1.5673(3)
H1 H -0.1535 0.1555 1.6111
C2 C 0.0750(4) 0.0452(3) 1.3775(3)
H2 H 0.1247 0.0770 1.2956
C3 C -0.0166(3) 0.1337(3) 1.4455(3)
O1 O 0.0320(3) 0.3154(2) 1.2768(3)
N1 N -0.0349(4) 0.2807(3) 1.3854(3)
O2 O -0.1177(3) 0.3579(2) 1.4462(3)
C1A C 0.0924(4) -0.0925(3) 1.4327(3)
H1A H 0.1535 -0.1555 1.3889
C2A C -0.0750(4) -0.0452(3) 1.6225(3)
H2A H -0.1247 -0.0770 1.7044
C3A C 0.0166(3) -0.1337(3) 1.5545(3)
O1A O -0.0320(3) -0.3154(2) 1.7232(3)
N1A N 0.0349(4) -0.2807(3) 1.6146(3)
O2A O 0.1177(3) -0.3579(2) 1.5538(3)
C4 C 0.4047(3) 0.0927(3) 1.5745(2)
C5 C 0.4546(3) 0.2877(3) 1.3960(3)
C6 C 0.3139(3) 0.1841(3) 1.6425(3)
H3 H 0.2676 0.1519 1.7252
C7 C 0.2897(4) 0.3240(3) 1.5901(3)
H4 H 0.2270 0.3826 1.6378
C8 C 0.6244(4) 0.2546(3) 1.2025(3)
H5 H 0.6748 0.2905 1.1218
C9 C 0.5308(4) 0.3388(3) 1.2723(3)
H6 H 0.5164 0.4320 1.2382
C10 C 0.3551(3) -0.1133(3) 1.7478(2)
H7 H 0.2916 -0.0565 1.7970
C11 C 0.3570(4) 0.3745(3) 1.4704(3)
H8 H 0.3390 0.4673 1.4366
C12 C 0.4775(3) 0.1441(3) 1.4482(2)
C13 C 0.4265(3) -0.0560(3) 1.6278(2)
C4A C 0.5953(3) -0.0927(3) 1.4255(2)
C5A C 0.5454(3) -0.2877(3) 1.6040(3)
C6A C 0.6861(3) -0.1841(3) 1.3575(3)
H3A H 0.7324 -0.1519 1.2748
C7A C 0.7103(4) -0.3240(3) 1.4099(3)
H4A H 0.7730 -0.3826 1.3622
C8A C 0.3756(4) -0.2546(3) 1.7975(3)
H5A H 0.3252 -0.2905 1.8782
C9A C 0.4692(4) -0.3388(3) 1.7277(3)
H6A H 0.4836 -0.4320 1.7618
C10A C 0.6449(3) 0.1133(3) 1.2522(2)
H7A H 0.7084 0.0565 1.2030
C11A C 0.6430(4) -0.3745(3) 1.5296(3)
H8A H 0.6610 -0.4673 1.5634
C12A C 0.5225(3) -0.1441(3) 1.5518(2)
C13A C 0.5735(3) 0.0560(3) 1.3722(2)
C14 C 0.1514(3) 0.9442(3) 1.0619(2)
C15 C 0.0109(3) 0.8537(3) 1.0495(2)
C16 C 0.0220(3) 0.7083(3) 1.0993(2)
C17 C 0.1710(4) 0.6578(3) 1.1598(2)
H9 H 0.1782 0.5636 1.1929
C18 C 0.2936(4) 0.8879(3) 1.1204(3)
H10 H 0.3859 0.9461 1.1271
C19 C -0.2678(4) 0.8108(3) 0.9777(3)
H11 H -0.3652 0.8425 0.9370
C20 C -0.1149(4) 0.6189(3) 1.0864(3)
H12 H -0.1091 0.5245 1.1191
C21 C -0.2552(4) 0.6688(3) 1.0268(3)
H13 H -0.3441 0.6081 1.0184
C22 C 0.3031(4) 0.7449(3) 1.1701(3)
H14 H 0.3999 0.7103 1.2101
C23 C -0.1395(3) 0.9049(3) 0.9882(2)
C14A C -0.1514(3) 1.0558(3) 0.9381(2)
C15A C -0.0109(3) 1.1463(3) 0.9505(2)
C16A C -0.0220(3) 1.2917(3) 0.9007(2)
C17A C -0.1710(4) 1.3422(3) 0.8402(2)
H9A H -0.1782 1.4364 0.8071
C18A C -0.2936(4) 1.1121(3) 0.8796(3)
H10A H -0.3859 1.0539 0.8729
C19A C 0.2678(4) 1.1892(3) 1.0223(3)
H11A H 0.3652 1.1575 1.0630
C20A C 0.1149(4) 1.3811(3) 0.9136(3)
H12A H 0.1091 1.4755 0.8809
C21A C 0.2552(4) 1.3312(3) 0.9732(3)
H13A H 0.3441 1.3919 0.9816
C22A C -0.3031(4) 1.2551(3) 0.8299(3)
H14A H -0.3999 1.2897 0.7899
C23A C 0.1395(3) 1.0951(3) 1.0118(2)
loop_
_geom_bond_atom_site_label_1
_geom_bond_atom_site_label_2
_geom_bond_site_symmetry_1
_geom_bond_site_symmetry_2
C1 H1 1_555 1_555
C2 H2 1_555 1_555
C3 C1 1_555 1_555
O1 N1 1_555 1_555
N1 C3 1_555 1_555
O2 N1 1_555 1_555
C4 C6 1_555 1_555
C5 C9 1_555 1_555
C6 H3 1_555 1_555
C7 C6 1_555 1_555
H4 C7 1_555 1_555
C8 H5 1_555 1_555
C9 C8 1_555 1_555
H6 C9 1_555 1_555
C10 H7 1_555 1_555
C11 C5 1_555 1_555
H8 C11 1_555 1_555
C12 C4 1_555 1_555
C13 C4 1_555 1_555
C14 C15 1_555 1_555
C15 C16 1_555 1_555
C16 C17 1_555 1_555
C17 H9 1_555 1_555
C18 C14 1_555 1_555
H10 C18 1_555 1_555
C19 H11 1_555 1_555
C20 C16 1_555 1_555
H12 C20 1_555 1_555
C21 C19 1_555 1_555
H13 C21 1_555 1_555
C22 C17 1_555 1_555
H14 C22 1_555 1_555
C23 C15 1_555 1_555
C1A C2 1_555 1_555
H1A C1A 1_555 1_555
C2A C1 1_555 1_555
H2A C2A 1_555 1_555
C3A C1A 1_555 1_555
O1A N1A 1_555 1_555
N1A C3A 1_555 1_555
O2A N1A 1_555 1_555
C4A C6A 1_555 1_555
C5A C9A 1_555 1_555
C6A H3A 1_555 1_555
C7A C6A 1_555 1_555
H4A C7A 1_555 1_555
C8A C10 1_555 1_555
H5A C8A 1_555 1_555
C9A C8A 1_555 1_555
H6A C9A 1_555 1_555
C10A C8 1_555 1_555
H7A C10A 1_555 1_555
C11A C5A 1_555 1_555
H8A C11A 1_555 1_555
C12A C13 1_555 1_555
C13A C12 1_555 1_555
C14A C23 1_555 1_555
C15A C14A 1_555 1_555
C16A C15A 1_555 1_555
C17A C16A 1_555 1_555
H9A C17A 1_555 1_555
C18A C14A 1_555 1_555
H10A C18A 1_555 1_555
C19A H11A 1_555 1_555
C20A C16A 1_555 1_555
H12A C20A 1_555 1_555
C21A C19A 1_555 1_555
H13A C21A 1_555 1_555
C22A C17A 1_555 1_555
H14A C22A 1_555 1_555
C23A C14 1_555 1_555
C2 C3 1_555 1_555
C5 C12 1_555 1_555
C7 C11 1_555 1_555
C10 C13 1_555 1_555
C18 C22 1_555 1_555
C19 C23 1_555 1_555
C20 C21 1_555 1_555
C2A C3A 1_555 1_555
C4A C12A 1_555 1_555
C4A C13A 1_555 1_555
C5A C12A 1_555 1_555
C7A C11A 1_555 1_555
C10A C13A 1_555 1_555
C15A C23A 1_555 1_555
C18A C22A 1_555 1_555
C19A C23A 1_555 1_555
C20A C21A 1_555 1_555

#END
