
#######################################################################
#
#                 Cambridge Crystallographic Data Centre
#                                CCDC 
#
#######################################################################
#
# If this CIF has been generated from an entry in the Cambridge 
# Structural Database, then it will include bibliographic, chemical, 
# crystal, experimental, refinement or atomic coordinate data resulting 
# from the CCDC's data processing and validation procedures.
#
#######################################################################

data_UGUQIY
_chemical_formula_moiety         'C14 H11 Cl2 N3 O2'
_chemical_name_systematic        'N,N-bis(4-chlorophenyl)dicarbonimidic diamide'
_symmetry_cell_setting           monoclinic
_symmetry_space_group_name_H-M   'P 21/c'
_symmetry_Int_Tables_number      14
_space_group_name_Hall           '-P 2ybc'
loop_
_symmetry_equiv_pos_site_id
_symmetry_equiv_pos_as_xyz
1 x,y,z
2 -x,1/2+y,1/2-z
3 -x,-y,-z
4 x,1/2-y,1/2+z
_cell_length_a                   22.8698(6)
_cell_length_b                   9.4632(3)
_cell_length_c                   13.9554(5)
_cell_angle_alpha                90
_cell_angle_beta                 104.641(3)
_cell_angle_gamma                90
_cell_volume                     2922.18
_exptl_crystal_description       block
_cell_formula_units_Z            8
loop_
_atom_site_label
_atom_site_type_symbol
_atom_site_fract_x
_atom_site_fract_y
_atom_site_fract_z
Cl1 Cl 0.10625(3) 0.66136(9) 0.38163(7)
Cl2 Cl -0.42711(4) 0.46329(11) 0.54623(9)
O1 O -0.18013(8) 0.53925(19) 0.42388(15)
N1 N -0.13272(9) 0.3926(2) 0.33771(17)
H1 H -0.1380 0.3170 0.3024
N2 N -0.23049(9) 0.3441(2) 0.35289(17)
O2 O -0.20282(8) 0.1899(2) 0.24401(15)
C1 C -0.23998(12) 0.2268(3) 0.2888(2)
N3 N -0.29252(10) 0.1599(2) 0.27832(19)
H2 H -0.3012 0.0885 0.2392
H3 H -0.3177 0.1882 0.3107
C2 C -0.17892(11) 0.4344(3) 0.37454(19)
C3 C -0.27689(10) 0.3805(3) 0.40150(19)
C4 C -0.28227(11) 0.3005(3) 0.4815(2)
H4 H -0.2545 0.2291 0.5057
C5 C -0.07642(11) 0.4611(3) 0.3517(2)
C6 C -0.32902(12) 0.3265(3) 0.5259(2)
H5 H -0.3333 0.2719 0.5791
C7 C -0.06540(12) 0.5984(3) 0.3859(2)
H6 H -0.0960 0.6503 0.4025
C8 C 0.02583(12) 0.4475(4) 0.3353(2)
H7 H 0.0564 0.3969 0.3176
C9 C -0.00907(12) 0.6586(3) 0.3955(2)
H8 H -0.0017 0.7505 0.4191
C10 C -0.36840(11) 0.4327(3) 0.4905(2)
C11 C -0.03020(12) 0.3872(3) 0.3269(2)
H9 H -0.0370 0.2949 0.3040
C12 C -0.31667(13) 0.4871(3) 0.3684(2)
H10 H -0.3127 0.5420 0.3151
C13 C 0.03570(11) 0.5829(3) 0.3702(2)
C14 C -0.36302(13) 0.5150(3) 0.4129(3)
H11 H -0.3900 0.5884 0.3904
Cl3 Cl 0.39781(3) 0.43025(10) 0.15045(7)
Cl4 Cl 0.92133(4) 0.47766(11) -0.07174(8)
N4 N 0.63292(10) 0.6710(2) 0.12837(18)
H12 H 0.6353 0.7603 0.1403
O3 O 0.68690(9) 0.48814(19) 0.08938(18)
O4 O 0.70406(8) 0.8856(2) 0.19353(15)
C15 C 0.68144(12) 0.6113(3) 0.1067(2)
C16 C 0.73677(11) 0.8416(3) 0.14257(19)
N5 N 0.78174(10) 0.9181(2) 0.12422(18)
H13 H 0.7887 1.0018 0.1484
H14 H 0.8037 0.8837 0.0882
N6 N 0.72908(9) 0.7064(2) 0.09995(16)
C17 C 0.77535(11) 0.6479(2) 0.0584(2)
C18 C 0.81222(12) 0.5905(3) -0.0821(2)
H15 H 0.8067 0.5875 -0.1504
C19 C 0.46790(12) 0.4974(3) 0.1447(2)
C20 C 0.86458(12) 0.5430(3) -0.0219(2)
C21 C 0.57847(11) 0.6048(3) 0.1339(2)
C22 C 0.76693(11) 0.6433(3) -0.0430(2)
H16 H 0.7310 0.6755 -0.0847
C23 C 0.47873(13) 0.6390(4) 0.1573(2)
H17 H 0.4493 0.6988 0.1701
C24 C 0.53397(13) 0.6927(3) 0.1510(2)
H18 H 0.5412 0.7893 0.1585
C25 C 0.51126(13) 0.4086(3) 0.1272(3)
H19 H 0.5036 0.3122 0.1192
C26 C 0.56659(13) 0.4622(3) 0.1214(3)
H20 H 0.5959 0.4017 0.1091
C27 C 0.82893(14) 0.6005(3) 0.1191(2)
H21 H 0.8349 0.6038 0.1875
C28 C 0.87373(14) 0.5484(4) 0.0791(3)
H22 H 0.9100 0.5169 0.1203
loop_
_geom_bond_atom_site_label_1
_geom_bond_atom_site_label_2
_geom_bond_site_symmetry_1
_geom_bond_site_symmetry_2
Cl1 C13 1_555 1_555
Cl2 C10 1_555 1_555
O1 C2 1_555 1_555
N1 H1 1_555 1_555
N2 C1 1_555 1_555
O2 C1 1_555 1_555
C1 N3 1_555 1_555
N3 H2 1_555 1_555
H3 N3 1_555 1_555
C2 N1 1_555 1_555
C3 N2 1_555 1_555
C4 C3 1_555 1_555
H4 C4 1_555 1_555
C5 N1 1_555 1_555
C6 C4 1_555 1_555
H5 C6 1_555 1_555
C7 C5 1_555 1_555
H6 C7 1_555 1_555
C8 H7 1_555 1_555
C9 C7 1_555 1_555
H8 C9 1_555 1_555
C10 C6 1_555 1_555
C11 C5 1_555 1_555
H9 C11 1_555 1_555
C12 C3 1_555 1_555
H10 C12 1_555 1_555
C13 C8 1_555 1_555
C14 C10 1_555 1_555
H11 C14 1_555 1_555
Cl3 C19 1_555 1_555
Cl4 C20 1_555 1_555
N4 H12 1_555 1_555
O3 C15 1_555 1_555
O4 C16 1_555 1_555
C15 N4 1_555 1_555
C16 N5 1_555 1_555
N5 H13 1_555 1_555
H14 N5 1_555 1_555
N6 C15 1_555 1_555
C17 N6 1_555 1_555
C18 H15 1_555 1_555
C19 C23 1_555 1_555
C20 C18 1_555 1_555
C21 N4 1_555 1_555
C22 C17 1_555 1_555
H16 C22 1_555 1_555
C23 H17 1_555 1_555
C24 C21 1_555 1_555
H18 C24 1_555 1_555
C25 C19 1_555 1_555
H19 C25 1_555 1_555
C26 C21 1_555 1_555
H20 C26 1_555 1_555
C27 C17 1_555 1_555
H21 C27 1_555 1_555
C28 C20 1_555 1_555
H22 C28 1_555 1_555
N2 C2 1_555 1_555
C8 C11 1_555 1_555
C9 C13 1_555 1_555
C12 C14 1_555 1_555
C16 N6 1_555 1_555
C18 C22 1_555 1_555
C23 C24 1_555 1_555
C25 C26 1_555 1_555
C27 C28 1_555 1_555

#END
