
#######################################################################
#
#                 Cambridge Crystallographic Data Centre
#                                CCDC 
#
#######################################################################
#
# If this CIF has been generated from an entry in the Cambridge 
# Structural Database, then it will include bibliographic, chemical, 
# crystal, experimental, refinement or atomic coordinate data resulting 
# from the CCDC's data processing and validation procedures.
#
#######################################################################

data_UGUQAQ
_chemical_formula_moiety         'C15 H13 Cl1 N2 O2 S1'
_chemical_name_systematic        
'methyl (4-chlorophenyl)(phenylcarbamothioyl)carbamate'
_symmetry_cell_setting           monoclinic
_symmetry_space_group_name_H-M   'P 21/c'
_symmetry_Int_Tables_number      14
_space_group_name_Hall           '-P 2ybc'
loop_
_symmetry_equiv_pos_site_id
_symmetry_equiv_pos_as_xyz
1 x,y,z
2 -x,1/2+y,1/2-z
3 -x,-y,-z
4 x,1/2-y,1/2+z
_cell_length_a                   13.5423(4)
_cell_length_b                   8.0474(2)
_cell_length_c                   14.6861(5)
_cell_angle_alpha                90
_cell_angle_beta                 105.092(3)
_cell_angle_gamma                90
_cell_volume                     1545.29
_exptl_crystal_description       block
_cell_formula_units_Z            4
loop_
_atom_site_label
_atom_site_type_symbol
_atom_site_fract_x
_atom_site_fract_y
_atom_site_fract_z
S1 S 0.45620(3) 0.04999(5) 0.63408(3)
N1 N 0.54329(8) 0.34653(13) 0.63796(8)
O1 O 0.64412(8) 0.56853(12) 0.64568(8)
N2 N 0.36612(9) 0.34610(16) 0.60044(10)
H1 H 0.3755 0.4517 0.5998
O2 O 0.47506(9) 0.60927(13) 0.60042(8)
C1 C 0.54809(11) 0.51763(17) 0.62615(10)
C2 C 0.63945(10) 0.25498(16) 0.66176(10)
C3 C 0.69222(11) 0.23500(19) 0.75476(10)
H2 H 0.6660 0.2775 0.8025
C4 C 0.78430(12) 0.1514(2) 0.77657(12)
H3 H 0.8205 0.1367 0.8392
C5 C 0.45151(10) 0.25458(18) 0.62391(9)
C6 C 0.82199(11) 0.0902(2) 0.70515(12)
C7 C 0.67753(11) 0.19385(18) 0.59038(10)
H4 H 0.6414 0.2087 0.5278
C8 C 0.26217(11) 0.2943(2) 0.57643(11)
C9 C 0.76971(12) 0.1103(2) 0.61209(12)
H5 H 0.7962 0.0682 0.5644
C10 C 0.22514(13) 0.1668(2) 0.62038(13)
H6 H 0.2693 0.1041 0.6668
C11 C 0.19559(13) 0.3867(3) 0.50744(13)
H7 H 0.2204 0.4735 0.4779
C12 C 0.05624(15) 0.2243(3) 0.52618(18)
H8 H -0.0133 0.2003 0.5094
C13 C 0.12159(14) 0.1329(3) 0.59474(16)
H9 H 0.0960 0.0472 0.6244
C14 C 0.09303(15) 0.3503(3) 0.48249(16)
H10 H 0.0486 0.4119 0.4357
Cl1 Cl 0.93571(4) -0.02184(8) 0.73284(4)
C15 C 0.65833(13) 0.74758(19) 0.64165(13)
H11 H 0.7301 0.7725 0.6568
H12 H 0.6282 0.8013 0.6862
H13 H 0.6261 0.7870 0.5793
loop_
_geom_bond_atom_site_label_1
_geom_bond_atom_site_label_2
_geom_bond_site_symmetry_1
_geom_bond_site_symmetry_2
S1 C5 1_555 1_555
N1 C1 1_555 1_555
O1 C1 1_555 1_555
N2 H1 1_555 1_555
O2 C1 1_555 1_555
C2 N1 1_555 1_555
C3 C2 1_555 1_555
H2 C3 1_555 1_555
C4 C3 1_555 1_555
H3 C4 1_555 1_555
C5 N1 1_555 1_555
C6 C4 1_555 1_555
C7 C2 1_555 1_555
H4 C7 1_555 1_555
C8 N2 1_555 1_555
C9 C6 1_555 1_555
H5 C9 1_555 1_555
C10 C8 1_555 1_555
H6 C10 1_555 1_555
C11 C8 1_555 1_555
H7 C11 1_555 1_555
C12 H8 1_555 1_555
C13 C10 1_555 1_555
H9 C13 1_555 1_555
C14 C11 1_555 1_555
H10 C14 1_555 1_555
Cl1 C6 1_555 1_555
C15 O1 1_555 1_555
H11 C15 1_555 1_555
H12 C15 1_555 1_555
H13 C15 1_555 1_555
N2 C5 1_555 1_555
C7 C9 1_555 1_555
C12 C13 1_555 1_555
C12 C14 1_555 1_555

#END
