
#######################################################################
#
#                 Cambridge Crystallographic Data Centre
#                                CCDC 
#
#######################################################################
#
# If this CIF has been generated from an entry in the Cambridge 
# Structural Database, then it will include bibliographic, chemical, 
# crystal, experimental, refinement or atomic coordinate data resulting 
# from the CCDC's data processing and validation procedures.
#
#######################################################################

data_UHAHES
_chemical_formula_moiety         'C27 H27 N3 O3,2(H2 O1)'
_chemical_name_systematic        
"1,1',1''-((2,4,6-trimethylbenzene-1,3,5-triyl)tris(methylene))tripyridin-4(1H)-one dihydrate"
_symmetry_cell_setting           monoclinic
_symmetry_space_group_name_H-M   'P 21/n'
_symmetry_Int_Tables_number      14
_space_group_name_Hall           '-P 2yn'
loop_
_symmetry_equiv_pos_site_id
_symmetry_equiv_pos_as_xyz
1 x,y,z
2 1/2-x,1/2+y,1/2-z
3 -x,-y,-z
4 1/2+x,1/2-y,1/2+z
_cell_length_a                   12.2234(11)
_cell_length_b                   14.6330(12)
_cell_length_c                   13.0904(11)
_cell_angle_alpha                90
_cell_angle_beta                 92.075(8)
_cell_angle_gamma                90
_cell_volume                     2339.88
_exptl_crystal_colour            colorless
_exptl_crystal_description       Block
_cell_formula_units_Z            4
loop_
_atom_site_label
_atom_site_type_symbol
_atom_site_fract_x
_atom_site_fract_y
_atom_site_fract_z
O1 O 0.17503(18) 0.52450(15) 0.60312(15)
O2 O 0.67181(17) 0.26867(15) 0.01474(17)
N1 N -0.00901(19) 0.14187(16) 0.08204(18)
N2 N 0.0661(2) 0.52735(16) 0.30391(17)
N3 N 0.3711(2) 0.38500(17) -0.04366(18)
O3 O 0.0809(2) -0.10355(16) 0.20897(17)
C1 C 0.0478(2) 0.4537(2) 0.1314(2)
C2 C 0.5788(3) 0.3059(2) -0.0032(2)
C3 C 0.4115(3) 0.3762(2) 0.0541(2)
H1 H 0.3696 0.3962 0.1076
C4 C 0.1398(2) 0.4455(2) 0.4476(2)
H2 H 0.1645 0.3903 0.4750
C5 C 0.1410(2) 0.4725(2) 0.0744(2)
C6 C 0.1164(2) 0.32680(19) -0.0143(2)
C7 C 0.1736(2) 0.4093(2) 0.0007(2)
C8 C -0.0088(2) 0.3710(2) 0.1184(2)
C9 C 0.5118(3) 0.3388(2) 0.0757(2)
H3 H 0.5371 0.3348 0.1434
C10 C 0.1103(3) 0.6077(2) 0.4575(2)
H4 H 0.1155 0.6634 0.4915
C11 C -0.0810(3) 0.0710(2) 0.0860(2)
H5 H -0.1507 0.0784 0.0564
C12 C 0.0716(2) 0.6061(2) 0.3597(2)
H6 H 0.0478 0.6604 0.3293
C13 C 0.4335(3) 0.3555(2) -0.1220(2)
H7 H 0.4069 0.3624 -0.1890
C14 C 0.0528(3) -0.0268(2) 0.1722(2)
C15 C 0.1009(2) 0.4484(2) 0.3497(2)
H8 H 0.0978 0.3944 0.3121
C16 C 0.0251(2) 0.3090(2) 0.0437(2)
C17 C 0.2041(3) 0.5606(2) 0.0916(2)
H9 H 0.2648 0.5623 0.0471
H10 H 0.2308 0.5635 0.1614
H11 H 0.1568 0.6117 0.0772
C18 C -0.0432(3) 0.2242(2) 0.0217(2)
H12 H -0.1189 0.2378 0.0355
H13 H -0.0396 0.2098 -0.0504
C19 C 0.0072(3) 0.5259(2) 0.2034(2)
H14 H 0.0143 0.5853 0.1716
H15 H -0.0699 0.5155 0.2139
C20 C 0.2666(2) 0.4330(2) -0.0684(2)
H16 H 0.2439 0.4187 -0.1383
H17 H 0.2795 0.4983 -0.0646
C21 C 0.5327(3) 0.3167(2) -0.1043(2)
H18 H 0.5721 0.2965 -0.1595
C22 C 0.1535(3) 0.2578(2) -0.0919(2)
H19 H 0.2168 0.2808 -0.1248
H20 H 0.0957 0.2475 -0.1421
H21 H 0.1716 0.2014 -0.0579
C23 C 0.1435(2) 0.5262(2) 0.5103(2)
C24 C 0.0932(3) 0.1303(2) 0.1243(2)
H22 H 0.1426 0.1786 0.1233
C25 C -0.0553(3) -0.0096(2) 0.1312(2)
H23 H -0.1087 -0.0545 0.1358
C26 C 0.1253(3) 0.0499(2) 0.1680(2)
H24 H 0.1960 0.0446 0.1960
C27 C -0.1049(2) 0.3475(2) 0.1834(2)
H25 H -0.1174 0.3965 0.2302
H26 H -0.0892 0.2924 0.2210
H27 H -0.1691 0.3385 0.1401
O4 O 0.2413(2) -0.23603(17) 0.20090(19)
O5 O 0.2040(2) 0.35197(17) 0.68852(16)
loop_
_geom_bond_atom_site_label_1
_geom_bond_atom_site_label_2
_geom_bond_site_symmetry_1
_geom_bond_site_symmetry_2
O1 C23 1_555 1_555
O2 C2 1_555 1_555
N1 C11 1_555 1_555
N2 C12 1_555 1_555
N3 C3 1_555 1_555
O3 C14 1_555 1_555
C1 C5 1_555 1_555
C2 C9 1_555 1_555
C3 H1 1_555 1_555
C4 H2 1_555 1_555
C5 C7 1_555 1_555
C6 C7 1_555 1_555
C7 C20 1_555 1_555
C8 C1 1_555 1_555
C9 C3 1_555 1_555
H3 C9 1_555 1_555
C10 H4 1_555 1_555
C11 H5 1_555 1_555
C12 C10 1_555 1_555
H6 C12 1_555 1_555
C13 N3 1_555 1_555
H7 C13 1_555 1_555
C14 C25 1_555 1_555
C15 N2 1_555 1_555
H8 C15 1_555 1_555
C16 C6 1_555 1_555
C17 C5 1_555 1_555
H9 C17 1_555 1_555
H10 C17 1_555 1_555
H11 C17 1_555 1_555
C18 N1 1_555 1_555
H12 C18 1_555 1_555
H13 C18 1_555 1_555
C19 N2 1_555 1_555
H14 C19 1_555 1_555
H15 C19 1_555 1_555
C20 N3 1_555 1_555
H16 C20 1_555 1_555
H17 C20 1_555 1_555
C21 C2 1_555 1_555
H18 C21 1_555 1_555
C22 C6 1_555 1_555
H19 C22 1_555 1_555
H20 C22 1_555 1_555
H21 C22 1_555 1_555
C23 C4 1_555 1_555
C24 N1 1_555 1_555
H22 C24 1_555 1_555
C25 C11 1_555 1_555
H23 C25 1_555 1_555
C26 C14 1_555 1_555
H24 C26 1_555 1_555
C27 C8 1_555 1_555
H25 C27 1_555 1_555
H26 C27 1_555 1_555
H27 C27 1_555 1_555
C1 C19 1_555 1_555
C4 C15 1_555 1_555
C8 C16 1_555 1_555
C10 C23 1_555 1_555
C13 C21 1_555 1_555
C16 C18 1_555 1_555
C24 C26 1_555 1_555

#END
