
#######################################################################
#
#                 Cambridge Crystallographic Data Centre
#                                CCDC 
#
#######################################################################
#
# If this CIF has been generated from an entry in the Cambridge 
# Structural Database, then it will include bibliographic, chemical, 
# crystal, experimental, refinement or atomic coordinate data resulting 
# from the CCDC's data processing and validation procedures.
#
#######################################################################

data_UHATIG
_chemical_formula_moiety         'C1 H6 B11 Br6 1-,C4 H9 O1 1+,C4 H8 O1'
_chemical_name_systematic        
'bis(Tetrahydrofuran)hydronium hexabromo-carbadodecaborane(6)'
_symmetry_cell_setting           monoclinic
_symmetry_space_group_name_H-M   'P 21/n'
_symmetry_Int_Tables_number      14
_space_group_name_Hall           '-P 2yn'
loop_
_symmetry_equiv_pos_site_id
_symmetry_equiv_pos_as_xyz
1 x,y,z
2 1/2+x,1/2-y,1/2+z
3 -x,-y,-z
4 1/2-x,1/2+y,1/2-z
_cell_length_a                   12.15240(10)
_cell_length_b                   24.9529(2)
_cell_length_c                   17.1935(2)
_cell_angle_alpha                90
_cell_angle_beta                 108.350(1)
_cell_angle_gamma                90
_cell_volume                     4948.6
_exptl_crystal_colour            brown
_exptl_crystal_description       irregular
_cell_formula_units_Z            8
_exptl_crystal_recrystallization_method tetrahydrofuran/benzene
loop_
_atom_site_label
_atom_site_type_symbol
_atom_site_fract_x
_atom_site_fract_y
_atom_site_fract_z
Br1 Br 0.76870(7) -0.05977(3) 0.82614(5)
Br2 Br 0.53936(7) -0.00001(3) 0.63411(5)
Br3 Br 0.65320(8) 0.13398(3) 0.58684(5)
Br4 Br 0.95122(7) 0.16065(3) 0.74960(6)
Br5 Br 1.02112(7) 0.03997(4) 0.89608(5)
Br6 Br 0.86590(7) 0.01782(3) 0.66486(5)
B1 B 0.7555(8) 0.0615(4) 0.8925(5)
H1 H 0.7751 0.0469 0.9564
B2 B 0.6201(8) 0.0494(3) 0.8183(5)
H2 H 0.5511 0.0268 0.8338
B3 B 0.5863(7) 0.1049(3) 0.7509(5)
H3 H 0.4955 0.1185 0.7224
B4 B 0.7042(7) 0.1510(3) 0.7828(5)
H4 H 0.6905 0.1949 0.7749
B5 B 0.8075(7) 0.1240(3) 0.8706(5)
H5 H 0.8612 0.1502 0.9202
B6 B 0.7443(6) 0.0176(3) 0.8090(5)
B7 B 0.6405(7) 0.0445(3) 0.7212(5)
B8 B 0.6928(7) 0.1077(3) 0.6988(5)
B9 B 0.8285(7) 0.1194(3) 0.7731(5)
B10 B 0.8628(6) 0.0639(3) 0.8427(5)
B11 B 0.7903(6) 0.0535(3) 0.7347(5)
C1 C 0.6642(6) 0.1125(3) 0.8509(4)
H6 H 0.6206 0.1330 0.8905
Br7 Br 0.10381(8) -0.26976(3) 0.84169(6)
Br8 Br 0.01992(7) -0.23643(3) 0.61503(5)
Br9 Br 0.22050(8) -0.12274(4) 0.58494(5)
Br10 Br 0.43324(6) -0.08845(3) 0.79664(5)
Br11 Br 0.36235(6) -0.17988(3) 0.95654(4)
Br12 Br 0.34350(6) -0.23527(3) 0.74440(5)
B12 B 0.1948(7) -0.0884(3) 0.8445(5)
H7 H 0.2297 -0.0574 0.8922
B13 B 0.1007(7) -0.1403(3) 0.8568(5)
H8 H 0.0743 -0.1432 0.9129
B14 B 0.0037(7) -0.1559(3) 0.7598(5)
H9 H -0.0866 -0.1688 0.7519
B15 B 0.0357(7) -0.1148(3) 0.6862(5)
H10 H -0.0332 -0.1009 0.6305
B16 B 0.1544(7) -0.0727(3) 0.7381(5)
H11 H 0.1627 -0.0315 0.7161
B17 B 0.1242(7) -0.1978(3) 0.8050(5)
B18 B 0.0847(7) -0.1821(3) 0.6990(5)
B19 B 0.1787(7) -0.1306(3) 0.6862(5)
B20 B 0.2757(6) -0.1139(3) 0.7836(4)
B21 B 0.2427(6) -0.1558(3) 0.8569(4)
B22 B 0.2348(6) -0.1820(3) 0.7590(4)
C2 C 0.0540(5) -0.0930(3) 0.7835(4)
H12 H -0.0074 -0.0624 0.7923
O1 O 0.2668(6) -0.3783(3) 0.9539(5)
C3 C 0.2600(9) -0.4363(4) 0.9469(7)
H13 H 0.1958 -0.4473 0.8988
H14 H 0.2492 -0.4525 0.9960
C4 C 0.3721(18) -0.4518(6) 0.9383(11)
H15 H 0.4284 -0.4598 0.9919
H16 H 0.3636 -0.4835 0.9032
C5 C 0.4089(14) -0.4061(6) 0.9013(8)
H17 H 0.4936 -0.4050 0.9164
H18 H 0.3764 -0.4077 0.8415
C6 C 0.3661(8) -0.3595(4) 0.9325(6)
H19 H 0.3433 -0.3314 0.8907
H20 H 0.4254 -0.3451 0.9808
O2 O 0.2230(6) -0.3414(3) 1.0670(4)
C7 C 0.1912(10) -0.2867(4) 1.0750(6)
H21 H 0.2586 -0.2661 1.1079
H22 H 0.1605 -0.2698 1.0210
C8 C 0.1062(13) -0.2888(5) 1.1141(11)
H23 H 0.1286 -0.2650 1.1618
H24 H 0.0327 -0.2757 1.0764
C9 C 0.0902(10) -0.3399(4) 1.1392(7)
H25 H 0.0074 -0.3486 1.1231
H26 H 0.1229 -0.3430 1.1989
C10 C 0.1509(9) -0.3765(4) 1.0982(7)
H27 H 0.1986 -0.4024 1.1373
H28 H 0.0952 -0.3960 1.0534
O3 O 0.6648(8) -0.1363(3) 1.0681(4)
C11 C 0.6468(11) -0.0879(5) 1.0202(6)
H29 H 0.7168 -0.0781 1.0067
H30 H 0.5822 -0.0919 0.9693
C12 C 0.6214(11) -0.0495(5) 1.0711(6)
H31 H 0.5383 -0.0494 1.0643
H32 H 0.6439 -0.0137 1.0582
C13 C 0.6908(8) -0.0653(4) 1.1580(5)
H33 H 0.7678 -0.0486 1.1746
H34 H 0.6504 -0.0550 1.1969
C14 C 0.6993(9) -0.1240(4) 1.1530(6)
H35 H 0.7790 -0.1360 1.1801
H36 H 0.6480 -0.1416 1.1792
O4 O 0.7399(12) -0.2094(4) 1.0151(5)
C15 C 0.8439(14) -0.1934(9) 1.0012(14)
H37 H 0.8570 -0.1550 1.0118
H38 H 0.9100 -0.2130 1.0378
C16 C 0.8323(13) -0.2049(5) 0.9191(12)
H39 H 0.8769 -0.2370 0.9152
H40 H 0.8598 -0.1748 0.8936
C17 C 0.7070(13) -0.2140(4) 0.8788(6)
H41 H 0.6678 -0.1807 0.8552
H42 H 0.6939 -0.2409 0.8353
C18 C 0.6674(10) -0.2324(5) 0.9427(8)
H43 H 0.5868 -0.2214 0.9332
H44 H 0.6716 -0.2716 0.9461
loop_
_geom_bond_atom_site_label_1
_geom_bond_atom_site_label_2
_geom_bond_site_symmetry_1
_geom_bond_site_symmetry_2
Br1 B6 1_555 1_555
Br2 B7 1_555 1_555
Br3 B8 1_555 1_555
Br4 B9 1_555 1_555
Br5 B10 1_555 1_555
Br6 B11 1_555 1_555
B1 H1 1_555 1_555
B2 B1 1_555 1_555
H2 B2 1_555 1_555
B3 B2 1_555 1_555
H3 B3 1_555 1_555
B4 B3 1_555 1_555
H4 B4 1_555 1_555
B5 B1 1_555 1_555
H5 B5 1_555 1_555
B6 B1 1_555 1_555
B7 B2 1_555 1_555
B8 B3 1_555 1_555
B9 B4 1_555 1_555
B10 B1 1_555 1_555
B11 B6 1_555 1_555
C1 B1 1_555 1_555
H6 C1 1_555 1_555
Br7 B17 1_555 1_555
Br8 B18 1_555 1_555
Br9 B19 1_555 1_555
Br10 B20 1_555 1_555
Br11 B21 1_555 1_555
Br12 B22 1_555 1_555
B12 H7 1_555 1_555
B13 B12 1_555 1_555
H8 B13 1_555 1_555
B14 B13 1_555 1_555
H9 B14 1_555 1_555
B15 B14 1_555 1_555
H10 B15 1_555 1_555
B16 B12 1_555 1_555
H11 B16 1_555 1_555
B17 B13 1_555 1_555
B18 B14 1_555 1_555
B19 B15 1_555 1_555
B20 B12 1_555 1_555
B21 B12 1_555 1_555
B22 B17 1_555 1_555
C2 B12 1_555 1_555
H12 C2 1_555 1_555
O1 C3 1_555 1_555
C3 H13 1_555 1_555
H14 C3 1_555 1_555
C4 C3 1_555 1_555
H15 C4 1_555 1_555
H16 C4 1_555 1_555
C5 C4 1_555 1_555
H17 C5 1_555 1_555
H18 C5 1_555 1_555
C6 O1 1_555 1_555
H19 C6 1_555 1_555
H20 C6 1_555 1_555
O2 C7 1_555 1_555
C7 H21 1_555 1_555
H22 C7 1_555 1_555
C8 C7 1_555 1_555
H23 C8 1_555 1_555
H24 C8 1_555 1_555
C9 C8 1_555 1_555
H25 C9 1_555 1_555
H26 C9 1_555 1_555
C10 O2 1_555 1_555
H27 C10 1_555 1_555
H28 C10 1_555 1_555
O3 C11 1_555 1_555
C11 H29 1_555 1_555
H30 C11 1_555 1_555
C12 C11 1_555 1_555
H31 C12 1_555 1_555
H32 C12 1_555 1_555
C13 C12 1_555 1_555
H33 C13 1_555 1_555
H34 C13 1_555 1_555
C14 O3 1_555 1_555
H35 C14 1_555 1_555
H36 C14 1_555 1_555
O4 C15 1_555 1_555
C15 H37 1_555 1_555
H38 C15 1_555 1_555
C16 C15 1_555 1_555
H39 C16 1_555 1_555
H40 C16 1_555 1_555
C17 C16 1_555 1_555
H41 C17 1_555 1_555
H42 C17 1_555 1_555
C18 O4 1_555 1_555
H43 C18 1_555 1_555
H44 C18 1_555 1_555
B2 B6 1_555 1_555
B2 C1 1_555 1_555
B3 B7 1_555 1_555
B3 C1 1_555 1_555
B4 B5 1_555 1_555
B4 B8 1_555 1_555
B4 C1 1_555 1_555
B5 B9 1_555 1_555
B5 B10 1_555 1_555
B5 C1 1_555 1_555
B6 B7 1_555 1_555
B6 B10 1_555 1_555
B7 B8 1_555 1_555
B7 B11 1_555 1_555
B8 B9 1_555 1_555
B8 B11 1_555 1_555
B9 B10 1_555 1_555
B9 B11 1_555 1_555
B10 B11 1_555 1_555
B13 B21 1_555 1_555
B13 C2 1_555 1_555
B14 B17 1_555 1_555
B14 C2 1_555 1_555
B15 B16 1_555 1_555
B15 B18 1_555 1_555
B15 C2 1_555 1_555
B16 B19 1_555 1_555
B16 B20 1_555 1_555
B16 C2 1_555 1_555
B17 B18 1_555 1_555
B17 B21 1_555 1_555
B18 B19 1_555 1_555
B18 B22 1_555 1_555
B19 B20 1_555 1_555
B19 B22 1_555 1_555
B20 B21 1_555 1_555
B20 B22 1_555 1_555
B21 B22 1_555 1_555
C5 C6 1_555 1_555
C9 C10 1_555 1_555
C13 C14 1_555 1_555
C17 C18 1_555 1_555

#END
