
#######################################################################
#
#                 Cambridge Crystallographic Data Centre
#                                CCDC 
#
#######################################################################
#
# If this CIF has been generated from an entry in the Cambridge 
# Structural Database, then it will include bibliographic, chemical, 
# crystal, experimental, refinement or atomic coordinate data resulting 
# from the CCDC's data processing and validation procedures.
#
#######################################################################

data_UHAVAA
_chemical_formula_moiety         'C4 H11 O1 1+,C1 H6 B11 Cl6 1-,H2 O1'
_chemical_name_systematic        
'(Diethyl ether)hydronium hexachloro-carbadodecaborane(6) monohydrate'
_symmetry_cell_setting           monoclinic
_symmetry_space_group_name_H-M   'P 21/n'
_symmetry_Int_Tables_number      14
_space_group_name_Hall           '-P 2yn'
loop_
_symmetry_equiv_pos_site_id
_symmetry_equiv_pos_as_xyz
1 x,y,z
2 1/2+x,1/2-y,1/2+z
3 -x,-y,-z
4 1/2-x,1/2+y,1/2-z
_cell_length_a                   23.374(5)
_cell_length_b                   15.107(4)
_cell_length_c                   23.804(5)
_cell_angle_alpha                90
_cell_angle_beta                 99.907(10)
_cell_angle_gamma                90
_cell_volume                     8280.12
_cell_formula_units_Z            16
_exptl_crystal_recrystallization_method 'diethyl ether'
loop_
_atom_site_label
_atom_site_type_symbol
_atom_site_fract_x
_atom_site_fract_y
_atom_site_fract_z
C1 C 0.6622(3) 0.7031(5) 0.1446(4)
H1 H 0.6895 0.6738 0.1834
B1 B 0.6974(4) 0.7499(6) 0.0943(4)
H2 H 0.7456 0.7536 0.0971
B2 B 0.6593(3) 0.6479(6) 0.0813(4)
H3 H 0.6824 0.5844 0.0755
B3 B 0.5984(3) 0.6509(6) 0.1173(4)
H4 H 0.5819 0.5894 0.1354
B4 B 0.5989(3) 0.7545(6) 0.1525(4)
H5 H 0.5820 0.7610 0.1936
B5 B 0.6605(3) 0.8149(6) 0.1394(4)
H6 H 0.6846 0.8612 0.1720
B6 B 0.6514(3) 0.8358(6) 0.0653(4)
B7 B 0.6508(4) 0.7331(6) 0.0291(4)
B8 B 0.5878(4) 0.6716(6) 0.0432(4)
B9 B 0.5524(3) 0.7380(6) 0.0871(4)
B10 B 0.5908(3) 0.8387(6) 0.1016(4)
B11 B 0.5833(3) 0.7885(6) 0.0331(4)
Cl1 Cl 0.67767(8) 0.93609(14) 0.03729(9)
Cl2 Cl 0.67734(9) 0.72289(16) -0.03662(10)
Cl3 Cl 0.54824(8) 0.59662(14) -0.00728(9)
Cl4 Cl 0.47436(8) 0.73442(15) 0.08206(11)
Cl5 Cl 0.55407(8) 0.94243(14) 0.11082(10)
Cl6 Cl 0.53967(8) 0.83866(14) -0.02827(9)
C2 C 0.5912(3) 0.2857(6) 0.0979(4)
H7 H 0.5459 0.2929 0.0738
B12 B 0.6433(4) 0.2786(6) 0.0589(5)
H8 H 0.6365 0.2805 0.0112
B13 B 0.6222(4) 0.1853(7) 0.0951(5)
H9 H 0.6016 0.1263 0.0713
B14 B 0.6005(4) 0.2231(7) 0.1591(5)
H10 H 0.5657 0.1884 0.1777
B15 B 0.6076(4) 0.3421(7) 0.1611(5)
H11 H 0.5772 0.3852 0.1806
B16 B 0.6342(4) 0.3748(6) 0.0990(4)
H12 H 0.6214 0.4397 0.0778
B17 B 0.7051(4) 0.3288(6) 0.1020(4)
B18 B 0.6972(3) 0.2106(6) 0.1003(4)
B19 B 0.6692(3) 0.1764(6) 0.1617(4)
B20 B 0.6598(3) 0.2745(7) 0.2018(4)
B21 B 0.6812(4) 0.3674(6) 0.1656(4)
B22 B 0.7206(3) 0.2666(6) 0.1669(4)
Cl7 Cl 0.76112(10) 0.38130(16) 0.07284(10)
Cl8 Cl 0.74678(8) 0.14286(14) 0.06965(9)
Cl9 Cl 0.68901(8) 0.07277(14) 0.19542(9)
Cl10 Cl 0.79350(8) 0.25384(14) 0.20458(9)
Cl11 Cl 0.66993(9) 0.27208(16) 0.27965(10)
Cl12 Cl 0.71361(8) 0.46388(14) 0.20388(9)
C3 C 0.3433(3) 0.2569(6) 0.3442(4)
H13 H 0.2988 0.2676 0.3189
B23 B 0.3909(4) 0.3410(7) 0.3466(4)
H14 H 0.3811 0.4065 0.3252
B24 B 0.3608(4) 0.3123(6) 0.4064(5)
H15 H 0.3314 0.3587 0.4245
B25 B 0.3479(4) 0.1973(7) 0.4054(5)
H16 H 0.3104 0.1680 0.4224
B26 B 0.3713(4) 0.1521(7) 0.3428(4)
H17 H 0.3492 0.0937 0.3195
B27 B 0.3984(4) 0.2429(6) 0.3068(5)
H18 H 0.3938 0.2437 0.2592
B28 B 0.4594(4) 0.2884(6) 0.3510(4)
B29 B 0.4365(4) 0.3339(6) 0.4132(4)
B30 B 0.4092(4) 0.2419(7) 0.4509(5)
B31 B 0.4174(4) 0.1436(6) 0.4115(4)
B32 B 0.4476(4) 0.1720(6) 0.3494(4)
B33 B 0.4704(3) 0.2271(6) 0.4152(4)
Cl13 Cl 0.51902(9) 0.33600(16) 0.32292(10)
Cl14 Cl 0.47023(9) 0.42603(15) 0.45074(10)
Cl15 Cl 0.41691(10) 0.23959(15) 0.52666(11)
Cl16 Cl 0.43141(8) 0.03863(14) 0.44664(9)
Cl17 Cl 0.49371(8) 0.09886(15) 0.31947(9)
Cl18 Cl 0.54232(8) 0.20816(16) 0.45576(9)
C4 C 0.4086(3) 0.8031(5) 0.3927(4)
H19 H 0.4337 0.8343 0.4320
B34 B 0.4057(4) 0.8613(7) 0.3308(4)
H20 H 0.4264 0.9272 0.3264
B35 B 0.4475(4) 0.7615(6) 0.3442(5)
H21 H 0.4960 0.7624 0.3484
B36 B 0.4116(3) 0.6903(7) 0.3873(4)
H22 H 0.4364 0.6449 0.4198
B37 B 0.3480(4) 0.7448(6) 0.4000(5)
H23 H 0.3312 0.7351 0.4409
B38 B 0.3431(4) 0.8496(6) 0.3649(4)
H24 H 0.3228 0.9081 0.3826
B39 B 0.3370(4) 0.8304(6) 0.2905(4)
B40 B 0.4015(4) 0.7761(7) 0.2784(4)
B41 B 0.4049(3) 0.6714(6) 0.3131(4)
B42 B 0.3435(3) 0.6623(6) 0.3471(4)
B43 B 0.3023(3) 0.7590(6) 0.3330(4)
B44 B 0.3372(3) 0.7147(6) 0.2790(4)
Cl19 Cl 0.29496(8) 0.90450(15) 0.23947(9)
Cl20 Cl 0.43041(9) 0.79205(17) 0.21320(10)
Cl21 Cl 0.43634(8) 0.57658(15) 0.28459(10)
Cl22 Cl 0.31010(8) 0.55647(14) 0.35397(11)
Cl23 Cl 0.22333(8) 0.75714(13) 0.32601(10)
Cl24 Cl 0.29655(7) 0.66457(15) 0.21603(9)
C5 C 0.5897(4) 0.5776(7) 0.2851(4)
H25 H 0.5648 0.5265 0.2730
H26 H 0.6287 0.5669 0.2765
H27 H 0.5732 0.6305 0.2647
C6 C 0.5935(3) 0.5913(7) 0.3473(4)
H28 H 0.6185 0.6431 0.3596
H29 H 0.5544 0.6035 0.3560
O1 O 0.6180(3) 0.5118(4) 0.3789(3)
C7 C 0.6193(4) 0.5142(7) 0.4406(4)
H30 H 0.6432 0.5648 0.4574
H31 H 0.5794 0.5224 0.4485
C8 C 0.6436(4) 0.4316(7) 0.4665(4)
H32 H 0.6839 0.4254 0.4605
H33 H 0.6206 0.3815 0.4488
H34 H 0.6426 0.4325 0.5075
H77 H 0.643(3) 0.505(6) 0.370(4)
C9 C 0.4118(4) 1.0732(7) 0.1665(4)
H35 H 0.4192 1.0347 0.2001
H36 H 0.4122 1.1352 0.1787
H37 H 0.4420 1.0640 0.1433
C10 C 0.3526(4) 1.0511(7) 0.1313(4)
H38 H 0.3217 1.0579 0.1547
H39 H 0.3439 1.0911 0.0979
O2 O 0.3558(2) 0.9607(4) 0.1129(3)
C11 C 0.2992(3) 0.9188(6) 0.0880(3)
H40 H 0.2703 0.9294 0.1131
H41 H 0.2843 0.9450 0.0502
C12 C 0.3084(3) 0.8230(6) 0.0822(4)
H42 H 0.3395 0.8131 0.0601
H43 H 0.2724 0.7956 0.0626
H44 H 0.3193 0.7965 0.1201
H80 H 0.378(3) 0.946(6) 0.089(4)
C13 C 0.6734(4) 0.0891(7) 0.4566(5)
H45 H 0.7004 0.0403 0.4681
H46 H 0.6377 0.0796 0.4722
H47 H 0.6913 0.1451 0.4711
C14 C 0.6590(4) 0.0929(7) 0.3928(5)
H48 H 0.6319 0.1425 0.3811
H49 H 0.6949 0.1039 0.3770
O3 O 0.6323(3) 0.0093(5) 0.3698(3)
C15 C 0.6236(4) -0.0020(9) 0.3084(5)
H50 H 0.6619 -0.0073 0.2961
H51 H 0.6040 0.0511 0.2898
C16 C 0.5888(5) -0.0802(8) 0.2896(5)
H52 H 0.5480 -0.0682 0.2914
H53 H 0.6024 -0.1302 0.3146
H54 H 0.5927 -0.0946 0.2503
H83 H 0.606(3) 0.000(5) 0.388(3)
C17 C 0.4440(4) 0.3378(8) 0.1663(6)
H55 H 0.4837 0.3167 0.1792
H56 H 0.4272 0.3072 0.1310
H57 H 0.4205 0.3257 0.1958
C18 C 0.4450(5) 0.4384(8) 0.1552(8)
H58 H 0.4597 0.4704 0.1911
H59 H 0.4707 0.4519 0.1274
O4 O 0.3864(4) 0.4651(6) 0.1331(7)
C19 C 0.3842(5) 0.5503(8) 0.1063(6)
H60 H 0.4131 0.5534 0.0804
H61 H 0.3933 0.5972 0.1355
C20 C 0.3220(7) 0.5637(14) 0.0719(11)
H62 H 0.3197 0.6211 0.0525
H63 H 0.2939 0.5621 0.0980
H70 H 0.3518 0.5605 0.0517
H86 H 0.351(5) 0.448(7) 0.162(5)
O6 O 0.7078(2) 0.4584(4) 0.3506(2)
H75 H 0.704(3) 0.502(3) 0.328(2)
H76 H 0.705(3) 0.413(2) 0.329(2)
O7 O 0.4200(2) 0.9417(4) 0.0416(3)
H78 H 0.436(3) 0.9923(18) 0.047(4)
H79 H 0.447(2) 0.905(3) 0.052(4)
O8 O 0.5513(2) -0.0463(4) 0.4121(2)
H81 H 0.521(2) -0.017(4) 0.414(3)
H82 H 0.557(3) -0.078(4) 0.442(2)
O9 O 0.3249(3) 0.4553(5) 0.2040(3)
H84 H 0.302(3) 0.412(3) 0.203(4)
H85 H 0.313(3) 0.493(4) 0.226(3)
H64? H 0.3132 0.5164 0.0436
C21? C 0.4601(17) 0.444(4) 0.177(3)
H65? H 0.4953 0.4685 0.1998
H66? H 0.4709 0.3989 0.1508
H67? H 0.4360 0.4167 0.2019
C22? C 0.4257(13) 0.519(3) 0.1418(19)
H68? H 0.4252 0.5721 0.1657
H69? H 0.4442 0.5339 0.1087
O5? O 0.3674(12) 0.488(2) 0.123(2)
C23? C 0.3350(16) 0.553(3) 0.087(3)
H71? H 0.3364 0.6101 0.1069
C24? C 0.2716(14) 0.521(3) 0.071(2)
H72? H 0.2603 0.5180 0.0298
H73? H 0.2461 0.5620 0.0870
H74? H 0.2681 0.4617 0.0875
loop_
_geom_bond_atom_site_label_1
_geom_bond_atom_site_label_2
_geom_bond_site_symmetry_1
_geom_bond_site_symmetry_2
C1 H1 1_555 1_555
B1 C1 1_555 1_555
H2 B1 1_555 1_555
B2 C1 1_555 1_555
H3 B2 1_555 1_555
B3 C1 1_555 1_555
H4 B3 1_555 1_555
B4 C1 1_555 1_555
H5 B4 1_555 1_555
B5 C1 1_555 1_555
H6 B5 1_555 1_555
B6 B1 1_555 1_555
B7 B1 1_555 1_555
B8 B2 1_555 1_555
B9 B3 1_555 1_555
B10 B4 1_555 1_555
B11 B6 1_555 1_555
Cl1 B6 1_555 1_555
Cl2 B7 1_555 1_555
Cl3 B8 1_555 1_555
Cl4 B9 1_555 1_555
Cl5 B10 1_555 1_555
Cl6 B11 1_555 1_555
C2 H7 1_555 1_555
B12 C2 1_555 1_555
H8 B12 1_555 1_555
B13 C2 1_555 1_555
H9 B13 1_555 1_555
B14 C2 1_555 1_555
H10 B14 1_555 1_555
B15 C2 1_555 1_555
H11 B15 1_555 1_555
B16 C2 1_555 1_555
H12 B16 1_555 1_555
B17 B12 1_555 1_555
B18 B12 1_555 1_555
B19 B13 1_555 1_555
B20 B14 1_555 1_555
B21 B15 1_555 1_555
B22 B17 1_555 1_555
Cl7 B17 1_555 1_555
Cl8 B18 1_555 1_555
Cl9 B19 1_555 1_555
Cl10 B22 1_555 1_555
Cl11 B20 1_555 1_555
Cl12 B21 1_555 1_555
C3 H13 1_555 1_555
B23 C3 1_555 1_555
H14 B23 1_555 1_555
B24 C3 1_555 1_555
H15 B24 1_555 1_555
B25 C3 1_555 1_555
H16 B25 1_555 1_555
B26 C3 1_555 1_555
H17 B26 1_555 1_555
B27 C3 1_555 1_555
H18 B27 1_555 1_555
B28 B23 1_555 1_555
B29 B23 1_555 1_555
B30 B24 1_555 1_555
B31 B25 1_555 1_555
B32 B26 1_555 1_555
B33 B28 1_555 1_555
Cl13 B28 1_555 1_555
Cl14 B29 1_555 1_555
Cl15 B30 1_555 1_555
Cl16 B31 1_555 1_555
Cl17 B32 1_555 1_555
Cl18 B33 1_555 1_555
C4 H19 1_555 1_555
B34 C4 1_555 1_555
H20 B34 1_555 1_555
B35 C4 1_555 1_555
H21 B35 1_555 1_555
B36 C4 1_555 1_555
H22 B36 1_555 1_555
B37 C4 1_555 1_555
H23 B37 1_555 1_555
B38 C4 1_555 1_555
H24 B38 1_555 1_555
B39 B34 1_555 1_555
B40 B34 1_555 1_555
B41 B35 1_555 1_555
B42 B36 1_555 1_555
B43 B37 1_555 1_555
B44 B39 1_555 1_555
Cl19 B39 1_555 1_555
Cl20 B40 1_555 1_555
Cl21 B41 1_555 1_555
Cl22 B42 1_555 1_555
Cl23 B43 1_555 1_555
Cl24 B44 1_555 1_555
C5 H25 1_555 1_555
H26 C5 1_555 1_555
H27 C5 1_555 1_555
C6 C5 1_555 1_555
H28 C6 1_555 1_555
H29 C6 1_555 1_555
O1 C6 1_555 1_555
C7 O1 1_555 1_555
H30 C7 1_555 1_555
H31 C7 1_555 1_555
C8 C7 1_555 1_555
H32 C8 1_555 1_555
H33 C8 1_555 1_555
H34 C8 1_555 1_555
C9 H35 1_555 1_555
H36 C9 1_555 1_555
H37 C9 1_555 1_555
C10 C9 1_555 1_555
H38 C10 1_555 1_555
H39 C10 1_555 1_555
O2 C10 1_555 1_555
C11 O2 1_555 1_555
H40 C11 1_555 1_555
H41 C11 1_555 1_555
C12 C11 1_555 1_555
H42 C12 1_555 1_555
H43 C12 1_555 1_555
H44 C12 1_555 1_555
C13 H45 1_555 1_555
H46 C13 1_555 1_555
H47 C13 1_555 1_555
C14 C13 1_555 1_555
H48 C14 1_555 1_555
H49 C14 1_555 1_555
O3 C14 1_555 1_555
C15 O3 1_555 1_555
H50 C15 1_555 1_555
H51 C15 1_555 1_555
C16 C15 1_555 1_555
H52 C16 1_555 1_555
H53 C16 1_555 1_555
H54 C16 1_555 1_555
C17 H55 1_555 1_555
H56 C17 1_555 1_555
H57 C17 1_555 1_555
C18 C17 1_555 1_555
H58 C18 1_555 1_555
H59 C18 1_555 1_555
O4 C18 1_555 1_555
C19 O4 1_555 1_555
H60 C19 1_555 1_555
H61 C19 1_555 1_555
C20 C19 1_555 1_555
H62 C20 1_555 1_555
H63 C20 1_555 1_555
H70 C20 1_555 1_555
O6 H75 1_555 1_555
H76 O6 1_555 1_555
H77 O1 1_555 1_555
O7 H78 1_555 1_555
H79 O7 1_555 1_555
H80 O2 1_555 1_555
O8 H81 1_555 1_555
H82 O8 1_555 1_555
H83 O3 1_555 1_555
O9 H84 1_555 1_555
H85 O9 1_555 1_555
H86 O4 1_555 1_555
B1 B2 1_555 1_555
B1 B5 1_555 1_555
B2 B7 1_555 1_555
B2 B3 1_555 1_555
B3 B8 1_555 1_555
B3 B4 1_555 1_555
B4 B9 1_555 1_555
B4 B5 1_555 1_555
B5 B6 1_555 1_555
B5 B10 1_555 1_555
B6 B7 1_555 1_555
B6 B10 1_555 1_555
B7 B8 1_555 1_555
B7 B11 1_555 1_555
B8 B11 1_555 1_555
B8 B9 1_555 1_555
B9 B10 1_555 1_555
B9 B11 1_555 1_555
B10 B11 1_555 1_555
B12 B13 1_555 1_555
B12 B16 1_555 1_555
B13 B18 1_555 1_555
B13 B14 1_555 1_555
B14 B19 1_555 1_555
B14 B15 1_555 1_555
B15 B20 1_555 1_555
B15 B16 1_555 1_555
B16 B17 1_555 1_555
B16 B21 1_555 1_555
B17 B18 1_555 1_555
B17 B21 1_555 1_555
B18 B19 1_555 1_555
B18 B22 1_555 1_555
B19 B22 1_555 1_555
B19 B20 1_555 1_555
B20 B21 1_555 1_555
B20 B22 1_555 1_555
B21 B22 1_555 1_555
B23 B24 1_555 1_555
B23 B27 1_555 1_555
B24 B29 1_555 1_555
B24 B25 1_555 1_555
B25 B30 1_555 1_555
B25 B26 1_555 1_555
B26 B31 1_555 1_555
B26 B27 1_555 1_555
B27 B28 1_555 1_555
B27 B32 1_555 1_555
B28 B29 1_555 1_555
B28 B32 1_555 1_555
B29 B30 1_555 1_555
B29 B33 1_555 1_555
B30 B33 1_555 1_555
B30 B31 1_555 1_555
B31 B32 1_555 1_555
B31 B33 1_555 1_555
B32 B33 1_555 1_555
B34 B35 1_555 1_555
B34 B38 1_555 1_555
B35 B40 1_555 1_555
B35 B36 1_555 1_555
B36 B41 1_555 1_555
B36 B37 1_555 1_555
B37 B42 1_555 1_555
B37 B38 1_555 1_555
B38 B39 1_555 1_555
B38 B43 1_555 1_555
B39 B40 1_555 1_555
B39 B43 1_555 1_555
B40 B41 1_555 1_555
B40 B44 1_555 1_555
B41 B44 1_555 1_555
B41 B42 1_555 1_555
B42 B43 1_555 1_555
B42 B44 1_555 1_555
B43 B44 1_555 1_555

#END
