
#######################################################################
#
#                 Cambridge Crystallographic Data Centre
#                                CCDC 
#
#######################################################################
#
# If this CIF has been generated from an entry in the Cambridge 
# Structural Database, then it will include bibliographic, chemical, 
# crystal, experimental, refinement or atomic coordinate data resulting 
# from the CCDC's data processing and validation procedures.
#
#######################################################################

data_UHAVAB02
_chemical_name_common            N-(1-Naphthyl)succinimide
_chemical_formula_moiety         'C14 H11 N1 O2'
_chemical_name_systematic        1-(1-Naphthyl)pyrrolidine-2,5-dione
_symmetry_cell_setting           triclinic
_symmetry_space_group_name_H-M   'P -1'
_symmetry_Int_Tables_number      2
_space_group_name_Hall           '-P 1'
loop_
_symmetry_equiv_pos_site_id
_symmetry_equiv_pos_as_xyz
1 x,y,z
2 -x,-y,-z
_cell_length_a                   12.656(2)
_cell_length_b                   13.494(3)
_cell_length_c                   14.753(3)
_cell_angle_alpha                70.937(9)
_cell_angle_beta                 70.642(9)
_cell_angle_gamma                82.643(12)
_cell_volume                     2246.17
_exptl_crystal_colour            colorless
_exptl_crystal_description       block
_cell_formula_units_Z            8
loop_
_atom_site_label
_atom_site_type_symbol
_atom_site_fract_x
_atom_site_fract_y
_atom_site_fract_z
O1 O 0.9642(2) 0.5936(2) 0.1009(2)
C1 C 0.9309(3) 0.7575(3) -0.0213(3)
H1 H 0.8737 0.7348 -0.0391
H2 H 1.0008 0.7595 -0.0738
C2 C 0.9405(3) 0.6854(3) 0.0779(3)
O8 O 0.8625(4) 0.9144(3) 0.1489(4)
N4 N 0.9053(4) 0.7425(3) 0.1489(3)
C3 C 0.8867(5) 0.8487(5) 0.1040(5)
C4 C 0.902(2) 0.8652(6) -0.0055(10)
H3 H 0.9630 0.9146 -0.0492
H4 H 0.8320 0.8941 -0.0216
C5 C 0.89107(18) 0.6966(2) 0.25473(16)
C6 C 0.78420(17) 0.6636(3) 0.3168(2)
H5 H 0.7255 0.6697 0.2883
C7 C 0.76322(15) 0.6216(3) 0.4204(2)
H6 H 0.6902 0.5990 0.4628
C8 C 0.84910(17) 0.6126(3) 0.46198(15)
H7 H 0.8348 0.5839 0.5328
C9 C 0.95596(15) 0.64557(18) 0.39995(14)
C10 C 0.97694(14) 0.68756(16) 0.29633(14)
C11 C 1.08380(16) 0.7205(2) 0.23430(15)
H8 H 1.0981 0.7492 0.1635
C12 C 1.16968(15) 0.7115(3) 0.2759(2)
H9 H 1.2427 0.7341 0.2335
C13 C 1.14870(17) 0.6696(3) 0.3795(2)
H10 H 1.2074 0.6634 0.4079
C14 C 1.04184(19) 0.6366(2) 0.44154(16)
H11 H 1.0275 0.6079 0.5124
O2 O 0.3846(2) 0.8223(2) 0.0577(2)
O3 O 0.69813(19) 0.65191(19) 0.12596(19)
N1 N 0.5388(2) 0.7489(2) 0.1068(2)
C15 C 0.4630(3) 0.7602(3) 0.0542(3)
C16 C 0.4955(3) 0.6813(3) -0.0035(3)
H12 H 0.5109 0.7170 -0.0767
H13 H 0.4346 0.6311 0.0192
C17 C 0.6006(3) 0.6247(3) 0.0185(3)
H14 H 0.5881 0.5485 0.0509
H15 H 0.6645 0.6353 -0.0444
C18 C 0.6226(3) 0.6729(3) 0.0884(3)
C19 C 0.5399(3) 0.8185(3) 0.1638(3)
C20 C 0.5724(3) 0.9196(3) 0.1132(3)
H16 H 0.5938 0.9437 0.0417
C21 C 0.5742(3) 0.9886(3) 0.1670(3)
H17 H 0.5955 1.0593 0.1318
C22 C 0.5449(3) 0.9527(3) 0.2709(3)
H18 H 0.5471 0.9986 0.3072
C23 C 0.5118(3) 0.8479(3) 0.3236(3)
C24 C 0.5089(2) 0.7790(3) 0.2690(3)
C25 C 0.4729(3) 0.6732(3) 0.3243(3)
H19 H 0.4704 0.6256 0.2898
C26 C 0.4424(3) 0.6425(3) 0.4266(3)
H20 H 0.4172 0.5731 0.4630
C27 C 0.4469(3) 0.7093(4) 0.4802(3)
H21 H 0.4265 0.6847 0.5517
C28 C 0.4804(3) 0.8093(3) 0.4301(3)
H22 H 0.4828 0.8544 0.4671
O4 O 0.1471(2) 0.0559(2) 0.4411(2)
O5 O 0.3128(2) 0.14295(18) 0.10114(18)
N2 N 0.2327(2) 0.1226(2) 0.2705(2)
C29 C 0.1925(3) 0.0417(3) 0.3593(3)
C30 C 0.2167(3) -0.0610(3) 0.3355(3)
H23 H 0.1478 -0.1023 0.3620
H24 H 0.2739 -0.1030 0.3651
C31 C 0.2597(3) -0.0303(2) 0.2216(3)
H25 H 0.3321 -0.0665 0.1987
H26 H 0.2053 -0.0487 0.1948
C32 C 0.2739(3) 0.0858(3) 0.1870(3)
C33 C 0.2208(3) 0.2329(3) 0.2613(3)
C34 C 0.1294(3) 0.2867(3) 0.2409(3)
H27 H 0.0723 0.2506 0.2368
C35 C 0.1180(3) 0.3954(3) 0.2257(3)
H28 H 0.0533 0.4325 0.2118
C36 C 0.2011(3) 0.4481(3) 0.2309(3)
H29 H 0.1937 0.5216 0.2206
C37 C 0.2982(3) 0.3922(3) 0.2518(3)
C38 C 0.3073(3) 0.2828(3) 0.2684(3)
C39 C 0.4048(3) 0.2279(3) 0.2913(3)
H30 H 0.4120 0.1540 0.3043
C40 C 0.4870(3) 0.2817(3) 0.2943(3)
H31 H 0.5511 0.2448 0.3098
C41 C 0.4783(3) 0.3906(3) 0.2747(3)
H32 H 0.5375 0.4271 0.2752
C42 C 0.3867(3) 0.4442(3) 0.2552(3)
H33 H 0.3814 0.5180 0.2435
O6 O 1.01070(19) 0.06054(18) 0.27279(19)
O7 O 0.6346(2) 0.0381(2) 0.4258(2)
N3 N 0.8209(2) 0.0722(2) 0.3467(2)
C43 C 0.9219(3) 0.0180(3) 0.3213(3)
C44 C 0.8994(3) -0.0972(3) 0.3627(3)
H34 H 0.9354 -0.1317 0.4158
H35 H 0.9282 -0.1311 0.3087
C45 C 0.7721(3) -0.1043(3) 0.4065(3)
H36 H 0.7418 -0.1349 0.3679
H37 H 0.7500 -0.1484 0.4779
C46 C 0.7296(3) 0.0062(3) 0.3978(3)
C47 C 0.8132(3) 0.1854(3) 0.3188(3)
C48 C 0.8274(3) 0.2362(3) 0.3792(3)
H38 H 0.8406 0.1977 0.4412
C49 C 0.8223(3) 0.3474(3) 0.3491(3)
H39 H 0.8295 0.3833 0.3923
C50 C 0.8072(3) 0.4029(3) 0.2593(3)
H40 H 0.8047 0.4773 0.2399
C51 C 0.7950(3) 0.3509(3) 0.1939(3)
C52 C 0.7955(3) 0.2383(3) 0.2251(3)
C53 C 0.7806(3) 0.1870(3) 0.1604(3)
H41 H 0.7794 0.1126 0.1805
C54 C 0.7678(3) 0.2443(3) 0.0689(3)
H42 H 0.7560 0.2094 0.0268
C55 C 0.7720(3) 0.3532(3) 0.0370(3)
H43 H 0.7662 0.3915 -0.0278
C56 C 0.7845(3) 0.4062(3) 0.0979(3)
H44 H 0.7860 0.4806 0.0752
C57? C 0.9382(16) 0.8632(18) 0.0801(16)
C58? C 0.9296(5) 0.6792(6) 0.3020(5)
C59? C 0.8196(6) 0.6670(9) 0.3085(7)
C60? C 0.7415(5) 0.6247(10) 0.4020(8)
C61? C 0.7733(7) 0.5944(10) 0.4889(7)
C62? C 0.8833(7) 0.6065(8) 0.4824(5)
C63? C 0.916(7) 0.8692(15) -0.015(3)
C64? C 1.0078(6) 0.7216(7) 0.2085(5)
C65? C 1.1177(6) 0.7337(8) 0.2020(6)
C66? C 1.1496(5) 0.7034(9) 0.2889(7)
C67? C 1.0714(6) 0.6611(8) 0.3824(6)
C68? C 0.9614(5) 0.6489(6) 0.3889(5)
H45? H 0.7979 0.6877 0.2491
H46? H 0.6663 0.6164 0.4064
H47? H 0.7199 0.5654 0.5528
H48? H 0.9051 0.5859 0.5418
H49? H 0.9694 0.9163 -0.0745
H50? H 0.8387 0.8959 -0.0131
H51? H 0.8662 0.7408 -0.0332
H52? H 0.9961 0.7490 -0.0749
H53? H 1.1711 0.7627 0.1381
H54? H 1.2247 0.7117 0.2844
H55? H 1.0932 0.6404 0.4418
N5? N 0.9740(11) 0.7579(9) 0.1178(9)
O9? O 0.9310(12) 0.9279(12) 0.1186(12)
loop_
_geom_bond_atom_site_label_1
_geom_bond_atom_site_label_2
_geom_bond_site_symmetry_1
_geom_bond_site_symmetry_2
O1 C2 1_555 1_555
O2 C15 1_555 1_555
O3 C18 1_555 1_555
O4 C29 1_555 1_555
O5 C32 1_555 1_555
O6 C43 1_555 1_555
O7 C46 1_555 1_555
N1 C15 1_555 1_555
N2 C29 1_555 1_555
N3 C43 1_555 1_555
C1 H1 1_555 1_555
H2 C1 1_555 1_555
C2 C1 1_555 1_555
O8 C3 1_555 1_555
N4 C2 1_555 1_555
C3 N4 1_555 1_555
C4 C1 1_555 1_555
H3 C4 1_555 1_555
H4 C4 1_555 1_555
C5 N4 1_555 1_555
C6 C5 1_555 1_555
H5 C6 1_555 1_555
C7 C6 1_555 1_555
H6 C7 1_555 1_555
C8 C7 1_555 1_555
H7 C8 1_555 1_555
C9 C8 1_555 1_555
C10 C5 1_555 1_555
C11 C10 1_555 1_555
H8 C11 1_555 1_555
C12 C11 1_555 1_555
H9 C12 1_555 1_555
C13 C12 1_555 1_555
H10 C13 1_555 1_555
C14 C9 1_555 1_555
H11 C14 1_555 1_555
C15 C16 1_555 1_555
C16 H12 1_555 1_555
H13 C16 1_555 1_555
C17 C16 1_555 1_555
H14 C17 1_555 1_555
H15 C17 1_555 1_555
C18 N1 1_555 1_555
C19 N1 1_555 1_555
C20 C19 1_555 1_555
H16 C20 1_555 1_555
C21 C20 1_555 1_555
H17 C21 1_555 1_555
C22 C21 1_555 1_555
H18 C22 1_555 1_555
C23 C22 1_555 1_555
C24 C19 1_555 1_555
C25 C24 1_555 1_555
H19 C25 1_555 1_555
C26 C25 1_555 1_555
H20 C26 1_555 1_555
C27 C26 1_555 1_555
H21 C27 1_555 1_555
C28 C23 1_555 1_555
H22 C28 1_555 1_555
C29 C30 1_555 1_555
C30 H23 1_555 1_555
H24 C30 1_555 1_555
C31 C30 1_555 1_555
H25 C31 1_555 1_555
H26 C31 1_555 1_555
C32 N2 1_555 1_555
C33 N2 1_555 1_555
C34 C33 1_555 1_555
H27 C34 1_555 1_555
C35 C34 1_555 1_555
H28 C35 1_555 1_555
C36 C35 1_555 1_555
H29 C36 1_555 1_555
C37 C36 1_555 1_555
C38 C33 1_555 1_555
C39 C38 1_555 1_555
H30 C39 1_555 1_555
C40 C39 1_555 1_555
H31 C40 1_555 1_555
C41 C40 1_555 1_555
H32 C41 1_555 1_555
C42 C37 1_555 1_555
H33 C42 1_555 1_555
C43 C44 1_555 1_555
C44 H34 1_555 1_555
H35 C44 1_555 1_555
C45 C44 1_555 1_555
H36 C45 1_555 1_555
H37 C45 1_555 1_555
C46 N3 1_555 1_555
C47 N3 1_555 1_555
C48 C47 1_555 1_555
H38 C48 1_555 1_555
C49 C48 1_555 1_555
H39 C49 1_555 1_555
C50 C49 1_555 1_555
H40 C50 1_555 1_555
C51 C50 1_555 1_555
C52 C47 1_555 1_555
C53 C52 1_555 1_555
H41 C53 1_555 1_555
C54 C53 1_555 1_555
H42 C54 1_555 1_555
C55 C54 1_555 1_555
H43 C55 1_555 1_555
C56 C51 1_555 1_555
H44 C56 1_555 1_555
C3 C4 1_555 1_555
C9 C10 1_555 1_555
C13 C14 1_555 1_555
C17 C18 1_555 1_555
C23 C24 1_555 1_555
C27 C28 1_555 1_555
C31 C32 1_555 1_555
C37 C38 1_555 1_555
C41 C42 1_555 1_555
C45 C46 1_555 1_555
C51 C52 1_555 1_555
C55 C56 1_555 1_555

#END
