
#######################################################################
#
#                 Cambridge Crystallographic Data Centre
#                                CCDC 
#
#######################################################################
#
# If this CIF has been generated from an entry in the Cambridge 
# Structural Database, then it will include bibliographic, chemical, 
# crystal, experimental, refinement or atomic coordinate data resulting 
# from the CCDC's data processing and validation procedures.
#
#######################################################################

data_UHAWUX
_chemical_formula_moiety         'C8 H8 O3,C6 H4 Cl1 N3 O4'
_chemical_name_systematic        
'3-hydroxy-4-methoxybenzaldehyde 2-chloro-4,6-dinitroaniline'
_symmetry_cell_setting           orthorhombic
_symmetry_space_group_name_H-M   'P n m a'
_symmetry_Int_Tables_number      62
_space_group_name_Hall           '-P 2ac 2n'
loop_
_symmetry_equiv_pos_site_id
_symmetry_equiv_pos_as_xyz
1 x,y,z
2 1/2+x,1/2-y,1/2-z
3 -x,1/2+y,-z
4 1/2-x,-y,1/2+z
5 -x,-y,-z
6 1/2-x,1/2+y,1/2+z
7 x,1/2-y,z
8 1/2+x,y,1/2-z
_cell_length_a                   15.8643(12)
_cell_length_b                   6.4585(5)
_cell_length_c                   15.7021(12)
_cell_angle_alpha                90
_cell_angle_beta                 90
_cell_angle_gamma                90
_cell_volume                     1608.83
_exptl_crystal_colour            yellow
_exptl_crystal_description       plate
_cell_formula_units_Z            4
loop_
_atom_site_label
_atom_site_type_symbol
_atom_site_fract_x
_atom_site_fract_y
_atom_site_fract_z
Cl1 Cl 1.17771(14) 0.7500 0.11614(15)
C1 C 0.9055(6) 0.7500 0.1900(5)
H1 H 0.8492 0.7500 0.2062
C2 C 1.0509(5) 0.7500 0.2281(4)
H2 H 1.0920 0.7500 0.2704
C3 C 0.9277(5) 0.7500 0.1038(5)
C4 C 1.0120(5) 0.7500 0.0770(4)
N1 N 1.0376(5) 0.7500 -0.0038(4)
H3 H 1.0011 0.7500 -0.0443
H4 H 1.0905 0.7500 -0.0154
O1 O 0.8727(5) 0.7500 -0.0304(5)
C5 C 0.9667(5) 0.7500 0.2489(4)
N2 N 0.9450(6) 0.7500 0.3392(5)
C6 C 1.0733(5) 0.7500 0.1428(5)
N3 N 0.8585(4) 0.7500 0.0414(5)
O2 O 0.8690(5) 0.7500 0.3580(4)
O3 O 1.0005(5) 0.7500 0.3908(4)
O4 O 0.7872(5) 0.7500 0.0710(5)
O5 O -0.0673(3) 0.2500 0.3404(3)
C7 C 0.0719(5) 0.2500 0.4064(5)
H5 H 0.0497 0.2500 0.4612
C8 C 0.0517(4) 0.2500 0.2544(4)
C9 C 0.0180(5) 0.2500 0.3371(4)
C10 C 0.1565(5) 0.2500 0.3953(5)
H6 H 0.1920 0.2500 0.4424
C11 C -0.1067(5) 0.2500 0.4239(5)
O6 O 0.0023(3) 0.2500 0.1842(3)
C12 C 0.1908(5) 0.2500 0.3138(4)
C13 C 0.1365(5) 0.2500 0.2446(4)
H7 H 0.1590 0.2500 0.1899
C14 C 0.2804(5) 0.2500 0.2983(5)
H8 H 0.2972 0.2500 0.2415
O7 O 0.3361(3) 0.2500 0.3506(4)
H9? H -0.0820 0.1434 0.4584
H10? H -0.1661 0.2245 0.4179
H11? H -0.0982 0.3821 0.4506
H12? H -0.0448 0.2074 0.1967
loop_
_geom_bond_atom_site_label_1
_geom_bond_atom_site_label_2
_geom_bond_site_symmetry_1
_geom_bond_site_symmetry_2
Cl1 C6 1_555 1_555
C1 H1 1_555 1_555
C2 H2 1_555 1_555
C3 C1 1_555 1_555
C4 C3 1_555 1_555
N1 C4 1_555 1_555
H3 N1 1_555 1_555
H4 N1 1_555 1_555
O1 N3 1_555 1_555
C5 C1 1_555 1_555
N2 C5 1_555 1_555
C6 C2 1_555 1_555
N3 C3 1_555 1_555
O2 N2 1_555 1_555
O3 N2 1_555 1_555
O4 N3 1_555 1_555
O5 C9 1_555 1_555
C7 H5 1_555 1_555
C8 C9 1_555 1_555
C9 C7 1_555 1_555
C10 C7 1_555 1_555
H6 C10 1_555 1_555
C11 O5 1_555 1_555
O6 C8 1_555 1_555
C12 C10 1_555 1_555
C13 C8 1_555 1_555
H7 C13 1_555 1_555
C14 C12 1_555 1_555
H8 C14 1_555 1_555
O7 C14 1_555 1_555
C2 C5 1_555 1_555
C4 C6 1_555 1_555
C12 C13 1_555 1_555

#END
