
#######################################################################
#
#                 Cambridge Crystallographic Data Centre
#                                CCDC 
#
#######################################################################
#
# If this CIF has been generated from an entry in the Cambridge 
# Structural Database, then it will include bibliographic, chemical, 
# crystal, experimental, refinement or atomic coordinate data resulting 
# from the CCDC's data processing and validation procedures.
#
#######################################################################

data_UHAWAD
_chemical_formula_moiety         'C8 H8 O3,C6 H4 Cl1 N3 O4'
_chemical_name_systematic        
'4-hydroxy-3-methoxybenzaldehyde 2-chloro-4,6-dinitroaniline'
_symmetry_cell_setting           monoclinic
_symmetry_space_group_name_H-M   'P 21/n'
_symmetry_Int_Tables_number      14
_space_group_name_Hall           '-P 2yn'
loop_
_symmetry_equiv_pos_site_id
_symmetry_equiv_pos_as_xyz
1 x,y,z
2 1/2-x,1/2+y,1/2-z
3 -x,-y,-z
4 1/2+x,1/2-y,1/2+z
_cell_length_a                   13.4903(12)
_cell_length_b                   15.0978(14)
_cell_length_c                   16.0711(14)
_cell_angle_alpha                90
_cell_angle_beta                 110.416(4)
_cell_angle_gamma                90
_cell_volume                     3067.65
_exptl_crystal_colour            yellow
_exptl_crystal_description       block
_chemical_melting_point          '411.82 K'
_cell_formula_units_Z            8
loop_
_atom_site_label
_atom_site_type_symbol
_atom_site_fract_x
_atom_site_fract_y
_atom_site_fract_z
Cl1 Cl 0.11686(4) 0.29151(4) 0.77927(4)
C1 C 0.12313(15) 0.26301(16) 0.94802(15)
C2 C 0.12273(16) 0.29726(16) 1.03024(16)
C3 C 0.12528(16) 0.44603(16) 0.98237(16)
C4 C 0.12271(16) 0.41742(17) 0.89823(16)
H1 H 0.1221 0.4580 0.8545
C5 C 0.12115(16) 0.32849(16) 0.88282(15)
C6 C 0.12466(16) 0.38762(17) 1.04696(16)
H2 H 0.1255 0.4082 1.1018
O1 O 0.12454(15) 0.15852(13) 1.09160(13)
O2 O 0.10868(15) 0.27254(15) 1.16758(13)
O3 O 0.12412(17) 0.59229(14) 0.94015(16)
O4 O 0.12925(15) 0.56358(14) 1.07420(14)
N1 N 0.12386(14) 0.17710(14) 0.92870(14)
H3 H 0.1241 0.1378 0.9675
H4 H 0.1241 0.1610 0.8774
N2 N 0.11854(15) 0.23868(15) 1.10122(14)
N3 N 0.12641(15) 0.54086(15) 0.99970(16)
Cl2 Cl 0.11036(4) 0.52395(4) 0.27850(4)
C7 C 0.12458(15) 0.55181(16) 0.44887(15)
C8 C 0.12319(16) 0.39699(17) 0.39847(17)
H5 H 0.1206 0.3567 0.3540
C9 C 0.13074(16) 0.51622(16) 0.53309(16)
C10 C 0.12047(16) 0.48650(17) 0.38308(16)
C11 C 0.12996(16) 0.36801(16) 0.48265(17)
C12 C 0.13385(16) 0.42560(17) 0.54964(18)
H6 H 0.1385 0.4045 0.6052
O5 O 0.13304(14) 0.65443(13) 0.59589(13)
O6 O 0.12514(16) 0.22192(13) 0.43875(16)
O7 O 0.12677(14) 0.53944(15) 0.67385(13)
O8 O 0.13781(19) 0.24905(15) 0.57443(15)
N4 N 0.11932(15) 0.63723(14) 0.42912(14)
H7 H 0.1195 0.6760 0.4684
H8 H 0.1158 0.6540 0.3770
N5 N 0.13055(15) 0.57410(15) 0.60580(14)
N6 N 0.13027(17) 0.27299(16) 0.49957(17)
C13 C 0.12393(16) 0.94198(16) 0.56921(15)
C14 C 0.12177(16) 0.88166(16) 0.63501(15)
H9 H 0.1173 0.8211 0.6236
C15 C 0.12636(16) 0.91343(16) 0.71706(15)
C16 C 0.13083(17) 1.03245(16) 0.58536(16)
H10 H 0.1323 1.0715 0.5411
C17 C 0.13553(17) 1.06441(16) 0.66688(16)
H11 H 0.1408 1.1250 0.6779
C18 C 0.13242(16) 1.00563(16) 0.73277(15)
C19 C 0.12080(16) 0.91133(17) 0.48177(15)
H12 H 0.1173 0.9544 0.4394
C20 C 0.1138(2) 0.76955(18) 0.77310(16)
H13 H 0.0473 0.7577 0.7271
H14 H 0.1157 0.7408 0.8269
H15 H 0.1703 0.7474 0.7556
O9 O 0.13627(13) 1.04039(11) 0.81124(11)
H16 H 0.1211 1.0021 0.8409
O10 O 0.12599(13) 0.86289(11) 0.78757(11)
O11 O 0.12242(13) 0.83387(12) 0.45983(11)
C21 C 0.12550(15) 0.93157(16) 0.13625(15)
H17 H 0.1204 0.9921 0.1246
C22 C 0.13343(15) 0.90018(15) 0.21916(14)
C23 C 0.12529(16) 0.87080(16) 0.06960(15)
C24 C 0.14334(16) 0.74879(16) 0.16980(15)
H18 H 0.1498 0.6883 0.1815
C25 C 0.14212(16) 0.80780(16) 0.23589(14)
C26 C 0.13491(17) 0.78001(16) 0.08675(16)
H19 H 0.1356 0.7406 0.0425
C27 C 0.11817(16) 0.90124(16) -0.01824(15)
H20 H 0.1141 0.8578 -0.0604
O12 O 0.15008(13) 0.77394(11) 0.31568(10)
H21 H 0.1384 0.8130 0.3465
O13 O 0.11700(12) 0.97832(12) -0.04206(11)
O14 O 0.13516(12) 0.95072(11) 0.29011(11)
C28 C 0.12858(18) 1.04538(16) 0.27654(16)
H22 H 0.1858 1.0647 0.2584
H23 H 0.1332 1.0744 0.3309
H24 H 0.0624 1.0600 0.2313
loop_
_geom_bond_atom_site_label_1
_geom_bond_atom_site_label_2
_geom_bond_site_symmetry_1
_geom_bond_site_symmetry_2
Cl1 C5 1_555 1_555
C1 C2 1_555 1_555
C2 C6 1_555 1_555
C3 C4 1_555 1_555
C4 H1 1_555 1_555
C5 C1 1_555 1_555
C6 C3 1_555 1_555
H2 C6 1_555 1_555
O1 N2 1_555 1_555
O2 N2 1_555 1_555
O3 N3 1_555 1_555
O4 N3 1_555 1_555
N1 C1 1_555 1_555
H3 N1 1_555 1_555
H4 N1 1_555 1_555
N2 C2 1_555 1_555
N3 C3 1_555 1_555
Cl2 C10 1_555 1_555
C7 C9 1_555 1_555
C8 H5 1_555 1_555
C9 C12 1_555 1_555
C10 C7 1_555 1_555
C11 C8 1_555 1_555
C12 C11 1_555 1_555
H6 C12 1_555 1_555
O5 N5 1_555 1_555
O6 N6 1_555 1_555
O7 N5 1_555 1_555
O8 N6 1_555 1_555
N4 C7 1_555 1_555
H7 N4 1_555 1_555
H8 N4 1_555 1_555
N5 C9 1_555 1_555
N6 C11 1_555 1_555
C13 C14 1_555 1_555
C14 H9 1_555 1_555
C15 C14 1_555 1_555
C16 C13 1_555 1_555
H10 C16 1_555 1_555
C17 C16 1_555 1_555
H11 C17 1_555 1_555
C18 C15 1_555 1_555
C19 C13 1_555 1_555
H12 C19 1_555 1_555
C20 H13 1_555 1_555
H14 C20 1_555 1_555
H15 C20 1_555 1_555
O9 C18 1_555 1_555
H16 O9 1_555 1_555
O10 C15 1_555 1_555
O11 C19 1_555 1_555
C21 H17 1_555 1_555
C22 C21 1_555 1_555
C23 C21 1_555 1_555
C24 H18 1_555 1_555
C25 C22 1_555 1_555
C26 C23 1_555 1_555
H19 C26 1_555 1_555
C27 C23 1_555 1_555
H20 C27 1_555 1_555
O12 C25 1_555 1_555
H21 O12 1_555 1_555
O13 C27 1_555 1_555
O14 C22 1_555 1_555
C28 O14 1_555 1_555
H22 C28 1_555 1_555
H23 C28 1_555 1_555
H24 C28 1_555 1_555
C4 C5 1_555 1_555
C8 C10 1_555 1_555
C17 C18 1_555 1_555
C20 O10 1_555 1_555
C24 C25 1_555 1_555
C24 C26 1_555 1_555

#END
