
#######################################################################
#
#                 Cambridge Crystallographic Data Centre
#                                CCDC 
#
#######################################################################
#
# If this CIF has been generated from an entry in the Cambridge 
# Structural Database, then it will include bibliographic, chemical, 
# crystal, experimental, refinement or atomic coordinate data resulting 
# from the CCDC's data processing and validation procedures.
#
#######################################################################

data_UHEKOI
_chemical_name_common            9-Phenylethynyl-4,5-diazafluoren-9-ol
_chemical_formula_moiety         'C19 H12 N2 O1'
_chemical_name_systematic        
5-(Phenylethynyl)-5H-pyrido[3',2':4,5]cyclopenta[1,2-b]pyridin-5-ol
_symmetry_cell_setting           triclinic
_symmetry_space_group_name_H-M   'P -1'
_symmetry_Int_Tables_number      2
_space_group_name_Hall           '-P 1'
loop_
_symmetry_equiv_pos_site_id
_symmetry_equiv_pos_as_xyz
1 x,y,z
2 -x,-y,-z
_cell_length_a                   8.1451(14)
_cell_length_b                   9.5973(16)
_cell_length_c                   9.8067(16)
_cell_angle_alpha                86.894(3)
_cell_angle_beta                 66.943(2)
_cell_angle_gamma                89.281(3)
_cell_volume                     704.292
_exptl_crystal_colour            colorless
_exptl_crystal_description       block
_chemical_melting_point          219deg.C
_cell_formula_units_Z            2
_exptl_crystal_recrystallization_method dichloromethane/methanol
loop_
_atom_site_label
_atom_site_type_symbol
_atom_site_fract_x
_atom_site_fract_y
_atom_site_fract_z
C1 C 0.4760(2) 0.31314(14) 0.51596(16)
H1 H 0.379(2) 0.3762(16) 0.5645(17)
C2 C 0.6357(2) 0.31884(15) 0.53493(17)
H2 H 0.654(2) 0.3849(16) 0.5989(17)
C3 C 0.7671(2) 0.22302(15) 0.46895(17)
H3 H 0.874(2) 0.2261(17) 0.4876(18)
N1 N 0.75308(14) 0.12346(12) 0.38296(13)
C4 C 0.60030(16) 0.12275(12) 0.36195(13)
C5 C 0.55085(17) 0.02756(12) 0.27128(14)
N2 N 0.65304(17) -0.07076(12) 0.18950(13)
C6 C 0.5752(2) -0.14531(15) 0.11948(17)
H4 H 0.653(2) -0.2210(18) 0.0556(19)
C7 C 0.4029(2) -0.12711(16) 0.12968(17)
H5 H 0.360(2) -0.1840(18) 0.0755(19)
C8 C 0.2993(2) -0.02275(15) 0.21389(16)
C9 C 0.37728(17) 0.05722(13) 0.28527(14)
H6 H 0.179(2) -0.0030(16) 0.2232(17)
C10 C 0.30210(16) 0.17821(13) 0.38632(14)
O1 O 0.14491(11) 0.14205(10) 0.51301(10)
H7 H 0.164(3) 0.064(2) 0.559(2)
C11 C 0.45968(16) 0.21296(12) 0.42693(13)
C12 C 0.25830(17) 0.29805(13) 0.30636(15)
C13 C 0.22444(18) 0.39464(13) 0.24030(15)
C14 C 0.17729(17) 0.50752(13) 0.16004(14)
C15 C 0.04582(19) 0.60158(15) 0.23473(17)
H8 H -0.010(2) 0.5944(16) 0.3434(18)
C16 C -0.0039(2) 0.70597(16) 0.15588(19)
H9 H -0.093(2) 0.7701(18) 0.2097(19)
C17 C 0.0758(2) 0.71708(16) 0.00366(19)
H10 H 0.040(2) 0.7910(18) -0.053(2)
C18 C 0.2075(2) 0.62546(16) -0.07130(17)
H11 H 0.269(2) 0.6299(17) -0.179(2)
C19 C 0.2597(2) 0.52190(14) 0.00649(16)
H12 H 0.352(2) 0.4588(17) -0.0452(17)
loop_
_geom_bond_atom_site_label_1
_geom_bond_atom_site_label_2
_geom_bond_site_symmetry_1
_geom_bond_site_symmetry_2
C1 H1 1_555 1_555
C2 C1 1_555 1_555
H2 C2 1_555 1_555
C3 C2 1_555 1_555
H3 C3 1_555 1_555
N1 C3 1_555 1_555
C4 N1 1_555 1_555
C5 C4 1_555 1_555
N2 C5 1_555 1_555
C6 N2 1_555 1_555
H4 C6 1_555 1_555
C7 C6 1_555 1_555
H5 C7 1_555 1_555
C8 C7 1_555 1_555
C9 C5 1_555 1_555
H6 C8 1_555 1_555
C10 C9 1_555 1_555
O1 C10 1_555 1_555
H7 O1 1_555 1_555
C11 C1 1_555 1_555
C12 C10 1_555 1_555
C13 C12 1_555 1_555
C14 C13 1_555 1_555
C15 C14 1_555 1_555
H8 C15 1_555 1_555
C16 C15 1_555 1_555
H9 C16 1_555 1_555
C17 C16 1_555 1_555
H10 C17 1_555 1_555
C18 C17 1_555 1_555
H11 C18 1_555 1_555
C19 C14 1_555 1_555
H12 C19 1_555 1_555
C4 C11 1_555 1_555
C8 C9 1_555 1_555
C10 C11 1_555 1_555
C18 C19 1_555 1_555

#END
