
#######################################################################
#
#                 Cambridge Crystallographic Data Centre
#                                CCDC 
#
#######################################################################
#
# If this CIF has been generated from an entry in the Cambridge 
# Structural Database, then it will include bibliographic, chemical, 
# crystal, experimental, refinement or atomic coordinate data resulting 
# from the CCDC's data processing and validation procedures.
#
#######################################################################

data_UHELAV
_chemical_name_common            
'9-Phenylethynyl-4,5-diazafluoren-9-ol monohydrate'
_chemical_formula_moiety         'C19 H12 N2 O1,H2 O1'
_chemical_name_systematic        
"5-(Phenylethynyl)-5H-pyrido[3',2':4,5]cyclopenta[1,2-b]pyridin-5-ol monohydrate"
_symmetry_cell_setting           triclinic
_symmetry_space_group_name_H-M   'P -1'
_symmetry_Int_Tables_number      2
_space_group_name_Hall           '-P 1'
loop_
_symmetry_equiv_pos_site_id
_symmetry_equiv_pos_as_xyz
1 x,y,z
2 -x,-y,-z
_cell_length_a                   7.9361(10)
_cell_length_b                   10.2148(13)
_cell_length_c                   10.4803(13)
_cell_angle_alpha                85.197(2)
_cell_angle_beta                 67.872(2)
_cell_angle_gamma                69.493(2)
_cell_volume                     736.002
_exptl_crystal_colour            yellow
_exptl_crystal_description       block
_cell_formula_units_Z            2
loop_
_atom_site_label
_atom_site_type_symbol
_atom_site_fract_x
_atom_site_fract_y
_atom_site_fract_z
C1 C 0.0784(2) 0.47242(14) 0.31311(14)
H1 H -0.032(2) 0.4410(17) 0.3410(17)
C2 C 0.0580(2) 0.60400(14) 0.35699(14)
H2 H -0.071(2) 0.6692(17) 0.4172(17)
C3 C 0.21928(19) 0.64475(14) 0.31614(13)
H3 H 0.209(2) 0.7368(17) 0.3489(16)
N1 N 0.39738(16) 0.56673(11) 0.23171(11)
C4 C 0.41296(18) 0.44198(13) 0.18922(12)
C5 C 0.58929(19) 0.33678(13) 0.09434(13)
N2 N 0.76474(16) 0.34775(11) 0.03355(11)
C6 C 0.90139(19) 0.23814(14) -0.05038(13)
H4 H 1.028(2) 0.2445(15) -0.0928(16)
C7 C 0.8685(2) 0.11921(14) -0.07423(14)
H5 H 0.977(2) 0.0450(17) -0.1359(16)
C8 C 0.6861(2) 0.10856(14) -0.00831(14)
H6 H 0.663(2) 0.0275(17) -0.0215(16)
C9 C 0.54400(19) 0.22098(13) 0.07766(13)
C10 C 0.33259(19) 0.24052(13) 0.16711(13)
O1 O 0.22327(14) 0.22196(10) 0.09445(10)
H7 H 0.225(3) 0.285(2) 0.026(2)
C11 C 0.26125(19) 0.38944(13) 0.22915(13)
C12 C 0.32870(19) 0.13724(13) 0.27495(13)
C13 C 0.33370(19) 0.04783(14) 0.35574(13)
C14 C 0.34057(19) -0.06735(13) 0.44532(13)
C15 C 0.5041(2) -0.18929(14) 0.40773(14)
H8 H 0.616(3) -0.1933(18) 0.3247(18)
C16 C 0.5056(2) -0.30412(14) 0.48805(15)
H9 H 0.618(3) -0.3887(18) 0.4589(17)
C17 C 0.3453(2) -0.29920(14) 0.60577(14)
H10 H 0.346(2) -0.3792(17) 0.6618(16)
C18 C 0.1843(2) -0.17793(14) 0.64560(14)
H11 H 0.074(3) -0.1735(18) 0.7272(18)
C19 C 0.1822(2) -0.06195(14) 0.56625(14)
H12 H 0.068(2) 0.0226(18) 0.5929(17)
O2 O 0.76462(15) 0.60471(11) 0.11223(10)
H13 H 0.799(3) 0.519(2) 0.077(2)
H14 H 0.634(3) 0.617(2) 0.160(2)
loop_
_geom_bond_atom_site_label_1
_geom_bond_atom_site_label_2
_geom_bond_site_symmetry_1
_geom_bond_site_symmetry_2
C1 H1 1_555 1_555
C2 C1 1_555 1_555
H2 C2 1_555 1_555
C3 C2 1_555 1_555
H3 C3 1_555 1_555
N1 C3 1_555 1_555
C4 N1 1_555 1_555
C5 C4 1_555 1_555
N2 C5 1_555 1_555
C6 N2 1_555 1_555
H4 C6 1_555 1_555
C7 C6 1_555 1_555
H5 C7 1_555 1_555
C8 C7 1_555 1_555
H6 C8 1_555 1_555
C9 C5 1_555 1_555
C10 C9 1_555 1_555
O1 C10 1_555 1_555
H7 O1 1_555 1_555
C11 C1 1_555 1_555
C12 C10 1_555 1_555
C13 C12 1_555 1_555
C14 C13 1_555 1_555
C15 C14 1_555 1_555
H8 C15 1_555 1_555
C16 C15 1_555 1_555
H9 C16 1_555 1_555
C17 C16 1_555 1_555
H10 C17 1_555 1_555
C18 C17 1_555 1_555
H11 C18 1_555 1_555
C19 C14 1_555 1_555
H12 C19 1_555 1_555
O2 H13 1_555 1_555
H14 O2 1_555 1_555
C4 C11 1_555 1_555
C8 C9 1_555 1_555
C10 C11 1_555 1_555
C18 C19 1_555 1_555

#END
