
#######################################################################
#
#                 Cambridge Crystallographic Data Centre
#                                CCDC 
#
#######################################################################
#
# If this CIF has been generated from an entry in the Cambridge 
# Structural Database, then it will include bibliographic, chemical, 
# crystal, experimental, refinement or atomic coordinate data resulting 
# from the CCDC's data processing and validation procedures.
#
#######################################################################

data_UHERUV
_chemical_formula_moiety         'C21 H36 N8,4(C1 H4 O1)'
_chemical_name_systematic        
'1,4,8,11,14,18,23,27-Octa-azabicyclo[9.9.9]nonacosa-4,6,14,16,23,25-hexaene methanol solvate'
_symmetry_cell_setting           monoclinic
_symmetry_space_group_name_H-M   'P 21/n'
_symmetry_Int_Tables_number      14
_space_group_name_Hall           '-P 2yn'
loop_
_symmetry_equiv_pos_site_id
_symmetry_equiv_pos_as_xyz
1 x,y,z
2 1/2-x,1/2+y,1/2-z
3 -x,-y,-z
4 1/2+x,1/2-y,1/2+z
_cell_length_a                   7.9092(3)
_cell_length_b                   17.0385(7)
_cell_length_c                   23.2707(9)
_cell_angle_alpha                90
_cell_angle_beta                 91.0430(10)
_cell_angle_gamma                90
_cell_volume                     3135.46
_exptl_crystal_colour            colorless
_exptl_crystal_description       block
_cell_formula_units_Z            4
_exptl_crystal_recrystallization_method methanol
loop_
_atom_site_label
_atom_site_type_symbol
_atom_site_fract_x
_atom_site_fract_y
_atom_site_fract_z
N1 N 0.22428(13) 0.86137(7) -0.01837(4)
C1 C 0.3089(2) 0.82283(11) -0.06572(6)
H1 H 0.3575 0.8631 -0.0913
H2 H 0.2252 0.7922 -0.0885
C2 C 0.4486(2) 0.76864(11) -0.04431(8)
H3 H 0.5171 0.7515 -0.0772
H4 H 0.5237 0.7975 -0.0172
N2 N 0.37991(17) 0.70040(8) -0.01579(7)
H5 H 0.3092 0.6694 -0.0346
C3 C 0.4217(2) 0.68456(10) 0.03728(9)
H6 H 0.4973 0.7194 0.0566
C4 C 0.3628(2) 0.61964(10) 0.06775(10)
H7 H 0.2819 0.5858 0.0500
C5 C 0.4191(2) 0.60346(10) 0.12270(12)
H8 H 0.4833 0.6391 0.1457
N5 N 0.3692(6) 0.5446(3) 0.16178(16)
C8 C 0.4403(4) 0.5294(2) 0.21905(17)
H14 H 0.5069 0.5755 0.2320
H15 H 0.5176 0.4838 0.2174
C9 C 0.3023(5) 0.5128(2) 0.26192(18)
H16 H 0.2239 0.4729 0.2457
H17 H 0.3539 0.4910 0.2976
N6 N 0.2075(4) 0.58343(19) 0.27577(13)
C10 C 0.31332(18) 0.93220(8) 0.00012(6)
H18 H 0.2740 0.9770 -0.0237
H19 H 0.4359 0.9254 -0.0061
C11 C 0.28502(19) 0.95040(9) 0.06235(7)
H20 H 0.3198 1.0052 0.0702
H21 H 0.1628 0.9460 0.0703
N7 N 0.37826(15) 0.89842(8) 0.10047(5)
H22 H 0.4890 0.8968 0.0977
C12 C 0.30656(18) 0.85305(9) 0.13935(6)
H23 H 0.1866 0.8499 0.1384
C13 C 0.39029(18) 0.81049(9) 0.18066(6)
H24 H 0.5102 0.8076 0.1801
C14 C 0.3027(2) 0.77095(12) 0.22393(7)
H25 H 0.1836 0.7773 0.2254
N9 N 0.3674(8) 0.7467(2) 0.2678(3)
C17 C 0.2605(6) 0.7169(2) 0.31300(16)
H30 H 0.1403 0.7268 0.3027
H31 H 0.2869 0.7449 0.3494
C18 C 0.2885(5) 0.6294(3) 0.32135(15)
H32 H 0.4115 0.6183 0.3221
H33 H 0.2427 0.6133 0.3589
C19 C 0.04627(17) 0.87667(9) -0.03197(6)
H34 H 0.0343 0.8918 -0.0729
H35 H 0.0067 0.9212 -0.0084
C20 C -0.06329(17) 0.80524(9) -0.02064(6)
H36 H -0.1706 0.8100 -0.0429
H37 H -0.0043 0.7575 -0.0339
N10 N -0.10043(14) 0.79711(7) 0.04010(5)
C21 C -0.05602(16) 0.73386(8) 0.06760(6)
H38 H 0.0099 0.6961 0.0480
C22 C -0.09979(17) 0.71792(8) 0.12485(6)
H39 H -0.1594 0.7564 0.1459
C23 C -0.05832(18) 0.64814(9) 0.15083(7)
H40 H 0.0140 0.6174 0.1277
N12 N -0.1118(9) 0.6327(3) 0.2072(2)
H46 H -0.1674 0.6686 0.2264
C26 C -0.0746(7) 0.5573(3) 0.23329(19)
H47 H -0.0132 0.5243 0.2056
H48 H -0.1819 0.5305 0.2423
C27 C 0.0316(4) 0.5657(2) 0.28791(15)
H49 H -0.0157 0.6082 0.3117
H50 H 0.0260 0.5163 0.3102
O1 O 0.1778(7) 0.6001(3) -0.0776(3)
H51 H 0.0791 0.5809 -0.0910
C28 C 0.2919(6) 0.5419(2) -0.0940(2)
H52 H 0.3522 0.5593 -0.1282
H53 H 0.2302 0.4934 -0.1028
H54 H 0.3734 0.5323 -0.0626
O2 O 0.1561(5) 0.4278(3) 0.08770(18)
H55 H 0.1878 0.4577 0.1166
C29 C 0.2334(5) 0.4064(3) 0.0389(3)
H56 H 0.1822 0.4347 0.0062
H57 H 0.2200 0.3498 0.0330
H58 H 0.3539 0.4193 0.0419
O3 O 0.72761(12) 0.90996(6) 0.09553(4)
C30 C 0.8174(2) 0.94102(10) 0.14233(7)
H59 H 0.8966 0.9810 0.1289
H60 H 0.8805 0.8990 0.1619
H61 H 0.7384 0.9649 0.1691
H65 H 0.7857 0.8747 0.0792
O4 O 0.71542(17) 0.72791(9) 0.27774(6)
C31 C 0.7745(3) 0.80208(16) 0.29276(10)
H62 H 0.7171 0.8202 0.3273
H63 H 0.7515 0.8387 0.2611
H64 H 0.8966 0.7997 0.3004
H66 H 0.6088 0.7326 0.2739
N3? N 0.3766(10) 0.5370(4) 0.1390(2)
H9? H 0.3050 0.5067 0.1200
C6? C 0.4574(7) 0.5151(3) 0.1925(2)
H10? H 0.5223 0.5602 0.2081
H11? H 0.5376 0.4715 0.1859
C7? C 0.3269(6) 0.4896(3) 0.2357(2)
H12? H 0.2471 0.4523 0.2171
H13? H 0.3845 0.4620 0.2680
N4? N 0.2326(6) 0.5562(3) 0.2581(2)
N8? N 0.3859(12) 0.7205(3) 0.2669(4)
C15? C 0.2856(7) 0.6800(4) 0.3100(2)
H26? H 0.1639 0.6904 0.3028
H27? H 0.3161 0.6999 0.3487
C16? C 0.3186(6) 0.5924(3) 0.3071(2)
H28? H 0.4417 0.5831 0.3045
H29? H 0.2795 0.5674 0.3430
N11? N -0.0896(14) 0.6155(5) 0.1954(4)
H41? H -0.1437 0.6451 0.2201
C24? C -0.0549(10) 0.5367(4) 0.2160(3)
H42? H 0.0018 0.5067 0.1854
H43? H -0.1631 0.5102 0.2241
C25? C 0.0563(7) 0.5359(3) 0.2700(2)
H44? H 0.0109 0.5738 0.2981
H45? H 0.0525 0.4830 0.2876
C32? C 0.2342(11) 0.3714(4) 0.1143(5)
H67? H 0.0682 0.4241 0.0961
H68? H 0.1591 0.3267 0.1068
H69? H 0.2983 0.3624 0.1501
H70? H 0.3128 0.3771 0.0825
O5? O 0.1415(6) 0.4373(3) 0.1191(2)
loop_
_geom_bond_atom_site_label_1
_geom_bond_atom_site_label_2
_geom_bond_site_symmetry_1
_geom_bond_site_symmetry_2
N1 C1 1_555 1_555
C1 H1 1_555 1_555
H2 C1 1_555 1_555
C2 C1 1_555 1_555
H3 C2 1_555 1_555
H4 C2 1_555 1_555
N2 C2 1_555 1_555
H5 N2 1_555 1_555
C3 N2 1_555 1_555
H6 C3 1_555 1_555
C4 C3 1_555 1_555
H7 C4 1_555 1_555
C5 C4 1_555 1_555
H8 C5 1_555 1_555
N5 C5 1_555 1_555
C8 N5 1_555 1_555
H14 C8 1_555 1_555
H15 C8 1_555 1_555
C9 C8 1_555 1_555
H16 C9 1_555 1_555
H17 C9 1_555 1_555
N6 C9 1_555 1_555
C10 N1 1_555 1_555
H18 C10 1_555 1_555
H19 C10 1_555 1_555
C11 C10 1_555 1_555
H20 C11 1_555 1_555
H21 C11 1_555 1_555
N7 C11 1_555 1_555
H22 N7 1_555 1_555
C12 N7 1_555 1_555
H23 C12 1_555 1_555
C13 C12 1_555 1_555
H24 C13 1_555 1_555
C14 C13 1_555 1_555
H25 C14 1_555 1_555
N9 C14 1_555 1_555
C17 N9 1_555 1_555
H30 C17 1_555 1_555
H31 C17 1_555 1_555
C18 N6 1_555 1_555
H32 C18 1_555 1_555
H33 C18 1_555 1_555
C19 N1 1_555 1_555
H34 C19 1_555 1_555
H35 C19 1_555 1_555
C20 C19 1_555 1_555
H36 C20 1_555 1_555
H37 C20 1_555 1_555
N10 C20 1_555 1_555
C21 N10 1_555 1_555
H38 C21 1_555 1_555
C22 C21 1_555 1_555
H39 C22 1_555 1_555
C23 C22 1_555 1_555
H40 C23 1_555 1_555
N12 C23 1_555 1_555
H46 N12 1_555 1_555
C26 N12 1_555 1_555
H47 C26 1_555 1_555
H48 C26 1_555 1_555
C27 N6 1_555 1_555
H49 C27 1_555 1_555
H50 C27 1_555 1_555
O1 H51 1_555 1_555
C28 O1 1_555 1_555
H52 C28 1_555 1_555
H53 C28 1_555 1_555
H54 C28 1_555 1_555
O2 H55 1_555 1_555
C29 O2 1_555 1_555
H56 C29 1_555 1_555
H57 C29 1_555 1_555
H58 C29 1_555 1_555
O3 C30 1_555 1_555
C30 H59 1_555 1_555
H60 C30 1_555 1_555
H61 C30 1_555 1_555
O4 C31 1_555 1_555
C31 H62 1_555 1_555
H63 C31 1_555 1_555
H64 C31 1_555 1_555
H65 O3 1_555 1_555
H66 O4 1_555 1_555
C17 C18 1_555 1_555
C26 C27 1_555 1_555

#END
