
#######################################################################
#
#                 Cambridge Crystallographic Data Centre
#                                CCDC 
#
#######################################################################
#
# If this CIF has been generated from an entry in the Cambridge 
# Structural Database, then it will include bibliographic, chemical, 
# crystal, experimental, refinement or atomic coordinate data resulting 
# from the CCDC's data processing and validation procedures.
#
#######################################################################

data_UHEWIN
_chemical_formula_moiety         'C20 H16 O1 S2'
_chemical_name_systematic        
'(1R*,2R*,4S*)-1,4-Dihydro-1,4-diphenyl-2,3-benzodithiin 2-oxide'
_symmetry_cell_setting           monoclinic
_symmetry_space_group_name_H-M   'P 21/a'
_symmetry_Int_Tables_number      14
_space_group_name_Hall           '-P 2yab'
loop_
_symmetry_equiv_pos_site_id
_symmetry_equiv_pos_as_xyz
1 x,y,z
2 1/2+x,1/2-y,z
3 -x,-y,-z
4 1/2-x,1/2+y,-z
_cell_length_a                   7.971(2)
_cell_length_b                   19.276(2)
_cell_length_c                   10.785(2)
_cell_angle_alpha                90
_cell_angle_beta                 92.18(2)
_cell_angle_gamma                90
_cell_volume                     1655.91
_exptl_crystal_colour            colorless
_exptl_crystal_description       prismatic
_chemical_melting_point          145.0deg.C
_cell_formula_units_Z            4
loop_
_atom_site_label
_atom_site_type_symbol
_atom_site_fract_x
_atom_site_fract_y
_atom_site_fract_z
S1 S 0.19947(8) 0.03712(3) 0.44356(6)
S2 S 0.27041(10) 0.08073(4) 0.27657(6)
O1 O 0.2734(3) -0.03289(8) 0.4601(2)
C1 C 0.3304(3) 0.0925(1) 0.5522(2)
C2 C 0.4639(4) 0.1302(1) 0.3213(3)
C3 C 0.4339(4) 0.2575(1) 0.3808(3)
C4 C 0.3788(4) 0.3076(1) 0.4611(3)
C5 C 0.3026(4) 0.2889(1) 0.5683(3)
C6 C 0.2845(3) 0.2196(1) 0.5976(3)
C7 C 0.4143(3) 0.1873(1) 0.4077(2)
C8 C 0.3405(3) 0.1684(1) 0.5187(2)
C9 C 0.2707(3) 0.0769(1) 0.6809(2)
C10 C 0.1032(4) 0.0759(1) 0.7072(3)
C11 C 0.0539(4) 0.0634(2) 0.8272(3)
C12 C 0.1727(5) 0.0536(2) 0.9206(3)
C13 C 0.3399(5) 0.0549(2) 0.8950(3)
C14 C 0.3888(4) 0.0657(2) 0.7765(3)
C15 C 0.5440(4) 0.1488(1) 0.2013(3)
C16 C 0.7016(4) 0.1231(2) 0.1777(3)
C17 C 0.7740(6) 0.1377(2) 0.0661(4)
C18 C 0.6919(6) 0.1770(2) -0.0221(4)
C19 C 0.5359(6) 0.2029(2) 0.0004(3)
C20 C 0.4609(5) 0.1893(2) 0.1114(3)
H1 H 0.449(4) 0.070(1) 0.542(2)
H2 H 0.527(3) 0.098(1) 0.366(2)
H3 H 0.493(4) 0.270(1) 0.307(3)
H4 H 0.388(3) 0.356(1) 0.438(2)
H5 H 0.261(3) 0.324(1) 0.623(3)
H6 H 0.236(3) 0.208(1) 0.670(3)
H7 H 0.025(4) 0.083(2) 0.651(3)
H8 H -0.059(5) 0.061(2) 0.842(3)
H9 H 0.138(4) 0.042(1) 0.994(3)
H10 H 0.423(5) 0.045(2) 0.960(4)
H11 H 0.500(4) 0.066(2) 0.756(3)
H12 H 0.753(5) 0.096(2) 0.238(3)
H13 H 0.876(5) 0.119(2) 0.052(3)
H14 H 0.750(5) 0.180(2) -0.093(4)
H15 H 0.467(5) 0.227(2) -0.062(4)
H16 H 0.343(4) 0.206(2) 0.130(3)
loop_
_geom_bond_atom_site_label_1
_geom_bond_atom_site_label_2
_geom_bond_site_symmetry_1
_geom_bond_site_symmetry_2
S1 S2 1_555 1_555
S2 C2 1_555 1_555
O1 S1 1_555 1_555
C1 S1 1_555 1_555
C2 C7 1_555 1_555
C3 C4 1_555 1_555
C4 C5 1_555 1_555
C5 C6 1_555 1_555
C6 C8 1_555 1_555
C7 C3 1_555 1_555
C8 C1 1_555 1_555
C9 C1 1_555 1_555
C10 C9 1_555 1_555
C11 C10 1_555 1_555
C12 C11 1_555 1_555
C13 C12 1_555 1_555
C14 C9 1_555 1_555
C15 C2 1_555 1_555
C16 C15 1_555 1_555
C17 C16 1_555 1_555
C18 C17 1_555 1_555
C19 C18 1_555 1_555
C20 C15 1_555 1_555
H1 C1 1_555 1_555
H2 C2 1_555 1_555
H3 C3 1_555 1_555
H4 C4 1_555 1_555
H5 C5 1_555 1_555
H6 C6 1_555 1_555
H7 C10 1_555 1_555
H8 C11 1_555 1_555
H9 C12 1_555 1_555
H10 C13 1_555 1_555
H11 C14 1_555 1_555
H12 C16 1_555 1_555
H13 C17 1_555 1_555
H14 C18 1_555 1_555
H15 C19 1_555 1_555
H16 C20 1_555 1_555
C7 C8 1_555 1_555
C13 C14 1_555 1_555
C19 C20 1_555 1_555

#END
