
#######################################################################
#
#                 Cambridge Crystallographic Data Centre
#                                CCDC 
#
#######################################################################
#
# If this CIF has been generated from an entry in the Cambridge 
# Structural Database, then it will include bibliographic, chemical, 
# crystal, experimental, refinement or atomic coordinate data resulting 
# from the CCDC's data processing and validation procedures.
#
#######################################################################

data_UHIBUK
_chemical_formula_moiety         'C84 H74 O2,C1 H2 Cl2'
_chemical_name_systematic        
"2,2'-bis(hexyloxy)-3,3'-bis(4-(triphenylvinyl)phenyl)-1,1'-binaphthalene dichloromethane solvate"
_symmetry_cell_setting           monoclinic
_symmetry_space_group_name_H-M   'P 21'
_symmetry_Int_Tables_number      4
_space_group_name_Hall           'P 2yb'
loop_
_symmetry_equiv_pos_site_id
_symmetry_equiv_pos_as_xyz
1 x,y,z
2 -x,1/2+y,-z
_cell_length_a                   9.8354(2)
_cell_length_b                   9.6965(3)
_cell_length_c                   34.4455(9)
_cell_angle_alpha                90
_cell_angle_beta                 90.286(2)
_cell_angle_gamma                90
_cell_volume                     3284.99
_exptl_crystal_colour            colorless
_exptl_crystal_description       plate
_cell_formula_units_Z            2
loop_
_atom_site_label
_atom_site_type_symbol
_atom_site_fract_x
_atom_site_fract_y
_atom_site_fract_z
O1 O 0.7134(2) 0.6052(3) 0.28420(6)
O2 O 0.6142(2) 0.3165(3) 0.22974(7)
C1 C 0.8082(3) 0.3808(4) 0.28476(9)
C2 C 0.7435(3) 0.4855(4) 0.30416(9)
C3 C 0.7099(3) 0.4752(4) 0.34460(9)
C4 C 0.7438(3) 0.3545(4) 0.36348(9)
H1 H 0.7227 0.3454 0.3902
C5 C 0.8086(3) 0.2441(4) 0.34443(9)
C6 C 0.8401(3) 0.1196(4) 0.36427(10)
H2 H 0.8168 0.1100 0.3909
C7 C 0.9034(4) 0.0137(4) 0.34551(11)
H3 H 0.9243 -0.0687 0.3592
C8 C 0.9381(4) 0.0257(4) 0.30596(11)
H4 H 0.9816 -0.0487 0.2931
C9 C 0.9091(3) 0.1447(4) 0.28623(10)
H5 H 0.9335 0.1523 0.2597
C10 C 0.8429(3) 0.2574(4) 0.30473(9)
C11 C 0.8368(3) 0.3967(4) 0.24246(9)
C12 C 0.7376(3) 0.3620(4) 0.21563(9)
C13 C 0.7573(3) 0.3768(4) 0.17461(9)
C14 C 0.8805(3) 0.4289(4) 0.16224(9)
H6 H 0.8952 0.4408 0.1352
C15 C 0.9851(3) 0.4651(4) 0.18850(9)
C16 C 1.1105(3) 0.5180(4) 0.17512(10)
H7 H 1.1244 0.5305 0.1481
C17 C 1.2126(4) 0.5514(4) 0.20101(11)
H8 H 1.2966 0.5866 0.1918
C18 C 1.1926(4) 0.5333(4) 0.24091(11)
H9 H 1.2633 0.5570 0.2586
C19 C 1.0717(4) 0.4817(4) 0.25491(10)
H10 H 1.0603 0.4688 0.2820
C20 C 0.9645(3) 0.4480(4) 0.22898(9)
C21 C 0.5709(3) 0.6217(4) 0.27404(9)
H11 H 0.5144 0.6148 0.2977
H12 H 0.5427 0.5479 0.2559
C22 C 0.5508(4) 0.7616(4) 0.25517(11)
H13 H 0.5972 0.8320 0.2713
H14 H 0.4524 0.7834 0.2551
C23 C 0.6040(5) 0.7729(5) 0.21310(13)
H15 H 0.5708 0.6919 0.1984
H16 H 0.5630 0.8559 0.2011
C24 C 0.7543(5) 0.7813(5) 0.20826(13)
H17 H 0.7970 0.6986 0.2199
H18 H 0.7890 0.8633 0.2223
C25 C 0.7953(6) 0.7912(5) 0.16482(14)
H19 H 0.8954 0.7846 0.1629
H20 H 0.7560 0.7115 0.1507
C26 C 0.7488(5) 0.9230(5) 0.14513(12)
H21 H 0.7859 0.9268 0.1188
H22 H 0.7812 1.0026 0.1601
H23 H 0.6493 0.9246 0.1438
C27 C 0.5913(4) 0.1714(4) 0.22645(10)
H24 H 0.6603 0.1200 0.2417
H25 H 0.5974 0.1423 0.1990
C28 C 0.4515(4) 0.1430(4) 0.24191(11)
H26 H 0.3843 0.1952 0.2262
H27 H 0.4313 0.0436 0.2387
C29 C 0.4344(5) 0.1807(6) 0.28383(12)
H28 H 0.4558 0.2797 0.2874
H29 H 0.4994 0.1268 0.2998
C30 C 0.2902(5) 0.1529(6) 0.29795(13)
H30 H 0.2262 0.2078 0.2820
H31 H 0.2690 0.0543 0.2935
C31 C 0.2654(6) 0.1858(7) 0.34015(15)
H32 H 0.1755 0.1485 0.3476
H33 H 0.3351 0.1381 0.3561
C32 C 0.2691(8) 0.3369(7) 0.34956(15)
H34 H 0.3522 0.3777 0.3390
H35 H 0.2677 0.3492 0.3778
H36 H 0.1896 0.3823 0.3380
C33 C 0.4290(4) 0.9111(4) 0.42763(9)
C34 C 0.5033(3) 0.7978(4) 0.40738(9)
C35 C 0.6078(3) 0.8290(4) 0.38159(10)
H37 H 0.6341 0.9225 0.3782
C36 C 0.6741(3) 0.7269(4) 0.36077(9)
H38 H 0.7427 0.7515 0.3427
C37 C 0.6408(3) 0.5881(4) 0.36608(9)
C38 C 0.5385(3) 0.5565(4) 0.39317(10)
H39 H 0.5155 0.4628 0.3978
C39 C 0.4709(3) 0.6591(4) 0.41321(9)
H40 H 0.4018 0.6350 0.4311
C40 C 0.2920(3) 0.9206(4) 0.42677(9)
C41 C 0.2072(3) 0.8295(4) 0.40141(10)
C42 C 0.2323(4) 0.8175(4) 0.36200(10)
H41 H 0.3045 0.8684 0.3507
C43 C 0.1530(4) 0.7316(4) 0.33876(11)
H42 H 0.1707 0.7251 0.3117
C44 C 0.0484(4) 0.6556(4) 0.35494(12)
H43 H -0.0052 0.5964 0.3391
C45 C 0.0224(4) 0.6660(5) 0.39406(11)
H44 H -0.0491 0.6138 0.4052
C46 C 0.1001(4) 0.7523(4) 0.41714(10)
H45 H 0.0807 0.7594 0.4441
C47 C 0.5199(3) 1.0128(4) 0.44765(9)
C48 C 0.6237(4) 0.9667(4) 0.47193(10)
H46 H 0.6356 0.8704 0.4758
C49 C 0.7103(4) 1.0582(4) 0.49060(10)
H47 H 0.7803 1.0250 0.5072
C50 C 0.6938(4) 1.1978(4) 0.48483(10)
H48 H 0.7533 1.2609 0.4974
C51 C 0.5915(4) 1.2468(4) 0.46094(9)
H49 H 0.5798 1.3432 0.4574
C52 C 0.5053(3) 1.1539(4) 0.44201(9)
H50 H 0.4361 1.1875 0.4251
C53 C 0.2162(3) 1.0261(4) 0.44956(10)
C54 C 0.2460(4) 1.0548(4) 0.48867(10)
H51 H 0.3124 1.0016 0.5021
C55 C 0.1785(4) 1.1607(4) 0.50787(10)
H52 H 0.1986 1.1783 0.5344
C56 C 0.0830(4) 1.2404(4) 0.48896(12)
H53 H 0.0405 1.3152 0.5020
C57 C 0.0493(4) 1.2103(4) 0.45054(12)
H54 H -0.0179 1.2634 0.4374
C58 C 0.1138(4) 1.1031(4) 0.43142(10)
H55 H 0.0880 1.0816 0.4055
C59 C 0.3287(3) 0.2309(4) 0.06539(10)
C60 C 0.4400(3) 0.2664(4) 0.09333(9)
C61 C 0.4117(3) 0.3384(4) 0.12718(10)
H56 H 0.3203 0.3628 0.1326
C62 C 0.5131(4) 0.3758(4) 0.15325(10)
H57 H 0.4902 0.4258 0.1760
C63 C 0.6477(3) 0.3409(4) 0.14644(9)
C64 C 0.6783(3) 0.2699(4) 0.11198(9)
H58 H 0.7698 0.2453 0.1066
C65 C 0.5765(3) 0.2352(4) 0.08565(9)
H59 H 0.5997 0.1898 0.0621
C66 C 0.2091(3) 0.1770(4) 0.07880(9)
C67 C 0.1995(4) 0.1101(4) 0.11769(9)
C68 C 0.2948(4) 0.0128(5) 0.12949(12)
H60 H 0.3710 -0.0056 0.1135
C69 C 0.2806(5) -0.0578(5) 0.16411(14)
H61 H 0.3454 -0.1258 0.1714
C70 C 0.1707(5) -0.0289(6) 0.18843(13)
H62 H 0.1610 -0.0762 0.2124
C71 C 0.0776(5) 0.0678(6) 0.17739(12)
H63 H 0.0037 0.0887 0.1940
C72 C 0.0894(4) 0.1360(5) 0.14222(10)
H64 H 0.0220 0.2010 0.1347
C73 C 0.3577(3) 0.2572(4) 0.02374(9)
C74 C 0.4321(4) 0.3694(4) 0.01135(11)
H65 H 0.4611 0.4364 0.0297
C75 C 0.4651(4) 0.3863(5) -0.02749(11)
H66 H 0.5163 0.4645 -0.0353
C76 C 0.4251(4) 0.2919(5) -0.05462(10)
H67 H 0.4489 0.3039 -0.0811
C77 C 0.3485(4) 0.1772(5) -0.04309(10)
H68 H 0.3195 0.1110 -0.0617
C78 C 0.3154(4) 0.1609(5) -0.00418(10)
H69 H 0.2632 0.0833 0.0036
C79 C 0.0809(3) 0.1831(4) 0.05604(9)
C80 C 0.0410(4) 0.3043(4) 0.03781(10)
H70 H 0.0992 0.3824 0.0387
C81 C -0.0819(4) 0.3134(5) 0.01843(11)
H71 H -0.1073 0.3978 0.0064
C82 C -0.1677(4) 0.2022(5) 0.01632(10)
H72 H -0.2514 0.2089 0.0026
C83 C -0.1311(4) 0.0789(5) 0.03452(11)
H73 H -0.1895 0.0010 0.0330
C84 C -0.0087(4) 0.0705(4) 0.05489(10)
H74 H 0.0143 -0.0122 0.0681
C85 C 0.1417(5) 0.7390(5) 0.08509(15)
H75 H 0.1635 0.8128 0.0663
H76 H 0.1380 0.7812 0.1112
Cl1 Cl -0.01908(12) 0.66967(14) 0.07358(3)
Cl2 Cl 0.27144(12) 0.61535(14) 0.08439(4)
loop_
_geom_bond_atom_site_label_1
_geom_bond_atom_site_label_2
_geom_bond_site_symmetry_1
_geom_bond_site_symmetry_2
O1 C2 1_555 1_555
O2 C12 1_555 1_555
C1 C2 1_555 1_555
C2 C3 1_555 1_555
C3 C4 1_555 1_555
C4 H1 1_555 1_555
C5 C4 1_555 1_555
C6 C5 1_555 1_555
H2 C6 1_555 1_555
C7 C6 1_555 1_555
H3 C7 1_555 1_555
C8 C7 1_555 1_555
H4 C8 1_555 1_555
C9 C8 1_555 1_555
H5 C9 1_555 1_555
C10 C1 1_555 1_555
C11 C1 1_555 1_555
C12 C11 1_555 1_555
C13 C12 1_555 1_555
C14 C13 1_555 1_555
H6 C14 1_555 1_555
C15 C14 1_555 1_555
C16 C15 1_555 1_555
H7 C16 1_555 1_555
C17 C16 1_555 1_555
H8 C17 1_555 1_555
C18 C17 1_555 1_555
H9 C18 1_555 1_555
C19 C18 1_555 1_555
H10 C19 1_555 1_555
C20 C11 1_555 1_555
C21 O1 1_555 1_555
H11 C21 1_555 1_555
H12 C21 1_555 1_555
C22 C21 1_555 1_555
H13 C22 1_555 1_555
H14 C22 1_555 1_555
C23 C22 1_555 1_555
H15 C23 1_555 1_555
H16 C23 1_555 1_555
C24 C23 1_555 1_555
H17 C24 1_555 1_555
H18 C24 1_555 1_555
C25 C24 1_555 1_555
H19 C25 1_555 1_555
H20 C25 1_555 1_555
C26 C25 1_555 1_555
H21 C26 1_555 1_555
H22 C26 1_555 1_555
H23 C26 1_555 1_555
C27 O2 1_555 1_555
H24 C27 1_555 1_555
H25 C27 1_555 1_555
C28 C27 1_555 1_555
H26 C28 1_555 1_555
H27 C28 1_555 1_555
C29 C28 1_555 1_555
H28 C29 1_555 1_555
H29 C29 1_555 1_555
C30 C29 1_555 1_555
H30 C30 1_555 1_555
H31 C30 1_555 1_555
C31 C30 1_555 1_555
H32 C31 1_555 1_555
H33 C31 1_555 1_555
C32 C31 1_555 1_555
H34 C32 1_555 1_555
H35 C32 1_555 1_555
H36 C32 1_555 1_555
C33 C34 1_555 1_555
C34 C35 1_555 1_555
C35 H37 1_555 1_555
C36 C35 1_555 1_555
H38 C36 1_555 1_555
C37 C3 1_555 1_555
C38 C37 1_555 1_555
H39 C38 1_555 1_555
C39 C34 1_555 1_555
H40 C39 1_555 1_555
C40 C33 1_555 1_555
C41 C40 1_555 1_555
C42 C41 1_555 1_555
H41 C42 1_555 1_555
C43 C42 1_555 1_555
H42 C43 1_555 1_555
C44 C43 1_555 1_555
H43 C44 1_555 1_555
C45 C44 1_555 1_555
H44 C45 1_555 1_555
C46 C41 1_555 1_555
H45 C46 1_555 1_555
C47 C33 1_555 1_555
C48 C47 1_555 1_555
H46 C48 1_555 1_555
C49 C48 1_555 1_555
H47 C49 1_555 1_555
C50 C49 1_555 1_555
H48 C50 1_555 1_555
C51 C50 1_555 1_555
H49 C51 1_555 1_555
C52 C47 1_555 1_555
H50 C52 1_555 1_555
C53 C40 1_555 1_555
C54 C53 1_555 1_555
H51 C54 1_555 1_555
C55 C54 1_555 1_555
H52 C55 1_555 1_555
C56 C55 1_555 1_555
H53 C56 1_555 1_555
C57 C56 1_555 1_555
H54 C57 1_555 1_555
C58 C53 1_555 1_555
H55 C58 1_555 1_555
C59 C60 1_555 1_555
C60 C61 1_555 1_555
C61 H56 1_555 1_555
C62 C61 1_555 1_555
H57 C62 1_555 1_555
C63 C13 1_555 1_555
C64 C63 1_555 1_555
H58 C64 1_555 1_555
C65 C60 1_555 1_555
H59 C65 1_555 1_555
C66 C59 1_555 1_555
C67 C66 1_555 1_555
C68 C67 1_555 1_555
H60 C68 1_555 1_555
C69 C68 1_555 1_555
H61 C69 1_555 1_555
C70 C69 1_555 1_555
H62 C70 1_555 1_555
C71 C70 1_555 1_555
H63 C71 1_555 1_555
C72 C67 1_555 1_555
H64 C72 1_555 1_555
C73 C59 1_555 1_555
C74 C73 1_555 1_555
H65 C74 1_555 1_555
C75 C74 1_555 1_555
H66 C75 1_555 1_555
C76 C75 1_555 1_555
H67 C76 1_555 1_555
C77 C76 1_555 1_555
H68 C77 1_555 1_555
C78 C73 1_555 1_555
H69 C78 1_555 1_555
C79 C66 1_555 1_555
C80 C79 1_555 1_555
H70 C80 1_555 1_555
C81 C80 1_555 1_555
H71 C81 1_555 1_555
C82 C81 1_555 1_555
H72 C82 1_555 1_555
C83 C82 1_555 1_555
H73 C83 1_555 1_555
C84 C79 1_555 1_555
H74 C84 1_555 1_555
C85 H75 1_555 1_555
H76 C85 1_555 1_555
Cl1 C85 1_555 1_555
Cl2 C85 1_555 1_555
C5 C10 1_555 1_555
C9 C10 1_555 1_555
C15 C20 1_555 1_555
C19 C20 1_555 1_555
C36 C37 1_555 1_555
C38 C39 1_555 1_555
C45 C46 1_555 1_555
C51 C52 1_555 1_555
C57 C58 1_555 1_555
C62 C63 1_555 1_555
C64 C65 1_555 1_555
C71 C72 1_555 1_555
C77 C78 1_555 1_555
C83 C84 1_555 1_555

#END
