
#######################################################################
#
#                 Cambridge Crystallographic Data Centre
#                                CCDC 
#
#######################################################################
#
# If this CIF has been generated from an entry in the Cambridge 
# Structural Database, then it will include bibliographic, chemical, 
# crystal, experimental, refinement or atomic coordinate data resulting 
# from the CCDC's data processing and validation procedures.
#
#######################################################################

data_UHIFOH
_chemical_formula_moiety         'C28 H52 Li2 N2 O2 Si2'
_chemical_name_systematic        
'(\m~2~-\h^3^-(6-Methylpyridin-2-yl-N)(trimethylsilyl)methyl-C)-(\m~2~-(6-methylpyridin-2-yl-N)(trimethylsilyl)methyl-C)-bis(diethyl ether)-di-lithium'
_symmetry_cell_setting           monoclinic
_symmetry_space_group_name_H-M   'P 21/n'
_symmetry_Int_Tables_number      14
_space_group_name_Hall           '-P 2yn'
loop_
_symmetry_equiv_pos_site_id
_symmetry_equiv_pos_as_xyz
1 x,y,z
2 1/2-x,1/2+y,1/2-z
3 -x,-y,-z
4 1/2+x,1/2-y,1/2+z
_cell_length_a                   9.452(2)
_cell_length_b                   19.319(5)
_cell_length_c                   18.524(4)
_cell_angle_alpha                90
_cell_angle_beta                 95.611(4)
_cell_angle_gamma                90
_cell_volume                     3366.33
_cell_formula_units_Z            4
loop_
_atom_site_label
_atom_site_type_symbol
_atom_site_fract_x
_atom_site_fract_y
_atom_site_fract_z
Li1 Li 0.3090(11) 0.1438(4) 0.2627(5)
Li2 Li 0.4951(11) 0.2443(5) 0.3307(6)
N1 N 0.6232(5) 0.1610(2) 0.3253(2)
N2 N 0.2794(5) 0.2416(2) 0.2963(2)
O1 O 0.1635(5) 0.0773(2) 0.2718(3)
O2 O 0.5497(5) 0.3403(2) 0.3397(3)
Si1 Si 0.4789(2) 0.08774(8) 0.12174(8)
Si2 Si 0.31238(19) 0.17118(9) 0.50965(9)
C1 C 0.5050(6) 0.1351(3) 0.2076(3)
H1 H 0.5358 0.1821 0.1968
C2 C 0.5852(6) 0.1132(3) 0.2714(3)
C3 C 0.6268(6) 0.0437(3) 0.2855(3)
H2 H 0.5982 0.0097 0.2517
C4 C 0.7068(7) 0.0256(3) 0.3468(4)
H3 H 0.7340 -0.0203 0.3544
C5 C 0.7487(7) 0.0753(3) 0.3986(3)
H4 H 0.8058 0.0635 0.4405
C6 C 0.7044(6) 0.1414(3) 0.3866(3)
C7 C 0.7425(7) 0.1984(4) 0.4401(3)
H5 H 0.7974 0.1797 0.4819
H6 H 0.6572 0.2190 0.4545
H7 H 0.7973 0.2329 0.4181
C8 C 0.3407(10) 0.0183(4) 0.1218(4)
H8 H 0.3685 -0.0147 0.1593
H9 H 0.3314 -0.0047 0.0756
H10 H 0.2512 0.0386 0.1305
C9 C 0.6441(9) 0.0467(4) 0.0934(4)
H11 H 0.7125 0.0820 0.0858
H12 H 0.6216 0.0214 0.0492
H13 H 0.6830 0.0158 0.1308
C10 C 0.4153(8) 0.1504(4) 0.0490(3)
H14 H 0.3249 0.1689 0.0589
H15 H 0.4056 0.1272 0.0030
H16 H 0.4828 0.1875 0.0478
C11 C 0.3266(6) 0.1898(3) 0.4134(3)
H17 H 0.3042 0.1450 0.3901
C12 C 0.2490(6) 0.2357(3) 0.3682(3)
C13 C 0.1411(6) 0.2806(3) 0.3916(3)
H18 H 0.1154 0.2769 0.4387
C14 C 0.0773(7) 0.3278(3) 0.3464(4)
H19 H 0.0081 0.3567 0.3625
C15 C 0.1140(6) 0.3339(3) 0.2749(4)
H20 H 0.0707 0.3670 0.2436
C16 C 0.2139(6) 0.2906(3) 0.2529(3)
C17 C 0.2564(7) 0.2934(4) 0.1768(3)
H21 H 0.3555 0.3047 0.1782
H22 H 0.2013 0.3281 0.1497
H23 H 0.2396 0.2492 0.1540
C18 C 0.4460(7) 0.1032(4) 0.5376(4)
H24 H 0.4199 0.0608 0.5128
H25 H 0.4493 0.0960 0.5890
H26 H 0.5379 0.1178 0.5254
C19 C 0.3535(9) 0.2487(4) 0.5682(4)
H27 H 0.4468 0.2655 0.5611
H28 H 0.3503 0.2362 0.6182
H29 H 0.2847 0.2843 0.5555
C20 C 0.1325(7) 0.1390(4) 0.5290(4)
H30 H 0.0618 0.1729 0.5133
H31 H 0.1319 0.1313 0.5801
H32 H 0.1120 0.0964 0.5034
C21 C 0.194(2) 0.0159(8) 0.3110(7)
H33 H 0.1142 -0.0132 0.2939
H34 H 0.2735 -0.0024 0.2875
C22 C 0.218(2) -0.0021(6) 0.3658(10)
H35 H 0.3124 0.0121 0.3836
H36 H 0.2119 -0.0517 0.3668
H37 H 0.1510 0.0173 0.3960
C23 C 0.0191(13) 0.0875(9) 0.2605(11)
H38 H -0.0212 0.0479 0.2336
H39 H -0.0178 0.0867 0.3075
C24 C -0.0292(14) 0.1416(6) 0.2277(8)
H40 H 0.0002 0.1818 0.2558
H41 H -0.1311 0.1396 0.2214
H42 H 0.0069 0.1444 0.1811
C25 C 0.6628(10) 0.3715(5) 0.3088(6)
H43 H 0.7416 0.3778 0.3459
H44 H 0.6335 0.4169 0.2906
C26 C 0.7100(9) 0.3310(5) 0.2502(5)
H45 H 0.7441 0.2869 0.2685
H46 H 0.7853 0.3550 0.2296
H47 H 0.6321 0.3241 0.2136
C27 C 0.4685(9) 0.3884(4) 0.3785(6)
H48 H 0.4586 0.4312 0.3511
H49 H 0.3739 0.3696 0.3809
C28 C 0.5263(12) 0.4035(6) 0.4483(6)
H50 H 0.5498 0.3612 0.4739
H51 H 0.4585 0.4290 0.4731
H52 H 0.6107 0.4308 0.4463
loop_
_geom_bond_atom_site_label_1
_geom_bond_atom_site_label_2
_geom_bond_site_symmetry_1
_geom_bond_site_symmetry_2
Li1 N2 1_555 1_555
Li2 N1 1_555 1_555
N1 C2 1_555 1_555
N2 Li2 1_555 1_555
O1 Li1 1_555 1_555
O2 Li2 1_555 1_555
Si1 C1 1_555 1_555
Si2 C11 1_555 1_555
C1 Li1 1_555 1_555
H1 C1 1_555 1_555
C2 C1 1_555 1_555
C3 C2 1_555 1_555
H2 C3 1_555 1_555
C4 C3 1_555 1_555
H3 C4 1_555 1_555
C5 C4 1_555 1_555
H4 C5 1_555 1_555
C6 N1 1_555 1_555
C7 C6 1_555 1_555
H5 C7 1_555 1_555
H6 C7 1_555 1_555
H7 C7 1_555 1_555
C8 Si1 1_555 1_555
H8 C8 1_555 1_555
H9 C8 1_555 1_555
H10 C8 1_555 1_555
C9 Si1 1_555 1_555
H11 C9 1_555 1_555
H12 C9 1_555 1_555
H13 C9 1_555 1_555
C10 Si1 1_555 1_555
H14 C10 1_555 1_555
H15 C10 1_555 1_555
H16 C10 1_555 1_555
C11 Li2 1_555 1_555
H17 C11 1_555 1_555
C12 Li2 1_555 1_555
C13 C12 1_555 1_555
H18 C13 1_555 1_555
C14 C13 1_555 1_555
H19 C14 1_555 1_555
C15 C14 1_555 1_555
H20 C15 1_555 1_555
C16 N2 1_555 1_555
C17 C16 1_555 1_555
H21 C17 1_555 1_555
H22 C17 1_555 1_555
H23 C17 1_555 1_555
C18 Si2 1_555 1_555
H24 C18 1_555 1_555
H25 C18 1_555 1_555
H26 C18 1_555 1_555
C19 Si2 1_555 1_555
H27 C19 1_555 1_555
H28 C19 1_555 1_555
H29 C19 1_555 1_555
C20 Si2 1_555 1_555
H30 C20 1_555 1_555
H31 C20 1_555 1_555
H32 C20 1_555 1_555
C21 O1 1_555 1_555
H33 C21 1_555 1_555
H34 C21 1_555 1_555
C22 C21 1_555 1_555
H35 C22 1_555 1_555
H36 C22 1_555 1_555
H37 C22 1_555 1_555
C23 O1 1_555 1_555
H38 C23 1_555 1_555
H39 C23 1_555 1_555
C24 C23 1_555 1_555
H40 C24 1_555 1_555
H41 C24 1_555 1_555
H42 C24 1_555 1_555
C25 O2 1_555 1_555
H43 C25 1_555 1_555
H44 C25 1_555 1_555
C26 C25 1_555 1_555
H45 C26 1_555 1_555
H46 C26 1_555 1_555
H47 C26 1_555 1_555
C27 O2 1_555 1_555
H48 C27 1_555 1_555
H49 C27 1_555 1_555
C28 C27 1_555 1_555
H50 C28 1_555 1_555
H51 C28 1_555 1_555
H52 C28 1_555 1_555
N2 C12 1_555 1_555
C5 C6 1_555 1_555
C11 C12 1_555 1_555
C15 C16 1_555 1_555

#END
