
#######################################################################
#
#                 Cambridge Crystallographic Data Centre
#                                CCDC 
#
#######################################################################
#
# If this CIF has been generated from an entry in the Cambridge 
# Structural Database, then it will include bibliographic, chemical, 
# crystal, experimental, refinement or atomic coordinate data resulting 
# from the CCDC's data processing and validation procedures.
#
#######################################################################

data_UHIGAV
_chemical_name_common            
3-((4-amino-3-methylisoxazol-5-yl)methyl)-3-hydroxyindolin-2-one
_chemical_formula_moiety         'C13 H13 N3 O3'
_chemical_name_systematic        
3-((4-amino-3-methyl-1,2-oxazol-5-yl)methyl)-3-hydroxy-1,3-dihydro-2H-indol-2-one
_symmetry_cell_setting           monoclinic
_symmetry_space_group_name_H-M   'P 21/c'
_symmetry_Int_Tables_number      14
_space_group_name_Hall           '-P 2ybc'
loop_
_symmetry_equiv_pos_site_id
_symmetry_equiv_pos_as_xyz
1 x,y,z
2 -x,1/2+y,1/2-z
3 -x,-y,-z
4 x,1/2-y,1/2+z
_cell_length_a                   6.3186(4)
_cell_length_b                   11.7574(8)
_cell_length_c                   16.3886(12)
_cell_angle_alpha                90
_cell_angle_beta                 95.537(7)
_cell_angle_gamma                90
_cell_volume                     1211.83
_exptl_crystal_colour            'light colorless'
_exptl_crystal_description       plate
_cell_formula_units_Z            4
loop_
_atom_site_label
_atom_site_type_symbol
_atom_site_fract_x
_atom_site_fract_y
_atom_site_fract_z
O1 O -0.1820(4) 0.6282(2) 0.41327(14)
O2 O 0.1680(3) 0.53975(18) 0.31793(14)
H1 H 0.1402 0.4796 0.3398
O3 O 0.3653(4) 0.71859(18) 0.20837(14)
N1 N -0.3724(5) 0.5403(2) 0.30438(17)
H2 H -0.4917 0.5330 0.3251
N2 N -0.0949(5) 0.8391(3) 0.0956(2)
N3 N 0.4544(5) 0.7567(2) 0.13756(18)
C1 C -0.3363(6) 0.5033(3) 0.2254(2)
C2 C -0.4766(6) 0.4477(3) 0.1697(3)
H3 H -0.6131 0.4291 0.1818
C3 C -0.4056(7) 0.4205(3) 0.0943(2)
H4 H -0.4965 0.3829 0.0552
C4 C -0.2017(7) 0.4483(3) 0.0765(2)
H5 H -0.1575 0.4301 0.0256
C5 C -0.0642(6) 0.5033(3) 0.1344(2)
H6 H 0.0731 0.5214 0.1229
C6 C -0.1323(5) 0.5310(2) 0.20928(19)
C7 C -0.0229(5) 0.5915(3) 0.28361(19)
C8 C -0.1976(6) 0.5889(3) 0.3441(2)
C9 C 0.0242(6) 0.7171(3) 0.26859(19)
H7 H -0.1102 0.7570 0.2588
H8 H 0.0977 0.7481 0.3184
C10 C 0.1524(5) 0.7426(2) 0.1999(2)
C11 C 0.1033(5) 0.7934(2) 0.12643(19)
C12 C 0.2965(6) 0.8005(3) 0.0896(2)
C13 C 0.3325(6) 0.8541(3) 0.0100(2)
H9 H 0.2984 0.9336 0.0117
H10 H 0.2435 0.8182 -0.0333
H11 H 0.4789 0.8453 0.0001
H12 H -0.205(6) 0.799(3) 0.1095(19)
H13 H -0.113(7) 0.843(3) 0.043(3)
loop_
_geom_bond_atom_site_label_1
_geom_bond_atom_site_label_2
_geom_bond_site_symmetry_1
_geom_bond_site_symmetry_2
O1 C8 1_555 1_555
O2 H1 1_555 1_555
O3 N3 1_555 1_555
N1 H2 1_555 1_555
N2 C11 1_555 1_555
N3 C12 1_555 1_555
C1 N1 1_555 1_555
C2 C1 1_555 1_555
H3 C2 1_555 1_555
C3 C2 1_555 1_555
H4 C3 1_555 1_555
C4 C3 1_555 1_555
H5 C4 1_555 1_555
C5 C4 1_555 1_555
H6 C5 1_555 1_555
C6 C1 1_555 1_555
C7 O2 1_555 1_555
C8 N1 1_555 1_555
C9 C7 1_555 1_555
H7 C9 1_555 1_555
H8 C9 1_555 1_555
C10 O3 1_555 1_555
C11 C10 1_555 1_555
C12 C11 1_555 1_555
C13 C12 1_555 1_555
H9 C13 1_555 1_555
H10 C13 1_555 1_555
H11 C13 1_555 1_555
H12 N2 1_555 1_555
H13 N2 1_555 1_555
C5 C6 1_555 1_555
C6 C7 1_555 1_555
C7 C8 1_555 1_555
C9 C10 1_555 1_555

#END
