
#######################################################################
#
#                 Cambridge Crystallographic Data Centre
#                                CCDC 
#
#######################################################################
#
# If this CIF has been generated from an entry in the Cambridge 
# Structural Database, then it will include bibliographic, chemical, 
# crystal, experimental, refinement or atomic coordinate data resulting 
# from the CCDC's data processing and validation procedures.
#
#######################################################################

data_UHILAA
_chemical_formula_moiety         'C19 H14 B1 F2 N1 O1'
_chemical_name_systematic        
1,1-difluoro-3,4-diphenyl-1H-9,1-pyrido[1,2-c][1,3,2]oxazaborinine
_symmetry_cell_setting           monoclinic
_symmetry_space_group_name_H-M   'P 21/n'
_symmetry_Int_Tables_number      14
_space_group_name_Hall           '-P 2yn'
loop_
_symmetry_equiv_pos_site_id
_symmetry_equiv_pos_as_xyz
1 x,y,z
2 1/2-x,1/2+y,1/2-z
3 -x,-y,-z
4 1/2+x,1/2-y,1/2+z
_cell_length_a                   10.2403(9)
_cell_length_b                   12.1323(11)
_cell_length_c                   12.4975(12)
_cell_angle_alpha                90
_cell_angle_beta                 92.5160(10)
_cell_angle_gamma                90
_cell_volume                     1551.17
_exptl_crystal_colour            yellow
_exptl_crystal_description       block
_cell_formula_units_Z            4
loop_
_atom_site_label
_atom_site_type_symbol
_atom_site_fract_x
_atom_site_fract_y
_atom_site_fract_z
F1 F -0.17203(11) 0.65553(10) 1.00639(10)
F2 F -0.13591(12) 0.73852(10) 0.84939(10)
N1 N -0.08233(14) 0.54874(13) 0.86523(11)
O1 O 0.03961(11) 0.69218(11) 0.96427(10)
B1 B -0.0888(2) 0.66304(19) 0.92363(18)
C1 C -0.19093(18) 0.48645(18) 0.85545(16)
H1 H -0.2652 0.5091 0.8896
C2 C -0.1960(2) 0.39153(19) 0.79747(17)
H2 H -0.2714 0.3488 0.7933
C3 C -0.0860(2) 0.36050(18) 0.74505(17)
H3 H -0.0872 0.2969 0.7035
C4 C 0.02447(19) 0.42325(17) 0.75429(15)
H4 H 0.0978 0.4026 0.7178
C5 C 0.02921(17) 0.51818(16) 0.81777(14)
C6 C 0.14602(16) 0.58439(15) 0.83772(14)
C7 C 0.14779(16) 0.66443(16) 0.91373(14)
C8 C 0.26273(18) 0.72812(17) 0.95561(14)
C9 C 0.2435(2) 0.83389(18) 0.99347(17)
H5 H 0.1602 0.8645 0.9887
C10 C 0.3458(2) 0.8946(2) 1.03803(18)
H6 H 0.3312 0.9660 1.0620
C11 C 0.4690(2) 0.8504(2) 1.04720(19)
H7 H 0.5377 0.8911 1.0781
C12 C 0.4901(2) 0.7458(2) 1.01039(17)
H8 H 0.5737 0.7158 1.0158
C13 C 0.38841(18) 0.68447(19) 0.96533(16)
H9 H 0.4040 0.6133 0.9412
C14 C 0.26395(17) 0.55680(16) 0.77723(14)
C15 C 0.33104(18) 0.45904(16) 0.79455(16)
H10 H 0.3004 0.4084 0.8434
C16 C 0.4423(2) 0.43515(19) 0.74095(18)
H11 H 0.4862 0.3690 0.7537
C17 C 0.4880(2) 0.5094(2) 0.66856(18)
H12 H 0.5635 0.4938 0.6326
C18 C 0.4226(2) 0.6065(2) 0.64928(17)
H13 H 0.4537 0.6566 0.6002
C19 C 0.31065(19) 0.63002(17) 0.70259(16)
H14 H 0.2661 0.6956 0.6884
loop_
_geom_bond_atom_site_label_1
_geom_bond_atom_site_label_2
_geom_bond_site_symmetry_1
_geom_bond_site_symmetry_2
F1 B1 1_555 1_555
F2 B1 1_555 1_555
N1 B1 1_555 1_555
O1 B1 1_555 1_555
C1 N1 1_555 1_555
H1 C1 1_555 1_555
C2 C1 1_555 1_555
H2 C2 1_555 1_555
C3 C2 1_555 1_555
H3 C3 1_555 1_555
C4 C3 1_555 1_555
H4 C4 1_555 1_555
C5 N1 1_555 1_555
C6 C5 1_555 1_555
C7 O1 1_555 1_555
C8 C7 1_555 1_555
C9 C8 1_555 1_555
H5 C9 1_555 1_555
C10 C9 1_555 1_555
H6 C10 1_555 1_555
C11 C10 1_555 1_555
H7 C11 1_555 1_555
C12 C11 1_555 1_555
H8 C12 1_555 1_555
C13 C8 1_555 1_555
H9 C13 1_555 1_555
C14 C6 1_555 1_555
C15 C14 1_555 1_555
H10 C15 1_555 1_555
C16 C15 1_555 1_555
H11 C16 1_555 1_555
C17 C16 1_555 1_555
H12 C17 1_555 1_555
C18 C17 1_555 1_555
H13 C18 1_555 1_555
C19 C14 1_555 1_555
H14 C19 1_555 1_555
C4 C5 1_555 1_555
C6 C7 1_555 1_555
C12 C13 1_555 1_555
C18 C19 1_555 1_555

#END
