
#######################################################################
#
#                 Cambridge Crystallographic Data Centre
#                                CCDC 
#
#######################################################################
#
# If this CIF has been generated from an entry in the Cambridge 
# Structural Database, then it will include bibliographic, chemical, 
# crystal, experimental, refinement or atomic coordinate data resulting 
# from the CCDC's data processing and validation procedures.
#
#######################################################################

data_UHILII
_chemical_formula_moiety         'C31 H24 B1 N1 O1'
_chemical_name_systematic        
1,1,3,4-tetraphenyl-1H-9,1-pyrido[1,2-c][1,3,2]oxazaborinine
_symmetry_cell_setting           triclinic
_symmetry_space_group_name_H-M   'P -1'
_symmetry_Int_Tables_number      2
_space_group_name_Hall           '-P 1'
loop_
_symmetry_equiv_pos_site_id
_symmetry_equiv_pos_as_xyz
1 x,y,z
2 -x,-y,-z
_cell_length_a                   9.2542(8)
_cell_length_b                   9.8875(9)
_cell_length_c                   14.4448(13)
_cell_angle_alpha                109.354(2)
_cell_angle_beta                 102.8820(10)
_cell_angle_gamma                95.3860(10)
_cell_volume                     1195.24
_exptl_crystal_colour            yellow
_exptl_crystal_description       block
_cell_formula_units_Z            2
loop_
_atom_site_label
_atom_site_type_symbol
_atom_site_fract_x
_atom_site_fract_y
_atom_site_fract_z
O1 O 0.16844(19) 0.32782(19) 0.83667(13)
N1 N -0.0500(2) 0.1711(2) 0.69871(16)
C1 C 0.0948(3) 0.4399(3) 0.85174(19)
C2 C -0.1292(3) 0.2809(3) 0.7238(2)
C3 C -0.0493(3) 0.4244(3) 0.7936(2)
C4 C 0.1839(3) 0.5736(3) 0.93730(19)
C5 C 0.1794(3) 0.2853(3) 0.6540(2)
C6 C 0.2043(3) 0.0761(3) 0.7399(2)
C7 C 0.1214(3) 0.6772(3) 1.0001(2)
H1 H 0.0172 0.6659 0.9880
C8 C -0.1309(3) 0.5504(3) 0.80243(19)
C9 C -0.2750(3) -0.0023(3) 0.6016(2)
H2 H -0.3221 -0.0981 0.5625
C10 C 0.3404(3) 0.5922(3) 0.9596(2)
H3 H 0.3852 0.5235 0.9198
C11 C -0.1213(3) 0.0342(3) 0.6395(2)
H4 H -0.0641 -0.0385 0.6237
C12 C -0.2499(3) 0.5666(3) 0.8465(2)
H5 H -0.2822 0.4966 0.8711
C13 C -0.2857(3) 0.2465(3) 0.6822(2)
H6 H -0.3420 0.3204 0.6953
C14 C 0.3669(4) 0.8135(3) 1.1000(2)
H7 H 0.4278 0.8940 1.1537
C15 C 0.3281(3) 0.3530(3) 0.6749(2)
H8 H 0.3984 0.3531 0.7321
C16 C -0.0854(4) 0.6555(3) 0.7664(2)
H9 H -0.0063 0.6465 0.7361
C17 C -0.3578(3) 0.1076(4) 0.6232(2)
H10 H -0.4621 0.0870 0.5976
C18 C 0.2129(3) 0.0361(3) 0.8247(3)
H11 H 0.1825 0.0951 0.8793
C19 C 0.4297(3) 0.7109(3) 1.0400(2)
H12 H 0.5341 0.7214 1.0537
C20 C 0.2113(4) 0.7959(3) 1.0797(2)
H13 H 0.1675 0.8648 1.1202
C21 C 0.0802(4) 0.2875(3) 0.5667(2)
H14 H -0.0200 0.2424 0.5491
B1 B 0.1323(3) 0.2147(3) 0.7319(2)
C22 C 0.1265(4) 0.3550(4) 0.5051(2)
H15 H 0.0570 0.3557 0.4478
C23 C 0.3754(4) 0.4201(4) 0.6139(3)
H16 H 0.4756 0.4647 0.6307
C24 C 0.2742(4) 0.4209(4) 0.5283(3)
H17 H 0.3054 0.4654 0.4868
C25 C 0.2530(3) -0.0165(3) 0.6619(3)
H18 H 0.2500 0.0063 0.6041
C26 C -0.3210(4) 0.6846(4) 0.8546(3)
H19 H -0.4000 0.6948 0.8850
C27 C 0.3059(4) -0.1417(4) 0.6665(3)
H20 H 0.3377 -0.2005 0.6127
C28 C 0.3112(4) -0.1783(4) 0.7507(4)
H21 H 0.3454 -0.2625 0.7540
C29 C -0.1561(4) 0.7736(4) 0.7750(3)
H22 H -0.1230 0.8449 0.7518
C30 C 0.2651(4) -0.0889(4) 0.8305(3)
H23 H 0.2691 -0.1124 0.8881
C31 C -0.2742(4) 0.7870(4) 0.8172(4)
H24 H -0.3233 0.8657 0.8208
loop_
_geom_bond_atom_site_label_1
_geom_bond_atom_site_label_2
_geom_bond_site_symmetry_1
_geom_bond_site_symmetry_2
O1 C1 1_555 1_555
N1 C2 1_555 1_555
C1 C3 1_555 1_555
C2 C3 1_555 1_555
C3 C8 1_555 1_555
C4 C1 1_555 1_555
C5 C15 1_555 1_555
C6 C18 1_555 1_555
C7 C4 1_555 1_555
H1 C7 1_555 1_555
C8 C12 1_555 1_555
C9 H2 1_555 1_555
C10 C4 1_555 1_555
H3 C10 1_555 1_555
C11 N1 1_555 1_555
H4 C11 1_555 1_555
C12 H5 1_555 1_555
C13 C2 1_555 1_555
H6 C13 1_555 1_555
C14 H7 1_555 1_555
C15 H8 1_555 1_555
C16 C8 1_555 1_555
H9 C16 1_555 1_555
C17 C9 1_555 1_555
H10 C17 1_555 1_555
C18 H11 1_555 1_555
C19 C10 1_555 1_555
H12 C19 1_555 1_555
C20 C7 1_555 1_555
H13 C20 1_555 1_555
C21 C5 1_555 1_555
H14 C21 1_555 1_555
B1 O1 1_555 1_555
C22 C21 1_555 1_555
H15 C22 1_555 1_555
C23 C15 1_555 1_555
H16 C23 1_555 1_555
C24 C22 1_555 1_555
H17 C24 1_555 1_555
C25 C6 1_555 1_555
H18 C25 1_555 1_555
C26 C12 1_555 1_555
H19 C26 1_555 1_555
C27 C25 1_555 1_555
H20 C27 1_555 1_555
C28 C27 1_555 1_555
H21 C28 1_555 1_555
C29 C16 1_555 1_555
H22 C29 1_555 1_555
C30 C18 1_555 1_555
H23 C30 1_555 1_555
C31 C26 1_555 1_555
H24 C31 1_555 1_555
N1 B1 1_555 1_555
C5 B1 1_555 1_555
C6 B1 1_555 1_555
C9 C11 1_555 1_555
C13 C17 1_555 1_555
C14 C19 1_555 1_555
C14 C20 1_555 1_555
C23 C24 1_555 1_555
C28 C30 1_555 1_555
C29 C31 1_555 1_555

#END
