
#######################################################################
#
#                 Cambridge Crystallographic Data Centre
#                                CCDC 
#
#######################################################################
#
# If this CIF has been generated from an entry in the Cambridge 
# Structural Database, then it will include bibliographic, chemical, 
# crystal, experimental, refinement or atomic coordinate data resulting 
# from the CCDC's data processing and validation procedures.
#
#######################################################################

data_UHONEL
_chemical_formula_moiety         'C14 H21 B10 N1'
_chemical_name_systematic        
1-(4-Aminophenyl)-2-phenyl-1,2-dicarba-closo-dodecaborane
_symmetry_cell_setting           orthorhombic
_symmetry_space_group_name_H-M   'P b c a'
_symmetry_Int_Tables_number      61
_space_group_name_Hall           '-P 2ac 2ab'
loop_
_symmetry_equiv_pos_site_id
_symmetry_equiv_pos_as_xyz
1 x,y,z
2 1/2-x,-y,1/2+z
3 -x,1/2+y,1/2-z
4 1/2+x,1/2-y,-z
5 -x,-y,-z
6 1/2+x,y,1/2-z
7 x,1/2-y,1/2+z
8 1/2-x,1/2+y,z
_cell_length_a                   13.554(2)
_cell_length_b                   19.953(3)
_cell_length_c                   25.966(4)
_cell_angle_alpha                90
_cell_angle_beta                 90
_cell_angle_gamma                90
_cell_volume                     7022.32
_exptl_crystal_colour            brown
_exptl_crystal_description       pyramid
_chemical_melting_point          '438.2 K'
_cell_formula_units_Z            16
loop_
_atom_site_label
_atom_site_type_symbol
_atom_site_fract_x
_atom_site_fract_y
_atom_site_fract_z
N1 N 0.24546(11) 0.68264(7) 0.76054(6)
H1 H 0.2690(16) 0.7237(11) 0.7462(9)
H2 H 0.2084(19) 0.6869(13) 0.7928(11)
C1 C 0.46911(10) 0.44512(7) 0.72705(5)
C2 C 0.44406(10) 0.40536(7) 0.66907(5)
B1 B 0.55802(11) 0.44252(8) 0.67948(6)
H3 H 0.5837 0.4882 0.6584
B2 B 0.58831(12) 0.42891(8) 0.74514(6)
H4 H 0.6352 0.4649 0.7674
B3 B 0.48749(12) 0.38627(8) 0.77373(6)
H5 H 0.4677 0.3942 0.8152
B4 B 0.39641(12) 0.37365(8) 0.72564(6)
H6 H 0.3157 0.3741 0.7350
B5 B 0.54614(11) 0.36341(8) 0.64867(6)
H7 H 0.5653 0.3564 0.6071
B6 B 0.63798(12) 0.37634(8) 0.69628(6)
H8 H 0.7183 0.3774 0.6863
B7 B 0.59402(12) 0.34065(8) 0.75499(6)
H9 H 0.6452 0.3179 0.7840
B8 B 0.47413(13) 0.30677(8) 0.74314(6)
H10 H 0.4455 0.2619 0.7643
B9 B 0.44544(12) 0.32043(8) 0.67721(6)
H11 H 0.3980 0.2849 0.6548
B10 B 0.56858(12) 0.30040(9) 0.69539(6)
H12 H 0.6033 0.2513 0.6851
C3 C 0.41611(10) 0.50952(7) 0.73770(5)
C4 C 0.43246(11) 0.56724(7) 0.70880(6)
H13 H 0.4812 0.5668 0.6825
C5 C 0.37939(11) 0.62543(7) 0.71774(6)
H14 H 0.3926 0.6643 0.6978
C6 C 0.30632(11) 0.62737(7) 0.75570(6)
C7 C 0.29241(11) 0.57033(8) 0.78603(6)
H15 H 0.2457 0.5713 0.8133
C8 C 0.34568(11) 0.51236(7) 0.77695(6)
H16 H 0.3341 0.4739 0.7977
C9 C 0.37634(10) 0.43998(7) 0.63202(5)
C10 C 0.41410(12) 0.47039(8) 0.58794(6)
H17 H 0.4829 0.4686 0.5812
C11 C 0.35207(13) 0.50352(8) 0.55374(6)
H18 H 0.3787 0.5240 0.5238
C12 C 0.25233(14) 0.50676(9) 0.56330(7)
H19 H 0.2100 0.5299 0.5402
C13 C 0.21434(13) 0.47637(11) 0.60667(8)
H20 H 0.1454 0.4781 0.6131
C14 C 0.27563(12) 0.44296(9) 0.64075(7)
H21 H 0.2485 0.4221 0.6705
N2 N 0.08079(14) 0.60322(10) 0.68346(6)
H22 H 0.0244(19) 0.6001(12) 0.6980(10)
H23 H 0.135(2) 0.6090(13) 0.7020(11)
C15 C 0.09095(9) 0.74902(7) 0.49519(5)
C16 C 0.09965(10) 0.70703(7) 0.43626(5)
B11 B -0.01005(11) 0.74332(8) 0.45473(6)
H24 H -0.0772 0.7134 0.4648
B12 B 0.01967(12) 0.81890(8) 0.48740(6)
H25 H -0.0286 0.8398 0.5185
B13 B 0.15038(12) 0.82450(8) 0.49063(7)
H26 H 0.1891 0.8492 0.5237
B14 B 0.19847(11) 0.75204(8) 0.45966(6)
H27 H 0.2687 0.7279 0.4728
B15 B 0.03338(12) 0.74872(8) 0.39046(6)
H28 H -0.0056 0.7234 0.3578
B16 B -0.01624(12) 0.82063(8) 0.42159(6)
H29 H -0.0881 0.8431 0.4091
B17 B 0.08427(13) 0.87107(8) 0.44337(7)
H30 H 0.0792 0.9270 0.4451
B18 B 0.19568(13) 0.82906(8) 0.42634(7)
H31 H 0.2649 0.8572 0.4169
B19 B 0.16404(12) 0.75431(8) 0.39348(6)
H32 H 0.2121 0.7328 0.3626
B20 B 0.09295(12) 0.82768(8) 0.38370(7)
H33 H 0.0936 0.8553 0.3461
C17 C 0.08925(10) 0.70909(7) 0.54392(5)
C18 C -0.00028(10) 0.69110(7) 0.56669(5)
H34 H -0.0604 0.7030 0.5502
C19 C -0.00316(11) 0.65634(7) 0.61270(5)
H35 H -0.0650 0.6443 0.6272
C20 C 0.08349(12) 0.63892(8) 0.63801(6)
C21 C 0.17317(11) 0.65713(8) 0.61564(6)
H36 H 0.2332 0.6457 0.6323
C22 C 0.17597(10) 0.69171(8) 0.56950(5)
H37 H 0.2379 0.7037 0.5550
C23 C 0.11016(11) 0.63196(7) 0.43607(5)
C24 C 0.02976(12) 0.58989(8) 0.44241(7)
H38 H -0.0339 0.6083 0.4484
C25 C 0.04184(15) 0.52094(9) 0.43996(8)
H39 H -0.0136 0.4924 0.4444
C26 C 0.13352(15) 0.49353(8) 0.43117(7)
H40 H 0.1414 0.4462 0.4299
C27 C 0.21337(14) 0.53454(8) 0.42433(7)
H41 H 0.2763 0.5156 0.4175
C28 C 0.20254(12) 0.60362(8) 0.42690(6)
H42 H 0.2586 0.6316 0.4226
loop_
_geom_bond_atom_site_label_1
_geom_bond_atom_site_label_2
_geom_bond_site_symmetry_1
_geom_bond_site_symmetry_2
N1 H1 1_555 1_555
H2 N1 1_555 1_555
C1 C2 1_555 1_555
C2 B1 1_555 1_555
B1 C1 1_555 1_555
H3 B1 1_555 1_555
B2 C1 1_555 1_555
H4 B2 1_555 1_555
B3 C1 1_555 1_555
H5 B3 1_555 1_555
B4 C1 1_555 1_555
H6 B4 1_555 1_555
B5 C2 1_555 1_555
H7 B5 1_555 1_555
B6 B1 1_555 1_555
H8 B6 1_555 1_555
B7 B2 1_555 1_555
H9 B7 1_555 1_555
B8 B3 1_555 1_555
H10 B8 1_555 1_555
B9 C2 1_555 1_555
H11 B9 1_555 1_555
B10 B5 1_555 1_555
H12 B10 1_555 1_555
C3 C1 1_555 1_555
C4 C3 1_555 1_555
H13 C4 1_555 1_555
C5 C4 1_555 1_555
H14 C5 1_555 1_555
C6 N1 1_555 1_555
C7 C6 1_555 1_555
H15 C7 1_555 1_555
C8 C3 1_555 1_555
H16 C8 1_555 1_555
C9 C2 1_555 1_555
C10 C9 1_555 1_555
H17 C10 1_555 1_555
C11 C10 1_555 1_555
H18 C11 1_555 1_555
C12 C11 1_555 1_555
H19 C12 1_555 1_555
C13 C12 1_555 1_555
H20 C13 1_555 1_555
C14 C9 1_555 1_555
H21 C14 1_555 1_555
N2 H22 1_555 1_555
H23 N2 1_555 1_555
C15 C16 1_555 1_555
C16 B11 1_555 1_555
B11 C15 1_555 1_555
H24 B11 1_555 1_555
B12 C15 1_555 1_555
H25 B12 1_555 1_555
B13 C15 1_555 1_555
H26 B13 1_555 1_555
B14 C15 1_555 1_555
H27 B14 1_555 1_555
B15 C16 1_555 1_555
H28 B15 1_555 1_555
B16 B11 1_555 1_555
H29 B16 1_555 1_555
B17 B12 1_555 1_555
H30 B17 1_555 1_555
B18 B13 1_555 1_555
H31 B18 1_555 1_555
B19 C16 1_555 1_555
H32 B19 1_555 1_555
B20 B15 1_555 1_555
H33 B20 1_555 1_555
C17 C15 1_555 1_555
C18 C17 1_555 1_555
H34 C18 1_555 1_555
C19 C18 1_555 1_555
H35 C19 1_555 1_555
C20 N2 1_555 1_555
C21 C20 1_555 1_555
H36 C21 1_555 1_555
C22 C17 1_555 1_555
H37 C22 1_555 1_555
C23 C16 1_555 1_555
C24 C23 1_555 1_555
H38 C24 1_555 1_555
C25 C24 1_555 1_555
H39 C25 1_555 1_555
C26 C25 1_555 1_555
H40 C26 1_555 1_555
C27 C26 1_555 1_555
H41 C27 1_555 1_555
C28 C23 1_555 1_555
H42 C28 1_555 1_555
C2 B4 1_555 1_555
B1 B2 1_555 1_555
B1 B5 1_555 1_555
B2 B3 1_555 1_555
B2 B6 1_555 1_555
B3 B4 1_555 1_555
B3 B7 1_555 1_555
B4 B8 1_555 1_555
B4 B9 1_555 1_555
B5 B6 1_555 1_555
B5 B9 1_555 1_555
B6 B7 1_555 1_555
B6 B10 1_555 1_555
B7 B8 1_555 1_555
B7 B10 1_555 1_555
B8 B9 1_555 1_555
B8 B10 1_555 1_555
B9 B10 1_555 1_555
C5 C6 1_555 1_555
C7 C8 1_555 1_555
C13 C14 1_555 1_555
C16 B14 1_555 1_555
B11 B12 1_555 1_555
B11 B15 1_555 1_555
B12 B13 1_555 1_555
B12 B16 1_555 1_555
B13 B14 1_555 1_555
B13 B17 1_555 1_555
B14 B18 1_555 1_555
B14 B19 1_555 1_555
B15 B16 1_555 1_555
B15 B19 1_555 1_555
B16 B17 1_555 1_555
B16 B20 1_555 1_555
B17 B18 1_555 1_555
B17 B20 1_555 1_555
B18 B19 1_555 1_555
B18 B20 1_555 1_555
B19 B20 1_555 1_555
C19 C20 1_555 1_555
C21 C22 1_555 1_555
C27 C28 1_555 1_555

#END
