
#######################################################################
#
#                 Cambridge Crystallographic Data Centre
#                                CCDC 
#
#######################################################################
#
# If this CIF has been generated from an entry in the Cambridge 
# Structural Database, then it will include bibliographic, chemical, 
# crystal, experimental, refinement or atomic coordinate data resulting 
# from the CCDC's data processing and validation procedures.
#
#######################################################################

data_UHUGIN
_chemical_formula_moiety         'C27 H34 O3 Si1'
_chemical_name_systematic        
rac-16-(t-Butyldimethylsilyloxy)-19-methyl-pentacyclo(9.6.3.0^1,10^.0^3,8^.0^10,14^)icosa-3,5,7,15,19-pentaene-2,9-dione
_symmetry_cell_setting           monoclinic
_symmetry_space_group_name_H-M   'P 21/a'
_symmetry_Int_Tables_number      14
_space_group_name_Hall           '-P 2yab'
loop_
_symmetry_equiv_pos_site_id
_symmetry_equiv_pos_as_xyz
1 x,y,z
2 1/2+x,1/2-y,z
3 -x,-y,-z
4 1/2-x,1/2+y,-z
_cell_length_a                   12.9389(2)
_cell_length_b                   11.7515(3)
_cell_length_c                   16.9570(4)
_cell_angle_alpha                90
_cell_angle_beta                 111.0549(8)
_cell_angle_gamma                90
_cell_volume                     2406.2
_exptl_crystal_colour            colorless
_exptl_crystal_description       prism
_chemical_melting_point          '114-116 deg.C'
_cell_formula_units_Z            4
loop_
_atom_site_label
_atom_site_type_symbol
_atom_site_fract_x
_atom_site_fract_y
_atom_site_fract_z
Si1 Si 0.59816(4) 0.58253(4) 0.33519(3)
O1 O 0.44975(11) 0.39869(11) 0.09740(9)
O2 O 0.3375(1) -0.0142(1) 0.16845(7)
O3 O 0.62275(9) 0.4435(1) 0.34869(8)
C1 C 0.45119(11) 0.15176(12) 0.22385(9)
C2 C 0.50864(11) 0.22657(12) 0.17717(9)
C3 C 0.59742(12) 0.30105(13) 0.2406(1)
C4 C 0.55745(12) 0.35483(12) 0.3045(1)
C5 C 0.47228(13) 0.31759(14) 0.3228(1)
C6 C 0.40230(12) 0.21607(13) 0.28198(9)
C7 C 0.39970(14) 0.12354(15) 0.3471(1)
C8 C 0.47686(14) 0.02537(14) 0.3420(1)
C9 C 0.53669(12) 0.07434(13) 0.28663(9)
C10 C 0.59342(13) 0.00039(13) 0.2424(1)
C11 C 0.60634(13) 0.03408(13) 0.1717(1)
C12 C 0.56158(12) 0.14623(13) 0.1288(1)
C13 C 0.66448(18) -0.03667(17) 0.12617(13)
C14 C 0.42607(12) 0.30276(13) 0.1112(1)
C15 C 0.31509(12) 0.25334(13) 0.06179(9)
C16 C 0.28127(12) 0.15064(13) 0.08647(9)
C17 C 0.35607(12) 0.08556(12) 0.16022(9)
C18 C 0.24475(15) 0.30971(16) -0.00972(11)
C19 C 0.14124(16) 0.26467(18) -0.05546(11)
C20 C 0.10699(15) 0.16497(17) -0.02954(11)
C21 C 0.17602(13) 0.10750(14) 0.0408(1)
C22 C 0.44870(18) 0.6129(2) 0.3104(2)
C23 C 0.6392(2) 0.6316(2) 0.24644(13)
C24 C 0.68739(14) 0.64644(13) 0.4390(1)
C25 C 0.6649(2) 0.77410(16) 0.44013(14)
C26 C 0.6630(2) 0.5898(2) 0.51160(13)
C27 C 0.80983(16) 0.6283(2) 0.45339(13)
H1 H 0.66359(12) 0.25304(13) 0.2710(1)
H2 H 0.61901(12) 0.36268(13) 0.2089(1)
H3 H 0.45410(13) 0.35911(14) 0.3677(1)
H4 H 0.32754(12) 0.24924(13) 0.25076(9)
H5 H 0.42722(14) 0.15644(15) 0.4054(1)
H6 H 0.32239(14) 0.09493(15) 0.3332(1)
H7 H 0.53080(14) 0.00486(14) 0.3992(1)
H8 H 0.43272(14) -0.04338(14) 0.3151(1)
H9 H 0.60418(12) 0.11185(13) 0.32732(9)
H10 H 0.62216(13) -0.07586(13) 0.2666(1)
H11 H 0.62384(12) 0.18788(13) 0.1199(1)
H12 H 0.50320(12) 0.12838(13) 0.0729(1)
H13 H 0.69202(18) -0.10881(17) 0.15809(13)
H14 H 0.72856(18) 0.00778(17) 0.12261(13)
H15 H 0.61233(18) -0.05516(17) 0.06789(13)
H16 H 0.26922(15) 0.38294(16) -0.02748(11)
H17 H 0.09213(16) 0.30391(18) -0.10785(11)
H18 H 0.03123(15) 0.13458(17) -0.06144(11)
H19 H 0.15141(13) 0.03473(14) 0.0591(1)
H20 H 0.43528(18) 0.6966(2) 0.3024(2)
H21 H 0.42728(18) 0.5862(2) 0.3584(2)
H22 H 0.40328(18) 0.5720(2) 0.2576(2)
H23 H 0.6247(2) 0.7151(2) 0.23767(13)
H24 H 0.7199(2) 0.6166(2) 0.26064(13)
H25 H 0.5956(2) 0.5898(2) 0.19357(13)
H26 H 0.7133(2) 0.80693(16) 0.49549(14)
H27 H 0.6816(2) 0.81195(16) 0.39324(14)
H28 H 0.5854(2) 0.78693(16) 0.43233(14)
H29 H 0.7116(2) 0.6243(2) 0.56625(13)
H30 H 0.5836(2) 0.6015(2) 0.50434(13)
H31 H 0.6787(2) 0.5064(2) 0.51199(13)
H32 H 0.85692(16) 0.6624(2) 0.50866(13)
H33 H 0.82749(16) 0.6653(2) 0.40662(13)
H34 H 0.82497(16) 0.5448(2) 0.45392(13)
loop_
_geom_bond_atom_site_label_1
_geom_bond_atom_site_label_2
_geom_bond_site_symmetry_1
_geom_bond_site_symmetry_2
Si1 O3 1_555 1_555
O1 C14 1_555 1_555
O2 C17 1_555 1_555
O3 C4 1_555 1_555
C1 C2 1_555 1_555
C2 C3 1_555 1_555
C3 C4 1_555 1_555
C4 C5 1_555 1_555
C5 C6 1_555 1_555
C6 C1 1_555 1_555
C7 C6 1_555 1_555
C8 C7 1_555 1_555
C9 C1 1_555 1_555
C10 C9 1_555 1_555
C11 C10 1_555 1_555
C12 C2 1_555 1_555
C13 C11 1_555 1_555
C14 C2 1_555 1_555
C15 C14 1_555 1_555
C16 C15 1_555 1_555
C17 C1 1_555 1_555
C18 C15 1_555 1_555
C19 C18 1_555 1_555
C20 C19 1_555 1_555
C21 C16 1_555 1_555
C22 Si1 1_555 1_555
C23 Si1 1_555 1_555
C24 Si1 1_555 1_555
C25 C24 1_555 1_555
C26 C24 1_555 1_555
C27 C24 1_555 1_555
H1 C3 1_555 1_555
H2 C3 1_555 1_555
H3 C5 1_555 1_555
H4 C6 1_555 1_555
H5 C7 1_555 1_555
H6 C7 1_555 1_555
H7 C8 1_555 1_555
H8 C8 1_555 1_555
H9 C9 1_555 1_555
H10 C10 1_555 1_555
H11 C12 1_555 1_555
H12 C12 1_555 1_555
H13 C13 1_555 1_555
H14 C13 1_555 1_555
H15 C13 1_555 1_555
H16 C18 1_555 1_555
H17 C19 1_555 1_555
H18 C20 1_555 1_555
H19 C21 1_555 1_555
H20 C22 1_555 1_555
H21 C22 1_555 1_555
H22 C22 1_555 1_555
H23 C23 1_555 1_555
H24 C23 1_555 1_555
H25 C23 1_555 1_555
H26 C25 1_555 1_555
H27 C25 1_555 1_555
H28 C25 1_555 1_555
H29 C26 1_555 1_555
H30 C26 1_555 1_555
H31 C26 1_555 1_555
H32 C27 1_555 1_555
H33 C27 1_555 1_555
H34 C27 1_555 1_555
C8 C9 1_555 1_555
C11 C12 1_555 1_555
C16 C17 1_555 1_555
C20 C21 1_555 1_555

#END
