
#######################################################################
#
#                 Cambridge Crystallographic Data Centre
#                                CCDC 
#
#######################################################################
#
# If this CIF has been generated from an entry in the Cambridge 
# Structural Database, then it will include bibliographic, chemical, 
# crystal, experimental, refinement or atomic coordinate data resulting 
# from the CCDC's data processing and validation procedures.
#
#######################################################################

data_UHUKOZ
_chemical_formula_moiety         'C23 H23 N3'
_chemical_name_systematic        
9-butyl-6-(2-(pyridin-4-yl)vinyl)-9H-carbazol-3-amine
_symmetry_cell_setting           monoclinic
_symmetry_space_group_name_H-M   'P 21/c'
_symmetry_Int_Tables_number      14
_space_group_name_Hall           '-P 2ybc'
loop_
_symmetry_equiv_pos_site_id
_symmetry_equiv_pos_as_xyz
1 x,y,z
2 -x,1/2+y,1/2-z
3 -x,-y,-z
4 x,1/2-y,1/2+z
_cell_length_a                   11.296(4)
_cell_length_b                   18.719(7)
_cell_length_c                   17.829(7)
_cell_angle_alpha                90
_cell_angle_beta                 95.362(5)
_cell_angle_gamma                90
_cell_volume                     3753.44
_cell_formula_units_Z            8
loop_
_atom_site_label
_atom_site_type_symbol
_atom_site_fract_x
_atom_site_fract_y
_atom_site_fract_z
C1 C 0.1402(2) 0.18126(11) 0.33640(12)
C2 C 0.07484(18) 0.28290(11) 0.26009(11)
C3 C 0.06577(18) 0.33974(11) 0.20495(11)
C4 C 0.3040(2) 0.09517(12) 0.31670(12)
H1 H 0.3148 0.1176 0.2713
C5 C 0.2208(2) 0.12164(12) 0.35622(13)
H2 H 0.2125 0.0997 0.4022
C6 C -0.04171(18) 0.37514(11) 0.21275(11)
C7 C 0.14005(19) 0.36372(11) 0.15188(12)
H3 H 0.2116 0.3405 0.1465
C8 C 0.10675(19) 0.42226(11) 0.10720(12)
C9 C -0.02863(19) 0.28735(11) 0.29917(12)
C10 C 0.15800(19) 0.22968(11) 0.27827(12)
H4 H 0.2252 0.2260 0.2521
C11 C 0.38121(18) 0.03355(11) 0.33784(12)
C12 C 0.0385(2) 0.18909(13) 0.37517(13)
H5 H 0.0278 0.1578 0.4145
C13 C -0.0760(2) 0.43368(12) 0.16804(13)
H6 H -0.1474 0.4571 0.1732
C14 C 0.3807(2) -0.00335(13) 0.40535(13)
H7 H 0.3287 0.0102 0.4403
C15 C -0.0013(2) 0.45628(12) 0.11577(12)
H8 H -0.0236 0.4953 0.0854
C16 C 0.4568(2) -0.05970(13) 0.42064(14)
H9 H 0.4538 -0.0833 0.4663
C17 C 0.4605(2) 0.00853(13) 0.28947(13)
H10 H 0.4644 0.0305 0.2430
C18 C -0.0456(2) 0.24026(13) 0.35797(13)
H11 H -0.1123 0.2437 0.3846
C19 C -0.2165(2) 0.36238(13) 0.28986(14)
H12 H -0.2499 0.3222 0.3150
H13 H -0.2673 0.3715 0.2439
C20 C 0.5335(2) -0.04822(13) 0.30896(15)
H14 H 0.5850 -0.0634 0.2745
C21 C -0.2190(2) 0.42683(15) 0.33998(15)
H15 H -0.1855 0.4671 0.3150
H16 H -0.3011 0.4383 0.3465
C22 C -0.1533(3) 0.41786(17) 0.41516(16)
H17 H -0.0691 0.4136 0.4093
H18 H -0.1787 0.3739 0.4375
C23 C -0.1724(3) 0.48013(19) 0.46861(17)
H19 H -0.1630 0.5245 0.4429
H20 H -0.1150 0.4774 0.5118
H21 H -0.2511 0.4775 0.4846
N1 N 0.17911(18) 0.44634(10) 0.05257(10)
H22 H 0.2448 0.4247 0.0466
H23 H 0.1578 0.4827 0.0251
N2 N -0.09916(16) 0.34248(10) 0.26974(10)
N3 N 0.53538(18) -0.08319(11) 0.37428(12)
C24 C 0.5999(2) 1.02101(12) 0.11976(11)
C25 C 0.57620(19) 1.09595(12) 0.12853(12)
C26 C 0.6780(2) 1.12522(12) 0.16791(12)
C27 C 0.7160(2) 1.00873(12) 0.15361(12)
C28 C 0.5315(2) 0.96430(12) 0.09044(13)
H24 H 0.4561 0.9729 0.0665
C29 C 0.5740(2) 0.89555(13) 0.09647(14)
C30 C 0.4804(2) 1.21038(13) 0.12857(15)
C31 C 0.2326(3) 0.66774(13) -0.00112(15)
H25 H 0.1796 0.6703 -0.0442
C32 C 0.4770(2) 1.13893(13) 0.10920(13)
H26 H 0.4091 1.1196 0.0834
C33 C 0.6912(3) 0.88488(14) 0.12855(15)
H27 H 0.7213 0.8386 0.1311
C34 C 0.9762(2) 1.09499(16) 0.16513(17)
H28 H 1.0532 1.0988 0.1939
H29 H 0.9787 1.0538 0.1324
C35 C 0.3969(2) 0.71893(14) 0.07683(16)
C36 C 0.8826(2) 1.08206(15) 0.21935(15)
H30 H 0.9045 1.0400 0.2493
H31 H 0.8819 1.1224 0.2534
C37 C 0.4903(3) 0.77281(15) 0.09790(17)
H32 H 0.5541 0.7593 0.1317
C38 C 0.4888(3) 0.83625(14) 0.07270(16)
H33 H 0.4284 0.8473 0.0354
C39 C 0.7640(2) 0.94025(13) 0.15659(14)
H34 H 0.8418 0.9319 0.1766
C40 C 0.6807(2) 1.19679(13) 0.18829(14)
H35 H 0.7480 1.2164 0.2146
C41 C 0.3153(3) 0.72233(14) 0.01270(15)
H36 H 0.3164 0.7607 -0.0203
C42 C 0.5828(2) 1.23771(14) 0.16907(15)
H37 H 0.5840 1.2855 0.1833
C43 C 0.3030(3) 0.61135(15) 0.10490(18)
H38 H 0.2991 0.5731 0.1378
C44 C 0.3871(3) 0.66132(15) 0.12302(17)
H39 H 0.4381 0.6566 0.1668
C45 C 0.9563(3) 1.16126(16) 0.11666(18)
H40 H 0.8837 1.1552 0.0837
H41 H 0.9451 1.2018 0.1491
C46 C 1.0568(3) 1.1780(2) 0.0689(2)
H42 H 1.1303 1.1805 0.1005
H43 H 1.0419 1.2229 0.0439
H44 H 1.0620 1.1410 0.0320
N4 N 0.76339(18) 1.07204(10) 0.18222(11)
N5 N 0.2259(2) 0.61214(11) 0.04444(13)
N6 N 0.38357(19) 1.25534(13) 0.11005(17)
H45 H 0.3199 1.2387 0.0860
H46 H 0.3875 1.2997 0.1227
loop_
_geom_bond_atom_site_label_1
_geom_bond_atom_site_label_2
_geom_bond_site_symmetry_1
_geom_bond_site_symmetry_2
C1 C5 1_555 1_555
C2 C3 1_555 1_555
C3 C6 1_555 1_555
C4 H1 1_555 1_555
C5 C4 1_555 1_555
H2 C5 1_555 1_555
C6 C13 1_555 1_555
C7 C3 1_555 1_555
H3 C7 1_555 1_555
C8 C7 1_555 1_555
C9 C2 1_555 1_555
C10 C1 1_555 1_555
H4 C10 1_555 1_555
C11 C4 1_555 1_555
C12 C1 1_555 1_555
H5 C12 1_555 1_555
C13 H6 1_555 1_555
C14 C11 1_555 1_555
H7 C14 1_555 1_555
C15 C8 1_555 1_555
H8 C15 1_555 1_555
C16 C14 1_555 1_555
H9 C16 1_555 1_555
C17 C11 1_555 1_555
H10 C17 1_555 1_555
C18 C9 1_555 1_555
H11 C18 1_555 1_555
C19 H12 1_555 1_555
H13 C19 1_555 1_555
C20 C17 1_555 1_555
H14 C20 1_555 1_555
C21 C19 1_555 1_555
H15 C21 1_555 1_555
H16 C21 1_555 1_555
C22 C21 1_555 1_555
H17 C22 1_555 1_555
H18 C22 1_555 1_555
C23 C22 1_555 1_555
H19 C23 1_555 1_555
H20 C23 1_555 1_555
H21 C23 1_555 1_555
N1 C8 1_555 1_555
H22 N1 1_555 1_555
H23 N1 1_555 1_555
N2 C6 1_555 1_555
N3 C16 1_555 1_555
C24 C25 1_555 1_555
C25 C26 1_555 1_555
C26 C40 1_555 1_555
C27 C24 1_555 1_555
C28 C24 1_555 1_555
H24 C28 1_555 1_555
C29 C28 1_555 1_555
C30 C32 1_555 1_555
C31 H25 1_555 1_555
C32 C25 1_555 1_555
H26 C32 1_555 1_555
C33 C29 1_555 1_555
H27 C33 1_555 1_555
C34 H28 1_555 1_555
H29 C34 1_555 1_555
C35 C37 1_555 1_555
C36 C34 1_555 1_555
H30 C36 1_555 1_555
H31 C36 1_555 1_555
C37 H32 1_555 1_555
C38 C29 1_555 1_555
H33 C38 1_555 1_555
C39 C27 1_555 1_555
H34 C39 1_555 1_555
C40 H35 1_555 1_555
C41 C31 1_555 1_555
H36 C41 1_555 1_555
C42 C30 1_555 1_555
H37 C42 1_555 1_555
C43 H38 1_555 1_555
C44 C35 1_555 1_555
H39 C44 1_555 1_555
C45 C34 1_555 1_555
H40 C45 1_555 1_555
H41 C45 1_555 1_555
C46 C45 1_555 1_555
H42 C46 1_555 1_555
H43 C46 1_555 1_555
H44 C46 1_555 1_555
N4 C26 1_555 1_555
N5 C31 1_555 1_555
N6 C30 1_555 1_555
H45 N6 1_555 1_555
H46 N6 1_555 1_555
C2 C10 1_555 1_555
C9 N2 1_555 1_555
C12 C18 1_555 1_555
C13 C15 1_555 1_555
C19 N2 1_555 1_555
C20 N3 1_555 1_555
C27 N4 1_555 1_555
C33 C39 1_555 1_555
C35 C41 1_555 1_555
C36 N4 1_555 1_555
C37 C38 1_555 1_555
C40 C42 1_555 1_555
C43 C44 1_555 1_555
C43 N5 1_555 1_555

#END
