
#######################################################################
#
#                 Cambridge Crystallographic Data Centre
#                                CCDC 
#
#######################################################################
#
# If this CIF has been generated from an entry in the Cambridge 
# Structural Database, then it will include bibliographic, chemical, 
# crystal, experimental, refinement or atomic coordinate data resulting 
# from the CCDC's data processing and validation procedures.
#
#######################################################################

data_UHULAL
_chemical_formula_moiety         'C34 H40 N4 O2'
_chemical_name_systematic        
3,4,12,13-Tetramethyl-5,11-diphenyl-3,13-diaza-6,10-dioxa-1,8(2,6)-dipyridinacyclotetradecaphane
_symmetry_cell_setting           triclinic
_symmetry_space_group_name_H-M   'P 1'
_symmetry_Int_Tables_number      1
_space_group_name_Hall           'P 1'
loop_
_symmetry_equiv_pos_site_id
_symmetry_equiv_pos_as_xyz
1 x,y,z
_cell_length_a                   6.2713(4)
_cell_length_b                   8.1494(4)
_cell_length_c                   15.4947(8)
_cell_angle_alpha                80.944(4)
_cell_angle_beta                 84.321(4)
_cell_angle_gamma                69.951(4)
_cell_volume                     733.767
_exptl_crystal_colour            colorless
_exptl_crystal_description       block
_chemical_melting_point          '141-142 deg.C'
_cell_formula_units_Z            1
_exptl_crystal_recrystallization_method methanol/chloroform
loop_
_atom_site_label
_atom_site_type_symbol
_atom_site_fract_x
_atom_site_fract_y
_atom_site_fract_z
C1 C 0.9000(3) 0.3860(2) 0.83893(12)
C2 C 1.1159(3) 0.3922(3) 0.84729(13)
H1 H 1.1805 0.4595 0.8037
C3 C 1.2350(3) 0.2990(2) 0.91994(12)
H2 H 1.3838 0.2994 0.9265
C4 C 1.1345(3) 0.2051(2) 0.98298(13)
H3 H 1.2131 0.1399 1.0334
C5 C 0.9158(3) 0.2078(2) 0.97127(12)
C6 C 0.7956(3) 0.1067(3) 1.03657(12)
H4 H 0.6306 0.1732 1.0377
H5 H 0.8182 -0.0081 1.0167
C7 C 0.9116(4) -0.1071(3) 1.16587(14)
H6 H 0.7668 -0.1299 1.1726
H7 H 0.9743 -0.1254 1.2235
H8 H 1.0187 -0.1880 1.1285
C8 C 0.7368(3) 0.2003(3) 1.18512(12)
H9 H 0.8052 0.1559 1.2435
C9 C 0.4876(3) 0.2118(3) 1.19996(14)
H10 H 0.4788 0.0937 1.2189
H11 H 0.4093 0.2616 1.1453
H12 H 0.4150 0.2876 1.2452
C10 C 0.7612(3) 0.3826(2) 1.15803(12)
H13 H 0.9224 0.3650 1.1369
C11 C 0.7079(3) 0.4920(2) 1.23296(12)
C12 C 0.8772(3) 0.4754(3) 1.28825(13)
H14 H 1.0254 0.3942 1.2793
C13 C 0.8330(4) 0.5756(3) 1.35612(14)
H15 H 0.9506 0.5614 1.3937
C14 C 0.6205(4) 0.6958(3) 1.36999(14)
H16 H 0.5915 0.7655 1.4163
C15 C 0.4493(4) 0.7134(3) 1.31540(14)
H17 H 0.3016 0.7950 1.3247
C16 C 0.4922(3) 0.6130(3) 1.24742(13)
H18 H 0.3738 0.6265 1.2103
C17 C 0.6883(3) 0.6088(3) 1.03830(13)
H19 H 0.8442 0.5588 1.0127
H20 H 0.6911 0.6918 1.0782
C18 C 0.5306(3) 0.7063(2) 0.96676(12)
C19 C 0.3188(3) 0.6899(3) 0.96129(13)
H21 H 0.2669 0.6128 1.0037
C20 C 0.1859(3) 0.7877(2) 0.89314(12)
H22 H 0.0397 0.7805 0.8882
C21 C 0.2696(3) 0.8969(2) 0.83199(13)
H23 H 0.1811 0.9659 0.7845
C22 C 0.4845(3) 0.9044(2) 0.84090(13)
C23 C 0.5992(3) 1.0043(2) 0.77301(13)
H24 H 0.4834 1.0964 0.7368
H25 H 0.6811 1.0629 0.8022
C24 C 0.6466(3) 0.8364(3) 0.65521(12)
H26 H 0.5136 0.8066 0.6854
C25 C 0.5599(3) 0.9879(2) 0.58226(13)
C26 C 0.3768(3) 1.0017(3) 0.53486(13)
H27 H 0.3007 0.9176 0.5496
C27 C 0.3029(4) 1.1356(3) 0.46642(13)
H28 H 0.1779 1.1422 0.4345
C28 C 0.4105(4) 1.2598(3) 0.44449(14)
H29 H 0.3608 1.3513 0.3973
C29 C 0.5907(4) 1.2496(3) 0.49179(14)
H30 H 0.6636 1.3358 0.4778
C30 C 0.6663(4) 1.1141(3) 0.55975(14)
H31 H 0.7921 1.1074 0.5913
C31 C 0.8130(3) 0.6706(3) 0.61919(12)
H32 H 0.7285 0.6325 0.5792
C32 C 1.0117(4) 0.7109(3) 0.56589(15)
H33 H 1.1098 0.6054 0.5410
H34 H 1.0994 0.7463 0.6040
H35 H 0.9533 0.8068 0.5185
C33 C 1.0167(4) 0.3598(3) 0.64752(14)
H36 H 1.1528 0.3676 0.6126
H37 H 0.9111 0.3433 0.6098
H38 H 1.0599 0.2595 0.6940
C34 C 0.7600(3) 0.4892(3) 0.76171(13)
H39 H 0.6675 0.4224 0.7459
H40 H 0.6552 0.6031 0.7780
N1 N 0.8012(3) 0.2947(2) 0.89983(10)
N2 N 0.8744(3) 0.0747(2) 1.12576(10)
N3 N 0.6126(3) 0.81155(19) 0.90792(10)
N4 N 0.9072(3) 0.5216(2) 0.68640(10)
O1 O 0.6193(2) 0.47134(16) 1.08642(8)
O2 O 0.7575(2) 0.88536(16) 0.71782(8)
loop_
_geom_bond_atom_site_label_1
_geom_bond_atom_site_label_2
_geom_bond_site_symmetry_1
_geom_bond_site_symmetry_2
C1 C2 1_555 1_555
C2 H1 1_555 1_555
C3 C2 1_555 1_555
H2 C3 1_555 1_555
C4 C3 1_555 1_555
H3 C4 1_555 1_555
C5 C4 1_555 1_555
C6 C5 1_555 1_555
H4 C6 1_555 1_555
H5 C6 1_555 1_555
C7 H6 1_555 1_555
H7 C7 1_555 1_555
H8 C7 1_555 1_555
C8 H9 1_555 1_555
C9 C8 1_555 1_555
H10 C9 1_555 1_555
H11 C9 1_555 1_555
H12 C9 1_555 1_555
C10 C8 1_555 1_555
H13 C10 1_555 1_555
C11 C10 1_555 1_555
C12 C11 1_555 1_555
H14 C12 1_555 1_555
C13 C12 1_555 1_555
H15 C13 1_555 1_555
C14 C13 1_555 1_555
H16 C14 1_555 1_555
C15 C14 1_555 1_555
H17 C15 1_555 1_555
C16 C11 1_555 1_555
H18 C16 1_555 1_555
C17 H19 1_555 1_555
H20 C17 1_555 1_555
C18 C17 1_555 1_555
C19 C18 1_555 1_555
H21 C19 1_555 1_555
C20 C19 1_555 1_555
H22 C20 1_555 1_555
C21 C20 1_555 1_555
H23 C21 1_555 1_555
C22 C21 1_555 1_555
C23 C22 1_555 1_555
H24 C23 1_555 1_555
H25 C23 1_555 1_555
C24 H26 1_555 1_555
C25 C24 1_555 1_555
C26 C25 1_555 1_555
H27 C26 1_555 1_555
C27 C26 1_555 1_555
H28 C27 1_555 1_555
C28 C27 1_555 1_555
H29 C28 1_555 1_555
C29 C28 1_555 1_555
H30 C29 1_555 1_555
C30 C25 1_555 1_555
H31 C30 1_555 1_555
C31 C24 1_555 1_555
H32 C31 1_555 1_555
C32 C31 1_555 1_555
H33 C32 1_555 1_555
H34 C32 1_555 1_555
H35 C32 1_555 1_555
C33 H36 1_555 1_555
H37 C33 1_555 1_555
H38 C33 1_555 1_555
C34 C1 1_555 1_555
H39 C34 1_555 1_555
H40 C34 1_555 1_555
N1 C1 1_555 1_555
N2 C6 1_555 1_555
N3 C18 1_555 1_555
N4 C31 1_555 1_555
O1 C10 1_555 1_555
O2 C23 1_555 1_555
C5 N1 1_555 1_555
C7 N2 1_555 1_555
C8 N2 1_555 1_555
C15 C16 1_555 1_555
C17 O1 1_555 1_555
C22 N3 1_555 1_555
C24 O2 1_555 1_555
C29 C30 1_555 1_555
C33 N4 1_555 1_555
C34 N4 1_555 1_555

#END
