
#######################################################################
#
#                 Cambridge Crystallographic Data Centre
#                                CCDC 
#
#######################################################################
#
# If this CIF has been generated from an entry in the Cambridge 
# Structural Database, then it will include bibliographic, chemical, 
# crystal, experimental, refinement or atomic coordinate data resulting 
# from the CCDC's data processing and validation procedures.
#
#######################################################################

data_UHURIA
_chemical_formula_moiety         'C10 H10 O3'
_chemical_name_systematic        
7a-methyl-3-methylene-3a,7a-dihydro-1-benzofuran-2,5(3H,4H)-dione
_symmetry_cell_setting           monoclinic
_symmetry_space_group_name_H-M   'P 21'
_symmetry_Int_Tables_number      4
_space_group_name_Hall           'P 2yb'
loop_
_symmetry_equiv_pos_site_id
_symmetry_equiv_pos_as_xyz
1 x,y,z
2 -x,1/2+y,-z
_cell_length_a                   5.61270(10)
_cell_length_b                   11.6228(2)
_cell_length_c                   6.78450(10)
_cell_angle_alpha                90
_cell_angle_beta                 106.2720(10)
_cell_angle_gamma                90
_cell_volume                     424.86
_exptl_crystal_colour            colorless
_exptl_crystal_description       block
_cell_formula_units_Z            2
loop_
_atom_site_label
_atom_site_type_symbol
_atom_site_fract_x
_atom_site_fract_y
_atom_site_fract_z
O1 O 0.3882(3) 0.74238(13) 0.4503(2)
O2 O 0.0914(2) 0.60910(12) 0.3523(2)
O3 O 0.1494(3) 0.37144(14) 1.0312(2)
C1 C 0.2394(3) 0.67976(17) 0.4942(3)
C2 C 0.1813(4) 0.66483(16) 0.6934(3)
C3 C -0.0557(4) 0.59627(17) 0.6467(3)
H1 H -0.1994 0.6507 0.6074
C4 C -0.0882(4) 0.51802(17) 0.8178(3)
H2 H -0.0662 0.5643 0.9442
H3 H -0.2597 0.4874 0.7785
C5 C 0.0917(4) 0.41832(17) 0.8639(3)
C6 C 0.1868(4) 0.37711(16) 0.6947(3)
H4 H 0.2996 0.3143 0.7192
C7 C 0.1204(4) 0.42479(16) 0.5091(3)
H5 H 0.1795 0.3906 0.4046
C8 C -0.0425(3) 0.52947(17) 0.4546(3)
C9 C -0.2909(4) 0.50247(18) 0.3043(3)
H6 H -0.3828 0.5741 0.2613
H7 H -0.3861 0.4522 0.3702
H8 H -0.2648 0.4635 0.1839
C10 C 0.3242(4) 0.70524(19) 0.8693(4)
H9 H 0.4718 0.7460 0.8722
H10 H 0.2791 0.6935 0.9927
loop_
_geom_bond_atom_site_label_1
_geom_bond_atom_site_label_2
_geom_bond_site_symmetry_1
_geom_bond_site_symmetry_2
O1 C1 1_555 1_555
O2 C1 1_555 1_555
O3 C5 1_555 1_555
C1 C2 1_555 1_555
C2 C3 1_555 1_555
C3 H1 1_555 1_555
C4 C3 1_555 1_555
H2 C4 1_555 1_555
H3 C4 1_555 1_555
C5 C4 1_555 1_555
C6 C5 1_555 1_555
H4 C6 1_555 1_555
C7 C6 1_555 1_555
H5 C7 1_555 1_555
C8 O2 1_555 1_555
C9 C8 1_555 1_555
H6 C9 1_555 1_555
H7 C9 1_555 1_555
H8 C9 1_555 1_555
C10 C2 1_555 1_555
H9 C10 1_555 1_555
H10 C10 1_555 1_555
C3 C8 1_555 1_555
C7 C8 1_555 1_555

#END
