
#######################################################################
#
#                 Cambridge Crystallographic Data Centre
#                                CCDC 
#
#######################################################################
#
# If this CIF has been generated from an entry in the Cambridge 
# Structural Database, then it will include bibliographic, chemical, 
# crystal, experimental, refinement or atomic coordinate data resulting 
# from the CCDC's data processing and validation procedures.
#
#######################################################################

data_UHUSUL
_chemical_formula_moiety         'C20 H32 N4 O2'
_chemical_name_systematic        
4,11-Diisopropyl-3,6,9,12-tetraazabicyclo(12.2.2)octadeca-1(16),14,17-triene-5,10-dione
_symmetry_cell_setting           monoclinic
_symmetry_space_group_name_H-M   'P 21'
_symmetry_Int_Tables_number      4
_space_group_name_Hall           'P 2yb'
loop_
_symmetry_equiv_pos_site_id
_symmetry_equiv_pos_as_xyz
1 x,y,z
2 -x,1/2+y,-z
_cell_length_a                   10.1580(6)
_cell_length_b                   18.8852(15)
_cell_length_c                   10.8306(6)
_cell_angle_alpha                90.00
_cell_angle_beta                 92.105(5)
_cell_angle_gamma                90.00
_cell_volume                     2076.3
_exptl_crystal_colour            colorless
_exptl_crystal_description       needle
_cell_formula_units_Z            4
loop_
_atom_site_label
_atom_site_type_symbol
_atom_site_fract_x
_atom_site_fract_y
_atom_site_fract_z
C1 C 0.99595(18) 0.21168(9) 0.53557(16)
C2 C 0.94452(19) 0.15907(9) 0.60925(17)
H1 H 0.9637 0.1109 0.5923
C3 C 0.8654(2) 0.17546(9) 0.70748(17)
H2 H 0.8312 0.1384 0.7562
C4 C 0.83585(18) 0.24548(9) 0.73505(16)
C5 C 0.8913(2) 0.29838(9) 0.66404(18)
H3 H 0.8750 0.3466 0.6831
C6 C 0.9698(2) 0.28198(10) 0.56630(19)
H4 H 1.0065 0.3191 0.5194
C7 C 0.74076(19) 0.26438(9) 0.83421(17)
H5 H 0.7157 0.2211 0.8793
H6 H 0.7836 0.2975 0.8941
N1 N 0.62235(16) 0.29762(8) 0.77753(15)
H7 H 0.574(2) 0.3153(12) 0.835(2)
C8 C 0.54099(17) 0.24906(9) 0.69856(16)
H8 H 0.5917 0.2043 0.6877
C9 C 0.51841(18) 0.28322(9) 0.57155(17)
O1 O 0.46927(15) 0.34292(6) 0.55982(12)
N2 N 0.55140(16) 0.24449(8) 0.47464(14)
H9 H 0.5799(19) 0.2035(10) 0.4818(17)
C10 C 0.5292(2) 0.27043(9) 0.34786(17)
H10 H 0.5704 0.3176 0.3398
H11 H 0.4334 0.2756 0.3299
C11 C 0.5871(2) 0.21974(10) 0.25494(17)
H12 H 0.5463 0.1725 0.2644
H13 H 0.5645 0.2368 0.1704
N3 N 0.72892(17) 0.21274(8) 0.26929(14)
H14 H 0.759(2) 0.1840(12) 0.315(2)
C12 C 0.8108(2) 0.25906(9) 0.21830(16)
O2 O 0.77107(14) 0.31009(7) 0.15567(12)
C13 C 0.95913(19) 0.24683(9) 0.24234(16)
H15 H 0.9923 0.2872 0.2944
N4 N 0.98899(17) 0.18141(8) 0.31247(14)
H16 H 1.026(2) 0.1524(10) 0.2653(18)
C14 C 1.07461(19) 0.19190(10) 0.42472(17)
H17 H 1.1392 0.2298 0.4091
H18 H 1.1242 0.1478 0.4429
C15 C 1.0300(2) 0.25132(11) 0.1183(2)
H19 H 1.0011 0.2961 0.0763
C16 C 1.1791(2) 0.25485(12) 0.1386(2)
H20 H 1.2020 0.2947 0.1933
H21 H 1.2203 0.2615 0.0591
H22 H 1.2109 0.2106 0.1765
C17 C 0.9900(3) 0.18961(12) 0.03339(19)
H23 H 0.8939 0.1886 0.0217
H24 H 1.0203 0.1450 0.0709
H25 H 1.0302 0.1957 -0.0468
C18 C 0.40875(19) 0.23015(9) 0.75428(17)
H26 H 0.3612 0.2752 0.7719
C19 C 0.3229(2) 0.18639(11) 0.6636(2)
H27 H 0.3099 0.2126 0.5860
H28 H 0.2373 0.1773 0.6994
H29 H 0.3666 0.1413 0.6474
C20 C 0.4297(2) 0.18964(10) 0.87592(19)
H30 H 0.4849 0.2179 0.9334
H31 H 0.4735 0.1445 0.8600
H32 H 0.3443 0.1807 0.9121
C21 C 0.41761(18) 0.45149(9) 0.97516(16)
C22 C 0.34548(19) 0.39489(9) 0.92529(17)
H33 H 0.3671 0.3480 0.9507
C23 C 0.24270(19) 0.40558(9) 0.83932(17)
H34 H 0.1959 0.3660 0.8061
C24 C 0.20720(18) 0.47380(9) 0.80091(16)
C25 C 0.2768(2) 0.53038(9) 0.85302(17)
H35 H 0.2537 0.5773 0.8293
C26 C 0.3796(2) 0.51970(9) 0.93904(17)
H36 H 0.4247 0.5594 0.9739
C27 C 0.09591(18) 0.48448(9) 0.70561(16)
H37 H 0.0551 0.4378 0.6877
H38 H 0.0281 0.5145 0.7429
N5 N 0.13104(15) 0.51676(7) 0.58757(13)
H39 H 0.147(2) 0.5655(12) 0.599(2)
C28 C 0.24686(18) 0.48622(8) 0.53010(15)
H40 H 0.2625 0.4377 0.5646
C29 C 0.37091(18) 0.53045(8) 0.55375(15)
O3 O 0.36573(13) 0.59637(6) 0.54789(12)
N6 N 0.48253(15) 0.49422(8) 0.57400(14)
H41 H 0.480(2) 0.4494(11) 0.5779(18)
C30 C 0.61206(18) 0.52709(9) 0.57288(17)
H42 H 0.6118 0.5710 0.6228
H43 H 0.6323 0.5401 0.4871
C31 C 0.71798(18) 0.47709(9) 0.62493(15)
H44 H 0.7104 0.4311 0.5815
H45 H 0.8058 0.4971 0.6088
N7 N 0.70819(15) 0.46525(7) 0.75753(13)
H46 H 0.666(2) 0.4256(12) 0.786(2)
C32 C 0.74900(18) 0.51466(8) 0.83929(16)
O4 O 0.80220(13) 0.57052(6) 0.80793(12)
C33 C 0.7231(2) 0.50039(8) 0.97577(16)
H47 H 0.6600 0.5377 1.0019
N8 N 0.65807(16) 0.43175(7) 0.99593(14)
H48 H 0.713(2) 0.4057(10) 1.0353(18)
C34 C 0.53361(19) 0.43739(10) 1.06289(17)
H49 H 0.5414 0.4763 1.1240
H50 H 0.5186 0.3928 1.1083
C35 C 0.8501(2) 0.51096(10) 1.05539(18)
H51 H 0.8854 0.5590 1.0362
C36 C 0.8224(3) 0.50931(11) 1.19349(19)
H52 H 0.7547 0.5445 1.2113
H53 H 0.9034 0.5204 1.2415
H54 H 0.7914 0.4621 1.2160
C37 C 0.9554(2) 0.45676(12) 1.0238(2)
H55 H 0.9713 0.4589 0.9352
H56 H 0.9252 0.4092 1.0452
H57 H 1.0373 0.4675 1.0708
C38 C 0.21901(18) 0.47996(9) 0.38813(15)
H58 H 0.1820 0.5261 0.3579
C39 C 0.3417(2) 0.46366(11) 0.31526(17)
H59 H 0.4078 0.5007 0.3309
H60 H 0.3178 0.4621 0.2268
H61 H 0.3780 0.4177 0.3415
C40 C 0.1149(2) 0.42299(10) 0.36446(17)
H62 H 0.0367 0.4341 0.4112
H63 H 0.1502 0.3769 0.3909
H64 H 0.0908 0.4214 0.2760
loop_
_geom_bond_atom_site_label_1
_geom_bond_atom_site_label_2
_geom_bond_site_symmetry_1
_geom_bond_site_symmetry_2
C1 C2 1_555 1_555
C2 H1 1_555 1_555
C3 C2 1_555 1_555
H2 C3 1_555 1_555
C4 C3 1_555 1_555
C5 C4 1_555 1_555
H3 C5 1_555 1_555
C6 C1 1_555 1_555
H4 C6 1_555 1_555
C7 C4 1_555 1_555
H5 C7 1_555 1_555
H6 C7 1_555 1_555
N1 C7 1_555 1_555
H7 N1 1_555 1_555
C8 N1 1_555 1_555
H8 C8 1_555 1_555
C9 C8 1_555 1_555
O1 C9 1_555 1_555
N2 C9 1_555 1_555
H9 N2 1_555 1_555
C10 N2 1_555 1_555
H10 C10 1_555 1_555
H11 C10 1_555 1_555
C11 C10 1_555 1_555
H12 C11 1_555 1_555
H13 C11 1_555 1_555
N3 C11 1_555 1_555
H14 N3 1_555 1_555
C12 N3 1_555 1_555
O2 C12 1_555 1_555
C13 C12 1_555 1_555
H15 C13 1_555 1_555
N4 C13 1_555 1_555
H16 N4 1_555 1_555
C14 C1 1_555 1_555
H17 C14 1_555 1_555
H18 C14 1_555 1_555
C15 C13 1_555 1_555
H19 C15 1_555 1_555
C16 C15 1_555 1_555
H20 C16 1_555 1_555
H21 C16 1_555 1_555
H22 C16 1_555 1_555
C17 C15 1_555 1_555
H23 C17 1_555 1_555
H24 C17 1_555 1_555
H25 C17 1_555 1_555
C18 C8 1_555 1_555
H26 C18 1_555 1_555
C19 C18 1_555 1_555
H27 C19 1_555 1_555
H28 C19 1_555 1_555
H29 C19 1_555 1_555
C20 C18 1_555 1_555
H30 C20 1_555 1_555
H31 C20 1_555 1_555
H32 C20 1_555 1_555
C21 C22 1_555 1_555
C22 H33 1_555 1_555
C23 C22 1_555 1_555
H34 C23 1_555 1_555
C24 C23 1_555 1_555
C25 C24 1_555 1_555
H35 C25 1_555 1_555
C26 C21 1_555 1_555
H36 C26 1_555 1_555
C27 C24 1_555 1_555
H37 C27 1_555 1_555
H38 C27 1_555 1_555
N5 C27 1_555 1_555
H39 N5 1_555 1_555
C28 N5 1_555 1_555
H40 C28 1_555 1_555
C29 C28 1_555 1_555
O3 C29 1_555 1_555
N6 C29 1_555 1_555
H41 N6 1_555 1_555
C30 N6 1_555 1_555
H42 C30 1_555 1_555
H43 C30 1_555 1_555
C31 C30 1_555 1_555
H44 C31 1_555 1_555
H45 C31 1_555 1_555
N7 C31 1_555 1_555
H46 N7 1_555 1_555
C32 N7 1_555 1_555
O4 C32 1_555 1_555
C33 C32 1_555 1_555
H47 C33 1_555 1_555
N8 C33 1_555 1_555
H48 N8 1_555 1_555
C34 C21 1_555 1_555
H49 C34 1_555 1_555
H50 C34 1_555 1_555
C35 C33 1_555 1_555
H51 C35 1_555 1_555
C36 C35 1_555 1_555
H52 C36 1_555 1_555
H53 C36 1_555 1_555
H54 C36 1_555 1_555
C37 C35 1_555 1_555
H55 C37 1_555 1_555
H56 C37 1_555 1_555
H57 C37 1_555 1_555
C38 C28 1_555 1_555
H58 C38 1_555 1_555
C39 C38 1_555 1_555
H59 C39 1_555 1_555
H60 C39 1_555 1_555
H61 C39 1_555 1_555
C40 C38 1_555 1_555
H62 C40 1_555 1_555
H63 C40 1_555 1_555
H64 C40 1_555 1_555
C5 C6 1_555 1_555
N4 C14 1_555 1_555
C25 C26 1_555 1_555
N8 C34 1_555 1_555

#END
