
#######################################################################
#
#                 Cambridge Crystallographic Data Centre
#                                CCDC 
#
#######################################################################
#
# If this CIF has been generated from an entry in the Cambridge 
# Structural Database, then it will include bibliographic, chemical, 
# crystal, experimental, refinement or atomic coordinate data resulting 
# from the CCDC's data processing and validation procedures.
#
#######################################################################

data_UHUXOK
_chemical_formula_moiety         'C40 H64 P2 S2,0.5(C7 H8)'
_chemical_name_systematic        
'(Z,Z)-2,3-bis(Methylsulfanyl)-1,4-bis(2,4,6-tri-t-butylphenyl)-1,4-diphosphabuta-1,3-diene toluene solvate'
_symmetry_cell_setting           triclinic
_symmetry_space_group_name_H-M   'P -1'
_symmetry_Int_Tables_number      2
_space_group_name_Hall           '-P 1'
loop_
_symmetry_equiv_pos_site_id
_symmetry_equiv_pos_as_xyz
1 x,y,z
2 -x,-y,-z
_cell_length_a                   10.462(7)
_cell_length_b                   19.610(6)
_cell_length_c                   11.512(10)
_cell_angle_alpha                75.30(3)
_cell_angle_beta                 102.23(2)
_cell_angle_gamma                103.72(4)
_cell_volume                     2190.22
_exptl_crystal_colour            yellow
_exptl_crystal_description       prism
_chemical_melting_point          202-203deg.C
_cell_formula_units_Z            2
loop_
_atom_site_label
_atom_site_type_symbol
_atom_site_fract_x
_atom_site_fract_y
_atom_site_fract_z
C44 C 1.141(1) 0.1071(8) 0.001(1)
C45 C 1.050(2) 0.0485(10) 0.003(2)
C46 C 0.928(1) 0.0196(6) 0.0465(9)
C47 C 1.162(2) 0.042(1) -0.051(2)
C48 C 1.013(4) 0.087(2) 0.061(3)
C45A C 0.950(2) -0.0485(10) -0.003(2)
C44A C 0.859(1) -0.1071(8) -0.001(1)
C47A C 0.838(2) -0.042(1) 0.051(2)
C46A C 1.072(1) -0.0196(6) -0.0465(9)
C48A C 0.987(4) -0.087(2) -0.061(3)
S1 S 0.4264(1) 0.26081(9) 0.9259(1)
S2 S 0.6578(2) 0.35829(8) 0.7319(1)
P1 P 0.6890(1) 0.26265(7) 1.1011(1)
P2 P 0.8044(1) 0.24176(7) 0.8909(1)
C1 C 0.6006(5) 0.2710(3) 0.9576(5)
C2 C 0.6843(5) 0.2911(3) 0.8634(5)
C3 C 0.3788(7) 0.2265(4) 0.7887(6)
C4 C 0.6003(8) 0.4232(4) 0.7841(8)
C5 C 0.5615(5) 0.2208(3) 1.2010(4)
C6 C 0.5160(5) 0.1454(3) 1.2268(4)
C7 C 0.4076(5) 0.1181(3) 1.2874(5)
C8 C 0.3464(5) 0.1602(3) 1.3283(5)
C9 C 0.3997(5) 0.2338(3) 1.3102(5)
C10 C 0.5072(5) 0.2656(3) 1.2503(5)
C11 C 0.5818(5) 0.0905(3) 1.1950(5)
C12 C 0.5496(7) 0.0904(3) 1.0588(6)
C13 C 0.7317(6) 0.1054(3) 1.2351(6)
C14 C 0.5289(8) 0.0147(3) 1.2585(8)
C15 C 0.2252(5) 0.1303(3) 1.3927(5)
C16 C 0.1753(7) 0.0496(4) 1.3984(8)
C17 C 0.2621(7) 0.1452(5) 1.5218(6)
C18 C 0.1103(6) 0.1689(4) 1.3246(7)
C19 C 0.5641(5) 0.3466(3) 1.2445(5)
C20 C 0.4974(7) 0.3764(3) 1.3215(7)
C21 C 0.7118(6) 0.3609(3) 1.2964(7)
C22 C 0.5401(7) 0.3911(3) 1.1160(7)
C23 C 0.9143(5) 0.2881(2) 0.7766(4)
C24 C 1.0176(5) 0.3473(3) 0.7988(5)
C25 C 1.0891(5) 0.3838(3) 0.7025(5)
C26 C 1.0698(5) 0.3638(3) 0.5946(5)
C27 C 0.9753(5) 0.3024(3) 0.5790(5)
C28 C 0.8975(5) 0.2623(3) 0.6686(5)
C29 C 1.0616(5) 0.3725(3) 0.9204(5)
C30 C 0.9595(7) 0.4090(3) 0.9445(6)
C31 C 1.0909(7) 0.3097(4) 1.0259(6)
C32 C 1.1938(7) 0.4286(4) 0.9222(7)
C33 C 1.1535(5) 0.4056(3) 0.4959(5)
C34 C 1.114(1) 0.4779(7) 0.443(1)
C36 C 1.298(1) 0.4096(8) 0.539(1)
C38 C 1.118(1) 0.3712(7) 0.380(1)
C40 C 0.8044(6) 0.1920(3) 0.6441(5)
C41 C 0.8198(8) 0.1745(4) 0.5254(7)
C42 C 0.6572(7) 0.1962(4) 0.6286(7)
C43 C 0.8383(8) 0.1284(3) 0.7455(6)
H1 H 0.4178 0.2610 0.7257
H2 H 0.4054 0.1829 0.8021
H3 H 0.2833 0.2203 0.7672
H4 H 0.5836 0.4625 0.7195
H5 H 0.5198 0.4012 0.8172
H6 H 0.6659 0.4407 0.8472
H7 H 0.3707 0.0639 1.3291
H8 H 0.3697 0.2684 1.3585
H9 H 0.4557 0.0777 1.0354
H10 H 0.5811 0.1371 1.0134
H11 H 0.5916 0.0567 1.0427
H12 H 0.7682 0.1540 1.1982
H13 H 0.7710 0.0738 1.2103
H14 H 0.7521 0.0998 1.3209
H15 H 0.5689 -0.0182 1.2338
H16 H 0.5405 0.0085 1.3400
H17 H 0.4327 0.0027 1.2255
H18 H 0.1508 0.0414 1.3177
H19 H 0.2451 0.0248 1.4406
H20 H 0.1009 0.0329 1.4392
H21 H 0.3325 0.1213 1.5653
H22 H 0.1865 0.1274 1.5619
H23 H 0.2896 0.1952 1.5166
H24 H 0.0363 0.1511 1.3665
H25 H 0.1389 0.2189 1.3207
H26 H 0.0857 0.1602 1.2445
H27 H 0.5148 0.3520 1.4056
H28 H 0.4040 0.3694 1.2958
H29 H 0.5329 0.4263 1.3164
H30 H 0.7270 0.3360 1.3780
H31 H 0.7448 0.4106 1.2895
H32 H 0.7604 0.3434 1.2499
H33 H 0.5803 0.4397 1.1154
H34 H 0.5797 0.3739 1.0637
H35 H 0.4476 0.3867 1.0875
H36 H 1.1555 0.4327 0.7200
H37 H 0.9671 0.2776 0.4981
H38 H 0.9495 0.4506 0.8836
H39 H 0.8752 0.3765 0.9463
H40 H 0.9878 0.4219 1.0223
H41 H 1.1608 0.2909 1.0112
H42 H 1.1179 0.3261 1.0996
H43 H 1.0133 0.2732 1.0311
H44 H 1.2191 0.4427 0.9963
H45 H 1.2622 0.4076 0.9081
H46 H 1.1827 0.4692 0.8567
H47 H 0.9090 0.1708 0.5292
H48 H 0.7962 0.2118 0.4588
H49 H 0.7618 0.1303 0.5154
H50 H 0.6375 0.2329 0.5596
H51 H 0.6411 0.2067 0.6990
H52 H 0.6039 0.1513 0.6162
H53 H 0.8301 0.1367 0.8215
H54 H 0.7778 0.0857 0.7311
H55 H 0.9265 0.1236 0.7474
C35? C 1.218(2) 0.4831(9) 0.518(2)
C37? C 1.256(2) 0.362(1) 0.504(2)
C39? C 1.073(2) 0.413(1) 0.374(2)
loop_
_geom_bond_atom_site_label_1
_geom_bond_atom_site_label_2
_geom_bond_site_symmetry_1
_geom_bond_site_symmetry_2
S1 C1 1_555 1_555
S2 C2 1_555 1_555
P1 C1 1_555 1_555
P2 C2 1_555 1_555
C1 C2 1_555 1_555
C3 S1 1_555 1_555
C4 S2 1_555 1_555
C5 P1 1_555 1_555
C6 C5 1_555 1_555
C7 C6 1_555 1_555
C8 C7 1_555 1_555
C9 C8 1_555 1_555
C10 C5 1_555 1_555
C11 C6 1_555 1_555
C12 C11 1_555 1_555
C13 C11 1_555 1_555
C14 C11 1_555 1_555
C15 C8 1_555 1_555
C16 C15 1_555 1_555
C17 C15 1_555 1_555
C18 C15 1_555 1_555
C19 C10 1_555 1_555
C20 C19 1_555 1_555
C21 C19 1_555 1_555
C22 C19 1_555 1_555
C23 P2 1_555 1_555
C24 C23 1_555 1_555
C25 C24 1_555 1_555
C26 C25 1_555 1_555
C27 C26 1_555 1_555
C28 C23 1_555 1_555
C29 C24 1_555 1_555
C30 C29 1_555 1_555
C31 C29 1_555 1_555
C32 C29 1_555 1_555
C33 C26 1_555 1_555
C34 C33 1_555 1_555
C36 C33 1_555 1_555
C38 C33 1_555 1_555
C40 C28 1_555 1_555
C41 C40 1_555 1_555
C42 C40 1_555 1_555
C43 C40 1_555 1_555
C44 C45 1_555 1_555
C45 C46 1_555 1_555
C46 C48 1_555 1_555
C47 C44 1_555 1_555
C48 C44 1_555 1_555
H1 C3 1_555 1_555
H2 C3 1_555 1_555
H3 C3 1_555 1_555
H4 C4 1_555 1_555
H5 C4 1_555 1_555
H6 C4 1_555 1_555
H7 C7 1_555 1_555
H8 C9 1_555 1_555
H9 C12 1_555 1_555
H10 C12 1_555 1_555
H11 C12 1_555 1_555
H12 C13 1_555 1_555
H13 C13 1_555 1_555
H14 C13 1_555 1_555
H15 C14 1_555 1_555
H16 C14 1_555 1_555
H17 C14 1_555 1_555
H18 C16 1_555 1_555
H19 C16 1_555 1_555
H20 C16 1_555 1_555
H21 C17 1_555 1_555
H22 C17 1_555 1_555
H23 C17 1_555 1_555
H24 C18 1_555 1_555
H25 C18 1_555 1_555
H26 C18 1_555 1_555
H27 C20 1_555 1_555
H28 C20 1_555 1_555
H29 C20 1_555 1_555
H30 C21 1_555 1_555
H31 C21 1_555 1_555
H32 C21 1_555 1_555
H33 C22 1_555 1_555
H34 C22 1_555 1_555
H35 C22 1_555 1_555
H36 C25 1_555 1_555
H37 C27 1_555 1_555
H38 C30 1_555 1_555
H39 C30 1_555 1_555
H40 C30 1_555 1_555
H41 C31 1_555 1_555
H42 C31 1_555 1_555
H43 C31 1_555 1_555
H44 C32 1_555 1_555
H45 C32 1_555 1_555
H46 C32 1_555 1_555
H47 C41 1_555 1_555
H48 C41 1_555 1_555
H49 C41 1_555 1_555
H50 C42 1_555 1_555
H51 C42 1_555 1_555
H52 C42 1_555 1_555
H53 C43 1_555 1_555
H54 C43 1_555 1_555
H55 C43 1_555 1_555
C45A C46 1_555 1_555
C44A C45A 1_555 1_555
C47A C46 1_555 1_555
C46A C45 1_555 1_555
C48A C45A 1_555 1_555
C9 C10 1_555 1_555
C27 C28 1_555 1_555
C45 C47 1_555 1_555
C45 C48 1_555 1_555
C47 C46A 1_555 1_555
C45A C47A 1_555 1_555
C45A C46A 1_555 1_555
C44A C47A 1_555 1_555
C44A C48A 1_555 1_555
C46A C48A 1_555 1_555

#END
