
#######################################################################
#
#                 Cambridge Crystallographic Data Centre
#                                CCDC 
#
#######################################################################
#
# If this CIF has been generated from an entry in the Cambridge 
# Structural Database, then it will include bibliographic, chemical, 
# crystal, experimental, refinement or atomic coordinate data resulting 
# from the CCDC's data processing and validation procedures.
#
#######################################################################

data_UHUXIE
_chemical_formula_moiety         'C20 H32 Br1 P1 S1'
_chemical_name_systematic        
(Z)-2-Bromo-2-methylsulfanyl-1-(2,4,6-tri-t-butylphenyl)-1-phosphaethene
_symmetry_cell_setting           orthorhombic
_symmetry_space_group_name_H-M   'P n m a'
_symmetry_Int_Tables_number      62
_space_group_name_Hall           '-P 2ac 2n'
loop_
_symmetry_equiv_pos_site_id
_symmetry_equiv_pos_as_xyz
1 x,y,z
2 1/2-x,1/2+y,1/2+z
3 x,1/2-y,z
4 1/2+x,y,1/2-z
5 -x,-y,-z
6 1/2+x,1/2-y,1/2-z
7 -x,1/2+y,-z
8 1/2-x,-y,1/2+z
_cell_length_a                   25.616(3)
_cell_length_b                   13.592(4)
_cell_length_c                   6.458(2)
_cell_angle_alpha                90
_cell_angle_beta                 90
_cell_angle_gamma                90
_cell_volume                     2248.5
_exptl_crystal_colour            colorless
_exptl_crystal_description       prism
_chemical_melting_point          102-104deg.C
_cell_formula_units_Z            4
loop_
_atom_site_label
_atom_site_type_symbol
_atom_site_fract_x
_atom_site_fract_y
_atom_site_fract_z
Br1 Br 0.26177(5) 0.2500 0.0967(2)
S1 S 0.1740(1) 0.2500 0.3885(6)
P1 P 0.2821(1) 0.2500 0.5849(6)
C1 C 0.2409(4) 0.2500 0.379(2)
C2 C 0.1625(4) 0.2500 0.655(2)
C3 C 0.3466(4) 0.2500 0.467(2)
C4 C 0.3702(3) 0.3417(8) 0.413(1)
C5 C 0.4159(3) 0.3380(9) 0.287(2)
C6 C 0.4385(4) 0.2500 0.219(2)
C7 C 0.3519(3) 0.443(1) 0.493(2)
C8 C 0.3039(3) 0.479(1) 0.379(2)
C9 C 0.3937(5) 0.518(2) 0.461(2)
C10 C 0.3414(4) 0.440(1) 0.733(2)
C11 C 0.4872(5) 0.2500 0.075(3)
C12 C 0.4743(7) 0.298(2) -0.127(3)
C13 C 0.5078(8) 0.354(2) 0.021(3)
C14 C 0.5288(8) 0.198(2) 0.196(3)
H1 H 0.1774 0.3071 0.7209
H2 H 0.1256 0.2500 0.6864
H4 H 0.4317 0.3968 0.2394
H5 H 0.2917 0.5409 0.4352
H6 H 0.3099 0.4879 0.2351
H7 H 0.2754 0.4327 0.3948
H8 H 0.4256 0.5011 0.5277
H9 H 0.4008 0.5276 0.3158
H10 H 0.3827 0.5814 0.5152
H11 H 0.3327 0.5051 0.7867
H12 H 0.3180 0.3944 0.7761
H13 H 0.3757 0.4255 0.8097
H1B H 0.1774 0.1929 0.7209
C5B C 0.4159(3) 0.1620(9) 0.287(2)
C4B C 0.3702(3) 0.1583(8) 0.413(1)
C7B C 0.3519(3) 0.057(1) 0.493(2)
C8B C 0.3039(3) 0.021(1) 0.379(2)
H5B H 0.2917 -0.0409 0.4352
H6B H 0.3099 0.0121 0.2351
H7B H 0.2754 0.0673 0.3948
C9B C 0.3937(5) -0.018(2) 0.461(2)
H8B H 0.4256 -0.0011 0.5277
H9B H 0.4008 -0.0276 0.3158
H10B H 0.3827 -0.0814 0.5152
C10B C 0.3414(4) 0.060(1) 0.733(2)
H11B H 0.3327 -0.0051 0.7867
H12B H 0.3180 0.1056 0.7761
H13B H 0.3757 0.0745 0.8097
H4B H 0.4317 0.1032 0.2394
C12B C 0.4743(7) 0.202(2) -0.127(3)
C14B C 0.5288(8) 0.302(2) 0.196(3)
C13B C 0.5078(8) 0.146(2) 0.021(3)
H3? H 0.1774 0.1929 0.7209
loop_
_geom_bond_atom_site_label_1
_geom_bond_atom_site_label_2
_geom_bond_site_symmetry_1
_geom_bond_site_symmetry_2
Br1 C1 1_555 1_555
S1 C1 1_555 1_555
P1 C1 1_555 1_555
C2 S1 1_555 1_555
C3 P1 1_555 1_555
C4 C3 1_555 1_555
C5 C4 1_555 1_555
C6 C5 1_555 1_555
C7 C4 1_555 1_555
C8 C7 1_555 1_555
C9 C7 1_555 1_555
C10 C7 1_555 1_555
C11 C6 1_555 1_555
C12 C11 1_555 1_555
C13 C11 1_555 1_555
C14 C11 1_555 1_555
H1 C2 1_555 1_555
H2 C2 1_555 1_555
H4 C5 1_555 1_555
H5 C8 1_555 1_555
H6 C8 1_555 1_555
H7 C8 1_555 1_555
H8 C9 1_555 1_555
H9 C9 1_555 1_555
H10 C9 1_555 1_555
H11 C10 1_555 1_555
H12 C10 1_555 1_555
H13 C10 1_555 1_555
H1B C2 1_555 1_555
C5B C6 1_555 1_555
C4B C3 1_555 1_555
C7B C4B 1_555 1_555
C8B C7B 1_555 1_555
H5B C8B 1_555 1_555
H6B C8B 1_555 1_555
H7B C8B 1_555 1_555
C9B C7B 1_555 1_555
H8B C9B 1_555 1_555
H9B C9B 1_555 1_555
H10B C9B 1_555 1_555
C10B C7B 1_555 1_555
H11B C10B 1_555 1_555
H12B C10B 1_555 1_555
H13B C10B 1_555 1_555
H4B C5B 1_555 1_555
C12B C11 1_555 1_555
C14B C11 1_555 1_555
C13B C11 1_555 1_555
C12 C12B 1_555 1_555
C12 C13 1_555 1_555
C13 C14B 1_555 1_555
C14 C13B 1_555 1_555
C14 C14B 1_555 1_555
C5B C4B 1_555 1_555
C12B C13B 1_555 1_555

#END
