
#######################################################################
#
#                 Cambridge Crystallographic Data Centre
#                                CCDC 
#
#######################################################################
#
# If this CIF has been generated from an entry in the Cambridge 
# Structural Database, then it will include bibliographic, chemical, 
# crystal, experimental, refinement or atomic coordinate data resulting 
# from the CCDC's data processing and validation procedures.
#
#######################################################################

data_UHUZUS
_chemical_formula_moiety         'C12 H1 F10 P1'
_chemical_name_systematic        bis(Pentafluorophenyl)phosphane
_symmetry_cell_setting           monoclinic
_symmetry_space_group_name_H-M   'P 21/c'
_symmetry_Int_Tables_number      14
_space_group_name_Hall           '-P 2ybc'
loop_
_symmetry_equiv_pos_site_id
_symmetry_equiv_pos_as_xyz
1 x,y,z
2 x,1/2-y,1/2+z
3 -x,-y,-z
4 -x,1/2+y,1/2-z
_cell_length_a                   9.390(4)
_cell_length_b                   7.410(6)
_cell_length_c                   19.516(5)
_cell_angle_alpha                90
_cell_angle_beta                 110.734(13)
_cell_angle_gamma                90
_cell_volume                     1269.97
_exptl_crystal_colour            colorless
_chemical_melting_point          49-51deg.C
_cell_formula_units_Z            4
_exptl_crystal_recrystallization_method sublimation
loop_
_atom_site_label
_atom_site_type_symbol
_atom_site_fract_x
_atom_site_fract_y
_atom_site_fract_z
P1 P 0.2216(3) 0.2831(3) 0.22053(13)
H1 H 0.315(18) 0.181(19) 0.2813(84)
F1 F 0.2959(5) 0.6296(5) 0.1554(3)
F2 F 0.5002(5) 0.6821(5) 0.0895(3)
F3 F 0.6668(4) 0.4005(6) 0.0703(3)
F4 F 0.6284(5) 0.0660(6) 0.1176(3)
F5 F 0.4248(4) 0.0115(5) 0.1831(2)
F6 F 0.0044(5) 0.3432(6) 0.0644(2)
F7 F -0.2030(5) 0.1117(8) -0.0250(2)
F8 F -0.2321(5) -0.2258(8) 0.0220(3)
F9 F -0.0592(5) -0.3321(6) 0.1567(3)
F10 F 0.1475(4) -0.1091(6) 0.2455(2)
C1 C 0.3508(7) 0.3164(8) 0.1700(3)
C2 C 0.3756(7) 0.4865(9) 0.1457(4)
C3 C 0.4796(8) 0.5160(9) 0.1114(4)
C4 C 0.5632(7) 0.3743(10) 0.1024(4)
C5 C 0.5446(8) 0.2055(9) 0.1272(4)
C6 C 0.4402(7) 0.1808(8) 0.1596(4)
C7 C 0.0850(6) 0.1264(9) 0.1588(3)
C8 C -0.0096(8) 0.1753(10) 0.0883(4)
C9 C -0.1143(8) 0.0567(13) 0.0434(4)
C10 C -0.1302(8) -0.1112(12) 0.0652(5)
C11 C -0.0427(8) -0.1671(10) 0.1338(5)
C12 C 0.0631(8) -0.0487(10) 0.1789(4)
loop_
_geom_bond_atom_site_label_1
_geom_bond_atom_site_label_2
_geom_bond_site_symmetry_1
_geom_bond_site_symmetry_2
P1 H1 1_555 1_555
F1 C2 1_555 1_555
F2 C3 1_555 1_555
F3 C4 1_555 1_555
F4 C5 1_555 1_555
F5 C6 1_555 1_555
F6 C8 1_555 1_555
F7 C9 1_555 1_555
F8 C10 1_555 1_555
F9 C11 1_555 1_555
F10 C12 1_555 1_555
C1 P1 1_555 1_555
C2 C1 1_555 1_555
C3 C2 1_555 1_555
C4 C3 1_555 1_555
C5 C4 1_555 1_555
C6 C1 1_555 1_555
C7 P1 1_555 1_555
C8 C7 1_555 1_555
C9 C8 1_555 1_555
C10 C9 1_555 1_555
C11 C10 1_555 1_555
C12 C7 1_555 1_555
C5 C6 1_555 1_555
C11 C12 1_555 1_555

#END
