
#######################################################################
#
#                 Cambridge Crystallographic Data Centre
#                                CCDC 
#
#######################################################################
#
# If this CIF has been generated from an entry in the Cambridge 
# Structural Database, then it will include bibliographic, chemical, 
# crystal, experimental, refinement or atomic coordinate data resulting 
# from the CCDC's data processing and validation procedures.
#
#######################################################################

data_UJADUE
_chemical_formula_moiety         'C18 H20 Br1 N1'
_chemical_name_systematic        trans-4-Diethylamino-4'-bromostilbene
_symmetry_cell_setting           triclinic
_symmetry_space_group_name_H-M   'P -1'
_symmetry_Int_Tables_number      2
_space_group_name_Hall           '-P 1'
loop_
_symmetry_equiv_pos_site_id
_symmetry_equiv_pos_as_xyz
1 x,y,z
2 -x,-y,-z
_cell_length_a                   9.774(3)
_cell_length_b                   12.8307(16)
_cell_length_c                   13.4964(14)
_cell_angle_alpha                82.427(8)
_cell_angle_beta                 88.146(16)
_cell_angle_gamma                75.151(17)
_cell_volume                     1621.75
_exptl_crystal_colour            'light green'
_exptl_crystal_description       plate
_chemical_melting_point          153-154deg.C
_cell_formula_units_Z            4
_exptl_crystal_recrystallization_method tetrahydrofuran
loop_
_atom_site_label
_atom_site_type_symbol
_atom_site_fract_x
_atom_site_fract_y
_atom_site_fract_z
Br1 Br 0.39942(8) 0.83055(6) 0.34510(6)
C1 C 0.3597(6) 0.9414(5) 0.2341(6)
C2 C 0.3312(7) 1.0491(5) 0.2513(5)
H1 H 0.3289 1.0670 0.3160
C3 C 0.3065(7) 1.1287(5) 0.1704(6)
H2 H 0.2885 1.2011 0.1811
C4 C 0.3077(6) 1.1042(5) 0.0735(5)
C5 C 0.3336(7) 0.9967(5) 0.0613(5)
H3 H 0.3317 0.9782 -0.0029
C6 C 0.3623(7) 0.9152(5) 0.1401(6)
H4 H 0.3833 0.8427 0.1291
C7 C 0.2822(7) 1.1883(6) -0.0180(7)
H5 H 0.2967 1.1619 -0.0795
C8 C 0.2433(7) 1.2910(6) -0.0205(7)
H6 H 0.2265 1.3180 0.0406
C9 C 0.2222(7) 1.3716(5) -0.1114(6)
C10 C 0.1687(7) 1.4809(5) -0.1028(6)
H7 H 0.1470 1.5015 -0.0395
C11 C 0.1465(7) 1.5590(5) -0.1826(6)
H8 H 0.1086 1.6310 -0.1724
C12 C 0.1788(7) 1.5349(5) -0.2790(6)
C13 C 0.2321(7) 1.4242(5) -0.2882(6)
H9 H 0.2528 1.4034 -0.3516
C14 C 0.2542(7) 1.3470(5) -0.2082(6)
H10 H 0.2920 1.2748 -0.2180
C15 C 0.1708(11) 1.5862(7) -0.4679(8)
H11 H 0.1423 1.5195 -0.4706
H12 H 0.1092 1.6441 -0.5117
C16 C 0.3158(11) 1.5730(7) -0.4990(8)
H13 H 0.3259 1.5550 -0.5661
H14 H 0.3757 1.5156 -0.4551
H15 H 0.3426 1.6395 -0.4964
C17 C 0.1414(11) 1.7275(7) -0.3492(8)
H16 H 0.1746 1.7319 -0.2833
H17 H 0.2007 1.7577 -0.3979
C18 C 0.0007(11) 1.7925(7) -0.3610(8)
H18 H -0.0016 1.8662 -0.3528
H19 H -0.0586 1.7652 -0.3115
H20 H -0.0329 1.7903 -0.4265
N1 N 0.1603(8) 1.6143(4) -0.3605(5)
Br2 Br 0.37917(9) 0.27016(5) 1.42311(6)
N2 N 0.1456(5) 1.0477(4) 0.7143(4)
C19 C 0.2062(8) 0.5135(5) 1.1955(6)
H21 H 0.1167 0.5494 1.1703
C20 C 0.2196(7) 0.4313(5) 1.2781(5)
H22 H 0.1406 0.4136 1.3088
C21 C 0.3538(7) 0.3788(4) 1.3109(5)
C22 C 0.4682(8) 0.4035(5) 1.2658(6)
H23 H 0.5582 0.3649 1.2883
C23 C 0.4541(8) 0.4849(6) 1.1871(6)
H24 H 0.5344 0.5017 1.1576
C24 C 0.3235(11) 0.5414(5) 1.1518(5)
C25 C 0.3275(8) 0.6333(6) 1.0608(6)
H25 H 0.4125 0.6417 1.0323
C26 C 0.2164(8) 0.6909(6) 1.0309(6)
H26 H 0.1318 0.6797 1.0579
C27 C 0.2167(11) 0.7854(5) 0.9451(5)
C28 C 0.0878(9) 0.8541(6) 0.9275(6)
H27 H 0.0123 0.8426 0.9675
C29 C 0.0637(7) 0.9401(5) 0.8530(5)
H28 H -0.0275 0.9848 0.8439
C30 C 0.1721(6) 0.9629(4) 0.7901(5)
C31 C 0.3065(7) 0.8934(5) 0.8094(5)
H29 H 0.3830 0.9051 0.7708
C32 C 0.3274(9) 0.8056(5) 0.8869(6)
H30 H 0.4179 0.7604 0.8989
C33 C 0.2614(7) 1.0748(5) 0.6533(6)
H31 H 0.3448 1.0609 0.6950
H32 H 0.2351 1.1518 0.6287
C34 C 0.2975(8) 1.0107(5) 0.5654(5)
H33 H 0.3741 1.0313 0.5284
H34 H 0.2162 1.0258 0.5228
H35 H 0.3252 0.9345 0.5893
C35 C 0.0035(6) 1.1127(5) 0.6882(5)
H36 H -0.0623 1.0674 0.7018
H37 H -0.0003 1.1381 0.6172
C36 C -0.0415(9) 1.2081(6) 0.7446(7)
H38 H -0.1357 1.2483 0.7248
H39 H 0.0221 1.2541 0.7303
H40 H -0.0398 1.1834 0.8149
loop_
_geom_bond_atom_site_label_1
_geom_bond_atom_site_label_2
_geom_bond_site_symmetry_1
_geom_bond_site_symmetry_2
Br1 C1 1_555 1_555
C1 C2 1_555 1_555
C2 H1 1_555 1_555
C3 C2 1_555 1_555
H2 C3 1_555 1_555
C4 C3 1_555 1_555
C5 C4 1_555 1_555
H3 C5 1_555 1_555
C6 C1 1_555 1_555
H4 C6 1_555 1_555
C7 C4 1_555 1_555
H5 C7 1_555 1_555
C8 C7 1_555 1_555
H6 C8 1_555 1_555
C9 C8 1_555 1_555
C10 C9 1_555 1_555
H7 C10 1_555 1_555
C11 C10 1_555 1_555
H8 C11 1_555 1_555
C12 C11 1_555 1_555
C13 C12 1_555 1_555
H9 C13 1_555 1_555
C14 C9 1_555 1_555
H10 C14 1_555 1_555
C15 H11 1_555 1_555
H12 C15 1_555 1_555
C16 C15 1_555 1_555
H13 C16 1_555 1_555
H14 C16 1_555 1_555
H15 C16 1_555 1_555
C17 H16 1_555 1_555
H17 C17 1_555 1_555
C18 C17 1_555 1_555
H18 C18 1_555 1_555
H19 C18 1_555 1_555
H20 C18 1_555 1_555
N1 C12 1_555 1_555
Br2 C21 1_555 1_555
N2 C30 1_555 1_555
C19 H21 1_555 1_555
C20 C19 1_555 1_555
H22 C20 1_555 1_555
C21 C20 1_555 1_555
C22 C21 1_555 1_555
H23 C22 1_555 1_555
C23 C22 1_555 1_555
H24 C23 1_555 1_555
C24 C19 1_555 1_555
C25 C24 1_555 1_555
H25 C25 1_555 1_555
C26 C25 1_555 1_555
H26 C26 1_555 1_555
C27 C26 1_555 1_555
C28 C27 1_555 1_555
H27 C28 1_555 1_555
C29 C28 1_555 1_555
H28 C29 1_555 1_555
C30 C29 1_555 1_555
C31 C30 1_555 1_555
H29 C31 1_555 1_555
C32 C27 1_555 1_555
H30 C32 1_555 1_555
C33 N2 1_555 1_555
H31 C33 1_555 1_555
H32 C33 1_555 1_555
C34 C33 1_555 1_555
H33 C34 1_555 1_555
H34 C34 1_555 1_555
H35 C34 1_555 1_555
C35 N2 1_555 1_555
H36 C35 1_555 1_555
H37 C35 1_555 1_555
C36 C35 1_555 1_555
H38 C36 1_555 1_555
H39 C36 1_555 1_555
H40 C36 1_555 1_555
C5 C6 1_555 1_555
C13 C14 1_555 1_555
C15 N1 1_555 1_555
C17 N1 1_555 1_555
C23 C24 1_555 1_555
C31 C32 1_555 1_555

#END
