
#######################################################################
#
#                 Cambridge Crystallographic Data Centre
#                                CCDC 
#
#######################################################################
#
# If this CIF has been generated from an entry in the Cambridge 
# Structural Database, then it will include bibliographic, chemical, 
# crystal, experimental, refinement or atomic coordinate data resulting 
# from the CCDC's data processing and validation procedures.
#
#######################################################################

data_UJAFER
_chemical_name_common            
(R,R)-1-(((2-(4-Methylphenyl)cyclopropyl)carbonyl)oxy)pyrrolidine-2,5-dione
_chemical_formula_moiety         'C15 H15 N1 O4'
_chemical_name_systematic        
'(R,R)-2,5-Dioxopyrrolidin-1-yl 2-p-tolylcyclopropanecarboxylate'
_symmetry_cell_setting           orthorhombic
_symmetry_space_group_name_H-M   'P 21 21 21'
_symmetry_Int_Tables_number      19
_space_group_name_Hall           'P 2ac 2ab'
loop_
_symmetry_equiv_pos_site_id
_symmetry_equiv_pos_as_xyz
1 x,y,z
2 1/2-x,-y,1/2+z
3 -x,1/2+y,1/2-z
4 1/2+x,1/2-y,-z
_cell_length_a                   5.8676(2)
_cell_length_b                   8.9556(3)
_cell_length_c                   27.5262(8)
_cell_angle_alpha                90
_cell_angle_beta                 90
_cell_angle_gamma                90
_cell_volume                     1446.44
_exptl_crystal_colour            colorless
_exptl_crystal_description       plate
_cell_formula_units_Z            4
loop_
_atom_site_label
_atom_site_type_symbol
_atom_site_fract_x
_atom_site_fract_y
_atom_site_fract_z
C1 C 0.1734(4) 0.6453(4) 0.85675(9)
C2 C 0.2428(5) 0.6603(3) 0.90755(9)
H1 H 0.1238 0.6513 0.9324
C3 C 0.7073(5) 0.4373(3) 0.97271(9)
H2 H 0.7960 0.4166 0.9455
C4 C -0.2111(6) 0.7618(4) 0.78554(11)
C5 C 0.5273(5) 0.5356(3) 0.96844(8)
C6 C 0.7589(6) 0.3695(3) 1.01598(10)
H3 H 0.8824 0.3045 1.0176
C7 C -0.1999(6) 0.5015(4) 0.78532(11)
C8 C -0.3093(7) 0.7138(3) 0.73768(10)
H4 H -0.4653 0.7482 0.7345
H5 H -0.2204 0.7541 0.7110
C9 C 0.4017(6) 0.5641(4) 1.01000(9)
H6 H 0.2813 0.6316 1.0088
C10 C -0.3001(7) 0.5478(3) 0.73758(10)
H7 H -0.2059 0.5125 0.7110
H8 H -0.4519 0.5066 0.7338
C11 C 0.6306(6) 0.3957(4) 1.05732(9)
C12 C 0.4804(4) 0.6080(3) 0.92101(8)
H9 H 0.5680 0.5670 0.8938
C13 C 0.4335(6) 0.7689(3) 0.91720(12)
H10 H 0.4970 0.8220 0.8896
H11 H 0.4275 0.8261 0.9471
C14 C 0.4530(7) 0.4935(4) 1.05314(10)
H12 H 0.3638 0.5132 1.0803
C15 C 0.6908(9) 0.3200(4) 1.10502(11)
H13 H 0.5567 0.3121 1.1248
H14 H 0.8038 0.3780 1.1217
H15 H 0.7500 0.2220 1.0986
O1 O -0.0616(3) 0.6354(3) 0.85524(5)
O2 O 0.2862(3) 0.6450(3) 0.82119(6)
O3 O -0.1873(5) 0.8842(3) 0.80233(9)
O4 O -0.1706(6) 0.3806(3) 0.80242(9)
N1 N -0.1474(4) 0.6323(3) 0.80839(7)
loop_
_geom_bond_atom_site_label_1
_geom_bond_atom_site_label_2
_geom_bond_site_symmetry_1
_geom_bond_site_symmetry_2
C1 C2 1_555 1_555
C2 H1 1_555 1_555
C3 H2 1_555 1_555
C4 C8 1_555 1_555
C5 C3 1_555 1_555
C6 C3 1_555 1_555
H3 C6 1_555 1_555
C7 C10 1_555 1_555
C8 H4 1_555 1_555
H5 C8 1_555 1_555
C9 C5 1_555 1_555
H6 C9 1_555 1_555
C10 C8 1_555 1_555
H7 C10 1_555 1_555
H8 C10 1_555 1_555
C11 C6 1_555 1_555
C12 C2 1_555 1_555
H9 C12 1_555 1_555
C13 C2 1_555 1_555
H10 C13 1_555 1_555
H11 C13 1_555 1_555
C14 C9 1_555 1_555
H12 C14 1_555 1_555
C15 C11 1_555 1_555
H13 C15 1_555 1_555
H14 C15 1_555 1_555
H15 C15 1_555 1_555
O1 C1 1_555 1_555
O2 C1 1_555 1_555
O3 C4 1_555 1_555
O4 C7 1_555 1_555
N1 C4 1_555 1_555
C5 C12 1_555 1_555
C7 N1 1_555 1_555
C11 C14 1_555 1_555
C12 C13 1_555 1_555
O1 N1 1_555 1_555

#END
