
#######################################################################
#
#                 Cambridge Crystallographic Data Centre
#                                CCDC 
#
#######################################################################
#
# If this CIF has been generated from an entry in the Cambridge 
# Structural Database, then it will include bibliographic, chemical, 
# crystal, experimental, refinement or atomic coordinate data resulting 
# from the CCDC's data processing and validation procedures.
#
#######################################################################

data_UJAWUZ
_chemical_formula_moiety         'C22 H21 N6 O3 1+,Cl1 1-'
_chemical_name_systematic        
'1-(bis(2-(2-Hydroxybenzylidene)hydrazino)methylene)-2-(2-hydroxybenzylidene)hydrazinium chloride'
_symmetry_cell_setting           triclinic
_symmetry_space_group_name_H-M   'P -1'
_symmetry_Int_Tables_number      2
_space_group_name_Hall           '-P 1'
loop_
_symmetry_equiv_pos_site_id
_symmetry_equiv_pos_as_xyz
1 x,y,z
2 -x,-y,-z
_cell_length_a                   8.8088(5)
_cell_length_b                   9.7607(5)
_cell_length_c                   13.1099(8)
_cell_angle_alpha                88.133(4)
_cell_angle_beta                 78.480(5)
_cell_angle_gamma                84.582(4)
_cell_volume                     1099.44
_exptl_crystal_colour            colorless
_exptl_crystal_description       needle
_cell_formula_units_Z            2
loop_
_atom_site_label
_atom_site_type_symbol
_atom_site_fract_x
_atom_site_fract_y
_atom_site_fract_z
Cl1 Cl 0.29334(8) 0.76095(7) 0.40325(5)
N1 N 0.3153(2) 0.7950(2) 0.69557(16)
O1 O 0.0245(2) 1.0825(2) 0.60117(17)
H1 H -0.0539 1.1342 0.5991
N2 N 0.4068(2) 0.4421(2) 0.63579(16)
H2 H 0.4571 0.3709 0.6574
N3 N 0.4726(3) 0.5785(2) 0.75718(17)
H3 H 0.4736 0.6591 0.7815
O2 O 0.3745(2) 0.06036(19) 0.43173(18)
H4 H 0.3609 -0.0161 0.4130
C1 C 0.2347(3) 0.8937(3) 0.6594(2)
H5 H 0.1928 0.8789 0.6014
N4 N 0.3281(2) 0.4335(2) 0.55546(16)
O3 O 0.6277(3) 0.1932(2) 0.84834(19)
H6 H 0.6028 0.2521 0.8073
C2 C 0.2844(3) 1.0672(3) 0.7821(2)
H7 H 0.3634 1.0075 0.8006
C3 C 0.3361(3) 0.3137(3) 0.5183(2)
H8 H 0.3905 0.2410 0.5470
C4 C 0.2068(3) 1.0286(3) 0.70712(19)
C5 C 0.0915(3) 1.1211(3) 0.6781(2)
N5 N 0.3246(2) 0.6725(2) 0.64328(17)
H9 H 0.2819 0.6672 0.5902
C6 C 0.2622(3) 0.2877(3) 0.4322(2)
C7 C 0.4020(3) 0.5637(3) 0.67839(19)
C8 C 0.1290(4) 1.2801(3) 0.8023(2)
H10 H 0.1012 1.3639 0.8359
C9 C 0.2858(3) 0.1573(3) 0.3885(2)
N6 N 0.5443(2) 0.4662(2) 0.80055(16)
C10 C 0.7005(3) 0.2506(3) 0.9154(2)
C11 C 0.1000(4) 0.3610(3) 0.3098(3)
H11 H 0.0349 0.4281 0.2840
C12 C 0.8582(4) 0.3482(4) 1.0569(2)
H12 H 0.9121 0.3814 1.1037
C13 C 0.7819(3) 0.4372(3) 0.9974(2)
H13 H 0.7844 0.5314 1.0048
C14 C 0.7768(4) 0.1606(3) 0.9766(2)
H14 H 0.7752 0.0662 0.9699
C15 C 0.0526(3) 1.2464(3) 0.7268(2)
H15 H -0.0252 1.3077 0.7083
C16 C 0.8541(4) 0.2088(4) 1.0465(2)
H16 H 0.9041 0.1472 1.0873
C17 C 0.2466(4) 1.1916(3) 0.8293(2)
H17 H 0.2998 1.2167 0.8794
C18 C 0.1297(4) 0.2327(4) 0.2654(3)
H18 H 0.0863 0.2147 0.2087
C19 C 0.2226(4) 0.1312(3) 0.3039(3)
H19 H 0.2427 0.0452 0.2730
C20 C 0.7009(3) 0.3919(3) 0.92638(19)
C21 C 0.6194(3) 0.4949(3) 0.8693(2)
H20 H 0.6224 0.5871 0.8839
C22 C 0.1666(3) 0.3899(3) 0.3922(2)
H21 H 0.1482 0.4770 0.4213
loop_
_geom_bond_atom_site_label_1
_geom_bond_atom_site_label_2
_geom_bond_site_symmetry_1
_geom_bond_site_symmetry_2
N1 C1 1_555 1_555
O1 H1 1_555 1_555
N2 H2 1_555 1_555
N3 H3 1_555 1_555
O2 H4 1_555 1_555
C1 H5 1_555 1_555
N4 N2 1_555 1_555
O3 H6 1_555 1_555
C2 H7 1_555 1_555
C3 N4 1_555 1_555
H8 C3 1_555 1_555
C4 C1 1_555 1_555
C5 O1 1_555 1_555
N5 N1 1_555 1_555
H9 N5 1_555 1_555
C6 C3 1_555 1_555
C7 N2 1_555 1_555
C8 H10 1_555 1_555
C9 O2 1_555 1_555
N6 N3 1_555 1_555
C10 O3 1_555 1_555
C11 H11 1_555 1_555
C12 H12 1_555 1_555
C13 C12 1_555 1_555
H13 C13 1_555 1_555
C14 C10 1_555 1_555
H14 C14 1_555 1_555
C15 C5 1_555 1_555
H15 C15 1_555 1_555
C16 C12 1_555 1_555
H16 C16 1_555 1_555
C17 C2 1_555 1_555
H17 C17 1_555 1_555
C18 C11 1_555 1_555
H18 C18 1_555 1_555
C19 C9 1_555 1_555
H19 C19 1_555 1_555
C20 C10 1_555 1_555
C21 N6 1_555 1_555
H20 C21 1_555 1_555
C22 C6 1_555 1_555
H21 C22 1_555 1_555
N3 C7 1_555 1_555
C2 C4 1_555 1_555
C4 C5 1_555 1_555
N5 C7 1_555 1_555
C6 C9 1_555 1_555
C8 C15 1_555 1_555
C8 C17 1_555 1_555
C11 C22 1_555 1_555
C13 C20 1_555 1_555
C14 C16 1_555 1_555
C18 C19 1_555 1_555
C20 C21 1_555 1_555

#END
