
#######################################################################
#
#                 Cambridge Crystallographic Data Centre
#                                CCDC 
#
#######################################################################
#
# If this CIF has been generated from an entry in the Cambridge 
# Structural Database, then it will include bibliographic, chemical, 
# crystal, experimental, refinement or atomic coordinate data resulting 
# from the CCDC's data processing and validation procedures.
#
#######################################################################

data_UJAXAG
_chemical_formula_moiety         'C1 H9 N6 1+,Br1 1-'
_chemical_name_systematic        'Triaminoguanidinium bromide'
_symmetry_cell_setting           hexagonal
_symmetry_space_group_name_H-M   'P 63/m'
_symmetry_Int_Tables_number      176
_space_group_name_Hall           '-P 6c'
loop_
_symmetry_equiv_pos_site_id
_symmetry_equiv_pos_as_xyz
1 x,y,z
2 x-y,x,1/2+z
3 -y,x-y,z
4 -x,-y,1/2+z
5 -x+y,-x,z
6 y,-x+y,1/2+z
7 -x,-y,-z
8 -x+y,-x,1/2-z
9 y,-x+y,-z
10 x,y,1/2-z
11 x-y,x,-z
12 -y,x-y,1/2-z
_cell_length_a                   7.7196(5)
_cell_length_b                   7.7196(5)
_cell_length_c                   6.2784(6)
_cell_angle_alpha                90
_cell_angle_beta                 90
_cell_angle_gamma                120
_cell_volume                     324.018
_exptl_crystal_colour            colorless
_exptl_crystal_description       needle
_cell_formula_units_Z            2
loop_
_atom_site_label
_atom_site_type_symbol
_atom_site_fract_x
_atom_site_fract_y
_atom_site_fract_z
Br1 Br -0.3333 0.3333 -0.2500
C1 C 0.0000 0.0000 0.2500
N1 N -0.1796(8) -0.0177(8) 0.2500
H1 H -0.2859 -0.1335 0.2500
N2 N -0.1921(9) 0.1601(8) 0.2500
H2 H -0.2744 0.1522 0.1525
N1B N 0.0177(8) -0.1619(11) 0.2500
H1B H 0.1335 -0.1524 0.2500
N2B N -0.1601(8) -0.3522(12) 0.2500
H2B H -0.1522 -0.4266 0.1525
N1D N 0.1619(11) 0.1796(8) 0.2500
H1D H 0.1524 0.2859 0.2500
N2D N 0.3522(12) 0.1921(9) 0.2500
H2D H 0.4266 0.2744 0.1525
H2G H 0.4266 0.2744 0.3475
H2I H -0.2744 0.1522 0.3475
H2K H -0.1522 -0.4266 0.3475
loop_
_geom_bond_atom_site_label_1
_geom_bond_atom_site_label_2
_geom_bond_site_symmetry_1
_geom_bond_site_symmetry_2
C1 N1 1_555 1_555
N1 H1 1_555 1_555
N2 N1 1_555 1_555
H2 N2 1_555 1_555
N1B C1 1_555 1_555
H1B N1B 1_555 1_555
N2B N1B 1_555 1_555
H2B N2B 1_555 1_555
N1D C1 1_555 1_555
H1D N1D 1_555 1_555
N2D N1D 1_555 1_555
H2D N2D 1_555 1_555
H2G N2D 1_555 1_555
H2I N2 1_555 1_555
H2K N2B 1_555 1_555

#END
