
#######################################################################
#
#                 Cambridge Crystallographic Data Centre
#                                CCDC 
#
#######################################################################
#
# If this CIF has been generated from an entry in the Cambridge 
# Structural Database, then it will include bibliographic, chemical, 
# crystal, experimental, refinement or atomic coordinate data resulting 
# from the CCDC's data processing and validation procedures.
#
#######################################################################

data_UJAXAF
_chemical_formula_moiety         'C35 H41 N2 P1'
_chemical_name_systematic        
N-(1-(N-(2,6-Dimethylphenyl)-P,P-diphenylphosphorimidoyl)propan-2-ylidene)-2,6-diisopropylaniline
_symmetry_cell_setting           triclinic
_symmetry_space_group_name_H-M   'P -1'
_symmetry_Int_Tables_number      2
_space_group_name_Hall           '-P 1'
loop_
_symmetry_equiv_pos_site_id
_symmetry_equiv_pos_as_xyz
1 x,y,z
2 -x,-y,-z
_cell_length_a                   10.2869(6)
_cell_length_b                   11.4033(7)
_cell_length_c                   13.6805(9)
_cell_angle_alpha                77.8380(10)
_cell_angle_beta                 74.2630(10)
_cell_angle_gamma                71.6080(10)
_cell_volume                     1451.92
_cell_formula_units_Z            2
loop_
_atom_site_label
_atom_site_type_symbol
_atom_site_fract_x
_atom_site_fract_y
_atom_site_fract_z
P1 P 0.60385(5) 0.15417(5) 0.03541(4)
N1 N 0.75227(16) -0.04132(15) 0.24376(13)
C1 C 0.74207(19) 0.22305(18) 0.02939(15)
C2 C 0.4484(2) 0.24248(18) 0.11699(15)
C3 C 0.6109(2) 0.21489(18) -0.16682(15)
C4 C 0.76647(19) -0.06205(19) 0.34733(15)
C5 C 0.8671(2) 0.1547(2) 0.05886(16)
H1 H 0.8793 0.0714 0.0872
C6 C 0.7573(2) 0.03837(19) 0.39449(16)
C7 C 0.8048(2) -0.18634(19) 0.39593(16)
C8 C 0.7418(2) 0.1820(2) -0.23516(17)
C9 C 0.5024(2) 0.31368(19) -0.20000(17)
C10 C 0.4466(2) 0.33210(19) 0.17231(17)
H2 H 0.5289 0.3529 0.1669
C11 C 0.7067(2) 0.17247(19) 0.34725(17)
H3 H 0.6893 0.1718 0.2805
C12 C 0.8332(2) 0.4023(2) -0.02624(18)
H4 H 0.8218 0.4856 -0.0546
C13 C 0.3228(2) 0.3910(2) 0.23574(18)
H5 H 0.3221 0.4521 0.2717
C14 C 0.8394(2) -0.2056(2) 0.49020(17)
H6 H 0.8651 -0.2866 0.5235
C15 C 0.3231(2) 0.2128(2) 0.12663(17)
H7 H 0.3219 0.1536 0.0895
C16 C 0.2009(2) 0.3588(2) 0.24532(18)
H8 H 0.1184 0.3969 0.2888
C17 C 0.8366(2) -0.1078(2) 0.53586(18)
H9 H 0.8632 -0.1232 0.5982
C18 C 0.2015(2) 0.2705(2) 0.19071(17)
H10 H 0.1189 0.2495 0.1970
C19 C 0.9733(2) 0.2106(2) 0.04597(17)
H11 H 1.0569 0.1646 0.0653
C20 C 0.5280(3) 0.3766(2) -0.29907(19)
H12 H 0.4561 0.4411 -0.3213
C21 C 0.8089(2) -0.29374(19) 0.34432(17)
H13 H 0.7279 -0.2666 0.3122
C22 C 0.9556(2) 0.3341(2) 0.00459(18)
H14 H 1.0265 0.3717 -0.0026
C23 C 0.7626(3) 0.2493(2) -0.33283(18)
H15 H 0.8499 0.2285 -0.3775
C24 C 0.6568(3) 0.3456(2) -0.36455(19)
H16 H 0.6724 0.3896 -0.4301
C25 C 0.9401(3) -0.3222(2) 0.2596(2)
H17 H 0.9455 -0.2475 0.2125
H18 H 0.9363 -0.3846 0.2239
H19 H 1.0215 -0.3523 0.2889
C26 C 0.8178(3) 0.2424(2) 0.3292(2)
H20 H 0.8325 0.2491 0.3939
H21 H 0.7863 0.3243 0.2933
H22 H 0.9043 0.1976 0.2890
C27 C 0.7971(3) -0.4122(2) 0.4190(2)
H23 H 0.7892 -0.4728 0.3833
H24 H 0.7154 -0.3927 0.4733
H25 H 0.8793 -0.4455 0.4472
C28 C 0.5687(2) 0.2396(2) 0.4132(2)
H26 H 0.4998 0.1957 0.4219
H27 H 0.5364 0.3231 0.3802
H28 H 0.5832 0.2424 0.4790
C29 C 0.63489(19) -0.01937(17) 0.21980(16)
C30 C 0.6381(2) -0.00213(17) 0.10627(15)
H29 H 0.5701 -0.0403 0.0985
H30 H 0.7300 -0.0495 0.0730
C31 C 0.4977(2) -0.0156(2) 0.29497(16)
H31 H 0.5139 -0.0418 0.3631
H32 H 0.4543 -0.0707 0.2796
H33 H 0.4371 0.0679 0.2904
C32 C 0.7275(2) 0.34699(19) -0.01492(17)
H34 H 0.6459 0.3928 -0.0371
N2 N 0.58519(17) 0.14189(16) -0.07120(13)
C33 C 0.8572(2) 0.0728(2) -0.2046(2)
H35 H 0.9380 0.0626 -0.2605
H36 H 0.8258 -0.0013 -0.1877
H37 H 0.8815 0.0873 -0.1461
C34 C 0.3599(2) 0.3497(2) -0.1309(2)
H38 H 0.2978 0.4141 -0.1675
H39 H 0.3668 0.3797 -0.0725
H40 H 0.3236 0.2782 -0.1083
C35 C 0.7945(2) 0.0126(2) 0.48900(17)
H41 H 0.7907 0.0782 0.5210
loop_
_geom_bond_atom_site_label_1
_geom_bond_atom_site_label_2
_geom_bond_site_symmetry_1
_geom_bond_site_symmetry_2
P1 C1 1_555 1_555
N1 C4 1_555 1_555
C1 C5 1_555 1_555
C2 P1 1_555 1_555
C3 C8 1_555 1_555
C4 C6 1_555 1_555
C5 H1 1_555 1_555
C6 C11 1_555 1_555
C7 C4 1_555 1_555
C8 C23 1_555 1_555
C9 C3 1_555 1_555
C10 C2 1_555 1_555
H2 C10 1_555 1_555
C11 H3 1_555 1_555
C12 H4 1_555 1_555
C13 C10 1_555 1_555
H5 C13 1_555 1_555
C14 C7 1_555 1_555
H6 C14 1_555 1_555
C15 C2 1_555 1_555
H7 C15 1_555 1_555
C16 C13 1_555 1_555
H8 C16 1_555 1_555
C17 C14 1_555 1_555
H9 C17 1_555 1_555
C18 C15 1_555 1_555
H10 C18 1_555 1_555
C19 C5 1_555 1_555
H11 C19 1_555 1_555
C20 C9 1_555 1_555
H12 C20 1_555 1_555
C21 C7 1_555 1_555
H13 C21 1_555 1_555
C22 C12 1_555 1_555
H14 C22 1_555 1_555
C23 H15 1_555 1_555
C24 C20 1_555 1_555
H16 C24 1_555 1_555
C25 C21 1_555 1_555
H17 C25 1_555 1_555
H18 C25 1_555 1_555
H19 C25 1_555 1_555
C26 C11 1_555 1_555
H20 C26 1_555 1_555
H21 C26 1_555 1_555
H22 C26 1_555 1_555
C27 C21 1_555 1_555
H23 C27 1_555 1_555
H24 C27 1_555 1_555
H25 C27 1_555 1_555
C28 C11 1_555 1_555
H26 C28 1_555 1_555
H27 C28 1_555 1_555
H28 C28 1_555 1_555
C29 N1 1_555 1_555
C30 P1 1_555 1_555
H29 C30 1_555 1_555
H30 C30 1_555 1_555
C31 C29 1_555 1_555
H31 C31 1_555 1_555
H32 C31 1_555 1_555
H33 C31 1_555 1_555
C32 C1 1_555 1_555
H34 C32 1_555 1_555
N2 P1 1_555 1_555
C33 C8 1_555 1_555
H35 C33 1_555 1_555
H36 C33 1_555 1_555
H37 C33 1_555 1_555
C34 C9 1_555 1_555
H38 C34 1_555 1_555
H39 C34 1_555 1_555
H40 C34 1_555 1_555
C35 C6 1_555 1_555
H41 C35 1_555 1_555
C3 N2 1_555 1_555
C12 C32 1_555 1_555
C16 C18 1_555 1_555
C17 C35 1_555 1_555
C19 C22 1_555 1_555
C23 C24 1_555 1_555
C29 C30 1_555 1_555

#END
