
#######################################################################
#
#                 Cambridge Crystallographic Data Centre
#                                CCDC 
#
#######################################################################
#
# If this CIF has been generated from an entry in the Cambridge 
# Structural Database, then it will include bibliographic, chemical, 
# crystal, experimental, refinement or atomic coordinate data resulting 
# from the CCDC's data processing and validation procedures.
#
#######################################################################

data_UJECAP
_chemical_formula_moiety         'C60 H45 F3'
_chemical_name_systematic        
6,14,22-Tri-t-butyl-2,10,18-trifluoroacephenanthryleno[4',5':9,10]benzo[4,5]fluorantheno[7,8-e]acephenanthrylene
_symmetry_cell_setting           trigonal
_symmetry_space_group_name_H-M   'P -3'
_symmetry_Int_Tables_number      147
_space_group_name_Hall           '-P 3'
loop_
_symmetry_equiv_pos_site_id
_symmetry_equiv_pos_as_xyz
1 x,y,z
2 -y,x-y,z
3 -x+y,-x,z
4 -x,-y,-z
5 y,-x+y,-z
6 x-y,x,-z
_cell_length_a                   17.3019(16)
_cell_length_b                   17.3019(16)
_cell_length_c                   10.4156(10)
_cell_angle_alpha                90
_cell_angle_beta                 90
_cell_angle_gamma                120
_cell_volume                     2700.24
_exptl_crystal_colour            yellow
_exptl_crystal_description       plate
_cell_formula_units_Z            2
loop_
_atom_site_label
_atom_site_type_symbol
_atom_site_fract_x
_atom_site_fract_y
_atom_site_fract_z
F1 F 0.58295(13) -0.20887(12) 0.9155(2)
C1 C 0.5767(2) 0.2637(2) 0.8062(3)
C2 C 0.6479(2) 0.2439(2) 0.8111(3)
C3 C 0.4917(2) 0.1779(2) 0.7971(3)
C4 C 0.4044(2) 0.1532(2) 0.7740(3)
H1 H 0.3887 0.1978 0.7591
C5 C 0.3373(2) 0.0619(2) 0.7721(3)
C6 C 0.3601(2) -0.0030(2) 0.7937(3)
H2 H 0.3145 -0.0639 0.7957
C7 C 0.4503(2) 0.0194(2) 0.8130(3)
C8 C 0.4832(2) -0.0418(2) 0.8364(3)
C9 C 0.4271(2) -0.1343(2) 0.8443(3)
H3 H 0.3647 -0.1590 0.8322
C10 C 0.4597(2) -0.1899(2) 0.8688(4)
H4 H 0.4211 -0.2527 0.8724
C11 C 0.5512(2) -0.1526(2) 0.8887(3)
C12 C 0.6091(2) -0.0637(2) 0.8823(3)
H5 H 0.6712 -0.0408 0.8949
C13 C 0.5760(2) -0.0057(2) 0.8566(3)
C14 C 0.6377(2) 0.0891(2) 0.8496(3)
H6 H 0.6996 0.1117 0.8637
C15 C 0.6070(2) 0.1460(2) 0.8227(3)
C16 C 0.5140(2) 0.1101(2) 0.8104(3)
C17 C 0.2393(2) 0.0384(2) 0.7476(4)
C18 C 0.2109(3) 0.0792(4) 0.8521(7)
H7 H 0.2522 0.1437 0.8550
H8 H 0.1504 0.0677 0.8343
H9 H 0.2116 0.0527 0.9349
C19 C 0.2337(4) 0.0760(4) 0.6172(7)
H10 H 0.2523 0.0493 0.5495
H11 H 0.1722 0.0619 0.6016
H12 H 0.2732 0.1409 0.6170
C20 C 0.1746(3) -0.0620(3) 0.7438(7)
H13 H 0.1927 -0.0890 0.6760
H14 H 0.1754 -0.0883 0.8269
H15 H 0.1142 -0.0733 0.7262
F1A F 1.20887(12) 0.79182(18) 0.9155(2)
C1A C 0.7363(2) 0.3130(3) 0.8062(3)
C2A C 0.7561(2) 0.4040(3) 0.8111(3)
C3A C 0.8221(2) 0.3138(3) 0.7971(3)
C4A C 0.8468(2) 0.2512(3) 0.7740(3)
H1A H 0.8022 0.1909 0.7591
C5A C 0.9381(2) 0.2754(3) 0.7721(3)
C6A C 1.0030(2) 0.3631(3) 0.7937(3)
H2A H 1.0639 0.3784 0.7957
C7A C 0.9806(2) 0.4309(3) 0.8130(3)
C8A C 1.0418(2) 0.5250(3) 0.8364(3)
C9A C 1.1343(2) 0.5614(3) 0.8443(3)
H3A H 1.1590 0.5237 0.8322
C10A C 1.1899(2) 0.6496(3) 0.8688(4)
H4A H 1.2527 0.6738 0.8724
C11A C 1.1526(2) 0.7038(3) 0.8887(3)
C12A C 1.0637(2) 0.6728(3) 0.8823(3)
H5A H 1.0408 0.7120 0.8949
C13A C 1.0057(2) 0.5817(3) 0.8566(3)
C14A C 0.9109(2) 0.5486(3) 0.8496(3)
H6A H 0.8883 0.5879 0.8637
C15A C 0.8540(2) 0.4610(3) 0.8227(3)
C16A C 0.8899(2) 0.4039(3) 0.8104(3)
C17A C 0.9616(2) 0.2009(3) 0.7476(4)
C18A C 0.9208(4) 0.1317(5) 0.8521(7)
H7A H 0.8563 0.1085 0.8550
H8A H 0.9323 0.0827 0.8343
H9A H 0.9473 0.1589 0.9349
C19A C 0.9240(4) 0.1577(6) 0.6172(7)
H10A H 0.9507 0.2030 0.5495
H11A H 0.9381 0.1103 0.6016
H12A H 0.8591 0.1323 0.6170
C20A C 1.0620(3) 0.2366(4) 0.7438(7)
H13A H 1.0890 0.2817 0.6760
H14A H 1.0883 0.2637 0.8269
H15A H 1.0733 0.1875 0.7262
F1B F 0.20818(18) 0.41705(13) 0.9155(2)
C1B C 0.6870(3) 0.4233(2) 0.8062(3)
C2B C 0.5960(3) 0.3521(2) 0.8111(3)
C3B C 0.6862(3) 0.5083(2) 0.7971(3)
C4B C 0.7488(3) 0.5956(2) 0.7740(3)
H1B H 0.8091 0.6113 0.7591
C5B C 0.7246(3) 0.6627(2) 0.7721(3)
C6B C 0.6369(3) 0.6399(2) 0.7937(3)
H2B H 0.6216 0.6855 0.7957
C7B C 0.5691(3) 0.5497(2) 0.8130(3)
C8B C 0.4750(3) 0.5168(2) 0.8364(3)
C9B C 0.4386(3) 0.5729(2) 0.8443(3)
H3B H 0.4763 0.6353 0.8322
C10B C 0.3504(3) 0.5403(2) 0.8688(4)
H4B H 0.3262 0.5789 0.8724
C11B C 0.2962(3) 0.4488(2) 0.8887(3)
C12B C 0.3272(3) 0.3909(2) 0.8823(3)
H5B H 0.2880 0.3288 0.8949
C13B C 0.4183(3) 0.4240(2) 0.8566(3)
C14B C 0.4514(3) 0.3623(2) 0.8496(3)
H6B H 0.4121 0.3004 0.8637
C15B C 0.5390(3) 0.3930(2) 0.8227(3)
C16B C 0.5961(3) 0.4860(2) 0.8104(3)
C17B C 0.7991(3) 0.7607(2) 0.7476(4)
C18B C 0.8683(5) 0.7891(3) 0.8521(7)
H7B H 0.8915 0.7478 0.8550
H8B H 0.9173 0.8496 0.8343
H9B H 0.8411 0.7884 0.9349
C19B C 0.8423(6) 0.7663(4) 0.6172(7)
H10B H 0.7970 0.7477 0.5495
H11B H 0.8897 0.8278 0.6016
H12B H 0.8677 0.7268 0.6170
C20B C 0.7634(4) 0.8254(3) 0.7438(7)
H13B H 0.7183 0.8073 0.6760
H14B H 0.7363 0.8246 0.8269
H15B H 0.8125 0.8858 0.7262
C21? C 0.205(3) -0.031(2) 0.642(3)
H16? H 0.2121 -0.0817 0.6673
H17? H 0.1415 -0.0521 0.6263
H18? H 0.2387 -0.0047 0.5626
C22? C 0.190(2) -0.002(2) 0.874(2)
H19? H 0.1952 -0.0546 0.8955
H20? H 0.2165 0.0422 0.9427
H21? H 0.1269 -0.0201 0.8642
C23? C 0.231(3) 0.1187(16) 0.716(4)
H22? H 0.2539 0.1611 0.7874
H23? H 0.2650 0.1472 0.6381
H24? H 0.1678 0.0999 0.7017
loop_
_geom_bond_atom_site_label_1
_geom_bond_atom_site_label_2
_geom_bond_site_symmetry_1
_geom_bond_site_symmetry_2
F1 C11 1_555 1_555
C1 C2 1_555 1_555
C2 C15 1_555 1_555
C3 C1 1_555 1_555
C4 C3 1_555 1_555
H1 C4 1_555 1_555
C5 C4 1_555 1_555
C6 C5 1_555 1_555
H2 C6 1_555 1_555
C7 C6 1_555 1_555
C8 C7 1_555 1_555
C9 C8 1_555 1_555
H3 C9 1_555 1_555
C10 C9 1_555 1_555
H4 C10 1_555 1_555
C11 C10 1_555 1_555
C12 C11 1_555 1_555
H5 C12 1_555 1_555
C13 C8 1_555 1_555
C14 C13 1_555 1_555
H6 C14 1_555 1_555
C15 C14 1_555 1_555
C16 C3 1_555 1_555
C17 C5 1_555 1_555
C18 C17 1_555 1_555
H7 C18 1_555 1_555
H8 C18 1_555 1_555
H9 C18 1_555 1_555
C19 C17 1_555 1_555
H10 C19 1_555 1_555
H11 C19 1_555 1_555
H12 C19 1_555 1_555
C20 C17 1_555 1_555
H13 C20 1_555 1_555
H14 C20 1_555 1_555
H15 C20 1_555 1_555
F1A C11A 1_555 1_555
C1A C2 1_555 1_555
C2A C1A 1_555 1_555
C3A C1A 1_555 1_555
C4A C3A 1_555 1_555
H1A C4A 1_555 1_555
C5A C4A 1_555 1_555
C6A C5A 1_555 1_555
H2A C6A 1_555 1_555
C7A C6A 1_555 1_555
C8A C7A 1_555 1_555
C9A C8A 1_555 1_555
H3A C9A 1_555 1_555
C10A C9A 1_555 1_555
H4A C10A 1_555 1_555
C11A C10A 1_555 1_555
C12A C11A 1_555 1_555
H5A C12A 1_555 1_555
C13A C8A 1_555 1_555
C14A C13A 1_555 1_555
H6A C14A 1_555 1_555
C15A C2A 1_555 1_555
C16A C3A 1_555 1_555
C17A C5A 1_555 1_555
C18A C17A 1_555 1_555
H7A C18A 1_555 1_555
H8A C18A 1_555 1_555
H9A C18A 1_555 1_555
C19A C17A 1_555 1_555
H10A C19A 1_555 1_555
H11A C19A 1_555 1_555
H12A C19A 1_555 1_555
C20A C17A 1_555 1_555
H13A C20A 1_555 1_555
H14A C20A 1_555 1_555
H15A C20A 1_555 1_555
F1B C11B 1_555 1_555
C1B C2A 1_555 1_555
C2B C1 1_555 1_555
C3B C1B 1_555 1_555
C4B C3B 1_555 1_555
H1B C4B 1_555 1_555
C5B C4B 1_555 1_555
C6B C5B 1_555 1_555
H2B C6B 1_555 1_555
C7B C6B 1_555 1_555
C8B C7B 1_555 1_555
C9B C8B 1_555 1_555
H3B C9B 1_555 1_555
C10B C9B 1_555 1_555
H4B C10B 1_555 1_555
C11B C10B 1_555 1_555
C12B C11B 1_555 1_555
H5B C12B 1_555 1_555
C13B C8B 1_555 1_555
C14B C13B 1_555 1_555
H6B C14B 1_555 1_555
C15B C2B 1_555 1_555
C16B C3B 1_555 1_555
C17B C5B 1_555 1_555
C18B C17B 1_555 1_555
H7B C18B 1_555 1_555
H8B C18B 1_555 1_555
H9B C18B 1_555 1_555
C19B C17B 1_555 1_555
H10B C19B 1_555 1_555
H11B C19B 1_555 1_555
H12B C19B 1_555 1_555
C20B C17B 1_555 1_555
H13B C20B 1_555 1_555
H14B C20B 1_555 1_555
H15B C20B 1_555 1_555
C7 C16 1_555 1_555
C12 C13 1_555 1_555
C15 C16 1_555 1_555
C7A C16A 1_555 1_555
C12A C13A 1_555 1_555
C14A C15A 1_555 1_555
C15A C16A 1_555 1_555
C1B C2B 1_555 1_555
C7B C16B 1_555 1_555
C12B C13B 1_555 1_555
C14B C15B 1_555 1_555
C15B C16B 1_555 1_555

#END
