
#######################################################################
#
#                 Cambridge Crystallographic Data Centre
#                                CCDC 
#
#######################################################################
#
# If this CIF has been generated from an entry in the Cambridge 
# Structural Database, then it will include bibliographic, chemical, 
# crystal, experimental, refinement or atomic coordinate data resulting 
# from the CCDC's data processing and validation procedures.
#
#######################################################################

data_UJEDEU
_chemical_formula_moiety         'C37 H40 N4 O8'
_chemical_name_systematic        
2-((3-((2-Hydroxy-4-methoxybenzylidene)amino)-2,2-bis(((2-hydroxy-4-methoxybenzylidene)amino)methyl)propyl)carbonoimidoyl)-5-methoxyphenol
_symmetry_cell_setting           monoclinic
_symmetry_space_group_name_H-M   'C 2/c'
_symmetry_Int_Tables_number      15
_space_group_name_Hall           '-C 2yn'
loop_
_symmetry_equiv_pos_site_id
_symmetry_equiv_pos_as_xyz
1 x,y,z
2 -x,y,1/2-z
3 1/2+x,1/2+y,z
4 1/2-x,1/2+y,1/2-z
5 -x,-y,-z
6 x,-y,1/2+z
7 1/2-x,1/2-y,-z
8 1/2+x,1/2-y,1/2+z
_cell_length_a                   19.0115(13)
_cell_length_b                   10.3232(5)
_cell_length_c                   17.5956(9)
_cell_angle_alpha                90
_cell_angle_beta                 96.125(3)
_cell_angle_gamma                90
_cell_volume                     3433.59
_exptl_crystal_colour            colorless
_exptl_crystal_description       prism
_cell_formula_units_Z            4
loop_
_atom_site_label
_atom_site_type_symbol
_atom_site_fract_x
_atom_site_fract_y
_atom_site_fract_z
C1 C 1.18801(8) 0.77139(16) 1.08936(10)
H1 H 1.2025 0.8465 1.1192
H2 H 1.2242 0.7487 1.0576
H3 H 1.1805 0.7005 1.1229
C2 C 1.09432(7) 0.70288(13) 0.99590(8)
C3 C 1.12540(7) 0.58380(14) 0.98709(8)
H4 H 1.1695 0.5655 1.0130
C4 C 1.09081(7) 0.49133(13) 0.93945(8)
C5 C 1.02405(7) 0.51754(13) 0.90028(7)
C6 C 0.99442(8) 0.63942(14) 0.91095(9)
H5 H 0.9501 0.6585 0.8857
C7 C 1.02840(8) 0.73152(14) 0.95731(8)
H6 H 1.0077 0.8121 0.9629
C8 C 0.98522(7) 0.41908(14) 0.85443(7)
H7 H 0.9411 0.4405 0.8297
C9 C 0.96197(7) 0.21038(14) 0.80440(7)
H8 H 0.9236 0.2562 0.7751
H9 H 0.9414 0.1551 0.8408
C10 C 1.0000 0.12530(19) 0.7500
C11 C 0.94514(7) 0.04070(14) 0.70310(7)
H10 H 0.9114 0.0961 0.6734
H11 H 0.9688 -0.0116 0.6677
C12 C 0.88908(7) -0.15681(13) 0.72690(7)
H12 H 0.9034 -0.1851 0.6808
C13 C 0.84658(7) -0.24267(13) 0.76910(7)
C14 C 0.82607(7) -0.36565(14) 0.74140(8)
H13 H 0.8408 -0.3935 0.6954
C15 C 0.78490(8) -0.44638(14) 0.78001(8)
H14 H 0.7723 -0.5279 0.7606
C16 C 0.76206(7) -0.40460(12) 0.84893(8)
C17 C 0.78129(7) -0.28398(13) 0.87821(8)
H15 H 0.7660 -0.2567 0.9240
C18 C 0.82373(7) -0.20334(12) 0.83885(8)
C19 C 0.69409(8) -0.44824(15) 0.95340(9)
H16 H 0.6661 -0.5163 0.9720
H17 H 0.6653 -0.3725 0.9434
H18 H 0.7329 -0.4284 0.9911
N1 N 1.00848(6) 0.30453(11) 0.84620(6)
N2 N 0.90729(6) -0.04434(11) 0.75108(6)
O1 O 1.12386(5) 0.79877(9) 1.04243(6)
O2 O 1.12232(5) 0.37570(10) 0.93250(7)
H19 H 1.0969 0.3296 0.9032
O3 O 0.84223(6) -0.08763(9) 0.87000(6)
H20 H 0.8670 -0.0487 0.8422
O4 O 0.72089(5) -0.48931(9) 0.88434(6)
C1A C 0.81199(8) 0.77139(16) 0.41064(10)
H1A H 0.7975 0.8465 0.3808
H2A H 0.7758 0.7487 0.4424
H3A H 0.8195 0.7005 0.3771
C2A C 0.90568(7) 0.70288(13) 0.50410(8)
C3A C 0.87460(7) 0.58380(14) 0.51291(8)
H4A H 0.8305 0.5655 0.4870
C4A C 0.90919(7) 0.49133(13) 0.56055(8)
C5A C 0.97595(7) 0.51754(13) 0.59972(7)
C6A C 1.00558(8) 0.63942(14) 0.58905(9)
H5A H 1.0499 0.6585 0.6143
C7A C 0.97160(8) 0.73152(14) 0.54269(8)
H6A H 0.9923 0.8121 0.5371
C8A C 1.01478(7) 0.41908(14) 0.64557(7)
H7A H 1.0589 0.4405 0.6703
C9A C 1.03803(7) 0.21038(14) 0.69560(7)
H8A H 1.0764 0.2562 0.7249
H9A H 1.0586 0.1551 0.6592
C11A C 1.05486(7) 0.04070(14) 0.79690(7)
H10A H 1.0886 0.0961 0.8266
H11A H 1.0312 -0.0116 0.8323
C12A C 1.11092(7) -0.15681(13) 0.77310(7)
H12A H 1.0966 -0.1851 0.8192
C13A C 1.15342(7) -0.24267(13) 0.73090(7)
C14A C 1.17393(7) -0.36565(14) 0.75860(8)
H13A H 1.1592 -0.3935 0.8046
C15A C 1.21510(8) -0.44638(14) 0.71999(8)
H14A H 1.2277 -0.5279 0.7394
C16A C 1.23794(7) -0.40460(12) 0.65107(8)
C17A C 1.21871(7) -0.28398(13) 0.62179(8)
H15A H 1.2340 -0.2567 0.5760
C18A C 1.17627(7) -0.20334(12) 0.66115(8)
C19A C 1.30591(8) -0.44824(15) 0.54660(9)
H16A H 1.3339 -0.5163 0.5280
H17A H 1.3347 -0.3725 0.5566
H18A H 1.2671 -0.4284 0.5089
N1A N 0.99152(6) 0.30453(11) 0.65380(6)
N2A N 1.09271(6) -0.04434(11) 0.74892(6)
O1A O 0.87614(5) 0.79877(9) 0.45757(6)
O2A O 0.87768(5) 0.37570(10) 0.56750(7)
H19A H 0.9031 0.3296 0.5968
O3A O 1.15777(6) -0.08763(9) 0.63000(6)
H20A H 1.1330 -0.0487 0.6578
O4A O 1.27911(5) -0.48931(9) 0.61566(6)
loop_
_geom_bond_atom_site_label_1
_geom_bond_atom_site_label_2
_geom_bond_site_symmetry_1
_geom_bond_site_symmetry_2
C1 H1 1_555 1_555
H2 C1 1_555 1_555
H3 C1 1_555 1_555
C2 C3 1_555 1_555
C3 H4 1_555 1_555
C4 C3 1_555 1_555
C5 C4 1_555 1_555
C6 C5 1_555 1_555
H5 C6 1_555 1_555
C7 C2 1_555 1_555
H6 C7 1_555 1_555
C8 C5 1_555 1_555
H7 C8 1_555 1_555
C9 H8 1_555 1_555
H9 C9 1_555 1_555
C10 C9 1_555 1_555
C11 C10 1_555 1_555
H10 C11 1_555 1_555
H11 C11 1_555 1_555
C12 H12 1_555 1_555
C13 C12 1_555 1_555
C14 C13 1_555 1_555
H13 C14 1_555 1_555
C15 C14 1_555 1_555
H14 C15 1_555 1_555
C16 C15 1_555 1_555
C17 C16 1_555 1_555
H15 C17 1_555 1_555
C18 C13 1_555 1_555
C19 H16 1_555 1_555
H17 C19 1_555 1_555
H18 C19 1_555 1_555
N1 C8 1_555 1_555
N2 C11 1_555 1_555
O1 C1 1_555 1_555
O2 C4 1_555 1_555
H19 O2 1_555 1_555
O3 C18 1_555 1_555
H20 O3 1_555 1_555
O4 C16 1_555 1_555
C1A H1A 1_555 1_555
H2A C1A 1_555 1_555
H3A C1A 1_555 1_555
C2A C3A 1_555 1_555
C3A H4A 1_555 1_555
C4A C3A 1_555 1_555
C5A C4A 1_555 1_555
C6A C5A 1_555 1_555
H5A C6A 1_555 1_555
C7A C2A 1_555 1_555
H6A C7A 1_555 1_555
C8A C5A 1_555 1_555
H7A C8A 1_555 1_555
C9A C10 1_555 1_555
H8A C9A 1_555 1_555
H9A C9A 1_555 1_555
C11A C10 1_555 1_555
H10A C11A 1_555 1_555
H11A C11A 1_555 1_555
C12A H12A 1_555 1_555
C13A C12A 1_555 1_555
C14A C13A 1_555 1_555
H13A C14A 1_555 1_555
C15A C14A 1_555 1_555
H14A C15A 1_555 1_555
C16A C15A 1_555 1_555
C17A C16A 1_555 1_555
H15A C17A 1_555 1_555
C18A C13A 1_555 1_555
C19A H16A 1_555 1_555
H17A C19A 1_555 1_555
H18A C19A 1_555 1_555
N1A C8A 1_555 1_555
N2A C11A 1_555 1_555
O1A C1A 1_555 1_555
O2A C4A 1_555 1_555
H19A O2A 1_555 1_555
O3A C18A 1_555 1_555
H20A O3A 1_555 1_555
O4A C16A 1_555 1_555
C2 O1 1_555 1_555
C6 C7 1_555 1_555
C9 N1 1_555 1_555
C12 N2 1_555 1_555
C17 C18 1_555 1_555
C19 O4 1_555 1_555
C2A O1A 1_555 1_555
C6A C7A 1_555 1_555
C9A N1A 1_555 1_555
C12A N2A 1_555 1_555
C17A C18A 1_555 1_555
C19A O4A 1_555 1_555

#END
