
#######################################################################
#
#                 Cambridge Crystallographic Data Centre
#                                CCDC 
#
#######################################################################
#
# If this CIF has been generated from an entry in the Cambridge 
# Structural Database, then it will include bibliographic, chemical, 
# crystal, experimental, refinement or atomic coordinate data resulting 
# from the CCDC's data processing and validation procedures.
#
#######################################################################

data_UJEFIZ
_chemical_formula_moiety         'C2 H2 N6 O4,2(H2 O1)'
_chemical_name_systematic        
'5-(Dinitromethylene)-4,5-dihydro-1H-tetrazole dihydrate'
_symmetry_cell_setting           orthorhombic
_symmetry_space_group_name_H-M   'P n m a'
_symmetry_Int_Tables_number      62
_space_group_name_Hall           '-P 2ac 2n'
loop_
_symmetry_equiv_pos_site_id
_symmetry_equiv_pos_as_xyz
1 x,y,z
2 1/2-x,-y,1/2+z
3 -x,1/2+y,-z
4 1/2+x,1/2-y,1/2-z
5 -x,-y,-z
6 1/2+x,y,1/2-z
7 x,1/2-y,z
8 1/2-x,1/2+y,1/2+z
_cell_length_a                   10.392(2)
_cell_length_b                   15.809(4)
_cell_length_c                   5.0640(11)
_cell_angle_alpha                90
_cell_angle_beta                 90
_cell_angle_gamma                90
_cell_volume                     831.95
_cell_formula_units_Z            4
loop_
_atom_site_label
_atom_site_type_symbol
_atom_site_fract_x
_atom_site_fract_y
_atom_site_fract_z
N1 N 0.25708(13) 0.29046(8) 1.4056(2)
N2 N 0.33562(11) 0.31629(8) 1.2115(2)
H1 H 0.3513 0.3683 1.1739
N3 N 0.51490(13) 0.32686(9) 0.7596(3)
O1 O 0.58431(13) 0.33011(8) 0.5659(3)
O2 O 0.47812(12) 0.39236(8) 0.8732(3)
C1 C 0.38620(18) 0.2500 1.0845(4)
C2 C 0.47240(19) 0.2500 0.8665(4)
N1F N 0.25708(13) 0.20954(8) 1.4056(2)
N2F N 0.33562(11) 0.18371(8) 1.2115(2)
H1F H 0.3513 0.1317 1.1739
N3F N 0.51490(13) 0.17314(9) 0.7596(3)
O1F O 0.58431(13) 0.16989(8) 0.5659(3)
O2F O 0.47812(12) 0.10764(8) 0.8732(3)
O3 O 0.31567(13) 0.48680(8) 0.2321(3)
H2 H 0.2813(19) 0.4942(12) 0.378(3)
H3 H 0.3813(18) 0.5171(13) 0.229(4)
loop_
_geom_bond_atom_site_label_1
_geom_bond_atom_site_label_2
_geom_bond_site_symmetry_1
_geom_bond_site_symmetry_2
N1 N2 1_555 1_555
N2 H1 1_555 1_555
N3 O1 1_555 1_555
O2 N3 1_555 1_555
C1 N2 1_555 1_555
C2 N3 1_555 1_555
O3 H2 1_555 1_555
H3 O3 1_555 1_555
N1F N1 1_555 1_555
N2F C1 1_555 1_555
H1F N2F 1_555 1_555
N3F C2 1_555 1_555
O1F N3F 1_555 1_555
O2F N3F 1_555 1_555
C1 C2 1_555 1_555
N1F N2F 1_555 1_555

#END
