
#######################################################################
#
#                 Cambridge Crystallographic Data Centre
#                                CCDC 
#
#######################################################################
#
# If this CIF has been generated from an entry in the Cambridge 
# Structural Database, then it will include bibliographic, chemical, 
# crystal, experimental, refinement or atomic coordinate data resulting 
# from the CCDC's data processing and validation procedures.
#
#######################################################################

data_UJEGIZ
_chemical_formula_moiety         'C42 H54 O6'
_chemical_name_systematic        
"rac-11,11'-(2,2'-(1,1'-Binaphthyl)dioxy)bis(undecanoic acid)"
_symmetry_cell_setting           monoclinic
_symmetry_space_group_name_H-M   'P 21/c'
_symmetry_Int_Tables_number      14
_space_group_name_Hall           '-P 2ybc'
loop_
_symmetry_equiv_pos_site_id
_symmetry_equiv_pos_as_xyz
1 x,y,z
2 x,1/2-y,1/2+z
3 -x,-y,-z
4 -x,1/2+y,1/2-z
_cell_length_a                   15.539(3)
_cell_length_b                   17.754(4)
_cell_length_c                   13.718(3)
_cell_angle_alpha                90
_cell_angle_beta                 91.78(3)
_cell_angle_gamma                90
_cell_volume                     3782.69
_exptl_crystal_colour            colorless
_exptl_crystal_description       block
_chemical_melting_point          84-85deg.C
_cell_formula_units_Z            4
_exptl_crystal_recrystallization_method 'acetone/ethyl acetate'
loop_
_atom_site_label
_atom_site_type_symbol
_atom_site_fract_x
_atom_site_fract_y
_atom_site_fract_z
O1 O 1.17349(11) -0.16448(10) 0.61562(10)
O2 O 1.12069(15) -0.16528(12) 0.38216(13)
O3 O 1.33190(15) 0.41788(12) 0.81445(15)
O4 O 1.44052(13) 0.45492(12) 0.74008(13)
O5 O 1.54262(14) 0.43923(13) 1.12305(15)
O6 O 1.65029(17) 0.48036(14) 1.04813(16)
C1 C 1.18125(18) -0.26763(16) 0.46596(18)
C2 C 1.1838(2) -0.21629(18) 0.3908(2)
C3 C 1.2529(3) -0.2196(2) 0.3264(2)
H1 H 1.2553 -0.1856 0.2750
C4 C 1.3148(3) -0.2713(3) 0.3388(3)
H2 H 1.3597 -0.2719 0.2954
C5 C 1.3152(2) -0.3244(2) 0.4142(3)
C6 C 1.3804(3) -0.3797(3) 0.4307(3)
H3 H 1.4263 -0.3814 0.3889
C7 C 1.3782(3) -0.4294(3) 0.5042(4)
H4 H 1.4214 -0.4653 0.5124
C8 C 1.3101(3) -0.4265(2) 0.5681(2)
H5 H 1.3083 -0.4601 0.6201
C9 C 1.24664(19) -0.37472(19) 0.5545(2)
H6 H 1.2014 -0.3744 0.5973
C10 C 1.24610(19) -0.32229(18) 0.4795(2)
C11 C 1.10687(16) -0.26544(14) 0.53330(16)
C12 C 1.10553(17) -0.21301(14) 0.60759(17)
C13 C 1.03830(18) -0.21205(15) 0.67231(17)
H7 H 1.0385 -0.1773 0.7231
C14 C 0.97316(18) -0.26129(17) 0.66133(19)
H8 H 0.9286 -0.2595 0.7049
C15 C 0.96967(17) -0.31527(17) 0.5868(2)
C16 C 0.9012(2) -0.36765(19) 0.5740(2)
H9 H 0.8562 -0.3670 0.6172
C17 C 0.8999(2) -0.41849(19) 0.5004(3)
H10 H 0.8548 -0.4526 0.4939
C18 C 0.9660(2) -0.41958(18) 0.4350(2)
H11 H 0.9644 -0.4540 0.3839
C19 C 1.0333(2) -0.37064(16) 0.44469(18)
H12 H 1.0773 -0.3726 0.4003
C20 C 1.03775(17) -0.31660(15) 0.52122(18)
C21 C 1.17255(15) -0.10730(15) 0.68882(16)
H13 H 1.1712 -0.1302 0.7530
H14 H 1.1216 -0.0762 0.6798
C22 C 1.25122(15) -0.06039(14) 0.68103(15)
H15 H 1.2530 -0.0399 0.6155
H16 H 1.3015 -0.0922 0.6911
C23 C 1.25593(14) 0.00398(14) 0.75351(15)
H17 H 1.2077 0.0376 0.7405
H18 H 1.2501 -0.0162 0.8187
C24 C 1.33796(16) 0.04852(13) 0.75067(16)
H19 H 1.3860 0.0141 0.7599
H20 H 1.3421 0.0704 0.6862
C25 C 1.34751(15) 0.11046(14) 0.82443(16)
H21 H 1.2992 0.1446 0.8152
H22 H 1.3433 0.0884 0.8888
C26 C 1.42867(15) 0.15573(14) 0.82276(16)
H23 H 1.4321 0.1800 0.7596
H24 H 1.4775 0.1219 0.8302
C27 C 1.43530(17) 0.21506(13) 0.90105(16)
H25 H 1.3843 0.2465 0.8959
H26 H 1.4347 0.1901 0.9639
C28 C 1.51291(16) 0.26534(14) 0.89971(17)
H27 H 1.5137 0.2919 0.8380
H28 H 1.5647 0.2349 0.9056
C29 C 1.51214(18) 0.32281(17) 0.98377(18)
H29 H 1.4582 0.3503 0.9809
H30 H 1.5158 0.2962 1.0455
C30 C 1.58389(17) 0.37628(17) 0.97892(17)
H31 H 1.5802 0.4015 0.9162
H32 H 1.6373 0.3480 0.9816
C31 C 1.5883(2) 0.43511(18) 1.0572(2)
C32 C 1.1180(3) -0.11260(19) 0.3036(2)
H33 H 1.1767 -0.0981 0.2907
H34 H 1.0954 -0.1385 0.2460
C33 C 1.0772(4) -0.0565(2) 0.3130(3)
H35 H 1.0183 -0.0698 0.2949
H36 H 1.0963 -0.0224 0.2628
C34 C 1.0717(4) -0.0100(2) 0.4029(4)
H37 H 1.0126 0.0066 0.4088
H38 H 1.0856 -0.0417 0.4588
C35 C 1.1208(3) 0.0480(3) 0.4067(3)
H39 H 1.1068 0.0789 0.3501
H40 H 1.1796 0.0308 0.4004
C36 C 1.1183(2) 0.1004(2) 0.4997(2)
H41 H 1.0649 0.1287 0.4979
H42 H 1.1191 0.0691 0.5578
C37 C 1.1891(2) 0.1519(2) 0.5061(2)
H43 H 1.1887 0.1815 0.4466
H44 H 1.2419 0.1228 0.5082
C38 C 1.19178(18) 0.20633(17) 0.5925(2)
H45 H 1.1409 0.2380 0.5893
H46 H 1.1907 0.1777 0.6527
C39 C 1.2699(2) 0.25486(17) 0.5940(2)
H47 H 1.3200 0.2222 0.5961
H48 H 1.2705 0.2822 0.5328
C40 C 1.27986(18) 0.31015(15) 0.67439(19)
H49 H 1.2803 0.2836 0.7362
H50 H 1.2307 0.3439 0.6726
C41 C 1.36262(18) 0.35664(16) 0.66805(18)
H51 H 1.4113 0.3224 0.6692
H52 H 1.3618 0.3825 0.6057
C42 C 1.3766(2) 0.41276(17) 0.7457(2)
H53 H 1.4571 0.5020 0.7905
H54 H 1.6573 0.5245 1.0991
loop_
_geom_bond_atom_site_label_1
_geom_bond_atom_site_label_2
_geom_bond_site_symmetry_1
_geom_bond_site_symmetry_2
O1 C12 1_555 1_555
O2 C2 1_555 1_555
O3 C42 1_555 1_555
O4 C42 1_555 1_555
O5 C31 1_555 1_555
O6 C31 1_555 1_555
C1 C2 1_555 1_555
C2 C3 1_555 1_555
C3 H1 1_555 1_555
C4 C3 1_555 1_555
H2 C4 1_555 1_555
C5 C4 1_555 1_555
C6 C5 1_555 1_555
H3 C6 1_555 1_555
C7 C6 1_555 1_555
H4 C7 1_555 1_555
C8 C7 1_555 1_555
H5 C8 1_555 1_555
C9 C8 1_555 1_555
H6 C9 1_555 1_555
C10 C1 1_555 1_555
C11 C1 1_555 1_555
C12 C11 1_555 1_555
C13 C12 1_555 1_555
H7 C13 1_555 1_555
C14 C13 1_555 1_555
H8 C14 1_555 1_555
C15 C14 1_555 1_555
C16 C15 1_555 1_555
H9 C16 1_555 1_555
C17 C16 1_555 1_555
H10 C17 1_555 1_555
C18 C17 1_555 1_555
H11 C18 1_555 1_555
C19 C18 1_555 1_555
H12 C19 1_555 1_555
C20 C11 1_555 1_555
C21 O1 1_555 1_555
H13 C21 1_555 1_555
H14 C21 1_555 1_555
C22 C21 1_555 1_555
H15 C22 1_555 1_555
H16 C22 1_555 1_555
C23 C22 1_555 1_555
H17 C23 1_555 1_555
H18 C23 1_555 1_555
C24 C23 1_555 1_555
H19 C24 1_555 1_555
H20 C24 1_555 1_555
C25 C24 1_555 1_555
H21 C25 1_555 1_555
H22 C25 1_555 1_555
C26 C25 1_555 1_555
H23 C26 1_555 1_555
H24 C26 1_555 1_555
C27 C26 1_555 1_555
H25 C27 1_555 1_555
H26 C27 1_555 1_555
C28 C27 1_555 1_555
H27 C28 1_555 1_555
H28 C28 1_555 1_555
C29 C28 1_555 1_555
H29 C29 1_555 1_555
H30 C29 1_555 1_555
C30 C29 1_555 1_555
H31 C30 1_555 1_555
H32 C30 1_555 1_555
C31 C30 1_555 1_555
C32 O2 1_555 1_555
H33 C32 1_555 1_555
H34 C32 1_555 1_555
C33 C32 1_555 1_555
H35 C33 1_555 1_555
H36 C33 1_555 1_555
C34 C33 1_555 1_555
H37 C34 1_555 1_555
H38 C34 1_555 1_555
C35 C34 1_555 1_555
H39 C35 1_555 1_555
H40 C35 1_555 1_555
C36 C35 1_555 1_555
H41 C36 1_555 1_555
H42 C36 1_555 1_555
C37 C36 1_555 1_555
H43 C37 1_555 1_555
H44 C37 1_555 1_555
C38 C37 1_555 1_555
H45 C38 1_555 1_555
H46 C38 1_555 1_555
C39 C38 1_555 1_555
H47 C39 1_555 1_555
H48 C39 1_555 1_555
C40 C39 1_555 1_555
H49 C40 1_555 1_555
H50 C40 1_555 1_555
C41 C40 1_555 1_555
H51 C41 1_555 1_555
H52 C41 1_555 1_555
C42 C41 1_555 1_555
H53 O4 1_555 1_555
H54 O6 1_555 1_555
C5 C10 1_555 1_555
C9 C10 1_555 1_555
C15 C20 1_555 1_555
C19 C20 1_555 1_555

#END
