
#######################################################################
#
#                 Cambridge Crystallographic Data Centre
#                                CCDC 
#
#######################################################################
#
# If this CIF has been generated from an entry in the Cambridge 
# Structural Database, then it will include bibliographic, chemical, 
# crystal, experimental, refinement or atomic coordinate data resulting 
# from the CCDC's data processing and validation procedures.
#
#######################################################################

data_UJENUU
_chemical_formula_moiety         'C14 H18 B1 Cl1 N4 O2'
_chemical_name_systematic        
1-(4-Chloro-3-(4,4,5,5-tetramethyl-1,3,2-dioxaborolan-2-yl)benzyl)-1H-tetrazole
_symmetry_cell_setting           monoclinic
_symmetry_space_group_name_H-M   'P 21/c'
_symmetry_Int_Tables_number      14
_space_group_name_Hall           '-P 2ybc'
loop_
_symmetry_equiv_pos_site_id
_symmetry_equiv_pos_as_xyz
1 x,y,z
2 -x,1/2+y,1/2-z
3 -x,-y,-z
4 x,1/2-y,1/2+z
_cell_length_a                   15.8491(11)
_cell_length_b                   10.2222(8)
_cell_length_c                   10.1374(8)
_cell_angle_alpha                90
_cell_angle_beta                 101.018(3)
_cell_angle_gamma                90
_cell_volume                     1612.11
_exptl_crystal_colour            colorless
_exptl_crystal_description       prism
_cell_formula_units_Z            4
loop_
_atom_site_label
_atom_site_type_symbol
_atom_site_fract_x
_atom_site_fract_y
_atom_site_fract_z
C1 C 0.1603(2) 0.4078(4) 0.5630(4)
C2 C 0.1131(4) 0.2845(6) 0.5860(5)
H1 H 0.0512 0.3023 0.5717
H2 H 0.1331 0.2541 0.6784
H3 H 0.1241 0.2168 0.5230
C3 C 0.1318(4) 0.5171(5) 0.6489(5)
H4 H 0.0689 0.5206 0.6330
H5 H 0.1542 0.6011 0.6244
H6 H 0.1541 0.4992 0.7442
C4 C 0.2586(3) 0.3969(4) 0.5822(4)
C5 C 0.2893(5) 0.2620(6) 0.5512(8)
H7 H 0.2561 0.2317 0.4650
H8 H 0.2812 0.2011 0.6225
H9 H 0.3503 0.2658 0.5461
C6 C 0.3088(4) 0.4458(8) 0.7124(5)
H10 H 0.2878 0.5327 0.7313
H11 H 0.3697 0.4515 0.7069
H12 H 0.3018 0.3855 0.7847
C7 C 0.2090(2) 0.5576(3) 0.2433(3)
C8 C 0.1394(2) 0.5977(4) 0.1464(3)
C9 C 0.1491(2) 0.6478(4) 0.0236(3)
H13 H 0.1000 0.6735 -0.0405
C10 C 0.2295(2) 0.6603(3) -0.0054(3)
H14 H 0.2361 0.6954 -0.0896
C11 C 0.3018(2) 0.6221(3) 0.0875(3)
C12 C 0.2903(2) 0.5711(3) 0.2092(3)
H15 H 0.3395 0.5440 0.2724
C13 C 0.3909(2) 0.6318(3) 0.0555(3)
H16 H 0.4237 0.5519 0.0879
H17 H 0.3862 0.6362 -0.0432
C14 C 0.4705(2) 0.8480(3) 0.0621(3)
H18 H 0.4660 0.8618 -0.0317
B1 B 0.2051(2) 0.4944(4) 0.3818(4)
N1 N 0.43801(16) 0.7469(2) 0.1172(2)
N2 N 0.4563(2) 0.7626(3) 0.2512(3)
N3 N 0.49992(19) 0.8698(3) 0.2738(3)
N4 N 0.50993(19) 0.9263(3) 0.1570(3)
O1 O 0.13574(17) 0.4468(3) 0.4237(3)
O2 O 0.27809(16) 0.4836(3) 0.4775(2)
Cl1 Cl 0.03569(7) 0.58663(15) 0.17790(12)
loop_
_geom_bond_atom_site_label_1
_geom_bond_atom_site_label_2
_geom_bond_site_symmetry_1
_geom_bond_site_symmetry_2
C1 C2 1_555 1_555
C2 H1 1_555 1_555
H2 C2 1_555 1_555
H3 C2 1_555 1_555
C3 C1 1_555 1_555
H4 C3 1_555 1_555
H5 C3 1_555 1_555
H6 C3 1_555 1_555
C4 C1 1_555 1_555
C5 C4 1_555 1_555
H7 C5 1_555 1_555
H8 C5 1_555 1_555
H9 C5 1_555 1_555
C6 C4 1_555 1_555
H10 C6 1_555 1_555
H11 C6 1_555 1_555
H12 C6 1_555 1_555
C7 C8 1_555 1_555
C8 C9 1_555 1_555
C9 H13 1_555 1_555
C10 C9 1_555 1_555
H14 C10 1_555 1_555
C11 C10 1_555 1_555
C12 C7 1_555 1_555
H15 C12 1_555 1_555
C13 C11 1_555 1_555
H16 C13 1_555 1_555
H17 C13 1_555 1_555
C14 H18 1_555 1_555
B1 C7 1_555 1_555
N1 C13 1_555 1_555
N2 N1 1_555 1_555
N3 N2 1_555 1_555
N4 C14 1_555 1_555
O1 C1 1_555 1_555
O2 C4 1_555 1_555
Cl1 C8 1_555 1_555
C11 C12 1_555 1_555
C14 N1 1_555 1_555
B1 O1 1_555 1_555
B1 O2 1_555 1_555
N3 N4 1_555 1_555

#END
