
#######################################################################
#
#                 Cambridge Crystallographic Data Centre
#                                CCDC 
#
#######################################################################
#
# If this CIF has been generated from an entry in the Cambridge 
# Structural Database, then it will include bibliographic, chemical, 
# crystal, experimental, refinement or atomic coordinate data resulting 
# from the CCDC's data processing and validation procedures.
#
#######################################################################

data_UJEPAA
_chemical_formula_moiety         'C24 H24 N12'
_chemical_name_systematic        
'Pyrimidine-4,6-dicarboxaldehyde methyl(6-(1-methyl-2-(2-pyridylmethylene)hydrazino)pyrimidin-4-yl)hydrazone methyl(2-pyridyl)hydrazone'
_symmetry_cell_setting           triclinic
_symmetry_space_group_name_H-M   'P -1'
_symmetry_Int_Tables_number      2
_space_group_name_Hall           '-P 1'
loop_
_symmetry_equiv_pos_site_id
_symmetry_equiv_pos_as_xyz
1 x,y,z
2 -x,-y,-z
_cell_length_a                   10.7540(3)
_cell_length_b                   11.5938(4)
_cell_length_c                   11.7085(3)
_cell_angle_alpha                112.259(5)
_cell_angle_beta                 101.617(5)
_cell_angle_gamma                110.669(5)
_cell_volume                     1165.6
_exptl_crystal_colour            yellow
_exptl_crystal_description       prism
_chemical_melting_point          262-264deg.C
_cell_formula_units_Z            2
_exptl_crystal_recrystallization_method 
dichloromethane/chloroform/acetonitrile
loop_
_atom_site_label
_atom_site_type_symbol
_atom_site_fract_x
_atom_site_fract_y
_atom_site_fract_z
C1 C -0.0062(2) -0.0563(2) -0.2883(2)
N1 N -0.0491(2) -0.1637(2) -0.4115(2)
C2 C -0.1392(2) -0.2924(2) -0.4365(2)
C3 C -0.1865(2) -0.3212(2) -0.3457(2)
C4 C -0.1408(2) -0.2121(2) -0.2198(2)
C5 C -0.0501(2) -0.0764(2) -0.1894(2)
C6 C 0.0941(2) 0.0840(2) -0.2616(2)
N2 N 0.1187(2) 0.1936(1) -0.1571(1)
N3 N 0.2163(2) 0.3245(2) -0.1298(1)
C7 C 0.3133(2) 0.3401(2) -0.2000(2)
C8 C 0.2178(2) 0.4394(2) -0.0309(2)
N4 N 0.3091(2) 0.5674(2) -0.0085(1)
C9 C 0.3051(2) 0.6761(2) 0.0844(2)
N5 N 0.2244(2) 0.6729(1) 0.1568(1)
C10 C 0.1369(2) 0.5432(2) 0.1329(2)
C11 C 0.1279(2) 0.4207(2) 0.0377(2)
N6 N 0.0555(2) 0.5382(1) 0.2116(1)
C12 C 0.0729(2) 0.6646(2) 0.3200(2)
N7 N -0.0352(1) 0.4067(1) 0.1854(1)
C13 C -0.0981(2) 0.3928(2) 0.2651(2)
C14 C -0.1935(2) 0.2508(2) 0.2356(2)
N8 N -0.2289(2) 0.2405(1) 0.3376(1)
C15 C -0.3108(2) 0.1111(2) 0.3126(2)
N9 N -0.3665(1) -0.0107(1) 0.1987(1)
C16 C -0.3348(2) 0.0010(2) 0.0960(2)
C17 C -0.2460(2) 0.1329(2) 0.1122(2)
C18 C -0.3995(2) -0.1294(2) -0.0305(2)
N10 N -0.3894(1) -0.1183(1) -0.1344(1)
N11 N -0.4481(2) -0.2334(1) -0.2554(1)
C19 C -0.5209(2) -0.3761(2) -0.2749(2)
C20 C -0.4438(2) -0.2077(2) -0.3622(2)
C21 C -0.3643(2) -0.0694(2) -0.3385(2)
C22 C -0.3679(2) -0.0505(2) -0.4472(2)
C23 C -0.4482(2) -0.1660(2) -0.5764(2)
C24 C -0.5200(2) -0.2958(2) -0.5885(2)
N12 N -0.5193(2) -0.3192(1) -0.4845(1)
H1 H -0.1728 -0.3694 -0.5236
H2 H -0.2500 -0.4154 -0.3696
H3 H -0.1710 -0.2293 -0.1544
H4 H -0.0182 0.0016 -0.1033
H5 H 0.1402 0.0934 -0.3211
H6 H 0.3727 0.4378 -0.1682
H7 H 0.3720 0.2983 -0.1844
H8 H 0.2585 0.2944 -0.2933
H9 H 0.3679 0.7674 0.1006
H10 H 0.0639 0.3295 0.0206
H11 H 0.0081 0.6389 0.3610
H12 H 0.1691 0.7167 0.3843
H13 H 0.0531 0.7213 0.2858
H14 H -0.0828 0.4735 0.3417
H15 H -0.3330 0.1035 0.3848
H16 H -0.2226 0.1409 0.0406
H17 H -0.4473 -0.2191 -0.0366
H18 H -0.5551 -0.4431 -0.3668
H19 H -0.4551 -0.3915 -0.2228
H20 H -0.5998 -0.3865 -0.2477
H21 H -0.3100 0.0081 -0.2500
H22 H -0.3156 0.0416 -0.4348
H23 H -0.4527 -0.1545 -0.6530
H24 H -0.5740 -0.3749 -0.6761
loop_
_geom_bond_atom_site_label_1
_geom_bond_atom_site_label_2
_geom_bond_site_symmetry_1
_geom_bond_site_symmetry_2
C1 N1 1_555 1_555
N1 C2 1_555 1_555
C2 C3 1_555 1_555
C3 C4 1_555 1_555
C4 C5 1_555 1_555
C5 C1 1_555 1_555
C6 C1 1_555 1_555
N2 C6 1_555 1_555
N3 N2 1_555 1_555
C7 N3 1_555 1_555
C8 N3 1_555 1_555
N4 C8 1_555 1_555
C9 N4 1_555 1_555
N5 C9 1_555 1_555
C10 N5 1_555 1_555
C11 C8 1_555 1_555
N6 C10 1_555 1_555
C12 N6 1_555 1_555
N7 N6 1_555 1_555
C13 N7 1_555 1_555
C14 C13 1_555 1_555
N8 C14 1_555 1_555
C15 N8 1_555 1_555
N9 C15 1_555 1_555
C16 N9 1_555 1_555
C17 C14 1_555 1_555
C18 C16 1_555 1_555
N10 C18 1_555 1_555
N11 N10 1_555 1_555
C19 N11 1_555 1_555
C20 N11 1_555 1_555
C21 C20 1_555 1_555
C22 C21 1_555 1_555
C23 C22 1_555 1_555
C24 C23 1_555 1_555
N12 C20 1_555 1_555
H1 C2 1_555 1_555
H2 C3 1_555 1_555
H3 C4 1_555 1_555
H4 C5 1_555 1_555
H5 C6 1_555 1_555
H6 C7 1_555 1_555
H7 C7 1_555 1_555
H8 C7 1_555 1_555
H9 C9 1_555 1_555
H10 C11 1_555 1_555
H11 C12 1_555 1_555
H12 C12 1_555 1_555
H13 C12 1_555 1_555
H14 C13 1_555 1_555
H15 C15 1_555 1_555
H16 C17 1_555 1_555
H17 C18 1_555 1_555
H18 C19 1_555 1_555
H19 C19 1_555 1_555
H20 C19 1_555 1_555
H21 C21 1_555 1_555
H22 C22 1_555 1_555
H23 C23 1_555 1_555
H24 C24 1_555 1_555
C10 C11 1_555 1_555
C16 C17 1_555 1_555
C24 N12 1_555 1_555

#END
