
#######################################################################
#
#                 Cambridge Crystallographic Data Centre
#                                CCDC 
#
#######################################################################
#
# If this CIF has been generated from an entry in the Cambridge 
# Structural Database, then it will include bibliographic, chemical, 
# crystal, experimental, refinement or atomic coordinate data resulting 
# from the CCDC's data processing and validation procedures.
#
#######################################################################

data_UJEPOO
_chemical_formula_moiety         'C42 H42 N24,C1 H2 Cl2'
_chemical_name_systematic        
"Pyrimidine-4,6-dicarboxaldehyde 4,4'-bis(methyl(6-(1-methyl-2-(2-pyridylmethylene)hydrazino)pyrimidin-4-yl)hydrazone) 6,6'-((pyrimidine-4,6-diyl)bis(methylhydrazone)) dichloromethane solvate"
_symmetry_cell_setting           monoclinic
_symmetry_space_group_name_H-M   'C 2/c'
_symmetry_Int_Tables_number      15
_space_group_name_Hall           '-C 2yn'
loop_
_symmetry_equiv_pos_site_id
_symmetry_equiv_pos_as_xyz
1 x,y,z
2 x,-y,1/2+z
3 1/2+x,1/2+y,z
4 1/2+x,1/2-y,1/2+z
5 -x,-y,-z
6 -x,y,1/2-z
7 1/2-x,1/2-y,-z
8 1/2-x,1/2+y,1/2-z
_cell_length_a                   20.5729(6)
_cell_length_b                   16.6524(6)
_cell_length_c                   14.7563(5)
_cell_angle_alpha                90
_cell_angle_beta                 106.062(5)
_cell_angle_gamma                90
_cell_volume                     4857.99
_exptl_crystal_colour            yellow
_exptl_crystal_description       prism
_chemical_melting_point          'above 350deg.C(dec.)'
_cell_formula_units_Z            4
_exptl_crystal_recrystallization_method chloroform/methanol
loop_
_atom_site_label
_atom_site_type_symbol
_atom_site_fract_x
_atom_site_fract_y
_atom_site_fract_z
N1 N -0.1285(4) -0.4112(4) 0.5352(5)
C1 C -0.0883(6) -0.4435(6) 0.4877(7)
C2 C -0.0493(5) -0.3993(6) 0.4456(7)
C3 C -0.0480(5) -0.3155(6) 0.4548(7)
C4 C -0.0871(4) -0.2816(5) 0.5054(6)
C5 C -0.1278(4) -0.3296(5) 0.5434(6)
C6 C -0.1737(4) -0.2988(5) 0.5937(6)
N2 N -0.1768(3) -0.2239(4) 0.6064(4)
N3 N -0.2218(3) -0.1954(4) 0.6505(5)
C7 C -0.2694(5) -0.2465(6) 0.6785(7)
C8 C -0.2205(4) -0.1125(5) 0.6656(5)
N4 N -0.2711(3) -0.0820(5) 0.6983(5)
C9 C -0.2698(4) -0.0021(6) 0.7089(6)
N5 N -0.2251(3) 0.0491(4) 0.6936(5)
C10 C -0.1738(4) 0.0171(5) 0.6664(5)
C11 C -0.1702(4) -0.0645(5) 0.6495(5)
N6 N -0.1238(3) 0.0697(4) 0.6562(4)
C12 C -0.1297(5) 0.1568(5) 0.6648(7)
N7 N -0.0694(3) 0.0357(4) 0.6406(4)
C13 C -0.0201(4) 0.0787(5) 0.6290(5)
C14 C 0.0380(4) 0.0373(5) 0.6153(5)
N8 N 0.0852(4) 0.0828(4) 0.5920(5)
C15 C 0.1382(4) 0.0428(6) 0.5771(6)
N9 N 0.1494(3) -0.0359(4) 0.5833(4)
C16 C 0.1015(4) -0.0802(5) 0.6077(5)
C17 C 0.0454(4) -0.0451(5) 0.6240(5)
C18 C 0.1128(4) -0.1670(5) 0.6143(5)
N10 N 0.0755(3) -0.2087(4) 0.6533(4)
N11 N 0.0807(3) -0.2894(4) 0.6597(4)
C19 C 0.1217(4) -0.3322(5) 0.6096(6)
C20 C 0.0394(4) -0.3263(4) 0.7066(5)
N12 N 0.0408(4) -0.4080(4) 0.7062(5)
C21 C 0.0000 -0.4420(7) 0.7500
C22 C 0.0000 -0.2840(6) 0.7500
H1 H -0.0869 -0.5003 0.4831
H2 H -0.0231 -0.4250 0.4101
H3 H -0.0207 -0.2833 0.4268
H4 H -0.0865 -0.2251 0.5146
H5 H -0.2013 -0.3345 0.6170
H6 H -0.2962 -0.2150 0.7082
H7 H -0.2978 -0.2721 0.6245
H8 H -0.2456 -0.2860 0.7215
H9 H -0.3054 0.0204 0.7300
H10 H -0.1345 -0.0863 0.6277
H11 H -0.1720 0.1693 0.6757
H12 H -0.0941 0.1758 0.7161
H13 H -0.1269 0.1820 0.6082
H14 H -0.0221 0.1357 0.6293
H15 H 0.1714 0.0745 0.5603
H16 H 0.0123 -0.0769 0.6410
H17 H 0.1464 -0.1916 0.5907
H18 H 0.1201 -0.3881 0.6213
H19 H 0.1046 -0.3224 0.5438
H20 H 0.1672 -0.3140 0.6308
H21 H 0.0000 -0.4991 0.7500
H22 H 0.0000 -0.2269 0.7500
N12E N -0.0408(4) -0.4080(4) 0.7938(5)
C20E C -0.0394(4) -0.3263(4) 0.7934(5)
N11E N -0.0807(3) -0.2894(4) 0.8403(4)
N10E N -0.0755(3) -0.2087(4) 0.8467(4)
C18E C -0.1128(4) -0.1670(5) 0.8857(5)
C16E C -0.1015(4) -0.0802(5) 0.8923(5)
N9E N -0.1494(3) -0.0359(4) 0.9167(4)
C15E C -0.1382(4) 0.0428(6) 0.9229(6)
N8E N -0.0852(4) 0.0828(4) 0.9080(5)
C14E C -0.0380(4) 0.0373(5) 0.8847(5)
C13E C 0.0201(4) 0.0787(5) 0.8710(5)
N7E N 0.0694(3) 0.0357(4) 0.8594(4)
N6E N 0.1238(3) 0.0697(4) 0.8438(4)
C10E C 0.1738(4) 0.0171(5) 0.8336(5)
N5E N 0.2251(3) 0.0491(4) 0.8064(5)
C9E C 0.2698(4) -0.0021(6) 0.7911(6)
N4E N 0.2711(3) -0.0820(5) 0.8017(5)
C8E C 0.2205(4) -0.1125(5) 0.8344(5)
N3E N 0.2218(3) -0.1954(4) 0.8495(5)
N2E N 0.1768(3) -0.2239(4) 0.8936(4)
C6E C 0.1737(4) -0.2988(5) 0.9063(6)
C5E C 0.1278(4) -0.3296(5) 0.9566(6)
N1E N 0.1285(4) -0.4112(4) 0.9648(5)
C1E C 0.0883(6) -0.4435(6) 1.0123(7)
C2E C 0.0493(5) -0.3993(6) 1.0544(7)
C3E C 0.0480(5) -0.3155(6) 1.0452(7)
C4E C 0.0871(4) -0.2816(5) 0.9946(6)
H4E H 0.0865 -0.2251 0.9854
H3E H 0.0207 -0.2833 1.0732
H2E H 0.0231 -0.4250 1.0899
H1E H 0.0869 -0.5003 1.0169
H5E H 0.2013 -0.3345 0.8830
C7E C 0.2694(5) -0.2465(6) 0.8215(7)
H6E H 0.2962 -0.2150 0.7918
H7E H 0.2978 -0.2721 0.8755
H8E H 0.2456 -0.2860 0.7785
C11E C 0.1702(4) -0.0645(5) 0.8505(5)
H10E H 0.1345 -0.0863 0.8723
H9E H 0.3054 0.0204 0.7700
C12E C 0.1297(5) 0.1568(5) 0.8352(7)
H11E H 0.1720 0.1693 0.8243
H12E H 0.0941 0.1758 0.7839
H13E H 0.1269 0.1820 0.8918
H14E H 0.0221 0.1357 0.8707
C17E C -0.0454(4) -0.0451(5) 0.8760(5)
H16E H -0.0123 -0.0769 0.8590
H15E H -0.1714 0.0745 0.9397
H17E H -0.1464 -0.1916 0.9093
C19E C -0.1217(4) -0.3322(5) 0.8904(6)
H18E H -0.1201 -0.3881 0.8787
H19E H -0.1046 -0.3224 0.9562
H20E H -0.1672 -0.3140 0.8692
C23 C 0.1902(8) -0.4052(9) 0.413(1)
Cl1 Cl 0.2283(3) -0.3223(5) 0.4684(4)
Cl2 Cl 0.1041(3) -0.3699(3) 0.3383(4)
loop_
_geom_bond_atom_site_label_1
_geom_bond_atom_site_label_2
_geom_bond_site_symmetry_1
_geom_bond_site_symmetry_2
N1 C1 1_555 1_555
C1 C2 1_555 1_555
C2 C3 1_555 1_555
C3 C4 1_555 1_555
C4 C5 1_555 1_555
C5 N1 1_555 1_555
C6 C5 1_555 1_555
N2 C6 1_555 1_555
N3 N2 1_555 1_555
C7 N3 1_555 1_555
C8 N3 1_555 1_555
N4 C8 1_555 1_555
C9 N4 1_555 1_555
N5 C9 1_555 1_555
C10 N5 1_555 1_555
C11 C8 1_555 1_555
N6 C10 1_555 1_555
C12 N6 1_555 1_555
N7 N6 1_555 1_555
C13 N7 1_555 1_555
C14 C13 1_555 1_555
N8 C14 1_555 1_555
C15 N8 1_555 1_555
N9 C15 1_555 1_555
C16 N9 1_555 1_555
C17 C14 1_555 1_555
C18 C16 1_555 1_555
N10 C18 1_555 1_555
N11 N10 1_555 1_555
C19 N11 1_555 1_555
C20 N11 1_555 1_555
N12 C20 1_555 1_555
C21 N12 1_555 1_555
C22 C20 1_555 1_555
C23 Cl1 1_555 1_555
Cl2 C23 1_555 1_555
H1 C1 1_555 1_555
H2 C2 1_555 1_555
H3 C3 1_555 1_555
H4 C4 1_555 1_555
H5 C6 1_555 1_555
H6 C7 1_555 1_555
H7 C7 1_555 1_555
H8 C7 1_555 1_555
H9 C9 1_555 1_555
H10 C11 1_555 1_555
H11 C12 1_555 1_555
H12 C12 1_555 1_555
H13 C12 1_555 1_555
H14 C13 1_555 1_555
H15 C15 1_555 1_555
H16 C17 1_555 1_555
H17 C18 1_555 1_555
H18 C19 1_555 1_555
H19 C19 1_555 1_555
H20 C19 1_555 1_555
H21 C21 1_555 1_555
H22 C22 1_555 1_555
N12E C21 1_555 1_555
C20E C22 1_555 1_555
N11E C20E 1_555 1_555
N10E N11E 1_555 1_555
C18E N10E 1_555 1_555
C16E C18E 1_555 1_555
N9E C16E 1_555 1_555
C15E N9E 1_555 1_555
N8E C15E 1_555 1_555
C14E N8E 1_555 1_555
C13E C14E 1_555 1_555
N7E C13E 1_555 1_555
N6E N7E 1_555 1_555
C10E N6E 1_555 1_555
N5E C10E 1_555 1_555
C9E N5E 1_555 1_555
N4E C9E 1_555 1_555
C8E N4E 1_555 1_555
N3E C8E 1_555 1_555
N2E N3E 1_555 1_555
C6E N2E 1_555 1_555
C5E C6E 1_555 1_555
N1E C5E 1_555 1_555
C1E N1E 1_555 1_555
C2E C1E 1_555 1_555
C3E C2E 1_555 1_555
C4E C5E 1_555 1_555
H4E C4E 1_555 1_555
H3E C3E 1_555 1_555
H2E C2E 1_555 1_555
H1E C1E 1_555 1_555
H5E C6E 1_555 1_555
C7E N3E 1_555 1_555
H6E C7E 1_555 1_555
H7E C7E 1_555 1_555
H8E C7E 1_555 1_555
C11E C10E 1_555 1_555
H10E C11E 1_555 1_555
H9E C9E 1_555 1_555
C12E N6E 1_555 1_555
H11E C12E 1_555 1_555
H12E C12E 1_555 1_555
H13E C12E 1_555 1_555
H14E C13E 1_555 1_555
C17E C16E 1_555 1_555
H16E C17E 1_555 1_555
H15E C15E 1_555 1_555
H17E C18E 1_555 1_555
C19E N11E 1_555 1_555
H18E C19E 1_555 1_555
H19E C19E 1_555 1_555
H20E C19E 1_555 1_555
C10 C11 1_555 1_555
C16 C17 1_555 1_555
N12E C20E 1_555 1_555
C14E C17E 1_555 1_555
C8E C11E 1_555 1_555
C3E C4E 1_555 1_555

#END
