
#######################################################################
#
#                 Cambridge Crystallographic Data Centre
#                                CCDC 
#
#######################################################################
#
# If this CIF has been generated from an entry in the Cambridge 
# Structural Database, then it will include bibliographic, chemical, 
# crystal, experimental, refinement or atomic coordinate data resulting 
# from the CCDC's data processing and validation procedures.
#
#######################################################################

data_UJEPEG
_chemical_formula_moiety         'C13 H16 B1 N1 O2'
_chemical_name_systematic        
2-(4-Isocyanophenyl)-4,4,5,5-tetramethyl-1,3,2-dioxaborolane
_symmetry_cell_setting           monoclinic
_symmetry_space_group_name_H-M   'C 2/c'
_symmetry_Int_Tables_number      15
_space_group_name_Hall           '-C 2yn'
loop_
_symmetry_equiv_pos_site_id
_symmetry_equiv_pos_as_xyz
1 x,y,z
2 -x,y,1/2-z
3 1/2+x,1/2+y,z
4 1/2-x,1/2+y,1/2-z
5 -x,-y,-z
6 x,-y,1/2+z
7 1/2-x,1/2-y,-z
8 1/2+x,1/2-y,1/2+z
_cell_length_a                   11.0964(5)
_cell_length_b                   13.2916(6)
_cell_length_c                   10.4278(7)
_cell_angle_alpha                90
_cell_angle_beta                 119.655(2)
_cell_angle_gamma                90
_cell_volume                     1336.54
_exptl_crystal_colour            colorless
_exptl_crystal_description       prism
_cell_formula_units_Z            4
loop_
_atom_site_label
_atom_site_type_symbol
_atom_site_fract_x
_atom_site_fract_y
_atom_site_fract_z
C1 C 0.0000 -0.1099(2) 0.7500
C2 C 0.0000 0.08249(14) 0.7500
C3 C 0.07612(14) 0.13316(10) 0.88165(15)
H1 H 0.1281 0.0973 0.9715
C4 C 0.07513(13) 0.23693(10) 0.88016(14)
H2 H 0.1272 0.2723 0.9705
C5 C 0.0000 0.29143(13) 0.7500
C6 C 0.07570(12) 0.56988(9) 0.81665(13)
C7 C 0.18493(14) 0.59224(12) 0.77321(16)
H3 H 0.2773 0.5792 0.8574
H4 H 0.1783 0.6630 0.7439
H5 H 0.1697 0.5490 0.6904
C8 C 0.09868(15) 0.63549(10) 0.94577(15)
H6 H 0.0389 0.6123 0.9843
H7 H 0.0760 0.7054 0.9128
H8 H 0.1960 0.6311 1.0236
B1 B 0.0000 0.40865(16) 0.7500
N1 N 0.0000 -0.02307(14) 0.7500
O1 O 0.09527(8) 0.46467(6) 0.86543(9)
C3A C -0.07612(14) 0.13316(10) 0.61835(15)
H1A H -0.1281 0.0973 0.5285
C4A C -0.07513(13) 0.23693(10) 0.61984(14)
H2A H -0.1272 0.2723 0.5295
C6A C -0.07570(12) 0.56988(9) 0.68335(13)
C7A C -0.18493(14) 0.59224(12) 0.72679(16)
H3A H -0.2773 0.5792 0.6426
H4A H -0.1783 0.6630 0.7561
H5A H -0.1697 0.5490 0.8096
C8A C -0.09868(15) 0.63549(10) 0.55423(15)
H6A H -0.0389 0.6123 0.5157
H7A H -0.0760 0.7054 0.5872
H8A H -0.1960 0.6311 0.4764
O1A O -0.09527(8) 0.46467(6) 0.63457(9)
loop_
_geom_bond_atom_site_label_1
_geom_bond_atom_site_label_2
_geom_bond_site_symmetry_1
_geom_bond_site_symmetry_2
C1 N1 1_555 1_555
C2 C3 1_555 1_555
C3 H1 1_555 1_555
C4 C3 1_555 1_555
H2 C4 1_555 1_555
C5 C4 1_555 1_555
C6 C7 1_555 1_555
C7 H3 1_555 1_555
H4 C7 1_555 1_555
H5 C7 1_555 1_555
C8 C6 1_555 1_555
H6 C8 1_555 1_555
H7 C8 1_555 1_555
H8 C8 1_555 1_555
B1 C5 1_555 1_555
N1 C2 1_555 1_555
O1 C6 1_555 1_555
C3A C2 1_555 1_555
H1A C3A 1_555 1_555
C4A C5 1_555 1_555
H2A C4A 1_555 1_555
C6A C6 1_555 1_555
C7A C6A 1_555 1_555
H3A C7A 1_555 1_555
H4A C7A 1_555 1_555
H5A C7A 1_555 1_555
C8A C6A 1_555 1_555
H6A C8A 1_555 1_555
H7A C8A 1_555 1_555
H8A C8A 1_555 1_555
O1A B1 1_555 1_555
B1 O1 1_555 1_555
C3A C4A 1_555 1_555
C6A O1A 1_555 1_555

#END
