
#######################################################################
#
#                 Cambridge Crystallographic Data Centre
#                                CCDC 
#
#######################################################################
#
# If this CIF has been generated from an entry in the Cambridge 
# Structural Database, then it will include bibliographic, chemical, 
# crystal, experimental, refinement or atomic coordinate data resulting 
# from the CCDC's data processing and validation procedures.
#
#######################################################################

data_UJEQAB
_chemical_formula_moiety         'C72 H62 N24,0.5(C1 H1 Cl3),0.5(C1 H4 O1)'
_chemical_name_systematic        
"2-Phenylpyrimidine-4,6-dicarboxaldehyde 4,4'-bis(methyl(6-(1-methyl-2-(2-pyridylmethylene)hydrazino)-2-phenylpyrimidin-4-yl)hydrazone) 6,6'-((2-phenylpyrimidine-4,6-diyl)bis(methylhydrazone)) chloroform methanol solvate"
_symmetry_cell_setting           triclinic
_symmetry_space_group_name_H-M   'P -1'
_symmetry_Int_Tables_number      2
_space_group_name_Hall           '-P 1'
loop_
_symmetry_equiv_pos_site_id
_symmetry_equiv_pos_as_xyz
1 x,y,z
2 -x,-y,-z
_cell_length_a                   11.8926(2)
_cell_length_b                   16.3930(2)
_cell_length_c                   19.9753(3)
_cell_angle_alpha                105.840(5)
_cell_angle_beta                 102.776(5)
_cell_angle_gamma                98.848(5)
_cell_volume                     3557.19
_exptl_crystal_colour            colorless
_exptl_crystal_description       prism
_cell_formula_units_Z            2
loop_
_atom_site_label
_atom_site_type_symbol
_atom_site_fract_x
_atom_site_fract_y
_atom_site_fract_z
C1 C -0.1898(6) 0.6360(5) 0.5297(4)
C2 C -0.1634(7) 0.6929(5) 0.4935(4)
C3 C -0.1783(8) 0.7774(6) 0.5179(5)
C4 C -0.2196(8) 0.7999(6) 0.5781(5)
C5 C -0.2459(7) 0.7392(7) 0.6102(5)
N1 N -0.2306(6) 0.6571(5) 0.5885(3)
C6 C -0.1770(7) 0.5468(5) 0.5094(4)
N2 N -0.1479(5) 0.5136(4) 0.4507(3)
N3 N -0.1366(5) 0.4303(4) 0.4354(3)
C7 C -0.1456(8) 0.3813(6) 0.4859(4)
C8 C -0.1043(6) 0.3956(4) 0.3724(3)
N4 N -0.0938(5) 0.3130(4) 0.3601(3)
C9 C -0.0594(6) 0.2777(4) 0.3015(4)
N5 N -0.0353(5) 0.3173(3) 0.2536(3)
C10 C -0.0500(6) 0.3993(4) 0.2665(3)
C11 C -0.0847(6) 0.4430(4) 0.3259(3)
C12 C -0.0474(7) 0.1862(4) 0.2879(4)
C13 C -0.0716(8) 0.1413(5) 0.3347(4)
C14 C -0.0601(9) 0.0554(5) 0.3209(5)
C15 C -0.0265(9) 0.0144(5) 0.2611(6)
C16 C -0.0026(8) 0.0589(5) 0.2146(5)
C17 C -0.0123(7) 0.1448(5) 0.2282(5)
N6 N -0.0240(5) 0.4378(3) 0.2153(3)
C18 C 0.0180(6) 0.3925(4) 0.1559(4)
N7 N -0.0516(4) 0.5161(3) 0.2191(3)
C19 C -0.0245(5) 0.5536(4) 0.1742(3)
C20 C -0.0602(5) 0.6339(4) 0.1712(3)
N8 N -0.0230(4) 0.6691(3) 0.1233(3)
C21 C -0.0584(5) 0.7411(4) 0.1173(3)
N9 N -0.1263(4) 0.7816(3) 0.1542(3)
C22 C -0.1630(5) 0.7456(4) 0.2008(3)
C23 C -0.1317(5) 0.6717(4) 0.2112(3)
C24 C -0.0190(6) 0.7817(4) 0.0664(3)
C25 C 0.0687(6) 0.7550(4) 0.0351(3)
C26 C 0.1068(6) 0.7954(5) -0.0113(4)
C27 C 0.0557(7) 0.8605(5) -0.0277(4)
C28 C -0.0327(6) 0.8863(5) 0.0010(4)
C29 C -0.0695(6) 0.8477(4) 0.0489(4)
C30 C -0.2370(5) 0.7915(4) 0.2402(3)
N10 N -0.2823(4) 0.7559(3) 0.2801(3)
N11 N -0.3473(5) 0.7942(3) 0.3206(3)
C31 C -0.3668(7) 0.8808(4) 0.3237(4)
C32 C -0.3944(5) 0.7447(4) 0.3586(3)
N12 N -0.4366(4) 0.7878(3) 0.4116(3)
C33 C -0.4767(5) 0.7408(4) 0.4499(3)
N13 N -0.4828(4) 0.6556(3) 0.4391(2)
C34 C -0.4420(5) 0.6151(4) 0.3842(3)
C35 C -0.3944(5) 0.6572(4) 0.3424(3)
C36 C -0.5134(6) 0.7900(4) 0.5126(4)
C37 C -0.4970(9) 0.8792(6) 0.5292(5)
C38 C -0.518(1) 0.9283(6) 0.5930(6)
C39 C -0.564(1) 0.8857(6) 0.6355(5)
C40 C -0.5785(8) 0.7986(5) 0.6197(4)
C41 C -0.5498(6) 0.7517(4) 0.5602(4)
N14 N -0.4527(4) 0.5260(3) 0.3696(2)
C42 C -0.5017(7) 0.4769(4) 0.4109(3)
N15 N -0.4150(4) 0.4860(3) 0.3122(2)
C43 C -0.4171(5) 0.4042(4) 0.2955(3)
C44 C -0.3800(5) 0.3638(4) 0.2312(3)
N16 N -0.3700(4) 0.2807(3) 0.2214(2)
C45 C -0.3375(5) 0.2428(4) 0.1623(3)
N17 N -0.3101(4) 0.2804(3) 0.1149(2)
C46 C -0.3202(5) 0.3631(4) 0.1258(3)
C47 C -0.3568(5) 0.4082(4) 0.1838(3)
C48 C -0.3344(5) 0.1494(4) 0.1472(3)
C49 C -0.3364(6) 0.1086(4) 0.1996(3)
C50 C -0.3325(7) 0.0220(4) 0.1847(4)
C51 C -0.3258(6) -0.0257(4) 0.1183(4)
C52 C -0.3252(7) 0.0137(4) 0.0652(4)
C53 C -0.3302(6) 0.1001(4) 0.0793(4)
C54 C -0.2901(5) 0.4032(4) 0.0730(3)
N18 N -0.3203(4) 0.4750(3) 0.0722(2)
N19 N -0.2912(4) 0.5153(3) 0.0255(2)
C55 C -0.2112(5) 0.4887(4) -0.0174(3)
C56 C -0.3415(5) 0.5865(4) 0.0233(3)
N20 N -0.3175(4) 0.6255(3) -0.0245(3)
C57 C -0.3632(5) 0.6946(4) -0.0253(3)
N21 N -0.4294(4) 0.7287(3) 0.0159(3)
C58 C -0.4535(5) 0.6857(4) 0.0621(3)
C59 C -0.4121(5) 0.6132(4) 0.0683(3)
C60 C -0.3380(5) 0.7380(4) -0.0792(3)
C61 C -0.2743(6) 0.7049(4) -0.1264(4)
C62 C -0.2523(7) 0.7452(5) -0.1763(4)
C63 C -0.2938(6) 0.8184(4) -0.1793(3)
C64 C -0.3572(6) 0.8525(4) -0.1328(4)
C65 C -0.3799(6) 0.8123(4) -0.0833(3)
N22 N -0.5281(5) 0.7195(3) 0.1030(3)
C66 C -0.5729(6) 0.7962(4) 0.0978(4)
N23 N -0.5607(4) 0.6722(3) 0.1448(3)
C67 C -0.6256(6) 0.6989(4) 0.1857(4)
C68 C -0.6665(6) 0.6443(5) 0.2266(3)
N24 N -0.7202(5) 0.6830(4) 0.2757(3)
C69 C -0.7602(7) 0.6360(6) 0.3156(4)
C70 C -0.7484(7) 0.5514(6) 0.3077(4)
C71 C -0.6946(7) 0.5134(5) 0.2577(4)
C72 C -0.6530(6) 0.5594(5) 0.2163(4)
H1 H -0.1352 0.6748 0.4521
H2 H -0.1605 0.8183 0.4938
H3 H -0.2295 0.8573 0.5969
H4 H -0.2772 0.7554 0.6505
H5 H -0.1901 0.5123 0.5393
H6 H -0.1353 0.3243 0.4657
H7 H -0.0859 0.4101 0.5303
H8 H -0.2213 0.3778 0.4944
H9 H -0.0943 0.5011 0.3344
H10 H -0.0957 0.1690 0.3758
H11 H -0.0757 0.0248 0.3531
H12 H -0.0198 -0.0444 0.2519
H13 H 0.0204 0.0308 0.1733
H14 H 0.0053 0.1755 0.1964
H15 H 0.0305 0.4289 0.1273
H16 H 0.0903 0.3782 0.1747
H17 H -0.0394 0.3406 0.1269
H18 H 0.0193 0.5287 0.1427
H19 H -0.1579 0.6473 0.2447
H20 H 0.1022 0.7093 0.0455
H21 H 0.1678 0.7783 -0.0317
H22 H 0.0823 0.8878 -0.0595
H23 H -0.0683 0.9300 -0.0116
H24 H -0.1293 0.8662 0.0699
H25 H -0.2506 0.8458 0.2361
H26 H -0.3268 0.9028 0.2939
H27 H -0.4492 0.8773 0.3071
H28 H -0.3370 0.9186 0.3723
H29 H -0.3637 0.6280 0.3049
H30 H -0.4718 0.9074 0.4976
H31 H -0.5005 0.9901 0.6068
H32 H -0.5856 0.9180 0.6761
H33 H -0.6084 0.7699 0.6497
H34 H -0.5551 0.6911 0.5514
H35 H -0.5005 0.4174 0.3917
H36 H -0.4557 0.4992 0.4601
H37 H -0.5810 0.4820 0.4080
H38 H -0.4419 0.3708 0.3240
H39 H -0.3654 0.4664 0.1907
H40 H -0.3405 0.1407 0.2461
H41 H -0.3345 -0.0050 0.2210
H42 H -0.3215 -0.0850 0.1088
H43 H -0.3215 -0.0189 0.0188
H44 H -0.3307 0.1263 0.0423
H45 H -0.2492 0.3768 0.0403
H46 H -0.2028 0.5253 -0.0464
H47 H -0.1360 0.4934 0.0139
H48 H -0.2425 0.4301 -0.0477
H49 H -0.4304 0.5837 0.1008
H50 H -0.2456 0.6543 -0.1246
H51 H -0.2086 0.7223 -0.2086
H52 H -0.2785 0.8456 -0.2137
H53 H -0.3850 0.9033 -0.1348
H54 H -0.4245 0.8352 -0.0517
H55 H -0.5398 0.8199 0.0661
H56 H -0.6567 0.7801 0.0794
H57 H -0.5514 0.8385 0.1444
H58 H -0.6469 0.7532 0.1895
H59 H -0.7978 0.6622 0.3504
H60 H -0.7772 0.5204 0.3365
H61 H -0.6858 0.4553 0.2514
H62 H -0.6156 0.5334 0.1813
C73 C 0.1576(4) 0.8841(3) 0.4410(2)
Cl1 Cl 0.1600(4) 0.9866(3) 0.4852(2)
Cl2 Cl 0.1724(4) 0.8239(3) 0.4844(2)
Cl3 Cl 0.0073(4) 0.8439(3) 0.3845(2)
C74 C 0.217(2) 0.881(1) 0.266(1)
O1 O 0.2881(8) 0.8614(5) 0.3187(5)
loop_
_geom_bond_atom_site_label_1
_geom_bond_atom_site_label_2
_geom_bond_site_symmetry_1
_geom_bond_site_symmetry_2
C1 C2 1_555 1_555
C2 C3 1_555 1_555
C3 C4 1_555 1_555
C4 C5 1_555 1_555
C5 N1 1_555 1_555
N1 C1 1_555 1_555
C6 C1 1_555 1_555
N2 C6 1_555 1_555
N3 N2 1_555 1_555
C7 N3 1_555 1_555
C8 N3 1_555 1_555
N4 C8 1_555 1_555
C9 N4 1_555 1_555
N5 C9 1_555 1_555
C10 N5 1_555 1_555
C11 C8 1_555 1_555
C12 C9 1_555 1_555
C13 C12 1_555 1_555
C14 C13 1_555 1_555
C15 C14 1_555 1_555
C16 C15 1_555 1_555
C17 C12 1_555 1_555
N6 C10 1_555 1_555
C18 N6 1_555 1_555
N7 N6 1_555 1_555
C19 N7 1_555 1_555
C20 C19 1_555 1_555
N8 C20 1_555 1_555
C21 N8 1_555 1_555
N9 C21 1_555 1_555
C22 N9 1_555 1_555
C23 C20 1_555 1_555
C24 C21 1_555 1_555
C25 C24 1_555 1_555
C26 C25 1_555 1_555
C27 C26 1_555 1_555
C28 C27 1_555 1_555
C29 C24 1_555 1_555
C30 C22 1_555 1_555
N10 C30 1_555 1_555
N11 N10 1_555 1_555
C31 N11 1_555 1_555
C32 N11 1_555 1_555
N12 C32 1_555 1_555
C33 N12 1_555 1_555
N13 C33 1_555 1_555
C34 N13 1_555 1_555
C35 C32 1_555 1_555
C36 C33 1_555 1_555
C37 C36 1_555 1_555
C38 C37 1_555 1_555
C39 C38 1_555 1_555
C40 C39 1_555 1_555
C41 C36 1_555 1_555
N14 C34 1_555 1_555
C42 N14 1_555 1_555
N15 N14 1_555 1_555
C43 N15 1_555 1_555
C44 C43 1_555 1_555
N16 C44 1_555 1_555
C45 N16 1_555 1_555
N17 C45 1_555 1_555
C46 N17 1_555 1_555
C47 C44 1_555 1_555
C48 C45 1_555 1_555
C49 C48 1_555 1_555
C50 C49 1_555 1_555
C51 C50 1_555 1_555
C52 C51 1_555 1_555
C53 C48 1_555 1_555
C54 C46 1_555 1_555
N18 C54 1_555 1_555
N19 N18 1_555 1_555
C55 N19 1_555 1_555
C56 N19 1_555 1_555
N20 C56 1_555 1_555
C57 N20 1_555 1_555
N21 C57 1_555 1_555
C58 N21 1_555 1_555
C59 C56 1_555 1_555
C60 C57 1_555 1_555
C61 C60 1_555 1_555
C62 C61 1_555 1_555
C63 C62 1_555 1_555
C64 C63 1_555 1_555
C65 C60 1_555 1_555
N22 C58 1_555 1_555
C66 N22 1_555 1_555
N23 N22 1_555 1_555
C67 N23 1_555 1_555
C68 C67 1_555 1_555
N24 C68 1_555 1_555
C69 N24 1_555 1_555
C70 C69 1_555 1_555
C71 C70 1_555 1_555
C72 C68 1_555 1_555
C73 Cl1 1_555 1_555
Cl2 C73 1_555 1_555
Cl3 C73 1_555 1_555
C74 O1 1_555 1_555
H1 C2 1_555 1_555
H2 C3 1_555 1_555
H3 C4 1_555 1_555
H4 C5 1_555 1_555
H5 C6 1_555 1_555
H6 C7 1_555 1_555
H7 C7 1_555 1_555
H8 C7 1_555 1_555
H9 C11 1_555 1_555
H10 C13 1_555 1_555
H11 C14 1_555 1_555
H12 C15 1_555 1_555
H13 C16 1_555 1_555
H14 C17 1_555 1_555
H15 C18 1_555 1_555
H16 C18 1_555 1_555
H17 C18 1_555 1_555
H18 C19 1_555 1_555
H19 C23 1_555 1_555
H20 C25 1_555 1_555
H21 C26 1_555 1_555
H22 C27 1_555 1_555
H23 C28 1_555 1_555
H24 C29 1_555 1_555
H25 C30 1_555 1_555
H26 C31 1_555 1_555
H27 C31 1_555 1_555
H28 C31 1_555 1_555
H29 C35 1_555 1_555
H30 C37 1_555 1_555
H31 C38 1_555 1_555
H32 C39 1_555 1_555
H33 C40 1_555 1_555
H34 C41 1_555 1_555
H35 C42 1_555 1_555
H36 C42 1_555 1_555
H37 C42 1_555 1_555
H38 C43 1_555 1_555
H39 C47 1_555 1_555
H40 C49 1_555 1_555
H41 C50 1_555 1_555
H42 C51 1_555 1_555
H43 C52 1_555 1_555
H44 C53 1_555 1_555
H45 C54 1_555 1_555
H46 C55 1_555 1_555
H47 C55 1_555 1_555
H48 C55 1_555 1_555
H49 C59 1_555 1_555
H50 C61 1_555 1_555
H51 C62 1_555 1_555
H52 C63 1_555 1_555
H53 C64 1_555 1_555
H54 C65 1_555 1_555
H55 C66 1_555 1_555
H56 C66 1_555 1_555
H57 C66 1_555 1_555
H58 C67 1_555 1_555
H59 C69 1_555 1_555
H60 C70 1_555 1_555
H61 C71 1_555 1_555
H62 C72 1_555 1_555
C10 C11 1_555 1_555
C16 C17 1_555 1_555
C22 C23 1_555 1_555
C28 C29 1_555 1_555
C34 C35 1_555 1_555
C40 C41 1_555 1_555
C46 C47 1_555 1_555
C52 C53 1_555 1_555
C58 C59 1_555 1_555
C64 C65 1_555 1_555
C71 C72 1_555 1_555

#END
