
#######################################################################
#
#                 Cambridge Crystallographic Data Centre
#                                CCDC 
#
#######################################################################
#
# If this CIF has been generated from an entry in the Cambridge 
# Structural Database, then it will include bibliographic, chemical, 
# crystal, experimental, refinement or atomic coordinate data resulting 
# from the CCDC's data processing and validation procedures.
#
#######################################################################

data_UJEROS
_chemical_formula_moiety         'C22 H28 N2 O6 S1'
_chemical_name_systematic        
'2-(2-(2,6-Dimethoxybenzylidene)-1-((4-methylphenyl)sulfonyl)hydrazino)butyl acetate'
_symmetry_cell_setting           monoclinic
_symmetry_space_group_name_H-M   'P 21/n'
_symmetry_Int_Tables_number      14
_space_group_name_Hall           '-P 2yn'
loop_
_symmetry_equiv_pos_site_id
_symmetry_equiv_pos_as_xyz
1 x,y,z
2 1/2-x,1/2+y,1/2-z
3 -x,-y,-z
4 1/2+x,1/2-y,1/2+z
_cell_length_a                   17.0179(8)
_cell_length_b                   8.1314(4)
_cell_length_c                   17.4858(8)
_cell_angle_alpha                90
_cell_angle_beta                 112.016(5)
_cell_angle_gamma                90
_cell_volume                     2243.23
_exptl_crystal_colour            colorless
_exptl_crystal_description       Prism
_cell_formula_units_Z            4
loop_
_atom_site_label
_atom_site_type_symbol
_atom_site_fract_x
_atom_site_fract_y
_atom_site_fract_z
C1 C 0.35217(16) 0.6067(3) 0.27187(16)
C2 C 0.27845(18) 0.5264(4) 0.26729(18)
H1 H 0.2462 0.4652 0.2195
C3 C 0.25274(19) 0.5371(4) 0.3334(2)
H2 H 0.2017 0.4842 0.3299
C4 C 0.29921(19) 0.6224(4) 0.40440(19)
C5 C 0.37332(19) 0.7013(4) 0.40775(18)
H3 H 0.4061 0.7605 0.4560
C6 C 0.40014(18) 0.6949(3) 0.34203(17)
H4 H 0.4504 0.7499 0.3449
C7 C 0.2711(2) 0.6298(5) 0.4764(2)
H5 H 0.2112 0.5983 0.4581
H6 H 0.2783 0.7420 0.4984
H7 H 0.3054 0.5539 0.5195
C8 C 0.57499(17) 0.7106(3) 0.25013(16)
H8 H 0.5482 0.7343 0.1930
C9 C 0.64357(16) 0.8162(3) 0.30073(16)
C10 C 0.66946(17) 0.8356(4) 0.38684(17)
C11 C 0.73449(19) 0.9418(4) 0.43011(18)
H9 H 0.7514 0.9535 0.4881
C12 C 0.77461(19) 1.0311(4) 0.3876(2)
H10 H 0.8194 1.1037 0.4174
C13 C 0.75137(18) 1.0175(4) 0.30310(19)
H11 H 0.7799 1.0789 0.2752
C14 C 0.68568(17) 0.9126(4) 0.26013(17)
C15 C 0.6411(2) 0.7805(4) 0.50834(18)
H12 H 0.6998 0.7504 0.5417
H13 H 0.6025 0.7158 0.5261
H14 H 0.6326 0.8978 0.5154
C16 C 0.6955(2) 0.9907(4) 0.1319(2)
H15 H 0.6894 1.1074 0.1425
H16 H 0.6676 0.9686 0.0728
H17 H 0.7558 0.9630 0.1501
N1 N 0.47917(14) 0.5033(3) 0.21777(13)
N2 N 0.54911(14) 0.5866(3) 0.27951(13)
O1 O 0.32806(13) 0.4909(3) 0.12676(12)
O2 O 0.39893(13) 0.7613(3) 0.16682(13)
O3 O 0.62442(13) 0.7475(3) 0.42346(11)
O4 O 0.65686(13) 0.8925(3) 0.17669(12)
S1 S 0.38572(4) 0.59650(9) 0.18793(4)
O5 O 0.55537(16) 0.2991(3) 0.13832(15)
O6 O 0.45085(17) 0.1192(4) 0.07291(16)
C17 C 0.4836(5) 0.3238(6) 0.2365(3)
H18 H 0.4300 0.2766 0.1957
C18 C 0.5520(2) 0.2486(5) 0.2162(2)
H19 H 0.6068 0.2757 0.2606
H20 H 0.5452 0.1276 0.2156
C19 C 0.5021(2) 0.2198(5) 0.0704(2)
C20 C 0.5170(2) 0.2708(7) -0.0053(3)
H21 H 0.5208 0.1729 -0.0363
H22 H 0.5700 0.3332 0.0108
H23 H 0.4699 0.3399 -0.0398
C21 C 0.4819(3) 0.2823(6) 0.3212(3)
H24 H 0.5336 0.3281 0.3641
H25 H 0.4325 0.3378 0.3267
C22 C 0.4773(4) 0.1035(8) 0.3377(5)
H26 H 0.4238 0.0585 0.2988
H27 H 0.4800 0.0882 0.3943
H28 H 0.5249 0.0462 0.3309
O7? O 0.5229(9) 0.271(2) 0.1203(9)
O8? O 0.4291(8) 0.1279(16) 0.0170(8)
C23? C 0.471(3) 0.330(4) 0.2308(16)
H29? H 0.4092 0.3251 0.2193
C24? C 0.4744(11) 0.213(2) 0.1682(10)
H30? H 0.4997 0.1084 0.1958
H31? H 0.4157 0.1886 0.1301
C25? C 0.4907(13) 0.217(3) 0.0408(10)
C26? C 0.5404(16) 0.276(4) -0.0079(13)
H32? H 0.5855 0.1976 -0.0032
H33? H 0.5655 0.3836 0.0134
H34? H 0.5028 0.2877 -0.0660
C27? C 0.5050(19) 0.279(4) 0.3212(13)
H35? H 0.5663 0.3050 0.3451
H36? H 0.4771 0.3490 0.3500
C28? C 0.494(3) 0.105(4) 0.340(3)
H37? H 0.4756 0.0401 0.2895
H38? H 0.4514 0.0978 0.3653
H39? H 0.5482 0.0618 0.3791
loop_
_geom_bond_atom_site_label_1
_geom_bond_atom_site_label_2
_geom_bond_site_symmetry_1
_geom_bond_site_symmetry_2
C1 C2 1_555 1_555
C2 H1 1_555 1_555
C3 C2 1_555 1_555
H2 C3 1_555 1_555
C4 C3 1_555 1_555
C5 C4 1_555 1_555
H3 C5 1_555 1_555
C6 C1 1_555 1_555
H4 C6 1_555 1_555
C7 C4 1_555 1_555
H5 C7 1_555 1_555
H6 C7 1_555 1_555
H7 C7 1_555 1_555
C8 H8 1_555 1_555
C9 C8 1_555 1_555
C10 C9 1_555 1_555
C11 C10 1_555 1_555
H9 C11 1_555 1_555
C12 C11 1_555 1_555
H10 C12 1_555 1_555
C13 C12 1_555 1_555
H11 C13 1_555 1_555
C14 C9 1_555 1_555
C15 H12 1_555 1_555
H13 C15 1_555 1_555
H14 C15 1_555 1_555
C16 H15 1_555 1_555
H16 C16 1_555 1_555
H17 C16 1_555 1_555
N1 N2 1_555 1_555
N2 C8 1_555 1_555
O1 S1 1_555 1_555
O2 S1 1_555 1_555
O3 C10 1_555 1_555
O4 C14 1_555 1_555
S1 C1 1_555 1_555
O5 C18 1_555 1_555
O6 C19 1_555 1_555
C17 N1 1_555 1_555
H18 C17 1_555 1_555
C18 C17 1_555 1_555
H19 C18 1_555 1_555
H20 C18 1_555 1_555
C19 O5 1_555 1_555
C20 C19 1_555 1_555
H21 C20 1_555 1_555
H22 C20 1_555 1_555
H23 C20 1_555 1_555
C21 C17 1_555 1_555
H24 C21 1_555 1_555
H25 C21 1_555 1_555
C22 C21 1_555 1_555
H26 C22 1_555 1_555
H27 C22 1_555 1_555
H28 C22 1_555 1_555
C5 C6 1_555 1_555
C13 C14 1_555 1_555
C15 O3 1_555 1_555
C16 O4 1_555 1_555
N1 S1 1_555 1_555

#END
