
#######################################################################
#
#                 Cambridge Crystallographic Data Centre
#                                CCDC 
#
#######################################################################
#
# If this CIF has been generated from an entry in the Cambridge 
# Structural Database, then it will include bibliographic, chemical, 
# crystal, experimental, refinement or atomic coordinate data resulting 
# from the CCDC's data processing and validation procedures.
#
#######################################################################

data_UJIGIE
_chemical_formula_moiety         'C15 H14 N4 O3'
_chemical_name_systematic        
N-(4-(4-Nitrobenzenecarbohydrazonoyl)phenyl)acetamide
_symmetry_cell_setting           monoclinic
_symmetry_space_group_name_H-M   'P 21/c'
_symmetry_Int_Tables_number      14
_space_group_name_Hall           '-P 2ybc'
loop_
_symmetry_equiv_pos_site_id
_symmetry_equiv_pos_as_xyz
1 x,y,z
2 -x,1/2+y,1/2-z
3 -x,-y,-z
4 x,1/2-y,1/2+z
_cell_length_a                   10.8152(3)
_cell_length_b                   10.9469(2)
_cell_length_c                   12.9198(4)
_cell_angle_alpha                90
_cell_angle_beta                 113.679(1)
_cell_angle_gamma                90
_cell_volume                     1400.83
_exptl_crystal_colour            red
_exptl_crystal_description       block
_cell_formula_units_Z            4
loop_
_atom_site_label
_atom_site_type_symbol
_atom_site_fract_x
_atom_site_fract_y
_atom_site_fract_z
O1 O 1.25570(11) 0.40160(10) 0.66871(10)
O2 O 0.26855(13) 0.09487(13) 0.80053(10)
O3 O 0.07832(11) 0.05377(11) 0.66266(10)
N1 N 1.15650(12) 0.38774(11) 0.47603(11)
H1 H 1.1715 0.4029 0.4152
N2 N 0.57782(12) 0.18582(11) 0.43828(11)
N3 N 0.44798(12) 0.14269(11) 0.39891(11)
H2 H 0.4037 0.1256 0.3268
N4 N 0.19887(13) 0.08031(12) 0.69809(11)
C1 C 1.38235(16) 0.46666(15) 0.56269(14)
H3 H 1.4563 0.4752 0.6374
H4 H 1.3605 0.5468 0.5261
H5 H 1.4099 0.4112 0.5163
C2 C 1.26013(16) 0.41566(13) 0.57545(13)
C3 C 1.02837(15) 0.33806(13) 0.45540(13)
C4 C 0.94932(15) 0.30231(15) 0.34458(13)
H6 H 0.9826 0.3122 0.2873
C5 C 0.82268(15) 0.25263(15) 0.31798(13)
H7 H 0.7704 0.2278 0.2425
C6 C 0.76995(15) 0.23812(14) 0.39970(13)
C7 C 0.85085(16) 0.27361(15) 0.51026(13)
H8 H 0.8177 0.2633 0.5676
C8 C 0.97817(15) 0.32342(14) 0.53849(13)
H9 H 1.0309 0.3475 0.6142
C9 C 0.63345(15) 0.18969(13) 0.36753(13)
H10 H 0.5852 0.1606 0.2928
C10 C 0.38831(15) 0.12657(13) 0.47323(13)
C11 C 0.25229(15) 0.08811(13) 0.43234(13)
H11 H 0.2038 0.0725 0.3540
C12 C 0.18985(15) 0.07321(13) 0.50534(14)
H12 H 0.0981 0.0483 0.4778
C13 C 0.26254(15) 0.09501(13) 0.62047(13)
C14 C 0.39712(15) 0.13105(13) 0.66249(14)
H13 H 0.4454 0.1447 0.7412
C15 C 0.45987(15) 0.14673(14) 0.59000(13)
H14 H 0.5518 0.1712 0.6185
loop_
_geom_bond_atom_site_label_1
_geom_bond_atom_site_label_2
_geom_bond_site_symmetry_1
_geom_bond_site_symmetry_2
O1 C2 1_555 1_555
O2 N4 1_555 1_555
O3 N4 1_555 1_555
N1 H1 1_555 1_555
N2 N3 1_555 1_555
N3 H2 1_555 1_555
N4 C13 1_555 1_555
C1 H3 1_555 1_555
H4 C1 1_555 1_555
H5 C1 1_555 1_555
C2 N1 1_555 1_555
C3 N1 1_555 1_555
C4 C3 1_555 1_555
H6 C4 1_555 1_555
C5 C4 1_555 1_555
H7 C5 1_555 1_555
C6 C5 1_555 1_555
C7 C6 1_555 1_555
H8 C7 1_555 1_555
C8 C3 1_555 1_555
H9 C8 1_555 1_555
C9 N2 1_555 1_555
H10 C9 1_555 1_555
C10 N3 1_555 1_555
C11 C10 1_555 1_555
H11 C11 1_555 1_555
C12 C11 1_555 1_555
H12 C12 1_555 1_555
C13 C12 1_555 1_555
C14 C13 1_555 1_555
H13 C14 1_555 1_555
C15 C10 1_555 1_555
H14 C15 1_555 1_555
C1 C2 1_555 1_555
C6 C9 1_555 1_555
C7 C8 1_555 1_555
C14 C15 1_555 1_555

#END
