
#######################################################################
#
#                 Cambridge Crystallographic Data Centre
#                                CCDC 
#
#######################################################################
#
# If this CIF has been generated from an entry in the Cambridge 
# Structural Database, then it will include bibliographic, chemical, 
# crystal, experimental, refinement or atomic coordinate data resulting 
# from the CCDC's data processing and validation procedures.
#
#######################################################################

data_UJIKOP
_chemical_formula_moiety         'C16 H17 N3 O3'
_chemical_name_systematic        
2-(Morpholin-4-yl)-N-(1-oxidopyridin-2-yl)benzamide
_symmetry_cell_setting           triclinic
_symmetry_space_group_name_H-M   'P -1'
_symmetry_Int_Tables_number      2
_space_group_name_Hall           '-P 1'
loop_
_symmetry_equiv_pos_site_id
_symmetry_equiv_pos_as_xyz
1 x,y,z
2 -x,-y,-z
_cell_length_a                   8.6512(6)
_cell_length_b                   13.1178(7)
_cell_length_c                   13.2085(9)
_cell_angle_alpha                94.755(5)
_cell_angle_beta                 97.921(6)
_cell_angle_gamma                102.375(5)
_cell_volume                     1440.34
_exptl_crystal_description       prismatic
_cell_formula_units_Z            4
loop_
_atom_site_label
_atom_site_type_symbol
_atom_site_fract_x
_atom_site_fract_y
_atom_site_fract_z
C1 C 0.82669(19) 0.45962(12) 0.30269(12)
C2 C 0.8984(2) 0.37475(14) 0.31004(15)
H1 H 0.9427 0.3514 0.2548
C3 C 0.9051(3) 0.32424(16) 0.39795(16)
H2 H 0.9529 0.2672 0.4011
C4 C 0.8411(2) 0.35837(16) 0.48066(15)
H3 H 0.8459 0.3248 0.5400
C5 C 0.7699(2) 0.44244(15) 0.47514(14)
H4 H 0.7278 0.4657 0.5315
C6 C 0.7594(2) 0.49353(13) 0.38698(13)
C7 C 0.6708(2) 0.58024(14) 0.39154(12)
C8 C 0.51061(19) 0.67680(13) 0.28458(12)
C9 C 0.4611(2) 0.73841(14) 0.35799(13)
H5 H 0.4863 0.7312 0.4274
C10 C 0.3744(2) 0.81048(15) 0.32824(15)
H6 H 0.3415 0.8524 0.3775
C11 C 0.3364(2) 0.82035(15) 0.22537(15)
H7 H 0.2787 0.8693 0.2048
C12 C 0.3841(2) 0.75775(15) 0.15398(14)
H8 H 0.3574 0.7639 0.0845
C13 C 0.9417(2) 0.61291(13) 0.22465(13)
H9 H 1.0486 0.5997 0.2312
H10 H 0.9343 0.6553 0.2867
C14 C 0.9130(2) 0.67141(13) 0.13243(14)
H11 H 0.8096 0.6895 0.1296
H12 H 0.9947 0.7362 0.1400
C15 C 0.8322(2) 0.45117(13) 0.11667(13)
H13 H 0.7536 0.3848 0.1070
H14 H 0.9379 0.4365 0.1200
C16 C 0.8010(2) 0.51310(14) 0.02812(13)
H15 H 0.8046 0.4721 -0.0358
H16 H 0.6947 0.5267 0.0248
N1 N 0.60136(17) 0.60315(11) 0.30006(10)
H17 H 0.6156 0.5678 0.2457
N2 N 0.46952(16) 0.68678(12) 0.18236(10)
N3 N 0.82194(16) 0.51246(10) 0.21241(10)
O1 O 0.6591(2) 0.62516(13) 0.47336(10)
O2 O 0.51639(17) 0.62779(11) 0.11358(9)
O3 O 0.91641(16) 0.61023(10) 0.03905(10)
C17 C 0.1779(2) 1.00793(13) 0.73204(13)
C18 C 0.0740(2) 1.07446(16) 0.71615(16)
H18 H 0.0128 1.0869 0.7665
C19 C 0.0594(3) 1.12238(16) 0.62763(17)
H19 H -0.0114 1.1663 0.6185
C20 C 0.1500(3) 1.10529(15) 0.55227(17)
H20 H 0.1421 1.1386 0.4930
C21 C 0.2519(2) 1.03849(15) 0.56581(15)
H21 H 0.3115 1.0263 0.5145
C22 C 0.2680(2) 0.98841(13) 0.65468(13)
C23 C 0.3824(2) 0.91645(14) 0.65557(13)
C24 C 0.50077(19) 0.79626(13) 0.75639(12)
C25 C 0.5821(2) 0.75341(15) 0.68679(13)
H22 H 0.5812 0.7755 0.6217
C26 C 0.6640(2) 0.67834(16) 0.71375(14)
H23 H 0.7181 0.6493 0.6668
C27 C 0.6659(2) 0.64616(16) 0.81038(14)
H24 H 0.7212 0.5954 0.8291
C28 C 0.5859(2) 0.68921(15) 0.87871(14)
H25 H 0.5874 0.6677 0.9441
C29 C 0.2471(2) 1.03922(14) 0.91844(13)
H26 H 0.1688 1.0815 0.9242
H27 H 0.3480 1.0854 0.9117
C30 C 0.2684(2) 0.98405(14) 1.01357(14)
H28 H 0.3513 0.9452 1.0090
H29 H 0.3034 1.0360 1.0736
C31 C 0.0412(2) 0.88994(14) 0.84044(14)
H30 H 0.0042 0.8367 0.7816
H31 H -0.0403 0.9299 0.8452
C32 C 0.0677(2) 0.83814(15) 0.93724(15)
H32 H -0.0323 0.7922 0.9461
H33 H 0.1452 0.7954 0.9304
N4 N 0.40961(16) 0.86989(11) 0.74257(10)
H34 H 0.3658 0.8881 0.7937
N5 N 0.50442(16) 0.76286(11) 0.85210(10)
N6 N 0.19220(16) 0.96033(11) 0.82663(11)
O4 O 0.4454(2) 0.90128(13) 0.58087(11)
O5 O 0.42525(15) 0.80206(10) 0.91732(9)
O6 O 0.12421(15) 0.91374(10) 1.02586(9)
loop_
_geom_bond_atom_site_label_1
_geom_bond_atom_site_label_2
_geom_bond_site_symmetry_1
_geom_bond_site_symmetry_2
C1 C2 1_555 1_555
C2 H1 1_555 1_555
C3 C2 1_555 1_555
H2 C3 1_555 1_555
C4 C3 1_555 1_555
H3 C4 1_555 1_555
C5 C4 1_555 1_555
H4 C5 1_555 1_555
C6 C1 1_555 1_555
C7 C6 1_555 1_555
C8 C9 1_555 1_555
C9 H5 1_555 1_555
C10 C9 1_555 1_555
H6 C10 1_555 1_555
C11 C10 1_555 1_555
H7 C11 1_555 1_555
C12 C11 1_555 1_555
H8 C12 1_555 1_555
C13 H9 1_555 1_555
H10 C13 1_555 1_555
C14 C13 1_555 1_555
H11 C14 1_555 1_555
H12 C14 1_555 1_555
C15 H13 1_555 1_555
H14 C15 1_555 1_555
C16 C15 1_555 1_555
H15 C16 1_555 1_555
H16 C16 1_555 1_555
N1 C7 1_555 1_555
H17 N1 1_555 1_555
N2 C8 1_555 1_555
N3 C1 1_555 1_555
O1 C7 1_555 1_555
O2 N2 1_555 1_555
O3 C14 1_555 1_555
C17 C18 1_555 1_555
C18 H18 1_555 1_555
C19 C18 1_555 1_555
H19 C19 1_555 1_555
C20 C19 1_555 1_555
H20 C20 1_555 1_555
C21 C20 1_555 1_555
H21 C21 1_555 1_555
C22 C17 1_555 1_555
C23 C22 1_555 1_555
C24 C25 1_555 1_555
C25 H22 1_555 1_555
C26 C25 1_555 1_555
H23 C26 1_555 1_555
C27 C26 1_555 1_555
H24 C27 1_555 1_555
C28 C27 1_555 1_555
H25 C28 1_555 1_555
C29 H26 1_555 1_555
H27 C29 1_555 1_555
C30 C29 1_555 1_555
H28 C30 1_555 1_555
H29 C30 1_555 1_555
C31 H30 1_555 1_555
H31 C31 1_555 1_555
C32 C31 1_555 1_555
H32 C32 1_555 1_555
H33 C32 1_555 1_555
N4 C23 1_555 1_555
H34 N4 1_555 1_555
N5 C24 1_555 1_555
N6 C17 1_555 1_555
O4 C23 1_555 1_555
O5 N5 1_555 1_555
O6 C30 1_555 1_555
C5 C6 1_555 1_555
C8 N1 1_555 1_555
C12 N2 1_555 1_555
C13 N3 1_555 1_555
C15 N3 1_555 1_555
C16 O3 1_555 1_555
C21 C22 1_555 1_555
C24 N4 1_555 1_555
C28 N5 1_555 1_555
C29 N6 1_555 1_555
C31 N6 1_555 1_555
C32 O6 1_555 1_555

#END
