
#######################################################################
#
#                 Cambridge Crystallographic Data Centre
#                                CCDC 
#
#######################################################################
#
# If this CIF has been generated from an entry in the Cambridge 
# Structural Database, then it will include bibliographic, chemical, 
# crystal, experimental, refinement or atomic coordinate data resulting 
# from the CCDC's data processing and validation procedures.
#
#######################################################################

data_UJIMOR01
_chemical_formula_moiety         'C26 H18 F6 N2 O1 S2'
_chemical_name_systematic        
4-(2-(2,5-dimethyl-3-thienyl)-3,3,4,4,5,5-hexafluorocyclopent-1-en-1-yl)-5-methyl-N-(quinolin-8-yl)thiophene-2-carboxamide
_symmetry_cell_setting           triclinic
_symmetry_space_group_name_H-M   'P -1'
_symmetry_Int_Tables_number      2
_space_group_name_Hall           '-P 1'
loop_
_symmetry_equiv_pos_site_id
_symmetry_equiv_pos_as_xyz
1 x,y,z
2 -x,-y,-z
_cell_length_a                   7.8613(8)
_cell_length_b                   11.1411(14)
_cell_length_c                   14.6415(14)
_cell_angle_alpha                99.487(3)
_cell_angle_beta                 101.295(4)
_cell_angle_gamma                92.890(4)
_cell_volume                     1235.78
_cell_formula_units_Z            2
loop_
_atom_site_label
_atom_site_type_symbol
_atom_site_fract_x
_atom_site_fract_y
_atom_site_fract_z
F1 F 1.1089(8) 0.8174(8) 1.0302(2)
S1 S 1.16783(7) 0.30333(4) 0.70432(4)
S2 S 0.50822(6) 0.55270(5) 0.66842(4)
O1 O 0.33989(18) 0.63385(15) 0.49727(10)
C1 C 1.1088(2) 0.45064(15) 0.71522(12)
C2 C 0.5910(2) 0.66459(16) 0.61790(12)
N1 N 0.5529(2) 0.77634(16) 0.49051(11)
C3 C 1.1300(2) 0.50114(15) 0.80890(11)
C4 C 0.9716(2) 0.69590(15) 0.81772(11)
C5 C 0.8062(2) 0.65876(15) 0.74955(11)
C6 C 1.1031(2) 0.62814(15) 0.84469(11)
C7 C 0.7491(2) 0.71403(16) 0.66917(12)
H1 H 0.8132 0.7772 0.6535
C8 C 1.0532(2) 0.50371(19) 0.62820(12)
H2 H 0.9293 0.4888 0.6068
H3 H 1.1097 0.4664 0.5796
H4 H 1.0848 0.5901 0.6421
C9 C 0.5772(2) 0.92773(17) 0.39582(13)
N2 N 0.7296(2) 0.96691(15) 0.45777(13)
F2 F 1.0204(2) 0.90595(12) 0.81425(10)
C10 C 0.4824(2) 0.68952(17) 0.52978(12)
C11 C 0.4790(2) 0.82498(18) 0.41100(12)
C12 C 1.1930(2) 0.41802(17) 0.87004(13)
H5 H 1.2148 0.4389 0.9357
C13 C 1.2401(3) 0.70360(19) 0.92192(14)
C14 C 0.6869(2) 0.56980(17) 0.75816(13)
C15 C 1.2182(3) 0.30732(17) 0.82474(15)
F3 F 1.3084(7) 0.6537(4) 0.9921(4)
C16 C 0.5125(3) 0.9840(2) 0.31749(14)
F4 F 0.8750(2) 0.85854(16) 0.91250(13)
C17 C 1.0058(3) 0.82412(17) 0.87145(14)
C18 C 0.8182(3) 1.0633(2) 0.4440(2)
H6 H 0.9216 1.0926 0.4868
C19 C 0.3247(3) 0.7812(2) 0.35028(15)
H7 H 0.2607 0.7135 0.3599
C20 C 1.1739(4) 0.8274(2) 0.94214(16)
C21 C 0.6139(4) 1.0851(2) 0.3059(2)
H8 H 0.5775 1.1250 0.2554
C22 C 0.3524(3) 0.9368(3) 0.25718(16)
H9 H 0.3080 0.9735 0.2059
C23 C 0.6948(3) 0.4949(2) 0.83478(16)
H10 H 0.7709 0.4314 0.8252
H11 H 0.5803 0.4592 0.8331
H12 H 0.7384 0.5462 0.8952
C24 C 0.7645(4) 1.1243(2) 0.3680(2)
H13 H 0.8325 1.1913 0.3605
F5 F 1.2738(6) 0.9233(3) 0.9652(6)
F6 F 1.3831(6) 0.7318(4) 0.8795(4)
C25 C 1.2803(4) 0.1984(2) 0.8657(2)
H14 H 1.2830 0.2130 0.9325
H15 H 1.3951 0.1851 0.8552
H16 H 1.2025 0.1276 0.8357
C26 C 0.2638(3) 0.8392(3) 0.27329(17)
H17 H 0.1589 0.8090 0.2323
H18 H 0.645(3) 0.814(2) 0.5172(16)
F7? F 1.2035(15) 0.8881(6) 1.0204(4)
F8? F 1.3022(6) 0.8930(7) 0.8963(7)
F9? F 1.3967(8) 0.6877(8) 0.9221(8)
F10? F 1.2111(19) 0.6625(6) 1.0094(4)
loop_
_geom_bond_atom_site_label_1
_geom_bond_atom_site_label_2
_geom_bond_site_symmetry_1
_geom_bond_site_symmetry_2
F1 C20 1_555 1_555
S1 C1 1_555 1_555
S2 C2 1_555 1_555
O1 C10 1_555 1_555
C1 C3 1_555 1_555
C2 C7 1_555 1_555
N1 C10 1_555 1_555
C3 C6 1_555 1_555
C4 C5 1_555 1_555
C5 C7 1_555 1_555
C6 C4 1_555 1_555
C7 H1 1_555 1_555
C8 C1 1_555 1_555
H2 C8 1_555 1_555
H3 C8 1_555 1_555
H4 C8 1_555 1_555
C9 N2 1_555 1_555
N2 C18 1_555 1_555
F2 C17 1_555 1_555
C10 C2 1_555 1_555
C11 N1 1_555 1_555
C12 C3 1_555 1_555
H5 C12 1_555 1_555
C13 C6 1_555 1_555
C14 S2 1_555 1_555
C15 S1 1_555 1_555
F3 C13 1_555 1_555
C16 C9 1_555 1_555
F4 C17 1_555 1_555
C17 C4 1_555 1_555
C18 H6 1_555 1_555
C19 C11 1_555 1_555
H7 C19 1_555 1_555
C20 C13 1_555 1_555
C21 C16 1_555 1_555
H8 C21 1_555 1_555
C22 C16 1_555 1_555
H9 C22 1_555 1_555
C23 C14 1_555 1_555
H10 C23 1_555 1_555
H11 C23 1_555 1_555
H12 C23 1_555 1_555
C24 C18 1_555 1_555
H13 C24 1_555 1_555
F5 C20 1_555 1_555
F6 C13 1_555 1_555
C25 C15 1_555 1_555
H14 C25 1_555 1_555
H15 C25 1_555 1_555
H16 C25 1_555 1_555
C26 C19 1_555 1_555
H17 C26 1_555 1_555
H18 N1 1_555 1_555
C5 C14 1_555 1_555
C9 C11 1_555 1_555
C12 C15 1_555 1_555
C17 C20 1_555 1_555
C21 C24 1_555 1_555
C22 C26 1_555 1_555

#END
