
#######################################################################
#
#                 Cambridge Crystallographic Data Centre
#                                CCDC 
#
#######################################################################
#
# If this CIF has been generated from an entry in the Cambridge 
# Structural Database, then it will include bibliographic, chemical, 
# crystal, experimental, refinement or atomic coordinate data resulting 
# from the CCDC's data processing and validation procedures.
#
#######################################################################

data_UJIPUA
_chemical_formula_moiety         'C16 H15 Cl1 N6 O1,H2 O1'
_chemical_name_systematic        
"8-Chloro-N'-(4-(dimethylamino)benzylidene)[1,2,4]triazolo[4,3-a]pyridine-3-carbohydrazide monohydrate"
_symmetry_cell_setting           monoclinic
_symmetry_space_group_name_H-M   'P 21/c'
_symmetry_Int_Tables_number      14
_space_group_name_Hall           '-P 2ybc'
loop_
_symmetry_equiv_pos_site_id
_symmetry_equiv_pos_as_xyz
1 x,y,z
2 -x,1/2+y,1/2-z
3 -x,-y,-z
4 x,1/2-y,1/2+z
_cell_length_a                   7.091(2)
_cell_length_b                   10.750(3)
_cell_length_c                   21.380(6)
_cell_angle_alpha                90
_cell_angle_beta                 96.299(6)
_cell_angle_gamma                90
_cell_volume                     1619.92
_exptl_crystal_colour            colorless
_exptl_crystal_description       Prism
_cell_formula_units_Z            4
loop_
_atom_site_label
_atom_site_type_symbol
_atom_site_fract_x
_atom_site_fract_y
_atom_site_fract_z
Cl1 Cl 0.34690(5) 0.04295(3) 0.268619(16)
O1 O 0.99523(13) 0.49787(9) 0.36168(4)
N1 N 0.74033(15) 0.29440(10) 0.32364(5)
N2 N 0.44578(16) 0.27899(10) 0.35133(5)
N3 N 0.53672(15) 0.37606(10) 0.38299(5)
N4 N 0.80940(16) 0.54417(10) 0.43993(5)
N5 N 0.93397(15) 0.63676(10) 0.46323(5)
N6 N 1.30758(17) 1.10398(11) 0.61918(5)
C1 C 0.89112(18) 0.26696(12) 0.28980(6)
H1 H 1.0067 0.3122 0.2963
C2 C 0.86834(19) 0.17372(12) 0.24728(6)
H2 H 0.9680 0.1555 0.2224
C3 C 0.69856(19) 0.10200(13) 0.23883(6)
H3 H 0.6865 0.0361 0.2090
C4 C 0.55405(18) 0.12810(12) 0.27345(6)
C5 C 0.57038(17) 0.23016(12) 0.31597(6)
C6 C 0.71105(18) 0.38478(11) 0.36719(6)
C7 C 0.85407(18) 0.47990(12) 0.38943(6)
C8 C 0.87756(19) 0.70167(12) 0.50836(6)
H4 H 0.7585 0.6834 0.5228
C9 C 0.99220(19) 0.80194(12) 0.53755(6)
C10 C 0.91896(19) 0.87839(12) 0.58200(6)
H5 H 0.7964 0.8615 0.5940
C11 C 1.02109(19) 0.97798(12) 0.60881(6)
H6 H 0.9670 1.0287 0.6386
C12 C 1.20397(18) 1.00574(12) 0.59286(6)
C13 C 1.27930(19) 0.92578(12) 0.54906(6)
H7 H 1.4037 0.9403 0.5381
C14 C 1.17618(19) 0.82799(12) 0.52219(6)
H8 H 1.2299 0.7767 0.4926
C15 C 1.2228(2) 1.18718(13) 0.66157(6)
H9 H 1.1066 1.2232 0.6399
H10 H 1.3125 1.2539 0.6749
H11 H 1.1921 1.1406 0.6985
C16 C 1.4824(2) 1.14240(14) 0.59521(7)
H12 H 1.5746 1.0742 0.6003
H13 H 1.5342 1.2153 0.6187
H14 H 1.4564 1.1636 0.5505
H15 H 0.725(2) 0.5133(14) 0.4632(7)
O2 O 0.34200(14) 0.56189(9) 0.45203(5)
H16 H 0.396(2) 0.5043(14) 0.4313(8)
H17 H 0.2266(15) 0.5755(17) 0.4352(8)
loop_
_geom_bond_atom_site_label_1
_geom_bond_atom_site_label_2
_geom_bond_site_symmetry_1
_geom_bond_site_symmetry_2
Cl1 C4 1_555 1_555
O1 C7 1_555 1_555
N1 C1 1_555 1_555
N2 N3 1_555 1_555
N3 C6 1_555 1_555
N4 N5 1_555 1_555
N5 C8 1_555 1_555
N6 C12 1_555 1_555
C1 H1 1_555 1_555
C2 C1 1_555 1_555
H2 C2 1_555 1_555
C3 C2 1_555 1_555
H3 C3 1_555 1_555
C4 C3 1_555 1_555
C5 N1 1_555 1_555
C6 N1 1_555 1_555
C7 N4 1_555 1_555
C8 H4 1_555 1_555
C9 C8 1_555 1_555
C10 C9 1_555 1_555
H5 C10 1_555 1_555
C11 C10 1_555 1_555
H6 C11 1_555 1_555
C12 C11 1_555 1_555
C13 C12 1_555 1_555
H7 C13 1_555 1_555
C14 C9 1_555 1_555
H8 C14 1_555 1_555
C15 N6 1_555 1_555
H9 C15 1_555 1_555
H10 C15 1_555 1_555
H11 C15 1_555 1_555
C16 N6 1_555 1_555
H12 C16 1_555 1_555
H13 C16 1_555 1_555
H14 C16 1_555 1_555
H15 N4 1_555 1_555
O2 H16 1_555 1_555
H17 O2 1_555 1_555
N2 C5 1_555 1_555
C4 C5 1_555 1_555
C6 C7 1_555 1_555
C13 C14 1_555 1_555

#END
