
#######################################################################
#
#                 Cambridge Crystallographic Data Centre
#                                CCDC 
#
#######################################################################
#
# If this CIF has been generated from an entry in the Cambridge 
# Structural Database, then it will include bibliographic, chemical, 
# crystal, experimental, refinement or atomic coordinate data resulting 
# from the CCDC's data processing and validation procedures.
#
#######################################################################

data_UJIPOS
_chemical_formula_moiety         'C34 H44 N4 O7'
_chemical_name_systematic        
'Benzyloxycarbonyl-(\a,\b-dehydrovalyl)-valyl-(\a,\b-dehydrophenylalanyl)-isoleucine methyl ester'
_symmetry_cell_setting           orthorhombic
_symmetry_space_group_name_H-M   'P 21 21 21'
_symmetry_Int_Tables_number      19
_space_group_name_Hall           'P 2ac 2ab'
loop_
_symmetry_equiv_pos_site_id
_symmetry_equiv_pos_as_xyz
1 x,y,z
2 1/2-x,-y,1/2+z
3 1/2+x,1/2-y,-z
4 -x,1/2+y,1/2-z
_cell_length_a                   12.5130(10)
_cell_length_b                   15.9040(10)
_cell_length_c                   17.6860(10)
_cell_angle_alpha                90
_cell_angle_beta                 90
_cell_angle_gamma                90
_cell_volume                     3519.63
_cell_formula_units_Z            4
_exptl_crystal_recrystallization_method acetone/water
loop_
_atom_site_label
_atom_site_type_symbol
_atom_site_fract_x
_atom_site_fract_y
_atom_site_fract_z
C1 C 0.4642(17) 0.2327(10) 0.5487(12)
C2 C 0.5618(14) 0.2660(7) 0.5290(5)
C3 C 0.6412(17) 0.2911(10) 0.5849(9)
C4 C 0.6048(10) 0.2772(7) 0.6649(6)
C5 C 0.5128(12) 0.2497(10) 0.6783(7)
C6 C 0.441(2) 0.2241(13) 0.6200(13)
C7 C 0.595(2) 0.2708(15) 0.4455(10)
O1 O 0.5160(12) 0.3257(7) 0.4082(5)
C8 C 0.4531(13) 0.2862(12) 0.3540(6)
O2 O 0.4371(12) 0.2122(6) 0.3490(5)
N1 N 0.4084(7) 0.3477(5) 0.3098(4)
C9 C 0.3479(8) 0.3233(6) 0.2444(5)
C10 C 0.2558(9) 0.3655(7) 0.2275(7)
C11 C 0.1914(10) 0.3519(9) 0.1550(7)
C12 C 0.2093(10) 0.4293(8) 0.2802(9)
C13 C 0.3916(8) 0.2535(6) 0.1974(5)
O3 O 0.3312(6) 0.1999(5) 0.1709(5)
N2 N 0.4963(6) 0.2478(5) 0.1865(4)
C14 C 0.5420(10) 0.1844(6) 0.1392(6)
C15 C 0.6499(11) 0.2049(7) 0.1080(9)
C16 C 0.6445(19) 0.2776(10) 0.0515(10)
C17 C 0.7359(8) 0.2142(9) 0.1757(14)
C18 C 0.5403(7) 0.0970(6) 0.1793(5)
O4 O 0.5708(6) 0.0328(4) 0.1435(4)
N3 N 0.5049(6) 0.0940(4) 0.2495(5)
C19 C 0.4750(7) 0.0134(6) 0.2830(5)
C20 C 0.5140(9) -0.0155(7) 0.3481(6)
C21 C 0.6050(11) 0.0162(6) 0.3931(6)
C22 C 0.6883(10) 0.0703(8) 0.3661(8)
C23 C 0.6181(16) -0.0177(10) 0.4669(7)
C24 C 0.7745(14) 0.0924(10) 0.4071(11)
C25 C 0.7065(16) 0.0025(14) 0.5113(9)
C26 C 0.7797(14) 0.0586(13) 0.4826(13)
C27 C 0.3869(7) -0.0315(6) 0.2470(6)
O5 O 0.3694(6) -0.1067(5) 0.2629(5)
N4 N 0.3253(6) 0.0118(5) 0.1994(5)
C28 C 0.2428(8) -0.0339(8) 0.1527(6)
C29 C 0.1272(9) -0.0051(9) 0.1740(8)
C30 C 0.1085(13) -0.0237(13) 0.2575(10)
C31 C 0.1092(10) 0.0898(9) 0.1504(8)
C32 C -0.0060(13) 0.1145(15) 0.1565(12)
C33 C 0.2641(10) -0.0187(11) 0.0728(8)
O6 O 0.2082(11) -0.0565(10) 0.0221(7)
O7 O 0.3485(10) 0.0264(8) 0.0535(6)
C34 C 0.373(2) 0.035(2) -0.0292(11)
loop_
_geom_bond_atom_site_label_1
_geom_bond_atom_site_label_2
_geom_bond_site_symmetry_1
_geom_bond_site_symmetry_2
C1 C2 1_555 1_555
C2 C3 1_555 1_555
C3 C4 1_555 1_555
C4 C5 1_555 1_555
C5 C6 1_555 1_555
C6 C1 1_555 1_555
C7 C2 1_555 1_555
O1 C7 1_555 1_555
C8 O1 1_555 1_555
O2 C8 1_555 1_555
N1 C8 1_555 1_555
C9 N1 1_555 1_555
C10 C9 1_555 1_555
C11 C10 1_555 1_555
C12 C10 1_555 1_555
C13 C9 1_555 1_555
O3 C13 1_555 1_555
N2 C13 1_555 1_555
C14 N2 1_555 1_555
C15 C14 1_555 1_555
C16 C15 1_555 1_555
C17 C15 1_555 1_555
C18 C14 1_555 1_555
O4 C18 1_555 1_555
N3 C18 1_555 1_555
C19 N3 1_555 1_555
C20 C19 1_555 1_555
C21 C20 1_555 1_555
C22 C21 1_555 1_555
C23 C21 1_555 1_555
C24 C22 1_555 1_555
C25 C23 1_555 1_555
C26 C24 1_555 1_555
C27 C19 1_555 1_555
O5 C27 1_555 1_555
N4 C27 1_555 1_555
C28 N4 1_555 1_555
C29 C28 1_555 1_555
C30 C29 1_555 1_555
C31 C29 1_555 1_555
C32 C31 1_555 1_555
C33 C28 1_555 1_555
O6 C33 1_555 1_555
O7 C33 1_555 1_555
C34 O7 1_555 1_555
C25 C26 1_555 1_555

#END
