
#######################################################################
#
#                 Cambridge Crystallographic Data Centre
#                                CCDC 
#
#######################################################################
#
# If this CIF has been generated from an entry in the Cambridge 
# Structural Database, then it will include bibliographic, chemical, 
# crystal, experimental, refinement or atomic coordinate data resulting 
# from the CCDC's data processing and validation procedures.
#
#######################################################################

data_UJOTES03
_chemical_formula_moiety         'C22 H16 N2 O2'
_chemical_name_systematic        
1,1'-(Hydrazine-1,2-diylidenedimethylylidene)bis(2-naphthol)
_symmetry_cell_setting           monoclinic
_symmetry_space_group_name_H-M   'P 21/n'
_symmetry_Int_Tables_number      14
_space_group_name_Hall           '-P 2yn'
loop_
_symmetry_equiv_pos_site_id
_symmetry_equiv_pos_as_xyz
1 x,y,z
2 1/2-x,1/2+y,1/2-z
3 -x,-y,-z
4 1/2+x,1/2-y,1/2+z
_cell_length_a                   8.4191(12)
_cell_length_b                   6.1093(3)
_cell_length_c                   15.9695(10)
_cell_angle_alpha                90
_cell_angle_beta                 91.643(8)
_cell_angle_gamma                90
_cell_volume                     821.05
_exptl_crystal_colour            yellow
_exptl_crystal_description       block
_cell_formula_units_Z            2
loop_
_atom_site_label
_atom_site_type_symbol
_atom_site_fract_x
_atom_site_fract_y
_atom_site_fract_z
O1 O -0.18617(15) 0.5424(2) 0.47286(7)
H1 H -0.1510 0.6547 0.4945
N1 N -0.03032(17) 0.9042(2) 0.48203(8)
C1 C -0.03236(18) 0.6802(3) 0.35927(9)
C2 C -0.13002(19) 0.5221(3) 0.39494(9)
C3 C -0.1752(2) 0.3319(3) 0.35070(10)
H2 H -0.2389 0.2279 0.3758
C4 C -0.12593(19) 0.2997(3) 0.27114(10)
H3 H -0.1549 0.1719 0.2430
C5 C -0.03147(19) 0.4570(3) 0.23023(10)
C6 C 0.0113(2) 0.4285(3) 0.14570(10)
H4 H -0.0184 0.3011 0.1175
C7 C 0.0956(2) 0.5856(3) 0.10487(10)
H5 H 0.1210 0.5664 0.0491
C8 C 0.1435(2) 0.7762(3) 0.14801(10)
H6 H 0.2008 0.8829 0.1203
C9 C 0.10709(19) 0.8071(3) 0.23044(10)
H7 H 0.1425 0.9327 0.2581
C10 C 0.01616(18) 0.6504(3) 0.27423(9)
C11 C 0.01618(19) 0.8718(3) 0.40641(9)
H8 H 0.0823 0.9740 0.3819
O1B O 0.18617(15) 1.4576(2) 0.52714(7)
H1B H 0.1510 1.3453 0.5055
N1B N 0.03032(17) 1.0958(2) 0.51797(8)
C1B C 0.03236(18) 1.3198(3) 0.64073(9)
C2B C 0.13002(19) 1.4779(3) 0.60506(9)
C3B C 0.1752(2) 1.6681(3) 0.64930(10)
H2B H 0.2389 1.7721 0.6242
C4B C 0.12593(19) 1.7003(3) 0.72886(10)
H3B H 0.1549 1.8281 0.7570
C5B C 0.03147(19) 1.5430(3) 0.76977(10)
C6B C -0.0113(2) 1.5715(3) 0.85430(10)
H4B H 0.0184 1.6989 0.8825
C7B C -0.0956(2) 1.4144(3) 0.89513(10)
H5B H -0.1210 1.4336 0.9509
C8B C -0.1435(2) 1.2238(3) 0.85199(10)
H6B H -0.2008 1.1171 0.8797
C9B C -0.10709(19) 1.1929(3) 0.76956(10)
H7B H -0.1425 1.0673 0.7419
C10B C -0.01616(18) 1.3496(3) 0.72577(9)
C11B C -0.01618(19) 1.1282(3) 0.59359(9)
H8B H -0.0823 1.0260 0.6181
loop_
_geom_bond_atom_site_label_1
_geom_bond_atom_site_label_2
_geom_bond_site_symmetry_1
_geom_bond_site_symmetry_2
O1 H1 1_555 1_555
N1 C11 1_555 1_555
C1 C2 1_555 1_555
C2 O1 1_555 1_555
C3 C2 1_555 1_555
H2 C3 1_555 1_555
C4 C3 1_555 1_555
H3 C4 1_555 1_555
C5 C4 1_555 1_555
C6 C5 1_555 1_555
H4 C6 1_555 1_555
C7 C6 1_555 1_555
H5 C7 1_555 1_555
C8 C7 1_555 1_555
H6 C8 1_555 1_555
C9 C8 1_555 1_555
H7 C9 1_555 1_555
C10 C1 1_555 1_555
C11 C1 1_555 1_555
H8 C11 1_555 1_555
O1B H1B 1_555 1_555
N1B N1 1_555 1_555
C1B C2B 1_555 1_555
C2B O1B 1_555 1_555
C3B C2B 1_555 1_555
H2B C3B 1_555 1_555
C4B C3B 1_555 1_555
H3B C4B 1_555 1_555
C5B C4B 1_555 1_555
C6B C5B 1_555 1_555
H4B C6B 1_555 1_555
C7B C6B 1_555 1_555
H5B C7B 1_555 1_555
C8B C7B 1_555 1_555
H6B C8B 1_555 1_555
C9B C8B 1_555 1_555
H7B C9B 1_555 1_555
C10B C1B 1_555 1_555
C11B N1B 1_555 1_555
H8B C11B 1_555 1_555
C5 C10 1_555 1_555
C9 C10 1_555 1_555
C1B C11B 1_555 1_555
C5B C10B 1_555 1_555
C9B C10B 1_555 1_555

#END
