
#######################################################################
#
#                 Cambridge Crystallographic Data Centre
#                                CCDC 
#
#######################################################################
#
# If this CIF has been generated from an entry in the Cambridge 
# Structural Database, then it will include bibliographic, chemical, 
# crystal, experimental, refinement or atomic coordinate data resulting 
# from the CCDC's data processing and validation procedures.
#
#######################################################################

data_UJUHAK
_chemical_formula_moiety         'C16 H8 Cl1 F6 N5 O1 S1'
_chemical_name_systematic        
2-(7-((5-Chloro-3-(trifluoromethyl)-1H-pyrazol-1-yl)methyl)-5-oxo-2-(trifluoromethyl)-5H-[1,3]thiazolo[3,2-a]pyrimidin-3-yl)cyclopropanecarbonitrile
_symmetry_cell_setting           orthorhombic
_symmetry_space_group_name_H-M   'P 21 21 21'
_symmetry_Int_Tables_number      19
_space_group_name_Hall           'P 2ac 2ab'
loop_
_symmetry_equiv_pos_site_id
_symmetry_equiv_pos_as_xyz
1 x,y,z
2 1/2-x,-y,1/2+z
3 -x,1/2+y,1/2-z
4 1/2+x,1/2-y,-z
_cell_length_a                   8.4569(3)
_cell_length_b                   9.5901(3)
_cell_length_c                   22.3213(8)
_cell_angle_alpha                90
_cell_angle_beta                 90
_cell_angle_gamma                90
_cell_volume                     1810.31
_exptl_crystal_colour            colorless
_exptl_crystal_description       plate
_cell_formula_units_Z            4
loop_
_atom_site_label
_atom_site_type_symbol
_atom_site_fract_x
_atom_site_fract_y
_atom_site_fract_z
C1 C 0.2032(3) 0.8019(2) 0.28880(11)
C2 C 0.3169(3) 0.7156(2) 0.26858(10)
C3 C 0.5710(3) 0.6092(2) 0.30687(10)
C4 C 0.6859(3) 0.6331(2) 0.35235(10)
H1 H 0.7807 0.5799 0.3521
C5 C 0.6638(3) 0.7300(2) 0.39621(10)
C6 C 0.4328(3) 0.8000(2) 0.35649(10)
C7 C 0.0475(3) 0.8342(3) 0.26084(12)
C8 C 0.3267(3) 0.6427(2) 0.21020(11)
H2 H 0.3010 0.5409 0.2107
C9 C 0.4504(3) 0.6872(3) 0.16624(11)
H3 H 0.5008 0.6139 0.1415
H4 H 0.5213 0.7647 0.1779
C10 C 0.2800(3) 0.7215(2) 0.15370(11)
H5 H 0.2478 0.8211 0.1589
C11 C 0.1976(3) 0.6431(3) 0.10827(13)
C12 C 0.7800(3) 0.7464(2) 0.44730(11)
H6 H 0.8442 0.8313 0.4406
H7 H 0.7209 0.7587 0.4852
C13 C 1.0836(3) 0.4982(2) 0.43748(10)
C14 C 0.9755(3) 0.4135(2) 0.46768(10)
H8 H 0.9871 0.3189 0.4795
C15 C 0.8495(3) 0.4995(2) 0.47601(9)
C16 C 1.2417(3) 0.4594(3) 0.41396(11)
N1 N 0.4453(2) 0.7102(2) 0.30851(8)
N2 N 0.5352(2) 0.8157(2) 0.39964(8)
N3 N 0.1321(3) 0.5803(3) 0.07256(13)
N4 N 0.8846(2) 0.6267(2) 0.45284(8)
N5 N 1.0301(2) 0.6270(2) 0.42808(9)
O1 O 0.5677(2) 0.51418(17) 0.27055(7)
F1 F 0.05407(17) 0.94207(15) 0.22274(7)
F2 F -0.01166(18) 0.72719(16) 0.23063(9)
F3 F -0.05824(18) 0.87041(19) 0.30279(8)
F4 F 1.24485(18) 0.45481(17) 0.35358(6)
F5 F 1.28635(18) 0.33353(16) 0.43315(8)
F6 F 1.35477(17) 0.54949(16) 0.42967(7)
S1 S 0.25278(7) 0.88615(6) 0.35525(3)
Cl1 Cl 0.66877(7) 0.46803(6) 0.50725(3)
loop_
_geom_bond_atom_site_label_1
_geom_bond_atom_site_label_2
_geom_bond_site_symmetry_1
_geom_bond_site_symmetry_2
C1 C2 1_555 1_555
C2 C8 1_555 1_555
C3 C4 1_555 1_555
C4 H1 1_555 1_555
C5 C4 1_555 1_555
C6 N1 1_555 1_555
C7 C1 1_555 1_555
C8 H2 1_555 1_555
C9 C8 1_555 1_555
H3 C9 1_555 1_555
H4 C9 1_555 1_555
C10 C8 1_555 1_555
H5 C10 1_555 1_555
C11 C10 1_555 1_555
C12 C5 1_555 1_555
H6 C12 1_555 1_555
H7 C12 1_555 1_555
C13 C14 1_555 1_555
C14 H8 1_555 1_555
C15 C14 1_555 1_555
C16 C13 1_555 1_555
N1 C2 1_555 1_555
N2 C5 1_555 1_555
N3 C11 1_555 1_555
N4 C12 1_555 1_555
N5 C13 1_555 1_555
O1 C3 1_555 1_555
F1 C7 1_555 1_555
F2 C7 1_555 1_555
F3 C7 1_555 1_555
F4 C16 1_555 1_555
F5 C16 1_555 1_555
F6 C16 1_555 1_555
S1 C1 1_555 1_555
Cl1 C15 1_555 1_555
C3 N1 1_555 1_555
C6 N2 1_555 1_555
C6 S1 1_555 1_555
C9 C10 1_555 1_555
C15 N4 1_555 1_555
N4 N5 1_555 1_555

#END
