
#######################################################################
#
#                 Cambridge Crystallographic Data Centre
#                                CCDC 
#
#######################################################################
#
# If this CIF has been generated from an entry in the Cambridge 
# Structural Database, then it will include bibliographic, chemical, 
# crystal, experimental, refinement or atomic coordinate data resulting 
# from the CCDC's data processing and validation procedures.
#
#######################################################################

data_UJUMOB
_chemical_name_common            
'2,9-Diazonia-5,12-diaza(13)orthocyclophane dipicrate acetone solvate'
_chemical_formula_moiety         'C15 H28 N4 2+,2(C6 H2 N3 O7 1-),0.5(C3 H6 O1)'
_chemical_name_systematic        
'3,10-Diazonia-6,13-diaza-1(1,2)-benzenacyclotetradecaphane bis(2,4,6-trinitrophenolate) acetone solvate'
_symmetry_cell_setting           triclinic
_symmetry_space_group_name_H-M   'P -1'
_symmetry_Int_Tables_number      2
_space_group_name_Hall           '-P 1'
loop_
_symmetry_equiv_pos_site_id
_symmetry_equiv_pos_as_xyz
1 x,y,z
2 -x,-y,-z
_cell_length_a                   8.1875(12)
_cell_length_b                   13.3925(19)
_cell_length_c                   15.778(2)
_cell_angle_alpha                92.796(3)
_cell_angle_beta                 92.386(3)
_cell_angle_gamma                101.263(3)
_cell_volume                     1692.42
_cell_formula_units_Z            2
_exptl_crystal_recrystallization_method acetone/water
loop_
_atom_site_label
_atom_site_type_symbol
_atom_site_fract_x
_atom_site_fract_y
_atom_site_fract_z
O1 O 0.0817(3) 0.4827(2) 0.71872(16)
N5 N -0.0401(4) 0.5936(3) 0.8526(2)
O2 O 0.0293(5) 0.5293(3) 0.8793(2)
O3 O -0.1416(5) 0.6264(3) 0.8931(2)
N6 N -0.0352(6) 0.8696(3) 0.6670(4)
O4 O -0.0960(7) 0.9128(3) 0.7229(3)
O5 O -0.0040(6) 0.9055(3) 0.5984(3)
N7 N 0.1614(4) 0.5720(3) 0.5590(2)
O6 O 0.2207(5) 0.6261(3) 0.5019(2)
O7 O 0.1569(5) 0.4813(3) 0.5564(2)
C16 C 0.0610(4) 0.5711(3) 0.7069(2)
C17 C -0.0006(4) 0.6338(3) 0.7704(2)
C18 C -0.0310(5) 0.7284(3) 0.7582(3)
H23 H -0.0754 0.7648 0.8019
C19 C 0.0037(5) 0.7707(3) 0.6813(3)
C20 C 0.0692(5) 0.7199(3) 0.6178(3)
H24 H 0.0966 0.7513 0.5662
C21 C 0.0949(4) 0.6225(3) 0.6295(2)
O8 O 0.4701(4) 0.2076(2) 0.84759(19)
N8 N 0.6862(5) 0.2603(3) 0.9978(3)
O9 O 0.6808(6) 0.3351(3) 0.9575(3)
O10 O 0.7258(6) 0.2655(3) 1.0738(3)
N9 N 0.7730(6) -0.0869(4) 0.9862(3)
O11 O 0.8573(5) -0.0639(3) 1.0524(3)
O12 O 0.7458(7) -0.1719(4) 0.9509(3)
N10 N 0.4154(6) 0.0093(4) 0.7661(3)
O13 O 0.3962(11) 0.0711(5) 0.7179(4)
O14 O 0.3532(8) -0.0758(4) 0.7514(4)
C22 C 0.5421(4) 0.1424(3) 0.8773(2)
C23 C 0.6508(4) 0.1596(3) 0.9525(2)
C24 C 0.7234(4) 0.0862(3) 0.9880(2)
H25 H 0.7911 0.1017 1.0391
C25 C 0.6970(5) -0.0101(3) 0.9485(3)
C26 C 0.5956(5) -0.0348(3) 0.8757(3)
H26 H 0.5768 -0.1017 0.8492
C27 C 0.5226(5) 0.0391(3) 0.8423(3)
C28 C 0.4797(18) -0.0424(9) 0.4860(8)
C29 C 0.3594(12) 0.0173(8) 0.4762(7)
O15 O 0.4313(18) -0.1280(10) 0.4609(13)
C28A C 0.5203(18) 0.0424(9) 0.5140(8)
C29A C 0.6406(12) -0.0173(8) 0.5238(7)
O15A O 0.5687(18) 0.1280(10) 0.5391(13)
N1 N 0.3178(4) 0.4358(2) 0.83723(19)
N2 N 0.1196(4) 0.2332(2) 0.81877(19)
N3 N 0.1149(4) 0.2844(3) 0.6562(2)
N4 N 0.4665(4) 0.3402(2) 0.70524(19)
C1 C 0.5154(4) 0.5706(3) 0.7741(2)
C2 C 0.4861(5) 0.6678(3) 0.7633(3)
H1 H 0.4385 0.7016 0.8075
C3 C 0.5252(6) 0.7166(3) 0.6891(3)
H2 H 0.5020 0.7825 0.6817
C4 C 0.5978(5) 0.6685(4) 0.6263(3)
H3 H 0.6255 0.7015 0.5754
C5 C 0.6306(5) 0.5726(3) 0.6367(2)
H4 H 0.6812 0.5403 0.5928
C6 C 0.5908(4) 0.5222(3) 0.7104(2)
C7 C 0.4668(5) 0.5198(3) 0.8548(2)
H5 H 0.5609 0.4917 0.8785
H6 H 0.4408 0.5706 0.8972
C8 C 0.2592(5) 0.3806(3) 0.9129(2)
H7 H 0.2406 0.4299 0.9585
H8 H 0.3456 0.3443 0.9343
C9 C 0.0992(4) 0.3048(3) 0.8907(2)
H9 H 0.0654 0.2658 0.9409
H10 H 0.0098 0.3418 0.8751
C10 C -0.0351(5) 0.1600(3) 0.7931(3)
H11 H -0.0068 0.0948 0.7723
H12 H -0.1031 0.1464 0.8433
C11 C -0.1329(6) 0.1972(4) 0.7268(3)
H13 H -0.1618 0.2616 0.7491
H14 H -0.2386 0.1470 0.7157
C12 C -0.0538(5) 0.2166(3) 0.6437(3)
H15 H -0.0431 0.1508 0.6151
H16 H -0.1262 0.2489 0.6065
C13 C 0.2425(5) 0.2524(3) 0.6038(3)
H17 H 0.2037 0.2473 0.5432
H18 H 0.2582 0.1840 0.6195
C14 C 0.4061(5) 0.3264(3) 0.6159(2)
H19 H 0.4899 0.3012 0.5816
H20 H 0.3927 0.3931 0.5951
C15 C 0.6228(5) 0.4160(3) 0.7183(3)
H21 H 0.7020 0.4021 0.6756
H22 H 0.6739 0.4104 0.7754
H27 H 0.243(4) 0.459(2) 0.818(2)
H28 H 0.355(5) 0.394(3) 0.796(3)
H29 H 0.205(8) 0.202(5) 0.841(4)
H30 H 0.115(6) 0.346(4) 0.648(3)
H31 H 0.135(5) 0.274(3) 0.715(3)
H32 H 0.489(4) 0.283(3) 0.717(2)
loop_
_geom_bond_atom_site_label_1
_geom_bond_atom_site_label_2
_geom_bond_site_symmetry_1
_geom_bond_site_symmetry_2
N1 C7 1_555 1_555
N2 C9 1_555 1_555
N3 C12 1_555 1_555
N4 C14 1_555 1_555
C1 C2 1_555 1_555
C2 H1 1_555 1_555
C3 C2 1_555 1_555
H2 C3 1_555 1_555
C4 C3 1_555 1_555
H3 C4 1_555 1_555
C5 C4 1_555 1_555
H4 C5 1_555 1_555
C6 C1 1_555 1_555
C7 C1 1_555 1_555
H5 C7 1_555 1_555
H6 C7 1_555 1_555
C8 N1 1_555 1_555
H7 C8 1_555 1_555
H8 C8 1_555 1_555
C9 C8 1_555 1_555
H9 C9 1_555 1_555
H10 C9 1_555 1_555
C10 N2 1_555 1_555
H11 C10 1_555 1_555
H12 C10 1_555 1_555
C11 C10 1_555 1_555
H13 C11 1_555 1_555
H14 C11 1_555 1_555
C12 C11 1_555 1_555
H15 C12 1_555 1_555
H16 C12 1_555 1_555
C13 N3 1_555 1_555
H17 C13 1_555 1_555
H18 C13 1_555 1_555
C14 C13 1_555 1_555
H19 C14 1_555 1_555
H20 C14 1_555 1_555
C15 N4 1_555 1_555
H21 C15 1_555 1_555
H22 C15 1_555 1_555
O1 C16 1_555 1_555
N5 O2 1_555 1_555
O3 N5 1_555 1_555
N6 O4 1_555 1_555
O5 N6 1_555 1_555
N7 O6 1_555 1_555
O7 N7 1_555 1_555
C16 C17 1_555 1_555
C17 N5 1_555 1_555
C18 C17 1_555 1_555
H23 C18 1_555 1_555
C19 N6 1_555 1_555
C20 C19 1_555 1_555
H24 C20 1_555 1_555
C21 N7 1_555 1_555
O8 C22 1_555 1_555
N8 O9 1_555 1_555
O10 N8 1_555 1_555
N9 O11 1_555 1_555
O12 N9 1_555 1_555
N10 O13 1_555 1_555
O14 N10 1_555 1_555
C22 C23 1_555 1_555
C23 N8 1_555 1_555
C24 C23 1_555 1_555
H25 C24 1_555 1_555
C25 N9 1_555 1_555
C26 C25 1_555 1_555
H26 C26 1_555 1_555
C27 N10 1_555 1_555
C28 C29 1_555 1_555
C29 C28A 1_555 1_555
O15 C28 1_555 1_555
H27 N1 1_555 1_555
H28 N1 1_555 1_555
H29 N2 1_555 1_555
H30 N3 1_555 1_555
H31 N3 1_555 1_555
H32 N4 1_555 1_555
C28A C28 1_555 1_555
C29A C28 1_555 1_555
O15A C28A 1_555 1_555
C5 C6 1_555 1_555
C6 C15 1_555 1_555
C16 C21 1_555 1_555
C18 C19 1_555 1_555
C20 C21 1_555 1_555
C22 C27 1_555 1_555
C24 C25 1_555 1_555
C26 C27 1_555 1_555
C28A C29A 1_555 1_555

#END
