
#######################################################################
#
#                 Cambridge Crystallographic Data Centre
#                                CCDC 
#
#######################################################################
#
# If this CIF has been generated from an entry in the Cambridge 
# Structural Database, then it will include bibliographic, chemical, 
# crystal, experimental, refinement or atomic coordinate data resulting 
# from the CCDC's data processing and validation procedures.
#
#######################################################################

data_UJUSUN
_chemical_formula_moiety         'C30 H28 N2 O2,C32 H28 N4 O4'
_chemical_name_systematic        
"(2)-(1,2-bis(2,2-Diphenylethyliminio)ethane N,N'-dioxide)-(3,7,11,15-tetra-aza-1,9(1,3)-dibenzena-5,13(1,4)-dibenzenacyclohexadecaphane-2,8,10,16-tetraone)-rotaxane"
_symmetry_cell_setting           triclinic
_symmetry_space_group_name_H-M   'P -1'
_symmetry_Int_Tables_number      2
_space_group_name_Hall           '-P 1'
loop_
_symmetry_equiv_pos_site_id
_symmetry_equiv_pos_as_xyz
1 x,y,z
2 -x,-y,-z
_cell_length_a                   12.1989(6)
_cell_length_b                   12.7110(6)
_cell_length_c                   18.6558(10)
_cell_angle_alpha                81.4610(10)
_cell_angle_beta                 70.9250(10)
_cell_angle_gamma                76.3450(10)
_cell_volume                     2648.63
_exptl_crystal_colour            colorless
_exptl_crystal_description       plates
_cell_formula_units_Z            2
loop_
_atom_site_label
_atom_site_type_symbol
_atom_site_fract_x
_atom_site_fract_y
_atom_site_fract_z
C1 C 0.9075(2) 0.3735(2) 0.46363(16)
C2 C 0.9385(3) 0.3678(2) 0.52971(17)
H1 H 1.0084 0.3907 0.5273
C3 C 0.8693(3) 0.3292(2) 0.59877(17)
H2 H 0.8921 0.3265 0.6432
C4 C 0.7673(3) 0.2944(2) 0.60415(17)
C5 C 0.7364(3) 0.2991(2) 0.53845(18)
H3 H 0.6669 0.2754 0.5409
C6 C 0.8058(3) 0.3380(2) 0.46897(17)
H4 H 0.7832 0.3404 0.4245
C7 C 0.9877(2) 0.4132(2) 0.38898(16)
H5 H 1.0203 0.4723 0.3984
H6 H 1.0551 0.3530 0.3700
N1 N 0.9312(2) 0.45272(19) 0.33007(13)
H7 H 0.9505 0.4146 0.2905
C8 C 0.8507(3) 0.5453(3) 0.33404(17)
O1 O 0.81777(18) 0.60230(16) 0.38809(11)
C9 C 0.8015(3) 0.5778(2) 0.26813(16)
C10 C 0.6854(3) 0.6344(2) 0.28246(17)
H8 H 0.6395 0.6495 0.3332
C11 C 0.6352(3) 0.6692(2) 0.22442(17)
C12 C 0.7054(3) 0.6504(3) 0.15009(18)
H9 H 0.6732 0.6767 0.1093
C13 C 0.8201(3) 0.5945(3) 0.13496(19)
H10 H 0.8667 0.5818 0.0840
C14 C 0.8684(3) 0.5565(2) 0.19383(17)
H11 H 0.9472 0.5159 0.1834
O2 O 0.47862(19) 0.80384(18) 0.19550(12)
C15 C 0.5089(3) 0.7281(3) 0.23953(18)
N2 N 0.4306(2) 0.6951(2) 0.30246(14)
H12 H 0.4540 0.6411 0.3330
C16 C 0.6933(3) 0.2519(3) 0.67960(17)
H13 H 0.7246 0.2627 0.7201
H14 H 0.6999 0.1729 0.6788
C16A C 0.3067(3) 0.7481(3) 0.32040(17)
C4A C 0.2327(3) 0.7056(2) 0.39585(17)
C3A C 0.1307(3) 0.6708(2) 0.40123(17)
C2A C 0.0615(3) 0.6322(2) 0.47029(17)
C1A C 0.0925(2) 0.6265(2) 0.53637(16)
C6A C 0.1942(3) 0.6620(2) 0.53103(17)
C5A C 0.2636(3) 0.7009(2) 0.46155(18)
H3A H 0.3331 0.7246 0.4591
H4A H 0.2168 0.6596 0.5755
C7A C 0.0123(2) 0.5868(2) 0.61102(16)
H5A H -0.0203 0.5277 0.6016
H6A H -0.0551 0.6470 0.6300
N1A N 0.0688(2) 0.54728(19) 0.66993(13)
H7A H 0.0495 0.5854 0.7095
C8A C 0.1493(3) 0.4547(3) 0.66596(17)
O1A O 0.18223(18) 0.39770(16) 0.61191(11)
C9A C 0.1985(3) 0.4222(2) 0.73187(16)
C10A C 0.3146(3) 0.3656(2) 0.71754(17)
H8A H 0.3605 0.3505 0.6668
C11A C 0.3648(3) 0.3308(2) 0.77558(17)
C12A C 0.2946(3) 0.3496(3) 0.84991(18)
H9A H 0.3268 0.3233 0.8907
C13A C 0.1799(3) 0.4055(3) 0.86504(19)
H10A H 0.1333 0.4182 0.9160
C14A C 0.1316(3) 0.4435(2) 0.80617(17)
H11A H 0.0528 0.4841 0.8166
C15A C 0.4911(3) 0.2719(3) 0.76047(18)
O2A O 0.52138(19) 0.19616(18) 0.80450(12)
N2A N 0.5694(2) 0.3049(2) 0.69754(14)
H12A H 0.5460 0.3589 0.6670
H1A H -0.0084 0.6093 0.4727
H2A H 0.1079 0.6735 0.3568
H13A H 0.2754 0.7373 0.2799
H14A H 0.3001 0.8271 0.3212
C17 C 0.5450(2) 0.5260(2) 0.50002(17)
H15 H 0.5982 0.5470 0.4530
N3 N 0.5564(2) 0.54596(18) 0.56389(14)
O3 O 0.48750(18) 0.51978(16) 0.63037(11)
C18 C 0.6491(2) 0.6019(2) 0.56404(17)
H16 H 0.7050 0.6074 0.5120
H17 H 0.6942 0.5595 0.5980
C19 C 0.5930(3) 0.7162(2) 0.59152(17)
H18 H 0.5356 0.7072 0.6433
C20 C 0.6871(3) 0.7700(2) 0.60021(17)
C21 C 0.7813(3) 0.7931(2) 0.53904(18)
H19 H 0.7907 0.7715 0.4904
C22 C 0.8621(3) 0.8469(2) 0.5471(2)
H20 H 0.9253 0.8633 0.5041
C23 C 0.8505(3) 0.8765(3) 0.6172(2)
H21 H 0.9055 0.9140 0.6230
C24 C 0.7595(3) 0.8522(3) 0.6792(2)
H22 H 0.7526 0.8712 0.7281
C25 C 0.6780(3) 0.8000(3) 0.67040(18)
H23 H 0.6145 0.7844 0.7134
C26 C 0.5240(3) 0.7887(2) 0.54180(19)
C27 C 0.5692(3) 0.7980(2) 0.46300(19)
H24 H 0.6433 0.7541 0.4387
C28 C 0.5081(3) 0.8704(3) 0.4193(2)
H25 H 0.5408 0.8765 0.3655
C29 C 0.4004(4) 0.9332(3) 0.4536(3)
H26 H 0.3585 0.9827 0.4236
C30 C 0.3537(3) 0.9245(3) 0.5304(3)
H27 H 0.2791 0.9683 0.5539
C31 C 0.4141(3) 0.8520(3) 0.5754(2)
H28 H 0.3799 0.8459 0.6291
C17A C 0.4550(2) 0.4740(2) 0.49998(17)
H15A H 0.4018 0.4530 0.5470
N3A N 0.4436(2) 0.45404(18) 0.43611(14)
O3A O 0.51250(18) 0.48022(16) 0.36963(11)
C18A C 0.3509(2) 0.3981(2) 0.43596(17)
H16A H 0.2950 0.3926 0.4880
H17A H 0.3058 0.4405 0.4020
C19A C 0.4070(3) 0.2838(2) 0.40848(17)
H18A H 0.4644 0.2928 0.3567
C20A C 0.3129(3) 0.2300(2) 0.39979(17)
C21A C 0.2187(3) 0.2069(2) 0.46096(18)
H19A H 0.2093 0.2285 0.5096
C22A C 0.1379(3) 0.1531(2) 0.4529(2)
H20A H 0.0747 0.1367 0.4959
C23A C 0.1495(3) 0.1235(3) 0.3828(2)
H21A H 0.0945 0.0860 0.3770
C24A C 0.2405(3) 0.1478(3) 0.3208(2)
H22A H 0.2474 0.1288 0.2719
C25A C 0.3220(3) 0.2000(3) 0.32960(18)
H23A H 0.3855 0.2156 0.2866
C26A C 0.4760(3) 0.2113(2) 0.45820(19)
C27A C 0.4308(3) 0.2020(2) 0.53700(19)
H24A H 0.3567 0.2459 0.5613
C28A C 0.4919(3) 0.1296(3) 0.5807(2)
H25A H 0.4592 0.1235 0.6345
C29A C 0.5996(4) 0.0668(3) 0.5464(3)
H26A H 0.6415 0.0173 0.5764
C30A C 0.6463(3) 0.0755(3) 0.4696(3)
H27A H 0.7209 0.0317 0.4461
C31A C 0.5859(3) 0.1480(3) 0.4246(2)
H28A H 0.6201 0.1541 0.3709
C32 C -0.2200(3) 0.2109(3) 0.18281(17)
C33 C -0.3230(3) 0.2735(3) 0.17203(18)
H29 H -0.3386 0.3498 0.1751
C34 C -0.4043(3) 0.2271(2) 0.15674(17)
H30 H -0.4742 0.2718 0.1486
C35 C -0.3840(3) 0.1151(2) 0.15323(16)
C36 C -0.2801(3) 0.0531(3) 0.16232(17)
H31 H -0.2639 -0.0231 0.1587
C37 C -0.1985(3) 0.1000(3) 0.17667(18)
H32 H -0.1269 0.0556 0.1824
C38 C -0.1352(3) 0.2622(3) 0.20297(19)
H33 H -0.1670 0.3412 0.2059
H34 H -0.1289 0.2311 0.2537
N4 N -0.0177(2) 0.2448(2) 0.14744(14)
H35 H -0.0063 0.2161 0.1048
C39 C 0.0726(3) 0.2721(2) 0.16074(19)
O4 O 0.06016(18) 0.31532(18) 0.21901(12)
C40 C 0.1908(3) 0.2478(2) 0.10301(16)
C41 C 0.2278(3) 0.1526(2) 0.06581(16)
H36 H 0.1773 0.1017 0.0781
C42 C 0.3370(2) 0.1311(2) 0.01116(15)
C43 C 0.4118(3) 0.2045(2) -0.00593(16)
H37 H 0.4865 0.1912 -0.0439
C44 C 0.3760(3) 0.2982(2) 0.03340(17)
H38 H 0.4275 0.3479 0.0227
C45 C 0.2670(3) 0.3194(2) 0.08736(17)
H39 H 0.2439 0.3832 0.1139
C46 C 0.3701(3) 0.0269(2) -0.02644(17)
O5 O 0.33547(17) -0.05564(15) 0.00942(11)
N5 N 0.4356(2) 0.02932(19) -0.09917(13)
H40 H 0.4539 0.0914 -0.1219
C47 C -0.4782(3) 0.0657(2) 0.14267(17)
H41 H -0.5273 0.1219 0.1171
H42 H -0.5302 0.0456 0.1935
C47A C 0.4782(3) -0.0657(2) -0.14267(17)
C35A C 0.3840(3) -0.1151(2) -0.15323(16)
C34A C 0.4043(3) -0.2271(2) -0.15674(17)
C33A C 0.3230(3) -0.2735(3) -0.17203(18)
C32A C 0.2200(3) -0.2109(3) -0.18281(17)
C37A C 0.1985(3) -0.1000(3) -0.17667(18)
C36A C 0.2801(3) -0.0531(3) -0.16232(17)
H31A H 0.2639 0.0231 -0.1587
H32A H 0.1269 -0.0556 -0.1824
C38A C 0.1352(3) -0.2622(3) -0.20297(19)
H33A H 0.1670 -0.3412 -0.2059
H34A H 0.1289 -0.2311 -0.2537
N4A N 0.0177(2) -0.2448(2) -0.14744(14)
H35A H 0.0063 -0.2161 -0.1048
C39A C -0.0726(3) -0.2721(2) -0.16074(19)
O4A O -0.06016(18) -0.31532(18) -0.21901(12)
C40A C -0.1908(3) -0.2478(2) -0.10301(16)
C41A C -0.2278(3) -0.1526(2) -0.06581(16)
H36A H -0.1773 -0.1017 -0.0781
C42A C -0.3370(2) -0.1311(2) -0.01116(15)
C43A C -0.4118(3) -0.2045(2) 0.00593(16)
H37A H -0.4865 -0.1912 0.0439
C44A C -0.3760(3) -0.2982(2) -0.03340(17)
H38A H -0.4275 -0.3479 -0.0227
C45A C -0.2670(3) -0.3194(2) -0.08736(17)
H39A H -0.2439 -0.3832 -0.1139
C46A C -0.3701(3) -0.0269(2) 0.02644(17)
O5A O -0.33547(17) 0.05564(15) -0.00942(11)
N5A N -0.4356(2) -0.02932(19) 0.09917(13)
H40A H -0.4539 -0.0914 0.1219
H29A H 0.3386 -0.3498 -0.1751
H30A H 0.4742 -0.2718 -0.1486
H41A H 0.5273 -0.1219 -0.1171
H42A H 0.5302 -0.0456 -0.1935
C48 C 0.0477(3) -0.0360(2) 0.01029(16)
H43 H 0.1078 -0.0070 0.0179
N6 N 0.0546(2) -0.1415(2) 0.01896(13)
O6 O -0.02211(18) -0.18772(16) 0.00848(11)
C49 C 0.1531(3) -0.2135(2) 0.04205(16)
H44 H 0.2137 -0.1715 0.0386
H45 H 0.1905 -0.2720 0.0069
C50 C 0.1098(3) -0.2634(2) 0.12307(16)
H46 H 0.0450 -0.3007 0.1253
C51 C 0.0589(3) -0.1811(2) 0.18280(17)
C52 C -0.0497(3) -0.1832(2) 0.23726(19)
H47 H -0.0959 -0.2318 0.2338
C53 C -0.0929(3) -0.1158(3) 0.2968(2)
H48 H -0.1673 -0.1189 0.3339
C54 C -0.0269(3) -0.0445(3) 0.3016(2)
H49 H -0.0551 0.0015 0.3423
C55 C 0.0799(3) -0.0405(3) 0.2472(2)
H50 H 0.1245 0.0100 0.2499
C56 C 0.1235(3) -0.1082(2) 0.18889(18)
H51 H 0.1985 -0.1050 0.1525
C57 C 0.2070(3) -0.3498(2) 0.14542(17)
C58 C 0.1738(3) -0.4249(2) 0.20593(17)
H52 H 0.0921 -0.4252 0.2299
C59 C 0.2580(3) -0.4997(3) 0.23202(18)
H53 H 0.2336 -0.5514 0.2732
C60 C 0.3757(3) -0.4995(3) 0.1989(2)
H54 H 0.4332 -0.5495 0.2177
C61 C 0.4100(3) -0.4267(3) 0.1386(2)
H55 H 0.4919 -0.4272 0.1147
C62 C 0.3259(3) -0.3517(3) 0.1117(2)
H56 H 0.3510 -0.3014 0.0697
C48A C -0.0477(3) 0.0360(2) -0.01029(16)
H43A H -0.1078 0.0070 -0.0179
N6A N -0.0546(2) 0.1415(2) -0.01896(13)
O6A O 0.02211(18) 0.18772(16) -0.00848(11)
C49A C -0.1531(3) 0.2135(2) -0.04205(16)
H44A H -0.2137 0.1715 -0.0386
H45A H -0.1905 0.2720 -0.0069
C50A C -0.1098(3) 0.2634(2) -0.12307(16)
H46A H -0.0450 0.3007 -0.1253
C51A C -0.0589(3) 0.1811(2) -0.18280(17)
C52A C 0.0497(3) 0.1832(2) -0.23726(19)
H47A H 0.0959 0.2318 -0.2338
C53A C 0.0929(3) 0.1158(3) -0.2968(2)
H48A H 0.1673 0.1189 -0.3339
C54A C 0.0269(3) 0.0445(3) -0.3016(2)
H49A H 0.0551 -0.0015 -0.3423
C55A C -0.0799(3) 0.0405(3) -0.2472(2)
H50A H -0.1245 -0.0100 -0.2499
C56A C -0.1235(3) 0.1082(2) -0.18889(18)
H51A H -0.1985 0.1050 -0.1525
C57A C -0.2070(3) 0.3498(2) -0.14542(17)
C58A C -0.1738(3) 0.4249(2) -0.20593(17)
H52A H -0.0921 0.4252 -0.2299
C59A C -0.2580(3) 0.4997(3) -0.23202(18)
H53A H -0.2336 0.5514 -0.2732
C60A C -0.3757(3) 0.4995(3) -0.1989(2)
H54A H -0.4332 0.5495 -0.2177
C61A C -0.4100(3) 0.4267(3) -0.1386(2)
H55A H -0.4919 0.4272 -0.1147
C62A C -0.3259(3) 0.3517(3) -0.1117(2)
H56A H -0.3510 0.3014 -0.0697
loop_
_geom_bond_atom_site_label_1
_geom_bond_atom_site_label_2
_geom_bond_site_symmetry_1
_geom_bond_site_symmetry_2
C1 C2 1_555 1_555
C2 H1 1_555 1_555
C3 C2 1_555 1_555
H2 C3 1_555 1_555
C4 C3 1_555 1_555
C5 C4 1_555 1_555
H3 C5 1_555 1_555
C6 C1 1_555 1_555
H4 C6 1_555 1_555
C7 C1 1_555 1_555
H5 C7 1_555 1_555
H6 C7 1_555 1_555
N1 C7 1_555 1_555
H7 N1 1_555 1_555
C8 N1 1_555 1_555
O1 C8 1_555 1_555
C9 C8 1_555 1_555
C10 C9 1_555 1_555
H8 C10 1_555 1_555
C11 C10 1_555 1_555
C12 C11 1_555 1_555
H9 C12 1_555 1_555
C13 C12 1_555 1_555
H10 C13 1_555 1_555
C14 C9 1_555 1_555
H11 C14 1_555 1_555
O2 C15 1_555 1_555
C15 C11 1_555 1_555
N2 C15 1_555 1_555
H12 N2 1_555 1_555
C16 C4 1_555 1_555
H13 C16 1_555 1_555
H14 C16 1_555 1_555
C17 H15 1_555 1_555
N3 C17 1_555 1_555
O3 N3 1_555 1_555
C18 N3 1_555 1_555
H16 C18 1_555 1_555
H17 C18 1_555 1_555
C19 C18 1_555 1_555
H18 C19 1_555 1_555
C20 C19 1_555 1_555
C21 C20 1_555 1_555
H19 C21 1_555 1_555
C22 C21 1_555 1_555
H20 C22 1_555 1_555
C23 C22 1_555 1_555
H21 C23 1_555 1_555
C24 C23 1_555 1_555
H22 C24 1_555 1_555
C25 C20 1_555 1_555
H23 C25 1_555 1_555
C26 C19 1_555 1_555
C27 C26 1_555 1_555
H24 C27 1_555 1_555
C28 C27 1_555 1_555
H25 C28 1_555 1_555
C29 C28 1_555 1_555
H26 C29 1_555 1_555
C30 C29 1_555 1_555
H27 C30 1_555 1_555
C31 C26 1_555 1_555
H28 C31 1_555 1_555
C32 C33 1_555 1_555
C33 H29 1_555 1_555
C34 C33 1_555 1_555
H30 C34 1_555 1_555
C35 C34 1_555 1_555
C36 C35 1_555 1_555
H31 C36 1_555 1_555
C37 C32 1_555 1_555
H32 C37 1_555 1_555
C38 C32 1_555 1_555
H33 C38 1_555 1_555
H34 C38 1_555 1_555
N4 C38 1_555 1_555
H35 N4 1_555 1_555
C39 N4 1_555 1_555
O4 C39 1_555 1_555
C40 C39 1_555 1_555
C41 C40 1_555 1_555
H36 C41 1_555 1_555
C42 C41 1_555 1_555
C43 C42 1_555 1_555
H37 C43 1_555 1_555
C44 C43 1_555 1_555
H38 C44 1_555 1_555
C45 C40 1_555 1_555
H39 C45 1_555 1_555
C46 C42 1_555 1_555
O5 C46 1_555 1_555
N5 C46 1_555 1_555
H40 N5 1_555 1_555
C47 C35 1_555 1_555
H41 C47 1_555 1_555
H42 C47 1_555 1_555
C48 H43 1_555 1_555
N6 C48 1_555 1_555
O6 N6 1_555 1_555
C49 N6 1_555 1_555
H44 C49 1_555 1_555
H45 C49 1_555 1_555
C50 C49 1_555 1_555
H46 C50 1_555 1_555
C51 C50 1_555 1_555
C52 C51 1_555 1_555
H47 C52 1_555 1_555
C53 C52 1_555 1_555
H48 C53 1_555 1_555
C54 C53 1_555 1_555
H49 C54 1_555 1_555
C55 C54 1_555 1_555
H50 C55 1_555 1_555
C56 C51 1_555 1_555
H51 C56 1_555 1_555
C57 C50 1_555 1_555
C58 C57 1_555 1_555
H52 C58 1_555 1_555
C59 C58 1_555 1_555
H53 C59 1_555 1_555
C60 C59 1_555 1_555
H54 C60 1_555 1_555
C61 C60 1_555 1_555
H55 C61 1_555 1_555
C62 C57 1_555 1_555
H56 C62 1_555 1_555
C16A N2 1_555 1_555
C4A C16A 1_555 1_555
C3A C4A 1_555 1_555
C2A C3A 1_555 1_555
C1A C2A 1_555 1_555
C6A C1A 1_555 1_555
C5A C4A 1_555 1_555
H3A C5A 1_555 1_555
H4A C6A 1_555 1_555
C7A C1A 1_555 1_555
H5A C7A 1_555 1_555
H6A C7A 1_555 1_555
N1A C7A 1_555 1_555
H7A N1A 1_555 1_555
C8A N1A 1_555 1_555
O1A C8A 1_555 1_555
C9A C8A 1_555 1_555
C10A C9A 1_555 1_555
H8A C10A 1_555 1_555
C11A C10A 1_555 1_555
C12A C11A 1_555 1_555
H9A C12A 1_555 1_555
C13A C12A 1_555 1_555
H10A C13A 1_555 1_555
C14A C9A 1_555 1_555
H11A C14A 1_555 1_555
C15A C11A 1_555 1_555
O2A C15A 1_555 1_555
N2A C16 1_555 1_555
H12A N2A 1_555 1_555
H1A C2A 1_555 1_555
H2A C3A 1_555 1_555
H13A C16A 1_555 1_555
H14A C16A 1_555 1_555
C17A C17 1_555 1_555
H15A C17A 1_555 1_555
N3A C17A 1_555 1_555
O3A N3A 1_555 1_555
C18A N3A 1_555 1_555
H16A C18A 1_555 1_555
H17A C18A 1_555 1_555
C19A C18A 1_555 1_555
H18A C19A 1_555 1_555
C20A C19A 1_555 1_555
C21A C20A 1_555 1_555
H19A C21A 1_555 1_555
C22A C21A 1_555 1_555
H20A C22A 1_555 1_555
C23A C22A 1_555 1_555
H21A C23A 1_555 1_555
C24A C23A 1_555 1_555
H22A C24A 1_555 1_555
C25A C20A 1_555 1_555
H23A C25A 1_555 1_555
C26A C19A 1_555 1_555
C27A C26A 1_555 1_555
H24A C27A 1_555 1_555
C28A C27A 1_555 1_555
H25A C28A 1_555 1_555
C29A C28A 1_555 1_555
H26A C29A 1_555 1_555
C30A C29A 1_555 1_555
H27A C30A 1_555 1_555
C31A C26A 1_555 1_555
H28A C31A 1_555 1_555
C47A N5 1_555 1_555
C35A C47A 1_555 1_555
C34A C35A 1_555 1_555
C33A C34A 1_555 1_555
C32A C33A 1_555 1_555
C37A C32A 1_555 1_555
C36A C35A 1_555 1_555
H31A C36A 1_555 1_555
H32A C37A 1_555 1_555
C38A C32A 1_555 1_555
H33A C38A 1_555 1_555
H34A C38A 1_555 1_555
N4A C38A 1_555 1_555
H35A N4A 1_555 1_555
C39A N4A 1_555 1_555
O4A C39A 1_555 1_555
C40A C39A 1_555 1_555
C41A C40A 1_555 1_555
H36A C41A 1_555 1_555
C42A C41A 1_555 1_555
C43A C42A 1_555 1_555
H37A C43A 1_555 1_555
C44A C43A 1_555 1_555
H38A C44A 1_555 1_555
C45A C40A 1_555 1_555
H39A C45A 1_555 1_555
C46A C42A 1_555 1_555
O5A C46A 1_555 1_555
N5A C47 1_555 1_555
H40A N5A 1_555 1_555
H29A C33A 1_555 1_555
H30A C34A 1_555 1_555
H41A C47A 1_555 1_555
H42A C47A 1_555 1_555
C48A C48 1_555 1_555
H43A C48A 1_555 1_555
N6A C48A 1_555 1_555
O6A N6A 1_555 1_555
C49A N6A 1_555 1_555
H44A C49A 1_555 1_555
H45A C49A 1_555 1_555
C50A C49A 1_555 1_555
H46A C50A 1_555 1_555
C51A C50A 1_555 1_555
C52A C51A 1_555 1_555
H47A C52A 1_555 1_555
C53A C52A 1_555 1_555
H48A C53A 1_555 1_555
C54A C53A 1_555 1_555
H49A C54A 1_555 1_555
C55A C54A 1_555 1_555
H50A C55A 1_555 1_555
C56A C51A 1_555 1_555
H51A C56A 1_555 1_555
C57A C50A 1_555 1_555
C58A C57A 1_555 1_555
H52A C58A 1_555 1_555
C59A C58A 1_555 1_555
H53A C59A 1_555 1_555
C60A C59A 1_555 1_555
H54A C60A 1_555 1_555
C61A C60A 1_555 1_555
H55A C61A 1_555 1_555
C62A C57A 1_555 1_555
H56A C62A 1_555 1_555
C5 C6 1_555 1_555
C13 C14 1_555 1_555
C24 C25 1_555 1_555
C30 C31 1_555 1_555
C36 C37 1_555 1_555
C44 C45 1_555 1_555
C55 C56 1_555 1_555
C61 C62 1_555 1_555
C6A C5A 1_555 1_555
C13A C14A 1_555 1_555
C15A N2A 1_555 1_555
C24A C25A 1_555 1_555
C30A C31A 1_555 1_555
C37A C36A 1_555 1_555
C44A C45A 1_555 1_555
C46A N5A 1_555 1_555
C55A C56A 1_555 1_555
C61A C62A 1_555 1_555

#END
