
#######################################################################
#
#                 Cambridge Crystallographic Data Centre
#                                CCDC 
#
#######################################################################
#
# If this CIF has been generated from an entry in the Cambridge 
# Structural Database, then it will include bibliographic, chemical, 
# crystal, experimental, refinement or atomic coordinate data resulting 
# from the CCDC's data processing and validation procedures.
#
#######################################################################

data_UJUZUU
_chemical_formula_moiety         'C21 H22 O8'
_chemical_name_systematic        
13-Acetyl-2-methoxy-12-methyl-7-phenyl-3,6,8,11,16-pentaoxatetracyclo(8.3.3.0^1,10^.0^4,9^)hexadec-12-en-15-one
_symmetry_cell_setting           monoclinic
_symmetry_space_group_name_H-M   'P 21'
_symmetry_Int_Tables_number      4
_space_group_name_Hall           'P 2yb'
loop_
_symmetry_equiv_pos_site_id
_symmetry_equiv_pos_as_xyz
1 x,y,z
2 -x,1/2+y,-z
_cell_length_a                   8.8818(18)
_cell_length_b                   8.5242(17)
_cell_length_c                   13.488(3)
_cell_angle_alpha                90
_cell_angle_beta                 103.36(3)
_cell_angle_gamma                90
_cell_volume                     993.544
_exptl_crystal_colour            colorless
_exptl_crystal_description       prismatic
_cell_formula_units_Z            2
loop_
_atom_site_label
_atom_site_type_symbol
_atom_site_fract_x
_atom_site_fract_y
_atom_site_fract_z
O1 O 0.72565(19) 0.9150(2) 1.27682(12)
O2 O 1.29473(19) 0.8610(2) 1.11951(16)
O3 O 1.05166(16) 0.94336(18) 1.05968(12)
O4 O 0.73183(16) 0.89412(17) 0.92631(11)
O5 O 0.73900(18) 0.70378(17) 1.16935(12)
O6 O 0.50409(18) 0.7480(2) 0.91143(12)
O7 O 1.0723(3) 0.9727(3) 1.41317(16)
O8 O 0.85292(17) 1.09889(16) 1.08279(11)
C1 C 0.8228(3) 0.8079(3) 1.24436(18)
H1 H 0.8749 0.7455 1.3034
C2 C 0.9480(3) 0.9014(3) 1.20576(17)
C3 C 0.9064(2) 0.9427(3) 1.09084(16)
C4 C 0.7934(2) 0.8311(3) 1.02480(16)
H2 H 0.8504 0.7355 1.0162
C5 C 0.6664(3) 0.7851(3) 1.07793(17)
H3 H 0.6121 0.8785 1.0939
C6 C 0.5549(3) 0.6754(3) 1.0095(2)
H4 H 0.6057 0.5766 1.0027
H5 H 0.4669 0.6545 1.0387
C7 C 0.6172(3) 0.8397(5) 1.3256(2)
H6 H 0.5519 0.9175 1.3457
H7 H 0.6724 0.7839 1.3846
H8 H 0.5547 0.7675 1.2789
C8 C 1.0980(3) 0.8078(3) 1.2144(2)
H9 H 1.1684 0.8252 1.2801
H10 H 1.0765 0.6964 1.2061
C9 C 0.8845(3) 1.3418(3) 1.1717(2)
H11 H 0.8354 1.3716 1.1032
H12 H 0.9823 1.3945 1.1922
H13 H 0.8197 1.3707 1.2166
C10 C 0.9098(3) 1.1693(3) 1.17642(18)
C11 C 0.6297(3) 0.7809(3) 0.86638(18)
H14 H 0.6872 0.6839 0.8625
C12 C 0.5686(3) 0.8430(3) 0.76091(18)
C13 C 0.4389(4) 0.7788(5) 0.6980(2)
H15 H 0.3863 0.6985 0.7223
C14 C 0.3853(4) 0.8321(6) 0.5990(2)
H16 H 0.2966 0.7881 0.5580
C15 C 0.4604(4) 0.9471(5) 0.5616(2)
H17 H 0.4249 0.9815 0.4948
C16 C 0.5877(4) 1.0119(4) 0.6221(2)
H18 H 0.6397 1.0916 0.5967
C17 C 0.6417(3) 0.9611(4) 0.7216(2)
H19 H 0.7290 1.0079 0.7623
C18 C 1.1648(3) 0.8687(3) 1.1304(2)
C19 C 0.9718(3) 1.0657(3) 1.24998(17)
C20 C 1.0377(3) 1.0881(4) 1.3594(2)
C21 C 1.0622(5) 1.2502(5) 1.4054(2)
H20 H 1.1055 1.2419 1.4773
H21 H 0.9649 1.3042 1.3939
H22 H 1.1320 1.3077 1.3741
loop_
_geom_bond_atom_site_label_1
_geom_bond_atom_site_label_2
_geom_bond_site_symmetry_1
_geom_bond_site_symmetry_2
O1 C1 1_555 1_555
O2 C18 1_555 1_555
O3 C3 1_555 1_555
O4 C4 1_555 1_555
O5 C1 1_555 1_555
O6 C6 1_555 1_555
O7 C20 1_555 1_555
O8 C3 1_555 1_555
C1 H1 1_555 1_555
C2 C1 1_555 1_555
C3 C2 1_555 1_555
C4 C3 1_555 1_555
H2 C4 1_555 1_555
C5 O5 1_555 1_555
H3 C5 1_555 1_555
C6 C5 1_555 1_555
H4 C6 1_555 1_555
H5 C6 1_555 1_555
C7 O1 1_555 1_555
H6 C7 1_555 1_555
H7 C7 1_555 1_555
H8 C7 1_555 1_555
C8 C2 1_555 1_555
H9 C8 1_555 1_555
H10 C8 1_555 1_555
C9 H11 1_555 1_555
H12 C9 1_555 1_555
H13 C9 1_555 1_555
C10 O8 1_555 1_555
C11 O4 1_555 1_555
H14 C11 1_555 1_555
C12 C11 1_555 1_555
C13 C12 1_555 1_555
H15 C13 1_555 1_555
C14 C13 1_555 1_555
H16 C14 1_555 1_555
C15 C14 1_555 1_555
H17 C15 1_555 1_555
C16 C15 1_555 1_555
H18 C16 1_555 1_555
C17 C12 1_555 1_555
H19 C17 1_555 1_555
C18 O3 1_555 1_555
C19 C2 1_555 1_555
C20 C19 1_555 1_555
C21 C20 1_555 1_555
H20 C21 1_555 1_555
H21 C21 1_555 1_555
H22 C21 1_555 1_555
O6 C11 1_555 1_555
C4 C5 1_555 1_555
C8 C18 1_555 1_555
C9 C10 1_555 1_555
C10 C19 1_555 1_555
C16 C17 1_555 1_555

#END
