
#######################################################################
#
#                 Cambridge Crystallographic Data Centre
#                                CCDC 
#
#######################################################################
#
# If this CIF has been generated from an entry in the Cambridge 
# Structural Database, then it will include bibliographic, chemical, 
# crystal, experimental, refinement or atomic coordinate data resulting 
# from the CCDC's data processing and validation procedures.
#
#######################################################################

data_UKABAJ
_chemical_formula_moiety         'C18 H19 N1 O8'
_chemical_name_systematic        
'2-Methoxy-13-methyl-7-phenyl-3,6,8,11,16-pentaoxa-12-azatetracyclo(8.3.3.0^1,10^.0^4,9^)hexadec-12-en-15-one N-oxide'
_symmetry_cell_setting           orthorhombic
_symmetry_space_group_name_H-M   'P 21 21 21'
_symmetry_Int_Tables_number      19
_space_group_name_Hall           'P 2ac 2ab'
loop_
_symmetry_equiv_pos_site_id
_symmetry_equiv_pos_as_xyz
1 x,y,z
2 1/2-x,-y,1/2+z
3 -x,1/2+y,1/2-z
4 1/2+x,1/2-y,-z
_cell_length_a                   11.070(2)
_cell_length_b                   19.530(4)
_cell_length_c                   8.6828(17)
_cell_angle_alpha                90
_cell_angle_beta                 90
_cell_angle_gamma                90
_cell_volume                     1877.2
_exptl_crystal_colour            colorless
_exptl_crystal_description       prismatic
_cell_formula_units_Z            4
loop_
_atom_site_label
_atom_site_type_symbol
_atom_site_fract_x
_atom_site_fract_y
_atom_site_fract_z
O1 O 0.4019(3) 0.24886(15) 0.1391(3)
O2 O 0.5682(3) 0.2075(2) 0.7821(3)
O3 O 0.6460(2) 0.20555(15) 0.5460(3)
O4 O 0.7305(2) 0.11676(14) 0.2805(3)
O5 O 0.4050(2) 0.13830(14) 0.2398(3)
O6 O 0.6590(3) 0.03803(16) 0.0984(3)
O7 O 0.6748(2) 0.24959(14) 0.3023(3)
O8 O 0.6784(3) 0.36725(18) 0.2880(4)
N1 N 0.6138(3) 0.31767(19) 0.3231(4)
C1 C 0.3862(4) 0.2092(2) 0.2709(4)
H1 H 0.3034 0.2154 0.3083
C2 C 0.4745(4) 0.2363(2) 0.3940(4)
C3 C 0.6040(3) 0.2051(2) 0.3873(4)
C4 C 0.6095(4) 0.1336(2) 0.3235(4)
H2 H 0.5838 0.1018 0.4044
C5 C 0.5255(4) 0.1254(2) 0.1875(5)
H3 H 0.5476 0.1567 0.1040
C6 C 0.5354(4) 0.0512(2) 0.1358(5)
H4 H 0.5090 0.0209 0.2175
H5 H 0.4847 0.0435 0.0463
C7 C 0.3162(5) 0.2325(3) 0.0184(5)
H6 H 0.3317 0.2607 -0.0698
H7 H 0.2356 0.2406 0.0549
H8 H 0.3246 0.1851 -0.0096
C8 C 0.4360(4) 0.2201(2) 0.5586(4)
H9 H 0.3882 0.2573 0.6009
H10 H 0.3883 0.1785 0.5618
C9 C 0.5044(4) 0.3102(2) 0.3719(5)
C10 C 0.4245(5) 0.3699(3) 0.3950(6)
H11 H 0.4676 0.4111 0.3696
H12 H 0.3992 0.3717 0.5006
H13 H 0.3550 0.3657 0.3296
C11 C 0.7365(4) 0.0472(2) 0.2253(5)
H14 H 0.7132 0.0157 0.3081
C12 C 0.8651(4) 0.0334(2) 0.1785(5)
C13 C 0.9233(5) -0.0239(3) 0.2328(5)
H15 H 0.8825 -0.0545 0.2963
C14 C 1.0427(6) -0.0363(3) 0.1934(6)
H16 H 1.0824 -0.0746 0.2320
C15 C 1.1018(6) 0.0078(4) 0.0980(8)
H17 H 1.1826 0.0002 0.0740
C16 C 1.0431(7) 0.0629(4) 0.0373(9)
H18 H 1.0831 0.0916 -0.0313
C17 C 0.9245(6) 0.0766(3) 0.0771(7)
H19 H 0.8849 0.1145 0.0360
C18 C 0.5505(4) 0.2115(2) 0.6475(5)
loop_
_geom_bond_atom_site_label_1
_geom_bond_atom_site_label_2
_geom_bond_site_symmetry_1
_geom_bond_site_symmetry_2
O1 C1 1_555 1_555
O2 C18 1_555 1_555
O3 C3 1_555 1_555
O4 C4 1_555 1_555
O5 C1 1_555 1_555
O6 C6 1_555 1_555
O7 N1 1_555 1_555
O8 N1 1_555 1_555
N1 C9 1_555 1_555
C1 H1 1_555 1_555
C2 C1 1_555 1_555
C3 O7 1_555 1_555
C4 C3 1_555 1_555
H2 C4 1_555 1_555
C5 O5 1_555 1_555
H3 C5 1_555 1_555
C6 C5 1_555 1_555
H4 C6 1_555 1_555
H5 C6 1_555 1_555
C7 O1 1_555 1_555
H6 C7 1_555 1_555
H7 C7 1_555 1_555
H8 C7 1_555 1_555
C8 C2 1_555 1_555
H9 C8 1_555 1_555
H10 C8 1_555 1_555
C9 C2 1_555 1_555
C10 C9 1_555 1_555
H11 C10 1_555 1_555
H12 C10 1_555 1_555
H13 C10 1_555 1_555
C11 O4 1_555 1_555
H14 C11 1_555 1_555
C12 C11 1_555 1_555
C13 C12 1_555 1_555
H15 C13 1_555 1_555
C14 C13 1_555 1_555
H16 C14 1_555 1_555
C15 C14 1_555 1_555
H17 C15 1_555 1_555
C16 C15 1_555 1_555
H18 C16 1_555 1_555
C17 C12 1_555 1_555
H19 C17 1_555 1_555
C18 O3 1_555 1_555
O6 C11 1_555 1_555
C2 C3 1_555 1_555
C4 C5 1_555 1_555
C8 C18 1_555 1_555
C16 C17 1_555 1_555

#END
