
#######################################################################
#
#                 Cambridge Crystallographic Data Centre
#                                CCDC 
#
#######################################################################
#
# If this CIF has been generated from an entry in the Cambridge 
# Structural Database, then it will include bibliographic, chemical, 
# crystal, experimental, refinement or atomic coordinate data resulting 
# from the CCDC's data processing and validation procedures.
#
#######################################################################

data_UKAJUN
_chemical_formula_moiety         'C24 H17 N4 O3 P1'
_chemical_name_systematic        
4-Nitro-7-((triphenylphosphoranylidene)amino)-2,1,3-benzoxadiazole
_symmetry_cell_setting           monoclinic
_symmetry_space_group_name_H-M   'P 21/n'
_symmetry_Int_Tables_number      14
_space_group_name_Hall           '-P 2yn'
loop_
_symmetry_equiv_pos_site_id
_symmetry_equiv_pos_as_xyz
1 x,y,z
2 1/2-x,1/2+y,1/2-z
3 -x,-y,-z
4 1/2+x,1/2-y,1/2+z
_cell_length_a                   11.9130(5)
_cell_length_b                   8.4877(3)
_cell_length_c                   21.1543(9)
_cell_angle_alpha                90
_cell_angle_beta                 104.3910(10)
_cell_angle_gamma                90
_cell_volume                     2071.88
_exptl_crystal_colour            orange
_exptl_crystal_description       Block
_cell_formula_units_Z            4
loop_
_atom_site_label
_atom_site_type_symbol
_atom_site_fract_x
_atom_site_fract_y
_atom_site_fract_z
P1 P 0.44643(2) 0.65985(4) 0.108701(13)
O1 O 0.08446(9) 0.40044(15) -0.10029(5)
O2 O -0.09614(12) 0.13889(19) 0.00844(8)
O3 O -0.04089(11) 0.13547(18) 0.11424(7)
N1 N 0.34705(8) 0.58131(13) 0.05210(5)
N2 N 0.17842(10) 0.47741(16) -0.06124(5)
N3 N 0.02435(10) 0.31101(16) -0.06450(6)
N4 N -0.02952(11) 0.17747(16) 0.06010(8)
C1 C 0.26136(9) 0.48496(13) 0.05821(5)
C2 C 0.23802(11) 0.42287(16) 0.11454(6)
H1 H 0.2874 0.4480 0.1547
C3 C 0.14319(11) 0.32417(16) 0.11325(7)
H2 H 0.1321 0.2886 0.1528
C4 C 0.06593(10) 0.27712(16) 0.05701(7)
C5 C 0.08248(10) 0.33298(14) -0.00333(6)
C6 C 0.17837(9) 0.43665(14) -0.00182(5)
C7 C 0.38857(11) 0.79831(15) 0.15731(6)
C8 C 0.27079(12) 0.83366(16) 0.13917(7)
H3 H 0.2226 0.7816 0.1040
C9 C 0.22507(16) 0.9458(2) 0.17318(8)
H4 H 0.1462 0.9681 0.1612
C10 C 0.29654(19) 1.0247(2) 0.22488(8)
H5 H 0.2658 1.1019 0.2469
C11 C 0.41234(19) 0.9901(2) 0.24391(8)
H6 H 0.4597 1.0432 0.2790
C12 C 0.45949(14) 0.8761(2) 0.21109(7)
H7 H 0.5379 0.8514 0.2247
C13 C 0.53877(10) 0.52354(15) 0.16400(6)
C14 C 0.52051(13) 0.4849(2) 0.22505(7)
H8 H 0.4659 0.5397 0.2411
C15 C 0.58424(17) 0.3646(2) 0.26147(8)
H9 H 0.5725 0.3389 0.3021
C16 C 0.66525(17) 0.2827(2) 0.23759(9)
H10 H 0.7056 0.1995 0.2615
C17 C 0.68673(15) 0.3236(2) 0.17841(9)
H11 H 0.7432 0.2705 0.1633
C18 C 0.62379(12) 0.44393(17) 0.14171(7)
H12 H 0.6384 0.4718 0.1020
C19 C 0.53727(10) 0.76296(14) 0.06630(6)
C20 C 0.63795(12) 0.83850(18) 0.10045(7)
H13 H 0.6587 0.8368 0.1458
C21 C 0.70744(12) 0.91647(19) 0.06649(8)
H14 H 0.7745 0.9675 0.0892
C22 C 0.67710(12) 0.91824(17) -0.00077(8)
H15 H 0.7242 0.9695 -0.0233
C23 C 0.57761(13) 0.84472(17) -0.03461(7)
H16 H 0.5575 0.8466 -0.0800
C24 C 0.50679(11) 0.76751(16) -0.00137(6)
H17 H 0.4390 0.7189 -0.0245
loop_
_geom_bond_atom_site_label_1
_geom_bond_atom_site_label_2
_geom_bond_site_symmetry_1
_geom_bond_site_symmetry_2
P1 N1 1_555 1_555
O1 N2 1_555 1_555
O2 N4 1_555 1_555
O3 N4 1_555 1_555
N1 C1 1_555 1_555
N2 C6 1_555 1_555
N3 O1 1_555 1_555
N4 C4 1_555 1_555
C1 C2 1_555 1_555
C2 H1 1_555 1_555
C3 C2 1_555 1_555
H2 C3 1_555 1_555
C4 C3 1_555 1_555
C5 N3 1_555 1_555
C6 C1 1_555 1_555
C7 P1 1_555 1_555
C8 C7 1_555 1_555
H3 C8 1_555 1_555
C9 C8 1_555 1_555
H4 C9 1_555 1_555
C10 C9 1_555 1_555
H5 C10 1_555 1_555
C11 C10 1_555 1_555
H6 C11 1_555 1_555
C12 C7 1_555 1_555
H7 C12 1_555 1_555
C13 P1 1_555 1_555
C14 C13 1_555 1_555
H8 C14 1_555 1_555
C15 C14 1_555 1_555
H9 C15 1_555 1_555
C16 C15 1_555 1_555
H10 C16 1_555 1_555
C17 C16 1_555 1_555
H11 C17 1_555 1_555
C18 C13 1_555 1_555
H12 C18 1_555 1_555
C19 P1 1_555 1_555
C20 C19 1_555 1_555
H13 C20 1_555 1_555
C21 C20 1_555 1_555
H14 C21 1_555 1_555
C22 C21 1_555 1_555
H15 C22 1_555 1_555
C23 C22 1_555 1_555
H16 C23 1_555 1_555
C24 C19 1_555 1_555
H17 C24 1_555 1_555
C4 C5 1_555 1_555
C5 C6 1_555 1_555
C11 C12 1_555 1_555
C17 C18 1_555 1_555
C23 C24 1_555 1_555

#END
