
#######################################################################
#
#                 Cambridge Crystallographic Data Centre
#                                CCDC 
#
#######################################################################
#
# If this CIF has been generated from an entry in the Cambridge 
# Structural Database, then it will include bibliographic, chemical, 
# crystal, experimental, refinement or atomic coordinate data resulting 
# from the CCDC's data processing and validation procedures.
#
#######################################################################

data_UKANOK
_chemical_name_common            
(2-(selenophen-2-yl(2H-pyrrol-2-ylidene)methyl)pyrrolyl)-difluoro-boron
_chemical_formula_moiety         'C13 H9 B1 F2 N2 Se1'
_chemical_name_systematic        Difluoroboryl-(2-selenyl)dipyrrin
_symmetry_cell_setting           orthorhombic
_symmetry_space_group_name_H-M   'P 21 21 21'
_symmetry_Int_Tables_number      19
_space_group_name_Hall           'P 2ac 2ab'
loop_
_symmetry_equiv_pos_site_id
_symmetry_equiv_pos_as_xyz
1 x,y,z
2 1/2-x,-y,1/2+z
3 1/2+x,1/2-y,-z
4 -x,1/2+y,1/2-z
_cell_length_a                   7.29830(10)
_cell_length_b                   10.8015(2)
_cell_length_c                   15.1294(2)
_cell_angle_alpha                90
_cell_angle_beta                 90
_cell_angle_gamma                90
_cell_volume                     1192.69
_exptl_crystal_colour            red
_cell_formula_units_Z            4
loop_
_atom_site_label
_atom_site_type_symbol
_atom_site_fract_x
_atom_site_fract_y
_atom_site_fract_z
Se1 Se 0.7912(3) 0.91619(18) 0.51667(13)
F1 F 0.5915(3) 1.48948(17) 0.62598(11)
F2 F 0.8958(2) 1.52202(16) 0.60502(11)
N1 N 0.8032(3) 1.3409(2) 0.68663(15)
C1 C 0.7119(4) 1.0206(3) 0.59944(18)
N2 N 0.7524(3) 1.3530(2) 0.52759(15)
C2 C 0.8840(4) 1.2604(3) 0.81837(18)
C3 C 0.8670(4) 1.3685(3) 0.76807(18)
C4 C 0.7087(4) 1.1904(3) 0.43337(18)
C5 C 0.7219(4) 1.2989(3) 0.38310(18)
C6 C 0.7466(4) 1.3969(3) 0.44362(19)
C7 C 0.7380(4) 1.1540(3) 0.60125(17)
C8 C 0.7780(4) 1.2127(3) 0.68247(17)
C9 C 0.7311(3) 1.2252(3) 0.52313(18)
B1 B 0.7607(4) 1.4318(3) 0.6111(2)
C10 C 0.8292(4) 1.1621(3) 0.76616(18)
C11 C 0.7021(10) 0.7977(5) 0.5670(5)
C12 C 0.6089(8) 0.8151(5) 0.6392(5)
C14 C 0.604(2) 0.9644(13) 0.6575(10)
Se2? Se 0.59047(9) 0.93355(7) 0.68170(5)
C13? C 0.800(2) 0.9239(14) 0.5281(9)
loop_
_geom_bond_atom_site_label_1
_geom_bond_atom_site_label_2
_geom_bond_site_symmetry_1
_geom_bond_site_symmetry_2
Se1 C1 1_555 1_555
F1 B1 1_555 1_555
F2 B1 1_555 1_555
N1 C3 1_555 1_555
C1 C7 1_555 1_555
N2 C6 1_555 1_555
C2 C3 1_555 1_555
C4 C5 1_555 1_555
C5 C6 1_555 1_555
C7 C8 1_555 1_555
C8 N1 1_555 1_555
C9 N2 1_555 1_555
B1 N1 1_555 1_555
C10 C2 1_555 1_555
C11 Se1 1_555 1_555
C12 C11 1_555 1_555
C14 C1 1_555 1_555
N2 B1 1_555 1_555
C4 C9 1_555 1_555
C7 C9 1_555 1_555
C8 C10 1_555 1_555
C12 C14 1_555 1_555

#END
