
#######################################################################
#
#                 Cambridge Crystallographic Data Centre
#                                CCDC 
#
#######################################################################
#
# If this CIF has been generated from an entry in the Cambridge 
# Structural Database, then it will include bibliographic, chemical, 
# crystal, experimental, refinement or atomic coordinate data resulting 
# from the CCDC's data processing and validation procedures.
#
#######################################################################

data_UKANID
_chemical_formula_moiety         'C15 H18 O1 S1'
_chemical_name_systematic        
(1S,2S,7S)-2,7-Dimethyl-5-phenylsulfanylcyclohepta-3,5-dienol
_symmetry_cell_setting           monoclinic
_symmetry_space_group_name_H-M   'C 2'
_symmetry_Int_Tables_number      5
_space_group_name_Hall           'C 2y'
loop_
_symmetry_equiv_pos_site_id
_symmetry_equiv_pos_as_xyz
1 x,y,z
2 -x,y,-z
3 1/2+x,1/2+y,z
4 1/2-x,1/2+y,-z
_cell_length_a                   15.0554(7)
_cell_length_b                   5.2036(4)
_cell_length_c                   18.4285(11)
_cell_angle_alpha                90
_cell_angle_beta                 107.490(3)
_cell_angle_gamma                90
_cell_volume                     1376.99
_exptl_crystal_colour            colorless
_exptl_crystal_description       plate
_chemical_melting_point          81.5-83.5deg.C
_cell_formula_units_Z            4
loop_
_atom_site_label
_atom_site_type_symbol
_atom_site_fract_x
_atom_site_fract_y
_atom_site_fract_z
S1 S 0.65442(5) 0.8263(2) 0.62672(4)
O1 O 0.71789(15) 1.0229(5) 0.96761(11)
C1 C 0.80264(18) 1.0245(7) 0.87150(15)
C2 C 0.71398(18) 1.1023(6) 0.89189(15)
C3 C 0.62516(18) 0.9857(7) 0.83769(16)
C4 C 0.62386(19) 0.9998(8) 0.75549(16)
C5 C 0.67651(18) 0.8486(7) 0.72688(15)
C6 C 0.7469(2) 0.6774(7) 0.77472(17)
C7 C 0.80145(19) 0.7533(7) 0.84263(16)
C8 C 0.8905(2) 1.0783(8) 0.93703(19)
C9 C 0.5382(2) 1.1065(11) 0.8488(2)
C10 C 0.7687(2) 0.8393(8) 0.61769(15)
C11 C 0.7942(3) 0.6619(10) 0.5722(2)
C12 C 0.8810(3) 0.6780(11) 0.5610(2)
C13 C 0.9427(3) 0.8690(10) 0.5957(2)
C14 C 0.9182(3) 1.0423(12) 0.6416(3)
C15 C 0.8314(3) 1.0296(9) 0.6530(2)
H1 H 0.8055 1.1371 0.8296
H2 H 0.7084 1.2900 0.8891
H3 H 0.6245 0.8032 0.8507
H4 H 0.5848 1.1185 0.7236
H5 H 0.7539 0.5127 0.7575
H6 H 0.8406 0.6329 0.8737
H7 H 0.7408 1.1382 0.9978
H8 H 0.7533 0.5315 0.5490
H9 H 0.8979 0.5591 0.5298
H10 H 1.0008 0.8794 0.5877
H11 H 0.9600 1.1700 0.6656
H12 H 0.8151 1.1490 0.6844
H13 H 0.8961 0.9533 0.9765
H14 H 0.8867 1.2472 0.9569
H15 H 0.9439 1.0682 0.9190
H16 H 0.5369 1.2865 0.8370
H17 H 0.5390 1.0848 0.9007
H18 H 0.4840 1.0244 0.8157
loop_
_geom_bond_atom_site_label_1
_geom_bond_atom_site_label_2
_geom_bond_site_symmetry_1
_geom_bond_site_symmetry_2
S1 C5 1_555 1_555
O1 C2 1_555 1_555
C1 C2 1_555 1_555
C2 C3 1_555 1_555
C3 C4 1_555 1_555
C4 C5 1_555 1_555
C5 C6 1_555 1_555
C6 C7 1_555 1_555
C7 C1 1_555 1_555
C8 C1 1_555 1_555
C9 C3 1_555 1_555
C10 S1 1_555 1_555
C11 C10 1_555 1_555
C12 C11 1_555 1_555
C13 C12 1_555 1_555
C14 C13 1_555 1_555
C15 C10 1_555 1_555
H1 C1 1_555 1_555
H2 C2 1_555 1_555
H3 C3 1_555 1_555
H4 C4 1_555 1_555
H5 C6 1_555 1_555
H6 C7 1_555 1_555
H7 O1 1_555 1_555
H8 C11 1_555 1_555
H9 C12 1_555 1_555
H10 C13 1_555 1_555
H11 C14 1_555 1_555
H12 C15 1_555 1_555
H13 C8 1_555 1_555
H14 C8 1_555 1_555
H15 C8 1_555 1_555
H16 C9 1_555 1_555
H17 C9 1_555 1_555
H18 C9 1_555 1_555
C14 C15 1_555 1_555

#END
