
#######################################################################
#
#                 Cambridge Crystallographic Data Centre
#                                CCDC 
#
#######################################################################
#
# If this CIF has been generated from an entry in the Cambridge 
# Structural Database, then it will include bibliographic, chemical, 
# crystal, experimental, refinement or atomic coordinate data resulting 
# from the CCDC's data processing and validation procedures.
#
#######################################################################

data_UKATIK
_chemical_formula_moiety         'C8 H34 B4 Mg1 N2 O2'
_chemical_name_systematic        
(N,N-Dimethylaminodiboronato-H,H',H'')-(N,N-dimethylaminodiboranato-H,H')-(1,2-dimethoxyethane)-magnesium(ii)
_symmetry_cell_setting           monoclinic
_symmetry_space_group_name_H-M   'C 2/c'
_symmetry_Int_Tables_number      15
_space_group_name_Hall           '-C 2yn'
loop_
_symmetry_equiv_pos_site_id
_symmetry_equiv_pos_as_xyz
1 x,y,z
2 -x,y,1/2-z
3 1/2+x,1/2+y,z
4 1/2-x,1/2+y,1/2-z
5 -x,-y,-z
6 x,-y,1/2+z
7 1/2-x,1/2-y,-z
8 1/2+x,1/2-y,1/2+z
_cell_length_a                   22.5822(17)
_cell_length_b                   13.6560(10)
_cell_length_c                   14.700(2)
_cell_angle_alpha                90
_cell_angle_beta                 125.324(3)
_cell_angle_gamma                90
_cell_volume                     3698.64
_cell_formula_units_Z            8
_exptl_crystal_recrystallization_method sublimation
loop_
_atom_site_label
_atom_site_type_symbol
_atom_site_fract_x
_atom_site_fract_y
_atom_site_fract_z
Mg1 Mg 0.21621(2) 0.48321(3) 0.30248(4)
B1 B 0.32349(10) 0.44516(13) 0.50794(14)
H1 H 0.2709(7) 0.4918(9) 0.4671(11)
H2 H 0.3383(8) 0.4196(11) 0.5889(13)
H3 H 0.3130(7) 0.3822(9) 0.4505(12)
B2 B 0.36384(10) 0.53875(13) 0.39950(14)
H4 H 0.3698(7) 0.4704(10) 0.3613(11)
H5 H 0.3024(7) 0.5648(9) 0.3431(11)
H6 H 0.4001(7) 0.6013(10) 0.4062(11)
N1 N 0.38435(6) 0.51226(8) 0.51971(9)
B3 B 0.14191(10) 0.62964(13) 0.30661(14)
H7 H 0.1390(7) 0.5471(10) 0.3228(11)
H8 H 0.1995(8) 0.6483(10) 0.3385(11)
H9 H 0.1213(7) 0.6723(10) 0.3473(11)
B4 B 0.12237(10) 0.57563(13) 0.12335(14)
H10 H 0.1145(7) 0.4959(9) 0.1405(11)
H11 H 0.1849(8) 0.5897(10) 0.1696(12)
H12 H 0.0938(8) 0.5853(10) 0.0318(12)
N2 N 0.09345(6) 0.64443(8) 0.17588(9)
C1 C 0.45510(10) 0.46039(15) 0.58207(14)
H13 H 0.4678(10) 0.4424(13) 0.6533(17)
H14 H 0.4938(11) 0.4996(13) 0.5887(16)
H15 H 0.4488(9) 0.4005(14) 0.5410(16)
C2 C 0.39212(11) 0.60219(14) 0.58203(17)
H16 H 0.4044(10) 0.5880(13) 0.6558(16)
H17 H 0.3453(11) 0.6396(13) 0.5391(15)
H18 H 0.4304(11) 0.6420(13) 0.5905(16)
C3 C 0.09669(11) 0.74824(12) 0.14901(16)
H19 H 0.0662(10) 0.7546(13) 0.0663(16)
H20 H 0.1484(11) 0.7641(13) 0.1768(15)
H21 H 0.0813(10) 0.7894(13) 0.1822(15)
C4 C 0.01681(9) 0.61953(15) 0.12816(16)
H22 H -0.0102(10) 0.6241(13) 0.0485(17)
H23 H -0.0029(10) 0.6639(13) 0.1558(16)
H24 H 0.0135(10) 0.5539(14) 0.1462(16)
C5 C 0.14952(13) 0.34076(14) 0.38967(17)
H25 H 0.1105(11) 0.2942(14) 0.3615(15)
H26 H 0.1342(10) 0.4033(15) 0.4029(16)
H27 H 0.1908(11) 0.3172(13) 0.4533(17)
C6 C 0.23995(10) 0.40975(13) 0.12532(14)
H28 H 0.2609(9) 0.3559(12) 0.1108(14)
H29 H 0.2733(10) 0.4621(13) 0.1544(15)
H30 H 0.1923(9) 0.4267(12) 0.0562(15)
C7 C 0.18000(10) 0.27097(11) 0.27209(14)
H31 H 0.1420(8) 0.2235(11) 0.2484(12)
H32 H 0.2274(8) 0.2462(11) 0.3362(12)
C8 C 0.18255(9) 0.29815(11) 0.17591(13)
H33 H 0.2033(8) 0.2463(11) 0.1597(12)
H34 H 0.1334(8) 0.3146(10) 0.1121(13)
O1 O 0.16208(5) 0.35849(6) 0.30549(7)
O2 O 0.22970(5) 0.38153(6) 0.20987(7)
loop_
_geom_bond_atom_site_label_1
_geom_bond_atom_site_label_2
_geom_bond_site_symmetry_1
_geom_bond_site_symmetry_2
Mg1 H1 1_555 1_555
B1 H1 1_555 1_555
H2 B1 1_555 1_555
H3 B1 1_555 1_555
B2 H4 1_555 1_555
H5 Mg1 1_555 1_555
H6 B2 1_555 1_555
N1 B1 1_555 1_555
B3 H7 1_555 1_555
H7 Mg1 1_555 1_555
H8 B3 1_555 1_555
H9 B3 1_555 1_555
B4 H10 1_555 1_555
H10 Mg1 1_555 1_555
H11 Mg1 1_555 1_555
H12 B4 1_555 1_555
N2 B3 1_555 1_555
C1 N1 1_555 1_555
H13 C1 1_555 1_555
H14 C1 1_555 1_555
H15 C1 1_555 1_555
C2 N1 1_555 1_555
H16 C2 1_555 1_555
H17 C2 1_555 1_555
H18 C2 1_555 1_555
C3 N2 1_555 1_555
H19 C3 1_555 1_555
H20 C3 1_555 1_555
H21 C3 1_555 1_555
C4 N2 1_555 1_555
H22 C4 1_555 1_555
H23 C4 1_555 1_555
H24 C4 1_555 1_555
C5 H25 1_555 1_555
H26 C5 1_555 1_555
H27 C5 1_555 1_555
C6 H28 1_555 1_555
H29 C6 1_555 1_555
H30 C6 1_555 1_555
C7 H31 1_555 1_555
H32 C7 1_555 1_555
C8 C7 1_555 1_555
H33 C8 1_555 1_555
H34 C8 1_555 1_555
O1 Mg1 1_555 1_555
O2 Mg1 1_555 1_555
B2 H5 1_555 1_555
B2 N1 1_555 1_555
B4 H11 1_555 1_555
B4 N2 1_555 1_555
C5 O1 1_555 1_555
C6 O2 1_555 1_555
C7 O1 1_555 1_555
C8 O2 1_555 1_555

#END
