
#######################################################################
#
#                 Cambridge Crystallographic Data Centre
#                                CCDC 
#
#######################################################################
#
# If this CIF has been generated from an entry in the Cambridge 
# Structural Database, then it will include bibliographic, chemical, 
# crystal, experimental, refinement or atomic coordinate data resulting 
# from the CCDC's data processing and validation procedures.
#
#######################################################################

data_UKEHUP
_chemical_formula_moiety         'C20 H27 Cl1 N2 O4 S1,0.5(H2 O1)'
_chemical_name_systematic        
't-Butyl 2-(((t-butylsulfinyl)amino)(4-chlorophenyl)methyl)-5-oxo-2,5-dihydro-1H-pyrrole-1-carboxylate hemihydrate'
_symmetry_cell_setting           orthorhombic
_symmetry_space_group_name_H-M   'P 21 21 21'
_symmetry_Int_Tables_number      19
_space_group_name_Hall           'P 2ac 2ab'
loop_
_symmetry_equiv_pos_site_id
_symmetry_equiv_pos_as_xyz
1 x,y,z
2 1/2+x,1/2-y,-z
3 -x,1/2+y,1/2-z
4 1/2-x,-y,1/2+z
_cell_length_a                   11.701(2)
_cell_length_b                   14.628(3)
_cell_length_c                   25.939(5)
_cell_angle_alpha                90
_cell_angle_beta                 90
_cell_angle_gamma                90
_cell_volume                     4439.78
_exptl_crystal_description       block
_cell_formula_units_Z            8
loop_
_atom_site_label
_atom_site_type_symbol
_atom_site_fract_x
_atom_site_fract_y
_atom_site_fract_z
S1 S 0.98338(7) 0.65932(7) 0.16168(3)
Cl1 Cl 0.56767(11) 0.80329(10) 0.35855(4)
C1 C 0.7815(3) 0.7396(3) 0.15224(14)
H1 H 0.7648(3) 0.6747(3) 0.14644(14)
C2 C 0.7283(3) 0.7643(3) 0.20328(14)
N1 N 0.9043(3) 0.7498(3) 0.14762(12)
H2 H 0.933(4) 0.799(3) 0.1559(17)
O1 O 0.6478(2) 0.63639(19) 0.07056(10)
O2 O 0.8438(3) 0.8174(2) -0.01483(11)
C3 C 1.1799(4) 0.5959(4) 0.12346(18)
H3 H 1.217(2) 0.6093(12) 0.1556(7)
H4 H 1.1415(6) 0.5381(5) 0.1259(13)
H5 H 1.2360(17) 0.5933(16) 0.0965(7)
N2 N 0.7542(3) 0.7583(2) 0.05764(12)
C4 C 0.8072(3) 0.8261(3) 0.02810(15)
O3 O 1.0446(2) 0.6735(2) 0.21053(10)
C5 C 0.6289(4) 0.7923(3) 0.29738(16)
O4 O 0.7713(3) 0.6351(2) 0.00396(11)
C6 C 0.5696(4) 0.7447(3) 0.26107(17)
H6 H 0.4970(4) 0.7220(3) 0.26792(17)
C7 C 0.7592(3) 0.8900(3) 0.10510(16)
H7 H 0.7502(3) 0.9326(3) 0.13143(16)
C8 C 0.8060(4) 0.9077(3) 0.06029(17)
H8 H 0.8345(4) 0.9644(3) 0.05041(17)
C9 C 1.0356(4) 0.6531(5) 0.06090(18)
H9 H 0.991(3) 0.5984(17) 0.0632(6)
H10 H 0.987(3) 0.7039(14) 0.0528(8)
H11 H 1.0920(4) 0.646(3) 0.0343(4)
C10 C 0.6094(4) 0.5408(3) 0.06585(17)
C11 C 0.7349(4) 0.8275(3) 0.28827(15)
H12 H 0.7735(4) 0.8599(3) 0.31372(15)
C12 C 0.7281(3) 0.6705(3) 0.04013(14)
C13 C 0.5066(4) 0.5409(4) 0.1005(2)
H13 H 0.5301(6) 0.553(3) 0.1352(3)
H14 H 0.4540(16) 0.5872(18) 0.0893(9)
H15 H 0.470(2) 0.4822(9) 0.0990(12)
C14 C 0.6207(3) 0.7313(3) 0.21389(16)
H16 H 0.5815(3) 0.6991(3) 0.18853(16)
C15 C 1.1469(5) 0.7637(4) 0.1138(2)
H17 H 1.0921(11) 0.8084(5) 0.1028(14)
H18 H 1.170(3) 0.7766(11) 0.1485(4)
H19 H 1.212(2) 0.7658(9) 0.0915(12)
C16 C 0.7024(5) 0.4790(4) 0.0845(2)
H20 H 0.7697(11) 0.4881(19) 0.0640(10)
H21 H 0.719(2) 0.4926(18) 0.1199(5)
H22 H 0.6780(13) 0.4165(4) 0.0817(14)
C17 C 0.7833(3) 0.8139(3) 0.24066(14)
H23 H 0.8548(3) 0.8388(3) 0.23363(14)
C18 C 0.7224(3) 0.7927(3) 0.10821(13)
H24 H 0.6393(3) 0.7895(3) 0.11241(13)
C19 C 1.0939(3) 0.6700(3) 0.11142(14)
C20 C 0.5742(5) 0.5201(4) 0.01120(19)
H25 H 0.526(3) 0.5682(14) -0.0014(6)
H26 H 0.6410(5) 0.516(3) -0.0101(4)
H27 H 0.533(3) 0.4633(14) 0.0103(3)
S2 S 0.98811(7) 1.03773(7) 0.14909(3)
Cl2 Cl 0.41671(9) 0.95753(9) 0.25773(5)
O5 O 0.9815(3) 1.3406(2) 0.06183(10)
O6 O 0.9759(2) 0.9521(2) 0.17955(11)
O7 O 1.0283(3) 1.4066(2) 0.15470(12)
N3 N 0.9259(3) 1.1261(2) 0.17706(12)
H28 H 0.947(4) 1.133(3) 0.2054(17)
N4 N 0.8841(3) 1.3046(2) 0.13242(12)
C21 C 1.0116(4) 1.3419(3) 0.00687(15)
C22 C 1.1373(3) 1.0729(3) 0.15609(15)
O8 O 0.8263(3) 1.2506(2) 0.05534(11)
C23 C 0.8126(3) 1.1492(3) 0.15883(14)
H29 H 0.8098(3) 1.1313(3) 0.12245(14)
C24 C 0.6254(3) 1.0324(3) 0.25836(16)
H30 H 0.6282(3) 1.0156(3) 0.29292(16)
C25 C 0.6186(3) 1.0807(3) 0.15694(16)
H31 H 0.6153(3) 1.0971(3) 0.12233(16)
C26 C 0.7171(3) 1.0766(3) 0.23587(15)
H32 H 0.7815(3) 1.0896(3) 0.25559(15)
C27 C 1.2056(4) 0.9927(4) 0.1356(2)
H33 H 1.198(2) 0.9417(8) 0.1586(7)
H34 H 1.177(2) 0.9759(16) 0.1021(6)
H35 H 1.2846(6) 1.0096(8) 0.1330(13)
C28 C 1.1662(4) 1.0913(3) 0.21202(16)
H36 H 1.1219(19) 1.1421(13) 0.2242(4)
H37 H 1.149(2) 1.0381(8) 0.2323(2)
H38 H 1.2461(6) 1.105(2) 0.2150(2)
C29 C 1.1543(4) 1.1567(3) 0.12288(17)
H39 H 1.124(2) 1.1454(8) 0.0891(4)
H40 H 1.115(2) 1.2077(6) 0.1381(6)
H41 H 1.2344(4) 1.1702(12) 0.1204(9)
C30 C 0.8079(4) 1.2940(3) 0.21301(15)
H42 H 0.7605(4) 1.2791(3) 0.24053(15)
C31 C 0.9472(3) 1.3611(3) 0.16598(15)
C32 C 1.0319(5) 1.2458(4) -0.01245(17)
H43 H 1.087(2) 1.2160(10) 0.0092(9)
H44 H 0.9614(8) 1.2123(9) -0.0117(14)
H45 H 1.060(3) 1.2480(4) -0.0472(5)
C33 C 0.5275(3) 1.0363(4) 0.17857(17)
H46 H 0.4637(3) 1.0218(4) 0.15886(17)
C34 C 0.5320(3) 1.0137(3) 0.22982(17)
C35 C 0.7963(3) 1.2550(3) 0.16024(15)
H47 H 0.7210(3) 1.2707(3) 0.14621(15)
C36 C 1.1207(5) 1.3944(5) 0.0067(2)
H48 H 1.1061(7) 1.4564(8) 0.0168(16)
H49 H 1.1735(14) 1.3670(18) 0.0304(13)
H50 H 1.153(2) 1.394(3) -0.0274(5)
C37 C 0.8933(3) 1.2951(3) 0.07971(15)
C38 C 0.8930(4) 1.3515(3) 0.21589(16)
H51 H 0.9156(4) 1.3819(3) 0.24568(16)
C39 C 0.7147(3) 1.1017(3) 0.18482(14)
C40 C 0.9188(5) 1.3898(4) -0.02283(19)
H52 H 0.8502(12) 1.3539(14) -0.0218(14)
H53 H 0.904(3) 1.4486(12) -0.0077(10)
H54 H 0.9425(16) 1.398(3) -0.0580(4)
O9 O 0.9550(4) 0.6683(5) -0.0751(2)
H55 H 0.919(7) 0.707(4) -0.057(3)
H56 H 0.917(7) 0.619(3) -0.077(4)
loop_
_geom_bond_atom_site_label_1
_geom_bond_atom_site_label_2
_geom_bond_site_symmetry_1
_geom_bond_site_symmetry_2
S1 N1 1_555 1_555
Cl1 C5 1_555 1_555
C1 H1 1_555 1_555
C2 C1 1_555 1_555
N1 C1 1_555 1_555
H2 N1 1_555 1_555
O1 C10 1_555 1_555
O2 C4 1_555 1_555
C3 H3 1_555 1_555
H4 C3 1_555 1_555
H5 C3 1_555 1_555
N2 C4 1_555 1_555
C4 C8 1_555 1_555
O3 S1 1_555 1_555
C5 C6 1_555 1_555
O4 C12 1_555 1_555
C6 H6 1_555 1_555
C7 H7 1_555 1_555
C8 C7 1_555 1_555
H8 C8 1_555 1_555
C9 H9 1_555 1_555
H10 C9 1_555 1_555
H11 C9 1_555 1_555
C10 C13 1_555 1_555
C11 C5 1_555 1_555
H12 C11 1_555 1_555
C12 O1 1_555 1_555
C13 H13 1_555 1_555
H14 C13 1_555 1_555
H15 C13 1_555 1_555
C14 C2 1_555 1_555
H16 C14 1_555 1_555
C15 H17 1_555 1_555
H18 C15 1_555 1_555
H19 C15 1_555 1_555
C16 C10 1_555 1_555
H20 C16 1_555 1_555
H21 C16 1_555 1_555
H22 C16 1_555 1_555
C17 C2 1_555 1_555
H23 C17 1_555 1_555
C18 C1 1_555 1_555
H24 C18 1_555 1_555
C19 S1 1_555 1_555
C20 C10 1_555 1_555
H25 C20 1_555 1_555
H26 C20 1_555 1_555
H27 C20 1_555 1_555
S2 O6 1_555 1_555
Cl2 C34 1_555 1_555
O5 C21 1_555 1_555
O7 C31 1_555 1_555
N3 S2 1_555 1_555
H28 N3 1_555 1_555
N4 C31 1_555 1_555
C21 C32 1_555 1_555
C22 S2 1_555 1_555
O8 C37 1_555 1_555
C23 N3 1_555 1_555
H29 C23 1_555 1_555
C24 H30 1_555 1_555
C25 H31 1_555 1_555
C26 C24 1_555 1_555
H32 C26 1_555 1_555
C27 C22 1_555 1_555
H33 C27 1_555 1_555
H34 C27 1_555 1_555
H35 C27 1_555 1_555
C28 C22 1_555 1_555
H36 C28 1_555 1_555
H37 C28 1_555 1_555
H38 C28 1_555 1_555
C29 C22 1_555 1_555
H39 C29 1_555 1_555
H40 C29 1_555 1_555
H41 C29 1_555 1_555
C30 H42 1_555 1_555
C31 C38 1_555 1_555
C32 H43 1_555 1_555
H44 C32 1_555 1_555
H45 C32 1_555 1_555
C33 C25 1_555 1_555
H46 C33 1_555 1_555
C34 C24 1_555 1_555
C35 N4 1_555 1_555
H47 C35 1_555 1_555
C36 C21 1_555 1_555
H48 C36 1_555 1_555
H49 C36 1_555 1_555
H50 C36 1_555 1_555
C37 O5 1_555 1_555
C38 C30 1_555 1_555
H51 C38 1_555 1_555
C39 C23 1_555 1_555
C40 C21 1_555 1_555
H52 C40 1_555 1_555
H53 C40 1_555 1_555
H54 C40 1_555 1_555
O9 H55 1_555 1_555
H56 O9 1_555 1_555
C3 C19 1_555 1_555
N2 C12 1_555 1_555
N2 C18 1_555 1_555
C6 C14 1_555 1_555
C7 C18 1_555 1_555
C9 C19 1_555 1_555
C11 C17 1_555 1_555
C15 C19 1_555 1_555
N4 C37 1_555 1_555
C23 C35 1_555 1_555
C25 C39 1_555 1_555
C26 C39 1_555 1_555
C30 C35 1_555 1_555
C33 C34 1_555 1_555

#END
