
#######################################################################
#
#                 Cambridge Crystallographic Data Centre
#                                CCDC 
#
#######################################################################
#
# If this CIF has been generated from an entry in the Cambridge 
# Structural Database, then it will include bibliographic, chemical, 
# crystal, experimental, refinement or atomic coordinate data resulting 
# from the CCDC's data processing and validation procedures.
#
#######################################################################

data_UKEKUQ
_chemical_formula_moiety         'C14 H19 Br1 O5'
_chemical_name_systematic        
'Methyl (1S*,2S*,4R*)-5-Bromo-8,8-dimethoxy-1,2-dimethyl-7-oxobicyclo[2.2.2]oct-5-ene-2-carboxylate'
_symmetry_cell_setting           monoclinic
_symmetry_space_group_name_H-M   'P 21/c'
_symmetry_Int_Tables_number      14
_space_group_name_Hall           '-P 2ybc'
loop_
_symmetry_equiv_pos_site_id
_symmetry_equiv_pos_as_xyz
1 x,y,z
2 x,1/2-y,1/2+z
3 -x,-y,-z
4 -x,1/2+y,1/2-z
_cell_length_a                   12.5266(20)
_cell_length_b                   11.8929(19)
_cell_length_c                   9.2318(22)
_cell_angle_alpha                90
_cell_angle_beta                 96.915(17)
_cell_angle_gamma                90
_cell_volume                     1365.33
_exptl_crystal_colour            colorless
_exptl_crystal_description       block
_chemical_melting_point          82.0-82.5deg.C
_cell_formula_units_Z            4
loop_
_atom_site_label
_atom_site_type_symbol
_atom_site_fract_x
_atom_site_fract_y
_atom_site_fract_z
Br1 Br 0.93667(4) 0.79788(5) 0.92377(6)
C1 C 0.8420(3) 0.9023(4) 0.8386(5)
C2 C 0.8595(3) 1.0103(4) 0.8260(5)
C3 C 0.7725(3) 1.0778(3) 0.7498(5)
C4 C 0.6865(3) 1.0530(4) 0.8394(5)
C5 C 0.6662(3) 0.9262(3) 0.8602(5)
C6 C 0.7405(3) 0.8618(3) 0.7769(5)
C7 C 0.7241(3) 0.8955(4) 0.6156(5)
C8 C 0.7415(3) 1.0241(4) 0.5959(4)
C9 C 0.7939(4) 1.2049(4) 0.7509(5)
C10 C 0.5267(4) 0.8018(5) 0.8115(6)
C11 C 0.6270(4) 0.9444(5) 1.1078(5)
C12 C 0.6473(3) 1.0799(4) 0.5191(5)
C13 C 0.8260(3) 1.0400(4) 0.5012(5)
C14 C 0.8770(4) 0.9991(5) 0.2703(5)
O1 O 0.63922(25) 1.1251(3) 0.8915(4)
O2 O 0.56562(20) 0.91354(25) 0.8024(3)
O3 O 0.68508(21) 0.8919(3) 1.0059(3)
O4 O 0.90264(25) 1.0872(3) 0.5356(4)
O5 O 0.80217(23) 0.9930(3) 0.3708(3)
H1 H 0.924 1.049 0.860
H2 H 0.735 0.783 0.787
H3 H 0.655 0.877 0.570
H4 H 0.766 0.849 0.563
H5 H 0.806 1.232 0.849
H6 H 0.849 1.218 0.690
H7 H 0.740 1.243 0.689
H8 H 0.529 0.776 0.713
H9 H 0.451 0.811 0.792
H10 H 0.551 0.755 0.892
H11 H 0.643 1.023 1.108
H12 H 0.649 0.908 1.198
H13 H 0.556 0.929 1.066
H14 H 0.628 1.050 0.424
H15 H 0.589 1.072 0.575
H16 H 0.658 1.158 0.504
H17 H 0.943 0.962 0.295
H18 H 0.889 1.069 0.225
H19 H 0.852 0.952 0.190
loop_
_geom_bond_atom_site_label_1
_geom_bond_atom_site_label_2
_geom_bond_site_symmetry_1
_geom_bond_site_symmetry_2
Br1 C1 1_555 1_555
C1 C2 1_555 1_555
C2 C3 1_555 1_555
C3 C4 1_555 1_555
C4 C5 1_555 1_555
C5 C6 1_555 1_555
C6 C1 1_555 1_555
C7 C6 1_555 1_555
C8 C3 1_555 1_555
C9 C3 1_555 1_555
C10 O2 1_555 1_555
C11 O3 1_555 1_555
C12 C8 1_555 1_555
C13 C8 1_555 1_555
C14 O5 1_555 1_555
O1 C4 1_555 1_555
O2 C5 1_555 1_555
O3 C5 1_555 1_555
O4 C13 1_555 1_555
O5 C13 1_555 1_555
H1 C2 1_555 1_555
H2 C6 1_555 1_555
H3 C7 1_555 1_555
H4 C7 1_555 1_555
H5 C9 1_555 1_555
H6 C9 1_555 1_555
H7 C9 1_555 1_555
H8 C10 1_555 1_555
H9 C10 1_555 1_555
H10 C10 1_555 1_555
H11 C11 1_555 1_555
H12 C11 1_555 1_555
H13 C11 1_555 1_555
H14 C12 1_555 1_555
H15 C12 1_555 1_555
H16 C12 1_555 1_555
H17 C14 1_555 1_555
H18 C14 1_555 1_555
H19 C14 1_555 1_555
C7 C8 1_555 1_555

#END
