
#######################################################################
#
#                 Cambridge Crystallographic Data Centre
#                                CCDC 
#
#######################################################################
#
# If this CIF has been generated from an entry in the Cambridge 
# Structural Database, then it will include bibliographic, chemical, 
# crystal, experimental, refinement or atomic coordinate data resulting 
# from the CCDC's data processing and validation procedures.
#
#######################################################################

data_UKEPEG
_chemical_formula_moiety         'C25 H28 N2 O4'
_chemical_name_systematic        
"Ethyl 1-benzyl-5-oxo-3-phenyldecahydropyrano[4',3':4,5]pyrrolo[1,2-a]imidazole-9-carboxylate"
_symmetry_cell_setting           monoclinic
_symmetry_space_group_name_H-M   'P 21'
_symmetry_Int_Tables_number      4
_space_group_name_Hall           'P 2yb'
loop_
_symmetry_equiv_pos_site_id
_symmetry_equiv_pos_as_xyz
1 x,y,z
2 -x,1/2+y,-z
_cell_length_a                   11.351(2)
_cell_length_b                   9.7612(10)
_cell_length_c                   19.942(3)
_cell_angle_alpha                90
_cell_angle_beta                 91.07(2)
_cell_angle_gamma                90
_cell_volume                     2209.18
_exptl_crystal_colour            colorless
_exptl_crystal_description       plate
_chemical_melting_point          '109-111 deg.C'
_cell_formula_units_Z            4
loop_
_atom_site_label
_atom_site_type_symbol
_atom_site_fract_x
_atom_site_fract_y
_atom_site_fract_z
N1 N -0.0803(4) -0.4772(5) 0.1411(2)
C1 C 0.0264(5) -0.5582(7) 0.1471(4)
H1 H 0.0201(5) -0.6409(7) 0.1203(4)
H2 H 0.0422(5) -0.5834(7) 0.1934(4)
C2 C 0.1230(5) -0.4643(7) 0.1208(3)
H3 H 0.1235(5) -0.4695(7) 0.0718(3)
N2 N 0.0819(4) -0.3279(5) 0.1409(2)
C3 C 0.0944(5) -0.2132(7) 0.0928(3)
H4 H 0.0880(5) -0.2493(7) 0.0470(3)
C4 C -0.0104(5) -0.1211(7) 0.1055(3)
H5 H -0.0313(5) -0.0687(7) 0.0650(3)
C5 C -0.1091(6) -0.2225(7) 0.1224(3)
H6 H -0.1656(6) -0.1789(7) 0.1522(3)
C6 C -0.0431(5) -0.3375(7) 0.1599(3)
H7 H -0.0501(5) -0.3248(7) 0.2084(3)
C7 C 0.2171(7) -0.1517(8) 0.1037(4)
O1 O 0.3040(4) -0.2042(6) 0.0817(3)
O2 O 0.2275(4) -0.0393(6) 0.1415(3)
C8 C 0.1281(7) 0.0484(9) 0.1524(4)
H8 H 0.1174(7) 0.1073(9) 0.1136(4)
H9 H 0.1455(7) 0.1066(9) 0.1908(4)
C9 C 0.0178(6) -0.0245(8) 0.1641(4)
H10 H -0.0458(6) 0.0410(8) 0.1690(4)
H11 H 0.0247(6) -0.0768(8) 0.2054(4)
C10 C -0.1735(3) -0.5282(5) 0.1846(2)
H12 H -0.2397(3) -0.4654(5) 0.1829(2)
H13 H -0.1440(3) -0.5316(5) 0.2306(2)
C11 C -0.2146(3) -0.6690(5) 0.1636(2)
C12 C -0.2457(3) -0.7654(5) 0.2115(2)
H14 H -0.2351(3) -0.7447(5) 0.2567(2)
C13 C -0.2918(6) -0.8906(8) 0.1934(4)
H15 H -0.3115(6) -0.9536(8) 0.2264(4)
C14 C -0.3088(6) -0.9232(9) 0.1271(4)
H16 H -0.3421(6) -1.0066(9) 0.1146(4)
C15 C -0.2756(7) -0.8299(9) 0.0794(4)
H17 H -0.2842(7) -0.8516(9) 0.0341(4)
C16 C -0.2299(6) -0.7052(8) 0.0978(4)
H18 H -0.2087(6) -0.6435(8) 0.0646(4)
C17 C 0.2414(5) -0.5097(7) 0.1484(3)
C18 C 0.2940(5) -0.4514(8) 0.2034(3)
H19 H 0.2618(5) -0.3721(8) 0.2214(3)
C19 C 0.3944(6) -0.5077(8) 0.2332(3)
H20 H 0.4289(6) -0.4657(8) 0.2705(3)
C20 C 0.4426(6) -0.6243(9) 0.2079(4)
H21 H 0.5098(6) -0.6624(9) 0.2277(4)
C21 C 0.3910(7) -0.6837(10) 0.1534(5)
H22 H 0.4232(7) -0.7628(10) 0.1353(5)
C22 C 0.2912(6) -0.6271(9) 0.1248(4)
H23 H 0.2562(6) -0.6705(9) 0.0880(4)
C23 C -0.1722(6) -0.2775(8) 0.0609(4)
O3 O -0.1282(4) -0.2882(7) 0.0068(3)
O4 O -0.2822(4) -0.3105(5) 0.0744(2)
C24 C -0.3536(7) -0.3714(11) 0.0200(4)
H24 H -0.3714(7) -0.3023(11) -0.0137(4)
H25 H -0.3094(7) -0.4441(11) -0.0012(4)
C25 C -0.4615(7) -0.4258(15) 0.0456(5)
H26 H -0.5072(7) -0.4652(15) 0.0095(5)
H27 H -0.5056(7) -0.3535(15) 0.0660(5)
H28 H -0.4438(7) -0.4950(15) 0.0784(5)
N3 N -0.2463(4) -0.0166(5) 0.4315(2)
C26 C -0.1489(5) 0.0178(7) 0.3871(3)
H29 H -0.1778(5) 0.0553(7) 0.3449(3)
H30 H -0.1003(5) -0.0617(7) 0.3783(3)
C27 C -0.0814(5) 0.1246(7) 0.4278(3)
H31 H -0.1258(5) 0.2107(7) 0.4263(3)
N4 N -0.0866(4) 0.0687(6) 0.4959(3)
C28 C -0.0907(5) 0.1679(8) 0.5494(3)
H32 H -0.0583(5) 0.2543(8) 0.5328(3)
C29 C -0.2213(5) 0.1908(8) 0.5639(3)
H33 H -0.2559(5) 0.2497(8) 0.5290(3)
C30 C -0.2699(5) 0.0438(7) 0.5552(3)
H34 H -0.2551(5) -0.0065(7) 0.5970(3)
C31 C -0.1934(5) -0.0202(7) 0.4998(3)
H35 H -0.1709(5) -0.1141(7) 0.5119(3)
C32 C -0.0199(8) 0.1263(11) 0.6118(5)
O5 O 0.0548(6) 0.0396(8) 0.6126(3)
O6 O -0.0466(7) 0.1936(9) 0.6687(3)
C33 C -0.1370(10) 0.3001(13) 0.6659(5)
H36 H -0.1068(10) 0.3789(13) 0.6421(5)
H37 H -0.1548(10) 0.3289(13) 0.7112(5)
C34 C -0.2458(8) 0.2525(10) 0.6323(4)
H38 H -0.2997(8) 0.3290(10) 0.6268(4)
H39 H -0.2834(8) 0.1844(10) 0.6601(4)
C35 C -0.3039(3) -0.1469(5) 0.4144(2)
H40 H -0.3576(3) -0.1712(5) 0.4497(2)
H41 H -0.2446(3) -0.2182(5) 0.4121(2)
C36 C -0.3709(3) -0.1416(5) 0.3491(2)
C37 C -0.4646(3) -0.0517(5) 0.3393(2)
H42 H -0.4841(3) 0.0100(5) 0.3729(2)
C38 C -0.5290(6) -0.0540(9) 0.2796(4)
H43 H -0.5920(6) 0.0059(9) 0.2738(4)
C39 C -0.5020(7) -0.1421(9) 0.2293(4)
H44 H -0.5465(7) -0.1432(9) 0.1896(4)
C40 C -0.4090(7) -0.2287(9) 0.2378(4)
H45 H -0.3890(7) -0.2887(9) 0.2036(4)
C41 C -0.3443(6) -0.2276(8) 0.2971(4)
H46 H -0.2807(6) -0.2870(8) 0.3020(4)
C42 C 0.0413(5) 0.1519(7) 0.4044(3)
C43 C 0.0591(6) 0.2261(8) 0.3468(4)
H47 H -0.0062(6) 0.2592(8) 0.3230(4)
C44 C 0.1702(6) 0.2531(8) 0.3229(4)
H48 H 0.1793(6) 0.3022(8) 0.2834(4)
C45 C 0.2669(6) 0.2063(8) 0.3584(4)
H49 H 0.3421(6) 0.2236(8) 0.3427(4)
C46 C 0.2533(6) 0.1339(8) 0.4171(4)
H50 H 0.3189(6) 0.1037(8) 0.4415(4)
C47 C 0.1407(5) 0.1066(7) 0.4397(3)
H51 H 0.1316(5) 0.0571(7) 0.4791(3)
C48 C -0.4007(6) 0.0466(9) 0.5416(3)
O7 O -0.4520(4) 0.1278(7) 0.5083(3)
O8 O -0.4546(4) -0.0547(6) 0.5724(2)
C49 C -0.5836(6) -0.0591(11) 0.5661(4)
H52 H -0.6141(6) 0.0337(11) 0.5634(4)
H53 H -0.6059(6) -0.1061(11) 0.5249(4)
C50 C -0.6333(7) -0.1258(14) 0.6201(5)
H54 H -0.7175(7) -0.1271(14) 0.6145(5)
H55 H -0.6125(7) -0.0785(14) 0.6608(5)
H56 H -0.6043(7) -0.2181(14) 0.6224(5)
loop_
_geom_bond_atom_site_label_1
_geom_bond_atom_site_label_2
_geom_bond_site_symmetry_1
_geom_bond_site_symmetry_2
N1 C1 1_555 1_555
C1 H1 1_555 1_555
H2 C1 1_555 1_555
C2 C1 1_555 1_555
H3 C2 1_555 1_555
N2 C2 1_555 1_555
C3 N2 1_555 1_555
H4 C3 1_555 1_555
C4 C3 1_555 1_555
H5 C4 1_555 1_555
C5 C4 1_555 1_555
H6 C5 1_555 1_555
C6 N1 1_555 1_555
H7 C6 1_555 1_555
C7 C3 1_555 1_555
O1 C7 1_555 1_555
O2 C7 1_555 1_555
C8 O2 1_555 1_555
H8 C8 1_555 1_555
H9 C8 1_555 1_555
C9 C4 1_555 1_555
H10 C9 1_555 1_555
H11 C9 1_555 1_555
C10 N1 1_555 1_555
H12 C10 1_555 1_555
H13 C10 1_555 1_555
C11 C10 1_555 1_555
C12 C11 1_555 1_555
H14 C12 1_555 1_555
C13 C12 1_555 1_555
H15 C13 1_555 1_555
C14 C13 1_555 1_555
H16 C14 1_555 1_555
C15 C14 1_555 1_555
H17 C15 1_555 1_555
C16 C11 1_555 1_555
H18 C16 1_555 1_555
C17 C2 1_555 1_555
C18 C17 1_555 1_555
H19 C18 1_555 1_555
C19 C18 1_555 1_555
H20 C19 1_555 1_555
C20 C19 1_555 1_555
H21 C20 1_555 1_555
C21 C20 1_555 1_555
H22 C21 1_555 1_555
C22 C17 1_555 1_555
H23 C22 1_555 1_555
C23 C5 1_555 1_555
O3 C23 1_555 1_555
O4 C23 1_555 1_555
C24 O4 1_555 1_555
H24 C24 1_555 1_555
H25 C24 1_555 1_555
C25 C24 1_555 1_555
H26 C25 1_555 1_555
H27 C25 1_555 1_555
H28 C25 1_555 1_555
N3 C26 1_555 1_555
C26 H29 1_555 1_555
H30 C26 1_555 1_555
C27 C26 1_555 1_555
H31 C27 1_555 1_555
N4 C27 1_555 1_555
C28 N4 1_555 1_555
H32 C28 1_555 1_555
C29 C28 1_555 1_555
H33 C29 1_555 1_555
C30 C29 1_555 1_555
H34 C30 1_555 1_555
C31 N3 1_555 1_555
H35 C31 1_555 1_555
C32 C28 1_555 1_555
O5 C32 1_555 1_555
O6 C32 1_555 1_555
C33 O6 1_555 1_555
H36 C33 1_555 1_555
H37 C33 1_555 1_555
C34 C29 1_555 1_555
H38 C34 1_555 1_555
H39 C34 1_555 1_555
C35 N3 1_555 1_555
H40 C35 1_555 1_555
H41 C35 1_555 1_555
C36 C35 1_555 1_555
C37 C36 1_555 1_555
H42 C37 1_555 1_555
C38 C37 1_555 1_555
H43 C38 1_555 1_555
C39 C38 1_555 1_555
H44 C39 1_555 1_555
C40 C39 1_555 1_555
H45 C40 1_555 1_555
C41 C36 1_555 1_555
H46 C41 1_555 1_555
C42 C27 1_555 1_555
C43 C42 1_555 1_555
H47 C43 1_555 1_555
C44 C43 1_555 1_555
H48 C44 1_555 1_555
C45 C44 1_555 1_555
H49 C45 1_555 1_555
C46 C45 1_555 1_555
H50 C46 1_555 1_555
C47 C42 1_555 1_555
H51 C47 1_555 1_555
C48 C30 1_555 1_555
O7 C48 1_555 1_555
O8 C48 1_555 1_555
C49 O8 1_555 1_555
H52 C49 1_555 1_555
H53 C49 1_555 1_555
C50 C49 1_555 1_555
H54 C50 1_555 1_555
H55 C50 1_555 1_555
H56 C50 1_555 1_555
N2 C6 1_555 1_555
C5 C6 1_555 1_555
C8 C9 1_555 1_555
C15 C16 1_555 1_555
C21 C22 1_555 1_555
N4 C31 1_555 1_555
C30 C31 1_555 1_555
C33 C34 1_555 1_555
C40 C41 1_555 1_555
C46 C47 1_555 1_555

#END
