
#######################################################################
#
#                 Cambridge Crystallographic Data Centre
#                                CCDC 
#
#######################################################################
#
# If this CIF has been generated from an entry in the Cambridge 
# Structural Database, then it will include bibliographic, chemical, 
# crystal, experimental, refinement or atomic coordinate data resulting 
# from the CCDC's data processing and validation procedures.
#
#######################################################################

data_UKEQOR
_chemical_formula_moiety         'C19 H16 N2 O6'
_chemical_name_systematic        
threo-2-(2-(Hydroxy(4-nitrophenyl)methyl)-3-oxobutyl)-1H-isoindole-1,3(2H)-dione
_symmetry_cell_setting           orthorhombic
_symmetry_space_group_name_H-M   'P c a b'
_symmetry_Int_Tables_number      61
_space_group_name_Hall           '-P 2bc 2ac'
loop_
_symmetry_equiv_pos_site_id
_symmetry_equiv_pos_as_xyz
1 x,y,z
2 -x,1/2-y,1/2+z
3 1/2+x,-y,1/2-z
4 1/2-x,1/2+y,-z
5 -x,-y,-z
6 x,1/2+y,1/2-z
7 1/2-x,y,1/2+z
8 1/2+x,1/2-y,z
_cell_length_a                   11.2975(2)
_cell_length_b                   15.8036(3)
_cell_length_c                   20.1450(6)
_cell_angle_alpha                90
_cell_angle_beta                 90
_cell_angle_gamma                90
_cell_volume                     3596.71
_exptl_crystal_colour            colorless
_exptl_crystal_description       prism
_chemical_melting_point          '158.9-159.4 deg.C'
_cell_formula_units_Z            8
loop_
_atom_site_label
_atom_site_type_symbol
_atom_site_fract_x
_atom_site_fract_y
_atom_site_fract_z
C1 C 0.7636(3) 0.18431(18) 0.25766(13)
C2 C 0.6701(3) 0.2402(2) 0.25791(15)
H1 H 0.6542 0.2733 0.2950
C3 C 0.6009(3) 0.24590(19) 0.20192(14)
H2 H 0.5371 0.2831 0.2013
C4 C 0.6250(2) 0.19675(15) 0.14632(12)
C5 C 0.7193(2) 0.14142(18) 0.14831(14)
H3 H 0.7361 0.1080 0.1115
C6 C 0.7891(3) 0.13504(19) 0.20437(15)
H4 H 0.8526 0.0976 0.2056
C7 C 0.5521(2) 0.20626(17) 0.08385(13)
H5 H 0.5967 0.1824 0.0466
C8 C 0.4316(2) 0.16311(16) 0.08712(12)
H6 H 0.3862 0.1896 0.1230
C9 C 0.3622(2) 0.17385(17) 0.02305(13)
C10 C 0.4223(3) 0.1663(2) -0.04264(14)
H7 H 0.3655 0.1746 -0.0775
H8 H 0.4569 0.1110 -0.0467
H9 H 0.4832 0.2084 -0.0460
C11 C 0.4423(2) 0.06799(17) 0.10263(14)
H10 H 0.4877 0.0406 0.0679
H11 H 0.4846 0.0606 0.1441
C12 C 0.2724(2) -0.01565(16) 0.05601(12)
C13 C 0.1540(2) -0.04075(16) 0.08141(12)
C14 C 0.0651(3) -0.0856(2) 0.05126(15)
H12 H 0.0727 -0.1051 0.0079
C15 C -0.0361(3) -0.1005(2) 0.08795(17)
H13 H -0.0983 -0.1302 0.0687
C16 C -0.0466(3) -0.0726(2) 0.15200(16)
H14 H -0.1156 -0.0841 0.1755
C17 C 0.0431(3) -0.0276(2) 0.18252(14)
H15 H 0.0355 -0.0084 0.2260
C18 C 0.1442(2) -0.01221(16) 0.14615(12)
C19 C 0.2544(2) 0.03315(17) 0.16335(12)
N1 N 0.8393(3) 0.1789(2) 0.31694(15)
N2 N 0.32714(19) 0.02819(13) 0.10757(10)
O1 O 0.9267(3) 0.13255(19) 0.31419(13)
O2 O 0.8116(3) 0.2192(2) 0.36624(14)
O3 O 0.52736(18) 0.29282(12) 0.06994(10)
H16 H 0.5559 0.3226 0.0992
O4 O 0.25573(17) 0.18342(15) 0.02575(11)
O5 O 0.31693(18) -0.02867(13) 0.00228(10)
O6 O 0.28240(19) 0.06787(14) 0.21436(9)
loop_
_geom_bond_atom_site_label_1
_geom_bond_atom_site_label_2
_geom_bond_site_symmetry_1
_geom_bond_site_symmetry_2
C1 C2 1_555 1_555
C2 H1 1_555 1_555
C3 C2 1_555 1_555
H2 C3 1_555 1_555
C4 C3 1_555 1_555
C5 C4 1_555 1_555
H3 C5 1_555 1_555
C6 C1 1_555 1_555
H4 C6 1_555 1_555
C7 C4 1_555 1_555
H5 C7 1_555 1_555
C8 C7 1_555 1_555
H6 C8 1_555 1_555
C9 C8 1_555 1_555
C10 C9 1_555 1_555
H7 C10 1_555 1_555
H8 C10 1_555 1_555
H9 C10 1_555 1_555
C11 C8 1_555 1_555
H10 C11 1_555 1_555
H11 C11 1_555 1_555
C12 C13 1_555 1_555
C13 C14 1_555 1_555
C14 H12 1_555 1_555
C15 C14 1_555 1_555
H13 C15 1_555 1_555
C16 C15 1_555 1_555
H14 C16 1_555 1_555
C17 C16 1_555 1_555
H15 C17 1_555 1_555
C18 C13 1_555 1_555
C19 C18 1_555 1_555
N1 C1 1_555 1_555
N2 C11 1_555 1_555
O1 N1 1_555 1_555
O2 N1 1_555 1_555
O3 C7 1_555 1_555
H16 O3 1_555 1_555
O4 C9 1_555 1_555
O5 C12 1_555 1_555
O6 C19 1_555 1_555
C5 C6 1_555 1_555
C12 N2 1_555 1_555
C17 C18 1_555 1_555
C19 N2 1_555 1_555

#END
