
#######################################################################
#
#                 Cambridge Crystallographic Data Centre
#                                CCDC 
#
#######################################################################
#
# If this CIF has been generated from an entry in the Cambridge 
# Structural Database, then it will include bibliographic, chemical, 
# crystal, experimental, refinement or atomic coordinate data resulting 
# from the CCDC's data processing and validation procedures.
#
#######################################################################

data_UKESEI
_chemical_formula_moiety         'C7 H17 Cl1 N1 1+,C7 H4 N1 O4 1-'
_chemical_name_systematic        
'Triethyl(chloromethyl)ammonium 2-carboxypyridine-6-carboxylate'
_symmetry_cell_setting           orthorhombic
_symmetry_space_group_name_H-M   'P 21 21 21'
_symmetry_Int_Tables_number      19
_space_group_name_Hall           'P 2ac 2ab'
loop_
_symmetry_equiv_pos_site_id
_symmetry_equiv_pos_as_xyz
1 x,y,z
2 1/2-x,-y,1/2+z
3 -x,1/2+y,1/2-z
4 1/2+x,1/2-y,-z
_cell_length_a                   6.9943(14)
_cell_length_b                   13.489(3)
_cell_length_c                   16.689(3)
_cell_angle_alpha                90
_cell_angle_beta                 90
_cell_angle_gamma                90
_cell_volume                     1574.54
_cell_formula_units_Z            4
loop_
_atom_site_label
_atom_site_type_symbol
_atom_site_fract_x
_atom_site_fract_y
_atom_site_fract_z
Cl1 Cl 0.10651(11) 0.12768(8) 0.84355(4)
N2 N 0.0970(3) 0.13341(13) 0.68131(10)
C8 C 0.2183(4) 0.1020(2) 0.75081(15)
C9 C -0.1035(4) 0.0910(2) 0.68614(17)
C10 C -0.1164(6) -0.0177(3) 0.7039(2)
C11 C 0.1933(4) 0.0933(2) 0.60572(15)
C12 C 0.4003(5) 0.1204(3) 0.5968(2)
C13 C 0.0869(5) 0.24566(18) 0.67897(19)
C14 C -0.0285(7) 0.2874(3) 0.6122(3)
H5 H 0.242(4) 0.031(2) 0.7464(15)
H6 H 0.338(4) 0.1349(17) 0.7528(14)
H7 H -0.173(4) 0.1369(19) 0.7293(15)
H8 H -0.154(4) 0.1111(19) 0.6346(16)
H9 H -0.046(5) -0.054(2) 0.664(2)
H10 H -0.072(4) -0.032(2) 0.7576(19)
H11 H -0.256(6) -0.050(3) 0.698(2)
H12 H 0.123(3) 0.1204(17) 0.5602(14)
H13 H 0.185(3) 0.0245(19) 0.6081(12)
H14 H 0.414(5) 0.189(3) 0.5926(19)
H15 H 0.491(5) 0.084(3) 0.641(2)
H16 H 0.444(4) 0.0971(19) 0.5467(16)
H17 H 0.028(4) 0.2646(19) 0.7301(15)
H18 H 0.218(4) 0.2661(18) 0.6765(15)
H19 H 0.000(5) 0.356(3) 0.606(2)
H20 H 0.036(6) 0.276(3) 0.557(2)
H21 H -0.160(6) 0.272(3) 0.605(3)
N1 N 0.5932(3) 0.12244(13) 0.85843(9)
O1 O 0.5654(3) 0.27906(11) 0.75557(11)
O2 O 0.6684(4) 0.37966(14) 0.84809(12)
O3 O 0.4872(3) -0.06072(12) 0.81246(11)
O4 O 0.5615(3) -0.12408(12) 0.93028(10)
C1 C 0.6272(4) 0.29769(16) 0.82520(15)
C2 C 0.6489(3) 0.21203(16) 0.88256(13)
C3 C 0.7278(4) 0.2299(2) 0.95758(15)
C4 C 0.7510(4) 0.1513(2) 1.00890(16)
C5 C 0.6947(4) 0.0587(2) 0.98495(15)
C6 C 0.6136(3) 0.04688(16) 0.90962(12)
C7 C 0.5501(3) -0.05516(17) 0.88427(14)
H1 H 0.479(6) -0.136(3) 0.786(2)
H2 H 0.763(4) 0.303(2) 0.9729(14)
H3 H 0.801(5) 0.167(2) 1.0633(17)
H4 H 0.714(4) 0.002(2) 1.0167(15)
loop_
_geom_bond_atom_site_label_1
_geom_bond_atom_site_label_2
_geom_bond_site_symmetry_1
_geom_bond_site_symmetry_2
Cl1 C8 1_555 1_555
N1 C2 1_555 1_555
N2 C8 1_555 1_555
O1 C1 1_555 1_555
O2 C1 1_555 1_555
O3 C7 1_555 1_555
O4 C7 1_555 1_555
C1 C2 1_555 1_555
C2 C3 1_555 1_555
C3 C4 1_555 1_555
C4 C5 1_555 1_555
C5 C6 1_555 1_555
C6 N1 1_555 1_555
C7 C6 1_555 1_555
C8 H5 1_555 1_555
C9 N2 1_555 1_555
C10 C9 1_555 1_555
C11 N2 1_555 1_555
C12 C11 1_555 1_555
C13 N2 1_555 1_555
C14 C13 1_555 1_555
H1 O3 1_555 1_555
H2 C3 1_555 1_555
H3 C4 1_555 1_555
H4 C5 1_555 1_555
H6 C8 1_555 1_555
H7 C9 1_555 1_555
H8 C9 1_555 1_555
H9 C10 1_555 1_555
H10 C10 1_555 1_555
H11 C10 1_555 1_555
H12 C11 1_555 1_555
H13 C11 1_555 1_555
H14 C12 1_555 1_555
H15 C12 1_555 1_555
H16 C12 1_555 1_555
H17 C13 1_555 1_555
H18 C13 1_555 1_555
H19 C14 1_555 1_555
H20 C14 1_555 1_555
H21 C14 1_555 1_555

#END
