
#######################################################################
#
#                 Cambridge Crystallographic Data Centre
#                                CCDC 
#
#######################################################################
#
# If this CIF has been generated from an entry in the Cambridge 
# Structural Database, then it will include bibliographic, chemical, 
# crystal, experimental, refinement or atomic coordinate data resulting 
# from the CCDC's data processing and validation procedures.
#
#######################################################################

data_UKEYUG
_chemical_formula_moiety         'C24 H24 Br1 N1 O5'
_chemical_name_systematic        
'diethyl (2-(4-bromophenyl)-1-(3-methyl-1H-indol-2-yl)-2-oxoethyl)malonate'
_symmetry_cell_setting           triclinic
_symmetry_space_group_name_H-M   'P -1'
_symmetry_Int_Tables_number      2
_space_group_name_Hall           '-P 1'
loop_
_symmetry_equiv_pos_site_id
_symmetry_equiv_pos_as_xyz
1 x,y,z
2 -x,-y,-z
_cell_length_a                   10.9290(3)
_cell_length_b                   11.0375(3)
_cell_length_c                   11.7658(4)
_cell_angle_alpha                106.8030(10)
_cell_angle_beta                 99.9820(10)
_cell_angle_gamma                116.4220(10)
_cell_volume                     1138.79
_exptl_crystal_colour            yellow
_exptl_crystal_description       block
_cell_formula_units_Z            2
loop_
_atom_site_label
_atom_site_type_symbol
_atom_site_fract_x
_atom_site_fract_y
_atom_site_fract_z
Br1 Br 0.99856(5) 0.72207(4) 0.88440(4)
O1 O 0.3828(4) -0.2303(3) 0.0369(3)
O2 O 0.3028(4) -0.1870(3) 0.1964(3)
O3 O 0.3019(4) 0.0529(4) 0.0630(3)
O4 O 0.4208(3) 0.1902(4) 0.2716(3)
O5 O 0.7317(3) 0.2925(3) 0.2496(2)
N1 N 0.7661(3) 0.0140(3) 0.2210(3)
H1 H 0.7717 0.0549 0.1684
C1 C 0.8343(4) -0.0600(4) 0.2395(3)
C2 C 0.9283(5) -0.0861(5) 0.1837(4)
H2 H 0.9509 -0.0548 0.1208
C3 C 0.9857(6) -0.1599(6) 0.2259(5)
H3 H 1.0480 -0.1796 0.1902
C4 C 0.9522(6) -0.2067(6) 0.3222(6)
H4 H 0.9935 -0.2557 0.3494
C5 C 0.8605(5) -0.1809(5) 0.3756(5)
H5 H 0.8387 -0.2123 0.4387
C6 C 0.7993(4) -0.1069(4) 0.3349(4)
C7 C 0.7025(4) -0.0600(4) 0.3716(3)
C8 C 0.6862(4) 0.0127(4) 0.3003(3)
C9 C 0.6342(5) -0.0919(5) 0.4667(4)
H6 H 0.5752 -0.0487 0.4752
H7 H 0.7091 -0.0501 0.5471
H8 H 0.5741 -0.1975 0.4391
C10 C 0.7761(3) 0.3641(4) 0.4683(3)
C11 C 0.7756(4) 0.3230(4) 0.5687(3)
H9 H 0.7290 0.2227 0.5526
C12 C 0.8435(4) 0.4290(4) 0.6929(3)
H10 H 0.8441 0.4009 0.7602
C13 C 0.9100(4) 0.5769(4) 0.7146(3)
C14 C 0.9109(4) 0.6213(4) 0.6157(4)
H11 H 0.9552 0.7216 0.6319
C15 C 0.8451(4) 0.5146(4) 0.4936(3)
H12 H 0.8467 0.5431 0.4266
C16 C 0.7057(4) 0.2541(4) 0.3329(3)
C17 C 0.6005(3) 0.0893(4) 0.2997(3)
H13 H 0.5548 0.0818 0.3641
C18 C 0.4808(4) 0.0179(4) 0.1695(3)
H14 H 0.5275 0.0246 0.1057
C19 C 0.3771(4) -0.1453(4) 0.1362(3)
C20 C 0.2853(7) -0.3891(5) -0.0090(6)
H15 H 0.2506 -0.4359 -0.1009
H16 H 0.2017 -0.4105 0.0179
C21 C 0.3723(11) -0.4467(10) 0.0471(12)
H17 H 0.3114 -0.5524 0.0186
H18 H 0.4056 -0.3998 0.1380
H19 H 0.4548 -0.4244 0.0201
C22 C 0.3906(4) 0.0881(4) 0.1610(4)
C23 C 0.3410(6) 0.2676(6) 0.2746(7)
H20 H 0.3005 0.2663 0.3416
H21 H 0.2617 0.2193 0.1944
C24 C 0.4490(8) 0.4265(8) 0.2985(15)
H22 H 0.4005 0.4810 0.3023
H23 H 0.4871 0.4263 0.2309
H24 H 0.5276 0.4726 0.3775
loop_
_geom_bond_atom_site_label_1
_geom_bond_atom_site_label_2
_geom_bond_site_symmetry_1
_geom_bond_site_symmetry_2
Br1 C13 1_555 1_555
O1 C19 1_555 1_555
O2 C19 1_555 1_555
O3 C22 1_555 1_555
O4 C22 1_555 1_555
O5 C16 1_555 1_555
N1 H1 1_555 1_555
C1 N1 1_555 1_555
C2 C1 1_555 1_555
H2 C2 1_555 1_555
C3 C2 1_555 1_555
H3 C3 1_555 1_555
C4 C3 1_555 1_555
H4 C4 1_555 1_555
C5 C4 1_555 1_555
H5 C5 1_555 1_555
C6 C1 1_555 1_555
C7 C6 1_555 1_555
C8 N1 1_555 1_555
C9 C7 1_555 1_555
H6 C9 1_555 1_555
H7 C9 1_555 1_555
H8 C9 1_555 1_555
C10 C11 1_555 1_555
C11 H9 1_555 1_555
C12 C11 1_555 1_555
H10 C12 1_555 1_555
C13 C12 1_555 1_555
C14 C13 1_555 1_555
H11 C14 1_555 1_555
C15 C10 1_555 1_555
H12 C15 1_555 1_555
C16 C10 1_555 1_555
C17 C8 1_555 1_555
H13 C17 1_555 1_555
C18 C17 1_555 1_555
H14 C18 1_555 1_555
C19 C18 1_555 1_555
C20 O1 1_555 1_555
H15 C20 1_555 1_555
H16 C20 1_555 1_555
C21 C20 1_555 1_555
H17 C21 1_555 1_555
H18 C21 1_555 1_555
H19 C21 1_555 1_555
C22 C18 1_555 1_555
C23 O4 1_555 1_555
H20 C23 1_555 1_555
H21 C23 1_555 1_555
C24 C23 1_555 1_555
H22 C24 1_555 1_555
H23 C24 1_555 1_555
H24 C24 1_555 1_555
C5 C6 1_555 1_555
C7 C8 1_555 1_555
C14 C15 1_555 1_555
C16 C17 1_555 1_555

#END
