
#######################################################################
#
#                 Cambridge Crystallographic Data Centre
#                                CCDC 
#
#######################################################################
#
# If this CIF has been generated from an entry in the Cambridge 
# Structural Database, then it will include bibliographic, chemical, 
# crystal, experimental, refinement or atomic coordinate data resulting 
# from the CCDC's data processing and validation procedures.
#
#######################################################################

data_UKIHIG
_chemical_name_common            
"p-(N,N'-dimethylamino)benzaldehyde N-aminol-N'-2,3,4,6-tetra-O-acetyl-beta-D-glucopyranosyl thiosemicarbazone"
_chemical_formula_moiety         'C24 H32 N4 O9 S1'
_chemical_name_systematic        
'2-(Acetoxymethyl)-6-(((2-(4-(dimethylamino)benzylidene)hydrazino)carbothioyl)amino)tetrahydro-2H-pyran-3,4,5-triyl triacetate'
_symmetry_cell_setting           orthorhombic
_symmetry_space_group_name_H-M   'P 21 21 21'
_symmetry_Int_Tables_number      19
_space_group_name_Hall           'P 2ac 2ab'
loop_
_symmetry_equiv_pos_site_id
_symmetry_equiv_pos_as_xyz
1 x,y,z
2 1/2-x,-y,1/2+z
3 -x,1/2+y,1/2-z
4 1/2+x,1/2-y,-z
_cell_length_a                   8.6476(7)
_cell_length_b                   12.830(3)
_cell_length_c                   25.605(5)
_cell_angle_alpha                90
_cell_angle_beta                 90
_cell_angle_gamma                90
_cell_volume                     2840.84
_chemical_melting_point          '421-422 K'
_cell_formula_units_Z            4
loop_
_atom_site_label
_atom_site_type_symbol
_atom_site_fract_x
_atom_site_fract_y
_atom_site_fract_z
S1 S 0.44741(15) 0.57422(10) 0.96799(5)
O1 O 0.2374(4) 0.8027(3) 0.94290(12)
O2 O 0.1420(7) 0.9089(5) 0.81774(15)
O3 O 0.0838(6) 0.7705(4) 0.7675(2)
O4 O 0.2718(4) 1.0612(3) 0.88395(15)
O5 O 0.0178(5) 1.0990(3) 0.88252(17)
O6 O 0.3667(4) 1.0978(3) 0.98711(15)
O7 O 0.6062(5) 1.1394(3) 0.95849(19)
O8 O 0.4956(4) 0.9257(3) 1.03897(12)
O9 O 0.3485(5) 0.8965(4) 1.10978(15)
N1 N -0.0785(8) 0.6759(4) 1.32994(17)
N2 N 0.2326(5) 0.6177(3) 1.10120(15)
N3 N 0.3077(5) 0.5733(3) 1.05898(15)
N4 N 0.3193(4) 0.7320(3) 1.02133(15)
C1 C -0.1515(11) 0.7740(3) 1.3357(2)
C2 C -0.0719(11) 0.6061(6) 1.3748(2)
C3 C -0.0017(7) 0.6494(4) 1.28458(18)
C4 C 0.0760(7) 0.5543(5) 1.2792(2)
C5 C 0.1473(7) 0.5279(4) 1.2330(2)
C6 C 0.1462(6) 0.5944(4) 1.18964(18)
C7 C 0.0739(6) 0.6902(4) 1.19540(18)
C8 C 0.0016(7) 0.7166(5) 1.24134(19)
C9 C 0.2225(6) 0.5610(4) 1.14180(19)
C10 C 0.3543(5) 0.6305(3) 1.01792(17)
C11 C 0.3568(5) 0.8066(3) 0.98163(17)
C12 C 0.2597(6) 0.8743(4) 0.90073(17)
C13 C 0.2488(6) 0.9837(4) 0.92380(18)
C14 C 0.3782(6) 0.9968(3) 0.96289(19)
C15 C 0.3616(5) 0.9156(3) 1.00572(17)
C16 C 0.1364(8) 0.8425(5) 0.86203(19)
C17 C 0.0998(11) 0.8578(7) 0.7704(4)
C18 C 0.1020(12) 0.9418(8) 0.7294(4)
C19 C 0.1455(7) 1.1130(5) 0.8661(3)
C20 C 0.1910(11) 1.1896(7) 0.8248(3)
C21 C 0.4913(6) 1.1620(4) 0.9826(2)
C22 C 0.4689(10) 1.2595(6) 1.0121(4)
C23 C 0.4724(6) 0.9209(5) 1.09099(19)
C24 C 0.6169(7) 0.9483(6) 1.1198(2)
loop_
_geom_bond_atom_site_label_1
_geom_bond_atom_site_label_2
_geom_bond_site_symmetry_1
_geom_bond_site_symmetry_2
S1 C10 1_555 1_555
O1 C11 1_555 1_555
O2 C16 1_555 1_555
O3 C17 1_555 1_555
O4 C13 1_555 1_555
O5 C19 1_555 1_555
O6 C14 1_555 1_555
O7 C21 1_555 1_555
O8 C15 1_555 1_555
O9 C23 1_555 1_555
N1 C1 1_555 1_555
N2 N3 1_555 1_555
N3 C10 1_555 1_555
N4 C10 1_555 1_555
C2 N1 1_555 1_555
C3 N1 1_555 1_555
C4 C3 1_555 1_555
C5 C4 1_555 1_555
C6 C5 1_555 1_555
C7 C6 1_555 1_555
C8 C3 1_555 1_555
C9 N2 1_555 1_555
C11 N4 1_555 1_555
C12 O1 1_555 1_555
C13 C12 1_555 1_555
C14 C13 1_555 1_555
C15 C11 1_555 1_555
C16 C12 1_555 1_555
C17 O2 1_555 1_555
C18 C17 1_555 1_555
C19 O4 1_555 1_555
C20 C19 1_555 1_555
C21 O6 1_555 1_555
C22 C21 1_555 1_555
C23 O8 1_555 1_555
C24 C23 1_555 1_555
C6 C9 1_555 1_555
C7 C8 1_555 1_555
C14 C15 1_555 1_555

#END
