
#######################################################################
#
#                 Cambridge Crystallographic Data Centre
#                                CCDC 
#
#######################################################################
#
# If this CIF has been generated from an entry in the Cambridge 
# Structural Database, then it will include bibliographic, chemical, 
# crystal, experimental, refinement or atomic coordinate data resulting 
# from the CCDC's data processing and validation procedures.
#
#######################################################################

data_UKIHON
_chemical_formula_moiety         'C4 H2 N5 O6 1-,H4 N1 O1 1+'
_chemical_name_systematic        
'hydroxyammonium dinitro(3-nitro-1H-pyrazol-1-yl)methanide'
_symmetry_cell_setting           monoclinic
_symmetry_space_group_name_H-M   'P 21/c'
_symmetry_Int_Tables_number      14
_space_group_name_Hall           '-P 2ybc'
loop_
_symmetry_equiv_pos_site_id
_symmetry_equiv_pos_as_xyz
1 x,y,z
2 -x,1/2+y,1/2-z
3 -x,-y,-z
4 x,1/2-y,1/2+z
_cell_length_a                   4.9109(4)
_cell_length_b                   27.172(2)
_cell_length_c                   6.9470(6)
_cell_angle_alpha                90
_cell_angle_beta                 106.073(8)
_cell_angle_gamma                90
_cell_volume                     890.764
_exptl_crystal_description       monoclinic
_cell_formula_units_Z            4
loop_
_atom_site_label
_atom_site_type_symbol
_atom_site_fract_x
_atom_site_fract_y
_atom_site_fract_z
O1 O 0.2433(3) 0.55911(5) 0.5133(2)
O2 O 0.4698(3) 0.62708(5) 0.6218(2)
O3 O -0.1087(3) 0.52844(5) 0.7083(2)
N1 N -0.0146(4) 0.56363(6) 0.8262(2)
O4 O 0.8766(3) 0.65964(6) 1.3972(2)
O5 O -0.0790(3) 0.56816(6) 0.9862(2)
N2 N 0.2311(3) 0.63900(6) 0.9141(2)
N3 N 0.2948(3) 0.59487(6) 0.6322(2)
N4 N 0.6824(4) 0.68931(7) 1.3432(3)
N5 N 0.4656(3) 0.63662(6) 1.0723(2)
O6 O 0.6658(3) 0.72807(6) 1.4299(2)
C1 C 0.2253(5) 0.70842(8) 1.0738(3)
H1 H 0.1795 0.7392 1.1141
C2 C 0.1599(4) 0.59932(8) 0.7826(3)
C3 C 0.0825(4) 0.68134(7) 0.9123(3)
H2 H -0.0853 0.6902 0.8183
C4 C 0.4573(4) 0.67863(8) 1.1642(3)
N6 N 0.3717(4) 0.45683(7) 0.7264(2)
H3 H 0.4655 0.4534 0.6344
H4 H 0.2022 0.4699 0.6701
H5 H 0.3503 0.4275 0.7773
O7 O 0.5160(6) 0.48606(11) 0.8711(4)
H6 H 0.6439 0.4995 0.8358
loop_
_geom_bond_atom_site_label_1
_geom_bond_atom_site_label_2
_geom_bond_site_symmetry_1
_geom_bond_site_symmetry_2
O1 N3 1_555 1_555
O2 N3 1_555 1_555
O3 N1 1_555 1_555
N1 O5 1_555 1_555
O4 N4 1_555 1_555
N2 N5 1_555 1_555
N3 C2 1_555 1_555
N4 O6 1_555 1_555
N5 C4 1_555 1_555
C1 H1 1_555 1_555
C2 N1 1_555 1_555
C3 N2 1_555 1_555
H2 C3 1_555 1_555
C4 N4 1_555 1_555
N6 H3 1_555 1_555
H4 N6 1_555 1_555
H5 N6 1_555 1_555
O7 N6 1_555 1_555
H6 O7 1_555 1_555
N2 C2 1_555 1_555
C1 C3 1_555 1_555
C1 C4 1_555 1_555

#END
