
#######################################################################
#
#                 Cambridge Crystallographic Data Centre
#                                CCDC 
#
#######################################################################
#
# If this CIF has been generated from an entry in the Cambridge 
# Structural Database, then it will include bibliographic, chemical, 
# crystal, experimental, refinement or atomic coordinate data resulting 
# from the CCDC's data processing and validation procedures.
#
#######################################################################

data_UKIHAZ
_chemical_formula_moiety         'C26 H17 F3 O1 S1'
_chemical_name_systematic        
3,3-diphenyl-1-((trifluoromethyl)sulfanyl)-3H-benzo[f]chromene
_symmetry_cell_setting           monoclinic
_symmetry_space_group_name_H-M   'P 21/n'
_symmetry_Int_Tables_number      14
_space_group_name_Hall           '-P 2yn'
loop_
_symmetry_equiv_pos_site_id
_symmetry_equiv_pos_as_xyz
1 x,y,z
2 1/2-x,1/2+y,1/2-z
3 -x,-y,-z
4 1/2+x,1/2-y,1/2+z
_cell_length_a                   10.9922(6)
_cell_length_b                   34.479(2)
_cell_length_c                   11.1612(5)
_cell_angle_alpha                90
_cell_angle_beta                 94.851(4)
_cell_angle_gamma                90
_cell_volume                     4214.94
_exptl_crystal_colour            'light yellow'
_exptl_crystal_description       block
_cell_formula_units_Z            8
loop_
_atom_site_label
_atom_site_type_symbol
_atom_site_fract_x
_atom_site_fract_y
_atom_site_fract_z
S1 S 0.55893(10) 0.28609(4) 0.42646(10)
F1 F 0.5940(3) 0.35284(11) 0.3436(4)
O1 O 0.8657(2) 0.24217(8) 0.6720(2)
C1 C 0.8596(3) 0.22829(12) 0.5559(3)
C2 C 0.9668(4) 0.21166(13) 0.5219(4)
H1 H 1.0369 0.2112 0.5748
C3 C 0.9670(4) 0.19604(14) 0.4091(4)
H2 H 1.0387 0.1853 0.3850
C4 C 0.8605(4) 0.19589(13) 0.3284(3)
C5 C 0.8587(5) 0.17577(14) 0.2170(4)
H3 H 0.9296 0.1644 0.1936
C6 C 0.7529(6) 0.17320(16) 0.1449(4)
H4 H 0.7521 0.1598 0.0725
C7 C 0.6465(5) 0.19021(16) 0.1776(4)
H5 H 0.5750 0.1880 0.1272
C8 C 0.6456(4) 0.21034(14) 0.2837(3)
H6 H 0.5737 0.2218 0.3042
C9 C 0.7534(4) 0.21385(12) 0.3625(3)
C10 C 0.7558(3) 0.23285(12) 0.4781(3)
C11 C 0.6608(3) 0.25742(12) 0.5227(3)
C12 C 0.6570(3) 0.26269(12) 0.6409(3)
H7 H 0.5968 0.2783 0.6694
C13 C 0.7504(3) 0.24327(12) 0.7285(3)
C14 C 0.7806(3) 0.26920(12) 0.8377(3)
C15 C 0.8119(4) 0.30744(14) 0.8213(4)
H8 H 0.8113 0.3173 0.7437
C16 C 0.8441(4) 0.33123(15) 0.9178(4)
H9 H 0.8630 0.3571 0.9053
C17 C 0.8484(4) 0.31662(16) 1.0334(4)
H10 H 0.8730 0.3323 1.0987
C18 C 0.8168(4) 0.27940(15) 1.0507(3)
H11 H 0.8174 0.2698 1.1286
C19 C 0.7833(3) 0.25525(13) 0.9544(3)
H12 H 0.7627 0.2296 0.9680
C20 C 0.7114(3) 0.20250(12) 0.7612(3)
C21 C 0.5935(4) 0.19661(15) 0.7945(3)
H13 H 0.5388 0.2172 0.7927
C22 C 0.5576(5) 0.16034(18) 0.8300(4)
H14 H 0.4790 0.1567 0.8528
C23 C 0.6367(5) 0.12976(17) 0.8318(4)
H15 H 0.6119 0.1054 0.8562
C24 C 0.7523(5) 0.13484(15) 0.7979(4)
H16 H 0.8058 0.1139 0.7986
C25 C 0.7898(4) 0.17144(13) 0.7624(3)
H17 H 0.8684 0.1748 0.7393
C26 C 0.6513(6) 0.3262(2) 0.4083(7)
F2 F 0.7207(12) 0.3397(3) 0.4849(8)
F3 F 0.7410(10) 0.3126(3) 0.3218(8)
S2 S 0.10348(13) 0.53278(4) 0.39512(11)
F6 F 0.0635(3) 0.60223(10) 0.4439(3)
F7 F 0.2119(4) 0.59600(11) 0.3315(4)
F8 F 0.0348(4) 0.59049(12) 0.2588(3)
O2 O 0.3752(2) 0.50797(8) 0.1366(2)
C27 C 0.3939(3) 0.49011(12) 0.2473(3)
C28 C 0.5104(3) 0.47548(14) 0.2777(4)
H18 H 0.5708 0.4778 0.2246
C29 C 0.5345(4) 0.45800(14) 0.3849(4)
H19 H 0.6132 0.4491 0.4061
C30 C 0.4438(4) 0.45276(13) 0.4665(3)
C31 C 0.4685(4) 0.43317(14) 0.5765(4)
H20 H 0.5469 0.4238 0.5969
C32 C 0.3807(5) 0.42759(15) 0.6536(4)
H21 H 0.3990 0.4149 0.7263
C33 C 0.2635(5) 0.44114(14) 0.6223(4)
H22 H 0.2029 0.4370 0.6742
C34 C 0.2353(4) 0.46047(13) 0.5168(3)
H23 H 0.1556 0.4688 0.4978
C35 C 0.3248(3) 0.46811(12) 0.4359(3)
C36 C 0.3022(3) 0.48911(12) 0.3257(3)
C37 C 0.1914(3) 0.51107(12) 0.2860(3)
C38 C 0.1653(3) 0.51790(12) 0.1698(3)
H24 H 0.0950 0.5315 0.1434
C39 C 0.2517(3) 0.50328(12) 0.0800(3)
C40 C 0.2435(4) 0.52981(13) -0.0296(3)
C41 C 0.2956(5) 0.56627(15) -0.0218(4)
H25 H 0.3391 0.5740 0.0493
C42 C 0.2835(5) 0.59135(16) -0.1190(5)
H26 H 0.3198 0.6157 -0.1129
C43 C 0.2191(5) 0.58079(18) -0.2232(5)
H27 H 0.2099 0.5981 -0.2872
C44 C 0.1677(4) 0.54460(18) -0.2340(4)
H28 H 0.1245 0.5370 -0.3054
C45 C 0.1812(3) 0.51925(14) -0.1364(3)
H29 H 0.1470 0.4946 -0.1438
C46 C 0.2303(4) 0.46077(12) 0.0475(3)
C47 C 0.1199(4) 0.44318(14) 0.0585(3)
H30 H 0.0572 0.4572 0.0892
C48 C 0.1005(6) 0.40502(17) 0.0247(4)
H31 H 0.0246 0.3937 0.0319
C49 C 0.1917(7) 0.38363(17) -0.0194(5)
H32 H 0.1790 0.3578 -0.0413
C50 C 0.3024(6) 0.40113(17) -0.0304(4)
H33 H 0.3652 0.3869 -0.0601
C51 C 0.3227(5) 0.43956(14) 0.0016(4)
H34 H 0.3979 0.4510 -0.0076
C52 C 0.1095(5) 0.58187(17) 0.3588(5)
F4? F 0.6457(11) 0.3457(3) 0.5357(10)
F5? F 0.7566(9) 0.3255(4) 0.4094(16)
loop_
_geom_bond_atom_site_label_1
_geom_bond_atom_site_label_2
_geom_bond_site_symmetry_1
_geom_bond_site_symmetry_2
S1 C11 1_555 1_555
F1 C26 1_555 1_555
O1 C1 1_555 1_555
C1 C2 1_555 1_555
C2 H1 1_555 1_555
C3 C2 1_555 1_555
H2 C3 1_555 1_555
C4 C3 1_555 1_555
C5 C4 1_555 1_555
H3 C5 1_555 1_555
C6 C5 1_555 1_555
H4 C6 1_555 1_555
C7 C6 1_555 1_555
H5 C7 1_555 1_555
C8 C7 1_555 1_555
H6 C8 1_555 1_555
C9 C4 1_555 1_555
C10 C1 1_555 1_555
C11 C10 1_555 1_555
C12 C11 1_555 1_555
H7 C12 1_555 1_555
C13 O1 1_555 1_555
C14 C13 1_555 1_555
C15 C14 1_555 1_555
H8 C15 1_555 1_555
C16 C15 1_555 1_555
H9 C16 1_555 1_555
C17 C16 1_555 1_555
H10 C17 1_555 1_555
C18 C17 1_555 1_555
H11 C18 1_555 1_555
C19 C14 1_555 1_555
H12 C19 1_555 1_555
C20 C13 1_555 1_555
C21 C20 1_555 1_555
H13 C21 1_555 1_555
C22 C21 1_555 1_555
H14 C22 1_555 1_555
C23 C22 1_555 1_555
H15 C23 1_555 1_555
C24 C23 1_555 1_555
H16 C24 1_555 1_555
C25 C20 1_555 1_555
H17 C25 1_555 1_555
C26 S1 1_555 1_555
F2 C26 1_555 1_555
F3 C26 1_555 1_555
S2 C37 1_555 1_555
F6 C52 1_555 1_555
F7 C52 1_555 1_555
F8 C52 1_555 1_555
O2 C27 1_555 1_555
C27 C28 1_555 1_555
C28 H18 1_555 1_555
C29 C28 1_555 1_555
H19 C29 1_555 1_555
C30 C29 1_555 1_555
C31 C30 1_555 1_555
H20 C31 1_555 1_555
C32 C31 1_555 1_555
H21 C32 1_555 1_555
C33 C32 1_555 1_555
H22 C33 1_555 1_555
C34 C33 1_555 1_555
H23 C34 1_555 1_555
C35 C30 1_555 1_555
C36 C27 1_555 1_555
C37 C36 1_555 1_555
C38 C37 1_555 1_555
H24 C38 1_555 1_555
C39 O2 1_555 1_555
C40 C39 1_555 1_555
C41 C40 1_555 1_555
H25 C41 1_555 1_555
C42 C41 1_555 1_555
H26 C42 1_555 1_555
C43 C42 1_555 1_555
H27 C43 1_555 1_555
C44 C43 1_555 1_555
H28 C44 1_555 1_555
C45 C40 1_555 1_555
H29 C45 1_555 1_555
C46 C39 1_555 1_555
C47 C46 1_555 1_555
H30 C47 1_555 1_555
C48 C47 1_555 1_555
H31 C48 1_555 1_555
C49 C48 1_555 1_555
H32 C49 1_555 1_555
C50 C49 1_555 1_555
H33 C50 1_555 1_555
C51 C46 1_555 1_555
H34 C51 1_555 1_555
C52 S2 1_555 1_555
C8 C9 1_555 1_555
C9 C10 1_555 1_555
C12 C13 1_555 1_555
C18 C19 1_555 1_555
C24 C25 1_555 1_555
C34 C35 1_555 1_555
C35 C36 1_555 1_555
C38 C39 1_555 1_555
C44 C45 1_555 1_555
C50 C51 1_555 1_555

#END
