
#######################################################################
#
#                 Cambridge Crystallographic Data Centre
#                                CCDC 
#
#######################################################################
#
# If this CIF has been generated from an entry in the Cambridge 
# Structural Database, then it will include bibliographic, chemical, 
# crystal, experimental, refinement or atomic coordinate data resulting 
# from the CCDC's data processing and validation procedures.
#
#######################################################################

data_UKIHIH
_chemical_formula_moiety         'C4 H3 N5 O6'
_chemical_name_systematic        1-(dinitromethyl)-3-nitro-1H-pyrazole
_symmetry_cell_setting           monoclinic
_symmetry_space_group_name_H-M   'P 21/c'
_symmetry_Int_Tables_number      14
_space_group_name_Hall           '-P 2ybc'
loop_
_symmetry_equiv_pos_site_id
_symmetry_equiv_pos_as_xyz
1 x,y,z
2 -x,1/2+y,1/2-z
3 -x,-y,-z
4 x,1/2-y,1/2+z
_cell_length_a                   12.7070(8)
_cell_length_b                   11.6741(8)
_cell_length_c                   10.8273(8)
_cell_angle_alpha                90
_cell_angle_beta                 99.727(7)
_cell_angle_gamma                90
_cell_volume                     1583.06
_exptl_crystal_description       monoclinic
_cell_formula_units_Z            8
loop_
_atom_site_label
_atom_site_type_symbol
_atom_site_fract_x
_atom_site_fract_y
_atom_site_fract_z
O1 O 0.16654(14) 0.02156(15) 0.30487(17)
N1 N 0.39479(16) -0.24496(17) 0.7558(2)
N2 N 0.18423(16) 0.07997(18) 0.4005(2)
N3 N 0.35245(16) -0.08813(17) 0.61302(19)
N4 N 0.28721(15) -0.07316(17) 0.50071(18)
O2 O 0.56166(15) -0.08327(17) 0.6192(2)
O3 O 0.14845(16) 0.17543(16) 0.41215(18)
N5 N 0.52843(17) -0.1785(2) 0.6332(2)
O4 O 0.57927(15) -0.26668(16) 0.6459(2)
C1 C 0.40819(19) -0.1927(2) 0.6305(2)
H1 H 0.3787 -0.2467 0.5615
O5 O 0.31611(16) -0.30352(18) 0.75345(18)
C2 C 0.25430(18) 0.0325(2) 0.5085(2)
C3 C 0.3592(2) 0.0079(2) 0.6863(3)
H2 H 0.4011 0.0169 0.7671
C4 C 0.2945(2) 0.0880(2) 0.6214(3)
H3 H 0.2800 0.1635 0.6466
O6 O 0.45796(18) -0.2213(2) 0.8479(2)
O7 O -0.07069(14) -0.22879(16) 0.86000(17)
N6 N 0.33481(17) 0.02101(18) 1.0715(2)
O8 O 0.05416(14) -0.33284(15) 0.64391(17)
N7 N 0.13714(15) -0.14560(17) 0.89547(19)
N8 N 0.00222(16) -0.29782(18) 0.87089(19)
N9 N 0.09380(16) -0.24829(17) 0.6989(2)
O9 O 0.41507(14) -0.03943(16) 1.0919(2)
O10 O 0.12481(16) -0.16387(16) 0.65141(18)
N10 N 0.23661(15) -0.13468(18) 0.9651(2)
O11 O -0.00131(15) -0.39767(15) 0.89859(19)
O12 O 0.32789(16) 0.11771(16) 1.1106(2)
C5 C 0.08320(19) -0.0438(2) 0.8811(2)
H4 H 0.0137 -0.0313 0.8348
C6 C 0.14802(19) 0.0360(2) 0.9458(2)
H5 H 0.1341 0.1151 0.9559
C7 C 0.10898(18) -0.2537(2) 0.8431(2)
H6 H 0.1665 -0.3101 0.8747
C8 C 0.23958(18) -0.0254(2) 0.9938(2)
loop_
_geom_bond_atom_site_label_1
_geom_bond_atom_site_label_2
_geom_bond_site_symmetry_1
_geom_bond_site_symmetry_2
O1 N2 1_555 1_555
N1 C1 1_555 1_555
N2 O3 1_555 1_555
N3 N4 1_555 1_555
N4 C2 1_555 1_555
O2 N5 1_555 1_555
N5 O4 1_555 1_555
C1 N3 1_555 1_555
H1 C1 1_555 1_555
O5 N1 1_555 1_555
C2 N2 1_555 1_555
C3 N3 1_555 1_555
H2 C3 1_555 1_555
C4 C2 1_555 1_555
H3 C4 1_555 1_555
O6 N1 1_555 1_555
O7 N8 1_555 1_555
N6 O9 1_555 1_555
O8 N9 1_555 1_555
N7 N10 1_555 1_555
N8 O11 1_555 1_555
N9 O10 1_555 1_555
N10 C8 1_555 1_555
O12 N6 1_555 1_555
C5 N7 1_555 1_555
H4 C5 1_555 1_555
C6 C5 1_555 1_555
H5 C6 1_555 1_555
C7 N7 1_555 1_555
H6 C7 1_555 1_555
C8 N6 1_555 1_555
N5 C1 1_555 1_555
C3 C4 1_555 1_555
N8 C7 1_555 1_555
N9 C7 1_555 1_555
C6 C8 1_555 1_555

#END
