
#######################################################################
#
#                 Cambridge Crystallographic Data Centre
#                                CCDC 
#
#######################################################################
#
# If this CIF has been generated from an entry in the Cambridge 
# Structural Database, then it will include bibliographic, chemical, 
# crystal, experimental, refinement or atomic coordinate data resulting 
# from the CCDC's data processing and validation procedures.
#
#######################################################################

data_UKIHUT
_chemical_formula_moiety         'C3 H1 N6 O6 1-,H4 N1 1+,0.13(H2 O1)'
_chemical_name_systematic        
'ammonium dinitro(3-nitro-1H-1,2,4-triazol-1-yl)methanide hydrate'
_symmetry_cell_setting           monoclinic
_symmetry_space_group_name_H-M   'P 21/c'
_symmetry_Int_Tables_number      14
_space_group_name_Hall           '-P 2ybc'
loop_
_symmetry_equiv_pos_site_id
_symmetry_equiv_pos_as_xyz
1 x,y,z
2 -x,1/2+y,1/2-z
3 -x,-y,-z
4 x,1/2-y,1/2+z
_cell_length_a                   6.3136(5)
_cell_length_b                   15.3604(13)
_cell_length_c                   9.3411(8)
_cell_angle_alpha                90
_cell_angle_beta                 98.223(2)
_cell_angle_gamma                90
_cell_volume                     896.581
_exptl_crystal_description       block
_cell_formula_units_Z            4
loop_
_atom_site_label
_atom_site_type_symbol
_atom_site_fract_x
_atom_site_fract_y
_atom_site_fract_z
C1 C 0.8482(3) 0.22015(14) 1.0492(2)
C2 C 0.6085(4) 0.22301(15) 0.8750(2)
H1 H 0.5107 0.2088 0.7913
C3 C 0.4845(4) 0.37292(14) 0.9137(2)
N1 N 0.6117(3) 0.29926(12) 0.94610(19)
N2 N 0.7705(3) 0.29818(12) 1.0627(2)
N3 N 0.7596(3) 0.17073(12) 0.9373(2)
N4 N 0.3169(3) 0.38548(13) 0.9901(2)
N5 N 0.5458(3) 0.43174(13) 0.8154(2)
N6 N 1.0267(3) 0.18850(13) 1.1515(2)
O1 O 0.1953(3) 0.44924(11) 0.96976(17)
O2 O 0.2903(2) 0.32920(11) 1.08371(17)
O3 O 0.4499(2) 0.50142(11) 0.78732(17)
O4 O 0.7036(3) 0.41084(11) 0.75583(18)
O5 O 1.0726(2) 0.22827(11) 1.26473(17)
O6 O 1.1190(3) 0.12351(11) 1.11663(19)
N7 N 0.9935(3) 0.55925(13) 0.7415(2)
H2 H 0.939(3) 0.5988(11) 0.800(2)
H3 H 1.047(3) 0.5868(12) 0.6699(18)
H4 H 0.885(3) 0.5227(12) 0.707(2)
H5 H 1.099(3) 0.5284(12) 0.796(2)
O7 O 0.379(2) 0.0404(8) 0.9652(14)
H6 H 0.4821 0.0745 0.9571
H7 H 0.2936 0.0660 1.0142
loop_
_geom_bond_atom_site_label_1
_geom_bond_atom_site_label_2
_geom_bond_site_symmetry_1
_geom_bond_site_symmetry_2
C1 N2 1_555 1_555
C2 H1 1_555 1_555
C3 N1 1_555 1_555
N1 C2 1_555 1_555
N2 N1 1_555 1_555
N3 C1 1_555 1_555
N4 C3 1_555 1_555
N5 C3 1_555 1_555
N6 C1 1_555 1_555
O1 N4 1_555 1_555
O2 N4 1_555 1_555
O3 N5 1_555 1_555
O4 N5 1_555 1_555
O5 N6 1_555 1_555
O6 N6 1_555 1_555
N7 H2 1_555 1_555
H3 N7 1_555 1_555
H4 N7 1_555 1_555
H5 N7 1_555 1_555
O7 H6 1_555 1_555
H7 O7 1_555 1_555
C2 N3 1_555 1_555

#END
