
#######################################################################
#
#                 Cambridge Crystallographic Data Centre
#                                CCDC 
#
#######################################################################
#
# If this CIF has been generated from an entry in the Cambridge 
# Structural Database, then it will include bibliographic, chemical, 
# crystal, experimental, refinement or atomic coordinate data resulting 
# from the CCDC's data processing and validation procedures.
#
#######################################################################

data_UKIJOP
_chemical_formula_moiety         'C4 H2 N5 O6 1-,H4 N1 1+'
_chemical_name_systematic        
'ammonium dinitro(3-nitro-1H-pyrazol-1-yl)methanide'
_symmetry_cell_setting           monoclinic
_symmetry_space_group_name_H-M   'P 21/c'
_symmetry_Int_Tables_number      14
_space_group_name_Hall           '-P 2ybc'
loop_
_symmetry_equiv_pos_site_id
_symmetry_equiv_pos_as_xyz
1 x,y,z
2 -x,1/2+y,1/2-z
3 -x,-y,-z
4 x,1/2-y,1/2+z
_cell_length_a                   4.9037(3)
_cell_length_b                   25.6452(14)
_cell_length_c                   7.3737(4)
_cell_angle_alpha                90
_cell_angle_beta                 106.189(6)
_cell_angle_gamma                90
_cell_volume                     890.52
_exptl_crystal_description       monoclinic
_cell_formula_units_Z            4
loop_
_atom_site_label
_atom_site_type_symbol
_atom_site_fract_x
_atom_site_fract_y
_atom_site_fract_z
O1 O 0.3515(3) 0.52274(5) 0.71443(17)
O2 O 0.7182(3) 0.57275(5) 0.58095(19)
O3 O 0.8567(3) 0.64737(6) 0.71534(19)
O4 O 1.0369(3) 0.72815(6) 1.47877(19)
O5 O 0.2680(3) 0.55634(6) 0.96587(18)
N1 N 0.7223(3) 0.60618(7) 0.7033(2)
N2 N 0.3948(3) 0.55841(6) 0.8402(2)
N3 N 1.0512(3) 0.68692(7) 1.3980(2)
O6 O 1.2407(3) 0.65448(6) 1.45133(19)
N4 N 0.8441(3) 0.63318(6) 1.1329(2)
N5 N 0.6110(3) 0.63650(6) 0.9815(2)
C1 C 0.5705(4) 0.59895(8) 0.8393(3)
C2 C 0.4596(4) 0.68099(8) 0.9835(3)
H1 H 0.2942 0.6910 0.8933
C3 C 0.8281(4) 0.67656(8) 1.2259(3)
C4 C 0.5951(4) 0.70812(8) 1.1418(3)
H2 H 0.5446 0.7399 1.1838
N6 N 0.1522(3) 0.53940(6) 0.3116(2)
H3 H 0.0999 0.5716 0.2601
H4 H -0.0025 0.5179 0.2842
H5 H 0.2229 0.5425 0.4396
H6 H 0.2883 0.5257 0.2624
loop_
_geom_bond_atom_site_label_1
_geom_bond_atom_site_label_2
_geom_bond_site_symmetry_1
_geom_bond_site_symmetry_2
O1 N2 1_555 1_555
O2 N1 1_555 1_555
O3 N1 1_555 1_555
O4 N3 1_555 1_555
O5 N2 1_555 1_555
N1 C1 1_555 1_555
N2 C1 1_555 1_555
N3 O6 1_555 1_555
N4 N5 1_555 1_555
N5 C1 1_555 1_555
C2 N5 1_555 1_555
H1 C2 1_555 1_555
C3 N3 1_555 1_555
C4 C2 1_555 1_555
H2 C4 1_555 1_555
N6 H3 1_555 1_555
H4 N6 1_555 1_555
H5 N6 1_555 1_555
H6 N6 1_555 1_555
N4 C3 1_555 1_555
C3 C4 1_555 1_555

#END
