
#######################################################################
#
#                 Cambridge Crystallographic Data Centre
#                                CCDC 
#
#######################################################################
#
# If this CIF has been generated from an entry in the Cambridge 
# Structural Database, then it will include bibliographic, chemical, 
# crystal, experimental, refinement or atomic coordinate data resulting 
# from the CCDC's data processing and validation procedures.
#
#######################################################################

data_UKIKEG
_chemical_formula_moiety         'C2 N7 O6 1-,H4 N1 1+'
_chemical_name_systematic        
'ammonium dinitro(5-nitro-2H-tetrazol-2-yl)methanide'
_symmetry_cell_setting           monoclinic
_symmetry_space_group_name_H-M   'P 21/c'
_symmetry_Int_Tables_number      14
_space_group_name_Hall           '-P 2ybc'
loop_
_symmetry_equiv_pos_site_id
_symmetry_equiv_pos_as_xyz
1 x,y,z
2 -x,1/2+y,1/2-z
3 -x,-y,-z
4 x,1/2-y,1/2+z
_cell_length_a                   8.0847(3)
_cell_length_b                   7.5557(3)
_cell_length_c                   14.1232(6)
_cell_angle_alpha                90
_cell_angle_beta                 99.661(4)
_cell_angle_gamma                90
_cell_volume                     850.488
_exptl_crystal_description       monoclinic
_cell_formula_units_Z            4
loop_
_atom_site_label
_atom_site_type_symbol
_atom_site_fract_x
_atom_site_fract_y
_atom_site_fract_z
O1 O 0.33713(13) 0.22034(14) 0.48717(8)
O2 O 0.35914(14) -0.25181(14) 0.62942(8)
O3 O 0.46137(13) 0.01573(14) 0.63447(7)
O4 O 0.22785(15) -0.58259(14) 0.26472(9)
N1 N 0.10070(17) -0.56074(17) 0.30026(9)
O5 O -0.03020(14) -0.64330(15) 0.28089(8)
N2 N 0.17783(16) -0.21432(16) 0.46005(9)
O6 O 0.17609(14) 0.08174(15) 0.37185(8)
N3 N 0.26179(16) 0.08578(16) 0.45298(9)
N4 N -0.03267(16) -0.37335(16) 0.40633(9)
N5 N 0.36605(16) -0.10193(16) 0.59276(9)
N6 N 0.01473(16) -0.23918(17) 0.46321(9)
N7 N 0.23995(16) -0.32746(16) 0.40177(9)
C1 C 0.10516(19) -0.42133(19) 0.37132(11)
C2 C 0.26761(19) -0.0712(2) 0.50585(11)
N8 N 0.59279(16) -0.38743(16) 0.32676(9)
H1 H 0.5623 -0.3953 0.2634
H2 H 0.5701 -0.2796 0.3462
H3 H 0.7024 -0.4082 0.3423
H4 H 0.5366 -0.4672 0.3552
loop_
_geom_bond_atom_site_label_1
_geom_bond_atom_site_label_2
_geom_bond_site_symmetry_1
_geom_bond_site_symmetry_2
O1 N3 1_555 1_555
O2 N5 1_555 1_555
O3 N5 1_555 1_555
O4 N1 1_555 1_555
N1 O5 1_555 1_555
N2 N6 1_555 1_555
O6 N3 1_555 1_555
N3 C2 1_555 1_555
N4 N6 1_555 1_555
N5 C2 1_555 1_555
N7 N2 1_555 1_555
C1 N1 1_555 1_555
C2 N2 1_555 1_555
N8 H1 1_555 1_555
H2 N8 1_555 1_555
H3 N8 1_555 1_555
H4 N8 1_555 1_555
N4 C1 1_555 1_555
N7 C1 1_555 1_555

#END
