
#######################################################################
#
#                 Cambridge Crystallographic Data Centre
#                                CCDC 
#
#######################################################################
#
# If this CIF has been generated from an entry in the Cambridge 
# Structural Database, then it will include bibliographic, chemical, 
# crystal, experimental, refinement or atomic coordinate data resulting 
# from the CCDC's data processing and validation procedures.
#
#######################################################################

data_UKILAC02
_chemical_formula_moiety         'C20 H14 O2'
_chemical_name_systematic        1,1'-binaphthalene-2,2'-diol
_symmetry_cell_setting           trigonal
_symmetry_space_group_name_H-M   'P 32'
_symmetry_Int_Tables_number      145
_space_group_name_Hall           'P 32'
loop_
_symmetry_equiv_pos_site_id
_symmetry_equiv_pos_as_xyz
1 x,y,z
2 -y,x-y,2/3+z
3 -x+y,-x,1/3+z
_cell_length_a                   10.7909(2)
_cell_length_b                   10.7909(2)
_cell_length_c                   10.7555(2)
_cell_angle_alpha                90
_cell_angle_beta                 90
_cell_angle_gamma                120
_cell_volume                     1084.62
_exptl_crystal_colour            colorless
_exptl_crystal_description       plate
_cell_formula_units_Z            3
loop_
_atom_site_label
_atom_site_type_symbol
_atom_site_fract_x
_atom_site_fract_y
_atom_site_fract_z
O1 O 0.7405(2) 0.4472(2) 0.8832(2)
O2 O 0.7115(2) 0.5980(2) 0.61670(18)
C1 C 0.5974(3) 0.3729(3) 0.8519(2)
C2 C 0.5302(4) 0.2212(3) 0.8559(3)
C3 C 0.3921(3) 0.1404(3) 0.8191(3)
C4 C 0.3108(3) 0.2025(3) 0.7782(2)
C5 C 0.1688(3) 0.1207(3) 0.7333(3)
C6 C 0.0940(3) 0.1844(3) 0.6946(3)
C7 C 0.1564(3) 0.3333(3) 0.7007(3)
C8 C 0.2952(3) 0.4164(3) 0.7404(2)
C9 C 0.3775(3) 0.3551(2) 0.7794(2)
C10 C 0.5235(3) 0.4399(2) 0.8168(2)
C11 C 0.5974(2) 0.5997(2) 0.8098(2)
C12 C 0.5740(2) 0.6828(2) 0.9009(2)
C13 C 0.4779(2) 0.6192(3) 1.0016(2)
C14 C 0.4574(3) 0.7010(3) 1.0875(2)
C15 C 0.5315(3) 0.8518(3) 1.0768(3)
C16 C 0.6246(3) 0.9170(3) 0.9811(3)
C17 C 0.6480(3) 0.8346(2) 0.8903(2)
C18 C 0.7415(3) 0.8997(3) 0.7890(3)
C19 C 0.7610(3) 0.8203(3) 0.7010(3)
C20 C 0.6882(3) 0.6689(3) 0.7109(2)
H1 H 0.7726 0.5341 0.8938
H2 H 0.6590 0.5113 0.6294
H3 H 0.5830 0.1777 0.8844
H4 H 0.3473 0.0388 0.8205
H5 H 0.1276 0.0209 0.7304
H6 H -0.0013 0.1281 0.6620
H7 H 0.1031 0.3773 0.6743
H8 H 0.3371 0.5176 0.7429
H9 H 0.4275 0.5181 1.0069
H10 H 0.3952 0.6569 1.1578
H11 H 0.5167 0.9073 1.1366
H12 H 0.6751 1.0169 0.9744
H13 H 0.7903 1.0011 0.7835
H14 H 0.8215 0.8650 0.6323
loop_
_geom_bond_atom_site_label_1
_geom_bond_atom_site_label_2
_geom_bond_site_symmetry_1
_geom_bond_site_symmetry_2
O1 C1 1_555 1_555
O2 C20 1_555 1_555
C1 C2 1_555 1_555
C2 C3 1_555 1_555
C3 C4 1_555 1_555
C4 C5 1_555 1_555
C5 C6 1_555 1_555
C6 C7 1_555 1_555
C7 C8 1_555 1_555
C8 C9 1_555 1_555
C9 C4 1_555 1_555
C10 C1 1_555 1_555
C11 C10 1_555 1_555
C12 C11 1_555 1_555
C13 C12 1_555 1_555
C14 C13 1_555 1_555
C15 C14 1_555 1_555
C16 C15 1_555 1_555
C17 C12 1_555 1_555
C18 C17 1_555 1_555
C19 C18 1_555 1_555
C20 C11 1_555 1_555
H1 O1 1_555 1_555
H2 O2 1_555 1_555
H3 C2 1_555 1_555
H4 C3 1_555 1_555
H5 C5 1_555 1_555
H6 C6 1_555 1_555
H7 C7 1_555 1_555
H8 C8 1_555 1_555
H9 C13 1_555 1_555
H10 C14 1_555 1_555
H11 C15 1_555 1_555
H12 C16 1_555 1_555
H13 C18 1_555 1_555
H14 C19 1_555 1_555
C9 C10 1_555 1_555
C16 C17 1_555 1_555
C19 C20 1_555 1_555

#END
