
#######################################################################
#
#                 Cambridge Crystallographic Data Centre
#                                CCDC 
#
#######################################################################
#
# If this CIF has been generated from an entry in the Cambridge 
# Structural Database, then it will include bibliographic, chemical, 
# crystal, experimental, refinement or atomic coordinate data resulting 
# from the CCDC's data processing and validation procedures.
#
#######################################################################

data_UKITUF
_chemical_formula_moiety         'C24 H7 B1 F15 N1'
_chemical_name_systematic        (aniline)-tris(pentafluorophenyl)-boron
_symmetry_cell_setting           orthorhombic
_symmetry_space_group_name_H-M   'P n a 21'
_symmetry_Int_Tables_number      33
_space_group_name_Hall           'P 2c -2n'
loop_
_symmetry_equiv_pos_site_id
_symmetry_equiv_pos_as_xyz
1 x,y,z
2 -x,-y,1/2+z
3 1/2-x,1/2+y,1/2+z
4 1/2+x,1/2-y,z
_cell_length_a                   13.7574(6)
_cell_length_b                   8.8592(3)
_cell_length_c                   18.0333(6)
_cell_angle_alpha                90
_cell_angle_beta                 90
_cell_angle_gamma                90
_cell_volume                     2197.89
_exptl_crystal_colour            'light brown'
_exptl_crystal_description       plate
_cell_formula_units_Z            4
loop_
_atom_site_label
_atom_site_type_symbol
_atom_site_fract_x
_atom_site_fract_y
_atom_site_fract_z
F1 F 0.32569(19) 0.3863(3) 0.78006(14)
F2 F 0.2747(2) 0.2269(3) 0.89863(14)
F3 F 0.2657(2) -0.0790(3) 0.89259(17)
F4 F 0.3103(2) -0.2235(3) 0.76336(17)
F5 F 0.3691(2) -0.0682(2) 0.64587(15)
F6 F 0.20635(19) 0.1728(3) 0.56644(16)
F7 F 0.1789(2) 0.0703(3) 0.42910(16)
F8 F 0.3369(2) 0.0088(3) 0.33980(15)
F9 F 0.5171(2) 0.0463(3) 0.39403(16)
F10 F 0.54693(19) 0.1557(3) 0.52939(15)
F11 F 0.45738(19) 0.5171(3) 0.54441(14)
F12 F 0.3679(2) 0.7731(3) 0.51215(14)
F13 F 0.1828(2) 0.8271(3) 0.56093(17)
F14 F 0.0923(2) 0.6145(3) 0.64599(17)
F15 F 0.18072(18) 0.3638(3) 0.68317(14)
N1 N 0.4996(2) 0.3039(4) 0.65194(18)
H1 H 0.5345 0.2088 0.6535
H2 H 0.5256 0.3614 0.6107
C1 C 0.5215(3) 0.3869(5) 0.7206(2)
C2 C 0.5360(3) 0.3068(5) 0.7855(2)
H3 H 0.5376 0.2019 0.7851
C3 C 0.5478(4) 0.3859(6) 0.8510(3)
H4 H 0.5567 0.3336 0.8952
C4 C 0.5466(4) 0.5417(6) 0.8514(3)
H5 H 0.5522 0.5939 0.8959
C5 C 0.5371(4) 0.6194(5) 0.7860(3)
H6 H 0.5397 0.7242 0.7861
C6 C 0.5236(4) 0.5431(5) 0.7197(3)
H7 H 0.5160 0.5958 0.6755
C7 C 0.3464(3) 0.1681(5) 0.7056(2)
C8 C 0.3217(3) 0.2349(5) 0.7727(2)
C9 C 0.2951(4) 0.1549(5) 0.8351(3)
C10 C 0.2908(4) 0.0006(6) 0.8317(3)
C11 C 0.3136(4) -0.0716(5) 0.7675(3)
C12 C 0.3425(4) 0.0122(5) 0.7064(3)
C13 C 0.3771(3) 0.1783(4) 0.5540(2)
C14 C 0.4528(3) 0.1393(5) 0.5071(2)
C15 C 0.4403(4) 0.0813(5) 0.4365(2)
C16 C 0.3484(4) 0.0610(5) 0.4093(3)
C17 C 0.2701(4) 0.0920(5) 0.4540(3)
C18 C 0.2863(3) 0.1474(4) 0.5240(2)
C19 C 0.3271(3) 0.4277(4) 0.6195(2)
C20 C 0.3666(3) 0.5378(5) 0.5739(2)
C21 C 0.3216(3) 0.6711(5) 0.5545(2)
C22 C 0.2289(4) 0.6985(5) 0.5784(3)
C23 C 0.1842(3) 0.5926(5) 0.6226(3)
C24 C 0.2330(3) 0.4624(4) 0.6413(2)
B1 B 0.3834(3) 0.2666(5) 0.6339(3)
loop_
_geom_bond_atom_site_label_1
_geom_bond_atom_site_label_2
_geom_bond_site_symmetry_1
_geom_bond_site_symmetry_2
F1 C8 1_555 1_555
F2 C9 1_555 1_555
F3 C10 1_555 1_555
F4 C11 1_555 1_555
F5 C12 1_555 1_555
F6 C18 1_555 1_555
F7 C17 1_555 1_555
F8 C16 1_555 1_555
F9 C15 1_555 1_555
F10 C14 1_555 1_555
F11 C20 1_555 1_555
F12 C21 1_555 1_555
F13 C22 1_555 1_555
F14 C23 1_555 1_555
F15 C24 1_555 1_555
N1 H1 1_555 1_555
H2 N1 1_555 1_555
C1 N1 1_555 1_555
C2 C1 1_555 1_555
H3 C2 1_555 1_555
C3 C2 1_555 1_555
H4 C3 1_555 1_555
C4 C3 1_555 1_555
H5 C4 1_555 1_555
C5 C4 1_555 1_555
H6 C5 1_555 1_555
C6 C1 1_555 1_555
H7 C6 1_555 1_555
C7 C8 1_555 1_555
C8 C9 1_555 1_555
C9 C10 1_555 1_555
C10 C11 1_555 1_555
C11 C12 1_555 1_555
C12 C7 1_555 1_555
C13 C14 1_555 1_555
C14 C15 1_555 1_555
C15 C16 1_555 1_555
C16 C17 1_555 1_555
C17 C18 1_555 1_555
C18 C13 1_555 1_555
C19 C20 1_555 1_555
C20 C21 1_555 1_555
C21 C22 1_555 1_555
C22 C23 1_555 1_555
C23 C24 1_555 1_555
C24 C19 1_555 1_555
B1 N1 1_555 1_555
C5 C6 1_555 1_555
C7 B1 1_555 1_555
C13 B1 1_555 1_555
C19 B1 1_555 1_555

#END
