
#######################################################################
#
#                 Cambridge Crystallographic Data Centre
#                                CCDC 
#
#######################################################################
#
# If this CIF has been generated from an entry in the Cambridge 
# Structural Database, then it will include bibliographic, chemical, 
# crystal, experimental, refinement or atomic coordinate data resulting 
# from the CCDC's data processing and validation procedures.
#
#######################################################################

data_UKIVUH
_chemical_formula_moiety         'C34 H36 B1 N3'
_chemical_name_systematic        
5,5-dimesityl-1-methyl-2-phenyl-5,6-dihydro-1H-4,5-[1,2,4]triazolo[5,1-a][2,3]benzazaborinine
_symmetry_cell_setting           monoclinic
_symmetry_space_group_name_H-M   'P 21/c'
_symmetry_Int_Tables_number      14
_space_group_name_Hall           '-P 2ybc'
loop_
_symmetry_equiv_pos_site_id
_symmetry_equiv_pos_as_xyz
1 x,y,z
2 -x,1/2+y,1/2-z
3 -x,-y,-z
4 x,1/2-y,1/2+z
_cell_length_a                   21.303(3)
_cell_length_b                   13.582(2)
_cell_length_c                   9.6038(12)
_cell_angle_alpha                90
_cell_angle_beta                 95.171(5)
_cell_angle_gamma                90
_cell_volume                     2767.43
_exptl_crystal_colour            colorless
_exptl_crystal_description       block
_cell_formula_units_Z            4
loop_
_atom_site_label
_atom_site_type_symbol
_atom_site_fract_x
_atom_site_fract_y
_atom_site_fract_z
B1 B 0.27041(8) 0.05887(12) 0.32990(17)
N1 N 0.24209(5) 0.01348(9) 0.46913(12)
N2 N 0.18090(6) -0.01573(9) 0.48195(13)
N3 N 0.23830(6) -0.03139(9) 0.68495(12)
C1 C 0.31584(7) 0.14380(11) 0.41071(15)
H1 H 0.3378 0.1813 0.3411
H2 H 0.2895 0.1904 0.4591
C2 C 0.36354(7) 0.09748(11) 0.51502(15)
C3 C 0.42780(8) 0.11828(13) 0.52328(17)
H3 H 0.4430 0.1655 0.4615
C4 C 0.47008(7) 0.07157(14) 0.61958(17)
H4 H 0.5137 0.0868 0.6226
C5 C 0.44925(7) 0.00276(13) 0.71162(17)
H5 H 0.4784 -0.0288 0.7777
C6 C 0.38557(7) -0.01966(12) 0.70658(15)
H6 H 0.3709 -0.0670 0.7688
C7 C 0.34320(7) 0.02792(11) 0.60937(15)
C8 C 0.27611(7) 0.00434(10) 0.59058(15)
C9 C 0.17984(7) -0.04246(11) 0.61275(15)
C10 C 0.25261(7) -0.03391(12) 0.83758(15)
H7 H 0.2848 0.0156 0.8654
H8 H 0.2683 -0.0994 0.8660
H9 H 0.2143 -0.0196 0.8830
C11 C 0.12401(7) -0.07976(12) 0.67552(16)
C12 C 0.06637(7) -0.03210(14) 0.64645(18)
H10 H 0.0632 0.0236 0.5864
C13 C 0.01353(8) -0.06675(17) 0.7062(2)
H11 H -0.0259 -0.0346 0.6872
C14 C 0.01839(9) -0.14788(17) 0.79295(19)
H12 H -0.0178 -0.1708 0.8342
C15 C 0.07513(9) -0.19608(15) 0.82057(18)
H13 H 0.0779 -0.2523 0.8796
C16 C 0.12813(8) -0.16215(13) 0.76178(17)
H14 H 0.1673 -0.1952 0.7804
C17 C 0.31815(6) -0.02040(11) 0.25946(14)
C18 C 0.33079(7) -0.12021(11) 0.29851(15)
C19 C 0.37452(7) -0.17597(12) 0.23253(16)
H15 H 0.3810 -0.2426 0.2603
C20 C 0.40883(7) -0.13886(13) 0.12873(16)
C21 C 0.39692(7) -0.04226(12) 0.08941(16)
H16 H 0.4194 -0.0146 0.0179
C22 C 0.35295(7) 0.01638(11) 0.15108(15)
C23 C 0.34670(7) 0.12040(12) 0.09362(16)
H17 H 0.3576 0.1210 -0.0034
H18 H 0.3753 0.1642 0.1502
H19 H 0.3032 0.1431 0.0969
C24 C 0.45800(8) -0.20053(14) 0.0655(2)
H20 H 0.4643 -0.1756 -0.0280
H21 H 0.4438 -0.2691 0.0587
H22 H 0.4978 -0.1969 0.1249
C25 C 0.29965(8) -0.17576(12) 0.41101(17)
H23 H 0.3060 -0.2466 0.3994
H24 H 0.2544 -0.1613 0.4029
H25 H 0.3184 -0.1552 0.5033
C26 C 0.21021(7) 0.09326(11) 0.21962(15)
C27 C 0.19381(7) 0.19281(11) 0.18649(15)
C28 C 0.14589(7) 0.21572(12) 0.08243(16)
H26 H 0.1372 0.2830 0.0619
C29 C 0.11056(7) 0.14450(13) 0.00803(16)
C30 C 0.12395(7) 0.04728(12) 0.04254(15)
H27 H 0.0994 -0.0033 -0.0041
C31 C 0.17238(7) 0.02102(11) 0.14381(15)
C32 C 0.18063(7) -0.08871(11) 0.16618(16)
H28 H 0.1485 -0.1241 0.1063
H29 H 0.1762 -0.1046 0.2643
H30 H 0.2226 -0.1085 0.1424
C33 C 0.05968(8) 0.17239(15) -0.10496(18)
H31 H 0.0407 0.2352 -0.0810
H32 H 0.0272 0.1211 -0.1128
H33 H 0.0781 0.1789 -0.1944
C34 C 0.22551(8) 0.28201(12) 0.25667(17)
H34 H 0.2042 0.3420 0.2206
H35 H 0.2698 0.2839 0.2369
H36 H 0.2230 0.2779 0.3579
loop_
_geom_bond_atom_site_label_1
_geom_bond_atom_site_label_2
_geom_bond_site_symmetry_1
_geom_bond_site_symmetry_2
B1 N1 1_555 1_555
N1 N2 1_555 1_555
N2 C9 1_555 1_555
N3 C8 1_555 1_555
C1 B1 1_555 1_555
H1 C1 1_555 1_555
H2 C1 1_555 1_555
C2 C1 1_555 1_555
C3 C2 1_555 1_555
H3 C3 1_555 1_555
C4 C3 1_555 1_555
H4 C4 1_555 1_555
C5 C4 1_555 1_555
H5 C5 1_555 1_555
C6 C5 1_555 1_555
H6 C6 1_555 1_555
C7 C2 1_555 1_555
C8 N1 1_555 1_555
C9 N3 1_555 1_555
C10 N3 1_555 1_555
H7 C10 1_555 1_555
H8 C10 1_555 1_555
H9 C10 1_555 1_555
C11 C9 1_555 1_555
C12 C11 1_555 1_555
H10 C12 1_555 1_555
C13 C12 1_555 1_555
H11 C13 1_555 1_555
C14 C13 1_555 1_555
H12 C14 1_555 1_555
C15 C14 1_555 1_555
H13 C15 1_555 1_555
C16 C11 1_555 1_555
H14 C16 1_555 1_555
C17 B1 1_555 1_555
C18 C17 1_555 1_555
C19 C18 1_555 1_555
H15 C19 1_555 1_555
C20 C19 1_555 1_555
C21 C20 1_555 1_555
H16 C21 1_555 1_555
C22 C17 1_555 1_555
C23 C22 1_555 1_555
H17 C23 1_555 1_555
H18 C23 1_555 1_555
H19 C23 1_555 1_555
C24 C20 1_555 1_555
H20 C24 1_555 1_555
H21 C24 1_555 1_555
H22 C24 1_555 1_555
C25 C18 1_555 1_555
H23 C25 1_555 1_555
H24 C25 1_555 1_555
H25 C25 1_555 1_555
C26 B1 1_555 1_555
C27 C26 1_555 1_555
C28 C27 1_555 1_555
H26 C28 1_555 1_555
C29 C28 1_555 1_555
C30 C29 1_555 1_555
H27 C30 1_555 1_555
C31 C26 1_555 1_555
C32 C31 1_555 1_555
H28 C32 1_555 1_555
H29 C32 1_555 1_555
H30 C32 1_555 1_555
C33 C29 1_555 1_555
H31 C33 1_555 1_555
H32 C33 1_555 1_555
H33 C33 1_555 1_555
C34 C27 1_555 1_555
H34 C34 1_555 1_555
H35 C34 1_555 1_555
H36 C34 1_555 1_555
C6 C7 1_555 1_555
C7 C8 1_555 1_555
C15 C16 1_555 1_555
C21 C22 1_555 1_555
C30 C31 1_555 1_555

#END
