
#######################################################################
#
#                 Cambridge Crystallographic Data Centre
#                                CCDC 
#
#######################################################################
#
# If this CIF has been generated from an entry in the Cambridge 
# Structural Database, then it will include bibliographic, chemical, 
# crystal, experimental, refinement or atomic coordinate data resulting 
# from the CCDC's data processing and validation procedures.
#
#######################################################################

data_UKIVOB
_chemical_formula_moiety         'C32 H32 B1 N1 S1'
_chemical_name_systematic        
6,6-dimesityl-5,6-dihydro-7,6-[1,3]benzothiazolo[2,3-a][2,3]benzazaborinine
_symmetry_cell_setting           monoclinic
_symmetry_space_group_name_H-M   'P 21/n'
_symmetry_Int_Tables_number      14
_space_group_name_Hall           '-P 2yn'
loop_
_symmetry_equiv_pos_site_id
_symmetry_equiv_pos_as_xyz
1 x,y,z
2 1/2-x,1/2+y,1/2-z
3 -x,-y,-z
4 1/2+x,1/2-y,1/2+z
_cell_length_a                   9.8410(3)
_cell_length_b                   15.7410(5)
_cell_length_c                   17.1529(6)
_cell_angle_alpha                90
_cell_angle_beta                 104.0410(10)
_cell_angle_gamma                90
_cell_volume                     2577.72
_exptl_crystal_colour            yellow
_exptl_crystal_description       block
_cell_formula_units_Z            4
loop_
_atom_site_label
_atom_site_type_symbol
_atom_site_fract_x
_atom_site_fract_y
_atom_site_fract_z
S1 S 1.11305(3) 0.10712(2) 0.02513(2)
B1 B 0.72505(13) 0.16947(9) 0.06545(8)
N1 N 0.89464(10) 0.15053(6) 0.07294(6)
C1 C 0.65033(13) 0.09940(8) -0.00316(7)
H1 H 0.6684 0.0416 0.0198
H2 H 0.5478 0.1086 -0.0169
C2 C 0.70168(14) 0.10424(8) -0.07847(7)
C3 C 0.61617(16) 0.09170(10) -0.15534(8)
H3 H 0.5190 0.0814 -0.1617
C4 C 0.67084(19) 0.09408(11) -0.22276(9)
H4 H 0.6108 0.0850 -0.2745
C5 C 0.81160(19) 0.10961(10) -0.21535(9)
H5 H 0.8479 0.1117 -0.2618
C6 C 0.89932(16) 0.12202(9) -0.14003(8)
H6 H 0.9962 0.1326 -0.1345
C7 C 0.84463(14) 0.11894(8) -0.07191(7)
C8 C 0.93677(13) 0.12763(8) 0.00833(7)
C9 C 1.13626(13) 0.13341(8) 0.12532(8)
C10 C 1.26196(14) 0.13631(10) 0.18426(9)
H7 H 1.3480 0.1199 0.1728
C11 C 1.25669(15) 0.16380(10) 0.25958(9)
H8 H 1.3406 0.1664 0.3010
C12 C 1.12996(14) 0.18795(9) 0.27626(8)
H9 H 1.1296 0.2076 0.3286
C13 C 1.00508(13) 0.18387(9) 0.21816(7)
H10 H 0.9194 0.2000 0.2302
C14 C 1.00766(12) 0.15557(8) 0.14131(7)
C15 C 0.69415(12) 0.14752(7) 0.15410(7)
C16 C 0.71244(12) 0.06403(8) 0.18619(7)
C17 C 0.67927(13) 0.04345(8) 0.25869(7)
H11 H 0.6900 -0.0137 0.2770
C18 C 0.63144(13) 0.10329(9) 0.30466(7)
C19 C 0.62115(13) 0.18581(8) 0.27675(7)
H12 H 0.5925 0.2287 0.3083
C20 C 0.65106(12) 0.20894(8) 0.20401(7)
C21 C 0.64319(18) 0.30334(9) 0.18665(9)
H13 H 0.6351 0.3343 0.2349
H14 H 0.5612 0.3153 0.1427
H15 H 0.7282 0.3215 0.1711
C22 C 0.59731(16) 0.07928(11) 0.38305(8)
H16 H 0.5962 0.1305 0.4154
H17 H 0.6684 0.0398 0.4126
H18 H 0.5051 0.0520 0.3720
C23 C 0.77952(16) -0.00891(9) 0.15102(9)
H19 H 0.8385 -0.0421 0.1947
H20 H 0.8372 0.0138 0.1166
H21 H 0.7062 -0.0454 0.1191
C24 C 0.68445(12) 0.26466(8) 0.02512(7)
C25 C 0.54043(13) 0.28395(9) -0.00641(8)
C26 C 0.49721(15) 0.35806(9) -0.05027(8)
H22 H 0.3999 0.3676 -0.0713
C27 C 0.59147(15) 0.41807(9) -0.06414(8)
C28 C 0.73125(14) 0.40247(8) -0.03038(7)
H23 H 0.7981 0.4435 -0.0375
C29 C 0.77943(13) 0.32915(8) 0.01386(7)
C30 C 0.93563(14) 0.32858(9) 0.05151(9)
H24 H 0.9740 0.3855 0.0478
H25 H 0.9815 0.2879 0.0230
H26 H 0.9524 0.3120 0.1081
C31 C 0.42068(14) 0.23047(11) 0.00912(11)
H27 H 0.3514 0.2677 0.0242
H28 H 0.4573 0.1904 0.0529
H29 H 0.3763 0.1990 -0.0397
C32 C 0.54308(19) 0.49645(10) -0.11341(10)
H30 H 0.6137 0.5413 -0.0982
H31 H 0.4542 0.5159 -0.1035
H32 H 0.5299 0.4831 -0.1706
loop_
_geom_bond_atom_site_label_1
_geom_bond_atom_site_label_2
_geom_bond_site_symmetry_1
_geom_bond_site_symmetry_2
S1 C8 1_555 1_555
B1 N1 1_555 1_555
N1 C8 1_555 1_555
C1 B1 1_555 1_555
H1 C1 1_555 1_555
H2 C1 1_555 1_555
C2 C1 1_555 1_555
C3 C2 1_555 1_555
H3 C3 1_555 1_555
C4 C3 1_555 1_555
H4 C4 1_555 1_555
C5 C4 1_555 1_555
H5 C5 1_555 1_555
C6 C5 1_555 1_555
H6 C6 1_555 1_555
C7 C2 1_555 1_555
C8 C7 1_555 1_555
C9 S1 1_555 1_555
C10 C9 1_555 1_555
H7 C10 1_555 1_555
C11 C10 1_555 1_555
H8 C11 1_555 1_555
C12 C11 1_555 1_555
H9 C12 1_555 1_555
C13 C12 1_555 1_555
H10 C13 1_555 1_555
C14 N1 1_555 1_555
C15 B1 1_555 1_555
C16 C15 1_555 1_555
C17 C16 1_555 1_555
H11 C17 1_555 1_555
C18 C17 1_555 1_555
C19 C18 1_555 1_555
H12 C19 1_555 1_555
C20 C15 1_555 1_555
C21 C20 1_555 1_555
H13 C21 1_555 1_555
H14 C21 1_555 1_555
H15 C21 1_555 1_555
C22 C18 1_555 1_555
H16 C22 1_555 1_555
H17 C22 1_555 1_555
H18 C22 1_555 1_555
C23 C16 1_555 1_555
H19 C23 1_555 1_555
H20 C23 1_555 1_555
H21 C23 1_555 1_555
C24 B1 1_555 1_555
C25 C24 1_555 1_555
C26 C25 1_555 1_555
H22 C26 1_555 1_555
C27 C26 1_555 1_555
C28 C27 1_555 1_555
H23 C28 1_555 1_555
C29 C24 1_555 1_555
C30 C29 1_555 1_555
H24 C30 1_555 1_555
H25 C30 1_555 1_555
H26 C30 1_555 1_555
C31 C25 1_555 1_555
H27 C31 1_555 1_555
H28 C31 1_555 1_555
H29 C31 1_555 1_555
C32 C27 1_555 1_555
H30 C32 1_555 1_555
H31 C32 1_555 1_555
H32 C32 1_555 1_555
C6 C7 1_555 1_555
C9 C14 1_555 1_555
C13 C14 1_555 1_555
C19 C20 1_555 1_555
C28 C29 1_555 1_555

#END
