
#######################################################################
#
#                 Cambridge Crystallographic Data Centre
#                                CCDC 
#
#######################################################################
#
# If this CIF has been generated from an entry in the Cambridge 
# Structural Database, then it will include bibliographic, chemical, 
# crystal, experimental, refinement or atomic coordinate data resulting 
# from the CCDC's data processing and validation procedures.
#
#######################################################################

data_UKODAZ01
_chemical_formula_moiety         'C2 H1 N4 O3 1-,H4 N1 1+,H2 O1'
_chemical_name_systematic        
'Ammonium 3-nitro-1,2,4-triazol-5-one monohydrate'
_symmetry_cell_setting           orthorhombic
_symmetry_space_group_name_H-M   'P 21 21 21'
_symmetry_Int_Tables_number      19
_space_group_name_Hall           'P 2ac 2ab'
loop_
_symmetry_equiv_pos_site_id
_symmetry_equiv_pos_as_xyz
1 x,y,z
2 1/2-x,-y,1/2+z
3 1/2+x,1/2-y,-z
4 -x,1/2+y,1/2-z
_cell_length_a                   6.288(2)
_cell_length_b                   8.330(2)
_cell_length_c                   12.692(3)
_cell_angle_alpha                90
_cell_angle_beta                 90
_cell_angle_gamma                90
_cell_volume                     664.795
_cell_formula_units_Z            4
loop_
_atom_site_label
_atom_site_type_symbol
_atom_site_fract_x
_atom_site_fract_y
_atom_site_fract_z
O1 O 0.9136(4) 0.7399(2) 0.2370(2)
O2 O 0.8868(5) 0.5724(3) 0.6662(2)
O3 O 0.9000(5) 0.8254(3) 0.6320(2)
N1 N 0.9292(5) 0.5250(3) 0.3548(2)
N2 N 0.9229(6) 0.5014(3) 0.4612(2)
N3 N 0.8935(5) 0.7675(3) 0.4214(2)
N4 N 0.8962(5) 0.6854(3) 0.6050(2)
C1 C 0.9110(6) 0.6839(3) 0.3300(2)
C2 C 0.9020(6) 0.6508(3) 0.4928(2)
O4 O 1.1458(5) 0.6019(3) 0.0809(2)
N5 N 1.0250(6) 0.7150(4) -0.1183(2)
loop_
_geom_bond_atom_site_label_1
_geom_bond_atom_site_label_2
_geom_bond_site_symmetry_1
_geom_bond_site_symmetry_2
O1 C1 1_555 1_555
O2 N4 1_555 1_555
O3 N4 1_555 1_555
N1 N2 1_555 1_555
N2 C2 1_555 1_555
N3 C1 1_555 1_555
N4 C2 1_555 1_555
C1 N1 1_555 1_555
C2 N3 1_555 1_555

#END
