
#######################################################################
#
#                 Cambridge Crystallographic Data Centre
#                                CCDC 
#
#######################################################################
#
# If this CIF has been generated from an entry in the Cambridge 
# Structural Database, then it will include bibliographic, chemical, 
# crystal, experimental, refinement or atomic coordinate data resulting 
# from the CCDC's data processing and validation procedures.
#
#######################################################################

data_UKONOZ
_chemical_formula_moiety         'C26 H25 N2 O3 P1 S1'
_chemical_name_systematic        
'ethyl ((diphenylphosphorothioyl)amino)(2-oxo-2,5-dihydro-1H-pyrrol-3-yl)phenylacetate'
_symmetry_cell_setting           monoclinic
_symmetry_space_group_name_H-M   'P 21'
_symmetry_Int_Tables_number      4
_space_group_name_Hall           'P 2yb'
loop_
_symmetry_equiv_pos_site_id
_symmetry_equiv_pos_as_xyz
1 x,y,z
2 -x,1/2+y,-z
_cell_length_a                   10.1752(3)
_cell_length_b                   8.5467(2)
_cell_length_c                   14.0435(3)
_cell_angle_alpha                90
_cell_angle_beta                 100.158(7)
_cell_angle_gamma                90
_cell_volume                     1202.14
_exptl_crystal_colour            colorless
_exptl_crystal_description       prism
_cell_formula_units_Z            2
loop_
_atom_site_label
_atom_site_type_symbol
_atom_site_fract_x
_atom_site_fract_y
_atom_site_fract_z
S1 S 0.23176(8) 0.62927(10) 0.60709(6)
P1 P 0.31245(8) 0.50845(10) 0.72098(6)
O1 O 0.1004(2) 0.3500(3) 0.93931(16)
O2 O -0.0600(2) 0.2140(3) 0.84161(17)
O3 O 0.1838(3) 0.0536(3) 0.81667(19)
N1 N 0.2085(3) 0.4505(3) 0.79219(19)
H1 H 0.2357 0.4657 0.8545
N2 N 0.1503(3) 0.0050(4) 0.6523(2)
H2 H 0.1803 -0.0917 0.6542
C1 C 0.4294(3) 0.6179(4) 0.8083(2)
C2 C 0.0762(3) 0.3766(4) 0.7648(2)
C3 C 0.4515(4) 0.2261(5) 0.7509(3)
H3 H 0.4296 0.2274 0.8139
C4 C 0.0618(3) 0.2399(4) 0.6003(2)
H4 H 0.0240 0.3236 0.5601
C5 C -0.1572(3) 0.4458(5) 0.6777(3)
H5 H -0.1707 0.3382 0.6618
C6 C 0.0438(3) 0.3104(4) 0.8603(2)
C7 C 0.4027(3) 0.3416(4) 0.6853(2)
C8 C 0.3835(4) 0.7573(4) 0.8436(2)
H6 H 0.2951 0.7920 0.8201
C9 C -0.0178(3) 0.6532(5) 0.7524(3)
H7 H 0.0651 0.6884 0.7881
C10 C 0.4319(3) 0.3356(5) 0.5929(2)
H8 H 0.3963 0.4126 0.5467
C11 C 0.1464(4) 0.0915(4) 0.7316(3)
C12 C 0.0872(3) 0.2442(4) 0.6960(2)
C13 C -0.2600(4) 0.5528(5) 0.6499(3)
H9 H -0.3433 0.5183 0.6147
C14 C 0.5322(4) 0.1083(5) 0.7253(3)
H10 H 0.5656 0.0290 0.7705
C15 C 0.4663(4) 0.8445(5) 0.9124(3)
H11 H 0.4339 0.9373 0.9375
C16 C -0.2409(4) 0.7084(6) 0.6732(3)
H12 H -0.3110 0.7813 0.6538
C17 C 0.5638(4) 0.1070(5) 0.6334(3)
H13 H 0.6213 0.0283 0.6163
C18 C 0.5128(4) 0.2181(5) 0.5671(3)
H14 H 0.5328 0.2149 0.5036
C19 C -0.1200(4) 0.7590(5) 0.7248(3)
H15 H -0.1073 0.8664 0.7413
C20 C 0.5607(3) 0.5722(5) 0.8408(3)
H16 H 0.5941 0.4800 0.8157
C21 C 0.6433(4) 0.6605(5) 0.9096(3)
H17 H 0.7324 0.6274 0.9325
C22 C -0.0984(4) 0.1344(6) 0.9245(3)
H18 H -0.1399 0.0323 0.9037
H19 H -0.0180 0.1143 0.9739
C23 C 0.1006(4) 0.0863(5) 0.5647(3)
H20 H 0.0227 0.0318 0.5268
H21 H 0.1705 0.0983 0.5244
C24 C -0.1927(4) 0.2297(6) 0.9664(3)
H22 H -0.2739 0.2453 0.9183
H23 H -0.1521 0.3314 0.9858
H24 H -0.2152 0.1764 1.0231
C25 C 0.5962(4) 0.7964(6) 0.9447(3)
H25 H 0.6534 0.8571 0.9913
C26 C -0.0347(3) 0.4960(4) 0.7287(2)
loop_
_geom_bond_atom_site_label_1
_geom_bond_atom_site_label_2
_geom_bond_site_symmetry_1
_geom_bond_site_symmetry_2
S1 P1 1_555 1_555
P1 N1 1_555 1_555
O1 C6 1_555 1_555
O2 C6 1_555 1_555
O3 C11 1_555 1_555
N1 H1 1_555 1_555
N2 H2 1_555 1_555
C1 P1 1_555 1_555
C2 N1 1_555 1_555
C3 H3 1_555 1_555
C4 H4 1_555 1_555
C5 H5 1_555 1_555
C6 C2 1_555 1_555
C7 P1 1_555 1_555
C8 C1 1_555 1_555
H6 C8 1_555 1_555
C9 H7 1_555 1_555
C10 C7 1_555 1_555
H8 C10 1_555 1_555
C11 N2 1_555 1_555
C12 C2 1_555 1_555
C13 C5 1_555 1_555
H9 C13 1_555 1_555
C14 C3 1_555 1_555
H10 C14 1_555 1_555
C15 C8 1_555 1_555
H11 C15 1_555 1_555
C16 C13 1_555 1_555
H12 C16 1_555 1_555
C17 C14 1_555 1_555
H13 C17 1_555 1_555
C18 C10 1_555 1_555
H14 C18 1_555 1_555
C19 C9 1_555 1_555
H15 C19 1_555 1_555
C20 C1 1_555 1_555
H16 C20 1_555 1_555
C21 C20 1_555 1_555
H17 C21 1_555 1_555
C22 O2 1_555 1_555
H18 C22 1_555 1_555
H19 C22 1_555 1_555
C23 N2 1_555 1_555
H20 C23 1_555 1_555
H21 C23 1_555 1_555
C24 C22 1_555 1_555
H22 C24 1_555 1_555
H23 C24 1_555 1_555
H24 C24 1_555 1_555
C25 C15 1_555 1_555
H25 C25 1_555 1_555
C26 C2 1_555 1_555
C3 C7 1_555 1_555
C4 C12 1_555 1_555
C4 C23 1_555 1_555
C5 C26 1_555 1_555
C9 C26 1_555 1_555
C11 C12 1_555 1_555
C16 C19 1_555 1_555
C17 C18 1_555 1_555
C21 C25 1_555 1_555

#END
