
#######################################################################
#
#                 Cambridge Crystallographic Data Centre
#                                CCDC 
#
#######################################################################
#
# If this CIF has been generated from an entry in the Cambridge 
# Structural Database, then it will include bibliographic, chemical, 
# crystal, experimental, refinement or atomic coordinate data resulting 
# from the CCDC's data processing and validation procedures.
#
#######################################################################

data_UKORET
_chemical_formula_moiety         'C26 H30 O7'
_chemical_name_systematic        
5-(3,4-dimethoxyphenyl)-4-(5-ethynyl-2,2-dimethyl-1,3-dioxolan-4-yl)-2-(4-methoxyphenyl)-1,3-dioxane
_symmetry_cell_setting           orthorhombic
_symmetry_space_group_name_H-M   'P 21 21 21'
_symmetry_Int_Tables_number      19
_space_group_name_Hall           'P 2ac 2ab'
loop_
_symmetry_equiv_pos_site_id
_symmetry_equiv_pos_as_xyz
1 x,y,z
2 1/2-x,-y,1/2+z
3 1/2+x,1/2-y,-z
4 -x,1/2+y,1/2-z
_cell_length_a                   9.43426(13)
_cell_length_b                   11.79967(19)
_cell_length_c                   21.7237(4)
_cell_angle_alpha                90
_cell_angle_beta                 90
_cell_angle_gamma                90
_cell_volume                     2418.31
_exptl_crystal_colour            'light colorless'
_exptl_crystal_description       block
_cell_formula_units_Z            4
loop_
_atom_site_label
_atom_site_type_symbol
_atom_site_fract_x
_atom_site_fract_y
_atom_site_fract_z
O1 O 0.77666(17) 0.32997(13) 0.75614(7)
O2 O 1.00711(18) 0.57045(15) 0.71179(9)
O3 O 0.82584(18) 0.48859(14) 0.66065(8)
C1 C 0.8049(2) 0.2456(2) 0.54287(11)
H1 H 0.7546 0.3129 0.5384
O4 O 1.0139(2) 0.06246(18) 0.44539(10)
O5 O 0.58173(17) 0.21343(16) 0.74336(8)
O6 O 0.8818(2) 0.2504(2) 0.43554(9)
C2 C 0.6382(2) 0.2857(2) 0.84295(11)
C3 C 0.8433(2) 0.29510(19) 0.70001(10)
H2 H 0.9134 0.2363 0.7094
C4 C 0.6942(2) 0.2422(2) 0.78272(11)
H3 H 0.7538 0.1755 0.7899
C5 C 0.9200(2) 0.3982(2) 0.67435(10)
H4 H 0.9692 0.3761 0.6365
C6 C 0.8758(3) 0.2010(2) 0.49250(11)
O7 O 0.5071(3) 0.4069(2) 1.01300(9)
C7 C 0.8073(2) 0.1921(2) 0.59979(10)
C8 C 0.8821(3) 0.0914(2) 0.60502(13)
H5 H 0.8864 0.0546 0.6428
C9 C 0.5444(3) 0.3696(2) 0.95518(11)
C10 C 0.9490(3) 0.0988(2) 0.49801(13)
C11 C 0.7342(2) 0.2466(2) 0.65449(11)
H6 H 0.6762 0.3095 0.6392
C12 C 0.7095(3) 0.2609(2) 0.89669(13)
H7 H 0.7900 0.2155 0.8952
C13 C 0.6633(3) 0.3021(3) 0.95260(13)
H8 H 0.7124 0.2845 0.9885
C14 C 0.8634(3) 0.5872(2) 0.69484(12)
C15 C 1.1752(3) 0.4244(2) 0.70394(13)
C16 C 0.4715(3) 0.3941(3) 0.90254(12)
H9 H 0.3907 0.4393 0.9041
C17 C 0.9510(3) 0.0448(2) 0.55416(14)
H10 H 0.9989 -0.0237 0.5582
C18 C 1.0287(2) 0.4511(2) 0.71908(12)
H11 H 1.0076 0.4282 0.7615
C19 C 0.6371(3) 0.1642(2) 0.68807(12)
H12 H 0.5593 0.1431 0.6612
H13 H 0.6896 0.0960 0.6982
C20 C 0.5185(3) 0.3514(3) 0.84679(12)
H14 H 0.4678 0.3677 0.8111
C21 C 0.8584(4) 0.6898(2) 0.65333(15)
H15 H 0.8975 0.7540 0.6745
H16 H 0.7619 0.7055 0.6423
H17 H 0.9126 0.6752 0.6168
C22 C 0.7699(3) 0.6003(3) 0.75074(15)
H18 H 0.7804 0.5352 0.7768
H19 H 0.6728 0.6068 0.7380
H20 H 0.7969 0.6672 0.7730
C23 C 0.7838(4) 0.3375(4) 0.42302(16)
H21 H 0.7973 0.3984 0.4518
H22 H 0.6892 0.3085 0.4268
H23 H 0.7983 0.3650 0.3819
C24 C 1.2917(3) 0.4021(3) 0.69054(19)
H24 H 1.3845 0.3843 0.6799
C25 C 0.3971(4) 0.4861(3) 1.01845(16)
H25 H 0.3841 0.5054 1.0610
H26 H 0.3110 0.4541 1.0025
H27 H 0.4207 0.5531 0.9956
C26 C 1.0749(5) -0.0444(3) 0.4448(2)
H28 H 1.1539 -0.0459 0.4727
H29 H 1.1071 -0.0616 0.4039
H30 H 1.0060 -0.0996 0.4574
loop_
_geom_bond_atom_site_label_1
_geom_bond_atom_site_label_2
_geom_bond_site_symmetry_1
_geom_bond_site_symmetry_2
O1 C3 1_555 1_555
O2 C14 1_555 1_555
O3 C5 1_555 1_555
C1 H1 1_555 1_555
O4 C10 1_555 1_555
O5 C4 1_555 1_555
O6 C6 1_555 1_555
C2 C4 1_555 1_555
C3 H2 1_555 1_555
C4 O1 1_555 1_555
H3 C4 1_555 1_555
C5 C3 1_555 1_555
H4 C5 1_555 1_555
C6 C1 1_555 1_555
O7 C9 1_555 1_555
C7 C1 1_555 1_555
C8 C7 1_555 1_555
H5 C8 1_555 1_555
C9 C13 1_555 1_555
C10 C6 1_555 1_555
C11 C3 1_555 1_555
H6 C11 1_555 1_555
C12 C2 1_555 1_555
H7 C12 1_555 1_555
C13 C12 1_555 1_555
H8 C13 1_555 1_555
C14 O3 1_555 1_555
C15 C18 1_555 1_555
C16 C9 1_555 1_555
H9 C16 1_555 1_555
C17 C8 1_555 1_555
H10 C17 1_555 1_555
C18 O2 1_555 1_555
H11 C18 1_555 1_555
C19 O5 1_555 1_555
H12 C19 1_555 1_555
H13 C19 1_555 1_555
C20 C2 1_555 1_555
H14 C20 1_555 1_555
C21 C14 1_555 1_555
H15 C21 1_555 1_555
H16 C21 1_555 1_555
H17 C21 1_555 1_555
C22 C14 1_555 1_555
H18 C22 1_555 1_555
H19 C22 1_555 1_555
H20 C22 1_555 1_555
C23 O6 1_555 1_555
H21 C23 1_555 1_555
H22 C23 1_555 1_555
H23 C23 1_555 1_555
C24 C15 1_555 1_555
H24 C24 1_555 1_555
C25 O7 1_555 1_555
H25 C25 1_555 1_555
H26 C25 1_555 1_555
H27 C25 1_555 1_555
C26 O4 1_555 1_555
H28 C26 1_555 1_555
H29 C26 1_555 1_555
H30 C26 1_555 1_555
C5 C18 1_555 1_555
C7 C11 1_555 1_555
C10 C17 1_555 1_555
C11 C19 1_555 1_555
C16 C20 1_555 1_555

#END
