
#######################################################################
#
#                 Cambridge Crystallographic Data Centre
#                                CCDC 
#
#######################################################################
#
# If this CIF has been generated from an entry in the Cambridge 
# Structural Database, then it will include bibliographic, chemical, 
# crystal, experimental, refinement or atomic coordinate data resulting 
# from the CCDC's data processing and validation procedures.
#
#######################################################################

data_UKUCUY
_chemical_formula_moiety         'C48 H68 K4 O7'
_chemical_name_systematic        
tetrakis(\m~3~-2-Isopropylphenolato)-tris(tetrahydrofuran)-tetra-potassium
_symmetry_cell_setting           triclinic
_symmetry_space_group_name_H-M   'P -1'
_symmetry_Int_Tables_number      2
_space_group_name_Hall           '-P 1'
loop_
_symmetry_equiv_pos_site_id
_symmetry_equiv_pos_as_xyz
1 x,y,z
2 -x,-y,-z
_cell_length_a                   13.309(4)
_cell_length_b                   14.314(4)
_cell_length_c                   14.537(4)
_cell_angle_alpha                88.714(5)
_cell_angle_beta                 87.819(5)
_cell_angle_gamma                64.566(5)
_cell_volume                     2499.1
_exptl_crystal_colour            colorless
_exptl_crystal_description       irregular
_cell_formula_units_Z            2
loop_
_atom_site_label
_atom_site_type_symbol
_atom_site_fract_x
_atom_site_fract_y
_atom_site_fract_z
K1 K 0.56299(6) 1.01871(6) 0.32425(5)
K2 K 0.43567(7) 0.84219(6) 0.27482(6)
K3 K 0.63787(7) 0.85425(6) 0.09267(5)
K4 K 0.75306(7) 0.71288(6) 0.31952(6)
O1 O 0.74309(19) 0.89156(17) 0.23584(16)
O2 O 0.45431(19) 0.98680(18) 0.17983(16)
O3 O 0.56440(19) 0.85504(18) 0.40699(16)
O4 O 0.6146(2) 0.70618(18) 0.19567(16)
O5 O 0.2499(3) 0.8322(3) 0.3390(2)
O6 O 0.7734(4) 0.5315(3) 0.4054(3)
O7 O 0.9746(3) 0.5757(3) 0.2984(4)
C1 C 0.8306(3) 0.8857(3) 0.1871(2)
C2 C 0.9045(3) 0.7926(3) 0.1450(3)
H1 H 0.8896 0.7335 0.1521
C3 C 0.9977(3) 0.7836(3) 0.0937(3)
H2 H 1.0455 0.7190 0.0669
C4 C 1.0219(3) 0.8667(3) 0.0811(3)
H3 H 1.0865 0.8604 0.0465
C5 C 0.9498(3) 0.9608(3) 0.1201(2)
H4 H 0.9656 1.0191 0.1105
C6 C 0.8551(3) 0.9728(3) 0.1726(2)
C7 C 0.7790(3) 1.0749(3) 0.2167(3)
H5 H 0.7026 1.0776 0.2196
C8 C 0.8108(4) 1.0785(3) 0.3160(3)
H6 H 0.8177 1.0155 0.3487
H7 H 0.7531 1.1391 0.3468
H8 H 0.8821 1.0833 0.3163
C9 C 0.7709(4) 1.1699(3) 0.1622(3)
H9 H 0.8428 1.1735 0.1619
H10 H 0.7136 1.2322 0.1909
H11 H 0.7512 1.1650 0.0988
C10 C 0.4178(3) 1.0787(3) 0.1420(2)
C11 C 0.4915(3) 1.1214(3) 0.1126(2)
H12 H 0.5694 1.0796 0.1154
C12 C 0.4551(4) 1.2212(3) 0.0801(3)
H13 H 0.5076 1.2471 0.0615
C13 C 0.3432(4) 1.2837(3) 0.0744(3)
H14 H 0.3176 1.3534 0.0541
C14 C 0.2682(4) 1.2429(3) 0.0990(2)
H15 H 0.1909 1.2856 0.0934
C15 C 0.3015(3) 1.1422(3) 0.1315(2)
C16 C 0.2225(3) 1.0949(3) 0.1559(3)
H16 H 0.2480 1.0550 0.2145
C17 C 0.2290(3) 1.0175(3) 0.0823(3)
H17 H 0.3070 0.9694 0.0702
H18 H 0.1872 0.9788 0.1041
H19 H 0.1970 1.0548 0.0255
C18 C 0.1014(3) 1.1727(4) 0.1725(3)
H20 H 0.0714 1.2090 0.1149
H21 H 0.0575 1.1361 0.1945
H22 H 0.0978 1.2228 0.2188
C19 C 0.5692(3) 0.8196(3) 0.4914(2)
C20 C 0.4883(3) 0.7876(3) 0.5278(3)
H23 H 0.4278 0.7951 0.4909
C21 C 0.4950(4) 0.7455(3) 0.6159(3)
H24 H 0.4409 0.7228 0.6374
C22 C 0.5797(4) 0.7366(3) 0.6720(3)
H25 H 0.5849 0.7078 0.7321
C23 C 0.6564(4) 0.7703(3) 0.6393(3)
H26 H 0.7139 0.7652 0.6787
C24 C 0.6546(3) 0.8115(3) 0.5515(3)
C25 C 0.7408(3) 0.8480(3) 0.5199(3)
H27 H 0.7358 0.8575 0.4516
C26 C 0.7167(4) 0.9531(3) 0.5613(3)
H28 H 0.6413 1.0031 0.5461
H29 H 0.7707 0.9773 0.5360
H30 H 0.7226 0.9463 0.6284
C27 C 0.8602(4) 0.7704(4) 0.5399(4)
H31 H 0.8686 0.7607 0.6066
H32 H 0.9124 0.7970 0.5147
H33 H 0.8761 0.7041 0.5112
C28 C 0.6576(3) 0.6158(3) 0.1552(2)
C29 C 0.7687(3) 0.5693(3) 0.1230(3)
H34 H 0.8142 0.6042 0.1320
C30 C 0.8146(4) 0.4761(3) 0.0793(3)
H35 H 0.8902 0.4482 0.0584
C31 C 0.7520(4) 0.4222(3) 0.0653(3)
H36 H 0.7832 0.3576 0.0346
C32 C 0.6423(4) 0.4653(3) 0.0974(3)
H37 H 0.5988 0.4284 0.0883
C33 C 0.5931(3) 0.5594(3) 0.1419(3)
C34 C 0.4726(4) 0.6049(3) 0.1775(3)
H38 H 0.4706 0.6354 0.2391
C35 C 0.4253(4) 0.5254(4) 0.1914(4)
H39 H 0.3518 0.5581 0.2223
H40 H 0.4753 0.4680 0.2294
H41 H 0.4185 0.4990 0.1315
C36 C 0.3976(5) 0.6917(4) 0.1166(4)
H42 H 0.386(3) 0.671(3) 0.057(3)
H43 H 0.315(5) 0.730(4) 0.139(4)
H44 H 0.428(3) 0.744(3) 0.106(2)
C37 C 0.1420(5) 0.8872(5) 0.3110(4)
H45 H 0.1360 0.8723 0.2457
H46 H 0.1188 0.9624 0.3174
C38 C 0.0728(5) 0.8542(8) 0.3699(7)
H47 H 0.0131 0.9149 0.4003
H48 H 0.0375 0.8200 0.3326
C39 C 0.1374(6) 0.7866(6) 0.4348(5)
H49 H 0.1197 0.7263 0.4421
H50 H 0.1269 0.8209 0.4951
C40 C 0.2468(5) 0.7565(6) 0.3990(6)
H51 H 0.2978 0.7462 0.4500
H52 H 0.2718 0.6901 0.3660
C41 C 0.6750(8) 0.5377(6) 0.4395(7)
H53 H 0.6771 0.5361 0.5076
H54 H 0.6158 0.6055 0.4215
C42 C 0.6464(7) 0.4643(9) 0.4133(7)
H55 H 0.5753 0.4945 0.3808
H56 H 0.6391 0.4234 0.4668
C43 C 0.7411(9) 0.3987(5) 0.3496(5)
H57 H 0.7694 0.3246 0.3668
H58 H 0.7171 0.4076 0.2851
C44 C 0.8264(6) 0.4359(5) 0.3610(5)
H59 H 0.8872 0.3864 0.3986
H60 H 0.8582 0.4441 0.3003
C45 C 1.0506(6) 0.5083(7) 0.2242(6)
H61 H 1.0454 0.4413 0.2236
H62 H 1.0282 0.5422 0.1635
C46 C 1.1505(7) 0.4928(7) 0.2389(6)
H63 H 1.1727 0.5364 0.1967
H64 H 1.2016 0.4194 0.2273
C47 C 1.1570(6) 0.5179(8) 0.3312(8)
H65 H 1.1948 0.5639 0.3348
H66 H 1.1978 0.4547 0.3682
C48 C 1.0387(6) 0.5716(7) 0.3641(6)
H67 H 1.0253 0.5338 0.4174
H68 H 1.0223 0.6425 0.3840
loop_
_geom_bond_atom_site_label_1
_geom_bond_atom_site_label_2
_geom_bond_site_symmetry_1
_geom_bond_site_symmetry_2
K1 O1 1_555 1_555
K2 O2 1_555 1_555
K3 O1 1_555 1_555
K4 O1 1_555 1_555
O1 C1 1_555 1_555
O2 K1 1_555 1_555
O3 K1 1_555 1_555
O4 K2 1_555 1_555
O5 K2 1_555 1_555
O6 K4 1_555 1_555
O7 K4 1_555 1_555
C1 C2 1_555 1_555
C2 H1 1_555 1_555
C3 C2 1_555 1_555
H2 C3 1_555 1_555
C4 C3 1_555 1_555
H3 C4 1_555 1_555
C5 C4 1_555 1_555
H4 C5 1_555 1_555
C6 C1 1_555 1_555
C7 C6 1_555 1_555
H5 C7 1_555 1_555
C8 C7 1_555 1_555
H6 C8 1_555 1_555
H7 C8 1_555 1_555
H8 C8 1_555 1_555
C9 C7 1_555 1_555
H9 C9 1_555 1_555
H10 C9 1_555 1_555
H11 C9 1_555 1_555
C10 O2 1_555 1_555
C11 C10 1_555 1_555
H12 C11 1_555 1_555
C12 C11 1_555 1_555
H13 C12 1_555 1_555
C13 C12 1_555 1_555
H14 C13 1_555 1_555
C14 C13 1_555 1_555
H15 C14 1_555 1_555
C15 C10 1_555 1_555
C16 C15 1_555 1_555
H16 C16 1_555 1_555
C17 C16 1_555 1_555
H17 C17 1_555 1_555
H18 C17 1_555 1_555
H19 C17 1_555 1_555
C18 C16 1_555 1_555
H20 C18 1_555 1_555
H21 C18 1_555 1_555
H22 C18 1_555 1_555
C19 O3 1_555 1_555
C20 C19 1_555 1_555
H23 C20 1_555 1_555
C21 C20 1_555 1_555
H24 C21 1_555 1_555
C22 C21 1_555 1_555
H25 C22 1_555 1_555
C23 C22 1_555 1_555
H26 C23 1_555 1_555
C24 C19 1_555 1_555
C25 C24 1_555 1_555
H27 C25 1_555 1_555
C26 C25 1_555 1_555
H28 C26 1_555 1_555
H29 C26 1_555 1_555
H30 C26 1_555 1_555
C27 C25 1_555 1_555
H31 C27 1_555 1_555
H32 C27 1_555 1_555
H33 C27 1_555 1_555
C28 O4 1_555 1_555
C29 C28 1_555 1_555
H34 C29 1_555 1_555
C30 C29 1_555 1_555
H35 C30 1_555 1_555
C31 C30 1_555 1_555
H36 C31 1_555 1_555
C32 C31 1_555 1_555
H37 C32 1_555 1_555
C33 C28 1_555 1_555
C34 C33 1_555 1_555
H38 C34 1_555 1_555
C35 C34 1_555 1_555
H39 C35 1_555 1_555
H40 C35 1_555 1_555
H41 C35 1_555 1_555
C36 C34 1_555 1_555
H42 C36 1_555 1_555
H43 C36 1_555 1_555
H44 C36 1_555 1_555
C37 O5 1_555 1_555
H45 C37 1_555 1_555
H46 C37 1_555 1_555
C38 C37 1_555 1_555
H47 C38 1_555 1_555
H48 C38 1_555 1_555
C39 C38 1_555 1_555
H49 C39 1_555 1_555
H50 C39 1_555 1_555
C40 O5 1_555 1_555
H51 C40 1_555 1_555
H52 C40 1_555 1_555
C41 O6 1_555 1_555
H53 C41 1_555 1_555
H54 C41 1_555 1_555
C42 C41 1_555 1_555
H55 C42 1_555 1_555
H56 C42 1_555 1_555
C43 C42 1_555 1_555
H57 C43 1_555 1_555
H58 C43 1_555 1_555
C44 O6 1_555 1_555
H59 C44 1_555 1_555
H60 C44 1_555 1_555
C45 O7 1_555 1_555
H61 C45 1_555 1_555
H62 C45 1_555 1_555
C46 C45 1_555 1_555
H63 C46 1_555 1_555
H64 C46 1_555 1_555
C47 C46 1_555 1_555
H65 C47 1_555 1_555
H66 C47 1_555 1_555
C48 O7 1_555 1_555
H67 C48 1_555 1_555
H68 C48 1_555 1_555
K2 O3 1_555 1_555
K3 O2 1_555 1_555
K3 O4 1_555 1_555
K4 O4 1_555 1_555
K4 O3 1_555 1_555
C5 C6 1_555 1_555
C14 C15 1_555 1_555
C23 C24 1_555 1_555
C32 C33 1_555 1_555
C39 C40 1_555 1_555
C43 C44 1_555 1_555
C47 C48 1_555 1_555

#END
