
#######################################################################
#
#                 Cambridge Crystallographic Data Centre
#                                CCDC 
#
#######################################################################
#
# If this CIF has been generated from an entry in the Cambridge 
# Structural Database, then it will include bibliographic, chemical, 
# crystal, experimental, refinement or atomic coordinate data resulting 
# from the CCDC's data processing and validation procedures.
#
#######################################################################

data_UKUCOS
_chemical_formula_moiety         'C62 H62 K6 N4 O6,C52 H52 K6 N2 O6,2(C5 H5 N1)'
_chemical_name_systematic        
'bis(\m~4~-2-Methylphenolato)-tetrakis(\m~3~-2-methylphenolato)-tetrakis(pyridine)-hexa-potassium hexakis(\m~3~-2-methylphenolato)-bis(pyridine)-hexa-potassium pyridine solvate'
_symmetry_cell_setting           monoclinic
_symmetry_space_group_name_H-M   'P 21/c'
_symmetry_Int_Tables_number      14
_space_group_name_Hall           '-P 2ybc'
loop_
_symmetry_equiv_pos_site_id
_symmetry_equiv_pos_as_xyz
1 x,y,z
2 x,1/2-y,1/2+z
3 -x,-y,-z
4 -x,1/2+y,1/2-z
_cell_length_a                   13.538(6)
_cell_length_b                   26.327(11)
_cell_length_c                   17.208(7)
_cell_angle_alpha                90
_cell_angle_beta                 97.284(8)
_cell_angle_gamma                90
_cell_volume                     6083.69
_exptl_crystal_colour            colorless
_exptl_crystal_description       irregular
_cell_formula_units_Z            2
loop_
_atom_site_label
_atom_site_type_symbol
_atom_site_fract_x
_atom_site_fract_y
_atom_site_fract_z
K1 K 0.56332(4) 0.46994(2) 0.91334(3)
K2 K 0.72280(4) 0.50727(2) 1.10573(3)
K3 K 0.54825(4) 0.39551(2) 1.11445(3)
N1 N 0.45335(19) 0.31034(10) 1.18443(17)
N2 N 0.68689(17) 0.43952(10) 0.79369(14)
O1 O 0.68282(13) 0.42280(7) 1.02474(10)
O2 O 0.58633(13) 0.55839(7) 0.99926(10)
O3 O 0.42325(13) 0.51664(7) 0.81317(10)
C1 C 0.7554(2) 0.39627(10) 1.00048(15)
C2 C 0.8567(2) 0.40941(11) 1.02231(16)
H1 H 0.8722 0.4387 1.0537
C3 C 0.9330(2) 0.38111(11) 0.99958(17)
H2 H 1.0000 0.3908 1.0162
C4 C 0.9138(2) 0.33889(12) 0.95304(19)
H3 H 0.9668 0.3193 0.9373
C5 C 0.8157(2) 0.32571(11) 0.92963(18)
H4 H 0.8021 0.2969 0.8968
C6 C 0.7366(2) 0.35281(10) 0.95216(16)
C7 C 0.6309(2) 0.33703(11) 0.92556(18)
H5 H 0.6307 0.3043 0.8985
H6 H 0.5985 0.3627 0.8897
H7 H 0.5947 0.3338 0.9711
C8 C 0.64591(19) 0.59834(10) 1.00644(15)
C9 C 0.6444(2) 0.63360(11) 1.06869(17)
H8 H 0.5986 0.6289 1.1055
C10 C 0.7088(2) 0.67490(12) 1.0767(2)
H9 H 0.7064 0.6980 1.1188
C11 C 0.7758(2) 0.68266(12) 1.0245(2)
H10 H 0.8204 0.7106 1.0306
C12 C 0.7775(2) 0.64942(12) 0.9634(2)
H11 H 0.8233 0.6552 0.9269
C13 C 0.7147(2) 0.60747(11) 0.95277(16)
C14 C 0.7198(3) 0.57113(17) 0.8870(2)
H12 H 0.746(3) 0.5393(13) 0.907(2)
H13 H 0.655(3) 0.5617(12) 0.8579(18)
H14 H 0.763(2) 0.5857(12) 0.8468(19)
C15 C 0.42030(18) 0.49516(10) 0.74402(15)
C16 C 0.37606(19) 0.44732(11) 0.72731(17)
H15 H 0.3486 0.4297 0.7677
C17 C 0.3712(2) 0.42501(12) 0.65394(19)
H16 H 0.3393 0.3931 0.6445
C18 C 0.4126(2) 0.44898(13) 0.59478(18)
H17 H 0.4105 0.4336 0.5446
C19 C 0.4573(2) 0.49567(12) 0.60956(16)
H18 H 0.4865 0.5120 0.5689
C20 C 0.46120(19) 0.51966(11) 0.68179(15)
C21 C 0.5054(2) 0.57130(11) 0.69523(17)
H19 H 0.5616 0.5697 0.7370
H20 H 0.4549 0.5946 0.7106
H21 H 0.5287 0.5835 0.6469
C43 C 0.4582(3) 0.29595(13) 1.2592(2)
H43 H 0.4700 0.3214 1.2984
C44 C 0.4474(3) 0.24681(13) 1.2830(2)
H44 H 0.4510 0.2386 1.3371
C45 C 0.4312(3) 0.21007(13) 1.2273(2)
H45 H 0.4248 0.1755 1.2417
C46 C 0.4243(3) 0.22385(14) 1.1501(2)
H46 H 0.4123 0.1990 1.1099
C47 C 0.4351(2) 0.27376(13) 1.1317(2)
H47 H 0.4291 0.2828 1.0778
C48 C 0.6419(2) 0.41188(13) 0.73457(18)
H48 H 0.5714 0.4136 0.7241
C49 C 0.6911(2) 0.38124(13) 0.68804(18)
H49 H 0.6552 0.3617 0.6474
C50 C 0.7929(2) 0.37924(12) 0.70098(18)
H50 H 0.8291 0.3587 0.6691
C51 C 0.8413(2) 0.40754(11) 0.76080(17)
H51 H 0.9119 0.4072 0.7711
C52 C 0.7858(2) 0.43634(11) 0.80551(16)
H52 H 0.8201 0.4552 0.8476
O2B O 0.41367(13) 0.44161(7) 1.00074(10)
K1B K 0.43668(4) 0.53006(2) 1.08666(3)
N2B N 0.31311(17) 0.56048(10) 1.20631(14)
C48B C 0.3581(2) 0.58812(13) 1.26543(18)
H48B H 0.4286 0.5864 1.2759
C49B C 0.3089(2) 0.61876(13) 1.31196(18)
H49B H 0.3448 0.6383 1.3526
C50B C 0.2071(2) 0.62076(12) 1.29902(18)
H50B H 0.1709 0.6413 1.3309
C51B C 0.1587(2) 0.59246(11) 1.23920(17)
H51B H 0.0881 0.5928 1.2289
C52B C 0.2142(2) 0.56366(11) 1.19449(16)
H52B H 0.1799 0.5448 1.1524
O1B O 0.31718(13) 0.57720(7) 0.97526(10)
K2B K 0.27720(4) 0.49273(2) 0.89427(3)
O3B O 0.57675(13) 0.48336(7) 1.18683(10)
K3B K 0.45175(4) 0.60449(2) 0.88555(3)
N1B N 0.54665(19) 0.68966(10) 0.81557(17)
C43B C 0.5418(3) 0.70405(13) 0.7408(2)
H43B H 0.5300 0.6786 0.7016
C44B C 0.5526(3) 0.75319(13) 0.7170(2)
H44B H 0.5490 0.7614 0.6629
C45B C 0.5688(3) 0.78993(13) 0.7727(2)
H45B H 0.5752 0.8245 0.7583
C46B C 0.5757(3) 0.77615(14) 0.8499(2)
H46B H 0.5877 0.8010 0.8901
C47B C 0.5649(2) 0.72624(13) 0.8683(2)
H47B H 0.5709 0.7172 0.9222
C1B C 0.2446(2) 0.60373(10) 0.99952(15)
C2B C 0.1433(2) 0.59059(11) 0.97769(16)
H1B H 0.1278 0.5613 0.9463
C3B C 0.0670(2) 0.61889(11) 1.00042(17)
H2B H 0.0000 0.6092 0.9838
C4B C 0.0862(2) 0.66111(12) 1.04696(19)
H3B H 0.0332 0.6807 1.0627
C5B C 0.1843(2) 0.67429(11) 1.07037(18)
H4B H 0.1979 0.7031 1.1032
C6B C 0.2634(2) 0.64719(10) 1.04784(16)
C7B C 0.3691(2) 0.66297(11) 1.07444(18)
H5B H 0.3693 0.6957 1.1015
H6B H 0.4015 0.6373 1.1103
H7B H 0.4053 0.6662 1.0289
C15B C 0.57970(18) 0.50484(10) 1.25598(15)
C16B C 0.62394(19) 0.55268(11) 1.27269(17)
H15B H 0.6514 0.5703 1.2323
C17B C 0.6288(2) 0.57499(12) 1.34606(19)
H16B H 0.6607 0.6069 1.3555
C18B C 0.5874(2) 0.55102(13) 1.40522(18)
H17B H 0.5895 0.5664 1.4554
C19B C 0.5427(2) 0.50433(12) 1.39044(16)
H18B H 0.5135 0.4880 1.4311
C20B C 0.53880(19) 0.48034(11) 1.31821(15)
C21B C 0.4946(2) 0.42870(11) 1.30477(17)
H19B H 0.4384 0.4303 1.2630
H20B H 0.5451 0.4054 1.2894
H21B H 0.4713 0.4165 1.3531
C8B C 0.35409(19) 0.40166(10) 0.99356(15)
C9B C 0.3556(2) 0.36640(11) 0.93131(17)
H8B H 0.4014 0.3711 0.8945
C10B C 0.2912(2) 0.32510(12) 0.9233(2)
H9B H 0.2936 0.3020 0.8812
C11B C 0.2242(2) 0.31734(12) 0.9755(2)
H10B H 0.1796 0.2894 0.9694
C12B C 0.2225(2) 0.35058(12) 1.0366(2)
H11B H 0.1767 0.3448 1.0731
C13B C 0.2853(2) 0.39253(11) 1.04723(16)
C14B C 0.2802(3) 0.42887(17) 1.1130(2)
H12B H 0.254(3) 0.4607(13) 1.093(2)
H13B H 0.345(3) 0.4383(12) 1.1421(18)
H14B H 0.237(2) 0.4143(12) 1.1532(19)
K4 K 0.02141(5) 0.61442(2) 0.61508(4)
K5 K -0.04842(4) 0.46219(2) 0.57952(4)
K6 K 0.22676(4) 0.52652(2) 0.61752(4)
N3 N -0.0382(2) 0.69548(11) 0.70745(18)
O4 O 0.05403(13) 0.52768(7) 0.68034(10)
O5 O 0.11868(14) 0.46048(7) 0.51028(11)
O6 O 0.15498(14) 0.59862(7) 0.51342(10)
C22 C 0.06660(19) 0.49562(10) 0.73887(15)
C23 C 0.11780(19) 0.44935(10) 0.73401(16)
H22 H 0.1443 0.4413 0.6870
C24 C 0.1306(2) 0.41520(11) 0.79581(17)
H23 H 0.1662 0.3845 0.7907
C25 C 0.0922(2) 0.42535(11) 0.86456(17)
H24 H 0.1011 0.4020 0.9070
C26 C 0.0401(2) 0.47048(11) 0.87056(16)
H25 H 0.0131 0.4775 0.9177
C27 C 0.02624(18) 0.50552(10) 0.80998(15)
C28 C -0.0349(2) 0.55267(11) 0.81517(17)
H26 H -0.0563 0.5549 0.8674
H27 H 0.0052 0.5826 0.8061
H28 H -0.0936 0.5513 0.7755
C29 C 0.1641(2) 0.41933(11) 0.49203(16)
C30 C 0.1513(2) 0.37277(11) 0.53079(18)
H29 H 0.1102 0.3722 0.5716
C31 C 0.1964(3) 0.32811(13) 0.5115(2)
H30 H 0.1861 0.2976 0.5389
C32 C 0.2556(3) 0.32796(14) 0.4529(2)
H31 H 0.2869 0.2975 0.4394
C33 C 0.2697(3) 0.37254(13) 0.4135(2)
H32 H 0.3110 0.3721 0.3728
C34 C 0.2255(2) 0.41810(11) 0.43114(18)
C35 C 0.2428(3) 0.46573(15) 0.3884(2)
H33 H 0.188(2) 0.4764(12) 0.3547(19)
H34 H 0.263(2) 0.4947(14) 0.429(2)
H35 H 0.293(3) 0.4603(12) 0.3533(19)
C36 C 0.2293(2) 0.62977(10) 0.50695(15)
C37 C 0.3289(2) 0.61332(11) 0.51496(16)
H36 H 0.3424 0.5781 0.5216
C38 C 0.4079(2) 0.64640(13) 0.51355(17)
H37 H 0.4742 0.6338 0.5204
C39 C 0.3910(2) 0.69771(12) 0.50222(17)
H38 H 0.4449 0.7208 0.5022
C40 C 0.2933(2) 0.71469(11) 0.49085(17)
H39 H 0.2811 0.7498 0.4816
C41 C 0.2127(2) 0.68248(11) 0.49251(15)
C42 C 0.1076(2) 0.70182(12) 0.4789(2)
H40 H 0.0787 0.7012 0.5283
H41 H 0.0681 0.6802 0.4403
H42 H 0.1074 0.7367 0.4591
C53 C -0.0027(3) 0.74183(14) 0.7035(2)
H53 H 0.0520 0.7468 0.6748
C54 C -0.0398(3) 0.78363(14) 0.7383(3)
H54 H -0.0111 0.8163 0.7338
C55 C -0.1183(4) 0.77708(16) 0.7791(2)
H55 H -0.1453 0.8051 0.8040
C56 C -0.1575(3) 0.73002(17) 0.7839(2)
H56 H -0.2130 0.7245 0.8116
C57 C -0.1154(3) 0.69064(15) 0.7480(3)
H57 H -0.1430 0.6577 0.7521
O5B O -0.11868(14) 0.53952(7) 0.48972(11)
K5B K 0.04842(4) 0.53781(2) 0.42048(4)
O4B O -0.05403(13) 0.47232(7) 0.31966(10)
K4B K -0.02141(5) 0.38558(2) 0.38492(4)
N3B N 0.0382(2) 0.30452(11) 0.29255(18)
C53B C 0.0027(3) 0.25817(14) 0.2965(2)
H53B H -0.0520 0.2532 0.3252
C54B C 0.0398(3) 0.21637(14) 0.2617(3)
H54B H 0.0111 0.1837 0.2662
C55B C 0.1183(4) 0.22292(16) 0.2209(2)
H55B H 0.1453 0.1949 0.1960
C56B C 0.1575(3) 0.26998(17) 0.2161(2)
H56B H 0.2130 0.2755 0.1884
C57B C 0.1154(3) 0.30936(15) 0.2520(3)
H57B H 0.1430 0.3423 0.2479
O6B O -0.15498(14) 0.40138(7) 0.48658(10)
K6B K -0.22676(4) 0.47348(2) 0.38248(4)
C22B C -0.06660(19) 0.50438(10) 0.26113(15)
C23B C -0.11780(19) 0.55065(10) 0.26599(16)
H22B H -0.1443 0.5587 0.3130
C24B C -0.1306(2) 0.58480(11) 0.20419(17)
H23B H -0.1662 0.6155 0.2093
C25B C -0.0922(2) 0.57465(11) 0.13544(17)
H24B H -0.1011 0.5980 0.0930
C26B C -0.0401(2) 0.52952(11) 0.12944(16)
H25B H -0.0131 0.5225 0.0823
C27B C -0.02624(18) 0.49448(10) 0.19002(15)
C28B C 0.0349(2) 0.44733(11) 0.18483(17)
H26B H 0.0563 0.4451 0.1326
H27B H -0.0052 0.4174 0.1939
H28B H 0.0936 0.4487 0.2245
C29B C -0.1641(2) 0.58067(11) 0.50797(16)
C30B C -0.1513(2) 0.62723(11) 0.46921(18)
H29B H -0.1102 0.6278 0.4284
C31B C -0.1964(3) 0.67189(13) 0.4885(2)
H30B H -0.1861 0.7024 0.4611
C32B C -0.2556(3) 0.67204(14) 0.5471(2)
H31B H -0.2869 0.7025 0.5606
C33B C -0.2697(3) 0.62746(13) 0.5865(2)
H32B H -0.3110 0.6279 0.6272
C34B C -0.2255(2) 0.58190(11) 0.56886(18)
C35B C -0.2428(3) 0.53427(15) 0.6116(2)
H33B H -0.188(2) 0.5236(12) 0.6453(19)
H34B H -0.263(2) 0.5053(14) 0.571(2)
H35B H -0.293(3) 0.5397(12) 0.6467(19)
C36B C -0.2293(2) 0.37023(10) 0.49305(15)
C37B C -0.3289(2) 0.38668(11) 0.48504(16)
H36B H -0.3424 0.4219 0.4784
C38B C -0.4079(2) 0.35360(13) 0.48645(17)
H37B H -0.4742 0.3662 0.4796
C39B C -0.3910(2) 0.30229(12) 0.49778(17)
H38B H -0.4449 0.2792 0.4978
C40B C -0.2933(2) 0.28531(11) 0.50915(17)
H39B H -0.2811 0.2502 0.5184
C41B C -0.2127(2) 0.31752(11) 0.50749(15)
C42B C -0.1076(2) 0.29818(12) 0.5211(2)
H40B H -0.0787 0.2988 0.4717
H41B H -0.0681 0.3198 0.5597
H42B H -0.1074 0.2633 0.5409
N4 N 0.2407(2) 0.62954(11) 0.71859(15)
C58 C 0.2813(2) 0.67207(14) 0.69492(18)
H58 H 0.3084 0.6713 0.6466
C59 C 0.2864(3) 0.71671(14) 0.73573(19)
H59 H 0.3160 0.7460 0.7161
C60 C 0.2476(3) 0.71842(14) 0.8061(2)
H60 H 0.2494 0.7489 0.8357
C61 C 0.2065(3) 0.67509(14) 0.83203(19)
H61 H 0.1796 0.6748 0.8804
C62 C 0.2048(2) 0.63239(14) 0.78735(19)
H62 H 0.1762 0.6026 0.8063
loop_
_geom_bond_atom_site_label_1
_geom_bond_atom_site_label_2
_geom_bond_site_symmetry_1
_geom_bond_site_symmetry_2
K1 N2 1_555 1_555
K2 O1 1_555 1_555
K3 N1 1_555 1_555
K4 N3 1_555 1_555
K5 O4 1_555 1_555
K6 O4 1_555 1_555
N1 C43 1_555 1_555
N2 C48 1_555 1_555
N3 C53 1_555 1_555
N4 C58 1_555 1_555
O1 K1 1_555 1_555
O2 K1 1_555 1_555
O3 K1 1_555 1_555
O4 K4 1_555 1_555
O5 K5 1_555 1_555
O6 K4 1_555 1_555
C1 O1 1_555 1_555
C2 C1 1_555 1_555
H1 C2 1_555 1_555
C3 C2 1_555 1_555
H2 C3 1_555 1_555
C4 C3 1_555 1_555
H3 C4 1_555 1_555
C5 C4 1_555 1_555
H4 C5 1_555 1_555
C6 C1 1_555 1_555
C7 C6 1_555 1_555
H5 C7 1_555 1_555
H6 C7 1_555 1_555
H7 C7 1_555 1_555
C8 O2 1_555 1_555
C9 C8 1_555 1_555
H8 C9 1_555 1_555
C10 C9 1_555 1_555
H9 C10 1_555 1_555
C11 C10 1_555 1_555
H10 C11 1_555 1_555
C12 C11 1_555 1_555
H11 C12 1_555 1_555
C13 C8 1_555 1_555
C14 C13 1_555 1_555
H12 C14 1_555 1_555
H13 C14 1_555 1_555
H14 C14 1_555 1_555
C15 O3 1_555 1_555
C16 C15 1_555 1_555
H15 C16 1_555 1_555
C17 C16 1_555 1_555
H16 C17 1_555 1_555
C18 C17 1_555 1_555
H17 C18 1_555 1_555
C19 C18 1_555 1_555
H18 C19 1_555 1_555
C20 C15 1_555 1_555
C21 C20 1_555 1_555
H19 C21 1_555 1_555
H20 C21 1_555 1_555
H21 C21 1_555 1_555
C22 O4 1_555 1_555
C23 C22 1_555 1_555
H22 C23 1_555 1_555
C24 C23 1_555 1_555
H23 C24 1_555 1_555
C25 C24 1_555 1_555
H24 C25 1_555 1_555
C26 C25 1_555 1_555
H25 C26 1_555 1_555
C27 C22 1_555 1_555
C28 C27 1_555 1_555
H26 C28 1_555 1_555
H27 C28 1_555 1_555
H28 C28 1_555 1_555
C29 O5 1_555 1_555
C30 C29 1_555 1_555
H29 C30 1_555 1_555
C31 C30 1_555 1_555
H30 C31 1_555 1_555
C32 C31 1_555 1_555
H31 C32 1_555 1_555
C33 C32 1_555 1_555
H32 C33 1_555 1_555
C34 C29 1_555 1_555
C35 C34 1_555 1_555
H33 C35 1_555 1_555
H34 C35 1_555 1_555
H35 C35 1_555 1_555
C36 O6 1_555 1_555
C37 C36 1_555 1_555
H36 C37 1_555 1_555
C38 C37 1_555 1_555
H37 C38 1_555 1_555
C39 C38 1_555 1_555
H38 C39 1_555 1_555
C40 C39 1_555 1_555
H39 C40 1_555 1_555
C41 C36 1_555 1_555
C42 C41 1_555 1_555
H40 C42 1_555 1_555
H41 C42 1_555 1_555
H42 C42 1_555 1_555
C43 H43 1_555 1_555
C44 C43 1_555 1_555
H44 C44 1_555 1_555
C45 C44 1_555 1_555
H45 C45 1_555 1_555
C46 C45 1_555 1_555
H46 C46 1_555 1_555
C47 N1 1_555 1_555
H47 C47 1_555 1_555
C48 H48 1_555 1_555
C49 C48 1_555 1_555
H49 C49 1_555 1_555
C50 C49 1_555 1_555
H50 C50 1_555 1_555
C51 C50 1_555 1_555
H51 C51 1_555 1_555
C52 N2 1_555 1_555
H52 C52 1_555 1_555
C53 H53 1_555 1_555
C54 C53 1_555 1_555
H54 C54 1_555 1_555
C55 C54 1_555 1_555
H55 C55 1_555 1_555
C56 C55 1_555 1_555
H56 C56 1_555 1_555
C57 N3 1_555 1_555
H57 C57 1_555 1_555
C58 H58 1_555 1_555
C59 C58 1_555 1_555
H59 C59 1_555 1_555
C60 C59 1_555 1_555
H60 C60 1_555 1_555
C61 C60 1_555 1_555
H61 C61 1_555 1_555
C62 N4 1_555 1_555
H62 C62 1_555 1_555
O2B K1 1_555 1_555
K1B O2 1_555 1_555
N2B K1B 1_555 1_555
C48B N2B 1_555 1_555
H48B C48B 1_555 1_555
C49B C48B 1_555 1_555
H49B C49B 1_555 1_555
C50B C49B 1_555 1_555
H50B C50B 1_555 1_555
C51B C50B 1_555 1_555
H51B C51B 1_555 1_555
C52B N2B 1_555 1_555
H52B C52B 1_555 1_555
O1B K1B 1_555 1_555
K2B O3 1_555 1_555
O3B K2 1_555 1_555
K3B O2 1_555 1_555
N1B K3B 1_555 1_555
C43B N1B 1_555 1_555
H43B C43B 1_555 1_555
C44B C43B 1_555 1_555
H44B C44B 1_555 1_555
C45B C44B 1_555 1_555
H45B C45B 1_555 1_555
C46B C45B 1_555 1_555
H46B C46B 1_555 1_555
C47B N1B 1_555 1_555
H47B C47B 1_555 1_555
C1B O1B 1_555 1_555
C2B C1B 1_555 1_555
H1B C2B 1_555 1_555
C3B C2B 1_555 1_555
H2B C3B 1_555 1_555
C4B C3B 1_555 1_555
H3B C4B 1_555 1_555
C5B C4B 1_555 1_555
H4B C5B 1_555 1_555
C6B C1B 1_555 1_555
C7B C6B 1_555 1_555
H5B C7B 1_555 1_555
H6B C7B 1_555 1_555
H7B C7B 1_555 1_555
C15B O3B 1_555 1_555
C16B C15B 1_555 1_555
H15B C16B 1_555 1_555
C17B C16B 1_555 1_555
H16B C17B 1_555 1_555
C18B C17B 1_555 1_555
H17B C18B 1_555 1_555
C19B C18B 1_555 1_555
H18B C19B 1_555 1_555
C20B C15B 1_555 1_555
C21B C20B 1_555 1_555
H19B C21B 1_555 1_555
H20B C21B 1_555 1_555
H21B C21B 1_555 1_555
C8B O2B 1_555 1_555
C9B C8B 1_555 1_555
H8B C9B 1_555 1_555
C10B C9B 1_555 1_555
H9B C10B 1_555 1_555
C11B C10B 1_555 1_555
H10B C11B 1_555 1_555
C12B C11B 1_555 1_555
H11B C12B 1_555 1_555
C13B C8B 1_555 1_555
C14B C13B 1_555 1_555
H12B C14B 1_555 1_555
H13B C14B 1_555 1_555
H14B C14B 1_555 1_555
O5B K5 1_555 1_555
K5B O5 1_555 1_555
O4B K5B 1_555 1_555
K4B O4B 1_555 1_555
N3B K4B 1_555 1_555
C53B N3B 1_555 1_555
H53B C53B 1_555 1_555
C54B C53B 1_555 1_555
H54B C54B 1_555 1_555
C55B C54B 1_555 1_555
H55B C55B 1_555 1_555
C56B C55B 1_555 1_555
H56B C56B 1_555 1_555
C57B N3B 1_555 1_555
H57B C57B 1_555 1_555
O6B K5 1_555 1_555
K6B O5B 1_555 1_555
C22B O4B 1_555 1_555
C23B C22B 1_555 1_555
H22B C23B 1_555 1_555
C24B C23B 1_555 1_555
H23B C24B 1_555 1_555
C25B C24B 1_555 1_555
H24B C25B 1_555 1_555
C26B C25B 1_555 1_555
H25B C26B 1_555 1_555
C27B C22B 1_555 1_555
C28B C27B 1_555 1_555
H26B C28B 1_555 1_555
H27B C28B 1_555 1_555
H28B C28B 1_555 1_555
C29B O5B 1_555 1_555
C30B C29B 1_555 1_555
H29B C30B 1_555 1_555
C31B C30B 1_555 1_555
H30B C31B 1_555 1_555
C32B C31B 1_555 1_555
H31B C32B 1_555 1_555
C33B C32B 1_555 1_555
H32B C33B 1_555 1_555
C34B C29B 1_555 1_555
C35B C34B 1_555 1_555
H33B C35B 1_555 1_555
H34B C35B 1_555 1_555
H35B C35B 1_555 1_555
C36B O6B 1_555 1_555
C37B C36B 1_555 1_555
H36B C37B 1_555 1_555
C38B C37B 1_555 1_555
H37B C38B 1_555 1_555
C39B C38B 1_555 1_555
H38B C39B 1_555 1_555
C40B C39B 1_555 1_555
H39B C40B 1_555 1_555
C41B C36B 1_555 1_555
C42B C41B 1_555 1_555
H40B C42B 1_555 1_555
H41B C42B 1_555 1_555
H42B C42B 1_555 1_555
K2 O2 1_555 1_555
K3 O2B 1_555 1_555
K3 O3B 1_555 1_555
K3 O1 1_555 1_555
K6 O6 1_555 1_555
K6 O5 1_555 1_555
O3 K3B 1_555 1_555
O6 K5B 1_555 1_555
C5 C6 1_555 1_555
C12 C13 1_555 1_555
C19 C20 1_555 1_555
C26 C27 1_555 1_555
C33 C34 1_555 1_555
C40 C41 1_555 1_555
C46 C47 1_555 1_555
C51 C52 1_555 1_555
C56 C57 1_555 1_555
C61 C62 1_555 1_555
O2B K1B 1_555 1_555
O2B K2B 1_555 1_555
K1B O3B 1_555 1_555
C51B C52B 1_555 1_555
O1B K2B 1_555 1_555
O1B K3B 1_555 1_555
C46B C47B 1_555 1_555
C5B C6B 1_555 1_555
C19B C20B 1_555 1_555
C12B C13B 1_555 1_555
O5B K5B 1_555 1_555
O4B K6B 1_555 1_555
K4B O6B 1_555 1_555
C56B C57B 1_555 1_555
O6B K6B 1_555 1_555
C26B C27B 1_555 1_555
C33B C34B 1_555 1_555
C40B C41B 1_555 1_555

#END
