
#######################################################################
#
#                 Cambridge Crystallographic Data Centre
#                                CCDC 
#
#######################################################################
#
# If this CIF has been generated from an entry in the Cambridge 
# Structural Database, then it will include bibliographic, chemical, 
# crystal, experimental, refinement or atomic coordinate data resulting 
# from the CCDC's data processing and validation procedures.
#
#######################################################################

data_UKUDIN
_chemical_formula_moiety         'C80 H98 K6 N4 O6'
_chemical_name_systematic        
tetrakis(\m~3~-2-t-Butylphenolato)-bis(\m~3~-2-t-butylphenolato)-tetrakis(pyridine)-hexa-potassium
_symmetry_cell_setting           triclinic
_symmetry_space_group_name_H-M   'P -1'
_symmetry_Int_Tables_number      2
_space_group_name_Hall           '-P 1'
loop_
_symmetry_equiv_pos_site_id
_symmetry_equiv_pos_as_xyz
1 x,y,z
2 -x,-y,-z
_cell_length_a                   12.059(4)
_cell_length_b                   13.910(4)
_cell_length_c                   14.008(5)
_cell_angle_alpha                106.354(6)
_cell_angle_beta                 112.576(6)
_cell_angle_gamma                97.890(6)
_cell_volume                     2000.45
_exptl_crystal_colour            colorless
_exptl_crystal_description       irregular
_cell_formula_units_Z            1
loop_
_atom_site_label
_atom_site_type_symbol
_atom_site_fract_x
_atom_site_fract_y
_atom_site_fract_z
K1 K 0.28249(7) 0.22641(6) 0.34792(6)
K2 K 0.59689(7) 0.50893(6) 0.42217(6)
K3 K 0.51240(9) 0.17397(7) 0.58565(7)
N1 N 0.0363(3) 0.1262(3) 0.1916(3)
N2 N 0.7188(3) 0.4017(2) 0.3084(3)
O1 O 0.3592(2) 0.42695(17) 0.37038(18)
O2 O 0.3507(2) 0.28969(17) 0.55628(17)
O3 O 0.4107(2) 0.09268(19) 0.3739(2)
C1 C 0.3017(3) 0.4049(3) 0.2628(3)
C2 C 0.1970(3) 0.4414(3) 0.2118(3)
C3 C 0.1452(3) 0.4137(3) 0.0970(3)
H1 H 0.0763 0.4382 0.0626
C4 C 0.1880(4) 0.3529(3) 0.0303(3)
H2 H 0.1490 0.3361 -0.0477
C5 C 0.2873(4) 0.3174(3) 0.0781(3)
H3 H 0.3184 0.2758 0.0335
C6 C 0.3428(3) 0.3422(3) 0.1924(3)
H4 H 0.4110 0.3158 0.2242
C7 C 0.1437(3) 0.5076(3) 0.2817(3)
C8 C 0.2425(4) 0.6106(3) 0.3635(3)
H5 H 0.3190 0.5962 0.4082
H6 H 0.2109 0.6499 0.4124
H7 H 0.2610 0.6517 0.3222
C9 C 0.0279(4) 0.5346(3) 0.2093(3)
H8 H 0.0514 0.5747 0.1692
H9 H -0.0036 0.5761 0.2568
H10 H -0.0373 0.4701 0.1558
C10 C 0.1024(4) 0.4465(3) 0.3440(3)
H11 H 0.0330 0.3848 0.2903
H12 H 0.0753 0.4911 0.3936
H13 H 0.1727 0.4249 0.3878
C11 C 0.3675(3) 0.3135(2) 0.6601(3)
C12 C 0.4856(3) 0.3734(3) 0.7469(3)
H14 H 0.5506 0.3953 0.7287
C13 C 0.5112(4) 0.4019(3) 0.8579(3)
H15 H 0.5921 0.4428 0.9143
C14 C 0.4188(4) 0.3708(3) 0.8856(3)
H16 H 0.4352 0.3887 0.9613
C15 C 0.3004(4) 0.3125(3) 0.8014(3)
H17 H 0.2365 0.2927 0.8216
C16 C 0.2711(3) 0.2819(2) 0.6892(3)
C17 C 0.1374(3) 0.2194(3) 0.5991(3)
C18 C 0.1404(3) 0.1164(3) 0.5236(3)
H18 H 0.0562 0.0790 0.4639
H19 H 0.1700 0.0733 0.5674
H20 H 0.1971 0.1312 0.4915
C19 C 0.0498(4) 0.1915(3) 0.6479(3)
H21 H 0.0827 0.1497 0.6925
H22 H -0.0333 0.1512 0.5876
H23 H 0.0437 0.2555 0.6952
C20 C 0.0829(3) 0.2841(3) 0.5303(3)
H24 H 0.0798 0.3490 0.5787
H25 H -0.0017 0.2443 0.4727
H26 H 0.1357 0.3005 0.4953
C21 C 0.3707(3) -0.0062(3) 0.3106(3)
C22 C 0.2662(4) -0.0711(3) 0.3057(3)
H27 H 0.2279 -0.0418 0.3505
C23 C 0.2176(4) -0.1748(3) 0.2389(3)
H28 H 0.1457 -0.2151 0.2367
C24 C 0.2723(4) -0.2204(3) 0.1755(3)
H29 H 0.2397 -0.2923 0.1298
C25 C 0.3764(4) -0.1594(3) 0.1792(3)
H30 H 0.4141 -0.1914 0.1352
C26 C 0.4282(3) -0.0536(3) 0.2443(3)
C27 C 0.5407(4) 0.0114(3) 0.2432(3)
C28 C 0.6471(4) 0.0662(4) 0.3617(4)
H31 H 0.6222 0.1199 0.4049
H32 H 0.7224 0.0987 0.3585
H33 H 0.6646 0.0150 0.3973
C29 C 0.5021(4) 0.0943(3) 0.1942(4)
H34 H 0.4395 0.0598 0.1165
H35 H 0.5756 0.1385 0.1981
H36 H 0.4666 0.1373 0.2366
C30 C 0.5941(4) -0.0544(4) 0.1735(4)
H37 H 0.6156 -0.1104 0.2003
H38 H 0.6693 -0.0101 0.1800
H39 H 0.5316 -0.0847 0.0955
C31 C -0.0074(5) 0.1458(4) 0.0983(4)
H40 H 0.0326 0.2090 0.0974
C32 C -0.1126(6) 0.0747(5) -0.0004(4)
H41 H -0.1450 0.0888 -0.0669
C33 C -0.1640(4) -0.0162(5) 0.0075(5)
H42 H -0.2336 -0.0671 -0.0557
C34 C -0.1187(5) -0.0337(4) 0.1006(5)
H43 H -0.1547 -0.0966 0.1050
C35 C -0.0219(4) 0.0379(4) 0.1884(4)
H44 H 0.0080 0.0238 0.2549
C36 C 0.6741(4) 0.4050(3) 0.2069(3)
H45 H 0.6299 0.4551 0.1936
C37 C 0.6875(4) 0.3411(3) 0.1206(3)
H46 H 0.6517 0.3457 0.0492
C38 C 0.7532(4) 0.2706(3) 0.1388(3)
H47 H 0.7648 0.2256 0.0805
C39 C 0.8021(3) 0.2658(3) 0.2422(3)
H48 H 0.8490 0.2178 0.2576
C40 C 0.7821(4) 0.3318(3) 0.3232(3)
H49 H 0.8157 0.3273 0.3947
O1A O 0.6408(2) 0.57305(17) 0.62962(18)
K1A K 0.71751(7) 0.77359(6) 0.65208(6)
N1A N 0.9637(3) 0.8738(3) 0.8084(3)
C31A C 1.0074(5) 0.8542(4) 0.9017(4)
H40A H 0.9674 0.7910 0.9026
C32A C 1.1126(6) 0.9253(5) 1.0004(4)
H41A H 1.1450 0.9112 1.0669
C33A C 1.1640(4) 1.0162(5) 0.9925(5)
H42A H 1.2336 1.0671 1.0557
C34A C 1.1187(5) 1.0337(4) 0.8994(5)
H43A H 1.1547 1.0966 0.8950
C35A C 1.0219(4) 0.9621(4) 0.8116(4)
H44A H 0.9920 0.9762 0.7451
O2A O 0.6493(2) 0.71031(17) 0.44372(17)
K3A K 0.48760(9) 0.82603(7) 0.41435(7)
O3A O 0.5893(2) 0.90732(19) 0.6261(2)
C21A C 0.6293(3) 1.0062(3) 0.6894(3)
C22A C 0.7338(4) 1.0711(3) 0.6943(3)
H27A H 0.7721 1.0418 0.6495
C23A C 0.7824(4) 1.1748(3) 0.7611(3)
H28A H 0.8543 1.2151 0.7633
C24A C 0.7277(4) 1.2204(3) 0.8245(3)
H29A H 0.7603 1.2923 0.8702
C25A C 0.6236(4) 1.1594(3) 0.8208(3)
H30A H 0.5859 1.1914 0.8648
C26A C 0.5718(3) 1.0536(3) 0.7557(3)
C27A C 0.4593(4) 0.9886(3) 0.7568(3)
C28A C 0.3529(4) 0.9338(4) 0.6383(4)
H31A H 0.3778 0.8801 0.5951
H32A H 0.2776 0.9013 0.6415
H33A H 0.3354 0.9850 0.6027
C29A C 0.4979(4) 0.9057(3) 0.8058(4)
H34A H 0.5605 0.9402 0.8835
H35A H 0.4244 0.8615 0.8019
H36A H 0.5334 0.8627 0.7634
C30A C 0.4059(4) 1.0544(4) 0.8265(4)
H37A H 0.3844 1.1104 0.7997
H38A H 0.3307 1.0101 0.8200
H39A H 0.4684 1.0847 0.9045
C11A C 0.6325(3) 0.6865(2) 0.3399(3)
C12A C 0.5144(3) 0.6266(3) 0.2531(3)
H14A H 0.4494 0.6047 0.2713
C13A C 0.4888(4) 0.5981(3) 0.1421(3)
H15A H 0.4079 0.5572 0.0857
C14A C 0.5812(4) 0.6292(3) 0.1144(3)
H16A H 0.5648 0.6113 0.0387
C15A C 0.6996(4) 0.6875(3) 0.1986(3)
H17A H 0.7635 0.7073 0.1784
C16A C 0.7289(3) 0.7181(2) 0.3108(3)
C17A C 0.8626(3) 0.7806(3) 0.4009(3)
C18A C 0.8596(3) 0.8836(3) 0.4764(3)
H18A H 0.9438 0.9210 0.5361
H19A H 0.8300 0.9267 0.4326
H20A H 0.8029 0.8688 0.5085
C19A C 0.9502(4) 0.8085(3) 0.3521(3)
H21A H 0.9173 0.8503 0.3075
H22A H 1.0333 0.8488 0.4124
H23A H 0.9563 0.7445 0.3048
C20A C 0.9171(3) 0.7159(3) 0.4697(3)
H24A H 0.9202 0.6510 0.4213
H25A H 1.0017 0.7557 0.5273
H26A H 0.8643 0.6995 0.5047
K2A K 0.40311(7) 0.49107(6) 0.57783(6)
N2A N 0.2812(3) 0.5983(2) 0.6916(3)
C36A C 0.3259(4) 0.5950(3) 0.7931(3)
H45A H 0.3701 0.5449 0.8064
C37A C 0.3125(4) 0.6589(3) 0.8794(3)
H46A H 0.3483 0.6543 0.9508
C38A C 0.2468(4) 0.7294(3) 0.8612(3)
H47A H 0.2352 0.7744 0.9195
C39A C 0.1979(3) 0.7342(3) 0.7578(3)
H48A H 0.1510 0.7822 0.7424
C40A C 0.2179(4) 0.6682(3) 0.6768(3)
H49A H 0.1843 0.6727 0.6053
C1A C 0.6983(3) 0.5951(3) 0.7372(3)
C2A C 0.8030(3) 0.5586(3) 0.7882(3)
C3A C 0.8548(3) 0.5863(3) 0.9030(3)
H1A H 0.9237 0.5618 0.9374
C4A C 0.8120(4) 0.6471(3) 0.9697(3)
H2A H 0.8510 0.6639 1.0477
C5A C 0.7127(4) 0.6826(3) 0.9219(3)
H3A H 0.6816 0.7242 0.9665
C6A C 0.6572(3) 0.6578(3) 0.8076(3)
H4A H 0.5890 0.6842 0.7758
C7A C 0.8563(3) 0.4924(3) 0.7183(3)
C8A C 0.7575(4) 0.3894(3) 0.6365(3)
H5A H 0.6810 0.4038 0.5918
H6A H 0.7891 0.3501 0.5876
H7A H 0.7390 0.3483 0.6778
C9A C 0.9721(4) 0.4654(3) 0.7907(3)
H8A H 0.9486 0.4253 0.8308
H9A H 1.0036 0.4239 0.7432
H10A H 1.0373 0.5299 0.8442
C10A C 0.8976(4) 0.5535(3) 0.6560(3)
H11A H 0.9670 0.6152 0.7097
H12A H 0.9247 0.5089 0.6064
H13A H 0.8273 0.5751 0.6122
loop_
_geom_bond_atom_site_label_1
_geom_bond_atom_site_label_2
_geom_bond_site_symmetry_1
_geom_bond_site_symmetry_2
K1 N1 1_555 1_555
K2 N2 1_555 1_555
K3 O2 1_555 1_555
N1 C31 1_555 1_555
N2 C36 1_555 1_555
O1 K1 1_555 1_555
O2 K1 1_555 1_555
O3 K1 1_555 1_555
C1 O1 1_555 1_555
C2 C1 1_555 1_555
C3 C2 1_555 1_555
H1 C3 1_555 1_555
C4 C3 1_555 1_555
H2 C4 1_555 1_555
C5 C4 1_555 1_555
H3 C5 1_555 1_555
C6 C1 1_555 1_555
H4 C6 1_555 1_555
C7 C2 1_555 1_555
C8 C7 1_555 1_555
H5 C8 1_555 1_555
H6 C8 1_555 1_555
H7 C8 1_555 1_555
C9 C7 1_555 1_555
H8 C9 1_555 1_555
H9 C9 1_555 1_555
H10 C9 1_555 1_555
C10 C7 1_555 1_555
H11 C10 1_555 1_555
H12 C10 1_555 1_555
H13 C10 1_555 1_555
C11 O2 1_555 1_555
C12 C11 1_555 1_555
H14 C12 1_555 1_555
C13 C12 1_555 1_555
H15 C13 1_555 1_555
C14 C13 1_555 1_555
H16 C14 1_555 1_555
C15 C14 1_555 1_555
H17 C15 1_555 1_555
C16 C11 1_555 1_555
C17 C16 1_555 1_555
C18 C17 1_555 1_555
H18 C18 1_555 1_555
H19 C18 1_555 1_555
H20 C18 1_555 1_555
C19 C17 1_555 1_555
H21 C19 1_555 1_555
H22 C19 1_555 1_555
H23 C19 1_555 1_555
C20 C17 1_555 1_555
H24 C20 1_555 1_555
H25 C20 1_555 1_555
H26 C20 1_555 1_555
C21 O3 1_555 1_555
C22 C21 1_555 1_555
H27 C22 1_555 1_555
C23 C22 1_555 1_555
H28 C23 1_555 1_555
C24 C23 1_555 1_555
H29 C24 1_555 1_555
C25 C24 1_555 1_555
H30 C25 1_555 1_555
C26 C21 1_555 1_555
C27 C26 1_555 1_555
C28 C27 1_555 1_555
H31 C28 1_555 1_555
H32 C28 1_555 1_555
H33 C28 1_555 1_555
C29 C27 1_555 1_555
H34 C29 1_555 1_555
H35 C29 1_555 1_555
H36 C29 1_555 1_555
C30 C27 1_555 1_555
H37 C30 1_555 1_555
H38 C30 1_555 1_555
H39 C30 1_555 1_555
C31 H40 1_555 1_555
C32 C31 1_555 1_555
H41 C32 1_555 1_555
C33 C32 1_555 1_555
H42 C33 1_555 1_555
C34 C33 1_555 1_555
H43 C34 1_555 1_555
C35 N1 1_555 1_555
H44 C35 1_555 1_555
C36 H45 1_555 1_555
C37 C36 1_555 1_555
H46 C37 1_555 1_555
C38 C37 1_555 1_555
H47 C38 1_555 1_555
C39 C38 1_555 1_555
H48 C39 1_555 1_555
C40 N2 1_555 1_555
H49 C40 1_555 1_555
O1A K2 1_555 1_555
K1A O1A 1_555 1_555
N1A K1A 1_555 1_555
C31A N1A 1_555 1_555
H40A C31A 1_555 1_555
C32A C31A 1_555 1_555
H41A C32A 1_555 1_555
C33A C32A 1_555 1_555
H42A C33A 1_555 1_555
C34A C33A 1_555 1_555
H43A C34A 1_555 1_555
C35A N1A 1_555 1_555
H44A C35A 1_555 1_555
O2A K2 1_555 1_555
K3A O2A 1_555 1_555
O3A K1A 1_555 1_555
C21A O3A 1_555 1_555
C22A C21A 1_555 1_555
H27A C22A 1_555 1_555
C23A C22A 1_555 1_555
H28A C23A 1_555 1_555
C24A C23A 1_555 1_555
H29A C24A 1_555 1_555
C25A C24A 1_555 1_555
H30A C25A 1_555 1_555
C26A C21A 1_555 1_555
C27A C26A 1_555 1_555
C28A C27A 1_555 1_555
H31A C28A 1_555 1_555
H32A C28A 1_555 1_555
H33A C28A 1_555 1_555
C29A C27A 1_555 1_555
H34A C29A 1_555 1_555
H35A C29A 1_555 1_555
H36A C29A 1_555 1_555
C30A C27A 1_555 1_555
H37A C30A 1_555 1_555
H38A C30A 1_555 1_555
H39A C30A 1_555 1_555
C11A O2A 1_555 1_555
C12A C11A 1_555 1_555
H14A C12A 1_555 1_555
C13A C12A 1_555 1_555
H15A C13A 1_555 1_555
C14A C13A 1_555 1_555
H16A C14A 1_555 1_555
C15A C14A 1_555 1_555
H17A C15A 1_555 1_555
C16A C11A 1_555 1_555
C17A C16A 1_555 1_555
C18A C17A 1_555 1_555
H18A C18A 1_555 1_555
H19A C18A 1_555 1_555
H20A C18A 1_555 1_555
C19A C17A 1_555 1_555
H21A C19A 1_555 1_555
H22A C19A 1_555 1_555
H23A C19A 1_555 1_555
C20A C17A 1_555 1_555
H24A C20A 1_555 1_555
H25A C20A 1_555 1_555
H26A C20A 1_555 1_555
K2A O1 1_555 1_555
N2A K2A 1_555 1_555
C36A N2A 1_555 1_555
H45A C36A 1_555 1_555
C37A C36A 1_555 1_555
H46A C37A 1_555 1_555
C38A C37A 1_555 1_555
H47A C38A 1_555 1_555
C39A C38A 1_555 1_555
H48A C39A 1_555 1_555
C40A N2A 1_555 1_555
H49A C40A 1_555 1_555
C1A O1A 1_555 1_555
C2A C1A 1_555 1_555
C3A C2A 1_555 1_555
H1A C3A 1_555 1_555
C4A C3A 1_555 1_555
H2A C4A 1_555 1_555
C5A C4A 1_555 1_555
H3A C5A 1_555 1_555
C6A C1A 1_555 1_555
H4A C6A 1_555 1_555
C7A C2A 1_555 1_555
C8A C7A 1_555 1_555
H5A C8A 1_555 1_555
H6A C8A 1_555 1_555
H7A C8A 1_555 1_555
C9A C7A 1_555 1_555
H8A C9A 1_555 1_555
H9A C9A 1_555 1_555
H10A C9A 1_555 1_555
C10A C7A 1_555 1_555
H11A C10A 1_555 1_555
H12A C10A 1_555 1_555
H13A C10A 1_555 1_555
K2 O1 1_555 1_555
K3 O3 1_555 1_555
O2 K2A 1_555 1_555
C5 C6 1_555 1_555
C15 C16 1_555 1_555
C25 C26 1_555 1_555
C34 C35 1_555 1_555
C39 C40 1_555 1_555
O1A K2A 1_555 1_555
K1A O2A 1_555 1_555
C34A C35A 1_555 1_555
K3A O3A 1_555 1_555
C25A C26A 1_555 1_555
C15A C16A 1_555 1_555
C39A C40A 1_555 1_555
C5A C6A 1_555 1_555

#END
