
#######################################################################
#
#                 Cambridge Crystallographic Data Centre
#                                CCDC 
#
#######################################################################
#
# If this CIF has been generated from an entry in the Cambridge 
# Structural Database, then it will include bibliographic, chemical, 
# crystal, experimental, refinement or atomic coordinate data resulting 
# from the CCDC's data processing and validation procedures.
#
#######################################################################

data_UKUFIP
_chemical_formula_moiety         'C72 H84 K4 O8'
_chemical_name_systematic        
tetrakis(\m~3~-1,1-Diphenylethanolato)-tetrakis(tetrahydrofuran)-tetra-potassium
_symmetry_cell_setting           orthorhombic
_symmetry_space_group_name_H-M   'A b a 2'
_symmetry_Int_Tables_number      41
_space_group_name_Hall           'A 2 -2ab'
loop_
_symmetry_equiv_pos_site_id
_symmetry_equiv_pos_as_xyz
1 x,y,z
2 -x,-y,z
3 1/2+x,1/2-y,z
4 1/2-x,1/2+y,z
5 x,1/2+y,1/2+z
6 -x,1/2-y,1/2+z
7 1/2+x,-y,1/2+z
8 1/2-x,y,1/2+z
_cell_length_a                   18.178(3)
_cell_length_b                   19.511(3)
_cell_length_c                   19.055(3)
_cell_angle_alpha                90
_cell_angle_beta                 90
_cell_angle_gamma                90
_cell_volume                     6758.26
_exptl_crystal_description       bipyramid
_cell_formula_units_Z            4
loop_
_atom_site_label
_atom_site_type_symbol
_atom_site_fract_x
_atom_site_fract_y
_atom_site_fract_z
K1 K 0.39609(3) 0.00511(3) -0.05800(3)
K2 K 0.49126(3) -0.09565(3) 0.07409(3)
O1 O 0.49801(10) -0.09954(9) -0.06218(11)
O2 O 0.27290(13) 0.07205(13) -0.10123(15)
O3 O 0.39654(10) 0.00574(9) 0.07928(11)
O4 O 0.42828(17) -0.20596(13) 0.13478(19)
C1 C 0.48635(16) -0.13679(15) -0.12268(15)
C2 C 0.52985(19) -0.10476(16) -0.18476(17)
H1 H 0.5586 -0.1405 -0.2083
H2 H 0.5631 -0.0693 -0.1669
H3 H 0.4953 -0.0843 -0.2182
C3 C 0.40287(16) -0.13908(14) -0.13941(15)
C4 C 0.35618(17) -0.16437(15) -0.08758(17)
H4 H 0.3764 -0.1794 -0.0442
C5 C 0.28051(18) -0.16801(17) -0.0981(2)
H5 H 0.2495 -0.1858 -0.0624
C6 C 0.2509(2) -0.14570(17) -0.1606(2)
H6 H 0.1993 -0.1484 -0.1683
C7 C 0.29561(19) -0.11978(19) -0.2114(2)
H7 H 0.2749 -0.1038 -0.2541
C8 C 0.37086(17) -0.11656(16) -0.20133(17)
H8 H 0.4012 -0.0986 -0.2375
C9 C 0.51106(15) -0.21236(16) -0.11620(16)
C10 C 0.54324(18) -0.23594(17) -0.05666(18)
H9 H 0.5526 -0.2048 -0.0194
C11 C 0.5630(2) -0.30441(18) -0.0485(2)
H10 H 0.5842 -0.3195 -0.0056
C12 C 0.55163(19) -0.35052(18) -0.1026(2)
H11 H 0.5651 -0.3973 -0.0976
C13 C 0.5208(2) -0.32731(18) -0.1634(2)
H12 H 0.5128 -0.3583 -0.2011
C14 C 0.5010(2) -0.25933(18) -0.1709(2)
H13 H 0.4802 -0.2442 -0.2139
C15 C 0.2057(3) 0.0354(2) -0.0955(3)
H14 H 0.2135 -0.0088 -0.0711
H15 H 0.1849 0.0261 -0.1426
C16 C 0.1560(3) 0.0796(2) -0.0548(4)
H16 H 0.1597 0.0694 -0.0041
H17 H 0.1044 0.0733 -0.0700
C17 C 0.1822(2) 0.1513(2) -0.0703(3)
H18 H 0.1896 0.1774 -0.0264
H19 H 0.1461 0.1760 -0.0999
C18 C 0.2541(2) 0.14209(19) -0.1089(2)
H20 H 0.2484 0.1540 -0.1592
H21 H 0.2927 0.1717 -0.0884
C19 C 0.35017(15) 0.02198(15) 0.13404(15)
C20 C 0.37788(19) -0.01269(18) 0.20283(17)
H22 H 0.3368 -0.0363 0.2258
H23 H 0.3977 0.0223 0.2344
H24 H 0.4165 -0.0459 0.1915
C21 C 0.27102(16) -0.00492(13) 0.12166(15)
C22 C 0.21004(17) 0.01947(16) 0.15847(18)
H25 H 0.2168 0.0546 0.1924
C23 C 0.14055(18) -0.00581(17) 0.1470(2)
H26 H 0.1002 0.0117 0.1731
C24 C 0.12911(19) -0.05670(19) 0.0977(2)
H27 H 0.0810 -0.0738 0.0891
C25 C 0.18825(19) -0.08202(19) 0.0615(2)
H28 H 0.1812 -0.1176 0.0282
C26 C 0.25910(17) -0.05606(15) 0.07303(19)
H29 H 0.2994 -0.0739 0.0470
C27 C 0.34506(14) 0.10081(14) 0.14300(15)
C28 C 0.35289(18) 0.13544(17) 0.20575(17)
H30 H 0.3622 0.1102 0.2474
C29 C 0.3474(2) 0.20670(18) 0.2094(2)
H31 H 0.3527 0.2291 0.2534
C30 C 0.33469(17) 0.24426(17) 0.1509(2)
H32 H 0.3316 0.2928 0.1533
C31 C 0.32632(17) 0.21036(16) 0.08729(17)
H33 H 0.3169 0.2358 0.0458
C32 C 0.33159(16) 0.14018(15) 0.08416(16)
H34 H 0.3258 0.1180 0.0401
C33 C 0.4643(4) -0.2683(3) 0.1210(4)
H35 H 0.4866 -0.2667 0.0737
H36 H 0.5044 -0.2750 0.1556
C34 C 0.4152(4) -0.3237(3) 0.1248(4)
H37 H 0.4391 -0.3645 0.1457
H38 H 0.3959 -0.3357 0.0778
C35 C 0.3565(3) -0.2973(3) 0.1706(5)
H39 H 0.3655 -0.3107 0.2200
H40 H 0.3081 -0.3155 0.1559
C36 C 0.3584(3) -0.2200(3) 0.1628(4)
H41 H 0.3191 -0.2041 0.1307
H42 H 0.3521 -0.1974 0.2089
K1A K 0.60391(3) -0.00511(3) -0.05800(3)
O1A O 0.50199(10) 0.09954(9) -0.06218(11)
K2A K 0.50874(3) 0.09565(3) 0.07409(3)
C1A C 0.51365(16) 0.13679(15) -0.12268(15)
C2A C 0.47015(19) 0.10476(16) -0.18476(17)
H1A H 0.4414 0.1405 -0.2083
H2A H 0.4369 0.0693 -0.1669
H3A H 0.5047 0.0843 -0.2182
C3A C 0.59713(16) 0.13908(14) -0.13941(15)
C4A C 0.64382(17) 0.16437(15) -0.08758(17)
H4A H 0.6236 0.1794 -0.0442
C5A C 0.71949(18) 0.16801(17) -0.0981(2)
H5A H 0.7505 0.1858 -0.0624
C6A C 0.7491(2) 0.14570(17) -0.1606(2)
H6A H 0.8007 0.1484 -0.1683
C7A C 0.70439(19) 0.11978(19) -0.2114(2)
H7A H 0.7251 0.1038 -0.2541
C8A C 0.62914(17) 0.11656(16) -0.20133(17)
H8A H 0.5988 0.0986 -0.2375
C9A C 0.48894(15) 0.21236(16) -0.11620(16)
C10A C 0.45676(18) 0.23594(17) -0.05666(18)
H9A H 0.4474 0.2048 -0.0194
C11A C 0.4370(2) 0.30441(18) -0.0485(2)
H10A H 0.4158 0.3195 -0.0056
C12A C 0.44837(19) 0.35052(18) -0.1026(2)
H11A H 0.4349 0.3973 -0.0976
C13A C 0.4792(2) 0.32731(18) -0.1634(2)
H12A H 0.4872 0.3583 -0.2011
C14A C 0.4990(2) 0.25933(18) -0.1709(2)
H13A H 0.5198 0.2442 -0.2139
O3A O 0.60346(10) -0.00574(9) 0.07928(11)
O2A O 0.72710(13) -0.07205(13) -0.10123(15)
C15A C 0.7943(3) -0.0354(2) -0.0955(3)
H14A H 0.7865 0.0088 -0.0711
H15A H 0.8151 -0.0261 -0.1426
C16A C 0.8440(3) -0.0796(2) -0.0548(4)
H16A H 0.8403 -0.0694 -0.0041
H17A H 0.8956 -0.0733 -0.0700
C17A C 0.8178(2) -0.1513(2) -0.0703(3)
H18A H 0.8104 -0.1774 -0.0264
H19A H 0.8539 -0.1760 -0.0999
C18A C 0.7459(2) -0.14209(19) -0.1089(2)
H20A H 0.7516 -0.1540 -0.1592
H21A H 0.7073 -0.1717 -0.0884
C19A C 0.64983(15) -0.02198(15) 0.13404(15)
C20A C 0.62212(19) 0.01269(18) 0.20283(17)
H22A H 0.6632 0.0363 0.2258
H23A H 0.6023 -0.0223 0.2344
H24A H 0.5835 0.0459 0.1915
C21A C 0.72898(16) 0.00492(13) 0.12166(15)
C22A C 0.78996(17) -0.01947(16) 0.15847(18)
H25A H 0.7832 -0.0546 0.1924
C23A C 0.85945(18) 0.00581(17) 0.1470(2)
H26A H 0.8998 -0.0117 0.1731
C24A C 0.87089(19) 0.05670(19) 0.0977(2)
H27A H 0.9190 0.0738 0.0891
C25A C 0.81175(19) 0.08202(19) 0.0615(2)
H28A H 0.8188 0.1176 0.0282
C26A C 0.74090(17) 0.05606(15) 0.07303(19)
H29A H 0.7006 0.0739 0.0470
C27A C 0.65494(14) -0.10081(14) 0.14300(15)
C28A C 0.64711(18) -0.13544(17) 0.20575(17)
H30A H 0.6378 -0.1102 0.2474
C29A C 0.6526(2) -0.20670(18) 0.2094(2)
H31A H 0.6473 -0.2291 0.2534
C30A C 0.66531(17) -0.24426(17) 0.1509(2)
H32A H 0.6684 -0.2928 0.1533
C31A C 0.67368(17) -0.21036(16) 0.08729(17)
H33A H 0.6831 -0.2358 0.0458
C32A C 0.66841(16) -0.14018(15) 0.08416(16)
H34A H 0.6742 -0.1180 0.0401
O4A O 0.57172(17) 0.20596(13) 0.13478(19)
C33A C 0.5357(4) 0.2683(3) 0.1210(4)
H35A H 0.5134 0.2667 0.0737
H36A H 0.4956 0.2750 0.1556
C34A C 0.5848(4) 0.3237(3) 0.1248(4)
H37A H 0.5609 0.3645 0.1457
H38A H 0.6041 0.3357 0.0778
C35A C 0.6435(3) 0.2973(3) 0.1706(5)
H39A H 0.6345 0.3107 0.2200
H40A H 0.6919 0.3155 0.1559
C36A C 0.6416(3) 0.2200(3) 0.1628(4)
H41A H 0.6809 0.2041 0.1307
H42A H 0.6479 0.1974 0.2089
loop_
_geom_bond_atom_site_label_1
_geom_bond_atom_site_label_2
_geom_bond_site_symmetry_1
_geom_bond_site_symmetry_2
K1 O1 1_555 1_555
K2 O1 1_555 1_555
O1 C1 1_555 1_555
O2 K1 1_555 1_555
O3 K1 1_555 1_555
O4 K2 1_555 1_555
C1 C2 1_555 1_555
C2 H1 1_555 1_555
H2 C2 1_555 1_555
H3 C2 1_555 1_555
C3 C1 1_555 1_555
C4 C3 1_555 1_555
H4 C4 1_555 1_555
C5 C4 1_555 1_555
H5 C5 1_555 1_555
C6 C5 1_555 1_555
H6 C6 1_555 1_555
C7 C6 1_555 1_555
H7 C7 1_555 1_555
C8 C3 1_555 1_555
H8 C8 1_555 1_555
C9 C1 1_555 1_555
C10 C9 1_555 1_555
H9 C10 1_555 1_555
C11 C10 1_555 1_555
H10 C11 1_555 1_555
C12 C11 1_555 1_555
H11 C12 1_555 1_555
C13 C12 1_555 1_555
H12 C13 1_555 1_555
C14 C9 1_555 1_555
H13 C14 1_555 1_555
C15 O2 1_555 1_555
H14 C15 1_555 1_555
H15 C15 1_555 1_555
C16 C15 1_555 1_555
H16 C16 1_555 1_555
H17 C16 1_555 1_555
C17 C16 1_555 1_555
H18 C17 1_555 1_555
H19 C17 1_555 1_555
C18 O2 1_555 1_555
H20 C18 1_555 1_555
H21 C18 1_555 1_555
C19 O3 1_555 1_555
C20 C19 1_555 1_555
H22 C20 1_555 1_555
H23 C20 1_555 1_555
H24 C20 1_555 1_555
C21 C19 1_555 1_555
C22 C21 1_555 1_555
H25 C22 1_555 1_555
C23 C22 1_555 1_555
H26 C23 1_555 1_555
C24 C23 1_555 1_555
H27 C24 1_555 1_555
C25 C24 1_555 1_555
H28 C25 1_555 1_555
C26 C21 1_555 1_555
H29 C26 1_555 1_555
C27 C19 1_555 1_555
C28 C27 1_555 1_555
H30 C28 1_555 1_555
C29 C28 1_555 1_555
H31 C29 1_555 1_555
C30 C29 1_555 1_555
H32 C30 1_555 1_555
C31 C30 1_555 1_555
H33 C31 1_555 1_555
C32 C27 1_555 1_555
H34 C32 1_555 1_555
C33 O4 1_555 1_555
H35 C33 1_555 1_555
H36 C33 1_555 1_555
C34 C33 1_555 1_555
H37 C34 1_555 1_555
H38 C34 1_555 1_555
C35 C34 1_555 1_555
H39 C35 1_555 1_555
H40 C35 1_555 1_555
C36 O4 1_555 1_555
H41 C36 1_555 1_555
H42 C36 1_555 1_555
K1A O1 1_555 1_555
O1A K1 1_555 1_555
K2A O3 1_555 1_555
C1A O1A 1_555 1_555
C2A C1A 1_555 1_555
H1A C2A 1_555 1_555
H2A C2A 1_555 1_555
H3A C2A 1_555 1_555
C3A C1A 1_555 1_555
C4A C3A 1_555 1_555
H4A C4A 1_555 1_555
C5A C4A 1_555 1_555
H5A C5A 1_555 1_555
C6A C5A 1_555 1_555
H6A C6A 1_555 1_555
C7A C6A 1_555 1_555
H7A C7A 1_555 1_555
C8A C3A 1_555 1_555
H8A C8A 1_555 1_555
C9A C1A 1_555 1_555
C10A C9A 1_555 1_555
H9A C10A 1_555 1_555
C11A C10A 1_555 1_555
H10A C11A 1_555 1_555
C12A C11A 1_555 1_555
H11A C12A 1_555 1_555
C13A C12A 1_555 1_555
H12A C13A 1_555 1_555
C14A C9A 1_555 1_555
H13A C14A 1_555 1_555
O3A K2 1_555 1_555
O2A K1A 1_555 1_555
C15A O2A 1_555 1_555
H14A C15A 1_555 1_555
H15A C15A 1_555 1_555
C16A C15A 1_555 1_555
H16A C16A 1_555 1_555
H17A C16A 1_555 1_555
C17A C16A 1_555 1_555
H18A C17A 1_555 1_555
H19A C17A 1_555 1_555
C18A O2A 1_555 1_555
H20A C18A 1_555 1_555
H21A C18A 1_555 1_555
C19A O3A 1_555 1_555
C20A C19A 1_555 1_555
H22A C20A 1_555 1_555
H23A C20A 1_555 1_555
H24A C20A 1_555 1_555
C21A C19A 1_555 1_555
C22A C21A 1_555 1_555
H25A C22A 1_555 1_555
C23A C22A 1_555 1_555
H26A C23A 1_555 1_555
C24A C23A 1_555 1_555
H27A C24A 1_555 1_555
C25A C24A 1_555 1_555
H28A C25A 1_555 1_555
C26A C21A 1_555 1_555
H29A C26A 1_555 1_555
C27A C19A 1_555 1_555
C28A C27A 1_555 1_555
H30A C28A 1_555 1_555
C29A C28A 1_555 1_555
H31A C29A 1_555 1_555
C30A C29A 1_555 1_555
H32A C30A 1_555 1_555
C31A C30A 1_555 1_555
H33A C31A 1_555 1_555
C32A C27A 1_555 1_555
H34A C32A 1_555 1_555
O4A K2A 1_555 1_555
C33A O4A 1_555 1_555
H35A C33A 1_555 1_555
H36A C33A 1_555 1_555
C34A C33A 1_555 1_555
H37A C34A 1_555 1_555
H38A C34A 1_555 1_555
C35A C34A 1_555 1_555
H39A C35A 1_555 1_555
H40A C35A 1_555 1_555
C36A O4A 1_555 1_555
H41A C36A 1_555 1_555
H42A C36A 1_555 1_555
K2 O3 1_555 1_555
C7 C8 1_555 1_555
C13 C14 1_555 1_555
C17 C18 1_555 1_555
C25 C26 1_555 1_555
C31 C32 1_555 1_555
C35 C36 1_555 1_555
K1A O1A 1_555 1_555
K1A O3A 1_555 1_555
O1A K2A 1_555 1_555
K2A O3A 1_555 1_555
C7A C8A 1_555 1_555
C13A C14A 1_555 1_555
C17A C18A 1_555 1_555
C25A C26A 1_555 1_555
C31A C32A 1_555 1_555
C35A C36A 1_555 1_555

#END
