
#######################################################################
#
#                 Cambridge Crystallographic Data Centre
#                                CCDC 
#
#######################################################################
#
# If this CIF has been generated from an entry in the Cambridge 
# Structural Database, then it will include bibliographic, chemical, 
# crystal, experimental, refinement or atomic coordinate data resulting 
# from the CCDC's data processing and validation procedures.
#
#######################################################################

data_UKUFIR
_chemical_formula_moiety         'C9 H14 O3'
_chemical_name_systematic        
(2S,3R)-3-Acetyl-2-hydroxy-2,3-dimethylcyclopentanone
_symmetry_cell_setting           triclinic
_symmetry_space_group_name_H-M   'P -1'
_symmetry_Int_Tables_number      2
_space_group_name_Hall           '-P 1'
loop_
_symmetry_equiv_pos_site_id
_symmetry_equiv_pos_as_xyz
1 x,y,z
2 -x,-y,-z
_cell_length_a                   6.1436(4)
_cell_length_b                   6.8104(6)
_cell_length_c                   10.8156(9)
_cell_angle_alpha                87.661(7)
_cell_angle_beta                 78.156(7)
_cell_angle_gamma                83.520(6)
_cell_volume                     439.992
_exptl_crystal_colour            colorless
_exptl_crystal_description       prism
_cell_formula_units_Z            2
loop_
_atom_site_label
_atom_site_type_symbol
_atom_site_fract_x
_atom_site_fract_y
_atom_site_fract_z
O1 O 0.46268(17) 1.09828(15) 0.14414(10)
O2 O 0.00268(15) 0.72018(15) 0.35576(9)
H1 H -0.0454 0.6757 0.4286
O3 O 0.28631(17) 0.39542(14) 0.42550(10)
C1 C 0.0695(3) 1.0980(2) 0.17795(17)
H2 H 0.0627 1.2387 0.1960
H3 H -0.0323 1.0342 0.2454
H4 H 0.0250 1.0837 0.0971
C2 C 0.3046(2) 1.0021(2) 0.17091(13)
C3 C 0.3374(2) 0.77962(19) 0.19787(13)
C4 C 0.2360(2) 0.72664(19) 0.33745(13)
C5 C 0.3627(2) 0.52334(19) 0.35315(13)
C6 C 0.5875(2) 0.50819(19) 0.26495(13)
H5 H 0.6072 0.3917 0.2104
H6 H 0.7095 0.4971 0.3129
C7 C 0.5863(2) 0.7010(2) 0.18555(13)
H7 H 0.6571 0.6749 0.0961
H8 H 0.6682 0.7978 0.2183
C8 C 0.2322(2) 0.6693(2) 0.10739(13)
H9 H 0.0701 0.7063 0.1242
H10 H 0.2628 0.5265 0.1205
H11 H 0.2966 0.7049 0.0199
C9 C 0.2951(2) 0.8628(2) 0.43249(14)
H12 H 0.2296 0.9982 0.4197
H13 H 0.4581 0.8597 0.4198
H14 H 0.2355 0.8174 0.5187
loop_
_geom_bond_atom_site_label_1
_geom_bond_atom_site_label_2
_geom_bond_site_symmetry_1
_geom_bond_site_symmetry_2
O1 C2 1_555 1_555
O2 H1 1_555 1_555
O3 C5 1_555 1_555
C1 H2 1_555 1_555
H3 C1 1_555 1_555
H4 C1 1_555 1_555
C2 C1 1_555 1_555
C3 C2 1_555 1_555
C4 O2 1_555 1_555
C5 C4 1_555 1_555
C6 C5 1_555 1_555
H5 C6 1_555 1_555
H6 C6 1_555 1_555
C7 C3 1_555 1_555
H7 C7 1_555 1_555
H8 C7 1_555 1_555
C8 C3 1_555 1_555
H9 C8 1_555 1_555
H10 C8 1_555 1_555
H11 C8 1_555 1_555
C9 C4 1_555 1_555
H12 C9 1_555 1_555
H13 C9 1_555 1_555
H14 C9 1_555 1_555
C3 C4 1_555 1_555
C6 C7 1_555 1_555

#END
