
#######################################################################
#
#                 Cambridge Crystallographic Data Centre
#                                CCDC 
#
#######################################################################
#
# If this CIF has been generated from an entry in the Cambridge 
# Structural Database, then it will include bibliographic, chemical, 
# crystal, experimental, refinement or atomic coordinate data resulting 
# from the CCDC's data processing and validation procedures.
#
#######################################################################

data_UKUFOV
_chemical_formula_moiety         'C76 H72 K4 N4 O4,2(C5 H5 N1)'
_chemical_name_systematic        
'tetrakis(\m~3~-1,1-Diphenylethanolato)-tetrakis(pyridine)-tetra-potassium pyridine solvate'
_symmetry_cell_setting           tetragonal
_symmetry_space_group_name_H-M   'P -4'
_symmetry_Int_Tables_number      81
_space_group_name_Hall           'P -4'
loop_
_symmetry_equiv_pos_site_id
_symmetry_equiv_pos_as_xyz
1 x,y,z
2 y,-x,-z
3 -x,-y,z
4 -y,x,-z
_cell_length_a                   28.2270(13)
_cell_length_b                   28.2270(13)
_cell_length_c                   9.7046(4)
_cell_angle_alpha                90
_cell_angle_beta                 90
_cell_angle_gamma                90
_cell_volume                     7732.27
_exptl_crystal_colour            colorless
_exptl_crystal_description       irregular
_cell_formula_units_Z            4
loop_
_atom_site_label
_atom_site_type_symbol
_atom_site_fract_x
_atom_site_fract_y
_atom_site_fract_z
K1 K 0.50328(7) 1.06611(6) -0.42087(15)
O1 O 0.56907(16) 0.99463(18) -0.4168(4)
C1 C 0.5963(2) 1.0045(3) -0.3067(7)
C2 C 0.5695(3) 0.9977(3) -0.1701(6)
H1 H 0.5598 0.9645 -0.1612
H2 H 0.5414 1.0181 -0.1690
H3 H 0.5903 1.0062 -0.0930
C3 C 0.6151(3) 1.0570(3) -0.3213(7)
C4 C 0.6048(3) 1.0923(3) -0.2328(8)
H4 H 0.5888 1.0853 -0.1492
C5 C 0.6173(3) 1.1389(3) -0.2623(11)
H5 H 0.6073 1.1634 -0.2017
C6 C 0.6443(3) 1.1509(3) -0.3789(9)
H6 H 0.6545 1.1825 -0.3955
C7 C 0.6552(3) 1.1150(3) -0.4667(9)
H7 H 0.6724 1.1217 -0.5486
C8 C 0.6414(3) 1.0686(3) -0.4388(8)
H8 H 0.6501 1.0441 -0.5012
C9 C 0.6417(3) 0.9737(3) -0.2947(7)
C10 C 0.6717(3) 0.9744(3) -0.1800(9)
H9 H 0.6656 0.9962 -0.1076
C11 C 0.7097(3) 0.9443(3) -0.1695(9)
H10 H 0.7301 0.9462 -0.0918
C12 C 0.7184(3) 0.9114(3) -0.2714(10)
H11 H 0.7439 0.8897 -0.2612
C13 C 0.6902(3) 0.9096(3) -0.3896(9)
H12 H 0.6969 0.8879 -0.4619
C14 C 0.6517(3) 0.9408(3) -0.3977(9)
H13 H 0.6317 0.9396 -0.4763
N1 N 0.4687(3) 1.1493(2) -0.2892(8)
C15 C 0.4874(3) 1.1928(3) -0.2756(8)
H14 H 0.5201 1.1976 -0.2935
C16 C 0.4593(3) 1.2309(4) -0.2355(10)
H15 H 0.4733 1.2611 -0.2207
C17 C 0.4122(3) 1.2251(3) -0.2175(9)
H16 H 0.3925 1.2514 -0.1965
C18 C 0.3934(3) 1.1808(3) -0.2300(10)
H17 H 0.3603 1.1755 -0.2210
C19 C 0.4243(3) 1.1437(3) -0.2564(10)
H18 H 0.4124 1.1123 -0.2500
K2 K 0.56637(6) 0.99730(7) -0.68130(15)
O2 O 0.50597(18) 1.06906(17) -0.6835(4)
C20 C 0.4953(3) 1.0974(2) -0.7951(7)
C21 C 0.5030(3) 1.0699(3) -0.9294(6)
H19 H 0.4846 1.0404 -0.9268
H20 H 0.5367 1.0624 -0.9396
H21 H 0.4925 1.0892 -1.0076
C22 C 0.5264(2) 1.1432(3) -0.8003(7)
C23 C 0.5236(3) 1.1719(3) -0.9138(8)
H22 H 0.5014 1.1648 -0.9846
C24 C 0.5537(3) 1.2124(3) -0.9267(10)
H23 H 0.5514 1.2327 -1.0045
C25 C 0.5859(3) 1.2213(3) -0.8241(11)
H24 H 0.6072 1.2472 -0.8330
C26 C 0.5879(3) 1.1927(3) -0.7068(10)
H25 H 0.6087 1.2003 -0.6331
C27 C 0.5585(3) 1.1524(3) -0.6996(9)
H26 H 0.5612 1.1314 -0.6234
C28 C 0.4426(3) 1.1146(2) -0.7817(8)
C29 C 0.4081(3) 1.1057(3) -0.8758(9)
H27 H 0.4166 1.0900 -0.9588
C30 C 0.3625(3) 1.1180(4) -0.8570(11)
H28 H 0.3394 1.1097 -0.9238
C31 C 0.3495(3) 1.1428(3) -0.7399(10)
H29 H 0.3177 1.1532 -0.7281
C32 C 0.3834(3) 1.1522(3) -0.6401(10)
H30 H 0.3750 1.1680 -0.5572
C33 C 0.4290(3) 1.1383(3) -0.6631(7)
H31 H 0.4523 1.1451 -0.5953
N2 N 0.6477(2) 1.0363(3) -0.8158(7)
C34 C 0.6906(3) 1.0157(3) -0.8142(9)
H32 H 0.6929 0.9832 -0.7893
C35 C 0.7305(3) 1.0398(3) -0.8469(9)
H33 H 0.7606 1.0249 -0.8402
C36 C 0.7270(4) 1.0848(3) -0.8887(11)
H34 H 0.7546 1.1022 -0.9129
C37 C 0.6834(3) 1.1054(4) -0.8961(10)
H35 H 0.6802 1.1372 -0.9266
C38 C 0.6442(3) 1.0796(3) -0.8588(9)
H36 H 0.6137 1.0939 -0.8647
K1B K 0.49672(7) 0.93389(6) -0.42087(15)
O1B O 0.43093(16) 1.00537(18) -0.4168(4)
O2B O 0.49403(18) 0.93094(17) -0.6835(4)
N1B N 0.5313(3) 0.8507(2) -0.2892(8)
C15B C 0.5126(3) 0.8072(3) -0.2756(8)
H14B H 0.4799 0.8024 -0.2935
C16B C 0.5407(3) 0.7691(4) -0.2355(10)
H15B H 0.5267 0.7389 -0.2207
C17B C 0.5878(3) 0.7749(3) -0.2175(9)
H16B H 0.6075 0.7486 -0.1965
C18B C 0.6066(3) 0.8192(3) -0.2300(10)
H17B H 0.6397 0.8245 -0.2210
C19B C 0.5757(3) 0.8563(3) -0.2564(10)
H18B H 0.5876 0.8877 -0.2500
K2B K 0.43363(6) 1.00270(7) -0.68130(15)
C1B C 0.4037(2) 0.9955(3) -0.3067(7)
C2B C 0.4305(3) 1.0023(3) -0.1701(6)
H1B H 0.4402 1.0355 -0.1612
H2B H 0.4586 0.9819 -0.1690
H3B H 0.4097 0.9938 -0.0930
C3B C 0.3849(3) 0.9430(3) -0.3213(7)
C4B C 0.3952(3) 0.9077(3) -0.2328(8)
H4B H 0.4112 0.9147 -0.1492
C5B C 0.3827(3) 0.8611(3) -0.2623(11)
H5B H 0.3927 0.8366 -0.2017
C6B C 0.3557(3) 0.8491(3) -0.3789(9)
H6B H 0.3455 0.8175 -0.3955
C7B C 0.3448(3) 0.8850(3) -0.4667(9)
H7B H 0.3276 0.8783 -0.5486
C8B C 0.3586(3) 0.9314(3) -0.4388(8)
H8B H 0.3499 0.9559 -0.5012
C9B C 0.3583(3) 1.0263(3) -0.2947(7)
C10B C 0.3283(3) 1.0256(3) -0.1800(9)
H9B H 0.3344 1.0038 -0.1076
C11B C 0.2903(3) 1.0557(3) -0.1695(9)
H10B H 0.2699 1.0538 -0.0918
C12B C 0.2816(3) 1.0886(3) -0.2714(10)
H11B H 0.2561 1.1103 -0.2612
C13B C 0.3098(3) 1.0904(3) -0.3896(9)
H12B H 0.3031 1.1121 -0.4619
C14B C 0.3483(3) 1.0592(3) -0.3977(9)
H13B H 0.3683 1.0604 -0.4763
N2B N 0.3523(2) 0.9637(3) -0.8158(7)
C34B C 0.3094(3) 0.9843(3) -0.8142(9)
H32B H 0.3071 1.0168 -0.7893
C35B C 0.2695(3) 0.9602(3) -0.8469(9)
H33B H 0.2394 0.9751 -0.8402
C36B C 0.2730(4) 0.9152(3) -0.8887(11)
H34B H 0.2454 0.8978 -0.9129
C37B C 0.3166(3) 0.8946(4) -0.8961(10)
H35B H 0.3198 0.8628 -0.9266
C38B C 0.3558(3) 0.9204(3) -0.8588(9)
H36B H 0.3863 0.9061 -0.8647
C20B C 0.5047(3) 0.9026(2) -0.7951(7)
C21B C 0.4970(3) 0.9301(3) -0.9294(6)
H19B H 0.5154 0.9596 -0.9268
H20B H 0.4633 0.9376 -0.9396
H21B H 0.5075 0.9108 -1.0076
C22B C 0.4736(2) 0.8568(3) -0.8003(7)
C23B C 0.4764(3) 0.8281(3) -0.9138(8)
H22B H 0.4986 0.8352 -0.9846
C24B C 0.4463(3) 0.7876(3) -0.9267(10)
H23B H 0.4486 0.7673 -1.0045
C25B C 0.4141(3) 0.7787(3) -0.8241(11)
H24B H 0.3928 0.7528 -0.8330
C26B C 0.4121(3) 0.8073(3) -0.7068(10)
H25B H 0.3913 0.7997 -0.6331
C27B C 0.4415(3) 0.8476(3) -0.6996(9)
H26B H 0.4388 0.8686 -0.6234
C28B C 0.5574(3) 0.8854(2) -0.7817(8)
C29B C 0.5919(3) 0.8943(3) -0.8758(9)
H27B H 0.5834 0.9100 -0.9588
C30B C 0.6375(3) 0.8820(4) -0.8570(11)
H28B H 0.6606 0.8903 -0.9238
C31B C 0.6505(3) 0.8572(3) -0.7399(10)
H29B H 0.6823 0.8468 -0.7281
C32B C 0.6166(3) 0.8478(3) -0.6401(10)
H30B H 0.6250 0.8320 -0.5572
C33B C 0.5710(3) 0.8617(3) -0.6631(7)
H31B H 0.5477 0.8549 -0.5953
K3 K 0.43355(6) 1.49441(7) -0.12970(17)
O3 O 0.51009(17) 1.43107(16) -0.1346(4)
C39 C 0.4984(3) 1.4020(2) -0.2440(6)
C40 C 0.5037(3) 1.4317(3) -0.3819(7)
H37 H 0.4796 1.4567 -0.3840
H38 H 0.4994 1.4107 -0.4614
H39 H 0.5353 1.4460 -0.3855
C41 C 0.4480(3) 1.3833(3) -0.2271(8)
C42 C 0.4381(3) 1.3571(3) -0.1117(8)
H40 H 0.4630 1.3493 -0.0499
C43 C 0.3931(3) 1.3420(3) -0.0836(8)
H41 H 0.3873 1.3240 -0.0027
C44 C 0.3563(3) 1.3525(3) -0.1710(11)
H42 H 0.3251 1.3423 -0.1485
C45 C 0.3637(3) 1.3776(3) -0.2905(10)
H43 H 0.3385 1.3828 -0.3536
C46 C 0.4100(3) 1.3956(3) -0.3182(8)
H44 H 0.4155 1.4155 -0.3957
C47 C 0.5324(3) 1.3594(3) -0.2573(7)
C48 C 0.5656(3) 1.3506(3) -0.1545(8)
H45 H 0.5676 1.3707 -0.0760
C49 C 0.5955(3) 1.3125(3) -0.1681(9)
H46 H 0.6166 1.3054 -0.0945
C50 C 0.5964(3) 1.2853(3) -0.2780(9)
H47 H 0.6190 1.2605 -0.2855
C51 C 0.5637(3) 1.2932(3) -0.3838(9)
H48 H 0.5637 1.2740 -0.4640
C52 C 0.5322(3) 1.3287(3) -0.3696(8)
H49 H 0.5089 1.3330 -0.4391
N3 N 0.3501(2) 1.5283(2) -0.2638(7)
C53 C 0.3537(3) 1.5724(3) -0.3154(9)
H50 H 0.3832 1.5887 -0.3109
C54 C 0.3150(4) 1.5943(4) -0.3747(13)
H51 H 0.3180 1.6243 -0.4179
C55 C 0.2721(4) 1.5714(4) -0.3696(11)
H52 H 0.2449 1.5869 -0.4055
C56 C 0.2673(3) 1.5282(3) -0.3158(10)
H53 H 0.2380 1.5116 -0.3181
C57 C 0.3073(3) 1.5090(3) -0.2566(8)
H54 H 0.3041 1.4800 -0.2075
K3C K 0.50559(7) 1.43355(6) 0.12970(17)
O3C O 0.56893(16) 1.51009(17) 0.1346(4)
K3B K 0.56645(6) 1.50559(7) -0.12970(17)
O3B O 0.48991(17) 1.56893(16) -0.1346(4)
K3A K 0.49441(7) 1.56645(6) 0.12970(17)
O3A O 0.43107(16) 1.48991(17) 0.1346(4)
C39B C 0.5016(3) 1.5980(2) -0.2440(6)
C40B C 0.4963(3) 1.5683(3) -0.3819(7)
H37B H 0.5204 1.5433 -0.3840
H38B H 0.5006 1.5893 -0.4614
H39B H 0.4647 1.5540 -0.3855
C41B C 0.5520(3) 1.6167(3) -0.2271(8)
C42B C 0.5619(3) 1.6429(3) -0.1117(8)
H40B H 0.5370 1.6507 -0.0499
C43B C 0.6069(3) 1.6580(3) -0.0836(8)
H41B H 0.6127 1.6760 -0.0027
C44B C 0.6437(3) 1.6475(3) -0.1710(11)
H42B H 0.6749 1.6577 -0.1485
C45B C 0.6363(3) 1.6224(3) -0.2905(10)
H43B H 0.6615 1.6172 -0.3536
C46B C 0.5900(3) 1.6044(3) -0.3182(8)
H44B H 0.5845 1.5845 -0.3957
C47B C 0.4676(3) 1.6406(3) -0.2573(7)
C48B C 0.4344(3) 1.6494(3) -0.1545(8)
H45B H 0.4324 1.6293 -0.0760
C49B C 0.4045(3) 1.6875(3) -0.1681(9)
H46B H 0.3834 1.6946 -0.0945
C50B C 0.4036(3) 1.7147(3) -0.2780(9)
H47B H 0.3810 1.7395 -0.2855
C51B C 0.4363(3) 1.7068(3) -0.3838(9)
H48B H 0.4363 1.7260 -0.4640
C52B C 0.4678(3) 1.6713(3) -0.3696(8)
H49B H 0.4911 1.6670 -0.4391
N3C N 0.4717(2) 1.3501(2) 0.2638(7)
C53C C 0.4276(3) 1.3537(3) 0.3154(9)
H50C H 0.4113 1.3832 0.3109
C54C C 0.4057(4) 1.3150(4) 0.3747(13)
H51C H 0.3757 1.3180 0.4179
C55C C 0.4286(4) 1.2721(4) 0.3696(11)
H52C H 0.4131 1.2449 0.4055
C56C C 0.4718(3) 1.2673(3) 0.3158(10)
H53C H 0.4884 1.2380 0.3181
C57C C 0.4910(3) 1.3073(3) 0.2566(8)
H54C H 0.5200 1.3041 0.2075
C39A C 0.4020(2) 1.5016(3) 0.2440(6)
C40A C 0.4317(3) 1.4963(3) 0.3819(7)
H37A H 0.4567 1.5204 0.3840
H38A H 0.4107 1.5006 0.4614
H39A H 0.4460 1.4647 0.3855
C41A C 0.3833(3) 1.5520(3) 0.2271(8)
C42A C 0.3571(3) 1.5619(3) 0.1117(8)
H40A H 0.3493 1.5370 0.0499
C43A C 0.3420(3) 1.6069(3) 0.0836(8)
H41A H 0.3240 1.6127 0.0027
C44A C 0.3525(3) 1.6437(3) 0.1710(11)
H42A H 0.3423 1.6749 0.1485
C45A C 0.3776(3) 1.6363(3) 0.2905(10)
H43A H 0.3828 1.6615 0.3536
C46A C 0.3956(3) 1.5900(3) 0.3182(8)
H44A H 0.4155 1.5845 0.3957
C47A C 0.3594(3) 1.4676(3) 0.2573(7)
C48A C 0.3506(3) 1.4344(3) 0.1545(8)
H45A H 0.3707 1.4324 0.0760
C49A C 0.3125(3) 1.4045(3) 0.1681(9)
H46A H 0.3054 1.3834 0.0945
C50A C 0.2853(3) 1.4036(3) 0.2780(9)
H47A H 0.2605 1.3810 0.2855
C51A C 0.2932(3) 1.4363(3) 0.3838(9)
H48A H 0.2740 1.4363 0.4640
C52A C 0.3287(3) 1.4678(3) 0.3696(8)
H49A H 0.3330 1.4911 0.4391
C39C C 0.5980(2) 1.4984(3) 0.2440(6)
C40C C 0.5683(3) 1.5037(3) 0.3819(7)
H37C H 0.5433 1.4796 0.3840
H38C H 0.5893 1.4994 0.4614
H39C H 0.5540 1.5353 0.3855
C41C C 0.6167(3) 1.4480(3) 0.2271(8)
C42C C 0.6429(3) 1.4381(3) 0.1117(8)
H40C H 0.6507 1.4630 0.0499
C43C C 0.6580(3) 1.3931(3) 0.0836(8)
H41C H 0.6760 1.3873 0.0027
C44C C 0.6475(3) 1.3563(3) 0.1710(11)
H42C H 0.6577 1.3251 0.1485
C45C C 0.6224(3) 1.3637(3) 0.2905(10)
H43C H 0.6172 1.3385 0.3536
C46C C 0.6044(3) 1.4100(3) 0.3182(8)
H44C H 0.5845 1.4155 0.3957
C47C C 0.6406(3) 1.5324(3) 0.2573(7)
C48C C 0.6494(3) 1.5656(3) 0.1545(8)
H45C H 0.6293 1.5676 0.0760
C49C C 0.6875(3) 1.5955(3) 0.1681(9)
H46C H 0.6946 1.6166 0.0945
C50C C 0.7147(3) 1.5964(3) 0.2780(9)
H47C H 0.7395 1.6190 0.2855
C51C C 0.7068(3) 1.5637(3) 0.3838(9)
H48C H 0.7260 1.5637 0.4640
C52C C 0.6713(3) 1.5322(3) 0.3696(8)
H49C H 0.6670 1.5089 0.4391
N3A N 0.5283(2) 1.6499(2) 0.2638(7)
C53A C 0.5724(3) 1.6463(3) 0.3154(9)
H50A H 0.5887 1.6168 0.3109
C54A C 0.5943(4) 1.6850(4) 0.3747(13)
H51A H 0.6243 1.6820 0.4179
C55A C 0.5714(4) 1.7279(4) 0.3696(11)
H52A H 0.5869 1.7551 0.4055
C56A C 0.5282(3) 1.7327(3) 0.3158(10)
H53A H 0.5116 1.7620 0.3181
C57A C 0.5090(3) 1.6927(3) 0.2566(8)
H54A H 0.4800 1.6959 0.2075
N3B N 0.6499(2) 1.4717(2) -0.2638(7)
C53B C 0.6463(3) 1.4276(3) -0.3154(9)
H50B H 0.6168 1.4113 -0.3109
C54B C 0.6850(4) 1.4057(4) -0.3747(13)
H51B H 0.6820 1.3757 -0.4179
C55B C 0.7279(4) 1.4286(4) -0.3696(11)
H52B H 0.7551 1.4131 -0.4055
C56B C 0.7327(3) 1.4718(3) -0.3158(10)
H53B H 0.7620 1.4884 -0.3181
C57B C 0.6927(3) 1.4910(3) -0.2566(8)
H54B H 0.6959 1.5200 -0.2075
K4 K 1.06671(6) 1.00090(7) 0.87092(18)
O4 O 0.99573(19) 1.06865(16) 0.8652(4)
C58 C 1.0088(3) 1.0967(2) 0.7560(7)
C59 C 1.0006(3) 1.0705(2) 0.6202(7)
H55 H 0.9677 1.0594 0.6160
H56 H 1.0220 1.0432 0.6146
H57 H 1.0067 1.0920 0.5429
C60 C 0.9797(3) 1.1442(3) 0.7447(8)
C61 C 0.9476(3) 1.1550(3) 0.8452(9)
H58 H 0.9443 1.1351 0.9236
C62 C 0.9199(3) 1.1952(3) 0.8321(10)
H59 H 0.8979 1.2025 0.9033
C63 C 0.9227(4) 1.2245(3) 0.7217(11)
H60 H 0.9032 1.2519 0.7135
C64 C 0.9560(3) 1.2123(3) 0.6201(11)
H61 H 0.9585 1.2313 0.5397
C65 C 0.9850(3) 1.1733(3) 0.6344(9)
H62 H 1.0087 1.1669 0.5673
C66 C 1.0619(3) 1.1110(3) 0.7723(8)
C67 C 1.0742(3) 1.1356(3) 0.8881(8)
H63 H 1.0502 1.1444 0.9517
C68 C 1.1203(3) 1.1478(3) 0.9152(9)
H64 H 1.1274 1.1664 0.9943
C69 C 1.1555(3) 1.1339(3) 0.8311(9)
H65 H 1.1874 1.1409 0.8544
C70 C 1.1458(3) 1.1100(3) 0.7133(9)
H66 H 1.1704 1.1018 0.6511
C71 C 1.0977(3) 1.0974(3) 0.6843(9)
H67 H 1.0904 1.0796 0.6039
N4 N 1.1497(2) 0.9611(3) 0.7393(8)
C72 C 1.1944(3) 0.9774(3) 0.7328(8)
H68 H 1.2004 1.0092 0.7592
C73 C 1.2309(3) 0.9505(3) 0.6903(10)
H69 H 1.2626 0.9616 0.6972
C74 C 1.2215(3) 0.9070(3) 0.6372(10)
H70 H 1.2464 0.8883 0.5997
C75 C 1.1760(3) 0.8902(4) 0.6383(11)
H71 H 1.1685 0.8601 0.6004
C76 C 1.1416(3) 0.9181(3) 0.6954(9)
H72 H 1.1104 0.9056 0.7035
K4C K 0.99910(7) 1.06671(6) 1.12908(18)
O4C O 0.93135(16) 0.99573(19) 1.1348(4)
K4B K 0.93329(6) 0.99910(7) 0.87092(18)
O4B O 1.00427(19) 0.93135(16) 0.8652(4)
K4A K 1.00090(7) 0.93329(6) 1.12908(18)
O4A O 1.06865(16) 1.00427(19) 1.1348(4)
C58B C 0.9912(3) 0.9033(2) 0.7560(7)
C59B C 0.9994(3) 0.9295(2) 0.6202(7)
H55B H 1.0323 0.9406 0.6160
H56B H 0.9780 0.9568 0.6146
H57B H 0.9933 0.9080 0.5429
C60B C 1.0203(3) 0.8558(3) 0.7447(8)
C61B C 1.0524(3) 0.8450(3) 0.8452(9)
H58B H 1.0557 0.8649 0.9236
C62B C 1.0801(3) 0.8048(3) 0.8321(10)
H59B H 1.1021 0.7975 0.9033
C63B C 1.0773(4) 0.7755(3) 0.7217(11)
H60B H 1.0968 0.7481 0.7135
C64B C 1.0440(3) 0.7877(3) 0.6201(11)
H61B H 1.0415 0.7687 0.5397
C65B C 1.0150(3) 0.8267(3) 0.6344(9)
H62B H 0.9913 0.8331 0.5673
C66B C 0.9381(3) 0.8890(3) 0.7723(8)
C67B C 0.9258(3) 0.8644(3) 0.8881(8)
H63B H 0.9498 0.8556 0.9517
C68B C 0.8797(3) 0.8522(3) 0.9152(9)
H64B H 0.8726 0.8336 0.9943
C69B C 0.8445(3) 0.8661(3) 0.8311(9)
H65B H 0.8126 0.8591 0.8544
C70B C 0.8542(3) 0.8900(3) 0.7133(9)
H66B H 0.8296 0.8982 0.6511
C71B C 0.9023(3) 0.9026(3) 0.6843(9)
H67B H 0.9096 0.9204 0.6039
N4C N 1.0389(3) 1.1497(2) 1.2607(8)
C72C C 1.0226(3) 1.1944(3) 1.2672(8)
H68C H 0.9908 1.2004 1.2408
C73C C 1.0495(3) 1.2309(3) 1.3097(10)
H69C H 1.0384 1.2626 1.3028
C74C C 1.0930(3) 1.2215(3) 1.3628(10)
H70C H 1.1117 1.2464 1.4003
C75C C 1.1098(4) 1.1760(3) 1.3617(11)
H71C H 1.1399 1.1685 1.3996
C76C C 1.0819(3) 1.1416(3) 1.3046(9)
H72C H 1.0944 1.1104 1.2965
C58A C 1.0967(2) 0.9912(3) 1.2440(7)
C59A C 1.0705(2) 0.9994(3) 1.3798(7)
H55A H 1.0594 1.0323 1.3840
H56A H 1.0432 0.9780 1.3854
H57A H 1.0920 0.9933 1.4571
C60A C 1.1442(3) 1.0203(3) 1.2553(8)
C61A C 1.1550(3) 1.0524(3) 1.1548(9)
H58A H 1.1351 1.0557 1.0764
C62A C 1.1952(3) 1.0801(3) 1.1679(10)
H59A H 1.2025 1.1021 1.0967
C63A C 1.2245(3) 1.0773(4) 1.2783(11)
H60A H 1.2519 1.0968 1.2865
C64A C 1.2123(3) 1.0440(3) 1.3799(11)
H61A H 1.2313 1.0415 1.4603
C65A C 1.1733(3) 1.0150(3) 1.3656(9)
H62A H 1.1669 0.9913 1.4327
C66A C 1.1110(3) 0.9381(3) 1.2277(8)
C67A C 1.1356(3) 0.9258(3) 1.1119(8)
H63A H 1.1444 0.9498 1.0483
C68A C 1.1478(3) 0.8797(3) 1.0848(9)
H64A H 1.1664 0.8726 1.0057
C69A C 1.1339(3) 0.8445(3) 1.1689(9)
H65A H 1.1409 0.8126 1.1456
C70A C 1.1100(3) 0.8542(3) 1.2867(9)
H66A H 1.1018 0.8296 1.3489
C71A C 1.0974(3) 0.9023(3) 1.3157(9)
H67A H 1.0796 0.9096 1.3961
C58C C 0.9033(2) 1.0088(3) 1.2440(7)
C59C C 0.9295(2) 1.0006(3) 1.3798(7)
H55C H 0.9406 0.9677 1.3840
H56C H 0.9568 1.0220 1.3854
H57C H 0.9080 1.0067 1.4571
C60C C 0.8558(3) 0.9797(3) 1.2553(8)
C61C C 0.8450(3) 0.9476(3) 1.1548(9)
H58C H 0.8649 0.9443 1.0764
C62C C 0.8048(3) 0.9199(3) 1.1679(10)
H59C H 0.7975 0.8979 1.0967
C63C C 0.7755(3) 0.9227(4) 1.2783(11)
H60C H 0.7481 0.9032 1.2865
C64C C 0.7877(3) 0.9560(3) 1.3799(11)
H61C H 0.7687 0.9585 1.4603
C65C C 0.8267(3) 0.9850(3) 1.3656(9)
H62C H 0.8331 1.0087 1.4327
C66C C 0.8890(3) 1.0619(3) 1.2277(8)
C67C C 0.8644(3) 1.0742(3) 1.1119(8)
H63C H 0.8556 1.0502 1.0483
C68C C 0.8522(3) 1.1203(3) 1.0848(9)
H64C H 0.8336 1.1274 1.0057
C69C C 0.8661(3) 1.1555(3) 1.1689(9)
H65C H 0.8591 1.1874 1.1456
C70C C 0.8900(3) 1.1458(3) 1.2867(9)
H66C H 0.8982 1.1704 1.3489
C71C C 0.9026(3) 1.0977(3) 1.3157(9)
H67C H 0.9204 1.0904 1.3961
N4A N 0.9611(3) 0.8503(2) 1.2607(8)
C72A C 0.9774(3) 0.8056(3) 1.2672(8)
H68A H 1.0092 0.7996 1.2408
C73A C 0.9505(3) 0.7691(3) 1.3097(10)
H69A H 0.9616 0.7374 1.3028
C74A C 0.9070(3) 0.7785(3) 1.3628(10)
H70A H 0.8883 0.7536 1.4003
C75A C 0.8902(4) 0.8240(3) 1.3617(11)
H71A H 0.8601 0.8315 1.3996
C76A C 0.9181(3) 0.8584(3) 1.3046(9)
H72A H 0.9056 0.8896 1.2965
N4B N 0.8503(2) 1.0389(3) 0.7393(8)
C72B C 0.8056(3) 1.0226(3) 0.7328(8)
H68B H 0.7996 0.9908 0.7592
C73B C 0.7691(3) 1.0495(3) 0.6903(10)
H69B H 0.7374 1.0384 0.6972
C74B C 0.7785(3) 1.0930(3) 0.6372(10)
H70B H 0.7536 1.1117 0.5997
C75B C 0.8240(3) 1.1098(4) 0.6383(11)
H71B H 0.8315 1.1399 0.6004
C76B C 0.8584(3) 1.0819(3) 0.6954(9)
H72B H 0.8896 1.0944 0.7035
N5 N 0.2907(4) 1.2412(5) 0.0223(15)
C77 C 0.2716(5) 1.2847(5) 0.0187(16)
H73 H 0.2889 1.3091 -0.0262
C78 C 0.2297(4) 1.2958(4) 0.0748(13)
H74 H 0.2187 1.3275 0.0781
C79 C 0.2043(4) 1.2606(4) 0.1251(13)
H75 H 0.1755 1.2672 0.1719
C80 C 0.2189(4) 1.2157(4) 0.1108(13)
H76 H 0.2021 1.1904 0.1529
C81 C 0.2584(5) 1.2075(5) 0.0343(14)
H77 H 0.2627 1.1778 -0.0101
N7 N 0.2755(9) 1.2864(6) -0.486(2)
C87 C 0.2517(10) 1.2875(8) -0.365(2)
H83 H 0.2548 1.3131 -0.3019
C88 C 0.2228(12) 1.2497(10) -0.339(3)
H84 H 0.2053 1.2470 -0.2553
C89 C 0.2207(10) 1.2162(11) -0.439(3)
H85 H 0.1934 1.1965 -0.4414
C90 C 0.2552(7) 1.2085(6) -0.538(2)
H86 H 0.2595 1.1795 -0.5856
C91 C 0.2824(6) 1.2479(6) -0.557(2)
H87 H 0.3069 1.2472 -0.6243
N6? N 0.2027(5) 1.2323(5) -0.3795(17)
C82? C 0.2295(6) 1.2005(6) -0.4450(19)
H78? H 0.2173 1.1696 -0.4609
C83? C 0.2737(7) 1.2115(7) -0.489(3)
H79? H 0.2914 1.1916 -0.5494
C84? C 0.2905(6) 1.2534(7) -0.440(2)
H80? H 0.3229 1.2575 -0.4173
C85? C 0.2580(8) 1.2899(7) -0.426(4)
H81? H 0.2638 1.3214 -0.4560
C86? C 0.2162(6) 1.2760(6) -0.3621(19)
H82? H 0.1982 1.2975 -0.3080
loop_
_geom_bond_atom_site_label_1
_geom_bond_atom_site_label_2
_geom_bond_site_symmetry_1
_geom_bond_site_symmetry_2
K1 O1 1_555 1_555
O1 C1 1_555 1_555
C1 C2 1_555 1_555
C2 H1 1_555 1_555
H2 C2 1_555 1_555
H3 C2 1_555 1_555
C3 C1 1_555 1_555
C4 C3 1_555 1_555
H4 C4 1_555 1_555
C5 C4 1_555 1_555
H5 C5 1_555 1_555
C6 C5 1_555 1_555
H6 C6 1_555 1_555
C7 C6 1_555 1_555
H7 C7 1_555 1_555
C8 C3 1_555 1_555
H8 C8 1_555 1_555
C9 C1 1_555 1_555
C10 C9 1_555 1_555
H9 C10 1_555 1_555
C11 C10 1_555 1_555
H10 C11 1_555 1_555
C12 C11 1_555 1_555
H11 C12 1_555 1_555
C13 C12 1_555 1_555
H12 C13 1_555 1_555
C14 C9 1_555 1_555
H13 C14 1_555 1_555
N1 K1 1_555 1_555
C15 N1 1_555 1_555
H14 C15 1_555 1_555
C16 C15 1_555 1_555
H15 C16 1_555 1_555
C17 C16 1_555 1_555
H16 C17 1_555 1_555
C18 C17 1_555 1_555
H17 C18 1_555 1_555
C19 N1 1_555 1_555
H18 C19 1_555 1_555
K2 O1 1_555 1_555
O2 K1 1_555 1_555
C20 O2 1_555 1_555
C21 C20 1_555 1_555
H19 C21 1_555 1_555
H20 C21 1_555 1_555
H21 C21 1_555 1_555
C22 C20 1_555 1_555
C23 C22 1_555 1_555
H22 C23 1_555 1_555
C24 C23 1_555 1_555
H23 C24 1_555 1_555
C25 C24 1_555 1_555
H24 C25 1_555 1_555
C26 C25 1_555 1_555
H25 C26 1_555 1_555
C27 C22 1_555 1_555
H26 C27 1_555 1_555
C28 C20 1_555 1_555
C29 C28 1_555 1_555
H27 C29 1_555 1_555
C30 C29 1_555 1_555
H28 C30 1_555 1_555
C31 C30 1_555 1_555
H29 C31 1_555 1_555
C32 C31 1_555 1_555
H30 C32 1_555 1_555
C33 C28 1_555 1_555
H31 C33 1_555 1_555
N2 K2 1_555 1_555
C34 N2 1_555 1_555
H32 C34 1_555 1_555
C35 C34 1_555 1_555
H33 C35 1_555 1_555
C36 C35 1_555 1_555
H34 C36 1_555 1_555
C37 C36 1_555 1_555
H35 C37 1_555 1_555
C38 N2 1_555 1_555
H36 C38 1_555 1_555
K3 O3 1_555 1_555
O3 C39 1_555 1_555
C39 C40 1_555 1_555
C40 H37 1_555 1_555
H38 C40 1_555 1_555
H39 C40 1_555 1_555
C41 C39 1_555 1_555
C42 C41 1_555 1_555
H40 C42 1_555 1_555
C43 C42 1_555 1_555
H41 C43 1_555 1_555
C44 C43 1_555 1_555
H42 C44 1_555 1_555
C45 C44 1_555 1_555
H43 C45 1_555 1_555
C46 C41 1_555 1_555
H44 C46 1_555 1_555
C47 C39 1_555 1_555
C48 C47 1_555 1_555
H45 C48 1_555 1_555
C49 C48 1_555 1_555
H46 C49 1_555 1_555
C50 C49 1_555 1_555
H47 C50 1_555 1_555
C51 C50 1_555 1_555
H48 C51 1_555 1_555
C52 C47 1_555 1_555
H49 C52 1_555 1_555
N3 K3 1_555 1_555
C53 N3 1_555 1_555
H50 C53 1_555 1_555
C54 C53 1_555 1_555
H51 C54 1_555 1_555
C55 C54 1_555 1_555
H52 C55 1_555 1_555
C56 C55 1_555 1_555
H53 C56 1_555 1_555
C57 N3 1_555 1_555
H54 C57 1_555 1_555
K4 O4 1_555 1_555
O4 C58 1_555 1_555
C58 C59 1_555 1_555
C59 H55 1_555 1_555
H56 C59 1_555 1_555
H57 C59 1_555 1_555
C60 C58 1_555 1_555
C61 C60 1_555 1_555
H58 C61 1_555 1_555
C62 C61 1_555 1_555
H59 C62 1_555 1_555
C63 C62 1_555 1_555
H60 C63 1_555 1_555
C64 C63 1_555 1_555
H61 C64 1_555 1_555
C65 C60 1_555 1_555
H62 C65 1_555 1_555
C66 C58 1_555 1_555
C67 C66 1_555 1_555
H63 C67 1_555 1_555
C68 C67 1_555 1_555
H64 C68 1_555 1_555
C69 C68 1_555 1_555
H65 C69 1_555 1_555
C70 C69 1_555 1_555
H66 C70 1_555 1_555
C71 C66 1_555 1_555
H67 C71 1_555 1_555
N4 K4 1_555 1_555
C72 N4 1_555 1_555
H68 C72 1_555 1_555
C73 C72 1_555 1_555
H69 C73 1_555 1_555
C74 C73 1_555 1_555
H70 C74 1_555 1_555
C75 C74 1_555 1_555
H71 C75 1_555 1_555
C76 N4 1_555 1_555
H72 C76 1_555 1_555
N5 C77 1_555 1_555
C77 H73 1_555 1_555
C78 C77 1_555 1_555
H74 C78 1_555 1_555
C79 C78 1_555 1_555
H75 C79 1_555 1_555
C80 C79 1_555 1_555
H76 C80 1_555 1_555
C81 N5 1_555 1_555
H77 C81 1_555 1_555
N7 C87 1_555 1_555
C87 H83 1_555 1_555
C88 C87 1_555 1_555
H84 C88 1_555 1_555
C89 C88 1_555 1_555
H85 C89 1_555 1_555
C90 C89 1_555 1_555
H86 C90 1_555 1_555
C91 N7 1_555 1_555
H87 C91 1_555 1_555
K1B O1 1_555 1_555
O1B K1 1_555 1_555
O2B K2 1_555 1_555
N1B K1B 1_555 1_555
C15B N1B 1_555 1_555
H14B C15B 1_555 1_555
C16B C15B 1_555 1_555
H15B C16B 1_555 1_555
C17B C16B 1_555 1_555
H16B C17B 1_555 1_555
C18B C17B 1_555 1_555
H17B C18B 1_555 1_555
C19B N1B 1_555 1_555
H18B C19B 1_555 1_555
K2B O2 1_555 1_555
C1B O1B 1_555 1_555
C2B C1B 1_555 1_555
H1B C2B 1_555 1_555
H2B C2B 1_555 1_555
H3B C2B 1_555 1_555
C3B C1B 1_555 1_555
C4B C3B 1_555 1_555
H4B C4B 1_555 1_555
C5B C4B 1_555 1_555
H5B C5B 1_555 1_555
C6B C5B 1_555 1_555
H6B C6B 1_555 1_555
C7B C6B 1_555 1_555
H7B C7B 1_555 1_555
C8B C3B 1_555 1_555
H8B C8B 1_555 1_555
C9B C1B 1_555 1_555
C10B C9B 1_555 1_555
H9B C10B 1_555 1_555
C11B C10B 1_555 1_555
H10B C11B 1_555 1_555
C12B C11B 1_555 1_555
H11B C12B 1_555 1_555
C13B C12B 1_555 1_555
H12B C13B 1_555 1_555
C14B C9B 1_555 1_555
H13B C14B 1_555 1_555
N2B K2B 1_555 1_555
C34B N2B 1_555 1_555
H32B C34B 1_555 1_555
C35B C34B 1_555 1_555
H33B C35B 1_555 1_555
C36B C35B 1_555 1_555
H34B C36B 1_555 1_555
C37B C36B 1_555 1_555
H35B C37B 1_555 1_555
C38B N2B 1_555 1_555
H36B C38B 1_555 1_555
C20B O2B 1_555 1_555
C21B C20B 1_555 1_555
H19B C21B 1_555 1_555
H20B C21B 1_555 1_555
H21B C21B 1_555 1_555
C22B C20B 1_555 1_555
C23B C22B 1_555 1_555
H22B C23B 1_555 1_555
C24B C23B 1_555 1_555
H23B C24B 1_555 1_555
C25B C24B 1_555 1_555
H24B C25B 1_555 1_555
C26B C25B 1_555 1_555
H25B C26B 1_555 1_555
C27B C22B 1_555 1_555
H26B C27B 1_555 1_555
C28B C20B 1_555 1_555
C29B C28B 1_555 1_555
H27B C29B 1_555 1_555
C30B C29B 1_555 1_555
H28B C30B 1_555 1_555
C31B C30B 1_555 1_555
H29B C31B 1_555 1_555
C32B C31B 1_555 1_555
H30B C32B 1_555 1_555
C33B C28B 1_555 1_555
H31B C33B 1_555 1_555
K3C O3 1_555 1_555
O3C K3C 1_555 1_555
K3B O3 1_555 1_555
O3B K3 1_555 1_555
K3A O3C 1_555 1_555
O3A K3 1_555 1_555
C39B O3B 1_555 1_555
C40B C39B 1_555 1_555
H37B C40B 1_555 1_555
H38B C40B 1_555 1_555
H39B C40B 1_555 1_555
C41B C39B 1_555 1_555
C42B C41B 1_555 1_555
H40B C42B 1_555 1_555
C43B C42B 1_555 1_555
H41B C43B 1_555 1_555
C44B C43B 1_555 1_555
H42B C44B 1_555 1_555
C45B C44B 1_555 1_555
H43B C45B 1_555 1_555
C46B C41B 1_555 1_555
H44B C46B 1_555 1_555
C47B C39B 1_555 1_555
C48B C47B 1_555 1_555
H45B C48B 1_555 1_555
C49B C48B 1_555 1_555
H46B C49B 1_555 1_555
C50B C49B 1_555 1_555
H47B C50B 1_555 1_555
C51B C50B 1_555 1_555
H48B C51B 1_555 1_555
C52B C47B 1_555 1_555
H49B C52B 1_555 1_555
N3C K3C 1_555 1_555
C53C N3C 1_555 1_555
H50C C53C 1_555 1_555
C54C C53C 1_555 1_555
H51C C54C 1_555 1_555
C55C C54C 1_555 1_555
H52C C55C 1_555 1_555
C56C C55C 1_555 1_555
H53C C56C 1_555 1_555
C57C N3C 1_555 1_555
H54C C57C 1_555 1_555
C39A O3A 1_555 1_555
C40A C39A 1_555 1_555
H37A C40A 1_555 1_555
H38A C40A 1_555 1_555
H39A C40A 1_555 1_555
C41A C39A 1_555 1_555
C42A C41A 1_555 1_555
H40A C42A 1_555 1_555
C43A C42A 1_555 1_555
H41A C43A 1_555 1_555
C44A C43A 1_555 1_555
H42A C44A 1_555 1_555
C45A C44A 1_555 1_555
H43A C45A 1_555 1_555
C46A C41A 1_555 1_555
H44A C46A 1_555 1_555
C47A C39A 1_555 1_555
C48A C47A 1_555 1_555
H45A C48A 1_555 1_555
C49A C48A 1_555 1_555
H46A C49A 1_555 1_555
C50A C49A 1_555 1_555
H47A C50A 1_555 1_555
C51A C50A 1_555 1_555
H48A C51A 1_555 1_555
C52A C47A 1_555 1_555
H49A C52A 1_555 1_555
C39C O3C 1_555 1_555
C40C C39C 1_555 1_555
H37C C40C 1_555 1_555
H38C C40C 1_555 1_555
H39C C40C 1_555 1_555
C41C C39C 1_555 1_555
C42C C41C 1_555 1_555
H40C C42C 1_555 1_555
C43C C42C 1_555 1_555
H41C C43C 1_555 1_555
C44C C43C 1_555 1_555
H42C C44C 1_555 1_555
C45C C44C 1_555 1_555
H43C C45C 1_555 1_555
C46C C41C 1_555 1_555
H44C C46C 1_555 1_555
C47C C39C 1_555 1_555
C48C C47C 1_555 1_555
H45C C48C 1_555 1_555
C49C C48C 1_555 1_555
H46C C49C 1_555 1_555
C50C C49C 1_555 1_555
H47C C50C 1_555 1_555
C51C C50C 1_555 1_555
H48C C51C 1_555 1_555
C52C C47C 1_555 1_555
H49C C52C 1_555 1_555
N3A K3A 1_555 1_555
C53A N3A 1_555 1_555
H50A C53A 1_555 1_555
C54A C53A 1_555 1_555
H51A C54A 1_555 1_555
C55A C54A 1_555 1_555
H52A C55A 1_555 1_555
C56A C55A 1_555 1_555
H53A C56A 1_555 1_555
C57A N3A 1_555 1_555
H54A C57A 1_555 1_555
N3B K3B 1_555 1_555
C53B N3B 1_555 1_555
H50B C53B 1_555 1_555
C54B C53B 1_555 1_555
H51B C54B 1_555 1_555
C55B C54B 1_555 1_555
H52B C55B 1_555 1_555
C56B C55B 1_555 1_555
H53B C56B 1_555 1_555
C57B N3B 1_555 1_555
H54B C57B 1_555 1_555
K4C O4 1_555 1_555
O4C K4C 1_555 1_555
K4B O4 1_555 1_555
O4B K4 1_555 1_555
K4A O4C 1_555 1_555
O4A K4 1_555 1_555
C58B O4B 1_555 1_555
C59B C58B 1_555 1_555
H55B C59B 1_555 1_555
H56B C59B 1_555 1_555
H57B C59B 1_555 1_555
C60B C58B 1_555 1_555
C61B C60B 1_555 1_555
H58B C61B 1_555 1_555
C62B C61B 1_555 1_555
H59B C62B 1_555 1_555
C63B C62B 1_555 1_555
H60B C63B 1_555 1_555
C64B C63B 1_555 1_555
H61B C64B 1_555 1_555
C65B C60B 1_555 1_555
H62B C65B 1_555 1_555
C66B C58B 1_555 1_555
C67B C66B 1_555 1_555
H63B C67B 1_555 1_555
C68B C67B 1_555 1_555
H64B C68B 1_555 1_555
C69B C68B 1_555 1_555
H65B C69B 1_555 1_555
C70B C69B 1_555 1_555
H66B C70B 1_555 1_555
C71B C66B 1_555 1_555
H67B C71B 1_555 1_555
N4C K4C 1_555 1_555
C72C N4C 1_555 1_555
H68C C72C 1_555 1_555
C73C C72C 1_555 1_555
H69C C73C 1_555 1_555
C74C C73C 1_555 1_555
H70C C74C 1_555 1_555
C75C C74C 1_555 1_555
H71C C75C 1_555 1_555
C76C N4C 1_555 1_555
H72C C76C 1_555 1_555
C58A O4A 1_555 1_555
C59A C58A 1_555 1_555
H55A C59A 1_555 1_555
H56A C59A 1_555 1_555
H57A C59A 1_555 1_555
C60A C58A 1_555 1_555
C61A C60A 1_555 1_555
H58A C61A 1_555 1_555
C62A C61A 1_555 1_555
H59A C62A 1_555 1_555
C63A C62A 1_555 1_555
H60A C63A 1_555 1_555
C64A C63A 1_555 1_555
H61A C64A 1_555 1_555
C65A C60A 1_555 1_555
H62A C65A 1_555 1_555
C66A C58A 1_555 1_555
C67A C66A 1_555 1_555
H63A C67A 1_555 1_555
C68A C67A 1_555 1_555
H64A C68A 1_555 1_555
C69A C68A 1_555 1_555
H65A C69A 1_555 1_555
C70A C69A 1_555 1_555
H66A C70A 1_555 1_555
C71A C66A 1_555 1_555
H67A C71A 1_555 1_555
C58C O4C 1_555 1_555
C59C C58C 1_555 1_555
H55C C59C 1_555 1_555
H56C C59C 1_555 1_555
H57C C59C 1_555 1_555
C60C C58C 1_555 1_555
C61C C60C 1_555 1_555
H58C C61C 1_555 1_555
C62C C61C 1_555 1_555
H59C C62C 1_555 1_555
C63C C62C 1_555 1_555
H60C C63C 1_555 1_555
C64C C63C 1_555 1_555
H61C C64C 1_555 1_555
C65C C60C 1_555 1_555
H62C C65C 1_555 1_555
C66C C58C 1_555 1_555
C67C C66C 1_555 1_555
H63C C67C 1_555 1_555
C68C C67C 1_555 1_555
H64C C68C 1_555 1_555
C69C C68C 1_555 1_555
H65C C69C 1_555 1_555
C70C C69C 1_555 1_555
H66C C70C 1_555 1_555
C71C C66C 1_555 1_555
H67C C71C 1_555 1_555
N4A K4A 1_555 1_555
C72A N4A 1_555 1_555
H68A C72A 1_555 1_555
C73A C72A 1_555 1_555
H69A C73A 1_555 1_555
C74A C73A 1_555 1_555
H70A C74A 1_555 1_555
C75A C74A 1_555 1_555
H71A C75A 1_555 1_555
C76A N4A 1_555 1_555
H72A C76A 1_555 1_555
N4B K4B 1_555 1_555
C72B N4B 1_555 1_555
H68B C72B 1_555 1_555
C73B C72B 1_555 1_555
H69B C73B 1_555 1_555
C74B C73B 1_555 1_555
H70B C74B 1_555 1_555
C75B C74B 1_555 1_555
H71B C75B 1_555 1_555
C76B N4B 1_555 1_555
H72B C76B 1_555 1_555
C7 C8 1_555 1_555
C13 C14 1_555 1_555
C18 C19 1_555 1_555
K2 O2 1_555 1_555
C26 C27 1_555 1_555
C32 C33 1_555 1_555
C37 C38 1_555 1_555
C45 C46 1_555 1_555
C51 C52 1_555 1_555
C56 C57 1_555 1_555
C64 C65 1_555 1_555
C70 C71 1_555 1_555
C75 C76 1_555 1_555
C80 C81 1_555 1_555
C90 C91 1_555 1_555
K1B O1B 1_555 1_555
K1B O2B 1_555 1_555
O1B K2B 1_555 1_555
O2B K2B 1_555 1_555
C18B C19B 1_555 1_555
C7B C8B 1_555 1_555
C13B C14B 1_555 1_555
C37B C38B 1_555 1_555
C26B C27B 1_555 1_555
C32B C33B 1_555 1_555
K3C O3A 1_555 1_555
O3C K3B 1_555 1_555
K3B O3B 1_555 1_555
O3B K3A 1_555 1_555
K3A O3A 1_555 1_555
C45B C46B 1_555 1_555
C51B C52B 1_555 1_555
C56C C57C 1_555 1_555
C45A C46A 1_555 1_555
C51A C52A 1_555 1_555
C45C C46C 1_555 1_555
C51C C52C 1_555 1_555
C56A C57A 1_555 1_555
C56B C57B 1_555 1_555
K4C O4A 1_555 1_555
O4C K4B 1_555 1_555
K4B O4B 1_555 1_555
O4B K4A 1_555 1_555
K4A O4A 1_555 1_555
C64B C65B 1_555 1_555
C70B C71B 1_555 1_555
C75C C76C 1_555 1_555
C64A C65A 1_555 1_555
C70A C71A 1_555 1_555
C64C C65C 1_555 1_555
C70C C71C 1_555 1_555
C75A C76A 1_555 1_555
C75B C76B 1_555 1_555

#END
