
#######################################################################
#
#                 Cambridge Crystallographic Data Centre
#                                CCDC 
#
#######################################################################
#
# If this CIF has been generated from an entry in the Cambridge 
# Structural Database, then it will include bibliographic, chemical, 
# crystal, experimental, refinement or atomic coordinate data resulting 
# from the CCDC's data processing and validation procedures.
#
#######################################################################

data_UKUHUF
_chemical_formula_moiety         'C19 H32 O2 Si1'
_chemical_name_systematic        
(((1R,3R,5R,7R)-2-(t-Butylperoxy)adamantan-2-yl)ethynyl)trimethylsilane
_symmetry_cell_setting           monoclinic
_symmetry_space_group_name_H-M   'C 2/c'
_symmetry_Int_Tables_number      15
_space_group_name_Hall           '-C 2yn'
loop_
_symmetry_equiv_pos_site_id
_symmetry_equiv_pos_as_xyz
1 x,y,z
2 -x,y,1/2-z
3 1/2+x,1/2+y,z
4 1/2-x,1/2+y,1/2-z
5 -x,-y,-z
6 x,-y,1/2+z
7 1/2-x,1/2-y,-z
8 1/2+x,1/2-y,1/2+z
_cell_length_a                   11.538(5)
_cell_length_b                   17.332(8)
_cell_length_c                   20.285(9)
_cell_angle_alpha                90
_cell_angle_beta                 99.280(14)
_cell_angle_gamma                90
_cell_volume                     4003.43
_exptl_crystal_colour            colorless
_exptl_crystal_description       needle
_cell_formula_units_Z            8
loop_
_atom_site_label
_atom_site_type_symbol
_atom_site_fract_x
_atom_site_fract_y
_atom_site_fract_z
Si1 Si 0.85015(6) 0.27498(3) 0.85991(3)
O1 O 0.60115(13) 0.29117(8) 0.62703(7)
O2 O 0.69721(13) 0.34553(8) 0.62228(8)
C1 C 0.7676(2) 0.24893(13) 0.77857(12)
C2 C 0.7166(2) 0.23665(12) 0.72349(11)
C3 C 0.65560(17) 0.22136(11) 0.65511(10)
C4 C 0.54999(19) 0.16663(12) 0.65670(10)
H1 H 0.4952 0.1893 0.6849
C5 C 0.4858(2) 0.15380(13) 0.58564(11)
H2 H 0.418 0.119 0.5865
H3 H 0.4557 0.2037 0.5661
C6 C 0.5691(2) 0.11831(13) 0.54281(10)
H4 H 0.5259 0.1102 0.4965
C7 C 0.6703(2) 0.17368(13) 0.54048(10)
H5 H 0.6397 0.2237 0.5216
H6 H 0.7235 0.1524 0.5113
C8 C 0.73812(18) 0.18584(11) 0.61097(10)
H7 H 0.806 0.2213 0.6092
C9 C 0.7829(2) 0.10808(13) 0.64016(12)
H8 H 0.8367 0.0851 0.6121
H9 H 0.8273 0.1157 0.6857
C10 C 0.6802(2) 0.05374(12) 0.64295(11)
H10 H 0.7102 0.0032 0.6626
C11 C 0.6147(3) 0.04097(13) 0.57185(11)
H11 H 0.6684 0.018 0.5438
H12 H 0.5483 0.005 0.5727
C12 C 0.5968(2) 0.08892(13) 0.68560(10)
H13 H 0.6386 0.0964 0.7318
H14 H 0.5303 0.0533 0.6873
C13 C 0.65331(19) 0.42277(12) 0.63066(11)
C14 C 0.6131(4) 0.43100(19) 0.69630(17)
H15 H 0.5515 0.3929 0.6997
H16 H 0.5817 0.4831 0.7002
H17 H 0.6794 0.4224 0.7323
C15 C 0.7618(3) 0.47060(16) 0.62653(18)
H18 H 0.8244 0.456 0.663
H19 H 0.7432 0.5254 0.6304
H20 H 0.7878 0.4613 0.5836
C16 C 0.5577(3) 0.44097(18) 0.57340(18)
H21 H 0.5846 0.4287 0.5312
H22 H 0.5381 0.496 0.5743
H23 H 0.4879 0.4102 0.5774
C17 C 0.7527(2) 0.32973(16) 0.90708(13)
H24 H 0.723 0.3756 0.8816
H25 H 0.797 0.3455 0.9503
H26 H 0.6866 0.2971 0.9143
C18 C 0.9754(2) 0.33520(16) 0.84430(12)
H27 H 1.021 0.3072 0.8152
H28 H 1.0257 0.3469 0.8868
H29 H 0.9459 0.3834 0.8226
C19 C 0.9026(3) 0.18588(17) 0.90581(16)
H30 H 0.8353 0.1574 0.9174
H31 H 0.956 0.1996 0.9467
H32 H 0.9442 0.1536 0.8776
loop_
_geom_bond_atom_site_label_1
_geom_bond_atom_site_label_2
_geom_bond_site_symmetry_1
_geom_bond_site_symmetry_2
Si1 C1 1_555 1_555
O1 O2 1_555 1_555
O2 C13 1_555 1_555
C1 C2 1_555 1_555
C2 C3 1_555 1_555
C3 O1 1_555 1_555
C4 C3 1_555 1_555
H1 C4 1_555 1_555
C5 C4 1_555 1_555
H2 C5 1_555 1_555
H3 C5 1_555 1_555
C6 C5 1_555 1_555
H4 C6 1_555 1_555
C7 C6 1_555 1_555
H5 C7 1_555 1_555
H6 C7 1_555 1_555
C8 C3 1_555 1_555
H7 C8 1_555 1_555
C9 C8 1_555 1_555
H8 C9 1_555 1_555
H9 C9 1_555 1_555
C10 C9 1_555 1_555
H10 C10 1_555 1_555
C11 C6 1_555 1_555
H11 C11 1_555 1_555
H12 C11 1_555 1_555
C12 C4 1_555 1_555
H13 C12 1_555 1_555
H14 C12 1_555 1_555
C13 C14 1_555 1_555
C14 H15 1_555 1_555
H16 C14 1_555 1_555
H17 C14 1_555 1_555
C15 C13 1_555 1_555
H18 C15 1_555 1_555
H19 C15 1_555 1_555
H20 C15 1_555 1_555
C16 C13 1_555 1_555
H21 C16 1_555 1_555
H22 C16 1_555 1_555
H23 C16 1_555 1_555
C17 Si1 1_555 1_555
H24 C17 1_555 1_555
H25 C17 1_555 1_555
H26 C17 1_555 1_555
C18 Si1 1_555 1_555
H27 C18 1_555 1_555
H28 C18 1_555 1_555
H29 C18 1_555 1_555
C19 Si1 1_555 1_555
H30 C19 1_555 1_555
H31 C19 1_555 1_555
H32 C19 1_555 1_555
C7 C8 1_555 1_555
C10 C11 1_555 1_555
C10 C12 1_555 1_555

#END
