
#######################################################################
#
#                 Cambridge Crystallographic Data Centre
#                                CCDC 
#
#######################################################################
#
# If this CIF has been generated from an entry in the Cambridge 
# Structural Database, then it will include bibliographic, chemical, 
# crystal, experimental, refinement or atomic coordinate data resulting 
# from the CCDC's data processing and validation procedures.
#
#######################################################################

data_UKUHOZ
_chemical_formula_moiety         'C23 H28 O3'
_chemical_name_systematic        
3-(t-Butyl)-1-(t-butylperoxy)-1-phenyl-1,3-dihydro-2H-inden-2-one
_symmetry_cell_setting           orthorhombic
_symmetry_space_group_name_H-M   'P b c a'
_symmetry_Int_Tables_number      61
_space_group_name_Hall           '-P 2ac 2ab'
loop_
_symmetry_equiv_pos_site_id
_symmetry_equiv_pos_as_xyz
1 x,y,z
2 1/2-x,-y,1/2+z
3 -x,1/2+y,1/2-z
4 1/2+x,1/2-y,-z
5 -x,-y,-z
6 1/2+x,y,1/2-z
7 x,1/2-y,1/2+z
8 1/2-x,1/2+y,z
_cell_length_a                   17.175(2)
_cell_length_b                   11.0607(13)
_cell_length_c                   21.442(3)
_cell_angle_alpha                90
_cell_angle_beta                 90
_cell_angle_gamma                90
_cell_volume                     4073.28
_exptl_crystal_colour            yellow
_exptl_crystal_description       needle
_cell_formula_units_Z            8
_exptl_crystal_recrystallization_method 'Dichloromethane/ethyl acetate'
loop_
_atom_site_label
_atom_site_type_symbol
_atom_site_fract_x
_atom_site_fract_y
_atom_site_fract_z
O1 O 0.25496(6) 0.29077(11) 0.39544(6)
O2 O 0.34968(6) 0.28113(9) 0.28322(5)
O3 O 0.29904(6) 0.38178(10) 0.26222(5)
C1 C 0.31033(8) 0.35506(13) 0.38689(7)
C2 C 0.32452(8) 0.47976(12) 0.41545(7)
H1 H 0.2791 0.5321 0.4045
C3 C 0.39425(8) 0.52463(13) 0.37863(7)
C4 C 0.42481(9) 0.64088(13) 0.37680(8)
H2 H 0.4049 0.7016 0.4038
C5 C 0.48431(9) 0.66788(15) 0.33563(9)
H3 H 0.5059 0.7469 0.3352
C6 C 0.51276(9) 0.58104(16) 0.29509(8)
H4 H 0.5532 0.6009 0.2667
C7 C 0.48222(9) 0.46514(15) 0.29592(8)
H5 H 0.5013 0.4053 0.2681
C8 C 0.42341(8) 0.43759(13) 0.33799(7)
C9 C 0.37915(8) 0.32050(13) 0.34206(7)
C10 C 0.42313(9) 0.21053(13) 0.36614(7)
C11 C 0.38606(10) 0.09896(15) 0.36683(9)
H6 H 0.3342 0.0922 0.3518
C12 C 0.42401(14) -0.00231(16) 0.38928(10)
H7 H 0.3982 -0.0783 0.3895
C13 C 0.49913(15) 0.00653(19) 0.41142(11)
H8 H 0.5249 -0.063 0.4272
C14 C 0.53663(13) 0.1166(2) 0.41057(12)
H9 H 0.5886 0.1227 0.4254
C15 C 0.49884(10) 0.21857(16) 0.38810(9)
H10 H 0.525 0.2943 0.3878
C16 C 0.33060(9) 0.47545(15) 0.48806(7)
C17 C 0.38830(13) 0.3798(2) 0.50908(9)
H11 H 0.3939 0.3832 0.5545
H12 H 0.4389 0.3948 0.4895
H13 H 0.3693 0.2997 0.4968
C18 C 0.24973(11) 0.44854(19) 0.51511(9)
H14 H 0.2317 0.3697 0.500
H15 H 0.2131 0.5115 0.5018
H16 H 0.2527 0.4472 0.5607
C19 C 0.35622(12) 0.59929(18) 0.51257(9)
H17 H 0.3558 0.5985 0.5583
H18 H 0.3203 0.6615 0.4974
H19 H 0.4089 0.6171 0.4977
C20 C 0.24665(9) 0.33287(16) 0.21603(8)
C21 C 0.29295(12) 0.28740(18) 0.16061(9)
H20 H 0.3276 0.3516 0.1457
H21 H 0.2572 0.264 0.1271
H22 H 0.324 0.2172 0.1732
C22 C 0.19514(12) 0.2376(2) 0.24446(11)
H23 H 0.2273 0.1703 0.2594
H24 H 0.1584 0.2079 0.213
H25 H 0.1662 0.2724 0.2795
C23 C 0.20027(14) 0.4451(2) 0.19881(11)
H26 H 0.1763 0.4791 0.2364
H27 H 0.1595 0.4234 0.1689
H28 H 0.2351 0.5052 0.1801
loop_
_geom_bond_atom_site_label_1
_geom_bond_atom_site_label_2
_geom_bond_site_symmetry_1
_geom_bond_site_symmetry_2
O1 C1 1_555 1_555
O2 O3 1_555 1_555
O3 C20 1_555 1_555
C1 C2 1_555 1_555
C2 H1 1_555 1_555
C3 C2 1_555 1_555
C4 C3 1_555 1_555
H2 C4 1_555 1_555
C5 C4 1_555 1_555
H3 C5 1_555 1_555
C6 C5 1_555 1_555
H4 C6 1_555 1_555
C7 C6 1_555 1_555
H5 C7 1_555 1_555
C8 C3 1_555 1_555
C9 O2 1_555 1_555
C10 C9 1_555 1_555
C11 C10 1_555 1_555
H6 C11 1_555 1_555
C12 C11 1_555 1_555
H7 C12 1_555 1_555
C13 C12 1_555 1_555
H8 C13 1_555 1_555
C14 C13 1_555 1_555
H9 C14 1_555 1_555
C15 C10 1_555 1_555
H10 C15 1_555 1_555
C16 C2 1_555 1_555
C17 C16 1_555 1_555
H11 C17 1_555 1_555
H12 C17 1_555 1_555
H13 C17 1_555 1_555
C18 C16 1_555 1_555
H14 C18 1_555 1_555
H15 C18 1_555 1_555
H16 C18 1_555 1_555
C19 C16 1_555 1_555
H17 C19 1_555 1_555
H18 C19 1_555 1_555
H19 C19 1_555 1_555
C20 C21 1_555 1_555
C21 H20 1_555 1_555
H21 C21 1_555 1_555
H22 C21 1_555 1_555
C22 C20 1_555 1_555
H23 C22 1_555 1_555
H24 C22 1_555 1_555
H25 C22 1_555 1_555
C23 C20 1_555 1_555
H26 C23 1_555 1_555
H27 C23 1_555 1_555
H28 C23 1_555 1_555
C1 C9 1_555 1_555
C7 C8 1_555 1_555
C8 C9 1_555 1_555
C14 C15 1_555 1_555

#END
