
#######################################################################
#
#                 Cambridge Crystallographic Data Centre
#                                CCDC 
#
#######################################################################
#
# If this CIF has been generated from an entry in the Cambridge 
# Structural Database, then it will include bibliographic, chemical, 
# crystal, experimental, refinement or atomic coordinate data resulting 
# from the CCDC's data processing and validation procedures.
#
#######################################################################

data_UKUJIT
_chemical_formula_moiety         'C25 H42 I1 N1 O5 Si1'
_chemical_name_systematic        
"ent-2-(Trimethylsilyl)ethyl 5-allyl-6-iodo-3',5',7-trimethyloctahydro-1'H-spiro(5,9-epoxyfuro(3,2-b)oxocine-2,2'-piperidine)-1'-carboxylate"
_symmetry_cell_setting           orthorhombic
_symmetry_space_group_name_H-M   'P 21 21 21'
_symmetry_Int_Tables_number      19
_space_group_name_Hall           'P 2ac 2ab'
loop_
_symmetry_equiv_pos_site_id
_symmetry_equiv_pos_as_xyz
1 x,y,z
2 1/2-x,-y,1/2+z
3 -x,1/2+y,1/2-z
4 1/2+x,1/2-y,-z
_cell_length_a                   11.318(5)
_cell_length_b                   12.903(6)
_cell_length_c                   19.536(8)
_cell_angle_alpha                90
_cell_angle_beta                 90
_cell_angle_gamma                90
_cell_volume                     2852.96
_exptl_crystal_colour            colorless
_exptl_crystal_description       parallelepiped
_cell_formula_units_Z            4
loop_
_atom_site_label
_atom_site_type_symbol
_atom_site_fract_x
_atom_site_fract_y
_atom_site_fract_z
I1 I 0.67809(8) 1.06988(7) 0.31017(5)
Si1 Si 0.6259(2) 0.5654(3) 0.80671(16)
O1 O 0.4032(6) 0.7648(5) 0.6198(3)
O2 O 0.5622(6) 0.6798(4) 0.6599(3)
O3 O 0.4921(5) 0.6398(4) 0.4315(3)
O4 O 0.5846(5) 0.8694(5) 0.4090(3)
O5 O 0.3846(5) 0.8878(4) 0.3813(3)
N1 N 0.5109(6) 0.6587(5) 0.5498(4)
C1 C 0.5753(7) 0.5606(7) 0.5509(4)
H1 H 0.6349 0.5626 0.5865
H2 H 0.6149 0.5504 0.5074
C2 C 0.4910(8) 0.4707(7) 0.5641(5)
H3 H 0.4549 0.4806 0.6092
C3 C 0.3933(9) 0.4760(7) 0.5101(5)
H4 H 0.4270 0.4567 0.4663
H5 H 0.3339 0.4246 0.5214
C4 C 0.3324(7) 0.5799(7) 0.5020(4)
H6 H 0.2914 0.5944 0.5451
C5 C 0.4243(7) 0.6650(6) 0.4920(4)
C6 C 0.3752(7) 0.7697(7) 0.4800(4)
H7 H 0.4236 0.8219 0.5021
H8 H 0.2954 0.7746 0.4978
C7 C 0.3756(8) 0.7851(8) 0.4022(4)
H9 H 0.3019 0.7566 0.3838
C8 C 0.4772(7) 0.7152(7) 0.3793(4)
H10 H 0.4555 0.6806 0.3365
C9 C 0.5883(8) 0.7760(8) 0.3687(5)
H11 H 0.6542 0.7339 0.3856
C10 C 0.6156(8) 0.8050(8) 0.2934(5)
H12 H 0.6953 0.8324 0.2906
H13 H 0.6122 0.7429 0.2654
C11 C 0.5310(9) 0.8837(8) 0.2651(5)
H14 H 0.4530 0.8507 0.2637
C12 C 0.5222(8) 0.9733(6) 0.3140(5)
H15 H 0.4548 1.0158 0.2998
C13 C 0.4985(8) 0.9358(8) 0.3865(4)
C14 C 0.4839(9) 0.7068(7) 0.6101(5)
C15 C 0.5513(11) 0.7356(8) 0.7216(5)
H16 H 0.4719 0.7275 0.7396
H17 H 0.5647 0.8087 0.7131
C16 C 0.6381(9) 0.6973(8) 0.7726(5)
H18 H 0.6359 0.7445 0.8112
H19 H 0.7159 0.7037 0.7521
C17 C 0.4722(11) 0.5477(9) 0.8346(7)
H20 H 0.4225 0.5386 0.7953
H21 H 0.4470 0.6077 0.8597
H22 H 0.4670 0.4876 0.8634
C18 C 0.7250(13) 0.5560(13) 0.8820(6)
H23 H 0.7946 0.5968 0.8742
H24 H 0.7471 0.4850 0.8891
H25 H 0.6847 0.5814 0.9219
C19 C 0.6686(11) 0.4692(8) 0.7439(5)
H26 H 0.7426 0.4885 0.7237
H27 H 0.6092 0.4650 0.7090
H28 H 0.6765 0.4029 0.7659
C20 C 0.5555(9) 0.3676(7) 0.5642(5)
H29 H 0.6109 0.3661 0.6014
H30 H 0.5970 0.3592 0.5217
H31 H 0.4995 0.3123 0.5696
C21 C 0.2390(7) 0.5737(9) 0.4464(4)
H32 H 0.1984 0.5086 0.4495
H33 H 0.2760 0.5795 0.4023
H34 H 0.1835 0.6293 0.4522
C22 C 0.5645(10) 0.9113(9) 0.1906(4)
H35 H 0.5587 0.8505 0.1625
H36 H 0.6440 0.9371 0.1894
H37 H 0.5116 0.9634 0.1736
C23 C 0.4858(10) 1.0200(7) 0.4405(5)
H38 H 0.4730 0.9867 0.4844
H39 H 0.5601 1.0572 0.4434
C24 C 0.3916(11) 1.0955(10) 0.4300(6)
H40 H 0.3162 1.0682 0.4243
C25 C 0.3989(13) 1.1921(10) 0.4276(6)
H41 H 0.4718 1.2244 0.4329
H42 H 0.3313 1.2317 0.4205
loop_
_geom_bond_atom_site_label_1
_geom_bond_atom_site_label_2
_geom_bond_site_symmetry_1
_geom_bond_site_symmetry_2
I1 C12 1_555 1_555
Si1 C16 1_555 1_555
O1 C14 1_555 1_555
O2 C14 1_555 1_555
O3 C5 1_555 1_555
O4 C9 1_555 1_555
O5 C7 1_555 1_555
N1 C1 1_555 1_555
C1 H1 1_555 1_555
H2 C1 1_555 1_555
C2 C1 1_555 1_555
H3 C2 1_555 1_555
C3 C2 1_555 1_555
H4 C3 1_555 1_555
H5 C3 1_555 1_555
C4 C3 1_555 1_555
H6 C4 1_555 1_555
C5 N1 1_555 1_555
C6 C5 1_555 1_555
H7 C6 1_555 1_555
H8 C6 1_555 1_555
C7 C6 1_555 1_555
H9 C7 1_555 1_555
C8 O3 1_555 1_555
H10 C8 1_555 1_555
C9 C8 1_555 1_555
H11 C9 1_555 1_555
C10 C9 1_555 1_555
H12 C10 1_555 1_555
H13 C10 1_555 1_555
C11 C10 1_555 1_555
H14 C11 1_555 1_555
C12 C11 1_555 1_555
H15 C12 1_555 1_555
C13 O4 1_555 1_555
C14 N1 1_555 1_555
C15 O2 1_555 1_555
H16 C15 1_555 1_555
H17 C15 1_555 1_555
C16 C15 1_555 1_555
H18 C16 1_555 1_555
H19 C16 1_555 1_555
C17 Si1 1_555 1_555
H20 C17 1_555 1_555
H21 C17 1_555 1_555
H22 C17 1_555 1_555
C18 Si1 1_555 1_555
H23 C18 1_555 1_555
H24 C18 1_555 1_555
H25 C18 1_555 1_555
C19 Si1 1_555 1_555
H26 C19 1_555 1_555
H27 C19 1_555 1_555
H28 C19 1_555 1_555
C20 C2 1_555 1_555
H29 C20 1_555 1_555
H30 C20 1_555 1_555
H31 C20 1_555 1_555
C21 C4 1_555 1_555
H32 C21 1_555 1_555
H33 C21 1_555 1_555
H34 C21 1_555 1_555
C22 C11 1_555 1_555
H35 C22 1_555 1_555
H36 C22 1_555 1_555
H37 C22 1_555 1_555
C23 C13 1_555 1_555
H38 C23 1_555 1_555
H39 C23 1_555 1_555
C24 C23 1_555 1_555
H40 C24 1_555 1_555
C25 C24 1_555 1_555
H41 C25 1_555 1_555
H42 C25 1_555 1_555
O5 C13 1_555 1_555
C4 C5 1_555 1_555
C7 C8 1_555 1_555
C12 C13 1_555 1_555

#END
