
#######################################################################
#
#                 Cambridge Crystallographic Data Centre
#                                CCDC 
#
#######################################################################
#
# If this CIF has been generated from an entry in the Cambridge 
# Structural Database, then it will include bibliographic, chemical, 
# crystal, experimental, refinement or atomic coordinate data resulting 
# from the CCDC's data processing and validation procedures.
#
#######################################################################

data_UKULOD
_chemical_formula_moiety         'C2 H6 N5 1+,C4 N5 1-'
_chemical_name_systematic        
'3,5-diamino-4H-1,2,4-triazol-1-ium 4,5-dicyano-1,2,3-triazol-2-ide'
_symmetry_cell_setting           monoclinic
_symmetry_space_group_name_H-M   'P 21/c'
_symmetry_Int_Tables_number      14
_space_group_name_Hall           '-P 2ybc'
loop_
_symmetry_equiv_pos_site_id
_symmetry_equiv_pos_as_xyz
1 x,y,z
2 -x,1/2+y,1/2-z
3 -x,-y,-z
4 x,1/2-y,1/2+z
_cell_length_a                   3.8050(3)
_cell_length_b                   12.4171(11)
_cell_length_c                   20.5632(19)
_cell_angle_alpha                90
_cell_angle_beta                 95.309(2)
_cell_angle_gamma                90
_cell_volume                     967.383
_exptl_crystal_colour            white
_exptl_crystal_description       block
_cell_formula_units_Z            4
loop_
_atom_site_label
_atom_site_type_symbol
_atom_site_fract_x
_atom_site_fract_y
_atom_site_fract_z
N1 N 0.8813(16) 0.2924(4) -0.0577(2)
H1 H 0.8829 0.2831 -0.0991
N2 N 0.7281(18) 0.3811(4) -0.0286(2)
N3 N 0.9531(16) 0.2658(4) 0.0449(2)
H2 H 1.0074 0.2370 0.0826
N4 N 0.6669(17) 0.4214(5) 0.0811(2)
H3 H 0.5470 0.4790 0.0720
H4 H 0.7141 0.4022 0.1212
N5 N 1.1920(17) 0.1340(4) -0.0233(2)
H5 H 1.2184 0.1138 -0.0626
H6 H 1.2753 0.0953 0.0092
C1 C 0.780(2) 0.3617(5) 0.0332(3)
C2 C 1.0225(18) 0.2251(5) -0.0129(3)
N6 N 0.5735(18) -0.0254(4) 0.1390(2)
N7 N 0.4103(19) 0.0548(5) 0.1061(2)
N8 N 0.2787(18) 0.1279(4) 0.1467(2)
N9 N 0.183(2) 0.1792(6) 0.3124(3)
N10 N 0.842(2) -0.1179(6) 0.2951(2)
C3 C 0.262(2) 0.1439(6) 0.2646(3)
C4 C 0.365(2) 0.0924(5) 0.2074(2)
C5 C 0.547(2) -0.0036(6) 0.2024(3)
C6 C 0.703(2) -0.0690(6) 0.2534(3)
loop_
_geom_bond_atom_site_label_1
_geom_bond_atom_site_label_2
_geom_bond_site_symmetry_1
_geom_bond_site_symmetry_2
N1 H1 1_555 1_555
N2 N1 1_555 1_555
N3 H2 1_555 1_555
N4 H3 1_555 1_555
H4 N4 1_555 1_555
N5 H5 1_555 1_555
H6 N5 1_555 1_555
C1 N2 1_555 1_555
C2 N1 1_555 1_555
N6 N7 1_555 1_555
N7 N8 1_555 1_555
N8 C4 1_555 1_555
N9 C3 1_555 1_555
N10 C6 1_555 1_555
C3 C4 1_555 1_555
C4 C5 1_555 1_555
C5 N6 1_555 1_555
C6 C5 1_555 1_555
N3 C1 1_555 1_555
N3 C2 1_555 1_555
N4 C1 1_555 1_555
N5 C2 1_555 1_555

#END
