
#######################################################################
#
#                 Cambridge Crystallographic Data Centre
#                                CCDC 
#
#######################################################################
#
# If this CIF has been generated from an entry in the Cambridge 
# Structural Database, then it will include bibliographic, chemical, 
# crystal, experimental, refinement or atomic coordinate data resulting 
# from the CCDC's data processing and validation procedures.
#
#######################################################################

data_UKUMUK
_chemical_formula_moiety         'C7 H7 N1 O1'
_chemical_name_systematic        1-(pyridin-2-yl)ethanone
_symmetry_cell_setting           orthorhombic
_symmetry_space_group_name_H-M   'P b c a'
_symmetry_Int_Tables_number      61
_space_group_name_Hall           '-P 2ac 2ab'
loop_
_symmetry_equiv_pos_site_id
_symmetry_equiv_pos_as_xyz
1 x,y,z
2 1/2+x,1/2-y,-z
3 -x,1/2+y,1/2-z
4 1/2-x,-y,1/2+z
5 -x,-y,-z
6 1/2-x,1/2+y,z
7 x,1/2-y,1/2+z
8 1/2+x,y,1/2-z
_cell_length_a                   12.1009(6)
_cell_length_b                   7.7202(4)
_cell_length_c                   13.7085(7)
_cell_angle_alpha                90
_cell_angle_beta                 90
_cell_angle_gamma                90
_cell_volume                     1280.67
_exptl_crystal_colour            colorless
_exptl_crystal_description       prism
_cell_formula_units_Z            8
loop_
_atom_site_label
_atom_site_type_symbol
_atom_site_fract_x
_atom_site_fract_y
_atom_site_fract_z
C1 C 0.28626(10) 0.73336(16) 0.23218(9)
H1 H 0.2382 0.6796 0.1865
C2 C 0.39814(10) 0.73975(17) 0.21067(9)
H2 H 0.4255 0.6932 0.1512
C3 C 0.46867(9) 0.81461(16) 0.27687(10)
H3 H 0.5457 0.8205 0.2641
C4 C 0.42549(9) 0.88130(14) 0.36247(9)
H4 H 0.4724 0.9320 0.4102
C5 C 0.31213(8) 0.87254(12) 0.37712(8)
C6 C 0.26195(9) 0.94863(13) 0.46741(8)
C7 C 0.13881(10) 0.94266(16) 0.47789(9)
H5 H 0.1169 1.0050 0.5371
H6 H 0.1146 0.8218 0.4825
H7 H 0.1044 0.9972 0.4209
N1 N 0.24257(7) 0.79861(12) 0.31345(7)
O1 O 0.32048(8) 1.01402(12) 0.52927(6)
loop_
_geom_bond_atom_site_label_1
_geom_bond_atom_site_label_2
_geom_bond_site_symmetry_1
_geom_bond_site_symmetry_2
C1 H1 1_555 1_555
C2 C1 1_555 1_555
H2 C2 1_555 1_555
C3 C2 1_555 1_555
H3 C3 1_555 1_555
C4 C3 1_555 1_555
H4 C4 1_555 1_555
C5 C4 1_555 1_555
C6 C5 1_555 1_555
C7 C6 1_555 1_555
H5 C7 1_555 1_555
H6 C7 1_555 1_555
H7 C7 1_555 1_555
N1 C1 1_555 1_555
O1 C6 1_555 1_555
C5 N1 1_555 1_555

#END
