
#######################################################################
#
#                 Cambridge Crystallographic Data Centre
#                                CCDC 
#
#######################################################################
#
# If this CIF has been generated from an entry in the Cambridge 
# Structural Database, then it will include bibliographic, chemical, 
# crystal, experimental, refinement or atomic coordinate data resulting 
# from the CCDC's data processing and validation procedures.
#
#######################################################################

data_UKUNIZ
_chemical_formula_moiety         'C43 H43 N5 O4'
_chemical_name_systematic        
18,29-dioxa-3,10,37,44,50-pentaazahexacyclo[44.3.1.0^4,9^.0^12,17^.0^30,35^.0^38,43^]pentaconta-1(50),4,6,8,10,12,14,16,30,32,34,36,38,40,42,46,48-heptadecaene-2,45-dione
_symmetry_cell_setting           monoclinic
_symmetry_space_group_name_H-M   'P 21/n'
_symmetry_Int_Tables_number      14
_space_group_name_Hall           '-P 2yn'
loop_
_symmetry_equiv_pos_site_id
_symmetry_equiv_pos_as_xyz
1 x,y,z
2 1/2-x,1/2+y,1/2-z
3 -x,-y,-z
4 1/2+x,1/2-y,1/2+z
_cell_length_a                   10.764(2)
_cell_length_b                   13.903(3)
_cell_length_c                   24.704(5)
_cell_angle_alpha                90
_cell_angle_beta                 95.710(2)
_cell_angle_gamma                90
_cell_volume                     3678.66
_exptl_crystal_colour            colorless
_exptl_crystal_description       block
_cell_formula_units_Z            4
loop_
_atom_site_label
_atom_site_type_symbol
_atom_site_fract_x
_atom_site_fract_y
_atom_site_fract_z
C1 C 0.52088(18) 0.64585(14) 0.40592(8)
C2 C 0.4865(2) 0.56266(16) 0.43103(9)
H1 H 0.4954 0.5576 0.4688
C3 C 0.4392(2) 0.48789(17) 0.39961(11)
H2 H 0.4174 0.4308 0.4158
C4 C 0.4240(2) 0.49734(15) 0.34414(10)
H3 H 0.3932 0.4467 0.3222
C5 C 0.45567(18) 0.58472(13) 0.32136(8)
C6 C 0.43530(19) 0.60005(15) 0.26101(8)
C7 C 0.41166(16) 0.73460(14) 0.19473(7)
C8 C 0.39272(18) 0.68126(16) 0.14692(8)
H4 H 0.4019 0.6147 0.1479
C9 C 0.36031(19) 0.7274(2) 0.09814(8)
H5 H 0.3489 0.6916 0.0662
C10 C 0.34473(19) 0.82492(18) 0.09592(8)
H6 H 0.3209 0.8549 0.0629
C11 C 0.36462(17) 0.87888(16) 0.14306(7)
H7 H 0.3544 0.9453 0.1413
C12 C 0.39949(15) 0.83567(13) 0.19292(7)
C13 C 0.41989(17) 0.97535(14) 0.24599(7)
H8 H 0.4102 1.0097 0.2135
C14 C 0.43452(16) 1.02904(13) 0.29668(7)
C15 C 0.45463(18) 0.98333(15) 0.34680(7)
H9 H 0.4612 0.9166 0.3478
C16 C 0.4651(2) 1.03357(17) 0.39499(8)
H10 H 0.4786 1.0014 0.4281
C17 C 0.4552(2) 1.13291(17) 0.39339(9)
H11 H 0.4615 1.1676 0.4257
C18 C 0.43621(19) 1.18085(16) 0.34472(8)
H12 H 0.4296 1.2475 0.3444
C19 C 0.42691(17) 1.13066(14) 0.29618(7)
C20 C 0.4093(2) 1.27635(13) 0.24353(9)
H13 H 0.4845 1.3020 0.2632
H14 H 0.3377 1.3016 0.2598
C21 C 0.4029(2) 1.30508(14) 0.18472(9)
H15 H 0.4704 1.2738 0.1683
H16 H 0.4158 1.3740 0.1826
C22 C 0.2809(2) 1.28002(16) 0.15215(9)
H17 H 0.2129 1.3043 0.1712
H18 H 0.2732 1.2106 0.1504
C23 C 0.2672(3) 1.31983(18) 0.09432(9)
H19 H 0.1839 1.3053 0.0776
H20 H 0.2757 1.3893 0.0959
C24 C 0.3619(3) 1.27984(16) 0.05872(10)
H21 H 0.3553 1.3154 0.0248
H22 H 0.4449 1.2906 0.0767
C25 C 0.3470(2) 1.17415(16) 0.04606(10)
H23 H 0.3375 1.1397 0.0795
H24 H 0.2711 1.1648 0.0220
C26 C 0.4548(2) 1.13178(17) 0.01994(8)
H25 H 0.4665 1.1686 -0.0125
H26 H 0.4333 1.0666 0.0086
C27 C 0.5790(2) 1.12947(16) 0.05626(7)
H27 H 0.6429 1.1031 0.0355
H28 H 0.6028 1.1949 0.0661
C28 C 0.57526(19) 1.07082(15) 0.10791(7)
H29 H 0.5174 1.1003 0.1306
H30 H 0.5454 1.0065 0.0986
C29 C 0.7023(2) 1.06464(16) 0.13905(8)
H31 H 0.7610 1.0402 0.1151
H32 H 0.7290 1.1289 0.1503
C30 C 0.72204(17) 0.90725(15) 0.18062(7)
C31 C 0.71903(19) 0.86004(16) 0.13112(7)
H33 H 0.7075 0.8950 0.0989
C32 C 0.7329(2) 0.76203(18) 0.12936(8)
H34 H 0.7303 0.7313 0.0958
C33 C 0.7506(2) 0.70853(16) 0.17622(9)
H35 H 0.7596 0.6421 0.1746
C34 C 0.75491(17) 0.75477(15) 0.22558(8)
H36 H 0.7668 0.7187 0.2574
C35 C 0.74194(16) 0.85412(13) 0.22918(7)
C36 C 0.75332(16) 0.90247(14) 0.28187(7)
H37 H 0.7569 0.9693 0.2830
C37 C 0.77931(16) 0.90441(13) 0.37662(7)
C38 C 0.86152(18) 0.98056(14) 0.38642(7)
H38 H 0.9044 1.0044 0.3584
C39 C 0.8800(2) 1.02118(15) 0.43768(8)
H39 H 0.9347 1.0727 0.4440
C40 C 0.8177(2) 0.98549(15) 0.47944(8)
H40 H 0.8309 1.0132 0.5138
C41 C 0.73616(19) 0.90922(14) 0.47094(7)
H41 H 0.6942 0.8857 0.4993
C42 C 0.71746(16) 0.86801(12) 0.41965(6)
C43 C 0.58639(18) 0.72596(14) 0.43835(7)
N1 N 0.50417(13) 0.65738(10) 0.35196(6)
N2 N 0.44025(14) 0.69323(11) 0.24601(6)
H42 H 0.4644 0.7328 0.2717
N3 N 0.63638(14) 0.79083(10) 0.40644(5)
H43 H 0.6150 0.7837 0.3722
N4 N 0.75842(13) 0.85575(11) 0.32630(5)
N5 N 0.41955(13) 0.88409(11) 0.24357(5)
O1 O 0.59501(16) 0.72650(11) 0.48811(5)
O2 O 0.4152(2) 0.53237(11) 0.23012(7)
O3 O 0.70636(14) 1.00391(10) 0.18650(5)
O4 O 0.41006(14) 1.17281(9) 0.24621(5)
loop_
_geom_bond_atom_site_label_1
_geom_bond_atom_site_label_2
_geom_bond_site_symmetry_1
_geom_bond_site_symmetry_2
C1 C2 1_555 1_555
C2 H1 1_555 1_555
C3 C2 1_555 1_555
H2 C3 1_555 1_555
C4 C3 1_555 1_555
H3 C4 1_555 1_555
C5 C4 1_555 1_555
C6 C5 1_555 1_555
C7 C8 1_555 1_555
C8 H4 1_555 1_555
C9 C8 1_555 1_555
H5 C9 1_555 1_555
C10 C9 1_555 1_555
H6 C10 1_555 1_555
C11 C10 1_555 1_555
H7 C11 1_555 1_555
C12 C7 1_555 1_555
C13 H8 1_555 1_555
C14 C13 1_555 1_555
C15 C14 1_555 1_555
H9 C15 1_555 1_555
C16 C15 1_555 1_555
H10 C16 1_555 1_555
C17 C16 1_555 1_555
H11 C17 1_555 1_555
C18 C17 1_555 1_555
H12 C18 1_555 1_555
C19 C14 1_555 1_555
C20 H13 1_555 1_555
H14 C20 1_555 1_555
C21 C20 1_555 1_555
H15 C21 1_555 1_555
H16 C21 1_555 1_555
C22 C21 1_555 1_555
H17 C22 1_555 1_555
H18 C22 1_555 1_555
C23 C22 1_555 1_555
H19 C23 1_555 1_555
H20 C23 1_555 1_555
C24 C23 1_555 1_555
H21 C24 1_555 1_555
H22 C24 1_555 1_555
C25 C24 1_555 1_555
H23 C25 1_555 1_555
H24 C25 1_555 1_555
C26 C25 1_555 1_555
H25 C26 1_555 1_555
H26 C26 1_555 1_555
C27 C26 1_555 1_555
H27 C27 1_555 1_555
H28 C27 1_555 1_555
C28 C27 1_555 1_555
H29 C28 1_555 1_555
H30 C28 1_555 1_555
C29 C28 1_555 1_555
H31 C29 1_555 1_555
H32 C29 1_555 1_555
C30 C31 1_555 1_555
C31 H33 1_555 1_555
C32 C31 1_555 1_555
H34 C32 1_555 1_555
C33 C32 1_555 1_555
H35 C33 1_555 1_555
C34 C33 1_555 1_555
H36 C34 1_555 1_555
C35 C30 1_555 1_555
C36 C35 1_555 1_555
H37 C36 1_555 1_555
C37 C38 1_555 1_555
C38 H38 1_555 1_555
C39 C38 1_555 1_555
H39 C39 1_555 1_555
C40 C39 1_555 1_555
H40 C40 1_555 1_555
C41 C40 1_555 1_555
H41 C41 1_555 1_555
C42 C37 1_555 1_555
C43 C1 1_555 1_555
N1 C1 1_555 1_555
N2 C6 1_555 1_555
H42 N2 1_555 1_555
N3 C42 1_555 1_555
H43 N3 1_555 1_555
N4 C36 1_555 1_555
N5 C12 1_555 1_555
O1 C43 1_555 1_555
O2 C6 1_555 1_555
O3 C29 1_555 1_555
O4 C19 1_555 1_555
C5 N1 1_555 1_555
C7 N2 1_555 1_555
C11 C12 1_555 1_555
C13 N5 1_555 1_555
C18 C19 1_555 1_555
C20 O4 1_555 1_555
C30 O3 1_555 1_555
C34 C35 1_555 1_555
C37 N4 1_555 1_555
C41 C42 1_555 1_555
C43 N3 1_555 1_555

#END
