
#######################################################################
#
#                 Cambridge Crystallographic Data Centre
#                                CCDC 
#
#######################################################################
#
# If this CIF has been generated from an entry in the Cambridge 
# Structural Database, then it will include bibliographic, chemical, 
# crystal, experimental, refinement or atomic coordinate data resulting 
# from the CCDC's data processing and validation procedures.
#
#######################################################################

data_UKUNAR
_chemical_formula_moiety         'C14 H9 F3 O1 S1'
_chemical_name_systematic        
'S-(4-(trifluoromethyl)phenyl) benzenecarbothioate'
_symmetry_cell_setting           monoclinic
_symmetry_space_group_name_H-M   'P 21/c'
_symmetry_Int_Tables_number      14
_space_group_name_Hall           '-P 2ybc'
loop_
_symmetry_equiv_pos_site_id
_symmetry_equiv_pos_as_xyz
1 x,y,z
2 -x,1/2+y,1/2-z
3 -x,-y,-z
4 x,1/2-y,1/2+z
_cell_length_a                   5.701(2)
_cell_length_b                   14.172(5)
_cell_length_c                   16.101(6)
_cell_angle_alpha                90
_cell_angle_beta                 96.143(12)
_cell_angle_gamma                90
_cell_volume                     1293.4
_exptl_crystal_colour            colorless
_exptl_crystal_description       block
_cell_formula_units_Z            4
loop_
_atom_site_label
_atom_site_type_symbol
_atom_site_fract_x
_atom_site_fract_y
_atom_site_fract_z
S1 S 0.3899(4) 0.96350(13) 0.09163(13)
O1 O 0.0441(9) 0.9842(3) 0.1849(4)
C1 C 0.2568(12) 0.7609(5) 0.1151(4)
H1 H 0.3860 0.7818 0.0895
C2 C 0.2100(14) 0.6658(5) 0.1180(5)
H2 H 0.3071 0.6226 0.0948
C3 C 0.0189(14) 0.6352(5) 0.1556(5)
H3 H -0.0131 0.5709 0.1575
C4 C -0.1243(13) 0.6972(5) 0.1900(5)
H4 H -0.2527 0.6754 0.2155
C5 C -0.0787(12) 0.7925(5) 0.1868(4)
H5 H -0.1775 0.8353 0.2096
C6 C 0.1168(10) 0.8249(4) 0.1491(4)
C7 C 0.1567(11) 0.9290(5) 0.1490(4)
C8 C 0.3882(12) 1.0863(4) 0.1014(4)
C9 C 0.2056(12) 1.1409(5) 0.0653(4)
H6 H 0.0718 1.1119 0.0386
C10 C 0.2185(13) 1.2375(5) 0.0680(4)
H7 H 0.0930 1.2736 0.0440
C11 C 0.4165(13) 1.2808(5) 0.1063(4)
C12 C 0.5978(12) 1.2264(5) 0.1440(4)
H8 H 0.7319 1.2552 0.1706
C13 C 0.5812(13) 1.1299(5) 0.1425(4)
H9 H 0.7021 1.0937 0.1696
C14 C 0.433(2) 1.3827(6) 0.1084(7)
F1 F 0.2922(19) 1.4255(4) 0.0579(7)
F2 F 0.6295(19) 1.4171(4) 0.0898(7)
F3 F 0.421(2) 1.4217(4) 0.1757(5)
loop_
_geom_bond_atom_site_label_1
_geom_bond_atom_site_label_2
_geom_bond_site_symmetry_1
_geom_bond_site_symmetry_2
S1 C7 1_555 1_555
O1 C7 1_555 1_555
C1 H1 1_555 1_555
C2 C1 1_555 1_555
H2 C2 1_555 1_555
C3 C2 1_555 1_555
H3 C3 1_555 1_555
C4 C3 1_555 1_555
H4 C4 1_555 1_555
C5 C4 1_555 1_555
H5 C5 1_555 1_555
C6 C1 1_555 1_555
C7 C6 1_555 1_555
C8 S1 1_555 1_555
C9 C8 1_555 1_555
H6 C9 1_555 1_555
C10 C9 1_555 1_555
H7 C10 1_555 1_555
C11 C10 1_555 1_555
C12 C11 1_555 1_555
H8 C12 1_555 1_555
C13 C8 1_555 1_555
H9 C13 1_555 1_555
C14 C11 1_555 1_555
F1 C14 1_555 1_555
F2 C14 1_555 1_555
F3 C14 1_555 1_555
C5 C6 1_555 1_555
C12 C13 1_555 1_555

#END
