
#######################################################################
#
#                 Cambridge Crystallographic Data Centre
#                                CCDC 
#
#######################################################################
#
# If this CIF has been generated from an entry in the Cambridge 
# Structural Database, then it will include bibliographic, chemical, 
# crystal, experimental, refinement or atomic coordinate data resulting 
# from the CCDC's data processing and validation procedures.
#
#######################################################################

data_UKUPEW01
_chemical_formula_moiety         'C20 H6 F10 N2'
_chemical_name_systematic        
N,N'-1,4-phenylenebis(1-(pentafluorophenyl)methanimine)
_symmetry_cell_setting           triclinic
_symmetry_space_group_name_H-M   'P -1'
_symmetry_Int_Tables_number      2
_space_group_name_Hall           '-P 1'
loop_
_symmetry_equiv_pos_site_id
_symmetry_equiv_pos_as_xyz
1 x,y,z
2 -x,-y,-z
_cell_length_a                   5.8597(11)
_cell_length_b                   7.9294(15)
_cell_length_c                   10.3234(19)
_cell_angle_alpha                109.744(4)
_cell_angle_beta                 102.301(4)
_cell_angle_gamma                96.208(3)
_cell_volume                     432.559
_exptl_crystal_colour            yellow
_exptl_crystal_description       block
_cell_formula_units_Z            1
loop_
_atom_site_label
_atom_site_type_symbol
_atom_site_fract_x
_atom_site_fract_y
_atom_site_fract_z
F1 F -0.03414(19) 0.69190(17) 0.17255(14)
F2 F 0.3084(2) 0.98651(17) 0.27854(15)
F3 F 0.7541(2) 0.97655(18) 0.41219(15)
F4 F 0.84945(19) 0.66506(19) 0.44858(13)
F5 F 0.5056(2) 0.36691(16) 0.34554(13)
N1 N -0.1566(3) 0.3255(2) 0.11403(19)
C1 C 0.1821(3) 0.6772(3) 0.2369(2)
C2 C 0.3570(4) 0.8307(3) 0.2910(2)
C3 C 0.5832(3) 0.8274(3) 0.3605(2)
C4 C 0.6314(3) 0.6695(3) 0.3781(2)
C5 C 0.4529(3) 0.5179(3) 0.3248(2)
C6 C 0.2230(3) 0.5148(3) 0.25127(19)
C7 C 0.0420(3) 0.3464(3) 0.1958(2)
H1 H 0.0781 0.2502 0.2235
C8 C -0.3223(3) 0.1579(3) 0.06049(19)
C9 C -0.5525(3) 0.1612(3) -0.0090(2)
H2 H -0.5883 0.2700 -0.0155
C10 C -0.2728(3) -0.0065(3) 0.0679(2)
H3 H -0.1199 -0.0117 0.1131
F1A F -0.96586(19) -0.69190(17) -0.17255(14)
F2A F -1.3084(2) -0.98651(17) -0.27854(15)
F3A F -1.7541(2) -0.97655(18) -0.41219(15)
F4A F -1.84945(19) -0.66506(19) -0.44858(13)
F5A F -1.5056(2) -0.36691(16) -0.34554(13)
N1A N -0.8434(3) -0.3255(2) -0.11403(19)
C1A C -1.1821(3) -0.6772(3) -0.2369(2)
C2A C -1.3570(4) -0.8307(3) -0.2910(2)
C3A C -1.5832(3) -0.8274(3) -0.3605(2)
C4A C -1.6314(3) -0.6695(3) -0.3781(2)
C5A C -1.4529(3) -0.5179(3) -0.3248(2)
C6A C -1.2230(3) -0.5148(3) -0.25127(19)
C7A C -1.0420(3) -0.3464(3) -0.1958(2)
H1A H -1.0781 -0.2502 -0.2235
C8A C -0.6777(3) -0.1579(3) -0.06049(19)
C9A C -0.4475(3) -0.1612(3) 0.0090(2)
H2A H -0.4117 -0.2700 0.0155
C10A C -0.7272(3) 0.0065(3) -0.0679(2)
H3A H -0.8801 0.0117 -0.1131
loop_
_geom_bond_atom_site_label_1
_geom_bond_atom_site_label_2
_geom_bond_site_symmetry_1
_geom_bond_site_symmetry_2
F1 C1 1_555 1_555
F2 C2 1_555 1_555
F3 C3 1_555 1_555
F4 C4 1_555 1_555
F5 C5 1_555 1_555
N1 C7 1_555 1_555
C1 C2 1_555 1_555
C2 C3 1_555 1_555
C3 C4 1_555 1_555
C4 C5 1_555 1_555
C5 C6 1_555 1_555
C6 C1 1_555 1_555
C7 C6 1_555 1_555
H1 C7 1_555 1_555
C8 N1 1_555 1_555
C9 C8 1_555 1_555
H2 C9 1_555 1_555
C10 C8 1_555 1_555
H3 C10 1_555 1_555
F1A C1A 1_555 1_555
F2A C2A 1_555 1_555
F3A C3A 1_555 1_555
F4A C4A 1_555 1_555
F5A C5A 1_555 1_555
N1A C7A 1_555 1_555
C1A C2A 1_555 1_555
C2A C3A 1_555 1_555
C3A C4A 1_555 1_555
C4A C5A 1_555 1_555
C5A C6A 1_555 1_555
C6A C1A 1_555 1_555
C7A C6A 1_555 1_555
H1A C7A 1_555 1_555
C8A N1A 1_555 1_555
C9A C10 1_555 1_555
H2A C9A 1_555 1_555
C10A C9 1_555 1_555
H3A C10A 1_555 1_555
C8A C9A 1_555 1_555
C8A C10A 1_555 1_555

#END
