
#######################################################################
#
#                 Cambridge Crystallographic Data Centre
#                                CCDC 
#
#######################################################################
#
# If this CIF has been generated from an entry in the Cambridge 
# Structural Database, then it will include bibliographic, chemical, 
# crystal, experimental, refinement or atomic coordinate data resulting 
# from the CCDC's data processing and validation procedures.
#
#######################################################################

data_UKUVAX
_chemical_formula_moiety         'C28 H27 N3 O4'
_chemical_name_systematic        
6,9-Dibenzyl-4b-hydroxy-8-methyl-5,6,8,9-tetrahydro-4bH-6,9,11a-triazacyclonona(a)indene-7,10,12-trione
_symmetry_cell_setting           orthorhombic
_symmetry_space_group_name_H-M   'P 21 21 21'
_symmetry_Int_Tables_number      19
_space_group_name_Hall           'P 2ac 2ab'
loop_
_symmetry_equiv_pos_site_id
_symmetry_equiv_pos_as_xyz
1 x,y,z
2 1/2-x,-y,1/2+z
3 -x,1/2+y,1/2-z
4 1/2+x,1/2-y,-z
_cell_length_a                   10.8635(12)
_cell_length_b                   13.9599(17)
_cell_length_c                   15.9849(18)
_cell_angle_alpha                90
_cell_angle_beta                 90
_cell_angle_gamma                90
_cell_volume                     2424.16
_exptl_crystal_colour            colorless
_exptl_crystal_description       prism
_chemical_melting_point          '235.3-235.7 deg.C'
_cell_formula_units_Z            4
_exptl_crystal_preparation       'irradiated product'
loop_
_atom_site_label
_atom_site_type_symbol
_atom_site_fract_x
_atom_site_fract_y
_atom_site_fract_z
O1 O -0.23948(18) -0.20613(12) 0.72869(12)
O2 O 0.11629(15) -0.06067(11) 0.67033(10)
H1 H 0.1054 -0.0125 0.7020
O3 O -0.19087(16) -0.25901(11) 0.45857(11)
O4 O -0.08112(18) -0.40431(12) 0.72695(10)
N1 N -0.05460(17) -0.16826(11) 0.66724(10)
N2 N -0.05507(15) -0.14099(11) 0.48663(10)
N3 N -0.06234(17) -0.36620(11) 0.59061(10)
C1 C -0.1727(2) -0.14950(15) 0.69335(12)
C2 C -0.1972(2) -0.04792(15) 0.67134(12)
C3 C -0.3016(2) 0.00654(18) 0.68452(14)
H2 H -0.3722 -0.0200 0.7080
C4 C -0.2972(3) 0.10201(18) 0.66147(15)
H3 H -0.3656 0.1408 0.6701
C5 C -0.1921(3) 0.14050(17) 0.62561(16)
H4 H -0.1913 0.2048 0.6103
C6 C -0.0887(2) 0.08526(15) 0.61224(14)
H5 H -0.0184 0.1113 0.5881
C7 C -0.0928(2) -0.00987(14) 0.63577(12)
C8 C 0.00714(19) -0.08470(14) 0.62931(13)
C9 C 0.04479(18) -0.10358(14) 0.53797(12)
H6 H 0.0741 -0.0442 0.5135
H7 H 0.1124 -0.1489 0.5373
C10 C -0.0937(2) -0.23290(14) 0.48994(12)
C11 C -0.0043(2) -0.30661(13) 0.52590(12)
H8 H 0.0641 -0.2718 0.5519
C12 C -0.0486(2) -0.34756(15) 0.67297(12)
C13 C 0.0096(2) -0.25229(15) 0.69900(13)
H9 H 0.0116 -0.2490 0.7596
H10 H 0.0940 -0.2507 0.6792
C14 C -0.1216(2) -0.07242(15) 0.43364(13)
H11 H -0.1607 -0.0245 0.4687
H12 H -0.1857 -0.1058 0.4030
C15 C -0.0367(2) -0.02387(15) 0.37287(12)
C16 C -0.0366(3) 0.07467(18) 0.36527(15)
H13 H -0.0884 0.1111 0.3989
C17 C 0.0390(3) 0.1197(2) 0.30861(19)
H14 H 0.0376 0.1861 0.3041
C18 C 0.1163(3) 0.0676(3) 0.25882(18)
H15 H 0.1669 0.0983 0.2203
C19 C 0.1187(2) -0.0298(3) 0.26607(16)
H16 H 0.1718 -0.0654 0.2326
C20 C 0.0430(2) -0.0760(2) 0.32260(13)
H17 H 0.0454 -0.1424 0.3270
C21 C 0.0475(2) -0.36478(17) 0.45361(14)
H18 H 0.1051 -0.4110 0.4747
H19 H 0.0884 -0.3228 0.4150
H20 H -0.0184 -0.3973 0.4255
C22 C -0.1402(2) -0.44721(15) 0.56604(15)
H21 H -0.1861 -0.4291 0.5165
H22 H -0.1993 -0.4587 0.6104
C23 C -0.0739(2) -0.53954(15) 0.54814(15)
C24 C -0.1176(3) -0.59697(18) 0.48317(19)
H23 H -0.1863 -0.5773 0.4531
C25 C -0.0616(4) -0.6813(2) 0.4628(3)
H24 H -0.0916 -0.7184 0.4189
C26 C 0.0380(5) -0.71070(19) 0.5069(2)
H25 H 0.0763 -0.7681 0.4930
C27 C 0.0836(4) -0.6564(2) 0.5726(2)
H26 H 0.1518 -0.6770 0.6028
C28 C 0.0255(3) -0.57045(19) 0.59262(18)
H27 H 0.0550 -0.5337 0.6368
loop_
_geom_bond_atom_site_label_1
_geom_bond_atom_site_label_2
_geom_bond_site_symmetry_1
_geom_bond_site_symmetry_2
O1 C1 1_555 1_555
O2 H1 1_555 1_555
O3 C10 1_555 1_555
O4 C12 1_555 1_555
N1 C1 1_555 1_555
N2 C9 1_555 1_555
N3 C11 1_555 1_555
C1 C2 1_555 1_555
C2 C3 1_555 1_555
C3 H2 1_555 1_555
C4 C3 1_555 1_555
H3 C4 1_555 1_555
C5 C4 1_555 1_555
H4 C5 1_555 1_555
C6 C5 1_555 1_555
H5 C6 1_555 1_555
C7 C2 1_555 1_555
C8 O2 1_555 1_555
C9 C8 1_555 1_555
H6 C9 1_555 1_555
H7 C9 1_555 1_555
C10 N2 1_555 1_555
C11 C10 1_555 1_555
H8 C11 1_555 1_555
C12 N3 1_555 1_555
C13 N1 1_555 1_555
H9 C13 1_555 1_555
H10 C13 1_555 1_555
C14 N2 1_555 1_555
H11 C14 1_555 1_555
H12 C14 1_555 1_555
C15 C14 1_555 1_555
C16 C15 1_555 1_555
H13 C16 1_555 1_555
C17 C16 1_555 1_555
H14 C17 1_555 1_555
C18 C17 1_555 1_555
H15 C18 1_555 1_555
C19 C18 1_555 1_555
H16 C19 1_555 1_555
C20 C15 1_555 1_555
H17 C20 1_555 1_555
C21 C11 1_555 1_555
H18 C21 1_555 1_555
H19 C21 1_555 1_555
H20 C21 1_555 1_555
C22 N3 1_555 1_555
H21 C22 1_555 1_555
H22 C22 1_555 1_555
C23 C22 1_555 1_555
C24 C23 1_555 1_555
H23 C24 1_555 1_555
C25 C24 1_555 1_555
H24 C25 1_555 1_555
C26 C25 1_555 1_555
H25 C26 1_555 1_555
C27 C26 1_555 1_555
H26 C27 1_555 1_555
C28 C23 1_555 1_555
H27 C28 1_555 1_555
N1 C8 1_555 1_555
C6 C7 1_555 1_555
C7 C8 1_555 1_555
C12 C13 1_555 1_555
C19 C20 1_555 1_555
C27 C28 1_555 1_555

#END
