
#######################################################################
#
#                 Cambridge Crystallographic Data Centre
#                                CCDC 
#
#######################################################################
#
# If this CIF has been generated from an entry in the Cambridge 
# Structural Database, then it will include bibliographic, chemical, 
# crystal, experimental, refinement or atomic coordinate data resulting 
# from the CCDC's data processing and validation procedures.
#
#######################################################################

data_UKUYOQ
_chemical_formula_moiety         'C17 H13 Cl1 N2 O1'
_chemical_name_systematic        
(2R,4S)-4-chloro-5-oxo-1,2-diphenylpyrrolidine-2-carbonitrile
_symmetry_cell_setting           monoclinic
_symmetry_space_group_name_H-M   'P 21/n'
_symmetry_Int_Tables_number      14
_space_group_name_Hall           '-P 2yn'
loop_
_symmetry_equiv_pos_site_id
_symmetry_equiv_pos_as_xyz
1 x,y,z
2 1/2-x,1/2+y,1/2-z
3 -x,-y,-z
4 1/2+x,1/2-y,1/2+z
_cell_length_a                   8.7739(18)
_cell_length_b                   17.491(4)
_cell_length_c                   9.3500(19)
_cell_angle_alpha                90
_cell_angle_beta                 90.34(3)
_cell_angle_gamma                90
_cell_volume                     1434.87
_exptl_crystal_colour            'light brown'
_exptl_crystal_description       prism
_cell_formula_units_Z            4
loop_
_atom_site_label
_atom_site_type_symbol
_atom_site_fract_x
_atom_site_fract_y
_atom_site_fract_z
N1 N 0.33859(16) 0.27341(9) 0.05332(17)
C1 C 0.1867(2) 0.25251(12) -0.0028(2)
C2 C 0.2276(3) 0.19993(14) -0.1310(2)
H1 H 0.142(3) 0.1648(16) -0.150(3)
H2 H 0.231(3) 0.2289(16) -0.212(3)
C3 C 0.3853(3) 0.17049(13) -0.0986(2)
H3 H 0.446(3) 0.1629(17) -0.182(3)
C4 C 0.4547(2) 0.22853(12) 0.0051(2)
O1 O 0.58729(16) 0.23457(11) 0.03807(19)
Cl1 Cl 0.38383(11) 0.08091(4) -0.01275(9)
C5 C 0.1031(2) 0.20842(14) 0.1094(2)
N2 N 0.0389(3) 0.17510(15) 0.1937(3)
C6 C 0.36323(19) 0.33600(10) 0.14963(19)
C7 C 0.4533(3) 0.39616(14) 0.1050(2)
H4 H 0.4976 0.3954 0.0149
C8 C 0.4771(3) 0.45785(13) 0.1965(3)
H5 H 0.5388 0.4982 0.1680
C9 C 0.4099(3) 0.45940(14) 0.3285(3)
H6 H 0.4241 0.5013 0.3882
C10 C 0.3217(3) 0.39902(16) 0.3726(2)
H7 H 0.2768 0.4003 0.4624
C11 C 0.2989(2) 0.33630(12) 0.2846(2)
H8 H 0.2413 0.2950 0.3157
C12 C 0.0950(2) 0.32207(13) -0.0503(2)
C13 C -0.0566(3) 0.33154(18) -0.0156(3)
H9 H -0.1059 0.2956 0.0409
C14 C -0.1352(3) 0.3958(2) -0.0663(4)
H10 H -0.2376 0.4021 -0.0442
C15 C -0.0634(4) 0.4492(2) -0.1475(4)
H11 H -0.1163 0.4922 -0.1787
C16 C 0.0869(4) 0.43991(19) -0.1836(3)
H12 H 0.1357 0.4763 -0.2395
C17 C 0.1655(3) 0.37597(15) -0.1362(3)
H13 H 0.2667 0.3691 -0.1622
loop_
_geom_bond_atom_site_label_1
_geom_bond_atom_site_label_2
_geom_bond_site_symmetry_1
_geom_bond_site_symmetry_2
N1 C1 1_555 1_555
C1 C2 1_555 1_555
C2 H1 1_555 1_555
H2 C2 1_555 1_555
C3 C2 1_555 1_555
H3 C3 1_555 1_555
C4 N1 1_555 1_555
O1 C4 1_555 1_555
Cl1 C3 1_555 1_555
C5 C1 1_555 1_555
N2 C5 1_555 1_555
C6 N1 1_555 1_555
C7 C6 1_555 1_555
H4 C7 1_555 1_555
C8 C7 1_555 1_555
H5 C8 1_555 1_555
C9 C8 1_555 1_555
H6 C9 1_555 1_555
C10 C9 1_555 1_555
H7 C10 1_555 1_555
C11 C6 1_555 1_555
H8 C11 1_555 1_555
C12 C1 1_555 1_555
C13 C12 1_555 1_555
H9 C13 1_555 1_555
C14 C13 1_555 1_555
H10 C14 1_555 1_555
C15 C14 1_555 1_555
H11 C15 1_555 1_555
C16 C15 1_555 1_555
H12 C16 1_555 1_555
C17 C12 1_555 1_555
H13 C17 1_555 1_555
C3 C4 1_555 1_555
C10 C11 1_555 1_555
C16 C17 1_555 1_555

#END
