
#######################################################################
#
#                 Cambridge Crystallographic Data Centre
#                                CCDC 
#
#######################################################################
#
# If this CIF has been generated from an entry in the Cambridge 
# Structural Database, then it will include bibliographic, chemical, 
# crystal, experimental, refinement or atomic coordinate data resulting 
# from the CCDC's data processing and validation procedures.
#
#######################################################################

data_UKUYUW
_chemical_formula_moiety         'C25 H21 Cl1 N2 O2'
_chemical_name_systematic        
(2S,4R)-1-benzoyl-2-(4-(benzyloxy)phenyl)-4-chloropyrrolidine-2-carbonitrile
_symmetry_cell_setting           monoclinic
_symmetry_space_group_name_H-M   'C 2/c'
_symmetry_Int_Tables_number      15
_space_group_name_Hall           '-C 2yn'
loop_
_symmetry_equiv_pos_site_id
_symmetry_equiv_pos_as_xyz
1 x,y,z
2 -x,y,1/2-z
3 1/2+x,1/2+y,z
4 1/2-x,1/2+y,1/2-z
5 -x,-y,-z
6 x,-y,1/2+z
7 1/2-x,1/2-y,-z
8 1/2+x,1/2-y,1/2+z
_cell_length_a                   34.487(7)
_cell_length_b                   6.1660(12)
_cell_length_c                   23.843(5)
_cell_angle_alpha                90
_cell_angle_beta                 123.14(3)
_cell_angle_gamma                90
_cell_volume                     4245.42
_exptl_crystal_colour            colorless
_exptl_crystal_description       prism
_cell_formula_units_Z            8
loop_
_atom_site_label
_atom_site_type_symbol
_atom_site_fract_x
_atom_site_fract_y
_atom_site_fract_z
Cl1 Cl 0.06573(2) 0.81846(12) 0.23964(3)
N1 N 0.09640(5) 0.6722(3) 0.38866(8)
C1 C 0.14290(6) 0.6900(3) 0.39897(10)
C2 C 0.13997(7) 0.9093(4) 0.36521(11)
H1 H 0.1512(7) 1.017(4) 0.3978(10)
H2 H 0.1578(7) 0.901(4) 0.3418(10)
C3 C 0.08866(7) 0.9551(4) 0.31817(11)
H3 H 0.0811(7) 1.106(4) 0.3047(11)
C4 C 0.06770(7) 0.8638(4) 0.35441(12)
H4 H 0.0733(7) 0.969(4) 0.3889(10)
H5 H 0.0366(8) 0.822(4) 0.3247(11)
C5 C 0.14910(7) 0.5147(4) 0.36182(10)
N2 N 0.15545(7) 0.3903(3) 0.33227(10)
C6 C 0.08273(7) 0.4902(4) 0.40444(10)
O1 O 0.10658(5) 0.3252(2) 0.42281(7)
C7 C 0.03774(7) 0.4999(4) 0.39997(10)
C8 C 0.02965(9) 0.6561(5) 0.43367(13)
H6 H 0.0509(9) 0.760(5) 0.4578(13)
C9 C -0.01195(11) 0.6585(6) 0.42994(16)
H7 H -0.0158(10) 0.761(5) 0.4547(14)
C10 C -0.04517(10) 0.5087(6) 0.39233(17)
H8 H -0.0732(11) 0.514(5) 0.3884(14)
C11 C -0.03758(9) 0.3524(5) 0.35887(18)
H9 H -0.0613(12) 0.253(6) 0.3316(16)
C12 C 0.00407(8) 0.3463(4) 0.36304(14)
H10 H 0.0096(9) 0.237(5) 0.3385(13)
C13 C 0.18094(6) 0.6813(3) 0.47374(10)
C14 C 0.18414(8) 0.8482(4) 0.51467(11)
H11 H 0.1634(7) 0.970(4) 0.4961(10)
C15 C 0.21648(8) 0.8448(4) 0.58306(12)
H12 H 0.2180(8) 0.959(5) 0.6084(12)
C16 C 0.24586(7) 0.6689(4) 0.61147(10)
C17 C 0.24303(7) 0.5006(4) 0.57110(11)
H13 H 0.2637(8) 0.372(4) 0.5936(10)
C18 C 0.21093(7) 0.5075(4) 0.50289(11)
H14 H 0.2095(8) 0.393(4) 0.4779(12)
O2 O 0.27848(5) 0.6451(3) 0.67864(7)
C19 C 0.28270(9) 0.8144(5) 0.72218(12)
H15 H 0.2528(8) 0.848(4) 0.7154(11)
H16 H 0.2936(11) 0.945(6) 0.7114(16)
C20 C 0.31728(8) 0.7473(5) 0.79379(11)
C21 C 0.32291(10) 0.8830(5) 0.84376(13)
H17 H 0.3044(10) 1.012(5) 0.8309(14)
C22 C 0.35372(10) 0.8355(6) 0.91026(13)
H18 H 0.3576(10) 0.919(5) 0.9437(15)
C23 C 0.38000(9) 0.6512(6) 0.92804(13)
H19 H 0.4009(8) 0.627(4) 0.9732(13)
C24 C 0.37482(10) 0.5151(6) 0.87917(15)
H20 H 0.3913(10) 0.385(5) 0.8879(15)
C25 C 0.34359(10) 0.5628(5) 0.81159(13)
H21 H 0.3379(11) 0.463(6) 0.7773(16)
loop_
_geom_bond_atom_site_label_1
_geom_bond_atom_site_label_2
_geom_bond_site_symmetry_1
_geom_bond_site_symmetry_2
Cl1 C3 1_555 1_555
N1 C1 1_555 1_555
C1 C2 1_555 1_555
C2 H1 1_555 1_555
H2 C2 1_555 1_555
C3 C2 1_555 1_555
H3 C3 1_555 1_555
C4 N1 1_555 1_555
H4 C4 1_555 1_555
H5 C4 1_555 1_555
C5 C1 1_555 1_555
N2 C5 1_555 1_555
C6 N1 1_555 1_555
O1 C6 1_555 1_555
C7 C6 1_555 1_555
C8 C7 1_555 1_555
H6 C8 1_555 1_555
C9 C8 1_555 1_555
H7 C9 1_555 1_555
C10 C9 1_555 1_555
H8 C10 1_555 1_555
C11 C10 1_555 1_555
H9 C11 1_555 1_555
C12 C7 1_555 1_555
H10 C12 1_555 1_555
C13 C1 1_555 1_555
C14 C13 1_555 1_555
H11 C14 1_555 1_555
C15 C14 1_555 1_555
H12 C15 1_555 1_555
C16 C15 1_555 1_555
C17 C16 1_555 1_555
H13 C17 1_555 1_555
C18 C13 1_555 1_555
H14 C18 1_555 1_555
O2 C16 1_555 1_555
C19 O2 1_555 1_555
H15 C19 1_555 1_555
H16 C19 1_555 1_555
C20 C19 1_555 1_555
C21 C20 1_555 1_555
H17 C21 1_555 1_555
C22 C21 1_555 1_555
H18 C22 1_555 1_555
C23 C22 1_555 1_555
H19 C23 1_555 1_555
C24 C23 1_555 1_555
H20 C24 1_555 1_555
C25 C20 1_555 1_555
H21 C25 1_555 1_555
C3 C4 1_555 1_555
C11 C12 1_555 1_555
C17 C18 1_555 1_555
C24 C25 1_555 1_555

#END
