
#######################################################################
#
#                 Cambridge Crystallographic Data Centre
#                                CCDC 
#
#######################################################################
#
# If this CIF has been generated from an entry in the Cambridge 
# Structural Database, then it will include bibliographic, chemical, 
# crystal, experimental, refinement or atomic coordinate data resulting 
# from the CCDC's data processing and validation procedures.
#
#######################################################################

data_ULADIW
_chemical_formula_moiety         'C21 H30 O2'
_chemical_name_systematic        Pregn-16-ene-3,20-dione
_symmetry_cell_setting           orthorhombic
_symmetry_space_group_name_H-M   'P 21 21 21'
_symmetry_Int_Tables_number      19
_space_group_name_Hall           'P 2ac 2ab'
loop_
_symmetry_equiv_pos_site_id
_symmetry_equiv_pos_as_xyz
1 x,y,z
2 1/2-x,-y,1/2+z
3 1/2+x,1/2-y,-z
4 -x,1/2+y,1/2-z
_cell_length_a                   24.1661(11)
_cell_length_b                   11.6378(9)
_cell_length_c                   6.3676(3)
_cell_angle_alpha                90
_cell_angle_beta                 90
_cell_angle_gamma                90
_cell_volume                     1790.83
_cell_formula_units_Z            4
loop_
_atom_site_label
_atom_site_type_symbol
_atom_site_fract_x
_atom_site_fract_y
_atom_site_fract_z
C1 C 0.73609(16) 0.3833(5) 0.5274(8)
H1 H 0.7486 0.3998 0.3875
H2 H 0.7282 0.3027 0.5397
H3 H 0.7644 0.4040 0.6262
C2 C 0.68468(14) 0.4511(4) 0.5723(6)
C3 C 0.64670(12) 0.4101(4) 0.7360(5)
C4 C 0.65815(14) 0.3314(4) 0.8855(6)
H4 H 0.6912 0.2907 0.8922
C5 C 0.61199(13) 0.3169(4) 1.0386(6)
H5 H 0.6182 0.3608 1.1659
H6 H 0.6061 0.2368 1.0741
C6 C 0.56376(12) 0.3659(3) 0.9096(5)
H7 H 0.5553 0.3065 0.8053
C7 C 0.60185(13) 0.5717(3) 0.9172(6)
H8 H 0.6213 0.5503 1.0428
H9 H 0.5673 0.6069 0.9541
H10 H 0.6238 0.6251 0.8383
C8 C 0.59090(12) 0.4642(3) 0.7837(4)
C9 C 0.55228(11) 0.4923(3) 0.6005(5)
H11 H 0.5670 0.5567 0.5218
H12 H 0.5500 0.4267 0.5068
C10 C 0.49460(12) 0.5219(4) 0.6816(5)
H13 H 0.4702 0.5327 0.5621
H14 H 0.4965 0.5945 0.7562
C11 C 0.46900(11) 0.4319(3) 0.8273(4)
H15 H 0.4648 0.3627 0.7410
C12 C 0.50831(12) 0.3971(3) 1.0069(4)
H16 H 0.5136 0.4636 1.0993
C13 C 0.48454(14) 0.2992(3) 1.1356(5)
H17 H 0.5076 0.2873 1.2585
H18 H 0.4856 0.2293 1.0525
C14 C 0.42510(15) 0.3209(4) 1.2063(6)
H19 H 0.4105 0.2519 1.2716
H20 H 0.4247 0.3818 1.3103
C15 C 0.38865(13) 0.3543(3) 1.0239(5)
H21 H 0.3906 0.2905 0.9238
C16 C 0.41043(16) 0.5681(3) 1.0466(6)
H22 H 0.3745 0.5784 1.1084
H23 H 0.4195 0.6342 0.9632
H24 H 0.4375 0.5589 1.1556
C17 C 0.40998(12) 0.4604(3) 0.9063(5)
C18 C 0.37165(13) 0.4803(5) 0.7200(5)
H25 H 0.3754 0.4163 0.6233
H26 H 0.3834 0.5492 0.6470
C19 C 0.31067(14) 0.4929(6) 0.7788(7)
H27 H 0.3055 0.5641 0.8556
H28 H 0.2886 0.4970 0.6518
C20 C 0.29112(15) 0.3948(5) 0.9100(7)
C21 C 0.32724(14) 0.3641(4) 1.0885(6)
H29 H 0.3151 0.2913 1.1468
H30 H 0.3236 0.4220 1.1972
O1 O 0.67421(11) 0.5376(3) 0.4720(5)
O2 O 0.24778(11) 0.3465(4) 0.8751(6)
loop_
_geom_bond_atom_site_label_1
_geom_bond_atom_site_label_2
_geom_bond_site_symmetry_1
_geom_bond_site_symmetry_2
C1 H1 1_555 1_555
H2 C1 1_555 1_555
H3 C1 1_555 1_555
C2 C1 1_555 1_555
C3 C2 1_555 1_555
C4 C3 1_555 1_555
H4 C4 1_555 1_555
C5 C4 1_555 1_555
H5 C5 1_555 1_555
H6 C5 1_555 1_555
C6 C5 1_555 1_555
H7 C6 1_555 1_555
C7 H8 1_555 1_555
H9 C7 1_555 1_555
H10 C7 1_555 1_555
C8 C3 1_555 1_555
C9 C8 1_555 1_555
H11 C9 1_555 1_555
H12 C9 1_555 1_555
C10 C9 1_555 1_555
H13 C10 1_555 1_555
H14 C10 1_555 1_555
C11 C10 1_555 1_555
H15 C11 1_555 1_555
C12 C6 1_555 1_555
H16 C12 1_555 1_555
C13 C12 1_555 1_555
H17 C13 1_555 1_555
H18 C13 1_555 1_555
C14 C13 1_555 1_555
H19 C14 1_555 1_555
H20 C14 1_555 1_555
C15 C14 1_555 1_555
H21 C15 1_555 1_555
C16 H22 1_555 1_555
H23 C16 1_555 1_555
H24 C16 1_555 1_555
C17 C11 1_555 1_555
C18 C17 1_555 1_555
H25 C18 1_555 1_555
H26 C18 1_555 1_555
C19 C18 1_555 1_555
H27 C19 1_555 1_555
H28 C19 1_555 1_555
C20 C19 1_555 1_555
C21 C15 1_555 1_555
H29 C21 1_555 1_555
H30 C21 1_555 1_555
O1 C2 1_555 1_555
O2 C20 1_555 1_555
C6 C8 1_555 1_555
C7 C8 1_555 1_555
C11 C12 1_555 1_555
C15 C17 1_555 1_555
C16 C17 1_555 1_555
C20 C21 1_555 1_555

#END
