
#######################################################################
#
#                 Cambridge Crystallographic Data Centre
#                                CCDC 
#
#######################################################################
#
# If this CIF has been generated from an entry in the Cambridge 
# Structural Database, then it will include bibliographic, chemical, 
# crystal, experimental, refinement or atomic coordinate data resulting 
# from the CCDC's data processing and validation procedures.
#
#######################################################################

data_ULADAO
_chemical_formula_moiety         'C21 H28 O3'
_chemical_name_systematic        
'Methyl 3-oxoandrosta-4,6-diene-17\b-carboxylate'
_symmetry_cell_setting           monoclinic
_symmetry_space_group_name_H-M   'P 21'
_symmetry_Int_Tables_number      4
_space_group_name_Hall           'P 2yb'
loop_
_symmetry_equiv_pos_site_id
_symmetry_equiv_pos_as_xyz
1 x,y,z
2 -x,1/2+y,-z
_cell_length_a                   6.111(2)
_cell_length_b                   12.841(5)
_cell_length_c                   11.412(4)
_cell_angle_alpha                90
_cell_angle_beta                 95.307(11)
_cell_angle_gamma                90
_cell_volume                     891.676
_cell_formula_units_Z            2
loop_
_atom_site_label
_atom_site_type_symbol
_atom_site_fract_x
_atom_site_fract_y
_atom_site_fract_z
C1 C 0.1517(2) 0.81451(11) 0.70540(12)
H1 H 0.0470 0.7656 0.6652
C2 C 0.2713(2) 0.66942(11) 0.84163(13)
H2 H 0.1545 0.6287 0.7984
C3 C 0.1686(2) 0.72189(11) 0.94497(12)
C4 C 0.3111(3) 0.83051(12) 0.51305(14)
C5 C 0.3496(2) 0.74891(11) 0.75520(12)
H3 H 0.4546 0.7955 0.7989
C6 C 0.0095(3) 0.95052(14) 0.55678(14)
H4 H -0.1070 0.9006 0.5366
H5 H -0.0401 0.9973 0.6156
C7 C 0.0332(3) 0.86422(13) 0.80425(14)
H6 H 0.1283 0.9162 0.8440
H7 H -0.0982 0.8993 0.7701
C8 C 0.1177(2) 0.62392(12) 1.01692(13)
H8 H -0.0114 0.5893 0.9772
C9 C 0.1590(3) 0.95165(15) 0.35778(15)
C10 C 0.0496(3) 1.01317(16) 0.44718(16)
H9 H -0.0900 1.0390 0.4113
H10 H 0.1405 1.0729 0.4705
C11 C 0.4613(3) 0.70120(13) 0.65699(15)
H11 H 0.5482 0.6425 0.6728
C12 C 0.2848(3) 0.86098(15) 0.40001(14)
H12 H 0.3516 0.8214 0.3451
C13 C 0.4341(3) 0.59124(15) 0.90161(16)
H13 H 0.5731 0.6245 0.9266
H14 H 0.4603 0.5341 0.8491
C14 C 0.4415(3) 0.73930(14) 0.54771(16)
H15 H 0.5151 0.7056 0.4908
C15 C 0.3196(3) 0.55280(15) 1.00822(18)
H16 H 0.4187 0.5576 1.0795
H17 H 0.2739 0.4809 0.9971
O1 O 0.1938(2) 0.63741(12) 1.22784(10)
C16 C 0.2150(2) 0.89191(11) 0.61022(12)
O2 O -0.13077(18) 0.68831(12) 1.14247(10)
C17 C 0.0712(3) 0.64814(13) 1.14080(14)
C18 C 0.3305(3) 0.79235(14) 1.01893(15)
H18 H 0.3796 0.8470 0.9703
H19 H 0.4545 0.7519 1.0504
H20 H 0.2588 0.8221 1.0824
C19 C -0.0310(2) 0.78430(14) 0.89446(14)
H21 H -0.0956 0.8199 0.9578
H22 H -0.1404 0.7372 0.8572
O3 O 0.1465(3) 0.97758(14) 0.25465(12)
C20 C 0.3907(3) 0.96926(14) 0.66108(16)
H23 H 0.5204 0.9318 0.6903
H24 H 0.3354 1.0077 0.7242
H25 H 0.4261 1.0166 0.6005
C21 C -0.1924(4) 0.7290(2) 1.25193(16)
H26 H -0.0926 0.7036 1.3154
H27 H -0.3390 0.7069 1.2633
H28 H -0.1869 0.8037 1.2502
loop_
_geom_bond_atom_site_label_1
_geom_bond_atom_site_label_2
_geom_bond_site_symmetry_1
_geom_bond_site_symmetry_2
C1 H1 1_555 1_555
C2 H2 1_555 1_555
C3 C2 1_555 1_555
C4 C12 1_555 1_555
C5 C1 1_555 1_555
H3 C5 1_555 1_555
C6 H4 1_555 1_555
H5 C6 1_555 1_555
C7 C1 1_555 1_555
H6 C7 1_555 1_555
H7 C7 1_555 1_555
C8 C3 1_555 1_555
H8 C8 1_555 1_555
C9 C10 1_555 1_555
C10 C6 1_555 1_555
H9 C10 1_555 1_555
H10 C10 1_555 1_555
C11 C5 1_555 1_555
H11 C11 1_555 1_555
C12 C9 1_555 1_555
H12 C12 1_555 1_555
C13 C2 1_555 1_555
H13 C13 1_555 1_555
H14 C13 1_555 1_555
C14 C4 1_555 1_555
H15 C14 1_555 1_555
C15 C8 1_555 1_555
H16 C15 1_555 1_555
H17 C15 1_555 1_555
O1 C17 1_555 1_555
C16 C1 1_555 1_555
O2 C17 1_555 1_555
C17 C8 1_555 1_555
C18 C3 1_555 1_555
H18 C18 1_555 1_555
H19 C18 1_555 1_555
H20 C18 1_555 1_555
C19 C3 1_555 1_555
H21 C19 1_555 1_555
H22 C19 1_555 1_555
O3 C9 1_555 1_555
C20 C16 1_555 1_555
H23 C20 1_555 1_555
H24 C20 1_555 1_555
H25 C20 1_555 1_555
C21 O2 1_555 1_555
H26 C21 1_555 1_555
H27 C21 1_555 1_555
H28 C21 1_555 1_555
C2 C5 1_555 1_555
C4 C16 1_555 1_555
C6 C16 1_555 1_555
C7 C19 1_555 1_555
C11 C14 1_555 1_555
C13 C15 1_555 1_555

#END
