
#######################################################################
#
#                 Cambridge Crystallographic Data Centre
#                                CCDC 
#
#######################################################################
#
# If this CIF has been generated from an entry in the Cambridge 
# Structural Database, then it will include bibliographic, chemical, 
# crystal, experimental, refinement or atomic coordinate data resulting 
# from the CCDC's data processing and validation procedures.
#
#######################################################################

data_ULAFOE
_chemical_formula_moiety         'C22 H19 N1 O4 S1'
_chemical_name_systematic        
4-Methyl-N-(7-oxocyclohepta-1,3,5-trien-1-yl)-N-(2-oxo-2-phenylethyl)benzenesulfonamide
_symmetry_cell_setting           orthorhombic
_symmetry_space_group_name_H-M   'P b c a'
_symmetry_Int_Tables_number      61
_space_group_name_Hall           '-P 2ac 2ab'
loop_
_symmetry_equiv_pos_site_id
_symmetry_equiv_pos_as_xyz
1 x,y,z
2 1/2-x,-y,1/2+z
3 -x,1/2+y,1/2-z
4 1/2+x,1/2-y,-z
5 -x,-y,-z
6 1/2+x,y,1/2-z
7 x,1/2-y,1/2+z
8 1/2-x,1/2+y,z
_cell_length_a                   15.8432(5)
_cell_length_b                   11.8795(4)
_cell_length_c                   20.2058(6)
_cell_angle_alpha                90
_cell_angle_beta                 90
_cell_angle_gamma                90
_cell_volume                     3802.92
_exptl_crystal_colour            colorless
_exptl_crystal_description       plate
_cell_formula_units_Z            8
loop_
_atom_site_label
_atom_site_type_symbol
_atom_site_fract_x
_atom_site_fract_y
_atom_site_fract_z
C1 C 0.02516(16) -0.2346(2) 0.23462(14)
H1 H -0.0249 -0.2652 0.2147
H2 H 0.0114 -0.2037 0.2772
H3 H 0.0664 -0.2932 0.2398
C2 C 0.06049(13) -0.14340(18) 0.19095(11)
C3 C 0.04534(14) -0.03122(19) 0.20489(10)
H4 H 0.0112 -0.0126 0.2407
C4 C 0.07963(14) 0.05355(17) 0.16695(10)
H5 H 0.0691 0.1285 0.1772
C5 C 0.13009(11) 0.02596(15) 0.11325(9)
C6 C 0.14416(12) -0.08599(15) 0.09718(10)
H6 H 0.1766 -0.1049 0.0605
C7 C 0.10941(13) -0.16894(17) 0.13638(11)
H7 H 0.1192 -0.244 0.1258
C8 C 0.05608(11) 0.28222(15) 0.04352(9)
C9 C 0.09338(13) 0.38313(15) 0.05390(9)
H8 H 0.1502 0.3856 0.0424
C10 C 0.06094(14) 0.48606(17) 0.07927(10)
H9 H 0.1002 0.5433 0.0854
C11 C -0.01942(15) 0.51158(18) 0.09564(11)
H10 H -0.0287 0.5839 0.1116
C12 C -0.09104(15) 0.4412(2) 0.09130(12)
H11 H -0.1419 0.4749 0.1031
C13 C -0.09676(14) 0.33236(19) 0.07256(11)
H12 H -0.1516 0.3043 0.0724
C14 C -0.03311(12) 0.25085(16) 0.05258(9)
C15 C 0.09029(12) 0.13273(16) -0.04116(9)
H13 H 0.0311 0.1422 -0.052
H14 H 0.1009 0.053 -0.0351
C16 C 0.14393(13) 0.17655(16) -0.09777(10)
C17 C 0.16743(11) 0.09866(15) -0.15218(9)
C18 C 0.17404(11) -0.01720(16) -0.14254(10)
H15 H 0.164 -0.0477 -0.1009
C19 C 0.19545(13) -0.08664(18) -0.19457(11)
H16 H 0.2001 -0.1638 -0.1878
C20 C 0.21003(14) -0.0424(2) -0.25666(11)
H17 H 0.2239 -0.0898 -0.2916
C21 C 0.20401(14) 0.0722(2) -0.26685(10)
H18 H 0.2136 0.1021 -0.3087
C22 C 0.18372(12) 0.14255(18) -0.21481(10)
H19 H 0.1809 0.2199 -0.2216
N1 N 0.10928(9) 0.19290(12) 0.02062(7)
O1 O 0.24073(9) 0.08421(13) 0.02620(8)
O2 O 0.20447(9) 0.21807(11) 0.11592(7)
O3 O -0.05499(9) 0.15257(12) 0.04211(7)
O4 O 0.16313(11) 0.27553(12) -0.09919(8)
S1 S 0.17951(3) 0.13491(4) 0.06895(2)
loop_
_geom_bond_atom_site_label_1
_geom_bond_atom_site_label_2
_geom_bond_site_symmetry_1
_geom_bond_site_symmetry_2
C1 H1 1_555 1_555
H2 C1 1_555 1_555
H3 C1 1_555 1_555
C2 C1 1_555 1_555
C3 C2 1_555 1_555
H4 C3 1_555 1_555
C4 C3 1_555 1_555
H5 C4 1_555 1_555
C5 C4 1_555 1_555
C6 C5 1_555 1_555
H6 C6 1_555 1_555
C7 C2 1_555 1_555
H7 C7 1_555 1_555
C8 C9 1_555 1_555
C9 H8 1_555 1_555
C10 C9 1_555 1_555
H9 C10 1_555 1_555
C11 C10 1_555 1_555
H10 C11 1_555 1_555
C12 C11 1_555 1_555
H11 C12 1_555 1_555
C13 C12 1_555 1_555
H12 C13 1_555 1_555
C14 C8 1_555 1_555
C15 H13 1_555 1_555
H14 C15 1_555 1_555
C16 C15 1_555 1_555
C17 C16 1_555 1_555
C18 C17 1_555 1_555
H15 C18 1_555 1_555
C19 C18 1_555 1_555
H16 C19 1_555 1_555
C20 C19 1_555 1_555
H17 C20 1_555 1_555
C21 C20 1_555 1_555
H18 C21 1_555 1_555
C22 C17 1_555 1_555
H19 C22 1_555 1_555
N1 C8 1_555 1_555
O1 S1 1_555 1_555
O2 S1 1_555 1_555
O3 C14 1_555 1_555
O4 C16 1_555 1_555
S1 C5 1_555 1_555
C6 C7 1_555 1_555
C13 C14 1_555 1_555
C15 N1 1_555 1_555
C21 C22 1_555 1_555
N1 S1 1_555 1_555

#END
