
#######################################################################
#
#                 Cambridge Crystallographic Data Centre
#                                CCDC 
#
#######################################################################
#
# If this CIF has been generated from an entry in the Cambridge 
# Structural Database, then it will include bibliographic, chemical, 
# crystal, experimental, refinement or atomic coordinate data resulting 
# from the CCDC's data processing and validation procedures.
#
#######################################################################

data_ULAFIY
_chemical_formula_moiety         'C22 H19 N1 O4 S1,0.25(C2 H6 O1)'
_chemical_name_systematic        
'4-Methyl-N-(2-((7-oxocyclohepta-1,3,5-trien-1-yl)oxy)-2-phenylvinyl)benzenesulfonamide ethanol solvate'
_symmetry_cell_setting           monoclinic
_symmetry_space_group_name_H-M   'C c'
_symmetry_Int_Tables_number      9
_space_group_name_Hall           'C -2yc'
loop_
_symmetry_equiv_pos_site_id
_symmetry_equiv_pos_as_xyz
1 x,y,z
2 x,-y,1/2+z
3 1/2+x,1/2+y,z
4 1/2+x,1/2-y,1/2+z
_cell_length_a                   11.7501(6)
_cell_length_b                   18.4227(9)
_cell_length_c                   21.4695(13)
_cell_angle_alpha                90
_cell_angle_beta                 98.528(3)
_cell_angle_gamma                90
_cell_volume                     4596.09
_exptl_crystal_colour            colorless
_exptl_crystal_description       block
_cell_formula_units_Z            8
loop_
_atom_site_label
_atom_site_type_symbol
_atom_site_fract_x
_atom_site_fract_y
_atom_site_fract_z
C1 C 0.2080(15) 0.3356(9) 0.3805(9)
H1 H 0.2794 0.3493 0.3671
H2 H 0.2218 0.3214 0.424
H3 H 0.1559 0.376 0.3754
C2 C 0.1568(11) 0.2737(7) 0.3417(6)
C3 C 0.1828(12) 0.2036(8) 0.3604(6)
H4 H 0.2314 0.1953 0.3981
C4 C 0.1376(12) 0.1443(6) 0.3240(6)
H5 H 0.1552 0.0969 0.3371
C5 C 0.0672(11) 0.1579(6) 0.2688(6)
C6 C 0.0404(11) 0.2271(6) 0.2488(6)
H6 H -0.0082 0.2351 0.2111
C7 C 0.0851(13) 0.2841(7) 0.2843(7)
H7 H 0.0677 0.3311 0.2701
C8 C 0.2266(10) 0.0560(5) 0.1949(5)
H8 H 0.2336 0.0205 0.226
C9 C 0.3235(10) 0.0810(5) 0.1774(5)
C10 C 0.4402(9) 0.0572(5) 0.2001(5)
C11 C 0.4691(12) 0.0320(6) 0.2621(6)
H9 H 0.4141 0.0327 0.2891
C12 C 0.5769(13) 0.0066(9) 0.2831(8)
H10 H 0.5967 -0.0089 0.3245
C13 C 0.6565(13) 0.0043(10) 0.2414(10)
H11 H 0.7289 -0.015 0.2555
C14 C 0.6350(13) 0.0282(8) 0.1827(10)
H12 H 0.6909 0.0266 0.1563
C15 C 0.5239(11) 0.0561(7) 0.1614(6)
H13 H 0.507 0.074 0.1205
C16 C 0.3383(9) 0.2040(5) 0.1418(5)
C17 C 0.3448(10) 0.2425(7) 0.0825(6)
C18 C 0.3732(14) 0.3163(8) 0.0816(8)
H14 H 0.384 0.334 0.0424
C19 C 0.3879(15) 0.3675(9) 0.1298(12)
H15 H 0.4018 0.4143 0.1165
C20 C 0.3856(12) 0.3619(6) 0.1916(8)
H16 H 0.3979 0.4043 0.2152
C21 C 0.3680(13) 0.3030(7) 0.2219(8)
H17 H 0.3703 0.3097 0.2651
C22 C 0.3457(10) 0.2303(5) 0.2018(6)
H18 H 0.335 0.1968 0.2329
N1 N 0.1152(8) 0.0785(4) 0.1703(5)
H19 H 0.097 0.0893 0.1312
O1 O -0.0853(8) 0.1006(5) 0.1819(5)
O2 O 0.0325(8) 0.0185(4) 0.2562(5)
O3 O 0.3134(7) 0.1316(3) 0.1279(4)
O4 O 0.3319(9) 0.2071(4) 0.0326(5)
S1 S 0.0210(5) 0.08335(15) 0.2189(3)
C23 C 0.1905(18) 0.2858(10) 0.7502(10)
H20 H 0.2501 0.3039 0.7283
H21 H 0.1596 0.325 0.772
H22 H 0.1304 0.2648 0.7205
C24 C 0.2404(13) 0.2280(8) 0.7978(6)
C25 C 0.2036(13) 0.1603(9) 0.7905(6)
H23 H 0.1486 0.1494 0.756
C26 C 0.2438(12) 0.1033(7) 0.8327(6)
H24 H 0.2134 0.0566 0.828
C27 C 0.3303(10) 0.1209(5) 0.8810(5)
C28 C 0.3704(12) 0.1893(8) 0.8890(6)
H25 H 0.4281 0.2003 0.9222
C29 C 0.3240(13) 0.2449(7) 0.8463(7)
H26 H 0.3508 0.2923 0.8517
C30 C 0.1795(10) 0.0279(6) 0.9729(5)
H27 H 0.1738 -0.0152 0.9502
C31 C 0.0846(10) 0.0563(5) 0.9871(5)
C32 C -0.0292(10) 0.0234(6) 0.9720(6)
C33 C -0.0591(12) -0.0162(9) 0.9168(7)
H28 H -0.0039 -0.0243 0.8907
C34 C -0.169(2) -0.0440(9) 0.8997(11)
H29 H -0.1905 -0.0669 0.8611
C35 C -0.247(2) -0.0357(10) 0.9440(15)
H30 H -0.3192 -0.0571 0.9364
C36 C -0.2168(14) 0.0020(10) 0.9955(9)
H31 H -0.27 0.0062 1.0233
C37 C -0.1120(12) 0.0359(8) 1.0114(7)
H32 H -0.0971 0.0656 1.0466
C38 C 0.0651(9) 0.1834(5) 1.0001(5)
C39 C 0.0568(9) 0.2368(6) 1.0496(6)
C40 C 0.0319(14) 0.3095(8) 1.0379(8)
H33 H 0.0311 0.3364 1.0745
C41 C 0.0086(14) 0.3502(6) 0.9852(7)
H34 H -0.0043 0.3993 0.991
C42 C 0.0014(12) 0.3258(8) 0.9208(7)
H35 H -0.0175 0.3608 0.8898
C43 C 0.0188(12) 0.2589(8) 0.9010(6)
H36 H 0.0101 0.2534 0.8575
C44 C 0.0489(10) 0.1942(6) 0.9365(5)
H37 H 0.0589 0.1532 0.9126
N2 N 0.2886(8) 0.0580(5) 0.9898(5)
H38 H 0.3083 0.0777 1.0261
O5 O 0.4899(8) 0.0759(6) 0.9706(5)
O6 O 0.3621(9) -0.0142(4) 0.9069(5)
O7 O 0.0932(7) 0.1178(3) 1.0257(4)
O8 O 0.0752(8) 0.2159(4) 1.1056(4)
S2 S 0.3790(5) 0.05467(16) 0.9375(3)
O9 O 0.211(3) 0.1493(18) 0.5084(10)
C45 C 0.279(5) 0.084(2) 0.608(2)
C46 C 0.235(3) 0.1456(15) 0.5669(10)
O10? O 0.259(4) 0.2170(15) 0.5977(18)
C47? C 0.271(3) 0.287(2) 0.566(2)
C48? C 0.152(3) 0.313(3) 0.566(2)
loop_
_geom_bond_atom_site_label_1
_geom_bond_atom_site_label_2
_geom_bond_site_symmetry_1
_geom_bond_site_symmetry_2
C1 H1 1_555 1_555
H2 C1 1_555 1_555
H3 C1 1_555 1_555
C2 C1 1_555 1_555
C3 C2 1_555 1_555
H4 C3 1_555 1_555
C4 C3 1_555 1_555
H5 C4 1_555 1_555
C5 C4 1_555 1_555
C6 C5 1_555 1_555
H6 C6 1_555 1_555
C7 C2 1_555 1_555
H7 C7 1_555 1_555
C8 H8 1_555 1_555
C9 C8 1_555 1_555
C10 C9 1_555 1_555
C11 C10 1_555 1_555
H9 C11 1_555 1_555
C12 C11 1_555 1_555
H10 C12 1_555 1_555
C13 C12 1_555 1_555
H11 C13 1_555 1_555
C14 C13 1_555 1_555
H12 C14 1_555 1_555
C15 C10 1_555 1_555
H13 C15 1_555 1_555
C16 C17 1_555 1_555
C17 C18 1_555 1_555
C18 H14 1_555 1_555
C19 C18 1_555 1_555
H15 C19 1_555 1_555
C20 C19 1_555 1_555
H16 C20 1_555 1_555
C21 C20 1_555 1_555
H17 C21 1_555 1_555
C22 C16 1_555 1_555
H18 C22 1_555 1_555
N1 C8 1_555 1_555
H19 N1 1_555 1_555
O1 S1 1_555 1_555
O2 S1 1_555 1_555
O3 C9 1_555 1_555
O4 C17 1_555 1_555
S1 C5 1_555 1_555
C23 H20 1_555 1_555
H21 C23 1_555 1_555
H22 C23 1_555 1_555
C24 C23 1_555 1_555
C25 C24 1_555 1_555
H23 C25 1_555 1_555
C26 C25 1_555 1_555
H24 C26 1_555 1_555
C27 C26 1_555 1_555
C28 C27 1_555 1_555
H25 C28 1_555 1_555
C29 C24 1_555 1_555
H26 C29 1_555 1_555
C30 H27 1_555 1_555
C31 C30 1_555 1_555
C32 C31 1_555 1_555
C33 C32 1_555 1_555
H28 C33 1_555 1_555
C34 C33 1_555 1_555
H29 C34 1_555 1_555
C35 C34 1_555 1_555
H30 C35 1_555 1_555
C36 C35 1_555 1_555
H31 C36 1_555 1_555
C37 C32 1_555 1_555
H32 C37 1_555 1_555
C38 C39 1_555 1_555
C39 C40 1_555 1_555
C40 H33 1_555 1_555
C41 C40 1_555 1_555
H34 C41 1_555 1_555
C42 C41 1_555 1_555
H35 C42 1_555 1_555
C43 C42 1_555 1_555
H36 C43 1_555 1_555
C44 C38 1_555 1_555
H37 C44 1_555 1_555
N2 C30 1_555 1_555
H38 N2 1_555 1_555
O5 S2 1_555 1_555
O6 S2 1_555 1_555
O7 C31 1_555 1_555
O8 C39 1_555 1_555
S2 C27 1_555 1_555
O9 C46 1_555 1_555
C45 C46 1_555 1_555
C6 C7 1_555 1_555
C14 C15 1_555 1_555
C16 O3 1_555 1_555
C21 C22 1_555 1_555
N1 S1 1_555 1_555
C28 C29 1_555 1_555
C36 C37 1_555 1_555
C38 O7 1_555 1_555
C43 C44 1_555 1_555
N2 S2 1_555 1_555

#END
