
#######################################################################
#
#                 Cambridge Crystallographic Data Centre
#                                CCDC 
#
#######################################################################
#
# If this CIF has been generated from an entry in the Cambridge 
# Structural Database, then it will include bibliographic, chemical, 
# crystal, experimental, refinement or atomic coordinate data resulting 
# from the CCDC's data processing and validation procedures.
#
#######################################################################

data_ULANUS
_chemical_formula_moiety         'C2 H8 N6 2+,2(N1 O3 1-)'
_chemical_name_systematic        
'4-amino-3-(diazan-2-ium-1-yl)-4H-1,2,4-triazol-1-ium dinitrate'
_symmetry_cell_setting           monoclinic
_symmetry_space_group_name_H-M   'P 21/c'
_symmetry_Int_Tables_number      14
_space_group_name_Hall           '-P 2ybc'
loop_
_symmetry_equiv_pos_site_id
_symmetry_equiv_pos_as_xyz
1 x,y,z
2 -x,1/2+y,1/2-z
3 -x,-y,-z
4 x,1/2-y,1/2+z
_cell_length_a                   7.9601(18)
_cell_length_b                   15.917(4)
_cell_length_c                   7.0960(16)
_cell_angle_alpha                90
_cell_angle_beta                 106.398(3)
_cell_angle_gamma                90
_cell_volume                     862.499
_exptl_crystal_colour            colorless
_exptl_crystal_description       Prism
_cell_formula_units_Z            4
loop_
_atom_site_label
_atom_site_type_symbol
_atom_site_fract_x
_atom_site_fract_y
_atom_site_fract_z
N1 N 0.21159(14) 0.04354(7) 0.02272(15)
N2 N 0.32131(13) 0.04970(7) 0.21112(15)
N3 N 0.15553(13) 0.16293(6) 0.12367(14)
N4 N 0.07971(14) 0.24011(7) 0.15144(16)
N5 N 0.34551(13) 0.15853(7) 0.45117(15)
C1 C 0.11412(16) 0.11027(8) -0.03041(18)
H1 H 0.0305 0.1197 -0.1537
C2 C 0.28229(15) 0.12344(7) 0.26805(17)
N6 N 0.46735(14) 0.10571(7) 0.58746(16)
H2 H 0.221(2) 0.0012(12) -0.053(3)
H3 H 0.087(2) 0.2741(11) 0.054(3)
H4 H -0.036(3) 0.2292(11) 0.131(3)
H5 H 0.384(2) 0.2099(11) 0.454(2)
H6 H 0.414(2) 0.0538(11) 0.593(2)
H7 H 0.578(3) 0.1004(11) 0.564(3)
H8 H 0.484(2) 0.1305(11) 0.714(3)
N7 N 0.84494(13) 0.07362(7) 0.42656(15)
O1 O 0.81560(13) 0.10991(6) 0.57162(14)
O2 O 0.72635(12) 0.02775(6) 0.31969(13)
O3 O 0.98504(13) 0.08343(7) 0.38857(16)
N8 N 0.63161(14) 0.17979(6) 1.03732(15)
O4 O 0.46896(11) 0.17783(6) 0.93968(13)
O5 O 0.73651(12) 0.13595(6) 0.97939(13)
O6 O 0.67947(14) 0.22541(7) 1.18264(15)
loop_
_geom_bond_atom_site_label_1
_geom_bond_atom_site_label_2
_geom_bond_site_symmetry_1
_geom_bond_site_symmetry_2
N1 N2 1_555 1_555
N2 C2 1_555 1_555
N3 N4 1_555 1_555
N4 H3 1_555 1_555
N5 C2 1_555 1_555
C1 N1 1_555 1_555
H1 C1 1_555 1_555
C2 N3 1_555 1_555
N6 N5 1_555 1_555
H2 N1 1_555 1_555
H4 N4 1_555 1_555
H5 N5 1_555 1_555
H6 N6 1_555 1_555
H7 N6 1_555 1_555
H8 N6 1_555 1_555
N7 O1 1_555 1_555
O2 N7 1_555 1_555
O3 N7 1_555 1_555
N8 O4 1_555 1_555
O5 N8 1_555 1_555
O6 N8 1_555 1_555
N3 C1 1_555 1_555

#END
