
#######################################################################
#
#                 Cambridge Crystallographic Data Centre
#                                CCDC 
#
#######################################################################
#
# If this CIF has been generated from an entry in the Cambridge 
# Structural Database, then it will include bibliographic, chemical, 
# crystal, experimental, refinement or atomic coordinate data resulting 
# from the CCDC's data processing and validation procedures.
#
#######################################################################

data_ULAQIH
_chemical_formula_moiety         'C33 H36 Br2 N4'
_chemical_name_systematic        
2,7-bis(5-Bromo-2-pyrimidyl)-9,9-dihexylfluorene
_symmetry_cell_setting           triclinic
_symmetry_space_group_name_H-M   'P -1'
_symmetry_Int_Tables_number      2
_space_group_name_Hall           '-P 1'
loop_
_symmetry_equiv_pos_site_id
_symmetry_equiv_pos_as_xyz
1 x,y,z
2 -x,-y,-z
_cell_length_a                   10.244(3)
_cell_length_b                   10.979(3)
_cell_length_c                   13.520(3)
_cell_angle_alpha                93.37(1)
_cell_angle_beta                 93.99(1)
_cell_angle_gamma                95.14(1)
_cell_volume                     1507.56
_exptl_crystal_colour            colorless
_exptl_crystal_description       plate
_chemical_melting_point          452.3-452.8K
_cell_formula_units_Z            2
loop_
_atom_site_label
_atom_site_type_symbol
_atom_site_fract_x
_atom_site_fract_y
_atom_site_fract_z
Br1 Br 0.68059(9) 0.53389(7) 1.87517(5)
Br2 Br 0.74665(8) 0.99483(7) 0.56660(5)
N1 N 0.7351(6) 0.6322(6) 1.5907(5)
N2 N 0.5063(6) 0.6262(6) 1.6115(5)
N3 N 0.7666(6) 0.9092(6) 0.8580(5)
N4 N 0.5407(6) 0.8896(6) 0.8024(4)
C1 C 0.5385(6) 0.7531(6) 1.2629(5)
C2 C 0.6691(6) 0.7472(6) 1.3023(5)
C3 C 0.6938(6) 0.7114(6) 1.3972(5)
H1 H 0.7814 0.7067 1.4233
C4 C 0.5879(7) 0.6819(6) 1.4555(5)
C5 C 0.4583(6) 0.6898(6) 1.4154(5)
H2 H 0.3872 0.6705 1.4548
C6 C 0.4326(6) 0.7253(6) 1.3199(5)
H3 H 0.3451 0.7306 1.2939
C7 C 0.5434(6) 0.7888(6) 1.1603(4)
C8 C 0.6755(6) 0.8087(6) 1.1381(5)
C9 C 0.7069(6) 0.8410(6) 1.0464(5)
H4 H 0.7962 0.8551 1.0324
C10 C 0.6060(6) 0.8532(6) 0.9724(5)
C11 C 0.4743(6) 0.8356(6) 0.9951(5)
H5 H 0.4064 0.8460 0.9459
C12 C 0.4422(6) 0.8031(6) 1.0881(5)
H6 H 0.3531 0.7908 1.1028
C13 C 0.6117(7) 0.6438(6) 1.5581(5)
C14 C 0.7555(8) 0.6000(7) 1.6844(6)
H7 H 0.8422 0.5903 1.7101
C15 C 0.6536(8) 0.5807(6) 1.7438(5)
C16 C 0.5270(8) 0.5955(7) 1.7049(6)
H8 H 0.4551 0.5836 1.7449
C17 C 0.6395(6) 0.8866(6) 0.8725(5)
C18 C 0.7967(7) 0.9403(7) 0.7689(6)
H9 H 0.8863 0.9575 0.7568
C19 C 0.7020(7) 0.9483(6) 0.6933(5)
C20 C 0.5729(7) 0.9207(7) 0.7127(6)
H10 H 0.5056 0.9238 0.6613
C21 C 0.7671(6) 0.7886(6) 1.2290(5)
C22 C 0.8654(7) 0.6936(6) 1.2060(5)
H11 H 0.9253 0.7273 1.1580
H12 H 0.9191 0.6828 1.2678
C23 C 0.8039(7) 0.5683(6) 1.1639(5)
H13 H 0.7487 0.5778 1.1025
H14 H 0.7467 0.5318 1.2124
C24 C 0.9096(7) 0.4825(6) 1.1408(5)
H15 H 0.9672 0.5206 1.0934
H16 H 0.9642 0.4736 1.2027
C25 C 0.8553(7) 0.3565(6) 1.0979(6)
H17 H 0.8053 0.3644 1.0338
H18 H 0.7938 0.3197 1.1434
C26 C 0.9629(7) 0.2712(6) 1.0814(6)
H19 H 1.0239 0.3079 1.0355
H20 H 1.0135 0.2642 1.1454
C27 C 0.9098(8) 0.1440(7) 1.0391(8)
H21 H 0.9828 0.0938 1.0303
H22 H 0.8614 0.1499 0.9749
H23 H 0.8508 0.1063 1.0849
C28 C 0.8490(6) 0.9107(6) 1.2681(5)
H24 H 0.9063 0.8942 1.3267
H25 H 0.9066 0.9372 1.2162
C29 C 0.7691(6) 1.0165(6) 1.2972(5)
H26 H 0.7162 1.0380 1.2379
H27 H 0.7079 0.9897 1.3466
C30 C 0.8557(7) 1.1297(6) 1.3404(5)
H28 H 0.9158 1.1577 1.2906
H29 H 0.9097 1.1082 1.3991
C31 C 0.7736(7) 1.2338(6) 1.3707(5)
H30 H 0.7105 1.2035 1.4177
H31 H 0.7223 1.2565 1.3111
C32 C 0.8543(8) 1.3490(7) 1.4191(6)
H32 H 0.9211 1.3765 1.3738
H33 H 0.7954 1.4148 1.4272
C33 C 0.9230(8) 1.3309(7) 1.5194(6)
H34 H 0.9729 1.4076 1.5453
H35 H 0.9829 1.2670 1.5120
H36 H 0.8576 1.3064 1.5655
loop_
_geom_bond_atom_site_label_1
_geom_bond_atom_site_label_2
_geom_bond_site_symmetry_1
_geom_bond_site_symmetry_2
Br1 C15 1_555 1_555
Br2 C19 1_555 1_555
N1 C13 1_555 1_555
N2 C13 1_555 1_555
N3 C17 1_555 1_555
N4 C17 1_555 1_555
C1 C2 1_555 1_555
C2 C3 1_555 1_555
C3 H1 1_555 1_555
C4 C3 1_555 1_555
C5 C4 1_555 1_555
H2 C5 1_555 1_555
C6 C1 1_555 1_555
H3 C6 1_555 1_555
C7 C1 1_555 1_555
C8 C7 1_555 1_555
C9 C8 1_555 1_555
H4 C9 1_555 1_555
C10 C9 1_555 1_555
C11 C10 1_555 1_555
H5 C11 1_555 1_555
C12 C7 1_555 1_555
H6 C12 1_555 1_555
C13 C4 1_555 1_555
C14 N1 1_555 1_555
H7 C14 1_555 1_555
C15 C14 1_555 1_555
C16 N2 1_555 1_555
H8 C16 1_555 1_555
C17 C10 1_555 1_555
C18 N3 1_555 1_555
H9 C18 1_555 1_555
C19 C18 1_555 1_555
C20 N4 1_555 1_555
H10 C20 1_555 1_555
C21 C2 1_555 1_555
C22 C21 1_555 1_555
H11 C22 1_555 1_555
H12 C22 1_555 1_555
C23 C22 1_555 1_555
H13 C23 1_555 1_555
H14 C23 1_555 1_555
C24 C23 1_555 1_555
H15 C24 1_555 1_555
H16 C24 1_555 1_555
C25 C24 1_555 1_555
H17 C25 1_555 1_555
H18 C25 1_555 1_555
C26 C25 1_555 1_555
H19 C26 1_555 1_555
H20 C26 1_555 1_555
C27 C26 1_555 1_555
H21 C27 1_555 1_555
H22 C27 1_555 1_555
H23 C27 1_555 1_555
C28 C21 1_555 1_555
H24 C28 1_555 1_555
H25 C28 1_555 1_555
C29 C28 1_555 1_555
H26 C29 1_555 1_555
H27 C29 1_555 1_555
C30 C29 1_555 1_555
H28 C30 1_555 1_555
H29 C30 1_555 1_555
C31 C30 1_555 1_555
H30 C31 1_555 1_555
H31 C31 1_555 1_555
C32 C31 1_555 1_555
H32 C32 1_555 1_555
H33 C32 1_555 1_555
C33 C32 1_555 1_555
H34 C33 1_555 1_555
H35 C33 1_555 1_555
H36 C33 1_555 1_555
C5 C6 1_555 1_555
C8 C21 1_555 1_555
C11 C12 1_555 1_555
C15 C16 1_555 1_555
C19 C20 1_555 1_555

#END
