
#######################################################################
#
#                 Cambridge Crystallographic Data Centre
#                                CCDC 
#
#######################################################################
#
# If this CIF has been generated from an entry in the Cambridge 
# Structural Database, then it will include bibliographic, chemical, 
# crystal, experimental, refinement or atomic coordinate data resulting 
# from the CCDC's data processing and validation procedures.
#
#######################################################################

data_ULAZAK
_chemical_formula_moiety         'C31 H26 N2 O3'
_chemical_name_systematic        
"Ethyl 1',4-dimethyl-2'-oxo-3-(2-phenylvinyl)-1',2'-dihydro-4H-spiro[cyclopenta[b]indole-1,3'-indole]-2-carboxylate"
_symmetry_cell_setting           monoclinic
_symmetry_space_group_name_H-M   'C 2/c'
_symmetry_Int_Tables_number      15
_space_group_name_Hall           '-C 2yn'
loop_
_symmetry_equiv_pos_site_id
_symmetry_equiv_pos_as_xyz
1 x,y,z
2 -x,y,1/2-z
3 1/2+x,1/2+y,z
4 1/2-x,1/2+y,1/2-z
5 -x,-y,-z
6 x,-y,1/2+z
7 1/2-x,1/2-y,-z
8 1/2+x,1/2-y,1/2+z
_cell_length_a                   34.961(3)
_cell_length_b                   8.3470(8)
_cell_length_c                   21.4053(19)
_cell_angle_alpha                90
_cell_angle_beta                 125.3092(12)
_cell_angle_gamma                90
_cell_volume                     5097.41
_exptl_crystal_colour            colorless
_exptl_crystal_description       Prism
_cell_formula_units_Z            8
loop_
_atom_site_label
_atom_site_type_symbol
_atom_site_fract_x
_atom_site_fract_y
_atom_site_fract_z
O1 O 0.58688(5) 0.86462(19) 0.12474(10)
O2 O 0.69823(8) 0.7470(2) 0.30194(11)
O3 O 0.67537(6) 0.5597(2) 0.34737(9)
N1 N 0.65326(6) 0.9031(2) 0.12941(10)
N2 N 0.54885(6) 0.3390(2) 0.04995(10)
C1 C 0.62230(7) 0.8137(3) 0.13317(12)
C2 C 0.63916(7) 0.6368(2) 0.14749(12)
C3 C 0.68482(7) 0.6514(2) 0.15524(12)
C4 C 0.71785(8) 0.5391(3) 0.16976(13)
H1 H 0.7142 0.4323 0.1777
C5 C 0.75683(9) 0.5880(3) 0.17230(15)
H2 H 0.7794 0.5132 0.1821
C6 C 0.76221(8) 0.7450(3) 0.16044(16)
H3 H 0.7885 0.7752 0.1625
C7 C 0.72946(8) 0.8594(3) 0.14552(14)
H4 H 0.7331 0.9660 0.1373
C8 C 0.69120(7) 0.8098(2) 0.14332(12)
C9 C 0.64958(9) 1.0753(3) 0.11850(16)
H5 H 0.6172 1.1065 0.0900
H6 H 0.6624 1.1059 0.0908
H7 H 0.6667 1.1276 0.1675
C10 C 0.64138(7) 0.5640(2) 0.21517(12)
C11 C 0.61094(7) 0.4376(2) 0.19324(12)
C12 C 0.58611(7) 0.4237(2) 0.11045(12)
C13 C 0.60250(7) 0.5316(2) 0.08350(12)
C14 C 0.57562(7) 0.5187(3) 0.00262(12)
C15 C 0.57482(9) 0.5961(3) -0.05635(14)
H8 H 0.5970 0.6738 -0.0451
C16 C 0.54086(10) 0.5553(4) -0.13054(15)
H9 H 0.5398 0.6069 -0.1700
C17 C 0.50792(10) 0.4378(4) -0.14791(15)
H10 H 0.4852 0.4128 -0.1990
C18 C 0.50786(8) 0.3579(3) -0.09222(14)
H11 H 0.4856 0.2793 -0.1048
C19 C 0.54192(7) 0.3974(3) -0.01633(13)
C20 C 0.51844(8) 0.2217(3) 0.05176(15)
H12 H 0.4879 0.2251 0.0042
H13 H 0.5160 0.2466 0.0931
H14 H 0.5315 0.1165 0.0592
C21 C 0.67391(8) 0.6337(3) 0.29064(13)
C22 C 0.70587(13) 0.6302(4) 0.42299(16)
H15 H 0.6967 0.7402 0.4225
H16 H 0.7381 0.6296 0.4390
C23 C 0.7012(2) 0.5323(7) 0.4764(2)
H17 H 0.6686 0.5209 0.4561
H18 H 0.7173 0.5845 0.5253
H19 H 0.7147 0.4284 0.4823
C24 C 0.60672(7) 0.3373(3) 0.24496(13)
H20 H 0.6090 0.3881 0.2856
C25 C 0.59995(9) 0.1803(3) 0.23882(14)
H21 H 0.5939 0.1312 0.1950
C26 C 0.60121(10) 0.0774(3) 0.29574(16)
C27 C 0.58448(18) -0.0765(5) 0.2776(2)
H22 H 0.5718 -0.1147 0.2285
C28 C 0.5860(2) -0.1767(6) 0.3308(3)
H23 H 0.5752 -0.2815 0.3172
C29 C 0.60272(18) -0.1245(5) 0.4014(2)
H24 H 0.5992 -0.1841 0.4345
C30 C 0.62487(16) 0.0186(4) 0.4225(2)
H25 H 0.6405 0.0515 0.4731
C31 C 0.62489(13) 0.1164(4) 0.37110(19)
H26 H 0.6416 0.2120 0.3882
loop_
_geom_bond_atom_site_label_1
_geom_bond_atom_site_label_2
_geom_bond_site_symmetry_1
_geom_bond_site_symmetry_2
O1 C1 1_555 1_555
O2 C21 1_555 1_555
O3 C21 1_555 1_555
N1 C1 1_555 1_555
N2 C12 1_555 1_555
C1 C2 1_555 1_555
C2 C3 1_555 1_555
C3 C4 1_555 1_555
C4 H1 1_555 1_555
C5 C4 1_555 1_555
H2 C5 1_555 1_555
C6 C5 1_555 1_555
H3 C6 1_555 1_555
C7 C6 1_555 1_555
H4 C7 1_555 1_555
C8 N1 1_555 1_555
C9 N1 1_555 1_555
H5 C9 1_555 1_555
H6 C9 1_555 1_555
H7 C9 1_555 1_555
C10 C2 1_555 1_555
C11 C10 1_555 1_555
C12 C11 1_555 1_555
C13 C2 1_555 1_555
C14 C13 1_555 1_555
C15 C14 1_555 1_555
H8 C15 1_555 1_555
C16 C15 1_555 1_555
H9 C16 1_555 1_555
C17 C16 1_555 1_555
H10 C17 1_555 1_555
C18 C17 1_555 1_555
H11 C18 1_555 1_555
C19 N2 1_555 1_555
C20 N2 1_555 1_555
H12 C20 1_555 1_555
H13 C20 1_555 1_555
H14 C20 1_555 1_555
C21 C10 1_555 1_555
C22 O3 1_555 1_555
H15 C22 1_555 1_555
H16 C22 1_555 1_555
C23 C22 1_555 1_555
H17 C23 1_555 1_555
H18 C23 1_555 1_555
H19 C23 1_555 1_555
C24 C11 1_555 1_555
H20 C24 1_555 1_555
C25 C24 1_555 1_555
H21 C25 1_555 1_555
C26 C25 1_555 1_555
C27 C26 1_555 1_555
H22 C27 1_555 1_555
C28 C27 1_555 1_555
H23 C28 1_555 1_555
C29 C28 1_555 1_555
H24 C29 1_555 1_555
C30 C29 1_555 1_555
H25 C30 1_555 1_555
C31 C26 1_555 1_555
H26 C31 1_555 1_555
C3 C8 1_555 1_555
C7 C8 1_555 1_555
C12 C13 1_555 1_555
C14 C19 1_555 1_555
C18 C19 1_555 1_555
C30 C31 1_555 1_555

#END
