
#######################################################################
#
#                 Cambridge Crystallographic Data Centre
#                                CCDC 
#
#######################################################################
#
# If this CIF has been generated from an entry in the Cambridge 
# Structural Database, then it will include bibliographic, chemical, 
# crystal, experimental, refinement or atomic coordinate data resulting 
# from the CCDC's data processing and validation procedures.
#
#######################################################################

data_ULEBOE
_chemical_formula_moiety         'C28 H24 O3'
_chemical_name_systematic        
'Methyl 2-benzoyl-2-methyl-3-phenyl-2,8-dihydrocyclopenta[a]indene-8a(1H)-carboxylate'
_symmetry_cell_setting           orthorhombic
_symmetry_space_group_name_H-M   'P 21 21 21'
_symmetry_Int_Tables_number      19
_space_group_name_Hall           'P 2ac 2ab'
loop_
_symmetry_equiv_pos_site_id
_symmetry_equiv_pos_as_xyz
1 x,y,z
2 1/2+x,1/2-y,-z
3 -x,1/2+y,1/2-z
4 1/2-x,-y,1/2+z
_cell_length_a                   10.6221(12)
_cell_length_b                   10.7056(12)
_cell_length_c                   18.665(2)
_cell_angle_alpha                90
_cell_angle_beta                 90
_cell_angle_gamma                90
_cell_volume                     2122.51
_exptl_crystal_colour            colorless
_cell_formula_units_Z            4
loop_
_atom_site_label
_atom_site_type_symbol
_atom_site_fract_x
_atom_site_fract_y
_atom_site_fract_z
O1 O 0.32840(17) 0.58631(16) 0.22125(9)
C1 C 0.45894(14) 0.77030(16) 0.21842(9)
O2 O 0.42723(13) 0.63358(13) 0.12039(8)
C2 C 0.51943(15) 0.85243(16) 0.16070(9)
H1 H 0.5194 0.9393 0.1754
H2 H 0.4739 0.8451 0.1159
O3 O 0.72023(14) 0.59981(13) 0.11499(8)
C3 C 0.65746(14) 0.80328(15) 0.15211(9)
C4 C 0.68184(14) 0.75071(16) 0.22741(9)
C5 C 0.57395(15) 0.73257(15) 0.26217(9)
C6 C 0.53543(15) 0.71550(16) 0.33663(9)
C7 C 0.59727(18) 0.66460(18) 0.39549(10)
H3 H 0.6766 0.6290 0.3904
C8 C 0.5388(2) 0.6679(2) 0.46158(11)
H4 H 0.5784 0.6323 0.5010
C9 C 0.4223(2) 0.7235(2) 0.46980(12)
H5 H 0.3844 0.7249 0.5147
C10 C 0.36154(19) 0.7770(2) 0.41180(11)
H6 H 0.2840 0.8159 0.4178
C11 C 0.41717(16) 0.77213(17) 0.34525(10)
C12 C 0.37180(16) 0.82926(19) 0.27560(10)
H7 H 0.3806 0.9194 0.2764
H8 H 0.2844 0.8082 0.2666
C13 C 0.39690(15) 0.65381(18) 0.18834(10)
C14 C 0.3788(2) 0.5235(2) 0.08567(12)
H9 H 0.4088 0.5205 0.0372
H10 H 0.2885 0.5260 0.0857
H11 H 0.4069 0.4506 0.1110
C15 C 0.67614(16) 0.69946(17) 0.09612(9)
C16 C 0.64922(15) 0.71866(17) 0.01791(10)
C17 C 0.5826(2) 0.8176(2) -0.01104(10)
H12 H 0.5549 0.8815 0.0188
C18 C 0.5567(2) 0.8231(2) -0.08346(11)
H13 H 0.5096 0.8891 -0.1017
C19 C 0.5997(2) 0.7323(2) -0.12839(12)
H14 H 0.5821 0.7360 -0.1772
C20 C 0.6684(2) 0.6363(3) -0.10133(12)
H15 H 0.6999 0.5754 -0.1320
C21 C 0.6920(2) 0.6282(2) -0.02889(11)
H16 H 0.7375 0.5607 -0.0112
C22 C 0.74826(17) 0.91014(17) 0.13286(11)
H17 H 0.7295 0.9402 0.0856
H18 H 0.8333 0.8800 0.1342
H19 H 0.7386 0.9770 0.1667
C23 C 0.80853(14) 0.73279(16) 0.26015(9)
C24 C 0.86844(16) 0.61792(18) 0.25806(11)
H20 H 0.8318 0.5519 0.2333
C25 C 0.98281(17) 0.6007(2) 0.29268(11)
H21 H 1.0218 0.5229 0.2914
C26 C 1.03886(16) 0.6976(2) 0.32885(11)
H22 H 1.1152 0.6855 0.3522
C27 C 0.98170(18) 0.8122(2) 0.33034(11)
H23 H 1.0199 0.8785 0.3541
C28 C 0.86628(17) 0.82957(18) 0.29635(10)
H24 H 0.8276 0.9074 0.2981
loop_
_geom_bond_atom_site_label_1
_geom_bond_atom_site_label_2
_geom_bond_site_symmetry_1
_geom_bond_site_symmetry_2
O1 C13 1_555 1_555
C1 C2 1_555 1_555
O2 C13 1_555 1_555
C2 H1 1_555 1_555
H2 C2 1_555 1_555
O3 C15 1_555 1_555
C3 C2 1_555 1_555
C4 C3 1_555 1_555
C5 C1 1_555 1_555
C6 C5 1_555 1_555
C7 C6 1_555 1_555
H3 C7 1_555 1_555
C8 C7 1_555 1_555
H4 C8 1_555 1_555
C9 C8 1_555 1_555
H5 C9 1_555 1_555
C10 C9 1_555 1_555
H6 C10 1_555 1_555
C11 C6 1_555 1_555
C12 C1 1_555 1_555
H7 C12 1_555 1_555
H8 C12 1_555 1_555
C13 C1 1_555 1_555
C14 O2 1_555 1_555
H9 C14 1_555 1_555
H10 C14 1_555 1_555
H11 C14 1_555 1_555
C15 C3 1_555 1_555
C16 C15 1_555 1_555
C17 C16 1_555 1_555
H12 C17 1_555 1_555
C18 C17 1_555 1_555
H13 C18 1_555 1_555
C19 C18 1_555 1_555
H14 C19 1_555 1_555
C20 C19 1_555 1_555
H15 C20 1_555 1_555
C21 C16 1_555 1_555
H16 C21 1_555 1_555
C22 C3 1_555 1_555
H17 C22 1_555 1_555
H18 C22 1_555 1_555
H19 C22 1_555 1_555
C23 C4 1_555 1_555
C24 C23 1_555 1_555
H20 C24 1_555 1_555
C25 C24 1_555 1_555
H21 C25 1_555 1_555
C26 C25 1_555 1_555
H22 C26 1_555 1_555
C27 C26 1_555 1_555
H23 C27 1_555 1_555
C28 C23 1_555 1_555
H24 C28 1_555 1_555
C4 C5 1_555 1_555
C10 C11 1_555 1_555
C11 C12 1_555 1_555
C20 C21 1_555 1_555
C27 C28 1_555 1_555

#END
