
#######################################################################
#
#                 Cambridge Crystallographic Data Centre
#                                CCDC 
#
#######################################################################
#
# If this CIF has been generated from an entry in the Cambridge 
# Structural Database, then it will include bibliographic, chemical, 
# crystal, experimental, refinement or atomic coordinate data resulting 
# from the CCDC's data processing and validation procedures.
#
#######################################################################

data_ULEBIX
_chemical_name_common            
'12b-Acetoxy-12-(3-fluorobenzoyloxy)-4,6-bis(2,2,2-trichloroethoxycarbonyl)-1,2a,3,4,4a,6,9,10,11,12,12a,12b-decahydro-9,11-dihydroxy-4a,8,13,13-tetramethyl-7,11-methano-5H-cyclodeca[3,4]benz[1,2-b]oxet-5-one ethyl acetate solvate monohydrate'
_chemical_formula_moiety         'C35 H37 Cl6 F1 O14,C4 H8 O2,H2 O1'
_chemical_name_systematic        
'(1S,2S,3R,4S,5R,7S,8S,10R,13S)-2-Debenzoyl-10-deacetyl-2-(3-fluorobenzoyl)-7,10-bis(2,2,2-trichloroethoxycarbonyl)baccatin III ethyl acetate solvate monohydrate'
_symmetry_cell_setting           orthorhombic
_symmetry_space_group_name_H-M   'P 21 21 21'
_symmetry_Int_Tables_number      19
_space_group_name_Hall           'P 2ac 2ab'
loop_
_symmetry_equiv_pos_site_id
_symmetry_equiv_pos_as_xyz
1 x,y,z
2 1/2-x,-y,1/2+z
3 -x,1/2+y,1/2-z
4 1/2+x,1/2-y,-z
_cell_length_a                   14.7037(11)
_cell_length_b                   16.6601(12)
_cell_length_c                   18.9258(14)
_cell_angle_alpha                90
_cell_angle_beta                 90
_cell_angle_gamma                90
_cell_volume                     4636.16
_exptl_crystal_colour            colorless
_exptl_crystal_description       prismatic
_chemical_melting_point          495-497K
_cell_formula_units_Z            4
_exptl_crystal_recrystallization_method hexane/dichloromethane
loop_
_atom_site_label
_atom_site_type_symbol
_atom_site_fract_x
_atom_site_fract_y
_atom_site_fract_z
Cl1 Cl 0.32716(9) 0.01873(8) 1.04792(7)
Cl2 Cl 0.48384(11) 0.04791(9) 1.13542(6)
Cl3 Cl 0.45947(9) -0.10584(7) 1.06832(6)
Cl4 Cl 0.08093(10) 0.25135(9) 0.93518(9)
Cl5 Cl 0.21962(10) 0.36674(7) 0.96872(8)
Cl6 Cl 0.17098(13) 0.24496(9) 1.06934(8)
O1 O 0.3735(2) 0.16138(19) 0.49241(15)
O2 O 0.48084(18) 0.03348(15) 0.50337(12)
O3 O 0.3511(2) -0.02415(19) 0.46551(17)
O4 O 0.64110(17) 0.00931(15) 0.57227(13)
O5 O 0.7005(2) 0.05200(18) 0.67458(16)
O6 O 0.5595(2) -0.15701(15) 0.62706(14)
O7 O 0.47088(17) -0.02112(15) 0.82322(12)
O8 O 0.5838(2) 0.0466(2) 0.87704(15)
O9 O 0.46637(18) -0.00885(15) 0.93540(12)
O10 O 0.30922(18) 0.05437(17) 0.75999(15)
O11 O 0.34759(18) 0.20512(15) 0.78236(12)
O12 O 0.3935(2) 0.14650(18) 0.88410(14)
O13 O 0.2698(2) 0.22498(16) 0.87740(14)
O14 O 0.6592(2) 0.2433(2) 0.59204(18)
C1 C 0.4306(3) 0.1568(2) 0.55338(18)
C2 C 0.4391(3) 0.0639(2) 0.56755(18)
H1 H 0.3779 0.0411 0.5718
C3 C 0.4974(2) 0.0350(2) 0.63144(17)
H2 H 0.5330 0.0818 0.6464
C4 C 0.5681(3) -0.0301(2) 0.61001(18)
C5 C 0.6021(3) -0.0914(2) 0.66434(18)
H3 H 0.6684 -0.0962 0.6615
C6 C 0.5727(3) -0.0846(2) 0.74108(19)
H4 H 0.6263 -0.0832 0.7709
H5 H 0.5377 -0.1318 0.7538
C7 C 0.5157(3) -0.0099(2) 0.75516(17)
H6 H 0.5562 0.0367 0.7583
C8 C 0.4412(2) 0.0076(2) 0.69925(18)
C9 C 0.3801(3) 0.0733(2) 0.73402(18)
C10 C 0.4163(3) 0.1582(2) 0.74474(18)
H7 H 0.4702 0.1547 0.7750
C11 C 0.4436(3) 0.1997(2) 0.67764(18)
C12 C 0.5294(3) 0.2261(2) 0.6700(2)
C13 C 0.5632(3) 0.2488(2) 0.5977(2)
H8 H 0.5451 0.3043 0.5881
C14 C 0.5237(3) 0.1953(2) 0.54023(19)
H9 H 0.5669 0.1525 0.5313
H10 H 0.5194 0.2268 0.4973
C15 C 0.3795(3) 0.2012(2) 0.61382(19)
C16 C 0.3599(3) 0.2890(2) 0.5920(2)
H11 H 0.3268 0.3154 0.6289
H12 H 0.3246 0.2895 0.5493
H13 H 0.4164 0.3165 0.5841
C17 C 0.2842(3) 0.1642(2) 0.6257(2)
H14 H 0.2906 0.1090 0.6395
H15 H 0.2499 0.1672 0.5826
H16 H 0.2532 0.1933 0.6622
C18 C 0.5361(3) -0.1049(2) 0.5696(2)
H17 H 0.4715 -0.1045 0.5592
H18 H 0.5710 -0.1153 0.5271
C19 C 0.3806(3) -0.0650(2) 0.6853(2)
H19 H 0.4176 -0.1099 0.6717
H20 H 0.3386 -0.0527 0.6480
H21 H 0.3474 -0.0781 0.7274
C20 C 0.5979(3) 0.2312(3) 0.7288(2)
H22 H 0.5668 0.2361 0.7732
H23 H 0.6361 0.2772 0.7217
H24 H 0.6345 0.1835 0.7291
C21 C 0.4298(4) -0.0068(2) 0.4567(2)
F1 F 0.4305(8) -0.1272(5) 0.2284(3)
C22 C 0.4730(5) -0.0350(5) 0.3940(3)
C23 C 0.4227(6) -0.0638(5) 0.3372(3)
H25 H 0.3595 -0.0655 0.3398
C24 C 0.4667(8) -0.0900(5) 0.2764(3)
C25 C 0.5611(8) -0.0874(5) 0.2725(3)
H26 H 0.5906 -0.1049 0.2319
C26 C 0.6114(6) -0.0587(6) 0.3293(4)
H27 H 0.6745 -0.0570 0.3267
C27 C 0.5673(5) -0.0325(5) 0.3901(3)
H28 H 0.6010 -0.0133 0.4281
C28 C 0.7039(3) 0.0475(2) 0.6126(3)
C29 C 0.7772(3) 0.0835(3) 0.5674(3)
H29 H 0.7614 0.1378 0.5557
H30 H 0.7833 0.0526 0.5248
H31 H 0.8338 0.0830 0.5927
C30 C 0.5148(3) 0.0097(2) 0.8779(2)
C31 C 0.4976(3) 0.0306(3) 0.99812(19)
H32 H 0.4888 0.0881 0.9940
H33 H 0.5619 0.0203 1.0050
C32 C 0.4442(3) -0.0013(2) 1.0595(2)
C33 C 0.3432(3) 0.1873(2) 0.8512(2)
C34 C 0.2589(4) 0.2100(3) 0.9515(2)
H34 H 0.3157 0.2198 0.9761
H35 H 0.2414 0.1545 0.9592
C35 C 0.1856(4) 0.2657(3) 0.9791(2)
H44 H 0.391(4) 0.187(3) 0.4583(18)
H45 H 0.689(3) 0.2851(17) 0.593(2)
O15 O 0.4525(4) 0.2095(4) 0.3655(2)
O16 O 0.5049(3) 0.1760(3) 0.2632(2)
C36 C 0.3518(5) 0.1838(7) 0.2640(5)
H36 H 0.3408 0.1283 0.2535
H37 H 0.3562 0.2137 0.2208
H38 H 0.3025 0.2045 0.2919
C37 C 0.4357(7) 0.1913(5) 0.3031(4)
C38 C 0.5947(6) 0.1783(5) 0.2986(4)
H39 H 0.6089 0.2330 0.3124
H40 H 0.5931 0.1455 0.3409
C39 C 0.6630(5) 0.1490(6) 0.2517(5)
H41 H 0.6456 0.0970 0.2345
H42 H 0.7198 0.1449 0.2764
H43 H 0.6695 0.1853 0.2126
O17 O 0.7215(3) 0.4008(3) 0.6057(3)
H46 H 0.749(4) 0.376(4) 0.569(2)
H47 H 0.690(7) 0.440(5) 0.585(4)
C40? C 0.5049(9) -0.0223(7) 0.3965(5)
C41? C 0.4661(9) -0.0641(7) 0.3405(6)
C42? C 0.5210(11) -0.0946(6) 0.2871(5)
C43? C 0.6146(10) -0.0835(6) 0.2897(5)
C44? C 0.6534(8) -0.0417(7) 0.3457(6)
C45? C 0.5985(9) -0.0112(8) 0.3992(5)
F2? F 0.5191(10) -0.1369(6) 0.2353(4)
H48? H 0.4035 -0.0716 0.3388
H49? H 0.6513 -0.1039 0.2540
H50? H 0.7160 -0.0342 0.3475
H51? H 0.6244 0.0168 0.4366
loop_
_geom_bond_atom_site_label_1
_geom_bond_atom_site_label_2
_geom_bond_site_symmetry_1
_geom_bond_site_symmetry_2
Cl1 C32 1_555 1_555
Cl2 C32 1_555 1_555
Cl3 C32 1_555 1_555
Cl4 C35 1_555 1_555
Cl5 C35 1_555 1_555
Cl6 C35 1_555 1_555
O1 C1 1_555 1_555
O2 C2 1_555 1_555
O3 C21 1_555 1_555
O4 C4 1_555 1_555
O5 C28 1_555 1_555
O6 C5 1_555 1_555
O7 C7 1_555 1_555
O8 C30 1_555 1_555
O9 C30 1_555 1_555
O10 C9 1_555 1_555
O11 C10 1_555 1_555
O12 C33 1_555 1_555
O13 C33 1_555 1_555
O14 C13 1_555 1_555
O15 C37 1_555 1_555
O16 C37 1_555 1_555
O17 H46 1_555 1_555
C1 C2 1_555 1_555
C2 H1 1_555 1_555
C3 C2 1_555 1_555
H2 C3 1_555 1_555
C4 C3 1_555 1_555
C5 C4 1_555 1_555
H3 C5 1_555 1_555
C6 C5 1_555 1_555
H4 C6 1_555 1_555
H5 C6 1_555 1_555
C7 C6 1_555 1_555
H6 C7 1_555 1_555
C8 C3 1_555 1_555
C9 C8 1_555 1_555
C10 C9 1_555 1_555
H7 C10 1_555 1_555
C11 C10 1_555 1_555
C12 C11 1_555 1_555
C13 C12 1_555 1_555
H8 C13 1_555 1_555
C14 C1 1_555 1_555
H9 C14 1_555 1_555
H10 C14 1_555 1_555
C15 C1 1_555 1_555
C16 C15 1_555 1_555
H11 C16 1_555 1_555
H12 C16 1_555 1_555
H13 C16 1_555 1_555
C17 C15 1_555 1_555
H14 C17 1_555 1_555
H15 C17 1_555 1_555
H16 C17 1_555 1_555
C18 O6 1_555 1_555
H17 C18 1_555 1_555
H18 C18 1_555 1_555
C19 C8 1_555 1_555
H19 C19 1_555 1_555
H20 C19 1_555 1_555
H21 C19 1_555 1_555
C20 C12 1_555 1_555
H22 C20 1_555 1_555
H23 C20 1_555 1_555
H24 C20 1_555 1_555
C21 O2 1_555 1_555
F1 C24 1_555 1_555
C22 C21 1_555 1_555
C23 C22 1_555 1_555
H25 C23 1_555 1_555
C24 C23 1_555 1_555
C25 C24 1_555 1_555
H26 C25 1_555 1_555
C26 C25 1_555 1_555
H27 C26 1_555 1_555
C27 C22 1_555 1_555
H28 C27 1_555 1_555
C28 O4 1_555 1_555
C29 C28 1_555 1_555
H29 C29 1_555 1_555
H30 C29 1_555 1_555
H31 C29 1_555 1_555
C30 O7 1_555 1_555
C31 O9 1_555 1_555
H32 C31 1_555 1_555
H33 C31 1_555 1_555
C32 C31 1_555 1_555
C33 O11 1_555 1_555
C34 O13 1_555 1_555
H34 C34 1_555 1_555
H35 C34 1_555 1_555
C35 C34 1_555 1_555
C36 H36 1_555 1_555
H37 C36 1_555 1_555
H38 C36 1_555 1_555
C37 C36 1_555 1_555
C38 O16 1_555 1_555
H39 C38 1_555 1_555
H40 C38 1_555 1_555
C39 C38 1_555 1_555
H41 C39 1_555 1_555
H42 C39 1_555 1_555
H43 C39 1_555 1_555
H44 O1 1_555 1_555
H45 O14 1_555 1_555
H47 O17 1_555 1_555
C4 C18 1_555 1_555
C7 C8 1_555 1_555
C11 C15 1_555 1_555
C13 C14 1_555 1_555
C26 C27 1_555 1_555

#END
