
#######################################################################
#
#                 Cambridge Crystallographic Data Centre
#                                CCDC 
#
#######################################################################
#
# If this CIF has been generated from an entry in the Cambridge 
# Structural Database, then it will include bibliographic, chemical, 
# crystal, experimental, refinement or atomic coordinate data resulting 
# from the CCDC's data processing and validation procedures.
#
#######################################################################

data_ULECUK
_chemical_formula_moiety         'C22 H18 N2 O1'
_chemical_name_systematic        
1-Benzoyl-3,5-diphenyl-4,5-dihydro-1H-pyrazole
_symmetry_cell_setting           orthorhombic
_symmetry_space_group_name_H-M   'P c a 21'
_symmetry_Int_Tables_number      29
_space_group_name_Hall           'P 2c -2ac'
loop_
_symmetry_equiv_pos_site_id
_symmetry_equiv_pos_as_xyz
1 x,y,z
2 -x,-y,1/2+z
3 1/2+x,-y,z
4 1/2-x,y,1/2+z
_cell_length_a                   20.276(6)
_cell_length_b                   5.7859(17)
_cell_length_c                   14.786(4)
_cell_angle_alpha                90
_cell_angle_beta                 90
_cell_angle_gamma                90
_cell_volume                     1734.62
_exptl_crystal_colour            colorless
_exptl_crystal_description       block
_cell_formula_units_Z            4
loop_
_atom_site_label
_atom_site_type_symbol
_atom_site_fract_x
_atom_site_fract_y
_atom_site_fract_z
O1 O 0.27196(11) 0.5466(4) 0.77340(17)
N1 N 0.28823(12) 0.8795(5) 0.84788(17)
N2 N 0.33000(12) 1.0610(4) 0.87296(18)
C1 C 0.30374(16) 0.7269(6) 0.7810(2)
C2 C 0.35797(16) 0.7877(6) 0.7181(2)
C3 C 0.36177(18) 0.9982(7) 0.6747(3)
H1 H 0.3325 1.1160 0.6895
C4 C 0.4093(2) 1.0336(9) 0.6092(3)
H2 H 0.4105 1.1731 0.5780
C5 C 0.4545(2) 0.8659(11) 0.5897(3)
H3 H 0.4870 0.8929 0.5465
C6 C 0.4521(2) 0.6593(10) 0.6336(3)
H4 H 0.4833 0.5458 0.6209
C7 C 0.40374(18) 0.6183(7) 0.6965(3)
H5 H 0.4016 0.4752 0.7250
C8 C 0.23482(15) 0.8362(6) 0.9137(2)
H6 H 0.2392 0.6799 0.9386
C9 C 0.16756(15) 0.8651(6) 0.8719(2)
C10 C 0.15150(17) 1.0621(6) 0.8242(3)
H7 H 0.1833 1.1755 0.8150
C11 C 0.0887(2) 1.0930(7) 0.7897(3)
H8 H 0.0788 1.2254 0.7568
C12 C 0.04134(19) 0.9293(9) 0.8040(3)
H9 H -0.0014 0.9531 0.7830
C13 C 0.05668(19) 0.7314(8) 0.8490(3)
H10 H 0.0248 0.6176 0.8568
C14 C 0.11969(17) 0.6987(6) 0.8833(3)
H11 H 0.1297 0.5632 0.9142
C15 C 0.25078(16) 1.0154(6) 0.9873(2)
H12 H 0.2141 1.1206 0.9964
H13 H 0.2612 0.9407 1.0443
C16 C 0.30982(15) 1.1402(5) 0.9498(2)
C17 C 0.34201(15) 1.3367(6) 0.9937(2)
C18 C 0.39084(15) 1.4622(6) 0.9502(3)
H14 H 0.4046 1.4170 0.8929
C19 C 0.41933(17) 1.6525(6) 0.9903(3)
H15 H 0.4518 1.7353 0.9598
C20 C 0.39988(19) 1.7206(7) 1.0755(3)
H16 H 0.4191 1.8490 1.1027
C21 C 0.3520(2) 1.5976(7) 1.1199(3)
H17 H 0.3391 1.6421 1.1777
C22 C 0.32291(17) 1.4088(6) 1.0798(2)
H18 H 0.2901 1.3283 1.1104
loop_
_geom_bond_atom_site_label_1
_geom_bond_atom_site_label_2
_geom_bond_site_symmetry_1
_geom_bond_site_symmetry_2
O1 C1 1_555 1_555
N1 N2 1_555 1_555
N2 C16 1_555 1_555
C1 N1 1_555 1_555
C2 C1 1_555 1_555
C3 C2 1_555 1_555
H1 C3 1_555 1_555
C4 C3 1_555 1_555
H2 C4 1_555 1_555
C5 C4 1_555 1_555
H3 C5 1_555 1_555
C6 C5 1_555 1_555
H4 C6 1_555 1_555
C7 C2 1_555 1_555
H5 C7 1_555 1_555
C8 N1 1_555 1_555
H6 C8 1_555 1_555
C9 C8 1_555 1_555
C10 C9 1_555 1_555
H7 C10 1_555 1_555
C11 C10 1_555 1_555
H8 C11 1_555 1_555
C12 C11 1_555 1_555
H9 C12 1_555 1_555
C13 C12 1_555 1_555
H10 C13 1_555 1_555
C14 C9 1_555 1_555
H11 C14 1_555 1_555
C15 C8 1_555 1_555
H12 C15 1_555 1_555
H13 C15 1_555 1_555
C16 C15 1_555 1_555
C17 C16 1_555 1_555
C18 C17 1_555 1_555
H14 C18 1_555 1_555
C19 C18 1_555 1_555
H15 C19 1_555 1_555
C20 C19 1_555 1_555
H16 C20 1_555 1_555
C21 C20 1_555 1_555
H17 C21 1_555 1_555
C22 C17 1_555 1_555
H18 C22 1_555 1_555
C6 C7 1_555 1_555
C13 C14 1_555 1_555
C21 C22 1_555 1_555

#END
