
#######################################################################
#
#                 Cambridge Crystallographic Data Centre
#                                CCDC 
#
#######################################################################
#
# If this CIF has been generated from an entry in the Cambridge 
# Structural Database, then it will include bibliographic, chemical, 
# crystal, experimental, refinement or atomic coordinate data resulting 
# from the CCDC's data processing and validation procedures.
#
#######################################################################

data_ULEDEW
_chemical_formula_moiety         'C17 H27 N1 O4'
_chemical_name_systematic        
4-Hydroxy-3-methoxy-2,4-dimethyl-4a-(morpholin-4-yl)-4a,5,6,7,8,8a-hexahydronaphthalen-1(4H)-one
_symmetry_cell_setting           monoclinic
_symmetry_space_group_name_H-M   'P 21/c'
_symmetry_Int_Tables_number      14
_space_group_name_Hall           '-P 2ybc'
loop_
_symmetry_equiv_pos_site_id
_symmetry_equiv_pos_as_xyz
1 x,y,z
2 -x,1/2+y,1/2-z
3 -x,-y,-z
4 x,1/2-y,1/2+z
_cell_length_a                   7.204(3)
_cell_length_b                   12.771(5)
_cell_length_c                   17.936(7)
_cell_angle_alpha                90
_cell_angle_beta                 93.293(8)
_cell_angle_gamma                90
_cell_volume                     1647.43
_exptl_crystal_description       block
_cell_formula_units_Z            4
loop_
_atom_site_label
_atom_site_type_symbol
_atom_site_fract_x
_atom_site_fract_y
_atom_site_fract_z
N1 N 0.1786(3) 0.35598(15) 0.13685(11)
O1 O 0.0843(3) 0.13470(15) 0.17943(10)
H1 H 0.0767 0.0966 0.2159
O2 O 0.3480(3) -0.01313(16) 0.19037(10)
O3 O 0.6921(3) 0.18612(15) 0.02877(10)
O4 O -0.0020(3) 0.53757(15) 0.18682(12)
C1 C 0.3446(4) 0.2058(2) 0.25298(13)
H2 H 0.2565 0.2526 0.2735
H3 H 0.4609 0.2415 0.2488
H4 H 0.3627 0.1462 0.2852
C2 C 0.2456(5) -0.0877(2) 0.14587(18)
H5 H 0.1242 -0.0603 0.1324
H6 H 0.2338 -0.1513 0.1737
H7 H 0.3096 -0.1018 0.1015
C3 C 0.6602(4) -0.0073(2) 0.09622(16)
H8 H 0.6323 -0.0650 0.1281
H9 H 0.7873 0.0135 0.1060
H10 H 0.6414 -0.0283 0.0449
C4 C 0.2704(4) 0.1694(2) 0.17529(13)
C5 C 0.3912(4) 0.0783(2) 0.15478(13)
C6 C 0.5347(4) 0.0828(2) 0.11120(14)
C7 C 0.5714(4) 0.1815(2) 0.07419(14)
C8 C 0.4661(4) 0.28000(19) 0.09314(13)
H11 H 0.5319 0.3112 0.1370
C9 C 0.2665(3) 0.25660(18) 0.11477(12)
C10 C 0.1587(4) 0.2167(2) 0.04368(13)
H12 H 0.2133 0.1514 0.0282
H13 H 0.0310 0.2028 0.0549
C11 C 0.1608(4) 0.2950(2) -0.02027(14)
H14 H 0.0968 0.2650 -0.0643
H15 H 0.0941 0.3576 -0.0069
C12 C 0.3566(4) 0.3244(2) -0.03832(15)
H16 H 0.4164 0.2645 -0.0600
H17 H 0.3518 0.3803 -0.0750
C13 C 0.4707(4) 0.3599(2) 0.03041(14)
H18 H 0.4226 0.4262 0.0474
H19 H 0.5983 0.3708 0.0178
C14 C 0.2758(4) 0.4326(2) 0.18461(16)
H20 H 0.4059 0.4352 0.1734
H21 H 0.2685 0.4128 0.2366
C15 C 0.1890(5) 0.5374(2) 0.17163(19)
H22 H 0.2542 0.5886 0.2033
H23 H 0.2018 0.5579 0.1201
C16 C -0.0983(4) 0.4607(2) 0.14314(17)
H24 H -0.0956 0.4795 0.0908
H25 H -0.2273 0.4592 0.1560
C17 C -0.0158(4) 0.3539(2) 0.15456(15)
H26 H -0.0259 0.3323 0.2060
H27 H -0.0832 0.3038 0.1226
loop_
_geom_bond_atom_site_label_1
_geom_bond_atom_site_label_2
_geom_bond_site_symmetry_1
_geom_bond_site_symmetry_2
N1 C9 1_555 1_555
O1 H1 1_555 1_555
O2 C2 1_555 1_555
O3 C7 1_555 1_555
O4 C15 1_555 1_555
C1 H2 1_555 1_555
H3 C1 1_555 1_555
H4 C1 1_555 1_555
C2 H5 1_555 1_555
H6 C2 1_555 1_555
H7 C2 1_555 1_555
C3 H8 1_555 1_555
H9 C3 1_555 1_555
H10 C3 1_555 1_555
C4 O1 1_555 1_555
C5 O2 1_555 1_555
C6 C3 1_555 1_555
C7 C6 1_555 1_555
C8 C7 1_555 1_555
H11 C8 1_555 1_555
C9 C4 1_555 1_555
C10 C9 1_555 1_555
H12 C10 1_555 1_555
H13 C10 1_555 1_555
C11 C10 1_555 1_555
H14 C11 1_555 1_555
H15 C11 1_555 1_555
C12 C11 1_555 1_555
H16 C12 1_555 1_555
H17 C12 1_555 1_555
C13 C8 1_555 1_555
H18 C13 1_555 1_555
H19 C13 1_555 1_555
C14 N1 1_555 1_555
H20 C14 1_555 1_555
H21 C14 1_555 1_555
C15 C14 1_555 1_555
H22 C15 1_555 1_555
H23 C15 1_555 1_555
C16 O4 1_555 1_555
H24 C16 1_555 1_555
H25 C16 1_555 1_555
C17 N1 1_555 1_555
H26 C17 1_555 1_555
H27 C17 1_555 1_555
C1 C4 1_555 1_555
C4 C5 1_555 1_555
C5 C6 1_555 1_555
C8 C9 1_555 1_555
C12 C13 1_555 1_555
C16 C17 1_555 1_555

#END
