
#######################################################################
#
#                 Cambridge Crystallographic Data Centre
#                                CCDC 
#
#######################################################################
#
# If this CIF has been generated from an entry in the Cambridge 
# Structural Database, then it will include bibliographic, chemical, 
# crystal, experimental, refinement or atomic coordinate data resulting 
# from the CCDC's data processing and validation procedures.
#
#######################################################################

data_ULEGIC
_chemical_formula_moiety         'C22 H16 O2'
_chemical_name_systematic        
2-Phenyl-2,3-dihydrophenanthro[9,10-b][1,4]dioxine
_symmetry_cell_setting           monoclinic
_symmetry_space_group_name_H-M   'P 21/c'
_symmetry_Int_Tables_number      14
_space_group_name_Hall           '-P 2ybc'
loop_
_symmetry_equiv_pos_site_id
_symmetry_equiv_pos_as_xyz
1 x,y,z
2 -x,1/2+y,1/2-z
3 -x,-y,-z
4 x,1/2-y,1/2+z
_cell_length_a                   12.1831(3)
_cell_length_b                   5.46740(10)
_cell_length_c                   24.6064(7)
_cell_angle_alpha                90
_cell_angle_beta                 106.005(2)
_cell_angle_gamma                90
_cell_volume                     1575.5
_exptl_crystal_colour            colorless
_exptl_crystal_description       plate
_cell_formula_units_Z            4
loop_
_atom_site_label
_atom_site_type_symbol
_atom_site_fract_x
_atom_site_fract_y
_atom_site_fract_z
O1 O 0.69332(7) 0.38054(17) 0.93970(4)
O2 O 0.88773(8) 0.39205(19) 0.89709(4)
C1 C 0.70209(14) -0.0387(3) 1.00451(6)
H1 H 0.6455 -0.0275 0.9704
C2 C 0.69661(18) -0.2210(3) 1.04270(7)
H2 H 0.6366 -0.3325 1.0340
C3 C 0.77931(18) -0.2381(3) 1.09335(7)
H3 H 0.7755 -0.3612 1.1189
C4 C 0.86718(15) -0.0739(3) 1.10617(7)
H4 H 0.9232 -0.0854 1.1405
C5 C 0.87316(13) 0.1090(3) 1.06854(6)
H5 H 0.9327 0.2215 1.0778
C6 C 0.79093(11) 0.1262(2) 1.01686(5)
C7 C 0.80427(11) 0.3130(2) 0.97448(5)
H6 H 0.8427 0.4579 0.9944
C8 C 0.87275(12) 0.2128(3) 0.93669(6)
H7 H 0.9470 0.1598 0.9598
H8 H 0.8338 0.0716 0.9164
C9 C 0.79160(10) 0.5302(2) 0.87464(5)
C10 C 0.79662(11) 0.6914(2) 0.82942(5)
C11 C 0.89116(12) 0.6902(3) 0.80716(6)
H9 H 0.9501 0.5790 0.8208
C12 C 0.89711(14) 0.8519(3) 0.76553(6)
H10 H 0.9596 0.8491 0.7507
C13 C 0.81042(15) 1.0190(3) 0.74551(6)
H11 H 0.8158 1.1311 0.7179
C14 C 0.71683(14) 1.0214(3) 0.76584(6)
H12 H 0.6590 1.1344 0.7516
C15 C 0.70603(11) 0.8569(2) 0.80781(5)
C16 C 0.60599(11) 0.8495(2) 0.82931(5)
C17 C 0.51242(13) 1.0099(3) 0.81093(6)
H13 H 0.5139 1.1283 0.7840
C18 C 0.41948(13) 0.9955(3) 0.83177(6)
H14 H 0.3593 1.1047 0.8192
C19 C 0.41436(12) 0.8191(3) 0.87158(6)
H15 H 0.3503 0.8082 0.8850
C20 C 0.50375(11) 0.6612(3) 0.89093(6)
H16 H 0.5000 0.5429 0.9175
C21 C 0.60128(10) 0.6763(2) 0.87100(5)
C22 C 0.69876(10) 0.5239(2) 0.89464(5)
loop_
_geom_bond_atom_site_label_1
_geom_bond_atom_site_label_2
_geom_bond_site_symmetry_1
_geom_bond_site_symmetry_2
O1 C7 1_555 1_555
O2 C8 1_555 1_555
C1 H1 1_555 1_555
C2 C1 1_555 1_555
H2 C2 1_555 1_555
C3 C2 1_555 1_555
H3 C3 1_555 1_555
C4 C3 1_555 1_555
H4 C4 1_555 1_555
C5 C4 1_555 1_555
H5 C5 1_555 1_555
C6 C1 1_555 1_555
C7 C6 1_555 1_555
H6 C7 1_555 1_555
C8 C7 1_555 1_555
H7 C8 1_555 1_555
H8 C8 1_555 1_555
C9 O2 1_555 1_555
C10 C9 1_555 1_555
C11 C10 1_555 1_555
H9 C11 1_555 1_555
C12 C11 1_555 1_555
H10 C12 1_555 1_555
C13 C12 1_555 1_555
H11 C13 1_555 1_555
C14 C13 1_555 1_555
H12 C14 1_555 1_555
C15 C10 1_555 1_555
C16 C15 1_555 1_555
C17 C16 1_555 1_555
H13 C17 1_555 1_555
C18 C17 1_555 1_555
H14 C18 1_555 1_555
C19 C18 1_555 1_555
H15 C19 1_555 1_555
C20 C19 1_555 1_555
H16 C20 1_555 1_555
C21 C16 1_555 1_555
C22 O1 1_555 1_555
C5 C6 1_555 1_555
C9 C22 1_555 1_555
C14 C15 1_555 1_555
C20 C21 1_555 1_555
C21 C22 1_555 1_555

#END
