
#######################################################################
#
#                 Cambridge Crystallographic Data Centre
#                                CCDC 
#
#######################################################################
#
# If this CIF has been generated from an entry in the Cambridge 
# Structural Database, then it will include bibliographic, chemical, 
# crystal, experimental, refinement or atomic coordinate data resulting 
# from the CCDC's data processing and validation procedures.
#
#######################################################################

data_ULEJAY
_chemical_compound_source        
'culture extract of Penicillium chermesinum EN-480, an endophytic fungus obtained from the marine red alga Pterocladiella tenuis'
_chemical_name_common            'Chermesin C methanol solvate'
_chemical_formula_moiety         'C26 H40 O6,C1 H4 O1'
_chemical_name_systematic        
"Methyl 3',6'-dihydroxy-2',3a,4,5',5',7,8a'-heptamethyl-6-oxo-3',3a,4,4',4a',5,5',6,6',7',8',8a'-dodecahydro-2'H,3H-spiro[1-benzofuran-2,1'-naphthalene]-5-carboxylate methanol solvate"
_symmetry_cell_setting           orthorhombic
_symmetry_space_group_name_H-M   'P 21 21 21'
_symmetry_Int_Tables_number      19
_space_group_name_Hall           'P 2ac 2ab'
loop_
_symmetry_equiv_pos_site_id
_symmetry_equiv_pos_as_xyz
1 x,y,z
2 1/2-x,-y,1/2+z
3 -x,1/2+y,1/2-z
4 1/2+x,1/2-y,-z
_cell_length_a                   11.5247(6)
_cell_length_b                   12.6097(6)
_cell_length_c                   18.3600(10)
_cell_angle_alpha                90
_cell_angle_beta                 90
_cell_angle_gamma                90
_cell_volume                     2668.13
_cell_formula_units_Z            4
loop_
_atom_site_label
_atom_site_type_symbol
_atom_site_fract_x
_atom_site_fract_y
_atom_site_fract_z
O1 O 0.4028(2) 0.07171(19) 0.58861(16)
H1 H 0.4341 0.0233 0.5662
O2 O 0.9142(2) 0.4256(2) 0.62275(16)
H2 H 0.9445 0.4790 0.6059
O3 O 0.5308(2) 0.58288(17) 0.59143(12)
O4 O 0.6034(3) 0.9157(2) 0.32737(15)
O5 O 0.7420(3) 0.8774(3) 0.4078(2)
O6 O 0.4833(2) 0.91676(18) 0.48364(14)
C1 C 0.4258(3) 0.3665(3) 0.5681(2)
H3 H 0.3708 0.4220 0.5803
H4 H 0.4376 0.3680 0.5158
C2 C 0.3744(3) 0.2584(3) 0.5898(2)
H5 H 0.3580 0.2577 0.6416
H6 H 0.3021 0.2469 0.5639
C3 C 0.4595(3) 0.1700(3) 0.5715(2)
H7 H 0.4726 0.1715 0.5188
C4 C 0.5780(3) 0.1804(3) 0.6090(2)
C5 C 0.6261(3) 0.2942(3) 0.59257(18)
H8 H 0.6399 0.2949 0.5399
C6 C 0.7457(3) 0.3150(3) 0.6267(2)
H9 H 0.7375 0.3250 0.6788
H10 H 0.7959 0.2544 0.6185
C7 C 0.7997(3) 0.4135(3) 0.5928(2)
H11 H 0.8076 0.4011 0.5403
C8 C 0.7249(3) 0.5132(3) 0.6035(2)
H12 H 0.7583 0.5672 0.5713
C9 C 0.6029(3) 0.4890(3) 0.57251(19)
C10 C 0.5419(3) 0.3892(3) 0.60654(18)
C11 C 0.6098(3) 0.4926(3) 0.48825(18)
H13 H 0.6901 0.4929 0.4724
H14 H 0.5714 0.4313 0.4673
C12 C 0.5482(3) 0.5961(2) 0.46431(18)
C13 C 0.6233(3) 0.6696(3) 0.41694(19)
H15 H 0.6968 0.6804 0.4427
C14 C 0.5633(3) 0.7788(3) 0.41072(19)
H16 H 0.4996 0.7726 0.3756
C15 C 0.5135(3) 0.8224(3) 0.4822(2)
C16 C 0.5070(3) 0.7555(3) 0.54509(19)
C17 C 0.5278(3) 0.6507(3) 0.53569(19)
C18 C 0.5676(4) 0.1549(3) 0.6908(2)
H17 H 0.5473 0.0816 0.6969
H18 H 0.5085 0.1987 0.7122
H19 H 0.6404 0.1686 0.7144
C19 C 0.6604(3) 0.0992(3) 0.5747(3)
H20 H 0.6290 0.0292 0.5807
H21 H 0.7348 0.1032 0.5981
H22 H 0.6691 0.1142 0.5237
C20 C 0.7344(4) 0.5585(3) 0.6808(2)
H23 H 0.6754 0.6113 0.6879
H24 H 0.8094 0.5902 0.6872
H25 H 0.7243 0.5025 0.7156
C21 C 0.5161(4) 0.4093(3) 0.68768(19)
H26 H 0.4919 0.4815 0.6942
H27 H 0.5848 0.3963 0.7159
H28 H 0.4553 0.3625 0.7035
C22 C 0.4289(3) 0.5716(3) 0.4294(2)
H29 H 0.3793 0.5389 0.4649
H30 H 0.4393 0.5244 0.3889
H31 H 0.3941 0.6364 0.4128
C23 C 0.6520(4) 0.6247(3) 0.3426(2)
H32 H 0.6933 0.5591 0.3482
H33 H 0.6993 0.6742 0.3163
H34 H 0.5814 0.6122 0.3161
C24 C 0.4783(4) 0.8011(3) 0.6187(2)
H35 H 0.4736 0.7448 0.6538
H36 H 0.4052 0.8374 0.6162
H37 H 0.5379 0.8501 0.6329
C25 C 0.6478(3) 0.8623(3) 0.3826(2)
C26 C 0.6745(5) 1.0020(4) 0.2990(3)
H38 H 0.6834 1.0555 0.3358
H39 H 0.6375 1.0322 0.2570
H40 H 0.7494 0.9750 0.2855
O7 O 0.0540(4) 0.2426(4) 0.61461(19)
H41 H 0.0200 0.2995 0.6182
C27 C 0.0688(6) 0.1995(4) 0.6827(3)
H42 H 0.1443 0.1676 0.6859
H43 H 0.0105 0.1465 0.6910
H44 H 0.0620 0.2543 0.7188
loop_
_geom_bond_atom_site_label_1
_geom_bond_atom_site_label_2
_geom_bond_site_symmetry_1
_geom_bond_site_symmetry_2
O1 H1 1_555 1_555
O2 H2 1_555 1_555
O3 C9 1_555 1_555
O4 C25 1_555 1_555
O5 C25 1_555 1_555
O6 C15 1_555 1_555
C1 H3 1_555 1_555
H4 C1 1_555 1_555
C2 C1 1_555 1_555
H5 C2 1_555 1_555
H6 C2 1_555 1_555
C3 O1 1_555 1_555
H7 C3 1_555 1_555
C4 C3 1_555 1_555
C5 C4 1_555 1_555
H8 C5 1_555 1_555
C6 C5 1_555 1_555
H9 C6 1_555 1_555
H10 C6 1_555 1_555
C7 O2 1_555 1_555
H11 C7 1_555 1_555
C8 C7 1_555 1_555
H12 C8 1_555 1_555
C9 C8 1_555 1_555
C10 C1 1_555 1_555
C11 C9 1_555 1_555
H13 C11 1_555 1_555
H14 C11 1_555 1_555
C12 C11 1_555 1_555
C13 C12 1_555 1_555
H15 C13 1_555 1_555
C14 C13 1_555 1_555
H16 C14 1_555 1_555
C15 C14 1_555 1_555
C16 C15 1_555 1_555
C17 O3 1_555 1_555
C18 C4 1_555 1_555
H17 C18 1_555 1_555
H18 C18 1_555 1_555
H19 C18 1_555 1_555
C19 C4 1_555 1_555
H20 C19 1_555 1_555
H21 C19 1_555 1_555
H22 C19 1_555 1_555
C20 C8 1_555 1_555
H23 C20 1_555 1_555
H24 C20 1_555 1_555
H25 C20 1_555 1_555
C21 C10 1_555 1_555
H26 C21 1_555 1_555
H27 C21 1_555 1_555
H28 C21 1_555 1_555
C22 C12 1_555 1_555
H29 C22 1_555 1_555
H30 C22 1_555 1_555
H31 C22 1_555 1_555
C23 C13 1_555 1_555
H32 C23 1_555 1_555
H33 C23 1_555 1_555
H34 C23 1_555 1_555
C24 C16 1_555 1_555
H35 C24 1_555 1_555
H36 C24 1_555 1_555
H37 C24 1_555 1_555
C25 C14 1_555 1_555
C26 O4 1_555 1_555
H38 C26 1_555 1_555
H39 C26 1_555 1_555
H40 C26 1_555 1_555
O7 H41 1_555 1_555
C27 O7 1_555 1_555
H42 C27 1_555 1_555
H43 C27 1_555 1_555
H44 C27 1_555 1_555
C2 C3 1_555 1_555
C5 C10 1_555 1_555
C6 C7 1_555 1_555
C9 C10 1_555 1_555
C12 C17 1_555 1_555
C16 C17 1_555 1_555

#END
