
#######################################################################
#
#                 Cambridge Crystallographic Data Centre
#                                CCDC 
#
#######################################################################
#
# If this CIF has been generated from an entry in the Cambridge 
# Structural Database, then it will include bibliographic, chemical, 
# crystal, experimental, refinement or atomic coordinate data resulting 
# from the CCDC's data processing and validation procedures.
#
#######################################################################

data_ULEJEC
_chemical_compound_source        
'culture extract of Penicillium chermesinum EN-480, an endophytic fungus obtained from the marine red alga Pterocladiella tenuis'
_chemical_name_common            'Chermesin D methanol solvate'
_chemical_formula_moiety         'C25 H34 O5,C1 H4 O1'
_chemical_name_systematic        
"2',3a,4,5',5',7,8a'-Heptamethyl-6,6'-dioxo-3',3a,4',4a',5',6,6',7',8',8a'-decahydro-2'H,3H-spiro[1-benzofuran-2,1'-naphthalene]-5-carboxylic acid methanol solvate"
_symmetry_cell_setting           orthorhombic
_symmetry_space_group_name_H-M   'P 21 21 21'
_symmetry_Int_Tables_number      19
_space_group_name_Hall           'P 2ac 2ab'
loop_
_symmetry_equiv_pos_site_id
_symmetry_equiv_pos_as_xyz
1 x,y,z
2 1/2-x,-y,1/2+z
3 -x,1/2+y,1/2-z
4 1/2+x,1/2-y,-z
_cell_length_a                   8.0099(5)
_cell_length_b                   8.5188(4)
_cell_length_c                   35.9835(18)
_cell_angle_alpha                90
_cell_angle_beta                 90
_cell_angle_gamma                90
_cell_volume                     2455.32
_cell_formula_units_Z            4
loop_
_atom_site_label
_atom_site_type_symbol
_atom_site_fract_x
_atom_site_fract_y
_atom_site_fract_z
O1 O 0.2389(5) 0.3255(3) 0.55563(6)
H1 H 0.2162 0.2532 0.5415
O2 O 0.2835(4) 0.5776(3) 0.55285(5)
O3 O 0.2295(5) 0.1678(2) 0.49815(6)
O4 O 0.2511(2) 0.41525(17) 0.38241(4)
O5 O -0.0343(3) 0.9549(3) 0.27594(6)
C1 C 0.2522(5) 0.4559(4) 0.53674(8)
C2 C 0.2246(4) 0.4470(3) 0.49572(7)
C3 C 0.2286(5) 0.2869(3) 0.47822(7)
C4 C 0.2456(4) 0.2720(3) 0.43862(7)
C5 C 0.2239(3) 0.4046(3) 0.41898(6)
C6 C 0.1603(3) 0.5552(3) 0.43398(6)
C7 C 0.1952(3) 0.5754(3) 0.47496(6)
C8 C 0.2373(3) 0.6762(2) 0.40699(5)
H2 H 0.3260 0.7347 0.4190
H3 H 0.1532 0.7495 0.3983
C9 C 0.3074(3) 0.5772(3) 0.37409(6)
C10 C 0.5010(3) 0.5762(3) 0.37740(7)
H4 H 0.5252 0.5693 0.4041
C11 C 0.5681(3) 0.7360(4) 0.36480(8)
H5 H 0.5340 0.8155 0.3825
H6 H 0.6891 0.7327 0.3646
C12 C 0.5061(3) 0.7821(4) 0.32627(7)
H7 H 0.5476 0.7077 0.3081
H8 H 0.5488 0.8852 0.3199
C13 C 0.3143(3) 0.7845(3) 0.32516(6)
H9 H 0.2813 0.8513 0.3461
C14 C 0.2417(3) 0.6203(2) 0.33438(5)
C15 C 0.0495(3) 0.6307(3) 0.33449(6)
H10 H 0.0037 0.5269 0.3388
H11 H 0.0143 0.6976 0.3548
C16 C -0.0206(3) 0.6953(3) 0.29837(6)
H12 H 0.0008 0.6207 0.2786
H13 H -0.1406 0.7066 0.3008
C17 C 0.0532(4) 0.8512(3) 0.28788(6)
C18 C 0.2428(4) 0.8687(3) 0.28997(6)
C19 C 0.2920(6) 0.1162(3) 0.42198(9)
H14 H 0.3501 0.1329 0.3990
H15 H 0.1927 0.0562 0.4174
H16 H 0.3630 0.0601 0.4389
C20 C -0.0346(3) 0.5529(3) 0.43025(7)
H17 H -0.0804 0.4783 0.4475
H18 H -0.0647 0.5235 0.4054
H19 H -0.0782 0.6554 0.4356
C21 C 0.1792(4) 0.7408(3) 0.48879(6)
H20 H 0.2870 0.7902 0.4887
H21 H 0.1358 0.7400 0.5136
H22 H 0.1047 0.7981 0.4729
C22 C 0.5947(4) 0.4395(4) 0.35937(10)
H23 H 0.7024 0.4285 0.3708
H24 H 0.6084 0.4597 0.3333
H25 H 0.5322 0.3443 0.3627
C23 C 0.2909(4) 0.4899(3) 0.30639(7)
H26 H 0.2210 0.4969 0.2848
H27 H 0.2766 0.3889 0.3178
H28 H 0.4055 0.5030 0.2992
C24 C 0.2852(5) 1.0445(3) 0.29237(10)
H29 H 0.2552 1.0836 0.3165
H30 H 0.2241 1.1007 0.2737
H31 H 0.4028 1.0589 0.2885
C25 C 0.3113(4) 0.8048(4) 0.25263(7)
H32 H 0.2641 0.8636 0.2324
H33 H 0.2815 0.6962 0.2501
H34 H 0.4306 0.8151 0.2522
O6 O 0.4347(3) 0.5257(3) 0.62523(7)
H35 H 0.3849 0.5396 0.6056
C26 C 0.3828(7) 0.3857(4) 0.64110(11)
H36 H 0.4242 0.2993 0.6267
H37 H 0.2630 0.3823 0.6416
H38 H 0.4253 0.3784 0.6660
loop_
_geom_bond_atom_site_label_1
_geom_bond_atom_site_label_2
_geom_bond_site_symmetry_1
_geom_bond_site_symmetry_2
O1 H1 1_555 1_555
O2 C1 1_555 1_555
O3 C3 1_555 1_555
O4 C5 1_555 1_555
O5 C17 1_555 1_555
C1 O1 1_555 1_555
C2 C1 1_555 1_555
C3 C2 1_555 1_555
C4 C3 1_555 1_555
C5 C4 1_555 1_555
C6 C5 1_555 1_555
C7 C2 1_555 1_555
C8 C6 1_555 1_555
H2 C8 1_555 1_555
H3 C8 1_555 1_555
C9 O4 1_555 1_555
C10 C9 1_555 1_555
H4 C10 1_555 1_555
C11 C10 1_555 1_555
H5 C11 1_555 1_555
H6 C11 1_555 1_555
C12 C11 1_555 1_555
H7 C12 1_555 1_555
H8 C12 1_555 1_555
C13 C12 1_555 1_555
H9 C13 1_555 1_555
C14 C9 1_555 1_555
C15 C14 1_555 1_555
H10 C15 1_555 1_555
H11 C15 1_555 1_555
C16 C15 1_555 1_555
H12 C16 1_555 1_555
H13 C16 1_555 1_555
C17 C16 1_555 1_555
C18 C13 1_555 1_555
C19 C4 1_555 1_555
H14 C19 1_555 1_555
H15 C19 1_555 1_555
H16 C19 1_555 1_555
C20 C6 1_555 1_555
H17 C20 1_555 1_555
H18 C20 1_555 1_555
H19 C20 1_555 1_555
C21 C7 1_555 1_555
H20 C21 1_555 1_555
H21 C21 1_555 1_555
H22 C21 1_555 1_555
C22 C10 1_555 1_555
H23 C22 1_555 1_555
H24 C22 1_555 1_555
H25 C22 1_555 1_555
C23 C14 1_555 1_555
H26 C23 1_555 1_555
H27 C23 1_555 1_555
H28 C23 1_555 1_555
C24 C18 1_555 1_555
H29 C24 1_555 1_555
H30 C24 1_555 1_555
H31 C24 1_555 1_555
C25 C18 1_555 1_555
H32 C25 1_555 1_555
H33 C25 1_555 1_555
H34 C25 1_555 1_555
O6 H35 1_555 1_555
C26 O6 1_555 1_555
H36 C26 1_555 1_555
H37 C26 1_555 1_555
H38 C26 1_555 1_555
C6 C7 1_555 1_555
C8 C9 1_555 1_555
C13 C14 1_555 1_555
C17 C18 1_555 1_555

#END
