
#######################################################################
#
#                 Cambridge Crystallographic Data Centre
#                                CCDC 
#
#######################################################################
#
# If this CIF has been generated from an entry in the Cambridge 
# Structural Database, then it will include bibliographic, chemical, 
# crystal, experimental, refinement or atomic coordinate data resulting 
# from the CCDC's data processing and validation procedures.
#
#######################################################################

data_ULEJAX
_chemical_formula_moiety         'C15 H21 N3 O6,C2 H6 O1'
_chemical_name_systematic        
't-Butyl N-((1S)-1-((2,4-dihydroxybenzylidene)hydrazinecarbonyl)-2-hydroxyethyl)carbamate ethanol solvate'
_symmetry_cell_setting           monoclinic
_symmetry_space_group_name_H-M   'C 2'
_symmetry_Int_Tables_number      5
_space_group_name_Hall           'C 2y'
loop_
_symmetry_equiv_pos_site_id
_symmetry_equiv_pos_as_xyz
1 x,y,z
2 -x,y,-z
3 1/2+x,1/2+y,z
4 1/2-x,1/2+y,-z
_cell_length_a                   17.4054(4)
_cell_length_b                   8.7266(2)
_cell_length_c                   15.0105(4)
_cell_angle_alpha                90
_cell_angle_beta                 122.219(2)
_cell_angle_gamma                90
_cell_volume                     1928.87
_exptl_crystal_colour            colorless
_exptl_crystal_description       block
_cell_formula_units_Z            4
loop_
_atom_site_label
_atom_site_type_symbol
_atom_site_fract_x
_atom_site_fract_y
_atom_site_fract_z
O1 O -0.01014(11) 0.6314(2) 0.76103(14)
H1 H 0.0421(13) 0.674(4) 0.796(2)
O2 O -0.30367(9) 0.6766(2) 0.69839(12)
H2 H -0.3330(19) 0.728(3) 0.717(2)
O3 O 0.27544(10) 0.67257(19) 0.95473(12)
O4 O 0.39535(10) 0.8716(2) 0.89717(11)
H3 H 0.3474(13) 0.853(4) 0.8402(14)
O5 O 0.39849(11) 0.7949(2) 1.22519(13)
O6 O 0.53955(10) 0.7219(2) 1.26444(11)
N1 N 0.11580(11) 0.8217(2) 0.89800(13)
N2 N 0.20132(11) 0.8878(2) 0.95418(14)
H4 H 0.2041(18) 0.9793(16) 0.976(2)
N3 N 0.44121(11) 0.8160(2) 1.10779(13)
H5 H 0.4884(12) 0.824(3) 1.104(2)
C1 C -0.04087(13) 0.8468(3) 0.83868(15)
C2 C -0.06834(13) 0.7128(2) 0.77631(15)
C3 C -0.15725(13) 0.6607(3) 0.72779(15)
H6 H -0.1759 0.5722 0.6843
C4 C -0.21852(13) 0.7390(3) 0.74340(15)
C5 C -0.19388(13) 0.8728(3) 0.80333(16)
H7 H -0.2368 0.9262 0.8124
C6 C -0.10573(14) 0.9263(3) 0.84935(16)
H8 H -0.0888 1.0186 0.8889
C7 C 0.05209(14) 0.9025(3) 0.89384(16)
H9 H 0.0660 0.9998 0.9273
C8 C 0.27609(13) 0.8076(2) 0.97909(15)
C9 C 0.36197(12) 0.9053(2) 1.03518(15)
H10 H 0.3536 0.9876 1.0756
C10 C 0.37737(13) 0.9809(3) 0.95365(16)
H11 H 0.3228 1.0408 0.9035
H12 H 0.4292 1.0528 0.9900
C11 C 0.45577(14) 0.7797(3) 1.20233(17)
C12 C 0.57832(15) 0.6887(3) 1.37713(16)
C13 C 0.52980(18) 0.5534(4) 1.3883(2)
H13 H 0.4669 0.5818 1.3629
H14 H 0.5608 0.5234 1.4626
H15 H 0.5302 0.4672 1.3467
C14 C 0.5758(2) 0.8318(4) 1.4328(2)
H16 H 0.5988 0.9190 1.4126
H17 H 0.6139 0.8166 1.5092
H18 H 0.5132 0.8521 1.4127
C15 C 0.67546(16) 0.6455(4) 1.41358(19)
H19 H 0.6751 0.5548 1.3748
H20 H 0.7093 0.6227 1.4891
H21 H 0.7045 0.7309 1.4003
O7 O 0.27404(12) 0.3530(2) 0.28565(16)
H22 H 0.292(3) 0.443(2) 0.304(3)
C16 C 0.3454(10) 0.245(2) 0.3050(12)
H23 H 0.3995 0.3029 0.3182
H24 H 0.3241 0.1816 0.2413
C17 C 0.3713(5) 0.1452(9) 0.3940(6)
H25 H 0.3926 0.2073 0.4574
H26 H 0.4200 0.0765 0.4046
H27 H 0.3186 0.0845 0.3801
C18? C 0.3420(13) 0.249(3) 0.3037(18)
C19? C 0.4010(8) 0.2074(14) 0.4154(9)
H28? H 0.3795 0.2940 0.2789
H29? H 0.3133 0.1547 0.2621
H30? H 0.4427 0.2922 0.4538
H31? H 0.4360 0.1155 0.4219
H32? H 0.3637 0.1869 0.4450
loop_
_geom_bond_atom_site_label_1
_geom_bond_atom_site_label_2
_geom_bond_site_symmetry_1
_geom_bond_site_symmetry_2
O1 H1 1_555 1_555
O2 H2 1_555 1_555
O3 C8 1_555 1_555
O4 H3 1_555 1_555
O5 C11 1_555 1_555
O6 C11 1_555 1_555
N1 N2 1_555 1_555
N2 H4 1_555 1_555
N3 H5 1_555 1_555
C1 C2 1_555 1_555
C2 O1 1_555 1_555
C3 C2 1_555 1_555
H6 C3 1_555 1_555
C4 O2 1_555 1_555
C5 C4 1_555 1_555
H7 C5 1_555 1_555
C6 C1 1_555 1_555
H8 C6 1_555 1_555
C7 N1 1_555 1_555
H9 C7 1_555 1_555
C8 N2 1_555 1_555
C9 N3 1_555 1_555
H10 C9 1_555 1_555
C10 O4 1_555 1_555
H11 C10 1_555 1_555
H12 C10 1_555 1_555
C11 N3 1_555 1_555
C12 O6 1_555 1_555
C13 C12 1_555 1_555
H13 C13 1_555 1_555
H14 C13 1_555 1_555
H15 C13 1_555 1_555
C14 C12 1_555 1_555
H16 C14 1_555 1_555
H17 C14 1_555 1_555
H18 C14 1_555 1_555
C15 C12 1_555 1_555
H19 C15 1_555 1_555
H20 C15 1_555 1_555
H21 C15 1_555 1_555
O7 H22 1_555 1_555
C16 O7 1_555 1_555
H23 C16 1_555 1_555
H24 C16 1_555 1_555
C17 C16 1_555 1_555
H25 C17 1_555 1_555
H26 C17 1_555 1_555
H27 C17 1_555 1_555
C1 C7 1_555 1_555
C3 C4 1_555 1_555
C5 C6 1_555 1_555
C8 C9 1_555 1_555
C9 C10 1_555 1_555

#END
