
#######################################################################
#
#                 Cambridge Crystallographic Data Centre
#                                CCDC 
#
#######################################################################
#
# If this CIF has been generated from an entry in the Cambridge 
# Structural Database, then it will include bibliographic, chemical, 
# crystal, experimental, refinement or atomic coordinate data resulting 
# from the CCDC's data processing and validation procedures.
#
#######################################################################

data_ULELIH
_chemical_name_common            
'4-Iodoanilinium perchlorate 18-crown-6 clathrate'
_chemical_formula_moiety         'C6 H7 I1 N1 1+,Cl1 O4 1-,C12 H24 O6'
_chemical_name_systematic        
'4-Iodoanilinium perchlorate 1,4,7,10,13,16-hexaoxacyclo-octadecane clathrate'
_symmetry_cell_setting           orthorhombic
_symmetry_space_group_name_H-M   'P n m a'
_symmetry_Int_Tables_number      62
_space_group_name_Hall           '-P 2ac 2n'
loop_
_symmetry_equiv_pos_site_id
_symmetry_equiv_pos_as_xyz
1 x,y,z
2 1/2-x,-y,1/2+z
3 1/2+x,1/2-y,1/2-z
4 -x,1/2+y,-z
5 -x,-y,-z
6 1/2+x,y,1/2-z
7 1/2-x,1/2+y,1/2+z
8 x,1/2-y,z
_cell_length_a                   15.8805(11)
_cell_length_b                   11.3878(11)
_cell_length_c                   12.6754(8)
_cell_angle_alpha                90
_cell_angle_beta                 90
_cell_angle_gamma                90
_cell_volume                     2292.27
_exptl_crystal_colour            colorless
_exptl_crystal_description       prism
_chemical_melting_point          'above 473K'
_cell_formula_units_Z            4
loop_
_atom_site_label
_atom_site_type_symbol
_atom_site_fract_x
_atom_site_fract_y
_atom_site_fract_z
I1 I 1.020717(13) 0.7500 0.497027(14)
N1 N 0.69020(16) 0.7500 0.21864(19)
H1 H 0.6919 0.6850 0.1782
H2 H 0.6440 0.7500 0.2599
C1 C 0.87428(14) 0.6439(2) 0.37576(16)
H3 H 0.8994 0.5711 0.3975
C2 C 0.80150(13) 0.64394(18) 0.31502(16)
H4 H 0.7757 0.5713 0.2941
C3 C 0.76611(18) 0.7500 0.2846(2)
C4 C 0.91063(18) 0.7500 0.4050(2)
H1G H 0.6919 0.8150 0.1782
C1G C 0.87428(14) 0.8561(2) 0.37576(16)
H3G H 0.8994 0.9289 0.3975
C2G C 0.80150(13) 0.85606(18) 0.31502(16)
H4G H 0.7757 0.9287 0.2941
O1 O 0.79657(9) 0.45595(13) 0.59043(12)
O2 O 0.70915(15) 0.2500 0.52965(18)
C5 C 0.81605(14) 0.56511(19) 0.64275(17)
H5 H 0.7730 0.5830 0.6947
H6 H 0.8177 0.6286 0.5917
C6 C 0.71692(14) 0.4594(2) 0.53731(19)
H7 H 0.7124 0.5309 0.4961
H8 H 0.6715 0.4584 0.5885
C7 C 0.71071(15) 0.3540(2) 0.46600(18)
H9 H 0.6598 0.3587 0.4239
H10 H 0.7586 0.3518 0.4186
O3 O 0.89363(9) 0.46966(13) 0.78008(12)
O4 O 0.95815(15) 0.2500 0.84574(18)
C8 C 0.97204(13) 0.4574(2) 0.83409(18)
H11 H 0.9841 0.5282 0.8739
H12 H 1.0171 0.4456 0.7835
C9 C 0.96711(14) 0.35433(19) 0.90738(17)
H13 H 1.0178 0.3498 0.9499
H14 H 0.9193 0.3629 0.9543
C10 C 0.90019(14) 0.55317(19) 0.69569(17)
H15 H 0.9419 0.5269 0.6450
H16 H 0.9179 0.6287 0.7233
O1G O 0.79657(9) 0.04405(13) 0.59043(12)
C5G C 0.81605(14) -0.06511(19) 0.64275(17)
H5G H 0.7730 -0.0830 0.6947
H6G H 0.8177 -0.1286 0.5917
C6G C 0.71692(14) 0.0406(2) 0.53731(19)
H7G H 0.7124 -0.0309 0.4961
H8G H 0.6715 0.0416 0.5885
C7G C 0.71071(15) 0.1460(2) 0.46600(18)
H9G H 0.6598 0.1413 0.4239
H10G H 0.7586 0.1482 0.4186
O3G O 0.89363(9) 0.03034(13) 0.78008(12)
C8G C 0.97204(13) 0.0426(2) 0.83409(18)
H11G H 0.9841 -0.0282 0.8739
H12G H 1.0171 0.0544 0.7835
C9G C 0.96711(14) 0.14567(19) 0.90738(17)
H13G H 1.0178 0.1502 0.9499
H14G H 0.9193 0.1371 0.9543
C10G C 0.90019(14) -0.05317(19) 0.69569(17)
H15G H 0.9419 -0.0269 0.6450
H16G H 0.9179 -0.1287 0.7233
Cl1 Cl 0.60734(4) 0.7500 0.70231(5)
O5 O 0.62206(10) 0.64643(15) 0.76547(13)
O6 O 0.52124(13) 0.7500 0.6644(2)
O7 O 0.66395(14) 0.7500 0.61313(17)
O5G O 0.62206(10) 0.85357(15) 0.76547(13)
loop_
_geom_bond_atom_site_label_1
_geom_bond_atom_site_label_2
_geom_bond_site_symmetry_1
_geom_bond_site_symmetry_2
I1 C4 1_555 1_555
N1 H1 1_555 1_555
H2 N1 1_555 1_555
C1 H3 1_555 1_555
C2 C1 1_555 1_555
H4 C2 1_555 1_555
C3 N1 1_555 1_555
C4 C1 1_555 1_555
O1 C5 1_555 1_555
O2 C7 1_555 1_555
C5 H5 1_555 1_555
H6 C5 1_555 1_555
C6 O1 1_555 1_555
H7 C6 1_555 1_555
H8 C6 1_555 1_555
C7 C6 1_555 1_555
H9 C7 1_555 1_555
H10 C7 1_555 1_555
O3 C8 1_555 1_555
O4 C9 1_555 1_555
C8 H11 1_555 1_555
H12 C8 1_555 1_555
C9 C8 1_555 1_555
H13 C9 1_555 1_555
H14 C9 1_555 1_555
Cl1 O5 1_555 1_555
O6 Cl1 1_555 1_555
O7 Cl1 1_555 1_555
C10 C5 1_555 1_555
H15 C10 1_555 1_555
H16 C10 1_555 1_555
H1G N1 1_555 1_555
C1G C4 1_555 1_555
H3G C1G 1_555 1_555
C2G C3 1_555 1_555
H4G C2G 1_555 1_555
O1G C5G 1_555 1_555
C5G H5G 1_555 1_555
H6G C5G 1_555 1_555
C6G O1G 1_555 1_555
H7G C6G 1_555 1_555
H8G C6G 1_555 1_555
C7G O2 1_555 1_555
H9G C7G 1_555 1_555
H10G C7G 1_555 1_555
O3G C8G 1_555 1_555
C8G H11G 1_555 1_555
H12G C8G 1_555 1_555
C9G O4 1_555 1_555
H13G C9G 1_555 1_555
H14G C9G 1_555 1_555
O5G Cl1 1_555 1_555
C10G C5G 1_555 1_555
H15G C10G 1_555 1_555
H16G C10G 1_555 1_555
C2 C3 1_555 1_555
O3 C10 1_555 1_555
C1G C2G 1_555 1_555
C6G C7G 1_555 1_555
O3G C10G 1_555 1_555
C8G C9G 1_555 1_555

#END
