
#######################################################################
#
#                 Cambridge Crystallographic Data Centre
#                                CCDC 
#
#######################################################################
#
# If this CIF has been generated from an entry in the Cambridge 
# Structural Database, then it will include bibliographic, chemical, 
# crystal, experimental, refinement or atomic coordinate data resulting 
# from the CCDC's data processing and validation procedures.
#
#######################################################################

data_ULELUU
_chemical_formula_moiety         'C26 H44 N4 O6,C1 H2 Cl2'
_chemical_name_systematic        
'9,9,18,18-tetraethoxy-3,6,12,15-tetraazapentacyclo[13.3.1.1^3,17^.1^6,10^.1^8,12^]docosane-4,14-dione dichloromethane solvate'
_symmetry_cell_setting           triclinic
_symmetry_space_group_name_H-M   'P -1'
_symmetry_Int_Tables_number      2
_space_group_name_Hall           '-P 1'
loop_
_symmetry_equiv_pos_site_id
_symmetry_equiv_pos_as_xyz
1 x,y,z
2 -x,-y,-z
_cell_length_a                   8.4658(12)
_cell_length_b                   12.7598(18)
_cell_length_c                   14.619(2)
_cell_angle_alpha                75.041(2)
_cell_angle_beta                 89.508(2)
_cell_angle_gamma                87.310(2)
_cell_volume                     1523.96
_exptl_crystal_colour            colorless
_exptl_crystal_description       plate
_chemical_melting_point          '515 K'
_cell_formula_units_Z            2
loop_
_atom_site_label
_atom_site_type_symbol
_atom_site_fract_x
_atom_site_fract_y
_atom_site_fract_z
Cl1 Cl 0.31471(11) 0.33727(8) 0.73966(7)
Cl2 Cl 0.29197(16) 0.53834(12) 0.59281(8)
C1 C 0.3786(4) 0.4692(3) 0.7008(2)
H1 H 0.4950 0.4666 0.6937
H2 H 0.3519 0.5093 0.7489
O1 O 0.4655(2) 0.92990(14) 0.33362(12)
O2 O 0.9312(2) 1.28517(15) -0.23534(13)
O3 O 0.7701(2) 1.43852(14) -0.23642(13)
O4 O 1.0597(2) 1.07621(16) 0.10688(14)
O5 O 0.3386(2) 1.09135(14) 0.34651(13)
O6 O 0.7144(2) 1.45978(16) 0.11123(14)
N1 N 0.6837(2) 1.04853(17) 0.14698(15)
N2 N 0.7044(3) 1.37769(17) -0.00786(15)
N3 N 0.5077(2) 1.24271(17) 0.14972(15)
N4 N 0.8960(2) 1.16678(17) -0.01074(15)
C2 C 0.9453(3) 1.3564(2) -0.10204(19)
H3 H 1.0351 1.4001 -0.1333
C3 C 0.8095(3) 0.9999(2) 0.10077(19)
H4 H 0.7655 0.9761 0.0473
H5 H 0.8584 0.9355 0.1463
C4 C 1.0152(3) 1.2479(2) -0.0440(2)
H6 H 1.0939 1.2192 -0.0829
H7 H 1.0713 1.2595 0.0115
C5 C 0.8552(3) 1.4225(2) -0.0433(2)
H8 H 0.9218 1.4259 0.0110
H9 H 0.8355 1.4977 -0.0827
C6 C 0.6432(3) 1.4037(2) 0.0694(2)
C7 C 0.4488(3) 1.0432(2) 0.29417(18)
C8 C 0.4016(3) 1.0591(2) 0.19132(18)
H10 H 0.3010 1.0215 0.1900
C9 C 0.5291(3) 1.0052(2) 0.14172(19)
H11 H 0.5351 0.9260 0.1714
H12 H 0.4993 1.0165 0.0744
C10 C 0.8386(3) 1.3398(2) -0.18003(19)
C11 C 0.9329(3) 1.0830(2) 0.06478(19)
C12 C 0.7030(3) 1.2736(2) -0.13076(18)
H13 H 0.6313 1.2624 -0.1811
C13 C 0.4852(3) 1.3581(2) 0.1062(2)
H14 H 0.4424 1.3954 0.1532
H15 H 0.4086 1.3705 0.0533
C14 C 0.7660(3) 1.1622(2) -0.07446(19)
H16 H 0.6787 1.1235 -0.0368
H17 H 0.8028 1.1198 -0.1191
C15 C 0.6025(3) 1.1026(2) 0.29208(19)
H18 H 0.6373 1.0945 0.3588
C16 C 0.3693(3) 1.1799(2) 0.14627(19)
H19 H 0.3369 1.1905 0.0795
H20 H 0.2807 1.2071 0.1798
C17 C 0.5737(3) 1.2229(2) 0.24499(19)
H21 H 0.5001 1.2550 0.2844
H22 H 0.6750 1.2596 0.2415
C18 C 0.6068(3) 1.3340(2) -0.07076(19)
H23 H 0.5444 1.3947 -0.1131
H24 H 0.5315 1.2841 -0.0319
C19 C 0.7300(3) 1.0489(2) 0.24237(18)
H25 H 0.8288 1.0882 0.2395
H26 H 0.7518 0.9732 0.2799
C20 C 0.1844(3) 1.0490(3) 0.3549(2)
H27 H 0.1891 0.9730 0.3942
H28 H 0.1431 1.0499 0.2916
C21 C 0.8507(4) 1.2590(3) -0.3118(2)
H29 H 0.7739 1.3188 -0.3417
H30 H 0.7924 1.1919 -0.2881
C22 C 0.9720(4) 1.2431(3) -0.3821(2)
H31 H 0.9203 1.2231 -0.4345
H32 H 1.0487 1.1849 -0.3515
H33 H 1.0267 1.3106 -0.4065
C23 C 0.5177(4) 0.8954(2) 0.4298(2)
H34 H 0.4526 0.9332 0.4691
H35 H 0.6292 0.9140 0.4342
C24 C 0.8813(4) 1.5133(2) -0.2882(2)
H36 H 0.9699 1.4732 -0.3108
H37 H 0.9249 1.5554 -0.2469
C25 C 0.5039(5) 0.7779(3) 0.4646(2)
H38 H 0.5410 0.7539 0.5304
H39 H 0.5683 0.7409 0.4253
H40 H 0.3930 0.7601 0.4615
C26 C 0.0789(4) 1.1177(3) 0.4000(3)
H41 H -0.0274 1.0894 0.4067
H42 H 0.0739 1.1925 0.3602
H43 H 0.1208 1.1165 0.4625
C27 C 0.7957(4) 1.5876(3) -0.3702(2)
H44 H 0.8693 1.6389 -0.4073
H45 H 0.7095 1.6277 -0.3470
H46 H 0.7522 1.5450 -0.4102
loop_
_geom_bond_atom_site_label_1
_geom_bond_atom_site_label_2
_geom_bond_site_symmetry_1
_geom_bond_site_symmetry_2
Cl1 C1 1_555 1_555
Cl2 C1 1_555 1_555
C1 H1 1_555 1_555
H2 C1 1_555 1_555
O1 C7 1_555 1_555
O2 C10 1_555 1_555
O3 C10 1_555 1_555
O4 C11 1_555 1_555
O5 C7 1_555 1_555
O6 C6 1_555 1_555
N1 C3 1_555 1_555
N2 C5 1_555 1_555
N3 C13 1_555 1_555
N4 C4 1_555 1_555
C2 H3 1_555 1_555
C3 H4 1_555 1_555
H5 C3 1_555 1_555
C4 C2 1_555 1_555
H6 C4 1_555 1_555
H7 C4 1_555 1_555
C5 C2 1_555 1_555
H8 C5 1_555 1_555
H9 C5 1_555 1_555
C6 N2 1_555 1_555
C7 C8 1_555 1_555
C8 H10 1_555 1_555
C9 N1 1_555 1_555
H11 C9 1_555 1_555
H12 C9 1_555 1_555
C10 C2 1_555 1_555
C11 N4 1_555 1_555
C12 C10 1_555 1_555
H13 C12 1_555 1_555
C13 C6 1_555 1_555
H14 C13 1_555 1_555
H15 C13 1_555 1_555
C14 N4 1_555 1_555
H16 C14 1_555 1_555
H17 C14 1_555 1_555
C15 C7 1_555 1_555
H18 C15 1_555 1_555
C16 N3 1_555 1_555
H19 C16 1_555 1_555
H20 C16 1_555 1_555
C17 N3 1_555 1_555
H21 C17 1_555 1_555
H22 C17 1_555 1_555
C18 N2 1_555 1_555
H23 C18 1_555 1_555
H24 C18 1_555 1_555
C19 N1 1_555 1_555
H25 C19 1_555 1_555
H26 C19 1_555 1_555
C20 O5 1_555 1_555
H27 C20 1_555 1_555
H28 C20 1_555 1_555
C21 O2 1_555 1_555
H29 C21 1_555 1_555
H30 C21 1_555 1_555
C22 C21 1_555 1_555
H31 C22 1_555 1_555
H32 C22 1_555 1_555
H33 C22 1_555 1_555
C23 O1 1_555 1_555
H34 C23 1_555 1_555
H35 C23 1_555 1_555
C24 O3 1_555 1_555
H36 C24 1_555 1_555
H37 C24 1_555 1_555
C25 C23 1_555 1_555
H38 C25 1_555 1_555
H39 C25 1_555 1_555
H40 C25 1_555 1_555
C26 C20 1_555 1_555
H41 C26 1_555 1_555
H42 C26 1_555 1_555
H43 C26 1_555 1_555
C27 C24 1_555 1_555
H44 C27 1_555 1_555
H45 C27 1_555 1_555
H46 C27 1_555 1_555
C3 C11 1_555 1_555
C8 C9 1_555 1_555
C8 C16 1_555 1_555
C12 C14 1_555 1_555
C12 C18 1_555 1_555
C15 C17 1_555 1_555
C15 C19 1_555 1_555

#END
