
#######################################################################
#
#                 Cambridge Crystallographic Data Centre
#                                CCDC 
#
#######################################################################
#
# If this CIF has been generated from an entry in the Cambridge 
# Structural Database, then it will include bibliographic, chemical, 
# crystal, experimental, refinement or atomic coordinate data resulting 
# from the CCDC's data processing and validation procedures.
#
#######################################################################

data_ULENOP
_chemical_name_common            
N$1!,N$8!,N'$1!,N'$8!-tetrakis(3-chlorophenyl)octanediimidamide
_chemical_formula_moiety         'C32 H30 Cl4 N4'
_chemical_name_systematic        
1,8-Bis(3-chloroanilino)-N,N'-bis(3-chlorophenyl)octane-1,8-diimine
_symmetry_cell_setting           monoclinic
_symmetry_space_group_name_H-M   'C 2/c'
_symmetry_Int_Tables_number      15
_space_group_name_Hall           '-C 2yn'
loop_
_symmetry_equiv_pos_site_id
_symmetry_equiv_pos_as_xyz
1 x,y,z
2 -x,y,1/2-z
3 1/2+x,1/2+y,z
4 1/2-x,1/2+y,1/2-z
5 -x,-y,-z
6 x,-y,1/2+z
7 1/2-x,1/2-y,-z
8 1/2+x,1/2-y,1/2+z
_cell_length_a                   22.349(3)
_cell_length_b                   13.223(2)
_cell_length_c                   22.644(3)
_cell_angle_alpha                90
_cell_angle_beta                 108.790(10)
_cell_angle_gamma                90
_cell_volume                     6335.14
_exptl_crystal_colour            colorless
_exptl_crystal_description       prism
_cell_formula_units_Z            8
loop_
_atom_site_label
_atom_site_type_symbol
_atom_site_fract_x
_atom_site_fract_y
_atom_site_fract_z
C1 C 0.63535(16) 0.8110(3) 0.10493(18)
C2 C 0.61041(18) 0.7419(4) 0.0579(2)
H1 H 0.6206 0.6737 0.0650
C3 C 0.57069(19) 0.7723(5) 0.0006(2)
C4 C 0.5548(2) 0.8728(5) -0.0114(3)
H2 H 0.5283 0.8933 -0.0504
C5 C 0.5787(2) 0.9407(5) 0.0347(3)
H3 H 0.5678 1.0085 0.0272
C6 C 0.6187(2) 0.9125(4) 0.0929(3)
H4 H 0.6344 0.9609 0.1238
C7 C 0.66481(15) 0.7380(3) 0.20450(18)
C8 C 0.77434(16) 0.6888(3) 0.26857(18)
C9 C 0.80067(18) 0.6761(3) 0.2217(2)
H5 H 0.7756 0.6764 0.1799
C10 C 0.8655(2) 0.6627(4) 0.2385(3)
C11 C 0.9041(2) 0.6637(5) 0.2994(3)
H6 H 0.9477 0.6566 0.3095
C12 C 0.8765(2) 0.6757(4) 0.3453(3)
H7 H 0.9015 0.6754 0.3870
C13 C 0.8120(2) 0.6880(3) 0.3298(2)
H8 H 0.7939 0.6958 0.3611
C14 C 0.59767(18) 0.7315(4) 0.2054(2)
H9 H 0.5928 0.6712 0.2278
H10 H 0.5690 0.7264 0.1631
C15 C 0.5809(3) 0.8240(6) 0.2367(3)
H11 H 0.5921 0.8852 0.2190
H12 H 0.6038 0.8231 0.2810
C16 C 0.5112(4) 0.8207(10) 0.2255(3)
H13 H 0.4926 0.8784 0.1996
H14 H 0.4949 0.7606 0.2011
Cl1 Cl 0.53949(8) 0.68487(18) -0.05730(8)
Cl2 Cl 0.8972(3) 0.6372(10) 0.1775(3)
N1 N 0.68110(12) 0.7822(2) 0.16139(14)
N2 N 0.70837(13) 0.6998(2) 0.25587(14)
H29 H 0.6941 0.6794 0.2848
C1A C 0.36465(16) 0.8110(3) 0.39507(18)
C2A C 0.38959(18) 0.7419(4) 0.4421(2)
H1A H 0.3794 0.6737 0.4350
C3A C 0.42931(19) 0.7723(5) 0.4994(2)
C4A C 0.4452(2) 0.8728(5) 0.5114(3)
H2A H 0.4717 0.8933 0.5504
C5A C 0.4213(2) 0.9407(5) 0.4653(3)
H3A H 0.4322 1.0085 0.4728
C6A C 0.3813(2) 0.9125(4) 0.4071(3)
H4A H 0.3656 0.9609 0.3762
C7A C 0.33519(15) 0.7380(3) 0.29550(18)
C8A C 0.22566(16) 0.6888(3) 0.23143(18)
C9A C 0.19933(18) 0.6761(3) 0.2783(2)
H5A H 0.2244 0.6764 0.3201
C10A C 0.1345(2) 0.6627(4) 0.2615(3)
C11A C 0.0959(2) 0.6637(5) 0.2006(3)
H6A H 0.0523 0.6566 0.1905
C12A C 0.1235(2) 0.6757(4) 0.1547(3)
H7A H 0.0985 0.6754 0.1130
C13A C 0.1880(2) 0.6880(3) 0.1702(2)
H8A H 0.2061 0.6958 0.1389
C14A C 0.40233(18) 0.7315(4) 0.2946(2)
H9A H 0.4072 0.6712 0.2722
H10A H 0.4310 0.7264 0.3369
C15A C 0.4191(3) 0.8240(6) 0.2633(3)
H11A H 0.4079 0.8852 0.2810
H12A H 0.3962 0.8231 0.2190
C16A C 0.4888(4) 0.8207(10) 0.2745(3)
H13A H 0.5074 0.8784 0.3004
H14A H 0.5051 0.7606 0.2989
Cl1A Cl 0.46051(8) 0.68487(18) 0.55730(8)
Cl2A Cl 0.1028(3) 0.6372(10) 0.3225(3)
N1A N 0.31890(12) 0.7822(2) 0.33861(14)
N2A N 0.29163(13) 0.6998(2) 0.24413(14)
H29A H 0.3059 0.6794 0.2152
C17 C 0.63312(17) 0.6138(3) 0.38310(17)
C18 C 0.6569(2) 0.7033(4) 0.4113(2)
H15 H 0.6913 0.7335 0.4038
C19 C 0.6292(3) 0.7482(4) 0.4511(3)
C20 C 0.5771(2) 0.7112(5) 0.4608(2)
H16 H 0.5567 0.7467 0.4842
C21 C 0.5554(3) 0.6213(5) 0.4355(3)
H17 H 0.5220 0.5910 0.4449
C22 C 0.5819(3) 0.5725(4) 0.3954(3)
H18 H 0.5649 0.5117 0.3769
C23 C 0.69546(16) 0.4917(3) 0.35604(16)
C24 C 0.68501(19) 0.4508(3) 0.24635(17)
C25 C 0.7241(2) 0.4475(3) 0.21015(19)
H19 H 0.7677 0.4434 0.2285
C26 C 0.6968(4) 0.4506(4) 0.1452(2)
C27 C 0.6336(4) 0.4577(5) 0.1182(3)
H20 H 0.6162 0.4606 0.0750
C28 C 0.5958(3) 0.4607(5) 0.1543(3)
H21 H 0.5522 0.4660 0.1356
C29 C 0.6208(2) 0.4560(4) 0.2186(2)
H22 H 0.5942 0.4564 0.2429
C30 C 0.72564(18) 0.4535(3) 0.42161(16)
H23 H 0.7085 0.4913 0.4492
H24 H 0.7706 0.4673 0.4342
C31 C 0.71619(18) 0.3416(3) 0.43018(17)
H25 H 0.7307 0.3034 0.4008
H26 H 0.6715 0.3281 0.4211
C32 C 0.75182(19) 0.3065(3) 0.49619(17)
H27 H 0.7958 0.3263 0.5067
H28 H 0.7344 0.3400 0.5251
Cl3 Cl 0.74629(14) 0.44327(16) 0.10060(9)
Cl4 Cl 0.6688(3) 0.8514(4) 0.4962(3)
N3 N 0.65826(15) 0.5678(2) 0.33991(14)
N4 N 0.71358(15) 0.4416(2) 0.31194(13)
H30 H 0.7451 0.4009 0.3250
C17F C 0.86688(17) -0.1138(3) 0.61690(17)
C18F C 0.8431(2) -0.2033(4) 0.5887(2)
H15F H 0.8087 -0.2335 0.5962
C19F C 0.8708(3) -0.2482(4) 0.5489(3)
C20F C 0.9229(2) -0.2112(5) 0.5392(2)
H16F H 0.9433 -0.2467 0.5158
C21F C 0.9446(3) -0.1213(5) 0.5645(3)
H17F H 0.9780 -0.0910 0.5551
C22F C 0.9181(3) -0.0725(4) 0.6046(3)
H18F H 0.9351 -0.0117 0.6231
C23F C 0.80454(16) 0.0083(3) 0.64396(16)
C24F C 0.81499(19) 0.0492(3) 0.75365(17)
C25F C 0.7759(2) 0.0525(3) 0.78985(19)
H19F H 0.7323 0.0566 0.7715
C26F C 0.8032(4) 0.0494(4) 0.8548(2)
C27F C 0.8664(4) 0.0423(5) 0.8818(3)
H20F H 0.8838 0.0394 0.9250
C28F C 0.9042(3) 0.0393(5) 0.8457(3)
H21F H 0.9478 0.0340 0.8644
C29F C 0.8792(2) 0.0440(4) 0.7814(2)
H22F H 0.9058 0.0436 0.7571
C30F C 0.77436(18) 0.0465(3) 0.57839(16)
H23F H 0.7915 0.0087 0.5508
H24F H 0.7294 0.0327 0.5658
C31F C 0.78381(18) 0.1584(3) 0.56982(17)
H25F H 0.7693 0.1966 0.5992
H26F H 0.8285 0.1719 0.5789
C32F C 0.74818(19) 0.1935(3) 0.50381(17)
H27F H 0.7042 0.1737 0.4933
H28F H 0.7656 0.1600 0.4749
Cl3F Cl 0.75371(14) 0.05673(16) 0.89940(9)
Cl4F Cl 0.8312(3) -0.3514(4) 0.5038(3)
N3F N 0.84174(15) -0.0678(2) 0.66009(14)
N4F N 0.78642(15) 0.0584(2) 0.68806(13)
H30F H 0.7549 0.0991 0.6750
Cl5? Cl 0.9069(5) 0.695(2) 0.1895(8)
Cl6? Cl 0.6346(7) 0.8849(7) 0.4577(9)
loop_
_geom_bond_atom_site_label_1
_geom_bond_atom_site_label_2
_geom_bond_site_symmetry_1
_geom_bond_site_symmetry_2
C1 C2 1_555 1_555
C2 H1 1_555 1_555
C3 C2 1_555 1_555
C4 C3 1_555 1_555
H2 C4 1_555 1_555
C5 C4 1_555 1_555
H3 C5 1_555 1_555
C6 C1 1_555 1_555
H4 C6 1_555 1_555
C7 C14 1_555 1_555
C8 C9 1_555 1_555
C9 H5 1_555 1_555
C10 C9 1_555 1_555
C11 C10 1_555 1_555
H6 C11 1_555 1_555
C12 C11 1_555 1_555
H7 C12 1_555 1_555
C13 C8 1_555 1_555
H8 C13 1_555 1_555
C14 H9 1_555 1_555
H10 C14 1_555 1_555
C15 C14 1_555 1_555
H11 C15 1_555 1_555
H12 C15 1_555 1_555
C16 C15 1_555 1_555
H13 C16 1_555 1_555
H14 C16 1_555 1_555
C17 C18 1_555 1_555
C18 H15 1_555 1_555
C19 C18 1_555 1_555
C20 C19 1_555 1_555
H16 C20 1_555 1_555
C21 C20 1_555 1_555
H17 C21 1_555 1_555
C22 C17 1_555 1_555
H18 C22 1_555 1_555
C23 C30 1_555 1_555
C24 C25 1_555 1_555
C25 H19 1_555 1_555
C26 C25 1_555 1_555
C27 C26 1_555 1_555
H20 C27 1_555 1_555
C28 C27 1_555 1_555
H21 C28 1_555 1_555
C29 C24 1_555 1_555
H22 C29 1_555 1_555
C30 H23 1_555 1_555
H24 C30 1_555 1_555
C31 C30 1_555 1_555
H25 C31 1_555 1_555
H26 C31 1_555 1_555
C32 C31 1_555 1_555
H27 C32 1_555 1_555
H28 C32 1_555 1_555
Cl1 C3 1_555 1_555
Cl2 C10 1_555 1_555
Cl3 C26 1_555 1_555
Cl4 C19 1_555 1_555
N1 C1 1_555 1_555
N2 C7 1_555 1_555
H29 N2 1_555 1_555
N3 C17 1_555 1_555
N4 C23 1_555 1_555
H30 N4 1_555 1_555
C1A C2A 1_555 1_555
C2A H1A 1_555 1_555
C3A C2A 1_555 1_555
C4A C3A 1_555 1_555
H2A C4A 1_555 1_555
C5A C4A 1_555 1_555
H3A C5A 1_555 1_555
C6A C1A 1_555 1_555
H4A C6A 1_555 1_555
C7A C14A 1_555 1_555
C8A C9A 1_555 1_555
C9A H5A 1_555 1_555
C10A C9A 1_555 1_555
C11A C10A 1_555 1_555
H6A C11A 1_555 1_555
C12A C11A 1_555 1_555
H7A C12A 1_555 1_555
C13A C8A 1_555 1_555
H8A C13A 1_555 1_555
C14A H9A 1_555 1_555
H10A C14A 1_555 1_555
C15A C14A 1_555 1_555
H11A C15A 1_555 1_555
H12A C15A 1_555 1_555
C16A C16 1_555 1_555
H13A C16A 1_555 1_555
H14A C16A 1_555 1_555
C17F C18F 1_555 1_555
C18F H15F 1_555 1_555
C19F C18F 1_555 1_555
C20F C19F 1_555 1_555
H16F C20F 1_555 1_555
C21F C20F 1_555 1_555
H17F C21F 1_555 1_555
C22F C17F 1_555 1_555
H18F C22F 1_555 1_555
C23F C30F 1_555 1_555
C24F C25F 1_555 1_555
C25F H19F 1_555 1_555
C26F C25F 1_555 1_555
C27F C26F 1_555 1_555
H20F C27F 1_555 1_555
C28F C27F 1_555 1_555
H21F C28F 1_555 1_555
C29F C24F 1_555 1_555
H22F C29F 1_555 1_555
C30F H23F 1_555 1_555
H24F C30F 1_555 1_555
C31F C30F 1_555 1_555
H25F C31F 1_555 1_555
H26F C31F 1_555 1_555
C32F C32 1_555 1_555
H27F C32F 1_555 1_555
H28F C32F 1_555 1_555
Cl1A C3A 1_555 1_555
Cl2A C10A 1_555 1_555
Cl3F C26F 1_555 1_555
Cl4F C19F 1_555 1_555
N1A C1A 1_555 1_555
N2A C7A 1_555 1_555
H29A N2A 1_555 1_555
N3F C17F 1_555 1_555
N4F C23F 1_555 1_555
H30F N4F 1_555 1_555
C5 C6 1_555 1_555
C7 N1 1_555 1_555
C8 N2 1_555 1_555
C12 C13 1_555 1_555
C21 C22 1_555 1_555
C23 N3 1_555 1_555
C24 N4 1_555 1_555
C28 C29 1_555 1_555
C5A C6A 1_555 1_555
C7A N1A 1_555 1_555
C8A N2A 1_555 1_555
C12A C13A 1_555 1_555
C15A C16A 1_555 1_555
C21F C22F 1_555 1_555
C23F N3F 1_555 1_555
C24F N4F 1_555 1_555
C28F C29F 1_555 1_555
C31F C32F 1_555 1_555

#END
