
#######################################################################
#
#                 Cambridge Crystallographic Data Centre
#                                CCDC 
#
#######################################################################
#
# If this CIF has been generated from an entry in the Cambridge 
# Structural Database, then it will include bibliographic, chemical, 
# crystal, experimental, refinement or atomic coordinate data resulting 
# from the CCDC's data processing and validation procedures.
#
#######################################################################

data_ULENOQ
_chemical_formula_moiety         'C10 H12 N2 O3 Se1'
_chemical_name_systematic        
1-(5-(2-hydroxyethyl)-2,5-dihydroselenophen-2-yl)pyrimidine-2,4(1H,3H)-dione
_symmetry_cell_setting           monoclinic
_symmetry_space_group_name_H-M   'P 21'
_symmetry_Int_Tables_number      4
_space_group_name_Hall           'P 2yb'
loop_
_symmetry_equiv_pos_site_id
_symmetry_equiv_pos_as_xyz
1 x,y,z
2 -x,1/2+y,-z
_cell_length_a                   6.76648(11)
_cell_length_b                   9.28961(17)
_cell_length_c                   18.0748(3)
_cell_angle_alpha                90
_cell_angle_beta                 93.6683(15)
_cell_angle_gamma                90
_cell_volume                     1133.82
_exptl_crystal_colour            colorless
_exptl_crystal_description       block
_cell_formula_units_Z            4
loop_
_atom_site_label
_atom_site_type_symbol
_atom_site_fract_x
_atom_site_fract_y
_atom_site_fract_z
Se1 Se -0.01768(4) 0.71734(3) 0.42893(2)
O1 O -0.2452(3) 0.7262(3) 0.60886(11)
O2 O 0.1438(3) 0.4247(3) 0.75214(12)
N1 N 0.0835(3) 0.7145(3) 0.58672(13)
O3 O 0.4224(4) 0.4260(3) 0.30440(14)
H1 H 0.3826 0.3573 0.3277
N2 N -0.0425(4) 0.5818(3) 0.68194(14)
H2 H -0.1403 0.5616 0.7083
C1 C -0.0792(4) 0.6773(3) 0.62509(16)
C2 C 0.2663(4) 0.6544(3) 0.60497(17)
H3 H 0.3726 0.6813 0.5779
C3 C 0.2402(5) 0.8953(3) 0.51056(18)
H4 H 0.2939 0.9600 0.5456
C4 C 0.2425(5) 0.7699(3) 0.39211(18)
H5 H 0.2198 0.8209 0.3449
C5 C 0.0542(4) 0.8150(4) 0.52387(16)
H6 H -0.0500 0.8840 0.5343
C6 C 0.2986(5) 0.5483(4) 0.31526(19)
H7 H 0.1660 0.5155 0.3240
H8 H 0.2906 0.6063 0.2705
C7 C 0.3264(5) 0.8730(4) 0.44855(19)
H9 H 0.4420 0.9225 0.4398
C8 C 0.3759(5) 0.6404(4) 0.38006(18)
H10 H 0.5079 0.6741 0.3711
H11 H 0.3853 0.5822 0.4247
C9 C 0.1365(5) 0.5138(3) 0.70167(16)
C10 C 0.2976(4) 0.5592(3) 0.65974(17)
H12 H 0.4239 0.5224 0.6706
Se2 Se 0.50552(5) 0.30832(4) 0.10242(2)
O4 O 0.2789(3) 0.2502(2) -0.06709(12)
O5 O 0.8150(4) 0.4762(3) 0.29123(13)
H13 H 0.7023 0.4540 0.3011
O6 O 0.6577(3) 0.4541(3) -0.23745(12)
N3 N 0.6143(4) 0.2390(3) -0.04559(13)
N4 N 0.4746(4) 0.3465(3) -0.15268(14)
H14 H 0.3708 0.3676 -0.1805
C11 C 0.4435(5) 0.2766(3) -0.08726(17)
C12 C 0.5891(5) 0.1712(3) 0.02683(17)
H15 H 0.4890 0.0952 0.0204
C13 C 0.7771(5) 0.1062(4) 0.05925(18)
H16 H 0.8350 0.0286 0.0364
C14 C 0.7639(5) 0.2837(4) 0.15903(17)
H17 H 0.7382 0.2525 0.2093
C15 C 0.8236(4) 0.3446(3) -0.13201(17)
H18 H 0.9505 0.3657 -0.1458
C16 C 0.6552(4) 0.3867(3) -0.17848(16)
C17 C 0.8594(5) 0.1617(4) 0.12107(19)
H19 H 0.9783 0.1242 0.1412
C18 C 0.8902(5) 0.4191(4) 0.16512(18)
H20 H 1.0239 0.3931 0.1826
H21 H 0.8962 0.4614 0.1162
C19 C 0.8117(5) 0.5306(4) 0.21708(19)
H22 H 0.8923 0.6169 0.2161
H23 H 0.6771 0.5561 0.2005
C20 C 0.7989(4) 0.2747(3) -0.06839(17)
H24 H 0.9104 0.2492 -0.0385
loop_
_geom_bond_atom_site_label_1
_geom_bond_atom_site_label_2
_geom_bond_site_symmetry_1
_geom_bond_site_symmetry_2
Se1 C4 1_555 1_555
O1 C1 1_555 1_555
O2 C9 1_555 1_555
N1 C1 1_555 1_555
O3 H1 1_555 1_555
N2 H2 1_555 1_555
C1 N2 1_555 1_555
C2 N1 1_555 1_555
H3 C2 1_555 1_555
C3 H4 1_555 1_555
C4 H5 1_555 1_555
C5 Se1 1_555 1_555
H6 C5 1_555 1_555
C6 O3 1_555 1_555
H7 C6 1_555 1_555
H8 C6 1_555 1_555
C7 C3 1_555 1_555
H9 C7 1_555 1_555
C8 C4 1_555 1_555
H10 C8 1_555 1_555
H11 C8 1_555 1_555
C9 N2 1_555 1_555
C10 C2 1_555 1_555
H12 C10 1_555 1_555
Se2 C12 1_555 1_555
O4 C11 1_555 1_555
O5 H13 1_555 1_555
O6 C16 1_555 1_555
N3 C11 1_555 1_555
N4 H14 1_555 1_555
C11 N4 1_555 1_555
C12 N3 1_555 1_555
H15 C12 1_555 1_555
C13 C12 1_555 1_555
H16 C13 1_555 1_555
C14 Se2 1_555 1_555
H17 C14 1_555 1_555
C15 H18 1_555 1_555
C16 N4 1_555 1_555
C17 C13 1_555 1_555
H19 C17 1_555 1_555
C18 C14 1_555 1_555
H20 C18 1_555 1_555
H21 C18 1_555 1_555
C19 O5 1_555 1_555
H22 C19 1_555 1_555
H23 C19 1_555 1_555
C20 N3 1_555 1_555
H24 C20 1_555 1_555
N1 C5 1_555 1_555
C3 C5 1_555 1_555
C4 C7 1_555 1_555
C6 C8 1_555 1_555
C9 C10 1_555 1_555
C14 C17 1_555 1_555
C15 C16 1_555 1_555
C15 C20 1_555 1_555
C18 C19 1_555 1_555

#END
