
#######################################################################
#
#                 Cambridge Crystallographic Data Centre
#                                CCDC 
#
#######################################################################
#
# If this CIF has been generated from an entry in the Cambridge 
# Structural Database, then it will include bibliographic, chemical, 
# crystal, experimental, refinement or atomic coordinate data resulting 
# from the CCDC's data processing and validation procedures.
#
#######################################################################

data_ULEVAJ
_chemical_formula_moiety         'C16 H28 N4 O8,2(H2 O1)'
_chemical_name_systematic        
"2,2'-[4,10-bis(carboxymethyl)-4,10-diaza-1,7-diazoniacyclododecane-1,7-diyl]diacetate dihydrate"
_symmetry_cell_setting           orthorhombic
_symmetry_space_group_name_H-M   'P b c n'
_symmetry_Int_Tables_number      60
_space_group_name_Hall           '-P 2n 2ab'
loop_
_symmetry_equiv_pos_site_id
_symmetry_equiv_pos_as_xyz
1 x,y,z
2 1/2-x,1/2-y,1/2+z
3 -x,y,1/2-z
4 1/2+x,1/2-y,-z
5 -x,-y,-z
6 1/2+x,1/2+y,1/2-z
7 x,-y,1/2+z
8 1/2-x,1/2+y,z
_cell_length_a                   17.183(2)
_cell_length_b                   6.5826(9)
_cell_length_c                   17.983(2)
_cell_angle_alpha                90
_cell_angle_beta                 90
_cell_angle_gamma                90
_cell_volume                     2034.04
_exptl_crystal_colour            colorless
_exptl_crystal_description       block
_cell_formula_units_Z            4
loop_
_atom_site_label
_atom_site_type_symbol
_atom_site_fract_x
_atom_site_fract_y
_atom_site_fract_z
C1 C 0.52319(7) 0.29809(18) 0.59684(7)
H1 H 0.5484 0.1817 0.5716
H2 H 0.5118 0.4028 0.5588
C2 C 0.44727(7) 0.22770(18) 0.63205(7)
H3 H 0.4101 0.1899 0.5923
H4 H 0.4573 0.1052 0.6625
C3 C 0.35164(7) 0.29561(18) 0.72810(7)
H5 H 0.3257 0.1827 0.7015
H6 H 0.3118 0.3994 0.7398
C4 C 0.61331(7) 0.21651(18) 0.70032(7)
H7 H 0.6542 0.1467 0.6711
H8 H 0.5724 0.1157 0.7123
C5 C 0.64046(7) 0.50850(18) 0.61660(7)
H9 H 0.6619 0.4297 0.5744
H10 H 0.6833 0.5319 0.6524
C6 C 0.61183(7) 0.71385(19) 0.58773(7)
C7 C 0.37872(7) 0.54695(18) 0.63298(7)
H11 H 0.3332 0.4922 0.6058
H12 H 0.4178 0.5900 0.5957
C8 C 0.35349(7) 0.73022(18) 0.67787(7)
N1 N 0.57832(6) 0.38475(15) 0.65388(5)
H13 H 0.5502 0.4699 0.6852
N2 N 0.41201(5) 0.38638(15) 0.67930(6)
O1 O 0.66535(6) 0.81050(15) 0.55408(6)
O2 O 0.54404(5) 0.76758(14) 0.59796(6)
O3 O 0.31304(5) 0.86834(13) 0.64068(5)
H14 H 0.3110 0.8356 0.5956
O4 O 0.36798(7) 0.75428(15) 0.74325(5)
C1B C 0.47681(7) 0.29809(18) 0.90316(7)
H1B H 0.4516 0.1817 0.9284
H2B H 0.4882 0.4028 0.9412
C2B C 0.55273(7) 0.22770(18) 0.86795(7)
H3B H 0.5899 0.1899 0.9077
H4B H 0.5427 0.1052 0.8375
C3B C 0.64836(7) 0.29561(18) 0.77190(7)
H5B H 0.6743 0.1827 0.7985
H6B H 0.6882 0.3994 0.7602
C4B C 0.38669(7) 0.21651(18) 0.79968(7)
H7B H 0.3458 0.1467 0.8289
H8B H 0.4276 0.1157 0.7877
C5B C 0.35954(7) 0.50850(18) 0.88340(7)
H9B H 0.3381 0.4297 0.9256
H10B H 0.3167 0.5319 0.8476
C6B C 0.38817(7) 0.71385(19) 0.91227(7)
C7B C 0.62128(7) 0.54695(18) 0.86702(7)
H11B H 0.6668 0.4922 0.8942
H12B H 0.5822 0.5900 0.9043
C8B C 0.64651(7) 0.73022(18) 0.82213(7)
N1B N 0.42168(6) 0.38475(15) 0.84612(5)
H13B H 0.4498 0.4699 0.8148
N2B N 0.58799(5) 0.38638(15) 0.82070(6)
O1B O 0.33465(6) 0.81050(15) 0.94592(6)
O2B O 0.45596(5) 0.76758(14) 0.90204(6)
O3B O 0.68696(5) 0.86834(13) 0.85932(5)
H14B H 0.6890 0.8356 0.9044
O4B O 0.63202(7) 0.75428(15) 0.75675(5)
O5 O 0.29964(6) 0.82984(15) 0.50131(5)
H15 H 0.2571(9) 0.800(3) 0.4810(9)
H16 H 0.3139(11) 0.942(2) 0.4806(10)
loop_
_geom_bond_atom_site_label_1
_geom_bond_atom_site_label_2
_geom_bond_site_symmetry_1
_geom_bond_site_symmetry_2
C1 H1 1_555 1_555
H2 C1 1_555 1_555
C2 C1 1_555 1_555
H3 C2 1_555 1_555
H4 C2 1_555 1_555
C3 H5 1_555 1_555
H6 C3 1_555 1_555
C4 H7 1_555 1_555
H8 C4 1_555 1_555
C5 H9 1_555 1_555
H10 C5 1_555 1_555
C6 C5 1_555 1_555
C7 H11 1_555 1_555
H12 C7 1_555 1_555
C8 C7 1_555 1_555
N1 C1 1_555 1_555
H13 N1 1_555 1_555
N2 C2 1_555 1_555
O1 C6 1_555 1_555
O2 C6 1_555 1_555
O3 C8 1_555 1_555
H14 O3 1_555 1_555
O4 C8 1_555 1_555
O5 H15 1_555 1_555
H16 O5 1_555 1_555
C1B H1B 1_555 1_555
H2B C1B 1_555 1_555
C2B C1B 1_555 1_555
H3B C2B 1_555 1_555
H4B C2B 1_555 1_555
C3B C4 1_555 1_555
H5B C3B 1_555 1_555
H6B C3B 1_555 1_555
C4B C3 1_555 1_555
H7B C4B 1_555 1_555
H8B C4B 1_555 1_555
C5B H9B 1_555 1_555
H10B C5B 1_555 1_555
C6B C5B 1_555 1_555
C7B H11B 1_555 1_555
H12B C7B 1_555 1_555
C8B C7B 1_555 1_555
N1B C1B 1_555 1_555
H13B N1B 1_555 1_555
N2B C2B 1_555 1_555
O1B C6B 1_555 1_555
O2B C6B 1_555 1_555
O3B C8B 1_555 1_555
H14B O3B 1_555 1_555
O4B C8B 1_555 1_555
C3 N2 1_555 1_555
C4 N1 1_555 1_555
C5 N1 1_555 1_555
C7 N2 1_555 1_555
C3B N2B 1_555 1_555
C4B N1B 1_555 1_555
C5B N1B 1_555 1_555
C7B N2B 1_555 1_555

#END
