
#######################################################################
#
#                 Cambridge Crystallographic Data Centre
#                                CCDC 
#
#######################################################################
#
# If this CIF has been generated from an entry in the Cambridge 
# Structural Database, then it will include bibliographic, chemical, 
# crystal, experimental, refinement or atomic coordinate data resulting 
# from the CCDC's data processing and validation procedures.
#
#######################################################################

data_ULEWOY
_chemical_formula_moiety         'C6 H11 N2 O4 P1 S3'
_chemical_name_systematic        
"S-((5-Methoxy-2-oxo-1,3,4-thiadiazol-3(2H)-yl)methyl) O,O'-dimethyl phosphorodithioate"
_symmetry_cell_setting           monoclinic
_symmetry_space_group_name_H-M   'P 21/c'
_symmetry_Int_Tables_number      14
_space_group_name_Hall           '-P 2ybc'
loop_
_symmetry_equiv_pos_site_id
_symmetry_equiv_pos_as_xyz
1 x,y,z
2 -x,1/2+y,1/2-z
3 -x,-y,-z
4 x,1/2-y,1/2+z
_cell_length_a                   12.3944(2)
_cell_length_b                   10.80560(10)
_cell_length_c                   19.3631(3)
_cell_angle_alpha                90
_cell_angle_beta                 102.8150(10)
_cell_angle_gamma                90
_cell_volume                     2528.68
_exptl_crystal_colour            colorless
_exptl_crystal_description       block
_cell_formula_units_Z            8
loop_
_atom_site_label
_atom_site_type_symbol
_atom_site_fract_x
_atom_site_fract_y
_atom_site_fract_z
P1 P 0.02509(4) 0.14885(4) 0.16800(3)
S1 S 0.01168(5) 0.17732(6) 0.26343(3)
S2 S 0.15513(4) 0.02823(5) 0.16946(3)
S3 S 0.16030(4) -0.35504(4) 0.03186(3)
O1 O -0.07804(11) 0.09769(14) 0.11286(7)
O2 O 0.04167(15) 0.26370(13) 0.12160(8)
O3 O 0.31042(11) -0.17257(13) 0.05006(8)
O4 O -0.05059(11) -0.37521(12) 0.03211(8)
N1 N 0.13193(12) -0.12835(14) 0.05709(8)
N2 N 0.02836(13) -0.18037(14) 0.05340(9)
C1 C -0.14361(19) -0.0019(2) 0.13290(14)
H1 H -0.2042 -0.0227 0.0927
H2 H -0.1742 0.0246 0.1730
H3 H -0.0967 -0.0748 0.1465
C2 C 0.1050(3) 0.3680(3) 0.14990(15)
H4 H 0.1047 0.4285 0.1122
H5 H 0.1813 0.3423 0.1703
H6 H 0.0731 0.4055 0.1869
C3 C 0.14752(16) 0.00052(17) 0.07483(10)
H7 H 0.0853 0.0487 0.0464
H8 H 0.2167 0.0298 0.0626
C4 C 0.21602(15) -0.20269(17) 0.04761(10)
C5 C 0.03364(15) -0.29610(17) 0.04052(10)
C6 C -0.15623(17) -0.31980(19) 0.03375(14)
H9 H -0.2133 -0.3842 0.0272
H10 H -0.1755 -0.2586 -0.0043
H11 H -0.1515 -0.2791 0.0795
P2 P 0.60901(4) -0.02370(5) 0.25072(3)
S4 S 0.57301(6) -0.06480(7) 0.33906(3)
S5 S 0.46376(4) 0.01769(5) 0.17901(3)
S6 S 0.48755(4) 0.34626(5) -0.00393(3)
O5 O 0.69519(11) 0.08288(13) 0.25149(7)
O6 O 0.67189(12) -0.12180(13) 0.21387(8)
O7 O 0.35232(12) 0.15068(14) -0.01300(8)
O8 O 0.67746(11) 0.41371(13) 0.07718(8)
N3 N 0.51734(13) 0.14990(15) 0.06949(9)
N4 N 0.60999(13) 0.22068(15) 0.09789(8)
C7 C 0.6764(2) 0.2031(2) 0.27938(12)
H12 H 0.7376 0.2585 0.2760
H13 H 0.6721 0.1949 0.3291
H14 H 0.6069 0.2375 0.2520
C8 C 0.6314(2) -0.2470(2) 0.20117(15)
H15 H 0.6811 -0.2940 0.1780
H16 H 0.5570 -0.2456 0.1705
H17 H 0.6287 -0.2864 0.2464
C9 C 0.50949(17) 0.02671(18) 0.09544(10)
H18 H 0.5829 -0.0133 0.1020
H19 H 0.4572 -0.0210 0.0591
C10 C 0.43898(16) 0.19916(19) 0.01633(11)
C11 C 0.60347(16) 0.32287(18) 0.06415(10)
C12 C 0.7657(2) 0.3958(2) 0.13932(13)
H20 H 0.8163 0.4666 0.1448
H21 H 0.8063 0.3199 0.1339
H22 H 0.7342 0.3887 0.1813
loop_
_geom_bond_atom_site_label_1
_geom_bond_atom_site_label_2
_geom_bond_site_symmetry_1
_geom_bond_site_symmetry_2
P1 S1 1_555 1_555
S2 P1 1_555 1_555
S3 C4 1_555 1_555
O1 P1 1_555 1_555
O2 P1 1_555 1_555
O3 C4 1_555 1_555
O4 C5 1_555 1_555
N1 N2 1_555 1_555
N2 C5 1_555 1_555
C1 O1 1_555 1_555
H1 C1 1_555 1_555
H2 C1 1_555 1_555
H3 C1 1_555 1_555
C2 O2 1_555 1_555
H4 C2 1_555 1_555
H5 C2 1_555 1_555
H6 C2 1_555 1_555
C3 S2 1_555 1_555
H7 C3 1_555 1_555
H8 C3 1_555 1_555
C4 N1 1_555 1_555
C5 S3 1_555 1_555
C6 O4 1_555 1_555
H9 C6 1_555 1_555
H10 C6 1_555 1_555
H11 C6 1_555 1_555
P2 S4 1_555 1_555
S5 P2 1_555 1_555
S6 C10 1_555 1_555
O5 P2 1_555 1_555
O6 P2 1_555 1_555
O7 C10 1_555 1_555
O8 C11 1_555 1_555
N3 N4 1_555 1_555
N4 C11 1_555 1_555
C7 O5 1_555 1_555
H12 C7 1_555 1_555
H13 C7 1_555 1_555
H14 C7 1_555 1_555
C8 O6 1_555 1_555
H15 C8 1_555 1_555
H16 C8 1_555 1_555
H17 C8 1_555 1_555
C9 S5 1_555 1_555
H18 C9 1_555 1_555
H19 C9 1_555 1_555
C10 N3 1_555 1_555
C11 S6 1_555 1_555
C12 O8 1_555 1_555
H20 C12 1_555 1_555
H21 C12 1_555 1_555
H22 C12 1_555 1_555
N1 C3 1_555 1_555
N3 C9 1_555 1_555

#END
