
#######################################################################
#
#                 Cambridge Crystallographic Data Centre
#                                CCDC 
#
#######################################################################
#
# If this CIF has been generated from an entry in the Cambridge 
# Structural Database, then it will include bibliographic, chemical, 
# crystal, experimental, refinement or atomic coordinate data resulting 
# from the CCDC's data processing and validation procedures.
#
#######################################################################

data_ULEXEP
_chemical_formula_moiety         'C20 H32 Cl1 N1 O3'
_chemical_name_systematic        
(5S)-3-Chloro-5-[(1R,2S,5R)-2-isopropyl-5-methylcyclohexyloxy]-4-(4-methylpiperidin-1-yl)furan-2(5H)-one
_symmetry_cell_setting           orthorhombic
_symmetry_space_group_name_H-M   'P 21 21 21'
_symmetry_Int_Tables_number      19
_space_group_name_Hall           'P 2ac 2ab'
loop_
_symmetry_equiv_pos_site_id
_symmetry_equiv_pos_as_xyz
1 x,y,z
2 1/2-x,-y,1/2+z
3 -x,1/2+y,1/2-z
4 1/2+x,1/2-y,-z
_cell_length_a                   9.187(5)
_cell_length_b                   9.248(5)
_cell_length_c                   24.987(12)
_cell_angle_alpha                90
_cell_angle_beta                 90
_cell_angle_gamma                90
_cell_volume                     2122.93
_exptl_crystal_colour            colorless
_exptl_crystal_description       block
_cell_formula_units_Z            4
loop_
_atom_site_label
_atom_site_type_symbol
_atom_site_fract_x
_atom_site_fract_y
_atom_site_fract_z
Cl1 Cl 0.60861(9) -0.13528(9) 0.17373(3)
C1 C 0.7320(3) 0.0841(3) 0.23600(8)
C2 C 0.8425(3) 0.0853(3) 0.28119(8)
H1 H 0.9252 0.1479 0.2725
C3 C 0.7123(3) -0.0578(3) 0.22267(9)
C4 C 0.8084(3) -0.1478(4) 0.25291(10)
C5 C 0.8604(3) 0.1414(3) 0.37500(8)
H2 H 0.9630 0.1522 0.3650
C6 C 0.8125(3) 0.2733(3) 0.40633(9)
H3 H 0.7085 0.2604 0.4136
C7 C 0.8883(4) 0.2751(4) 0.46068(10)
H4 H 0.9919 0.2897 0.4554
H5 H 0.8517 0.3558 0.4815
C8 C 0.8414(4) 0.0021(4) 0.40651(11)
H6 H 0.8791 -0.0780 0.3856
H7 H 0.7385 -0.0149 0.4124
C9 C 0.8269(4) 0.4160(4) 0.37596(11)
H8 H 0.7799 0.4016 0.3412
C10 C 0.9194(5) 0.0065(4) 0.46042(11)
H9 H 1.0238 0.0194 0.4538
C11 C 0.8648(6) 0.1363(5) 0.49177(11)
H10 H 0.7619 0.1245 0.4993
H11 H 0.9160 0.1419 0.5257
C12 C 0.7463(5) 0.5387(4) 0.40314(16)
H12 H 0.7508 0.6236 0.3811
H13 H 0.7906 0.5586 0.4371
H14 H 0.6465 0.5117 0.4084
C13 C 0.9795(6) 0.4590(5) 0.36473(16)
H15 H 1.0262 0.4871 0.3975
H16 H 0.9802 0.5388 0.3402
H17 H 1.0308 0.3788 0.3493
C14 C 0.7583(3) 0.4266(3) 0.17613(10)
H18 H 0.8318 0.3755 0.1557
H19 H 0.7946 0.5232 0.1833
C15 C 0.7345(3) 0.3499(3) 0.22804(9)
H20 H 0.8266 0.3401 0.2467
H21 H 0.6696 0.4065 0.2504
C16 C 0.5572(3) 0.2862(3) 0.13592(10)
H22 H 0.4646 0.2930 0.1174
H23 H 0.6226 0.2290 0.1140
C17 C 0.5354(3) 0.2122(3) 0.18891(9)
H24 H 0.4628 0.2643 0.2095
H25 H 0.4996 0.1149 0.1830
C18 C 0.6204(3) 0.4374(3) 0.14313(10)
H26 H 0.5498 0.4957 0.1631
C19 C 0.6467(4) 0.5099(4) 0.08935(13)
H27 H 0.5553 0.5251 0.0716
H28 H 0.7073 0.4490 0.0676
H29 H 0.6941 0.6012 0.0948
N1 N 0.6712(2) 0.2061(3) 0.21914(8)
O1 O 0.77190(15) 0.13329(19) 0.32666(5)
O2 O 0.88796(18) -0.0624(2) 0.28665(6)
O3 O 0.8292(2) -0.2765(3) 0.25154(9)
C20 C 0.8980(9) -0.1363(5) 0.49012(16)
H30 H 0.7961 -0.1514 0.4966
H31 H 0.9489 -0.1329 0.5237
H32 H 0.9355 -0.2142 0.4688
loop_
_geom_bond_atom_site_label_1
_geom_bond_atom_site_label_2
_geom_bond_site_symmetry_1
_geom_bond_site_symmetry_2
Cl1 C3 1_555 1_555
C1 C2 1_555 1_555
C2 H1 1_555 1_555
C3 C1 1_555 1_555
C4 C3 1_555 1_555
C5 H2 1_555 1_555
C6 C5 1_555 1_555
H3 C6 1_555 1_555
C7 C6 1_555 1_555
H4 C7 1_555 1_555
H5 C7 1_555 1_555
C8 C5 1_555 1_555
H6 C8 1_555 1_555
H7 C8 1_555 1_555
C9 C6 1_555 1_555
H8 C9 1_555 1_555
C10 C8 1_555 1_555
H9 C10 1_555 1_555
C11 C7 1_555 1_555
H10 C11 1_555 1_555
H11 C11 1_555 1_555
C12 C9 1_555 1_555
H12 C12 1_555 1_555
H13 C12 1_555 1_555
H14 C12 1_555 1_555
C13 C9 1_555 1_555
H15 C13 1_555 1_555
H16 C13 1_555 1_555
H17 C13 1_555 1_555
C14 H18 1_555 1_555
H19 C14 1_555 1_555
C15 C14 1_555 1_555
H20 C15 1_555 1_555
H21 C15 1_555 1_555
C16 H22 1_555 1_555
H23 C16 1_555 1_555
C17 C16 1_555 1_555
H24 C17 1_555 1_555
H25 C17 1_555 1_555
C18 C14 1_555 1_555
H26 C18 1_555 1_555
C19 C18 1_555 1_555
H27 C19 1_555 1_555
H28 C19 1_555 1_555
H29 C19 1_555 1_555
N1 C1 1_555 1_555
O1 C2 1_555 1_555
O2 C2 1_555 1_555
O3 C4 1_555 1_555
C20 C10 1_555 1_555
H30 C20 1_555 1_555
H31 C20 1_555 1_555
H32 C20 1_555 1_555
C4 O2 1_555 1_555
C5 O1 1_555 1_555
C10 C11 1_555 1_555
C15 N1 1_555 1_555
C16 C18 1_555 1_555
C17 N1 1_555 1_555

#END
