
#######################################################################
#
#                 Cambridge Crystallographic Data Centre
#                                CCDC 
#
#######################################################################
#
# If this CIF has been generated from an entry in the Cambridge 
# Structural Database, then it will include bibliographic, chemical, 
# crystal, experimental, refinement or atomic coordinate data resulting 
# from the CCDC's data processing and validation procedures.
#
#######################################################################

data_ULIBAT
_chemical_name_common            
1-(2-Benzoyl-1-phenylethyl)-4-((2-hydroxy-1-naphthyl)methylideneamino)-3-phenyl-1H-1,2,4-triazole-5(4H)-thione
_chemical_formula_moiety         'C34 H26 N4 O2 S1'
_chemical_name_systematic        
3-(4-(((2-Hydroxy-1-naphthyl)methylene)amino)-3-phenyl-5-thioxo-4,5-dihydro-1H-1,2,4-triazol-1-yl)-1,3-diphenylpropan-1-one
_symmetry_cell_setting           monoclinic
_symmetry_space_group_name_H-M   'P 21/c'
_symmetry_Int_Tables_number      14
_space_group_name_Hall           '-P 2ybc'
loop_
_symmetry_equiv_pos_site_id
_symmetry_equiv_pos_as_xyz
1 x,y,z
2 -x,1/2+y,1/2-z
3 -x,-y,-z
4 x,1/2-y,1/2+z
_cell_length_a                   13.142(3)
_cell_length_b                   21.563(4)
_cell_length_c                   10.097(2)
_cell_angle_alpha                90
_cell_angle_beta                 99.22(3)
_cell_angle_gamma                90
_cell_volume                     2824.33
_exptl_crystal_colour            colorless
_exptl_crystal_description       prism
_cell_formula_units_Z            4
_exptl_crystal_recrystallization_method chloroform/ethanol
loop_
_atom_site_label
_atom_site_type_symbol
_atom_site_fract_x
_atom_site_fract_y
_atom_site_fract_z
S1 S 0.16625(4) 0.42969(3) 0.53137(5)
O1 O 0.08098(12) 0.59528(7) 0.32929(16)
O2 O 0.56113(11) 0.45741(7) 0.40769(15)
H1 H 0.4993 0.4598 0.3708
N1 N 0.10577(13) 0.46429(8) 0.27235(17)
N2 N 0.14223(13) 0.47373(8) 0.15336(17)
N3 N 0.26474(13) 0.43820(8) 0.30946(16)
N4 N 0.36713(13) 0.43073(8) 0.37079(17)
C1 C -0.00280(15) 0.47524(10) 0.2847(2)
H2 H -0.0055 0.4847 0.3810
C2 C -0.06940(16) 0.41850(9) 0.2465(2)
C3 C -0.06416(17) 0.38507(11) 0.1301(2)
H3 H -0.0143 0.3957 0.0754
C4 C -0.13163(19) 0.33608(11) 0.0934(2)
H4 H -0.1275 0.3132 0.0140
C5 C -0.20463(18) 0.32055(11) 0.1720(2)
H5 H -0.2514 0.2875 0.1458
C6 C -0.20963(19) 0.35305(11) 0.2889(3)
H6 H -0.2596 0.3423 0.3433
C7 C -0.14105(17) 0.40157(10) 0.3265(2)
H7 H -0.1435 0.4233 0.4078
C8 C -0.04660(15) 0.53104(9) 0.2024(2)
H8 H -0.0383 0.5241 0.1078
H9 H -0.1214 0.5336 0.2053
C9 C 0.00226(16) 0.59267(10) 0.2479(2)
C10 C -0.04771(17) 0.65007(10) 0.1847(2)
C11 C -0.14383(19) 0.64937(11) 0.1051(3)
H10 H -0.1822 0.6119 0.0939
C12 C -0.1845(2) 0.70293(13) 0.0417(4)
H11 H -0.2502 0.7019 -0.0133
C13 C -0.1304(2) 0.75742(12) 0.0580(4)
H12 H -0.1582 0.7939 0.0135
C14 C -0.0359(2) 0.75920(12) 0.1386(3)
H13 H 0.0014 0.7970 0.1507
C15 C 0.00491(19) 0.70596(11) 0.2024(3)
H14 H 0.0699 0.7077 0.2592
C16 C 0.17801(16) 0.44309(9) 0.3722(2)
C17 C 0.24002(15) 0.45884(9) 0.1792(2)
C18 C 0.31025(15) 0.45953(9) 0.0795(2)
C19 C 0.29602(16) 0.50478(10) -0.0206(2)
H15 H 0.2473 0.5371 -0.0175
C20 C 0.35328(17) 0.50241(11) -0.1249(2)
H16 H 0.3431 0.5329 -0.1936
C21 C 0.42476(17) 0.45594(10) -0.1289(2)
H17 H 0.4633 0.4543 -0.2008
C22 C 0.44066(18) 0.41152(10) -0.0284(2)
H18 H 0.4906 0.3799 -0.0313
C23 C 0.38430(17) 0.41304(10) 0.0757(2)
H19 H 0.3957 0.3827 0.1446
C24 C 0.38344(16) 0.39135(9) 0.4677(2)
H20 H 0.3278 0.3674 0.4899
C25 C 0.48594(15) 0.38324(9) 0.5431(2)
C26 C 0.50280(16) 0.33939(9) 0.6524(2)
C27 C 0.42351(17) 0.30223(10) 0.6923(2)
H21 H 0.3546 0.3065 0.6473
C28 C 0.4453(2) 0.26033(11) 0.7947(2)
H22 H 0.3911 0.2359 0.8196
C29 C 0.5456(2) 0.25274(11) 0.8635(3)
H23 H 0.5598 0.2230 0.9336
C30 C 0.62286(19) 0.28835(11) 0.8292(2)
H24 H 0.6908 0.2838 0.8772
C31 C 0.60419(16) 0.33192(9) 0.7236(2)
C32 C 0.68548(17) 0.36873(11) 0.6870(2)
H25 H 0.7530 0.3644 0.7363
C33 C 0.66934(17) 0.40962(10) 0.5842(2)
H26 H 0.7251 0.4333 0.5615
C34 C 0.56926(16) 0.41697(9) 0.5107(2)
loop_
_geom_bond_atom_site_label_1
_geom_bond_atom_site_label_2
_geom_bond_site_symmetry_1
_geom_bond_site_symmetry_2
S1 C16 1_555 1_555
O1 C9 1_555 1_555
O2 H1 1_555 1_555
N1 N2 1_555 1_555
N2 C17 1_555 1_555
N3 N4 1_555 1_555
N4 C24 1_555 1_555
C1 N1 1_555 1_555
H2 C1 1_555 1_555
C2 C1 1_555 1_555
C3 C2 1_555 1_555
H3 C3 1_555 1_555
C4 C3 1_555 1_555
H4 C4 1_555 1_555
C5 C4 1_555 1_555
H5 C5 1_555 1_555
C6 C5 1_555 1_555
H6 C6 1_555 1_555
C7 C2 1_555 1_555
H7 C7 1_555 1_555
C8 C1 1_555 1_555
H8 C8 1_555 1_555
H9 C8 1_555 1_555
C9 C8 1_555 1_555
C10 C9 1_555 1_555
C11 C10 1_555 1_555
H10 C11 1_555 1_555
C12 C11 1_555 1_555
H11 C12 1_555 1_555
C13 C12 1_555 1_555
H12 C13 1_555 1_555
C14 C13 1_555 1_555
H13 C14 1_555 1_555
C15 C10 1_555 1_555
H14 C15 1_555 1_555
C16 N1 1_555 1_555
C17 N3 1_555 1_555
C18 C17 1_555 1_555
C19 C18 1_555 1_555
H15 C19 1_555 1_555
C20 C19 1_555 1_555
H16 C20 1_555 1_555
C21 C20 1_555 1_555
H17 C21 1_555 1_555
C22 C21 1_555 1_555
H18 C22 1_555 1_555
C23 C18 1_555 1_555
H19 C23 1_555 1_555
C24 H20 1_555 1_555
C25 C24 1_555 1_555
C26 C25 1_555 1_555
C27 C26 1_555 1_555
H21 C27 1_555 1_555
C28 C27 1_555 1_555
H22 C28 1_555 1_555
C29 C28 1_555 1_555
H23 C29 1_555 1_555
C30 C29 1_555 1_555
H24 C30 1_555 1_555
C31 C26 1_555 1_555
C32 C31 1_555 1_555
H25 C32 1_555 1_555
C33 C32 1_555 1_555
H26 C33 1_555 1_555
C34 O2 1_555 1_555
N3 C16 1_555 1_555
C6 C7 1_555 1_555
C14 C15 1_555 1_555
C22 C23 1_555 1_555
C25 C34 1_555 1_555
C30 C31 1_555 1_555
C33 C34 1_555 1_555

#END
