
#######################################################################
#
#                 Cambridge Crystallographic Data Centre
#                                CCDC 
#
#######################################################################
#
# If this CIF has been generated from an entry in the Cambridge 
# Structural Database, then it will include bibliographic, chemical, 
# crystal, experimental, refinement or atomic coordinate data resulting 
# from the CCDC's data processing and validation procedures.
#
#######################################################################

data_ULIBUN
_chemical_name_common            
1,4-bis((5-Phenyl-1,3,4-thiadiazol-2-yl)sulfanyl)butane
_chemical_formula_moiety         'C20 H18 N4 S4'
_chemical_name_systematic        
2,2'-(Butane-1,4-diyldisulfanediyl)bis(5-phenyl-1,3,4-thiadiazole)
_symmetry_cell_setting           monoclinic
_symmetry_space_group_name_H-M   'P 21/c'
_symmetry_Int_Tables_number      14
_space_group_name_Hall           '-P 2ybc'
loop_
_symmetry_equiv_pos_site_id
_symmetry_equiv_pos_as_xyz
1 x,y,z
2 -x,1/2+y,1/2-z
3 -x,-y,-z
4 x,1/2-y,1/2+z
_cell_length_a                   5.7976(7)
_cell_length_b                   13.4393(14)
_cell_length_c                   12.9784(12)
_cell_angle_alpha                90
_cell_angle_beta                 99.120(7)
_cell_angle_gamma                90
_cell_volume                     998.438
_exptl_crystal_colour            colorless
_exptl_crystal_description       prism
_cell_formula_units_Z            2
_exptl_crystal_recrystallization_method chloroform/ethanol
loop_
_atom_site_label
_atom_site_type_symbol
_atom_site_fract_x
_atom_site_fract_y
_atom_site_fract_z
S1 S 1.18924(6) 0.48167(3) 0.35236(3)
S2 S 0.94277(7) 0.60479(3) 0.17655(3)
N1 N 0.8027(2) 0.39565(9) 0.36814(10)
N2 N 0.7508(2) 0.46308(10) 0.28684(10)
C1 C 1.3577(3) 0.34573(11) 0.54385(12)
H1 H 1.4506 0.3955 0.5185
C2 C 1.4532(3) 0.28628(12) 0.62747(12)
H2 H 1.6099 0.2969 0.6601
C3 C 1.3224(3) 0.21206(12) 0.66341(12)
H3 H 1.3889 0.1710 0.7199
C4 C 1.0921(3) 0.19787(12) 0.61620(13)
H4 H 1.0013 0.1469 0.6409
C5 C 0.9936(3) 0.25738(12) 0.53341(12)
H5 H 0.8363 0.2469 0.5015
C6 C 1.1262(3) 0.33270(11) 0.49711(11)
C7 C 1.0225(3) 0.39663(11) 0.40992(12)
C8 C 0.9342(3) 0.51325(11) 0.27088(12)
C9 C 0.6507(3) 0.59299(11) 0.10328(12)
H6 H 0.5373 0.5895 0.1527
H7 H 0.6143 0.6531 0.0597
C10 C 0.6215(2) 0.50122(11) 0.03322(12)
H8 H 0.6445 0.4405 0.0769
H9 H 0.7419 0.5018 -0.0130
S1B S -0.18924(6) 0.51833(3) -0.35236(3)
S2B S 0.05723(7) 0.39521(3) -0.17655(3)
N1B N 0.1973(2) 0.60435(9) -0.36814(10)
N2B N 0.2492(2) 0.53692(10) -0.28684(10)
C1B C -0.3577(3) 0.65427(11) -0.54385(12)
H1B H -0.4506 0.6045 -0.5185
C2B C -0.4532(3) 0.71372(12) -0.62747(12)
H2B H -0.6099 0.7031 -0.6601
C3B C -0.3224(3) 0.78794(12) -0.66341(12)
H3B H -0.3889 0.8290 -0.7199
C4B C -0.0921(3) 0.80213(12) -0.61620(13)
H4B H -0.0013 0.8531 -0.6409
C5B C 0.0064(3) 0.74262(12) -0.53341(12)
H5B H 0.1637 0.7531 -0.5015
C6B C -0.1262(3) 0.66730(11) -0.49711(11)
C7B C -0.0225(3) 0.60337(11) -0.40992(12)
C8B C 0.0658(3) 0.48675(11) -0.27088(12)
C9B C 0.3493(3) 0.40701(11) -0.10328(12)
H6B H 0.4627 0.4105 -0.1527
H7B H 0.3857 0.3469 -0.0597
C10B C 0.3785(2) 0.49878(11) -0.03322(12)
H8B H 0.3555 0.5595 -0.0769
H9B H 0.2581 0.4982 0.0130
loop_
_geom_bond_atom_site_label_1
_geom_bond_atom_site_label_2
_geom_bond_site_symmetry_1
_geom_bond_site_symmetry_2
S1 C7 1_555 1_555
S2 C8 1_555 1_555
N1 N2 1_555 1_555
N2 C8 1_555 1_555
C1 H1 1_555 1_555
C2 C1 1_555 1_555
H2 C2 1_555 1_555
C3 C2 1_555 1_555
H3 C3 1_555 1_555
C4 C3 1_555 1_555
H4 C4 1_555 1_555
C5 C4 1_555 1_555
H5 C5 1_555 1_555
C6 C1 1_555 1_555
C7 N1 1_555 1_555
C8 S1 1_555 1_555
C9 S2 1_555 1_555
H6 C9 1_555 1_555
H7 C9 1_555 1_555
C10 C9 1_555 1_555
H8 C10 1_555 1_555
H9 C10 1_555 1_555
S1B C7B 1_555 1_555
S2B C8B 1_555 1_555
N1B N2B 1_555 1_555
N2B C8B 1_555 1_555
C1B H1B 1_555 1_555
C2B C1B 1_555 1_555
H2B C2B 1_555 1_555
C3B C2B 1_555 1_555
H3B C3B 1_555 1_555
C4B C3B 1_555 1_555
H4B C4B 1_555 1_555
C5B C4B 1_555 1_555
H5B C5B 1_555 1_555
C6B C1B 1_555 1_555
C7B N1B 1_555 1_555
C8B S1B 1_555 1_555
C9B S2B 1_555 1_555
H6B C9B 1_555 1_555
H7B C9B 1_555 1_555
C10B C10 1_555 1_555
H8B C10B 1_555 1_555
H9B C10B 1_555 1_555
C5 C6 1_555 1_555
C6 C7 1_555 1_555
C5B C6B 1_555 1_555
C6B C7B 1_555 1_555
C9B C10B 1_555 1_555

#END
