
#######################################################################
#
#                 Cambridge Crystallographic Data Centre
#                                CCDC 
#
#######################################################################
#
# If this CIF has been generated from an entry in the Cambridge 
# Structural Database, then it will include bibliographic, chemical, 
# crystal, experimental, refinement or atomic coordinate data resulting 
# from the CCDC's data processing and validation procedures.
#
#######################################################################

data_ULICIC
_chemical_formula_moiety         'C11 H6 Cl1 N5 O4 S1'
_chemical_name_systematic        
6-Chloro-9-((2-nitrophenyl)sulfonyl)-9H-purine
_symmetry_cell_setting           triclinic
_symmetry_space_group_name_H-M   'P -1'
_symmetry_Int_Tables_number      2
_space_group_name_Hall           '-P 1'
loop_
_symmetry_equiv_pos_site_id
_symmetry_equiv_pos_as_xyz
1 x,y,z
2 -x,-y,-z
_cell_length_a                   10.0055(3)
_cell_length_b                   10.6931(5)
_cell_length_c                   12.5378(5)
_cell_angle_alpha                93.692(3)
_cell_angle_beta                 97.136(3)
_cell_angle_gamma                93.995(3)
_cell_volume                     1324.17
_exptl_crystal_colour            colorless
_exptl_crystal_description       block
_cell_formula_units_Z            4
_exptl_crystal_recrystallization_method 'ethyl acetate'
loop_
_atom_site_label
_atom_site_type_symbol
_atom_site_fract_x
_atom_site_fract_y
_atom_site_fract_z
Cl1 Cl -0.28373(6) 1.01998(7) 0.86805(5)
S1 S 0.31769(5) 1.10135(5) 0.71476(4)
O1 O 0.33387(14) 1.21495(14) 0.66297(12)
O2 O 0.39441(14) 1.08250(15) 0.81453(11)
O3 O 0.11604(15) 1.08355(17) 0.49868(14)
O4 O 0.25354(19) 1.11017(18) 0.38100(14)
N1 N -0.0813(2) 0.8795(2) 0.90380(17)
N2 N 0.13616(18) 0.90598(18) 0.84106(15)
N3 N -0.05280(17) 1.15618(18) 0.74289(14)
N4 N 0.15488(16) 1.08978(16) 0.73571(13)
N5 N 0.21920(18) 1.06359(17) 0.46067(14)
C1 C -0.1216(2) 0.9794(2) 0.85674(18)
C2 C 0.0440(2) 0.8481(2) 0.8933(2)
H1 H 0.0702 0.7769 0.9267
C3 C 0.0901(2) 1.0062(2) 0.79701(16)
C4 C -0.0380(2) 1.0496(2) 0.79999(16)
C5 C 0.0617(2) 1.1767(2) 0.70684(17)
H2 H 0.0802 1.2434 0.6654
C6 C 0.33847(18) 0.97337(19) 0.62325(15)
C7 C 0.30456(19) 0.9715(2) 0.51123(16)
C8 C 0.3430(2) 0.8782(2) 0.44359(17)
H3 H 0.3214 0.8790 0.3693
C9 C 0.4141(2) 0.7834(2) 0.48677(19)
H4 H 0.4398 0.7196 0.4414
C10 C 0.4473(2) 0.7827(2) 0.59658(19)
H5 H 0.4940 0.7177 0.6251
C11 C 0.4114(2) 0.8783(2) 0.66493(18)
H6 H 0.4364 0.8785 0.7389
Cl2 Cl -0.10359(6) 0.30928(6) 0.45966(6)
S2 S 0.29292(5) 0.60128(5) 0.16093(4)
O5 O 0.22219(15) 0.63512(15) 0.06322(11)
O6 O 0.37133(15) 0.69221(15) 0.23407(12)
O7 O 0.13521(15) 0.38259(17) 0.02911(13)
O8 O 0.2366(2) 0.3163(2) -0.10209(14)
N6 N 0.15591(18) 0.36990(18) 0.50525(15)
N7 N 0.30089(16) 0.47424(17) 0.39320(13)
N8 N -0.03515(17) 0.4610(2) 0.25421(15)
N9 N 0.17329(15) 0.53615(17) 0.22797(13)
N10 N 0.23641(18) 0.35675(18) -0.00913(14)
C12 C 0.0491(2) 0.3758(2) 0.43304(18)
C13 C 0.2746(2) 0.4186(2) 0.48183(18)
H7 H 0.3484 0.4132 0.5338
C14 C 0.18924(19) 0.48116(19) 0.32559(15)
C15 C 0.05870(19) 0.4349(2) 0.33929(17)
C16 C 0.0355(2) 0.5197(2) 0.19095(17)
H8 H -0.0021 0.5484 0.1263
C17 C 0.39753(18) 0.4774(2) 0.13725(15)
C18 C 0.3671(2) 0.3761(2) 0.05959(16)
C19 C 0.4589(2) 0.2887(2) 0.04330(18)
H9 H 0.4371 0.2224 -0.0090
C20 C 0.5839(2) 0.3008(3) 0.1056(2)
H10 H 0.6455 0.2410 0.0965
C21 C 0.6173(2) 0.4008(3) 0.1809(2)
H11 H 0.7022 0.4093 0.2215
C22 C 0.5248(2) 0.4892(2) 0.19642(17)
H12 H 0.5486 0.5570 0.2471
loop_
_geom_bond_atom_site_label_1
_geom_bond_atom_site_label_2
_geom_bond_site_symmetry_1
_geom_bond_site_symmetry_2
Cl1 C1 1_555 1_555
Cl2 C12 1_555 1_555
S1 O1 1_555 1_555
S2 O5 1_555 1_555
O2 S1 1_555 1_555
O3 N5 1_555 1_555
O4 N5 1_555 1_555
O6 S2 1_555 1_555
O7 N10 1_555 1_555
O8 N10 1_555 1_555
N1 C1 1_555 1_555
N2 C2 1_555 1_555
N3 C4 1_555 1_555
N4 S1 1_555 1_555
N5 C7 1_555 1_555
N6 C12 1_555 1_555
N7 C13 1_555 1_555
N8 C15 1_555 1_555
N9 S2 1_555 1_555
N10 C18 1_555 1_555
C1 C4 1_555 1_555
C2 N1 1_555 1_555
H1 C2 1_555 1_555
C3 N2 1_555 1_555
C4 C3 1_555 1_555
C5 N3 1_555 1_555
H2 C5 1_555 1_555
C6 S1 1_555 1_555
C7 C6 1_555 1_555
C8 C7 1_555 1_555
H3 C8 1_555 1_555
C9 C8 1_555 1_555
H4 C9 1_555 1_555
C10 C9 1_555 1_555
H5 C10 1_555 1_555
C11 C6 1_555 1_555
H6 C11 1_555 1_555
C12 C15 1_555 1_555
C13 N6 1_555 1_555
H7 C13 1_555 1_555
C14 N7 1_555 1_555
C15 C14 1_555 1_555
C16 N8 1_555 1_555
H8 C16 1_555 1_555
C17 S2 1_555 1_555
C18 C17 1_555 1_555
C19 C18 1_555 1_555
H9 C19 1_555 1_555
C20 C19 1_555 1_555
H10 C20 1_555 1_555
C21 C20 1_555 1_555
H11 C21 1_555 1_555
C22 C17 1_555 1_555
H12 C22 1_555 1_555
N4 C3 1_555 1_555
N4 C5 1_555 1_555
N9 C14 1_555 1_555
N9 C16 1_555 1_555
C10 C11 1_555 1_555
C21 C22 1_555 1_555

#END
