
#######################################################################
#
#                 Cambridge Crystallographic Data Centre
#                                CCDC 
#
#######################################################################
#
# If this CIF has been generated from an entry in the Cambridge 
# Structural Database, then it will include bibliographic, chemical, 
# crystal, experimental, refinement or atomic coordinate data resulting 
# from the CCDC's data processing and validation procedures.
#
#######################################################################

data_ULIDAV
_chemical_formula_moiety         'C13 H13 N3 O2 S1'
_chemical_name_systematic        
'Ethyl 2-((4-(pyridin-4-yl)pyrimidin-2-yl)sulfanyl)acetate'
_symmetry_cell_setting           triclinic
_symmetry_space_group_name_H-M   'P -1'
_symmetry_Int_Tables_number      2
_space_group_name_Hall           '-P 1'
loop_
_symmetry_equiv_pos_site_id
_symmetry_equiv_pos_as_xyz
1 x,y,z
2 -x,-y,-z
_cell_length_a                   8.6579(8)
_cell_length_b                   9.7394(9)
_cell_length_c                   9.9188(8)
_cell_angle_alpha                62.661(6)
_cell_angle_beta                 71.416(5)
_cell_angle_gamma                65.024(6)
_cell_volume                     665.347
_exptl_crystal_colour            colorless
_exptl_crystal_description       block
_cell_formula_units_Z            2
_exptl_crystal_recrystallization_method methanol
loop_
_atom_site_label
_atom_site_type_symbol
_atom_site_fract_x
_atom_site_fract_y
_atom_site_fract_z
C1 C 0.21141(18) 0.00339(18) 0.89933(17)
C2 C 0.3174(2) -0.21822(19) 1.10105(19)
H1 H 0.3517 -0.3308 1.1555
C3 C 0.3336(2) -0.12042(18) 1.15846(18)
H2 H 0.3793 -0.1652 1.2484
C4 C 0.27871(17) 0.04721(17) 1.07653(16)
C5 C 0.28647(18) 0.16653(17) 1.12645(16)
C6 C 0.3582(2) 0.1176(2) 1.25464(18)
H3 H 0.4018 0.0070 1.3141
C7 C 0.3641(2) 0.2347(2) 1.2930(2)
H4 H 0.4126 0.1991 1.3794
C8 C 0.2241(2) 0.3332(2) 1.04370(19)
H5 H 0.1740 0.3725 0.9573
C9 C 0.2372(3) 0.4407(2) 1.0913(2)
H6 H 0.1960 0.5521 1.0335
C10 C 0.0836(2) 0.2913(2) 0.6641(2)
H7 H 0.0315 0.3439 0.5718
H8 H -0.0042 0.3227 0.7439
C11 C 0.2273(2) 0.35667(18) 0.63290(16)
C12 C 0.2788(2) 0.5879(2) 0.6083(2)
H9 H 0.3426 0.6012 0.5056
H10 H 0.3603 0.5258 0.6805
C13 C 0.1774(3) 0.7498(3) 0.6187(3)
H11 H 0.1014 0.8124 0.5432
H12 H 0.2542 0.8066 0.6002
H13 H 0.1108 0.7354 0.7193
N1 N 0.3051(2) 0.39441(19) 1.21466(18)
N2 N 0.21695(15) 0.11055(14) 0.94434(14)
N3 N 0.25523(17) -0.15909(16) 0.97173(16)
O1 O 0.37818(15) 0.29263(14) 0.59842(13)
O2 O 0.15904(14) 0.50272(13) 0.64426(13)
S1 S 0.14603(6) 0.07492(5) 0.72151(5)
loop_
_geom_bond_atom_site_label_1
_geom_bond_atom_site_label_2
_geom_bond_site_symmetry_1
_geom_bond_site_symmetry_2
C1 N2 1_555 1_555
C2 H1 1_555 1_555
C3 C2 1_555 1_555
H2 C3 1_555 1_555
C4 C3 1_555 1_555
C5 C4 1_555 1_555
C6 C5 1_555 1_555
H3 C6 1_555 1_555
C7 C6 1_555 1_555
H4 C7 1_555 1_555
C8 C5 1_555 1_555
H5 C8 1_555 1_555
C9 C8 1_555 1_555
H6 C9 1_555 1_555
C10 H7 1_555 1_555
H8 C10 1_555 1_555
C11 C10 1_555 1_555
C12 H9 1_555 1_555
H10 C12 1_555 1_555
C13 C12 1_555 1_555
H11 C13 1_555 1_555
H12 C13 1_555 1_555
H13 C13 1_555 1_555
N1 C7 1_555 1_555
N2 C4 1_555 1_555
N3 C1 1_555 1_555
O1 C11 1_555 1_555
O2 C11 1_555 1_555
S1 C1 1_555 1_555
C2 N3 1_555 1_555
C9 N1 1_555 1_555
C10 S1 1_555 1_555
C12 O2 1_555 1_555

#END
