
#######################################################################
#
#                 Cambridge Crystallographic Data Centre
#                                CCDC 
#
#######################################################################
#
# If this CIF has been generated from an entry in the Cambridge 
# Structural Database, then it will include bibliographic, chemical, 
# crystal, experimental, refinement or atomic coordinate data resulting 
# from the CCDC's data processing and validation procedures.
#
#######################################################################

data_ULIGOM
_chemical_formula_moiety         'C13 H16 Cl1 F1 N2 O1'
_chemical_name_systematic        
2-Chloro-1-(4-(2-fluorobenzyl)piperazin-1-yl)ethanone
_symmetry_cell_setting           orthorhombic
_symmetry_space_group_name_H-M   'P 21 21 21'
_symmetry_Int_Tables_number      19
_space_group_name_Hall           'P 2ac 2ab'
loop_
_symmetry_equiv_pos_site_id
_symmetry_equiv_pos_as_xyz
1 x,y,z
2 1/2-x,-y,1/2+z
3 1/2+x,1/2-y,-z
4 -x,1/2+y,1/2-z
_cell_length_a                   7.9350(5)
_cell_length_b                   8.4610(4)
_cell_length_c                   19.0040(11)
_cell_angle_alpha                90
_cell_angle_beta                 90
_cell_angle_gamma                90
_cell_volume                     1275.89
_exptl_crystal_colour            colorless
_exptl_crystal_description       block
_cell_formula_units_Z            4
loop_
_atom_site_label
_atom_site_type_symbol
_atom_site_fract_x
_atom_site_fract_y
_atom_site_fract_z
O1 O 1.51486(16) 0.40256(17) 0.67832(8)
Cl1 Cl 1.23456(9) 0.09826(6) 0.64207(3)
F1 F 0.6313(2) 0.88072(19) 0.64912(8)
N1 N 0.96049(18) 0.62572(16) 0.64509(8)
N2 N 1.2433(2) 0.46187(17) 0.70180(8)
C1 C 0.8356(2) 0.8253(2) 0.56706(9)
C2 C 0.7317(3) 0.9332(2) 0.59859(10)
C3 C 0.7224(3) 1.0901(3) 0.58058(12)
H1 H 0.6497 1.1582 0.6041
C4 C 0.8215(3) 1.1433(3) 0.52783(12)
H2 H 0.8177 1.2491 0.5146
C5 C 0.9276(3) 1.0405(3) 0.49380(12)
H3 H 0.9960 1.0766 0.4574
C6 C 0.9328(3) 0.8832(3) 0.51363(10)
H4 H 1.0047 0.8148 0.4898
C7 C 0.8427(2) 0.6546(2) 0.58860(10)
H5 H 0.7312 0.6211 0.6034
H6 H 0.8746 0.5912 0.5482
C8 C 1.1333(2) 0.6613(2) 0.62433(10)
H7 H 1.1409 0.7723 0.6118
H8 H 1.1613 0.6000 0.5828
C9 C 1.2590(2) 0.6266(2) 0.68052(10)
H9 H 1.3719 0.6464 0.6631
H10 H 1.2395 0.6951 0.7207
C10 C 1.0718(2) 0.4225(3) 0.72213(11)
H11 H 1.0413 0.4821 0.7638
H12 H 1.0655 0.3109 0.7336
C11 C 0.9506(2) 0.4583(2) 0.66487(11)
H13 H 0.9758 0.3931 0.6242
H14 H 0.8372 0.4337 0.6804
C12 C 1.3729(2) 0.3613(2) 0.69620(9)
C13 C 1.3417(3) 0.1882(2) 0.71208(10)
H15 H 1.2753 0.1787 0.7547
H16 H 1.4484 0.1351 0.7197
loop_
_geom_bond_atom_site_label_1
_geom_bond_atom_site_label_2
_geom_bond_site_symmetry_1
_geom_bond_site_symmetry_2
O1 C12 1_555 1_555
Cl1 C13 1_555 1_555
F1 C2 1_555 1_555
N1 C7 1_555 1_555
N2 C9 1_555 1_555
C1 C2 1_555 1_555
C2 C3 1_555 1_555
C3 H1 1_555 1_555
C4 C3 1_555 1_555
H2 C4 1_555 1_555
C5 C4 1_555 1_555
H3 C5 1_555 1_555
C6 C1 1_555 1_555
H4 C6 1_555 1_555
C7 C1 1_555 1_555
H5 C7 1_555 1_555
H6 C7 1_555 1_555
C8 N1 1_555 1_555
H7 C8 1_555 1_555
H8 C8 1_555 1_555
C9 C8 1_555 1_555
H9 C9 1_555 1_555
H10 C9 1_555 1_555
C10 N2 1_555 1_555
H11 C10 1_555 1_555
H12 C10 1_555 1_555
C11 N1 1_555 1_555
H13 C11 1_555 1_555
H14 C11 1_555 1_555
C12 N2 1_555 1_555
C13 C12 1_555 1_555
H15 C13 1_555 1_555
H16 C13 1_555 1_555
C5 C6 1_555 1_555
C10 C11 1_555 1_555

#END
