
#######################################################################
#
#                 Cambridge Crystallographic Data Centre
#                                CCDC 
#
#######################################################################
#
# If this CIF has been generated from an entry in the Cambridge 
# Structural Database, then it will include bibliographic, chemical, 
# crystal, experimental, refinement or atomic coordinate data resulting 
# from the CCDC's data processing and validation procedures.
#
#######################################################################

data_ULIHIH
_chemical_formula_moiety         'C8 H8 Br2 O1'
_chemical_name_systematic        4,6-Dibromo-2,3-dimethylphenol
_symmetry_cell_setting           monoclinic
_symmetry_space_group_name_H-M   'P 21'
_symmetry_Int_Tables_number      4
_space_group_name_Hall           'P 2yb'
loop_
_symmetry_equiv_pos_site_id
_symmetry_equiv_pos_as_xyz
1 x,y,z
2 -x,1/2+y,-z
_cell_length_a                   7.3604(5)
_cell_length_b                   4.4310(6)
_cell_length_c                   14.0245(10)
_cell_angle_alpha                90
_cell_angle_beta                 92.4820(10)
_cell_angle_gamma                90
_cell_volume                     456.965
_exptl_crystal_colour            colorless
_exptl_crystal_description       needle
_cell_formula_units_Z            2
_exptl_crystal_recrystallization_method chloroform/methanol
loop_
_atom_site_label
_atom_site_type_symbol
_atom_site_fract_x
_atom_site_fract_y
_atom_site_fract_z
Br1 Br 0.87217(5) -0.34219(12) 0.92038(3)
Br2 Br 0.86105(8) 0.29262(15) 0.57447(4)
C1 C 0.5729(5) 0.0139(10) 0.8491(3)
C2 C 0.4789(5) 0.2000(10) 0.7846(3)
C3 C 0.5600(6) 0.2866(12) 0.6995(3)
C4 C 0.7350(6) 0.1753(13) 0.6843(3)
C5 C 0.8255(5) -0.0114(11) 0.7471(3)
H1 H 0.9405 -0.0835 0.7342
C6 C 0.7440(5) -0.0922(9) 0.8300(3)
C7 C 0.2920(6) 0.3103(13) 0.8071(4)
H2 H 0.2479 0.1971 0.8597
H3 H 0.2110 0.2837 0.7522
H4 H 0.2978 0.5204 0.8237
C8 C 0.4589(8) 0.4836(14) 0.6281(4)
H5 H 0.5442 0.5917 0.5911
H6 H 0.3849 0.6245 0.6610
H7 H 0.3828 0.3605 0.5866
O1 O 0.4886(4) -0.0551(8) 0.9326(2)
H8 H 0.5505 -0.1777 0.9634
loop_
_geom_bond_atom_site_label_1
_geom_bond_atom_site_label_2
_geom_bond_site_symmetry_1
_geom_bond_site_symmetry_2
Br1 C6 1_555 1_555
Br2 C4 1_555 1_555
C1 C2 1_555 1_555
C2 C3 1_555 1_555
C3 C4 1_555 1_555
C4 C5 1_555 1_555
C5 H1 1_555 1_555
C6 C1 1_555 1_555
C7 C2 1_555 1_555
H2 C7 1_555 1_555
H3 C7 1_555 1_555
H4 C7 1_555 1_555
C8 C3 1_555 1_555
H5 C8 1_555 1_555
H6 C8 1_555 1_555
H7 C8 1_555 1_555
O1 C1 1_555 1_555
H8 O1 1_555 1_555
C5 C6 1_555 1_555

#END
