
#######################################################################
#
#                 Cambridge Crystallographic Data Centre
#                                CCDC 
#
#######################################################################
#
# If this CIF has been generated from an entry in the Cambridge 
# Structural Database, then it will include bibliographic, chemical, 
# crystal, experimental, refinement or atomic coordinate data resulting 
# from the CCDC's data processing and validation procedures.
#
#######################################################################

data_ULIHAZ
_chemical_name_common            2-(4-Chloroanilino)-1-phenylethanone
_chemical_formula_moiety         'C14 H12 Cl1 N1 O1'
_chemical_name_systematic        2-((4-Chlorophenyl)amino)-1-phenylethanone
_symmetry_cell_setting           triclinic
_symmetry_space_group_name_H-M   'P -1'
_symmetry_Int_Tables_number      2
_space_group_name_Hall           '-P 1'
loop_
_symmetry_equiv_pos_site_id
_symmetry_equiv_pos_as_xyz
1 x,y,z
2 -x,-y,-z
_cell_length_a                   5.6500(5)
_cell_length_b                   7.3921(8)
_cell_length_c                   13.9769(14)
_cell_angle_alpha                98.588(2)
_cell_angle_beta                 91.0950(10)
_cell_angle_gamma                97.5900(10)
_cell_volume                     571.699
_exptl_crystal_colour            brown
_exptl_crystal_description       block
_cell_formula_units_Z            2
_exptl_crystal_recrystallization_method ethanol
loop_
_atom_site_label
_atom_site_type_symbol
_atom_site_fract_x
_atom_site_fract_y
_atom_site_fract_z
Cl1 Cl -0.43122(17) 0.65041(13) 0.83483(7)
N1 N 0.1395(5) 0.7998(4) 0.5053(2)
H1 H 0.2852 0.8498 0.5179
O1 O 0.4464(4) 0.8715(3) 0.37523(18)
C1 C 0.0566(6) 0.7594(4) 0.4079(2)
H2 H -0.0764 0.8266 0.3988
H3 H -0.0005 0.6285 0.3920
C2 C 0.2487(6) 0.8107(4) 0.3420(2)
C3 C 0.1916(5) 0.7858(4) 0.2383(2)
C4 C -0.0282(6) 0.7083(4) 0.1998(2)
H4 H -0.1467 0.6676 0.2399
C5 C -0.0752(7) 0.6900(5) 0.1028(3)
H5 H -0.2255 0.6365 0.0769
C6 C 0.0965(8) 0.7495(5) 0.0435(3)
H6 H 0.0634 0.7377 -0.0228
C7 C 0.3167(8) 0.8265(5) 0.0813(3)
H7 H 0.4348 0.8671 0.0410
C8 C 0.3635(6) 0.8438(4) 0.1780(2)
H8 H 0.5146 0.8959 0.2036
C9 C 0.0012(5) 0.7637(4) 0.5807(2)
C10 C 0.0950(6) 0.8121(4) 0.6740(2)
H9 H 0.2520 0.8695 0.6842
C11 C -0.0353(6) 0.7783(4) 0.7514(2)
H10 H 0.0313 0.8129 0.8139
C12 C -0.2643(6) 0.6932(4) 0.7368(2)
C13 C -0.3618(6) 0.6439(4) 0.6462(3)
H11 H -0.5185 0.5854 0.6369
C14 C -0.2313(6) 0.6795(4) 0.5679(2)
H12 H -0.3004 0.6466 0.5057
loop_
_geom_bond_atom_site_label_1
_geom_bond_atom_site_label_2
_geom_bond_site_symmetry_1
_geom_bond_site_symmetry_2
Cl1 C12 1_555 1_555
N1 H1 1_555 1_555
O1 C2 1_555 1_555
C1 N1 1_555 1_555
H2 C1 1_555 1_555
H3 C1 1_555 1_555
C2 C1 1_555 1_555
C3 C2 1_555 1_555
C4 C3 1_555 1_555
H4 C4 1_555 1_555
C5 C4 1_555 1_555
H5 C5 1_555 1_555
C6 C5 1_555 1_555
H6 C6 1_555 1_555
C7 C6 1_555 1_555
H7 C7 1_555 1_555
C8 C3 1_555 1_555
H8 C8 1_555 1_555
C9 N1 1_555 1_555
C10 C9 1_555 1_555
H9 C10 1_555 1_555
C11 C10 1_555 1_555
H10 C11 1_555 1_555
C12 C11 1_555 1_555
C13 C12 1_555 1_555
H11 C13 1_555 1_555
C14 C9 1_555 1_555
H12 C14 1_555 1_555
C7 C8 1_555 1_555
C13 C14 1_555 1_555

#END
