
#######################################################################
#
#                 Cambridge Crystallographic Data Centre
#                                CCDC 
#
#######################################################################
#
# If this CIF has been generated from an entry in the Cambridge 
# Structural Database, then it will include bibliographic, chemical, 
# crystal, experimental, refinement or atomic coordinate data resulting 
# from the CCDC's data processing and validation procedures.
#
#######################################################################

data_ULIHON
_chemical_formula_moiety         'C23 H20 Br2 O4'
_chemical_name_systematic        
2-((2-(2-(2-(Dibromomethyl)phenoxy)ethoxy)benzyl)oxy)benzaldehyde
_symmetry_cell_setting           monoclinic
_symmetry_space_group_name_H-M   'P 21/c'
_symmetry_Int_Tables_number      14
_space_group_name_Hall           '-P 2ybc'
loop_
_symmetry_equiv_pos_site_id
_symmetry_equiv_pos_as_xyz
1 x,y,z
2 -x,1/2+y,1/2-z
3 -x,-y,-z
4 x,1/2-y,1/2+z
_cell_length_a                   12.867(7)
_cell_length_b                   18.070(10)
_cell_length_c                   9.649(5)
_cell_angle_alpha                90
_cell_angle_beta                 108.955(6)
_cell_angle_gamma                90
_cell_volume                     2121.8
_exptl_crystal_colour            colorless
_exptl_crystal_description       block
_cell_formula_units_Z            4
loop_
_atom_site_label
_atom_site_type_symbol
_atom_site_fract_x
_atom_site_fract_y
_atom_site_fract_z
Br1 Br 0.56817(7) 0.30130(6) 0.29797(13)
Br2 Br 0.37069(9) 0.31794(5) -0.00106(10)
C1 C -0.1269(7) 0.7137(4) -0.1294(8)
H1 H -0.1621 0.6777 -0.0919
C2 C -0.0059(6) 0.7075(3) -0.0932(6)
C3 C 0.0495(7) 0.7556(4) -0.1572(7)
H2 H 0.0096 0.7922 -0.2199
C4 C 0.1583(7) 0.7514(4) -0.1323(8)
H3 H 0.1932 0.7846 -0.1761
C5 C 0.2176(6) 0.6962(4) -0.0397(8)
H4 H 0.2930 0.6929 -0.0213
C6 C 0.1660(6) 0.6458(4) 0.0260(7)
H5 H 0.2062 0.6085 0.0865
C7 C 0.0548(6) 0.6522(3) -0.0001(6)
C8 C 0.0522(5) 0.5531(3) 0.1655(7)
H6 H 0.1057 0.5775 0.2474
H7 H 0.0905 0.5182 0.1229
C9 C -0.0317(5) 0.5130(3) 0.2169(6)
C10 C -0.1419(6) 0.5287(4) 0.1643(7)
H8 H -0.1676 0.5664 0.0961
C11 C -0.2162(6) 0.4878(5) 0.2135(8)
H9 H -0.2910 0.4979 0.1766
C12 C -0.1791(7) 0.4340(4) 0.3138(8)
H10 H -0.2284 0.4073 0.3465
C13 C -0.0685(6) 0.4184(4) 0.3684(7)
H11 H -0.0436 0.3811 0.4378
C14 C 0.0057(5) 0.4576(3) 0.3211(7)
C15 C 0.1611(5) 0.3890(3) 0.4722(6)
H12 H 0.1381 0.3412 0.4268
H13 H 0.1347 0.3939 0.5552
C16 C 0.2849(6) 0.3950(4) 0.5223(7)
H14 H 0.3066 0.4437 0.5639
H15 H 0.3163 0.3586 0.5984
C17 C 0.3652(5) 0.4407(4) 0.3435(7)
C18 C 0.3584(6) 0.5154(4) 0.3772(8)
H16 H 0.3226 0.5295 0.4426
C19 C 0.4055(6) 0.5681(4) 0.3121(9)
H17 H 0.4046 0.6176 0.3381
C20 C 0.4531(6) 0.5485(5) 0.2106(9)
H18 H 0.4825 0.5846 0.1656
C21 C 0.4579(6) 0.4750(5) 0.1743(8)
H19 H 0.4906 0.4622 0.1047
C22 C 0.4145(5) 0.4197(4) 0.2401(7)
C23 C 0.4210(6) 0.3400(4) 0.2060(8)
H20 H 0.3725 0.3135 0.2490
O1 O -0.1819(4) 0.7608(3) -0.2023(5)
O2 O -0.0053(3) 0.6067(2) 0.0578(4)
O3 O 0.1171(4) 0.4474(2) 0.3681(4)
O4 O 0.3266(4) 0.3834(2) 0.4054(5)
loop_
_geom_bond_atom_site_label_1
_geom_bond_atom_site_label_2
_geom_bond_site_symmetry_1
_geom_bond_site_symmetry_2
Br1 C23 1_555 1_555
Br2 C23 1_555 1_555
C1 H1 1_555 1_555
C2 C1 1_555 1_555
C3 C2 1_555 1_555
H2 C3 1_555 1_555
C4 C3 1_555 1_555
H3 C4 1_555 1_555
C5 C4 1_555 1_555
H4 C5 1_555 1_555
C6 C5 1_555 1_555
H5 C6 1_555 1_555
C7 C2 1_555 1_555
C8 H6 1_555 1_555
H7 C8 1_555 1_555
C9 C8 1_555 1_555
C10 C9 1_555 1_555
H8 C10 1_555 1_555
C11 C10 1_555 1_555
H9 C11 1_555 1_555
C12 C11 1_555 1_555
H10 C12 1_555 1_555
C13 C12 1_555 1_555
H11 C13 1_555 1_555
C14 C9 1_555 1_555
C15 H12 1_555 1_555
H13 C15 1_555 1_555
C16 C15 1_555 1_555
H14 C16 1_555 1_555
H15 C16 1_555 1_555
C17 C18 1_555 1_555
C18 H16 1_555 1_555
C19 C18 1_555 1_555
H17 C19 1_555 1_555
C20 C19 1_555 1_555
H18 C20 1_555 1_555
C21 C20 1_555 1_555
H19 C21 1_555 1_555
C22 C17 1_555 1_555
C23 C22 1_555 1_555
H20 C23 1_555 1_555
O1 C1 1_555 1_555
O2 C7 1_555 1_555
O3 C14 1_555 1_555
O4 C16 1_555 1_555
C6 C7 1_555 1_555
C8 O2 1_555 1_555
C13 C14 1_555 1_555
C15 O3 1_555 1_555
C17 O4 1_555 1_555
C21 C22 1_555 1_555

#END
