
#######################################################################
#
#                 Cambridge Crystallographic Data Centre
#                                CCDC 
#
#######################################################################
#
# If this CIF has been generated from an entry in the Cambridge 
# Structural Database, then it will include bibliographic, chemical, 
# crystal, experimental, refinement or atomic coordinate data resulting 
# from the CCDC's data processing and validation procedures.
#
#######################################################################

data_ULIJAB
_chemical_formula_moiety         'C13 H30 N1 1+,H2 O1,Cl1 1-'
_chemical_name_systematic        'n-Tridecylammonium chloride monohydrate'
_symmetry_cell_setting           monoclinic
_symmetry_space_group_name_H-M   'P 21/c'
_symmetry_Int_Tables_number      14
_space_group_name_Hall           '-P 2ybc'
loop_
_symmetry_equiv_pos_site_id
_symmetry_equiv_pos_as_xyz
1 x,y,z
2 -x,1/2+y,1/2-z
3 -x,-y,-z
4 x,1/2-y,1/2+z
_cell_length_a                   4.7420(5)
_cell_length_b                   45.250(3)
_cell_length_c                   7.8191(9)
_cell_angle_alpha                90
_cell_angle_beta                 106.332(2)
_cell_angle_gamma                90
_cell_volume                     1610.09
_exptl_crystal_colour            colorless
_exptl_crystal_description       acicular
_cell_formula_units_Z            4
loop_
_atom_site_label
_atom_site_type_symbol
_atom_site_fract_x
_atom_site_fract_y
_atom_site_fract_z
Cl1 Cl 0.77004(19) 0.727389(19) 0.54882(12)
N1 N 0.2908(5) 0.72396(5) 0.1504(4)
H1 H 0.4378 0.7281 0.2466
H2 H 0.1648 0.7390 0.1270
H3 H 0.3618 0.7210 0.0578
C1 C 0.1369(7) 0.69683(6) 0.1834(4)
H6 H -0.0396 0.6941 0.0856
H7 H 0.0779 0.6994 0.2915
C2 C 0.3263(7) 0.66944(6) 0.2017(4)
H8 H 0.5028 0.6722 0.2995
H9 H 0.3852 0.6668 0.0935
C3 C 0.1677(7) 0.64186(6) 0.2355(4)
H10 H -0.0251 0.6412 0.1498
H11 H 0.1397 0.6431 0.3534
C4 C 0.3305(7) 0.61334(6) 0.2221(4)
H12 H 0.5222 0.6140 0.3090
H13 H 0.3616 0.6123 0.1049
C5 C 0.1730(7) 0.58533(6) 0.2526(4)
H14 H 0.1495 0.5860 0.3718
H15 H -0.0219 0.5851 0.1691
C6 C 0.3292(7) 0.55675(6) 0.2317(4)
H16 H 0.3543 0.5562 0.1128
H17 H 0.5234 0.5569 0.3159
C7 C 0.1722(7) 0.52882(6) 0.2603(4)
H18 H -0.0231 0.5288 0.1773
H19 H 0.1496 0.5292 0.3798
C8 C 0.3260(6) 0.50019(6) 0.2369(4)
H20 H 0.3473 0.4997 0.1171
H21 H 0.5218 0.5003 0.3193
C9 C 0.1705(7) 0.47222(6) 0.2666(4)
H22 H -0.0251 0.4721 0.1839
H23 H 0.1485 0.4727 0.3862
C10 C 0.3245(7) 0.44364(6) 0.2439(4)
H24 H 0.3458 0.4431 0.1242
H25 H 0.5204 0.4438 0.3263
C11 C 0.1702(7) 0.41561(6) 0.2745(4)
H26 H 0.1479 0.4162 0.3940
H27 H -0.0253 0.4154 0.1917
C12 C 0.3236(7) 0.38729(6) 0.2530(5)
H28 H 0.5194 0.3876 0.3355
H29 H 0.3452 0.3867 0.1333
C13 C 0.1688(8) 0.35920(7) 0.2844(5)
H30 H 0.1532 0.3591 0.4042
H31 H 0.2798 0.3423 0.2668
H32 H -0.0242 0.3584 0.2021
O1 O 0.3848(5) 0.70538(5) 0.8156(3)
H4 H 0.5034 0.7102 0.7566
H5 H 0.2125 0.7103 0.7554
loop_
_geom_bond_atom_site_label_1
_geom_bond_atom_site_label_2
_geom_bond_site_symmetry_1
_geom_bond_site_symmetry_2
N1 H1 1_555 1_555
H2 N1 1_555 1_555
H3 N1 1_555 1_555
O1 H4 1_555 1_555
H5 O1 1_555 1_555
C1 N1 1_555 1_555
H6 C1 1_555 1_555
H7 C1 1_555 1_555
C2 C1 1_555 1_555
H8 C2 1_555 1_555
H9 C2 1_555 1_555
C3 C2 1_555 1_555
H10 C3 1_555 1_555
H11 C3 1_555 1_555
C4 C3 1_555 1_555
H12 C4 1_555 1_555
H13 C4 1_555 1_555
C5 C4 1_555 1_555
H14 C5 1_555 1_555
H15 C5 1_555 1_555
C6 C5 1_555 1_555
H16 C6 1_555 1_555
H17 C6 1_555 1_555
C7 C6 1_555 1_555
H18 C7 1_555 1_555
H19 C7 1_555 1_555
C8 C7 1_555 1_555
H20 C8 1_555 1_555
H21 C8 1_555 1_555
C9 C8 1_555 1_555
H22 C9 1_555 1_555
H23 C9 1_555 1_555
C10 C9 1_555 1_555
H24 C10 1_555 1_555
H25 C10 1_555 1_555
C11 C10 1_555 1_555
H26 C11 1_555 1_555
H27 C11 1_555 1_555
C12 C11 1_555 1_555
H28 C12 1_555 1_555
H29 C12 1_555 1_555
C13 C12 1_555 1_555
H30 C13 1_555 1_555
H31 C13 1_555 1_555
H32 C13 1_555 1_555

#END
