
#######################################################################
#
#                 Cambridge Crystallographic Data Centre
#                                CCDC 
#
#######################################################################
#
# If this CIF has been generated from an entry in the Cambridge 
# Structural Database, then it will include bibliographic, chemical, 
# crystal, experimental, refinement or atomic coordinate data resulting 
# from the CCDC's data processing and validation procedures.
#
#######################################################################

data_ULIKOR
_chemical_formula_moiety         'C29 H37 N1 O3'
_chemical_name_systematic        
2-Benzoyl-3-isobutyl-4,5,8-trimethyl-3,3a,4,6a,7,10,11,12-octahydro-1H-cyclonona[d]isoindole-1,13(2H)-dione
_symmetry_cell_setting           orthorhombic
_symmetry_space_group_name_H-M   'P 21 21 21'
_symmetry_Int_Tables_number      19
_space_group_name_Hall           'P 2ac 2ab'
loop_
_symmetry_equiv_pos_site_id
_symmetry_equiv_pos_as_xyz
1 x,y,z
2 1/2-x,-y,1/2+z
3 1/2+x,1/2-y,-z
4 -x,1/2+y,1/2-z
_cell_length_a                   9.8548(5)
_cell_length_b                   12.9506(9)
_cell_length_c                   19.6245(11)
_cell_angle_alpha                90
_cell_angle_beta                 90
_cell_angle_gamma                90
_cell_volume                     2504.59
_cell_formula_units_Z            4
loop_
_atom_site_label
_atom_site_type_symbol
_atom_site_fract_x
_atom_site_fract_y
_atom_site_fract_z
C1 C 0.5782(3) 0.4560(2) 0.25149(15)
C2 C 0.5674(3) 0.5649(2) 0.34916(16)
H1 H 0.5081 0.5403 0.3872
C3 C 0.4780(3) 0.6150(2) 0.29330(14)
H2 H 0.5096 0.6876 0.2863
C4 C 0.3239(3) 0.6176(3) 0.31038(15)
H3 H 0.2808 0.6622 0.2749
C5 C 0.2642(3) 0.5105(3) 0.30079(16)
C6 C 0.2884(3) 0.4660(3) 0.24103(15)
H4 H 0.2527 0.3996 0.2309
C7 C 0.3734(3) 0.5230(2) 0.18973(14)
H5 H 0.3247 0.5890 0.1796
C8 C 0.3966(3) 0.4685(3) 0.12010(15)
H6 H 0.4950 0.4577 0.1127
H7 H 0.3518 0.4000 0.1204
C9 C 0.3391(3) 0.5337(3) 0.06275(15)
C10 C 0.4113(4) 0.6002(3) 0.02643(16)
H8 H 0.3626 0.6406 -0.0057
C11 C 0.5611(4) 0.6186(3) 0.03039(17)
H9 H 0.5971 0.6261 -0.0165
H10 H 0.6047 0.5571 0.0509
C12 C 0.6018(4) 0.7144(3) 0.07195(17)
H11 H 0.7018 0.7216 0.0710
H12 H 0.5624 0.7765 0.0502
C13 C 0.5546(3) 0.7093(3) 0.14619(16)
H13 H 0.5875 0.7713 0.1707
H14 H 0.4542 0.7101 0.1475
C14 C 0.6054(3) 0.6137(2) 0.18229(15)
C15 C 0.5067(3) 0.5532(2) 0.22701(14)
C16 C 0.6709(3) 0.6422(3) 0.37711(16)
H15 H 0.7343 0.6593 0.3397
H16 H 0.6214 0.7063 0.3886
C17 C 0.7561(3) 0.6123(3) 0.43912(16)
H17 H 0.8036 0.5458 0.4289
C18 C 0.8636(4) 0.6957(3) 0.4514(2)
H18 H 0.9205 0.7027 0.4107
H19 H 0.9202 0.6761 0.4903
H20 H 0.8188 0.7617 0.4609
C19 C 0.6689(4) 0.5970(3) 0.50210(17)
H21 H 0.7273 0.5851 0.5417
H22 H 0.6094 0.5372 0.4954
H23 H 0.6135 0.6588 0.5098
C20 C 0.2967(4) 0.6702(3) 0.37834(17)
H24 H 0.1986 0.6763 0.3854
H25 H 0.3376 0.7392 0.3782
H26 H 0.3364 0.6291 0.4152
C21 C 0.1830(4) 0.4608(4) 0.35655(18)
H27 H 0.1024 0.5027 0.3661
H28 H 0.2386 0.4555 0.3978
H29 H 0.1548 0.3916 0.3421
C22 C 0.1888(4) 0.5206(3) 0.05282(18)
H30 H 0.1555 0.5732 0.0211
H31 H 0.1425 0.5282 0.0967
H32 H 0.1704 0.4518 0.0342
C23 C 0.6998(3) 0.3982(2) 0.35371(17)
C24 C 0.8114(3) 0.3415(2) 0.31933(17)
C25 C 0.8691(3) 0.3751(3) 0.25832(17)
H33 H 0.8374 0.4365 0.2372
C26 C 0.9727(3) 0.3187(3) 0.2288(2)
H34 H 1.0112 0.3408 0.1869
C27 C 1.0205(4) 0.2302(3) 0.2601(2)
H35 H 1.0904 0.1910 0.2391
C28 C 0.9672(3) 0.1985(3) 0.3214(2)
H36 H 1.0027 0.1391 0.3435
C29 C 0.8620(3) 0.2533(3) 0.35094(18)
H37 H 0.8241 0.2306 0.3929
N1 N 0.6311(2) 0.4750(2) 0.31564(12)
O1 O 0.5862(2) 0.37479(17) 0.22129(11)
O2 O 0.7233(2) 0.5870(2) 0.17779(12)
O3 O 0.6691(2) 0.38391(18) 0.41272(11)
loop_
_geom_bond_atom_site_label_1
_geom_bond_atom_site_label_2
_geom_bond_site_symmetry_1
_geom_bond_site_symmetry_2
C1 C15 1_555 1_555
C2 H1 1_555 1_555
C3 C2 1_555 1_555
H2 C3 1_555 1_555
C4 C3 1_555 1_555
H3 C4 1_555 1_555
C5 C4 1_555 1_555
C6 C5 1_555 1_555
H4 C6 1_555 1_555
C7 C6 1_555 1_555
H5 C7 1_555 1_555
C8 C7 1_555 1_555
H6 C8 1_555 1_555
H7 C8 1_555 1_555
C9 C8 1_555 1_555
C10 C9 1_555 1_555
H8 C10 1_555 1_555
C11 C10 1_555 1_555
H9 C11 1_555 1_555
H10 C11 1_555 1_555
C12 C11 1_555 1_555
H11 C12 1_555 1_555
H12 C12 1_555 1_555
C13 C12 1_555 1_555
H13 C13 1_555 1_555
H14 C13 1_555 1_555
C14 C13 1_555 1_555
C15 C3 1_555 1_555
C16 C2 1_555 1_555
H15 C16 1_555 1_555
H16 C16 1_555 1_555
C17 C16 1_555 1_555
H17 C17 1_555 1_555
C18 C17 1_555 1_555
H18 C18 1_555 1_555
H19 C18 1_555 1_555
H20 C18 1_555 1_555
C19 C17 1_555 1_555
H21 C19 1_555 1_555
H22 C19 1_555 1_555
H23 C19 1_555 1_555
C20 C4 1_555 1_555
H24 C20 1_555 1_555
H25 C20 1_555 1_555
H26 C20 1_555 1_555
C21 C5 1_555 1_555
H27 C21 1_555 1_555
H28 C21 1_555 1_555
H29 C21 1_555 1_555
C22 C9 1_555 1_555
H30 C22 1_555 1_555
H31 C22 1_555 1_555
H32 C22 1_555 1_555
C23 C24 1_555 1_555
C24 C25 1_555 1_555
C25 H33 1_555 1_555
C26 C25 1_555 1_555
H34 C26 1_555 1_555
C27 C26 1_555 1_555
H35 C27 1_555 1_555
C28 C27 1_555 1_555
H36 C28 1_555 1_555
C29 C24 1_555 1_555
H37 C29 1_555 1_555
N1 C1 1_555 1_555
O1 C1 1_555 1_555
O2 C14 1_555 1_555
O3 C23 1_555 1_555
C2 N1 1_555 1_555
C7 C15 1_555 1_555
C14 C15 1_555 1_555
C23 N1 1_555 1_555
C28 C29 1_555 1_555

#END
