
#######################################################################
#
#                 Cambridge Crystallographic Data Centre
#                                CCDC 
#
#######################################################################
#
# If this CIF has been generated from an entry in the Cambridge 
# Structural Database, then it will include bibliographic, chemical, 
# crystal, experimental, refinement or atomic coordinate data resulting 
# from the CCDC's data processing and validation procedures.
#
#######################################################################

data_ULILIM
_chemical_formula_moiety         'C14 H10 N8 O1,H2 O1'
_chemical_name_systematic        
'5-(4-(4-(1H-tetrazol-5-yl)phenoxy)phenyl)-1H-tetrazole monohydrate'
_symmetry_cell_setting           monoclinic
_symmetry_space_group_name_H-M   'P 21/c'
_symmetry_Int_Tables_number      14
_space_group_name_Hall           '-P 2ybc'
loop_
_symmetry_equiv_pos_site_id
_symmetry_equiv_pos_as_xyz
1 x,y,z
2 -x,1/2+y,1/2-z
3 -x,-y,-z
4 x,1/2-y,1/2+z
_cell_length_a                   5.9576(7)
_cell_length_b                   16.0500(18)
_cell_length_c                   16.1222(18)
_cell_angle_alpha                90
_cell_angle_beta                 100.028(2)
_cell_angle_gamma                90
_cell_volume                     1518.05
_exptl_crystal_colour            colorless
_exptl_crystal_description       sheet
_cell_formula_units_Z            4
loop_
_atom_site_label
_atom_site_type_symbol
_atom_site_fract_x
_atom_site_fract_y
_atom_site_fract_z
C1 C 0.5250(2) 0.00014(8) 0.18019(7)
C2 C 0.6184(2) 0.05387(7) 0.25095(7)
C3 C 0.4806(2) 0.11363(8) 0.27975(8)
H1 H 0.3306 0.1202 0.2527
C4 C 0.5651(2) 0.16303(9) 0.34804(8)
H2 H 0.4722 0.2027 0.3670
C5 C 0.7887(2) 0.15344(8) 0.38824(7)
C6 C 0.9299(2) 0.09599(8) 0.35916(8)
H3 H 1.0812 0.0908 0.3853
C7 C 0.8440(2) 0.04650(8) 0.29088(8)
H4 H 0.9384 0.0077 0.2713
C8 C 1.0739(2) 0.19934(8) 0.50317(8)
C9 C 1.1426(2) 0.12916(9) 0.55041(9)
H5 H 1.0480 0.0827 0.5472
C10 C 1.3526(2) 0.12856(8) 0.60237(8)
H6 H 1.4009 0.0811 0.6335
C11 C 1.4929(2) 0.19843(8) 0.60865(7)
C12 C 1.4201(2) 0.26793(8) 0.56080(8)
H7 H 1.5124 0.3150 0.5645
C13 C 1.2116(2) 0.26822(9) 0.50759(8)
H8 H 1.1649 0.3149 0.4749
C14 C 1.7121(2) 0.19732(7) 0.66652(8)
N1 N 0.62101(19) -0.06986(7) 0.15880(7)
H9 H 0.7600 -0.0977 0.1848
N2 N 0.4882(2) -0.10384(8) 0.09178(8)
N3 N 0.3156(2) -0.05474(9) 0.07291(8)
N4 N 0.3326(2) 0.01102(8) 0.12682(7)
N5 N 1.86557(17) 0.25909(7) 0.67639(7)
H10 H 1.8706 0.3096 0.6470
N6 N 2.04451(19) 0.23637(7) 0.73451(7)
N7 N 1.9973(2) 0.16261(7) 0.75913(7)
N8 N 1.79157(19) 0.13616(7) 0.71815(7)
O1 O 0.85711(15) 0.20613(6) 0.45504(6)
O2 O 0.90581(15) 0.09446(6) 0.09651(6)
H11 H 1.0447 0.0731 0.1097
H12 H 0.8495 0.0823 0.0450
loop_
_geom_bond_atom_site_label_1
_geom_bond_atom_site_label_2
_geom_bond_site_symmetry_1
_geom_bond_site_symmetry_2
C1 C2 1_555 1_555
C2 C3 1_555 1_555
C3 H1 1_555 1_555
C4 C3 1_555 1_555
H2 C4 1_555 1_555
C5 C4 1_555 1_555
C6 C5 1_555 1_555
H3 C6 1_555 1_555
C7 C2 1_555 1_555
H4 C7 1_555 1_555
C8 C9 1_555 1_555
C9 H5 1_555 1_555
C10 C9 1_555 1_555
H6 C10 1_555 1_555
C11 C10 1_555 1_555
C12 C11 1_555 1_555
H7 C12 1_555 1_555
C13 C8 1_555 1_555
H8 C13 1_555 1_555
C14 C11 1_555 1_555
N1 C1 1_555 1_555
H9 N1 1_555 1_555
N2 N1 1_555 1_555
N3 N2 1_555 1_555
N4 C1 1_555 1_555
N5 C14 1_555 1_555
H10 N5 1_555 1_555
N6 N5 1_555 1_555
N7 N6 1_555 1_555
N8 C14 1_555 1_555
O1 C5 1_555 1_555
O2 H11 1_555 1_555
H12 O2 1_555 1_555
C6 C7 1_555 1_555
C8 O1 1_555 1_555
C12 C13 1_555 1_555
N3 N4 1_555 1_555
N7 N8 1_555 1_555

#END
