
#######################################################################
#
#                 Cambridge Crystallographic Data Centre
#                                CCDC 
#
#######################################################################
#
# If this CIF has been generated from an entry in the Cambridge 
# Structural Database, then it will include bibliographic, chemical, 
# crystal, experimental, refinement or atomic coordinate data resulting 
# from the CCDC's data processing and validation procedures.
#
#######################################################################

data_ULILEH
_chemical_formula_moiety         'C44 H52 Cl4 O4'
_chemical_name_systematic        
5,11,17,23-tetrakis(Chloromethyl)-25,26,27,28-tetra-n-propoxycalix[4]arene
_symmetry_cell_setting           monoclinic
_symmetry_space_group_name_H-M   'C 2/c'
_symmetry_Int_Tables_number      15
_space_group_name_Hall           '-C 2yn'
loop_
_symmetry_equiv_pos_site_id
_symmetry_equiv_pos_as_xyz
1 x,y,z
2 1/2+x,1/2+y,z
3 -x,y,1/2-z
4 1/2-x,1/2+y,1/2-z
5 -x,-y,-z
6 1/2-x,1/2-y,-z
7 x,-y,1/2+z
8 1/2+x,1/2-y,1/2+z
_cell_length_a                   23.104(3)
_cell_length_b                   11.5871(15)
_cell_length_c                   17.618(2)
_cell_angle_alpha                90
_cell_angle_beta                 117.655(2)
_cell_angle_gamma                90
_cell_volume                     4177.67
_exptl_crystal_colour            colorless
_exptl_crystal_description       plate
_chemical_melting_point          '562-565 K'
_cell_formula_units_Z            4
_exptl_crystal_recrystallization_method chloroform/heptane
loop_
_atom_site_label
_atom_site_type_symbol
_atom_site_fract_x
_atom_site_fract_y
_atom_site_fract_z
C1 C 0.50019(6) 0.26912(11) 0.95475(8)
C2 C 0.54654(6) 0.20061(11) 0.93269(8)
C3 C 0.53732(6) 0.08279(11) 0.91462(8)
C4 C 0.57355(6) 0.02376(11) 0.88215(8)
C5 C 0.61874(6) 0.08366(11) 0.86547(8)
C6 C 0.62966(6) 0.20102(11) 0.88333(8)
C7 C 0.67218(6) 0.27004(11) 0.85493(8)
C8 C 0.62887(6) 0.33794(11) 0.77464(8)
C9 C 0.61781(6) 0.45548(11) 0.77855(8)
C10 C 0.57288(6) 0.51528(11) 0.70662(8)
C11 C 0.53667(6) 0.45584(11) 0.63009(8)
C12 C 0.54589(6) 0.33795(11) 0.62379(8)
C13 C 0.59403(6) 0.28149(10) 0.69587(8)
C14 C 0.59478(6) 0.25714(10) 0.91977(8)
C15 C 0.55982(8) -0.10064(12) 0.85763(10)
C16 C 0.56055(8) 0.64034(12) 0.71362(10)
O1 O 0.60538(4) 0.37378(8) 0.93772(6)
C17 C 0.65446(7) 0.39656(12) 1.02414(8)
C18 C 0.66500(8) 0.52464(13) 1.03584(10)
C19 C 0.71259(8) 0.55535(15) 1.12794(11)
O2 O 0.60378(5) 0.16480(8) 0.69063(6)
C20 C 0.65246(7) 0.13892(11) 0.66358(9)
C21 C 0.64766(7) 0.01154(13) 0.64361(10)
C22 C 0.69974(8) -0.02954(15) 0.61997(11)
Cl1 Cl 0.61811(3) -0.19788(3) 0.93509(3)
Cl2 Cl 0.62004(3) 0.73262(3) 0.70485(3)
H1 H 0.5243 0.3212 1.0025
H2 H 0.4747 0.2162 0.9728
H3 H 0.5042 0.0438 0.9235
H4 H 0.6414 0.0427 0.8393
H5 H 0.7020 0.3210 0.9014
H6 H 0.6988 0.2163 0.8411
H7 H 0.6406 0.4933 0.8305
H8 H 0.5048 0.4966 0.5830
H9 H 0.5183 -0.1218 0.8522
H10 H 0.5596 -0.1137 0.8038
H11 H 0.5642 0.6536 0.7693
H12 H 0.5193 0.6646 0.6685
H13 H 0.6947 0.3556 1.0335
H14 H 0.6413 0.3680 1.0656
H15 H 0.6830 0.5531 0.9985
H16 H 0.6222 0.5628 1.0206
H17 H 0.7230 0.6366 1.1318
H18 H 0.7532 0.5123 1.1473
H19 H 0.6935 0.5370 1.1652
H20 H 0.6956 0.1595 0.7082
H21 H 0.6420 0.1815 0.6115
H22 H 0.6530 -0.0287 0.6945
H23 H 0.6051 -0.0045 0.5971
H24 H 0.6953 -0.1109 0.6068
H25 H 0.7421 -0.0116 0.6648
H26 H 0.6957 0.0125 0.5702
C1B C 0.49981(6) 0.26912(11) 0.54525(8)
C2B C 0.45346(6) 0.20061(11) 0.56731(8)
C3B C 0.46268(6) 0.08279(11) 0.58538(8)
C4B C 0.42645(6) 0.02376(11) 0.61785(8)
C5B C 0.38126(6) 0.08366(11) 0.63453(8)
C6B C 0.37034(6) 0.20102(11) 0.61667(8)
C7B C 0.32782(6) 0.27004(11) 0.64507(8)
C8B C 0.37113(6) 0.33794(11) 0.72536(8)
C9B C 0.38219(6) 0.45548(11) 0.72145(8)
C10B C 0.42712(6) 0.51528(11) 0.79338(8)
C11B C 0.46333(6) 0.45584(11) 0.86991(8)
C12B C 0.45411(6) 0.33795(11) 0.87621(8)
C13B C 0.40597(6) 0.28149(10) 0.80413(8)
C14B C 0.40522(6) 0.25714(10) 0.58023(8)
C15B C 0.44018(8) -0.10064(12) 0.64237(10)
C16B C 0.43945(8) 0.64034(12) 0.78638(10)
O1B O 0.39462(4) 0.37378(8) 0.56228(6)
C17B C 0.34554(7) 0.39656(12) 0.47586(8)
C18B C 0.33500(8) 0.52464(13) 0.46416(10)
C19B C 0.28741(8) 0.55535(15) 0.37206(11)
O2B O 0.39622(5) 0.16480(8) 0.80937(6)
C20B C 0.34754(7) 0.13892(11) 0.83642(9)
C21B C 0.35234(7) 0.01154(13) 0.85639(10)
C22B C 0.30026(8) -0.02954(15) 0.88003(11)
Cl1B Cl 0.38189(3) -0.19788(3) 0.56491(3)
Cl2B Cl 0.37996(3) 0.73262(3) 0.79515(3)
H1B H 0.4757 0.3212 0.4975
H2B H 0.5253 0.2162 0.5272
H3B H 0.4958 0.0438 0.5765
H4B H 0.3586 0.0427 0.6607
H5B H 0.2980 0.3210 0.5986
H6B H 0.3012 0.2163 0.6589
H7B H 0.3594 0.4933 0.6695
H8B H 0.4952 0.4966 0.9170
H9B H 0.4817 -0.1218 0.6478
H10B H 0.4404 -0.1137 0.6962
H11B H 0.4358 0.6536 0.7307
H12B H 0.4807 0.6646 0.8315
H13B H 0.3053 0.3556 0.4665
H14B H 0.3587 0.3680 0.4344
H15B H 0.3170 0.5531 0.5015
H16B H 0.3778 0.5628 0.4794
H17B H 0.2770 0.6366 0.3682
H18B H 0.2468 0.5123 0.3527
H19B H 0.3065 0.5370 0.3348
H20B H 0.3044 0.1595 0.7918
H21B H 0.3580 0.1815 0.8885
H22B H 0.3470 -0.0287 0.8055
H23B H 0.3949 -0.0045 0.9029
H24B H 0.3047 -0.1109 0.8932
H25B H 0.2579 -0.0116 0.8352
H26B H 0.3043 0.0125 0.9298
loop_
_geom_bond_atom_site_label_1
_geom_bond_atom_site_label_2
_geom_bond_site_symmetry_1
_geom_bond_site_symmetry_2
C1 C2 1_555 1_555
C2 C3 1_555 1_555
C3 C4 1_555 1_555
C4 C5 1_555 1_555
C5 C6 1_555 1_555
C6 C7 1_555 1_555
C7 C8 1_555 1_555
C8 C9 1_555 1_555
C9 C10 1_555 1_555
C10 C11 1_555 1_555
C11 C12 1_555 1_555
C12 C13 1_555 1_555
C13 C8 1_555 1_555
C14 C2 1_555 1_555
C15 C4 1_555 1_555
C16 C10 1_555 1_555
O1 C14 1_555 1_555
C17 O1 1_555 1_555
C18 C17 1_555 1_555
C19 C18 1_555 1_555
O2 C13 1_555 1_555
C20 O2 1_555 1_555
C21 C20 1_555 1_555
C22 C21 1_555 1_555
Cl1 C15 1_555 1_555
Cl2 C16 1_555 1_555
H1 C1 1_555 1_555
H2 C1 1_555 1_555
H3 C3 1_555 1_555
H4 C5 1_555 1_555
H5 C7 1_555 1_555
H6 C7 1_555 1_555
H7 C9 1_555 1_555
H8 C11 1_555 1_555
H9 C15 1_555 1_555
H10 C15 1_555 1_555
H11 C16 1_555 1_555
H12 C16 1_555 1_555
H13 C17 1_555 1_555
H14 C17 1_555 1_555
H15 C18 1_555 1_555
H16 C18 1_555 1_555
H17 C19 1_555 1_555
H18 C19 1_555 1_555
H19 C19 1_555 1_555
H20 C20 1_555 1_555
H21 C20 1_555 1_555
H22 C21 1_555 1_555
H23 C21 1_555 1_555
H24 C22 1_555 1_555
H25 C22 1_555 1_555
H26 C22 1_555 1_555
C1B C12 1_555 1_555
C2B C1B 1_555 1_555
C3B C2B 1_555 1_555
C4B C3B 1_555 1_555
C5B C4B 1_555 1_555
C6B C5B 1_555 1_555
C7B C6B 1_555 1_555
C8B C7B 1_555 1_555
C9B C8B 1_555 1_555
C10B C9B 1_555 1_555
C11B C10B 1_555 1_555
C12B C1 1_555 1_555
C13B C8B 1_555 1_555
C14B C2B 1_555 1_555
C15B C4B 1_555 1_555
C16B C10B 1_555 1_555
O1B C14B 1_555 1_555
C17B O1B 1_555 1_555
C18B C17B 1_555 1_555
C19B C18B 1_555 1_555
O2B C13B 1_555 1_555
C20B O2B 1_555 1_555
C21B C20B 1_555 1_555
C22B C21B 1_555 1_555
Cl1B C15B 1_555 1_555
Cl2B C16B 1_555 1_555
H1B C1B 1_555 1_555
H2B C1B 1_555 1_555
H3B C3B 1_555 1_555
H4B C5B 1_555 1_555
H5B C7B 1_555 1_555
H6B C7B 1_555 1_555
H7B C9B 1_555 1_555
H8B C11B 1_555 1_555
H9B C15B 1_555 1_555
H10B C15B 1_555 1_555
H11B C16B 1_555 1_555
H12B C16B 1_555 1_555
H13B C17B 1_555 1_555
H14B C17B 1_555 1_555
H15B C18B 1_555 1_555
H16B C18B 1_555 1_555
H17B C19B 1_555 1_555
H18B C19B 1_555 1_555
H19B C19B 1_555 1_555
H20B C20B 1_555 1_555
H21B C20B 1_555 1_555
H22B C21B 1_555 1_555
H23B C21B 1_555 1_555
H24B C22B 1_555 1_555
H25B C22B 1_555 1_555
H26B C22B 1_555 1_555
C6 C14 1_555 1_555
C6B C14B 1_555 1_555
C11B C12B 1_555 1_555
C12B C13B 1_555 1_555

#END
