
#######################################################################
#
#                 Cambridge Crystallographic Data Centre
#                                CCDC 
#
#######################################################################
#
# If this CIF has been generated from an entry in the Cambridge 
# Structural Database, then it will include bibliographic, chemical, 
# crystal, experimental, refinement or atomic coordinate data resulting 
# from the CCDC's data processing and validation procedures.
#
#######################################################################

data_ULILAD
_chemical_formula_moiety         'C22 H19 Cl1 N4 O2 S1'
_chemical_name_systematic        
'(E)-3-Methyl-5-(4-methylphenoxy)-1-phenyl-1H-pyrazole-4-carbaldehyde O-[(2-chloro-1,3-thiazol-5-yl)methyl]oxime'
_symmetry_cell_setting           triclinic
_symmetry_space_group_name_H-M   'P -1'
_symmetry_Int_Tables_number      2
_space_group_name_Hall           '-P 1'
loop_
_symmetry_equiv_pos_site_id
_symmetry_equiv_pos_as_xyz
1 x,y,z
2 -x,-y,-z
_cell_length_a                   8.114(3)
_cell_length_b                   11.452(4)
_cell_length_c                   12.494(4)
_cell_angle_alpha                102.700(6)
_cell_angle_beta                 107.885(6)
_cell_angle_gamma                93.634(7)
_cell_volume                     1067.06
_exptl_crystal_colour            colorless
_exptl_crystal_description       triclinic
_cell_formula_units_Z            2
_exptl_crystal_recrystallization_method 'ethyl acetate'
loop_
_atom_site_label
_atom_site_type_symbol
_atom_site_fract_x
_atom_site_fract_y
_atom_site_fract_z
S1 S 0.45270(11) 0.85178(9) 0.33662(8)
Cl1 Cl 0.61728(16) 0.68418(11) 0.47383(9)
O1 O -0.0621(2) 0.84964(18) 0.10876(17)
O2 O 0.4577(3) 1.0355(2) 0.16837(17)
N1 N -0.2014(3) 0.7626(2) -0.0923(2)
N2 N -0.1696(3) 0.7554(2) -0.1953(2)
N3 N 0.2917(3) 0.9627(2) 0.1279(2)
N4 N 0.7640(4) 0.8986(3) 0.4813(2)
C1 C -0.3633(4) 0.7038(3) -0.0939(3)
C2 C -0.4206(4) 0.7326(3) 0.0001(3)
H1 H -0.3572 0.7937 0.0653
C3 C -0.5742(5) 0.6692(4) -0.0040(4)
H2 H -0.6126 0.6870 0.0599
C4 C -0.6702(5) 0.5811(4) -0.0999(5)
H3 H -0.7723 0.5384 -0.1009
C5 C -0.6157(5) 0.5561(4) -0.1939(4)
H4 H -0.6828 0.4975 -0.2602
C6 C -0.4610(5) 0.6171(4) -0.1921(3)
H5 H -0.4240 0.5994 -0.2566
C7 C 0.0690(4) 0.8267(4) -0.2568(3)
H6 H 0.1699 0.7855 -0.2474
H7 H 0.1031 0.9108 -0.2490
H8 H -0.0152 0.7919 -0.3324
C8 C -0.0104(4) 0.8142(3) -0.1657(3)
C9 C 0.0656(4) 0.8599(3) -0.0440(2)
C10 C -0.0610(4) 0.8238(3) -0.0019(3)
C11 C -0.0066(4) 0.7658(3) 0.1735(2)
C12 C -0.0280(4) 0.7901(3) 0.2804(3)
H9 H -0.0762 0.8582 0.3055
C13 C 0.0232(4) 0.7116(3) 0.3504(3)
H10 H 0.0085 0.7278 0.4230
C14 C 0.0945(4) 0.6111(3) 0.3161(3)
C15 C 0.1125(4) 0.5889(3) 0.2072(3)
H11 H 0.1606 0.5209 0.1819
C16 C 0.0612(4) 0.6647(3) 0.1352(3)
H12 H 0.0725 0.6474 0.0617
C17 C 0.1474(5) 0.5256(4) 0.3933(3)
H13 H 0.2202 0.5707 0.4695
H14 H 0.2110 0.4678 0.3609
H15 H 0.0447 0.4841 0.3984
C18 C 0.2345(4) 0.9303(3) 0.0182(3)
H16 H 0.3035 0.9525 -0.0233
C19 C 0.5031(4) 1.0792(3) 0.2911(3)
H17 H 0.4004 1.1029 0.3096
H18 H 0.5904 1.1505 0.3175
C20 C 0.5727(4) 0.9879(3) 0.3541(3)
C21 C 0.7309(4) 0.9944(4) 0.4334(3)
H19 H 0.8149 1.0620 0.4548
C22 C 0.6282(5) 0.8196(4) 0.4373(3)
loop_
_geom_bond_atom_site_label_1
_geom_bond_atom_site_label_2
_geom_bond_site_symmetry_1
_geom_bond_site_symmetry_2
S1 C20 1_555 1_555
Cl1 C22 1_555 1_555
O1 C10 1_555 1_555
O2 N3 1_555 1_555
N1 N2 1_555 1_555
N2 C8 1_555 1_555
N3 C18 1_555 1_555
N4 C21 1_555 1_555
C1 N1 1_555 1_555
C2 C1 1_555 1_555
H1 C2 1_555 1_555
C3 C2 1_555 1_555
H2 C3 1_555 1_555
C4 C3 1_555 1_555
H3 C4 1_555 1_555
C5 C4 1_555 1_555
H4 C5 1_555 1_555
C6 C1 1_555 1_555
H5 C6 1_555 1_555
C7 H6 1_555 1_555
H7 C7 1_555 1_555
H8 C7 1_555 1_555
C8 C7 1_555 1_555
C9 C8 1_555 1_555
C10 N1 1_555 1_555
C11 O1 1_555 1_555
C12 C11 1_555 1_555
H9 C12 1_555 1_555
C13 C12 1_555 1_555
H10 C13 1_555 1_555
C14 C13 1_555 1_555
C15 C14 1_555 1_555
H11 C15 1_555 1_555
C16 C11 1_555 1_555
H12 C16 1_555 1_555
C17 C14 1_555 1_555
H13 C17 1_555 1_555
H14 C17 1_555 1_555
H15 C17 1_555 1_555
C18 C9 1_555 1_555
H16 C18 1_555 1_555
C19 O2 1_555 1_555
H17 C19 1_555 1_555
H18 C19 1_555 1_555
C20 C19 1_555 1_555
C21 C20 1_555 1_555
H19 C21 1_555 1_555
C22 S1 1_555 1_555
N4 C22 1_555 1_555
C5 C6 1_555 1_555
C9 C10 1_555 1_555
C15 C16 1_555 1_555

#END
