
#######################################################################
#
#                 Cambridge Crystallographic Data Centre
#                                CCDC 
#
#######################################################################
#
# If this CIF has been generated from an entry in the Cambridge 
# Structural Database, then it will include bibliographic, chemical, 
# crystal, experimental, refinement or atomic coordinate data resulting 
# from the CCDC's data processing and validation procedures.
#
#######################################################################

data_ULIMUX
_chemical_formula_moiety         'C13 H19 N1 O1'
_chemical_name_systematic        
(1R*,6S*,7S*)-7-Hydroxy-7-methyl-5-methylenebicyclo(4.4.0)decanecarbonitrile
_symmetry_cell_setting           monoclinic
_symmetry_space_group_name_H-M   'C c'
_symmetry_Int_Tables_number      9
_space_group_name_Hall           'C -2yc'
loop_
_symmetry_equiv_pos_site_id
_symmetry_equiv_pos_as_xyz
1 x,y,z
2 1/2+x,1/2+y,z
3 x,-y,1/2+z
4 1/2+x,1/2-y,1/2+z
_cell_length_a                   12.331(9)
_cell_length_b                   11.235(5)
_cell_length_c                   8.528(2)
_cell_angle_alpha                90
_cell_angle_beta                 94.05(4)
_cell_angle_gamma                90
_cell_volume                     1178.51
_exptl_crystal_colour            colorless
_exptl_crystal_description       plate
_chemical_melting_point          '428-429 K'
_cell_formula_units_Z            4
_exptl_crystal_recrystallization_method 'ethyl acetate/hexanes'
loop_
_atom_site_label
_atom_site_type_symbol
_atom_site_fract_x
_atom_site_fract_y
_atom_site_fract_z
O1 O 0.9407(9) 0.2980(2) -0.119(1)
N1 N 0.9477(8) 0.2682(3) 0.534(1)
C1 C 0.9719(9) 0.1954(3) -0.026(1)
C2 C 1.0952(9) 0.1865(4) -0.011(1)
C3 C 1.1485(8) 0.2915(4) 0.074(1)
C4 C 1.1118(9) 0.2975(4) 0.240(1)
C5 C 0.9875(9) 0.3082(3) 0.242(1)
C6 C 0.9463(9) 0.4335(3) 0.197(1)
C7 C 0.8250(9) 0.4456(3) 0.202(1)
C8 C 0.7652(8) 0.3530(3) 0.098(1)
C9 C 0.8056(9) 0.2297(3) 0.134(1)
C10 C 0.9269(9) 0.2102(3) 0.138(1)
C11 C 0.9229(9) 0.0851(3) -0.107(1)
C12 C 0.9623(8) 0.2851(3) 0.407(1)
C13 C 0.7395(8) 0.1421(4) 0.165(1)
H1 H 0.9484 0.2806 -0.2106
H2 H 1.1149 0.1171 0.0442
H3 H 1.1214 0.1817 -0.1157
H4 H 1.2257 0.2887 0.0740
H5 H 1.1263 0.3666 0.0193
H6 H 1.1343 0.2242 0.2915
H7 H 1.1455 0.3617 0.2962
H8 H 0.9642 0.4524 0.0922
H9 H 0.9814 0.4910 0.2669
H10 H 0.8036 0.5244 0.1726
H11 H 0.8076 0.4334 0.3097
H12 H 0.6903 0.3570 0.1062
H13 H 0.7797 0.3705 -0.0117
H14 H 0.9418 0.1362 0.1896
H15 H 0.8455 0.0931 -0.1149
H16 H 0.9434 0.0174 -0.0482
H17 H 0.9468 0.0781 -0.2112
H18 H 0.7664 0.0632 0.1872
H19 H 0.6628 0.1551 0.1612
loop_
_geom_bond_atom_site_label_1
_geom_bond_atom_site_label_2
_geom_bond_site_symmetry_1
_geom_bond_site_symmetry_2
O1 C1 1_555 1_555
N1 C12 1_555 1_555
C1 C2 1_555 1_555
C2 C3 1_555 1_555
C3 C4 1_555 1_555
C4 C5 1_555 1_555
C5 C6 1_555 1_555
C6 C7 1_555 1_555
C7 C8 1_555 1_555
C8 C9 1_555 1_555
C9 C10 1_555 1_555
C10 C1 1_555 1_555
C11 C1 1_555 1_555
C12 C5 1_555 1_555
C13 C9 1_555 1_555
H1 O1 1_555 1_555
H2 C2 1_555 1_555
H3 C2 1_555 1_555
H4 C3 1_555 1_555
H5 C3 1_555 1_555
H6 C4 1_555 1_555
H7 C4 1_555 1_555
H8 C6 1_555 1_555
H9 C6 1_555 1_555
H10 C7 1_555 1_555
H11 C7 1_555 1_555
H12 C8 1_555 1_555
H13 C8 1_555 1_555
H14 C10 1_555 1_555
H15 C11 1_555 1_555
H16 C11 1_555 1_555
H17 C11 1_555 1_555
H18 C13 1_555 1_555
H19 C13 1_555 1_555
C5 C10 1_555 1_555

#END
