
#######################################################################
#
#                 Cambridge Crystallographic Data Centre
#                                CCDC 
#
#######################################################################
#
# If this CIF has been generated from an entry in the Cambridge 
# Structural Database, then it will include bibliographic, chemical, 
# crystal, experimental, refinement or atomic coordinate data resulting 
# from the CCDC's data processing and validation procedures.
#
#######################################################################

data_ULIXAP
_chemical_formula_moiety         'C18 H16 Br1 N3 O4'
_chemical_name_systematic        
5'-Acetyl-2'-amino-5-bromo-1-(methoxymethyl)-6'-methyl-2-oxo-1,2-dihydrospiro[indole-3,4'-pyran]-3'-carbonitrile
_symmetry_cell_setting           orthorhombic
_symmetry_space_group_name_H-M   'P 21 21 21'
_symmetry_Int_Tables_number      19
_space_group_name_Hall           'P 2ac 2ab'
loop_
_symmetry_equiv_pos_site_id
_symmetry_equiv_pos_as_xyz
1 x,y,z
2 1/2-x,-y,1/2+z
3 1/2+x,1/2-y,-z
4 -x,1/2+y,1/2-z
_cell_length_a                   9.1592(3)
_cell_length_b                   11.2121(3)
_cell_length_c                   17.3903(4)
_cell_angle_alpha                90
_cell_angle_beta                 90
_cell_angle_gamma                90
_cell_volume                     1785.88
_exptl_crystal_colour            colorless
_exptl_crystal_description       block
_cell_formula_units_Z            4
loop_
_atom_site_label
_atom_site_type_symbol
_atom_site_fract_x
_atom_site_fract_y
_atom_site_fract_z
Br1 Br 0.11431(4) 0.19565(3) 0.049591(14)
O1 O -0.09937(16) 0.14861(11) 0.44904(8)
O2 O 0.13101(16) 0.44392(12) 0.46077(8)
N1 N 0.19192(18) 0.49073(16) 0.33582(10)
C1 C 0.1482(2) 0.2916(2) 0.13823(11)
O3 O 0.36774(17) 0.26183(14) 0.37175(9)
C2 C 0.07392(19) 0.30489(19) 0.35478(10)
N2 N -0.31184(19) 0.22381(16) 0.41390(10)
H1 H -0.3693 0.2700 0.3886
H2 H -0.3474 0.1717 0.4450
C3 C 0.1215(2) 0.32166(17) 0.27157(10)
C4 C 0.1878(2) 0.4324(2) 0.26368(12)
C5 C 0.1004(2) 0.24910(18) 0.20890(11)
H3 H 0.0561 0.1748 0.2136
C6 C 0.1319(2) 0.19361(19) 0.39412(10)
C7 C 0.2168(2) 0.3999(2) 0.13035(13)
H4 H 0.2488 0.4248 0.0822
C8 C 0.2916(2) 0.1749(2) 0.38542(12)
C9 C 0.1366(2) 0.41874(18) 0.39246(12)
C10 C -0.0911(2) 0.30731(19) 0.35993(10)
O4 O 0.4112(2) 0.58564(16) 0.33832(13)
N3 N -0.2316(3) 0.4609(2) 0.27994(16)
C11 C -0.1678(2) 0.23293(19) 0.40499(11)
C12 C 0.3614(3) 0.0537(2) 0.38995(14)
H5 H 0.4352 0.0469 0.3510
H6 H 0.2885 -0.0066 0.3820
H7 H 0.4051 0.0433 0.4397
C13 C 0.0474(2) 0.12666(18) 0.43935(12)
C14 C 0.2386(3) 0.4720(2) 0.19383(14)
H8 H 0.2861 0.5449 0.1894
C15 C 0.0848(3) 0.02251(19) 0.48969(15)
H9 H 0.0743 -0.0501 0.4609
H10 H 0.0203 0.0210 0.5332
H11 H 0.1838 0.0299 0.5072
C16 C 0.2636(3) 0.6039(2) 0.34808(16)
H12 H 0.2284 0.6625 0.3115
H13 H 0.2439 0.6329 0.3996
C17 C -0.1694(2) 0.3930(2) 0.31567(14)
C18 C 0.4898(3) 0.6929(3) 0.3300(2)
H14 H 0.4452 0.7408 0.2907
H15 H 0.5888 0.6753 0.3158
H16 H 0.4890 0.7357 0.3778
loop_
_geom_bond_atom_site_label_1
_geom_bond_atom_site_label_2
_geom_bond_site_symmetry_1
_geom_bond_site_symmetry_2
Br1 C1 1_555 1_555
O1 C11 1_555 1_555
O2 C9 1_555 1_555
N1 C4 1_555 1_555
C1 C5 1_555 1_555
O3 C8 1_555 1_555
C2 C3 1_555 1_555
N2 H1 1_555 1_555
H2 N2 1_555 1_555
C3 C4 1_555 1_555
C4 C14 1_555 1_555
C5 C3 1_555 1_555
H3 C5 1_555 1_555
C6 C2 1_555 1_555
C7 C1 1_555 1_555
H4 C7 1_555 1_555
C8 C6 1_555 1_555
C9 N1 1_555 1_555
C10 C2 1_555 1_555
O4 C16 1_555 1_555
N3 C17 1_555 1_555
C11 N2 1_555 1_555
C12 C8 1_555 1_555
H5 C12 1_555 1_555
H6 C12 1_555 1_555
H7 C12 1_555 1_555
C13 O1 1_555 1_555
C14 C7 1_555 1_555
H8 C14 1_555 1_555
C15 C13 1_555 1_555
H9 C15 1_555 1_555
H10 C15 1_555 1_555
H11 C15 1_555 1_555
C16 N1 1_555 1_555
H12 C16 1_555 1_555
H13 C16 1_555 1_555
C17 C10 1_555 1_555
C18 O4 1_555 1_555
H14 C18 1_555 1_555
H15 C18 1_555 1_555
H16 C18 1_555 1_555
C2 C9 1_555 1_555
C6 C13 1_555 1_555
C10 C11 1_555 1_555

#END
