
#######################################################################
#
#                 Cambridge Crystallographic Data Centre
#                                CCDC 
#
#######################################################################
#
# If this CIF has been generated from an entry in the Cambridge 
# Structural Database, then it will include bibliographic, chemical, 
# crystal, experimental, refinement or atomic coordinate data resulting 
# from the CCDC's data processing and validation procedures.
#
#######################################################################

data_ULOBAZ
_chemical_formula_moiety         'C16 H13 Br1 O2'
_chemical_name_systematic        '1-(Biphenyl-4-yl)-2-bromovinyl acetate'
_symmetry_cell_setting           monoclinic
_symmetry_space_group_name_H-M   'P 21'
_symmetry_Int_Tables_number      4
_space_group_name_Hall           'P 2yb'
loop_
_symmetry_equiv_pos_site_id
_symmetry_equiv_pos_as_xyz
1 x,y,z
2 -x,1/2+y,-z
_cell_length_a                   9.977(2)
_cell_length_b                   5.5033(11)
_cell_length_c                   13.198(3)
_cell_angle_alpha                90
_cell_angle_beta                 108.25(3)
_cell_angle_gamma                90
_cell_volume                     688.204
_exptl_crystal_colour            colorless
_exptl_crystal_description       block
_cell_formula_units_Z            2
loop_
_atom_site_label
_atom_site_type_symbol
_atom_site_fract_x
_atom_site_fract_y
_atom_site_fract_z
Br1 Br -0.01993(11) 1.1198(4) 0.38454(8)
C1 C 0.3157(9) 0.9521(19) -0.1276(7)
O1 O 0.1525(7) 0.7605(12) 0.3038(5)
C2 C 0.2769(13) 1.128(4) -0.2051(9)
H1 H 0.2158 1.2502 -0.1984
C3 C 0.3021(13) 0.554(2) 0.4538(9)
H2 H 0.3994 0.5488 0.4970
H3 H 0.2801 0.4124 0.4093
H4 H 0.2433 0.5585 0.4991
C4 C 0.3256(14) 1.132(4) -0.2943(9)
H5 H 0.2959 1.2518 -0.3460
C5 C 0.4173(13) 0.955(3) -0.3035(10)
H6 H 0.4510 0.9531 -0.3617
C6 C 0.4583(13) 0.784(3) -0.2271(11)
H7 H 0.5219 0.6652 -0.2325
C7 C 0.4072(13) 0.782(2) -0.1395(9)
H8 H 0.4372 0.6611 -0.0883
C8 C 0.2622(9) 0.9536(19) -0.0354(7)
C9 C 0.2946(12) 0.773(2) 0.0414(8)
H9 H 0.3516 0.6449 0.0340
C10 C 0.2460(11) 0.774(2) 0.1287(7)
H10 H 0.2695 0.6468 0.1772
C11 C 0.1633(9) 0.9621(18) 0.1449(7)
C12 C 0.1271(9) 1.137(3) 0.0673(7)
H11 H 0.0684 1.2627 0.0742
C13 C 0.1740(9) 1.135(3) -0.0218(7)
H12 H 0.1456 1.2580 -0.0725
C14 C 0.1133(10) 0.9661(19) 0.2369(7)
C15 C 0.2773(14) 0.770(3) 0.3875(10)
O2 O 0.3502(8) 0.9505(16) 0.3967(6)
C16 C 0.0321(8) 1.131(3) 0.2613(6)
H13 H -0.0007 1.2595 0.2142
loop_
_geom_bond_atom_site_label_1
_geom_bond_atom_site_label_2
_geom_bond_site_symmetry_1
_geom_bond_site_symmetry_2
Br1 C16 1_555 1_555
C1 C2 1_555 1_555
O1 C14 1_555 1_555
C2 H1 1_555 1_555
C3 H2 1_555 1_555
H3 C3 1_555 1_555
H4 C3 1_555 1_555
C4 C2 1_555 1_555
H5 C4 1_555 1_555
C5 C4 1_555 1_555
H6 C5 1_555 1_555
C6 C5 1_555 1_555
H7 C6 1_555 1_555
C7 C1 1_555 1_555
H8 C7 1_555 1_555
C8 C1 1_555 1_555
C9 C8 1_555 1_555
H9 C9 1_555 1_555
C10 C9 1_555 1_555
H10 C10 1_555 1_555
C11 C10 1_555 1_555
C12 C11 1_555 1_555
H11 C12 1_555 1_555
C13 C8 1_555 1_555
H12 C13 1_555 1_555
C14 C11 1_555 1_555
C15 O1 1_555 1_555
O2 C15 1_555 1_555
C16 C14 1_555 1_555
H13 C16 1_555 1_555
C3 C15 1_555 1_555
C6 C7 1_555 1_555
C12 C13 1_555 1_555

#END
