
#######################################################################
#
#                 Cambridge Crystallographic Data Centre
#                                CCDC 
#
#######################################################################
#
# If this CIF has been generated from an entry in the Cambridge 
# Structural Database, then it will include bibliographic, chemical, 
# crystal, experimental, refinement or atomic coordinate data resulting 
# from the CCDC's data processing and validation procedures.
#
#######################################################################

data_ULOGEI
_chemical_formula_moiety         'C28 H23 N3'
_chemical_name_systematic        
N,N-Dimethyl-N'-(pyridin-2-ylmethylene)-1,1'-binaphthalene-2,2'-diamine
_symmetry_cell_setting           tetragonal
_symmetry_space_group_name_H-M   'P 41'
_symmetry_Int_Tables_number      76
_space_group_name_Hall           'P 4w'
loop_
_symmetry_equiv_pos_site_id
_symmetry_equiv_pos_as_xyz
1 x,y,z
2 -y,x,1/4+z
3 -x,-y,1/2+z
4 y,-x,3/4+z
_cell_length_a                   11.6278(10)
_cell_length_b                   11.6278(10)
_cell_length_c                   16.1805(15)
_cell_angle_alpha                90
_cell_angle_beta                 90
_cell_angle_gamma                90
_cell_volume                     2187.7
_exptl_crystal_colour            orange
_exptl_crystal_description       prism
_cell_formula_units_Z            4
loop_
_atom_site_label
_atom_site_type_symbol
_atom_site_fract_x
_atom_site_fract_y
_atom_site_fract_z
N1 N 0.79008(12) 0.08526(11) 0.22288(9)
N2 N 0.80416(11) 0.34336(11) 0.20804(9)
C1 C 0.63971(14) 0.33478(14) 0.08144(12)
H1 H 0.6122 0.3220 0.1359
C2 C 0.72573(13) 0.21088(12) 0.33344(10)
C3 C 0.70213(13) 0.12823(13) 0.27388(10)
C4 C 0.58751(14) 0.08998(13) 0.26247(11)
H2 H 0.5713 0.0341 0.2213
C5 C 0.50084(13) 0.13199(13) 0.30947(10)
H3 H 0.4250 0.1040 0.3011
C6 C 0.52025(13) 0.21573(13) 0.37011(10)
C7 C 0.63444(13) 0.25613(13) 0.38225(10)
C8 C 0.65068(14) 0.34506(13) 0.44090(10)
H4 H 0.7260 0.3738 0.4504
C9 C 0.56083(14) 0.39038(15) 0.48397(11)
H5 H 0.5741 0.4502 0.5228
C10 C 0.44873(14) 0.34929(15) 0.47137(11)
H6 H 0.3864 0.3813 0.5016
C11 C 0.42948(13) 0.26395(14) 0.41611(10)
H7 H 0.3534 0.2362 0.4083
C12 C 0.84236(13) 0.26390(13) 0.34010(10)
C13 C 0.88055(13) 0.32986(13) 0.27444(11)
C14 C 0.98850(14) 0.38465(14) 0.27701(12)
H8 H 1.0137 0.4296 0.2315
C15 C 1.05671(15) 0.37306(16) 0.34485(12)
H9 H 1.1290 0.4110 0.3461
C16 C 1.02306(13) 0.30663(14) 0.41291(12)
C17 C 0.91394(13) 0.25045(13) 0.41079(11)
C18 C 0.88186(14) 0.18376(13) 0.48000(11)
H10 H 0.8105 0.1440 0.4793
C19 C 0.95093(16) 0.17506(15) 0.54791(12)
H11 H 0.9267 0.1307 0.5941
C20 C 1.05741(16) 0.23123(16) 0.54980(13)
H12 H 1.1054 0.2247 0.5971
C21 C 1.09192(15) 0.29491(16) 0.48409(13)
H13 H 1.1644 0.3326 0.4861
C22 C 0.87725(16) 0.01653(17) 0.26274(15)
H14 H 0.8978 0.0515 0.3158
H15 H 0.9455 0.0127 0.2274
H16 H 0.8476 -0.0613 0.2721
C23 C 0.75633(16) 0.03742(15) 0.14359(12)
H17 H 0.7210 -0.0382 0.1521
H18 H 0.8243 0.0293 0.1083
H19 H 0.7008 0.0889 0.1169
C24 C 0.83870(15) 0.34452(15) 0.13453(11)
H20 H 0.9187 0.3411 0.1229
C25 C 0.75564(14) 0.35116(15) 0.06663(11)
N3 N 0.79870(12) 0.36873(14) -0.00885(9)
C26 C 0.72444(16) 0.37129(19) -0.07167(13)
H21 H 0.7535 0.3842 -0.1258
C27 C 0.60826(15) 0.35623(17) -0.06195(13)
H22 H 0.5584 0.3589 -0.1084
C28 C 0.56522(14) 0.33737(14) 0.01550(13)
H23 H 0.4851 0.3262 0.0236
loop_
_geom_bond_atom_site_label_1
_geom_bond_atom_site_label_2
_geom_bond_site_symmetry_1
_geom_bond_site_symmetry_2
N1 C3 1_555 1_555
N2 C13 1_555 1_555
C1 H1 1_555 1_555
C2 C3 1_555 1_555
C3 C4 1_555 1_555
C4 H2 1_555 1_555
C5 C4 1_555 1_555
H3 C5 1_555 1_555
C6 C5 1_555 1_555
C7 C2 1_555 1_555
C8 C7 1_555 1_555
H4 C8 1_555 1_555
C9 C8 1_555 1_555
H5 C9 1_555 1_555
C10 C9 1_555 1_555
H6 C10 1_555 1_555
C11 C6 1_555 1_555
H7 C11 1_555 1_555
C12 C2 1_555 1_555
C13 C12 1_555 1_555
C14 C13 1_555 1_555
H8 C14 1_555 1_555
C15 C14 1_555 1_555
H9 C15 1_555 1_555
C16 C15 1_555 1_555
C17 C12 1_555 1_555
C18 C17 1_555 1_555
H10 C18 1_555 1_555
C19 C18 1_555 1_555
H11 C19 1_555 1_555
C20 C19 1_555 1_555
H12 C20 1_555 1_555
C21 C16 1_555 1_555
H13 C21 1_555 1_555
C22 N1 1_555 1_555
H14 C22 1_555 1_555
H15 C22 1_555 1_555
H16 C22 1_555 1_555
C23 N1 1_555 1_555
H17 C23 1_555 1_555
H18 C23 1_555 1_555
H19 C23 1_555 1_555
C24 N2 1_555 1_555
H20 C24 1_555 1_555
C25 C1 1_555 1_555
N3 C25 1_555 1_555
C26 N3 1_555 1_555
H21 C26 1_555 1_555
C27 C26 1_555 1_555
H22 C27 1_555 1_555
C28 C1 1_555 1_555
H23 C28 1_555 1_555
C6 C7 1_555 1_555
C10 C11 1_555 1_555
C16 C17 1_555 1_555
C20 C21 1_555 1_555
C24 C25 1_555 1_555
C27 C28 1_555 1_555

#END
