
#######################################################################
#
#                 Cambridge Crystallographic Data Centre
#                                CCDC 
#
#######################################################################
#
# If this CIF has been generated from an entry in the Cambridge 
# Structural Database, then it will include bibliographic, chemical, 
# crystal, experimental, refinement or atomic coordinate data resulting 
# from the CCDC's data processing and validation procedures.
#
#######################################################################

data_ULOKUB
_chemical_formula_moiety         'C2 F4 I2,C4 H4 N2'
_chemical_name_systematic        
'1,2-Di-iodo-1,1,2,2-tetrafluoroethane pyrazine'
_symmetry_cell_setting           triclinic
_symmetry_space_group_name_H-M   'P -1'
_symmetry_Int_Tables_number      2
_space_group_name_Hall           '-P 1'
loop_
_symmetry_equiv_pos_site_id
_symmetry_equiv_pos_as_xyz
1 x,y,z
2 -x,-y,-z
_cell_length_a                   6.2536(5)
_cell_length_b                   6.4403(7)
_cell_length_c                   7.5067(7)
_cell_angle_alpha                106.843(5)
_cell_angle_beta                 107.535(6)
_cell_angle_gamma                93.925(6)
_cell_volume                     271.87
_exptl_crystal_colour            colorless
_exptl_crystal_description       block
_chemical_melting_point          '318 K'
_cell_formula_units_Z            1
_exptl_crystal_recrystallization_method sublimation
loop_
_atom_site_label
_atom_site_type_symbol
_atom_site_fract_x
_atom_site_fract_y
_atom_site_fract_z
I1 I -0.19439(5) -0.20659(5) 0.16898(5)
C1 C 0.0107(9) -0.1133(9) 0.0112(8)
F1 F 0.2332(6) -0.1089(7) 0.1067(6)
F2 F -0.0461(7) -0.2621(6) -0.1699(5)
C1A C -0.0107(9) 0.1133(9) -0.0112(8)
I1A I 0.19439(5) 0.20659(5) -0.16898(5)
F1A F -0.2332(6) 0.1089(7) -0.1067(6)
F2A F 0.0461(7) 0.2621(6) 0.1699(5)
N1 N -0.4265(9) -0.3869(9) 0.3908(8)
C2 C -0.5691(10) -0.3162(10) 0.4868(9)
H1 H -0.6226 -0.1865 0.4798
C3 C -0.3595(11) -0.5733(11) 0.4044(9)
H2 H -0.2615 -0.6313 0.3387
C3A C -0.6405(11) -0.4267(11) 0.5956(9)
N1A N -0.5735(9) -0.6131(9) 0.6092(8)
C2A C -0.4309(10) -0.6838(10) 0.5132(9)
H1A H -0.3774 -0.8135 0.5202
H2A H -0.7385 -0.3687 0.6613
loop_
_geom_bond_atom_site_label_1
_geom_bond_atom_site_label_2
_geom_bond_site_symmetry_1
_geom_bond_site_symmetry_2
I1 C1 1_555 1_555
C1 F1 1_555 1_555
F2 C1 1_555 1_555
N1 C2 1_555 1_555
C2 H1 1_555 1_555
C3 N1 1_555 1_555
H2 C3 1_555 1_555
C1A C1 1_555 1_555
I1A C1A 1_555 1_555
F1A C1A 1_555 1_555
F2A C1A 1_555 1_555
C3A C2 1_555 1_555
N1A C3A 1_555 1_555
C2A C3 1_555 1_555
H1A C2A 1_555 1_555
H2A C3A 1_555 1_555
N1A C2A 1_555 1_555

#END
