
#######################################################################
#
#                 Cambridge Crystallographic Data Centre
#                                CCDC 
#
#######################################################################
#
# If this CIF has been generated from an entry in the Cambridge 
# Structural Database, then it will include bibliographic, chemical, 
# crystal, experimental, refinement or atomic coordinate data resulting 
# from the CCDC's data processing and validation procedures.
#
#######################################################################

data_ULOKOV
_chemical_formula_moiety         'C2 F4 I2,2(C8 H7 N1 S1)'
_chemical_name_systematic        
'1,2-Di-iodo-1,1,2,2-tetrafluoroethane bis(2-methylbenzothiazole)'
_symmetry_cell_setting           triclinic
_symmetry_space_group_name_H-M   'P -1'
_symmetry_Int_Tables_number      2
_space_group_name_Hall           '-P 1'
loop_
_symmetry_equiv_pos_site_id
_symmetry_equiv_pos_as_xyz
1 x,y,z
2 -x,-y,-z
_cell_length_a                   6.9160(5)
_cell_length_b                   7.7021(5)
_cell_length_c                   10.6364(7)
_cell_angle_alpha                80.528(4)
_cell_angle_beta                 78.781(4)
_cell_angle_gamma                85.991(4)
_cell_volume                     547.752
_exptl_crystal_colour            colorless
_exptl_crystal_description       block
_chemical_melting_point          '310 K'
_cell_formula_units_Z            1
_exptl_crystal_recrystallization_method sublimation
loop_
_atom_site_label
_atom_site_type_symbol
_atom_site_fract_x
_atom_site_fract_y
_atom_site_fract_z
I1 I 0.17611(3) 0.16453(2) 0.784291(16)
F1 F 0.0982(4) -0.1854(2) 0.93069(18)
F2 F 0.2395(3) -0.0252(3) 1.03409(19)
C1 C 0.0991(5) -0.0216(4) 0.9597(3)
C1A C -0.0991(5) 0.0216(4) 1.0403(3)
I1A I -0.17611(3) -0.16453(2) 1.215709(16)
F1A F -0.0982(4) 0.1854(2) 1.06931(18)
F2A F -0.2395(3) 0.0252(3) 0.96591(19)
S1 S 0.25782(12) 0.71642(10) 0.40305(7)
N1 N 0.2498(4) 0.4152(3) 0.5513(2)
C2 C 0.2937(4) 0.5301(4) 0.3289(3)
C3 C 0.3261(5) 0.5153(5) 0.1968(3)
C4 C 0.3482(5) 0.3487(5) 0.1628(3)
C5 C 0.3404(5) 0.1988(5) 0.2573(3)
C6 C 0.3084(5) 0.2129(4) 0.3874(3)
C7 C 0.2850(4) 0.3799(4) 0.4240(3)
C8 C 0.2323(4) 0.5832(4) 0.5540(3)
C9 C 0.1912(6) 0.6638(5) 0.6750(3)
H1 H 0.337(6) 0.609(5) 0.133(4)
H2 H 0.349(5) 0.335(5) 0.083(4)
H3 H 0.352(6) 0.088(6) 0.237(4)
H4 H 0.295(6) 0.106(5) 0.462(4)
H5 H 0.062(7) 0.643(6) 0.729(5)
H6 H 0.264(10) 0.616(8) 0.728(6)
H7 H 0.198(7) 0.789(7) 0.658(5)
loop_
_geom_bond_atom_site_label_1
_geom_bond_atom_site_label_2
_geom_bond_site_symmetry_1
_geom_bond_site_symmetry_2
I1 C1 1_555 1_555
S1 C2 1_555 1_555
F1 C1 1_555 1_555
F2 C1 1_555 1_555
N1 C7 1_555 1_555
C1 C1A 1_555 1_555
C2 C3 1_555 1_555
C3 C4 1_555 1_555
C4 C5 1_555 1_555
C5 C6 1_555 1_555
C6 C7 1_555 1_555
C7 C2 1_555 1_555
C8 S1 1_555 1_555
C9 C8 1_555 1_555
H1 C3 1_555 1_555
H2 C4 1_555 1_555
H3 C5 1_555 1_555
H4 C6 1_555 1_555
H5 C9 1_555 1_555
H6 C9 1_555 1_555
H7 C9 1_555 1_555
C1A I1A 1_555 1_555
F1A C1A 1_555 1_555
F2A C1A 1_555 1_555
N1 C8 1_555 1_555

#END
