
#######################################################################
#
#                 Cambridge Crystallographic Data Centre
#                                CCDC 
#
#######################################################################
#
# If this CIF has been generated from an entry in the Cambridge 
# Structural Database, then it will include bibliographic, chemical, 
# crystal, experimental, refinement or atomic coordinate data resulting 
# from the CCDC's data processing and validation procedures.
#
#######################################################################

data_ULOKEL
_chemical_formula_moiety         'C2 F4 I2,C5 H11 N1 O1'
_chemical_name_systematic        
'1,2-Di-iodo-1,1,2,2-tetrafluoroethane N-methylmorpholine'
_symmetry_cell_setting           triclinic
_symmetry_space_group_name_H-M   'P -1'
_symmetry_Int_Tables_number      2
_space_group_name_Hall           '-P 1'
loop_
_symmetry_equiv_pos_site_id
_symmetry_equiv_pos_as_xyz
1 x,y,z
2 -x,-y,-z
_cell_length_a                   6.8922(2)
_cell_length_b                   6.8945(3)
_cell_length_c                   14.5254(7)
_cell_angle_alpha                77.793(3)
_cell_angle_beta                 81.707(3)
_cell_angle_gamma                77.341(3)
_cell_volume                     654.74
_exptl_crystal_colour            colorless
_exptl_crystal_description       block
_chemical_melting_point          '316 K'
_cell_formula_units_Z            2
_exptl_crystal_recrystallization_method sublimation
loop_
_atom_site_label
_atom_site_type_symbol
_atom_site_fract_x
_atom_site_fract_y
_atom_site_fract_z
I1 I 0.25664(3) 0.24964(4) 0.101780(16)
F1 F 0.0876(6) 0.6780(4) 0.0421(3)
F2 F 0.2125(4) 0.5334(5) -0.0767(2)
C1 C 0.1035(6) 0.5091(6) 0.0078(3)
C1A C -0.1035(6) 0.4909(6) -0.0078(3)
I1A I -0.25664(3) 0.75036(4) -0.101780(16)
F1A F -0.0876(6) 0.3220(4) -0.0421(3)
F2A F -0.2125(4) 0.4666(5) 0.0767(2)
I2 I 0.83892(4) 0.30385(4) 0.411344(18)
F3 F 0.7652(4) 0.6576(5) 0.5002(2)
F4 F 1.0149(4) 0.6571(4) 0.38936(18)
C2 C 0.9289(7) 0.5397(7) 0.4624(3)
C2A C 1.0711(7) 0.4603(7) 0.5376(3)
I2A I 1.16108(4) 0.69615(4) 0.588656(18)
F3A F 1.2348(4) 0.3424(5) 0.4998(2)
F4A F 0.9851(4) 0.3429(4) 0.61064(18)
O1 O 0.6766(4) 0.0330(5) 0.3335(2)
N1 N 0.4524(4) -0.1001(5) 0.2165(2)
C3 C 0.6700(6) -0.1182(7) 0.1985(3)
C4 C 0.7356(6) 0.0449(7) 0.2344(3)
C5 C 0.3910(6) -0.1040(6) 0.3176(3)
C6 C 0.4648(6) 0.0573(6) 0.3516(3)
C7 C 0.3871(7) -0.2602(7) 0.1856(3)
H1 H 0.711(10) -0.115(10) 0.137(5)
H2 H 0.745(7) -0.259(7) 0.223(3)
H3 H 0.887(9) 0.016(9) 0.233(4)
H4 H 0.672(7) 0.193(7) 0.198(3)
H5 H 0.457(8) -0.227(8) 0.352(4)
H6 H 0.244(8) -0.070(8) 0.327(4)
H7 H 0.406(7) 0.196(8) 0.321(3)
H8 H 0.426(7) 0.051(7) 0.423(4)
H9 H 0.421(11) -0.253(11) 0.108(5)
H10 H 0.241(8) -0.245(8) 0.201(4)
H11 H 0.444(8) -0.384(8) 0.225(4)
loop_
_geom_bond_atom_site_label_1
_geom_bond_atom_site_label_2
_geom_bond_site_symmetry_1
_geom_bond_site_symmetry_2
I1 C1 1_555 1_555
I2 C2 1_555 1_555
O1 C4 1_555 1_555
N1 C3 1_555 1_555
F1 C1 1_555 1_555
F2 C1 1_555 1_555
F3 C2 1_555 1_555
F4 C2 1_555 1_555
C1 C1A 1_555 1_555
C2 C2A 1_555 1_555
C3 C4 1_555 1_555
C4 H3 1_555 1_555
C5 N1 1_555 1_555
C6 O1 1_555 1_555
C7 N1 1_555 1_555
H1 C3 1_555 1_555
H2 C3 1_555 1_555
H4 C4 1_555 1_555
H5 C5 1_555 1_555
H6 C5 1_555 1_555
H7 C6 1_555 1_555
H8 C6 1_555 1_555
H9 C7 1_555 1_555
H10 C7 1_555 1_555
H11 C7 1_555 1_555
C1A I1A 1_555 1_555
F1A C1A 1_555 1_555
F2A C1A 1_555 1_555
C2A I2A 1_555 1_555
F3A C2A 1_555 1_555
F4A C2A 1_555 1_555
C5 C6 1_555 1_555

#END
