
#######################################################################
#
#                 Cambridge Crystallographic Data Centre
#                                CCDC 
#
#######################################################################
#
# If this CIF has been generated from an entry in the Cambridge 
# Structural Database, then it will include bibliographic, chemical, 
# crystal, experimental, refinement or atomic coordinate data resulting 
# from the CCDC's data processing and validation procedures.
#
#######################################################################

data_ULOLAI
_chemical_formula_moiety         'C2 F4 I2,C5 H6 N2'
_chemical_name_systematic        
'1,2-Di-iodo-1,1,2,2-tetrafluoroethane 2-methylpyrazine'
_symmetry_cell_setting           monoclinic
_symmetry_space_group_name_H-M   'P 21/c'
_symmetry_Int_Tables_number      14
_space_group_name_Hall           '-P 2ybc'
loop_
_symmetry_equiv_pos_site_id
_symmetry_equiv_pos_as_xyz
1 x,y,z
2 x,1/2-y,1/2+z
3 -x,-y,-z
4 -x,1/2+y,1/2-z
_cell_length_a                   6.9365(5)
_cell_length_b                   11.5354(10)
_cell_length_c                   8.1604(4)
_cell_angle_alpha                90
_cell_angle_beta                 110.487(4)
_cell_angle_gamma                90
_cell_volume                     611.658
_exptl_crystal_colour            colorless
_exptl_crystal_description       block
_chemical_melting_point          '312 K'
_cell_formula_units_Z            2
_exptl_crystal_recrystallization_method sublimation
loop_
_atom_site_label
_atom_site_type_symbol
_atom_site_fract_x
_atom_site_fract_y
_atom_site_fract_z
N1 N 0.4367(13) 0.3886(9) 0.0086(9)
C2 C 0.329(2) 0.4772(12) 0.0380(11)
H1 H 0.2121 0.4633 0.0655
C3 C 0.6078(15) 0.4119(10) -0.0276(10)
C4 C 0.714(3) 0.331(2) -0.050(2)
H3 H 0.7609 0.2841 0.0533
H4 H 0.8298 0.3620 -0.0737
H5 H 0.6320 0.2848 -0.1474
C3B C 0.3922(15) 0.5881(10) 0.0276(10)
N1B N 0.5633(13) 0.6114(9) -0.0086(9)
C2B C 0.671(2) 0.5228(12) -0.0380(11)
H1B H 0.7879 0.5367 -0.0655
C4B C 0.286(3) 0.669(2) 0.050(2)
H3B H 0.2391 0.7159 -0.0533
H4B H 0.1702 0.6380 0.0737
H5B H 0.3680 0.7152 0.1474
I1 I 0.24608(7) 0.16138(5) -0.01208(6)
F1 F 0.0663(8) -0.0567(4) -0.1713(6)
F2 F 0.2294(7) -0.0732(4) 0.1091(6)
C1 C 0.1010(11) -0.0034(7) -0.0163(8)
C1B C -0.1010(11) 0.0034(7) 0.0163(8)
I1B I -0.24608(7) -0.16138(5) 0.01208(6)
F1B F -0.0663(8) 0.0567(4) 0.1713(6)
F2B F -0.2294(7) 0.0732(4) -0.1091(6)
H2? H 0.69(3) 0.351(19) -0.046(10)
loop_
_geom_bond_atom_site_label_1
_geom_bond_atom_site_label_2
_geom_bond_site_symmetry_1
_geom_bond_site_symmetry_2
I1 C1 1_555 1_555
F1 C1 1_555 1_555
F2 C1 1_555 1_555
N1 C2 1_555 1_555
C1 C1B 1_555 1_555
C2 H1 1_555 1_555
C3 N1 1_555 1_555
C4 C3 1_555 1_555
H3 C4 1_555 1_555
H4 C4 1_555 1_555
H5 C4 1_555 1_555
C1B I1B 1_555 1_555
F1B C1B 1_555 1_555
F2B C1B 1_555 1_555
C3B C2 1_555 1_555
N1B C3B 1_555 1_555
C2B C3 1_555 1_555
H1B C2B 1_555 1_555
C4B C3B 1_555 1_555
H3B C4B 1_555 1_555
H4B C4B 1_555 1_555
H5B C4B 1_555 1_555
N1B C2B 1_555 1_555

#END
