
#######################################################################
#
#                 Cambridge Crystallographic Data Centre
#                                CCDC 
#
#######################################################################
#
# If this CIF has been generated from an entry in the Cambridge 
# Structural Database, then it will include bibliographic, chemical, 
# crystal, experimental, refinement or atomic coordinate data resulting 
# from the CCDC's data processing and validation procedures.
#
#######################################################################

data_ULUDEM
_chemical_formula_moiety         'C15 H10 B1 F2 N1 O2'
_chemical_name_systematic        
1,1-Difluoro-3-phenyl-1H-[1,3,2]oxazaborinino[4,3-b][1,3]benzoxazol-10-ium-1-ide
_symmetry_cell_setting           monoclinic
_symmetry_space_group_name_H-M   'P 21/n'
_symmetry_Int_Tables_number      14
_space_group_name_Hall           '-P 2yn'
loop_
_symmetry_equiv_pos_site_id
_symmetry_equiv_pos_as_xyz
1 x,y,z
2 1/2-x,1/2+y,1/2-z
3 -x,-y,-z
4 1/2+x,1/2-y,1/2+z
_cell_length_a                   7.1854(14)
_cell_length_b                   12.877(3)
_cell_length_c                   13.705(3)
_cell_angle_alpha                90
_cell_angle_beta                 93.63(3)
_cell_angle_gamma                90
_cell_volume                     1265.53
_exptl_crystal_colour            colorless
_exptl_crystal_description       block
_cell_formula_units_Z            4
loop_
_atom_site_label
_atom_site_type_symbol
_atom_site_fract_x
_atom_site_fract_y
_atom_site_fract_z
O1 O 0.18271(12) -0.05244(7) 0.16366(7)
C1 C 0.27832(16) 0.03663(10) -0.07864(9)
O2 O 0.28798(14) 0.13717(7) -0.06130(7)
N1 N 0.22330(14) 0.10615(8) 0.10837(8)
F1 F 0.39821(16) 0.25244(7) 0.05782(7)
C2 C 0.16706(17) 0.01623(10) 0.24168(9)
C3 C 0.19196(16) 0.11518(10) 0.20789(9)
C4 C 0.31250(16) 0.00773(11) -0.18043(9)
F2 F 0.08970(16) 0.24721(8) 0.01675(7)
C5 C 0.21669(15) 0.00691(10) 0.08635(9)
C6 C 0.18399(19) 0.20001(12) 0.26901(10)
H1 H 0.2010 0.2674 0.2469
C7 C 0.1246(2) 0.07848(13) 0.39788(11)
H2 H 0.1019 0.0678 0.4632
C8 C 0.24162(17) -0.03259(10) -0.00751(10)
H3 H 0.2333 -0.1034 -0.0205
C9 C 0.3427(2) 0.08500(12) -0.24826(11)
H4 H 0.3419 0.1543 -0.2292
C10 C 0.13275(18) -0.00649(12) 0.33682(10)
H5 H 0.1162 -0.0741 0.3585
C11 C 0.3465(2) -0.11879(13) -0.30669(11)
H6 H 0.3481 -0.1879 -0.3264
C12 C 0.31534(19) -0.09495(12) -0.21094(10)
H7 H 0.2961 -0.1480 -0.1666
C13 C 0.3752(2) -0.04195(14) -0.37295(11)
H8 H 0.3955 -0.0588 -0.4374
C14 C 0.1492(2) 0.17897(13) 0.36513(10)
H9 H 0.1421 0.2338 0.4089
B1 B 0.2506(2) 0.19050(12) 0.02953(11)
C15 C 0.3739(2) 0.05986(14) -0.34412(11)
H10 H 0.3941 0.1122 -0.3890
loop_
_geom_bond_atom_site_label_1
_geom_bond_atom_site_label_2
_geom_bond_site_symmetry_1
_geom_bond_site_symmetry_2
O1 C2 1_555 1_555
C1 O2 1_555 1_555
O2 B1 1_555 1_555
N1 C3 1_555 1_555
F1 B1 1_555 1_555
C2 C3 1_555 1_555
C3 C6 1_555 1_555
C4 C1 1_555 1_555
F2 B1 1_555 1_555
C5 O1 1_555 1_555
C6 H1 1_555 1_555
C7 H2 1_555 1_555
C8 C1 1_555 1_555
H3 C8 1_555 1_555
C9 C4 1_555 1_555
H4 C9 1_555 1_555
C10 C2 1_555 1_555
H5 C10 1_555 1_555
C11 H6 1_555 1_555
C12 C4 1_555 1_555
H7 C12 1_555 1_555
C13 C11 1_555 1_555
H8 C13 1_555 1_555
C14 C6 1_555 1_555
H9 C14 1_555 1_555
B1 N1 1_555 1_555
C15 C9 1_555 1_555
H10 C15 1_555 1_555
N1 C5 1_555 1_555
C5 C8 1_555 1_555
C7 C10 1_555 1_555
C7 C14 1_555 1_555
C11 C12 1_555 1_555
C13 C15 1_555 1_555

#END
