
#######################################################################
#
#                 Cambridge Crystallographic Data Centre
#                                CCDC 
#
#######################################################################
#
# If this CIF has been generated from an entry in the Cambridge 
# Structural Database, then it will include bibliographic, chemical, 
# crystal, experimental, refinement or atomic coordinate data resulting 
# from the CCDC's data processing and validation procedures.
#
#######################################################################

data_ULUDOW
_chemical_formula_moiety         'C16 H12 B1 F2 N1 O3'
_chemical_name_systematic        
1,1-Difluoro-3-(3-methoxyphenyl)-1H-[1,3,2]oxazaborinino[4,3-b][1,3]benzoxazol-10-ium-1-ide
_symmetry_cell_setting           monoclinic
_symmetry_space_group_name_H-M   'P 21/n'
_symmetry_Int_Tables_number      14
_space_group_name_Hall           '-P 2yn'
loop_
_symmetry_equiv_pos_site_id
_symmetry_equiv_pos_as_xyz
1 x,y,z
2 1/2-x,1/2+y,1/2-z
3 -x,-y,-z
4 1/2+x,1/2-y,1/2+z
_cell_length_a                   7.1557(14)
_cell_length_b                   8.6916(17)
_cell_length_c                   22.455(5)
_cell_angle_alpha                90
_cell_angle_beta                 92.46(3)
_cell_angle_gamma                90
_cell_volume                     1395.29
_exptl_crystal_colour            colorless
_exptl_crystal_description       block
_cell_formula_units_Z            4
loop_
_atom_site_label
_atom_site_type_symbol
_atom_site_fract_x
_atom_site_fract_y
_atom_site_fract_z
O1 O 0.68457(17) 0.23165(15) 0.02858(5)
O2 O 0.79218(19) 0.68871(15) 0.03957(5)
N1 N 0.73401(19) 0.43847(17) 0.08468(6)
C1 C 0.8069(2) 0.7354(2) -0.06333(7)
F1 F 0.6092(2) 0.67144(14) 0.12199(6)
F2 F 0.92106(19) 0.63454(16) 0.13330(5)
C2 C 0.7218(2) 0.3831(2) 0.02969(7)
C3 C 0.7785(2) 0.6252(2) -0.01414(7)
C4 C 0.7428(2) 0.4725(2) -0.02146(7)
H1 H 0.7328 0.4288 -0.0593
O3 O 0.8097(2) 0.73003(18) -0.22439(6)
C5 C 0.6722(2) 0.1880(2) 0.08805(8)
C6 C 0.8437(3) 0.8897(2) -0.05061(8)
H2 H 0.8490 0.9239 -0.0113
C7 C 0.7030(2) 0.3163(2) 0.12350(7)
C8 C 0.8245(2) 0.7907(2) -0.16821(8)
C9 C 0.7975(2) 0.6871(2) -0.12235(8)
H3 H 0.7729 0.5844 -0.1312
C10 C 0.8724(3) 0.9914(2) -0.09643(9)
H4 H 0.8981 1.0941 -0.0878
C11 C 0.8633(3) 0.9426(2) -0.15527(9)
H5 H 0.8832 1.0121 -0.1859
C12 C 0.6285(3) 0.0357(3) 0.17144(9)
H6 H 0.6044 -0.0589 0.1889
C13 C 0.6965(3) 0.3065(2) 0.18486(8)
H7 H 0.7169 0.3918 0.2092
C14 C 0.6337(3) 0.0446(2) 0.11013(9)
H8 H 0.6126 -0.0403 0.0856
C15 C 0.6582(3) 0.1632(2) 0.20800(9)
H9 H 0.6520 0.1518 0.2490
B1 B 0.7659(3) 0.6131(3) 0.09675(8)
C16 C 0.8200(3) 0.8336(3) -0.27337(9)
H10 H 0.7243 0.9104 -0.2708
H11 H 0.8021 0.7777 -0.3101
H12 H 0.9405 0.8823 -0.2722
loop_
_geom_bond_atom_site_label_1
_geom_bond_atom_site_label_2
_geom_bond_site_symmetry_1
_geom_bond_site_symmetry_2
O1 C2 1_555 1_555
O2 C3 1_555 1_555
N1 C2 1_555 1_555
C1 C3 1_555 1_555
F1 B1 1_555 1_555
F2 B1 1_555 1_555
C2 C4 1_555 1_555
C3 C4 1_555 1_555
C4 H1 1_555 1_555
O3 C8 1_555 1_555
C5 O1 1_555 1_555
C6 C1 1_555 1_555
H2 C6 1_555 1_555
C7 N1 1_555 1_555
C8 C9 1_555 1_555
C9 C1 1_555 1_555
H3 C9 1_555 1_555
C10 C6 1_555 1_555
H4 C10 1_555 1_555
C11 C8 1_555 1_555
H5 C11 1_555 1_555
C12 H6 1_555 1_555
C13 C7 1_555 1_555
H7 C13 1_555 1_555
C14 C5 1_555 1_555
H8 C14 1_555 1_555
C15 C12 1_555 1_555
H9 C15 1_555 1_555
B1 O2 1_555 1_555
C16 O3 1_555 1_555
H10 C16 1_555 1_555
H11 C16 1_555 1_555
H12 C16 1_555 1_555
N1 B1 1_555 1_555
C5 C7 1_555 1_555
C10 C11 1_555 1_555
C12 C14 1_555 1_555
C13 C15 1_555 1_555

#END
