
#######################################################################
#
#                 Cambridge Crystallographic Data Centre
#                                CCDC 
#
#######################################################################
#
# If this CIF has been generated from an entry in the Cambridge 
# Structural Database, then it will include bibliographic, chemical, 
# crystal, experimental, refinement or atomic coordinate data resulting 
# from the CCDC's data processing and validation procedures.
#
#######################################################################

data_ULUDIQ
_chemical_formula_moiety         'C16 H12 B1 F2 N1 O3'
_chemical_name_systematic        
1,1-Difluoro-3-(2-methoxyphenyl)-1H-[1,3,2]oxazaborinino[4,3-b][1,3]benzoxazol-10-ium-1-ide
_symmetry_cell_setting           monoclinic
_symmetry_space_group_name_H-M   'P 21/n'
_symmetry_Int_Tables_number      14
_space_group_name_Hall           '-P 2yn'
loop_
_symmetry_equiv_pos_site_id
_symmetry_equiv_pos_as_xyz
1 x,y,z
2 1/2-x,1/2+y,1/2-z
3 -x,-y,-z
4 1/2+x,1/2-y,1/2+z
_cell_length_a                   7.7022(15)
_cell_length_b                   8.6623(17)
_cell_length_c                   21.644(4)
_cell_angle_alpha                90
_cell_angle_beta                 99.29(3)
_cell_angle_gamma                90
_cell_volume                     1425.12
_exptl_crystal_colour            colorless
_exptl_crystal_description       block
_cell_formula_units_Z            4
loop_
_atom_site_label
_atom_site_type_symbol
_atom_site_fract_x
_atom_site_fract_y
_atom_site_fract_z
O1 O 0.4415(3) 0.2797(2) 0.18788(11)
F1 F 0.1606(3) 0.27172(18) 0.12839(10)
F2 F 0.3938(3) 0.24395(18) 0.07968(9)
O2 O 0.3660(3) -0.1765(2) 0.20142(10)
N1 N 0.3239(3) 0.0358(2) 0.14421(12)
C1 C 0.2848(4) -0.2167(3) 0.14119(15)
O3 O 0.7153(3) 0.1171(3) 0.35803(12)
C2 C 0.5914(4) 0.3183(3) 0.29070(16)
C3 C 0.3868(4) -0.0223(3) 0.19962(16)
C4 C 0.4702(4) 0.0603(3) 0.25125(16)
H1 H 0.5045 0.0128 0.2898
C5 C 0.5730(4) 0.4754(3) 0.27974(18)
H2 H 0.5073 0.5100 0.2425
C6 C 0.2582(4) -0.0862(3) 0.10497(15)
C7 C 0.4994(4) 0.2128(3) 0.24296(16)
C8 C 0.2381(4) -0.3606(3) 0.11920(16)
H3 H 0.2564 -0.4478 0.1445
C9 C 0.1841(4) -0.0946(3) 0.04260(16)
H4 H 0.1685 -0.0071 0.0175
C10 C 0.6503(5) 0.5812(4) 0.3230(2)
H5 H 0.6370 0.6863 0.3148
C11 C 0.1616(5) -0.3690(4) 0.05695(17)
H6 H 0.1274 -0.4648 0.0398
C12 C 0.6933(5) 0.2706(4) 0.34764(17)
B1 B 0.3286(5) 0.2128(4) 0.1338(2)
C13 C 0.7703(5) 0.3767(5) 0.39093(17)
H7 H 0.8373 0.3439 0.4283
C14 C 0.7474(5) 0.5313(5) 0.3785(2)
H8 H 0.7980 0.6033 0.4079
C15 C 0.1344(5) -0.2389(4) 0.01930(17)
H9 H 0.0818 -0.2492 -0.0223
C16 C 0.8118(5) 0.0626(5) 0.41572(19)
H10 H 0.9319 0.0961 0.4195
H11 H 0.8079 -0.0482 0.4165
H12 H 0.7607 0.1031 0.4499
loop_
_geom_bond_atom_site_label_1
_geom_bond_atom_site_label_2
_geom_bond_site_symmetry_1
_geom_bond_site_symmetry_2
O1 C7 1_555 1_555
F1 B1 1_555 1_555
F2 B1 1_555 1_555
O2 C1 1_555 1_555
N1 C3 1_555 1_555
C1 C6 1_555 1_555
O3 C12 1_555 1_555
C2 C5 1_555 1_555
C3 O2 1_555 1_555
C4 C3 1_555 1_555
H1 C4 1_555 1_555
C5 H2 1_555 1_555
C6 N1 1_555 1_555
C7 C2 1_555 1_555
C8 C1 1_555 1_555
H3 C8 1_555 1_555
C9 C6 1_555 1_555
H4 C9 1_555 1_555
C10 C5 1_555 1_555
H5 C10 1_555 1_555
C11 C8 1_555 1_555
H6 C11 1_555 1_555
C12 C2 1_555 1_555
B1 O1 1_555 1_555
C13 C12 1_555 1_555
H7 C13 1_555 1_555
C14 C10 1_555 1_555
H8 C14 1_555 1_555
C15 C9 1_555 1_555
H9 C15 1_555 1_555
C16 O3 1_555 1_555
H10 C16 1_555 1_555
H11 C16 1_555 1_555
H12 C16 1_555 1_555
N1 B1 1_555 1_555
C4 C7 1_555 1_555
C11 C15 1_555 1_555
C13 C14 1_555 1_555

#END
