
#######################################################################
#
#                 Cambridge Crystallographic Data Centre
#                                CCDC 
#
#######################################################################
#
# If this CIF has been generated from an entry in the Cambridge 
# Structural Database, then it will include bibliographic, chemical, 
# crystal, experimental, refinement or atomic coordinate data resulting 
# from the CCDC's data processing and validation procedures.
#
#######################################################################

data_ULUFOY
_chemical_formula_moiety         '2(C18 H24 O2),C4 H10 N2,2(H2 O1)'
_chemical_name_systematic        'bis(17-\b-Estradiol) piperazine dihydrate'
_symmetry_cell_setting           triclinic
_symmetry_space_group_name_H-M   'P 1'
_symmetry_Int_Tables_number      1
_space_group_name_Hall           'P 1'
loop_
_symmetry_equiv_pos_site_id
_symmetry_equiv_pos_as_xyz
1 x,y,z
_cell_length_a                   7.3931(7)
_cell_length_b                   9.2277(8)
_cell_length_c                   14.7018(13)
_cell_angle_alpha                98.038(6)
_cell_angle_beta                 97.853(6)
_cell_angle_gamma                110.152(5)
_cell_volume                     913.714
_exptl_crystal_colour            colorless
_exptl_crystal_description       block
_cell_formula_units_Z            1
loop_
_atom_site_label
_atom_site_type_symbol
_atom_site_fract_x
_atom_site_fract_y
_atom_site_fract_z
O1 O 0.9348(6) 0.0735(4) 0.3215(2)
H1 H 0.916(14) 0.140(8) 0.295(5)
H2 H 0.866(9) 0.032(8) 0.355(4)
O2 O 0.3043(6) 0.4382(5) 0.2052(3)
H3 H 0.315(19) 0.378(11) 0.238(7)
H4 H 0.379(8) 0.470(6) 0.172(3)
O3 O 0.5717(4) 0.6475(4) 1.09688(18)
H5 H 0.6878 0.6874 1.1229
O4 O 0.3422(4) 0.2408(3) 0.33228(18)
H6 H 0.2298 0.1905 0.3374
C1 C 0.3572(6) 0.4518(5) 0.8554(3)
H7 H 0.2326 0.3919 0.8198
C2 C 0.3742(6) 0.5105(5) 0.9492(3)
H8 H 0.2628 0.4901 0.9756
C3 C 0.5577(6) 0.5995(4) 1.0034(3)
C4 C 0.7180(5) 0.6326(4) 0.9601(3)
H9 H 0.8411 0.6975 0.9954
C5 C 0.7027(5) 0.5733(4) 0.8662(3)
C6 C 0.8853(5) 0.6136(4) 0.8249(3)
H10 H 0.9908 0.6067 0.8691
H11 H 0.9242 0.7218 0.8165
C7 C 0.8607(5) 0.5083(5) 0.7322(3)
H12 H 0.8612 0.4069 0.7427
H13 H 0.9703 0.5551 0.7026
C8 C 0.6685(5) 0.4845(4) 0.6674(2)
H14 H 0.6647 0.5878 0.6613
C9 C 0.4959(5) 0.3974(4) 0.7112(2)
H15 H 0.5048 0.2947 0.7149
C10 C 0.5170(5) 0.4780(4) 0.8117(2)
C11 C 0.2959(5) 0.3616(5) 0.6483(2)
H16 H 0.2774 0.4596 0.6439
H17 H 0.1921 0.2988 0.6763
C12 C 0.2811(5) 0.2721(4) 0.5494(2)
H18 H 0.2827 0.1684 0.5531
H19 H 0.1571 0.2583 0.5103
C13 C 0.4490(5) 0.3592(4) 0.5044(2)
C14 C 0.6435(5) 0.3886(4) 0.5700(2)
H20 H 0.6407 0.2848 0.5791
C15 C 0.7986(7) 0.4457(6) 0.5095(3)
H21 H 0.9138 0.4216 0.5294
H22 H 0.8385 0.5582 0.5122
C16 C 0.6878(8) 0.3509(6) 0.4095(3)
H23 H 0.6924 0.4213 0.3660
H24 H 0.7468 0.2770 0.3874
C17 C 0.4757(6) 0.2630(4) 0.4180(2)
H25 H 0.4643 0.1591 0.4307
C18 C 0.4279(7) 0.5104(4) 0.4813(3)
H26 H 0.3040 0.4841 0.4399
H27 H 0.5327 0.5626 0.4513
H28 H 0.4339 0.5789 0.5380
O5 O 0.6503(4) -0.0967(4) 0.4238(2)
H29 H 0.5353 -0.1463 0.3979
O6 O 0.8964(5) 0.2546(4) 1.1881(2)
H30 H 1.0063 0.2760 1.1757
C19 C 0.8617(6) -0.0271(5) 0.6711(3)
H31 H 0.9842 -0.0057 0.7078
C20 C 0.8444(6) -0.0453(5) 0.5757(3)
H32 H 0.9540 -0.0362 0.5492
C21 C 0.6657(6) -0.0768(4) 0.5192(3)
C22 C 0.5074(6) -0.0892(4) 0.5610(3)
H33 H 0.3862 -0.1085 0.5236
C23 C 0.5223(5) -0.0737(4) 0.6574(3)
C24 C 0.3400(6) -0.0901(5) 0.6962(3)
H34 H 0.2341 -0.1853 0.6609
H35 H 0.3024 -0.0015 0.6871
C25 C 0.3629(5) -0.0973(5) 0.7992(3)
H36 H 0.3536 -0.2023 0.8066
H37 H 0.2576 -0.0759 0.8239
C26 C 0.5612(5) 0.0232(4) 0.8542(2)
H38 H 0.5752 0.1270 0.8404
C27 C 0.7242(5) -0.0245(4) 0.8202(2)
H39 H 0.7028 -0.1301 0.8328
C28 C 0.7045(5) -0.0393(4) 0.7148(2)
C29 C 0.9293(5) 0.0836(5) 0.8767(3)
H40 H 1.0256 0.0418 0.8584
H41 H 0.9614 0.1873 0.8613
C30 C 0.9430(6) 0.0996(5) 0.9823(3)
H42 H 0.9294 -0.0011 0.9990
H43 H 1.0715 0.1753 1.0143
C31 C 0.7867(5) 0.1522(4) 1.0143(2)
C32 C 0.5852(5) 0.0344(4) 0.9590(3)
H44 H 0.5763 -0.0697 0.9705
C33 C 0.4383(7) 0.0795(7) 1.0098(3)
H45 H 0.3194 -0.0116 1.0049
H46 H 0.4038 0.1600 0.9841
C34 C 0.5500(8) 0.1432(7) 1.1131(3)
H47 H 0.5592 0.2504 1.1343
H48 H 0.4833 0.0778 1.1537
C35 C 0.7551(6) 0.1376(5) 1.1134(3)
H49 H 0.7510 0.0336 1.1231
C36 C 0.8217(6) 0.3210(4) 1.0027(3)
H50 H 0.7131 0.3481 1.0172
H51 H 0.8331 0.3293 0.9392
H52 H 0.9407 0.3917 1.0445
N1 N -0.0587(5) 0.7705(4) 0.2035(2)
N2 N 0.2837(5) 0.7480(4) 0.3184(3)
C37 C 0.1056(7) 0.7398(5) 0.3543(3)
H53 H 0.1234 0.8440 0.3873
H54 H 0.0874 0.6707 0.3990
C38 C -0.0786(7) 0.6802(5) 0.2778(3)
H55 H -0.1076 0.5706 0.2509
H56 H -0.1886 0.6856 0.3055
C39 C 0.3028(7) 0.8364(5) 0.2424(3)
H57 H 0.4113 0.8288 0.2143
H58 H 0.3342 0.9467 0.2686
C40 C 0.1187(7) 0.7783(5) 0.1667(3)
H59 H 0.1367 0.8480 0.1223
H60 H 0.0999 0.6742 0.1333
H61 H -0.048(5) 0.865(4) 0.228(2)
H62 H 0.274(7) 0.656(6) 0.293(3)
loop_
_geom_bond_atom_site_label_1
_geom_bond_atom_site_label_2
_geom_bond_site_symmetry_1
_geom_bond_site_symmetry_2
O1 H1 1_555 1_555
H2 O1 1_555 1_555
O2 H3 1_555 1_555
H4 O2 1_555 1_555
O3 H5 1_555 1_555
O4 H6 1_555 1_555
C1 H7 1_555 1_555
C2 C1 1_555 1_555
H8 C2 1_555 1_555
C3 O3 1_555 1_555
C4 C3 1_555 1_555
H9 C4 1_555 1_555
C5 C4 1_555 1_555
C6 C5 1_555 1_555
H10 C6 1_555 1_555
H11 C6 1_555 1_555
C7 C6 1_555 1_555
H12 C7 1_555 1_555
H13 C7 1_555 1_555
C8 C7 1_555 1_555
H14 C8 1_555 1_555
C9 C8 1_555 1_555
H15 C9 1_555 1_555
C10 C1 1_555 1_555
C11 C9 1_555 1_555
H16 C11 1_555 1_555
H17 C11 1_555 1_555
C12 C11 1_555 1_555
H18 C12 1_555 1_555
H19 C12 1_555 1_555
C13 C12 1_555 1_555
C14 C8 1_555 1_555
H20 C14 1_555 1_555
C15 C14 1_555 1_555
H21 C15 1_555 1_555
H22 C15 1_555 1_555
C16 C15 1_555 1_555
H23 C16 1_555 1_555
H24 C16 1_555 1_555
C17 O4 1_555 1_555
H25 C17 1_555 1_555
C18 C13 1_555 1_555
H26 C18 1_555 1_555
H27 C18 1_555 1_555
H28 C18 1_555 1_555
O5 H29 1_555 1_555
O6 H30 1_555 1_555
C19 H31 1_555 1_555
C20 C19 1_555 1_555
H32 C20 1_555 1_555
C21 O5 1_555 1_555
C22 C21 1_555 1_555
H33 C22 1_555 1_555
C23 C22 1_555 1_555
C24 C23 1_555 1_555
H34 C24 1_555 1_555
H35 C24 1_555 1_555
C25 C24 1_555 1_555
H36 C25 1_555 1_555
H37 C25 1_555 1_555
C26 C25 1_555 1_555
H38 C26 1_555 1_555
C27 C26 1_555 1_555
H39 C27 1_555 1_555
C28 C19 1_555 1_555
C29 C27 1_555 1_555
H40 C29 1_555 1_555
H41 C29 1_555 1_555
C30 C29 1_555 1_555
H42 C30 1_555 1_555
H43 C30 1_555 1_555
C31 C30 1_555 1_555
C32 C26 1_555 1_555
H44 C32 1_555 1_555
C33 C32 1_555 1_555
H45 C33 1_555 1_555
H46 C33 1_555 1_555
C34 C33 1_555 1_555
H47 C34 1_555 1_555
H48 C34 1_555 1_555
C35 O6 1_555 1_555
H49 C35 1_555 1_555
C36 C31 1_555 1_555
H50 C36 1_555 1_555
H51 C36 1_555 1_555
H52 C36 1_555 1_555
N1 C38 1_555 1_555
N2 C37 1_555 1_555
C37 H53 1_555 1_555
H54 C37 1_555 1_555
C38 C37 1_555 1_555
H55 C38 1_555 1_555
H56 C38 1_555 1_555
C39 N2 1_555 1_555
H57 C39 1_555 1_555
H58 C39 1_555 1_555
C40 N1 1_555 1_555
H59 C40 1_555 1_555
H60 C40 1_555 1_555
H61 N1 1_555 1_555
H62 N2 1_555 1_555
C2 C3 1_555 1_555
C5 C10 1_555 1_555
C9 C10 1_555 1_555
C13 C14 1_555 1_555
C13 C17 1_555 1_555
C16 C17 1_555 1_555
C20 C21 1_555 1_555
C23 C28 1_555 1_555
C27 C28 1_555 1_555
C31 C32 1_555 1_555
C31 C35 1_555 1_555
C34 C35 1_555 1_555
C39 C40 1_555 1_555

#END
