
#######################################################################
#
#                 Cambridge Crystallographic Data Centre
#                                CCDC 
#
#######################################################################
#
# If this CIF has been generated from an entry in the Cambridge 
# Structural Database, then it will include bibliographic, chemical, 
# crystal, experimental, refinement or atomic coordinate data resulting 
# from the CCDC's data processing and validation procedures.
#
#######################################################################

data_ULUFEO
_chemical_formula_moiety         'C17 H14 B1 F2 N1 O4'
_chemical_name_systematic        
1,1-Difluoro-3-(2,5-dimethoxyphenyl)-1H-[1,3,2]oxazaborinino[4,3-b][1,3]benzoxazol-10-ium-1-ide
_symmetry_cell_setting           monoclinic
_symmetry_space_group_name_H-M   'P 21/c'
_symmetry_Int_Tables_number      14
_space_group_name_Hall           '-P 2ybc'
loop_
_symmetry_equiv_pos_site_id
_symmetry_equiv_pos_as_xyz
1 x,y,z
2 -x,1/2+y,1/2-z
3 -x,-y,-z
4 x,1/2-y,1/2+z
_cell_length_a                   7.7008(15)
_cell_length_b                   11.481(2)
_cell_length_c                   18.166(5)
_cell_angle_alpha                90
_cell_angle_beta                 104.52(3)
_cell_angle_gamma                90
_cell_volume                     1554.81
_exptl_crystal_colour            colorless
_exptl_crystal_description       block
_cell_formula_units_Z            4
loop_
_atom_site_label
_atom_site_type_symbol
_atom_site_fract_x
_atom_site_fract_y
_atom_site_fract_z
N1 N 0.06075(16) 0.27345(10) -0.05017(7)
F1 F 0.18425(18) 0.13086(9) 0.04365(6)
F2 F -0.07776(16) 0.21065(13) 0.04733(6)
O1 O 0.3449(2) 0.46574(11) 0.33362(7)
O2 O 0.41796(18) 0.63983(10) 0.06100(7)
O3 O 0.17926(19) 0.32047(10) 0.08373(6)
O4 O 0.10544(14) 0.39457(8) -0.13833(6)
B1 B 0.0844(3) 0.23062(14) 0.03310(10)
C1 C 0.3723(3) 0.53548(17) 0.39916(10)
H1 H 0.4981 0.5512 0.4180
H2 H 0.3291 0.4953 0.4374
H3 H 0.3085 0.6076 0.3868
C2 C 0.4776(3) 0.75509(15) 0.05449(12)
H4 H 0.3979 0.8089 0.0699
H5 H 0.4787 0.7701 0.0026
H6 H 0.5965 0.7644 0.0866
C3 C -0.1475(2) 0.09200(15) -0.21808(10)
H7 H -0.2064 0.0224 -0.2344
C4 C -0.1155(2) 0.16890(15) -0.27199(10)
H8 H -0.1519 0.1491 -0.3232
C5 C 0.3735(2) 0.51522(14) 0.26930(9)
C6 C -0.0953(2) 0.11466(13) -0.14119(10)
H9 H -0.1158 0.0621 -0.1053
C7 C 0.4594(2) 0.62037(14) 0.26617(10)
H10 H 0.5068 0.6623 0.3105
C8 C -0.0308(2) 0.27430(15) -0.25145(9)
H11 H -0.0089 0.3267 -0.2871
C9 C 0.2148(2) 0.45366(12) -0.00789(8)
H12 H 0.2561 0.5249 -0.0209
C10 C 0.23716(19) 0.42246(12) 0.06579(8)
C11 C -0.01064(19) 0.22045(12) -0.12045(8)
C12 C 0.4744(2) 0.66262(14) 0.19684(10)
H13 H 0.5318 0.7334 0.1949
C13 C 0.0185(2) 0.29626(12) -0.17494(9)
C14 C 0.3078(2) 0.45297(13) 0.20347(8)
H14 H 0.2530 0.3815 0.2062
C15 C 0.12734(19) 0.37494(12) -0.06367(8)
C16 C 0.3208(2) 0.49355(12) 0.13307(8)
C17 C 0.4057(2) 0.60160(12) 0.13023(9)
loop_
_geom_bond_atom_site_label_1
_geom_bond_atom_site_label_2
_geom_bond_site_symmetry_1
_geom_bond_site_symmetry_2
N1 B1 1_555 1_555
F1 B1 1_555 1_555
F2 B1 1_555 1_555
O1 C1 1_555 1_555
O2 C2 1_555 1_555
O3 B1 1_555 1_555
O4 C13 1_555 1_555
C1 H1 1_555 1_555
H2 C1 1_555 1_555
H3 C1 1_555 1_555
C2 H4 1_555 1_555
H5 C2 1_555 1_555
H6 C2 1_555 1_555
C3 H7 1_555 1_555
C4 C3 1_555 1_555
H8 C4 1_555 1_555
C5 O1 1_555 1_555
C6 C3 1_555 1_555
H9 C6 1_555 1_555
C7 C5 1_555 1_555
H10 C7 1_555 1_555
C8 C4 1_555 1_555
H11 C8 1_555 1_555
C9 H12 1_555 1_555
C10 O3 1_555 1_555
C11 N1 1_555 1_555
C12 C7 1_555 1_555
H13 C12 1_555 1_555
C13 C8 1_555 1_555
C14 C5 1_555 1_555
H14 C14 1_555 1_555
C15 N1 1_555 1_555
C16 C10 1_555 1_555
C17 O2 1_555 1_555
O4 C15 1_555 1_555
C6 C11 1_555 1_555
C9 C10 1_555 1_555
C9 C15 1_555 1_555
C11 C13 1_555 1_555
C12 C17 1_555 1_555
C14 C16 1_555 1_555
C16 C17 1_555 1_555

#END
