
#######################################################################
#
#                 Cambridge Crystallographic Data Centre
#                                CCDC 
#
#######################################################################
#
# If this CIF has been generated from an entry in the Cambridge 
# Structural Database, then it will include bibliographic, chemical, 
# crystal, experimental, refinement or atomic coordinate data resulting 
# from the CCDC's data processing and validation procedures.
#
#######################################################################

data_ULUFIS
_chemical_formula_moiety         'C18 H24 O2,C6 H6 N2 O1'
_chemical_name_systematic        '17-\b-Estradiol isonicotinamide'
_symmetry_cell_setting           triclinic
_symmetry_space_group_name_H-M   'P 1'
_symmetry_Int_Tables_number      1
_space_group_name_Hall           'P 1'
loop_
_symmetry_equiv_pos_site_id
_symmetry_equiv_pos_as_xyz
1 x,y,z
_cell_length_a                   7.43370(10)
_cell_length_b                   9.26770(10)
_cell_length_c                   17.0070(3)
_cell_angle_alpha                74.3000(10)
_cell_angle_beta                 79.9070(10)
_cell_angle_gamma                68.4550(10)
_cell_volume                     1045.37
_exptl_crystal_colour            colorless
_exptl_crystal_description       block
_cell_formula_units_Z            2
loop_
_atom_site_label
_atom_site_type_symbol
_atom_site_fract_x
_atom_site_fract_y
_atom_site_fract_z
O1 O -0.2032(3) 0.1603(2) 1.28291(11)
H1 H -0.093(6) 0.114(5) 1.303(2)
O2 O 0.0166(3) 0.4781(3) 0.61465(11)
H2 H 0.0726 0.4634 0.5700
C1 C -0.2696(3) 0.2275(3) 1.06790(15)
H3 H -0.3710 0.2513 1.0361
C2 C -0.3093(3) 0.2122(3) 1.15139(16)
H4 H -0.4354 0.2253 1.1750
C3 C -0.1614(3) 0.1772(3) 1.20013(14)
C4 C 0.0244(3) 0.1601(3) 1.16304(13)
H5 H 0.1242 0.1388 1.1952
C5 C 0.0652(3) 0.1741(2) 1.07906(13)
C6 C 0.2731(3) 0.1515(3) 1.04434(14)
H6 H 0.3580 0.0571 1.0779
H7 H 0.3054 0.2420 1.0476
C7 C 0.3117(3) 0.1347(3) 0.95618(14)
H8 H 0.3219 0.0282 0.9544
H9 H 0.4339 0.1502 0.9330
C8 C 0.1483(3) 0.2569(3) 0.90550(13)
H10 H 0.1291 0.3630 0.9129
C9 C -0.0394(3) 0.2175(2) 0.93730(12)
H11 H -0.0138 0.1103 0.9299
C10 C -0.0833(3) 0.2089(2) 1.02904(13)
C11 C -0.2079(3) 0.3293(3) 0.88558(14)
H12 H -0.3188 0.2934 0.9035
H13 H -0.2449 0.4355 0.8949
C12 C -0.1575(3) 0.3367(3) 0.79366(13)
H14 H -0.1380 0.2342 0.7829
H15 H -0.2648 0.4154 0.7638
C13 C 0.0259(3) 0.3803(3) 0.76348(13)
C14 C 0.1903(3) 0.2579(3) 0.81499(13)
H16 H 0.2007 0.1525 0.8094
C15 C 0.3738(3) 0.2908(4) 0.76972(16)
H17 H 0.4869 0.1949 0.7779
H18 H 0.3963 0.3724 0.7883
C16 C 0.3289(4) 0.3479(5) 0.67911(17)
H19 H 0.4183 0.2743 0.6472
H20 H 0.3401 0.4524 0.6562
C17 C 0.1186(3) 0.3542(3) 0.67845(14)
H21 H 0.1199 0.2513 0.6728
C18 C -0.0110(4) 0.5512(3) 0.76727(16)
H22 H -0.0608 0.5651 0.8218
H23 H -0.1039 0.6227 0.7293
H24 H 0.1083 0.5736 0.7531
O3 O 0.8013(3) 0.6673(3) 0.44401(13)
N1 N 0.1303(3) 0.9852(3) 0.36246(15)
N2 N 0.6290(4) 0.6555(3) 0.56581(15)
C19 C 0.4618(3) 0.8012(3) 0.44423(14)
C20 C 0.4545(4) 0.9422(3) 0.38797(17)
H25 H 0.5610 0.9767 0.3757
C21 C 0.2851(5) 1.0304(4) 0.35050(19)
H26 H 0.2789 1.1274 0.3147
C22 C 0.1413(4) 0.8469(4) 0.41502(18)
H27 H 0.0362 0.8113 0.4230
C23 C 0.3013(4) 0.7540(4) 0.45824(18)
H28 H 0.3008 0.6607 0.4963
C24 C 0.6463(3) 0.7017(3) 0.48507(15)
H29 H 0.512(6) 0.690(5) 0.595(2)
H30 H 0.742(5) 0.596(4) 0.5938(19)
O4 O 0.2752(3) 0.3380(3) 0.49273(13)
N3 N 0.9514(3) 0.0488(3) 0.56741(14)
N4 N 0.4334(4) 0.3507(3) 0.36812(14)
C25 C 0.6150(3) 0.2127(3) 0.48629(14)
C26 C 0.6349(4) 0.0708(3) 0.54400(16)
H31 H 0.5345 0.0290 0.5574
C27 C 0.8047(5) -0.0065(4) 0.58078(19)
H32 H 0.8184 -0.1039 0.6175
C28 C 0.9319(4) 0.1842(4) 0.51226(17)
H33 H 1.0333 0.2247 0.5017
C29 C 0.7690(4) 0.2689(3) 0.46937(16)
H34 H 0.7634 0.3619 0.4299
C30 C 0.4255(3) 0.3061(3) 0.44874(15)
H35 H 0.325(5) 0.398(4) 0.348(2)
H36 H 0.540(5) 0.310(4) 0.3368(19)
O5 O 0.2817(2) 0.8995(2) -0.34843(11)
H37 H 0.1807 0.9439 -0.3713
O6 O 0.0358(3) 0.5012(3) 0.32290(11)
H38 H -0.040(6) 0.560(5) 0.353(3)
C31 C 0.3515(3) 0.7155(3) -0.13382(16)
H39 H 0.4550 0.6569 -0.1017
C32 C 0.3905(4) 0.7696(4) -0.21642(17)
H40 H 0.5182 0.7475 -0.2392
C33 C 0.2386(3) 0.8573(3) -0.26558(14)
C34 C 0.0508(3) 0.8944(3) -0.22930(13)
H41 H -0.0513 0.9585 -0.2614
C35 C 0.0105(3) 0.8385(2) -0.14601(13)
C36 C -0.1994(3) 0.8803(3) -0.11131(14)
H42 H -0.2458 0.9891 -0.1047
H43 H -0.2764 0.8750 -0.1503
C37 C -0.2307(3) 0.7721(3) -0.02971(14)
H44 H -0.2173 0.6691 -0.0381
H45 H -0.3612 0.8174 -0.0055
C38 C -0.0835(3) 0.7508(2) 0.02863(13)
H46 H -0.0910 0.8560 0.0333
C39 C 0.1220(3) 0.6657(3) -0.00709(13)
H47 H 0.1236 0.5599 -0.0080
C40 C 0.1625(3) 0.7449(3) -0.09599(13)
C41 C 0.2765(3) 0.6361(4) 0.05024(15)
H48 H 0.4025 0.5755 0.0279
H49 H 0.2823 0.7375 0.0530
C42 C 0.2325(3) 0.5452(3) 0.13688(14)
H50 H 0.2428 0.4388 0.1351
H51 H 0.3280 0.5356 0.1719
C43 C 0.0303(3) 0.6287(2) 0.17328(13)
C44 C -0.1177(3) 0.6528(3) 0.11369(13)
H52 H -0.1001 0.5468 0.1067
C45 C -0.3138(4) 0.7068(4) 0.16335(17)
H53 H -0.4114 0.6808 0.1443
H54 H -0.3585 0.8205 0.1599
C46 C -0.2688(4) 0.6114(5) 0.25170(18)
H55 H -0.3102 0.6823 0.2892
H56 H -0.3353 0.5341 0.2698
C47 C -0.0480(4) 0.5274(3) 0.24879(14)
H57 H -0.0206 0.4230 0.2372
C48 C 0.0218(4) 0.7824(3) 0.19242(17)
H58 H -0.1050 0.8317 0.2171
H59 H 0.0477 0.8534 0.1426
H60 H 0.1173 0.7590 0.2296
loop_
_geom_bond_atom_site_label_1
_geom_bond_atom_site_label_2
_geom_bond_site_symmetry_1
_geom_bond_site_symmetry_2
O1 H1 1_555 1_555
O2 H2 1_555 1_555
C1 H3 1_555 1_555
C2 C1 1_555 1_555
H4 C2 1_555 1_555
C3 O1 1_555 1_555
C4 C3 1_555 1_555
H5 C4 1_555 1_555
C5 C4 1_555 1_555
C6 C5 1_555 1_555
H6 C6 1_555 1_555
H7 C6 1_555 1_555
C7 C6 1_555 1_555
H8 C7 1_555 1_555
H9 C7 1_555 1_555
C8 C7 1_555 1_555
H10 C8 1_555 1_555
C9 C8 1_555 1_555
H11 C9 1_555 1_555
C10 C1 1_555 1_555
C11 C9 1_555 1_555
H12 C11 1_555 1_555
H13 C11 1_555 1_555
C12 C11 1_555 1_555
H14 C12 1_555 1_555
H15 C12 1_555 1_555
C13 C12 1_555 1_555
C14 C8 1_555 1_555
H16 C14 1_555 1_555
C15 C14 1_555 1_555
H17 C15 1_555 1_555
H18 C15 1_555 1_555
C16 C15 1_555 1_555
H19 C16 1_555 1_555
H20 C16 1_555 1_555
C17 O2 1_555 1_555
H21 C17 1_555 1_555
C18 C13 1_555 1_555
H22 C18 1_555 1_555
H23 C18 1_555 1_555
H24 C18 1_555 1_555
O3 C24 1_555 1_555
N1 C21 1_555 1_555
N2 C24 1_555 1_555
C19 C20 1_555 1_555
C20 H25 1_555 1_555
C21 C20 1_555 1_555
H26 C21 1_555 1_555
C22 N1 1_555 1_555
H27 C22 1_555 1_555
C23 C19 1_555 1_555
H28 C23 1_555 1_555
C24 C19 1_555 1_555
H29 N2 1_555 1_555
H30 N2 1_555 1_555
O4 C30 1_555 1_555
N3 C27 1_555 1_555
N4 C30 1_555 1_555
C25 C26 1_555 1_555
C26 H31 1_555 1_555
C27 C26 1_555 1_555
H32 C27 1_555 1_555
C28 N3 1_555 1_555
H33 C28 1_555 1_555
C29 C25 1_555 1_555
H34 C29 1_555 1_555
C30 C25 1_555 1_555
H35 N4 1_555 1_555
H36 N4 1_555 1_555
O5 H37 1_555 1_555
O6 H38 1_555 1_555
C31 H39 1_555 1_555
C32 C31 1_555 1_555
H40 C32 1_555 1_555
C33 O5 1_555 1_555
C34 C33 1_555 1_555
H41 C34 1_555 1_555
C35 C34 1_555 1_555
C36 C35 1_555 1_555
H42 C36 1_555 1_555
H43 C36 1_555 1_555
C37 C36 1_555 1_555
H44 C37 1_555 1_555
H45 C37 1_555 1_555
C38 C37 1_555 1_555
H46 C38 1_555 1_555
C39 C38 1_555 1_555
H47 C39 1_555 1_555
C40 C31 1_555 1_555
C41 C39 1_555 1_555
H48 C41 1_555 1_555
H49 C41 1_555 1_555
C42 C41 1_555 1_555
H50 C42 1_555 1_555
H51 C42 1_555 1_555
C43 C42 1_555 1_555
C44 C38 1_555 1_555
H52 C44 1_555 1_555
C45 C44 1_555 1_555
H53 C45 1_555 1_555
H54 C45 1_555 1_555
C46 C45 1_555 1_555
H55 C46 1_555 1_555
H56 C46 1_555 1_555
C47 O6 1_555 1_555
H57 C47 1_555 1_555
C48 C43 1_555 1_555
H58 C48 1_555 1_555
H59 C48 1_555 1_555
H60 C48 1_555 1_555
C2 C3 1_555 1_555
C5 C10 1_555 1_555
C9 C10 1_555 1_555
C13 C14 1_555 1_555
C13 C17 1_555 1_555
C16 C17 1_555 1_555
C22 C23 1_555 1_555
C28 C29 1_555 1_555
C32 C33 1_555 1_555
C35 C40 1_555 1_555
C39 C40 1_555 1_555
C43 C44 1_555 1_555
C43 C47 1_555 1_555
C46 C47 1_555 1_555

#END
