
#######################################################################
#
#                 Cambridge Crystallographic Data Centre
#                                CCDC 
#
#######################################################################
#
# If this CIF has been generated from an entry in the Cambridge 
# Structural Database, then it will include bibliographic, chemical, 
# crystal, experimental, refinement or atomic coordinate data resulting 
# from the CCDC's data processing and validation procedures.
#
#######################################################################

data_ULUHIT
_chemical_formula_moiety         'C13 H14 Si1'
_chemical_name_systematic        ((4-Ethynylphenyl)ethynyl)(trimethyl)silane
_symmetry_cell_setting           monoclinic
_symmetry_space_group_name_H-M   'C 2/c'
_symmetry_Int_Tables_number      15
_space_group_name_Hall           '-C 2yn'
loop_
_symmetry_equiv_pos_site_id
_symmetry_equiv_pos_as_xyz
1 x,y,z
2 -x,y,1/2-z
3 1/2+x,1/2+y,z
4 1/2-x,1/2+y,1/2-z
5 -x,-y,-z
6 x,-y,1/2+z
7 1/2-x,1/2-y,-z
8 1/2+x,1/2-y,1/2+z
_cell_length_a                   18.262(2)
_cell_length_b                   8.7436(9)
_cell_length_c                   16.429(2)
_cell_angle_alpha                90
_cell_angle_beta                 110.704(4)
_cell_angle_gamma                90
_cell_volume                     2453.9
_exptl_crystal_colour            colorless
_exptl_crystal_description       prism
_cell_formula_units_Z            8
loop_
_atom_site_label
_atom_site_type_symbol
_atom_site_fract_x
_atom_site_fract_y
_atom_site_fract_z
Si1 Si 0.405987(19) 0.36951(4) 0.09696(2)
C1 C 0.34266(8) 1.17337(15) 0.48997(9)
C2 C 0.34981(7) 1.08970(14) 0.43633(8)
C3 C 0.35882(7) 0.98342(13) 0.37369(7)
C4 C 0.43306(7) 0.92779(14) 0.38229(8)
C5 C 0.44151(7) 0.81701(14) 0.32633(8)
C6 C 0.37607(6) 0.76021(12) 0.25953(7)
C7 C 0.30204(7) 0.82002(14) 0.24858(8)
C8 C 0.29355(7) 0.92958(14) 0.30545(8)
C9 C 0.38478(6) 0.63902(13) 0.20465(8)
C10 C 0.39317(6) 0.53378(13) 0.16131(8)
C11 C 0.50864(8) 0.37423(18) 0.10033(11)
C12 C 0.33495(9) 0.39443(18) -0.01565(10)
C13 C 0.38611(9) 0.19148(16) 0.14760(11)
H1 H 0.3372(11) 1.236(2) 0.5324(12)
H2 H 0.4782(9) 0.9653(18) 0.4288(10)
H3 H 0.4920(9) 0.7778(18) 0.3342(10)
H4 H 0.2569(9) 0.7851(18) 0.2022(10)
H5 H 0.2434(9) 0.9654(18) 0.3001(10)
H6 H 0.5439(13) 0.357(2) 0.1584(14)
H7 H 0.5198(11) 0.473(2) 0.0815(13)
H8 H 0.5172(11) 0.302(2) 0.0620(13)
H9 H 0.3474(11) 0.484(2) -0.0427(12)
H10 H 0.2819(12) 0.408(2) -0.0169(12)
H11 H 0.3346(12) 0.311(3) -0.0520(13)
H12 H 0.3350(12) 0.192(2) 0.1511(12)
H13 H 0.3855(12) 0.103(2) 0.1137(14)
H14 H 0.4263(12) 0.175(2) 0.2050(14)
loop_
_geom_bond_atom_site_label_1
_geom_bond_atom_site_label_2
_geom_bond_site_symmetry_1
_geom_bond_site_symmetry_2
Si1 C10 1_555 1_555
C1 C2 1_555 1_555
C2 C3 1_555 1_555
C3 C4 1_555 1_555
C4 C5 1_555 1_555
C5 C6 1_555 1_555
C6 C7 1_555 1_555
C7 C8 1_555 1_555
C8 C3 1_555 1_555
C9 C6 1_555 1_555
C10 C9 1_555 1_555
C11 Si1 1_555 1_555
C12 Si1 1_555 1_555
C13 Si1 1_555 1_555
H1 C1 1_555 1_555
H2 C4 1_555 1_555
H3 C5 1_555 1_555
H4 C7 1_555 1_555
H5 C8 1_555 1_555
H6 C11 1_555 1_555
H7 C11 1_555 1_555
H8 C11 1_555 1_555
H9 C12 1_555 1_555
H10 C12 1_555 1_555
H11 C12 1_555 1_555
H12 C13 1_555 1_555
H13 C13 1_555 1_555
H14 C13 1_555 1_555

#END
