
#######################################################################
#
#                 Cambridge Crystallographic Data Centre
#                                CCDC 
#
#######################################################################
#
# If this CIF has been generated from an entry in the Cambridge 
# Structural Database, then it will include bibliographic, chemical, 
# crystal, experimental, refinement or atomic coordinate data resulting 
# from the CCDC's data processing and validation procedures.
#
#######################################################################

data_ULUJAM
_chemical_formula_moiety         'C18 H21 N3 O4'
_chemical_name_systematic        
9-Acetyl-8-methyl-3-mesityl-1-oxa-2,6,9-triazaspiro(4.5)dec-2-ene-7,10-dione
_symmetry_cell_setting           triclinic
_symmetry_space_group_name_H-M   'P -1'
_symmetry_Int_Tables_number      2
_space_group_name_Hall           '-P 1'
loop_
_symmetry_equiv_pos_site_id
_symmetry_equiv_pos_as_xyz
1 x,y,z
2 -x,-y,-z
_cell_length_a                   7.5709(2)
_cell_length_b                   9.5737(2)
_cell_length_c                   13.2904(4)
_cell_angle_alpha                72.9650(10)
_cell_angle_beta                 80.6121(9)
_cell_angle_gamma                67.5133(11)
_cell_volume                     849.592
_exptl_crystal_colour            colorless
_exptl_crystal_description       plate
_chemical_melting_point          '218-220 deg.C'
_cell_formula_units_Z            2
_exptl_crystal_recrystallization_method 'ethyl acetate'
loop_
_atom_site_label
_atom_site_type_symbol
_atom_site_fract_x
_atom_site_fract_y
_atom_site_fract_z
O1 O 0.6019(2) 0.7708(2) 0.40788(13)
O2 O 0.2824(2) 1.1245(2) 0.05496(12)
O3 O 0.73799(18) 1.00953(16) 0.22956(11)
O4 O 0.0940(2) 1.1320(2) 0.41594(13)
N1 N 0.3610(2) 0.9956(2) 0.33310(13)
N2 N 0.5429(2) 0.9465(2) 0.14001(15)
N3 N 0.9424(2) 0.9421(2) 0.22633(14)
C1 C 0.6579(3) 0.8920(2) 0.22823(17)
C2 C 0.5376(3) 0.8772(3) 0.33217(17)
C3 C 0.2851(3) 1.1147(2) 0.23459(16)
C4 C 0.3697(3) 1.0605(3) 0.13627(17)
C5 C 0.8322(3) 0.7471(3) 0.22315(18)
C6 C 0.9943(3) 0.8009(2) 0.22225(16)
C7 C 1.2003(3) 0.7009(2) 0.21902(17)
C8 C 1.2882(3) 0.6145(2) 0.31350(18)
C9 C 1.4806(3) 0.5194(3) 0.3086(2)
C10 C 1.5836(3) 0.5060(3) 0.2140(2)
C11 C 1.4925(3) 0.5937(3) 0.1212(2)
C12 C 1.3011(3) 0.6917(3) 0.12175(18)
C13 C 1.1796(4) 0.6205(3) 0.4186(2)
C14 C 1.7889(3) 0.3942(3) 0.2114(2)
C15 C 1.2075(4) 0.7860(3) 0.02003(19)
C16 C 0.2425(3) 1.0207(3) 0.42606(18)
C17 C 0.3031(3) 0.9130(3) 0.53067(18)
C18 C 0.3112(3) 1.2693(3) 0.22543(19)
H1 H 0.598(3) 0.922(3) 0.079(2)
H2 H 0.1452(3) 1.1321(2) 0.24064(16)
H3 H 0.8319(3) 0.6594(3) 0.28647(18)
H4 H 0.8384(3) 0.7133(3) 0.15784(18)
H5 H 1.5461(3) 0.4591(3) 0.3758(2)
H6 H 1.5658(3) 0.5853(3) 0.0522(2)
H7 H 1.2667(4) 0.5507(3) 0.4765(2)
H8 H 1.1298(4) 0.7302(3) 0.4260(2)
H9 H 1.0699(4) 0.5847(3) 0.4231(2)
H10 H 1.8310(3) 0.3419(3) 0.2850(2)
H11 H 1.8737(3) 0.4531(3) 0.1718(2)
H12 H 1.7974(3) 0.3135(3) 0.1754(2)
H13 H 1.3020(4) 0.7639(3) -0.04051(19)
H14 H 1.1611(4) 0.8999(3) 0.01684(19)
H15 H 1.0965(4) 0.7559(3) 0.01603(19)
H16 H 0.2036(3) 0.9482(3) 0.58641(18)
H17 H 0.4280(3) 0.9137(3) 0.54553(18)
H18 H 0.3179(3) 0.8048(3) 0.53045(18)
H19 H 0.2575(3) 1.3459(3) 0.15861(19)
H20 H 0.2430(3) 1.3122(3) 0.28690(19)
H21 H 0.4508(3) 1.2502(3) 0.22436(19)
loop_
_geom_bond_atom_site_label_1
_geom_bond_atom_site_label_2
_geom_bond_site_symmetry_1
_geom_bond_site_symmetry_2
O1 C2 1_555 1_555
O2 C4 1_555 1_555
O3 N3 1_555 1_555
O4 C16 1_555 1_555
N1 C2 1_555 1_555
N2 C1 1_555 1_555
N3 C6 1_555 1_555
C1 O3 1_555 1_555
C2 C1 1_555 1_555
C3 N1 1_555 1_555
C4 N2 1_555 1_555
C5 C1 1_555 1_555
C6 C5 1_555 1_555
C7 C6 1_555 1_555
C8 C7 1_555 1_555
C9 C8 1_555 1_555
C10 C9 1_555 1_555
C11 C10 1_555 1_555
C12 C7 1_555 1_555
C13 C8 1_555 1_555
C14 C10 1_555 1_555
C15 C12 1_555 1_555
C16 N1 1_555 1_555
C17 C16 1_555 1_555
C18 C3 1_555 1_555
H1 N2 1_555 1_555
H2 C3 1_555 1_555
H3 C5 1_555 1_555
H4 C5 1_555 1_555
H5 C9 1_555 1_555
H6 C11 1_555 1_555
H7 C13 1_555 1_555
H8 C13 1_555 1_555
H9 C13 1_555 1_555
H10 C14 1_555 1_555
H11 C14 1_555 1_555
H12 C14 1_555 1_555
H13 C15 1_555 1_555
H14 C15 1_555 1_555
H15 C15 1_555 1_555
H16 C17 1_555 1_555
H17 C17 1_555 1_555
H18 C17 1_555 1_555
H19 C18 1_555 1_555
H20 C18 1_555 1_555
H21 C18 1_555 1_555
C3 C4 1_555 1_555
C11 C12 1_555 1_555

#END
