
#######################################################################
#
#                 Cambridge Crystallographic Data Centre
#                                CCDC 
#
#######################################################################
#
# If this CIF has been generated from an entry in the Cambridge 
# Structural Database, then it will include bibliographic, chemical, 
# crystal, experimental, refinement or atomic coordinate data resulting 
# from the CCDC's data processing and validation procedures.
#
#######################################################################

data_ULUZIM
_chemical_formula_moiety         '2(C27 H48 O1),C6 H5 I1 O1'
_chemical_name_systematic        'bis(cholestan-3-ol) 4-iodophenol'
_symmetry_cell_setting           monoclinic
_symmetry_space_group_name_H-M   'P 21'
_symmetry_Int_Tables_number      4
_space_group_name_Hall           'P 2yb'
loop_
_symmetry_equiv_pos_site_id
_symmetry_equiv_pos_as_xyz
1 x,y,z
2 -x,1/2+y,-z
_cell_length_a                   6.48760(10)
_cell_length_b                   10.2227(2)
_cell_length_c                   41.7948(7)
_cell_angle_alpha                90
_cell_angle_beta                 90.7910(10)
_cell_angle_gamma                90
_cell_volume                     2771.6
_exptl_crystal_colour            colorless
_exptl_crystal_description       block
_cell_formula_units_Z            2
loop_
_atom_site_label
_atom_site_type_symbol
_atom_site_fract_x
_atom_site_fract_y
_atom_site_fract_z
I1 I 0.11966(8) 0.23909(5) 0.24691(2)
O1 O 0.2705(6) 0.8390(4) 0.24422(10)
H1 H 0.1617 0.8768 0.2382
C1 C 0.0139(10) 0.5234(7) 0.25400(14)
H2 H -0.1181 0.4882 0.2585
C2 C 0.2362(7) 0.7085(5) 0.24620(12)
C3 C 0.3983(9) 0.6247(6) 0.24113(16)
H3 H 0.5309 0.6592 0.2367
C4 C 0.1774(11) 0.4403(7) 0.24868(13)
C5 C 0.0404(9) 0.6574(6) 0.25278(13)
H4 H -0.0727 0.7143 0.2564
C6 C 0.3705(10) 0.4912(7) 0.24235(15)
H5 H 0.4836 0.4341 0.2389
C7 C 0.1258(8) 1.0544(6) 0.01221(12)
H6 H 0.0071 0.9984 0.0061
H7 H 0.1152 1.1378 0.0002
C8 C 0.0222(9) 0.9092(7) -0.14158(13)
H8 H -0.0064 0.8140 -0.1383
C9 C 0.1282(7) 1.0805(6) 0.04879(12)
H9 H 0.0130 1.0346 0.0593
H10 H 0.1177 1.1753 0.0533
C10 C 0.3233(8) 1.1118(6) 0.11656(12)
H11 H 0.4062 1.1871 0.1092
H12 H 0.1760 1.1355 0.1142
C11 C 0.3720(8) 1.0866(5) 0.15185(12)
H13 H 0.2738 1.0213 0.1602
H14 H 0.3541 1.1687 0.1641
O2 O 0.9369(5) 0.9699(4) 0.22915(8)
H15 H 0.8320 0.9619 0.2406
C12 C 0.3815(7) 0.9138(5) 0.03681(11)
C13 C 0.6054(8) 0.8694(6) 0.04257(11)
H16 H 0.7003 0.9406 0.0363
H17 H 0.6345 0.7925 0.0290
C14 C 0.3324(8) 0.9066(6) -0.02687(12)
H18 H 0.2667 0.8196 -0.0230
C15 C 0.2350(8) 0.7958(6) 0.04128(12)
H19 H 0.0932 0.8225 0.0362
H20 H 0.2437 0.7656 0.0635
H21 H 0.2756 0.7248 0.0269
C16 C 0.3681(7) 0.9937(5) 0.09543(11)
H22 H 0.2699 0.9222 0.1011
C17 C 0.3394(7) 1.0255(5) 0.06040(11)
H23 H 0.4430 1.0949 0.0556
C18 C 0.9184(8) 0.8573(6) 0.17791(12)
H24 H 0.8388 0.7846 0.1873
H25 H 1.0668 0.8359 0.1800
C19 C 0.8740(7) 0.9832(5) 0.19599(11)
H26 H 0.9595 1.0541 0.1864
C20 C 0.6511(7) 1.0223(5) 0.19225(11)
H27 H 0.6279 1.1065 0.2034
H28 H 0.5626 0.9553 0.2022
C21 C 0.5918(7) 1.0365(5) 0.15677(11)
H29 H 0.6848 1.1051 0.1479
C22 C 0.6318(7) 0.9094(5) 0.13706(11)
C23 C 0.5905(7) 0.9433(5) 0.10134(11)
H30 H 0.6839 1.0181 0.0963
C24 C 0.6451(8) 0.8335(6) 0.07792(11)
H31 H 0.5631 0.7549 0.0832
H32 H 0.7925 0.8108 0.0809
C25 C 0.3308(7) 0.9846(5) 0.00473(11)
H33 H 0.4365 1.0550 0.0025
C26 C 0.2105(9) 0.9763(6) -0.05332(12)
H34 H 0.0672 0.9884 -0.0460
H35 H 0.2707 1.0644 -0.0563
C27 C 0.2029(9) 0.9082(6) -0.08572(12)
H36 H 0.1653 0.8152 -0.0827
H37 H 0.3414 0.9111 -0.0954
C28 C 0.0468(10) 0.9724(7) -0.10857(13)
H38 H -0.0894 0.9723 -0.0982
H39 H 0.0877 1.0648 -0.1116
C29 C 0.4941(8) 0.7947(6) 0.14761(12)
H40 H 0.5376 0.7144 0.1368
H41 H 0.3502 0.8137 0.1419
H42 H 0.5071 0.7830 0.1708
C30 C 0.8600(7) 0.8720(6) 0.14237(12)
H43 H 0.8875 0.7884 0.1313
H44 H 0.9482 0.9400 0.1327
C31 C 0.5542(10) 0.8834(7) -0.03781(14)
H45 H 0.5521 0.8352 -0.0581
H46 H 0.6291 0.8325 -0.0215
H47 H 0.6230 0.9678 -0.0408
C32 C 0.2151(11) 0.9206(9) -0.16133(16)
H48 H 0.2342 1.0119 -0.1678
H49 H 0.2014 0.8654 -0.1804
H50 H 0.3345 0.8919 -0.1486
C33 C -0.1638(12) 0.9688(10) -0.15894(17)
H51 H -0.2836 0.9663 -0.1449
H52 H -0.1939 0.9187 -0.1784
H53 H -0.1335 1.0597 -0.1646
O3 O -0.3599(6) 0.9115(5) 0.26984(9)
H54 H -0.4864 0.9118 0.2653
C34 C -0.3341(7) 0.8206(6) 0.35760(12)
H55 H -0.3677 0.7377 0.3686
H56 H -0.4221 0.8901 0.3666
C35 C 0.4535(11) 0.8491(7) 0.64557(13)
H57 H 0.4874 0.7545 0.6426
C36 C -0.0708(7) 0.8886(5) 0.40031(11)
H58 H -0.1641 0.9638 0.4050
C37 C -0.1303(8) 0.7789(5) 0.42339(11)
H59 H -0.0491 0.6998 0.4183
H60 H -0.2778 0.7575 0.4200
C38 C -0.0583(7) 0.9805(5) 0.34515(11)
H61 H -0.1530 1.0495 0.3534
C39 C 0.2019(8) 1.0558(6) 0.38620(12)
H62 H 0.1187 1.1314 0.3933
H63 H 0.3491 1.0789 0.3892
C40 C 0.1521(7) 0.9374(6) 0.40724(12)
H64 H 0.2504 0.8653 0.4021
C41 C 0.2890(9) 0.9178(7) 0.55641(12)
H65 H 0.4335 0.9288 0.5496
H66 H 0.2302 1.0063 0.5594
C42 C 0.2902(10) 0.8479(7) 0.58862(13)
H67 H 0.1493 0.8488 0.5974
H68 H 0.3311 0.7555 0.5855
C43 C 0.1741(7) 0.9694(5) 0.44252(11)
H69 H 0.0699 1.0389 0.4470
C44 C -0.3319(8) 0.9290(7) 0.30379(12)
H70 H -0.4225 1.0019 0.3111
C45 C -0.1086(8) 0.9669(6) 0.30926(12)
H71 H -0.0808 1.0510 0.2984
H72 H -0.0182 0.8995 0.2998
C46 C 0.1595(8) 1.0315(6) 0.35083(12)
H73 H 0.2598 0.9670 0.3427
H74 H 0.1780 1.1140 0.3388
C47 C 0.1282(8) 0.8558(6) 0.46563(11)
C48 C 0.1754(7) 0.9264(5) 0.49787(12)
H75 H 0.0699 0.9972 0.4997
C49 C 0.1674(8) 0.8487(6) 0.52926(12)
H76 H 0.2307 0.7608 0.5256
C50 C 0.4376(10) 0.9119(8) 0.61247(13)
H77 H 0.3951 1.0042 0.6152
H78 H 0.5769 0.9124 0.6031
C51 C -0.1058(7) 0.8547(6) 0.36441(12)
C52 C -0.3850(8) 0.8060(6) 0.32187(12)
H79 H -0.3065 0.7315 0.3131
H80 H -0.5337 0.7869 0.3190
C53 C 0.0314(7) 0.7403(9) 0.35415(11)
H81 H -0.0167 0.6595 0.3642
H82 H 0.1742 0.7575 0.3609
H83 H 0.0242 0.7309 0.3308
C54 C -0.0943(7) 0.8141(6) 0.45891(11)
H84 H -0.1883 0.8861 0.4649
H85 H -0.1275 0.7373 0.4723
C55 C 0.2736(7) 0.7401(8) 0.46137(11)
H86 H 0.4141 0.7661 0.4675
H87 H 0.2708 0.7123 0.4389
H88 H 0.2293 0.6675 0.4750
C56 C 0.3841(7) 1.0235(6) 0.45439(12)
H89 H 0.4998 0.9775 0.4440
H90 H 0.3956 1.1184 0.4500
C57 C 0.3823(8) 0.9962(6) 0.49067(13)
H91 H 0.3926 1.0792 0.5028
H92 H 0.5001 0.9398 0.4969
C58 C -0.0583(10) 0.8287(8) 0.53952(14)
H93 H -0.0613 0.7751 0.5589
H94 H -0.1354 0.7845 0.5223
H95 H -0.1214 0.9140 0.5438
C59 C 0.2546(13) 0.8572(9) 0.66358(17)
H96 H 0.2202 0.9492 0.6674
H97 H 0.2701 0.8117 0.6841
H98 H 0.1440 0.8160 0.6509
C60 C 0.6288(14) 0.9116(12) 0.66500(19)
H99 H 0.5849 0.9974 0.6728
H100 H 0.7497 0.9220 0.6514
H101 H 0.6643 0.8553 0.6832
loop_
_geom_bond_atom_site_label_1
_geom_bond_atom_site_label_2
_geom_bond_site_symmetry_1
_geom_bond_site_symmetry_2
I1 C4 1_555 1_555
O1 H1 1_555 1_555
C1 H2 1_555 1_555
C2 O1 1_555 1_555
C3 C2 1_555 1_555
H3 C3 1_555 1_555
C4 C1 1_555 1_555
C5 C1 1_555 1_555
H4 C5 1_555 1_555
C6 C3 1_555 1_555
H5 C6 1_555 1_555
C7 H6 1_555 1_555
H7 C7 1_555 1_555
C8 H8 1_555 1_555
C9 C7 1_555 1_555
H9 C9 1_555 1_555
H10 C9 1_555 1_555
C10 H11 1_555 1_555
H12 C10 1_555 1_555
C11 C10 1_555 1_555
H13 C11 1_555 1_555
H14 C11 1_555 1_555
O2 H15 1_555 1_555
C12 C13 1_555 1_555
C13 H16 1_555 1_555
H17 C13 1_555 1_555
C14 H18 1_555 1_555
C15 C12 1_555 1_555
H19 C15 1_555 1_555
H20 C15 1_555 1_555
H21 C15 1_555 1_555
C16 C10 1_555 1_555
H22 C16 1_555 1_555
C17 C9 1_555 1_555
H23 C17 1_555 1_555
C18 H24 1_555 1_555
H25 C18 1_555 1_555
C19 O2 1_555 1_555
H26 C19 1_555 1_555
C20 C19 1_555 1_555
H27 C20 1_555 1_555
H28 C20 1_555 1_555
C21 C11 1_555 1_555
H29 C21 1_555 1_555
C22 C21 1_555 1_555
C23 C16 1_555 1_555
H30 C23 1_555 1_555
C24 C13 1_555 1_555
H31 C24 1_555 1_555
H32 C24 1_555 1_555
C25 C7 1_555 1_555
H33 C25 1_555 1_555
C26 C14 1_555 1_555
H34 C26 1_555 1_555
H35 C26 1_555 1_555
C27 C26 1_555 1_555
H36 C27 1_555 1_555
H37 C27 1_555 1_555
C28 C8 1_555 1_555
H38 C28 1_555 1_555
H39 C28 1_555 1_555
C29 C22 1_555 1_555
H40 C29 1_555 1_555
H41 C29 1_555 1_555
H42 C29 1_555 1_555
C30 C18 1_555 1_555
H43 C30 1_555 1_555
H44 C30 1_555 1_555
C31 C14 1_555 1_555
H45 C31 1_555 1_555
H46 C31 1_555 1_555
H47 C31 1_555 1_555
C32 C8 1_555 1_555
H48 C32 1_555 1_555
H49 C32 1_555 1_555
H50 C32 1_555 1_555
C33 C8 1_555 1_555
H51 C33 1_555 1_555
H52 C33 1_555 1_555
H53 C33 1_555 1_555
O3 H54 1_555 1_555
C34 H55 1_555 1_555
H56 C34 1_555 1_555
C35 H57 1_555 1_555
C36 H58 1_555 1_555
C37 C36 1_555 1_555
H59 C37 1_555 1_555
H60 C37 1_555 1_555
C38 H61 1_555 1_555
C39 H62 1_555 1_555
H63 C39 1_555 1_555
C40 C36 1_555 1_555
H64 C40 1_555 1_555
C41 H65 1_555 1_555
H66 C41 1_555 1_555
C42 C41 1_555 1_555
H67 C42 1_555 1_555
H68 C42 1_555 1_555
C43 C40 1_555 1_555
H69 C43 1_555 1_555
C44 O3 1_555 1_555
H70 C44 1_555 1_555
C45 C38 1_555 1_555
H71 C45 1_555 1_555
H72 C45 1_555 1_555
C46 C38 1_555 1_555
H73 C46 1_555 1_555
H74 C46 1_555 1_555
C47 C43 1_555 1_555
C48 C47 1_555 1_555
H75 C48 1_555 1_555
C49 C41 1_555 1_555
H76 C49 1_555 1_555
C50 C35 1_555 1_555
H77 C50 1_555 1_555
H78 C50 1_555 1_555
C51 C34 1_555 1_555
C52 C34 1_555 1_555
H79 C52 1_555 1_555
H80 C52 1_555 1_555
C53 C51 1_555 1_555
H81 C53 1_555 1_555
H82 C53 1_555 1_555
H83 C53 1_555 1_555
C54 C37 1_555 1_555
H84 C54 1_555 1_555
H85 C54 1_555 1_555
C55 C47 1_555 1_555
H86 C55 1_555 1_555
H87 C55 1_555 1_555
H88 C55 1_555 1_555
C56 C43 1_555 1_555
H89 C56 1_555 1_555
H90 C56 1_555 1_555
C57 C48 1_555 1_555
H91 C57 1_555 1_555
H92 C57 1_555 1_555
C58 C49 1_555 1_555
H93 C58 1_555 1_555
H94 C58 1_555 1_555
H95 C58 1_555 1_555
C59 C35 1_555 1_555
H96 C59 1_555 1_555
H97 C59 1_555 1_555
H98 C59 1_555 1_555
C60 C35 1_555 1_555
H99 C60 1_555 1_555
H100 C60 1_555 1_555
H101 C60 1_555 1_555
C2 C5 1_555 1_555
C4 C6 1_555 1_555
C12 C17 1_555 1_555
C12 C25 1_555 1_555
C14 C25 1_555 1_555
C16 C17 1_555 1_555
C18 C19 1_555 1_555
C20 C21 1_555 1_555
C22 C23 1_555 1_555
C22 C30 1_555 1_555
C23 C24 1_555 1_555
C27 C28 1_555 1_555
C36 C51 1_555 1_555
C38 C51 1_555 1_555
C39 C40 1_555 1_555
C39 C46 1_555 1_555
C42 C50 1_555 1_555
C44 C45 1_555 1_555
C44 C52 1_555 1_555
C47 C54 1_555 1_555
C48 C49 1_555 1_555
C56 C57 1_555 1_555

#END
