
#######################################################################
#
#                 Cambridge Crystallographic Data Centre
#                                CCDC 
#
#######################################################################
#
# If this CIF has been generated from an entry in the Cambridge 
# Structural Database, then it will include bibliographic, chemical, 
# crystal, experimental, refinement or atomic coordinate data resulting 
# from the CCDC's data processing and validation procedures.
#
#######################################################################

data_ULUZOS
_chemical_formula_moiety         'C27 H48 O1,C6 H5 Cl1 O1'
_chemical_name_systematic        'cholestan-3-ol 4-chlorophenol'
_symmetry_cell_setting           monoclinic
_symmetry_space_group_name_H-M   'C 2'
_symmetry_Int_Tables_number      5
_space_group_name_Hall           'C 2y'
loop_
_symmetry_equiv_pos_site_id
_symmetry_equiv_pos_as_xyz
1 x,y,z
2 -x,y,-z
3 1/2+x,1/2+y,z
4 1/2-x,1/2+y,-z
_cell_length_a                   49.0198(8)
_cell_length_b                   11.2888(2)
_cell_length_c                   11.0101(2)
_cell_angle_alpha                90
_cell_angle_beta                 93.6930(10)
_cell_angle_gamma                90
_cell_volume                     6080.06
_exptl_crystal_colour            colorless
_exptl_crystal_description       block
_cell_formula_units_Z            8
loop_
_atom_site_label
_atom_site_type_symbol
_atom_site_fract_x
_atom_site_fract_y
_atom_site_fract_z
Cl1 Cl 0.94083(3) 0.28483(16) 0.19233(17)
C1 C 0.95897(9) 0.1556(5) 0.2317(6)
C2 C 0.97567(10) 0.1060(5) 0.1489(5)
H1 H 0.9769 0.1406 0.0708
C3 C 0.99035(9) 0.0069(5) 0.1807(5)
H2 H 1.0016 -0.0285 0.1237
C4 C 0.98899(8) -0.0429(4) 0.2956(4)
O1 O 1.00393(6) -0.1412(3) 0.3329(3)
H3 H 1.0124 -0.1672 0.2745
C5 C 0.95708(9) 0.1079(5) 0.3454(5)
H4 H 0.9455 0.1430 0.4013
C6 C 0.97224(8) 0.0077(5) 0.3779(5)
H5 H 0.9711 -0.0262 0.4564
Cl2 Cl 0.06118(3) 0.12547(13) 0.31410(14)
O2 O -0.00800(5) 0.5352(3) 0.1779(3)
H6 H -0.0141 0.5666 0.2399
C7 C 0.00762(7) 0.4381(4) 0.2122(4)
C8 C 0.00611(7) 0.3851(4) 0.3245(4)
H7 H -0.0062 0.4149 0.3805
C9 C 0.02248(8) 0.2883(4) 0.3555(4)
H8 H 0.0215 0.2517 0.4328
C10 C 0.04016(8) 0.2457(4) 0.2735(4)
C11 C 0.02517(8) 0.3932(4) 0.1302(4)
H9 H 0.0259 0.4285 0.0522
C12 C 0.04155(8) 0.2976(4) 0.1614(4)
H10 H 0.0538 0.2675 0.1054
O3 O 0.02411(5) 0.7395(3) 0.1502(3)
H11 H 0.0153 0.6777 0.1313
C13 C 0.05311(7) 0.7139(4) 0.1546(4)
H12 H 0.0572 0.6451 0.2100
C14 C 0.06780(7) 0.8229(4) 0.2058(3)
H13 H 0.0627 0.8364 0.2902
H14 H 0.0619 0.8929 0.1566
C15 C 0.09880(6) 0.8098(3) 0.2056(3)
H15 H 0.1038 0.7390 0.2568
C16 C 0.10848(7) 0.7837(3) 0.0767(3)
C17 C 0.13965(7) 0.7593(3) 0.0923(3)
H16 H 0.1419 0.6910 0.1500
C18 C 0.15250(7) 0.7202(4) -0.0248(3)
H17 H 0.1492 0.7825 -0.0874
H18 H 0.1433 0.6471 -0.0555
C19 C 0.18358(7) 0.6969(4) -0.0078(3)
H19 H 0.1869 0.6277 0.0465
H20 H 0.1907 0.6775 -0.0876
C20 C 0.19902(6) 0.8049(3) 0.0470(3)
C21 C 0.22918(6) 0.7847(3) 0.0956(3)
H21 H 0.2300 0.7054 0.1360
C22 C 0.25162(7) 0.7870(4) 0.0033(3)
H22 H 0.2506 0.8657 -0.0384
C23 C 0.28032(7) 0.7748(4) 0.0662(3)
H23 H 0.2821 0.8307 0.1356
H24 H 0.2825 0.6936 0.0992
C24 C 0.30320(7) 0.7992(4) -0.0179(4)
H25 H 0.3017 0.7415 -0.0858
H26 H 0.3005 0.8792 -0.0533
C25 C 0.33152(7) 0.7920(5) 0.0423(4)
H27 H 0.3340 0.7130 0.0804
H28 H 0.3333 0.8520 0.1079
C26 C 0.35437(7) 0.8120(4) -0.0448(4)
H29 H 0.3502 0.8873 -0.0901
C27 C 0.35527(9) 0.7132(4) -0.1378(4)
H30 H 0.3700 0.7286 -0.1917
H31 H 0.3378 0.7096 -0.1860
H32 H 0.3586 0.6376 -0.0958
C28 C 0.24681(8) 0.6923(5) -0.0935(4)
H33 H 0.2624 0.6898 -0.1448
H34 H 0.2301 0.7107 -0.1438
H35 H 0.2448 0.6151 -0.0544
C29 C 0.06181(7) 0.6845(4) 0.0288(3)
H36 H 0.0557 0.7481 -0.0287
H37 H 0.0530 0.6096 0.0004
C30 C 0.09317(7) 0.6716(4) 0.0301(3)
H38 H 0.0990 0.6037 0.0826
H39 H 0.0984 0.6539 -0.0534
C31 C 0.11362(7) 0.9148(3) 0.2654(3)
H40 H 0.1070 0.9270 0.3476
H41 H 0.1094 0.9871 0.2169
C32 C 0.14435(7) 0.8958(3) 0.2757(3)
H42 H 0.1488 0.8318 0.3351
H43 H 0.1534 0.9692 0.3069
C33 C 0.15567(6) 0.8630(3) 0.1530(3)
H44 H 0.1534 0.9333 0.0980
C34 C 0.18576(6) 0.8328(3) 0.1669(3)
H45 H 0.1871 0.7583 0.2161
C35 C 0.20527(7) 0.9208(4) 0.2317(3)
H46 H 0.2038 0.9178 0.3209
H47 H 0.2015 1.0026 0.2029
C36 C 0.23388(7) 0.8789(3) 0.1968(3)
H48 H 0.2444 0.9465 0.1668
H49 H 0.2442 0.8443 0.2684
C37 C 0.10206(7) 0.8866(4) -0.0124(3)
H50 H 0.1063 0.8626 -0.0946
H51 H 0.1132 0.9556 0.0127
H52 H 0.0826 0.9071 -0.0119
C38 C 0.19721(7) 0.9092(4) -0.0415(3)
H53 H 0.2053 0.8866 -0.1174
H54 H 0.2072 0.9769 -0.0051
H55 H 0.1780 0.9309 -0.0590
C39 C 0.38156(9) 0.8261(6) 0.0215(5)
H56 H 0.3858 0.7549 0.0700
H57 H 0.3812 0.8951 0.0754
H58 H 0.3955 0.8376 -0.0371
O4 O 0.02373(5) 0.6483(3) 0.6233(3)
H59 H 0.0152 0.7127 0.6244
C40 C 0.05026(7) 0.6681(4) 0.5772(3)
H60 H 0.0485 0.7287 0.5108
C41 C 0.05964(7) 0.5534(4) 0.5255(3)
H61 H 0.0470 0.5303 0.4557
H62 H 0.0591 0.4907 0.5881
C42 C 0.08879(6) 0.5633(3) 0.4832(3)
H63 H 0.0883 0.6280 0.4211
C43 C 0.10959(7) 0.6031(3) 0.5870(3)
C44 C 0.13768(6) 0.6216(3) 0.5310(3)
H64 H 0.1345 0.6830 0.4662
C45 C 0.16010(6) 0.6717(3) 0.6202(3)
H65 H 0.1625 0.6179 0.6911
H66 H 0.1540 0.7494 0.6502
C46 C 0.18792(6) 0.6874(3) 0.5645(3)
H67 H 0.1863 0.7504 0.5019
H68 H 0.2017 0.7131 0.6289
C47 C 0.19770(6) 0.5729(3) 0.5066(3)
C48 C 0.22214(6) 0.5841(3) 0.4226(3)
H69 H 0.2197 0.6603 0.3769
C49 C 0.25141(7) 0.5843(3) 0.4826(3)
H70 H 0.2542 0.5087 0.5291
C50 C 0.27311(6) 0.5905(4) 0.3874(3)
H71 H 0.2688 0.5300 0.3240
H72 H 0.2720 0.6692 0.3476
C51 C 0.30207(7) 0.5712(4) 0.4391(3)
H73 H 0.3064 0.6318 0.5025
H74 H 0.3031 0.4927 0.4791
C52 C 0.32355(7) 0.5769(4) 0.3473(3)
H75 H 0.3226 0.6559 0.3082
H76 H 0.3190 0.5173 0.2831
C53 C 0.35295(7) 0.5556(4) 0.3972(3)
H77 H 0.3531 0.4798 0.4442
C54 C 0.37201(8) 0.5396(5) 0.2950(4)
H78 H 0.3728 0.6133 0.2484
H79 H 0.3652 0.4755 0.2412
H80 H 0.3903 0.5195 0.3295
C55 C 0.36296(8) 0.6520(4) 0.4843(4)
H81 H 0.3819 0.6356 0.5133
H82 H 0.3514 0.6543 0.5537
H83 H 0.3621 0.7286 0.4424
C56 C 0.11232(7) 0.5114(4) 0.6910(3)
H84 H 0.1196 0.4371 0.6602
H85 H 0.0943 0.4970 0.7220
H86 H 0.1248 0.5419 0.7568
C57 C 0.09769(7) 0.4518(4) 0.4186(3)
H87 H 0.0841 0.4326 0.3511
H88 H 0.0984 0.3846 0.4765
C58 C 0.12575(7) 0.4683(4) 0.3683(3)
H89 H 0.1243 0.5275 0.3018
H90 H 0.1316 0.3924 0.3334
C59 C 0.14736(6) 0.5093(3) 0.4655(3)
H91 H 0.1501 0.4447 0.5272
C60 C 0.17477(7) 0.5350(3) 0.4126(3)
H92 H 0.1716 0.6037 0.3561
C61 C 0.18767(7) 0.4380(4) 0.3391(3)
H93 H 0.1780 0.4295 0.2578
H94 H 0.1874 0.3609 0.3820
C62 C 0.21724(7) 0.4822(3) 0.3288(3)
H95 H 0.2197 0.5115 0.2454
H96 H 0.2304 0.4170 0.3468
C63 C 0.07012(7) 0.7134(4) 0.6784(3)
H97 H 0.0697 0.6598 0.7495
H98 H 0.0643 0.7929 0.7041
C64 C 0.09943(6) 0.7206(3) 0.6373(3)
H99 H 0.1002 0.7823 0.5737
H100 H 0.1118 0.7451 0.7073
C65 C 0.20362(7) 0.4783(3) 0.6043(3)
H101 H 0.1867 0.4588 0.6428
H102 H 0.2172 0.5085 0.6659
H103 H 0.2108 0.4069 0.5667
C66 C 0.25563(7) 0.6869(4) 0.5716(3)
H104 H 0.2747 0.6884 0.6038
H105 H 0.2437 0.6766 0.6388
H106 H 0.2512 0.7616 0.5295
loop_
_geom_bond_atom_site_label_1
_geom_bond_atom_site_label_2
_geom_bond_site_symmetry_1
_geom_bond_site_symmetry_2
Cl1 C1 1_555 1_555
C1 C2 1_555 1_555
C2 H1 1_555 1_555
C3 C2 1_555 1_555
H2 C3 1_555 1_555
C4 C3 1_555 1_555
O1 C4 1_555 1_555
H3 O1 1_555 1_555
C5 C1 1_555 1_555
H4 C5 1_555 1_555
C6 C4 1_555 1_555
H5 C6 1_555 1_555
Cl2 C10 1_555 1_555
O2 H6 1_555 1_555
C7 O2 1_555 1_555
C8 C7 1_555 1_555
H7 C8 1_555 1_555
C9 C8 1_555 1_555
H8 C9 1_555 1_555
C10 C9 1_555 1_555
C11 C7 1_555 1_555
H9 C11 1_555 1_555
C12 C10 1_555 1_555
H10 C12 1_555 1_555
O3 H11 1_555 1_555
C13 O3 1_555 1_555
H12 C13 1_555 1_555
C14 C13 1_555 1_555
H13 C14 1_555 1_555
H14 C14 1_555 1_555
C15 C14 1_555 1_555
H15 C15 1_555 1_555
C16 C15 1_555 1_555
C17 C16 1_555 1_555
H16 C17 1_555 1_555
C18 C17 1_555 1_555
H17 C18 1_555 1_555
H18 C18 1_555 1_555
C19 C18 1_555 1_555
H19 C19 1_555 1_555
H20 C19 1_555 1_555
C20 C19 1_555 1_555
C21 C20 1_555 1_555
H21 C21 1_555 1_555
C22 C21 1_555 1_555
H22 C22 1_555 1_555
C23 C22 1_555 1_555
H23 C23 1_555 1_555
H24 C23 1_555 1_555
C24 C23 1_555 1_555
H25 C24 1_555 1_555
H26 C24 1_555 1_555
C25 C24 1_555 1_555
H27 C25 1_555 1_555
H28 C25 1_555 1_555
C26 C25 1_555 1_555
H29 C26 1_555 1_555
C27 C26 1_555 1_555
H30 C27 1_555 1_555
H31 C27 1_555 1_555
H32 C27 1_555 1_555
C28 C22 1_555 1_555
H33 C28 1_555 1_555
H34 C28 1_555 1_555
H35 C28 1_555 1_555
C29 C13 1_555 1_555
H36 C29 1_555 1_555
H37 C29 1_555 1_555
C30 C16 1_555 1_555
H38 C30 1_555 1_555
H39 C30 1_555 1_555
C31 C15 1_555 1_555
H40 C31 1_555 1_555
H41 C31 1_555 1_555
C32 C31 1_555 1_555
H42 C32 1_555 1_555
H43 C32 1_555 1_555
C33 C17 1_555 1_555
H44 C33 1_555 1_555
C34 C20 1_555 1_555
H45 C34 1_555 1_555
C35 C34 1_555 1_555
H46 C35 1_555 1_555
H47 C35 1_555 1_555
C36 C21 1_555 1_555
H48 C36 1_555 1_555
H49 C36 1_555 1_555
C37 C16 1_555 1_555
H50 C37 1_555 1_555
H51 C37 1_555 1_555
H52 C37 1_555 1_555
C38 C20 1_555 1_555
H53 C38 1_555 1_555
H54 C38 1_555 1_555
H55 C38 1_555 1_555
C39 C26 1_555 1_555
H56 C39 1_555 1_555
H57 C39 1_555 1_555
H58 C39 1_555 1_555
O4 H59 1_555 1_555
C40 O4 1_555 1_555
H60 C40 1_555 1_555
C41 C40 1_555 1_555
H61 C41 1_555 1_555
H62 C41 1_555 1_555
C42 C41 1_555 1_555
H63 C42 1_555 1_555
C43 C42 1_555 1_555
C44 C43 1_555 1_555
H64 C44 1_555 1_555
C45 C44 1_555 1_555
H65 C45 1_555 1_555
H66 C45 1_555 1_555
C46 C45 1_555 1_555
H67 C46 1_555 1_555
H68 C46 1_555 1_555
C47 C46 1_555 1_555
C48 C47 1_555 1_555
H69 C48 1_555 1_555
C49 C48 1_555 1_555
H70 C49 1_555 1_555
C50 C49 1_555 1_555
H71 C50 1_555 1_555
H72 C50 1_555 1_555
C51 C50 1_555 1_555
H73 C51 1_555 1_555
H74 C51 1_555 1_555
C52 C51 1_555 1_555
H75 C52 1_555 1_555
H76 C52 1_555 1_555
C53 C52 1_555 1_555
H77 C53 1_555 1_555
C54 C53 1_555 1_555
H78 C54 1_555 1_555
H79 C54 1_555 1_555
H80 C54 1_555 1_555
C55 C53 1_555 1_555
H81 C55 1_555 1_555
H82 C55 1_555 1_555
H83 C55 1_555 1_555
C56 C43 1_555 1_555
H84 C56 1_555 1_555
H85 C56 1_555 1_555
H86 C56 1_555 1_555
C57 C42 1_555 1_555
H87 C57 1_555 1_555
H88 C57 1_555 1_555
C58 C57 1_555 1_555
H89 C58 1_555 1_555
H90 C58 1_555 1_555
C59 C44 1_555 1_555
H91 C59 1_555 1_555
C60 C47 1_555 1_555
H92 C60 1_555 1_555
C61 C60 1_555 1_555
H93 C61 1_555 1_555
H94 C61 1_555 1_555
C62 C48 1_555 1_555
H95 C62 1_555 1_555
H96 C62 1_555 1_555
C63 C40 1_555 1_555
H97 C63 1_555 1_555
H98 C63 1_555 1_555
C64 C43 1_555 1_555
H99 C64 1_555 1_555
H100 C64 1_555 1_555
C65 C47 1_555 1_555
H101 C65 1_555 1_555
H102 C65 1_555 1_555
H103 C65 1_555 1_555
C66 C49 1_555 1_555
H104 C66 1_555 1_555
H105 C66 1_555 1_555
H106 C66 1_555 1_555
C5 C6 1_555 1_555
C11 C12 1_555 1_555
C29 C30 1_555 1_555
C32 C33 1_555 1_555
C33 C34 1_555 1_555
C35 C36 1_555 1_555
C58 C59 1_555 1_555
C59 C60 1_555 1_555
C61 C62 1_555 1_555
C63 C64 1_555 1_555

#END
