
#######################################################################
#
#                 Cambridge Crystallographic Data Centre
#                                CCDC 
#
#######################################################################
#
# If this CIF has been generated from an entry in the Cambridge 
# Structural Database, then it will include bibliographic, chemical, 
# crystal, experimental, refinement or atomic coordinate data resulting 
# from the CCDC's data processing and validation procedures.
#
#######################################################################

data_UMABAN
_chemical_formula_moiety         '2(C27 H48 O1),C6 H5 Br1 O1'
_chemical_name_systematic        'bis(cholestan-3-ol) 4-bromophenol'
_symmetry_cell_setting           triclinic
_symmetry_space_group_name_H-M   'P 1'
_symmetry_Int_Tables_number      1
_space_group_name_Hall           'P 1'
loop_
_symmetry_equiv_pos_site_id
_symmetry_equiv_pos_as_xyz
1 x,y,z
_cell_length_a                   6.51740(10)
_cell_length_b                   10.0252(2)
_cell_length_c                   21.5196(4)
_cell_angle_alpha                78.3290(10)
_cell_angle_beta                 82.1480(10)
_cell_angle_gamma                89.0550(10)
_cell_volume                     1363.98
_exptl_crystal_colour            colorless
_exptl_crystal_description       block
_cell_formula_units_Z            1
loop_
_atom_site_label
_atom_site_type_symbol
_atom_site_fract_x
_atom_site_fract_y
_atom_site_fract_z
O1 O 0.4103(4) 0.2006(3) -0.06120(11)
H1 H 0.2880 0.1935 -0.0692
C1 C 0.4050(5) 0.1890(4) 0.00658(16)
H2 H 0.3057 0.2568 0.0214
C2 C 0.6214(5) 0.2225(4) 0.01791(16)
H3 H 0.6576 0.3177 -0.0036
H4 H 0.7223 0.1621 -0.0011
C3 C 0.6354(5) 0.2046(4) 0.08933(16)
H5 H 0.5320 0.2677 0.1063
C4 C 0.5749(5) 0.0593(3) 0.12745(16)
C5 C 0.5751(5) 0.0615(3) 0.19958(15)
H6 H 0.4776 0.1350 0.2092
C6 C 0.7899(5) 0.1038(3) 0.21291(15)
H7 H 0.8939 0.0351 0.2017
C7 C 0.7796(5) 0.1044(3) 0.28382(16)
H8 H 0.6718 0.1723 0.2933
C8 C 0.7114(5) -0.0308(3) 0.32943(15)
C9 C 0.7285(5) 0.0112(3) 0.39441(15)
H9 H 0.6225 0.0832 0.3986
C10 C 0.6896(5) -0.0964(3) 0.45734(15)
H10 H 0.7520 -0.1842 0.4493
C11 C 0.7898(6) -0.0547(4) 0.51089(17)
H11 H 0.9411 -0.0456 0.4970
H12 H 0.7380 0.0364 0.5159
C12 C 0.7542(6) -0.1497(4) 0.57618(17)
H13 H 0.7853 -0.2442 0.5712
H14 H 0.6068 -0.1465 0.5945
C13 C 0.8903(6) -0.1099(4) 0.62196(17)
H15 H 0.8557 -0.0157 0.6267
H16 H 1.0363 -0.1090 0.6018
C14 C 0.8742(6) -0.2001(4) 0.68884(17)
H17 H 0.9041 -0.2957 0.6836
C15 C 1.0402(8) -0.1566(6) 0.7247(2)
H18 H 1.0106 -0.0648 0.7325
H19 H 1.1763 -0.1568 0.6990
H20 H 1.0400 -0.2205 0.7658
C16 C 0.8484(5) 0.2501(4) 0.10056(16)
H21 H 0.9565 0.1905 0.0842
H22 H 0.8779 0.3446 0.0767
C17 C 0.8553(5) 0.2432(4) 0.17177(16)
H23 H 0.7625 0.3134 0.1863
H24 H 0.9979 0.2646 0.1781
C18 C 0.6615(7) -0.2000(5) 0.7277(2)
H25 H 0.6278 -0.1073 0.7335
H26 H 0.6615 -0.2603 0.7697
H27 H 0.5579 -0.2325 0.7051
C19 C 0.4557(6) -0.1196(4) 0.47815(18)
H28 H 0.4325 -0.1925 0.5164
H29 H 0.3927 -0.1457 0.4435
H30 H 0.3926 -0.0355 0.4879
C20 C 0.9409(5) 0.0850(4) 0.38057(16)
H31 H 1.0519 0.0201 0.3924
H32 H 0.9406 0.1580 0.4054
C21 C 0.9761(5) 0.1463(4) 0.30759(16)
H33 H 0.9910 0.2467 0.2995
H34 H 1.1012 0.1080 0.2864
C22 C 0.8622(5) -0.1484(3) 0.32004(17)
H35 H 0.8112 -0.2323 0.3497
H36 H 0.9999 -0.1254 0.3286
H37 H 0.8710 -0.1618 0.2759
C23 C 0.4957(5) -0.0670(4) 0.31645(16)
H38 H 0.3952 0.0009 0.3292
H39 H 0.4524 -0.1573 0.3430
C24 C 0.4919(5) -0.0705(4) 0.24557(16)
H40 H 0.3476 -0.0865 0.2390
H41 H 0.5760 -0.1479 0.2348
C25 C 0.3538(5) 0.0299(4) 0.11412(16)
H42 H 0.3128 -0.0644 0.1359
H43 H 0.2555 0.0924 0.1327
C26 C 0.3372(5) 0.0470(4) 0.04260(17)
H44 H 0.4252 -0.0212 0.0246
H45 H 0.1921 0.0304 0.0370
C27 C 0.7227(5) -0.0500(4) 0.10677(17)
H46 H 0.7363 -0.0405 0.0602
H47 H 0.6668 -0.1407 0.1275
H48 H 0.8590 -0.0385 0.1195
O2 O 0.7505(4) 0.2914(3) 0.85934(11)
H49 H 0.6470 0.2729 0.8789
C28 C 0.4429(7) 0.5901(5) 0.0773(2)
H50 H 0.4486 0.5675 0.0349
H51 H 0.5442 0.5355 0.1009
H52 H 0.4753 0.6871 0.0725
C29 C 0.2282(6) 0.5596(4) 0.11376(18)
H53 H 0.2017 0.4597 0.1190
C30 C 0.2067(6) 0.5921(4) 0.18085(18)
H54 H 0.2404 0.6898 0.1764
H55 H 0.0598 0.5784 0.2001
C31 C 0.3394(6) 0.5101(4) 0.22724(17)
H56 H 0.4871 0.5243 0.2090
H57 H 0.3064 0.4120 0.2325
C32 C 0.3061(6) 0.5493(4) 0.29257(17)
H58 H 0.1553 0.5490 0.3071
H59 H 0.3575 0.6438 0.2874
C33 C 0.4102(5) 0.4585(4) 0.34548(16)
H60 H 0.3497 0.3646 0.3531
C34 C 0.3740(5) 0.5087(3) 0.40905(16)
H61 H 0.4790 0.5826 0.4052
C35 C 0.3941(5) 0.4080(3) 0.47305(15)
C36 C 0.6125(5) 0.3588(4) 0.48459(16)
H62 H 0.7100 0.4374 0.4727
H63 H 0.6582 0.2933 0.4569
C37 C 0.6187(5) 0.2899(3) 0.55524(16)
H64 H 0.5345 0.2050 0.5653
H65 H 0.7632 0.2646 0.5611
C38 C 0.5371(5) 0.3811(3) 0.60253(16)
H66 H 0.6323 0.4621 0.5928
C39 C 0.5444(5) 0.3138(3) 0.67426(15)
C40 C 0.7682(5) 0.2722(4) 0.68524(16)
H67 H 0.8107 0.1974 0.6626
H68 H 0.8625 0.3508 0.6664
C41 C 0.7911(5) 0.2262(4) 0.75558(16)
H69 H 0.7064 0.1429 0.7737
H70 H 0.9376 0.2035 0.7598
C42 C 0.7236(5) 0.3353(4) 0.79305(16)
H71 H 0.8156 0.4167 0.7750
C43 C 0.0670(8) 0.6335(5) 0.0760(2)
H72 H 0.0852 0.7320 0.0715
H73 H -0.0716 0.6060 0.0985
H74 H 0.0825 0.6106 0.0334
C44 C 0.6434(6) 0.4507(5) 0.32345(18)
H75 H 0.6653 0.4155 0.2838
H76 H 0.7080 0.3897 0.3567
H77 H 0.7058 0.5418 0.3158
C45 C 0.1584(5) 0.5733(4) 0.42447(17)
H78 H 0.1567 0.6691 0.4012
H79 H 0.0477 0.5218 0.4120
C46 C 0.1265(5) 0.5655(4) 0.49807(16)
H80 H 0.1074 0.6575 0.5080
H81 H 0.0041 0.5083 0.5189
C47 C 0.3247(5) 0.5015(3) 0.52051(16)
H82 H 0.4299 0.5769 0.5113
C48 C 0.3203(5) 0.4364(3) 0.59074(15)
H83 H 0.2198 0.3581 0.6014
C49 C 0.2500(5) 0.5377(4) 0.63390(16)
H84 H 0.3372 0.6212 0.6199
H85 H 0.1050 0.5638 0.6291
C50 C 0.2645(5) 0.4789(4) 0.70434(16)
H86 H 0.1609 0.4046 0.7204
H87 H 0.2319 0.5508 0.7296
C51 C 0.4803(5) 0.4238(4) 0.71383(16)
H88 H 0.5790 0.5020 0.6965
C52 C 0.5037(5) 0.3784(4) 0.78509(16)
H89 H 0.4667 0.4544 0.8074
H90 H 0.4077 0.3012 0.8048
C53 C 0.2478(5) 0.2857(4) 0.48143(17)
H91 H 0.3042 0.2255 0.4528
H92 H 0.1115 0.3178 0.4709
H93 H 0.2342 0.2356 0.5259
C54 C 0.4012(5) 0.1879(4) 0.69458(17)
H94 H 0.3880 0.1568 0.7412
H95 H 0.4598 0.1150 0.6736
H96 H 0.2642 0.2116 0.6819
Br1 Br 0.92728(9) 0.54347(5) 0.90038(3)
O3 O 1.0658(4) 1.1403(3) 0.88974(14)
H97 H 0.9606 1.1807 0.8798
C55 C 0.9743(8) 0.7294(4) 0.90121(19)
C56 C 1.1733(8) 0.7829(5) 0.8895(2)
H98 H 1.2893 0.7258 0.8839
C57 C 1.2009(7) 0.9204(4) 0.8862(2)
H99 H 1.3369 0.9582 0.8787
C58 C 1.0322(6) 1.0034(4) 0.89386(18)
C59 C 0.8316(7) 0.9492(5) 0.90656(19)
H100 H 0.7157 1.0061 0.9127
C60 C 0.8042(8) 0.8113(5) 0.9101(2)
H101 H 0.6685 0.7727 0.9186
loop_
_geom_bond_atom_site_label_1
_geom_bond_atom_site_label_2
_geom_bond_site_symmetry_1
_geom_bond_site_symmetry_2
O1 H1 1_555 1_555
C1 O1 1_555 1_555
H2 C1 1_555 1_555
C2 C1 1_555 1_555
H3 C2 1_555 1_555
H4 C2 1_555 1_555
C3 C2 1_555 1_555
H5 C3 1_555 1_555
C4 C3 1_555 1_555
C5 C4 1_555 1_555
H6 C5 1_555 1_555
C6 C5 1_555 1_555
H7 C6 1_555 1_555
C7 C6 1_555 1_555
H8 C7 1_555 1_555
C8 C7 1_555 1_555
C9 C8 1_555 1_555
H9 C9 1_555 1_555
C10 C9 1_555 1_555
H10 C10 1_555 1_555
C11 C10 1_555 1_555
H11 C11 1_555 1_555
H12 C11 1_555 1_555
C12 C11 1_555 1_555
H13 C12 1_555 1_555
H14 C12 1_555 1_555
C13 C12 1_555 1_555
H15 C13 1_555 1_555
H16 C13 1_555 1_555
C14 C13 1_555 1_555
H17 C14 1_555 1_555
C15 C14 1_555 1_555
H18 C15 1_555 1_555
H19 C15 1_555 1_555
H20 C15 1_555 1_555
C16 C3 1_555 1_555
H21 C16 1_555 1_555
H22 C16 1_555 1_555
C17 C6 1_555 1_555
H23 C17 1_555 1_555
H24 C17 1_555 1_555
C18 C14 1_555 1_555
H25 C18 1_555 1_555
H26 C18 1_555 1_555
H27 C18 1_555 1_555
C19 C10 1_555 1_555
H28 C19 1_555 1_555
H29 C19 1_555 1_555
H30 C19 1_555 1_555
C20 C9 1_555 1_555
H31 C20 1_555 1_555
H32 C20 1_555 1_555
C21 C7 1_555 1_555
H33 C21 1_555 1_555
H34 C21 1_555 1_555
C22 C8 1_555 1_555
H35 C22 1_555 1_555
H36 C22 1_555 1_555
H37 C22 1_555 1_555
C23 C8 1_555 1_555
H38 C23 1_555 1_555
H39 C23 1_555 1_555
C24 C5 1_555 1_555
H40 C24 1_555 1_555
H41 C24 1_555 1_555
C25 C4 1_555 1_555
H42 C25 1_555 1_555
H43 C25 1_555 1_555
C26 C1 1_555 1_555
H44 C26 1_555 1_555
H45 C26 1_555 1_555
C27 C4 1_555 1_555
H46 C27 1_555 1_555
H47 C27 1_555 1_555
H48 C27 1_555 1_555
O2 H49 1_555 1_555
C28 H50 1_555 1_555
H51 C28 1_555 1_555
H52 C28 1_555 1_555
C29 C28 1_555 1_555
H53 C29 1_555 1_555
C30 C29 1_555 1_555
H54 C30 1_555 1_555
H55 C30 1_555 1_555
C31 C30 1_555 1_555
H56 C31 1_555 1_555
H57 C31 1_555 1_555
C32 C31 1_555 1_555
H58 C32 1_555 1_555
H59 C32 1_555 1_555
C33 C32 1_555 1_555
H60 C33 1_555 1_555
C34 C33 1_555 1_555
H61 C34 1_555 1_555
C35 C34 1_555 1_555
C36 C35 1_555 1_555
H62 C36 1_555 1_555
H63 C36 1_555 1_555
C37 C36 1_555 1_555
H64 C37 1_555 1_555
H65 C37 1_555 1_555
C38 C37 1_555 1_555
H66 C38 1_555 1_555
C39 C38 1_555 1_555
C40 C39 1_555 1_555
H67 C40 1_555 1_555
H68 C40 1_555 1_555
C41 C40 1_555 1_555
H69 C41 1_555 1_555
H70 C41 1_555 1_555
C42 O2 1_555 1_555
H71 C42 1_555 1_555
C43 C29 1_555 1_555
H72 C43 1_555 1_555
H73 C43 1_555 1_555
H74 C43 1_555 1_555
C44 C33 1_555 1_555
H75 C44 1_555 1_555
H76 C44 1_555 1_555
H77 C44 1_555 1_555
C45 C34 1_555 1_555
H78 C45 1_555 1_555
H79 C45 1_555 1_555
C46 C45 1_555 1_555
H80 C46 1_555 1_555
H81 C46 1_555 1_555
C47 C35 1_555 1_555
H82 C47 1_555 1_555
C48 C38 1_555 1_555
H83 C48 1_555 1_555
C49 C48 1_555 1_555
H84 C49 1_555 1_555
H85 C49 1_555 1_555
C50 C49 1_555 1_555
H86 C50 1_555 1_555
H87 C50 1_555 1_555
C51 C39 1_555 1_555
H88 C51 1_555 1_555
C52 C42 1_555 1_555
H89 C52 1_555 1_555
H90 C52 1_555 1_555
C53 C35 1_555 1_555
H91 C53 1_555 1_555
H92 C53 1_555 1_555
H93 C53 1_555 1_555
C54 C39 1_555 1_555
H94 C54 1_555 1_555
H95 C54 1_555 1_555
H96 C54 1_555 1_555
Br1 C55 1_555 1_555
O3 H97 1_555 1_555
C55 C56 1_555 1_555
C56 H98 1_555 1_555
C57 C56 1_555 1_555
H99 C57 1_555 1_555
C58 O3 1_555 1_555
C59 C58 1_555 1_555
H100 C59 1_555 1_555
C60 C55 1_555 1_555
H101 C60 1_555 1_555
C16 C17 1_555 1_555
C20 C21 1_555 1_555
C23 C24 1_555 1_555
C25 C26 1_555 1_555
C41 C42 1_555 1_555
C46 C47 1_555 1_555
C47 C48 1_555 1_555
C50 C51 1_555 1_555
C51 C52 1_555 1_555
C57 C58 1_555 1_555
C59 C60 1_555 1_555

#END
