
#######################################################################
#
#                 Cambridge Crystallographic Data Centre
#                                CCDC 
#
#######################################################################
#
# If this CIF has been generated from an entry in the Cambridge 
# Structural Database, then it will include bibliographic, chemical, 
# crystal, experimental, refinement or atomic coordinate data resulting 
# from the CCDC's data processing and validation procedures.
#
#######################################################################

data_UMASIL
_chemical_name_common            maistemonine
_chemical_formula_moiety         'C23 H29 N1 O6'
_chemical_name_systematic        
3'-Methoxy-4',9-dimethyl-3-(4-methyl-5-oxotetrahydrofuran-2-yl)-2,3,5,6,7,8-hexahydro-1H,5'H,10H-spiro[cyclopenta[b]pyrrolo[1,2-a]azepine-11,2'-furan]-5',10-dione
_symmetry_cell_setting           triclinic
_symmetry_space_group_name_H-M   'P -1'
_symmetry_Int_Tables_number      2
_space_group_name_Hall           '-P 1'
loop_
_symmetry_equiv_pos_site_id
_symmetry_equiv_pos_as_xyz
1 x,y,z
2 -x,-y,-z
_cell_length_a                   7.2280(6)
_cell_length_b                   10.2719(8)
_cell_length_c                   15.1769(11)
_cell_angle_alpha                99.413(5)
_cell_angle_beta                 99.406(4)
_cell_angle_gamma                103.506(4)
_cell_volume                     1056.75
_exptl_crystal_colour            colorless
_exptl_crystal_description       block
_chemical_melting_point          '189-190 deg.C'
_cell_formula_units_Z            2
loop_
_atom_site_label
_atom_site_type_symbol
_atom_site_fract_x
_atom_site_fract_y
_atom_site_fract_z
C1 C -0.1640(3) 0.1022(2) 0.73312(15)
C2 C -0.1981(3) -0.0249(2) 0.77413(16)
C3 C -0.1597(4) -0.1537(2) 0.7289(2)
H1 H -0.1999 -0.1657 0.6633
H2 H -0.2389 -0.2307 0.7471
C4 C 0.0529(4) -0.1561(3) 0.7517(2)
H3 H 0.0963 -0.1367 0.8176
H4 H 0.0622 -0.2474 0.7281
C5 C 0.1877(4) -0.0545(3) 0.7132(2)
H5 H 0.1473 -0.0755 0.6472
H6 H 0.3187 -0.0643 0.7285
C6 C 0.1896(3) 0.0938(2) 0.74963(18)
H7 H 0.1951 0.1055 0.8148
H8 H 0.3092 0.1525 0.7416
C7 C -0.2705(4) -0.0091(3) 0.85022(18)
C8 C -0.2951(3) 0.1282(3) 0.87186(17)
C9 C -0.1985(3) 0.2128(2) 0.80873(16)
C10 C -0.3067(3) 0.0801(3) 0.64139(17)
H9 H -0.3429 -0.0149 0.6095
H10 H -0.4236 0.1066 0.6506
C11 C -0.1932(4) 0.1725(3) 0.58838(18)
H11 H -0.2457 0.1436 0.5231
H12 H -0.1923 0.2674 0.6082
C12 C 0.0080(4) 0.1515(3) 0.61335(17)
H13 H 0.0099 0.0634 0.5777
C13 C -0.0221(3) 0.3233(2) 0.86218(15)
C14 C -0.0429(4) 0.4484(2) 0.85771(16)
C15 C -0.2370(4) 0.4274(3) 0.80437(18)
C16 C -0.3305(5) -0.1128(3) 0.9065(2)
H14 H -0.3446 -0.2030 0.8720
H15 H -0.4524 -0.1072 0.9220
H16 H -0.2330 -0.0946 0.9614
C17 C 0.3030(4) 0.3711(3) 0.9479(2)
H17 H 0.3476 0.4207 0.9036
H18 H 0.3936 0.3210 0.9669
H19 H 0.2931 0.4342 0.9999
C18 C 0.0835(4) 0.5916(3) 0.8973(2)
H20 H 0.1436 0.5981 0.9597
H21 H 0.0052 0.6552 0.8948
H22 H 0.1824 0.6130 0.8627
C19 C 0.1783(4) 0.2632(3) 0.60210(18)
H23 H 0.2969 0.2325 0.6136
C20 C 0.2182(4) 0.4058(3) 0.65794(19)
H24 H 0.3026 0.4173 0.7169
H25 H 0.0986 0.4284 0.6669
C21 C 0.3179(5) 0.4904(3) 0.5984(2)
H26 H 0.4517 0.4821 0.6069
C22 C 0.2161(4) 0.4112(3) 0.5041(2)
C23 C 0.3318(5) 0.6394(3) 0.6137(2)
H27 H 0.2035 0.6524 0.6010
H28 H 0.4071 0.6802 0.5738
H29 H 0.3936 0.6819 0.6760
N1 N 0.0279(3) 0.14354(19) 0.70973(13)
O1 O -0.3781(3) 0.1729(2) 0.92840(13)
O2 O -0.3253(2) 0.29016(17) 0.77310(12)
O3 O -0.3240(3) 0.5104(2) 0.78753(15)
O4 O 0.1153(2) 0.27734(16) 0.90805(11)
O5 O 0.1413(3) 0.27868(19) 0.50732(13)
O6 O 0.2006(3) 0.4489(2) 0.43321(15)
loop_
_geom_bond_atom_site_label_1
_geom_bond_atom_site_label_2
_geom_bond_site_symmetry_1
_geom_bond_site_symmetry_2
C1 C2 1_555 1_555
C2 C3 1_555 1_555
C3 H1 1_555 1_555
H2 C3 1_555 1_555
C4 C3 1_555 1_555
H3 C4 1_555 1_555
H4 C4 1_555 1_555
C5 C4 1_555 1_555
H5 C5 1_555 1_555
H6 C5 1_555 1_555
C6 C5 1_555 1_555
H7 C6 1_555 1_555
H8 C6 1_555 1_555
C7 C2 1_555 1_555
C8 C7 1_555 1_555
C9 C1 1_555 1_555
C10 C1 1_555 1_555
H9 C10 1_555 1_555
H10 C10 1_555 1_555
C11 C10 1_555 1_555
H11 C11 1_555 1_555
H12 C11 1_555 1_555
C12 C11 1_555 1_555
H13 C12 1_555 1_555
C13 C9 1_555 1_555
C14 C13 1_555 1_555
C15 C14 1_555 1_555
C16 C7 1_555 1_555
H14 C16 1_555 1_555
H15 C16 1_555 1_555
H16 C16 1_555 1_555
C17 H17 1_555 1_555
H18 C17 1_555 1_555
H19 C17 1_555 1_555
C18 C14 1_555 1_555
H20 C18 1_555 1_555
H21 C18 1_555 1_555
H22 C18 1_555 1_555
C19 C12 1_555 1_555
H23 C19 1_555 1_555
C20 C19 1_555 1_555
H24 C20 1_555 1_555
H25 C20 1_555 1_555
C21 C20 1_555 1_555
H26 C21 1_555 1_555
C22 C21 1_555 1_555
C23 C21 1_555 1_555
H27 C23 1_555 1_555
H28 C23 1_555 1_555
H29 C23 1_555 1_555
N1 C1 1_555 1_555
O1 C8 1_555 1_555
O2 C9 1_555 1_555
O3 C15 1_555 1_555
O4 C13 1_555 1_555
O5 C19 1_555 1_555
O6 C22 1_555 1_555
C6 N1 1_555 1_555
C8 C9 1_555 1_555
C12 N1 1_555 1_555
C15 O2 1_555 1_555
C17 O4 1_555 1_555
C22 O5 1_555 1_555

#END
