
#######################################################################
#
#                 Cambridge Crystallographic Data Centre
#                                CCDC 
#
#######################################################################
#
# If this CIF has been generated from an entry in the Cambridge 
# Structural Database, then it will include bibliographic, chemical, 
# crystal, experimental, refinement or atomic coordinate data resulting 
# from the CCDC's data processing and validation procedures.
#
#######################################################################

data_UMASOR
_chemical_formula_moiety         'C20 H23 N1 O5'
_chemical_name_systematic        
3'-Methoxy-4',9-dimethyl-3-vinyl-2,3,7,8-tetrahydro-1H,5H,5'H-spiro[cyclopenta[b]pyrrolo[1,2-a]azepine-11,2'-furan]-5,5',10(6H)-trione
_symmetry_cell_setting           monoclinic
_symmetry_space_group_name_H-M   'C c'
_symmetry_Int_Tables_number      9
_space_group_name_Hall           'C -2yc'
loop_
_symmetry_equiv_pos_site_id
_symmetry_equiv_pos_as_xyz
1 x,y,z
2 x,-y,1/2+z
3 1/2+x,1/2+y,z
4 1/2+x,1/2-y,1/2+z
_cell_length_a                   22.90(3)
_cell_length_b                   9.060(11)
_cell_length_c                   18.57(2)
_cell_angle_alpha                90
_cell_angle_beta                 90.78(4)
_cell_angle_gamma                90
_cell_volume                     3852.44
_exptl_crystal_colour            colorless
_exptl_crystal_description       block
_chemical_melting_point          '178-180 deg.C'
_cell_formula_units_Z            8
loop_
_atom_site_label
_atom_site_type_symbol
_atom_site_fract_x
_atom_site_fract_y
_atom_site_fract_z
C1 C 0.87044(11) 0.1536(4) 0.45652(15)
C2 C 0.87764(15) 0.3222(4) 0.46445(18)
H1 H 0.8455 0.3703 0.4392
H2 H 0.9135 0.3516 0.4413
C3 C 0.87937(17) 0.3779(4) 0.5439(2)
H3 H 0.8824 0.4847 0.5437
H4 H 0.8428 0.3522 0.5665
C4 C 0.93066(13) 0.3136(3) 0.58998(17)
H5 H 0.9461 0.3896 0.6217
H6 H 0.9165 0.2333 0.6195
C5 C 0.97906(11) 0.2572(3) 0.54123(14)
C6 C 1.02767(11) 0.3303(3) 0.51957(15)
C7 C 1.05850(10) 0.2426(3) 0.46452(14)
C8 C 1.02180(10) 0.0992(2) 0.44981(12)
C9 C 0.97335(9) 0.1018(2) 0.51033(12)
C10 C 0.98493(13) -0.0189(3) 0.56796(14)
H7 H 1.0265 -0.0334 0.5761
H8 H 0.9668 0.0063 0.6132
C11 C 0.95653(14) -0.1572(3) 0.53426(18)
H9 H 0.9823 -0.2025 0.4997
H10 H 0.9473 -0.2292 0.5710
C12 C 0.90055(12) -0.0997(3) 0.49692(15)
H11 H 0.8952 -0.1488 0.4503
C13 C 0.84678(15) -0.1231(3) 0.54285(19)
H12 H 0.8437 -0.0671 0.5846
C14 C 0.80475(18) -0.2159(4) 0.5280(2)
H13 H 0.8064 -0.2738 0.4867
H14 H 0.7732 -0.2242 0.5587
C15 C 1.05124(16) 0.4786(4) 0.5446(2)
H15 H 1.0249 0.5213 0.5785
H16 H 1.0549 0.5432 0.5039
H17 H 1.0888 0.4651 0.5671
C16 C 1.06299(12) -0.1032(3) 0.39218(15)
C17 C 1.02335(11) -0.0342(3) 0.33833(13)
C18 C 0.99986(10) 0.0852(3) 0.37171(13)
C19 C 1.01856(15) -0.0982(3) 0.26331(16)
H18 H 0.9804 -0.1404 0.2562
H19 H 1.0476 -0.1735 0.2576
H20 H 1.0245 -0.0215 0.2285
C20 C 0.92878(14) 0.1731(4) 0.28347(16)
H21 H 0.9535 0.1871 0.2427
H22 H 0.8975 0.2437 0.2817
H23 H 0.9129 0.0751 0.2824
N1 N 0.91313(8) 0.0628(2) 0.48554(11)
O1 O 0.82655(9) 0.0999(4) 0.42849(13)
O2 O 1.10417(9) 0.2711(2) 0.43482(11)
O3 O 1.06186(7) -0.02604(18) 0.45681(9)
O4 O 1.09470(10) -0.2122(2) 0.38707(12)
O5 O 0.96288(8) 0.19377(19) 0.34985(9)
C21 C 0.28701(11) 0.4076(3) 0.21650(13)
C22 C 0.24885(12) 0.5463(3) 0.21437(14)
H24 H 0.2148 0.5264 0.1842
H25 H 0.2707 0.6249 0.1917
C23 C 0.22769(13) 0.6022(3) 0.28899(15)
H26 H 0.2611 0.6383 0.3164
H27 H 0.2012 0.6844 0.2815
C24 C 0.19636(12) 0.4818(3) 0.33369(14)
H28 H 0.2246 0.4304 0.3639
H29 H 0.1678 0.5275 0.3646
C25 C 0.16630(10) 0.3729(2) 0.28369(12)
C26 C 0.11050(11) 0.3798(3) 0.25736(13)
C27 C 0.10100(10) 0.2623(2) 0.20358(13)
C28 C 0.16038(10) 0.1812(2) 0.19069(12)
C29 C 0.20066(10) 0.2400(2) 0.25558(12)
C30 C 0.20931(12) 0.1186(3) 0.31452(14)
H30 H 0.2179 0.1623 0.3612
H31 H 0.1749 0.0567 0.3182
C31 C 0.26180(13) 0.0301(3) 0.28693(17)
H32 H 0.2497 -0.0386 0.2496
H33 H 0.2804 -0.0246 0.3258
C32 C 0.30390(11) 0.1488(3) 0.25642(14)
H34 H 0.3223 0.1117 0.2126
C33 C 0.35054(13) 0.1944(4) 0.31081(17)
H35 H 0.3414 0.2708 0.3422
C34 C 0.40270(15) 0.1354(4) 0.3174(2)
H36 H 0.4137 0.0588 0.2871
H37 H 0.4287 0.1703 0.3524
C35 C 0.06245(13) 0.4858(3) 0.27644(18)
H38 H 0.0760 0.5511 0.3138
H39 H 0.0292 0.4315 0.2930
H40 H 0.0515 0.5423 0.2347
C36 C 0.16503(11) -0.0419(3) 0.12845(16)
C37 C 0.18497(10) 0.0735(3) 0.07795(13)
C38 C 0.18166(10) 0.2030(3) 0.11428(12)
C39 C 0.20372(13) 0.0292(4) 0.00282(16)
H41 H 0.1857 0.0938 -0.0320
H42 H 0.1918 -0.0706 -0.0066
H43 H 0.2454 0.0366 -0.0004
C40 C 0.20028(16) 0.3827(4) 0.02093(16)
H44 H 0.2365 0.3401 0.0059
H45 H 0.2019 0.4880 0.0155
H46 H 0.1689 0.3439 -0.0082
N2 N 0.26308(8) 0.2738(2) 0.23782(10)
O6 O 0.33967(8) 0.4137(2) 0.20160(12)
O7 O 0.05497(8) 0.2301(2) 0.17271(10)
O8 O 0.15063(7) 0.02216(16) 0.19426(9)
O9 O 0.15980(12) -0.1746(2) 0.11997(14)
O10 O 0.19048(8) 0.34630(19) 0.09612(9)
loop_
_geom_bond_atom_site_label_1
_geom_bond_atom_site_label_2
_geom_bond_site_symmetry_1
_geom_bond_site_symmetry_2
C1 C2 1_555 1_555
C2 H1 1_555 1_555
H2 C2 1_555 1_555
C3 C2 1_555 1_555
H3 C3 1_555 1_555
H4 C3 1_555 1_555
C4 C3 1_555 1_555
H5 C4 1_555 1_555
H6 C4 1_555 1_555
C5 C4 1_555 1_555
C6 C5 1_555 1_555
C7 C6 1_555 1_555
C8 C7 1_555 1_555
C9 C5 1_555 1_555
C10 C9 1_555 1_555
H7 C10 1_555 1_555
H8 C10 1_555 1_555
C11 C10 1_555 1_555
H9 C11 1_555 1_555
H10 C11 1_555 1_555
C12 C11 1_555 1_555
H11 C12 1_555 1_555
C13 C12 1_555 1_555
H12 C13 1_555 1_555
C14 C13 1_555 1_555
H13 C14 1_555 1_555
H14 C14 1_555 1_555
C15 C6 1_555 1_555
H15 C15 1_555 1_555
H16 C15 1_555 1_555
H17 C15 1_555 1_555
C16 C17 1_555 1_555
C17 C18 1_555 1_555
C18 C8 1_555 1_555
C19 C17 1_555 1_555
H18 C19 1_555 1_555
H19 C19 1_555 1_555
H20 C19 1_555 1_555
C20 H21 1_555 1_555
H22 C20 1_555 1_555
H23 C20 1_555 1_555
C21 C22 1_555 1_555
C22 H24 1_555 1_555
H25 C22 1_555 1_555
C23 C22 1_555 1_555
H26 C23 1_555 1_555
H27 C23 1_555 1_555
C24 C23 1_555 1_555
H28 C24 1_555 1_555
H29 C24 1_555 1_555
C25 C24 1_555 1_555
C26 C25 1_555 1_555
C27 C26 1_555 1_555
C28 C27 1_555 1_555
C29 C25 1_555 1_555
C30 C29 1_555 1_555
H30 C30 1_555 1_555
H31 C30 1_555 1_555
C31 C30 1_555 1_555
H32 C31 1_555 1_555
H33 C31 1_555 1_555
C32 C31 1_555 1_555
H34 C32 1_555 1_555
C33 C32 1_555 1_555
H35 C33 1_555 1_555
C34 C33 1_555 1_555
H36 C34 1_555 1_555
H37 C34 1_555 1_555
C35 C26 1_555 1_555
H38 C35 1_555 1_555
H39 C35 1_555 1_555
H40 C35 1_555 1_555
C36 C37 1_555 1_555
C37 C38 1_555 1_555
C38 C28 1_555 1_555
C39 C37 1_555 1_555
H41 C39 1_555 1_555
H42 C39 1_555 1_555
H43 C39 1_555 1_555
C40 H44 1_555 1_555
H45 C40 1_555 1_555
H46 C40 1_555 1_555
N1 C1 1_555 1_555
N2 C21 1_555 1_555
O1 C1 1_555 1_555
O2 C7 1_555 1_555
O3 C8 1_555 1_555
O4 C16 1_555 1_555
O5 C18 1_555 1_555
O6 C21 1_555 1_555
O7 C27 1_555 1_555
O8 C28 1_555 1_555
O9 C36 1_555 1_555
O10 C38 1_555 1_555
C8 C9 1_555 1_555
C9 N1 1_555 1_555
C12 N1 1_555 1_555
C16 O3 1_555 1_555
C20 O5 1_555 1_555
C28 C29 1_555 1_555
C29 N2 1_555 1_555
C32 N2 1_555 1_555
C36 O8 1_555 1_555
C40 O10 1_555 1_555

#END
