
#######################################################################
#
#                 Cambridge Crystallographic Data Centre
#                                CCDC 
#
#######################################################################
#
# If this CIF has been generated from an entry in the Cambridge 
# Structural Database, then it will include bibliographic, chemical, 
# crystal, experimental, refinement or atomic coordinate data resulting 
# from the CCDC's data processing and validation procedures.
#
#######################################################################

data_UMATUX
_chemical_formula_moiety         'C13 H14 N2 O2'
_chemical_name_systematic        1,3-bis(4-Pyridyl)propane-N,N'-dioxide
_symmetry_cell_setting           orthorhombic
_symmetry_space_group_name_H-M   'P n m a'
_symmetry_Int_Tables_number      62
_space_group_name_Hall           '-P 2ac 2n'
loop_
_symmetry_equiv_pos_site_id
_symmetry_equiv_pos_as_xyz
1 x,y,z
2 1/2-x,-y,1/2+z
3 -x,1/2+y,-z
4 1/2+x,1/2-y,1/2-z
5 -x,-y,-z
6 1/2+x,y,1/2-z
7 x,1/2-y,z
8 1/2-x,1/2+y,1/2+z
_cell_length_a                   9.1586(16)
_cell_length_b                   7.7990(14)
_cell_length_c                   16.794(3)
_cell_angle_alpha                90
_cell_angle_beta                 90
_cell_angle_gamma                90
_cell_volume                     1199.56
_exptl_crystal_colour            colorless
_exptl_crystal_description       block
_cell_formula_units_Z            4
_exptl_crystal_recrystallization_method ethanol
loop_
_atom_site_label
_atom_site_type_symbol
_atom_site_fract_x
_atom_site_fract_y
_atom_site_fract_z
O1 O 0.29243(17) 0.2500 1.21795(8)
N1 N 0.37768(18) 0.2500 1.15496(9)
C1 C 0.3202(2) 0.2500 1.08089(12)
H1 H 0.2193 0.2500 1.0747
C2 C 0.4077(2) 0.2500 1.01478(11)
H2 H 0.3647 0.2500 0.9646
C3 C 0.5589(2) 0.2500 1.02071(10)
C4 C 0.6145(2) 0.2500 1.09767(10)
H3 H 0.7151 0.2500 1.1050
C5 C 0.5248(2) 0.2500 1.16334(11)
H4 H 0.5656 0.2500 1.2141
C6 C 0.6613(2) 0.2500 0.95056(11)
H5 H 0.7236 0.1499 0.9549
C7 C 0.5943(2) 0.2500 0.86791(10)
H6 H 0.5334 0.1493 0.8614
C8 C 0.7142(2) 0.2500 0.80471(11)
H7 H 0.7751 0.1495 0.8122
C9 C 0.6556(2) 0.2500 0.72054(10)
C10 C 0.62691(15) 0.09842(19) 0.68024(8)
H8 H 0.6441 -0.0059 0.7054
C11 C 0.57331(15) 0.09993(19) 0.60345(7)
H9 H 0.5543 -0.0031 0.5776
N2 N 0.54822(15) 0.2500 0.56550(8)
O2 O 0.50030(16) 0.2500 0.49131(7)
H5F H 0.7236 0.3501 0.9549
H6F H 0.5334 0.3507 0.8614
H7F H 0.7751 0.3505 0.8122
C11F C 0.57331(15) 0.40007(19) 0.60345(7)
C10F C 0.62691(15) 0.40158(19) 0.68024(8)
H8F H 0.6441 0.5059 0.7054
H9F H 0.5543 0.5031 0.5776
loop_
_geom_bond_atom_site_label_1
_geom_bond_atom_site_label_2
_geom_bond_site_symmetry_1
_geom_bond_site_symmetry_2
O1 N1 1_555 1_555
N1 C1 1_555 1_555
C1 H1 1_555 1_555
C2 C1 1_555 1_555
H2 C2 1_555 1_555
C3 C2 1_555 1_555
C4 C3 1_555 1_555
H3 C4 1_555 1_555
C5 N1 1_555 1_555
H4 C5 1_555 1_555
C6 C3 1_555 1_555
H5 C6 1_555 1_555
C7 C6 1_555 1_555
H6 C7 1_555 1_555
C8 C7 1_555 1_555
H7 C8 1_555 1_555
C9 C8 1_555 1_555
C10 C9 1_555 1_555
H8 C10 1_555 1_555
C11 C10 1_555 1_555
H9 C11 1_555 1_555
N2 C11 1_555 1_555
O2 N2 1_555 1_555
H5F C6 1_555 1_555
H6F C7 1_555 1_555
H7F C8 1_555 1_555
C11F N2 1_555 1_555
C10F C9 1_555 1_555
H8F C10F 1_555 1_555
H9F C11F 1_555 1_555
C4 C5 1_555 1_555
C11F C10F 1_555 1_555

#END
