
#######################################################################
#
#                 Cambridge Crystallographic Data Centre
#                                CCDC 
#
#######################################################################
#
# If this CIF has been generated from an entry in the Cambridge 
# Structural Database, then it will include bibliographic, chemical, 
# crystal, experimental, refinement or atomic coordinate data resulting 
# from the CCDC's data processing and validation procedures.
#
#######################################################################

data_UMAVAH
_chemical_compound_source        'Morinda parvifolia'
_chemical_name_common            'Morindaparvin G acetone solvate'
_chemical_formula_moiety         'C28 H26 O10,C3 H6 O1'
_chemical_name_systematic        
"Dimethyl 1,1'-dihydroxy-4,4',7,7'-tetramethoxy-2,2'-binaphthalene-3,3'-dicarboxylate acetone solvate"
_chemical_properties_biological  'cytotoxic activity'
_symmetry_cell_setting           monoclinic
_symmetry_space_group_name_H-M   'P 21/n'
_symmetry_Int_Tables_number      14
_space_group_name_Hall           '-P 2yn'
loop_
_symmetry_equiv_pos_site_id
_symmetry_equiv_pos_as_xyz
1 x,y,z
2 1/2-x,1/2+y,1/2-z
3 -x,-y,-z
4 1/2+x,1/2-y,1/2+z
_cell_length_a                   13.7591(2)
_cell_length_b                   15.1229(4)
_cell_length_c                   14.0956(5)
_cell_angle_alpha                90
_cell_angle_beta                 101.459(2)
_cell_angle_gamma                90
_cell_volume                     2874.51
_exptl_crystal_colour            'yellow white'
_chemical_melting_point          '468 K'
_cell_formula_units_Z            4
_exptl_crystal_recrystallization_method methanol
loop_
_atom_site_label
_atom_site_type_symbol
_atom_site_fract_x
_atom_site_fract_y
_atom_site_fract_z
O1 O 0.05537(7) 0.11704(6) 0.18337(7)
O2 O 0.10520(8) -0.20359(6) 0.10623(7)
H1 H 0.1160 -0.2566 0.1014
O3 O 0.31400(8) -0.20969(7) -0.19995(8)
O4 O -0.11284(7) -0.61633(6) -0.15882(8)
O5 O -0.01024(7) -0.29584(6) -0.12511(8)
H2 H 0.0022 -0.2435 -0.1323
O6 O 0.23107(8) -0.00936(7) -0.18111(7)
O7 O 0.33088(7) -0.49172(7) 0.00441(7)
O8 O 0.15281(8) -0.22695(9) -0.26260(8)
O9 O 0.34263(8) -0.25434(7) 0.09127(8)
O10 O 0.42313(8) -0.31751(7) -0.01567(8)
C1 C 0.05721(11) -0.61885(9) -0.09337(11)
H3 H 0.0521 -0.6801 -0.0908
C2 C 0.14702(10) -0.57912(10) -0.06204(10)
H4 H 0.2029 -0.6136 -0.0396
C3 C 0.13539(9) -0.06491(9) 0.04033(10)
C4 C 0.13072(10) 0.11981(9) 0.04800(11)
H5 H 0.1294 0.1812 0.0513
C5 C 0.13618(9) -0.15890(9) 0.03363(10)
C6 C 0.16582(10) -0.20035(9) -0.04269(10)
C7 C 0.20408(10) -0.05838(9) -0.10736(10)
C8 C 0.09347(10) 0.06858(9) 0.11684(10)
C9 C -0.02786(10) -0.56767(9) -0.12956(10)
C10 C -0.02308(10) -0.47702(9) -0.13226(10)
H6 H -0.0794 -0.4439 -0.1570
C11 C 0.02390(11) 0.06937(9) 0.26023(10)
H7 H -0.0253 0.0265 0.2332
H8 H -0.0038 0.1100 0.3000
H9 H 0.0798 0.0398 0.2989
C12 C 0.09724(10) -0.02208(9) 0.11474(10)
H10 H 0.0749 -0.0552 0.1617
C13 C 0.25149(10) -0.35103(9) -0.02198(10)
C14 C 0.16335(10) -0.29912(9) -0.05085(10)
C15 C 0.16856(10) 0.07931(9) -0.02332(10)
H11 H 0.1932 0.1136 -0.0679
C16 C 0.24736(10) -0.44160(9) -0.02964(10)
C17 C 0.17088(10) -0.01405(9) -0.03054(10)
C18 C 0.07574(10) -0.34048(9) -0.09088(10)
C19 C 0.37806(11) -0.52524(10) -0.07107(11)
H12 H 0.3297 -0.5547 -0.1192
H13 H 0.4292 -0.5663 -0.0438
H14 H 0.4066 -0.4770 -0.1004
C20 C 0.15568(10) -0.48556(9) -0.06347(10)
C21 C 0.19925(10) -0.14854(9) -0.11426(10)
C22 C -0.20049(11) -0.57013(10) -0.20432(11)
H15 H -0.1884 -0.5402 -0.2609
H16 H -0.2180 -0.5277 -0.1600
H17 H -0.2538 -0.6115 -0.2226
C23 C 0.21789(11) -0.19773(9) -0.20161(10)
C24 C 0.06896(10) -0.43462(9) -0.09681(10)
C25 C 0.33375(12) 0.01494(12) -0.16425(13)
H18 H 0.3466 0.0480 -0.2186
H19 H 0.3739 -0.0375 -0.1560
H20 H 0.3495 0.0506 -0.1069
C26 C 0.33496(12) -0.27046(11) -0.27304(12)
H21 H 0.2964 -0.2543 -0.3351
H22 H 0.3181 -0.3295 -0.2572
H23 H 0.4042 -0.2678 -0.2751
C27 C 0.34888(11) -0.30718(9) 0.01643(10)
C28 C 0.42758(13) -0.19781(11) 0.12482(14)
H24 H 0.4287 -0.1512 0.0788
H25 H 0.4873 -0.2320 0.1315
H26 H 0.4230 -0.1728 0.1864
O11 O 0.68974(9) -0.25262(8) -0.00255(9)
C29 C 0.56580(12) -0.16746(11) -0.10371(13)
H27 H 0.4986 -0.1792 -0.0981
H28 H 0.5674 -0.1513 -0.1693
H29 H 0.5918 -0.1198 -0.0612
C30 C 0.60811(15) -0.32601(12) -0.14484(13)
H30 H 0.6535 -0.3731 -0.1218
H31 H 0.6167 -0.3078 -0.2079
H32 H 0.5413 -0.3463 -0.1486
C31 C 0.62797(12) -0.24919(11) -0.07638(12)
loop_
_geom_bond_atom_site_label_1
_geom_bond_atom_site_label_2
_geom_bond_site_symmetry_1
_geom_bond_site_symmetry_2
O1 C8 1_555 1_555
O2 H1 1_555 1_555
O3 C23 1_555 1_555
O4 C9 1_555 1_555
O5 H2 1_555 1_555
O6 C7 1_555 1_555
O7 C16 1_555 1_555
O8 C23 1_555 1_555
O9 C27 1_555 1_555
O10 C27 1_555 1_555
C1 H3 1_555 1_555
C2 C1 1_555 1_555
H4 C2 1_555 1_555
C3 C5 1_555 1_555
C4 H5 1_555 1_555
C5 O2 1_555 1_555
C6 C5 1_555 1_555
C7 C17 1_555 1_555
C8 C4 1_555 1_555
C9 C1 1_555 1_555
C10 C9 1_555 1_555
H6 C10 1_555 1_555
C11 O1 1_555 1_555
H7 C11 1_555 1_555
H8 C11 1_555 1_555
H9 C11 1_555 1_555
C12 C3 1_555 1_555
H10 C12 1_555 1_555
C13 C14 1_555 1_555
C14 C6 1_555 1_555
C15 C4 1_555 1_555
H11 C15 1_555 1_555
C16 C13 1_555 1_555
C17 C3 1_555 1_555
C18 O5 1_555 1_555
C19 O7 1_555 1_555
H12 C19 1_555 1_555
H13 C19 1_555 1_555
H14 C19 1_555 1_555
C20 C2 1_555 1_555
C21 C6 1_555 1_555
C22 O4 1_555 1_555
H15 C22 1_555 1_555
H16 C22 1_555 1_555
H17 C22 1_555 1_555
C23 C21 1_555 1_555
C24 C10 1_555 1_555
C25 O6 1_555 1_555
H18 C25 1_555 1_555
H19 C25 1_555 1_555
H20 C25 1_555 1_555
C26 O3 1_555 1_555
H21 C26 1_555 1_555
H22 C26 1_555 1_555
H23 C26 1_555 1_555
C27 C13 1_555 1_555
C28 O9 1_555 1_555
H24 C28 1_555 1_555
H25 C28 1_555 1_555
H26 C28 1_555 1_555
O11 C31 1_555 1_555
C29 H27 1_555 1_555
H28 C29 1_555 1_555
H29 C29 1_555 1_555
C30 H30 1_555 1_555
H31 C30 1_555 1_555
H32 C30 1_555 1_555
C31 C29 1_555 1_555
C7 C21 1_555 1_555
C8 C12 1_555 1_555
C14 C18 1_555 1_555
C15 C17 1_555 1_555
C16 C20 1_555 1_555
C18 C24 1_555 1_555
C20 C24 1_555 1_555
C30 C31 1_555 1_555

#END
