
#######################################################################
#
#                 Cambridge Crystallographic Data Centre
#                                CCDC 
#
#######################################################################
#
# If this CIF has been generated from an entry in the Cambridge 
# Structural Database, then it will include bibliographic, chemical, 
# crystal, experimental, refinement or atomic coordinate data resulting 
# from the CCDC's data processing and validation procedures.
#
#######################################################################

data_UMELUV
_chemical_formula_moiety         'C36 H56 N2 O4 S2'
_chemical_name_systematic        
(E,E)-bis(1-(2,3-Dihydrothieno[3,4-b][1,4]dioxin-5-yl)dodecylidene)hydrazine
_symmetry_cell_setting           monoclinic
_symmetry_space_group_name_H-M   'P 21/c'
_symmetry_Int_Tables_number      14
_space_group_name_Hall           '-P 2ybc'
loop_
_symmetry_equiv_pos_site_id
_symmetry_equiv_pos_as_xyz
1 x,y,z
2 -x,1/2+y,1/2-z
3 -x,-y,-z
4 x,1/2-y,1/2+z
_cell_length_a                   14.9983(12)
_cell_length_b                   8.7827(6)
_cell_length_c                   14.3552(12)
_cell_angle_alpha                90
_cell_angle_beta                 111.777(3)
_cell_angle_gamma                90
_cell_volume                     1756
_exptl_crystal_colour            yellow
_exptl_crystal_description       plate
_cell_formula_units_Z            2
loop_
_atom_site_label
_atom_site_type_symbol
_atom_site_fract_x
_atom_site_fract_y
_atom_site_fract_z
S1 S 0.36918(4) 0.67306(6) 0.01040(4)
O1 O 0.47411(10) 0.31907(16) 0.17615(11)
O2 O 0.61806(10) 0.55493(15) 0.20660(11)
N1 N 0.47990(12) 0.92975(19) 0.00258(14)
C1 C 0.36732(16) 0.4954(2) 0.05947(16)
H1 H 0.3117 0.4330 0.0422
C2 C 0.45507(15) 0.4552(2) 0.12591(15)
C3 C 0.57603(15) 0.2914(2) 0.22182(16)
H2 H 0.6013 0.2634 0.1694
H3 H 0.5882 0.2054 0.2696
C4 C 0.62667(16) 0.4312(2) 0.27619(16)
H4 H 0.5986 0.4626 0.3257
H5 H 0.6954 0.4077 0.3130
C5 C 0.52593(15) 0.5711(2) 0.14015(15)
C6 C 0.49110(14) 0.6971(2) 0.08149(15)
C7 C 0.53509(14) 0.8418(2) 0.07414(15)
C8 C 0.63321(15) 0.8809(2) 0.14989(16)
H6 H 0.6368 0.8461 0.2168
H7 H 0.6402 0.9931 0.1528
C9 C 0.71857(15) 0.8121(2) 0.12912(16)
H8 H 0.7780 0.8312 0.1882
H9 H 0.7096 0.7005 0.1221
C10 C 0.73284(15) 0.8730(2) 0.03619(17)
H10 H 0.7335 0.9857 0.0381
H11 H 0.6782 0.8407 -0.0244
C11 C 0.82673(15) 0.8157(2) 0.02945(16)
H12 H 0.8808 0.8492 0.0902
H13 H 0.8260 0.7030 0.0295
C12 C 0.84509(16) 0.8699(3) -0.06243(17)
H14 H 0.8452 0.9827 -0.0631
H15 H 0.7917 0.8351 -0.1234
C13 C 0.93990(16) 0.8129(3) -0.06650(17)
H16 H 0.9930 0.8440 -0.0042
H17 H 0.9387 0.7002 -0.0688
C14 C 0.96001(16) 0.8726(3) -0.15620(18)
H18 H 0.9640 0.9850 -0.1521
H19 H 0.9052 0.8458 -0.2182
C15 C 1.05235(16) 0.8112(3) -0.16452(18)
H20 H 1.1074 0.8370 -0.1025
H21 H 1.0483 0.6989 -0.1701
C16 C 1.07037(16) 0.8754(3) -0.25431(18)
H22 H 1.0761 0.9875 -0.2474
H23 H 1.0139 0.8529 -0.3158
C17 C 1.15997(17) 0.8134(3) -0.26746(19)
H24 H 1.2165 0.8331 -0.2056
H25 H 1.1536 0.7018 -0.2772
C18 C 1.17657(18) 0.8849(3) -0.35626(19)
H26 H 1.2347 0.8417 -0.3617
H27 H 1.1843 0.9952 -0.3463
H28 H 1.1214 0.8639 -0.4180
S1B S 0.63082(4) 1.32694(6) -0.01040(4)
O1B O 0.52589(10) 1.68093(16) -0.17615(11)
O2B O 0.38194(10) 1.44507(15) -0.20660(11)
N1B N 0.52010(12) 1.07025(19) -0.00258(14)
C1B C 0.63268(16) 1.5046(2) -0.05947(16)
H1B H 0.6883 1.5670 -0.0422
C2B C 0.54493(15) 1.5448(2) -0.12591(15)
C3B C 0.42397(15) 1.7086(2) -0.22182(16)
H2B H 0.3987 1.7366 -0.1694
H3B H 0.4118 1.7946 -0.2696
C4B C 0.37333(16) 1.5688(2) -0.27619(16)
H4B H 0.4014 1.5374 -0.3257
H5B H 0.3046 1.5923 -0.3130
C5B C 0.47407(15) 1.4289(2) -0.14015(15)
C6B C 0.50890(14) 1.3029(2) -0.08149(15)
C7B C 0.46491(14) 1.1582(2) -0.07414(15)
C8B C 0.36679(15) 1.1191(2) -0.14989(16)
H6B H 0.3632 1.1539 -0.2168
H7B H 0.3598 1.0069 -0.1528
C9B C 0.28143(15) 1.1879(2) -0.12912(16)
H8B H 0.2220 1.1688 -0.1882
H9B H 0.2904 1.2995 -0.1221
C10B C 0.26716(15) 1.1270(2) -0.03619(17)
H10B H 0.2665 1.0143 -0.0381
H11B H 0.3218 1.1593 0.0244
C11B C 0.17327(15) 1.1843(2) -0.02945(16)
H12B H 0.1192 1.1508 -0.0902
H13B H 0.1740 1.2970 -0.0295
C12B C 0.15491(16) 1.1301(3) 0.06243(17)
H14B H 0.1548 1.0173 0.0631
H15B H 0.2083 1.1649 0.1234
C13B C 0.06010(16) 1.1871(3) 0.06650(17)
H16B H 0.0070 1.1560 0.0042
H17B H 0.0613 1.2998 0.0688
C14B C 0.03999(16) 1.1274(3) 0.15620(18)
H18B H 0.0360 1.0150 0.1521
H19B H 0.0948 1.1542 0.2182
C15B C -0.05235(16) 1.1888(3) 0.16452(18)
H20B H -0.1074 1.1630 0.1025
H21B H -0.0483 1.3011 0.1701
C16B C -0.07037(16) 1.1246(3) 0.25431(18)
H22B H -0.0761 1.0125 0.2474
H23B H -0.0139 1.1471 0.3158
C17B C -0.15997(17) 1.1866(3) 0.26746(19)
H24B H -0.2165 1.1669 0.2056
H25B H -0.1536 1.2982 0.2772
C18B C -0.17657(18) 1.1151(3) 0.35626(19)
H26B H -0.2347 1.1583 0.3617
H27B H -0.1843 1.0048 0.3463
H28B H -0.1214 1.1361 0.4180
loop_
_geom_bond_atom_site_label_1
_geom_bond_atom_site_label_2
_geom_bond_site_symmetry_1
_geom_bond_site_symmetry_2
S1 C1 1_555 1_555
O1 C2 1_555 1_555
O2 C4 1_555 1_555
N1 C7 1_555 1_555
C1 H1 1_555 1_555
C2 C1 1_555 1_555
C3 O1 1_555 1_555
H2 C3 1_555 1_555
H3 C3 1_555 1_555
C4 C3 1_555 1_555
H4 C4 1_555 1_555
H5 C4 1_555 1_555
C5 O2 1_555 1_555
C6 S1 1_555 1_555
C7 C6 1_555 1_555
C8 C7 1_555 1_555
H6 C8 1_555 1_555
H7 C8 1_555 1_555
C9 C8 1_555 1_555
H8 C9 1_555 1_555
H9 C9 1_555 1_555
C10 C9 1_555 1_555
H10 C10 1_555 1_555
H11 C10 1_555 1_555
C11 C10 1_555 1_555
H12 C11 1_555 1_555
H13 C11 1_555 1_555
C12 C11 1_555 1_555
H14 C12 1_555 1_555
H15 C12 1_555 1_555
C13 C12 1_555 1_555
H16 C13 1_555 1_555
H17 C13 1_555 1_555
C14 C13 1_555 1_555
H18 C14 1_555 1_555
H19 C14 1_555 1_555
C15 C14 1_555 1_555
H20 C15 1_555 1_555
H21 C15 1_555 1_555
C16 C15 1_555 1_555
H22 C16 1_555 1_555
H23 C16 1_555 1_555
C17 C16 1_555 1_555
H24 C17 1_555 1_555
H25 C17 1_555 1_555
C18 C17 1_555 1_555
H26 C18 1_555 1_555
H27 C18 1_555 1_555
H28 C18 1_555 1_555
S1B C1B 1_555 1_555
O1B C2B 1_555 1_555
O2B C4B 1_555 1_555
N1B N1 1_555 1_555
C1B H1B 1_555 1_555
C2B C1B 1_555 1_555
C3B O1B 1_555 1_555
H2B C3B 1_555 1_555
H3B C3B 1_555 1_555
C4B C3B 1_555 1_555
H4B C4B 1_555 1_555
H5B C4B 1_555 1_555
C5B O2B 1_555 1_555
C6B S1B 1_555 1_555
C7B N1B 1_555 1_555
C8B C7B 1_555 1_555
H6B C8B 1_555 1_555
H7B C8B 1_555 1_555
C9B C8B 1_555 1_555
H8B C9B 1_555 1_555
H9B C9B 1_555 1_555
C10B C9B 1_555 1_555
H10B C10B 1_555 1_555
H11B C10B 1_555 1_555
C11B C10B 1_555 1_555
H12B C11B 1_555 1_555
H13B C11B 1_555 1_555
C12B C11B 1_555 1_555
H14B C12B 1_555 1_555
H15B C12B 1_555 1_555
C13B C12B 1_555 1_555
H16B C13B 1_555 1_555
H17B C13B 1_555 1_555
C14B C13B 1_555 1_555
H18B C14B 1_555 1_555
H19B C14B 1_555 1_555
C15B C14B 1_555 1_555
H20B C15B 1_555 1_555
H21B C15B 1_555 1_555
C16B C15B 1_555 1_555
H22B C16B 1_555 1_555
H23B C16B 1_555 1_555
C17B C16B 1_555 1_555
H24B C17B 1_555 1_555
H25B C17B 1_555 1_555
C18B C17B 1_555 1_555
H26B C18B 1_555 1_555
H27B C18B 1_555 1_555
H28B C18B 1_555 1_555
C2 C5 1_555 1_555
C5 C6 1_555 1_555
C2B C5B 1_555 1_555
C5B C6B 1_555 1_555
C6B C7B 1_555 1_555

#END
