
#######################################################################
#
#                 Cambridge Crystallographic Data Centre
#                                CCDC 
#
#######################################################################
#
# If this CIF has been generated from an entry in the Cambridge 
# Structural Database, then it will include bibliographic, chemical, 
# crystal, experimental, refinement or atomic coordinate data resulting 
# from the CCDC's data processing and validation procedures.
#
#######################################################################

data_UMEMOP
_chemical_formula_moiety         'C30 H27 N1 O4'
_chemical_name_systematic        
"Ethyl 2-benzoyl-1'-benzyl-5-methyl-2'-oxo-1',2'-dihydrospiro[cyclopent-3-ene-1,3'-indole]-3-carboxylate"
_symmetry_cell_setting           triclinic
_symmetry_space_group_name_H-M   'P -1'
_symmetry_Int_Tables_number      2
_space_group_name_Hall           '-P 1'
loop_
_symmetry_equiv_pos_site_id
_symmetry_equiv_pos_as_xyz
1 x,y,z
2 -x,-y,-z
_cell_length_a                   10.5001(12)
_cell_length_b                   10.6998(11)
_cell_length_c                   24.381(3)
_cell_angle_alpha                81.545(2)
_cell_angle_beta                 83.868(2)
_cell_angle_gamma                64.481(2)
_cell_volume                     2442.18
_exptl_crystal_colour            colorless
_exptl_crystal_description       prismatic
_cell_formula_units_Z            4
loop_
_atom_site_label
_atom_site_type_symbol
_atom_site_fract_x
_atom_site_fract_y
_atom_site_fract_z
O1 O 0.0281(2) 0.7543(2) 0.22700(10)
O2 O 0.2312(3) 0.4326(2) 0.06594(10)
O3 O 0.1589(3) 0.1561(2) 0.15127(13)
O4 O 0.3204(2) 0.2251(2) 0.16796(10)
N1 N -0.0424(3) 0.8757(2) 0.14165(11)
C1 C -0.0068(3) 0.7622(3) 0.18018(15)
C2 C -0.0165(3) 0.6422(3) 0.15387(12)
C3 C -0.0658(3) 0.7115(3) 0.09691(13)
C4 C -0.0776(3) 0.8492(3) 0.09167(13)
C5 C -0.1195(3) 0.9393(3) 0.04410(14)
H1 H -0.1276 1.0300 0.0413
C6 C -0.1493(4) 0.8876(4) 0.00020(14)
H2 H -0.1782 0.9455 -0.0327
C7 C -0.1369(4) 0.7526(4) 0.00431(15)
H3 H -0.1575 0.7215 -0.0258
C8 C -0.0944(3) 0.6630(3) 0.05258(14)
H4 H -0.0853 0.5720 0.0550
C9 C -0.1151(3) 0.5826(3) 0.18890(13)
H5 H -0.1074 0.5907 0.2278
C10 C -0.0424(4) 0.4311(3) 0.18207(12)
H6 H -0.0857 0.3704 0.1902
C11 C 0.0897(4) 0.3925(3) 0.16325(13)
C12 C 0.1307(3) 0.5119(3) 0.15283(12)
H7 H 0.1844 0.5090 0.1838
C13 C 0.2181(3) 0.5116(3) 0.09901(14)
C14 C 0.2889(3) 0.6085(3) 0.08762(15)
C15 C 0.3455(4) 0.6252(4) 0.03404(17)
H8 H 0.3344 0.5807 0.0061
C16 C 0.4193(5) 0.7096(5) 0.0224(2)
H9 H 0.4584 0.7196 -0.0132
C17 C 0.4334(5) 0.7749(4) 0.0619(3)
H10 H 0.4823 0.8306 0.0537
C18 C 0.3781(4) 0.7621(4) 0.1142(2)
H11 H 0.3899 0.8087 0.1412
C19 C 0.3061(3) 0.6826(3) 0.12748(15)
H12 H 0.2673 0.6765 0.1633
C20 C -0.2709(3) 0.6564(3) 0.17749(14)
H13 H -0.2837 0.6503 0.1397
H14 H -0.3061 0.7525 0.1835
H15 H -0.3217 0.6130 0.2020
C21 C 0.1905(4) 0.2483(3) 0.15993(14)
C22 C 0.4318(4) 0.0880(3) 0.16410(16)
H16 H 0.3929 0.0195 0.1709
H17 H 0.4995 0.0670 0.1921
C23 C 0.5032(4) 0.0805(4) 0.10859(17)
H18 H 0.4339 0.1203 0.0809
H19 H 0.5621 -0.0151 0.1034
H20 H 0.5604 0.1315 0.1052
C24 C -0.0238(3) 0.9976(3) 0.14915(14)
H21 H 0.0266 1.0207 0.1165
H22 H 0.0348 0.9756 0.1805
C25 C -0.1586(3) 1.1231(3) 0.15882(14)
C26 C -0.2020(4) 1.2413(4) 0.12090(14)
H23 H -0.1474 1.2438 0.0884
C27 C -0.3265(5) 1.3560(4) 0.13115(18)
H24 H -0.3558 1.4354 0.1056
C28 C -0.4062(4) 1.3521(4) 0.1790(2)
H25 H -0.4894 1.4297 0.1859
C29 C -0.3650(4) 1.2351(4) 0.21693(16)
H26 H -0.4197 1.2328 0.2494
C30 C -0.2423(4) 1.1223(3) 0.20618(15)
H27 H -0.2146 1.0426 0.2316
O5 O 0.5940(2) 0.9168(2) 0.28206(9)
O6 O 0.7619(3) 0.4773(2) 0.42551(10)
O7 O 0.6978(2) 0.2639(2) 0.34753(10)
O8 O 0.8650(3) 0.3407(2) 0.31838(10)
N2 N 0.4924(3) 0.9654(2) 0.36934(11)
C31 C 0.5434(3) 0.8852(3) 0.32639(15)
C32 C 0.5284(3) 0.7452(3) 0.34318(13)
C33 C 0.4595(3) 0.7651(3) 0.40095(13)
C34 C 0.4402(3) 0.8978(3) 0.41355(13)
C35 C 0.3753(3) 0.9487(3) 0.46244(14)
H28 H 0.3613 1.0365 0.4701
C36 C 0.3314(4) 0.8617(5) 0.50016(14)
H29 H 0.2877 0.8927 0.5339
C37 C 0.3510(4) 0.7266(4) 0.48899(15)
H30 H 0.3206 0.6708 0.5148
C38 C 0.4162(4) 0.6818(3) 0.43895(14)
H31 H 0.4309 0.5942 0.4309
C39 C 0.4426(3) 0.7176(3) 0.30237(13)
H32 H 0.4687 0.7491 0.2649
C40 C 0.5089(4) 0.5621(3) 0.30841(13)
H33 H 0.4653 0.5093 0.2990
C41 C 0.6345(4) 0.5078(3) 0.32819(13)
C42 C 0.6756(3) 0.6171(3) 0.34126(12)
H34 H 0.7350 0.6361 0.3104
C43 C 0.7527(3) 0.5782(3) 0.39465(14)
C44 C 0.8201(3) 0.6708(3) 0.40836(15)
C45 C 0.8615(4) 0.6564(4) 0.46279(16)
H35 H 0.8427 0.5946 0.4897
C46 C 0.9289(5) 0.7308(5) 0.4772(2)
H36 H 0.9564 0.7191 0.5133
C47 C 0.9545(5) 0.8207(5) 0.4384(3)
H37 H 1.0000 0.8716 0.4480
C48 C 0.9157(4) 0.8393(4) 0.3857(2)
H38 H 0.9351 0.9024 0.3596
C49 C 0.8490(3) 0.7673(3) 0.37017(15)
H39 H 0.8221 0.7822 0.3338
C50 C 0.2834(3) 0.7891(4) 0.30952(15)
H40 H 0.2421 0.7670 0.2812
H41 H 0.2533 0.8881 0.3065
H42 H 0.2537 0.7574 0.3454
C51 C 0.7331(4) 0.3599(4) 0.33342(14)
C52 C 0.9734(4) 0.1995(4) 0.32407(17)
H43 H 1.0507 0.1915 0.2971
H44 H 0.9350 0.1362 0.3167
C53 C 1.0269(4) 0.1604(4) 0.38050(17)
H45 H 1.0818 0.2100 0.3851
H46 H 1.0851 0.0619 0.3858
H47 H 0.9487 0.1837 0.4073
C54 C 0.5169(3) 1.0859(3) 0.37249(14)
H48 H 0.5927 1.0850 0.3458
H49 H 0.5478 1.0805 0.4092
C55 C 0.3896(3) 1.2208(3) 0.36140(14)
C56 C 0.3495(4) 1.3213(4) 0.39637(15)
H50 H 0.3970 1.3025 0.4288
C57 C 0.2380(4) 1.4522(4) 0.38405(18)
H51 H 0.2119 1.5213 0.4075
C58 C 0.1682(4) 1.4760(4) 0.3363(2)
H52 H 0.0944 1.5625 0.3272
C59 C 0.2054(4) 1.3756(4) 0.30280(16)
H53 H 0.1555 1.3919 0.2712
C60 C 0.3155(4) 1.2505(3) 0.31490(14)
H54 H 0.3414 1.1830 0.2908
loop_
_geom_bond_atom_site_label_1
_geom_bond_atom_site_label_2
_geom_bond_site_symmetry_1
_geom_bond_site_symmetry_2
O1 C1 1_555 1_555
O2 C13 1_555 1_555
O3 C21 1_555 1_555
O4 C21 1_555 1_555
N1 C1 1_555 1_555
C1 C2 1_555 1_555
C2 C3 1_555 1_555
C3 C4 1_555 1_555
C4 N1 1_555 1_555
C5 C4 1_555 1_555
H1 C5 1_555 1_555
C6 C5 1_555 1_555
H2 C6 1_555 1_555
C7 C6 1_555 1_555
H3 C7 1_555 1_555
C8 C3 1_555 1_555
H4 C8 1_555 1_555
C9 C2 1_555 1_555
H5 C9 1_555 1_555
C10 C9 1_555 1_555
H6 C10 1_555 1_555
C11 C10 1_555 1_555
C12 C2 1_555 1_555
H7 C12 1_555 1_555
C13 C12 1_555 1_555
C14 C13 1_555 1_555
C15 C14 1_555 1_555
H8 C15 1_555 1_555
C16 C15 1_555 1_555
H9 C16 1_555 1_555
C17 C16 1_555 1_555
H10 C17 1_555 1_555
C18 C17 1_555 1_555
H11 C18 1_555 1_555
C19 C14 1_555 1_555
H12 C19 1_555 1_555
C20 C9 1_555 1_555
H13 C20 1_555 1_555
H14 C20 1_555 1_555
H15 C20 1_555 1_555
C21 C11 1_555 1_555
C22 O4 1_555 1_555
H16 C22 1_555 1_555
H17 C22 1_555 1_555
C23 C22 1_555 1_555
H18 C23 1_555 1_555
H19 C23 1_555 1_555
H20 C23 1_555 1_555
C24 N1 1_555 1_555
H21 C24 1_555 1_555
H22 C24 1_555 1_555
C25 C24 1_555 1_555
C26 C25 1_555 1_555
H23 C26 1_555 1_555
C27 C26 1_555 1_555
H24 C27 1_555 1_555
C28 C27 1_555 1_555
H25 C28 1_555 1_555
C29 C28 1_555 1_555
H26 C29 1_555 1_555
C30 C25 1_555 1_555
H27 C30 1_555 1_555
O5 C31 1_555 1_555
O6 C43 1_555 1_555
O7 C51 1_555 1_555
O8 C51 1_555 1_555
N2 C31 1_555 1_555
C31 C32 1_555 1_555
C32 C33 1_555 1_555
C33 C34 1_555 1_555
C34 N2 1_555 1_555
C35 C34 1_555 1_555
H28 C35 1_555 1_555
C36 C35 1_555 1_555
H29 C36 1_555 1_555
C37 C36 1_555 1_555
H30 C37 1_555 1_555
C38 C33 1_555 1_555
H31 C38 1_555 1_555
C39 C32 1_555 1_555
H32 C39 1_555 1_555
C40 C39 1_555 1_555
H33 C40 1_555 1_555
C41 C40 1_555 1_555
C42 C32 1_555 1_555
H34 C42 1_555 1_555
C43 C42 1_555 1_555
C44 C43 1_555 1_555
C45 C44 1_555 1_555
H35 C45 1_555 1_555
C46 C45 1_555 1_555
H36 C46 1_555 1_555
C47 C46 1_555 1_555
H37 C47 1_555 1_555
C48 C47 1_555 1_555
H38 C48 1_555 1_555
C49 C44 1_555 1_555
H39 C49 1_555 1_555
C50 C39 1_555 1_555
H40 C50 1_555 1_555
H41 C50 1_555 1_555
H42 C50 1_555 1_555
C51 C41 1_555 1_555
C52 O8 1_555 1_555
H43 C52 1_555 1_555
H44 C52 1_555 1_555
C53 C52 1_555 1_555
H45 C53 1_555 1_555
H46 C53 1_555 1_555
H47 C53 1_555 1_555
C54 N2 1_555 1_555
H48 C54 1_555 1_555
H49 C54 1_555 1_555
C55 C54 1_555 1_555
C56 C55 1_555 1_555
H50 C56 1_555 1_555
C57 C56 1_555 1_555
H51 C57 1_555 1_555
C58 C57 1_555 1_555
H52 C58 1_555 1_555
C59 C58 1_555 1_555
H53 C59 1_555 1_555
C60 C55 1_555 1_555
H54 C60 1_555 1_555
C7 C8 1_555 1_555
C11 C12 1_555 1_555
C18 C19 1_555 1_555
C29 C30 1_555 1_555
C37 C38 1_555 1_555
C41 C42 1_555 1_555
C48 C49 1_555 1_555
C59 C60 1_555 1_555

#END
