
#######################################################################
#
#                 Cambridge Crystallographic Data Centre
#                                CCDC 
#
#######################################################################
#
# If this CIF has been generated from an entry in the Cambridge 
# Structural Database, then it will include bibliographic, chemical, 
# crystal, experimental, refinement or atomic coordinate data resulting 
# from the CCDC's data processing and validation procedures.
#
#######################################################################

data_UMENAC
_chemical_formula_moiety         'C23 H16 Br1 N1 O2'
_chemical_name_systematic        
1-Benzyl-6-bromo-3-(2-oxo-2-phenylethylidene)-1,3-dihydro-2H-indol-2-one
_symmetry_cell_setting           monoclinic
_symmetry_space_group_name_H-M   'P 21/n'
_symmetry_Int_Tables_number      14
_space_group_name_Hall           '-P 2yn'
loop_
_symmetry_equiv_pos_site_id
_symmetry_equiv_pos_as_xyz
1 x,y,z
2 1/2-x,1/2+y,1/2-z
3 -x,-y,-z
4 1/2+x,1/2-y,1/2+z
_cell_length_a                   8.2650(17)
_cell_length_b                   13.415(3)
_cell_length_c                   16.413(3)
_cell_angle_alpha                90
_cell_angle_beta                 92.032(4)
_cell_angle_gamma                90
_cell_volume                     1818.65
_exptl_crystal_colour            red
_exptl_crystal_description       prismatic
_chemical_melting_point          180-182deg.C
_cell_formula_units_Z            4
loop_
_atom_site_label
_atom_site_type_symbol
_atom_site_fract_x
_atom_site_fract_y
_atom_site_fract_z
Br1 Br 0.91041(4) 0.23605(2) 0.239103(16)
N1 N 0.9175(2) 0.36429(15) 0.54645(11)
O1 O 0.8706(2) 0.45942(15) 0.65938(9)
O2 O 0.5371(2) 0.64022(13) 0.43329(9)
C1 C 0.8502(3) 0.44198(19) 0.58709(14)
C2 C 0.8706(3) 0.36783(18) 0.46364(13)
C3 C 0.9145(3) 0.3027(2) 0.40324(14)
H1 H 0.9825 0.2487 0.4143
C4 C 0.8524(3) 0.3216(2) 0.32542(14)
C5 C 0.7508(3) 0.4006(2) 0.30741(14)
H2 H 0.7116 0.4106 0.2542
C6 C 0.7075(3) 0.46483(19) 0.36867(13)
H3 H 0.6382 0.5179 0.3570
C7 C 0.7682(3) 0.44973(17) 0.44790(12)
C8 C 0.7503(3) 0.50148(18) 0.52517(13)
C9 C 0.6758(3) 0.58325(18) 0.55194(13)
H4 H 0.6883 0.5958 0.6075
C10 C 0.5769(3) 0.65561(18) 0.50516(13)
C11 C 0.5253(3) 0.74893(18) 0.54553(14)
C12 C 0.5561(4) 0.7705(2) 0.62760(16)
H5 H 0.6134 0.7253 0.6605
C13 C 0.5023(4) 0.8584(2) 0.66037(16)
H6 H 0.5234 0.8719 0.7153
C14 C 0.4188(4) 0.9255(2) 0.61339(19)
H7 H 0.3835 0.9848 0.6361
C15 C 0.3867(4) 0.9058(2) 0.53269(18)
H8 H 0.3288 0.9516 0.5007
C16 C 0.4397(3) 0.8187(2) 0.49878(16)
H9 H 0.4179 0.8063 0.4437
C17 C 1.0391(3) 0.2975(2) 0.58318(15)
H10 H 1.0901 0.3308 0.6298
H11 H 1.1220 0.2858 0.5439
C18 C 0.9758(3) 0.19817(19) 0.61063(13)
C19 C 1.0509(3) 0.1111(2) 0.58779(15)
H12 H 1.1365 0.1137 0.5526
C20 C 0.9997(4) 0.0204(2) 0.6168(2)
H13 H 1.0516 -0.0377 0.6013
C21 C 0.8729(4) 0.0152(2) 0.66838(18)
H14 H 0.8388 -0.0461 0.6880
C22 C 0.7969(3) 0.1015(2) 0.69070(16)
H15 H 0.7103 0.0986 0.7253
C23 C 0.8482(3) 0.1920(2) 0.66227(14)
H16 H 0.7961 0.2500 0.6781
loop_
_geom_bond_atom_site_label_1
_geom_bond_atom_site_label_2
_geom_bond_site_symmetry_1
_geom_bond_site_symmetry_2
Br1 C4 1_555 1_555
N1 C1 1_555 1_555
O1 C1 1_555 1_555
O2 C10 1_555 1_555
C1 C8 1_555 1_555
C2 N1 1_555 1_555
C3 C2 1_555 1_555
H1 C3 1_555 1_555
C4 C3 1_555 1_555
C5 C4 1_555 1_555
H2 C5 1_555 1_555
C6 C5 1_555 1_555
H3 C6 1_555 1_555
C7 C2 1_555 1_555
C8 C7 1_555 1_555
C9 C8 1_555 1_555
H4 C9 1_555 1_555
C10 C9 1_555 1_555
C11 C10 1_555 1_555
C12 C11 1_555 1_555
H5 C12 1_555 1_555
C13 C12 1_555 1_555
H6 C13 1_555 1_555
C14 C13 1_555 1_555
H7 C14 1_555 1_555
C15 C14 1_555 1_555
H8 C15 1_555 1_555
C16 C11 1_555 1_555
H9 C16 1_555 1_555
C17 N1 1_555 1_555
H10 C17 1_555 1_555
H11 C17 1_555 1_555
C18 C17 1_555 1_555
C19 C18 1_555 1_555
H12 C19 1_555 1_555
C20 C19 1_555 1_555
H13 C20 1_555 1_555
C21 C20 1_555 1_555
H14 C21 1_555 1_555
C22 C21 1_555 1_555
H15 C22 1_555 1_555
C23 C18 1_555 1_555
H16 C23 1_555 1_555
C6 C7 1_555 1_555
C15 C16 1_555 1_555
C22 C23 1_555 1_555

#END
