
#######################################################################
#
#                 Cambridge Crystallographic Data Centre
#                                CCDC 
#
#######################################################################
#
# If this CIF has been generated from an entry in the Cambridge 
# Structural Database, then it will include bibliographic, chemical, 
# crystal, experimental, refinement or atomic coordinate data resulting 
# from the CCDC's data processing and validation procedures.
#
#######################################################################

data_UMEPAE
_chemical_formula_moiety         'C25 H21 Br1 N2 O5'
_chemical_name_systematic        
'(2R,3S,5S)-Methyl 3-(2-bromophenyl)-1-(4-nitrobenzoyl)-5-phenylprolinate'
_symmetry_cell_setting           monoclinic
_symmetry_space_group_name_H-M   'P 21'
_symmetry_Int_Tables_number      4
_space_group_name_Hall           'P 2yb'
loop_
_symmetry_equiv_pos_site_id
_symmetry_equiv_pos_as_xyz
1 x,y,z
2 -x,1/2+y,-z
_cell_length_a                   18.2314(8)
_cell_length_b                   7.6297(3)
_cell_length_c                   18.9377(8)
_cell_angle_alpha                90
_cell_angle_beta                 112.7450(10)
_cell_angle_gamma                90
_cell_volume                     2429.38
_chemical_melting_point          86-89deg.C
_cell_formula_units_Z            4
_exptl_crystal_recrystallization_method 'ethyl acetate/hexane'
loop_
_atom_site_label
_atom_site_type_symbol
_atom_site_fract_x
_atom_site_fract_y
_atom_site_fract_z
Br1 Br 0.92554(4) 0.34777(12) 0.97690(4)
O1 O 0.6043(3) -0.0096(6) 0.9597(3)
O2 O 0.7375(3) 0.0600(7) 0.8951(3)
O3 O 0.8106(2) 0.0042(6) 1.0168(2)
O4 O 0.2207(3) 0.3792(9) 0.7927(4)
O5 O 0.2234(3) 0.2158(11) 0.7024(4)
N1 N 0.6371(2) 0.2682(6) 0.9443(3)
N2 N 0.2541(3) 0.2830(9) 0.7655(4)
C1 C 0.9115(3) 0.4332(8) 1.0659(4)
C2 C 0.9796(4) 0.4786(10) 1.1284(4)
H1 H 1.0293 0.4700 1.1256
C3 C 0.9733(5) 0.5347(11) 1.1928(5)
H2 H 1.0188 0.5678 1.2343
C4 C 0.8992(4) 0.5439(13) 1.1983(5)
H3 H 0.8953 0.5785 1.2438
C5 C 0.8316(4) 0.5008(10) 1.1353(4)
H4 H 0.7822 0.5087 1.1387
C6 C 0.8359(3) 0.4453(8) 1.0660(3)
C7 C 0.7599(3) 0.4126(7) 0.9955(3)
H5 H 0.7727 0.4231 0.9500
C8 C 0.7214(3) 0.2330(7) 0.9933(3)
H6 H 0.7260 0.2004 1.0449
C9 C 0.6205(3) 0.4556(7) 0.9231(3)
H7 H 0.5715 0.4909 0.9290
C10 C 0.6928(3) 0.5401(7) 0.9872(3)
H8 H 0.7039 0.6557 0.9724
H9 H 0.6842 0.5494 1.0345
C11 C 0.7551(3) 0.0906(7) 0.9607(3)
C12 C 0.8565(4) -0.1251(10) 0.9930(5)
H10 H 0.8207 -0.2019 0.9552
H11 H 0.8893 -0.1924 1.0367
H12 H 0.8895 -0.0653 0.9717
C13 C 0.5826(3) 0.1384(8) 0.9340(3)
C14 C 0.4981(3) 0.1803(7) 0.8902(3)
C15 C 0.4624(4) 0.1255(9) 0.8147(3)
H13 H 0.4922 0.0675 0.7917
C16 C 0.3814(4) 0.1579(10) 0.7734(4)
H14 H 0.3566 0.1211 0.7228
C17 C 0.3391(3) 0.2453(8) 0.8089(3)
C18 C 0.3725(4) 0.2977(8) 0.8837(4)
H15 H 0.3422 0.3543 0.9066
C19 C 0.4545(3) 0.2637(8) 0.9254(3)
H16 H 0.4787 0.2977 0.9764
C20 C 0.6144(3) 0.5007(8) 0.8428(3)
C21 C 0.6125(3) 0.3778(9) 0.7895(3)
H17 H 0.6159 0.2595 0.8022
C22 C 0.6055(5) 0.4278(11) 0.7164(4)
H18 H 0.6050 0.3439 0.6806
C23 C 0.5992(4) 0.6048(13) 0.6977(5)
H19 H 0.5926 0.6394 0.6485
C24 C 0.6027(4) 0.7279(11) 0.7509(4)
H20 H 0.6004 0.8462 0.7384
C25 C 0.6097(4) 0.6783(9) 0.8234(4)
H21 H 0.6113 0.7631 0.8592
Br2 Br 0.19159(5) 0.15968(12) 0.22277(5)
O6 O 0.2034(3) 0.7084(6) 0.4801(3)
O7 O 0.2955(3) 0.5341(8) 0.3726(3)
O8 O 0.1699(3) 0.5723(6) 0.2931(2)
O9 O 0.4523(3) 0.6896(8) 0.8753(3)
O10 O 0.3426(3) 0.8092(9) 0.8679(3)
N3 N 0.2392(3) 0.4280(6) 0.4860(3)
N4 N 0.3827(3) 0.7300(7) 0.8389(3)
C26 C 0.1006(4) 0.1274(9) 0.2484(4)
C27 C 0.0315(5) 0.0740(10) 0.1911(4)
H22 H 0.0306 0.0491 0.1427
C28 C -0.0367(5) 0.0572(12) 0.2056(5)
H23 H -0.0838 0.0231 0.1664
C29 C -0.0357(4) 0.0898(15) 0.2760(5)
H24 H -0.0817 0.0760 0.2856
C30 C 0.0347(4) 0.1442(13) 0.3341(4)
H25 H 0.0350 0.1692 0.3823
C31 C 0.1057(3) 0.1624(9) 0.3214(4)
C32 C 0.1836(3) 0.2155(8) 0.3880(3)
H26 H 0.2288 0.1783 0.3758
C33 C 0.1900(3) 0.4139(8) 0.4036(3)
H27 H 0.1370 0.4615 0.3935
C34 C 0.2573(3) 0.2528(7) 0.5234(3)
H28 H 0.2490 0.2572 0.5715
C35 C 0.1938(4) 0.1397(8) 0.4671(4)
H29 H 0.1446 0.1477 0.4753
H30 H 0.2105 0.0181 0.4716
C36 C 0.2269(4) 0.5128(8) 0.3564(3)
C37 C 0.1986(5) 0.6643(15) 0.2409(4)
H31 H 0.2337 0.7573 0.2679
H32 H 0.1543 0.7123 0.1990
H33 H 0.2268 0.5836 0.2215
C38 C 0.2369(4) 0.5831(8) 0.5202(4)
C39 C 0.2755(3) 0.6039(7) 0.6046(3)
C40 C 0.2327(4) 0.6906(10) 0.6398(4)
H34 H 0.1801 0.7222 0.6117
C41 C 0.2672(4) 0.7307(10) 0.7162(4)
H35 H 0.2380 0.7879 0.7402
C42 C 0.3461(3) 0.6852(8) 0.7576(3)
C43 C 0.3899(4) 0.6017(8) 0.7239(4)
H36 H 0.4429 0.5737 0.7522
C44 C 0.3548(4) 0.5589(8) 0.6470(3)
H37 H 0.3841 0.5001 0.6236
C45 C 0.3414(3) 0.1887(7) 0.5399(3)
C46 C 0.3640(4) 0.0323(8) 0.5801(4)
H38 H 0.3277 -0.0286 0.5944
C47 C 0.4400(4) -0.0336(9) 0.5992(4)
H39 H 0.4542 -0.1394 0.6253
C48 C 0.4941(4) 0.0561(10) 0.5797(4)
H40 H 0.5456 0.0136 0.5940
C49 C 0.4722(4) 0.2092(9) 0.5390(3)
H41 H 0.5086 0.2694 0.5246
C50 C 0.3951(4) 0.2748(8) 0.5190(3)
H42 H 0.3805 0.3784 0.4912
H43? H 0.4743 0.6706 0.8456
H44? H 0.2957 0.7817 0.8460
loop_
_geom_bond_atom_site_label_1
_geom_bond_atom_site_label_2
_geom_bond_site_symmetry_1
_geom_bond_site_symmetry_2
Br1 C1 1_555 1_555
O1 C13 1_555 1_555
O2 C11 1_555 1_555
O3 C11 1_555 1_555
O4 N2 1_555 1_555
O5 N2 1_555 1_555
N1 C8 1_555 1_555
N2 C17 1_555 1_555
C1 C2 1_555 1_555
C2 H1 1_555 1_555
C3 C2 1_555 1_555
H2 C3 1_555 1_555
C4 C3 1_555 1_555
H3 C4 1_555 1_555
C5 C4 1_555 1_555
H4 C5 1_555 1_555
C6 C1 1_555 1_555
C7 C6 1_555 1_555
H5 C7 1_555 1_555
C8 C7 1_555 1_555
H6 C8 1_555 1_555
C9 N1 1_555 1_555
H7 C9 1_555 1_555
C10 C7 1_555 1_555
H8 C10 1_555 1_555
H9 C10 1_555 1_555
C11 C8 1_555 1_555
C12 O3 1_555 1_555
H10 C12 1_555 1_555
H11 C12 1_555 1_555
H12 C12 1_555 1_555
C13 N1 1_555 1_555
C14 C13 1_555 1_555
C15 C14 1_555 1_555
H13 C15 1_555 1_555
C16 C15 1_555 1_555
H14 C16 1_555 1_555
C17 C16 1_555 1_555
C18 C17 1_555 1_555
H15 C18 1_555 1_555
C19 C14 1_555 1_555
H16 C19 1_555 1_555
C20 C9 1_555 1_555
C21 C20 1_555 1_555
H17 C21 1_555 1_555
C22 C21 1_555 1_555
H18 C22 1_555 1_555
C23 C22 1_555 1_555
H19 C23 1_555 1_555
C24 C23 1_555 1_555
H20 C24 1_555 1_555
C25 C20 1_555 1_555
H21 C25 1_555 1_555
Br2 C26 1_555 1_555
O6 C38 1_555 1_555
O7 C36 1_555 1_555
O8 C36 1_555 1_555
O9 N4 1_555 1_555
O10 N4 1_555 1_555
N3 C33 1_555 1_555
N4 C42 1_555 1_555
C26 C27 1_555 1_555
C27 H22 1_555 1_555
C28 C27 1_555 1_555
H23 C28 1_555 1_555
C29 C28 1_555 1_555
H24 C29 1_555 1_555
C30 C29 1_555 1_555
H25 C30 1_555 1_555
C31 C26 1_555 1_555
C32 C31 1_555 1_555
H26 C32 1_555 1_555
C33 C32 1_555 1_555
H27 C33 1_555 1_555
C34 N3 1_555 1_555
H28 C34 1_555 1_555
C35 C32 1_555 1_555
H29 C35 1_555 1_555
H30 C35 1_555 1_555
C36 C33 1_555 1_555
C37 O8 1_555 1_555
H31 C37 1_555 1_555
H32 C37 1_555 1_555
H33 C37 1_555 1_555
C38 N3 1_555 1_555
C39 C38 1_555 1_555
C40 C39 1_555 1_555
H34 C40 1_555 1_555
C41 C40 1_555 1_555
H35 C41 1_555 1_555
C42 C41 1_555 1_555
C43 C42 1_555 1_555
H36 C43 1_555 1_555
C44 C39 1_555 1_555
H37 C44 1_555 1_555
C45 C34 1_555 1_555
C46 C45 1_555 1_555
H38 C46 1_555 1_555
C47 C46 1_555 1_555
H39 C47 1_555 1_555
C48 C47 1_555 1_555
H40 C48 1_555 1_555
C49 C48 1_555 1_555
H41 C49 1_555 1_555
C50 C45 1_555 1_555
H42 C50 1_555 1_555
C5 C6 1_555 1_555
C9 C10 1_555 1_555
C18 C19 1_555 1_555
C24 C25 1_555 1_555
C30 C31 1_555 1_555
C34 C35 1_555 1_555
C43 C44 1_555 1_555
C49 C50 1_555 1_555

#END
