
#######################################################################
#
#                 Cambridge Crystallographic Data Centre
#                                CCDC 
#
#######################################################################
#
# If this CIF has been generated from an entry in the Cambridge 
# Structural Database, then it will include bibliographic, chemical, 
# crystal, experimental, refinement or atomic coordinate data resulting 
# from the CCDC's data processing and validation procedures.
#
#######################################################################

data_UMEREJ
_chemical_formula_moiety         'C13 H20 N4 O2'
_chemical_name_systematic        
1,6-Dimethoxy-4,9-dimethyl-2,3,7,8-tetra-azatetracyclo(7.3.1.0^4,12^.0^6,10^)trideca-2,7-diene
_symmetry_cell_setting           monoclinic
_symmetry_space_group_name_H-M   'P 21/c'
_symmetry_Int_Tables_number      14
_space_group_name_Hall           '-P 2ybc'
loop_
_symmetry_equiv_pos_site_id
_symmetry_equiv_pos_as_xyz
1 x,y,z
2 x,1/2-y,1/2+z
3 -x,-y,-z
4 -x,1/2+y,1/2-z
_cell_length_a                   9.9032(11)
_cell_length_b                   10.1842(5)
_cell_length_c                   13.5841(14)
_cell_angle_alpha                90
_cell_angle_beta                 102.555(5)
_cell_angle_gamma                90
_cell_volume                     1337.28
_exptl_crystal_colour            white
_chemical_melting_point          194deg.C
_cell_formula_units_Z            4
loop_
_atom_site_label
_atom_site_type_symbol
_atom_site_fract_x
_atom_site_fract_y
_atom_site_fract_z
C1 C 0.14753(14) 0.07565(12) 0.31550(9)
C2 C 0.2965(2) 0.04684(15) 0.36604(10)
C3 C 0.40087(14) 0.06418(13) 0.29858(10)
C4 C 0.37417(14) 0.18741(12) 0.23191(9)
C5 C 0.33043(15) 0.13101(13) 0.12428(10)
C6 C 0.1810(2) 0.15844(15) 0.07352(10)
C7 C 0.07665(14) 0.14224(13) 0.14095(9)
C8 C 0.12814(13) 0.19839(12) 0.24816(9)
C9 C 0.26305(14) 0.27476(12) 0.25887(10)
C10 C -0.0694(2) 0.0967(2) 0.36656(14)
C11 C 0.5481(2) 0.0548(2) 0.36257(14)
C12 C 0.5537(2) 0.1495(2) 0.0822(2)
C13 C -0.0645(2) 0.1950(2) 0.08749(13)
N1 N 0.05714(12) -0.00196(11) 0.15662(8)
N2 N 0.09171(13) -0.03651(11) 0.24571(9)
N3 N 0.35064(13) -0.01520(11) 0.13670(8)
N4 N 0.38514(13) -0.04953(12) 0.22588(9)
O1 O 0.07554(11) 0.07515(10) 0.39490(7)
O2 O 0.40906(12) 0.17461(11) 0.05503(8)
H1 H 0.2975(18) -0.0415(18) 0.3908(13)
H2 H 0.3225(17) 0.1111(17) 0.4258(13)
H3 H 0.4606(16) 0.2357(16) 0.2356(11)
H4 H 0.1794(16) 0.2491(20) 0.0519(13)
H5 H 0.1564(17) 0.1011(17) 0.0111(13)
H6 H 0.0545(17) 0.2559(18) 0.2654(12)
H7 H 0.2501(17) 0.3498(17) 0.2125(13)
H8 H 0.2933(17) 0.3076(15) 0.3286(13)
H9 H -0.1158(25) 0.0566(23) 0.3031(18)
H10 H -0.1099(25) 0.0715(21) 0.4227(18)
H11 H -0.0874(23) 0.1911(22) 0.3560(18)
H12 H 0.5650(24) -0.0307(23) 0.4061(17)
H13 H 0.6169(23) 0.0694(19) 0.3180(16)
H14 H 0.5610(22) 0.1326(21) 0.4086(17)
H15 H 0.5712(25) 0.0601(23) 0.0963(18)
H16 H 0.6019(27) 0.2035(24) 0.1409(22)
H17 H 0.5899(26) 0.1732(21) 0.0269(18)
H18 H -0.0946(21) 0.1542(21) 0.0217(16)
H19 H -0.0538(23) 0.2936(22) 0.0790(16)
H20 H -0.1344(23) 0.1722(20) 0.1281(17)
loop_
_geom_bond_atom_site_label_1
_geom_bond_atom_site_label_2
_geom_bond_site_symmetry_1
_geom_bond_site_symmetry_2
C1 C2 1_555 1_555
C2 C3 1_555 1_555
C3 C4 1_555 1_555
C4 C5 1_555 1_555
C5 C6 1_555 1_555
C6 C7 1_555 1_555
C7 C8 1_555 1_555
C8 C1 1_555 1_555
C9 C4 1_555 1_555
C10 O1 1_555 1_555
C11 C3 1_555 1_555
C12 O2 1_555 1_555
C13 C7 1_555 1_555
N1 C7 1_555 1_555
N2 C1 1_555 1_555
N3 C5 1_555 1_555
N4 C3 1_555 1_555
O1 C1 1_555 1_555
O2 C5 1_555 1_555
H1 C2 1_555 1_555
H2 C2 1_555 1_555
H3 C4 1_555 1_555
H4 C6 1_555 1_555
H5 C6 1_555 1_555
H6 C8 1_555 1_555
H7 C9 1_555 1_555
H8 C9 1_555 1_555
H9 C10 1_555 1_555
H10 C10 1_555 1_555
H11 C10 1_555 1_555
H12 C11 1_555 1_555
H13 C11 1_555 1_555
H14 C11 1_555 1_555
H15 C12 1_555 1_555
H16 C12 1_555 1_555
H17 C12 1_555 1_555
H18 C13 1_555 1_555
H19 C13 1_555 1_555
H20 C13 1_555 1_555
C8 C9 1_555 1_555
N1 N2 1_555 1_555
N3 N4 1_555 1_555

#END
