
#######################################################################
#
#                 Cambridge Crystallographic Data Centre
#                                CCDC 
#
#######################################################################
#
# If this CIF has been generated from an entry in the Cambridge 
# Structural Database, then it will include bibliographic, chemical, 
# crystal, experimental, refinement or atomic coordinate data resulting 
# from the CCDC's data processing and validation procedures.
#
#######################################################################

data_UMERIN
_chemical_formula_moiety         'C25 H28 N4'
_chemical_name_systematic        
3,8-Dibenzyl-4,9-dimethyl-2,3,7,8-tetra-azatetracyclo(7.3.1.0^4,12^.0^6,10^)trideca-1,6-diene
_symmetry_cell_setting           monoclinic
_symmetry_space_group_name_H-M   'C 2/c'
_symmetry_Int_Tables_number      15
_space_group_name_Hall           '-C 2yn'
loop_
_symmetry_equiv_pos_site_id
_symmetry_equiv_pos_as_xyz
1 x,y,z
2 1/2+x,1/2+y,z
3 x,-y,1/2+z
4 1/2+x,1/2-y,1/2+z
5 -x,-y,-z
6 1/2-x,1/2-y,-z
7 -x,y,1/2-z
8 1/2-x,1/2+y,1/2-z
_cell_length_a                   19.6031(13)
_cell_length_b                   9.2442(6)
_cell_length_c                   12.3179(6)
_cell_angle_alpha                90
_cell_angle_beta                 110.135(4)
_cell_angle_gamma                90
_cell_volume                     2095.77
_exptl_crystal_colour            yellow
_exptl_crystal_description       plate
_chemical_melting_point          176-177deg.C
_cell_formula_units_Z            4
_exptl_crystal_recrystallization_method tetrahydrofuran
loop_
_atom_site_label
_atom_site_type_symbol
_atom_site_fract_x
_atom_site_fract_y
_atom_site_fract_z
C1 C 0.90044(10) -0.0043(2) 0.26056(14)
C2 C 0.90244(9) -0.0329(2) 0.13564(12)
C3 C 0.97200(10) -0.11670(18) 0.14501(12)
C4 C 0.97638(9) 0.00783(17) 0.34126(11)
C5 C 1.0000 -0.2165(3) 0.2500
C6 C 0.83234(15) -0.1051(4) 0.05998(19)
C7 C 0.87673(12) 0.2315(2) 0.08610(16)
C8 C 0.86359(9) 0.32916(18) -0.01662(13)
C9 C 0.90148(15) 0.4570(3) -0.0109(3)
C10 C 0.8882(2) 0.5432(3) -0.1094(4)
C11 C 0.83586(17) 0.5020(3) -0.2107(3)
C12 C 0.79854(13) 0.3790(3) -0.2170(2)
C13 C 0.81244(10) 0.2930(2) -0.12129(15)
N1 N 1.00797(7) 0.12704(15) 0.38017(9)
N2 N 0.91602(7) 0.10006(15) 0.07683(10)
H1 H 0.9631(9) -0.164(2) 0.0711(15)
H2 H 0.9670(10) -0.275(2) 0.2621(16)
H3 H 0.8350(12) -0.116(2) -0.020(2)
H4 H 0.8258(14) -0.201(3) 0.084(2)
H5 H 0.7902(15) -0.048(3) 0.059(2)
H6 H 0.9049(12) 0.288(3) 0.164(2)
H7 H 0.8244(15) 0.201(3) 0.082(2)
H8 H 0.9344(16) 0.475(4) 0.062(3)
H9 H 0.9111(16) 0.630(4) -0.105(3)
H10 H 0.8274(16) 0.562(4) -0.283(3)
H11 H 0.7569(17) 0.355(4) -0.297(3)
H12 H 0.7871(11) 0.199(2) -0.1306(15)
H13 H 0.8755(12) -0.087(3) 0.2735(19)
H14 H 0.8673(12) 0.085(3) 0.2566(19)
C4F C 1.02362(9) 0.00783(17) 0.15874(11)
C1F C 1.09956(10) -0.0043(2) 0.23944(14)
C2F C 1.09756(9) -0.0329(2) 0.36436(12)
C3F C 1.02800(10) -0.11670(18) 0.35499(12)
N2F N 1.08398(7) 0.10006(15) 0.42317(10)
C6F C 1.16766(15) -0.1051(4) 0.44002(19)
H3F H 1.1650(12) -0.116(2) 0.520(2)
H4F H 1.1742(14) -0.201(3) 0.416(2)
H5F H 1.2098(15) -0.048(3) 0.441(2)
C7F C 1.12327(12) 0.2315(2) 0.41390(16)
C8F C 1.13641(9) 0.32916(18) 0.51662(13)
C9F C 1.09852(15) 0.4570(3) 0.5109(3)
C10F C 1.1118(2) 0.5432(3) 0.6094(4)
C11F C 1.16414(17) 0.5020(3) 0.7107(3)
C12F C 1.20146(13) 0.3790(3) 0.7170(2)
C13F C 1.18756(10) 0.2930(2) 0.62129(15)
H12F H 1.2129(11) 0.199(2) 0.6306(15)
H11F H 1.2431(17) 0.355(4) 0.797(3)
H10F H 1.1726(16) 0.562(4) 0.783(3)
H9F H 1.0889(16) 0.630(4) 0.605(3)
H8F H 1.0656(16) 0.475(4) 0.438(3)
H6F H 1.0951(12) 0.288(3) 0.336(2)
H7F H 1.1756(15) 0.201(3) 0.418(2)
H2F H 1.0330(10) -0.275(2) 0.2379(16)
H1F H 1.0369(9) -0.164(2) 0.4289(15)
H13F H 1.1245(12) -0.087(3) 0.2265(19)
H14F H 1.1327(12) 0.085(3) 0.2434(19)
N1F N 0.99203(7) 0.12704(15) 0.11983(9)
loop_
_geom_bond_atom_site_label_1
_geom_bond_atom_site_label_2
_geom_bond_site_symmetry_1
_geom_bond_site_symmetry_2
C1 C2 1_555 1_555
C2 C3 1_555 1_555
C3 C5 1_555 1_555
C4 C1 1_555 1_555
C5 H2 1_555 1_555
C6 C2 1_555 1_555
C7 C8 1_555 1_555
C8 C9 1_555 1_555
C9 C10 1_555 1_555
C10 C11 1_555 1_555
C11 C12 1_555 1_555
C12 C13 1_555 1_555
C13 C8 1_555 1_555
N1 C4 1_555 1_555
N2 C2 1_555 1_555
H1 C3 1_555 1_555
H3 C6 1_555 1_555
H4 C6 1_555 1_555
H5 C6 1_555 1_555
H6 C7 1_555 1_555
H7 C7 1_555 1_555
H8 C9 1_555 1_555
H9 C10 1_555 1_555
H10 C11 1_555 1_555
H11 C12 1_555 1_555
H12 C13 1_555 1_555
H13 C1 1_555 1_555
H14 C1 1_555 1_555
C4F C3 1_555 1_555
C1F C4F 1_555 1_555
C2F C1F 1_555 1_555
C3F C4 1_555 1_555
N2F N1 1_555 1_555
C6F C2F 1_555 1_555
H3F C6F 1_555 1_555
H4F C6F 1_555 1_555
H5F C6F 1_555 1_555
C7F N2F 1_555 1_555
C8F C7F 1_555 1_555
C9F C8F 1_555 1_555
C10F C9F 1_555 1_555
C11F C10F 1_555 1_555
C12F C11F 1_555 1_555
C13F C8F 1_555 1_555
H12F C13F 1_555 1_555
H11F C12F 1_555 1_555
H10F C11F 1_555 1_555
H9F C10F 1_555 1_555
H8F C9F 1_555 1_555
H6F C7F 1_555 1_555
H7F C7F 1_555 1_555
H2F C5 1_555 1_555
H1F C3F 1_555 1_555
H13F C1F 1_555 1_555
H14F C1F 1_555 1_555
N1F N2 1_555 1_555
C5 C3F 1_555 1_555
C7 N2 1_555 1_555
C4F N1F 1_555 1_555
C2F C3F 1_555 1_555
C2F N2F 1_555 1_555
C12F C13F 1_555 1_555

#END
