
#######################################################################
#
#                 Cambridge Crystallographic Data Centre
#                                CCDC 
#
#######################################################################
#
# If this CIF has been generated from an entry in the Cambridge 
# Structural Database, then it will include bibliographic, chemical, 
# crystal, experimental, refinement or atomic coordinate data resulting 
# from the CCDC's data processing and validation procedures.
#
#######################################################################

data_UMICIE01
_chemical_formula_moiety         '2(K1 1+),C2 N14 O4 2-'
_chemical_name_systematic        
"di-potassium 5,5'-azobis(1-nitraminotetrazolate)"
_symmetry_cell_setting           triclinic
_symmetry_space_group_name_H-M   'P -1'
_symmetry_Int_Tables_number      2
_space_group_name_Hall           '-P 1'
loop_
_symmetry_equiv_pos_site_id
_symmetry_equiv_pos_as_xyz
1 x,y,z
2 -x,-y,-z
_cell_length_a                   7.127(5)
_cell_length_b                   8.807(6)
_cell_length_c                   9.600(7)
_cell_angle_alpha                108.354(12)
_cell_angle_beta                 93.455(13)
_cell_angle_gamma                90.082(13)
_cell_volume                     570.743
_exptl_crystal_colour            yellow
_exptl_crystal_description       block
_cell_formula_units_Z            2
loop_
_atom_site_label
_atom_site_type_symbol
_atom_site_fract_x
_atom_site_fract_y
_atom_site_fract_z
K1 K 0.39833(16) 0.24200(14) 0.03190(11)
K2 K 0.08768(16) 0.06409(13) 0.29890(12)
N1 N 0.8855(6) 0.2645(5) 0.0639(4)
N2 N 0.7629(6) 0.3827(5) 0.0891(4)
N3 N 0.8365(6) 0.5156(5) 0.1998(4)
N4 N 0.9053(6) 0.6417(5) 0.1695(4)
N5 N 0.9377(6) 0.7530(5) 0.2978(5)
N6 N 0.8909(6) 0.7011(5) 0.4093(4)
N7 N 0.7556(6) 0.4409(5) 0.4058(4)
N8 N 0.7434(6) 0.4986(5) 0.5432(4)
N9 N 0.6064(6) 0.4373(5) 0.7394(4)
N10 N 0.5539(6) 0.3013(5) 0.7652(5)
N11 N 0.5848(6) 0.1749(5) 0.6533(4)
N12 N 0.6554(5) 0.2295(5) 0.5510(4)
N13 N 0.7270(6) 0.1244(5) 0.4264(4)
N14 N 0.6097(6) 0.1143(5) 0.3116(5)
O1 O 0.8364(6) 0.1424(5) -0.0358(4)
O2 O 1.0385(5) 0.2798(4) 0.1384(4)
O3 O 0.6662(6) 0.0325(5) 0.1898(4)
O4 O 0.4560(5) 0.1835(4) 0.3204(4)
C1 C 0.8281(6) 0.5527(6) 0.3462(5)
C2 C 0.6714(7) 0.3906(6) 0.6061(5)
loop_
_geom_bond_atom_site_label_1
_geom_bond_atom_site_label_2
_geom_bond_site_symmetry_1
_geom_bond_site_symmetry_2
N1 N2 1_555 1_555
N2 N3 1_555 1_555
N3 N4 1_555 1_555
N4 N5 1_555 1_555
N5 N6 1_555 1_555
N6 C1 1_555 1_555
N7 N8 1_555 1_555
N8 C2 1_555 1_555
N9 N10 1_555 1_555
N10 N11 1_555 1_555
N11 N12 1_555 1_555
N12 N13 1_555 1_555
N13 N14 1_555 1_555
N14 O3 1_555 1_555
O1 N1 1_555 1_555
O2 N1 1_555 1_555
O4 N14 1_555 1_555
C1 N3 1_555 1_555
C2 N9 1_555 1_555
N7 C1 1_555 1_555
N12 C2 1_555 1_555

#END
