
#######################################################################
#
#                 Cambridge Crystallographic Data Centre
#                                CCDC 
#
#######################################################################
#
# If this CIF has been generated from an entry in the Cambridge 
# Structural Database, then it will include bibliographic, chemical, 
# crystal, experimental, refinement or atomic coordinate data resulting 
# from the CCDC's data processing and validation procedures.
#
#######################################################################

data_UMIMUY
_chemical_formula_moiety         'C10 H8 N4,C6 H10 O4'
_chemical_name_systematic        'Azopyridine adipic acid'
_symmetry_cell_setting           triclinic
_symmetry_space_group_name_H-M   'P -1'
_symmetry_Int_Tables_number      2
_space_group_name_Hall           '-P 1'
loop_
_symmetry_equiv_pos_site_id
_symmetry_equiv_pos_as_xyz
1 x,y,z
2 -x,-y,-z
_cell_length_a                   7.3740(7)
_cell_length_b                   11.2277(10)
_cell_length_c                   20.7195(12)
_cell_angle_alpha                88.932(2)
_cell_angle_beta                 89.456(7)
_cell_angle_gamma                72.564(2)
_cell_volume                     1636.31
_exptl_crystal_colour            red
_exptl_crystal_description       block
_cell_formula_units_Z            4
loop_
_atom_site_label
_atom_site_type_symbol
_atom_site_fract_x
_atom_site_fract_y
_atom_site_fract_z
N1 N -0.3945(6) 0.1120(4) -0.12699(14)
C1 C -0.4493(4) 0.1483(3) -0.19171(8)
C2 C -0.5048(4) 0.0615(2) -0.22519(14)
H1 H -0.5027 -0.0139 -0.2054
C3 C -0.5634(4) 0.0855(2) -0.28777(13)
H2 H -0.6019 0.0258 -0.3097
N2 N -0.5671(4) 0.1917(3) -0.31851(8)
C4 C -0.5142(4) 0.27590(19) -0.28509(12)
H3 H -0.5187 0.3509 -0.3058
C5 C -0.4523(4) 0.2592(3) -0.22084(12)
H4 H -0.4155 0.3200 -0.1993
N3 N -0.3197(6) 0.1756(3) -0.09771(13)
C6 C -0.2665(4) 0.1352(3) -0.03278(9)
C7 C -0.2037(4) 0.2147(2) 0.00353(15)
H5 H -0.1971 0.2899 -0.0143
C8 C -0.1507(4) 0.1840(3) 0.06593(14)
H6 H -0.1078 0.2382 0.0907
N4 N -0.1604(4) 0.0738(3) 0.09202(8)
C9 C -0.2232(4) -0.0057(2) 0.05572(14)
H7 H -0.2298 -0.0809 0.0735
C10 C -0.2762(4) 0.0250(3) -0.00668(13)
H8 H -0.3191 -0.0292 -0.0315
O1 O 0.0084(5) 0.1740(3) 0.22393(12)
O2 O -0.0589(4) -0.0037(2) 0.21312(11)
H9 H -0.0857 0.0259 0.1767
C11 C -0.0024(6) 0.0723(4) 0.24696(18)
C12 C 0.0495(6) 0.0331(4) 0.31487(15)
H10 H 0.1487 -0.0464 0.3149
H11 H -0.0605 0.0203 0.3366
C13 C 0.1182(6) 0.1259(3) 0.35334(15)
H12 H 0.0168 0.2041 0.3560
H13 H 0.2245 0.1423 0.3308
C14 C 0.1803(6) 0.0770(3) 0.42191(15)
H14 H 0.0767 0.0569 0.4442
H15 H 0.2873 0.0017 0.4198
C15 C 0.2364(6) 0.1770(3) 0.45838(15)
H16 H 0.1330 0.2544 0.4560
H17 H 0.3464 0.1914 0.4375
C16 C 0.2831(7) 0.1422(5) 0.5292(2)
O3 O 0.2904(5) 0.0476(3) 0.55529(12)
O4 O 0.3161(4) 0.2390(2) 0.55849(11)
H18 H 0.3433 0.2205 0.5964
N5 N 0.0999(5) -0.3544(3) 0.34394(14)
C17 C 0.0309(4) -0.3935(3) 0.28702(10)
C18 C -0.0078(4) -0.5053(2) 0.27880(11)
H19 H 0.0098 -0.5638 0.3123
C19 C -0.0735(4) -0.5276(2) 0.21934(14)
H20 H -0.0995 -0.6028 0.2134
N6 N -0.1014(4) -0.4453(3) 0.16954(9)
C20 C -0.0644(4) -0.3396(2) 0.17897(11)
H21 H -0.0840 -0.2823 0.1448
C21 C 0.0015(4) -0.30804(19) 0.23621(14)
H22 H 0.0255 -0.2319 0.2406
N7 N 0.1222(5) -0.4298(3) 0.38861(16)
C22 C 0.1928(4) -0.3861(3) 0.44774(10)
C23 C 0.2163(4) -0.2699(3) 0.45368(11)
H23 H 0.1910 -0.2128 0.4194
C24 C 0.2785(4) -0.2409(2) 0.51202(14)
H24 H 0.2936 -0.1620 0.5161
N8 N 0.3189(4) -0.3188(3) 0.56347(10)
C25 C 0.2948(4) -0.4292(3) 0.55555(11)
H25 H 0.3215 -0.4847 0.5905
C26 C 0.2328(4) -0.4695(2) 0.49945(15)
H26 H 0.2188 -0.5488 0.4967
O5 O -0.5259(5) -0.4341(3) -0.29055(12)
O6 O -0.5694(4) -0.2395(3) -0.32686(12)
H27 H -0.6008 -0.2689 -0.3593
C27 C -0.5224(6) -0.3250(4) -0.28209(19)
C28 C -0.4605(6) -0.2821(3) -0.22034(14)
H28 H -0.5587 -0.2084 -0.2061
H29 H -0.3462 -0.2583 -0.2285
C29 C -0.4209(6) -0.3805(3) -0.16625(15)
H30 H -0.3291 -0.4565 -0.1811
H31 H -0.5374 -0.3996 -0.1552
C30 C -0.3427(6) -0.3341(3) -0.10538(15)
H32 H -0.2248 -0.3165 -0.1160
H33 H -0.4335 -0.2576 -0.0906
C31 C -0.3083(6) -0.4335(4) -0.05241(16)
H34 H -0.4246 -0.4559 -0.0462
H35 H -0.2121 -0.5072 -0.0676
C32 C -0.2473(7) -0.4019(4) 0.01172(19)
O7 O -0.2244(4) -0.4901(3) 0.05454(11)
H36 H -0.1886 -0.4682 0.0884
O8 O -0.2218(5) -0.2997(3) 0.02327(12)
loop_
_geom_bond_atom_site_label_1
_geom_bond_atom_site_label_2
_geom_bond_site_symmetry_1
_geom_bond_site_symmetry_2
N1 C1 1_555 1_555
C1 C2 1_555 1_555
C2 H1 1_555 1_555
C3 C2 1_555 1_555
H2 C3 1_555 1_555
N2 C3 1_555 1_555
C4 N2 1_555 1_555
H3 C4 1_555 1_555
C5 C1 1_555 1_555
H4 C5 1_555 1_555
N3 N1 1_555 1_555
C6 N3 1_555 1_555
C7 C6 1_555 1_555
H5 C7 1_555 1_555
C8 C7 1_555 1_555
H6 C8 1_555 1_555
N4 C8 1_555 1_555
C9 N4 1_555 1_555
H7 C9 1_555 1_555
C10 C6 1_555 1_555
H8 C10 1_555 1_555
O1 C11 1_555 1_555
O2 H9 1_555 1_555
C11 O2 1_555 1_555
C12 C11 1_555 1_555
H10 C12 1_555 1_555
H11 C12 1_555 1_555
C13 C12 1_555 1_555
H12 C13 1_555 1_555
H13 C13 1_555 1_555
C14 C13 1_555 1_555
H14 C14 1_555 1_555
H15 C14 1_555 1_555
C15 C14 1_555 1_555
H16 C15 1_555 1_555
H17 C15 1_555 1_555
C16 C15 1_555 1_555
O3 C16 1_555 1_555
O4 C16 1_555 1_555
H18 O4 1_555 1_555
N5 C17 1_555 1_555
C17 C18 1_555 1_555
C18 H19 1_555 1_555
C19 C18 1_555 1_555
H20 C19 1_555 1_555
N6 C19 1_555 1_555
C20 N6 1_555 1_555
H21 C20 1_555 1_555
C21 C17 1_555 1_555
H22 C21 1_555 1_555
N7 N5 1_555 1_555
C22 N7 1_555 1_555
C23 C22 1_555 1_555
H23 C23 1_555 1_555
C24 C23 1_555 1_555
H24 C24 1_555 1_555
N8 C24 1_555 1_555
C25 N8 1_555 1_555
H25 C25 1_555 1_555
C26 C22 1_555 1_555
H26 C26 1_555 1_555
O5 C27 1_555 1_555
O6 H27 1_555 1_555
C27 O6 1_555 1_555
C28 C27 1_555 1_555
H28 C28 1_555 1_555
H29 C28 1_555 1_555
C29 C28 1_555 1_555
H30 C29 1_555 1_555
H31 C29 1_555 1_555
C30 C29 1_555 1_555
H32 C30 1_555 1_555
H33 C30 1_555 1_555
C31 C30 1_555 1_555
H34 C31 1_555 1_555
H35 C31 1_555 1_555
C32 C31 1_555 1_555
O7 C32 1_555 1_555
H36 O7 1_555 1_555
O8 C32 1_555 1_555
C4 C5 1_555 1_555
C9 C10 1_555 1_555
C20 C21 1_555 1_555
C25 C26 1_555 1_555

#END
