
#######################################################################
#
#                 Cambridge Crystallographic Data Centre
#                                CCDC 
#
#######################################################################
#
# If this CIF has been generated from an entry in the Cambridge 
# Structural Database, then it will include bibliographic, chemical, 
# crystal, experimental, refinement or atomic coordinate data resulting 
# from the CCDC's data processing and validation procedures.
#
#######################################################################

data_UMINAF
_chemical_formula_moiety         'C10 H8 N4,C2 H2 O4'
_chemical_name_systematic        'Azapyridine oxalic acid'
_symmetry_cell_setting           monoclinic
_symmetry_space_group_name_H-M   'P 21/c'
_symmetry_Int_Tables_number      14
_space_group_name_Hall           '-P 2ybc'
loop_
_symmetry_equiv_pos_site_id
_symmetry_equiv_pos_as_xyz
1 x,y,z
2 x,1/2-y,1/2+z
3 -x,-y,-z
4 -x,1/2+y,1/2-z
_cell_length_a                   7.0625(6)
_cell_length_b                   20.2114(16)
_cell_length_c                   9.1179(4)
_cell_angle_alpha                90
_cell_angle_beta                 111.548(2)
_cell_angle_gamma                90
_cell_volume                     1210.55
_exptl_crystal_colour            yellow
_exptl_crystal_description       block
_cell_formula_units_Z            4
loop_
_atom_site_label
_atom_site_type_symbol
_atom_site_fract_x
_atom_site_fract_y
_atom_site_fract_z
C1 C -0.3113(13) 0.3815(4) -0.4315(9)
C2 C -0.3541(14) 0.4333(4) -0.5391(10)
H1 H -0.325(15) 0.482(5) -0.511(12)
C3 C -0.4266(14) 0.4188(4) -0.6956(10)
H2 H -0.450(16) 0.450(5) -0.777(13)
C4 C -0.4198(16) 0.3074(4) -0.6484(10)
H3 H -0.46(2) 0.257(7) -0.681(18)
C5 C -0.3457(15) 0.3171(4) -0.4876(10)
H4 H -0.348(17) 0.280(5) -0.420(15)
N1 N -0.4605(11) 0.3568(3) -0.7520(8)
C6 C -0.0938(13) 0.3702(4) -0.0146(9)
C7 C 0.0049(15) 0.3206(4) 0.0904(10)
H5 H 0.036(16) 0.279(5) 0.052(14)
C8 C 0.0763(14) 0.3334(4) 0.2494(10)
H6 H 0.145(13) 0.300(4) 0.335(11)
C9 C -0.0444(14) 0.4407(4) 0.2021(10)
H7 H -0.055(17) 0.480(5) 0.249(14)
C10 C -0.1205(14) 0.4316(4) 0.0434(10)
H8 H -0.187(16) 0.467(5) -0.035(13)
N2 N 0.0525(11) 0.3931(4) 0.3046(8)
N3 N -0.1634(12) 0.3533(3) -0.1781(8)
N4 N -0.2380(12) 0.3991(3) -0.2693(8)
C11 C 0.3353(13) 0.3819(4) 0.8616(7)
O1 O 0.3306(15) 0.4363(3) 0.9153(8)
O2 O 0.4103(12) 0.3304(3) 0.9489(7)
H9 H 0.4496 0.3409 1.0422
C12 C 0.2555(12) 0.3678(4) 0.6882(7)
O3 O 0.2665(12) 0.3132(3) 0.6357(8)
O4 O 0.1793(12) 0.4191(3) 0.6011(7)
H10 H 0.1262 0.4076 0.5087
loop_
_geom_bond_atom_site_label_1
_geom_bond_atom_site_label_2
_geom_bond_site_symmetry_1
_geom_bond_site_symmetry_2
C1 C2 1_555 1_555
C2 H1 1_555 1_555
C3 C2 1_555 1_555
H2 C3 1_555 1_555
C4 H3 1_555 1_555
C5 C1 1_555 1_555
H4 C5 1_555 1_555
N1 C3 1_555 1_555
C6 C7 1_555 1_555
C7 H5 1_555 1_555
C8 C7 1_555 1_555
H6 C8 1_555 1_555
C9 H7 1_555 1_555
C10 C6 1_555 1_555
H8 C10 1_555 1_555
N2 C8 1_555 1_555
N3 C6 1_555 1_555
N4 C1 1_555 1_555
C11 O1 1_555 1_555
O2 C11 1_555 1_555
H9 O2 1_555 1_555
C12 C11 1_555 1_555
O3 C12 1_555 1_555
O4 C12 1_555 1_555
H10 O4 1_555 1_555
C4 N1 1_555 1_555
C4 C5 1_555 1_555
C9 N2 1_555 1_555
C9 C10 1_555 1_555
N3 N4 1_555 1_555

#END
