
#######################################################################
#
#                 Cambridge Crystallographic Data Centre
#                                CCDC 
#
#######################################################################
#
# If this CIF has been generated from an entry in the Cambridge 
# Structural Database, then it will include bibliographic, chemical, 
# crystal, experimental, refinement or atomic coordinate data resulting 
# from the CCDC's data processing and validation procedures.
#
#######################################################################

data_UMININ
_chemical_formula_moiety         'C10 H8 N4,C4 H4 O4'
_chemical_name_systematic        'Azopyridine fumaric acid'
_symmetry_cell_setting           triclinic
_symmetry_space_group_name_H-M   'P -1'
_symmetry_Int_Tables_number      2
_space_group_name_Hall           '-P 1'
loop_
_symmetry_equiv_pos_site_id
_symmetry_equiv_pos_as_xyz
1 x,y,z
2 -x,-y,-z
_cell_length_a                   6.0466(5)
_cell_length_b                   7.5030(10)
_cell_length_c                   8.2755(5)
_cell_angle_alpha                90.968(4)
_cell_angle_beta                 100.955(6)
_cell_angle_gamma                110.526(9)
_cell_volume                     343.77
_exptl_crystal_colour            yellow
_exptl_crystal_description       block
_cell_formula_units_Z            1
loop_
_atom_site_label
_atom_site_type_symbol
_atom_site_fract_x
_atom_site_fract_y
_atom_site_fract_z
C1 C 0.1047(4) 0.3224(3) 0.5876(3)
C2 C 0.2753(4) 0.2470(3) 0.5607(3)
H1 H 0.367(5) 0.291(4) 0.482(4)
C3 C 0.2977(4) 0.0985(3) 0.6524(3)
H2 H 0.410(4) 0.040(4) 0.628(3)
N1 N 0.1631(3) 0.0256(3) 0.7631(2)
C4 C 0.0003(4) 0.1013(3) 0.7885(3)
H3 H -0.082(6) 0.048(5) 0.864(4)
C5 C -0.0337(4) 0.2519(3) 0.7056(3)
H4 H -0.145(5) 0.317(4) 0.738(3)
N2 N 0.0844(3) 0.4746(3) 0.4904(2)
N2A N -0.0844(3) 0.5254(3) 0.5096(2)
C1A C -0.1047(4) 0.6776(3) 0.4124(3)
C2A C -0.2753(4) 0.7530(3) 0.4393(3)
H1A H -0.367(5) 0.709(4) 0.518(4)
C3A C -0.2977(4) 0.9015(3) 0.3476(3)
H2A H -0.410(4) 0.960(4) 0.372(3)
N1A N -0.1631(3) 0.9744(3) 0.2369(2)
C4A C -0.0003(4) 0.8987(3) 0.2115(3)
H3A H 0.082(6) 0.952(5) 0.136(4)
C5A C 0.0337(4) 0.7481(3) 0.2944(3)
H4A H 0.145(5) 0.683(4) 0.262(3)
C6 C 0.4109(4) 0.5314(3) 1.0015(3)
C7 C 0.3815(4) 0.6863(3) 0.8994(3)
O1 O 0.5049(3) 0.7556(3) 0.8004(2)
O2 O 0.2022(3) 0.7369(3) 0.9272(3)
H5 H 0.300(5) 0.486(4) 1.070(4)
H6 H 0.191(6) 0.848(5) 0.874(5)
C6A C 0.5891(4) 0.4686(3) 0.9985(3)
C7A C 0.6185(4) 0.3137(3) 1.1006(3)
O1A O 0.4951(3) 0.2444(3) 1.1996(2)
O2A O 0.7978(3) 0.2631(3) 1.0728(3)
H6A H 0.809(6) 0.152(5) 1.126(5)
H5A H 0.700(5) 0.514(4) 0.930(4)
loop_
_geom_bond_atom_site_label_1
_geom_bond_atom_site_label_2
_geom_bond_site_symmetry_1
_geom_bond_site_symmetry_2
C1 C2 1_555 1_555
C2 H1 1_555 1_555
C3 C2 1_555 1_555
H2 C3 1_555 1_555
N1 C3 1_555 1_555
C4 N1 1_555 1_555
H3 C4 1_555 1_555
C5 C1 1_555 1_555
H4 C5 1_555 1_555
N2 C1 1_555 1_555
C6 C7 1_555 1_555
C7 O1 1_555 1_555
O2 C7 1_555 1_555
H5 C6 1_555 1_555
H6 O2 1_555 1_555
N2A N2 1_555 1_555
C1A N2A 1_555 1_555
C2A C1A 1_555 1_555
H1A C2A 1_555 1_555
C3A C2A 1_555 1_555
H2A C3A 1_555 1_555
N1A C3A 1_555 1_555
C4A N1A 1_555 1_555
H3A C4A 1_555 1_555
C5A C1A 1_555 1_555
H4A C5A 1_555 1_555
C6A C6 1_555 1_555
C7A C6A 1_555 1_555
O1A C7A 1_555 1_555
O2A C7A 1_555 1_555
H6A O2A 1_555 1_555
H5A C6A 1_555 1_555
C4 C5 1_555 1_555
C4A C5A 1_555 1_555

#END
