
#######################################################################
#
#                 Cambridge Crystallographic Data Centre
#                                CCDC 
#
#######################################################################
#
# If this CIF has been generated from an entry in the Cambridge 
# Structural Database, then it will include bibliographic, chemical, 
# crystal, experimental, refinement or atomic coordinate data resulting 
# from the CCDC's data processing and validation procedures.
#
#######################################################################

data_UMIPOX
_chemical_formula_moiety         'C8 H9 O8 1-,C6 H13 N4 1+'
_chemical_name_systematic        
'3,5,7-Triaza-1-azoniatricyclo[3.3.1.1^3,7^]decane 3,4-dicarboxy-2-(carboxymethyl)butanoate'
_symmetry_cell_setting           monoclinic
_symmetry_space_group_name_H-M   'P 21/c'
_symmetry_Int_Tables_number      14
_space_group_name_Hall           '-P 2ybc'
loop_
_symmetry_equiv_pos_site_id
_symmetry_equiv_pos_as_xyz
1 x,y,z
2 -x,1/2+y,1/2-z
3 -x,-y,-z
4 x,1/2-y,1/2+z
_cell_length_a                   11.4207(9)
_cell_length_b                   10.1095(6)
_cell_length_c                   14.9048(12)
_cell_angle_alpha                90
_cell_angle_beta                 96.2950(10)
_cell_angle_gamma                90
_cell_volume                     1710.5
_exptl_crystal_colour            colorless
_exptl_crystal_description       block
_cell_formula_units_Z            4
loop_
_atom_site_label
_atom_site_type_symbol
_atom_site_fract_x
_atom_site_fract_y
_atom_site_fract_z
N1 N 0.3328(2) 0.1674(2) -0.03900(17)
N2 N 0.2379(2) 0.3193(2) 0.05428(15)
H1 H 0.2397 0.4030 0.0769
N3 N 0.2512(2) 0.0900(2) 0.09407(16)
N4 N 0.1205(2) 0.1604(2) -0.03491(17)
C1 C 0.3361(3) 0.3009(3) -0.0042(2)
H2 H 0.3273 0.3634 -0.0539
H3 H 0.4114 0.3171 0.0309
C2 C 0.3449(3) 0.0755(3) 0.0364(2)
H4 H 0.3444 -0.0142 0.0134
H5 H 0.4201 0.0902 0.0719
C3 C 0.2176(4) 0.1460(3) -0.0906(2)
H6 H 0.2074 0.2090 -0.1399
H7 H 0.2154 0.0578 -0.1165
C4 C 0.2535(3) 0.2203(2) 0.13062(18)
H8 H 0.3279 0.2356 0.1670
H9 H 0.1907 0.2304 0.1689
C5 C 0.1389(3) 0.0684(3) 0.0398(2)
H10 H 0.1364 -0.0213 0.0166
H11 H 0.0756 0.0781 0.0778
C6 C 0.1209(3) 0.2940(3) -0.0008(2)
H12 H 0.0572 0.3056 0.0365
H13 H 0.1096 0.3561 -0.0506
O1 O 0.57093(15) 0.57985(18) 0.20077(13)
H14 H 0.5969 0.5105 0.1824
O2 O 0.40112(17) 0.48021(19) 0.16547(16)
O3 O 0.15120(14) 0.59264(15) 0.09303(10)
O4 O 0.26564(16) 0.75896(15) 0.06337(11)
O5 O 0.19731(16) 0.75027(16) 0.40133(11)
H15 H 0.2220 0.7572 0.4549
O6 O 0.33850(15) 0.89457(17) 0.38751(11)
O7 O 0.09434(18) 1.04756(18) 0.29721(16)
O8 O -0.06901(16) 0.93270(17) 0.29689(14)
H16 H -0.0909 0.9996 0.3213
C7 C 0.4568(2) 0.5737(2) 0.19489(17)
C8 C 0.2249(2) 0.6799(2) 0.11711(15)
C9 C 0.2568(2) 0.8257(2) 0.35454(15)
C10 C 0.0392(2) 0.9483(2) 0.27891(16)
C11 C 0.4034(2) 0.6968(2) 0.22799(17)
H17 H 0.4307 0.7721 0.1957
H18 H 0.4305 0.7084 0.2915
C12 C 0.2705(2) 0.6954(2) 0.21626(14)
H19 H 0.2436 0.6195 0.2494
C13 C 0.2197(2) 0.8219(2) 0.25402(14)
H20 H 0.2545 0.8983 0.2263
C14 C 0.0870(2) 0.8309(2) 0.23444(16)
H21 H 0.0659 0.8367 0.1697
H22 H 0.0517 0.7512 0.2557
loop_
_geom_bond_atom_site_label_1
_geom_bond_atom_site_label_2
_geom_bond_site_symmetry_1
_geom_bond_site_symmetry_2
N1 C1 1_555 1_555
N2 H1 1_555 1_555
N3 C2 1_555 1_555
N4 C3 1_555 1_555
C1 N2 1_555 1_555
H2 C1 1_555 1_555
H3 C1 1_555 1_555
C2 N1 1_555 1_555
H4 C2 1_555 1_555
H5 C2 1_555 1_555
C3 N1 1_555 1_555
H6 C3 1_555 1_555
H7 C3 1_555 1_555
C4 N2 1_555 1_555
H8 C4 1_555 1_555
H9 C4 1_555 1_555
C5 N3 1_555 1_555
H10 C5 1_555 1_555
H11 C5 1_555 1_555
C6 N2 1_555 1_555
H12 C6 1_555 1_555
H13 C6 1_555 1_555
O1 H14 1_555 1_555
O2 C7 1_555 1_555
O3 C8 1_555 1_555
O4 C8 1_555 1_555
O5 H15 1_555 1_555
O6 C9 1_555 1_555
O7 C10 1_555 1_555
O8 H16 1_555 1_555
C7 O1 1_555 1_555
C8 C12 1_555 1_555
C9 O5 1_555 1_555
C10 O8 1_555 1_555
C11 C7 1_555 1_555
H17 C11 1_555 1_555
H18 C11 1_555 1_555
C12 C11 1_555 1_555
H19 C12 1_555 1_555
C13 C9 1_555 1_555
H20 C13 1_555 1_555
C14 C10 1_555 1_555
H21 C14 1_555 1_555
H22 C14 1_555 1_555
N3 C4 1_555 1_555
N4 C5 1_555 1_555
N4 C6 1_555 1_555
C12 C13 1_555 1_555
C13 C14 1_555 1_555

#END
