
#######################################################################
#
#                 Cambridge Crystallographic Data Centre
#                                CCDC 
#
#######################################################################
#
# If this CIF has been generated from an entry in the Cambridge 
# Structural Database, then it will include bibliographic, chemical, 
# crystal, experimental, refinement or atomic coordinate data resulting 
# from the CCDC's data processing and validation procedures.
#
#######################################################################

data_UMIPIR
_chemical_formula_moiety         'C6 H12 N4,C7 H6 O5,0.5(H2 O1)'
_chemical_name_systematic        
'3,4,5-Trihydroxybenzoic acid 1,3,5,7-tetraazatricyclo[3.3.1.1^3,7^]decane hemihydrate'
_symmetry_cell_setting           triclinic
_symmetry_space_group_name_H-M   'P -1'
_symmetry_Int_Tables_number      2
_space_group_name_Hall           '-P 1'
loop_
_symmetry_equiv_pos_site_id
_symmetry_equiv_pos_as_xyz
1 x,y,z
2 -x,-y,-z
_cell_length_a                   7.9280(6)
_cell_length_b                   11.1452(9)
_cell_length_c                   18.2226(16)
_cell_angle_alpha                80.9580(10)
_cell_angle_beta                 86.285(2)
_cell_angle_gamma                70.1740(10)
_cell_volume                     1495.76
_exptl_crystal_colour            colorless
_exptl_crystal_description       block
_cell_formula_units_Z            4
loop_
_atom_site_label
_atom_site_type_symbol
_atom_site_fract_x
_atom_site_fract_y
_atom_site_fract_z
N1 N 0.4004(4) 0.2855(3) 0.06378(17)
N2 N 0.3615(4) 0.3732(3) 0.18192(15)
N3 N 0.1850(4) 0.2396(3) 0.15794(16)
N4 N 0.1227(4) 0.4594(3) 0.08964(17)
C1 C 0.4918(5) 0.3191(4) 0.1220(2)
H1 H 0.5466 0.3820 0.0997
H2 H 0.5861 0.2426 0.1437
C2 C 0.3168(5) 0.1891(4) 0.0990(2)
H3 H 0.2570 0.1662 0.0613
H4 H 0.4097 0.1116 0.1204
C3 C 0.2532(6) 0.4054(4) 0.0318(2)
H5 H 0.3054 0.4694 0.0087
H6 H 0.1917 0.3849 -0.0063
C4 C 0.2787(5) 0.2733(3) 0.2151(2)
H7 H 0.3717 0.1965 0.2372
H8 H 0.1942 0.3063 0.2540
C5 C 0.0460(5) 0.3607(4) 0.1235(2)
H9 H -0.0167 0.3403 0.0858
H10 H -0.0410 0.3952 0.1614
C6 C 0.2161(5) 0.4906(3) 0.1468(2)
H11 H 0.1306 0.5265 0.1848
H12 H 0.2682 0.5552 0.1247
N5 N 0.4696(4) 0.8323(3) 0.32994(16)
N6 N 0.5023(4) 0.7347(3) 0.46235(17)
N7 N 0.2552(4) 0.9367(3) 0.42460(15)
N8 N 0.2510(4) 0.7319(3) 0.38959(16)
C7 C 0.5965(5) 0.7607(4) 0.3916(2)
H13 H 0.6741 0.6795 0.3773
H14 H 0.6713 0.8106 0.3994
C8 C 0.3557(5) 0.9556(3) 0.3534(2)
H15 H 0.2705 1.0036 0.3146
H16 H 0.4303 1.0064 0.3600
C9 C 0.3530(5) 0.7560(4) 0.3199(2)
H17 H 0.4266 0.6741 0.3051
H18 H 0.2690 0.8020 0.2803
C10 C 0.3869(5) 0.8601(3) 0.4832(2)
H19 H 0.4618 0.9092 0.4923
H20 H 0.3228 0.8451 0.5290
C11 C 0.1406(5) 0.8584(3) 0.4114(2)
H21 H 0.0731 0.8445 0.4563
H22 H 0.0557 0.9061 0.3724
C12 C 0.3840(5) 0.6614(3) 0.4490(2)
H23 H 0.3208 0.6449 0.4947
H24 H 0.4574 0.5789 0.4350
O1 O 0.6469(3) 0.2336(2) 0.32247(14)
O2 O 0.5756(4) 0.4354(2) 0.26023(15)
H25 H 0.4922 0.4174 0.2461
O3 O 1.0264(3) 0.6170(2) 0.33266(14)
H26 H 1.1123 0.6179 0.3550
O4 O 1.2549(3) 0.4267(2) 0.43146(15)
H27 H 1.3151 0.3633 0.4592
O5 O 1.2145(3) 0.1808(2) 0.46242(14)
H28 H 1.2053 0.1111 0.4583
C13 C 0.6782(5) 0.3360(3) 0.30481(19)
C14 C 0.8356(5) 0.3581(3) 0.33456(19)
C15 C 0.8644(5) 0.4779(3) 0.31775(19)
H29 H 0.7894 0.5434 0.2846
C16 C 1.0051(5) 0.4983(3) 0.35063(19)
C17 C 1.1217(5) 0.3986(3) 0.40107(18)
C18 C 1.0956(5) 0.2777(3) 0.41463(18)
C19 C 0.9542(5) 0.2586(3) 0.38210(18)
H30 H 0.9383 0.1786 0.3921
O6 O 1.1711(4) 0.7317(3) -0.00073(16)
O7 O 1.3319(4) 0.8458(3) 0.03098(17)
H31 H 1.3988 0.8132 -0.0021
O8 O 0.9800(4) 1.0984(3) 0.22915(15)
H32 H 1.0734 1.1129 0.2172
O9 O 0.7002(4) 1.0082(2) 0.26547(14)
H33 H 0.7282 1.0621 0.2830
O10 O 0.6547(4) 0.8217(3) 0.19186(16)
H34 H 0.6169 0.8382 0.2334
C20 C 1.1891(6) 0.8072(4) 0.0370(2)
C21 C 1.0583(5) 0.8630(3) 0.0966(2)
C22 C 1.0843(5) 0.9557(3) 0.1346(2)
H35 H 1.1826 0.9829 0.1225
C23 C 0.9648(5) 1.0071(3) 0.1898(2)
C24 C 0.8208(5) 0.9626(3) 0.20977(19)
C25 C 0.7959(5) 0.8666(4) 0.1728(2)
C26 C 0.9128(5) 0.8193(4) 0.1165(2)
H36 H 0.8950 0.7580 0.0915
O11 O 0.5788(14) 0.6115(8) 0.1336(4)
H37 H 0.5770 0.5560 0.1711
H38 H 0.6004 0.6733 0.1485
loop_
_geom_bond_atom_site_label_1
_geom_bond_atom_site_label_2
_geom_bond_site_symmetry_1
_geom_bond_site_symmetry_2
N1 C1 1_555 1_555
N2 C1 1_555 1_555
N3 C2 1_555 1_555
N4 C3 1_555 1_555
C1 H1 1_555 1_555
H2 C1 1_555 1_555
C2 N1 1_555 1_555
H3 C2 1_555 1_555
H4 C2 1_555 1_555
C3 N1 1_555 1_555
H5 C3 1_555 1_555
H6 C3 1_555 1_555
C4 N2 1_555 1_555
H7 C4 1_555 1_555
H8 C4 1_555 1_555
C5 N3 1_555 1_555
H9 C5 1_555 1_555
H10 C5 1_555 1_555
C6 N2 1_555 1_555
H11 C6 1_555 1_555
H12 C6 1_555 1_555
N5 C7 1_555 1_555
N6 C7 1_555 1_555
N7 C8 1_555 1_555
N8 C9 1_555 1_555
C7 H13 1_555 1_555
H14 C7 1_555 1_555
C8 N5 1_555 1_555
H15 C8 1_555 1_555
H16 C8 1_555 1_555
C9 N5 1_555 1_555
H17 C9 1_555 1_555
H18 C9 1_555 1_555
C10 N6 1_555 1_555
H19 C10 1_555 1_555
H20 C10 1_555 1_555
C11 N7 1_555 1_555
H21 C11 1_555 1_555
H22 C11 1_555 1_555
C12 N6 1_555 1_555
H23 C12 1_555 1_555
H24 C12 1_555 1_555
O1 C13 1_555 1_555
O2 H25 1_555 1_555
O3 H26 1_555 1_555
O4 H27 1_555 1_555
O5 H28 1_555 1_555
C13 O2 1_555 1_555
C14 C13 1_555 1_555
C15 C14 1_555 1_555
H29 C15 1_555 1_555
C16 O3 1_555 1_555
C17 O4 1_555 1_555
C18 O5 1_555 1_555
C19 C14 1_555 1_555
H30 C19 1_555 1_555
O6 C20 1_555 1_555
O7 H31 1_555 1_555
O8 H32 1_555 1_555
O9 H33 1_555 1_555
O10 H34 1_555 1_555
C20 O7 1_555 1_555
C21 C20 1_555 1_555
C22 C21 1_555 1_555
H35 C22 1_555 1_555
C23 O8 1_555 1_555
C24 O9 1_555 1_555
C25 O10 1_555 1_555
C26 C21 1_555 1_555
H36 C26 1_555 1_555
O11 H37 1_555 1_555
H38 O11 1_555 1_555
N3 C4 1_555 1_555
N4 C5 1_555 1_555
N4 C6 1_555 1_555
N7 C10 1_555 1_555
N8 C11 1_555 1_555
N8 C12 1_555 1_555
C15 C16 1_555 1_555
C16 C17 1_555 1_555
C17 C18 1_555 1_555
C18 C19 1_555 1_555
C22 C23 1_555 1_555
C23 C24 1_555 1_555
C24 C25 1_555 1_555
C25 C26 1_555 1_555

#END
