
#######################################################################
#
#                 Cambridge Crystallographic Data Centre
#                                CCDC 
#
#######################################################################
#
# If this CIF has been generated from an entry in the Cambridge 
# Structural Database, then it will include bibliographic, chemical, 
# crystal, experimental, refinement or atomic coordinate data resulting 
# from the CCDC's data processing and validation procedures.
#
#######################################################################

data_UMIRAL
_chemical_formula_moiety         'C17 H16 F1 N1 O2'
_chemical_name_systematic        
3-(4-(Dimethylamino)phenyl)-1-(5-fluoro-2-hydroxyphenyl)prop-2-en-1-one
_symmetry_cell_setting           monoclinic
_symmetry_space_group_name_H-M   'P 21/c'
_symmetry_Int_Tables_number      14
_space_group_name_Hall           '-P 2ybc'
loop_
_symmetry_equiv_pos_site_id
_symmetry_equiv_pos_as_xyz
1 x,y,z
2 -x,1/2+y,1/2-z
3 -x,-y,-z
4 x,1/2-y,1/2+z
_cell_length_a                   13.911(3)
_cell_length_b                   5.8690(12)
_cell_length_c                   18.575(4)
_cell_angle_alpha                90
_cell_angle_beta                 106.77(3)
_cell_angle_gamma                90
_cell_volume                     1452.03
_exptl_crystal_colour            red
_exptl_crystal_description       block
_cell_formula_units_Z            4
loop_
_atom_site_label
_atom_site_type_symbol
_atom_site_fract_x
_atom_site_fract_y
_atom_site_fract_z
C1 C 0.36384(17) -0.2693(4) 0.68062(12)
C2 C 0.43932(19) -0.4328(4) 0.69438(14)
H1 H 0.4427 -0.5437 0.7308
C3 C 0.5083(2) -0.4324(4) 0.65521(15)
H2 H 0.5588 -0.5417 0.6643
C4 C 0.5014(2) -0.2664(5) 0.60186(15)
C5 C 0.42884(18) -0.1039(4) 0.58655(14)
H3 H 0.4270 0.0054 0.5499
C6 C 0.35732(15) -0.1004(4) 0.62549(11)
C7 C 0.27551(16) 0.0688(4) 0.61015(12)
C8 C 0.26658(16) 0.2442(4) 0.55370(12)
H4 H 0.3123 0.2481 0.5258
C9 C 0.19380(16) 0.4005(4) 0.54110(12)
H5 H 0.1506 0.3891 0.5709
C10 C 0.17331(15) 0.5848(4) 0.48730(11)
C11 C 0.23271(17) 0.6384(4) 0.44050(13)
H6 H 0.2900 0.5523 0.4439
C12 C 0.20936(17) 0.8138(4) 0.38978(13)
H7 H 0.2513 0.8447 0.3600
C13 C 0.12334(16) 0.9477(4) 0.38181(11)
C14 C 0.06232(17) 0.8935(4) 0.42757(12)
H8 H 0.0039 0.9763 0.4232
C15 C 0.08782(16) 0.7197(4) 0.47868(12)
H9 H 0.0465 0.6901 0.5090
C16 C 0.1649(2) 1.1927(5) 0.28742(16)
H10 H 0.2246 1.2593 0.3202
H11 H 0.1312 1.3029 0.2506
H12 H 0.1827 1.0627 0.2626
C17 C 0.0118(2) 1.2626(4) 0.32404(14)
H13 H -0.0460 1.1674 0.3186
H14 H 0.0012 1.3589 0.2807
H15 H 0.0220 1.3552 0.3682
F1 F 0.57059(15) -0.2665(4) 0.56304(11)
N1 N 0.09908(16) 1.1220(3) 0.33102(11)
O1 O 0.29892(14) -0.2776(3) 0.72185(11)
H16 H 0.2562 -0.1782 0.7076
O2 O 0.21327(13) 0.0573(3) 0.64681(9)
loop_
_geom_bond_atom_site_label_1
_geom_bond_atom_site_label_2
_geom_bond_site_symmetry_1
_geom_bond_site_symmetry_2
C1 C2 1_555 1_555
C2 H1 1_555 1_555
C3 C2 1_555 1_555
H2 C3 1_555 1_555
C4 C3 1_555 1_555
C5 C4 1_555 1_555
H3 C5 1_555 1_555
C6 C1 1_555 1_555
C7 C6 1_555 1_555
C8 C7 1_555 1_555
H4 C8 1_555 1_555
C9 C8 1_555 1_555
H5 C9 1_555 1_555
C10 C9 1_555 1_555
C11 C10 1_555 1_555
H6 C11 1_555 1_555
C12 C11 1_555 1_555
H7 C12 1_555 1_555
C13 C12 1_555 1_555
C14 C13 1_555 1_555
H8 C14 1_555 1_555
C15 C10 1_555 1_555
H9 C15 1_555 1_555
C16 H10 1_555 1_555
H11 C16 1_555 1_555
H12 C16 1_555 1_555
C17 H13 1_555 1_555
H14 C17 1_555 1_555
H15 C17 1_555 1_555
F1 C4 1_555 1_555
N1 C13 1_555 1_555
O1 C1 1_555 1_555
H16 O1 1_555 1_555
O2 C7 1_555 1_555
C5 C6 1_555 1_555
C14 C15 1_555 1_555
C16 N1 1_555 1_555
C17 N1 1_555 1_555

#END
