
#######################################################################
#
#                 Cambridge Crystallographic Data Centre
#                                CCDC 
#
#######################################################################
#
# If this CIF has been generated from an entry in the Cambridge 
# Structural Database, then it will include bibliographic, chemical, 
# crystal, experimental, refinement or atomic coordinate data resulting 
# from the CCDC's data processing and validation procedures.
#
#######################################################################

data_UMIRUE
_chemical_formula_moiety         'C75 H110 O10,C6 H14'
_chemical_name_systematic        
'4,9,14,19,24,26,28,30,32,34-Decabutoxyhexacyclo-[21.2.2.2^3,6^.2^8,11^.2^13,16^.2^18,21^]pentatriaconta-1(25),3,5,8,10,13,15,18,20,23,26,28,30,32,34-pentadecaene hexane solvate'
_symmetry_cell_setting           triclinic
_symmetry_space_group_name_H-M   'P -1'
_symmetry_Int_Tables_number      2
_space_group_name_Hall           '-P 1'
loop_
_symmetry_equiv_pos_site_id
_symmetry_equiv_pos_as_xyz
1 x,y,z
2 -x,-y,-z
_cell_length_a                   12.187(2)
_cell_length_b                   14.650(3)
_cell_length_c                   22.050(4)
_cell_angle_alpha                87.84(3)
_cell_angle_beta                 87.60(3)
_cell_angle_gamma                72.39(3)
_cell_volume                     3747.72
_exptl_crystal_colour            colorless
_exptl_crystal_description       block
_cell_formula_units_Z            2
loop_
_atom_site_label
_atom_site_type_symbol
_atom_site_fract_x
_atom_site_fract_y
_atom_site_fract_z
O1 O 0.89358(16) -0.31465(12) 0.11275(8)
O2 O 0.31169(16) -0.00969(13) 0.34373(8)
O3 O 1.02507(15) 0.00678(13) 0.15787(8)
O4 O 0.66956(14) -0.09977(12) 0.45661(8)
O5 O 0.38062(16) 0.21595(12) 0.14681(8)
O6 O 0.44170(15) -0.15596(12) 0.13413(8)
O7 O 0.71454(14) 0.03977(12) 0.01361(8)
O8 O 1.00808(15) -0.25881(12) 0.32085(8)
O9 O 0.49963(15) 0.27665(12) 0.37131(8)
O10 O 0.92654(19) 0.12099(15) 0.37775(13)
C1 C 0.9603(3) 0.2632(3) 0.4048(2)
H1 H 0.9533 0.3207 0.3798
H2 H 0.8848 0.2806 0.4273
C2 C 1.0415(3) 0.2794(3) 0.44605(18)
H3 H 1.1163 0.2673 0.4256
H4 H 1.0493 0.2353 0.4807
C3 C 1.0130(4) 0.1495(3) 0.3949(2)
H5 H 1.0742 0.1365 0.3639
H6 H 1.0437 0.1166 0.4324
C4 C 0.6973(3) 0.4647(3) 0.2967(2)
H7 H 0.7364 0.5126 0.2972
H8 H 0.6828 0.4539 0.2555
H9 H 0.7444 0.4061 0.3148
C5 C 1.0001(3) 0.3836(3) 0.46805(16)
H10 H 1.0545 0.3931 0.4955
H11 H 0.9262 0.3953 0.4885
H12 H 0.9938 0.4271 0.4338
C6 C 0.3171(3) 0.3466(2) 0.04443(13)
H13 H 0.3340 0.3801 0.0081
H14 H 0.3354 0.2794 0.0352
C7 C 0.1898(3) 0.3850(2) 0.05994(15)
H15 H 0.1467 0.3758 0.0264
H16 H 0.1701 0.4520 0.0680
H17 H 0.1716 0.3513 0.0953
C8 C 1.0319(3) 0.2771(2) 0.22231(15)
H18 H 0.9832 0.3092 0.2552
H19 H 1.0467 0.3238 0.1940
H20 H 1.1035 0.2371 0.2378
C9 C 0.7216(3) -0.5337(2) 0.10629(15)
H21 H 0.6390 -0.5151 0.1085
H22 H 0.7520 -0.5896 0.1317
H23 H 0.7481 -0.5477 0.0651
C10 C 1.1702(3) -0.5658(2) 0.31598(15)
H24 H 1.2499 -0.5941 0.3250
H25 H 1.1624 -0.5578 0.2728
H26 H 1.1267 -0.6068 0.3316
C11 C 0.5830(3) 0.4992(2) 0.33259(15)
H27 H 0.5984 0.5122 0.3737
H28 H 0.5366 0.5588 0.3143
C12 C 0.9722(2) 0.2155(2) 0.19016(14)
H29 H 0.9548 0.1701 0.2193
H30 H 0.9000 0.2562 0.1746
C13 C 1.1248(2) -0.46832(19) 0.34542(13)
H31 H 1.1344 -0.4768 0.3889
H32 H 1.1703 -0.4278 0.3302
C14 C 0.8166(3) 0.3333(2) -0.04371(15)
H33 H 0.7891 0.4016 -0.0402
H34 H 0.8268 0.3174 -0.0858
H35 H 0.8889 0.3087 -0.0241
C15 C 0.7624(2) -0.4523(2) 0.12783(13)
H36 H 0.7303 -0.3957 0.1024
H37 H 0.7336 -0.4374 0.1691
C16 C 0.3206(3) -0.4267(2) 0.21489(14)
H38 H 0.3394 -0.4953 0.2159
H39 H 0.2468 -0.3992 0.1972
H40 H 0.3180 -0.4045 0.2555
C17 C 0.6559(3) -0.4288(2) 0.49878(15)
H41 H 0.6070 -0.4690 0.4970
H42 H 0.6737 -0.4235 0.5403
H43 H 0.7259 -0.4563 0.4756
C18 C 0.3950(3) 0.3568(2) 0.09459(13)
H44 H 0.4745 0.3267 0.0817
H45 H 0.3852 0.4244 0.0994
C19 C 0.7293(3) 0.2891(2) -0.01355(13)
H46 H 0.7187 0.3063 0.0288
H47 H 0.6559 0.3159 -0.0327
C20 C 0.2477(3) -0.2948(2) 0.44532(13)
H48 H 0.2537 -0.3608 0.4395
H49 H 0.1687 -0.2593 0.4538
H50 H 0.2936 -0.2904 0.4788
C21 C 0.8209(2) 0.01157(19) 0.45633(12)
H51 H 0.8456 0.0620 0.4732
H52 H 0.8264 -0.0379 0.4875
C22 C 1.0029(2) 0.08372(19) 0.11351(13)
H53 H 0.9210 0.1085 0.1066
H54 H 1.0426 0.0613 0.0753
C23 C 0.5942(2) -0.32944(19) 0.47245(13)
H55 H 0.5760 -0.3354 0.4307
H56 H 0.5222 -0.3031 0.4951
C24 C 0.4116(2) -0.39674(19) 0.17709(13)
H57 H 0.4149 -0.4204 0.1363
H58 H 0.4863 -0.4259 0.1946
C25 C 0.3473(2) 0.04152(18) 0.12016(11)
H59 H 0.2988 -0.0001 0.1191
H60 H 0.3140 0.0971 0.0941
C26 C 0.8924(2) -0.4760(2) 0.12603(14)
H61 H 0.9246 -0.5348 0.1494
H62 H 0.9206 -0.4873 0.0843
C27 C 0.2848(2) -0.14899(19) 0.39393(12)
H63 H 0.2068 -0.1122 0.4056
H64 H 0.3352 -0.1437 0.4256
C28 C 0.9347(2) -0.39845(19) 0.15065(13)
H65 H 0.9059 -0.3850 0.1921
H66 H 1.0182 -0.4188 0.1505
C29 C 1.0461(2) 0.1609(2) 0.13792(13)
H67 H 1.0495 0.2061 0.1051
H68 H 1.1238 0.1319 0.1516
C30 C 0.2909(2) -0.25362(19) 0.38806(12)
H69 H 0.2450 -0.2592 0.3543
H70 H 0.3700 -0.2909 0.3791
C31 C 0.5143(2) 0.4276(2) 0.33528(13)
H71 H 0.4396 0.4571 0.3546
H72 H 0.5016 0.4123 0.2942
C32 C 0.9557(2) -0.31816(18) 0.35729(12)
H73 H 0.8726 -0.2938 0.3552
H74 H 0.9764 -0.3185 0.3993
C33 C 1.0982(2) -0.1474(2) 0.23966(11)
H75 H 1.1482 -0.1089 0.2279
H76 H 1.1469 -0.2119 0.2487
C34 C 0.6545(2) 0.14691(19) 0.41648(12)
H77 H 0.7013 0.1865 0.4174
C35 C 0.9274(2) -0.07690(19) 0.09540(12)
H78 H 0.9071 -0.0250 0.0681
C36 C 0.3875(2) -0.28850(19) 0.17361(12)
H79 H 0.3137 -0.2595 0.1553
H80 H 0.3825 -0.2648 0.2144
C37 C 0.9474(2) 0.02598(19) 0.36390(13)
C38 C 0.8155(2) -0.15693(18) 0.03294(11)
H81 H 0.8380 -0.1243 -0.0023
H82 H 0.8233 -0.2222 0.0221
C39 C 0.9920(2) -0.23091(19) 0.17527(12)
H83 H 1.0140 -0.2835 0.2019
C40 C 0.3736(2) 0.31357(19) 0.15582(12)
H84 H 0.4309 0.3172 0.1841
H85 H 0.2980 0.3482 0.1723
C41 C 0.3499(2) 0.16281(18) 0.37016(11)
H86 H 0.2985 0.1384 0.3962
H87 H 0.3232 0.2322 0.3713
C42 C 0.9984(2) -0.41814(19) 0.33322(12)
H88 H 0.9876 -0.4151 0.2898
H89 H 0.9523 -0.4559 0.3517
C43 C 0.5122(2) 0.03249(18) 0.41623(11)
H90 H 0.4638 -0.0059 0.4174
C44 C 0.5739(2) 0.33601(19) 0.36968(13)
H91 H 0.6469 0.3036 0.3495
H92 H 0.5888 0.3501 0.4106
C45 C 0.3612(2) 0.19050(19) 0.25673(12)
H93 H 0.3709 0.2497 0.2640
C46 C 0.5344(2) 0.03874(18) 0.06576(11)
H94 H 0.5050 0.1048 0.0603
C47 C 0.9273(2) -0.23511(18) 0.12579(12)
C48 C 0.9910(2) -0.07221(19) 0.14529(12)
C49 C 1.0115(2) -0.01218(19) 0.31211(13)
H95 H 1.0428 0.0266 0.2870
C50 C 0.5981(2) -0.16132(18) 0.45193(12)
H96 H 0.5777 -0.1632 0.4101
H97 H 0.5278 -0.1373 0.4763
C51 C 0.9841(2) -0.16406(18) 0.33621(12)
C52 C 0.3198(2) -0.10795(18) 0.33505(12)
H98 H 0.3982 -0.1437 0.3232
H99 H 0.2695 -0.1125 0.3031
C53 C 0.3322(2) 0.01505(19) 0.23377(11)
H100 H 0.3224 -0.0441 0.2265
C54 C 0.8992(2) -0.03026(19) 0.40228(12)
C55 C 0.4789(2) -0.25807(18) 0.13732(12)
H101 H 0.5523 -0.2814 0.1570
H102 H 0.4880 -0.2837 0.0969
C56 C 1.0248(2) -0.15048(19) 0.18615(11)
C57 C 0.6652(2) -0.26053(18) 0.47437(12)
H103 H 0.6878 -0.2573 0.5157
H104 H 0.7347 -0.2842 0.4493
C58 C 0.6236(2) -0.15716(18) 0.08096(11)
H105 H 0.6529 -0.2233 0.0860
C59 C 0.5440(2) 0.18355(18) 0.39450(11)
C60 C 0.8932(2) -0.15746(18) 0.08508(11)
C61 C 0.6240(2) -0.00567(18) 0.43648(11)
C62 C 0.3454(2) 0.13219(18) 0.30585(11)
C63 C 0.7650(2) 0.18074(19) -0.01729(12)
H106 H 0.7739 0.1628 -0.0595
H107 H 0.8385 0.1531 0.0017
C64 C 0.6755(2) 0.14228(18) 0.01426(12)
H108 H 0.6628 0.1635 0.0558
H109 H 0.6031 0.1662 -0.0063
C65 C 0.6965(2) 0.05196(18) 0.43718(11)
C66 C 0.4666(2) -0.01119(18) 0.09564(11)
C67 C 0.6912(2) -0.10637(18) 0.05137(11)
C68 C 0.4710(2) 0.12652(18) 0.39426(11)
C69 C 0.3308(2) 0.04374(18) 0.29346(11)
C70 C 0.9196(2) -0.12560(19) 0.38789(12)
H110 H 0.8895 -0.1647 0.4134
C71 C 1.0298(2) -0.10698(18) 0.29707(11)
C72 C 0.3481(2) 0.07373(18) 0.18457(11)
C73 C 0.3628(2) 0.16170(18) 0.19714(11)
C74 C 0.6444(2) -0.00764(18) 0.04408(11)
C75 C 0.5130(2) -0.11031(18) 0.10297(11)
C76 C 0.6689(4) -0.2251(3) 0.26494(18)
H111 H 0.6572 -0.2620 0.3002
H112 H 0.7415 -0.2571 0.2453
H113 H 0.6080 -0.2185 0.2373
C77 C 0.6891(3) 0.1090(2) 0.20365(14)
H114 H 0.6286 0.1134 0.1754
H115 H 0.7624 0.0854 0.1818
C78 C 0.6769(3) 0.2084(3) 0.22622(16)
H116 H 0.6813 0.2503 0.1923
H117 H 0.7378 0.2050 0.2533
H118 H 0.6039 0.2328 0.2474
C79 C 0.6691(3) -0.1265(2) 0.28397(15)
H119 H 0.5964 -0.0963 0.3051
H120 H 0.7297 -0.1346 0.3127
C80 C 0.6860(3) -0.0596(2) 0.23323(14)
H121 H 0.6265 -0.0522 0.2039
H122 H 0.7597 -0.0885 0.2128
C81 C 0.6824(3) 0.0385(2) 0.25409(13)
H123 H 0.6116 0.0648 0.2777
H124 H 0.7461 0.0313 0.2807
C82? C 0.9743(9) 0.1821(7) 0.3534(4)
H125? H 0.9358 0.2109 0.3166
H126? H 1.0550 0.1510 0.3434
loop_
_geom_bond_atom_site_label_1
_geom_bond_atom_site_label_2
_geom_bond_site_symmetry_1
_geom_bond_site_symmetry_2
O1 C28 1_555 1_555
O2 C52 1_555 1_555
O3 C22 1_555 1_555
O4 C50 1_555 1_555
O5 C40 1_555 1_555
O6 C55 1_555 1_555
O7 C64 1_555 1_555
O8 C32 1_555 1_555
O9 C44 1_555 1_555
O10 C3 1_555 1_555
C1 H1 1_555 1_555
H2 C1 1_555 1_555
C2 C1 1_555 1_555
H3 C2 1_555 1_555
H4 C2 1_555 1_555
C3 C1 1_555 1_555
H5 C3 1_555 1_555
H6 C3 1_555 1_555
C4 H7 1_555 1_555
H8 C4 1_555 1_555
H9 C4 1_555 1_555
C5 C2 1_555 1_555
H10 C5 1_555 1_555
H11 C5 1_555 1_555
H12 C5 1_555 1_555
C6 H13 1_555 1_555
H14 C6 1_555 1_555
C7 C6 1_555 1_555
H15 C7 1_555 1_555
H16 C7 1_555 1_555
H17 C7 1_555 1_555
C8 H18 1_555 1_555
H19 C8 1_555 1_555
H20 C8 1_555 1_555
C9 H21 1_555 1_555
H22 C9 1_555 1_555
H23 C9 1_555 1_555
C10 H24 1_555 1_555
H25 C10 1_555 1_555
H26 C10 1_555 1_555
C11 C4 1_555 1_555
H27 C11 1_555 1_555
H28 C11 1_555 1_555
C12 C8 1_555 1_555
H29 C12 1_555 1_555
H30 C12 1_555 1_555
C13 C10 1_555 1_555
H31 C13 1_555 1_555
H32 C13 1_555 1_555
C14 H33 1_555 1_555
H34 C14 1_555 1_555
H35 C14 1_555 1_555
C15 C9 1_555 1_555
H36 C15 1_555 1_555
H37 C15 1_555 1_555
C16 H38 1_555 1_555
H39 C16 1_555 1_555
H40 C16 1_555 1_555
C17 H41 1_555 1_555
H42 C17 1_555 1_555
H43 C17 1_555 1_555
C18 C6 1_555 1_555
H44 C18 1_555 1_555
H45 C18 1_555 1_555
C19 C14 1_555 1_555
H46 C19 1_555 1_555
H47 C19 1_555 1_555
C20 H48 1_555 1_555
H49 C20 1_555 1_555
H50 C20 1_555 1_555
C21 H51 1_555 1_555
H52 C21 1_555 1_555
C22 H53 1_555 1_555
H54 C22 1_555 1_555
C23 C17 1_555 1_555
H55 C23 1_555 1_555
H56 C23 1_555 1_555
C24 C16 1_555 1_555
H57 C24 1_555 1_555
H58 C24 1_555 1_555
C25 H59 1_555 1_555
H60 C25 1_555 1_555
C26 C15 1_555 1_555
H61 C26 1_555 1_555
H62 C26 1_555 1_555
C27 H63 1_555 1_555
H64 C27 1_555 1_555
C28 C26 1_555 1_555
H65 C28 1_555 1_555
H66 C28 1_555 1_555
C29 C12 1_555 1_555
H67 C29 1_555 1_555
H68 C29 1_555 1_555
C30 C20 1_555 1_555
H69 C30 1_555 1_555
H70 C30 1_555 1_555
C31 C11 1_555 1_555
H71 C31 1_555 1_555
H72 C31 1_555 1_555
C32 H73 1_555 1_555
H74 C32 1_555 1_555
C33 H75 1_555 1_555
H76 C33 1_555 1_555
C34 H77 1_555 1_555
C35 H78 1_555 1_555
C36 C24 1_555 1_555
H79 C36 1_555 1_555
H80 C36 1_555 1_555
C37 O10 1_555 1_555
C38 H81 1_555 1_555
H82 C38 1_555 1_555
C39 H83 1_555 1_555
C40 C18 1_555 1_555
H84 C40 1_555 1_555
H85 C40 1_555 1_555
C41 H86 1_555 1_555
H87 C41 1_555 1_555
C42 C13 1_555 1_555
H88 C42 1_555 1_555
H89 C42 1_555 1_555
C43 H90 1_555 1_555
C44 C31 1_555 1_555
H91 C44 1_555 1_555
H92 C44 1_555 1_555
C45 H93 1_555 1_555
C46 H94 1_555 1_555
C47 O1 1_555 1_555
C48 O3 1_555 1_555
C49 C37 1_555 1_555
H95 C49 1_555 1_555
C50 H96 1_555 1_555
H97 C50 1_555 1_555
C51 O8 1_555 1_555
C52 C27 1_555 1_555
H98 C52 1_555 1_555
H99 C52 1_555 1_555
C53 H100 1_555 1_555
C54 C21 1_555 1_555
C55 C36 1_555 1_555
H101 C55 1_555 1_555
H102 C55 1_555 1_555
C56 C33 1_555 1_555
C57 C23 1_555 1_555
H103 C57 1_555 1_555
H104 C57 1_555 1_555
C58 H105 1_555 1_555
C59 O9 1_555 1_555
C60 C35 1_555 1_555
C61 O4 1_555 1_555
C62 C41 1_555 1_555
C63 C19 1_555 1_555
H106 C63 1_555 1_555
H107 C63 1_555 1_555
C64 C63 1_555 1_555
H108 C64 1_555 1_555
H109 C64 1_555 1_555
C65 C21 1_555 1_555
C66 C25 1_555 1_555
C67 C38 1_555 1_555
C68 C41 1_555 1_555
C69 O2 1_555 1_555
C70 C51 1_555 1_555
H110 C70 1_555 1_555
C71 C33 1_555 1_555
C72 C25 1_555 1_555
C73 O5 1_555 1_555
C74 O7 1_555 1_555
C75 O6 1_555 1_555
C76 H111 1_555 1_555
H112 C76 1_555 1_555
H113 C76 1_555 1_555
C77 H114 1_555 1_555
H115 C77 1_555 1_555
C78 C77 1_555 1_555
H116 C78 1_555 1_555
H117 C78 1_555 1_555
H118 C78 1_555 1_555
C79 C76 1_555 1_555
H119 C79 1_555 1_555
H120 C79 1_555 1_555
C80 C79 1_555 1_555
H121 C80 1_555 1_555
H122 C80 1_555 1_555
C81 C77 1_555 1_555
H123 C81 1_555 1_555
H124 C81 1_555 1_555
C22 C29 1_555 1_555
C27 C30 1_555 1_555
C32 C42 1_555 1_555
C34 C59 1_555 1_555
C34 C65 1_555 1_555
C35 C48 1_555 1_555
C37 C54 1_555 1_555
C38 C60 1_555 1_555
C39 C47 1_555 1_555
C39 C56 1_555 1_555
C43 C61 1_555 1_555
C43 C68 1_555 1_555
C45 C62 1_555 1_555
C45 C73 1_555 1_555
C46 C66 1_555 1_555
C46 C74 1_555 1_555
C47 C60 1_555 1_555
C48 C56 1_555 1_555
C49 C71 1_555 1_555
C50 C57 1_555 1_555
C51 C71 1_555 1_555
C53 C69 1_555 1_555
C53 C72 1_555 1_555
C54 C70 1_555 1_555
C58 C67 1_555 1_555
C58 C75 1_555 1_555
C59 C68 1_555 1_555
C61 C65 1_555 1_555
C62 C69 1_555 1_555
C66 C75 1_555 1_555
C67 C74 1_555 1_555
C72 C73 1_555 1_555
C80 C81 1_555 1_555

#END
