
#######################################################################
#
#                 Cambridge Crystallographic Data Centre
#                                CCDC 
#
#######################################################################
#
# If this CIF has been generated from an entry in the Cambridge 
# Structural Database, then it will include bibliographic, chemical, 
# crystal, experimental, refinement or atomic coordinate data resulting 
# from the CCDC's data processing and validation procedures.
#
#######################################################################

data_UMISAL
_chemical_formula_moiety         'C59 H78 O10,C6 H14'
_chemical_name_systematic        
'4,,34-bis(Octoxy)- 10,15,20,25,267,29,31,33-octamethoxyhexacyclo-[21.2.2.2^3,6^.2^8,11^.2^13,16^.2^18,21^]pentatriaconta-1(25),3,5,8,10,13,15,18,20,23,26,28,30,32,34-pentadecaene hexane solvate'
_symmetry_cell_setting           triclinic
_symmetry_space_group_name_H-M   'P -1'
_symmetry_Int_Tables_number      2
_space_group_name_Hall           '-P 1'
loop_
_symmetry_equiv_pos_site_id
_symmetry_equiv_pos_as_xyz
1 x,y,z
2 -x,-y,-z
_cell_length_a                   12.1826(2)
_cell_length_b                   13.2648(2)
_cell_length_c                   19.6464(3)
_cell_angle_alpha                73.314(2)
_cell_angle_beta                 83.9770(10)
_cell_angle_gamma                76.654(2)
_cell_volume                     2956.49
_exptl_crystal_colour            colorless
_exptl_crystal_description       platelet
_cell_formula_units_Z            2
loop_
_atom_site_label
_atom_site_type_symbol
_atom_site_fract_x
_atom_site_fract_y
_atom_site_fract_z
O1 O 0.70551(17) 0.68397(16) 0.22452(11)
O2 O 0.52295(17) 1.11945(16) 0.17391(10)
O3 O 0.40143(18) 0.48404(17) 0.23039(12)
O4 O 0.38155(18) 0.89298(19) 0.04796(11)
O5 O 0.08060(18) 0.58130(17) 0.43404(12)
O6 O 0.03165(18) 0.79774(17) 0.14977(11)
O7 O 0.25865(19) 0.79362(18) 0.54462(12)
O8 O -0.06931(17) 1.01036(16) 0.34861(11)
O9 O 0.63031(17) 0.85689(16) 0.42186(11)
O10 O 0.25023(16) 1.18619(16) 0.37224(11)
C1 C 0.6645(2) 0.7928(2) 0.21288(16)
C2 C 0.6761(2) 0.8509(2) 0.25943(15)
H1 H 0.7160 0.8158 0.3005
C3 C 0.6295(2) 0.9602(2) 0.24587(15)
C4 C 0.5699(2) 1.0115(2) 0.18373(15)
C5 C 0.5609(2) 0.9543(2) 0.13636(15)
H2 H 0.5235 0.9899 0.0945
C6 C 0.6068(2) 0.8449(2) 0.15031(15)
C7 C 0.5925(2) 0.7816(3) 0.09969(16)
H3 H 0.5869 0.8288 0.0517
H4 H 0.6587 0.7243 0.1005
C8 C 0.4883(2) 0.7331(3) 0.11905(15)
C9 C 0.3838(3) 0.7908(3) 0.09337(15)
C10 C 0.2888(2) 0.7464(3) 0.11229(15)
H5 H 0.2198 0.7858 0.0936
C11 C 0.2945(2) 0.6439(2) 0.15866(16)
C12 C 0.3990(2) 0.5859(2) 0.18443(16)
C13 C 0.4949(3) 0.6296(2) 0.16429(15)
H6 H 0.5645 0.5891 0.1813
C14 C 0.5093(3) 0.4218(3) 0.2543(2)
H7 H 0.5586 0.4130 0.2141
H8 H 0.5010 0.3524 0.2842
H9 H 0.5407 0.4581 0.2809
C15 C 0.2741(3) 0.9569(3) 0.02510(19)
H10 H 0.2834 1.0254 -0.0057
H11 H 0.2267 0.9676 0.0657
H12 H 0.2398 0.9209 -0.0002
C16 C 0.1868(2) 0.6011(3) 0.18031(17)
H13 H 0.1413 0.6199 0.1391
H14 H 0.2060 0.5232 0.1975
C17 C 0.1188(2) 0.6467(2) 0.23788(16)
C18 C 0.0461(2) 0.7481(2) 0.22114(15)
C19 C -0.0087(2) 0.7929(2) 0.27471(16)
H15 H -0.0547 0.8614 0.2625
C20 C 0.0038(2) 0.7374(2) 0.34602(15)
C21 C 0.0735(2) 0.6342(2) 0.36241(16)
C22 C 0.1303(2) 0.5910(2) 0.30896(17)
H16 H 0.1773 0.5230 0.3211
C23 C 0.1485(3) 0.4757(3) 0.4532(2)
H17 H 0.1208 0.4303 0.4318
H18 H 0.1455 0.4474 0.5040
H19 H 0.2252 0.4780 0.4367
C24 C -0.0397(3) 0.9024(3) 0.13142(19)
H20 H -0.0420 0.9294 0.0806
H21 H -0.0106 0.9500 0.1501
H22 H -0.1146 0.8984 0.1512
C25 C -0.0541(2) 0.7885(2) 0.40377(16)
H23 H -0.0733 0.7329 0.4445
H24 H -0.1236 0.8379 0.3863
C26 C 0.0204(2) 0.8487(2) 0.42681(15)
C27 C 0.0120(2) 0.9588(2) 0.39855(14)
C28 C 0.0816(2) 1.0119(2) 0.42076(14)
H25 H 0.0733 1.0860 0.4022
C29 C 0.1631(2) 0.9564(2) 0.47008(14)
C30 C 0.1736(2) 0.8458(3) 0.49676(15)
C31 C 0.1023(2) 0.7930(2) 0.47634(15)
H26 H 0.1092 0.7192 0.4960
C32 C 0.2735(4) 0.6807(3) 0.5708(2)
H27 H 0.2890 0.6489 0.5318
H28 H 0.2060 0.6629 0.5966
H29 H 0.3357 0.6535 0.6020
C33 C -0.0840(3) 1.1239(3) 0.32182(17)
H30 H -0.1467 1.1510 0.2911
H31 H -0.0167 1.1413 0.2955
H32 H -0.0985 1.1561 0.3607
C34 C 0.2402(2) 1.0151(3) 0.49245(15)
H33 H 0.1998 1.0877 0.4914
H34 H 0.2623 0.9783 0.5408
C35 C 0.3446(2) 1.0199(2) 0.44364(14)
C36 C 0.3474(2) 1.1054(2) 0.38288(15)
C37 C 0.4426(2) 1.1072(2) 0.33755(15)
H35 H 0.4435 1.1655 0.2977
C38 C 0.5372(2) 1.0229(2) 0.35069(14)
C39 C 0.5341(2) 0.9376(2) 0.41148(15)
C40 C 0.4395(2) 0.9368(2) 0.45716(15)
H36 H 0.4395 0.8795 0.4977
C41 C 0.6287(3) 0.7656(2) 0.48102(17)
H37 H 0.5692 0.7317 0.4766
H38 H 0.6159 0.7879 0.5241
H39 H 0.6998 0.7155 0.4824
C42 C 0.2485(3) 1.2740(3) 0.31109(19)
H40 H 0.2618 1.2481 0.2694
H41 H 0.3063 1.3113 0.3133
H42 H 0.1761 1.3223 0.3090
C43 C 0.6379(2) 1.0223(2) 0.29848(15)
H43 H 0.7066 0.9896 0.3243
H44 H 0.6419 1.0958 0.2729
C44 C 0.7862(3) 0.6314(2) 0.27839(17)
H45 H 0.7491 0.6239 0.3252
H46 H 0.8434 0.6732 0.2742
C45 C 0.8394(3) 0.5221(2) 0.26806(18)
H47 H 0.7820 0.4795 0.2765
H48 H 0.8962 0.4861 0.3032
C46 C 0.8942(3) 0.5261(3) 0.19440(18)
H49 H 0.8355 0.5504 0.1600
H50 H 0.9418 0.5786 0.1826
C47 C 0.9644(3) 0.4194(3) 0.1878(2)
H51 H 0.9204 0.3644 0.2067
H52 H 1.0300 0.4006 0.2165
C48 C 1.0039(3) 0.4190(4) 0.1122(3)
H53 H 1.0496 0.4722 0.0917
H54 H 0.9404 0.4329 0.0824
C49 C 1.0581(7) 0.3284(6) 0.0868(4)
H55 H 1.0157 0.2728 0.1084
C50 C 1.1391(7) 0.2758(7) 0.0547(5)
H56 H 1.1507 0.3454 -0.0024
H57 H 1.0892 0.2595 -0.0449
C51 C 1.1395(8) 0.2140(8) 0.0025(5)
H58 H 1.0824 0.1719 0.0167
H59 H 1.2121 0.1672 0.0009
C52 C 0.4729(3) 1.1772(2) 0.10728(15)
H60 H 0.4123 1.1454 0.1002
H61 H 0.5289 1.1740 0.0686
C53 C 0.4272(3) 1.2925(2) 0.10812(16)
H62 H 0.4838 1.3188 0.1255
H63 H 0.3612 1.2966 0.1402
C54 C 0.3955(3) 1.3630(3) 0.03382(16)
H64 H 0.3430 1.3329 0.0158
H65 H 0.4629 1.3607 0.0028
C55 C 0.3424(3) 1.4803(2) 0.03019(16)
H66 H 0.3921 1.5095 0.0513
H67 H 0.2715 1.4837 0.0578
C56 C 0.3207(3) 1.5494(2) -0.04591(16)
H68 H 0.3917 1.5448 -0.0734
H69 H 0.2709 1.5200 -0.0667
C57 C 0.2687(3) 1.6673(2) -0.05215(16)
H70 H 0.1985 1.6719 -0.0238
H71 H 0.3194 1.6972 -0.0324
C58 C 0.2450(3) 1.7349(2) -0.12769(17)
H72 H 0.1955 1.7043 -0.1479
H73 H 0.3154 1.7320 -0.1559
C59 C 0.1907(3) 1.8517(3) -0.13231(19)
H74 H 0.1735 1.8897 -0.1808
H75 H 0.2419 1.8841 -0.1160
H76 H 0.1224 1.8550 -0.1031
H77 H 0.2717 1.0042 0.1796
H78 H 0.1678 0.9693 0.2269
H79 H 0.2995 0.9366 0.3242
C60 C 0.2512(9) 0.9363(9) 0.2314(7)
H80 H 0.1944 0.8999 0.2245
C61 C 0.3035(13) 0.8713(10) 0.2930(5)
H81 H 0.2438 0.8738 0.3296
C62 C 0.3673(11) 0.7610(12) 0.3144(10)
H82 H 0.3085 0.7196 0.3249
H83 H 0.4034 0.7500 0.2699
C63 C 0.3896(11) 0.7195(12) 0.3641(9)
H84 H 0.4668 0.7295 0.3557
H85 H 0.3604 0.7397 0.4072
C64 C 0.3910(15) 0.6224(14) 0.3744(9)
H86 H 0.3908 0.6066 0.3291
H87 H 0.3239 0.6050 0.4022
H88 H 0.5329 0.5693 0.3513
C65 C 0.4922(16) 0.5560(18) 0.4124(9)
H89 H 0.4970 0.4818 0.4148
H90 H 0.4873 0.5643 0.4596
H91? H 1.1316 0.3031 0.1076
C66? C 1.0799(7) 0.2947(6) 0.1219(4)
H92? H 1.1356 0.2803 0.1571
H93? H 1.0306 0.2441 0.1397
C67? C 1.0774(7) 0.3286(7) 0.0139(4)
H94? H 1.0208 0.3850 -0.0140
C68? C 1.0747(8) 0.2547(8) 0.0048(5)
H95? H 1.0014 0.2387 0.0191
H96? H 1.1310 0.1985 0.0318
H97? H 1.1242 0.2630 -0.0437
C69? C 0.1955(13) 1.0511(9) 0.2157(6)
H98? H 0.1785 1.0778 0.1663
H99? H 0.2450 1.0910 0.2262
H100? H 0.1269 1.0593 0.2443
C70? C 0.2354(13) 0.9952(10) 0.2261(6)
H101? H 0.2166 1.0631 0.2373
C71? C 0.3149(10) 0.9144(9) 0.2806(8)
H102? H 0.3908 0.9233 0.2640
H103? H 0.3079 0.9312 0.1933
H104? H 0.3540 0.9129 0.3014
C72? C 0.3175(13) 0.7993(10) 0.3001(5)
H105? H 0.3438 0.7746 0.2581
H106? H 0.2401 0.7907 0.3104
C73? C 0.4395(16) 0.7057(17) 0.3588(11)
C74? C 0.4707(15) 0.5937(16) 0.3810(9)
H107? H 0.4079 0.5633 0.3775
H108? H 0.4928 0.5713 0.4295
H109? H 0.5582 0.5787 0.3874
H110? H 0.9376 0.4524 0.0840
H111? H 1.0543 0.4689 0.0978
loop_
_geom_bond_atom_site_label_1
_geom_bond_atom_site_label_2
_geom_bond_site_symmetry_1
_geom_bond_site_symmetry_2
O1 C1 1_555 1_555
O2 C4 1_555 1_555
O3 C12 1_555 1_555
O4 C9 1_555 1_555
O5 C21 1_555 1_555
O6 C18 1_555 1_555
O7 C30 1_555 1_555
O8 C27 1_555 1_555
O9 C39 1_555 1_555
O10 C36 1_555 1_555
C1 C2 1_555 1_555
C2 H1 1_555 1_555
C3 C2 1_555 1_555
C4 C3 1_555 1_555
C5 C4 1_555 1_555
H2 C5 1_555 1_555
C6 C1 1_555 1_555
C7 C6 1_555 1_555
H3 C7 1_555 1_555
H4 C7 1_555 1_555
C8 C7 1_555 1_555
C9 C8 1_555 1_555
C10 C9 1_555 1_555
H5 C10 1_555 1_555
C11 C10 1_555 1_555
C12 C11 1_555 1_555
C13 C8 1_555 1_555
H6 C13 1_555 1_555
C14 O3 1_555 1_555
H7 C14 1_555 1_555
H8 C14 1_555 1_555
H9 C14 1_555 1_555
C15 O4 1_555 1_555
H10 C15 1_555 1_555
H11 C15 1_555 1_555
H12 C15 1_555 1_555
C16 C11 1_555 1_555
H13 C16 1_555 1_555
H14 C16 1_555 1_555
C17 C16 1_555 1_555
C18 C17 1_555 1_555
C19 C18 1_555 1_555
H15 C19 1_555 1_555
C20 C19 1_555 1_555
C21 C20 1_555 1_555
C22 C17 1_555 1_555
H16 C22 1_555 1_555
C23 O5 1_555 1_555
H17 C23 1_555 1_555
H18 C23 1_555 1_555
H19 C23 1_555 1_555
C24 O6 1_555 1_555
H20 C24 1_555 1_555
H21 C24 1_555 1_555
H22 C24 1_555 1_555
C25 C20 1_555 1_555
H23 C25 1_555 1_555
H24 C25 1_555 1_555
C26 C25 1_555 1_555
C27 C26 1_555 1_555
C28 C27 1_555 1_555
H25 C28 1_555 1_555
C29 C28 1_555 1_555
C30 C29 1_555 1_555
C31 C26 1_555 1_555
H26 C31 1_555 1_555
C32 O7 1_555 1_555
H27 C32 1_555 1_555
H28 C32 1_555 1_555
H29 C32 1_555 1_555
C33 O8 1_555 1_555
H30 C33 1_555 1_555
H31 C33 1_555 1_555
H32 C33 1_555 1_555
C34 C29 1_555 1_555
H33 C34 1_555 1_555
H34 C34 1_555 1_555
C35 C34 1_555 1_555
C36 C35 1_555 1_555
C37 C36 1_555 1_555
H35 C37 1_555 1_555
C38 C37 1_555 1_555
C39 C38 1_555 1_555
C40 C35 1_555 1_555
H36 C40 1_555 1_555
C41 O9 1_555 1_555
H37 C41 1_555 1_555
H38 C41 1_555 1_555
H39 C41 1_555 1_555
C42 O10 1_555 1_555
H40 C42 1_555 1_555
H41 C42 1_555 1_555
H42 C42 1_555 1_555
C43 C3 1_555 1_555
H43 C43 1_555 1_555
H44 C43 1_555 1_555
C44 O1 1_555 1_555
H45 C44 1_555 1_555
H46 C44 1_555 1_555
C45 C44 1_555 1_555
H47 C45 1_555 1_555
H48 C45 1_555 1_555
C46 C45 1_555 1_555
H49 C46 1_555 1_555
H50 C46 1_555 1_555
C47 C46 1_555 1_555
H51 C47 1_555 1_555
H52 C47 1_555 1_555
C48 C47 1_555 1_555
H53 C48 1_555 1_555
H54 C48 1_555 1_555
C49 C48 1_555 1_555
H55 C49 1_555 1_555
C50 C49 1_555 1_555
H56 C50 1_555 1_555
H57 C51 1_555 1_555
C51 C50 1_555 1_555
H58 C51 1_555 1_555
H59 C51 1_555 1_555
C52 O2 1_555 1_555
H60 C52 1_555 1_555
H61 C52 1_555 1_555
C53 C52 1_555 1_555
H62 C53 1_555 1_555
H63 C53 1_555 1_555
C54 C53 1_555 1_555
H64 C54 1_555 1_555
H65 C54 1_555 1_555
C55 C54 1_555 1_555
H66 C55 1_555 1_555
H67 C55 1_555 1_555
C56 C55 1_555 1_555
H68 C56 1_555 1_555
H69 C56 1_555 1_555
C57 C56 1_555 1_555
H70 C57 1_555 1_555
H71 C57 1_555 1_555
C58 C57 1_555 1_555
H72 C58 1_555 1_555
H73 C58 1_555 1_555
C59 C58 1_555 1_555
H74 C59 1_555 1_555
H75 C59 1_555 1_555
H76 C59 1_555 1_555
H77 C60 1_555 1_555
H78 C60 1_555 1_555
H79 C61 1_555 1_555
C60 H80 1_555 1_555
C61 C60 1_555 1_555
H81 C61 1_555 1_555
C62 C61 1_555 1_555
H82 C62 1_555 1_555
H83 C62 1_555 1_555
C63 C62 1_555 1_555
H84 C63 1_555 1_555
H85 C63 1_555 1_555
C64 C63 1_555 1_555
H86 C64 1_555 1_555
H87 C64 1_555 1_555
H88 C65 1_555 1_555
C65 C64 1_555 1_555
H89 C65 1_555 1_555
H90 C65 1_555 1_555
C5 C6 1_555 1_555
C12 C13 1_555 1_555
C21 C22 1_555 1_555
C30 C31 1_555 1_555
C38 C43 1_555 1_555
C39 C40 1_555 1_555

#END
