
#######################################################################
#
#                 Cambridge Crystallographic Data Centre
#                                CCDC 
#
#######################################################################
#
# If this CIF has been generated from an entry in the Cambridge 
# Structural Database, then it will include bibliographic, chemical, 
# crystal, experimental, refinement or atomic coordinate data resulting 
# from the CCDC's data processing and validation procedures.
#
#######################################################################

data_UMISIT
_chemical_formula_moiety         'C22 H24 N6 O3'
_chemical_name_systematic        
'(4-(1H-Benzotriazol-1-yl(2-methoxyphenyl)methyl)-1H-1,2,3-triazol-1-yl)methyl pivalate'
_symmetry_cell_setting           monoclinic
_symmetry_space_group_name_H-M   'P 21'
_symmetry_Int_Tables_number      4
_space_group_name_Hall           'P 2yb'
loop_
_symmetry_equiv_pos_site_id
_symmetry_equiv_pos_as_xyz
1 x,y,z
2 -x,1/2+y,-z
_cell_length_a                   8.0218(8)
_cell_length_b                   14.6605(14)
_cell_length_c                   18.8312(18)
_cell_angle_alpha                90
_cell_angle_beta                 96.776(2)
_cell_angle_gamma                90
_cell_volume                     2199.15
_exptl_crystal_colour            colorless
_exptl_crystal_description       irregular
_cell_formula_units_Z            4
loop_
_atom_site_label
_atom_site_type_symbol
_atom_site_fract_x
_atom_site_fract_y
_atom_site_fract_z
O1 O 0.4741(4) -0.0037(3) 0.03744(16)
O2 O 0.4697(5) 0.1434(3) 0.0666(2)
O3 O 0.9256(3) 0.04134(18) 0.46485(14)
N1 N 0.8076(3) 0.12212(18) 0.32433(15)
N2 N 0.6880(3) 0.1883(2) 0.31649(18)
N3 N 0.7600(3) 0.2675(2) 0.31221(18)
N4 N 0.6699(4) -0.0978(2) 0.24577(18)
N5 N 0.5751(4) -0.1116(2) 0.18530(18)
N6 N 0.5130(4) -0.0299(2) 0.16322(16)
C1 C 0.9633(4) 0.1601(2) 0.32447(18)
C2 C 1.1245(4) 0.1243(3) 0.3310(2)
H1 H 1.1445 0.0619 0.3349
C3 C 1.2519(4) 0.1861(3) 0.3314(2)
H2 H 1.3620 0.1650 0.3362
C4 C 1.2229(5) 0.2799(3) 0.3249(2)
H3 H 1.3141 0.3192 0.3257
C5 C 1.0630(5) 0.3158(3) 0.3173(2)
H4 H 1.0437 0.3782 0.3124
C6 C 0.9316(4) 0.2532(2) 0.31736(18)
C7 C 0.7623(4) 0.0263(2) 0.33127(18)
H5 H 0.8673 -0.0084 0.3389
C8 C 0.6710(4) 0.0109(2) 0.39616(19)
C9 C 0.5016(4) -0.0125(2) 0.3919(2)
H6 H 0.4404 -0.0192 0.3471
C10 C 0.4231(5) -0.0258(3) 0.4514(2)
H7 H 0.3092 -0.0396 0.4471
C11 C 0.5135(5) -0.0186(3) 0.5179(2)
H8 H 0.4608 -0.0287 0.5586
C12 C 0.6814(5) 0.0033(3) 0.5246(2)
H9 H 0.7417 0.0078 0.5698
C13 C 0.7608(4) 0.0186(2) 0.4643(2)
C14 C 1.0264(5) 0.0483(3) 0.5327(2)
H10 H 0.9786 0.0930 0.5616
H11 H 1.1382 0.0664 0.5255
H12 H 1.0299 -0.0097 0.5564
C15 C 0.6674(4) -0.0076(2) 0.26245(19)
C16 C 0.5657(4) 0.0362(3) 0.2102(2)
H13 H 0.5387 0.0979 0.2076
C17 C 0.3944(5) -0.0251(4) 0.0993(2)
H14 H 0.3371 -0.0833 0.0921
H15 H 0.3107 0.0210 0.1056
C18 C 0.4927(6) 0.0849(5) 0.0225(3)
C19 C 0.5350(7) 0.1031(5) -0.0514(3)
C20 C 0.6854(9) 0.0464(6) -0.0663(4)
H16 H 0.7208 0.0647 -0.1111
H17 H 0.6549 -0.0170 -0.0685
H18 H 0.7756 0.0556 -0.0287
C21 C 0.3737(8) 0.0785(6) -0.1015(3)
H19 H 0.3765 0.1077 -0.1470
H20 H 0.2769 0.0990 -0.0805
H21 H 0.3677 0.0136 -0.1081
C22 C 0.5723(9) 0.2031(6) -0.0595(4)
H22 H 0.6742 0.2183 -0.0299
H23 H 0.4814 0.2386 -0.0453
H24 H 0.5850 0.2159 -0.1086
O4 O -0.0505(5) 0.8562(3) 0.01865(18)
O5 O -0.0600(6) 0.7068(4) 0.0231(2)
O6 O 0.4183(3) 0.73920(18) 0.43640(14)
N7 N 0.2959(3) 0.67294(19) 0.29053(16)
N8 N 0.1719(3) 0.6092(2) 0.28157(19)
N9 N 0.2393(4) 0.5283(2) 0.2757(2)
N10 N 0.1686(4) 0.9051(2) 0.23408(19)
N11 N 0.0691(5) 0.9307(3) 0.1772(2)
N12 N 0.0025(4) 0.8541(3) 0.14582(17)
C23 C 0.4477(4) 0.6318(2) 0.29105(19)
C24 C 0.4105(4) 0.5400(2) 0.2814(2)
C25 C 0.5400(5) 0.4756(3) 0.2800(2)
H25 H 0.5172 0.4136 0.2742
C26 C 0.7003(5) 0.5079(3) 0.2876(2)
H26 H 0.7886 0.4671 0.2860
C27 C 0.7361(4) 0.6009(3) 0.2976(2)
H27 H 0.8476 0.6197 0.3034
C28 C 0.6112(4) 0.6657(3) 0.2992(2)
H28 H 0.6346 0.7275 0.3052
C29 C 0.2556(4) 0.7687(2) 0.30413(18)
H29 H 0.3625 0.8011 0.3148
C30 C 0.1637(4) 0.7766(2) 0.36977(18)
C31 C 0.2529(4) 0.7612(2) 0.43692(19)
C32 C 0.1742(5) 0.7695(3) 0.4980(2)
H30 H 0.2336 0.7601 0.5429
C33 C 0.0048(5) 0.7922(3) 0.4915(2)
H31 H -0.0486 0.7977 0.5325
C34 C -0.0849(5) 0.8066(3) 0.4262(2)
H32 H -0.1984 0.8210 0.4227
C35 C -0.0052(4) 0.7995(2) 0.3655(2)
H33 H -0.0654 0.8101 0.3210
C36 C 0.5178(5) 0.7257(3) 0.5040(2)
H34 H 0.5232 0.7816 0.5308
H35 H 0.6291 0.7074 0.4963
H36 H 0.4676 0.6791 0.5303
C37 C 0.1636(4) 0.8126(3) 0.2393(2)
C38 C 0.0571(5) 0.7808(3) 0.1839(2)
H37 H 0.0278 0.7203 0.1743
C39 C -0.1222(6) 0.8632(5) 0.0841(2)
H38 H -0.2064 0.8160 0.0856
H39 H -0.1775 0.9218 0.0860
C40 C -0.0396(7) 0.7740(6) -0.0103(3)
C41 C -0.0118(8) 0.7757(5) -0.0882(3)
C42 C -0.1835(10) 0.8040(7) -0.1295(3)
H40 H -0.2689 0.7624 -0.1183
H41 H -0.1760 0.8024 -0.1800
H42 H -0.2114 0.8646 -0.1158
C43 C 0.1203(12) 0.8435(7) -0.1001(4)
H43 H 0.0835 0.9034 -0.0884
H44 H 0.1404 0.8420 -0.1493
H45 H 0.2221 0.8288 -0.0702
C44 C 0.0371(11) 0.6813(6) -0.1129(4)
H46 H 0.1366 0.6611 -0.0839
H47 H 0.0582 0.6843 -0.1620
H48 H -0.0527 0.6392 -0.1084
loop_
_geom_bond_atom_site_label_1
_geom_bond_atom_site_label_2
_geom_bond_site_symmetry_1
_geom_bond_site_symmetry_2
O1 C17 1_555 1_555
O2 C18 1_555 1_555
O3 C13 1_555 1_555
O4 C39 1_555 1_555
O5 C40 1_555 1_555
O6 C31 1_555 1_555
N1 N2 1_555 1_555
N2 N3 1_555 1_555
N3 C6 1_555 1_555
N4 N5 1_555 1_555
N5 N6 1_555 1_555
N6 C16 1_555 1_555
N7 N8 1_555 1_555
N8 N9 1_555 1_555
N9 C24 1_555 1_555
N10 N11 1_555 1_555
N11 N12 1_555 1_555
N12 C38 1_555 1_555
C1 N1 1_555 1_555
C2 C1 1_555 1_555
H1 C2 1_555 1_555
C3 C2 1_555 1_555
H2 C3 1_555 1_555
C4 C3 1_555 1_555
H3 C4 1_555 1_555
C5 C4 1_555 1_555
H4 C5 1_555 1_555
C6 C1 1_555 1_555
C7 N1 1_555 1_555
H5 C7 1_555 1_555
C8 C7 1_555 1_555
C9 C8 1_555 1_555
H6 C9 1_555 1_555
C10 C9 1_555 1_555
H7 C10 1_555 1_555
C11 C10 1_555 1_555
H8 C11 1_555 1_555
C12 C11 1_555 1_555
H9 C12 1_555 1_555
C13 C8 1_555 1_555
C14 O3 1_555 1_555
H10 C14 1_555 1_555
H11 C14 1_555 1_555
H12 C14 1_555 1_555
C15 N4 1_555 1_555
C16 C15 1_555 1_555
H13 C16 1_555 1_555
C17 N6 1_555 1_555
H14 C17 1_555 1_555
H15 C17 1_555 1_555
C18 O1 1_555 1_555
C19 C18 1_555 1_555
C20 C19 1_555 1_555
H16 C20 1_555 1_555
H17 C20 1_555 1_555
H18 C20 1_555 1_555
C21 C19 1_555 1_555
H19 C21 1_555 1_555
H20 C21 1_555 1_555
H21 C21 1_555 1_555
C22 C19 1_555 1_555
H22 C22 1_555 1_555
H23 C22 1_555 1_555
H24 C22 1_555 1_555
C23 N7 1_555 1_555
C24 C23 1_555 1_555
C25 C24 1_555 1_555
H25 C25 1_555 1_555
C26 C25 1_555 1_555
H26 C26 1_555 1_555
C27 C26 1_555 1_555
H27 C27 1_555 1_555
C28 C23 1_555 1_555
H28 C28 1_555 1_555
C29 N7 1_555 1_555
H29 C29 1_555 1_555
C30 C29 1_555 1_555
C31 C30 1_555 1_555
C32 C31 1_555 1_555
H30 C32 1_555 1_555
C33 C32 1_555 1_555
H31 C33 1_555 1_555
C34 C33 1_555 1_555
H32 C34 1_555 1_555
C35 C30 1_555 1_555
H33 C35 1_555 1_555
C36 O6 1_555 1_555
H34 C36 1_555 1_555
H35 C36 1_555 1_555
H36 C36 1_555 1_555
C37 N10 1_555 1_555
C38 C37 1_555 1_555
H37 C38 1_555 1_555
C39 N12 1_555 1_555
H38 C39 1_555 1_555
H39 C39 1_555 1_555
C40 O4 1_555 1_555
C41 C40 1_555 1_555
C42 C41 1_555 1_555
H40 C42 1_555 1_555
H41 C42 1_555 1_555
H42 C42 1_555 1_555
C43 C41 1_555 1_555
H43 C43 1_555 1_555
H44 C43 1_555 1_555
H45 C43 1_555 1_555
C44 C41 1_555 1_555
H46 C44 1_555 1_555
H47 C44 1_555 1_555
H48 C44 1_555 1_555
C5 C6 1_555 1_555
C7 C15 1_555 1_555
C12 C13 1_555 1_555
C27 C28 1_555 1_555
C29 C37 1_555 1_555
C34 C35 1_555 1_555

#END
