
#######################################################################
#
#                 Cambridge Crystallographic Data Centre
#                                CCDC 
#
#######################################################################
#
# If this CIF has been generated from an entry in the Cambridge 
# Structural Database, then it will include bibliographic, chemical, 
# crystal, experimental, refinement or atomic coordinate data resulting 
# from the CCDC's data processing and validation procedures.
#
#######################################################################

data_UMIVAP
_chemical_formula_moiety         'C25 H24 N2'
_chemical_name_systematic        1-mesityl-4,6-diphenyl-1,6-dihydropyrimidine
_symmetry_cell_setting           monoclinic
_symmetry_space_group_name_H-M   'P c'
_symmetry_Int_Tables_number      7
_space_group_name_Hall           'P -2yc'
loop_
_symmetry_equiv_pos_site_id
_symmetry_equiv_pos_as_xyz
1 x,y,z
2 x,-y,1/2+z
_cell_length_a                   9.1008(6)
_cell_length_b                   5.9806(2)
_cell_length_c                   17.9057(15)
_cell_angle_alpha                90
_cell_angle_beta                 99.707(6)
_cell_angle_gamma                90
_cell_volume                     960.623
_exptl_crystal_colour            yellow
_exptl_crystal_description       prism
_cell_formula_units_Z            2
loop_
_atom_site_label
_atom_site_type_symbol
_atom_site_fract_x
_atom_site_fract_y
_atom_site_fract_z
N1 N 0.56072(12) 0.0124(2) 0.74959(7)
N2 N 0.71004(13) 0.31809(19) 0.80100(7)
C1 C 0.58314(15) 0.2259(2) 0.77346(7)
H1 H 0.4973 0.3182 0.7697
C2 C 0.83449(15) 0.1711(2) 0.81288(7)
C3 C 0.82736(15) -0.0383(2) 0.78481(7)
H2 H 0.9126 -0.1319 0.7960
C4 C 0.68890(14) -0.1290(2) 0.73628(8)
H3 H 0.6721 -0.2842 0.7539
C5 C 0.41393(15) -0.0877(2) 0.73236(8)
C6 C 0.37549(14) -0.2432(2) 0.78479(7)
C7 C 0.24373(15) -0.3655(2) 0.76452(8)
H4 H 0.2167 -0.4724 0.7990
C8 C 0.15072(15) -0.3343(2) 0.69472(8)
C9 C 0.18708(15) -0.1665(2) 0.64664(8)
H5 H 0.1206 -0.1363 0.6009
C10 C 0.31878(15) -0.0416(2) 0.66393(8)
C11 C 0.47293(16) -0.2784(3) 0.86135(8)
H6 H 0.5610 -0.3659 0.8550
H7 H 0.4163 -0.3589 0.8948
H8 H 0.5044 -0.1330 0.8838
C12 C 0.01690(16) -0.4846(3) 0.67130(9)
H9 H -0.0407 -0.4307 0.6235
H10 H -0.0459 -0.4826 0.7107
H11 H 0.0508 -0.6377 0.6646
C13 C 0.35360(17) 0.1379(3) 0.60978(8)
H12 H 0.3331 0.2854 0.6295
H13 H 0.2913 0.1157 0.5601
H14 H 0.4590 0.1287 0.6047
C14 C 0.96919(15) 0.2602(2) 0.86374(8)
C15 C 0.96002(15) 0.4592(2) 0.90396(8)
H15 H 0.8699 0.5426 0.8959
C16 C 1.08146(17) 0.5369(3) 0.95578(8)
H16 H 1.0733 0.6720 0.9827
C17 C 1.21403(16) 0.4171(3) 0.96797(8)
H17 H 1.2959 0.4678 1.0041
C18 C 1.22617(16) 0.2222(3) 0.92698(8)
H18 H 1.3174 0.1415 0.9345
C19 C 1.10567(16) 0.1443(2) 0.87495(8)
H19 H 1.1158 0.0121 0.8469
C20 C 0.69652(14) -0.1390(2) 0.65180(8)
C21 C 0.76199(16) 0.0340(3) 0.61622(8)
H20 H 0.8053 0.1578 0.6451
C22 C 0.76391(18) 0.0257(3) 0.53849(9)
H21 H 0.8074 0.1443 0.5145
C23 C 0.70213(18) -0.1564(3) 0.49626(9)
H22 H 0.7043 -0.1627 0.4434
C24 C 0.63725(18) -0.3292(3) 0.53101(9)
H23 H 0.5949 -0.4533 0.5019
C25 C 0.63420(16) -0.3208(3) 0.60856(8)
H24 H 0.5896 -0.4392 0.6321
loop_
_geom_bond_atom_site_label_1
_geom_bond_atom_site_label_2
_geom_bond_site_symmetry_1
_geom_bond_site_symmetry_2
N1 C1 1_555 1_555
N2 C1 1_555 1_555
C1 H1 1_555 1_555
C2 N2 1_555 1_555
C3 C2 1_555 1_555
H2 C3 1_555 1_555
C4 N1 1_555 1_555
H3 C4 1_555 1_555
C5 N1 1_555 1_555
C6 C5 1_555 1_555
C7 C6 1_555 1_555
H4 C7 1_555 1_555
C8 C7 1_555 1_555
C9 C8 1_555 1_555
H5 C9 1_555 1_555
C10 C5 1_555 1_555
C11 C6 1_555 1_555
H6 C11 1_555 1_555
H7 C11 1_555 1_555
H8 C11 1_555 1_555
C12 C8 1_555 1_555
H9 C12 1_555 1_555
H10 C12 1_555 1_555
H11 C12 1_555 1_555
C13 C10 1_555 1_555
H12 C13 1_555 1_555
H13 C13 1_555 1_555
H14 C13 1_555 1_555
C14 C2 1_555 1_555
C15 C14 1_555 1_555
H15 C15 1_555 1_555
C16 C15 1_555 1_555
H16 C16 1_555 1_555
C17 C16 1_555 1_555
H17 C17 1_555 1_555
C18 C17 1_555 1_555
H18 C18 1_555 1_555
C19 C14 1_555 1_555
H19 C19 1_555 1_555
C20 C4 1_555 1_555
C21 C20 1_555 1_555
H20 C21 1_555 1_555
C22 C21 1_555 1_555
H21 C22 1_555 1_555
C23 C22 1_555 1_555
H22 C23 1_555 1_555
C24 C23 1_555 1_555
H23 C24 1_555 1_555
C25 C20 1_555 1_555
H24 C25 1_555 1_555
C3 C4 1_555 1_555
C9 C10 1_555 1_555
C18 C19 1_555 1_555
C24 C25 1_555 1_555

#END
