
#######################################################################
#
#                 Cambridge Crystallographic Data Centre
#                                CCDC 
#
#######################################################################
#
# If this CIF has been generated from an entry in the Cambridge 
# Structural Database, then it will include bibliographic, chemical, 
# crystal, experimental, refinement or atomic coordinate data resulting 
# from the CCDC's data processing and validation procedures.
#
#######################################################################

data_UMIXAQ
_chemical_compound_source        'Streptomyces sp'
_chemical_name_common            'Alchivemycin A'
_chemical_formula_moiety         'C35 H53 N1 O10,C1 H2 Cl2'
_chemical_name_systematic        
'24-(1,2-Dihydroxy-3-methylpent-3-en-1-yl)-2,22,23-trihydroxy-5,7,14,21-tetramethyl-11,15,26-trioxa-25-azahexacyclo-[23.2.2.0^3,13^.0^4,9^.0^10,12^.0^14,16^]nonacos-1-ene-27,28-dione dichloromethane solvate'
_chemical_properties_biological  'antimicrobial and antitumor activity'
_symmetry_cell_setting           orthorhombic
_symmetry_space_group_name_H-M   'P 21 21 21'
_symmetry_Int_Tables_number      19
_space_group_name_Hall           'P 2ac 2ab'
loop_
_symmetry_equiv_pos_site_id
_symmetry_equiv_pos_as_xyz
1 x,y,z
2 1/2-x,-y,1/2+z
3 1/2+x,1/2-y,-z
4 -x,1/2+y,1/2-z
_cell_length_a                   10.613(3)
_cell_length_b                   10.756(3)
_cell_length_c                   33.591(8)
_cell_angle_alpha                90
_cell_angle_beta                 90
_cell_angle_gamma                90
_cell_volume                     3834.53
_cell_formula_units_Z            4
loop_
_atom_site_label
_atom_site_type_symbol
_atom_site_fract_x
_atom_site_fract_y
_atom_site_fract_z
C1 C 0.8121(3) 0.2144(3) 0.11209(9)
C2 C 0.9254(3) 0.1929(3) 0.13626(9)
C3 C 0.9301(3) 0.2156(3) 0.17731(9)
C4 C 0.8319(3) 0.2816(3) 0.20173(8)
H1 H 0.7572 0.2938 0.1850
C5 C 0.7923(4) 0.2055(3) 0.23870(9)
H2 H 0.8690 0.1823 0.2532
C6 C 0.7187(4) 0.0846(3) 0.22909(11)
H3 H 0.7016 0.0456 0.2549
C7 C 0.5914(4) 0.1117(3) 0.21125(12)
H4 H 0.5488 0.0335 0.2061
H5 H 0.6032 0.1533 0.1859
C8 C 0.5078(5) 0.1914(4) 0.23733(15)
H6 H 0.4873 0.1430 0.2612
C9 C 0.5785(5) 0.3065(4) 0.25059(14)
H7 H 0.5864 0.3624 0.2281
H8 H 0.5291 0.3486 0.2708
C10 C 0.7085(5) 0.2810(4) 0.26713(10)
H9 H 0.6979 0.2319 0.2915
C11 C 0.7677(6) 0.4025(4) 0.27881(11)
H10 H 0.7182 0.4556 0.2966
C12 C 0.8509(4) 0.4663(3) 0.25107(10)
H11 H 0.8510 0.5573 0.2528
C13 C 0.8891(3) 0.4131(3) 0.21145(9)
H12 H 0.9808 0.4027 0.2123
C14 C 0.8618(4) 0.5069(3) 0.17887(9)
C15 C 0.9640(4) 0.5934(3) 0.16789(10)
H13 H 1.0406 0.5852 0.1839
C16 C 0.9442(5) 0.7203(3) 0.14993(12)
H14 H 0.9353 0.7806 0.1712
H15 H 0.8662 0.7200 0.1349
C17 C 1.0521(5) 0.7611(4) 0.12249(13)
H16 H 1.0421 0.8487 0.1165
H17 H 1.1312 0.7512 0.1366
C18 C 1.0593(5) 0.6892(4) 0.08366(13)
H18 H 1.1369 0.7114 0.0701
H19 H 1.0634 0.6011 0.0897
C19 C 0.9511(6) 0.7113(4) 0.05588(14)
H20 H 0.9625 0.7925 0.0438
H21 H 0.8747 0.7151 0.0717
C20 C 0.9291(6) 0.6162(4) 0.02192(13)
H22 H 1.0032 0.6177 0.0045
C21 C 0.9168(4) 0.4848(4) 0.03903(11)
H23 H 0.9962 0.4634 0.0522
C22 C 0.8872(4) 0.3827(4) 0.00801(10)
H24 H 0.9213 0.4123 -0.0174
C23 C 0.9540(4) 0.2601(3) 0.01699(9)
H25 H 1.0423 0.2758 0.0100
C24 C 0.9146(4) 0.1520(4) -0.01026(10)
H26 H 0.9693 0.0815 -0.0037
C25 C 0.9383(4) 0.1835(4) -0.05386(10)
H27 H 0.8863 0.2550 -0.0614
C26 C 0.9123(5) 0.0770(5) -0.08192(12)
C27 C 0.8406(6) 0.0997(6) -0.11264(13)
H28 H 0.8087 0.1799 -0.1152
C28 C 0.8045(9) 0.0054(9) -0.14485(19)
H29 H 0.7497 0.0443 -0.1639
H30 H 0.7619 -0.0638 -0.1328
H31 H 0.8792 -0.0234 -0.1580
C29 C 1.0316(4) 0.1421(3) 0.11735(10)
C30 C 1.0313(4) 0.1302(4) 0.07269(10)
H32 H 1.1162 0.1348 0.0621
H33 H 0.9932 0.0525 0.0644
C31 C 0.7911(5) -0.0116(3) 0.20529(14)
H34 H 0.8703 -0.0280 0.2180
H35 H 0.8058 0.0193 0.1789
H36 H 0.7429 -0.0870 0.2039
C32 C 0.3840(5) 0.2255(6) 0.2170(2)
H37 H 0.3332 0.2738 0.2349
H38 H 0.3396 0.1509 0.2099
H39 H 0.4012 0.2731 0.1935
C33 C 0.7263(4) 0.5400(4) 0.17198(13)
H40 H 0.6736 0.4727 0.1807
H41 H 0.7127 0.5546 0.1441
H42 H 0.7058 0.6137 0.1867
C34 C 0.8150(8) 0.6540(5) -0.00293(16)
H43 H 0.8045 0.5964 -0.0245
H44 H 0.8278 0.7361 -0.0134
H45 H 0.7409 0.6533 0.0135
C35 C 0.9790(8) -0.0427(6) -0.0729(2)
H46 H 1.0275 -0.0334 -0.0490
H47 H 1.0339 -0.0634 -0.0946
H48 H 0.9181 -0.1078 -0.0694
O1 O 0.7065(2) 0.2287(2) 0.12400(7)
O2 O 0.8267(2) 0.2089(2) 0.07220(6)
O3 O 1.0298(3) 0.1850(2) 0.19636(7)
O4 O 0.9008(4) 0.4017(3) 0.28517(8)
O5 O 0.9345(3) 0.48494(19) 0.14340(6)
O6 O 0.8193(3) 0.4815(3) 0.06778(7)
H49 H 0.8441 0.4833 0.0888
O7 O 0.7556(3) 0.3666(3) 0.00208(8)
H50 H 0.7187 0.3751 0.0274
O8 O 0.7891(3) 0.1118(3) -0.00452(9)
O9 O 1.0680(3) 0.2180(3) -0.05527(7)
H51 H 1.1043 0.2302 -0.0784
O10 O 1.1281(3) 0.1067(3) 0.13652(8)
N1 N 0.9569(3) 0.2349(3) 0.05989(8)
Cl1 Cl 0.3968(4) 0.0044(3) 0.11209(10)
Cl2 Cl 0.5954(12) -0.1588(7) 0.1285(3)
C36 C 0.5362(11) -0.0401(7) 0.1003(3)
Cl3? Cl 0.4224(18) -0.1055(16) 0.1236(5)
Cl4? Cl 0.6456(12) -0.1222(13) 0.0876(4)
loop_
_geom_bond_atom_site_label_1
_geom_bond_atom_site_label_2
_geom_bond_site_symmetry_1
_geom_bond_site_symmetry_2
C1 C2 1_555 1_555
C2 C3 1_555 1_555
C3 C4 1_555 1_555
C4 H1 1_555 1_555
C5 C4 1_555 1_555
H2 C5 1_555 1_555
C6 C5 1_555 1_555
H3 C6 1_555 1_555
C7 C6 1_555 1_555
H4 C7 1_555 1_555
H5 C7 1_555 1_555
C8 C7 1_555 1_555
H6 C8 1_555 1_555
C9 C8 1_555 1_555
H7 C9 1_555 1_555
H8 C9 1_555 1_555
C10 C5 1_555 1_555
H9 C10 1_555 1_555
C11 C10 1_555 1_555
H10 C11 1_555 1_555
C12 C11 1_555 1_555
H11 C12 1_555 1_555
C13 C4 1_555 1_555
H12 C13 1_555 1_555
C14 C13 1_555 1_555
C15 C14 1_555 1_555
H13 C15 1_555 1_555
C16 C15 1_555 1_555
H14 C16 1_555 1_555
H15 C16 1_555 1_555
C17 C16 1_555 1_555
H16 C17 1_555 1_555
H17 C17 1_555 1_555
C18 C17 1_555 1_555
H18 C18 1_555 1_555
H19 C18 1_555 1_555
C19 C18 1_555 1_555
H20 C19 1_555 1_555
H21 C19 1_555 1_555
C20 C19 1_555 1_555
H22 C20 1_555 1_555
C21 C20 1_555 1_555
H23 C21 1_555 1_555
C22 C21 1_555 1_555
H24 C22 1_555 1_555
C23 C22 1_555 1_555
H25 C23 1_555 1_555
C24 C23 1_555 1_555
H26 C24 1_555 1_555
C25 C24 1_555 1_555
H27 C25 1_555 1_555
C26 C25 1_555 1_555
C27 C26 1_555 1_555
H28 C27 1_555 1_555
C28 C27 1_555 1_555
H29 C28 1_555 1_555
H30 C28 1_555 1_555
H31 C28 1_555 1_555
C29 C2 1_555 1_555
C30 C29 1_555 1_555
H32 C30 1_555 1_555
H33 C30 1_555 1_555
C31 C6 1_555 1_555
H34 C31 1_555 1_555
H35 C31 1_555 1_555
H36 C31 1_555 1_555
C32 C8 1_555 1_555
H37 C32 1_555 1_555
H38 C32 1_555 1_555
H39 C32 1_555 1_555
C33 C14 1_555 1_555
H40 C33 1_555 1_555
H41 C33 1_555 1_555
H42 C33 1_555 1_555
C34 C20 1_555 1_555
H43 C34 1_555 1_555
H44 C34 1_555 1_555
H45 C34 1_555 1_555
C35 C26 1_555 1_555
H46 C35 1_555 1_555
H47 C35 1_555 1_555
H48 C35 1_555 1_555
O1 C1 1_555 1_555
O2 C1 1_555 1_555
O3 C3 1_555 1_555
O4 C11 1_555 1_555
O5 C14 1_555 1_555
O6 C21 1_555 1_555
H49 O6 1_555 1_555
O7 C22 1_555 1_555
H50 O7 1_555 1_555
O8 C24 1_555 1_555
O9 C25 1_555 1_555
H51 O9 1_555 1_555
O10 C29 1_555 1_555
N1 C23 1_555 1_555
Cl1 C36 1_555 1_555
Cl2 C36 1_555 1_555
C9 C10 1_555 1_555
C12 C13 1_555 1_555
C12 O4 1_555 1_555
C15 O5 1_555 1_555
C30 N1 1_555 1_555
O2 N1 1_555 1_555

#END
