
#######################################################################
#
#                 Cambridge Crystallographic Data Centre
#                                CCDC 
#
#######################################################################
#
# If this CIF has been generated from an entry in the Cambridge 
# Structural Database, then it will include bibliographic, chemical, 
# crystal, experimental, refinement or atomic coordinate data resulting 
# from the CCDC's data processing and validation procedures.
#
#######################################################################

data_UMOBAB
_chemical_formula_moiety         'C18 H22 N6 O2'
_chemical_name_systematic        
1,3,6,15,17,19-Hexa-azahexacyclo[17.3.1.1^3,6^.0^4,17^.0^5,15^.0^8,13^]tetracosa-8,10,12-triene-16,24-dione
_symmetry_cell_setting           monoclinic
_symmetry_space_group_name_H-M   'P 21/c'
_symmetry_Int_Tables_number      14
_space_group_name_Hall           '-P 2ybc'
loop_
_symmetry_equiv_pos_site_id
_symmetry_equiv_pos_as_xyz
1 x,y,z
2 -x,1/2+y,1/2-z
3 -x,-y,-z
4 x,1/2-y,1/2+z
_cell_length_a                   10.6892(11)
_cell_length_b                   12.1226(9)
_cell_length_c                   13.7822(13)
_cell_angle_alpha                90
_cell_angle_beta                 112.620(4)
_cell_angle_gamma                90
_cell_volume                     1648.53
_exptl_crystal_colour            colorless
_exptl_crystal_description       block
_cell_formula_units_Z            4
loop_
_atom_site_label
_atom_site_type_symbol
_atom_site_fract_x
_atom_site_fract_y
_atom_site_fract_z
O1 O 0.34120(12) 0.28699(9) 0.38203(8)
O2 O 0.15232(12) 0.66355(9) 0.09756(9)
N1 N 0.23522(12) 0.31494(10) 0.20313(9)
N2 N 0.16036(12) 0.47404(10) 0.08698(9)
N3 N 0.06377(12) 0.54722(10) 0.18832(9)
N4 N 0.14698(12) 0.39235(10) 0.30864(9)
N5 N 0.16183(14) 0.51070(11) 0.46009(10)
N6 N 0.07728(13) 0.66908(10) 0.33805(10)
C1 C 0.44301(14) 0.36433(12) 0.17321(11)
C2 C 0.57769(15) 0.35558(13) 0.24105(12)
H1 H 0.6067 0.2942 0.2844
C3 C 0.66962(16) 0.43814(15) 0.24461(14)
H2 H 0.7598 0.4319 0.2903
C4 C 0.62727(16) 0.52898(14) 0.18066(14)
H3 H 0.6889 0.5841 0.1830
C5 C 0.49285(16) 0.53870(13) 0.11262(13)
H4 H 0.4647 0.6006 0.0698
C6 C 0.40000(14) 0.45673(12) 0.10791(11)
C7 C 0.25367(15) 0.46757(14) 0.03336(11)
H5 H 0.2438 0.5334 -0.0090
H6 H 0.2296 0.4046 -0.0137
C8 C 0.12943(14) 0.57108(12) 0.12258(11)
C9 C 0.00494(15) 0.63258(13) 0.23197(12)
H7 H -0.0109 0.6967 0.1867
H8 H -0.0831 0.6064 0.2270
C10 C 0.06885(16) 0.60309(13) 0.42332(13)
H9 H -0.0228 0.5746 0.4010
H10 H 0.0832 0.6516 0.4826
C11 C 0.12233(17) 0.40782(12) 0.40478(12)
H11 H 0.0261 0.3980 0.3874
H12 H 0.1688 0.3491 0.4530
C12 C 0.25166(15) 0.32826(11) 0.30614(11)
C13 C 0.34369(15) 0.27513(12) 0.17264(12)
H13 H 0.3040 0.2436 0.1027
H14 H 0.3925 0.2169 0.2205
C14 C 0.12236(13) 0.37845(12) 0.13241(11)
H15 H 0.0575 0.3317 0.0783
C15 C 0.05844(13) 0.42991(11) 0.20557(10)
H16 H -0.0348 0.4045 0.1875
C16 C 0.21681(16) 0.70689(13) 0.36379(14)
H17 H 0.2390 0.7617 0.4192
H18 H 0.2221 0.7424 0.3024
C17 C 0.32205(16) 0.61458(14) 0.39936(13)
H19 H 0.4124 0.6461 0.4260
H20 H 0.3130 0.5678 0.3399
C18 C 0.30255(17) 0.54562(15) 0.48536(12)
H21 H 0.3594 0.4805 0.4980
H22 H 0.3329 0.5883 0.5498
loop_
_geom_bond_atom_site_label_1
_geom_bond_atom_site_label_2
_geom_bond_site_symmetry_1
_geom_bond_site_symmetry_2
O1 C12 1_555 1_555
O2 C8 1_555 1_555
N1 C12 1_555 1_555
N2 C7 1_555 1_555
N3 C8 1_555 1_555
N4 C11 1_555 1_555
N5 C10 1_555 1_555
N6 C9 1_555 1_555
C1 C2 1_555 1_555
C2 H1 1_555 1_555
C3 C2 1_555 1_555
H2 C3 1_555 1_555
C4 C3 1_555 1_555
H3 C4 1_555 1_555
C5 C4 1_555 1_555
H4 C5 1_555 1_555
C6 C1 1_555 1_555
C7 C6 1_555 1_555
H5 C7 1_555 1_555
H6 C7 1_555 1_555
C8 N2 1_555 1_555
C9 N3 1_555 1_555
H7 C9 1_555 1_555
H8 C9 1_555 1_555
C10 N6 1_555 1_555
H9 C10 1_555 1_555
H10 C10 1_555 1_555
C11 N5 1_555 1_555
H11 C11 1_555 1_555
H12 C11 1_555 1_555
C12 N4 1_555 1_555
C13 N1 1_555 1_555
H13 C13 1_555 1_555
H14 C13 1_555 1_555
C14 N1 1_555 1_555
H15 C14 1_555 1_555
C15 N3 1_555 1_555
H16 C15 1_555 1_555
C16 N6 1_555 1_555
H17 C16 1_555 1_555
H18 C16 1_555 1_555
C17 C16 1_555 1_555
H19 C17 1_555 1_555
H20 C17 1_555 1_555
C18 N5 1_555 1_555
H21 C18 1_555 1_555
H22 C18 1_555 1_555
N2 C14 1_555 1_555
N4 C15 1_555 1_555
C1 C13 1_555 1_555
C5 C6 1_555 1_555
C14 C15 1_555 1_555
C17 C18 1_555 1_555

#END
