
#######################################################################
#
#                 Cambridge Crystallographic Data Centre
#                                CCDC 
#
#######################################################################
#
# If this CIF has been generated from an entry in the Cambridge 
# Structural Database, then it will include bibliographic, chemical, 
# crystal, experimental, refinement or atomic coordinate data resulting 
# from the CCDC's data processing and validation procedures.
#
#######################################################################

data_UMOCEF
_chemical_name_common            
5,11,17,23-Tetra-t-butyl-25,27-[1,3-bis(oxyethoxy)benzene]-2,8,14,20-tetra-thiacalix[4]arene
_chemical_formula_moiety         'C50 H58 O6 S4'
_chemical_name_systematic        
19,25,31,36-Tetra-t-butyl-3,6,12,15-tetraoxa-22,28,33,39-tetrathiaheptacyclo-[15.15.7.1^7,11^.1^23,27^.1^34,38^.0^2,29^.0^16,21^]dotetraconta-1,7(42),8,10,16,18,20,23(41),24,26,29,31,34(40),35,37-pentadecaene-40,41-diol
_symmetry_cell_setting           orthorhombic
_symmetry_space_group_name_H-M   'P b c a'
_symmetry_Int_Tables_number      61
_space_group_name_Hall           '-P 2ac 2ab'
loop_
_symmetry_equiv_pos_site_id
_symmetry_equiv_pos_as_xyz
1 x,y,z
2 1/2-x,-y,1/2+z
3 -x,1/2+y,1/2-z
4 1/2+x,1/2-y,-z
5 -x,-y,-z
6 1/2+x,y,1/2-z
7 x,1/2-y,1/2+z
8 1/2-x,1/2+y,z
_cell_length_a                   17.1148(7)
_cell_length_b                   22.5558(9)
_cell_length_c                   25.0673(9)
_cell_angle_alpha                90
_cell_angle_beta                 90
_cell_angle_gamma                90
_cell_volume                     9676.93
_exptl_crystal_colour            colorless
_exptl_crystal_description       block
_cell_formula_units_Z            8
loop_
_atom_site_label
_atom_site_type_symbol
_atom_site_fract_x
_atom_site_fract_y
_atom_site_fract_z
C1 C 0.78253(19) 0.24018(15) 0.61441(15)
C2 C 0.78976(19) 0.23489(16) 0.55925(15)
C3 C 0.8347(2) 0.18952(17) 0.53873(15)
H1 H 0.8400 0.1865 0.5019
C4 C 0.8724(2) 0.14814(17) 0.57074(16)
C5 C 0.8630(2) 0.15440(17) 0.62565(16)
H2 H 0.8874 0.1274 0.6482
C6 C 0.81859(19) 0.19937(16) 0.64775(14)
C7 C 0.9264(2) 0.10084(18) 0.54711(18)
C8 C 0.8826(7) 0.0685(6) 0.5010(5)
H3 H 0.8359 0.0505 0.5147
H4 H 0.9158 0.0384 0.4862
H5 H 0.8692 0.0966 0.4738
C9 C 1.0005(6) 0.1264(5) 0.5256(7)
H6 H 0.9884 0.1569 0.5002
H7 H 1.0303 0.0958 0.5085
H8 H 1.0304 0.1431 0.5544
C10 C 0.9445(8) 0.0522(4) 0.5885(5)
H9 H 0.9799 0.0676 0.6149
H10 H 0.9681 0.0189 0.5710
H11 H 0.8970 0.0399 0.6055
C11 C 0.74684(19) 0.15976(16) 0.74422(14)
C12 C 0.66795(19) 0.16539(15) 0.73131(13)
C13 C 0.61476(19) 0.12658(16) 0.75644(14)
C14 C 0.6406(2) 0.08766(16) 0.79546(14)
H12 H 0.6047 0.0626 0.8118
C15 C 0.7188(2) 0.08501(17) 0.81102(14)
C16 C 0.7710(2) 0.12059(17) 0.78352(15)
H13 H 0.8239 0.1181 0.7917
C17 C 0.7450(2) 0.04793(19) 0.85883(17)
C18 C 0.8257(6) 0.0215(8) 0.8496(8)
H14 H 0.8230 -0.0071 0.8213
H15 H 0.8433 0.0025 0.8817
H16 H 0.8615 0.0524 0.8400
C19 C 0.7543(12) 0.0940(5) 0.9053(4)
H17 H 0.7925 0.1232 0.8956
H18 H 0.7710 0.0738 0.9371
H19 H 0.7051 0.1131 0.9118
C20 C 0.6874(7) 0.0016(7) 0.8761(6)
H20 H 0.6389 0.0203 0.8855
H21 H 0.7077 -0.0193 0.9065
H22 H 0.6788 -0.0258 0.8474
C21 C 0.51662(19) 0.11975(15) 0.67178(14)
C22 C 0.47538(18) 0.15714(15) 0.63783(15)
C23 C 0.48740(19) 0.15190(16) 0.58334(15)
C24 C 0.5350(2) 0.10773(16) 0.56298(15)
H23 H 0.5405 0.1041 0.5262
C25 C 0.5745(2) 0.06884(16) 0.59619(16)
C26 C 0.5641(2) 0.07592(15) 0.65066(15)
H24 H 0.5900 0.0504 0.6738
C27 C 0.6278(3) 0.02005(18) 0.57426(17)
C28 C 0.7048(5) 0.0194(6) 0.6056(5)
H25 H 0.7308 0.0568 0.6014
H26 H 0.7377 -0.0118 0.5923
H27 H 0.6940 0.0127 0.6427
C29 C 0.5857(5) -0.0400(3) 0.5852(7)
H28 H 0.5791 -0.0452 0.6230
H29 H 0.6166 -0.0720 0.5713
H30 H 0.5355 -0.0399 0.5682
C30 C 0.6434(10) 0.0257(7) 0.5151(3)
H31 H 0.6712 0.0619 0.5083
H32 H 0.5947 0.0261 0.4962
H33 H 0.6744 -0.0073 0.5034
C31 C 0.5307(2) 0.21992(15) 0.50036(15)
C32 C 0.59617(19) 0.24684(16) 0.52287(14)
C33 C 0.66267(19) 0.25400(16) 0.49089(15)
C34 C 0.6606(2) 0.23738(17) 0.43779(15)
H34 H 0.7052 0.2427 0.4172
C35 C 0.5950(2) 0.21314(16) 0.41404(15)
C36 C 0.5309(2) 0.20421(16) 0.44702(15)
H35 H 0.4863 0.1870 0.4327
C37 C 0.5928(3) 0.19500(19) 0.35500(17)
C38 C 0.5692(16) 0.1310(5) 0.3494(7)
H36 H 0.5989 0.1072 0.3738
H37 H 0.5791 0.1180 0.3135
H38 H 0.5145 0.1270 0.3572
C39 C 0.6715(7) 0.2049(11) 0.3274(6)
H39 H 0.7100 0.1791 0.3428
H40 H 0.6875 0.2454 0.3322
H41 H 0.6665 0.1966 0.2900
C40 C 0.5328(11) 0.2351(10) 0.3278(5)
H42 H 0.5296 0.2252 0.2906
H43 H 0.5484 0.2758 0.3316
H44 H 0.4826 0.2295 0.3441
C41 C 0.7788(2) 0.33844(18) 0.64808(19)
H45 H 0.7945 0.3578 0.6152
H46 H 0.8254 0.3292 0.6685
C42 C 0.7269(3) 0.3783(2) 0.6794(2)
H47 H 0.7065 0.3572 0.7101
H48 H 0.7563 0.4122 0.6920
C43 C 0.5965(3) 0.41162(19) 0.67429(18)
C44 C 0.5940(4) 0.4583(2) 0.7097(2)
H49 H 0.6375 0.4822 0.7155
C45 C 0.5247(4) 0.4683(2) 0.7362(2)
H50 H 0.5214 0.5000 0.7599
C46 C 0.4609(4) 0.4332(2) 0.7286(2)
H51 H 0.4151 0.4406 0.7474
C47 C 0.4642(3) 0.3865(2) 0.6928(2)
C48 C 0.5329(3) 0.37636(19) 0.66480(19)
H52 H 0.5357 0.3459 0.6398
C49 C 0.4013(3) 0.3015(2) 0.6552(2)
H53 H 0.4206 0.3134 0.6204
H54 H 0.3487 0.2865 0.6505
C50 C 0.4523(2) 0.25240(17) 0.67642(17)
H55 H 0.5057 0.2577 0.6644
H56 H 0.4520 0.2527 0.7151
O1 O 0.73607(13) 0.28452(10) 0.63620(10)
O2 O 0.42191(13) 0.19750(11) 0.65701(10)
O3 O 0.63965(14) 0.20610(11) 0.69714(10)
H57 H 0.6757 0.2264 0.6857
O4 O 0.59324(14) 0.26454(12) 0.57420(10)
H58 H 0.6351 0.2796 0.5825
O5 O 0.6641(2) 0.39764(13) 0.64648(12)
O6 O 0.3987(2) 0.35233(16) 0.68906(16)
S1 S 0.74720(5) 0.28994(4) 0.51654(4)
S2 S 0.81677(6) 0.21080(5) 0.71859(4)
S3 S 0.51331(5) 0.13171(5) 0.74196(4)
S4 S 0.44568(5) 0.20578(5) 0.53946(4)
C51? C 1.0099(5) 0.1182(6) 0.5665(6)
C52? C 0.7144(17) -0.0161(5) 0.8465(13)
C53? C 0.7069(16) 0.0678(13) 0.9104(5)
C54? C 0.8330(5) 0.0423(12) 0.8661(13)
C55? C 0.6810(14) 0.0515(11) 0.5319(10)
C56? C 0.5815(14) -0.0277(12) 0.5439(16)
C57? C 0.6828(17) -0.0100(15) 0.6142(10)
C58? C 0.5102(6) 0.1924(14) 0.3322(7)
C59? C 0.6420(15) 0.2364(10) 0.3213(7)
C60? C 0.6277(18) 0.1325(7) 0.3523(7)
C61? C 0.9089(9) 0.0392(4) 0.5654(5)
C62? C 0.9293(10) 0.1042(7) 0.4861(3)
H59? H 1.0209 0.1584 0.5563
H60? H 1.0477 0.0922 0.5506
H61? H 1.0126 0.1148 0.6046
H62? H 0.6592 -0.0147 0.8398
H63? H 0.7245 -0.0414 0.8765
H64? H 0.7407 -0.0314 0.8156
H65? H 0.7236 0.1073 0.9188
H66? H 0.7217 0.0414 0.9387
H67? H 0.6511 0.0671 0.9063
H68? H 0.8567 0.0316 0.8328
H69? H 0.8440 0.0123 0.8922
H70? H 0.8539 0.0796 0.8780
H71? H 0.6487 0.0708 0.5058
H72? H 0.7134 0.0226 0.5147
H73? H 0.7132 0.0804 0.5493
H74? H 0.5404 -0.0426 0.5663
H75? H 0.6158 -0.0596 0.5343
H76? H 0.5592 -0.0107 0.5122
H77? H 0.7032 0.0192 0.6384
H78? H 0.7251 -0.0285 0.5954
H79? H 0.6545 -0.0394 0.6340
H80? H 0.5126 0.1824 0.2950
H81? H 0.4855 0.2303 0.3363
H82? H 0.4805 0.1628 0.3509
H83? H 0.6952 0.2352 0.3334
H84? H 0.6223 0.2761 0.3245
H85? H 0.6397 0.2242 0.2846
H86? H 0.6004 0.1070 0.3767
H87? H 0.6820 0.1340 0.3619
H88? H 0.6225 0.1173 0.3167
H89? H 0.9001 0.0392 0.6033
H90? H 0.9523 0.0138 0.5572
H91? H 0.8630 0.0249 0.5475
H92? H 0.8784 0.0959 0.4718
H93? H 0.9660 0.0757 0.4729
H94? H 0.9452 0.1433 0.4754
loop_
_geom_bond_atom_site_label_1
_geom_bond_atom_site_label_2
_geom_bond_site_symmetry_1
_geom_bond_site_symmetry_2
C1 C2 1_555 1_555
C2 C3 1_555 1_555
C3 H1 1_555 1_555
C4 C3 1_555 1_555
C5 C4 1_555 1_555
H2 C5 1_555 1_555
C6 C1 1_555 1_555
C7 C4 1_555 1_555
C8 C7 1_555 1_555
H3 C8 1_555 1_555
H4 C8 1_555 1_555
H5 C8 1_555 1_555
C9 C7 1_555 1_555
H6 C9 1_555 1_555
H7 C9 1_555 1_555
H8 C9 1_555 1_555
C10 C7 1_555 1_555
H9 C10 1_555 1_555
H10 C10 1_555 1_555
H11 C10 1_555 1_555
C11 C12 1_555 1_555
C12 C13 1_555 1_555
C13 C14 1_555 1_555
C14 H12 1_555 1_555
C15 C14 1_555 1_555
C16 C11 1_555 1_555
H13 C16 1_555 1_555
C17 C15 1_555 1_555
C18 C17 1_555 1_555
H14 C18 1_555 1_555
H15 C18 1_555 1_555
H16 C18 1_555 1_555
C19 C17 1_555 1_555
H17 C19 1_555 1_555
H18 C19 1_555 1_555
H19 C19 1_555 1_555
C20 C17 1_555 1_555
H20 C20 1_555 1_555
H21 C20 1_555 1_555
H22 C20 1_555 1_555
C21 C22 1_555 1_555
C22 C23 1_555 1_555
C23 C24 1_555 1_555
C24 H23 1_555 1_555
C25 C24 1_555 1_555
C26 C21 1_555 1_555
H24 C26 1_555 1_555
C27 C25 1_555 1_555
C28 C27 1_555 1_555
H25 C28 1_555 1_555
H26 C28 1_555 1_555
H27 C28 1_555 1_555
C29 C27 1_555 1_555
H28 C29 1_555 1_555
H29 C29 1_555 1_555
H30 C29 1_555 1_555
C30 C27 1_555 1_555
H31 C30 1_555 1_555
H32 C30 1_555 1_555
H33 C30 1_555 1_555
C31 C32 1_555 1_555
C32 C33 1_555 1_555
C33 C34 1_555 1_555
C34 H34 1_555 1_555
C35 C34 1_555 1_555
C36 C31 1_555 1_555
H35 C36 1_555 1_555
C37 C35 1_555 1_555
C38 C37 1_555 1_555
H36 C38 1_555 1_555
H37 C38 1_555 1_555
H38 C38 1_555 1_555
C39 C37 1_555 1_555
H39 C39 1_555 1_555
H40 C39 1_555 1_555
H41 C39 1_555 1_555
C40 C37 1_555 1_555
H42 C40 1_555 1_555
H43 C40 1_555 1_555
H44 C40 1_555 1_555
C41 H45 1_555 1_555
H46 C41 1_555 1_555
C42 C41 1_555 1_555
H47 C42 1_555 1_555
H48 C42 1_555 1_555
C43 C44 1_555 1_555
C44 H49 1_555 1_555
C45 C44 1_555 1_555
H50 C45 1_555 1_555
C46 C45 1_555 1_555
H51 C46 1_555 1_555
C47 C46 1_555 1_555
C48 C43 1_555 1_555
H52 C48 1_555 1_555
C49 H53 1_555 1_555
H54 C49 1_555 1_555
C50 C49 1_555 1_555
H55 C50 1_555 1_555
H56 C50 1_555 1_555
O1 C1 1_555 1_555
O2 C22 1_555 1_555
O3 C12 1_555 1_555
H57 O3 1_555 1_555
O4 C32 1_555 1_555
H58 O4 1_555 1_555
O5 C42 1_555 1_555
O6 C47 1_555 1_555
S1 C2 1_555 1_555
S2 C6 1_555 1_555
S3 C13 1_555 1_555
S4 C23 1_555 1_555
C5 C6 1_555 1_555
C11 S2 1_555 1_555
C15 C16 1_555 1_555
C21 S3 1_555 1_555
C25 C26 1_555 1_555
C31 S4 1_555 1_555
C33 S1 1_555 1_555
C35 C36 1_555 1_555
C41 O1 1_555 1_555
C43 O5 1_555 1_555
C47 C48 1_555 1_555
C49 O6 1_555 1_555
C50 O2 1_555 1_555

#END
