
#######################################################################
#
#                 Cambridge Crystallographic Data Centre
#                                CCDC 
#
#######################################################################
#
# If this CIF has been generated from an entry in the Cambridge 
# Structural Database, then it will include bibliographic, chemical, 
# crystal, experimental, refinement or atomic coordinate data resulting 
# from the CCDC's data processing and validation procedures.
#
#######################################################################

data_UMOCIJ
_chemical_name_common            
'5,11,17,23-Tetra-t-butyl-25,27-[1,2-bis(oxyethoxy)benzene]-2,8,14,20-tetra-thiacalix[4]arene dichloromethane solvate'
_chemical_formula_moiety         'C50 H58 O6 S4,2(C1 H2 Cl2)'
_chemical_name_systematic        
'20,26,32,37-Tetra-t-butyl-3,6,13,16-tetraoxa-23,29,34,40-tetrathiaheptacyclo-[16.15.7.1^24,28^.1^35,39^.0^2,30^.0^7,12^.0^17,22^]dotetraconta-1,7,9,11,17,19,21,24(42),25,27,30,32,35(41),36,38-pentadecaene-41,42-diol dichloromethane solvate'
_symmetry_cell_setting           triclinic
_symmetry_space_group_name_H-M   'P -1'
_symmetry_Int_Tables_number      2
_space_group_name_Hall           '-P 1'
loop_
_symmetry_equiv_pos_site_id
_symmetry_equiv_pos_as_xyz
1 x,y,z
2 -x,-y,-z
_cell_length_a                   14.0598(11)
_cell_length_b                   14.4713(11)
_cell_length_c                   16.9810(13)
_cell_angle_alpha                76.995(2)
_cell_angle_beta                 69.653(2)
_cell_angle_gamma                87.282(2)
_cell_volume                     3154.55
_exptl_crystal_colour            colorless
_exptl_crystal_description       block
_cell_formula_units_Z            2
loop_
_atom_site_label
_atom_site_type_symbol
_atom_site_fract_x
_atom_site_fract_y
_atom_site_fract_z
C1 C 0.9919(3) 0.7461(3) 0.5191(3)
C2 C 0.9522(3) 0.8359(3) 0.5155(3)
C3 C 0.9090(4) 0.8660(4) 0.5913(3)
H1 H 0.8814 0.9257 0.5904
C4 C 0.9065(4) 0.8071(4) 0.6699(4)
H2 H 0.8778 0.8276 0.7210
C5 C 0.9462(4) 0.7198(4) 0.6705(4)
H3 H 0.9448 0.6807 0.7226
C6 C 0.9880(4) 0.6885(4) 0.5968(3)
H4 H 1.0141 0.6281 0.5987
C7 C 1.0081(3) 0.6283(3) 0.4365(3)
H5 H 1.0271 0.5797 0.4774
H6 H 1.0441 0.6181 0.3792
C8 C 0.8980(3) 0.6210(3) 0.4553(3)
H7 H 0.8625 0.6153 0.5165
H8 H 0.8763 0.6782 0.4246
C9 C 0.8141(3) 0.5566(3) 0.3782(3)
C10 C 0.7100(3) 0.5714(3) 0.4099(3)
C11 C 0.6533(3) 0.5813(3) 0.3570(3)
H9 H 0.5837 0.5879 0.3806
C12 C 0.6955(4) 0.5818(3) 0.2699(3)
C13 C 0.7999(3) 0.5674(3) 0.2391(3)
H10 H 0.8310 0.5646 0.1816
C14 C 0.8584(3) 0.5571(3) 0.2909(3)
C15 C 0.6324(4) 0.5931(4) 0.2124(3)
C16 C 0.6931(9) 0.6035(11) 0.1191(7)
H11 H 0.7431 0.6541 0.1013
H12 H 0.6490 0.6178 0.0860
H13 H 0.7264 0.5454 0.1100
C17 C 0.5671(10) 0.5004(10) 0.2365(8)
H14 H 0.6108 0.4473 0.2310
H15 H 0.5292 0.5049 0.1985
H16 H 0.5211 0.4916 0.2948
C18 C 0.5596(10) 0.6793(10) 0.2296(8)
H17 H 0.5160 0.6662 0.2889
H18 H 0.5192 0.6876 0.1933
H19 H 0.5997 0.7362 0.2170
C19 C 1.0130(3) 0.6537(3) 0.1583(3)
C20 C 0.9986(3) 0.7432(3) 0.1780(3)
C21 C 1.0108(3) 0.8230(3) 0.1099(2)
C22 C 1.0370(4) 0.8122(3) 0.0269(3)
H20 H 1.0442 0.8662 -0.0168
C23 C 1.0535(4) 0.7240(3) 0.0050(3)
C24 C 1.0396(4) 0.6459(3) 0.0737(3)
H21 H 1.0486 0.5857 0.0620
C25 C 1.0810(5) 0.7132(4) -0.0872(3)
C26 C 1.0132(12) 0.7783(10) -0.1302(8)
H22 H 1.0298 0.7717 -0.1885
H23 H 1.0248 0.8432 -0.1302
H24 H 0.9430 0.7603 -0.0985
C27 C 1.1840(11) 0.7654(9) -0.1394(7)
H25 H 1.2376 0.7240 -0.1335
H26 H 1.1881 0.8207 -0.1182
H27 H 1.1905 0.7841 -0.1990
C28 C 1.0741(13) 0.6197(8) -0.0989(7)
H28 H 1.0073 0.5928 -0.0653
H29 H 1.1234 0.5812 -0.0806
H30 H 1.0870 0.6220 -0.1587
C29 C 0.8630(3) 0.9477(3) 0.1712(3)
C30 C 0.8107(3) 0.9453(3) 0.2579(2)
C31 C 0.7069(3) 0.9603(3) 0.2856(3)
C32 C 0.6575(3) 0.9751(3) 0.2271(3)
H31 H 0.5883 0.9856 0.2458
C33 C 0.7083(4) 0.9749(3) 0.1400(3)
C34 C 0.8107(3) 0.9624(3) 0.1142(3)
H32 H 0.8463 0.9637 0.0564
C35 C 0.6506(4) 0.9944(4) 0.0753(4)
C36 C 0.5443(6) 0.9564(7) 0.1153(5)
H33 H 0.5081 0.9870 0.1612
H34 H 0.5440 0.8893 0.1379
H35 H 0.5121 0.9682 0.0727
C37 C 0.6685(8) 1.0932(7) 0.0309(6)
H36 H 0.6472 1.1036 -0.0183
H37 H 0.7395 1.1094 0.0122
H38 H 0.6305 1.1322 0.0692
C38 C 0.6985(7) 0.9400(7) 0.0037(5)
H39 H 0.7151 0.8777 0.0284
H40 H 0.7591 0.9735 -0.0374
H41 H 0.6513 0.9348 -0.0246
C39 C 0.5775(3) 0.8510(3) 0.4402(3)
C40 C 0.6318(3) 0.7716(3) 0.4594(3)
C41 C 0.5790(3) 0.6843(3) 0.4996(3)
C42 C 0.4754(3) 0.6791(3) 0.5200(3)
H42 H 0.4414 0.6207 0.5470
C43 C 0.4193(3) 0.7580(3) 0.5016(3)
C44 C 0.4726(3) 0.8432(3) 0.4618(3)
H43 H 0.4375 0.8973 0.4490
C45 C 0.3047(3) 0.7468(3) 0.5245(3)
C46 C 0.2850(4) 0.6825(4) 0.4717(4)
H44 H 0.2132 0.6744 0.4857
H45 H 0.3135 0.6218 0.4847
H46 H 0.3158 0.7106 0.4115
C47 C 0.2568(4) 0.8409(4) 0.5037(4)
H47 H 0.2661 0.8819 0.5380
H48 H 0.1856 0.8305 0.5164
H49 H 0.2885 0.8698 0.4438
C48 C 0.2564(4) 0.7007(5) 0.6211(4)
H50 H 0.2765 0.7367 0.6542
H51 H 0.2790 0.6370 0.6321
H52 H 0.1839 0.6997 0.6374
C49 C 0.9008(3) 0.9972(3) 0.3396(3)
H53 H 0.8614 1.0534 0.3330
H54 H 0.9705 1.0126 0.3017
C50 C 0.8963(3) 0.9663(3) 0.4302(3)
H55 H 0.9198 1.0176 0.4478
H56 H 0.8269 0.9488 0.4679
O1 O 1.0363(2) 0.7199(2) 0.4417(2)
O2 O 0.8725(2) 0.53948(19) 0.42967(18)
O3 O 0.9716(2) 0.7496(2) 0.26080(18)
H61 H 0.9657 0.8055 0.2636
O4 O 0.85999(19) 0.92046(17) 0.31746(16)
O5 O 0.73283(19) 0.77465(19) 0.4424(2)
H62 H 0.7551 0.8293 0.4200
O6 O 0.9595(2) 0.8867(2) 0.43620(19)
S1 S 0.99293(8) 0.55045(7) 0.24300(7)
S2 S 0.99793(8) 0.93751(7) 0.13328(7)
S3 S 0.63974(8) 0.96490(7) 0.39561(7)
S4 S 0.64799(8) 0.57976(7) 0.51922(6)
C51 C 0.1887(7) 0.8564(8) 0.2703(7)
H57 H 0.1337 0.8570 0.2481
H58 H 0.1616 0.8294 0.3318
Cl1 Cl 0.2271(4) 0.9654(3) 0.2554(3)
Cl2 Cl 0.2783(6) 0.7854(4) 0.2240(4)
C52 C 0.5494(7) 0.8196(6) 0.6612(5)
H59 H 0.5206 0.8396 0.6160
H60 H 0.5952 0.7693 0.6453
Cl3 Cl 0.6184(3) 0.9074(3) 0.6563(3)
Cl4 Cl 0.4598(6) 0.7727(5) 0.7448(4)
C53? C 0.6895(13) 0.6715(15) 0.1306(11)
C54? C 0.6220(15) 0.5059(14) 0.1900(13)
C55? C 0.5205(12) 0.6201(14) 0.2576(11)
C56? C 1.1620(16) 0.6487(13) -0.1105(10)
C57? C 1.0902(16) 0.7976(11) -0.1529(9)
C58? C 0.9876(15) 0.6506(13) -0.0850(10)
H63? H 0.7568 0.6822 0.1295
H64? H 0.6533 0.7294 0.1326
H65? H 0.6932 0.6510 0.0797
H66? H 0.6821 0.4965 0.1440
H67? H 0.5643 0.5079 0.1718
H68? H 0.6125 0.4545 0.2393
H69? H 0.4992 0.5917 0.3181
H70? H 0.4768 0.5973 0.2330
H71? H 0.5169 0.6878 0.2495
H72? H 1.2216 0.6716 -0.1047
H73? H 1.1765 0.6446 -0.1692
H74? H 1.1419 0.5871 -0.0733
H75? H 1.1515 0.8323 -0.1633
H76? H 1.0330 0.8363 -0.1344
H77? H 1.0924 0.7807 -0.2050
H78? H 1.0078 0.6239 -0.1350
H79? H 0.9308 0.6902 -0.0844
H80? H 0.9687 0.6004 -0.0340
loop_
_geom_bond_atom_site_label_1
_geom_bond_atom_site_label_2
_geom_bond_site_symmetry_1
_geom_bond_site_symmetry_2
C1 C2 1_555 1_555
C2 C3 1_555 1_555
C3 H1 1_555 1_555
C4 C3 1_555 1_555
H2 C4 1_555 1_555
C5 C4 1_555 1_555
H3 C5 1_555 1_555
C6 C1 1_555 1_555
H4 C6 1_555 1_555
C7 H5 1_555 1_555
H6 C7 1_555 1_555
C8 C7 1_555 1_555
H7 C8 1_555 1_555
H8 C8 1_555 1_555
C9 C10 1_555 1_555
C10 C11 1_555 1_555
C11 H9 1_555 1_555
C12 C11 1_555 1_555
C13 C12 1_555 1_555
H10 C13 1_555 1_555
C14 C9 1_555 1_555
C15 C12 1_555 1_555
C16 C15 1_555 1_555
H11 C16 1_555 1_555
H12 C16 1_555 1_555
H13 C16 1_555 1_555
C17 C15 1_555 1_555
H14 C17 1_555 1_555
H15 C17 1_555 1_555
H16 C17 1_555 1_555
C18 C15 1_555 1_555
H17 C18 1_555 1_555
H18 C18 1_555 1_555
H19 C18 1_555 1_555
C19 C20 1_555 1_555
C20 C21 1_555 1_555
C21 C22 1_555 1_555
C22 H20 1_555 1_555
C23 C22 1_555 1_555
C24 C19 1_555 1_555
H21 C24 1_555 1_555
C25 C23 1_555 1_555
C26 C25 1_555 1_555
H22 C26 1_555 1_555
H23 C26 1_555 1_555
H24 C26 1_555 1_555
C27 C25 1_555 1_555
H25 C27 1_555 1_555
H26 C27 1_555 1_555
H27 C27 1_555 1_555
C28 C25 1_555 1_555
H28 C28 1_555 1_555
H29 C28 1_555 1_555
H30 C28 1_555 1_555
C29 C30 1_555 1_555
C30 C31 1_555 1_555
C31 C32 1_555 1_555
C32 H31 1_555 1_555
C33 C32 1_555 1_555
C34 C29 1_555 1_555
H32 C34 1_555 1_555
C35 C33 1_555 1_555
C36 C35 1_555 1_555
H33 C36 1_555 1_555
H34 C36 1_555 1_555
H35 C36 1_555 1_555
C37 C35 1_555 1_555
H36 C37 1_555 1_555
H37 C37 1_555 1_555
H38 C37 1_555 1_555
C38 C35 1_555 1_555
H39 C38 1_555 1_555
H40 C38 1_555 1_555
H41 C38 1_555 1_555
C39 C40 1_555 1_555
C40 C41 1_555 1_555
C41 C42 1_555 1_555
C42 H42 1_555 1_555
C43 C42 1_555 1_555
C44 C39 1_555 1_555
H43 C44 1_555 1_555
C45 C43 1_555 1_555
C46 C45 1_555 1_555
H44 C46 1_555 1_555
H45 C46 1_555 1_555
H46 C46 1_555 1_555
C47 C45 1_555 1_555
H47 C47 1_555 1_555
H48 C47 1_555 1_555
H49 C47 1_555 1_555
C48 C45 1_555 1_555
H50 C48 1_555 1_555
H51 C48 1_555 1_555
H52 C48 1_555 1_555
C49 H53 1_555 1_555
H54 C49 1_555 1_555
C50 C49 1_555 1_555
H55 C50 1_555 1_555
H56 C50 1_555 1_555
C51 H57 1_555 1_555
H58 C51 1_555 1_555
C52 H59 1_555 1_555
H60 C52 1_555 1_555
Cl1 C51 1_555 1_555
Cl2 C51 1_555 1_555
Cl3 C52 1_555 1_555
Cl4 C52 1_555 1_555
O1 C1 1_555 1_555
O2 C8 1_555 1_555
O3 C20 1_555 1_555
H61 O3 1_555 1_555
O4 C30 1_555 1_555
O5 C40 1_555 1_555
H62 O5 1_555 1_555
O6 C2 1_555 1_555
S1 C14 1_555 1_555
S2 C21 1_555 1_555
S3 C31 1_555 1_555
S4 C10 1_555 1_555
C5 C6 1_555 1_555
C7 O1 1_555 1_555
C9 O2 1_555 1_555
C13 C14 1_555 1_555
C19 S1 1_555 1_555
C23 C24 1_555 1_555
C29 S2 1_555 1_555
C33 C34 1_555 1_555
C39 S3 1_555 1_555
C41 S4 1_555 1_555
C43 C44 1_555 1_555
C49 O4 1_555 1_555
C50 O6 1_555 1_555

#END
