
#######################################################################
#
#                 Cambridge Crystallographic Data Centre
#                                CCDC 
#
#######################################################################
#
# If this CIF has been generated from an entry in the Cambridge 
# Structural Database, then it will include bibliographic, chemical, 
# crystal, experimental, refinement or atomic coordinate data resulting 
# from the CCDC's data processing and validation procedures.
#
#######################################################################

data_UMOLOZ
_chemical_formula_moiety         'C20 H18 N2 O2'
_chemical_name_systematic        
3-phenyl-4-(4-(pyrrolidin-1-yl)benzylidene)-1,2-oxazol-5(4H)-one
_symmetry_cell_setting           orthorhombic
_symmetry_space_group_name_H-M   'P n a 21'
_symmetry_Int_Tables_number      33
_space_group_name_Hall           'P 2c -2n'
loop_
_symmetry_equiv_pos_site_id
_symmetry_equiv_pos_as_xyz
1 x,y,z
2 -x,-y,1/2+z
3 1/2+x,1/2-y,z
4 1/2-x,1/2+y,1/2+z
_cell_length_a                   12.040(3)
_cell_length_b                   6.7907(14)
_cell_length_c                   19.562(4)
_cell_angle_alpha                90
_cell_angle_beta                 90
_cell_angle_gamma                90
_cell_volume                     1599.39
_exptl_crystal_colour            red
_exptl_crystal_description       Platelet
_cell_formula_units_Z            4
loop_
_atom_site_label
_atom_site_type_symbol
_atom_site_fract_x
_atom_site_fract_y
_atom_site_fract_z
O1 O 0.89598(9) 0.98256(16) 0.47085(6)
O2 O 0.94837(9) 0.74607(16) 0.54346(6)
N1 N 0.80134(11) 1.03131(19) 0.42858(7)
N2 N 0.75128(9) -0.07962(18) 0.67376(7)
C1 C 0.74179(11) 0.0817(2) 0.63416(7)
C2 C 0.83439(12) 0.2011(3) 0.61819(10)
H1 H 0.9052 0.1675 0.6362
C3 C 0.82441(11) 0.3644(3) 0.57722(10)
H2 H 0.8887 0.4400 0.5670
C4 C 0.72115(11) 0.4223(2) 0.55006(8)
C5 C 0.62921(11) 0.3016(2) 0.56600(8)
H3 H 0.5585 0.3358 0.5481
C6 C 0.63778(11) 0.1381(2) 0.60605(8)
H4 H 0.5736 0.0611 0.6153
C7 C 0.70219(11) 0.5876(2) 0.50693(8)
H5 H 0.6286 0.5925 0.4895
C8 C 0.87749(12) 0.8079(2) 0.50490(8)
C9 C 0.76687(11) 0.7414(2) 0.48505(7)
C10 C 0.72890(12) 0.8923(2) 0.43828(8)
C11 C 0.62142(12) 0.8975(2) 0.40173(7)
C12 C 0.55105(14) 1.0580(3) 0.40708(8)
H6 H 0.5727 1.1684 0.4338
C13 C 0.44907(15) 1.0592(3) 0.37375(9)
H7 H 0.4006 1.1688 0.3786
C14 C 0.41834(13) 0.9024(3) 0.33386(9)
H8 H 0.3489 0.9040 0.3108
C15 C 0.48832(14) 0.7418(3) 0.32715(11)
H9 H 0.4674 0.6338 0.2991
C16 C 0.58935(13) 0.7392(2) 0.36166(9)
H10 H 0.6367 0.6279 0.3577
C17 C 0.8566(6) -0.151(2) 0.7025(6)
H11 H 0.9011 -0.0422 0.7223
H12 H 0.9015 -0.2223 0.6682
C18 C 0.8108(3) -0.2898(5) 0.75817(17)
H13 H 0.8657 -0.3944 0.7683
H14 H 0.7966 -0.2151 0.8008
C19 C 0.7036(12) -0.3807(18) 0.7323(7)
H15 H 0.6524 -0.4124 0.7704
H16 H 0.7177 -0.5010 0.7051
C20 C 0.65915(13) -0.2144(2) 0.68826(8)
H17 H 0.6286 -0.2677 0.6451
H18 H 0.5991 -0.1439 0.7126
C21? C 0.8551(8) -0.142(2) 0.7070(8)
H19? H 0.8664 -0.0671 0.7499
H20? H 0.9191 -0.1168 0.6765
C22? C 0.8452(3) -0.3595(6) 0.7221(3)
H21? H 0.8867 -0.3983 0.7636
H22? H 0.8687 -0.4420 0.6829
C23? C 0.7188(14) -0.363(2) 0.7330(9)
H23? H 0.6905 -0.4970 0.7226
H24? H 0.7023 -0.3350 0.7816
loop_
_geom_bond_atom_site_label_1
_geom_bond_atom_site_label_2
_geom_bond_site_symmetry_1
_geom_bond_site_symmetry_2
O1 N1 1_555 1_555
O2 C8 1_555 1_555
N1 C10 1_555 1_555
N2 C1 1_555 1_555
C1 C2 1_555 1_555
C2 H1 1_555 1_555
C3 C2 1_555 1_555
H2 C3 1_555 1_555
C4 C3 1_555 1_555
C5 C4 1_555 1_555
H3 C5 1_555 1_555
C6 C1 1_555 1_555
H4 C6 1_555 1_555
C7 C4 1_555 1_555
H5 C7 1_555 1_555
C8 O1 1_555 1_555
C9 C7 1_555 1_555
C10 C9 1_555 1_555
C11 C10 1_555 1_555
C12 C11 1_555 1_555
H6 C12 1_555 1_555
C13 C12 1_555 1_555
H7 C13 1_555 1_555
C14 C13 1_555 1_555
H8 C14 1_555 1_555
C15 C14 1_555 1_555
H9 C15 1_555 1_555
C16 C11 1_555 1_555
H10 C16 1_555 1_555
C17 N2 1_555 1_555
H11 C17 1_555 1_555
H12 C17 1_555 1_555
C18 C17 1_555 1_555
H13 C18 1_555 1_555
H14 C18 1_555 1_555
C19 C18 1_555 1_555
H15 C19 1_555 1_555
H16 C19 1_555 1_555
C20 N2 1_555 1_555
H17 C20 1_555 1_555
H18 C20 1_555 1_555
C5 C6 1_555 1_555
C8 C9 1_555 1_555
C15 C16 1_555 1_555
C19 C20 1_555 1_555

#END
