
#######################################################################
#
#                 Cambridge Crystallographic Data Centre
#                                CCDC 
#
#######################################################################
#
# If this CIF has been generated from an entry in the Cambridge 
# Structural Database, then it will include bibliographic, chemical, 
# crystal, experimental, refinement or atomic coordinate data resulting 
# from the CCDC's data processing and validation procedures.
#
#######################################################################

data_UMOLIT
_chemical_formula_moiety         'C10 H9 N1 O2 S1'
_chemical_name_systematic        
3-methyl-4-((5-methyl-2-thienyl)methylene)-1,2-oxazol-5(4H)-one
_symmetry_cell_setting           monoclinic
_symmetry_space_group_name_H-M   'P 21/c'
_symmetry_Int_Tables_number      14
_space_group_name_Hall           '-P 2ybc'
loop_
_symmetry_equiv_pos_site_id
_symmetry_equiv_pos_as_xyz
1 x,y,z
2 -x,1/2+y,1/2-z
3 -x,-y,-z
4 x,1/2-y,1/2+z
_cell_length_a                   6.581(5)
_cell_length_b                   21.472(17)
_cell_length_c                   7.066(5)
_cell_angle_alpha                90
_cell_angle_beta                 104.36(2)
_cell_angle_gamma                90
_cell_volume                     967.281
_exptl_crystal_colour            yellow
_exptl_crystal_description       block
_cell_formula_units_Z            4
loop_
_atom_site_label
_atom_site_type_symbol
_atom_site_fract_x
_atom_site_fract_y
_atom_site_fract_z
C1 C 0.3692(8) 0.4503(2) 0.6909(6)
H1 H 0.2869 0.4863 0.6408
H2 H 0.4767 0.4447 0.6221
H3 H 0.4328 0.4560 0.8275
C2 C 0.2316(7) 0.3942(2) 0.6635(6)
C3 C 0.0217(7) 0.3910(2) 0.6201(6)
H4 H -0.0646 0.4259 0.6023
C4 C -0.0540(7) 0.3306(2) 0.6042(6)
H5 H -0.1965 0.3212 0.5736
C5 C 0.0984(5) 0.28573(19) 0.6375(5)
C6 C 0.0580(5) 0.22163(19) 0.6277(5)
H6 H -0.0845 0.2125 0.5975
C7 C 0.1795(6) 0.17015(18) 0.6521(5)
C8 C 0.4023(7) 0.1667(2) 0.7033(6)
C9 C 0.1105(7) 0.1072(2) 0.6373(6)
C10 C -0.1069(8) 0.0854(2) 0.5840(8)
H7 H -0.1090 0.0409 0.5709
H8 H -0.1792 0.1039 0.4622
H9 H -0.1752 0.0971 0.6840
N1 N 0.2625(6) 0.06803(19) 0.6746(5)
O1 O 0.5419(5) 0.20416(15) 0.7304(4)
O2 O 0.4521(5) 0.10407(16) 0.7199(5)
S1 S 0.34242(15) 0.32185(5) 0.68843(14)
loop_
_geom_bond_atom_site_label_1
_geom_bond_atom_site_label_2
_geom_bond_site_symmetry_1
_geom_bond_site_symmetry_2
C1 H1 1_555 1_555
H2 C1 1_555 1_555
H3 C1 1_555 1_555
C2 C1 1_555 1_555
C3 C2 1_555 1_555
H4 C3 1_555 1_555
C4 C3 1_555 1_555
H5 C4 1_555 1_555
C5 C4 1_555 1_555
C6 C5 1_555 1_555
H6 C6 1_555 1_555
C7 C6 1_555 1_555
C8 C7 1_555 1_555
C9 C7 1_555 1_555
C10 C9 1_555 1_555
H7 C10 1_555 1_555
H8 C10 1_555 1_555
H9 C10 1_555 1_555
N1 C9 1_555 1_555
O1 C8 1_555 1_555
O2 C8 1_555 1_555
S1 C2 1_555 1_555
C5 S1 1_555 1_555
N1 O2 1_555 1_555

#END
