
#######################################################################
#
#                 Cambridge Crystallographic Data Centre
#                                CCDC 
#
#######################################################################
#
# If this CIF has been generated from an entry in the Cambridge 
# Structural Database, then it will include bibliographic, chemical, 
# crystal, experimental, refinement or atomic coordinate data resulting 
# from the CCDC's data processing and validation procedures.
#
#######################################################################

data_UMOMOA
_chemical_formula_moiety         'C12 H11 N1 O2 S1'
_chemical_name_systematic        
3-methyl-4-(4-(methylsulfanyl)benzylidene)-1,2-oxazol-5(4H)-one
_symmetry_cell_setting           monoclinic
_symmetry_space_group_name_H-M   'P 21/c'
_symmetry_Int_Tables_number      14
_space_group_name_Hall           '-P 2ybc'
loop_
_symmetry_equiv_pos_site_id
_symmetry_equiv_pos_as_xyz
1 x,y,z
2 -x,1/2+y,1/2-z
3 -x,-y,-z
4 x,1/2-y,1/2+z
_cell_length_a                   12.125(2)
_cell_length_b                   7.2540(14)
_cell_length_c                   12.888(2)
_cell_angle_alpha                90
_cell_angle_beta                 97.581(5)
_cell_angle_gamma                90
_cell_volume                     1123.65
_exptl_crystal_colour            red
_exptl_crystal_description       block
_cell_formula_units_Z            4
loop_
_atom_site_label
_atom_site_type_symbol
_atom_site_fract_x
_atom_site_fract_y
_atom_site_fract_z
C1 C 0.7308(4) 0.1458(7) 0.5308(4)
C2 C 0.6819(4) 0.1772(8) 0.6215(4)
H1 H 0.7239 0.1646 0.6870
C3 C 0.5712(4) 0.2270(8) 0.6138(4)
H2 H 0.5395 0.2463 0.6747
C4 C 0.5057(4) 0.2491(7) 0.5175(4)
C5 C 0.5552(4) 0.2167(8) 0.4275(4)
H3 H 0.5131 0.2304 0.3622
C6 C 0.6654(4) 0.1648(8) 0.4333(4)
H4 H 0.6964 0.1424 0.3722
C7 C 0.3906(4) 0.3031(7) 0.5186(4)
H5 H 0.3717 0.3119 0.5860
C8 C 0.3046(4) 0.3435(7) 0.4447(4)
C9 C 0.1952(4) 0.3968(7) 0.4668(4)
C10 C 0.1580(5) 0.4136(9) 0.5694(5)
H6 H 0.0806 0.4462 0.5611
H7 H 0.2005 0.5076 0.6090
H8 H 0.1684 0.2981 0.6058
C11 C 0.2954(4) 0.3502(8) 0.3304(4)
C12 C 0.9282(5) 0.0754(11) 0.6630(5)
H9 H 0.9227 0.1950 0.6938
H10 H 1.0049 0.0398 0.6683
H11 H 0.8882 -0.0127 0.6993
N1 N 0.1278(4) 0.4324(7) 0.3833(4)
O1 O 0.3586(4) 0.3179(8) 0.2667(3)
O2 O 0.1891(3) 0.4033(6) 0.2958(3)
S1 S 0.86979(11) 0.0831(2) 0.52848(12)
loop_
_geom_bond_atom_site_label_1
_geom_bond_atom_site_label_2
_geom_bond_site_symmetry_1
_geom_bond_site_symmetry_2
C1 C2 1_555 1_555
C2 H1 1_555 1_555
C3 C2 1_555 1_555
H2 C3 1_555 1_555
C4 C3 1_555 1_555
C5 C4 1_555 1_555
H3 C5 1_555 1_555
C6 C1 1_555 1_555
H4 C6 1_555 1_555
C7 C4 1_555 1_555
H5 C7 1_555 1_555
C8 C7 1_555 1_555
C9 C8 1_555 1_555
C10 C9 1_555 1_555
H6 C10 1_555 1_555
H7 C10 1_555 1_555
H8 C10 1_555 1_555
C11 C8 1_555 1_555
C12 H9 1_555 1_555
H10 C12 1_555 1_555
H11 C12 1_555 1_555
N1 C9 1_555 1_555
O1 C11 1_555 1_555
O2 C11 1_555 1_555
S1 C1 1_555 1_555
C5 C6 1_555 1_555
C12 S1 1_555 1_555
N1 O2 1_555 1_555

#END
