
#######################################################################
#
#                 Cambridge Crystallographic Data Centre
#                                CCDC 
#
#######################################################################
#
# If this CIF has been generated from an entry in the Cambridge 
# Structural Database, then it will include bibliographic, chemical, 
# crystal, experimental, refinement or atomic coordinate data resulting 
# from the CCDC's data processing and validation procedures.
#
#######################################################################

data_UMOMAM
_chemical_formula_moiety         'C28 H20 N2 O2'
_chemical_name_systematic        
4-(4-(diphenylamino)benzylidene)-3-phenyl-1,2-oxazol-5(4H)-one
_symmetry_cell_setting           orthorhombic
_symmetry_space_group_name_H-M   'P b c a'
_symmetry_Int_Tables_number      61
_space_group_name_Hall           '-P 2ac 2ab'
loop_
_symmetry_equiv_pos_site_id
_symmetry_equiv_pos_as_xyz
1 x,y,z
2 1/2-x,-y,1/2+z
3 1/2+x,1/2-y,-z
4 -x,1/2+y,1/2-z
5 -x,-y,-z
6 1/2+x,y,1/2-z
7 1/2-x,1/2+y,z
8 x,1/2-y,1/2+z
_cell_length_a                   11.550(2)
_cell_length_b                   11.294(2)
_cell_length_c                   33.009(6)
_cell_angle_alpha                90
_cell_angle_beta                 90
_cell_angle_gamma                90
_cell_volume                     4305.88
_exptl_crystal_colour            orange
_exptl_crystal_description       slice
_cell_formula_units_Z            8
loop_
_atom_site_label
_atom_site_type_symbol
_atom_site_fract_x
_atom_site_fract_y
_atom_site_fract_z
O1 O 0.74891(14) 0.25398(15) 0.15268(5)
O2 O 0.87578(12) 0.18571(13) 0.19804(5)
N1 N 0.25595(16) 0.08786(19) 0.06631(6)
N2 N 0.88459(14) 0.08989(16) 0.22679(5)
C1 C 0.0944(2) 0.0596(3) 0.11314(8)
H1 H 0.1342 0.1027 0.1327
C2 C -0.0131(2) 0.0137(3) 0.12216(9)
H2 H -0.0435 0.0233 0.1480
C3 C -0.0744(2) -0.0448(3) 0.09394(10)
H3 H -0.1476 -0.0743 0.0999
C4 C -0.0278(2) -0.0603(2) 0.05663(9)
H4 H -0.0705 -0.0996 0.0369
C5 C 0.0818(2) -0.01914(19) 0.04719(7)
H5 H 0.1131 -0.0333 0.0217
C6 C 0.14376(18) 0.04247(19) 0.07550(7)
C7 C 0.2744(2) 0.1469(2) 0.02887(7)
C8 C 0.2041(3) 0.2383(2) 0.01703(9)
H6 H 0.1448 0.2644 0.0339
C9 C 0.2221(4) 0.2919(3) -0.02052(13)
H7 H 0.1753 0.3546 -0.0286
C10 C 0.3083(5) 0.2527(5) -0.04552(12)
H8 H 0.3197 0.2883 -0.0706
C11 C 0.3765(3) 0.1623(4) -0.03377(11)
H9 H 0.4347 0.1353 -0.0509
C12 C 0.3609(3) 0.1096(3) 0.00354(9)
H10 H 0.4096 0.0483 0.0115
C13 C 0.34851(19) 0.0693(2) 0.09306(6)
C14 C 0.4377(2) 0.1514(2) 0.09616(7)
H11 H 0.4372 0.2179 0.0795
C15 C 0.52656(19) 0.13625(19) 0.12325(7)
H12 H 0.5846 0.1931 0.1249
C16 C 0.53156(16) 0.03713(17) 0.14841(6)
C17 C 0.44297(19) -0.0464(2) 0.14412(6)
H13 H 0.4451 -0.1146 0.1599
C18 C 0.35334(19) -0.0312(2) 0.11751(7)
H14 H 0.2954 -0.0882 0.1157
C19 C 0.61755(16) 0.01420(17) 0.17889(6)
H15 H 0.6043 -0.0561 0.1928
C20 C 0.71392(16) 0.07206(17) 0.19197(6)
C21 C 0.77206(18) 0.1789(2) 0.17734(7)
C22 C 0.79138(16) 0.02774(17) 0.22301(6)
C23 C 0.77223(16) -0.07415(17) 0.25023(6)
C24 C 0.85561(17) -0.16177(19) 0.25490(7)
H16 H 0.9244 -0.1574 0.2403
C25 C 0.8369(2) -0.2551(2) 0.28097(8)
H17 H 0.8932 -0.3134 0.2838
C26 C 0.7363(2) -0.2630(2) 0.30276(8)
H18 H 0.7238 -0.3267 0.3201
C27 C 0.6539(2) -0.1762(2) 0.29879(7)
H19 H 0.5861 -0.1805 0.3139
C28 C 0.67072(18) -0.08268(18) 0.27260(6)
H20 H 0.6138 -0.0250 0.2699
loop_
_geom_bond_atom_site_label_1
_geom_bond_atom_site_label_2
_geom_bond_site_symmetry_1
_geom_bond_site_symmetry_2
O1 C21 1_555 1_555
O2 N2 1_555 1_555
N1 C6 1_555 1_555
N2 C22 1_555 1_555
C1 H1 1_555 1_555
C2 C1 1_555 1_555
H2 C2 1_555 1_555
C3 C2 1_555 1_555
H3 C3 1_555 1_555
C4 C3 1_555 1_555
H4 C4 1_555 1_555
C5 C4 1_555 1_555
H5 C5 1_555 1_555
C6 C1 1_555 1_555
C7 N1 1_555 1_555
C8 C7 1_555 1_555
H6 C8 1_555 1_555
C9 C8 1_555 1_555
H7 C9 1_555 1_555
C10 C9 1_555 1_555
H8 C10 1_555 1_555
C11 C10 1_555 1_555
H9 C11 1_555 1_555
C12 C7 1_555 1_555
H10 C12 1_555 1_555
C13 N1 1_555 1_555
C14 C13 1_555 1_555
H11 C14 1_555 1_555
C15 C14 1_555 1_555
H12 C15 1_555 1_555
C16 C15 1_555 1_555
C17 C16 1_555 1_555
H13 C17 1_555 1_555
C18 C13 1_555 1_555
H14 C18 1_555 1_555
C19 C16 1_555 1_555
H15 C19 1_555 1_555
C20 C19 1_555 1_555
C21 O2 1_555 1_555
C22 C20 1_555 1_555
C23 C22 1_555 1_555
C24 C23 1_555 1_555
H16 C24 1_555 1_555
C25 C24 1_555 1_555
H17 C25 1_555 1_555
C26 C25 1_555 1_555
H18 C26 1_555 1_555
C27 C26 1_555 1_555
H19 C27 1_555 1_555
C28 C23 1_555 1_555
H20 C28 1_555 1_555
C5 C6 1_555 1_555
C11 C12 1_555 1_555
C17 C18 1_555 1_555
C20 C21 1_555 1_555
C27 C28 1_555 1_555

#END
