
#######################################################################
#
#                 Cambridge Crystallographic Data Centre
#                                CCDC 
#
#######################################################################
#
# If this CIF has been generated from an entry in the Cambridge 
# Structural Database, then it will include bibliographic, chemical, 
# crystal, experimental, refinement or atomic coordinate data resulting 
# from the CCDC's data processing and validation procedures.
#
#######################################################################

data_UMOPIX
_chemical_compound_source        'Daphniphyllum himalense'
_chemical_name_common            '21-deoxymacropodumine D methanol solvate'
_chemical_formula_moiety         'C23 H31 N1 O4,C1 H4 O1'
_chemical_name_systematic        
'methyl 3-hydroxy-2,6-dimethyl-20-oxo-8-azahexacyclo[11.5.1.1^1,5^.0^2,10^.0^4,8^.0^16,19^]icos-13(19)-ene-17-carboxylate methanol solvate'
_symmetry_cell_setting           monoclinic
_symmetry_space_group_name_H-M   'P 21'
_symmetry_Int_Tables_number      4
_space_group_name_Hall           'P 2yb'
loop_
_symmetry_equiv_pos_site_id
_symmetry_equiv_pos_as_xyz
1 x,y,z
2 -x,1/2+y,-z
_cell_length_a                   10.7411(2)
_cell_length_b                   9.0530(2)
_cell_length_c                   11.5845(2)
_cell_angle_alpha                90
_cell_angle_beta                 93.4430(10)
_cell_angle_gamma                90
_cell_volume                     1124.43
_exptl_crystal_colour            colorless
_exptl_crystal_description       block
_cell_formula_units_Z            2
loop_
_atom_site_label
_atom_site_type_symbol
_atom_site_fract_x
_atom_site_fract_y
_atom_site_fract_z
O1 O 0.5013(2) 0.3153(3) 0.8812(2)
O2 O 0.49181(19) 0.5007(3) 0.51806(16)
H1 H 0.5396 0.5032 0.4655
O3 O 0.8568(4) 0.1932(5) 0.5473(4)
O4 O 0.8609(3) -0.0241(3) 0.6358(3)
N1 N 0.4414(2) 0.7228(3) 0.7773(2)
C1 C 0.5091(3) 0.3922(3) 0.7961(2)
C2 C 0.3935(3) 0.4697(4) 0.7431(3)
H2 H 0.3489 0.4032 0.6881
C3 C 0.4230(2) 0.6139(4) 0.6822(2)
H3 H 0.3490 0.6432 0.6340
C4 C 0.5320(2) 0.6032(3) 0.6052(2)
H4 H 0.5454 0.6996 0.5696
C5 C 0.6513(2) 0.5581(3) 0.6783(2)
C6 C 0.6694(3) 0.6868(3) 0.7667(2)
H5 H 0.6661 0.7765 0.7193
C7 C 0.5612(3) 0.7025(4) 0.8451(2)
H6 H 0.5565 0.6149 0.8929
H7 H 0.5761 0.7867 0.8959
C8 C 0.6322(2) 0.4041(3) 0.7349(2)
C9 C 0.7374(2) 0.3560(4) 0.8192(2)
C10 C 0.8174(3) 0.4231(4) 0.8937(3)
C11 C 0.8215(3) 0.5809(4) 0.9318(3)
H8 H 0.9034 0.6004 0.9686
H9 H 0.7611 0.5941 0.9900
C12 C 0.7954(3) 0.6961(4) 0.8371(3)
H10 H 0.8612 0.6893 0.7834
H11 H 0.8015 0.7931 0.8726
C13 C 0.6262(3) 0.2714(3) 0.6455(2)
H12 H 0.5408 0.2371 0.6335
H13 H 0.6541 0.3045 0.5718
C14 C 0.7099(3) 0.1440(3) 0.6926(3)
H14 H 0.6588 0.0549 0.6982
C15 C 0.7564(3) 0.1925(4) 0.8161(3)
H15 H 0.7021 0.1472 0.8712
C16 C 0.8923(3) 0.1760(5) 0.8645(4)
H16 H 0.9049 0.0833 0.9055
H17 H 0.9501 0.1819 0.8034
C17 C 0.9074(3) 0.3084(5) 0.9471(3)
H18 H 0.8853 0.2818 1.0244
H19 H 0.9925 0.3450 0.9509
C18 C 0.3032(3) 0.5229(5) 0.8346(3)
H20 H 0.3214 0.4711 0.9079
C19 C 0.3339(3) 0.6884(5) 0.8487(3)
H21 H 0.2621 0.7475 0.8232
H22 H 0.3553 0.7108 0.9293
C20 C 0.1671(4) 0.4978(7) 0.7926(6)
H23 H 0.1482 0.5551 0.7240
H24 H 0.1135 0.5276 0.8518
H25 H 0.1541 0.3950 0.7756
C21 C 0.7622(3) 0.5575(4) 0.6001(3)
H26 H 0.7400 0.5035 0.5306
H27 H 0.8328 0.5115 0.6401
H28 H 0.7829 0.6573 0.5807
C22 C 0.8169(3) 0.1107(4) 0.6169(3)
C23 C 0.9653(5) -0.0684(7) 0.5717(6)
H29 H 0.9392 -0.0778 0.4913
H30 H 0.9966 -0.1616 0.6004
H31 H 1.0299 0.0048 0.5807
O5 O 0.3845(4) 0.9911(5) 0.6812(3)
C24 C 0.2978(5) 1.0640(6) 0.7401(5)
H32 H 0.2488 1.1260 0.6877
H33 H 0.3388 1.1238 0.7993
H34 H 0.2444 0.9939 0.7748
H35 H 0.410(5) 0.900(9) 0.710(5)
loop_
_geom_bond_atom_site_label_1
_geom_bond_atom_site_label_2
_geom_bond_site_symmetry_1
_geom_bond_site_symmetry_2
O1 C1 1_555 1_555
O2 H1 1_555 1_555
O3 C22 1_555 1_555
O4 C22 1_555 1_555
N1 C3 1_555 1_555
C1 C2 1_555 1_555
C2 H2 1_555 1_555
C3 C2 1_555 1_555
H3 C3 1_555 1_555
C4 O2 1_555 1_555
H4 C4 1_555 1_555
C5 C4 1_555 1_555
C6 C5 1_555 1_555
H5 C6 1_555 1_555
C7 N1 1_555 1_555
H6 C7 1_555 1_555
H7 C7 1_555 1_555
C8 C1 1_555 1_555
C9 C8 1_555 1_555
C10 C9 1_555 1_555
C11 C10 1_555 1_555
H8 C11 1_555 1_555
H9 C11 1_555 1_555
C12 C6 1_555 1_555
H10 C12 1_555 1_555
H11 C12 1_555 1_555
C13 C8 1_555 1_555
H12 C13 1_555 1_555
H13 C13 1_555 1_555
C14 C13 1_555 1_555
H14 C14 1_555 1_555
C15 C9 1_555 1_555
H15 C15 1_555 1_555
C16 C15 1_555 1_555
H16 C16 1_555 1_555
H17 C16 1_555 1_555
C17 C10 1_555 1_555
H18 C17 1_555 1_555
H19 C17 1_555 1_555
C18 C2 1_555 1_555
H20 C18 1_555 1_555
C19 N1 1_555 1_555
H21 C19 1_555 1_555
H22 C19 1_555 1_555
C20 C18 1_555 1_555
H23 C20 1_555 1_555
H24 C20 1_555 1_555
H25 C20 1_555 1_555
C21 C5 1_555 1_555
H26 C21 1_555 1_555
H27 C21 1_555 1_555
H28 C21 1_555 1_555
C22 C14 1_555 1_555
C23 O4 1_555 1_555
H29 C23 1_555 1_555
H30 C23 1_555 1_555
H31 C23 1_555 1_555
O5 C24 1_555 1_555
C24 H32 1_555 1_555
H33 C24 1_555 1_555
H34 C24 1_555 1_555
H35 O5 1_555 1_555
C3 C4 1_555 1_555
C5 C8 1_555 1_555
C6 C7 1_555 1_555
C11 C12 1_555 1_555
C14 C15 1_555 1_555
C16 C17 1_555 1_555
C18 C19 1_555 1_555

#END
