
#######################################################################
#
#                 Cambridge Crystallographic Data Centre
#                                CCDC 
#
#######################################################################
#
# If this CIF has been generated from an entry in the Cambridge 
# Structural Database, then it will include bibliographic, chemical, 
# crystal, experimental, refinement or atomic coordinate data resulting 
# from the CCDC's data processing and validation procedures.
#
#######################################################################

data_UMUHAN
_chemical_formula_moiety         'C50 H50 N6 Si1'
_chemical_name_systematic        
3-(4-t-butylphenyl)-5-(4-((4-(5-(4-t-butylphenyl)-4-phenyl-4H-1,2,4-triazol-3-yl)phenyl)(dimethyl)silyl)phenyl)-4-phenyl-4H-1,2,4-triazole
_symmetry_cell_setting           monoclinic
_symmetry_space_group_name_H-M   'C 2/c'
_symmetry_Int_Tables_number      15
_space_group_name_Hall           '-C 2yn'
loop_
_symmetry_equiv_pos_site_id
_symmetry_equiv_pos_as_xyz
1 x,y,z
2 -x,y,1/2-z
3 1/2+x,1/2+y,z
4 1/2-x,1/2+y,1/2-z
5 -x,-y,-z
6 x,-y,1/2+z
7 1/2-x,1/2-y,-z
8 1/2+x,1/2-y,1/2+z
_cell_length_a                   22.126(5)
_cell_length_b                   11.533(2)
_cell_length_c                   18.308(4)
_cell_angle_alpha                90
_cell_angle_beta                 109.595(4)
_cell_angle_gamma                90
_cell_volume                     4401.26
_exptl_crystal_colour            colorless
_exptl_crystal_description       block
_cell_formula_units_Z            4
loop_
_atom_site_label
_atom_site_type_symbol
_atom_site_fract_x
_atom_site_fract_y
_atom_site_fract_z
Si1 Si 0.5000 0.25338(8) 0.2500
N1 N 0.21573(8) -0.07375(16) 0.06459(9)
N2 N 0.19088(10) -0.1814(2) 0.14915(12)
N3 N 0.24764(10) -0.1239(2) 0.18710(11)
C1 C 0.42695(9) 0.15930(19) 0.21228(12)
C2 C 0.41635(11) 0.0878(2) 0.14808(14)
H1 H 0.4466 0.0863 0.1230
C3 C 0.36260(11) 0.0189(2) 0.12030(13)
H2 H 0.3568 -0.0273 0.0769
C4 C 0.31731(9) 0.0189(2) 0.15721(12)
C5 C 0.32616(10) 0.0913(2) 0.21991(12)
H3 H 0.2954 0.0937 0.2442
C6 C 0.38005(10) 0.1600(2) 0.24690(12)
H4 H 0.3851 0.2080 0.2893
C7 C 0.26169(10) -0.0592(2) 0.13620(12)
C8 C 0.17236(10) -0.1499(2) 0.07636(13)
C9 C 0.21435(9) -0.0239(2) -0.00800(12)
C10 C 0.20790(11) 0.0937(2) -0.01925(14)
H5 H 0.2058 0.1419 0.0205
C11 C 0.20452(13) 0.1398(3) -0.08999(16)
H6 H 0.1996 0.2193 -0.0982
C12 C 0.20834(14) 0.0691(3) -0.14807(16)
H7 H 0.2065 0.1008 -0.1955
C13 C 0.21491(16) -0.0479(3) -0.13681(16)
H8 H 0.2173 -0.0957 -0.1767
C14 C 0.21809(13) -0.0956(2) -0.06633(14)
H9 H 0.2227 -0.1752 -0.0585
C15 C 0.11081(11) -0.1843(2) 0.01889(13)
C16 C 0.07097(13) -0.1060(3) -0.02997(19)
H10 H 0.0848 -0.0300 -0.0311
C17 C 0.01061(13) -0.1379(3) -0.07758(19)
H11 H -0.0156 -0.0824 -0.1099
C18 C -0.01230(11) -0.2491(2) -0.07902(15)
C19 C 0.02814(13) -0.3268(2) -0.02970(17)
H12 H 0.0143 -0.4027 -0.0287
C20 C 0.08902(12) -0.2961(2) 0.01890(16)
H13 H 0.1152 -0.3512 0.0516
C21 C -0.07928(12) -0.2813(3) -0.13356(17)
C22 C -0.07754(19) -0.2940(5) -0.2154(2)
H14 H -0.0475 -0.3536 -0.2163
H15 H -0.1195 -0.3145 -0.2498
H16 H -0.0645 -0.2219 -0.2317
C23 C -0.12699(16) -0.1868(4) -0.1352(3)
H17 H -0.1292 -0.1766 -0.0841
H18 H -0.1136 -0.1156 -0.1522
H19 H -0.1685 -0.2082 -0.1703
C24 C -0.10283(19) -0.3957(4) -0.1118(3)
H20 H -0.0725 -0.4558 -0.1107
H21 H -0.1071 -0.3889 -0.0615
H22 H -0.1437 -0.4147 -0.1494
C25 C 0.50637(15) 0.3449(3) 0.1692(2)
H23 H 0.5096 0.2960 0.1283
H24 H 0.4689 0.3930 0.1500
H25 H 0.5439 0.3930 0.1878
N1A N 0.78427(8) -0.07375(16) 0.43541(9)
N2A N 0.80912(10) -0.1814(2) 0.35085(12)
N3A N 0.75236(10) -0.1239(2) 0.31290(11)
C1A C 0.57305(9) 0.15930(19) 0.28772(12)
C2A C 0.58365(11) 0.0878(2) 0.35192(14)
H1A H 0.5534 0.0863 0.3770
C3A C 0.63740(11) 0.0189(2) 0.37970(13)
H2A H 0.6432 -0.0273 0.4231
C4A C 0.68269(9) 0.0189(2) 0.34279(12)
C5A C 0.67384(10) 0.0913(2) 0.28009(12)
H3A H 0.7046 0.0937 0.2558
C6A C 0.61995(10) 0.1600(2) 0.25310(12)
H4A H 0.6149 0.2080 0.2107
C7A C 0.73831(10) -0.0592(2) 0.36380(12)
C8A C 0.82764(10) -0.1499(2) 0.42364(13)
C9A C 0.78565(9) -0.0239(2) 0.50800(12)
C10A C 0.79210(11) 0.0937(2) 0.51925(14)
H5A H 0.7942 0.1419 0.4795
C11A C 0.79548(13) 0.1398(3) 0.58999(16)
H6A H 0.8004 0.2193 0.5982
C12A C 0.79166(14) 0.0691(3) 0.64807(16)
H7A H 0.7935 0.1008 0.6955
C13A C 0.78509(16) -0.0479(3) 0.63681(16)
H8A H 0.7827 -0.0957 0.6767
C14A C 0.78191(13) -0.0956(2) 0.56633(14)
H9A H 0.7773 -0.1752 0.5585
C15A C 0.88919(11) -0.1843(2) 0.48111(13)
C16A C 0.92903(13) -0.1060(3) 0.52997(19)
H10A H 0.9152 -0.0300 0.5311
C17A C 0.98939(13) -0.1379(3) 0.57758(19)
H11A H 1.0156 -0.0824 0.6099
C18A C 1.01230(11) -0.2491(2) 0.57902(15)
C19A C 0.97186(13) -0.3268(2) 0.52970(17)
H12A H 0.9857 -0.4027 0.5287
C20A C 0.91098(12) -0.2961(2) 0.48110(16)
H13A H 0.8848 -0.3512 0.4484
C21A C 1.07928(12) -0.2813(3) 0.63356(17)
C22A C 1.07754(19) -0.2940(5) 0.7154(2)
H14A H 1.0475 -0.3536 0.7163
H15A H 1.1195 -0.3145 0.7498
H16A H 1.0645 -0.2219 0.7317
C23A C 1.12699(16) -0.1868(4) 0.6352(3)
H17A H 1.1292 -0.1766 0.5841
H18A H 1.1136 -0.1156 0.6522
H19A H 1.1685 -0.2082 0.6703
C24A C 1.10283(19) -0.3957(4) 0.6118(3)
H20A H 1.0725 -0.4558 0.6107
H21A H 1.1071 -0.3889 0.5615
H22A H 1.1437 -0.4147 0.6494
C25A C 0.49363(15) 0.3449(3) 0.3308(2)
H23A H 0.4904 0.2960 0.3717
H24A H 0.5311 0.3930 0.3500
H25A H 0.4561 0.3930 0.3122
loop_
_geom_bond_atom_site_label_1
_geom_bond_atom_site_label_2
_geom_bond_site_symmetry_1
_geom_bond_site_symmetry_2
Si1 C1 1_555 1_555
N1 C7 1_555 1_555
N2 N3 1_555 1_555
N3 C7 1_555 1_555
C1 C2 1_555 1_555
C2 H1 1_555 1_555
C3 C2 1_555 1_555
H2 C3 1_555 1_555
C4 C3 1_555 1_555
C5 C4 1_555 1_555
H3 C5 1_555 1_555
C6 C1 1_555 1_555
H4 C6 1_555 1_555
C7 C4 1_555 1_555
C8 N1 1_555 1_555
C9 N1 1_555 1_555
C10 C9 1_555 1_555
H5 C10 1_555 1_555
C11 C10 1_555 1_555
H6 C11 1_555 1_555
C12 C11 1_555 1_555
H7 C12 1_555 1_555
C13 C12 1_555 1_555
H8 C13 1_555 1_555
C14 C9 1_555 1_555
H9 C14 1_555 1_555
C15 C8 1_555 1_555
C16 C15 1_555 1_555
H10 C16 1_555 1_555
C17 C16 1_555 1_555
H11 C17 1_555 1_555
C18 C17 1_555 1_555
C19 C18 1_555 1_555
H12 C19 1_555 1_555
C20 C15 1_555 1_555
H13 C20 1_555 1_555
C21 C18 1_555 1_555
C22 C21 1_555 1_555
H14 C22 1_555 1_555
H15 C22 1_555 1_555
H16 C22 1_555 1_555
C23 C21 1_555 1_555
H17 C23 1_555 1_555
H18 C23 1_555 1_555
H19 C23 1_555 1_555
C24 C21 1_555 1_555
H20 C24 1_555 1_555
H21 C24 1_555 1_555
H22 C24 1_555 1_555
C25 Si1 1_555 1_555
H23 C25 1_555 1_555
H24 C25 1_555 1_555
H25 C25 1_555 1_555
N1A C7A 1_555 1_555
N2A N3A 1_555 1_555
N3A C7A 1_555 1_555
C1A Si1 1_555 1_555
C2A C1A 1_555 1_555
H1A C2A 1_555 1_555
C3A C2A 1_555 1_555
H2A C3A 1_555 1_555
C4A C3A 1_555 1_555
C5A C4A 1_555 1_555
H3A C5A 1_555 1_555
C6A C1A 1_555 1_555
H4A C6A 1_555 1_555
C7A C4A 1_555 1_555
C8A N1A 1_555 1_555
C9A N1A 1_555 1_555
C10A C9A 1_555 1_555
H5A C10A 1_555 1_555
C11A C10A 1_555 1_555
H6A C11A 1_555 1_555
C12A C11A 1_555 1_555
H7A C12A 1_555 1_555
C13A C12A 1_555 1_555
H8A C13A 1_555 1_555
C14A C9A 1_555 1_555
H9A C14A 1_555 1_555
C15A C8A 1_555 1_555
C16A C15A 1_555 1_555
H10A C16A 1_555 1_555
C17A C16A 1_555 1_555
H11A C17A 1_555 1_555
C18A C17A 1_555 1_555
C19A C18A 1_555 1_555
H12A C19A 1_555 1_555
C20A C15A 1_555 1_555
H13A C20A 1_555 1_555
C21A C18A 1_555 1_555
C22A C21A 1_555 1_555
H14A C22A 1_555 1_555
H15A C22A 1_555 1_555
H16A C22A 1_555 1_555
C23A C21A 1_555 1_555
H17A C23A 1_555 1_555
H18A C23A 1_555 1_555
H19A C23A 1_555 1_555
C24A C21A 1_555 1_555
H20A C24A 1_555 1_555
H21A C24A 1_555 1_555
H22A C24A 1_555 1_555
C25A Si1 1_555 1_555
H23A C25A 1_555 1_555
H24A C25A 1_555 1_555
H25A C25A 1_555 1_555
N2 C8 1_555 1_555
C5 C6 1_555 1_555
C13 C14 1_555 1_555
C19 C20 1_555 1_555
N2A C8A 1_555 1_555
C5A C6A 1_555 1_555
C13A C14A 1_555 1_555
C19A C20A 1_555 1_555

#END
