
#######################################################################
#
#                 Cambridge Crystallographic Data Centre
#                                CCDC 
#
#######################################################################
#
# If this CIF has been generated from an entry in the Cambridge 
# Structural Database, then it will include bibliographic, chemical, 
# crystal, experimental, refinement or atomic coordinate data resulting 
# from the CCDC's data processing and validation procedures.
#
#######################################################################

data_UMUKUK
_chemical_formula_moiety         'C23 H15 N1 O2'
_chemical_name_systematic        
4-(9H-fluoren-2-ylmethylene)-3-phenyl-1,2-oxazol-5(4H)-one
_symmetry_cell_setting           monoclinic
_symmetry_space_group_name_H-M   'C c'
_symmetry_Int_Tables_number      9
_space_group_name_Hall           'C -2yc'
loop_
_symmetry_equiv_pos_site_id
_symmetry_equiv_pos_as_xyz
1 x,y,z
2 x,-y,1/2+z
3 1/2+x,1/2+y,z
4 1/2+x,1/2-y,1/2+z
_cell_length_a                   24.442(8)
_cell_length_b                   5.6023(19)
_cell_length_c                   11.966(4)
_cell_angle_alpha                90
_cell_angle_beta                 97.638(3)
_cell_angle_gamma                90
_cell_volume                     1623.98
_exptl_crystal_colour            yellow
_exptl_crystal_description       Prism
_cell_formula_units_Z            4
loop_
_atom_site_label
_atom_site_type_symbol
_atom_site_fract_x
_atom_site_fract_y
_atom_site_fract_z
O1 O 0.38762(5) 1.2953(2) 0.56477(11)
O2 O 0.32174(6) 1.0502(3) 0.60974(11)
N1 N 0.42530(7) 1.3102(3) 0.48152(13)
C1 C 0.17547(8) 0.1291(3) 0.39991(16)
C2 C 0.15159(9) -0.0609(4) 0.33535(17)
H1 H 0.1668 -0.1167 0.2711
C3 C 0.10434(9) -0.1664(4) 0.36888(18)
H2 H 0.0870 -0.2961 0.3270
C4 C 0.08275(8) -0.0820(4) 0.46310(18)
H3 H 0.0501 -0.1519 0.4836
C5 C 0.10782(9) 0.1009(4) 0.52696(17)
H4 H 0.0933 0.1538 0.5924
C6 C 0.15398(8) 0.2063(4) 0.49554(16)
C7 C 0.18875(9) 0.4129(4) 0.54956(16)
H5 H 0.1660 0.5577 0.5547
H6 H 0.2069 0.3700 0.6259
C8 C 0.23067(8) 0.4498(3) 0.46931(15)
C9 C 0.27175(8) 0.6209(3) 0.47312(15)
H7 H 0.2766 0.7352 0.5322
C10 C 0.30608(7) 0.6222(3) 0.38801(14)
C11 C 0.29791(8) 0.4488(3) 0.30041(15)
H8 H 0.3211 0.4510 0.2427
C12 C 0.25691(8) 0.2767(3) 0.29732(15)
H9 H 0.2521 0.1604 0.2390
C13 C 0.22334(7) 0.2791(3) 0.38122(14)
C14 C 0.35075(7) 0.7881(3) 0.38141(14)
H10 H 0.3699 0.7601 0.3185
C15 C 0.35533(8) 1.0937(3) 0.54684(14)
C16 C 0.37142(7) 0.9761(3) 0.44586(13)
C17 C 0.41573(7) 1.1264(3) 0.41606(14)
C18 C 0.44889(7) 1.0873(3) 0.32312(14)
C19 C 0.44888(7) 1.2573(3) 0.23776(15)
H11 H 0.4275 1.3987 0.2392
C20 C 0.48019(8) 1.2187(3) 0.15066(15)
H12 H 0.4800 1.3335 0.0921
C21 C 0.51164(8) 1.0145(3) 0.14876(15)
H13 H 0.5331 0.9898 0.0891
C22 C 0.51211(8) 0.8448(3) 0.23357(16)
H14 H 0.5341 0.7051 0.2322
C23 C 0.48048(8) 0.8798(3) 0.32015(14)
H15 H 0.4803 0.7627 0.3775
loop_
_geom_bond_atom_site_label_1
_geom_bond_atom_site_label_2
_geom_bond_site_symmetry_1
_geom_bond_site_symmetry_2
O1 N1 1_555 1_555
O2 C15 1_555 1_555
N1 C17 1_555 1_555
C1 C2 1_555 1_555
C2 H1 1_555 1_555
C3 C2 1_555 1_555
H2 C3 1_555 1_555
C4 C3 1_555 1_555
H3 C4 1_555 1_555
C5 C4 1_555 1_555
H4 C5 1_555 1_555
C6 C1 1_555 1_555
C7 C6 1_555 1_555
H5 C7 1_555 1_555
H6 C7 1_555 1_555
C8 C7 1_555 1_555
C9 C8 1_555 1_555
H7 C9 1_555 1_555
C10 C9 1_555 1_555
C11 C10 1_555 1_555
H8 C11 1_555 1_555
C12 C11 1_555 1_555
H9 C12 1_555 1_555
C13 C1 1_555 1_555
C14 C10 1_555 1_555
H10 C14 1_555 1_555
C15 O1 1_555 1_555
C16 C14 1_555 1_555
C17 C16 1_555 1_555
C18 C17 1_555 1_555
C19 C18 1_555 1_555
H11 C19 1_555 1_555
C20 C19 1_555 1_555
H12 C20 1_555 1_555
C21 C20 1_555 1_555
H13 C21 1_555 1_555
C22 C21 1_555 1_555
H14 C22 1_555 1_555
C23 C18 1_555 1_555
H15 C23 1_555 1_555
C5 C6 1_555 1_555
C8 C13 1_555 1_555
C12 C13 1_555 1_555
C15 C16 1_555 1_555
C22 C23 1_555 1_555

#END
