
#######################################################################
#
#                 Cambridge Crystallographic Data Centre
#                                CCDC 
#
#######################################################################
#
# If this CIF has been generated from an entry in the Cambridge 
# Structural Database, then it will include bibliographic, chemical, 
# crystal, experimental, refinement or atomic coordinate data resulting 
# from the CCDC's data processing and validation procedures.
#
#######################################################################

data_UMUKOE
_chemical_formula_moiety         'C18 H15 N1 O4'
_chemical_name_systematic        
4-(3,4-dimethoxybenzylidene)-3-phenyl-1,2-oxazol-5(4H)-one
_symmetry_cell_setting           monoclinic
_symmetry_space_group_name_H-M   'P 21/c'
_symmetry_Int_Tables_number      14
_space_group_name_Hall           '-P 2ybc'
loop_
_symmetry_equiv_pos_site_id
_symmetry_equiv_pos_as_xyz
1 x,y,z
2 -x,1/2+y,1/2-z
3 -x,-y,-z
4 x,1/2-y,1/2+z
_cell_length_a                   7.339(2)
_cell_length_b                   19.964(6)
_cell_length_c                   10.771(3)
_cell_angle_alpha                90
_cell_angle_beta                 104.306(5)
_cell_angle_gamma                90
_cell_volume                     1529.18
_exptl_crystal_colour            yellow
_exptl_crystal_description       Prism
_cell_formula_units_Z            4
loop_
_atom_site_label
_atom_site_type_symbol
_atom_site_fract_x
_atom_site_fract_y
_atom_site_fract_z
O1 O 0.31181(15) 0.46936(5) 0.09646(9)
O2 O 0.24373(16) 0.55435(5) 0.21221(9)
O3 O 0.13589(14) 0.61455(5) 0.78501(9)
O4 O 0.10126(15) 0.65763(5) 0.55594(9)
N1 N 0.34674(18) 0.39839(6) 0.11027(11)
C1 C 0.28218(18) 0.46296(6) 0.64145(12)
H1 H 0.3215 0.4182 0.6631
C2 C 0.24216(19) 0.50444(6) 0.73489(12)
H2 H 0.2556 0.4883 0.8196
C3 C 0.18231(17) 0.56982(6) 0.70351(11)
C4 C 0.16523(18) 0.59347(6) 0.57685(12)
C5 C 0.20796(17) 0.55241(6) 0.48511(11)
H3 H 0.1985 0.5690 0.4011
C6 C 0.26594(17) 0.48559(6) 0.51615(11)
C7 C 0.30415(17) 0.43725(6) 0.42638(12)
H4 H 0.3371 0.3944 0.4636
C8 C 0.28037(19) 0.49543(6) 0.20781(12)
C9 C 0.30325(17) 0.43968(6) 0.29953(11)
C10 C 0.34146(18) 0.38261(6) 0.22607(12)
C11 C 0.37162(19) 0.31215(6) 0.26893(12)
C12 C 0.5231(2) 0.27596(7) 0.24688(14)
H5 H 0.6061 0.2962 0.2028
C13 C 0.5524(2) 0.21013(7) 0.28967(15)
H6 H 0.6555 0.1854 0.2746
C14 C 0.4316(2) 0.18037(7) 0.35427(13)
H7 H 0.4531 0.1356 0.3843
C15 C 0.2795(2) 0.21593(7) 0.37493(14)
H8 H 0.1964 0.1953 0.4185
C16 C 0.2481(2) 0.28160(7) 0.33208(13)
H9 H 0.1431 0.3057 0.3456
C17 C 0.1610(2) 0.59399(7) 0.91603(12)
H10 H 0.0782 0.5560 0.9200
H11 H 0.1299 0.6313 0.9662
H12 H 0.2922 0.5807 0.9513
C18 C 0.1018(3) 0.68671(8) 0.43563(16)
H13 H 0.2310 0.6886 0.4260
H14 H 0.0500 0.7321 0.4313
H15 H 0.0247 0.6594 0.3667
loop_
_geom_bond_atom_site_label_1
_geom_bond_atom_site_label_2
_geom_bond_site_symmetry_1
_geom_bond_site_symmetry_2
O1 N1 1_555 1_555
O2 C8 1_555 1_555
O3 C3 1_555 1_555
O4 C4 1_555 1_555
N1 C10 1_555 1_555
C1 H1 1_555 1_555
C2 C1 1_555 1_555
H2 C2 1_555 1_555
C3 C2 1_555 1_555
C4 C3 1_555 1_555
C5 C4 1_555 1_555
H3 C5 1_555 1_555
C6 C1 1_555 1_555
C7 C6 1_555 1_555
H4 C7 1_555 1_555
C8 O1 1_555 1_555
C9 C7 1_555 1_555
C10 C9 1_555 1_555
C11 C10 1_555 1_555
C12 C11 1_555 1_555
H5 C12 1_555 1_555
C13 C12 1_555 1_555
H6 C13 1_555 1_555
C14 C13 1_555 1_555
H7 C14 1_555 1_555
C15 C14 1_555 1_555
H8 C15 1_555 1_555
C16 C11 1_555 1_555
H9 C16 1_555 1_555
C17 O3 1_555 1_555
H10 C17 1_555 1_555
H11 C17 1_555 1_555
H12 C17 1_555 1_555
C18 O4 1_555 1_555
H13 C18 1_555 1_555
H14 C18 1_555 1_555
H15 C18 1_555 1_555
C5 C6 1_555 1_555
C8 C9 1_555 1_555
C15 C16 1_555 1_555

#END
