
#######################################################################
#
#                 Cambridge Crystallographic Data Centre
#                                CCDC 
#
#######################################################################
#
# If this CIF has been generated from an entry in the Cambridge 
# Structural Database, then it will include bibliographic, chemical, 
# crystal, experimental, refinement or atomic coordinate data resulting 
# from the CCDC's data processing and validation procedures.
#
#######################################################################

data_UMUKIY
_chemical_formula_moiety         'C20 H19 Cl1 N2 O4'
_chemical_name_systematic        
'methyl (2-benzoyl-6-(3-chlorophenyl)-4-hydroxy-2,3,4,5-tetrahydropyridazin-3-yl)acetate'
_symmetry_cell_setting           monoclinic
_symmetry_space_group_name_H-M   'P 21'
_symmetry_Int_Tables_number      4
_space_group_name_Hall           'P 2yb'
loop_
_symmetry_equiv_pos_site_id
_symmetry_equiv_pos_as_xyz
1 x,y,z
2 -x,1/2+y,-z
_cell_length_a                   11.4998(13)
_cell_length_b                   6.3981(7)
_cell_length_c                   13.1706(15)
_cell_angle_alpha                90
_cell_angle_beta                 101.310(2)
_cell_angle_gamma                90
_cell_volume                     950.233
_exptl_crystal_colour            colorless
_exptl_crystal_description       block
_cell_formula_units_Z            2
loop_
_atom_site_label
_atom_site_type_symbol
_atom_site_fract_x
_atom_site_fract_y
_atom_site_fract_z
C1 C 0.6165(8) 0.8331(18) 0.1596(8)
C2 C 0.7358(9) 0.7639(18) 0.1830(9)
H1 H 0.7936 0.8206 0.1508
C3 C 0.7612(7) 0.608(3) 0.2557(10)
H2 H 0.8394 0.5851 0.2884
C4 C 0.6740(7) 0.4881(16) 0.2807(7)
H3 H 0.6933 0.3632 0.3161
C5 C 0.5533(6) 0.5510(15) 0.2533(6)
C6 C 0.5278(7) 0.7330(14) 0.1908(6)
H4 H 0.4504 0.7816 0.1719
C7 C 0.4545(6) 0.4367(14) 0.2819(6)
C8 C 0.4795(7) 0.2294(12) 0.3406(7)
H5 H 0.5302 0.1435 0.3068
H6 H 0.5214 0.2571 0.4106
C9 C 0.3662(6) 0.1114(13) 0.3443(6)
H7 H 0.3368 0.0418 0.2779
C10 C 0.2738(6) 0.2597(13) 0.3692(7)
H8 H 0.1993 0.1827 0.3650
C11 C 0.1502(6) 0.5132(13) 0.2582(6)
C12 C 0.1380(6) 0.6910(14) 0.1786(6)
C13 C 0.0652(8) 0.8534(16) 0.1974(9)
H9 H 0.0283 0.8495 0.2542
C14 C 0.0489(10) 1.019(2) 0.1312(9)
H10 H 0.0006 1.1288 0.1431
C15 C 0.1046(10) 1.025(2) 0.0442(12)
H11 H 0.0951 1.1398 -0.0002
C16 C 0.1694(10) 0.866(2) 0.0286(8)
H12 H 0.2044 0.8691 -0.0293
C17 C 0.1895(7) 0.694(2) 0.0926(7)
H13 H 0.2362 0.5833 0.0781
C18 C 0.3079(7) 0.3584(19) 0.4785(6)
H14 H 0.3132 0.2486 0.5301
H15 H 0.3855 0.4223 0.4859
C19 C 0.2219(8) 0.5183(14) 0.4991(7)
C20 C 0.0484(15) 0.577(5) 0.5618(15)
H16 H -0.0037 0.5023 0.5976
H17 H 0.0043 0.6281 0.4971
H18 H 0.0831 0.6928 0.6035
Cl1 Cl 0.57500(12) 1.0735(3) 0.07161(11)
N1 N 0.2561(5) 0.4213(11) 0.2873(5)
N2 N 0.3560(5) 0.5201(11) 0.2625(5)
O1 O 0.3986(5) -0.0408(11) 0.4249(6)
H19 H 0.3516 -0.1385 0.4151
O2 O 0.0623(5) 0.4525(13) 0.2890(6)
O3 O 0.2224(7) 0.6999(14) 0.4762(7)
O4 O 0.1392(6) 0.4419(15) 0.5431(7)
loop_
_geom_bond_atom_site_label_1
_geom_bond_atom_site_label_2
_geom_bond_site_symmetry_1
_geom_bond_site_symmetry_2
C1 C2 1_555 1_555
C2 H1 1_555 1_555
C3 C2 1_555 1_555
H2 C3 1_555 1_555
C4 C3 1_555 1_555
H3 C4 1_555 1_555
C5 C4 1_555 1_555
C6 C1 1_555 1_555
H4 C6 1_555 1_555
C7 C5 1_555 1_555
C8 C7 1_555 1_555
H5 C8 1_555 1_555
H6 C8 1_555 1_555
C9 C8 1_555 1_555
H7 C9 1_555 1_555
C10 C9 1_555 1_555
H8 C10 1_555 1_555
C11 C12 1_555 1_555
C12 C13 1_555 1_555
C13 H9 1_555 1_555
C14 C13 1_555 1_555
H10 C14 1_555 1_555
C15 C14 1_555 1_555
H11 C15 1_555 1_555
C16 C15 1_555 1_555
H12 C16 1_555 1_555
C17 C12 1_555 1_555
H13 C17 1_555 1_555
C18 C10 1_555 1_555
H14 C18 1_555 1_555
H15 C18 1_555 1_555
C19 C18 1_555 1_555
C20 H16 1_555 1_555
H17 C20 1_555 1_555
H18 C20 1_555 1_555
Cl1 C1 1_555 1_555
N1 C10 1_555 1_555
N2 C7 1_555 1_555
O1 C9 1_555 1_555
H19 O1 1_555 1_555
O2 C11 1_555 1_555
O3 C19 1_555 1_555
O4 C19 1_555 1_555
C5 C6 1_555 1_555
C11 N1 1_555 1_555
C16 C17 1_555 1_555
C20 O4 1_555 1_555
N1 N2 1_555 1_555

#END
