
#######################################################################
#
#                 Cambridge Crystallographic Data Centre
#                                CCDC 
#
#######################################################################
#
# If this CIF has been generated from an entry in the Cambridge 
# Structural Database, then it will include bibliographic, chemical, 
# crystal, experimental, refinement or atomic coordinate data resulting 
# from the CCDC's data processing and validation procedures.
#
#######################################################################

data_UMUKUI01
_chemical_formula_moiety         'C15 H18 N2'
_chemical_name_systematic        
2,4,6-Trimethyl-N-(1-(1H-pyrrol-2-yl)ethylidene)aniline
_symmetry_cell_setting           monoclinic
_symmetry_space_group_name_H-M   'C 2/c'
_symmetry_Int_Tables_number      15
_space_group_name_Hall           '-C 2yn'
loop_
_symmetry_equiv_pos_site_id
_symmetry_equiv_pos_as_xyz
1 x,y,z
2 -x,y,1/2-z
3 1/2+x,1/2+y,z
4 1/2-x,1/2+y,1/2-z
5 -x,-y,-z
6 x,-y,1/2+z
7 1/2-x,1/2-y,-z
8 1/2+x,1/2-y,1/2+z
_cell_length_a                   29.848(4)
_cell_length_b                   7.9668(11)
_cell_length_c                   26.325(4)
_cell_angle_alpha                90
_cell_angle_beta                 119.940(2)
_cell_angle_gamma                90
_cell_volume                     5424.51
_exptl_crystal_colour            colorless
_exptl_crystal_description       block
_chemical_melting_point          '401.4-407.6 K'
_cell_formula_units_Z            16
_exptl_crystal_recrystallization_method ethanol
loop_
_atom_site_label
_atom_site_type_symbol
_atom_site_fract_x
_atom_site_fract_y
_atom_site_fract_z
N1 N 0.17414(8) -0.0243(2) 0.55671(9)
H1 H 0.1455 0.0292 0.5365
N2 N 0.14363(7) 0.1397(2) 0.62945(8)
C1 C 0.19777(11) -0.1177(3) 0.53393(13)
H3 H 0.1860 -0.1334 0.4942
C2 C 0.24147(12) -0.1846(3) 0.57869(14)
H4 H 0.2647 -0.2551 0.5754
C3 C 0.24487(10) -0.1272(3) 0.63084(12)
H5 H 0.2712 -0.1520 0.6686
C4 C 0.20241(9) -0.0274(3) 0.61649(11)
C5 C 0.18741(9) 0.0629(3) 0.65329(10)
C6 C 0.22526(10) 0.0608(3) 0.71790(10)
H6 H 0.2153 0.1429 0.7371
H7 H 0.2592 0.0866 0.7246
H8 H 0.2255 -0.0485 0.7334
C7 C 0.12933(8) 0.2298(3) 0.66607(9)
C8 C 0.10410(9) 0.1483(3) 0.69156(10)
C9 C 0.08898(9) 0.2413(3) 0.72524(10)
H9 H 0.0721 0.1869 0.7422
C10 C 0.09813(9) 0.4116(3) 0.73436(10)
C11 C 0.12191(9) 0.4894(3) 0.70688(10)
H10 H 0.1281 0.6042 0.7122
C12 C 0.13682(8) 0.4037(3) 0.67175(10)
C13 C 0.09381(12) -0.0379(3) 0.68352(13)
H11 H 0.0751 -0.0717 0.7027
H12 H 0.1261 -0.0973 0.7003
H13 H 0.0737 -0.0632 0.6425
C14 C 0.08290(12) 0.5089(3) 0.77271(13)
H14 H 0.0486 0.4771 0.7635
H15 H 0.0837 0.6270 0.7658
H16 H 0.1067 0.4845 0.8132
C15 C 0.16042(10) 0.4941(3) 0.64095(12)
H17 H 0.1586 0.6130 0.6456
H18 H 0.1418 0.4664 0.6000
H19 H 0.1959 0.4609 0.6575
N3 N 0.03652(7) 0.2001(2) 0.52301(9)
H2 H 0.0668 0.1573 0.5437
N4 N 0.08934(7) 0.1824(2) 0.45990(8)
C16 C 0.00067(10) 0.2114(3) 0.53974(12)
H20 H 0.0047 0.1752 0.5754
C17 C -0.04220(10) 0.2844(3) 0.49581(12)
H21 H -0.0729 0.3060 0.4956
C18 C -0.03163(9) 0.3212(3) 0.45087(11)
H22 H -0.0539 0.3733 0.4155
C19 C 0.01769(9) 0.2664(3) 0.46857(10)
C20 C 0.04682(9) 0.2658(3) 0.43821(10)
C21 C 0.02468(10) 0.3648(4) 0.38190(12)
H23 H 0.0480 0.3599 0.3668
H24 H 0.0200 0.4796 0.3894
H25 H -0.0081 0.3180 0.3537
C22 C 0.11795(9) 0.1761(3) 0.42984(10)
C23 C 0.10903(9) 0.0452(3) 0.39048(11)
C24 C 0.14020(10) 0.0325(3) 0.36587(11)
H26 H 0.1343 -0.0543 0.3396
C25 C 0.17990(9) 0.1440(3) 0.37872(11)
C26 C 0.18833(10) 0.2692(3) 0.41837(12)
H27 H 0.2153 0.3441 0.4281
C27 C 0.15826(9) 0.2884(3) 0.44436(11)
C28 C 0.06663(12) -0.0811(4) 0.37605(15)
H28 H 0.0669 -0.1642 0.3498
H29 H 0.0338 -0.0249 0.3577
H30 H 0.0722 -0.1344 0.4114
C29 C 0.21288(11) 0.1278(4) 0.35027(13)
H31 H 0.2454 0.1833 0.3740
H32 H 0.1954 0.1786 0.3121
H33 H 0.2189 0.0112 0.3466
C30 C 0.16873(12) 0.4276(4) 0.48756(14)
H34 H 0.1422 0.5113 0.4698
H35 H 0.2017 0.4773 0.4989
H36 H 0.1690 0.3828 0.5216
loop_
_geom_bond_atom_site_label_1
_geom_bond_atom_site_label_2
_geom_bond_site_symmetry_1
_geom_bond_site_symmetry_2
N1 H1 1_555 1_555
N2 C5 1_555 1_555
N3 H2 1_555 1_555
N4 C20 1_555 1_555
C1 N1 1_555 1_555
H3 C1 1_555 1_555
C2 C1 1_555 1_555
H4 C2 1_555 1_555
C3 C2 1_555 1_555
H5 C3 1_555 1_555
C4 N1 1_555 1_555
C5 C4 1_555 1_555
C6 C5 1_555 1_555
H6 C6 1_555 1_555
H7 C6 1_555 1_555
H8 C6 1_555 1_555
C7 N2 1_555 1_555
C8 C7 1_555 1_555
C9 C8 1_555 1_555
H9 C9 1_555 1_555
C10 C9 1_555 1_555
C11 C10 1_555 1_555
H10 C11 1_555 1_555
C12 C7 1_555 1_555
C13 C8 1_555 1_555
H11 C13 1_555 1_555
H12 C13 1_555 1_555
H13 C13 1_555 1_555
C14 C10 1_555 1_555
H14 C14 1_555 1_555
H15 C14 1_555 1_555
H16 C14 1_555 1_555
C15 C12 1_555 1_555
H17 C15 1_555 1_555
H18 C15 1_555 1_555
H19 C15 1_555 1_555
C16 N3 1_555 1_555
H20 C16 1_555 1_555
C17 C16 1_555 1_555
H21 C17 1_555 1_555
C18 C17 1_555 1_555
H22 C18 1_555 1_555
C19 N3 1_555 1_555
C20 C19 1_555 1_555
C21 C20 1_555 1_555
H23 C21 1_555 1_555
H24 C21 1_555 1_555
H25 C21 1_555 1_555
C22 N4 1_555 1_555
C23 C22 1_555 1_555
C24 C23 1_555 1_555
H26 C24 1_555 1_555
C25 C24 1_555 1_555
C26 C25 1_555 1_555
H27 C26 1_555 1_555
C27 C22 1_555 1_555
C28 C23 1_555 1_555
H28 C28 1_555 1_555
H29 C28 1_555 1_555
H30 C28 1_555 1_555
C29 C25 1_555 1_555
H31 C29 1_555 1_555
H32 C29 1_555 1_555
H33 C29 1_555 1_555
C30 C27 1_555 1_555
H34 C30 1_555 1_555
H35 C30 1_555 1_555
H36 C30 1_555 1_555
C3 C4 1_555 1_555
C11 C12 1_555 1_555
C18 C19 1_555 1_555
C26 C27 1_555 1_555

#END
