
#######################################################################
#
#                 Cambridge Crystallographic Data Centre
#                                CCDC 
#
#######################################################################
#
# If this CIF has been generated from an entry in the Cambridge 
# Structural Database, then it will include bibliographic, chemical, 
# crystal, experimental, refinement or atomic coordinate data resulting 
# from the CCDC's data processing and validation procedures.
#
#######################################################################

data_UMULAR01
_chemical_formula_moiety         'C17 H13 N1 O2 S1'
_chemical_name_systematic        
4-(4-(methylsulfanyl)benzylidene)-3-phenyl-1,2-oxazol-5(4H)-one
_symmetry_cell_setting           monoclinic
_symmetry_space_group_name_H-M   'P 21/c'
_symmetry_Int_Tables_number      14
_space_group_name_Hall           '-P 2ybc'
loop_
_symmetry_equiv_pos_site_id
_symmetry_equiv_pos_as_xyz
1 x,y,z
2 -x,1/2+y,1/2-z
3 -x,-y,-z
4 x,1/2-y,1/2+z
_cell_length_a                   41.870(11)
_cell_length_b                   5.7143(13)
_cell_length_c                   11.597(3)
_cell_angle_alpha                90
_cell_angle_beta                 96.235(4)
_cell_angle_gamma                90
_cell_volume                     2758.26
_exptl_crystal_colour            yellow
_exptl_crystal_description       Prism
_cell_formula_units_Z            8
loop_
_atom_site_label
_atom_site_type_symbol
_atom_site_fract_x
_atom_site_fract_y
_atom_site_fract_z
S1 S 0.220650(16) 0.69343(13) 0.52921(6)
O1 O 0.09859(4) -0.5316(3) 0.59528(15)
O2 O 0.13592(4) -0.2822(4) 0.67297(16)
N1 N 0.07647(5) -0.5517(4) 0.49053(19)
C1 C 0.19130(6) 0.4792(5) 0.4925(2)
C2 C 0.18624(6) 0.3141(5) 0.5787(2)
H1 H 0.1992 0.3194 0.6513
C3 C 0.16289(6) 0.1455(5) 0.5594(2)
H2 H 0.1597 0.0363 0.6189
C4 C 0.14356(5) 0.1331(5) 0.4520(2)
C5 C 0.14916(5) 0.2980(5) 0.3667(2)
H3 H 0.1365 0.2919 0.2937
C6 C 0.17248(6) 0.4687(5) 0.3854(2)
H4 H 0.1757 0.5780 0.3261
C7 C 0.11804(5) -0.0328(5) 0.4231(2)
H5 H 0.1068 -0.0071 0.3485
C8 C 0.11661(6) -0.3305(5) 0.5918(2)
C9 C 0.10649(5) -0.2190(5) 0.4796(2)
C10 C 0.08122(5) -0.3713(5) 0.4276(2)
C11 C 0.06136(5) -0.3385(5) 0.3148(2)
C12 C 0.06048(6) -0.5104(5) 0.2296(2)
H6 H 0.0728 -0.6492 0.2432
C13 C 0.04160(6) -0.4788(5) 0.1249(2)
H7 H 0.0413 -0.5949 0.0661
C14 C 0.02321(6) -0.2781(5) 0.1058(2)
H8 H 0.0101 -0.2575 0.0344
C15 C 0.02387(6) -0.1072(5) 0.1909(2)
H9 H 0.0111 0.0296 0.1777
C16 C 0.04308(5) -0.1353(5) 0.2951(2)
H10 H 0.0438 -0.0168 0.3528
C17 C 0.22071(7) 0.8637(5) 0.3992(3)
H11 H 0.2271 0.7644 0.3367
H12 H 0.2360 0.9933 0.4130
H13 H 0.1991 0.9262 0.3770
S2 S 0.274501(16) 1.15119(13) 0.83124(7)
O3 O 0.40057(4) -0.0436(4) 1.01516(16)
O4 O 0.36238(5) 0.2025(4) 1.06020(16)
N2 N 0.42316(5) -0.0620(4) 0.92919(19)
C18 C 0.30597(6) 0.9514(5) 0.8274(2)
C19 C 0.31062(6) 0.7877(5) 0.9180(2)
H14 H 0.2969 0.7903 0.9782
C20 C 0.33478(6) 0.6234(5) 0.9208(2)
H15 H 0.3375 0.5132 0.9825
C21 C 0.35549(5) 0.6174(5) 0.8333(2)
C22 C 0.35074(6) 0.7837(5) 0.7435(2)
H16 H 0.3646 0.7831 0.6838
C23 C 0.32651(6) 0.9470(5) 0.7401(2)
H17 H 0.3237 1.0570 0.6784
C24 C 0.38162(5) 0.4548(4) 0.8271(2)
H18 H 0.3935 0.4830 0.7632
C25 C 0.38235(6) 0.1556(5) 0.9962(2)
C26 C 0.39290(5) 0.2702(5) 0.8931(2)
C27 C 0.41861(5) 0.1187(5) 0.8625(2)
C28 C 0.43864(5) 0.1543(4) 0.7669(2)
C29 C 0.43971(6) -0.0141(5) 0.6809(2)
H19 H 0.4275 -0.1540 0.6833
C30 C 0.45862(6) 0.0227(5) 0.5913(2)
H20 H 0.4591 -0.0915 0.5320
C31 C 0.47683(6) 0.2246(5) 0.5878(2)
H21 H 0.4899 0.2479 0.5267
C32 C 0.47592(6) 0.3923(5) 0.6735(2)
H22 H 0.4885 0.5303 0.6715
C33 C 0.45664(6) 0.3594(5) 0.7626(2)
H23 H 0.4557 0.4763 0.8204
C34 C 0.27812(7) 1.3338(6) 0.7076(3)
H24 H 0.2994 1.4070 0.7150
H25 H 0.2616 1.4556 0.7032
H26 H 0.2754 1.2386 0.6369
loop_
_geom_bond_atom_site_label_1
_geom_bond_atom_site_label_2
_geom_bond_site_symmetry_1
_geom_bond_site_symmetry_2
S1 C1 1_555 1_555
O1 N1 1_555 1_555
O2 C8 1_555 1_555
N1 C10 1_555 1_555
C1 C2 1_555 1_555
C2 H1 1_555 1_555
C3 C2 1_555 1_555
H2 C3 1_555 1_555
C4 C3 1_555 1_555
C5 C4 1_555 1_555
H3 C5 1_555 1_555
C6 C1 1_555 1_555
H4 C6 1_555 1_555
C7 C4 1_555 1_555
H5 C7 1_555 1_555
C8 O1 1_555 1_555
C9 C7 1_555 1_555
C10 C9 1_555 1_555
C11 C10 1_555 1_555
C12 C11 1_555 1_555
H6 C12 1_555 1_555
C13 C12 1_555 1_555
H7 C13 1_555 1_555
C14 C13 1_555 1_555
H8 C14 1_555 1_555
C15 C14 1_555 1_555
H9 C15 1_555 1_555
C16 C11 1_555 1_555
H10 C16 1_555 1_555
C17 S1 1_555 1_555
H11 C17 1_555 1_555
H12 C17 1_555 1_555
H13 C17 1_555 1_555
S2 C18 1_555 1_555
O3 N2 1_555 1_555
O4 C25 1_555 1_555
N2 C27 1_555 1_555
C18 C19 1_555 1_555
C19 H14 1_555 1_555
C20 C19 1_555 1_555
H15 C20 1_555 1_555
C21 C20 1_555 1_555
C22 C21 1_555 1_555
H16 C22 1_555 1_555
C23 C18 1_555 1_555
H17 C23 1_555 1_555
C24 C21 1_555 1_555
H18 C24 1_555 1_555
C25 O3 1_555 1_555
C26 C24 1_555 1_555
C27 C26 1_555 1_555
C28 C27 1_555 1_555
C29 C28 1_555 1_555
H19 C29 1_555 1_555
C30 C29 1_555 1_555
H20 C30 1_555 1_555
C31 C30 1_555 1_555
H21 C31 1_555 1_555
C32 C31 1_555 1_555
H22 C32 1_555 1_555
C33 C28 1_555 1_555
H23 C33 1_555 1_555
C34 S2 1_555 1_555
H24 C34 1_555 1_555
H25 C34 1_555 1_555
H26 C34 1_555 1_555
C5 C6 1_555 1_555
C8 C9 1_555 1_555
C15 C16 1_555 1_555
C22 C23 1_555 1_555
C25 C26 1_555 1_555
C32 C33 1_555 1_555

#END
