
#######################################################################
#
#                 Cambridge Crystallographic Data Centre
#                                CCDC 
#
#######################################################################
#
# If this CIF has been generated from an entry in the Cambridge 
# Structural Database, then it will include bibliographic, chemical, 
# crystal, experimental, refinement or atomic coordinate data resulting 
# from the CCDC's data processing and validation procedures.
#
#######################################################################

data_UMULIZ
_chemical_formula_moiety         'C15 H11 N1 O2 S1'
_chemical_name_systematic        
4-((5-methyl-2-thienyl)methylene)-3-phenyl-1,2-oxazol-5(4H)-one
_symmetry_cell_setting           monoclinic
_symmetry_space_group_name_H-M   'P c'
_symmetry_Int_Tables_number      7
_space_group_name_Hall           'P -2yc'
loop_
_symmetry_equiv_pos_site_id
_symmetry_equiv_pos_as_xyz
1 x,y,z
2 x,-y,1/2+z
_cell_length_a                   9.466(3)
_cell_length_b                   6.060(2)
_cell_length_c                   11.771(5)
_cell_angle_alpha                90
_cell_angle_beta                 106.248(5)
_cell_angle_gamma                90
_cell_volume                     648.262
_exptl_crystal_colour            yellow
_exptl_crystal_description       Prism
_cell_formula_units_Z            2
loop_
_atom_site_label
_atom_site_type_symbol
_atom_site_fract_x
_atom_site_fract_y
_atom_site_fract_z
S1 S 0.43980(5) 0.80545(8) 0.55811(4)
O1 O 0.75147(16) 0.1701(2) 0.61542(12)
O2 O 0.58703(16) 0.4033(2) 0.65515(12)
N1 N 0.84482(18) 0.1617(3) 0.53662(15)
C1 C 0.3477(2) 1.0436(4) 0.50305(18)
C2 C 0.3840(2) 1.1179(4) 0.40588(18)
H1 H 0.3435 1.2473 0.3636
C3 C 0.4873(2) 0.9833(3) 0.37491(17)
H2 H 0.5236 1.0119 0.3088
C4 C 0.5316(2) 0.8051(3) 0.44920(16)
C5 C 0.6427(2) 0.6571(3) 0.43708(16)
H3 H 0.6812 0.6921 0.3729
C6 C 0.7049(2) 0.4761(3) 0.49841(16)
C7 C 0.6695(2) 0.3616(3) 0.59639(17)
C8 C 0.8165(2) 0.3389(3) 0.47193(16)
C9 C 0.8996(2) 0.3828(3) 0.38521(15)
C10 C 0.9089(2) 0.2225(3) 0.30316(17)
H4 H 0.8581 0.0866 0.3005
C11 C 0.9922(2) 0.2610(3) 0.22520(18)
H5 H 0.9981 0.1519 0.1688
C12 C 1.0663(2) 0.4576(3) 0.22973(18)
H6 H 1.1245 0.4823 0.1771
C13 C 1.0569(2) 0.6195(3) 0.30994(19)
H7 H 1.1082 0.7549 0.3123
C14 C 0.9719(2) 0.5832(3) 0.38723(17)
H8 H 0.9631 0.6952 0.4414
C15 C 0.2450(3) 1.1479(4) 0.5640(2)
H9 H 0.2403 1.0565 0.6316
H10 H 0.1466 1.1599 0.5084
H11 H 0.2811 1.2953 0.5920
H12? H 0.2051 1.2846 0.5231
H13? H 0.2987 1.1812 0.6463
H14? H 0.1642 1.0458 0.5626
loop_
_geom_bond_atom_site_label_1
_geom_bond_atom_site_label_2
_geom_bond_site_symmetry_1
_geom_bond_site_symmetry_2
S1 C1 1_555 1_555
O1 N1 1_555 1_555
O2 C7 1_555 1_555
N1 C8 1_555 1_555
C1 C2 1_555 1_555
C2 H1 1_555 1_555
C3 C2 1_555 1_555
H2 C3 1_555 1_555
C4 S1 1_555 1_555
C5 C4 1_555 1_555
H3 C5 1_555 1_555
C6 C5 1_555 1_555
C7 O1 1_555 1_555
C8 C6 1_555 1_555
C9 C8 1_555 1_555
C10 C9 1_555 1_555
H4 C10 1_555 1_555
C11 C10 1_555 1_555
H5 C11 1_555 1_555
C12 C11 1_555 1_555
H6 C12 1_555 1_555
C13 C12 1_555 1_555
H7 C13 1_555 1_555
C14 C9 1_555 1_555
H8 C14 1_555 1_555
C15 C1 1_555 1_555
H9 C15 1_555 1_555
H10 C15 1_555 1_555
H11 C15 1_555 1_555
C3 C4 1_555 1_555
C6 C7 1_555 1_555
C13 C14 1_555 1_555

#END
