
#######################################################################
#
#                 Cambridge Crystallographic Data Centre
#                                CCDC 
#
#######################################################################
#
# If this CIF has been generated from an entry in the Cambridge 
# Structural Database, then it will include bibliographic, chemical, 
# crystal, experimental, refinement or atomic coordinate data resulting 
# from the CCDC's data processing and validation procedures.
#
#######################################################################

data_UMUMIZ
_chemical_formula_moiety         'C20 H19 N3'
_chemical_name_systematic        
5,10-Dimethyl-10,15-dihydro-5H-tribenzo[b,e,h][1,4,7]triazonine
_symmetry_cell_setting           orthorhombic
_symmetry_space_group_name_H-M   'P b c a'
_symmetry_Int_Tables_number      61
_space_group_name_Hall           '-P 2ac 2ab'
loop_
_symmetry_equiv_pos_site_id
_symmetry_equiv_pos_as_xyz
1 x,y,z
2 1/2-x,-y,1/2+z
3 -x,1/2+y,1/2-z
4 1/2+x,1/2-y,-z
5 -x,-y,-z
6 1/2+x,y,1/2-z
7 x,1/2-y,1/2+z
8 1/2-x,1/2+y,z
_cell_length_a                   9.9479(15)
_cell_length_b                   15.727(2)
_cell_length_c                   19.800(3)
_cell_angle_alpha                90
_cell_angle_beta                 90
_cell_angle_gamma                90
_cell_volume                     3097.72
_exptl_crystal_colour            yellow
_exptl_crystal_description       block
_cell_formula_units_Z            8
loop_
_atom_site_label
_atom_site_type_symbol
_atom_site_fract_x
_atom_site_fract_y
_atom_site_fract_z
C1 C -0.16153(17) 0.89633(10) 0.32791(9)
C2 C -0.29163(17) 0.87445(10) 0.34852(9)
H1 H -0.3666 0.8998 0.3267
C3 C -0.31316(18) 0.81679(11) 0.39996(9)
H2 H -0.4024 0.8019 0.4123
C4 C -0.20569(18) 0.78058(11) 0.43368(9)
H3 H -0.2201 0.7417 0.4697
C5 C -0.07647(17) 0.80221(10) 0.41376(8)
H4 H -0.0021 0.7785 0.4372
C6 C -0.05288(17) 0.85753(10) 0.36053(8)
C7 C 0.16820(16) 0.90917(10) 0.38638(8)
C8 C 0.28263(16) 0.87162(11) 0.41310(9)
H5 H 0.3113 0.8178 0.3967
C9 C 0.35610(17) 0.91194(11) 0.46381(9)
H6 H 0.4345 0.8856 0.4815
C10 C 0.31563(18) 0.98968(11) 0.48838(9)
H7 H 0.3637 1.0159 0.5243
C11 C 0.20405(17) 1.02979(11) 0.46050(9)
H8 H 0.1775 1.0840 0.4770
C12 C 0.13084(16) 0.99169(10) 0.40887(8)
C13 C 0.03656(17) 1.04746(10) 0.30604(8)
C14 C 0.13314(17) 1.10594(10) 0.28582(9)
H9 H 0.1917 1.1297 0.3187
C15 C 0.14629(18) 1.13057(11) 0.21898(9)
H10 H 0.2129 1.1706 0.2059
C16 C 0.06001(18) 1.09553(10) 0.17162(9)
H11 H 0.0663 1.1125 0.1257
C17 C -0.03464(18) 1.03640(10) 0.19044(9)
H12 H -0.0921 1.0127 0.1571
C18 C -0.04807(17) 1.01039(10) 0.25787(9)
C19 C 0.13686(18) 0.79198(10) 0.30623(9)
H13 H 0.2266 0.8030 0.2877
H14 H 0.0766 0.7738 0.2698
H15 H 0.1425 0.7471 0.3404
C20 C -0.04292(18) 1.10228(11) 0.41264(9)
H16 H -0.0597 1.0869 0.4599
H17 H -0.1281 1.1169 0.3907
H18 H 0.0179 1.1513 0.4109
N1 N 0.01859(14) 1.03033(8) 0.37759(7)
N2 N 0.08445(13) 0.86979(8) 0.33715(7)
N3 N -0.14882(15) 0.95098(9) 0.27276(8)
H19 H -0.2231(16) 0.9575(11) 0.2502(9)
loop_
_geom_bond_atom_site_label_1
_geom_bond_atom_site_label_2
_geom_bond_site_symmetry_1
_geom_bond_site_symmetry_2
C1 C2 1_555 1_555
C2 H1 1_555 1_555
C3 C2 1_555 1_555
H2 C3 1_555 1_555
C4 C3 1_555 1_555
H3 C4 1_555 1_555
C5 C4 1_555 1_555
H4 C5 1_555 1_555
C6 C1 1_555 1_555
C7 C8 1_555 1_555
C8 H5 1_555 1_555
C9 C8 1_555 1_555
H6 C9 1_555 1_555
C10 C9 1_555 1_555
H7 C10 1_555 1_555
C11 C10 1_555 1_555
H8 C11 1_555 1_555
C12 C7 1_555 1_555
C13 C14 1_555 1_555
C14 H9 1_555 1_555
C15 C14 1_555 1_555
H10 C15 1_555 1_555
C16 C15 1_555 1_555
H11 C16 1_555 1_555
C17 C16 1_555 1_555
H12 C17 1_555 1_555
C18 C13 1_555 1_555
C19 H13 1_555 1_555
H14 C19 1_555 1_555
H15 C19 1_555 1_555
C20 H16 1_555 1_555
H17 C20 1_555 1_555
H18 C20 1_555 1_555
N1 C12 1_555 1_555
N2 C6 1_555 1_555
N3 C1 1_555 1_555
H19 N3 1_555 1_555
C5 C6 1_555 1_555
C7 N2 1_555 1_555
C11 C12 1_555 1_555
C13 N1 1_555 1_555
C17 C18 1_555 1_555
C18 N3 1_555 1_555
C19 N2 1_555 1_555
C20 N1 1_555 1_555

#END
