
#######################################################################
#
#                 Cambridge Crystallographic Data Centre
#                                CCDC 
#
#######################################################################
#
# If this CIF has been generated from an entry in the Cambridge 
# Structural Database, then it will include bibliographic, chemical, 
# crystal, experimental, refinement or atomic coordinate data resulting 
# from the CCDC's data processing and validation procedures.
#
#######################################################################

data_UMUSAX
_chemical_formula_moiety         'C21 H15 N1 O2'
_chemical_name_systematic        
8,15-Dihydro-1H-naphtho[2',3':6,7][1,4]oxazocino-[2,3,4-ij]quinolin-1-one
_symmetry_cell_setting           monoclinic
_symmetry_space_group_name_H-M   'P 21/n'
_symmetry_Int_Tables_number      14
_space_group_name_Hall           '-P 2yn'
loop_
_symmetry_equiv_pos_site_id
_symmetry_equiv_pos_as_xyz
1 x,y,z
2 1/2-x,1/2+y,1/2-z
3 -x,-y,-z
4 1/2+x,1/2-y,1/2+z
_cell_length_a                   14.102(5)
_cell_length_b                   15.073(5)
_cell_length_c                   15.994(6)
_cell_angle_alpha                90
_cell_angle_beta                 114.941(13)
_cell_angle_gamma                90
_cell_volume                     3082.63
_exptl_crystal_colour            yellow
_exptl_crystal_description       rectangular
_chemical_melting_point          236-238deg.C
_cell_formula_units_Z            8
_exptl_crystal_recrystallization_method acetonitrile/chloroform
loop_
_atom_site_label
_atom_site_type_symbol
_atom_site_fract_x
_atom_site_fract_y
_atom_site_fract_z
C1 C 0.2371(2) 0.6481(2) 0.2078(2)
C2 C 0.1561(2) 0.5855(2) 0.1737(2)
C3 C 0.0594(2) 0.8507(2) 0.0930(2)
H1 H 0.1129 0.8902 0.1002
C4 C 0.0699(2) 0.7643(2) 0.0738(2)
C5 C 0.3066(3) 0.6436(2) 0.3014(2)
C6 C -0.0104(2) 0.7040(2) 0.0658(2)
C7 C -0.0299(2) 0.8827(2) 0.1024(2)
C8 C -0.0957(2) 0.7332(2) 0.0766(2)
H2 H -0.1467 0.6923 0.0731
C9 C -0.1094(2) 0.8220(2) 0.0928(2)
C10 C 0.1417(3) 0.5268(2) 0.2331(3)
H3 H 0.0868 0.4864 0.2102
C11 C 0.1656(2) 0.7378(2) 0.0611(2)
H4 H 0.1489 0.6882 0.0186
H5 H 0.1882 0.7869 0.0347
C12 C 0.4131(3) 0.7553(3) 0.2775(3)
H6 H 0.4741 0.7889 0.3001
C13 C 0.3403(3) 0.7651(2) 0.1818(3)
C14 C 0.2070(3) 0.5267(3) 0.3257(3)
H7 H 0.1946 0.4881 0.3654
C15 C 0.3958(3) 0.7004(3) 0.3334(3)
H8 H 0.4427 0.6986 0.3953
C16 C 0.2896(3) 0.5830(3) 0.3589(3)
H9 H 0.3354 0.5810 0.4210
C17 C -0.0432(3) 0.9720(2) 0.1183(3)
H10 H 0.0093 1.0126 0.1255
C18 C -0.2105(3) 0.9406(3) 0.1128(3)
H11 H -0.2715 0.9608 0.1154
C19 C -0.1999(3) 0.8538(3) 0.0989(3)
H12 H -0.2531 0.8145 0.0933
C20 C -0.0046(3) 0.6086(2) 0.0421(3)
H13 H -0.0462 0.5732 0.0648
H14 H -0.0345 0.6024 -0.0245
C21 C -0.1321(3) 0.9999(3) 0.1234(3)
H15 H -0.1401 1.0595 0.1341
O1 O 0.09976(18) 0.57512(14) 0.07992(17)
O2 O 0.35417(19) 0.81752(18) 0.1289(2)
N1 N 0.25182(19) 0.71213(17) 0.15111(17)
C22 C 0.5018(2) 0.3975(2) 0.1450(2)
C23 C 0.5920(2) 0.4252(2) 0.1360(2)
H16 H 0.6423 0.3831 0.1410
C24 C 0.4262(2) 0.4620(2) 0.1366(2)
C25 C 0.7066(2) 0.5325(2) 0.1071(2)
H17 H 0.7230 0.4835 0.0761
H18 H 0.6937 0.5846 0.0683
C26 C 0.7913(3) 0.6116(2) 0.2583(3)
C27 C 0.6091(2) 0.5104(2) 0.1205(2)
C28 C 0.5350(3) 0.5758(2) 0.1157(2)
C29 C 0.3331(3) 0.4338(3) 0.1410(3)
H19 H 0.2813 0.4750 0.1344
C30 C 0.4472(3) 0.5507(2) 0.1239(2)
H20 H 0.3989 0.5939 0.1211
C31 C 0.8640(4) 0.6091(3) 0.3523(3)
C32 C 0.3930(3) 0.2846(3) 0.1642(3)
H21 H 0.3815 0.2254 0.1734
C33 C 0.7162(3) 0.6788(2) 0.2303(3)
C34 C 0.8781(3) 0.4880(3) 0.2228(3)
C35 C 0.4826(3) 0.3094(2) 0.1601(3)
H22 H 0.5332 0.2667 0.1676
C36 C 0.7058(4) 0.7357(3) 0.2941(4)
H23 H 0.6544 0.7794 0.2751
C37 C 0.8527(5) 0.6659(4) 0.4150(4)
H24 H 0.8995 0.6628 0.4768
C38 C 0.3184(3) 0.3474(3) 0.1547(3)
H25 H 0.2567 0.3301 0.1578
C39 C 0.9547(3) 0.4911(4) 0.3177(4)
H26 H 1.0114 0.4525 0.3368
C40 C 0.7738(5) 0.7266(4) 0.3875(4)
H27 H 0.7650 0.7622 0.4311
C41 C 0.5502(3) 0.6708(2) 0.0984(3)
H28 H 0.5203 0.6813 0.0324
H29 H 0.5130 0.7078 0.1243
C42 C 0.9470(4) 0.5470(4) 0.3782(3)
H30 H 0.9971 0.5456 0.4389
O3 O 0.6584(2) 0.69638(16) 0.13760(19)
O4 O 0.8818(2) 0.4344(2) 0.1658(3)
N2 N 0.7970(2) 0.54940(19) 0.19685(19)
loop_
_geom_bond_atom_site_label_1
_geom_bond_atom_site_label_2
_geom_bond_site_symmetry_1
_geom_bond_site_symmetry_2
C1 C2 1_555 1_555
C2 C10 1_555 1_555
C3 H1 1_555 1_555
C4 C3 1_555 1_555
C5 C1 1_555 1_555
C6 C4 1_555 1_555
C7 C3 1_555 1_555
C8 C6 1_555 1_555
H2 C8 1_555 1_555
C9 C7 1_555 1_555
C10 H3 1_555 1_555
C11 C4 1_555 1_555
H4 C11 1_555 1_555
H5 C11 1_555 1_555
C12 H6 1_555 1_555
C13 C12 1_555 1_555
C14 C10 1_555 1_555
H7 C14 1_555 1_555
C15 C5 1_555 1_555
H8 C15 1_555 1_555
C16 C5 1_555 1_555
H9 C16 1_555 1_555
C17 C7 1_555 1_555
H10 C17 1_555 1_555
C18 H11 1_555 1_555
C19 C9 1_555 1_555
H12 C19 1_555 1_555
C20 C6 1_555 1_555
H13 C20 1_555 1_555
H14 C20 1_555 1_555
C21 C17 1_555 1_555
H15 C21 1_555 1_555
O1 C2 1_555 1_555
O2 C13 1_555 1_555
N1 C1 1_555 1_555
C22 C23 1_555 1_555
C23 H16 1_555 1_555
C24 C22 1_555 1_555
C25 H17 1_555 1_555
H18 C25 1_555 1_555
C26 C31 1_555 1_555
C27 C23 1_555 1_555
C28 C27 1_555 1_555
C29 C24 1_555 1_555
H19 C29 1_555 1_555
C30 C24 1_555 1_555
H20 C30 1_555 1_555
C31 C37 1_555 1_555
C32 H21 1_555 1_555
C33 C26 1_555 1_555
C34 C39 1_555 1_555
C35 C22 1_555 1_555
H22 C35 1_555 1_555
C36 C33 1_555 1_555
H23 C36 1_555 1_555
C37 H24 1_555 1_555
C38 C29 1_555 1_555
H25 C38 1_555 1_555
C39 H26 1_555 1_555
C40 C36 1_555 1_555
H27 C40 1_555 1_555
C41 C28 1_555 1_555
H28 C41 1_555 1_555
H29 C41 1_555 1_555
C42 C31 1_555 1_555
H30 C42 1_555 1_555
O3 C33 1_555 1_555
O4 C34 1_555 1_555
N2 C25 1_555 1_555
C8 C9 1_555 1_555
C11 N1 1_555 1_555
C12 C15 1_555 1_555
C13 N1 1_555 1_555
C14 C16 1_555 1_555
C18 C19 1_555 1_555
C18 C21 1_555 1_555
C20 O1 1_555 1_555
C25 C27 1_555 1_555
C26 N2 1_555 1_555
C28 C30 1_555 1_555
C32 C35 1_555 1_555
C32 C38 1_555 1_555
C34 N2 1_555 1_555
C37 C40 1_555 1_555
C39 C42 1_555 1_555
C41 O3 1_555 1_555

#END
