
#######################################################################
#
#                 Cambridge Crystallographic Data Centre
#                                CCDC 
#
#######################################################################
#
# If this CIF has been generated from an entry in the Cambridge 
# Structural Database, then it will include bibliographic, chemical, 
# crystal, experimental, refinement or atomic coordinate data resulting 
# from the CCDC's data processing and validation procedures.
#
#######################################################################

data_UNABOC
_chemical_name_common            
'bis(1-(2-(((4-amino-3-bromophenyl)sulfonyl)amino)ethyl)-4-(3-(4-amino-5-chloro-2-methoxyphenyl)-3-oxopropyl)piperidinium) fumarate methanol solvate'
_chemical_formula_moiety         
'2(C23 H31 Br1 Cl1 N4 O4 S1 1+),C4 H2 O4 2-,3(C1 H4 O1)'
_chemical_name_systematic        
'bis(1-(2-(((4-amino-3-bromophenyl)sulfonyl)amino)ethyl)-4-(3-(4-amino-5-chloro-2-methoxyphenyl)-3-oxopropyl)piperidinium) but-2-enedioate methanol solvate'
_chemical_properties_biological  'antiamnesic activity'
_symmetry_cell_setting           monoclinic
_symmetry_space_group_name_H-M   'P 21/n'
_symmetry_Int_Tables_number      14
_space_group_name_Hall           '-P 2yn'
loop_
_symmetry_equiv_pos_site_id
_symmetry_equiv_pos_as_xyz
1 x,y,z
2 1/2-x,1/2+y,1/2-z
3 -x,-y,-z
4 1/2+x,1/2-y,1/2+z
_cell_length_a                   18.4355(5)
_cell_length_b                   7.4769(2)
_cell_length_c                   25.6895(7)
_cell_angle_alpha                90
_cell_angle_beta                 95.3548(17)
_cell_angle_gamma                90
_cell_volume                     3525.6
_exptl_crystal_colour            colorless
_exptl_crystal_description       prism
_cell_formula_units_Z            2
_exptl_crystal_recrystallization_method methanol
loop_
_atom_site_label
_atom_site_type_symbol
_atom_site_fract_x
_atom_site_fract_y
_atom_site_fract_z
Br1 Br 0.69505(4) 1.32146(13) 0.23903(3)
Cl1 Cl 0.78507(9) 0.4508(3) 0.92876(6)
S1 S 0.69785(11) 0.9264(3) 0.42083(7)
O1 O 0.6599(2) 0.4029(8) 0.71027(17)
O2 O 0.8832(3) 0.3967(9) 0.74792(19)
N1 N 0.8135(3) 0.4995(8) 0.4734(2)
C1 C 0.6711(3) 0.4257(9) 0.8542(2)
C2 C 0.8174(3) 0.4042(10) 0.7328(3)
C3 C 0.8567(3) 0.4104(10) 0.6406(2)
H1 H 0.8931 0.3187 0.6528
H2 H 0.8807 0.5288 0.6442
N2 N 0.6241(3) 0.4325(8) 0.8921(2)
H3 H 0.5768 0.4322 0.8834
H4 H 0.6410 0.4371 0.9252
O3 O 0.6464(3) 0.8419(8) 0.4513(2)
C4 C 0.7639(3) 0.4127(10) 0.7719(2)
C5 C 0.7943(3) 0.4051(10) 0.6750(2)
H5 H 0.7626 0.5104 0.6668
H6 H 0.7648 0.2968 0.6662
C6 C 0.7473(3) 0.4290(9) 0.8645(2)
C7 C 0.6453(4) 1.1841(10) 0.2863(3)
N3 N 0.7547(3) 0.7795(8) 0.4049(2)
H7 H 0.8004 0.8122 0.4038
C8 C 0.8728(4) 0.3672(11) 0.4916(3)
H8 H 0.9152 0.3833 0.4711
H9 H 0.8545 0.2436 0.4860
C9 C 0.6424(3) 0.4183(10) 0.8017(3)
H10 H 0.5910 0.4178 0.7937
C10 C 0.7717(3) 0.5045(9) 0.5618(2)
H11 H 0.7288 0.4866 0.5817
H12 H 0.7886 0.6294 0.5674
C11 C 0.7495(3) 0.4758(10) 0.5043(3)
H13 H 0.7295 0.3537 0.4988
H14 H 0.7110 0.5624 0.4922
C12 C 0.7358(4) 0.5977(10) 0.3922(3)
H15 H 0.7293 0.5831 0.3537
H16 H 0.6891 0.5674 0.4062
C13 C 0.8323(3) 0.3770(9) 0.5827(3)
H17 H 0.8135 0.2518 0.5789
O4 O 0.7419(4) 1.0726(8) 0.4426(2)
C14 C 0.6873(3) 0.4118(10) 0.7611(2)
C15 C 0.7950(4) 0.4723(11) 0.4150(3)
H18 H 0.8394 0.4912 0.3969
H19 H 0.7788 0.3473 0.4087
C16 C 0.5366(4) 1.0466(12) 0.3107(3)
H20 H 0.4861 1.0211 0.3042
C17 C 0.7909(3) 0.4201(9) 0.8245(2)
H21 H 0.8422 0.4190 0.8328
N4 N 0.5299(3) 1.2331(10) 0.2347(2)
H22 H 0.4828 1.2128 0.2294
H23 H 0.5514 1.3026 0.2132
C18 C 0.8962(4) 0.3966(10) 0.5496(2)
H24 H 0.9344 0.3087 0.5614
H25 H 0.9172 0.5179 0.5547
C19 C 0.6843(4) 1.1092(10) 0.3291(3)
H26 H 0.7354 1.1277 0.3348
C20 C 0.5695(4) 1.1569(10) 0.2762(3)
C21 C 0.5751(4) 0.9732(11) 0.3541(3)
H27 H 0.5511 0.8998 0.3773
C22 C 0.6490(4) 1.0070(10) 0.3637(2)
C23 C 0.5826(4) 0.3988(16) 0.6987(3)
H28 H 0.5624 0.2972 0.7166
H29 H 0.5708 0.3863 0.6609
H30 H 0.5615 0.5102 0.7106
O5 O 0.9002(3) 0.8651(11) 0.4129(2)
O6 O 0.8896(3) 0.7991(7) 0.49629(18)
C24 C 0.9188(4) 0.8803(11) 0.4613(3)
C25 C 0.9818(3) 1.0009(9) 0.4767(2)
H31 H 0.9965 1.0833 0.4515
O5B O 1.0998(3) 1.1349(11) 0.5871(2)
O6B O 1.1104(3) 1.2009(7) 0.50371(18)
C24B C 1.0812(4) 1.1197(11) 0.5387(3)
C25B C 1.0182(3) 0.9991(9) 0.5233(2)
H31B H 1.0035 0.9167 0.5485
O7 O 0.5298(3) 0.5424(7) 0.1563(2)
H32 H 0.5557 0.4863 0.1366
C26 C 0.5693(11) 0.736(3) 0.1734(8)
H33 H 0.5380 0.8343 0.1600
H34 H 0.6164 0.7435 0.1588
H35 H 0.5769 0.7430 0.2117
O8 O 0.9637(15) 0.899(4) 0.0748(11)
H36 H 0.9355 0.9214 0.0480
C27 C 1.0265(16) 0.793(4) 0.0597(12)
H37 H 1.0698 0.8694 0.0614
H38 H 1.0157 0.7479 0.0240
H39 H 1.0354 0.6922 0.0838
H40? H 0.833(6) 0.673(17) 0.488(5)
loop_
_geom_bond_atom_site_label_1
_geom_bond_atom_site_label_2
_geom_bond_site_symmetry_1
_geom_bond_site_symmetry_2
Br1 C7 1_555 1_555
Cl1 C6 1_555 1_555
S1 O3 1_555 1_555
O1 C14 1_555 1_555
O2 C2 1_555 1_555
N1 C8 1_555 1_555
C1 N2 1_555 1_555
C2 C4 1_555 1_555
C3 H1 1_555 1_555
H2 C3 1_555 1_555
N2 H3 1_555 1_555
H4 N2 1_555 1_555
C4 C14 1_555 1_555
C5 C2 1_555 1_555
H5 C5 1_555 1_555
H6 C5 1_555 1_555
C6 C1 1_555 1_555
C7 C19 1_555 1_555
N3 S1 1_555 1_555
H7 N3 1_555 1_555
C8 H8 1_555 1_555
H9 C8 1_555 1_555
C9 C1 1_555 1_555
H10 C9 1_555 1_555
C10 H11 1_555 1_555
H12 C10 1_555 1_555
C11 N1 1_555 1_555
H13 C11 1_555 1_555
H14 C11 1_555 1_555
C12 N3 1_555 1_555
H15 C12 1_555 1_555
H16 C12 1_555 1_555
C13 C3 1_555 1_555
H17 C13 1_555 1_555
O4 S1 1_555 1_555
C14 C9 1_555 1_555
C15 N1 1_555 1_555
H18 C15 1_555 1_555
H19 C15 1_555 1_555
C16 H20 1_555 1_555
C17 C4 1_555 1_555
H21 C17 1_555 1_555
N4 H22 1_555 1_555
H23 N4 1_555 1_555
C18 C8 1_555 1_555
H24 C18 1_555 1_555
H25 C18 1_555 1_555
C19 H26 1_555 1_555
C20 C7 1_555 1_555
C21 C16 1_555 1_555
H27 C21 1_555 1_555
C22 S1 1_555 1_555
C23 O1 1_555 1_555
H28 C23 1_555 1_555
H29 C23 1_555 1_555
H30 C23 1_555 1_555
O5 C24 1_555 1_555
O6 C24 1_555 1_555
C24 C25 1_555 1_555
C25 H31 1_555 1_555
O7 H32 1_555 1_555
C26 O7 1_555 1_555
H33 C26 1_555 1_555
H34 C26 1_555 1_555
H35 C26 1_555 1_555
O8 H36 1_555 1_555
C27 O8 1_555 1_555
H37 C27 1_555 1_555
H38 C27 1_555 1_555
H39 C27 1_555 1_555
O5B C24B 1_555 1_555
O6B C24B 1_555 1_555
C24B C25B 1_555 1_555
C25B C25 1_555 1_555
H31B C25B 1_555 1_555
C3 C5 1_555 1_555
C6 C17 1_555 1_555
C10 C11 1_555 1_555
C10 C13 1_555 1_555
C12 C15 1_555 1_555
C13 C18 1_555 1_555
C16 C20 1_555 1_555
N4 C20 1_555 1_555
C19 C22 1_555 1_555
C21 C22 1_555 1_555

#END
