
#######################################################################
#
#                 Cambridge Crystallographic Data Centre
#                                CCDC 
#
#######################################################################
#
# If this CIF has been generated from an entry in the Cambridge 
# Structural Database, then it will include bibliographic, chemical, 
# crystal, experimental, refinement or atomic coordinate data resulting 
# from the CCDC's data processing and validation procedures.
#
#######################################################################

data_UNAGAS
_chemical_formula_moiety         'C19 H17 Cl2 N3 O5 S1'
_chemical_name_systematic        
N-(2-((2,6-Dichlorophenyl)sulfanyl)cyclohexyl)-3,5-dinitrobenzamide
_symmetry_cell_setting           monoclinic
_symmetry_space_group_name_H-M   'P 21'
_symmetry_Int_Tables_number      4
_space_group_name_Hall           'P 2yb'
loop_
_symmetry_equiv_pos_site_id
_symmetry_equiv_pos_as_xyz
1 x,y,z
2 -x,1/2+y,-z
_cell_length_a                   8.4505(6)
_cell_length_b                   6.8838(5)
_cell_length_c                   17.8060(13)
_cell_angle_alpha                90
_cell_angle_beta                 101.790(2)
_cell_angle_gamma                90
_cell_volume                     1013.95
_exptl_crystal_colour            colorless
_exptl_crystal_description       'thin plate'
_cell_formula_units_Z            2
loop_
_atom_site_label
_atom_site_type_symbol
_atom_site_fract_x
_atom_site_fract_y
_atom_site_fract_z
S1 S 0.78096(11) 0.63745(13) 0.32482(5)
Cl1 Cl 0.39322(10) 0.59366(16) 0.27105(5)
Cl2 Cl 0.98498(10) 0.58434(16) 0.19463(6)
O1 O 1.1790(3) 0.2527(5) 0.37961(14)
O2 O 1.5911(3) 0.0734(6) 0.24704(15)
O3 O 1.5368(3) -0.0100(5) 0.12879(16)
O4 O 0.9783(5) -0.1061(7) 0.00117(19)
O5 O 0.7967(3) 0.0418(9) 0.04791(16)
N1 N 0.9140(3) 0.2078(5) 0.33265(15)
H1 H 0.836(4) 0.161(6) 0.2951(19)
N2 N 1.4949(3) 0.0366(5) 0.18748(17)
N3 N 0.9327(4) -0.0179(6) 0.05209(17)
C1 C 0.6858(4) 0.5756(6) 0.23010(17)
C2 C 0.7782(4) 0.5552(6) 0.17353(19)
C3 C 0.7075(6) 0.5115(8) 0.0982(2)
H2 H 0.7718 0.4967 0.0612
C4 C 0.5416(6) 0.4900(9) 0.0777(2)
H3 H 0.4931 0.4602 0.0267
C5 C 0.4462(5) 0.5121(7) 0.1318(2)
H4 H 0.3335 0.4965 0.1177
C6 C 0.5172(4) 0.5571(6) 0.2065(2)
C7 C 0.7267(4) 0.4307(5) 0.38037(17)
H5 H 0.6311 0.3650 0.3493
C8 C 0.6805(5) 0.5118(6) 0.45256(19)
H6 H 0.7721 0.5839 0.4824
H7 H 0.5898 0.6022 0.4381
C9 C 0.6328(5) 0.3497(7) 0.5016(2)
H8 H 0.6105 0.4051 0.5491
H9 H 0.5335 0.2877 0.4739
C10 C 0.7648(5) 0.1981(7) 0.5213(2)
H10 H 0.7267 0.0908 0.5492
H11 H 0.8597 0.2558 0.5549
C11 C 0.8124(4) 0.1201(6) 0.44851(19)
H12 H 0.9025 0.0287 0.4627
H13 H 0.7208 0.0496 0.4179
C12 C 0.8619(4) 0.2833(5) 0.40077(17)
H14 H 0.9556 0.3502 0.4328
C13 C 1.0717(4) 0.2010(5) 0.32835(18)
C14 C 1.1114(3) 0.1262(5) 0.25424(16)
C15 C 1.2736(4) 0.1083(5) 0.25386(17)
H15 H 1.3515 0.1354 0.2984
C16 C 1.3206(4) 0.0504(5) 0.18780(18)
C17 C 1.2146(4) 0.0062(6) 0.12100(18)
H16 H 1.2495 -0.0364 0.0769
C18 C 1.0535(4) 0.0283(6) 0.12275(17)
C19 C 0.9969(4) 0.0869(6) 0.18724(17)
H17 H 0.8856 0.0997 0.1859
loop_
_geom_bond_atom_site_label_1
_geom_bond_atom_site_label_2
_geom_bond_site_symmetry_1
_geom_bond_site_symmetry_2
S1 C1 1_555 1_555
Cl1 C6 1_555 1_555
Cl2 C2 1_555 1_555
O1 C13 1_555 1_555
O2 N2 1_555 1_555
O3 N2 1_555 1_555
O4 N3 1_555 1_555
O5 N3 1_555 1_555
N1 H1 1_555 1_555
N2 C16 1_555 1_555
N3 C18 1_555 1_555
C1 C2 1_555 1_555
C2 C3 1_555 1_555
C3 H2 1_555 1_555
C4 C3 1_555 1_555
H3 C4 1_555 1_555
C5 C4 1_555 1_555
H4 C5 1_555 1_555
C6 C1 1_555 1_555
C7 S1 1_555 1_555
H5 C7 1_555 1_555
C8 C7 1_555 1_555
H6 C8 1_555 1_555
H7 C8 1_555 1_555
C9 C8 1_555 1_555
H8 C9 1_555 1_555
H9 C9 1_555 1_555
C10 C9 1_555 1_555
H10 C10 1_555 1_555
H11 C10 1_555 1_555
C11 C10 1_555 1_555
H12 C11 1_555 1_555
H13 C11 1_555 1_555
C12 N1 1_555 1_555
H14 C12 1_555 1_555
C13 N1 1_555 1_555
C14 C13 1_555 1_555
C15 C14 1_555 1_555
H15 C15 1_555 1_555
C16 C15 1_555 1_555
C17 C16 1_555 1_555
H16 C17 1_555 1_555
C18 C17 1_555 1_555
C19 C14 1_555 1_555
H17 C19 1_555 1_555
C5 C6 1_555 1_555
C7 C12 1_555 1_555
C11 C12 1_555 1_555
C18 C19 1_555 1_555

#END
