
#######################################################################
#
#                 Cambridge Crystallographic Data Centre
#                                CCDC 
#
#######################################################################
#
# If this CIF has been generated from an entry in the Cambridge 
# Structural Database, then it will include bibliographic, chemical, 
# crystal, experimental, refinement or atomic coordinate data resulting 
# from the CCDC's data processing and validation procedures.
#
#######################################################################

data_UNAKUQ
_chemical_formula_moiety         'C17 H20 N2 O2'
_chemical_name_systematic        
'Methyl 6-(2-methylprop-1-en-1-yl)-3,4,5,6-tetrahydro-1H-azepino[5,4,3-cd]indole-4-carboxylate'
_symmetry_cell_setting           orthorhombic
_symmetry_space_group_name_H-M   'P 21 21 2'
_symmetry_Int_Tables_number      18
_space_group_name_Hall           'P 2 2ab'
loop_
_symmetry_equiv_pos_site_id
_symmetry_equiv_pos_as_xyz
1 x,y,z
2 -x,-y,z
3 1/2-x,1/2+y,-z
4 1/2+x,1/2-y,-z
_cell_length_a                   9.829(3)
_cell_length_b                   15.776(3)
_cell_length_c                   10.514(2)
_cell_angle_alpha                90
_cell_angle_beta                 90
_cell_angle_gamma                90
_cell_volume                     1630.33
_exptl_crystal_colour            yellow
_exptl_crystal_description       prism
_cell_formula_units_Z            4
loop_
_atom_site_label
_atom_site_type_symbol
_atom_site_fract_x
_atom_site_fract_y
_atom_site_fract_z
O1 O 0.3446(2) 0.42195(12) 0.7912(3)
O2 O 0.1360(2) 0.45068(14) 0.7266(3)
N1 N 0.1621(2) 0.62078(14) 0.7678(2)
H1 H 0.1160 0.5841 0.7184
N2 N 0.4859(3) 0.77889(15) 1.0417(2)
H2 H 0.5379 0.8067 1.0925
C1 C 0.2785(3) 0.56586(16) 0.7943(3)
H3 H 0.3530 0.5820 0.7374
C2 C 0.3254(3) 0.57968(17) 0.9322(3)
H4 H 0.2502 0.5686 0.9896
H5 H 0.3978 0.5401 0.9521
C3 C 0.3757(3) 0.66928(17) 0.9518(3)
C4 C 0.3408(3) 0.74505(17) 0.8821(3)
C5 C 0.2627(3) 0.76498(16) 0.7739(3)
C6 C 0.1940(3) 0.69799(17) 0.6926(3)
H6 H 0.1069 0.7219 0.6648
C7 C 0.2775(3) 0.68152(18) 0.5727(3)
H7 H 0.3683 0.6981 0.5751
C8 C 0.2352(4) 0.6465(2) 0.4665(3)
C9 C 0.3323(4) 0.6300(2) 0.3562(3)
H8 H 0.4154 0.6607 0.3698
H9 H 0.2910 0.6484 0.2782
H10 H 0.3518 0.5704 0.3513
C10 C 0.0896(4) 0.6182(3) 0.4450(4)
H11 H 0.0330 0.6397 0.5121
H12 H 0.0857 0.5573 0.4446
H13 H 0.0580 0.6395 0.3648
C11 C 0.2556(3) 0.84868(18) 0.7369(3)
H14 H 0.2055 0.8624 0.6648
C12 C 0.3207(4) 0.9136(2) 0.8035(3)
H15 H 0.3104 0.9694 0.7767
C13 C 0.3989(4) 0.89650(18) 0.9073(3)
H16 H 0.4425 0.9398 0.9515
C14 C 0.4119(3) 0.81292(17) 0.9451(3)
C15 C 0.4643(3) 0.69314(19) 1.0450(3)
H17 H 0.5046 0.6563 1.1029
C16 C 0.2421(3) 0.47459(17) 0.7683(3)
C17 C 0.3210(3) 0.33248(18) 0.7654(4)
H18 H 0.4052 0.3020 0.7722
H19 H 0.2850 0.3260 0.6810
H20 H 0.2571 0.3104 0.8259
loop_
_geom_bond_atom_site_label_1
_geom_bond_atom_site_label_2
_geom_bond_site_symmetry_1
_geom_bond_site_symmetry_2
O1 C16 1_555 1_555
O2 C16 1_555 1_555
N1 H1 1_555 1_555
N2 H2 1_555 1_555
C1 N1 1_555 1_555
H3 C1 1_555 1_555
C2 C1 1_555 1_555
H4 C2 1_555 1_555
H5 C2 1_555 1_555
C3 C2 1_555 1_555
C4 C3 1_555 1_555
C5 C4 1_555 1_555
C6 N1 1_555 1_555
H6 C6 1_555 1_555
C7 C6 1_555 1_555
H7 C7 1_555 1_555
C8 C7 1_555 1_555
C9 C8 1_555 1_555
H8 C9 1_555 1_555
H9 C9 1_555 1_555
H10 C9 1_555 1_555
C10 C8 1_555 1_555
H11 C10 1_555 1_555
H12 C10 1_555 1_555
H13 C10 1_555 1_555
C11 C5 1_555 1_555
H14 C11 1_555 1_555
C12 C11 1_555 1_555
H15 C12 1_555 1_555
C13 C12 1_555 1_555
H16 C13 1_555 1_555
C14 N2 1_555 1_555
C15 N2 1_555 1_555
H17 C15 1_555 1_555
C16 C1 1_555 1_555
C17 O1 1_555 1_555
H18 C17 1_555 1_555
H19 C17 1_555 1_555
H20 C17 1_555 1_555
C3 C15 1_555 1_555
C4 C14 1_555 1_555
C5 C6 1_555 1_555
C13 C14 1_555 1_555

#END
