
#######################################################################
#
#                 Cambridge Crystallographic Data Centre
#                                CCDC 
#
#######################################################################
#
# If this CIF has been generated from an entry in the Cambridge 
# Structural Database, then it will include bibliographic, chemical, 
# crystal, experimental, refinement or atomic coordinate data resulting 
# from the CCDC's data processing and validation procedures.
#
#######################################################################

data_UNANED01
_chemical_formula_moiety         'C38 H54 N2 O4'
_chemical_name_systematic        
2,7-Didodecylbenzo[lmn][3,8]phenanthroline-1,3,6,8(2H,7H)-tetrone
_symmetry_cell_setting           triclinic
_symmetry_space_group_name_H-M   'P -1'
_symmetry_Int_Tables_number      2
_space_group_name_Hall           '-P 1'
loop_
_symmetry_equiv_pos_site_id
_symmetry_equiv_pos_as_xyz
1 x,y,z
2 -x,-y,-z
_cell_length_a                   4.6352(2)
_cell_length_b                   6.6073(2)
_cell_length_c                   27.9285(9)
_cell_angle_alpha                92.995(2)
_cell_angle_beta                 94.603(2)
_cell_angle_gamma                104.495(2)
_cell_volume                     823.124
_exptl_crystal_colour            yellow
_exptl_crystal_description       plate
_cell_formula_units_Z            1
loop_
_atom_site_label
_atom_site_type_symbol
_atom_site_fract_x
_atom_site_fract_y
_atom_site_fract_z
O1 O 0.9639(3) 0.12340(18) 0.57406(4)
O2 O 0.5711(3) 0.60182(18) 0.65035(4)
N1 N 0.7705(3) 0.3647(2) 0.61243(5)
C1 C 0.4989(4) 0.4243(2) 0.43482(6)
C2 C 0.6522(4) 0.2705(2) 0.43718(6)
H1 H 0.6870 0.2013 0.4083
C3 C 0.7571(4) 0.2156(2) 0.48194(6)
H2 H 0.8624 0.1095 0.4832
C4 C 0.7091(4) 0.3140(2) 0.52405(6)
C5 C 0.5524(3) 0.4719(2) 0.52249(5)
C6 C 0.8246(4) 0.2571(2) 0.57121(6)
C7 C 0.6122(4) 0.5191(2) 0.61256(6)
C8 C 0.8859(4) 0.3098(3) 0.65966(6)
H3 H 0.9656 0.4398 0.6810
H4 H 1.0535 0.2451 0.6550
C9 C 0.6482(4) 0.1593(3) 0.68429(6)
H5 H 0.5162 0.0567 0.6598
H6 H 0.5235 0.2389 0.7003
C10 C 0.7891(4) 0.0428(3) 0.72147(6)
H7 H 0.9138 -0.0361 0.7052
H8 H 0.9224 0.1463 0.7457
C11 C 0.5586(4) -0.1090(3) 0.74713(6)
H9 H 0.4607 -0.0278 0.7685
H10 H 0.4024 -0.1947 0.7229
C12 C 0.6951(4) -0.2537(3) 0.77693(6)
H11 H 0.8480 -0.1676 0.8016
H12 H 0.7980 -0.3314 0.7557
C13 C 0.4681(4) -0.4108(3) 0.80195(6)
H13 H 0.3128 -0.4953 0.7774
H14 H 0.3684 -0.3333 0.8238
C14 C 0.6075(4) -0.5579(3) 0.83086(6)
H15 H 0.7012 -0.6386 0.8087
H16 H 0.7681 -0.4728 0.8545
C15 C 0.3857(4) -0.7109(3) 0.85752(6)
H17 H 0.2242 -0.7953 0.8339
H18 H 0.2934 -0.6304 0.8799
C16 C 0.5262(4) -0.8585(3) 0.88592(6)
H19 H 0.6163 -0.9402 0.8634
H20 H 0.6895 -0.7740 0.9093
C17 C 0.3052(4) -1.0100(3) 0.91313(6)
H21 H 0.1356 -1.0884 0.8901
H22 H 0.2245 -0.9284 0.9370
C18 C 0.4421(4) -1.1659(3) 0.93906(7)
H23 H 0.6086 -1.0880 0.9627
H24 H 0.5265 -1.2458 0.9153
C19 C 0.2165(5) -1.3194(3) 0.96523(7)
H25 H 0.3152 -1.4171 0.9808
H26 H 0.0515 -1.3979 0.9420
H27 H 0.1377 -1.2417 0.9897
O1A O 0.0361(3) 0.87660(18) 0.42594(4)
O2A O 0.4289(3) 0.39818(18) 0.34965(4)
N1A N 0.2295(3) 0.6353(2) 0.38757(5)
C1A C 0.5011(4) 0.5757(2) 0.56518(6)
C2A C 0.3478(4) 0.7295(2) 0.56282(6)
H1A H 0.3130 0.7987 0.5917
C3A C 0.2429(4) 0.7844(2) 0.51806(6)
H2A H 0.1376 0.8905 0.5168
C4A C 0.2909(4) 0.6860(2) 0.47595(6)
C5A C 0.4476(3) 0.5281(2) 0.47751(5)
C6A C 0.1754(4) 0.7429(2) 0.42879(6)
C7A C 0.3878(4) 0.4809(2) 0.38744(6)
C8A C 0.1141(4) 0.6902(3) 0.34034(6)
H3A H 0.0344 0.5602 0.3190
H4A H -0.0535 0.7549 0.3450
C9A C 0.3518(4) 0.8407(3) 0.31571(6)
H5A H 0.4838 0.9433 0.3402
H6A H 0.4765 0.7611 0.2997
C10A C 0.2109(4) 0.9572(3) 0.27853(6)
H7A H 0.0862 1.0361 0.2948
H8A H 0.0776 0.8537 0.2543
C11A C 0.4414(4) 1.1090(3) 0.25287(6)
H9A H 0.5393 1.0278 0.2315
H10A H 0.5976 1.1947 0.2771
C12A C 0.3049(4) 1.2537(3) 0.22307(6)
H11A H 0.1520 1.1676 0.1984
H12A H 0.2020 1.3314 0.2443
C13A C 0.5319(4) 1.4108(3) 0.19805(6)
H13A H 0.6872 1.4953 0.2226
H14A H 0.6316 1.3333 0.1762
C14A C 0.3925(4) 1.5579(3) 0.16914(6)
H15A H 0.2988 1.6386 0.1913
H16A H 0.2319 1.4728 0.1455
C15A C 0.6143(4) 1.7109(3) 0.14248(6)
H17A H 0.7758 1.7953 0.1661
H18A H 0.7066 1.6304 0.1201
C16A C 0.4738(4) 1.8585(3) 0.11408(6)
H19A H 0.3837 1.9402 0.1366
H20A H 0.3105 1.7740 0.0907
C17A C 0.6948(4) 2.0100(3) 0.08687(6)
H21A H 0.8644 2.0884 0.1099
H22A H 0.7755 1.9284 0.0630
C18A C 0.5579(4) 2.1659(3) 0.06094(7)
H23A H 0.3914 2.0880 0.0373
H24A H 0.4735 2.2458 0.0847
C19A C 0.7835(5) 2.3194(3) 0.03477(7)
H25A H 0.6848 2.4171 0.0192
H26A H 0.9485 2.3979 0.0580
H27A H 0.8623 2.2417 0.0103
loop_
_geom_bond_atom_site_label_1
_geom_bond_atom_site_label_2
_geom_bond_site_symmetry_1
_geom_bond_site_symmetry_2
O1 C6 1_555 1_555
O2 C7 1_555 1_555
N1 C6 1_555 1_555
C1 C2 1_555 1_555
C2 H1 1_555 1_555
C3 C2 1_555 1_555
H2 C3 1_555 1_555
C4 C3 1_555 1_555
C5 C4 1_555 1_555
C6 C4 1_555 1_555
C7 N1 1_555 1_555
C8 N1 1_555 1_555
H3 C8 1_555 1_555
H4 C8 1_555 1_555
C9 C8 1_555 1_555
H5 C9 1_555 1_555
H6 C9 1_555 1_555
C10 C9 1_555 1_555
H7 C10 1_555 1_555
H8 C10 1_555 1_555
C11 C10 1_555 1_555
H9 C11 1_555 1_555
H10 C11 1_555 1_555
C12 C11 1_555 1_555
H11 C12 1_555 1_555
H12 C12 1_555 1_555
C13 C12 1_555 1_555
H13 C13 1_555 1_555
H14 C13 1_555 1_555
C14 C13 1_555 1_555
H15 C14 1_555 1_555
H16 C14 1_555 1_555
C15 C14 1_555 1_555
H17 C15 1_555 1_555
H18 C15 1_555 1_555
C16 C15 1_555 1_555
H19 C16 1_555 1_555
H20 C16 1_555 1_555
C17 C16 1_555 1_555
H21 C17 1_555 1_555
H22 C17 1_555 1_555
C18 C17 1_555 1_555
H23 C18 1_555 1_555
H24 C18 1_555 1_555
C19 C18 1_555 1_555
H25 C19 1_555 1_555
H26 C19 1_555 1_555
H27 C19 1_555 1_555
O1A C6A 1_555 1_555
O2A C7A 1_555 1_555
N1A C6A 1_555 1_555
C1A C5 1_555 1_555
C2A C1A 1_555 1_555
H1A C2A 1_555 1_555
C3A C2A 1_555 1_555
H2A C3A 1_555 1_555
C4A C3A 1_555 1_555
C5A C1 1_555 1_555
C6A C4A 1_555 1_555
C7A C1 1_555 1_555
C8A N1A 1_555 1_555
H3A C8A 1_555 1_555
H4A C8A 1_555 1_555
C9A C8A 1_555 1_555
H5A C9A 1_555 1_555
H6A C9A 1_555 1_555
C10A C9A 1_555 1_555
H7A C10A 1_555 1_555
H8A C10A 1_555 1_555
C11A C10A 1_555 1_555
H9A C11A 1_555 1_555
H10A C11A 1_555 1_555
C12A C11A 1_555 1_555
H11A C12A 1_555 1_555
H12A C12A 1_555 1_555
C13A C12A 1_555 1_555
H13A C13A 1_555 1_555
H14A C13A 1_555 1_555
C14A C13A 1_555 1_555
H15A C14A 1_555 1_555
H16A C14A 1_555 1_555
C15A C14A 1_555 1_555
H17A C15A 1_555 1_555
H18A C15A 1_555 1_555
C16A C15A 1_555 1_555
H19A C16A 1_555 1_555
H20A C16A 1_555 1_555
C17A C16A 1_555 1_555
H21A C17A 1_555 1_555
H22A C17A 1_555 1_555
C18A C17A 1_555 1_555
H23A C18A 1_555 1_555
H24A C18A 1_555 1_555
C19A C18A 1_555 1_555
H25A C19A 1_555 1_555
H26A C19A 1_555 1_555
H27A C19A 1_555 1_555
C5 C5A 1_555 1_555
C7 C1A 1_555 1_555
N1A C7A 1_555 1_555
C4A C5A 1_555 1_555

#END
