
#######################################################################
#
#                 Cambridge Crystallographic Data Centre
#                                CCDC 
#
#######################################################################
#
# If this CIF has been generated from an entry in the Cambridge 
# Structural Database, then it will include bibliographic, chemical, 
# crystal, experimental, refinement or atomic coordinate data resulting 
# from the CCDC's data processing and validation procedures.
#
#######################################################################

data_UNASIM
_chemical_formula_moiety         'C40 H28'
_chemical_name_systematic        9-(4-(Triphenylvinyl)phenyl)anthracene
_symmetry_cell_setting           triclinic
_symmetry_space_group_name_H-M   'P -1'
_symmetry_Int_Tables_number      2
_space_group_name_Hall           '-P 1'
loop_
_symmetry_equiv_pos_site_id
_symmetry_equiv_pos_as_xyz
1 x,y,z
2 -x,-y,-z
_cell_length_a                   9.4850(8)
_cell_length_b                   9.6830(9)
_cell_length_c                   15.5796(14)
_cell_angle_alpha                79.592(8)
_cell_angle_beta                 83.901(7)
_cell_angle_gamma                85.662(7)
_cell_volume                     1397.04
_exptl_crystal_colour            colorless
_exptl_crystal_description       plate
_cell_formula_units_Z            2
loop_
_atom_site_label
_atom_site_type_symbol
_atom_site_fract_x
_atom_site_fract_y
_atom_site_fract_z
C1 C 0.25479(13) 0.45215(14) 0.34225(8)
C2 C 0.13697(14) 0.42741(16) 0.40269(9)
H1 H 0.0444 0.4446 0.3835
C3 C 0.15249(14) 0.37790(16) 0.49060(9)
H2 H 0.0704 0.3597 0.5306
C4 C 0.28605(13) 0.35453(14) 0.52121(8)
C5 C 0.40426(13) 0.37481(15) 0.46011(9)
H3 H 0.4968 0.3569 0.4792
C6 C 0.38883(13) 0.42079(15) 0.37182(9)
H4 H 0.4708 0.4310 0.3310
C7 C 0.23867(13) 0.50954(15) 0.24765(9)
C8 C 0.27495(14) 0.40596(15) 0.18778(9)
C9 C 0.38193(17) 0.42747(17) 0.11972(10)
H5 H 0.4311 0.5117 0.1090
C10 C 0.4174(2) 0.3259(2) 0.06700(11)
H6 H 0.4912 0.3412 0.0207
C11 C 0.3470(2) 0.20365(18) 0.08117(11)
H7 H 0.3706 0.1358 0.0441
C12 C 0.24194(18) 0.18015(18) 0.14961(11)
H8 H 0.1933 0.0956 0.1601
C13 C 0.20756(15) 0.27951(16) 0.20273(10)
H9 H 0.1365 0.2615 0.2505
C14 C 0.19449(13) 0.64515(15) 0.22071(9)
C15 C 0.16511(14) 0.70245(15) 0.12794(9)
C16 C 0.22619(17) 0.82559(16) 0.08416(10)
H10 H 0.2921 0.8683 0.1115
C17 C 0.1910(2) 0.88603(18) 0.00057(10)
H11 H 0.2337 0.9693 -0.0290
C18 C 0.0947(2) 0.82599(19) -0.03957(11)
H12 H 0.0696 0.8688 -0.0961
C19 C 0.03490(19) 0.70330(19) 0.00263(11)
H13 H -0.0303 0.6605 -0.0252
C20 C 0.07031(16) 0.64263(17) 0.08583(10)
H14 H 0.0286 0.5583 0.1145
C21 C 0.16728(14) 0.74941(14) 0.28134(9)
C22 C 0.26769(16) 0.77427(17) 0.33514(10)
H15 H 0.3562 0.7214 0.3350
C23 C 0.24070(19) 0.8745(2) 0.38864(12)
H16 H 0.3103 0.8896 0.4250
C24 C 0.11283(19) 0.95281(19) 0.38928(12)
H17 H 0.0944 1.0220 0.4258
C25 C 0.01228(17) 0.93005(18) 0.33682(11)
H18 H -0.0762 0.9830 0.3378
C26 C 0.03891(15) 0.83038(16) 0.28246(10)
H19 H -0.0308 0.8170 0.2457
C27 C 0.30307(12) 0.31419(15) 0.61676(8)
C28 C 0.27488(13) 0.41579(16) 0.67153(9)
C29 C 0.23167(13) 0.55867(16) 0.63886(11)
H20 H 0.2206 0.5871 0.5782
C30 C 0.20611(15) 0.65460(19) 0.69355(12)
H21 H 0.1764 0.7487 0.6706
C31 C 0.22322(18) 0.6161(2) 0.78394(13)
H22 H 0.2049 0.6844 0.8211
C32 C 0.26551(17) 0.4829(2) 0.81777(12)
H23 H 0.2772 0.4588 0.8786
C33 C 0.29300(14) 0.37738(18) 0.76373(9)
C34 C 0.33853(15) 0.23988(19) 0.79692(10)
H24 H 0.3503 0.2147 0.8577
C35 C 0.36719(14) 0.13872(17) 0.74393(9)
C36 C 0.41665(16) -0.00222(19) 0.77729(11)
H25 H 0.4294 -0.0279 0.8379
C37 C 0.44547(17) -0.09910(19) 0.72496(11)
H26 H 0.4804 -0.1912 0.7485
C38 C 0.42391(15) -0.06437(17) 0.63484(11)
H27 H 0.4427 -0.1340 0.5986
C39 C 0.37644(14) 0.06814(15) 0.59950(10)
H28 H 0.3615 0.0894 0.5391
C40 C 0.34890(13) 0.17518(15) 0.65207(9)
loop_
_geom_bond_atom_site_label_1
_geom_bond_atom_site_label_2
_geom_bond_site_symmetry_1
_geom_bond_site_symmetry_2
C1 C2 1_555 1_555
C2 H1 1_555 1_555
C3 C2 1_555 1_555
H2 C3 1_555 1_555
C4 C3 1_555 1_555
C5 C4 1_555 1_555
H3 C5 1_555 1_555
C6 C1 1_555 1_555
H4 C6 1_555 1_555
C7 C1 1_555 1_555
C8 C7 1_555 1_555
C9 C8 1_555 1_555
H5 C9 1_555 1_555
C10 C9 1_555 1_555
H6 C10 1_555 1_555
C11 C10 1_555 1_555
H7 C11 1_555 1_555
C12 C11 1_555 1_555
H8 C12 1_555 1_555
C13 C8 1_555 1_555
H9 C13 1_555 1_555
C14 C7 1_555 1_555
C15 C14 1_555 1_555
C16 C15 1_555 1_555
H10 C16 1_555 1_555
C17 C16 1_555 1_555
H11 C17 1_555 1_555
C18 C17 1_555 1_555
H12 C18 1_555 1_555
C19 C18 1_555 1_555
H13 C19 1_555 1_555
C20 C15 1_555 1_555
H14 C20 1_555 1_555
C21 C14 1_555 1_555
C22 C21 1_555 1_555
H15 C22 1_555 1_555
C23 C22 1_555 1_555
H16 C23 1_555 1_555
C24 C23 1_555 1_555
H17 C24 1_555 1_555
C25 C24 1_555 1_555
H18 C25 1_555 1_555
C26 C21 1_555 1_555
H19 C26 1_555 1_555
C27 C4 1_555 1_555
C28 C27 1_555 1_555
C29 C28 1_555 1_555
H20 C29 1_555 1_555
C30 C29 1_555 1_555
H21 C30 1_555 1_555
C31 C30 1_555 1_555
H22 C31 1_555 1_555
C32 C31 1_555 1_555
H23 C32 1_555 1_555
C33 C28 1_555 1_555
C34 C33 1_555 1_555
H24 C34 1_555 1_555
C35 C34 1_555 1_555
C36 C35 1_555 1_555
H25 C36 1_555 1_555
C37 C36 1_555 1_555
H26 C37 1_555 1_555
C38 C37 1_555 1_555
H27 C38 1_555 1_555
C39 C38 1_555 1_555
H28 C39 1_555 1_555
C40 C27 1_555 1_555
C5 C6 1_555 1_555
C12 C13 1_555 1_555
C19 C20 1_555 1_555
C25 C26 1_555 1_555
C32 C33 1_555 1_555
C35 C40 1_555 1_555
C39 C40 1_555 1_555

#END
