
#######################################################################
#
#                 Cambridge Crystallographic Data Centre
#                                CCDC 
#
#######################################################################
#
# If this CIF has been generated from an entry in the Cambridge 
# Structural Database, then it will include bibliographic, chemical, 
# crystal, experimental, refinement or atomic coordinate data resulting 
# from the CCDC's data processing and validation procedures.
#
#######################################################################

data_UNDEAC11
_chemical_formula_moiety         'C11 H20 O4'
_chemical_name_systematic        'undecanedioic acid'
_symmetry_cell_setting           monoclinic
_symmetry_space_group_name_H-M   'C 2/c'
_symmetry_Int_Tables_number      15
_space_group_name_Hall           '-C 2yn'
loop_
_symmetry_equiv_pos_site_id
_symmetry_equiv_pos_as_xyz
1 x,y,z
2 -x,y,1/2-z
3 1/2+x,1/2+y,z
4 1/2-x,1/2+y,1/2-z
5 -x,-y,-z
6 x,-y,1/2+z
7 1/2-x,1/2-y,-z
8 1/2+x,1/2-y,1/2+z
_cell_length_a                   26.597(7)
_cell_length_b                   4.7030(11)
_cell_length_c                   9.604(3)
_cell_angle_alpha                90
_cell_angle_beta                 107.899(4)
_cell_angle_gamma                90
_cell_volume                     1143.18
_exptl_crystal_colour            colorless
_exptl_crystal_description       Prism
_cell_formula_units_Z            4
loop_
_atom_site_label
_atom_site_type_symbol
_atom_site_fract_x
_atom_site_fract_y
_atom_site_fract_z
O1 O 0.19247(2) 0.17137(14) 0.87525(7)
O2 O 0.24438(3) 0.54722(15) 0.87758(7)
H1 H 0.2625 0.4743 0.9570
C1 C 0.20157(3) 0.39240(19) 0.82048(9)
C2 C 0.16438(4) 0.5234(2) 0.68581(10)
H2 H 0.1854 0.6024 0.6259
H3 H 0.1461 0.6842 0.7159
C3 C 0.12285(3) 0.3241(2) 0.59025(10)
H4 H 0.1050 0.2216 0.6517
H5 H 0.1402 0.1816 0.5445
C4 C 0.08195(3) 0.4894(2) 0.47090(10)
H6 H 0.0633 0.6224 0.5179
H7 H 0.1006 0.6044 0.4158
C5 C 0.04119(4) 0.3029(2) 0.36325(10)
H8 H 0.0232 0.1826 0.4179
H9 H 0.0595 0.1756 0.3123
C6 C 0.0000 0.4786(3) 0.2500
H10 H -0.0184 0.6030 0.3018
H10A H 0.0184 0.6030 0.1982
O1A O -0.19247(2) 0.17137(14) -0.37525(7)
O2A O -0.24438(3) 0.54722(15) -0.37758(7)
H1A H -0.2625 0.4743 -0.4570
C1A C -0.20157(3) 0.39240(19) -0.32048(9)
C2A C -0.16438(4) 0.5234(2) -0.18581(10)
H2A H -0.1854 0.6024 -0.1259
H3A H -0.1461 0.6842 -0.2159
C3A C -0.12285(3) 0.3241(2) -0.09025(10)
H4A H -0.1050 0.2216 -0.1517
H5A H -0.1402 0.1816 -0.0445
C4A C -0.08195(3) 0.4894(2) 0.02910(10)
H6A H -0.0633 0.6224 -0.0179
H7A H -0.1006 0.6044 0.0842
C5A C -0.04119(4) 0.3029(2) 0.13675(10)
H8A H -0.0232 0.1826 0.0821
H9A H -0.0595 0.1756 0.1877
H11? H -0.0184 0.6030 0.3018
loop_
_geom_bond_atom_site_label_1
_geom_bond_atom_site_label_2
_geom_bond_site_symmetry_1
_geom_bond_site_symmetry_2
O1 C1 1_555 1_555
O2 H1 1_555 1_555
C1 O2 1_555 1_555
C2 C1 1_555 1_555
H2 C2 1_555 1_555
H3 C2 1_555 1_555
C3 C2 1_555 1_555
H4 C3 1_555 1_555
H5 C3 1_555 1_555
C4 C3 1_555 1_555
H6 C4 1_555 1_555
H7 C4 1_555 1_555
C5 C4 1_555 1_555
H8 C5 1_555 1_555
H9 C5 1_555 1_555
C6 C5 1_555 1_555
H10 C6 1_555 1_555
H10A C6 1_555 1_555
O1A C1A 1_555 1_555
O2A H1A 1_555 1_555
C1A O2A 1_555 1_555
C2A C1A 1_555 1_555
H2A C2A 1_555 1_555
H3A C2A 1_555 1_555
C3A C2A 1_555 1_555
H4A C3A 1_555 1_555
H5A C3A 1_555 1_555
C4A C3A 1_555 1_555
H6A C4A 1_555 1_555
H7A C4A 1_555 1_555
C5A C6 1_555 1_555
H8A C5A 1_555 1_555
H9A C5A 1_555 1_555
C4A C5A 1_555 1_555

#END
