
#######################################################################
#
#                 Cambridge Crystallographic Data Centre
#                                CCDC 
#
#######################################################################
#
# If this CIF has been generated from an entry in the Cambridge 
# Structural Database, then it will include bibliographic, chemical, 
# crystal, experimental, refinement or atomic coordinate data resulting 
# from the CCDC's data processing and validation procedures.
#
#######################################################################

data_UNEBOF
_chemical_formula_moiety         'C21 H16 N3'
_chemical_name_systematic        
1-Phenyl-3-(3-vinylphenyl)-1,2,4-benzotriazin-4-yl
_symmetry_cell_setting           monoclinic
_symmetry_space_group_name_H-M   'I 2/a'
_symmetry_Int_Tables_number      15
_space_group_name_Hall           '-I 2ya'
loop_
_symmetry_equiv_pos_site_id
_symmetry_equiv_pos_as_xyz
1 x,y,z
2 1/2-x,y,-z
3 1/2+x,1/2+y,1/2+z
4 -x,1/2+y,1/2-z
5 -x,-y,-z
6 1/2+x,-y,z
7 1/2-x,1/2-y,1/2-z
8 x,1/2-y,1/2+z
_cell_length_a                   26.247(6)
_cell_length_b                   4.9783(11)
_cell_length_c                   26.853(6)
_cell_angle_alpha                90
_cell_angle_beta                 113.635(4)
_cell_angle_gamma                90
_cell_volume                     3214.44
_exptl_crystal_colour            black
_exptl_crystal_description       plate
_chemical_melting_point          85-86deg.C
_cell_formula_units_Z            8
_exptl_crystal_recrystallization_method dichloromethane/methanol
loop_
_atom_site_label
_atom_site_type_symbol
_atom_site_fract_x
_atom_site_fract_y
_atom_site_fract_z
N1 N 0.30821(7) 0.3413(4) 0.14735(7)
N2 N 0.31184(7) 0.1519(4) 0.18526(7)
N3 N 0.40849(7) 0.2564(4) 0.23316(7)
C1 C 0.36189(9) 0.1208(4) 0.22568(8)
C2 C 0.40437(9) 0.4433(4) 0.19449(9)
C3 C 0.45130(10) 0.5939(5) 0.19906(10)
H1 H 0.4857 0.5640 0.2290
C4 C 0.44822(10) 0.7833(5) 0.16096(10)
H2 H 0.4803 0.8844 0.1649
C5 C 0.39806(10) 0.8289(5) 0.11626(10)
H3 H 0.3964 0.9589 0.0897
C6 C 0.35097(10) 0.6854(5) 0.11057(10)
H4 H 0.3169 0.7173 0.0803
C7 C 0.35373(9) 0.4936(4) 0.14941(9)
C8 C 0.2559(4) 0.347(4) 0.0995(4)
C9 C 0.2108(2) 0.4377(10) 0.1102(2)
H5 H 0.2153 0.4824 0.1461
C10 C 0.1590(2) 0.4602(13) 0.0667(3)
H6 H 0.1278 0.5226 0.0729
C11 C 0.1528(6) 0.391(2) 0.0142(5)
H7 H 0.1173 0.3981 -0.0151
C12 C 0.1988(2) 0.3138(10) 0.0054(2)
H8 H 0.1948 0.2720 -0.0305
C13 C 0.25068(19) 0.2953(9) 0.04773(18)
H9 H 0.2823 0.2470 0.0409
C20 C 0.36492(9) -0.0853(5) 0.26678(9)
C21 C 0.41301(11) -0.1098(5) 0.31426(10)
H15 H 0.4434 0.0077 0.3199
C22 C 0.41778(12) -0.3008(6) 0.35345(10)
C23 C 0.37293(14) -0.4709(6) 0.34450(11)
H16 H 0.3755 -0.6045 0.3707
C24 C 0.32453(12) -0.4480(5) 0.29788(11)
H17 H 0.2939 -0.5634 0.2925
C25 C 0.32070(10) -0.2571(5) 0.25906(10)
H18 H 0.2876 -0.2435 0.2269
C26 C 0.46994(19) -0.3209(7) 0.40370(13)
H19 H 0.4939 -0.1722 0.4075
C27 C 0.4891(3) -0.4747(15) 0.4400(2)
H21 H 0.5243(4) -0.449(8) 0.4691(9)
H22 H 0.4677(14) -0.630(4) 0.4393(17)
C14? C 0.2508(4) 0.389(4) 0.1099(5)
C15? C 0.2261(2) 0.6274(11) 0.0996(2)
H10? H 0.2447 0.7800 0.1200
C16? C 0.1731(2) 0.6543(13) 0.0592(2)
H11? H 0.1560 0.8263 0.0522
C17? C 0.1456(6) 0.445(3) 0.0300(5)
H12? H 0.1100 0.4695 0.0015
C18? C 0.1694(2) 0.1860(11) 0.0412(2)
H13? H 0.1492 0.0347 0.0216
C19? C 0.2226(2) 0.1546(10) 0.08142(19)
H14? H 0.2398 -0.0172 0.0897
H20? H 0.4764 -0.4981 0.4180
C28? C 0.5048(3) -0.171(2) 0.4297(4)
H23? H 0.5365(10) -0.214(12) 0.4617(6)
H24? H 0.499(2) 0.007(5) 0.416(2)
loop_
_geom_bond_atom_site_label_1
_geom_bond_atom_site_label_2
_geom_bond_site_symmetry_1
_geom_bond_site_symmetry_2
N1 N2 1_555 1_555
N2 C1 1_555 1_555
N3 C1 1_555 1_555
C1 C20 1_555 1_555
C2 N3 1_555 1_555
C3 C2 1_555 1_555
H1 C3 1_555 1_555
C4 C3 1_555 1_555
H2 C4 1_555 1_555
C5 C4 1_555 1_555
H3 C5 1_555 1_555
C6 C5 1_555 1_555
H4 C6 1_555 1_555
C7 N1 1_555 1_555
C8 N1 1_555 1_555
C9 C8 1_555 1_555
H5 C9 1_555 1_555
C10 C9 1_555 1_555
H6 C10 1_555 1_555
C11 C10 1_555 1_555
H7 C11 1_555 1_555
C12 C11 1_555 1_555
H8 C12 1_555 1_555
C13 C8 1_555 1_555
H9 C13 1_555 1_555
C20 C21 1_555 1_555
C21 H15 1_555 1_555
C22 C21 1_555 1_555
C23 C22 1_555 1_555
H16 C23 1_555 1_555
C24 C23 1_555 1_555
H17 C24 1_555 1_555
C25 C20 1_555 1_555
H18 C25 1_555 1_555
C26 C22 1_555 1_555
H19 C26 1_555 1_555
C27 C26 1_555 1_555
H21 C27 1_555 1_555
H22 C27 1_555 1_555
C2 C7 1_555 1_555
C6 C7 1_555 1_555
C12 C13 1_555 1_555
C24 C25 1_555 1_555

#END
