
#######################################################################
#
#                 Cambridge Crystallographic Data Centre
#                                CCDC 
#
#######################################################################
#
# If this CIF has been generated from an entry in the Cambridge 
# Structural Database, then it will include bibliographic, chemical, 
# crystal, experimental, refinement or atomic coordinate data resulting 
# from the CCDC's data processing and validation procedures.
#
#######################################################################

data_UNEDEX
_chemical_formula_moiety         'C25 H22 N2 O3 S1'
_chemical_name_systematic        
N-(1-(1,2-Dimethyl-1H-indol-3-yl)-2-oxo-2-phenylethylidene)-4-methylbenzenesulfonamide
_symmetry_cell_setting           monoclinic
_symmetry_space_group_name_H-M   'P 21/c'
_symmetry_Int_Tables_number      14
_space_group_name_Hall           '-P 2ybc'
loop_
_symmetry_equiv_pos_site_id
_symmetry_equiv_pos_as_xyz
1 x,y,z
2 -x,1/2+y,1/2-z
3 -x,-y,-z
4 x,1/2-y,1/2+z
_cell_length_a                   7.3334(3)
_cell_length_b                   17.1511(6)
_cell_length_c                   17.5542(7)
_cell_angle_alpha                90
_cell_angle_beta                 101.515(4)
_cell_angle_gamma                90
_cell_volume                     2163.46
_exptl_crystal_colour            yellow
_exptl_crystal_description       needle
_chemical_melting_point          225-226deg.C
_cell_formula_units_Z            4
loop_
_atom_site_label
_atom_site_type_symbol
_atom_site_fract_x
_atom_site_fract_y
_atom_site_fract_z
S1 S 1.00530(9) 0.31015(4) 0.45835(4)
O1 O 0.9773(2) 0.16175(12) 0.32306(11)
O2 O 0.9279(3) 0.32759(11) 0.37902(10)
O3 O 1.2037(3) 0.31208(13) 0.48178(13)
N1 N 0.7318(2) -0.02457(10) 0.48579(12)
N2 N 0.9348(3) 0.22671(11) 0.48677(11)
C1 C 0.8303(3) 0.13525(16) 0.61793(14)
H1 H 0.8642 0.1873 0.6155
C2 C 0.8041(4) 0.1028(2) 0.68708(16)
H2 H 0.8199 0.1337 0.7315
C3 C 0.7546(4) 0.0252(2) 0.69154(17)
H3 H 0.7386 0.0053 0.7390
C4 C 0.7288(3) -0.02264(17) 0.62837(17)
H4 H 0.6962 -0.0747 0.6319
C5 C 0.7534(3) 0.00978(13) 0.55813(14)
C6 C 0.8047(3) 0.08796(13) 0.55192(13)
C7 C 0.8110(3) 0.10011(12) 0.47105(13)
C8 C 0.7645(3) 0.02840(13) 0.43282(14)
C9 C 0.6837(3) -0.10681(14) 0.46980(19)
H5 H 0.5710 -0.1102 0.4312
H6 H 0.6660 -0.1318 0.5167
H7 H 0.7827 -0.1322 0.4510
C10 C 0.7533(3) 0.00512(15) 0.35070(15)
H8 H 0.6753 0.0412 0.3172
H9 H 0.7017 -0.0464 0.3427
H10 H 0.8758 0.0055 0.3390
C11 C 0.8630(3) 0.17142(13) 0.43844(13)
C12 C 0.8430(3) 0.17796(13) 0.35059(14)
C13 C 0.6591(3) 0.19942(12) 0.30285(13)
C14 C 0.6342(4) 0.19573(15) 0.22246(14)
H11 H 0.7317 0.1799 0.1994
C15 C 0.4656(5) 0.21554(19) 0.17699(17)
H12 H 0.4487 0.2126 0.1231
C16 C 0.3232(4) 0.23942(19) 0.2106(2)
H13 H 0.2096 0.2529 0.1794
C17 C 0.3459(4) 0.24376(16) 0.2903(2)
H14 H 0.2482 0.2603 0.3129
C18 C 0.5138(3) 0.22351(14) 0.33640(15)
H15 H 0.5294 0.2261 0.3902
C19 C 0.9076(4) 0.37394(14) 0.51770(15)
C20 C 0.7184(5) 0.37766(17) 0.5102(2)
H16 H 0.6426 0.3444 0.4758
C21 C 0.6402(6) 0.4298(2) 0.5529(3)
H17 H 0.5115 0.4314 0.5476
C22 C 0.7500(7) 0.48068(18) 0.60418(18)
C23 C 0.9364(7) 0.4748(2) 0.6112(2)
H18 H 1.0123 0.5077 0.6460
C24 C 1.0191(5) 0.42227(19) 0.56919(19)
H19 H 1.1480 0.4197 0.5757
C25 C 0.6621(9) 0.5401(3) 0.6490(2)
H20 H 0.6287 0.5855 0.6173
H21 H 0.7491 0.5543 0.6953
H22 H 0.5526 0.5182 0.6627
loop_
_geom_bond_atom_site_label_1
_geom_bond_atom_site_label_2
_geom_bond_site_symmetry_1
_geom_bond_site_symmetry_2
S1 O2 1_555 1_555
O1 C12 1_555 1_555
O3 S1 1_555 1_555
N1 C5 1_555 1_555
N2 S1 1_555 1_555
C1 H1 1_555 1_555
C2 C1 1_555 1_555
H2 C2 1_555 1_555
C3 C2 1_555 1_555
H3 C3 1_555 1_555
C4 C3 1_555 1_555
H4 C4 1_555 1_555
C5 C4 1_555 1_555
C6 C1 1_555 1_555
C7 C6 1_555 1_555
C8 N1 1_555 1_555
C9 N1 1_555 1_555
H5 C9 1_555 1_555
H6 C9 1_555 1_555
H7 C9 1_555 1_555
C10 C8 1_555 1_555
H8 C10 1_555 1_555
H9 C10 1_555 1_555
H10 C10 1_555 1_555
C11 N2 1_555 1_555
C12 C11 1_555 1_555
C13 C12 1_555 1_555
C14 C13 1_555 1_555
H11 C14 1_555 1_555
C15 C14 1_555 1_555
H12 C15 1_555 1_555
C16 C15 1_555 1_555
H13 C16 1_555 1_555
C17 C16 1_555 1_555
H14 C17 1_555 1_555
C18 C13 1_555 1_555
H15 C18 1_555 1_555
C19 S1 1_555 1_555
C20 C19 1_555 1_555
H16 C20 1_555 1_555
C21 C20 1_555 1_555
H17 C21 1_555 1_555
C22 C21 1_555 1_555
C23 C22 1_555 1_555
H18 C23 1_555 1_555
C24 C19 1_555 1_555
H19 C24 1_555 1_555
C25 C22 1_555 1_555
H20 C25 1_555 1_555
H21 C25 1_555 1_555
H22 C25 1_555 1_555
C5 C6 1_555 1_555
C7 C8 1_555 1_555
C7 C11 1_555 1_555
C17 C18 1_555 1_555
C23 C24 1_555 1_555

#END
