
#######################################################################
#
#                 Cambridge Crystallographic Data Centre
#                                CCDC 
#
#######################################################################
#
# If this CIF has been generated from an entry in the Cambridge 
# Structural Database, then it will include bibliographic, chemical, 
# crystal, experimental, refinement or atomic coordinate data resulting 
# from the CCDC's data processing and validation procedures.
#
#######################################################################

data_UNEHUS
_chemical_name_common            
'tricyclo(6-cyclohexyl-1,3,5,7(2H,6H)-tetraoxopyrrolo[3,4-f]isoindole) 1,2-dibromoethane solvate'
_chemical_formula_moiety         'C56 H40 N6 O12,4(C2 H4 Br2)'
_chemical_name_systematic        
'1,8,16,23,36,43-hexaazapentadecacyclo[46.7.1.1^8,11^.1^10,14^.1^13,16^.1^23,31^.1^28,36^.1^43,51^.0^2,7^.0^17,22^.0^25,30^.0^29,34^.0^37,42^.0^45,50^.0^49,54^]dohexaconta-10(61),11,13,25,27,29,31,33,45,47,49,51,53-tridecaene-9,15,24,35,44,55,56,57,58,59,60,62-dodecone 1,2-dibromoethane solvate'
_symmetry_cell_setting           orthorhombic
_symmetry_space_group_name_H-M   'P 21 21 21'
_symmetry_Int_Tables_number      19
_space_group_name_Hall           'P 2ac 2ab'
loop_
_symmetry_equiv_pos_site_id
_symmetry_equiv_pos_as_xyz
1 x,y,z
2 1/2-x,-y,1/2+z
3 -x,1/2+y,1/2-z
4 1/2+x,1/2-y,-z
_cell_length_a                   9.2311(4)
_cell_length_b                   18.4418(7)
_cell_length_c                   37.1578(14)
_cell_angle_alpha                90
_cell_angle_beta                 90
_cell_angle_gamma                90
_cell_volume                     6325.67
_exptl_crystal_colour            colorless
_exptl_crystal_description       plate
_cell_formula_units_Z            4
loop_
_atom_site_label
_atom_site_type_symbol
_atom_site_fract_x
_atom_site_fract_y
_atom_site_fract_z
O1 O 0.0343(14) 0.0911(6) 0.4478(3)
O2 O 0.2794(17) 0.3832(7) 0.4965(3)
O3 O 0.0291(14) 0.4927(7) 0.4047(4)
O4 O -0.2339(14) 0.2078(7) 0.3624(3)
O5 O 0.5129(14) 0.4759(7) 0.4293(3)
O6 O 0.7382(12) 0.3134(6) 0.2695(3)
O7 O 0.4046(14) 0.4457(6) 0.2065(3)
O8 O 0.2065(13) 0.6192(6) 0.3660(3)
O9 O 0.6151(12) 0.1907(6) 0.2303(3)
O10 O 0.2275(12) 0.0331(6) 0.3729(3)
O11 O -0.1922(11) 0.0803(6) 0.3123(3)
O12 O 0.1971(12) 0.2878(7) 0.1869(3)
N1 N -0.1214(15) 0.1342(7) 0.4035(4)
N2 N 0.1838(15) 0.4538(7) 0.4505(3)
N3 N 0.3454(16) 0.5407(7) 0.3991(3)
N4 N 0.5687(14) 0.3753(7) 0.2378(3)
N5 N 0.4088(14) 0.2502(7) 0.2119(3)
N6 N 0.0138(14) 0.0590(7) 0.3445(4)
C1 C -0.0172(18) 0.1396(8) 0.4313(4)
C2 C 0.0182(18) 0.2209(8) 0.4338(4)
C3 C 0.107(2) 0.2565(9) 0.4570(5)
H1 H 0.1561 0.2328 0.4761
C4 C 0.1198(19) 0.3315(8) 0.4504(4)
C5 C 0.2096(19) 0.3890(9) 0.4696(4)
C6 C 0.0814(19) 0.4469(9) 0.4240(5)
C7 C 0.0430(18) 0.3652(9) 0.4226(5)
C8 C -0.048(2) 0.3303(9) 0.4000(5)
H2 H -0.0992 0.3544 0.3814
C9 C -0.0595(18) 0.2556(9) 0.4060(4)
C10 C -0.1518(18) 0.1992(8) 0.3870(4)
C11 C 0.2518(18) 0.5215(8) 0.4628(4)
H3 H 0.3455 0.5089 0.4748
C12 C 0.1583(19) 0.5618(8) 0.4901(4)
H4 H 0.0672 0.5776 0.4784
H5 H 0.1330 0.5287 0.5101
C13 C 0.238(2) 0.6274(9) 0.5048(4)
H6 H 0.3195 0.6105 0.5198
H7 H 0.1708 0.6549 0.5206
C14 C 0.297(2) 0.6788(9) 0.4753(5)
H8 H 0.2151 0.7048 0.4638
H9 H 0.3618 0.7152 0.4863
C15 C 0.379(2) 0.6348(8) 0.4470(4)
H10 H 0.4105 0.6673 0.4272
H11 H 0.4672 0.6134 0.4580
C16 C 0.2847(18) 0.5754(8) 0.4321(4)
H12 H 0.1906 0.5982 0.4250
C17 C 0.4536(17) 0.4901(8) 0.4005(4)
C18 C 0.4976(18) 0.4550(9) 0.3664(4)
C19 C 0.596(2) 0.3986(10) 0.3673(5)
H13 H 0.6331 0.3825 0.3898
C20 C 0.6410(19) 0.3646(10) 0.3353(4)
H14 H 0.7085 0.3257 0.3357
C21 C 0.5843(18) 0.3897(9) 0.3034(4)
C22 C 0.6357(16) 0.3567(8) 0.2694(4)
C23 C 0.4618(17) 0.4283(9) 0.2352(4)
C24 C 0.4220(19) 0.4665(9) 0.2688(4)
C25 C 0.3162(17) 0.5213(9) 0.2688(4)
H15 H 0.2721 0.5357 0.2468
C26 C 0.2772(19) 0.5536(9) 0.2999(4)
H16 H 0.2075 0.5915 0.2992
C27 C 0.3349(19) 0.5335(8) 0.3325(4)
C28 C 0.2884(17) 0.5692(9) 0.3658(4)
C29 C 0.4341(17) 0.4774(8) 0.3341(4)
C30 C 0.4820(18) 0.4429(9) 0.3018(4)
C31 C 0.6153(17) 0.3378(8) 0.2035(4)
H17 H 0.6897 0.3011 0.2107
C32 C 0.6879(18) 0.3877(9) 0.1764(4)
H18 H 0.6168 0.4236 0.1675
H19 H 0.7678 0.4143 0.1883
C33 C 0.7475(19) 0.3446(9) 0.1450(5)
H20 H 0.8236 0.3109 0.1536
H21 H 0.7919 0.3779 0.1273
C34 C 0.6259(18) 0.3014(9) 0.1270(4)
H22 H 0.6667 0.2712 0.1075
H23 H 0.5550 0.3353 0.1162
C35 C 0.5479(17) 0.2519(9) 0.1548(4)
H24 H 0.4666 0.2265 0.1429
H25 H 0.6166 0.2149 0.1638
C36 C 0.4907(17) 0.2955(8) 0.1861(4)
H26 H 0.4214 0.3320 0.1760
C37 C 0.4848(16) 0.2009(8) 0.2340(4)
C38 C 0.4020(17) 0.1655(8) 0.2635(4)
C39 C 0.4781(17) 0.1294(9) 0.2904(4)
H27 H 0.5810 0.1296 0.2906
C40 C 0.3985(16) 0.0924(8) 0.3174(4)
H28 H 0.4483 0.0652 0.3352
C41 C 0.2496(16) 0.0956(8) 0.3178(4)
C42 C 0.1652(17) 0.0609(8) 0.3479(4)
C43 C -0.0608(16) 0.0905(8) 0.3153(4)
C44 C 0.0199(16) 0.1353(8) 0.2902(4)
C45 C -0.0539(17) 0.1740(9) 0.2633(4)
H29 H -0.1568 0.1755 0.2630
C46 C 0.0276(17) 0.2107(9) 0.2370(4)
H30 H -0.0223 0.2366 0.2187
C47 C 0.1767(16) 0.2104(8) 0.2366(4)
C48 C 0.2577(17) 0.2525(8) 0.2095(4)
C49 C 0.2522(16) 0.1700(8) 0.2639(4)
C50 C 0.1711(17) 0.1335(8) 0.2908(4)
C51 C -0.0663(17) 0.0171(8) 0.3726(4)
H31 H 0.0062 0.0032 0.3913
C52 C -0.1317(18) -0.0535(8) 0.3582(4)
H32 H -0.1988 -0.0422 0.3382
H33 H -0.0532 -0.0844 0.3485
C53 C -0.2132(18) -0.0954(9) 0.3871(4)
H34 H -0.2620 -0.1378 0.3762
H35 H -0.1443 -0.1132 0.4055
C54 C -0.3248(18) -0.0465(9) 0.4047(4)
H36 H -0.3987 -0.0326 0.3866
H37 H -0.3742 -0.0734 0.4242
C55 C -0.2561(17) 0.0213(9) 0.4200(4)
H38 H -0.3318 0.0520 0.4311
H39 H -0.1859 0.0077 0.4390
C56 C -0.1800(17) 0.0632(8) 0.3913(4)
H40 H -0.2549 0.0745 0.3726
Br1 Br 0.7828(3) 0.57920(14) 0.33522(7)
Br2 Br 0.8501(4) 0.70242(16) 0.44090(7)
C57 C 0.771(2) 0.6096(10) 0.3854(4)
H41 H 0.6701 0.6236 0.3912
H42 H 0.7993 0.5690 0.4013
C58 C 0.864(2) 0.6692(10) 0.3910(4)
H43 H 0.8377 0.7092 0.3746
H44 H 0.9654 0.6547 0.3858
Br3 Br 0.3352(3) 0.23759(15) 0.38040(7)
Br4 Br 0.5845(4) 0.28358(17) 0.44829(7)
C59 C 0.448(3) 0.1659(12) 0.4067(5)
H45 H 0.3969 0.1188 0.4081
H46 H 0.5446 0.1584 0.3956
C60 C 0.459(3) 0.1989(11) 0.4406(7)
H47 H 0.4915 0.1610 0.4578
H48 H 0.3603 0.2132 0.4479
Br6 Br -0.1092(4) 0.48673(15) 0.25424(9)
Br7 Br 0.1723(3) 0.32722(14) 0.31563(9)
C61 C 0.024(3) 0.4055(12) 0.2604(14)
H51 H -0.0146 0.3610 0.2490
H52 H 0.1201 0.4166 0.2500
C62 C 0.032(3) 0.3976(16) 0.2979(14)
H53 H -0.0646 0.3836 0.3069
H54 H 0.0563 0.4454 0.3084
Br8 Br 0.6423(3) 0.62768(12) 0.54363(6)
Br9 Br 0.8191(5) 0.4230(2) 0.48776(10)
C63 C 0.755(2) 0.5400(9) 0.5353(5)
H55 H 0.8594 0.5524 0.5341
H56 H 0.7409 0.5059 0.5555
C64 C 0.712(2) 0.5068(9) 0.5029(5)
H57 H 0.7182 0.5435 0.4835
H58 H 0.6092 0.4928 0.5053
H49? H 0.4080 0.1674 0.4580
H50? H 0.4049 0.2451 0.4395
Br5? Br 0.646(2) 0.2206(10) 0.4610(5)
H59? H 0.7253 0.5392 0.4819
H60? H 0.6109 0.4894 0.5039
Br10? Br 0.853(3) 0.4260(10) 0.5032(11)
loop_
_geom_bond_atom_site_label_1
_geom_bond_atom_site_label_2
_geom_bond_site_symmetry_1
_geom_bond_site_symmetry_2
O1 C1 1_555 1_555
O2 C5 1_555 1_555
O3 C6 1_555 1_555
O4 C10 1_555 1_555
O5 C17 1_555 1_555
O6 C22 1_555 1_555
O7 C23 1_555 1_555
O8 C28 1_555 1_555
O9 C37 1_555 1_555
O10 C42 1_555 1_555
O11 C43 1_555 1_555
O12 C48 1_555 1_555
N1 C1 1_555 1_555
N2 C5 1_555 1_555
N3 C16 1_555 1_555
N4 C22 1_555 1_555
N5 C36 1_555 1_555
N6 C42 1_555 1_555
C1 C2 1_555 1_555
C2 C3 1_555 1_555
C3 H1 1_555 1_555
C4 C3 1_555 1_555
C5 C4 1_555 1_555
C6 N2 1_555 1_555
C7 C4 1_555 1_555
C8 C7 1_555 1_555
H2 C8 1_555 1_555
C9 C2 1_555 1_555
C10 N1 1_555 1_555
C11 N2 1_555 1_555
H3 C11 1_555 1_555
C12 C11 1_555 1_555
H4 C12 1_555 1_555
H5 C12 1_555 1_555
C13 C12 1_555 1_555
H6 C13 1_555 1_555
H7 C13 1_555 1_555
C14 C13 1_555 1_555
H8 C14 1_555 1_555
H9 C14 1_555 1_555
C15 C14 1_555 1_555
H10 C15 1_555 1_555
H11 C15 1_555 1_555
C16 C11 1_555 1_555
H12 C16 1_555 1_555
C17 N3 1_555 1_555
C18 C17 1_555 1_555
C19 C18 1_555 1_555
H13 C19 1_555 1_555
C20 C19 1_555 1_555
H14 C20 1_555 1_555
C21 C20 1_555 1_555
C22 C21 1_555 1_555
C23 N4 1_555 1_555
C24 C23 1_555 1_555
C25 C24 1_555 1_555
H15 C25 1_555 1_555
C26 C25 1_555 1_555
H16 C26 1_555 1_555
C27 C26 1_555 1_555
C28 N3 1_555 1_555
C29 C18 1_555 1_555
C30 C21 1_555 1_555
C31 N4 1_555 1_555
H17 C31 1_555 1_555
C32 C31 1_555 1_555
H18 C32 1_555 1_555
H19 C32 1_555 1_555
C33 C32 1_555 1_555
H20 C33 1_555 1_555
H21 C33 1_555 1_555
C34 C33 1_555 1_555
H22 C34 1_555 1_555
H23 C34 1_555 1_555
C35 C34 1_555 1_555
H24 C35 1_555 1_555
H25 C35 1_555 1_555
C36 C31 1_555 1_555
H26 C36 1_555 1_555
C37 N5 1_555 1_555
C38 C37 1_555 1_555
C39 C38 1_555 1_555
H27 C39 1_555 1_555
C40 C39 1_555 1_555
H28 C40 1_555 1_555
C41 C40 1_555 1_555
C42 C41 1_555 1_555
C43 N6 1_555 1_555
C44 C43 1_555 1_555
C45 C44 1_555 1_555
H29 C45 1_555 1_555
C46 C45 1_555 1_555
H30 C46 1_555 1_555
C47 C46 1_555 1_555
C48 N5 1_555 1_555
C49 C38 1_555 1_555
C50 C41 1_555 1_555
C51 N6 1_555 1_555
H31 C51 1_555 1_555
C52 C51 1_555 1_555
H32 C52 1_555 1_555
H33 C52 1_555 1_555
C53 C52 1_555 1_555
H34 C53 1_555 1_555
H35 C53 1_555 1_555
C54 C53 1_555 1_555
H36 C54 1_555 1_555
H37 C54 1_555 1_555
C55 C54 1_555 1_555
H38 C55 1_555 1_555
H39 C55 1_555 1_555
C56 N1 1_555 1_555
H40 C56 1_555 1_555
Br1 C57 1_555 1_555
Br2 C58 1_555 1_555
C57 H41 1_555 1_555
H42 C57 1_555 1_555
C58 C57 1_555 1_555
H43 C58 1_555 1_555
H44 C58 1_555 1_555
Br3 C59 1_555 1_555
Br4 C60 1_555 1_555
C59 H45 1_555 1_555
H46 C59 1_555 1_555
C60 C59 1_555 1_555
H47 C60 1_555 1_555
H48 C60 1_555 1_555
Br6 C61 1_555 1_555
Br7 C62 1_555 1_555
C61 H51 1_555 1_555
H52 C61 1_555 1_555
C62 C61 1_555 1_555
H53 C62 1_555 1_555
H54 C62 1_555 1_555
Br8 C63 1_555 1_555
Br9 C64 1_555 1_555
C63 H55 1_555 1_555
H56 C63 1_555 1_555
C64 C63 1_555 1_555
H57 C64 1_555 1_555
H58 C64 1_555 1_555
C6 C7 1_555 1_555
C8 C9 1_555 1_555
C9 C10 1_555 1_555
C15 C16 1_555 1_555
C24 C30 1_555 1_555
C27 C28 1_555 1_555
C27 C29 1_555 1_555
C29 C30 1_555 1_555
C35 C36 1_555 1_555
C44 C50 1_555 1_555
C47 C48 1_555 1_555
C47 C49 1_555 1_555
C49 C50 1_555 1_555
C51 C56 1_555 1_555
C55 C56 1_555 1_555

#END
