
#######################################################################
#
#                 Cambridge Crystallographic Data Centre
#                                CCDC 
#
#######################################################################
#
# If this CIF has been generated from an entry in the Cambridge 
# Structural Database, then it will include bibliographic, chemical, 
# crystal, experimental, refinement or atomic coordinate data resulting 
# from the CCDC's data processing and validation procedures.
#
#######################################################################

data_UNEHAX
_chemical_formula_moiety         'C10 H8 F9 N3 O2 S1'
_chemical_name_systematic        
(2,5-Dimethylpyrazin-1-ium-1-yl)((nonafluorobutyl)sulfonyl)amide
_symmetry_cell_setting           triclinic
_symmetry_space_group_name_H-M   'P -1'
_symmetry_Int_Tables_number      2
_space_group_name_Hall           '-P 1'
loop_
_symmetry_equiv_pos_site_id
_symmetry_equiv_pos_as_xyz
1 x,y,z
2 -x,-y,-z
_cell_length_a                   11.5617(18)
_cell_length_b                   11.5701(18)
_cell_length_c                   12.982(2)
_cell_angle_alpha                80.724(2)
_cell_angle_beta                 71.759(2)
_cell_angle_gamma                68.074(2)
_cell_volume                     1528.1
_exptl_crystal_colour            colorless
_exptl_crystal_description       block
_cell_formula_units_Z            4
loop_
_atom_site_label
_atom_site_type_symbol
_atom_site_fract_x
_atom_site_fract_y
_atom_site_fract_z
S1 S 0.67118(6) 0.97310(6) 0.36353(6)
O1 O 0.5542(2) 0.9539(2) 0.3683(2)
O2 O 0.6654(2) 1.09152(19) 0.38913(18)
N1 N 0.7662(2) 0.8716(2) 0.4243(2)
N2 N 0.7573(2) 0.7517(2) 0.4405(2)
N3 N 0.7490(3) 0.5141(2) 0.4885(2)
F1 F 0.7912(2) 0.8420(2) 0.19322(19)
F2 F 0.87454(18) 0.9774(2) 0.20601(16)
F3 F 0.6063(2) 1.0067(3) 0.1238(2)
F4 F 0.6248(2) 1.1635(2) 0.18191(17)
F5 F 0.8654(3) 0.9610(3) -0.0089(2)
F6 F 0.8484(3) 1.1415(3) 0.0387(2)
F7 F 0.6248(4) 1.2447(5) -0.0289(3)
F8 F 0.8027(4) 1.1696(6) -0.1472(3)
F9 F 0.6648(5) 1.0683(7) -0.0911(4)
C1 C 0.7622(3) 0.9596(3) 0.2176(3)
C2 C 0.6905(3) 1.0516(4) 0.1389(3)
C3 C 0.7820(4) 1.0726(5) 0.0268(3)
C4 C 0.7118(6) 1.1399(9) -0.0612(4)
C5 C 0.6470(3) 0.7333(3) 0.5027(2)
H1 H 0.5717 0.8025 0.5299
C6 C 0.6441(3) 0.6132(3) 0.5266(3)
C7 C 0.8563(3) 0.5361(3) 0.4297(3)
H2 H 0.9312 0.4662 0.4031
C8 C 0.8673(3) 0.6540(3) 0.4043(3)
C9 C 0.5260(4) 0.5911(3) 0.6021(3)
H3 H 0.5011 0.5372 0.5685
H4 H 0.4547 0.6710 0.6170
H5 H 0.5447 0.5505 0.6702
C10 C 0.9909(3) 0.6754(3) 0.3441(3)
H6 H 0.9815 0.7234 0.2759
H7 H 1.0611 0.5949 0.3282
H8 H 1.0115 0.7219 0.3885
S2 S 0.76656(7) 0.71398(7) 0.73554(7)
O3 O 0.6461(2) 0.8109(2) 0.7736(3)
O4 O 0.7696(3) 0.6000(2) 0.7035(3)
N4 N 0.8736(2) 0.7539(2) 0.6434(2)
N5 N 0.8681(2) 0.8770(2) 0.64400(19)
N6 N 0.8760(3) 1.1140(2) 0.6213(2)
C11 C 0.8307(9) 0.6651(8) 0.8543(6)
C12 C 0.7291(6) 0.6338(6) 0.9557(5)
F10 F 0.8747(7) 0.7530(8) 0.8686(6)
F11 F 0.9383(7) 0.5616(6) 0.8320(8)
F12 F 0.6597(6) 0.5843(8) 0.9323(6)
F13 F 0.6449(5) 0.7481(6) 0.9977(4)
C13 C 0.7828(7) 0.5665(7) 1.0489(5)
C14 C 0.6916(9) 0.5544(10) 1.1594(7)
F14 F 0.8500(4) 0.4429(4) 1.0187(4)
F15 F 0.8730(8) 0.6123(8) 1.0597(8)
F16 F 0.7429(6) 0.4815(7) 1.2273(4)
F17 F 0.5879(6) 0.5398(9) 1.1527(6)
F18 F 0.6488(7) 0.6690(7) 1.2059(5)
C15 C 0.7626(3) 0.9762(3) 0.6366(2)
H9 H 0.6853 0.9644 0.6372
C16 C 0.7665(3) 1.0957(3) 0.6279(2)
C17 C 0.9794(3) 1.0141(3) 0.6267(3)
H10 H 1.0575 1.0270 0.6215
C18 C 0.9812(3) 0.8919(3) 0.6396(2)
C19 C 0.6477(4) 1.2071(3) 0.6254(3)
H11 H 0.6154 1.2496 0.6935
H12 H 0.5806 1.1801 0.6165
H13 H 0.6692 1.2645 0.5644
C20 C 1.0979(3) 0.7818(3) 0.6454(3)
H14 H 1.0765 0.7295 0.7107
H15 H 1.1670 0.8097 0.6485
H16 H 1.1273 0.7334 0.5809
C21? C 0.8296(15) 0.6726(14) 0.8558(9)
C22? C 0.7776(11) 0.6388(9) 0.9774(8)
C23? C 0.7210(10) 0.5348(9) 0.9951(8)
C24? C 0.6747(12) 0.4890(11) 1.1124(8)
F19? F 0.8389(15) 0.7772(14) 0.8800(13)
F20? F 0.9510(15) 0.5889(13) 0.8258(17)
F21? F 0.8600(18) 0.5917(16) 1.0426(16)
F22? F 0.6810(12) 0.7396(12) 1.0271(12)
F23? F 0.8119(8) 0.4435(8) 0.9330(7)
F24? F 0.6216(11) 0.5764(15) 0.9481(12)
F25? F 0.7793(10) 0.4185(10) 1.1455(9)
F26? F 0.6098(11) 0.4225(12) 1.1155(9)
F27? F 0.6018(17) 0.5883(12) 1.1738(13)
loop_
_geom_bond_atom_site_label_1
_geom_bond_atom_site_label_2
_geom_bond_site_symmetry_1
_geom_bond_site_symmetry_2
S1 O1 1_555 1_555
O2 S1 1_555 1_555
N1 S1 1_555 1_555
N2 N1 1_555 1_555
N3 C6 1_555 1_555
F1 C1 1_555 1_555
F2 C1 1_555 1_555
F3 C2 1_555 1_555
F4 C2 1_555 1_555
F5 C3 1_555 1_555
F6 C3 1_555 1_555
F7 C4 1_555 1_555
F8 C4 1_555 1_555
F9 C4 1_555 1_555
C1 S1 1_555 1_555
C2 C1 1_555 1_555
C3 C2 1_555 1_555
C4 C3 1_555 1_555
C5 N2 1_555 1_555
H1 C5 1_555 1_555
C6 C5 1_555 1_555
C7 N3 1_555 1_555
H2 C7 1_555 1_555
C8 N2 1_555 1_555
C9 C6 1_555 1_555
H3 C9 1_555 1_555
H4 C9 1_555 1_555
H5 C9 1_555 1_555
C10 C8 1_555 1_555
H6 C10 1_555 1_555
H7 C10 1_555 1_555
H8 C10 1_555 1_555
S2 O3 1_555 1_555
O4 S2 1_555 1_555
N4 S2 1_555 1_555
N5 N4 1_555 1_555
N6 C16 1_555 1_555
C11 S2 1_555 1_555
C12 C11 1_555 1_555
F10 C11 1_555 1_555
F11 C11 1_555 1_555
F12 C12 1_555 1_555
F13 C12 1_555 1_555
C13 C12 1_555 1_555
C14 C13 1_555 1_555
F14 C13 1_555 1_555
F15 C13 1_555 1_555
F16 C14 1_555 1_555
F17 C14 1_555 1_555
F18 C14 1_555 1_555
C15 N5 1_555 1_555
H9 C15 1_555 1_555
C16 C15 1_555 1_555
C17 N6 1_555 1_555
H10 C17 1_555 1_555
C18 N5 1_555 1_555
C19 C16 1_555 1_555
H11 C19 1_555 1_555
H12 C19 1_555 1_555
H13 C19 1_555 1_555
C20 C18 1_555 1_555
H14 C20 1_555 1_555
H15 C20 1_555 1_555
H16 C20 1_555 1_555
C7 C8 1_555 1_555
C17 C18 1_555 1_555

#END
