
#######################################################################
#
#                 Cambridge Crystallographic Data Centre
#                                CCDC 
#
#######################################################################
#
# If this CIF has been generated from an entry in the Cambridge 
# Structural Database, then it will include bibliographic, chemical, 
# crystal, experimental, refinement or atomic coordinate data resulting 
# from the CCDC's data processing and validation procedures.
#
#######################################################################

data_UNEJII
_chemical_formula_moiety         'C28 H30 Cl1 N1 O1 Si1'
_chemical_name_systematic        
4-((t-butyl(dimethyl)silyl)oxy)-3-(3-chlorophenyl)-2-phenylnaphthalen-1-amine
_symmetry_cell_setting           monoclinic
_symmetry_space_group_name_H-M   'P 21/c'
_symmetry_Int_Tables_number      14
_space_group_name_Hall           '-P 2ybc'
loop_
_symmetry_equiv_pos_site_id
_symmetry_equiv_pos_as_xyz
1 x,y,z
2 -x,1/2+y,1/2-z
3 -x,-y,-z
4 x,1/2-y,1/2+z
_cell_length_a                   20.437(9)
_cell_length_b                   16.874(8)
_cell_length_c                   7.416(4)
_cell_angle_alpha                90
_cell_angle_beta                 96.712(8)
_cell_angle_gamma                90
_cell_volume                     2539.91
_exptl_crystal_colour            colorless
_exptl_crystal_description       prismatic
_cell_formula_units_Z            4
loop_
_atom_site_label
_atom_site_type_symbol
_atom_site_fract_x
_atom_site_fract_y
_atom_site_fract_z
Cl1 Cl 0.35364(10) 0.73237(13) 0.7376(3)
Si1 Si 0.16788(8) 0.51568(10) 1.0077(2)
N1 N 0.2685(3) 0.2572(4) 0.4206(9)
H1 H 0.3098 0.2490 0.4167
H2 H 0.2399 0.2241 0.3705
O1 O 0.18300(17) 0.5160(2) 0.7917(5)
C1 C 0.1787(3) 0.3357(4) 0.5125(8)
C2 C 0.1307(4) 0.2852(4) 0.4233(8)
H3 H 0.1439 0.2410 0.3619
C3 C 0.0657(4) 0.2996(5) 0.4249(10)
H4 H 0.0349 0.2643 0.3681
C4 C 0.0443(3) 0.3659(5) 0.5096(9)
H5 H -0.0005 0.3759 0.5078
C5 C 0.0892(3) 0.4165(4) 0.5955(8)
H6 H 0.0746 0.4615 0.6513
C6 C 0.1573(3) 0.4028(3) 0.6025(7)
C7 C 0.2051(3) 0.4540(3) 0.6957(7)
C8 C 0.2713(3) 0.4431(3) 0.6858(7)
C9 C 0.2927(3) 0.3779(4) 0.5889(8)
C10 C 0.2478(3) 0.3242(4) 0.5079(8)
C11 C 0.3655(3) 0.3680(4) 0.5694(8)
C12 C 0.3954(3) 0.4169(4) 0.4600(9)
H7 H 0.3713 0.4574 0.3984
C13 C 0.4615(3) 0.4074(5) 0.4382(10)
H8 H 0.4814 0.4418 0.3634
C14 C 0.4969(4) 0.3485(5) 0.5253(11)
H9 H 0.5412 0.3422 0.5108
C15 C 0.4680(4) 0.2994(6) 0.6321(12)
H10 H 0.4923 0.2587 0.6924
C16 C 0.4029(4) 0.3081(5) 0.6541(11)
H11 H 0.3834 0.2727 0.7279
C17 C 0.3205(3) 0.5013(4) 0.7736(8)
C18 C 0.3155(3) 0.5794(4) 0.7226(8)
H12 H 0.2823 0.5956 0.6338
C19 C 0.3608(3) 0.6347(4) 0.8051(9)
C20 C 0.4086(3) 0.6117(5) 0.9350(11)
H13 H 0.4378 0.6491 0.9901
C21 C 0.4145(3) 0.5362(6) 0.9857(10)
H14 H 0.4484 0.5211 1.0739
C22 C 0.3706(3) 0.4796(5) 0.9075(9)
H15 H 0.3747 0.4271 0.9450
C23 C 0.2422(4) 0.4894(7) 1.1600(10)
H16 H 0.2546 0.4358 1.1367
H17 H 0.2333 0.4941 1.2838
H18 H 0.2774 0.5246 1.1390
C24 C 0.1027(4) 0.4430(4) 1.0465(10)
H19 H 0.0636 0.4542 0.9657
H20 H 0.0931 0.4468 1.1698
H21 H 0.1177 0.3904 1.0239
C25 C 0.1389(3) 0.6185(4) 1.0474(9)
C26 C 0.0832(4) 0.6420(5) 0.9046(15)
H22 H 0.0492 0.6025 0.8982
H23 H 0.0996 0.6462 0.7888
H24 H 0.0656 0.6922 0.9361
C27 C 0.1147(6) 0.6219(6) 1.2341(14)
H25 H 0.1001 0.6746 1.2566
H26 H 0.1501 0.6077 1.3252
H27 H 0.0789 0.5854 1.2380
C28 C 0.1955(5) 0.6778(5) 1.0361(15)
H28 H 0.2059 0.6805 0.9133
H29 H 0.2336 0.6607 1.1144
H30 H 0.1823 0.7293 1.0735
loop_
_geom_bond_atom_site_label_1
_geom_bond_atom_site_label_2
_geom_bond_site_symmetry_1
_geom_bond_site_symmetry_2
Cl1 C19 1_555 1_555
Si1 O1 1_555 1_555
N1 H1 1_555 1_555
H2 N1 1_555 1_555
O1 C7 1_555 1_555
C1 C2 1_555 1_555
C2 H3 1_555 1_555
C3 C2 1_555 1_555
H4 C3 1_555 1_555
C4 C3 1_555 1_555
H5 C4 1_555 1_555
C5 C4 1_555 1_555
H6 C5 1_555 1_555
C6 C1 1_555 1_555
C7 C6 1_555 1_555
C8 C7 1_555 1_555
C9 C8 1_555 1_555
C10 N1 1_555 1_555
C11 C9 1_555 1_555
C12 C11 1_555 1_555
H7 C12 1_555 1_555
C13 C12 1_555 1_555
H8 C13 1_555 1_555
C14 C13 1_555 1_555
H9 C14 1_555 1_555
C15 C14 1_555 1_555
H10 C15 1_555 1_555
C16 C11 1_555 1_555
H11 C16 1_555 1_555
C17 C8 1_555 1_555
C18 C17 1_555 1_555
H12 C18 1_555 1_555
C19 C18 1_555 1_555
C20 C19 1_555 1_555
H13 C20 1_555 1_555
C21 C20 1_555 1_555
H14 C21 1_555 1_555
C22 C17 1_555 1_555
H15 C22 1_555 1_555
C23 Si1 1_555 1_555
H16 C23 1_555 1_555
H17 C23 1_555 1_555
H18 C23 1_555 1_555
C24 Si1 1_555 1_555
H19 C24 1_555 1_555
H20 C24 1_555 1_555
H21 C24 1_555 1_555
C25 Si1 1_555 1_555
C26 C25 1_555 1_555
H22 C26 1_555 1_555
H23 C26 1_555 1_555
H24 C26 1_555 1_555
C27 C25 1_555 1_555
H25 C27 1_555 1_555
H26 C27 1_555 1_555
H27 C27 1_555 1_555
C28 C25 1_555 1_555
H28 C28 1_555 1_555
H29 C28 1_555 1_555
H30 C28 1_555 1_555
C1 C10 1_555 1_555
C5 C6 1_555 1_555
C9 C10 1_555 1_555
C15 C16 1_555 1_555
C21 C22 1_555 1_555

#END
