
#######################################################################
#
#                 Cambridge Crystallographic Data Centre
#                                CCDC 
#
#######################################################################
#
# If this CIF has been generated from an entry in the Cambridge 
# Structural Database, then it will include bibliographic, chemical, 
# crystal, experimental, refinement or atomic coordinate data resulting 
# from the CCDC's data processing and validation procedures.
#
#######################################################################

data_UNEJIH
_chemical_formula_moiety         'C21 H27 N1 O1'
_chemical_name_systematic        
N-(5,5-Dimethyl-4-(3-methyl-1-phenylbuta-1,2-dien-1-yl)furan-2(5H)-ylidene)-2-methylpropan-2-amine
_symmetry_cell_setting           orthorhombic
_symmetry_space_group_name_H-M   'P b c a'
_symmetry_Int_Tables_number      61
_space_group_name_Hall           '-P 2ac 2ab'
loop_
_symmetry_equiv_pos_site_id
_symmetry_equiv_pos_as_xyz
1 x,y,z
2 1/2-x,-y,1/2+z
3 1/2+x,1/2-y,-z
4 -x,1/2+y,1/2-z
5 -x,-y,-z
6 1/2+x,y,1/2-z
7 1/2-x,1/2+y,z
8 x,1/2-y,1/2+z
_cell_length_a                   9.4358(6)
_cell_length_b                   11.1669(7)
_cell_length_c                   36.887(2)
_cell_angle_alpha                90
_cell_angle_beta                 90
_cell_angle_gamma                90
_cell_volume                     3886.73
_exptl_crystal_colour            colorless
_exptl_crystal_description       block
_cell_formula_units_Z            8
loop_
_atom_site_label
_atom_site_type_symbol
_atom_site_fract_x
_atom_site_fract_y
_atom_site_fract_z
N1 N 0.62971(18) 0.34437(19) 0.08273(5)
O1 O 0.38436(14) 0.32114(14) 0.07485(4)
C1 C 0.4036(3) 0.4541(2) 0.21124(6)
H1 H 0.4326 0.3778 0.2044
C2 C 0.4631(3) 0.5078(3) 0.24131(7)
H2 H 0.5320 0.4674 0.2546
C3 C 0.4216(3) 0.6196(3) 0.25170(7)
H3 H 0.4614 0.6551 0.2721
C4 C 0.3214(3) 0.6794(2) 0.23200(6)
H4 H 0.2931 0.7558 0.2390
C5 C 0.2621(2) 0.6271(2) 0.20179(5)
H5 H 0.1949 0.6690 0.1884
C6 C 0.3011(2) 0.51306(17) 0.19115(5)
C7 C 0.2295(2) 0.45643(17) 0.15914(5)
C8 C 0.0904(2) 0.45168(18) 0.15846(5)
C9 C -0.0476(2) 0.4478(2) 0.15861(6)
C10 C -0.1366(3) 0.5477(3) 0.14405(8)
H6 H -0.0763 0.6116 0.1359
H7 H -0.1982 0.5767 0.1628
H8 H -0.1923 0.5190 0.1241
C11 C -0.1274(3) 0.3403(3) 0.17232(8)
H9 H -0.0615 0.2816 0.1811
H10 H -0.1824 0.3066 0.1529
H11 H -0.1893 0.3642 0.1917
C12 C 0.2576(2) 0.35170(17) 0.09554(5)
C13 C 0.3183(2) 0.41015(17) 0.12939(5)
C14 C 0.4582(2) 0.4121(2) 0.12668(6)
H12 H 0.5190 0.4443 0.1440
C15 C 0.5033(2) 0.3571(2) 0.09296(6)
C16 C 0.1794(3) 0.23634(19) 0.10318(6)
H13 H 0.2373 0.1855 0.1181
H14 H 0.1589 0.1964 0.0807
H15 H 0.0924 0.2538 0.1156
C17 C 0.1717(2) 0.4364(2) 0.07219(6)
H16 H 0.1369 0.3944 0.0513
H17 H 0.2305 0.5018 0.0645
H18 H 0.0932 0.4668 0.0859
C18 C 0.6667(2) 0.2903(2) 0.04740(6)
C19 C 0.6207(4) 0.3741(3) 0.01693(8)
H19 H 0.5192 0.3800 0.0167
H20 H 0.6530 0.3430 -0.0059
H21 H 0.6609 0.4520 0.0208
C20 C 0.8267(3) 0.2802(4) 0.04774(10)
H22 H 0.8554 0.2275 0.0670
H23 H 0.8674 0.3579 0.0515
H24 H 0.8587 0.2487 0.0250
C21 C 0.6019(3) 0.1668(2) 0.04188(7)
H25 H 0.6320 0.1146 0.0611
H26 H 0.6325 0.1349 0.0190
H27 H 0.5005 0.1731 0.0421
loop_
_geom_bond_atom_site_label_1
_geom_bond_atom_site_label_2
_geom_bond_site_symmetry_1
_geom_bond_site_symmetry_2
N1 C15 1_555 1_555
O1 C12 1_555 1_555
C1 H1 1_555 1_555
C2 C1 1_555 1_555
H2 C2 1_555 1_555
C3 C2 1_555 1_555
H3 C3 1_555 1_555
C4 C3 1_555 1_555
H4 C4 1_555 1_555
C5 C4 1_555 1_555
H5 C5 1_555 1_555
C6 C1 1_555 1_555
C7 C6 1_555 1_555
C8 C7 1_555 1_555
C9 C8 1_555 1_555
C10 C9 1_555 1_555
H6 C10 1_555 1_555
H7 C10 1_555 1_555
H8 C10 1_555 1_555
C11 C9 1_555 1_555
H9 C11 1_555 1_555
H10 C11 1_555 1_555
H11 C11 1_555 1_555
C12 C13 1_555 1_555
C13 C7 1_555 1_555
C14 C13 1_555 1_555
H12 C14 1_555 1_555
C15 O1 1_555 1_555
C16 C12 1_555 1_555
H13 C16 1_555 1_555
H14 C16 1_555 1_555
H15 C16 1_555 1_555
C17 C12 1_555 1_555
H16 C17 1_555 1_555
H17 C17 1_555 1_555
H18 C17 1_555 1_555
C18 N1 1_555 1_555
C19 C18 1_555 1_555
H19 C19 1_555 1_555
H20 C19 1_555 1_555
H21 C19 1_555 1_555
C20 C18 1_555 1_555
H22 C20 1_555 1_555
H23 C20 1_555 1_555
H24 C20 1_555 1_555
C21 C18 1_555 1_555
H25 C21 1_555 1_555
H26 C21 1_555 1_555
H27 C21 1_555 1_555
C5 C6 1_555 1_555
C14 C15 1_555 1_555

#END
