
#######################################################################
#
#                 Cambridge Crystallographic Data Centre
#                                CCDC 
#
#######################################################################
#
# If this CIF has been generated from an entry in the Cambridge 
# Structural Database, then it will include bibliographic, chemical, 
# crystal, experimental, refinement or atomic coordinate data resulting 
# from the CCDC's data processing and validation procedures.
#
#######################################################################

data_UNEMUX
_chemical_formula_moiety         'C5 H14 B10'
_chemical_name_systematic        
7-ethynyl-1-methyl-1,2-dicarba-closo-dodecaborane(10)
_symmetry_cell_setting           monoclinic
_symmetry_space_group_name_H-M   'P 21/n'
_symmetry_Int_Tables_number      14
_space_group_name_Hall           '-P 2yn'
loop_
_symmetry_equiv_pos_site_id
_symmetry_equiv_pos_as_xyz
1 x,y,z
2 1/2-x,1/2+y,1/2-z
3 -x,-y,-z
4 1/2+x,1/2-y,1/2+z
_cell_length_a                   12.1726(10)
_cell_length_b                   7.9214(6)
_cell_length_c                   12.7226(10)
_cell_angle_alpha                90
_cell_angle_beta                 112.682(5)
_cell_angle_gamma                90
_cell_volume                     1131.89
_exptl_crystal_colour            colorless
_exptl_crystal_description       block
_cell_formula_units_Z            4
loop_
_atom_site_label
_atom_site_type_symbol
_atom_site_fract_x
_atom_site_fract_y
_atom_site_fract_z
C1 C 0.6074(3) 0.3846(5) 0.2673(3)
H1 H 0.6744 0.4846 0.2817
C2 C 0.4767(3) 0.4253(5) 0.2730(3)
C3 C 0.4517(4) 0.6067(6) 0.2968(4)
H2 H 0.3919 0.6542 0.2297
H3 H 0.5235 0.6720 0.3178
H4 H 0.4241 0.6084 0.3581
C4 C 0.6692(4) 0.2427(5) 0.0944(3)
C5 C 0.7246(5) 0.2478(7) 0.0381(4)
H5 H 0.7690 0.2518 -0.0071
B1 B 0.4827(4) 0.3872(6) 0.1448(4)
H6 H 0.4654 0.4844 0.0787
B2 B 0.5934(4) 0.2312(6) 0.1667(3)
B3 B 0.6536(4) 0.1846(6) 0.3146(4)
H7 H 0.7472 0.1471 0.3592
B4 B 0.5809(4) 0.3122(7) 0.3810(4)
H8 H 0.6271 0.3592 0.4684
B5 B 0.3679(4) 0.3049(6) 0.1782(4)
H9 H 0.2751 0.3464 0.1343
B6 B 0.4400(4) 0.1762(7) 0.1103(4)
H10 H 0.3943 0.1325 0.0219
B7 B 0.5461(4) 0.0484(7) 0.2163(4)
H11 H 0.5693 -0.0790 0.1972
B8 B 0.5379(5) 0.0997(6) 0.3497(4)
H12 H 0.5555 0.0051 0.4176
B9 B 0.4274(4) 0.2557(7) 0.3249(4)
H13 H 0.3731 0.2643 0.3765
B10 B 0.4064(5) 0.0947(7) 0.2233(5)
H14 H 0.3382 -0.0036 0.2086
loop_
_geom_bond_atom_site_label_1
_geom_bond_atom_site_label_2
_geom_bond_site_symmetry_1
_geom_bond_site_symmetry_2
C1 H1 1_555 1_555
C2 C1 1_555 1_555
C3 C2 1_555 1_555
H2 C3 1_555 1_555
H3 C3 1_555 1_555
H4 C3 1_555 1_555
C4 C5 1_555 1_555
C5 H5 1_555 1_555
B1 C1 1_555 1_555
H6 B1 1_555 1_555
B2 C1 1_555 1_555
B3 C1 1_555 1_555
H7 B3 1_555 1_555
B4 C1 1_555 1_555
H8 B4 1_555 1_555
B5 C2 1_555 1_555
H9 B5 1_555 1_555
B6 B1 1_555 1_555
H10 B6 1_555 1_555
B7 B2 1_555 1_555
H11 B7 1_555 1_555
B8 B3 1_555 1_555
H12 B8 1_555 1_555
B9 C2 1_555 1_555
H13 B9 1_555 1_555
B10 B5 1_555 1_555
H14 B10 1_555 1_555
C2 B1 1_555 1_555
C2 B4 1_555 1_555
C4 B2 1_555 1_555
B1 B2 1_555 1_555
B1 B5 1_555 1_555
B2 B3 1_555 1_555
B2 B6 1_555 1_555
B3 B4 1_555 1_555
B3 B7 1_555 1_555
B4 B8 1_555 1_555
B4 B9 1_555 1_555
B5 B6 1_555 1_555
B5 B9 1_555 1_555
B6 B7 1_555 1_555
B6 B10 1_555 1_555
B7 B8 1_555 1_555
B7 B10 1_555 1_555
B8 B9 1_555 1_555
B8 B10 1_555 1_555
B9 B10 1_555 1_555

#END
