
#######################################################################
#
#                 Cambridge Crystallographic Data Centre
#                                CCDC 
#
#######################################################################
#
# If this CIF has been generated from an entry in the Cambridge 
# Structural Database, then it will include bibliographic, chemical, 
# crystal, experimental, refinement or atomic coordinate data resulting 
# from the CCDC's data processing and validation procedures.
#
#######################################################################

data_UNENAE
_chemical_formula_moiety         'C10 H26 B20'
_chemical_name_systematic        
1,4-bis(1-methyl-1,2-dicarba-closo-dodecaboran(10)-7-yl)but-1,3-diyne
_symmetry_cell_setting           monoclinic
_symmetry_space_group_name_H-M   'P 21/n'
_symmetry_Int_Tables_number      14
_space_group_name_Hall           '-P 2yn'
loop_
_symmetry_equiv_pos_site_id
_symmetry_equiv_pos_as_xyz
1 x,y,z
2 1/2-x,1/2+y,1/2-z
3 -x,-y,-z
4 1/2+x,1/2-y,1/2+z
_cell_length_a                   6.8180(7)
_cell_length_b                   13.8572(13)
_cell_length_c                   11.6193(12)
_cell_angle_alpha                90
_cell_angle_beta                 91.186(7)
_cell_angle_gamma                90
_cell_volume                     1097.54
_exptl_crystal_colour            colorless
_exptl_crystal_description       block
_cell_formula_units_Z            2
loop_
_atom_site_label
_atom_site_type_symbol
_atom_site_fract_x
_atom_site_fract_y
_atom_site_fract_z
B1 B 0.1258(5) 0.7543(2) 0.2729(3)
H1 H 0.1539 0.7826 0.3602
B2 B 0.0545(5) 0.6350(3) 0.2568(3)
B3 B -0.1017(6) 0.6339(3) 0.1337(3)
H2 H -0.2215 0.5811 0.1247
B4 B -0.1269(6) 0.7542(3) 0.0828(4)
H3 H -0.2634 0.7804 0.0415
B5 B 0.2667(6) 0.7954(3) 0.1620(3)
H4 H 0.3856 0.8485 0.1725
B6 B 0.2913(5) 0.6761(3) 0.2143(3)
H5 H 0.4264 0.6514 0.2586
B7 B 0.1471(5) 0.5998(3) 0.1213(3)
H6 H 0.1897 0.5248 0.1036
B8 B 0.0348(6) 0.6739(3) 0.0139(3)
H7 H 0.0037 0.6473 -0.0738
B9 B 0.1105(6) 0.7944(3) 0.0397(3)
H8 H 0.1283 0.8469 -0.0303
B10 B 0.2776(6) 0.6991(3) 0.0637(3)
H9 H 0.4050 0.6882 0.0086
C1 C -0.1074(6) 0.7306(3) 0.2287(3)
H10 H -0.2340 0.7426 0.2840
C2 C 0.0225(5) 0.8223(2) 0.1713(3)
C3 C -0.0385(7) 0.9231(3) 0.2031(4)
H11 H -0.0959 0.9545 0.1368
H12 H -0.1328 0.9203 0.2632
H13 H 0.0745 0.9589 0.2294
C4 C 0.0310(5) 0.5746(2) 0.3655(3)
C5 C 0.0114(4) 0.5272(2) 0.4511(3)
B1B B -0.1258(5) 0.2457(2) 0.7271(3)
H1B H -0.1539 0.2174 0.6398
B2B B -0.0545(5) 0.3650(3) 0.7432(3)
B3B B 0.1017(6) 0.3661(3) 0.8663(3)
H2B H 0.2215 0.4189 0.8753
B4B B 0.1269(6) 0.2458(3) 0.9172(4)
H3B H 0.2634 0.2196 0.9585
B5B B -0.2667(6) 0.2046(3) 0.8380(3)
H4B H -0.3856 0.1515 0.8275
B6B B -0.2913(5) 0.3239(3) 0.7857(3)
H5B H -0.4264 0.3486 0.7414
B7B B -0.1471(5) 0.4002(3) 0.8787(3)
H6B H -0.1897 0.4752 0.8964
B8B B -0.0348(6) 0.3261(3) 0.9861(3)
H7B H -0.0037 0.3527 1.0738
B9B B -0.1105(6) 0.2056(3) 0.9603(3)
H8B H -0.1283 0.1531 1.0303
B10B B -0.2776(6) 0.3009(3) 0.9363(3)
H9B H -0.4050 0.3118 0.9914
C1B C 0.1074(6) 0.2694(3) 0.7713(3)
H10B H 0.2340 0.2574 0.7160
C2B C -0.0225(5) 0.1777(2) 0.8287(3)
C3B C 0.0385(7) 0.0769(3) 0.7969(4)
H11B H 0.0959 0.0455 0.8632
H12B H 0.1328 0.0797 0.7368
H13B H -0.0745 0.0411 0.7706
C4B C -0.0310(5) 0.4254(2) 0.6345(3)
C5B C -0.0114(4) 0.4728(2) 0.5489(3)
loop_
_geom_bond_atom_site_label_1
_geom_bond_atom_site_label_2
_geom_bond_site_symmetry_1
_geom_bond_site_symmetry_2
B1 H1 1_555 1_555
B2 B1 1_555 1_555
B3 B2 1_555 1_555
H2 B3 1_555 1_555
B4 B3 1_555 1_555
H3 B4 1_555 1_555
B5 B1 1_555 1_555
H4 B5 1_555 1_555
B6 B1 1_555 1_555
H5 B6 1_555 1_555
B7 B2 1_555 1_555
H6 B7 1_555 1_555
B8 B3 1_555 1_555
H7 B8 1_555 1_555
B9 B4 1_555 1_555
H8 B9 1_555 1_555
B10 B5 1_555 1_555
H9 B10 1_555 1_555
C1 B1 1_555 1_555
H10 C1 1_555 1_555
C2 B1 1_555 1_555
C3 C2 1_555 1_555
H11 C3 1_555 1_555
H12 C3 1_555 1_555
H13 C3 1_555 1_555
C4 B2 1_555 1_555
C5 C4 1_555 1_555
B1B H1B 1_555 1_555
B2B B1B 1_555 1_555
B3B B2B 1_555 1_555
H2B B3B 1_555 1_555
B4B B3B 1_555 1_555
H3B B4B 1_555 1_555
B5B B1B 1_555 1_555
H4B B5B 1_555 1_555
B6B B1B 1_555 1_555
H5B B6B 1_555 1_555
B7B B2B 1_555 1_555
H6B B7B 1_555 1_555
B8B B3B 1_555 1_555
H7B B8B 1_555 1_555
B9B B4B 1_555 1_555
H8B B9B 1_555 1_555
B10B B5B 1_555 1_555
H9B B10B 1_555 1_555
C1B B1B 1_555 1_555
H10B C1B 1_555 1_555
C2B B1B 1_555 1_555
C3B C2B 1_555 1_555
H11B C3B 1_555 1_555
H12B C3B 1_555 1_555
H13B C3B 1_555 1_555
C4B B2B 1_555 1_555
C5B C5 1_555 1_555
B2 B6 1_555 1_555
B2 C1 1_555 1_555
B3 B7 1_555 1_555
B3 C1 1_555 1_555
B4 B8 1_555 1_555
B4 C1 1_555 1_555
B4 C2 1_555 1_555
B5 B6 1_555 1_555
B5 B9 1_555 1_555
B5 C2 1_555 1_555
B6 B7 1_555 1_555
B6 B10 1_555 1_555
B7 B8 1_555 1_555
B7 B10 1_555 1_555
B8 B9 1_555 1_555
B8 B10 1_555 1_555
B9 B10 1_555 1_555
B9 C2 1_555 1_555
C1 C2 1_555 1_555
B2B B6B 1_555 1_555
B2B C1B 1_555 1_555
B3B B7B 1_555 1_555
B3B C1B 1_555 1_555
B4B B8B 1_555 1_555
B4B C1B 1_555 1_555
B4B C2B 1_555 1_555
B5B B6B 1_555 1_555
B5B B9B 1_555 1_555
B5B C2B 1_555 1_555
B6B B7B 1_555 1_555
B6B B10B 1_555 1_555
B7B B8B 1_555 1_555
B7B B10B 1_555 1_555
B8B B9B 1_555 1_555
B8B B10B 1_555 1_555
B9B B10B 1_555 1_555
B9B C2B 1_555 1_555
C1B C2B 1_555 1_555
C4B C5B 1_555 1_555

#END
