
#######################################################################
#
#                 Cambridge Crystallographic Data Centre
#                                CCDC 
#
#######################################################################
#
# If this CIF has been generated from an entry in the Cambridge 
# Structural Database, then it will include bibliographic, chemical, 
# crystal, experimental, refinement or atomic coordinate data resulting 
# from the CCDC's data processing and validation procedures.
#
#######################################################################

data_UNEPUA
_chemical_formula_moiety         'C25 H20 N4 S2'
_chemical_name_systematic        
2-amino-6-benzyl-4-(2-thienyl)-8-(2-thienylmethylene)-5,6,7,8-tetrahydro-1,6-naphthyridine-3-carbonitrile
_symmetry_cell_setting           monoclinic
_symmetry_space_group_name_H-M   'P 21/n'
_symmetry_Int_Tables_number      14
_space_group_name_Hall           '-P 2yn'
loop_
_symmetry_equiv_pos_site_id
_symmetry_equiv_pos_as_xyz
1 x,y,z
2 1/2-x,1/2+y,1/2-z
3 -x,-y,-z
4 1/2+x,1/2-y,1/2+z
_cell_length_a                   11.0619(12)
_cell_length_b                   11.2598(13)
_cell_length_c                   17.5329(19)
_cell_angle_alpha                90
_cell_angle_beta                 93.6620(10)
_cell_angle_gamma                90
_cell_volume                     2179.35
_cell_formula_units_Z            4
loop_
_atom_site_label
_atom_site_type_symbol
_atom_site_fract_x
_atom_site_fract_y
_atom_site_fract_z
N1 N 0.7365(5) 0.5675(5) 0.3371(3)
N2 N 0.3881(5) 0.5159(4) 0.3938(3)
N3 N 0.2510(5) 0.5199(4) 0.4877(3)
H1 H 0.2128 0.4615 0.4656
H2 H 0.2255 0.5499 0.5288
N4 N 0.3230(6) 0.7642(6) 0.6087(4)
S1 S 0.6281(5) 0.9289(5) 0.4567(3)
S2 S 0.3683(5) 0.2698(6) 0.1436(4)
C1 C 0.6576(6) 0.5264(5) 0.2716(4)
H3 H 0.6917 0.4549 0.2508
H4 H 0.6548 0.5867 0.2320
C2 C 0.5289(7) 0.5006(6) 0.2939(4)
C3 C 0.4934(7) 0.5560(6) 0.3658(4)
C4 C 0.3525(7) 0.5652(7) 0.4573(4)
C5 C 0.4170(7) 0.6611(6) 0.4941(4)
C6 C 0.5238(7) 0.7031(6) 0.4646(4)
C7 C 0.5644(7) 0.6485(6) 0.3993(4)
C8 C 0.6853(6) 0.6763(6) 0.3669(4)
H5 H 0.6741 0.7345 0.3263
H6 H 0.7405 0.7093 0.4067
C9 C 0.8575(6) 0.5935(6) 0.3121(3)
H7 H 0.9009 0.6406 0.3512
H8 H 0.8489 0.6416 0.2661
C10 C 0.9316(7) 0.4877(7) 0.2961(5)
C11 C 0.9439(7) 0.3925(8) 0.3448(4)
H9 H 0.9001 0.3928 0.3884
C12 C 1.0183(8) 0.2955(8) 0.3327(5)
H10 H 1.0220 0.2324 0.3671
C13 C 1.0862(7) 0.2934(8) 0.2696(5)
H11 H 1.1376 0.2300 0.2612
C14 C 1.0767(7) 0.3857(8) 0.2197(5)
H12 H 1.1208 0.3855 0.1763
C15 C 1.0007(7) 0.4804(7) 0.2337(4)
H13 H 0.9963 0.5428 0.1989
C16 C 0.3672(7) 0.7183(7) 0.5591(5)
C17 C 0.5961(6) 0.8007(7) 0.5036(5)
C18 C 0.652(4) 0.810(3) 0.576(2)
H14 H 0.6460 0.7496 0.6114
C19 C 0.7168(7) 0.9112(9) 0.5947(5)
H15 H 0.7581 0.9279 0.6413
C20 C 0.7090(7) 0.9815(7) 0.5322(5)
H16 H 0.7469 1.0552 0.5315
C21 C 0.4488(6) 0.4354(6) 0.2493(4)
H17 H 0.3736 0.4236 0.2689
C22 C 0.4642(7) 0.3814(6) 0.1748(4)
C23 C 0.537(3) 0.409(3) 0.114(2)
H18 H 0.5932 0.4705 0.1180
C24 C 0.5201(7) 0.3397(7) 0.0489(4)
H19 H 0.5637 0.3458 0.0054
C25 C 0.4289(7) 0.2616(7) 0.0595(5)
H20 H 0.4023 0.2073 0.0221
C26? C 0.651(4) 0.904(5) 0.482(3)
H21? H 0.6480 0.9223 0.4303
C27? C 0.400(5) 0.293(6) 0.133(4)
H22? H 0.3372 0.2540 0.1554
S3? S 0.652(2) 0.7784(18) 0.5943(12)
S4? S 0.571(2) 0.430(2) 0.1182(17)
loop_
_geom_bond_atom_site_label_1
_geom_bond_atom_site_label_2
_geom_bond_site_symmetry_1
_geom_bond_site_symmetry_2
N1 C1 1_555 1_555
N2 C3 1_555 1_555
N3 H1 1_555 1_555
H2 N3 1_555 1_555
N4 C16 1_555 1_555
S1 C17 1_555 1_555
S2 C22 1_555 1_555
C1 H3 1_555 1_555
H4 C1 1_555 1_555
C2 C1 1_555 1_555
C3 C2 1_555 1_555
C4 N2 1_555 1_555
C5 C4 1_555 1_555
C6 C5 1_555 1_555
C7 C3 1_555 1_555
C8 N1 1_555 1_555
H5 C8 1_555 1_555
H6 C8 1_555 1_555
C9 N1 1_555 1_555
H7 C9 1_555 1_555
H8 C9 1_555 1_555
C10 C9 1_555 1_555
C11 C10 1_555 1_555
H9 C11 1_555 1_555
C12 C11 1_555 1_555
H10 C12 1_555 1_555
C13 C12 1_555 1_555
H11 C13 1_555 1_555
C14 C13 1_555 1_555
H12 C14 1_555 1_555
C15 C10 1_555 1_555
H13 C15 1_555 1_555
C16 C5 1_555 1_555
C17 C6 1_555 1_555
C18 C17 1_555 1_555
H14 C18 1_555 1_555
C19 C18 1_555 1_555
H15 C19 1_555 1_555
C20 S1 1_555 1_555
H16 C20 1_555 1_555
C21 C2 1_555 1_555
H17 C21 1_555 1_555
C22 C21 1_555 1_555
C23 C22 1_555 1_555
H18 C23 1_555 1_555
C24 C23 1_555 1_555
H19 C24 1_555 1_555
C25 S2 1_555 1_555
H20 C25 1_555 1_555
N3 C4 1_555 1_555
C6 C7 1_555 1_555
C7 C8 1_555 1_555
C14 C15 1_555 1_555
C19 C20 1_555 1_555
C24 C25 1_555 1_555

#END
