
#######################################################################
#
#                 Cambridge Crystallographic Data Centre
#                                CCDC 
#
#######################################################################
#
# If this CIF has been generated from an entry in the Cambridge 
# Structural Database, then it will include bibliographic, chemical, 
# crystal, experimental, refinement or atomic coordinate data resulting 
# from the CCDC's data processing and validation procedures.
#
#######################################################################

data_UNIBIE
_chemical_formula_moiety         'C23 H28 N3 O6 P1'
_chemical_name_systematic        
\L~p~-3,8-Dibenzyl-5-((diethylcarbamoyl)oxy)-1,6-dioxa-4,9-diaza-5-phosphaspiro[4.4]nonane-2,7-dione
_symmetry_cell_setting           monoclinic
_symmetry_space_group_name_H-M   'P 21'
_symmetry_Int_Tables_number      4
_space_group_name_Hall           'P 2yb'
loop_
_symmetry_equiv_pos_site_id
_symmetry_equiv_pos_as_xyz
1 x,y,z
2 -x,1/2+y,-z
_cell_length_a                   16.1499(3)
_cell_length_b                   6.10696(15)
_cell_length_c                   25.0130(7)
_cell_angle_alpha                90
_cell_angle_beta                 98.553(2)
_cell_angle_gamma                90
_cell_volume                     2439.52
_chemical_melting_point          '190-191 deg.C'
_cell_formula_units_Z            4
loop_
_atom_site_label
_atom_site_type_symbol
_atom_site_fract_x
_atom_site_fract_y
_atom_site_fract_z
P1 P 0.42365(4) 0.47655(11) 0.27100(3)
O1 O 0.38610(12) 0.2126(3) 0.26829(9)
O2 O 0.27914(13) 0.0069(4) 0.23077(12)
O3 O 0.46393(11) 0.7409(3) 0.26910(8)
O4 O 0.57702(12) 0.9285(4) 0.25671(9)
O5 O 0.41748(11) 0.5078(4) 0.33476(8)
O6 O 0.27988(14) 0.4223(5) 0.33376(10)
N1 N 0.34298(15) 0.5548(5) 0.22831(11)
N2 N 0.51466(14) 0.3822(5) 0.26224(11)
N3 N 0.35233(19) 0.6064(6) 0.40390(11)
C1 C 0.31156(18) 0.1851(5) 0.23779(14)
C2 C 0.27749(17) 0.3946(5) 0.21272(13)
H1 H 0.2270 0.4362 0.2277
C3 C 0.2563(2) 0.3664(6) 0.15153(14)
H2 H 0.3075 0.3342 0.1371
H3 H 0.2195 0.2411 0.1442
C4 C 0.2153(2) 0.5610(7) 0.12234(14)
C5 C 0.1293(3) 0.5852(9) 0.11751(18)
H4 H 0.0972 0.4811 0.1322
C6 C 0.0913(4) 0.7668(14) 0.0905(3)
H5 H 0.0335 0.7826 0.0872
C7 C 0.1364(7) 0.9197(13) 0.0692(2)
H6 H 0.1099 1.0414 0.0521
C8 C 0.2212(5) 0.8967(10) 0.0726(2)
H7 H 0.2523 0.9998 0.0568
C9 C 0.2609(3) 0.7156(8) 0.10016(17)
H8 H 0.3188 0.7011 0.1033
C10 C 0.54240(17) 0.7561(5) 0.26088(12)
C11 C 0.58262(16) 0.5329(5) 0.25757(12)
H9 H 0.6260 0.5144 0.2891
C12 C 0.62230(16) 0.5023(5) 0.20649(12)
H10 H 0.6675 0.6072 0.2071
H11 H 0.6468 0.3571 0.2073
C13 C 0.56436(19) 0.5284(6) 0.15414(13)
C14 C 0.5588(3) 0.7251(8) 0.12705(16)
H12 H 0.5887 0.8447 0.1427
C15 C 0.5107(4) 0.7492(11) 0.0779(2)
H13 H 0.5094 0.8834 0.0603
C16 C 0.4652(3) 0.5821(13) 0.05474(19)
H14 H 0.4323 0.6006 0.0212
C17 C 0.4672(3) 0.3794(11) 0.0810(2)
H15 H 0.4356 0.2625 0.0653
C18 C 0.5173(2) 0.3553(8) 0.13123(15)
H16 H 0.5190 0.2217 0.1492
C19 C 0.34310(19) 0.5070(6) 0.35645(13)
C20 C 0.2785(3) 0.6242(8) 0.43216(16)
H17 H 0.2281 0.6193 0.4058
H18 H 0.2799 0.7644 0.4505
C21 C 0.2754(3) 0.4467(10) 0.47219(19)
H19 H 0.2697 0.3081 0.4539
H20 H 0.2283 0.4694 0.4909
H21 H 0.3260 0.4475 0.4977
C22 C 0.4286(3) 0.7196(10) 0.42774(19)
H22 H 0.4766 0.6440 0.4175
H23 H 0.4331 0.7137 0.4668
C23 C 0.4304(5) 0.9516(13) 0.4105(3)
H24 H 0.4324 0.9582 0.3724
H25 H 0.4791 1.0221 0.4297
H26 H 0.3810 1.0249 0.4183
H27 H 0.5229(18) 0.249(6) 0.2594(12)
H28 H 0.332(3) 0.694(8) 0.2278(16)
P2 P 0.08623(4) 0.44898(12) 0.76977(3)
O7 O 0.04982(12) 0.1849(3) 0.77739(9)
O8 O -0.06546(13) -0.0184(4) 0.76317(11)
O9 O 0.11887(11) 0.7120(3) 0.75912(8)
O10 O 0.20296(13) 0.9057(3) 0.71480(9)
O11 O 0.12130(12) 0.4562(4) 0.83379(8)
O12 O 0.25714(14) 0.5459(5) 0.83065(10)
N4 N -0.01045(15) 0.5326(4) 0.75658(11)
N5 N 0.14818(16) 0.3566(5) 0.72954(11)
N6 N 0.19703(18) 0.6225(7) 0.90452(12)
C24 C -0.03268(18) 0.1584(5) 0.76473(13)
C25 C -0.07747(17) 0.3733(5) 0.75366(14)
H29 H -0.1099 0.4027 0.7830
C26 C -0.13699(19) 0.3773(6) 0.70004(14)
H30 H -0.1730 0.2495 0.6984
H31 H -0.1724 0.5057 0.6995
C27 C -0.09474(19) 0.3803(6) 0.65026(14)
C28 C -0.1003(3) 0.5650(8) 0.61865(18)
H32 H -0.1286 0.6871 0.6288
C29 C -0.0643(4) 0.5716(11) 0.5718(2)
H33 H -0.0693 0.6977 0.5507
C30 C -0.0223(3) 0.3993(12) 0.5563(2)
H34 H 0.0019 0.4063 0.5249
C31 C -0.0151(3) 0.2099(10) 0.5876(2)
H35 H 0.0141 0.0896 0.5772
C32 C -0.0515(3) 0.2017(8) 0.63422(17)
H36 H -0.0469 0.0749 0.6550
C33 C 0.17683(17) 0.7319(5) 0.72637(12)
C34 C 0.20235(17) 0.5096(5) 0.70693(12)
H37 H 0.2609 0.4799 0.7219
C35 C 0.1910(2) 0.4916(6) 0.64572(12)
H38 H 0.2071 0.3453 0.6362
H39 H 0.1320 0.5095 0.6319
C36 C 0.2403(2) 0.6552(6) 0.61781(12)
C37 C 0.1997(3) 0.8123(7) 0.58401(16)
H40 H 0.1415 0.8121 0.5773
C38 C 0.2426(3) 0.9694(9) 0.55983(18)
H41 H 0.2138 1.0748 0.5375
C39 C 0.3283(3) 0.9689(9) 0.56897(16)
H42 H 0.3579 1.0744 0.5528
C40 C 0.3700(3) 0.8163(8) 0.60125(17)
H43 H 0.4282 0.8177 0.6076
C41 C 0.3261(2) 0.6560(7) 0.62530(14)
H44 H 0.3555 0.5486 0.6466
C42 C 0.1978(2) 0.5468(6) 0.85500(14)
C43 C 0.1227(3) 0.6223(9) 0.93157(17)
H45 H 0.0949 0.4819 0.9256
H46 H 0.1402 0.6385 0.9702
C44 C 0.0667(5) 0.7850(18) 0.9142(4)
H47 H 0.0922 0.9251 0.9228
H48 H 0.0181 0.7703 0.9318
H49 H 0.0506 0.7737 0.8758
C45 C 0.2741(3) 0.7267(13) 0.9328(2)
H50 H 0.2814 0.6841 0.9706
H51 H 0.3217 0.6714 0.9175
C46 C 0.2738(4) 0.9667(15) 0.9295(3)
H52 H 0.2643 1.0108 0.8922
H53 H 0.3268 1.0224 0.9465
H54 H 0.2300 1.0239 0.9476
H55 H -0.0185(18) 0.689(6) 0.7550(12)
H56 H 0.156(2) 0.221(7) 0.7258(14)
C47? C 0.1203(6) 0.451(2) 0.9677(5)
H57? H 0.1156 0.3150 0.9483
H58? H 0.0729 0.4692 0.9863
H59? H 0.1708 0.4513 0.9934
H60? H 0.1206 0.7596 0.9508
H61? H 0.0733 0.6148 0.9044
loop_
_geom_bond_atom_site_label_1
_geom_bond_atom_site_label_2
_geom_bond_site_symmetry_1
_geom_bond_site_symmetry_2
P1 O1 1_555 1_555
O1 C1 1_555 1_555
O2 C1 1_555 1_555
O3 P1 1_555 1_555
O4 C10 1_555 1_555
O5 P1 1_555 1_555
O6 C19 1_555 1_555
N1 P1 1_555 1_555
N2 P1 1_555 1_555
N3 C19 1_555 1_555
C1 C2 1_555 1_555
C2 N1 1_555 1_555
H1 C2 1_555 1_555
C3 C2 1_555 1_555
H2 C3 1_555 1_555
H3 C3 1_555 1_555
C4 C3 1_555 1_555
C5 C4 1_555 1_555
H4 C5 1_555 1_555
C6 C5 1_555 1_555
H5 C6 1_555 1_555
C7 C6 1_555 1_555
H6 C7 1_555 1_555
C8 C7 1_555 1_555
H7 C8 1_555 1_555
C9 C4 1_555 1_555
H8 C9 1_555 1_555
C10 O3 1_555 1_555
C11 N2 1_555 1_555
H9 C11 1_555 1_555
C12 C11 1_555 1_555
H10 C12 1_555 1_555
H11 C12 1_555 1_555
C13 C12 1_555 1_555
C14 C13 1_555 1_555
H12 C14 1_555 1_555
C15 C14 1_555 1_555
H13 C15 1_555 1_555
C16 C15 1_555 1_555
H14 C16 1_555 1_555
C17 C16 1_555 1_555
H15 C17 1_555 1_555
C18 C13 1_555 1_555
H16 C18 1_555 1_555
C19 O5 1_555 1_555
C20 N3 1_555 1_555
H17 C20 1_555 1_555
H18 C20 1_555 1_555
C21 C20 1_555 1_555
H19 C21 1_555 1_555
H20 C21 1_555 1_555
H21 C21 1_555 1_555
C22 N3 1_555 1_555
H22 C22 1_555 1_555
H23 C22 1_555 1_555
C23 C22 1_555 1_555
H24 C23 1_555 1_555
H25 C23 1_555 1_555
H26 C23 1_555 1_555
H27 N2 1_555 1_555
H28 N1 1_555 1_555
P2 O7 1_555 1_555
O7 C24 1_555 1_555
O8 C24 1_555 1_555
O9 P2 1_555 1_555
O10 C33 1_555 1_555
O11 P2 1_555 1_555
O12 C42 1_555 1_555
N4 P2 1_555 1_555
N5 P2 1_555 1_555
N6 C42 1_555 1_555
C24 C25 1_555 1_555
C25 N4 1_555 1_555
H29 C25 1_555 1_555
C26 C25 1_555 1_555
H30 C26 1_555 1_555
H31 C26 1_555 1_555
C27 C26 1_555 1_555
C28 C27 1_555 1_555
H32 C28 1_555 1_555
C29 C28 1_555 1_555
H33 C29 1_555 1_555
C30 C29 1_555 1_555
H34 C30 1_555 1_555
C31 C30 1_555 1_555
H35 C31 1_555 1_555
C32 C27 1_555 1_555
H36 C32 1_555 1_555
C33 O9 1_555 1_555
C34 N5 1_555 1_555
H37 C34 1_555 1_555
C35 C34 1_555 1_555
H38 C35 1_555 1_555
H39 C35 1_555 1_555
C36 C35 1_555 1_555
C37 C36 1_555 1_555
H40 C37 1_555 1_555
C38 C37 1_555 1_555
H41 C38 1_555 1_555
C39 C38 1_555 1_555
H42 C39 1_555 1_555
C40 C39 1_555 1_555
H43 C40 1_555 1_555
C41 C36 1_555 1_555
H44 C41 1_555 1_555
C42 O11 1_555 1_555
C43 N6 1_555 1_555
H45 C43 1_555 1_555
H46 C43 1_555 1_555
C44 C43 1_555 1_555
H47 C44 1_555 1_555
H48 C44 1_555 1_555
H49 C44 1_555 1_555
C45 N6 1_555 1_555
H50 C45 1_555 1_555
H51 C45 1_555 1_555
C46 C45 1_555 1_555
H52 C46 1_555 1_555
H53 C46 1_555 1_555
H54 C46 1_555 1_555
H55 N4 1_555 1_555
H56 N5 1_555 1_555
C8 C9 1_555 1_555
C10 C11 1_555 1_555
C17 C18 1_555 1_555
C31 C32 1_555 1_555
C33 C34 1_555 1_555
C40 C41 1_555 1_555

#END
