
#######################################################################
#
#                 Cambridge Crystallographic Data Centre
#                                CCDC 
#
#######################################################################
#
# If this CIF has been generated from an entry in the Cambridge 
# Structural Database, then it will include bibliographic, chemical, 
# crystal, experimental, refinement or atomic coordinate data resulting 
# from the CCDC's data processing and validation procedures.
#
#######################################################################

data_UNIBEZ
_chemical_formula_moiety         'C29 H29 N5 O4,C4 H8 O1'
_chemical_name_systematic        
'6,10-Di-isopropyl-1,3,8-triphenyl-1,3,6,8,10-pentaazaspiro[4.5]decane-2,4,7,9-tetrone tetrahydrofuran solvate'
_symmetry_cell_setting           triclinic
_symmetry_space_group_name_H-M   'P -1'
_symmetry_Int_Tables_number      2
_space_group_name_Hall           '-P 1'
loop_
_symmetry_equiv_pos_site_id
_symmetry_equiv_pos_as_xyz
1 x,y,z
2 -x,-y,-z
_cell_length_a                   10.0023(19)
_cell_length_b                   10.691(2)
_cell_length_c                   16.123(3)
_cell_angle_alpha                91.893(3)
_cell_angle_beta                 96.746(4)
_cell_angle_gamma                115.175(5)
_cell_volume                     1542.91
_exptl_crystal_colour            colorless
_exptl_crystal_description       platelet
_chemical_melting_point          '242-243 deg.C (dec.)'
_cell_formula_units_Z            2
_exptl_crystal_recrystallization_method hexane/tetrahydrofuran
loop_
_atom_site_label
_atom_site_type_symbol
_atom_site_fract_x
_atom_site_fract_y
_atom_site_fract_z
O1 O 0.7807(4) 0.5394(3) 0.72310(19)
O2 O 0.6238(4) 0.2771(3) 0.9384(2)
O3 O 0.4631(3) -0.1237(3) 0.57664(17)
O4 O 0.3171(3) 0.1845(3) 0.69152(18)
N1 N 0.5655(3) 0.1673(3) 0.80691(19)
N2 N 0.6494(4) 0.3067(3) 0.69289(19)
N3 N 0.7049(4) 0.4088(3) 0.8311(2)
N4 N 0.5888(3) 0.0623(3) 0.67845(19)
N5 N 0.3536(3) 0.0121(3) 0.6216(2)
C1 C 0.5564(4) 0.1710(3) 0.7176(2)
C2 C 0.4737(5) 0.0315(4) 0.8380(3)
H1 H 0.4348 -0.0381 0.7887
C3 C 0.3386(5) 0.0314(6) 0.8720(3)
H2 H 0.3711 0.0927 0.9234
H3 H 0.2740 -0.0621 0.8835
H4 H 0.2843 0.0634 0.8309
C4 C 0.5677(5) -0.0144(5) 0.8994(3)
H5 H 0.6480 -0.0189 0.8729
H6 H 0.5057 -0.1054 0.9157
H7 H 0.6095 0.0517 0.9488
C5 C 0.6506(5) 0.3203(4) 0.6008(2)
H8 H 0.5957 0.2248 0.5730
C6 C 0.5649(6) 0.4012(5) 0.5657(3)
H9 H 0.4671 0.3641 0.5836
H10 H 0.5536 0.3923 0.5050
H11 H 0.6198 0.4984 0.5865
C7 C 0.8063(5) 0.3742(5) 0.5775(3)
H12 H 0.8629 0.4708 0.5992
H13 H 0.8003 0.3665 0.5169
H14 H 0.8556 0.3200 0.6014
C8 C 0.7149(4) 0.4254(4) 0.7467(3)
C9 C 0.7703(7) 0.5316(5) 0.8887(3)
C10 C 0.6580(16) 0.5620(11) 0.9138(9)
H15 H 0.5573 0.5003 0.8968
C11 C 0.6962(17) 0.6886(10) 0.9662(8)
H16 H 0.6224 0.7155 0.9791
C12 C 0.8498(16) 0.7706(11) 0.9971(9)
H17 H 0.8800 0.8522 1.0326
C13 C 0.9538(16) 0.7280(12) 0.9740(9)
H18 H 1.0550 0.7838 0.9943
C14 C 0.9186(16) 0.6085(11) 0.9229(9)
H19 H 0.9925 0.5806 0.9118
C15 C 0.6286(5) 0.2815(4) 0.8639(3)
C16 C 0.4705(4) -0.0275(3) 0.6212(2)
C17 C 0.7101(4) 0.0333(4) 0.7122(2)
C18 C 0.8462(4) 0.1411(4) 0.7485(3)
H20 H 0.8611 0.2340 0.7472
C19 C 0.9578(5) 0.1106(5) 0.7859(3)
H21 H 1.0494 0.1833 0.8098
C20 C 0.9381(5) -0.0253(5) 0.7892(3)
H22 H 1.0147 -0.0448 0.8163
C21 C 0.8060(5) -0.1310(5) 0.7527(3)
H23 H 0.7933 -0.2232 0.7534
C22 C 0.6906(5) -0.1038(4) 0.7147(3)
H24 H 0.5998 -0.1774 0.6906
C23 C 0.3918(4) 0.1264(4) 0.6767(2)
C24 C 0.2060(4) -0.0659(4) 0.5742(2)
C25 C 0.0963(5) -0.1560(4) 0.6156(3)
H25 H 0.1174 -0.1675 0.6724
C26 C -0.0468(5) -0.2300(5) 0.5713(4)
H26 H -0.1235 -0.2924 0.5983
C27 C -0.0757(5) -0.2120(5) 0.4888(3)
H27 H -0.1725 -0.2611 0.4591
C28 C 0.0363(5) -0.1222(5) 0.4490(3)
H28 H 0.0161 -0.1115 0.3919
C29 C 0.1790(4) -0.0472(4) 0.4921(3)
H29 H 0.2554 0.0153 0.4651
O5 O 0.6665(15) 0.2989(16) 0.2504(9)
C30 C 0.703(2) 0.4081(17) 0.3157(12)
H30 H 0.7568 0.3930 0.3664
H31 H 0.6124 0.4126 0.3299
C31 C 0.802(2) 0.5414(17) 0.2796(11)
H32 H 0.7524 0.6031 0.2745
H33 H 0.8970 0.5901 0.3170
C32 C 0.830(2) 0.5035(16) 0.1942(11)
H34 H 0.7732 0.5277 0.1491
H35 H 0.9365 0.5497 0.1888
C33 C 0.777(2) 0.3513(16) 0.1930(12)
H36 H 0.7321 0.3074 0.1360
H37 H 0.8612 0.3293 0.2105
C34? C 0.7092(16) 0.6168(10) 0.9159(8)
C35? C 0.8082(17) 0.7350(12) 0.9703(9)
C36? C 0.9589(16) 0.7759(12) 0.9935(9)
C37? C 1.0178(18) 0.6898(10) 0.9704(8)
C38? C 0.9209(16) 0.5639(11) 0.9160(9)
C39? C 0.782(2) 0.4161(18) 0.3036(12)
C40? C 0.698(2) 0.501(2) 0.2706(11)
C41? C 0.726(2) 0.5161(16) 0.1829(11)
C42? C 0.669(2) 0.3648(16) 0.1731(11)
H38? H 0.6086 0.5977 0.8995
H39? H 0.7673 0.7909 0.9927
H40? H 1.0193 0.8616 1.0246
H41? H 1.1182 0.7103 0.9888
H42? H 0.9602 0.5032 0.8988
H43? H 0.8898 0.4647 0.3013
H44? H 0.7661 0.3921 0.3609
H45? H 0.5914 0.4507 0.2734
H46? H 0.7378 0.5913 0.3029
H47? H 0.6644 0.5519 0.1493
H48? H 0.8318 0.5666 0.1766
H49? H 0.7046 0.3393 0.1239
H50? H 0.5602 0.3241 0.1616
O6? O 0.7129(15) 0.3017(16) 0.2458(10)
loop_
_geom_bond_atom_site_label_1
_geom_bond_atom_site_label_2
_geom_bond_site_symmetry_1
_geom_bond_site_symmetry_2
O1 C8 1_555 1_555
O2 C15 1_555 1_555
O3 C16 1_555 1_555
O4 C23 1_555 1_555
N1 C1 1_555 1_555
N2 C1 1_555 1_555
N3 C8 1_555 1_555
N4 C1 1_555 1_555
N5 C16 1_555 1_555
C1 C23 1_555 1_555
C2 N1 1_555 1_555
H1 C2 1_555 1_555
C3 C2 1_555 1_555
H2 C3 1_555 1_555
H3 C3 1_555 1_555
H4 C3 1_555 1_555
C4 C2 1_555 1_555
H5 C4 1_555 1_555
H6 C4 1_555 1_555
H7 C4 1_555 1_555
C5 N2 1_555 1_555
H8 C5 1_555 1_555
C6 C5 1_555 1_555
H9 C6 1_555 1_555
H10 C6 1_555 1_555
H11 C6 1_555 1_555
C7 C5 1_555 1_555
H12 C7 1_555 1_555
H13 C7 1_555 1_555
H14 C7 1_555 1_555
C8 N2 1_555 1_555
C9 N3 1_555 1_555
C10 C9 1_555 1_555
H15 C10 1_555 1_555
C11 C10 1_555 1_555
H16 C11 1_555 1_555
C12 C11 1_555 1_555
H17 C12 1_555 1_555
C13 C12 1_555 1_555
H18 C13 1_555 1_555
C14 C9 1_555 1_555
H19 C14 1_555 1_555
C15 N1 1_555 1_555
C16 N4 1_555 1_555
C17 N4 1_555 1_555
C18 C17 1_555 1_555
H20 C18 1_555 1_555
C19 C18 1_555 1_555
H21 C19 1_555 1_555
C20 C19 1_555 1_555
H22 C20 1_555 1_555
C21 C20 1_555 1_555
H23 C21 1_555 1_555
C22 C17 1_555 1_555
H24 C22 1_555 1_555
C23 N5 1_555 1_555
C24 N5 1_555 1_555
C25 C24 1_555 1_555
H25 C25 1_555 1_555
C26 C25 1_555 1_555
H26 C26 1_555 1_555
C27 C26 1_555 1_555
H27 C27 1_555 1_555
C28 C27 1_555 1_555
H28 C28 1_555 1_555
C29 C24 1_555 1_555
H29 C29 1_555 1_555
O5 C30 1_555 1_555
C30 H30 1_555 1_555
H31 C30 1_555 1_555
C31 C30 1_555 1_555
H32 C31 1_555 1_555
H33 C31 1_555 1_555
C32 C31 1_555 1_555
H34 C32 1_555 1_555
H35 C32 1_555 1_555
C33 O5 1_555 1_555
H36 C33 1_555 1_555
H37 C33 1_555 1_555
N3 C15 1_555 1_555
C13 C14 1_555 1_555
C21 C22 1_555 1_555
C28 C29 1_555 1_555
C32 C33 1_555 1_555

#END
