
#######################################################################
#
#                 Cambridge Crystallographic Data Centre
#                                CCDC 
#
#######################################################################
#
# If this CIF has been generated from an entry in the Cambridge 
# Structural Database, then it will include bibliographic, chemical, 
# crystal, experimental, refinement or atomic coordinate data resulting 
# from the CCDC's data processing and validation procedures.
#
#######################################################################

data_UNICUQ
_chemical_formula_moiety         'C38 H32 N2 P3 1+,F6 P1 1-'
_chemical_name_systematic        
'1-(2-(Diphenylphosphino)phenyl)-9,9-diphenyl-2,3-dihydro-1H,9H-[1,3,2]diazaphospholo[1,2-a][1,2,3]benzazadiphosphol-9-ium hexafluorophosphate'
_symmetry_cell_setting           monoclinic
_symmetry_space_group_name_H-M   'C 2/c'
_symmetry_Int_Tables_number      15
_space_group_name_Hall           '-C 2yn'
loop_
_symmetry_equiv_pos_site_id
_symmetry_equiv_pos_as_xyz
1 x,y,z
2 1/2+x,1/2+y,z
3 -x,y,1/2-z
4 1/2-x,1/2+y,1/2-z
5 -x,-y,-z
6 1/2-x,1/2-y,-z
7 x,-y,1/2+z
8 1/2+x,1/2-y,1/2+z
_cell_length_a                   20.0011(5)
_cell_length_b                   24.3395(6)
_cell_length_c                   16.1163(4)
_cell_angle_alpha                90
_cell_angle_beta                 115.903(1)
_cell_angle_gamma                90
_cell_volume                     7057.47
_exptl_crystal_colour            colorless
_exptl_crystal_description       prism
_cell_formula_units_Z            8
loop_
_atom_site_label
_atom_site_type_symbol
_atom_site_fract_x
_atom_site_fract_y
_atom_site_fract_z
P1 P 0.735719(17) 0.688777(13) 0.92539(2)
P2 P 0.703406(17) 0.602199(13) 0.86797(2)
P3 P 0.813094(19) 0.690157(14) 0.81245(2)
N1 N 0.66990(6) 0.68461(5) 0.96891(8)
N2 N 0.68484(6) 0.73685(4) 0.84746(8)
C1 C 0.59669(7) 0.70411(6) 0.89934(10)
C2 C 0.61428(7) 0.75130(6) 0.85128(10)
C3 C 0.66676(7) 0.63079(6) 1.00367(9)
C4 C 0.67716(7) 0.58484(5) 0.95792(9)
C5 C 0.67491(8) 0.53182(6) 0.99028(10)
C6 C 0.66191(8) 0.52519(6) 1.06755(10)
C7 C 0.65096(8) 0.57072(7) 1.11200(10)
C8 C 0.65301(8) 0.62356(6) 1.08071(9)
C9 C 0.63006(7) 0.59206(6) 0.75417(9)
C10 C 0.61866(9) 0.63099(6) 0.68643(11)
C11 C 0.56611(10) 0.62120(7) 0.59637(11)
C12 C 0.52488(8) 0.57331(7) 0.57545(11)
C13 C 0.53429(8) 0.53534(7) 0.64309(11)
C14 C 0.58729(8) 0.54415(7) 0.73320(10)
C15 C 0.78034(7) 0.55900(5) 0.88381(9)
C16 C 0.83128(7) 0.54548(6) 0.97377(10)
C17 C 0.89180(8) 0.51242(6) 0.98762(12)
C18 C 0.90181(8) 0.49349(6) 0.91324(13)
C19 C 0.85226(9) 0.50750(6) 0.82380(12)
C20 C 0.79099(8) 0.54040(6) 0.80846(10)
C21 C 0.71054(7) 0.77161(5) 0.79729(8)
C22 C 0.67558(8) 0.82269(6) 0.76693(9)
C23 C 0.69748(8) 0.85740(6) 0.71543(10)
C24 C 0.75347(9) 0.84260(6) 0.69155(10)
C25 C 0.78798(9) 0.79195(6) 0.72022(10)
C26 C 0.76813(7) 0.75622(5) 0.77387(8)
C27 C 0.90954(7) 0.70446(6) 0.89290(9)
C28 C 0.95431(10) 0.74155(8) 0.87469(12)
C29 C 1.02810(10) 0.74894(8) 0.93766(13)
C30 C 1.05801(9) 0.71969(7) 1.01982(12)
C31 C 1.01348(9) 0.68381(8) 1.03966(12)
C32 C 0.93951(8) 0.67602(7) 0.97621(10)
C33 C 0.82049(9) 0.66343(6) 0.71097(10)
C34 C 0.76174(12) 0.66948(9) 0.62336(12)
C35 C 0.76392(15) 0.64416(12) 0.54756(13)
C36 C 0.82495(16) 0.61210(12) 0.55816(14)
C37 C 0.88293(14) 0.60548(10) 0.64482(14)
C38 C 0.88105(10) 0.63074(8) 0.72100(11)
H1 H 0.5662 0.7167 0.9298
H2 H 0.5706 0.6758 0.8550
H3 H 0.6207 0.7853 0.8861
H4 H 0.5751 0.7559 0.7891
H5 H 0.6836 0.5010 0.9615
H6 H 0.6604 0.4899 1.0883
H7 H 0.6420 0.5660 1.1643
H8 H 0.6463 0.6543 1.1110
H9 H 0.6465 0.6634 0.7006
H10 H 0.5611 0.6465 0.5506
H11 H 0.4906 0.5671 0.5153
H12 H 0.5052 0.5029 0.6274
H13 H 0.5938 0.5178 0.7797
H14 H 0.8244 0.5583 1.0245
H15 H 0.9257 0.5033 1.0486
H16 H 0.9426 0.4711 0.9222
H17 H 0.8593 0.4952 0.7743
H18 H 0.7578 0.5504 0.7486
H19 H 0.6377 0.8341 0.7824
H20 H 0.6742 0.8918 0.6977
H21 H 0.7691 0.8666 0.6579
H22 H 0.8256 0.7810 0.7034
H23 H 0.9354 0.7612 0.8196
H24 H 1.0577 0.7730 0.9240
H25 H 1.1068 0.7245 1.0606
H26 H 1.0330 0.6651 1.0949
H27 H 0.9093 0.6512 0.9895
H28 H 0.7199 0.6912 0.6149
H29 H 0.7245 0.6487 0.4898
H30 H 0.8260 0.5949 0.5070
H31 H 0.9235 0.5837 0.6513
H32 H 0.9201 0.6255 0.7786
P4 P 1.0000 0.57978(2) 1.2500
F1 F 1.0000 0.64594(5) 1.2500
F2 F 0.98869(8) 0.58021(5) 1.34133(9)
F3 F 0.91198(6) 0.57943(5) 1.19108(9)
F4 F 1.0000 0.51405(6) 1.2500
F2B F 1.01131(8) 0.58021(5) 1.15867(9)
F3B F 1.08802(6) 0.57943(5) 1.30892(9)
P5 P 1.0000 0.88185(3) 0.7500
F5 F 0.93936(12) 0.83523(7) 0.69994(15)
F6 F 1.02121(13) 0.88075(8) 0.66530(16)
F7 F 1.05958(17) 0.92779(8) 0.7982(2)
F5B F 1.06064(12) 0.83523(7) 0.80006(15)
F6B F 0.97879(13) 0.88075(8) 0.83470(16)
F7B F 0.94042(17) 0.92779(8) 0.7018(2)
loop_
_geom_bond_atom_site_label_1
_geom_bond_atom_site_label_2
_geom_bond_site_symmetry_1
_geom_bond_site_symmetry_2
P1 P2 1_555 1_555
P2 C4 1_555 1_555
P3 C26 1_555 1_555
P4 F1 1_555 1_555
P5 F5 1_555 1_555
F2 P4 1_555 1_555
F3 P4 1_555 1_555
F4 P4 1_555 1_555
F6 P5 1_555 1_555
F7 P5 1_555 1_555
N1 P1 1_555 1_555
N2 P1 1_555 1_555
C1 N1 1_555 1_555
C2 N2 1_555 1_555
C3 N1 1_555 1_555
C4 C3 1_555 1_555
C5 C4 1_555 1_555
C6 C5 1_555 1_555
C7 C6 1_555 1_555
C8 C3 1_555 1_555
C9 P2 1_555 1_555
C10 C9 1_555 1_555
C11 C10 1_555 1_555
C12 C11 1_555 1_555
C13 C12 1_555 1_555
C14 C9 1_555 1_555
C15 P2 1_555 1_555
C16 C15 1_555 1_555
C17 C16 1_555 1_555
C18 C17 1_555 1_555
C19 C18 1_555 1_555
C20 C15 1_555 1_555
C21 N2 1_555 1_555
C22 C21 1_555 1_555
C23 C22 1_555 1_555
C24 C23 1_555 1_555
C25 C24 1_555 1_555
C26 C21 1_555 1_555
C27 P3 1_555 1_555
C28 C27 1_555 1_555
C29 C28 1_555 1_555
C30 C29 1_555 1_555
C31 C30 1_555 1_555
C32 C27 1_555 1_555
C33 P3 1_555 1_555
C34 C33 1_555 1_555
C35 C34 1_555 1_555
C36 C35 1_555 1_555
C37 C36 1_555 1_555
C38 C33 1_555 1_555
H1 C1 1_555 1_555
H2 C1 1_555 1_555
H3 C2 1_555 1_555
H4 C2 1_555 1_555
H5 C5 1_555 1_555
H6 C6 1_555 1_555
H7 C7 1_555 1_555
H8 C8 1_555 1_555
H9 C10 1_555 1_555
H10 C11 1_555 1_555
H11 C12 1_555 1_555
H12 C13 1_555 1_555
H13 C14 1_555 1_555
H14 C16 1_555 1_555
H15 C17 1_555 1_555
H16 C18 1_555 1_555
H17 C19 1_555 1_555
H18 C20 1_555 1_555
H19 C22 1_555 1_555
H20 C23 1_555 1_555
H21 C24 1_555 1_555
H22 C25 1_555 1_555
H23 C28 1_555 1_555
H24 C29 1_555 1_555
H25 C30 1_555 1_555
H26 C31 1_555 1_555
H27 C32 1_555 1_555
H28 C34 1_555 1_555
H29 C35 1_555 1_555
H30 C36 1_555 1_555
H31 C37 1_555 1_555
H32 C38 1_555 1_555
F2B P4 1_555 1_555
F3B P4 1_555 1_555
F5B P5 1_555 1_555
F6B P5 1_555 1_555
F7B P5 1_555 1_555
C1 C2 1_555 1_555
C7 C8 1_555 1_555
C13 C14 1_555 1_555
C19 C20 1_555 1_555
C25 C26 1_555 1_555
C31 C32 1_555 1_555
C37 C38 1_555 1_555

#END
