
#######################################################################
#
#                 Cambridge Crystallographic Data Centre
#                                CCDC 
#
#######################################################################
#
# If this CIF has been generated from an entry in the Cambridge 
# Structural Database, then it will include bibliographic, chemical, 
# crystal, experimental, refinement or atomic coordinate data resulting 
# from the CCDC's data processing and validation procedures.
#
#######################################################################

data_UNICOJ
_chemical_formula_moiety         'C33 H43 N1 O7'
_chemical_name_systematic        
'(1R,2S,5R)-5-Methyl-2-(1-methyl-1-phenylethyl)cyclohexyl (1R,4R,5S,7R,8R)-2-benzyl-7,8-dihydroxy-4-(methoxymethoxy)-3-oxo-2-azabicyclo(2.2.2)octane-5-carboxylate'
_symmetry_cell_setting           orthorhombic
_symmetry_space_group_name_H-M   'P 21 21 21'
_symmetry_Int_Tables_number      19
_space_group_name_Hall           'P 2ac 2ab'
loop_
_symmetry_equiv_pos_site_id
_symmetry_equiv_pos_as_xyz
1 x,y,z
2 1/2-x,-y,1/2+z
3 1/2+x,1/2-y,-z
4 -x,1/2+y,1/2-z
_cell_length_a                   6.76760(10)
_cell_length_b                   19.0481(4)
_cell_length_c                   23.3595(6)
_cell_angle_alpha                90
_cell_angle_beta                 90
_cell_angle_gamma                90
_cell_volume                     3011.27
_exptl_crystal_colour            colorless
_exptl_crystal_description       needle
_chemical_melting_point          162deg.C
_cell_formula_units_Z            4
_exptl_crystal_recrystallization_method isopropanol/hexane
loop_
_atom_site_label
_atom_site_type_symbol
_atom_site_fract_x
_atom_site_fract_y
_atom_site_fract_z
O1 O 0.1465(3) -0.03530(12) 0.52978(10)
O2 O 0.1511(3) 0.09691(11) 0.48845(11)
O3 O 0.0503(4) 0.21444(13) 0.47889(14)
O4 O -0.4792(4) 0.00957(17) 0.53633(11)
O5 O -0.1970(4) 0.08662(14) 0.56417(11)
O6 O 0.2540(3) -0.00680(11) 0.39888(10)
O7 O 0.1646(3) 0.07300(11) 0.33244(10)
N1 N -0.1462(4) -0.05829(14) 0.48542(12)
C1 C -0.3037(5) -0.02579(18) 0.45114(14)
C2 C 0.0055(4) -0.01649(17) 0.50027(13)
C3 C -0.0228(4) 0.05765(16) 0.47642(14)
C4 C -0.0525(5) 0.05520(17) 0.41088(14)
C5 C -0.2148(5) 0.0013(2) 0.39581(15)
C6 C -0.3889(5) 0.0348(2) 0.48562(16)
C7 C -0.2174(4) 0.08477(18) 0.50382(15)
C8 C -0.1621(6) -0.13135(18) 0.50422(17)
C9 C 0.1406(5) 0.03703(16) 0.38133(13)
C10 C 0.3518(5) 0.06397(17) 0.30068(14)
C11 C 0.3074(5) 0.04841(18) 0.23735(15)
C12 C 0.4959(7) 0.0625(2) 0.20209(19)
C13 C 0.5969(6) 0.1320(2) 0.21366(19)
C14 C 0.6531(6) 0.13815(19) 0.27645(18)
C15 C 0.4640(5) 0.13207(18) 0.31139(18)
C16 C 0.1390(6) 0.16371(18) 0.51432(17)
C17 C 0.1662(8) 0.2330(2) 0.4305(2)
C18 C -0.1248(5) -0.18360(18) 0.45692(16)
C19 C -0.2309(7) -0.2458(2) 0.4557(2)
C20 C -0.1900(7) -0.2971(2) 0.4159(2)
C21 C -0.0443(7) -0.2866(2) 0.3756(2)
C22 C 0.0602(7) -0.2251(2) 0.3763(2)
C23 C 0.0217(6) -0.1740(2) 0.41697(19)
C24 C 0.7662(7) 0.2051(2) 0.2899(3)
C25 C 0.2234(5) -0.0269(2) 0.22465(15)
C26 C 0.1480(8) -0.0266(3) 0.16241(19)
C27 C 0.0423(6) -0.0441(2) 0.2614(2)
C28 C 0.3830(5) -0.08328(18) 0.23416(16)
C29 C 0.4280(6) -0.10938(19) 0.28851(17)
C30 C 0.5746(6) -0.1586(2) 0.2980(2)
C31 C 0.6834(7) -0.1840(2) 0.2524(2)
C32 C 0.6415(7) -0.1595(2) 0.1981(2)
C33 C 0.4948(6) -0.1102(2) 0.18882(19)
H1 H -0.302(7) 0.052(2) 0.5811(18)
H2 H -0.396(6) -0.059(2) 0.4455(16)
H3 H -0.092(5) 0.1021(19) 0.3975(15)
H4 H -0.166(6) -0.042(2) 0.3744(17)
H5 H -0.310(6) 0.0212(19) 0.3745(17)
H6 H -0.481(6) 0.057(2) 0.4623(18)
H7 H -0.245(6) 0.132(2) 0.4890(16)
H8 H -0.295(6) -0.1364(19) 0.5208(17)
H9 H -0.070(7) -0.140(2) 0.5352(18)
H10 H 0.424(6) 0.0234(18) 0.3158(15)
H11 H 0.204(6) 0.0835(19) 0.2237(16)
H12 H 0.462(7) 0.060(2) 0.163(2)
H13 H 0.595(7) 0.027(2) 0.2092(19)
H14 H 0.499(7) 0.172(2) 0.1978(19)
H15 H 0.704(7) 0.133(2) 0.191(2)
H16 H 0.737(6) 0.095(2) 0.2851(18)
H17 H 0.370(6) 0.168(2) 0.2967(16)
H18 H 0.500(6) 0.133(2) 0.3496(19)
H19 H 0.055(6) 0.163(2) 0.5506(18)
H20 H 0.284(7) 0.179(2) 0.5226(18)
H21 H 0.297(8) 0.248(3) 0.437(2)
H22 H 0.158(7) 0.195(2) 0.396(2)
H23 H -0.335(8) -0.249(2) 0.485(2)
H24 H -0.272(8) -0.340(3) 0.415(2)
H25 H -0.012(7) -0.326(3) 0.347(2)
H26 H 0.167(8) -0.220(2) 0.353(2)
H27 H 0.094(7) -0.139(2) 0.4210(19)
H28 H 0.685(8) 0.246(2) 0.274(2)
H29 H 0.891(7) 0.205(2) 0.264(2)
H30 H 0.123(8) -0.072(3) 0.151(2)
H31 H 0.259(8) -0.006(3) 0.134(2)
H32 H 0.070(8) 0.023(3) 0.156(2)
H33 H -0.067(7) -0.006(2) 0.2538(19)
H34 H -0.020(7) -0.087(2) 0.2482(19)
H35 H 0.070(7) -0.052(2) 0.300(2)
H36 H 0.363(6) -0.098(2) 0.3211(19)
H37 H 0.605(7) -0.174(2) 0.337(2)
H38 H 0.781(8) -0.221(3) 0.264(2)
H39 H 0.707(8) -0.176(3) 0.173(2)
H40 H 0.457(7) -0.087(2) 0.152(2)
H41 H 0.786(7) 0.208(2) 0.332(2)
H42 H 0.094(11) 0.278(4) 0.412(3)
H43 H -0.62(3) -0.025(9) 0.544(9)
loop_
_geom_bond_atom_site_label_1
_geom_bond_atom_site_label_2
_geom_bond_site_symmetry_1
_geom_bond_site_symmetry_2
O1 C2 1_555 1_555
O2 C3 1_555 1_555
O3 C16 1_555 1_555
O4 C6 1_555 1_555
O5 C7 1_555 1_555
O6 C9 1_555 1_555
O7 C9 1_555 1_555
N1 C1 1_555 1_555
C1 C5 1_555 1_555
C2 N1 1_555 1_555
C3 C2 1_555 1_555
C4 C3 1_555 1_555
C5 C4 1_555 1_555
C6 C1 1_555 1_555
C7 C3 1_555 1_555
C8 N1 1_555 1_555
C9 C4 1_555 1_555
C10 O7 1_555 1_555
C11 C10 1_555 1_555
C12 C11 1_555 1_555
C13 C12 1_555 1_555
C14 C13 1_555 1_555
C15 C10 1_555 1_555
C16 O2 1_555 1_555
C17 O3 1_555 1_555
C18 C8 1_555 1_555
C19 C18 1_555 1_555
C20 C19 1_555 1_555
C21 C20 1_555 1_555
C22 C21 1_555 1_555
C23 C18 1_555 1_555
C24 C14 1_555 1_555
C25 C11 1_555 1_555
C26 C25 1_555 1_555
C27 C25 1_555 1_555
C28 C25 1_555 1_555
C29 C28 1_555 1_555
C30 C29 1_555 1_555
C31 C30 1_555 1_555
C32 C31 1_555 1_555
C33 C28 1_555 1_555
H1 O5 1_555 1_555
H2 C1 1_555 1_555
H3 C4 1_555 1_555
H4 C5 1_555 1_555
H5 C5 1_555 1_555
H6 C6 1_555 1_555
H7 C7 1_555 1_555
H8 C8 1_555 1_555
H9 C8 1_555 1_555
H10 C10 1_555 1_555
H11 C11 1_555 1_555
H12 C12 1_555 1_555
H13 C12 1_555 1_555
H14 C13 1_555 1_555
H15 C13 1_555 1_555
H16 C14 1_555 1_555
H17 C15 1_555 1_555
H18 C15 1_555 1_555
H19 C16 1_555 1_555
H20 C16 1_555 1_555
H21 C17 1_555 1_555
H22 C17 1_555 1_555
H23 C19 1_555 1_555
H24 C20 1_555 1_555
H25 C21 1_555 1_555
H26 C22 1_555 1_555
H27 C23 1_555 1_555
H28 C24 1_555 1_555
H29 C24 1_555 1_555
H30 C26 1_555 1_555
H31 C26 1_555 1_555
H32 C26 1_555 1_555
H33 C27 1_555 1_555
H34 C27 1_555 1_555
H35 C27 1_555 1_555
H36 C29 1_555 1_555
H37 C30 1_555 1_555
H38 C31 1_555 1_555
H39 C32 1_555 1_555
H40 C33 1_555 1_555
H41 C24 1_555 1_555
H42 C17 1_555 1_555
H43 O4 1_555 1_555
C6 C7 1_555 1_555
C14 C15 1_555 1_555
C22 C23 1_555 1_555
C32 C33 1_555 1_555

#END
