
#######################################################################
#
#                 Cambridge Crystallographic Data Centre
#                                CCDC 
#
#######################################################################
#
# If this CIF has been generated from an entry in the Cambridge 
# Structural Database, then it will include bibliographic, chemical, 
# crystal, experimental, refinement or atomic coordinate data resulting 
# from the CCDC's data processing and validation procedures.
#
#######################################################################

data_UNICEZ
_chemical_formula_moiety         'C27 H33 N1 O11 S1'
_chemical_name_systematic        
3-O-((1S,4R,5S)-4-Hydroxy-2-((4-methylphenyl)sulfonyl)-3-oxo-2-azabicyclo(2.2.2)oct-7-ene-5-carbonyl)-1,2:4,5-di-O-isopropylidene-\b-D-fructopyranose
_symmetry_cell_setting           monoclinic
_symmetry_space_group_name_H-M   'P 21'
_symmetry_Int_Tables_number      4
_space_group_name_Hall           'P 2yb'
loop_
_symmetry_equiv_pos_site_id
_symmetry_equiv_pos_as_xyz
1 x,y,z
2 -x,1/2+y,-z
_cell_length_a                   11.561(4)
_cell_length_b                   6.567(5)
_cell_length_c                   18.873(15)
_cell_angle_alpha                90
_cell_angle_beta                 96.25(5)
_cell_angle_gamma                90
_cell_volume                     1424.34
_exptl_crystal_colour            colorless
_exptl_crystal_description       prism
_chemical_melting_point          184.5deg.C
_cell_formula_units_Z            2
loop_
_atom_site_label
_atom_site_type_symbol
_atom_site_fract_x
_atom_site_fract_y
_atom_site_fract_z
C1 C 0.5675(2) 0.0969(5) 0.60730(14)
H1 H 0.5666 0.0549 0.5574
N1 N 0.4518(2) 0.1741(4) 0.62261(13)
C2 C 0.4446(2) 0.2227(6) 0.69369(15)
C3 C 0.5613(2) 0.1859(5) 0.73743(14)
C4 C 0.6436(2) 0.3401(5) 0.70284(15)
H2 H 0.6060 0.4740 0.7001
C5 C 0.6568(3) 0.2687(5) 0.62655(15)
H3 H 0.7351 0.2186 0.6237
H4 H 0.6427 0.3813 0.5935
C6 C 0.5999(3) -0.0759(5) 0.65725(16)
H5 H 0.6183 -0.2049 0.6416
C7 C 0.6000(3) -0.0301(5) 0.72497(17)
H6 H 0.6218 -0.1215 0.7617
O1 O 0.5549(2) 0.2252(5) 0.80956(10)
H7 H 0.500(5) 0.312(11) 0.811(3)
O2 O 0.36105(19) 0.2911(5) 0.71778(13)
C8 C 0.7296(3) 0.4239(5) 0.93818(17)
H8 H 0.7307 0.3109 0.9052
H9 H 0.7656 0.3806 0.9846
C9 C 0.7940(2) 0.6072(5) 0.91159(15)
C10 C 0.8501(2) 0.5748(5) 0.84256(15)
H10 H 0.9027 0.4574 0.8481
C11 C 0.9167(2) 0.7604(6) 0.82155(17)
H11 H 0.8629 0.8613 0.7983
C12 C 0.9899(3) 0.8563(6) 0.8852(2)
H12 H 1.0081 0.9975 0.8739
C13 C 0.9363(3) 0.8504(7) 0.9541(2)
H13 H 0.9961 0.8771 0.9932
H14 H 0.8784 0.9573 0.9539
C14 C 0.7565(2) 0.3571(5) 0.75103(15)
O3 O 0.75744(16) 0.5335(3) 0.78671(10)
O4 O 0.8325(2) 0.2332(4) 0.75760(14)
O5 O 0.70803(16) 0.7593(4) 0.89975(11)
O6 O 0.6151(2) 0.4898(4) 0.94252(16)
C15 C 0.6160(3) 0.7082(6) 0.94224(17)
C16 C 0.5034(3) 0.7789(8) 0.9028(2)
H15 H 0.4408 0.7509 0.9308
H16 H 0.4901 0.7083 0.8581
H17 H 0.5074 0.9227 0.8943
C17 C 0.6401(4) 0.7945(9) 1.0159(2)
H18 H 0.7099 0.7348 1.0393
H19 H 0.5761 0.7646 1.0426
H20 H 0.6498 0.9393 1.0131
O7 O 1.00112(16) 0.7058(5) 0.77587(11)
O8 O 1.09320(16) 0.7364(5) 0.88818(12)
C18 C 1.1133(3) 0.6929(7) 0.81735(19)
C19 C 1.1584(4) 0.4775(10) 0.8153(2)
H21 H 1.1034 0.3861 0.8329
H22 H 1.2315 0.4677 0.8446
H23 H 1.1690 0.4418 0.7671
C20 C 1.1930(4) 0.8475(12) 0.7881(3)
H24 H 1.2685 0.8409 0.8147
H25 H 1.1612 0.9816 0.7921
H26 H 1.1996 0.8179 0.7389
S1 S 0.34727(7) 0.24274(13) 0.55877(4)
O9 O 0.3257(3) 0.4548(5) 0.56505(18)
O10 O 0.3865(2) 0.1661(4) 0.49489(11)
C21 C 0.2233(3) 0.1087(5) 0.57771(16)
C22 C 0.1076(3) -0.1916(7) 0.5646(2)
H27 H 0.0972 -0.3250 0.5485
C23 C 0.2098(3) -0.0917(6) 0.55488(19)
H28 H 0.2684 -0.1572 0.5335
C24 C 0.0199(3) -0.0986(8) 0.59762(19)
C25 C 0.0372(3) 0.0990(9) 0.6207(2)
H29 H -0.0203 0.1627 0.6435
C26 C 0.1376(3) 0.2059(7) 0.61117(18)
H30 H 0.1473 0.3397 0.6268
C27 C -0.0908(3) -0.2113(9) 0.60767(11)
H31 H -0.0803 -0.3539 0.5993
H32 H -0.1531 -0.1602 0.5746
H33 H -0.1096 -0.1915 0.6555
O11 O 0.88280(16) 0.6590(4) 0.96562(11)
loop_
_geom_bond_atom_site_label_1
_geom_bond_atom_site_label_2
_geom_bond_site_symmetry_1
_geom_bond_site_symmetry_2
C1 H1 1_555 1_555
N1 C1 1_555 1_555
C2 N1 1_555 1_555
C3 C2 1_555 1_555
C4 C3 1_555 1_555
H2 C4 1_555 1_555
C5 C1 1_555 1_555
H3 C5 1_555 1_555
H4 C5 1_555 1_555
C6 C1 1_555 1_555
H5 C6 1_555 1_555
C7 C3 1_555 1_555
H6 C7 1_555 1_555
O1 C3 1_555 1_555
H7 O1 1_555 1_555
O2 C2 1_555 1_555
C8 H8 1_555 1_555
H9 C8 1_555 1_555
C9 C8 1_555 1_555
C10 C9 1_555 1_555
H10 C10 1_555 1_555
C11 C10 1_555 1_555
H11 C11 1_555 1_555
C12 C11 1_555 1_555
H12 C12 1_555 1_555
C13 C12 1_555 1_555
H13 C13 1_555 1_555
H14 C13 1_555 1_555
C14 C4 1_555 1_555
O3 C10 1_555 1_555
O4 C14 1_555 1_555
O5 C9 1_555 1_555
O6 C8 1_555 1_555
C15 O5 1_555 1_555
C16 C15 1_555 1_555
H15 C16 1_555 1_555
H16 C16 1_555 1_555
H17 C16 1_555 1_555
C17 C15 1_555 1_555
H18 C17 1_555 1_555
H19 C17 1_555 1_555
H20 C17 1_555 1_555
O7 C11 1_555 1_555
O8 C12 1_555 1_555
C18 O7 1_555 1_555
C19 C18 1_555 1_555
H21 C19 1_555 1_555
H22 C19 1_555 1_555
H23 C19 1_555 1_555
C20 C18 1_555 1_555
H24 C20 1_555 1_555
H25 C20 1_555 1_555
H26 C20 1_555 1_555
S1 N1 1_555 1_555
O9 S1 1_555 1_555
O10 S1 1_555 1_555
C21 S1 1_555 1_555
C22 H27 1_555 1_555
C23 C21 1_555 1_555
H28 C23 1_555 1_555
C24 C22 1_555 1_555
C25 C24 1_555 1_555
H29 C25 1_555 1_555
C26 C21 1_555 1_555
H30 C26 1_555 1_555
C27 C24 1_555 1_555
H31 C27 1_555 1_555
H32 C27 1_555 1_555
H33 C27 1_555 1_555
O11 C9 1_555 1_555
C4 C5 1_555 1_555
C6 C7 1_555 1_555
C13 O11 1_555 1_555
C14 O3 1_555 1_555
O6 C15 1_555 1_555
O8 C18 1_555 1_555
C22 C23 1_555 1_555
C25 C26 1_555 1_555

#END
