
#######################################################################
#
#                 Cambridge Crystallographic Data Centre
#                                CCDC 
#
#######################################################################
#
# If this CIF has been generated from an entry in the Cambridge 
# Structural Database, then it will include bibliographic, chemical, 
# crystal, experimental, refinement or atomic coordinate data resulting 
# from the CCDC's data processing and validation procedures.
#
#######################################################################

data_UNIDAW
_chemical_formula_moiety         'C37 H47 N1 O9'
_chemical_name_systematic        
'(1R,2S,5R)-5-Methyl-2-(1-methyl-1-phenylethyl)cyclohexyl (1R,4R,5S,7S,8R)-7,8-diacetoxy-2-benzyl-4-(methoxymethoxy)-3-oxo-2-azabicyclo(2.2.2)octane-5-carboxylate'
_symmetry_cell_setting           orthorhombic
_symmetry_space_group_name_H-M   'P 21 21 21'
_symmetry_Int_Tables_number      19
_space_group_name_Hall           'P 2ac 2ab'
loop_
_symmetry_equiv_pos_site_id
_symmetry_equiv_pos_as_xyz
1 x,y,z
2 1/2-x,-y,1/2+z
3 1/2+x,1/2-y,-z
4 -x,1/2+y,1/2-z
_cell_length_a                   9.575(2)
_cell_length_b                   13.034(2)
_cell_length_c                   28.313(3)
_cell_angle_alpha                90
_cell_angle_beta                 90
_cell_angle_gamma                90
_cell_volume                     3533.48
_exptl_crystal_colour            colorless
_exptl_crystal_description       prism
_chemical_melting_point          174.5deg.C
_cell_formula_units_Z            4
_exptl_crystal_recrystallization_method dichloromethane/hexane
loop_
_atom_site_label
_atom_site_type_symbol
_atom_site_fract_x
_atom_site_fract_y
_atom_site_fract_z
O1 O 0.54335(17) 0.99533(19) 0.41910(6)
O2 O 0.4895(3) 0.9799(2) 0.49473(8)
O3 O 0.88906(17) 1.07883(15) 0.42518(6)
O4 O 0.7380(3) 1.1968(2) 0.45039(11)
O5 O 1.06539(18) 0.87936(16) 0.38263(7)
O6 O 0.92596(18) 1.01478(13) 0.32336(5)
O7 O 0.9482(2) 1.18983(14) 0.33916(7)
O8 O 0.8490(3) 0.78708(17) 0.28581(7)
O9 O 0.74700(17) 0.92153(13) 0.25019(5)
N1 N 0.8586(2) 0.83380(18) 0.41694(7)
C1 C 0.7073(2) 0.8538(2) 0.41533(8)
H1 H 0.6580 0.8095 0.4378
C2 C 0.9389(2) 0.8874(2) 0.38641(8)
C3 C 0.8499(2) 0.96528(19) 0.35913(8)
C4 C 0.7802(2) 1.0332(2) 0.39693(8)
H2 H 0.7243 1.0869 0.3818
C5 C 0.6866(2) 0.9657(2) 0.42821(8)
H3 H 0.7093 0.9767 0.4616
C6 C 0.6576(3) 0.8327(2) 0.36495(8)
H4 H 0.5568 0.8386 0.3631
H5 H 0.6839 0.7638 0.3554
C7 C 0.7271(2) 0.9120(2) 0.33261(7)
H6 H 0.6577 0.9643 0.3242
C8 C 0.9164(3) 0.7584(2) 0.44946(9)
H7 H 1.0092 0.7392 0.4389
H8 H 0.8585 0.6974 0.4490
C9 C 0.7829(3) 0.8643(2) 0.28738(8)
C10 C 0.9916(3) 0.9715(3) 0.14868(11)
H9 H 1.0371 0.9044 0.1459
C11 C 0.9235(3) 0.9776(2) 0.19721(10)
H10 H 0.9946 0.9681 0.2212
H11 H 0.8840 1.0455 0.2014
C12 C 0.8092(2) 0.8983(2) 0.20456(8)
H12 H 0.8503 0.8295 0.2053
C13 C 0.6947(2) 0.9027(2) 0.16698(8)
H13 H 0.6506 0.9703 0.1693
C14 C 0.7670(3) 0.8972(3) 0.11829(9)
H14 H 0.8088 0.8299 0.1146
H15 H 0.6969 0.9050 0.0938
C15 C 0.8789(3) 0.9779(3) 0.11121(10)
H16 H 0.8363 1.0454 0.1122
H17 H 0.9209 0.9690 0.0803
C16 C 1.1032(4) 1.0541(4) 0.14271(16)
H18 H 1.0616 1.1206 0.1466
H19 H 1.1435 1.0490 0.1117
H20 H 1.1748 1.0447 0.1661
C17 C 0.5766(3) 0.8204(2) 0.17381(8)
C18 C 0.4768(4) 0.8209(3) 0.13111(10)
H21 H 0.4416 0.8891 0.1263
H22 H 0.4004 0.7750 0.1370
H23 H 0.5263 0.7990 0.1034
C19 C 0.6403(4) 0.7125(2) 0.17747(14)
H24 H 0.5674 0.6621 0.1756
H25 H 0.6883 0.7057 0.2071
H26 H 0.7051 0.7022 0.1520
C20 C 0.4851(3) 0.8452(2) 0.21700(8)
C21 C 0.4545(3) 0.7723(3) 0.25107(10)
H27 H 0.4972 0.7083 0.2500
C22 C 0.3604(4) 0.7947(5) 0.28658(12)
H28 H 0.3405 0.7446 0.3090
C23 C 0.2960(4) 0.8872(5) 0.28996(13)
H29 H 0.2335 0.9008 0.3143
C24 C 0.3258(4) 0.9603(4) 0.25630(15)
H30 H 0.2827 1.0241 0.2577
C25 C 0.4195(3) 0.9391(3) 0.22052(12)
H31 H 0.4389 0.9895 0.1982
C26 C 0.9252(3) 0.79806(19) 0.49922(8)
C27 C 0.8479(3) 0.7545(3) 0.53477(10)
H32 H 0.7879 0.7005 0.5278
C28 C 0.8577(4) 0.7897(3) 0.58091(10)
H33 H 0.8034 0.7604 0.6046
C29 C 0.9477(4) 0.8675(3) 0.59113(11)
H34 H 0.9565 0.8905 0.6221
C30 C 1.0258(4) 0.9123(3) 0.55575(12)
H35 H 1.0869 0.9655 0.5629
C31 C 1.0136(3) 0.8786(2) 0.50963(11)
H36 H 1.0647 0.9100 0.4857
C32 C 0.4573(3) 1.0028(2) 0.45593(10)
C33 C 0.3163(3) 1.0393(3) 0.44053(15)
H37 H 0.2572 1.0473 0.4677
H38 H 0.2759 0.9900 0.4194
H39 H 0.3255 1.1041 0.4247
C34 C 0.8531(4) 1.1643(3) 0.44905(11)
C35 C 0.9781(4) 1.2096(4) 0.47312(16)
H40 H 1.0066 1.1656 0.4986
H41 H 0.9547 1.2760 0.4854
H42 H 1.0531 1.2160 0.4508
C36 C 1.0173(2) 1.0969(2) 0.33397(9)
H43 H 1.0670 1.0814 0.3630
H44 H 1.0857 1.1031 0.3089
C37 C 0.8775(3) 1.2200(3) 0.29714(12)
H45 H 0.8022 1.1732 0.2910
H46 H 0.9418 1.2189 0.2711
H47 H 0.8410 1.2880 0.3010
loop_
_geom_bond_atom_site_label_1
_geom_bond_atom_site_label_2
_geom_bond_site_symmetry_1
_geom_bond_site_symmetry_2
O1 C5 1_555 1_555
O2 C32 1_555 1_555
O3 C4 1_555 1_555
O4 C34 1_555 1_555
O5 C2 1_555 1_555
O6 C3 1_555 1_555
O7 C36 1_555 1_555
O8 C9 1_555 1_555
O9 C9 1_555 1_555
N1 C1 1_555 1_555
C1 H1 1_555 1_555
C2 N1 1_555 1_555
C3 C2 1_555 1_555
C4 C3 1_555 1_555
H2 C4 1_555 1_555
C5 C1 1_555 1_555
H3 C5 1_555 1_555
C6 C1 1_555 1_555
H4 C6 1_555 1_555
H5 C6 1_555 1_555
C7 C3 1_555 1_555
H6 C7 1_555 1_555
C8 N1 1_555 1_555
H7 C8 1_555 1_555
H8 C8 1_555 1_555
C9 C7 1_555 1_555
C10 H9 1_555 1_555
C11 C10 1_555 1_555
H10 C11 1_555 1_555
H11 C11 1_555 1_555
C12 O9 1_555 1_555
H12 C12 1_555 1_555
C13 C12 1_555 1_555
H13 C13 1_555 1_555
C14 C13 1_555 1_555
H14 C14 1_555 1_555
H15 C14 1_555 1_555
C15 C10 1_555 1_555
H16 C15 1_555 1_555
H17 C15 1_555 1_555
C16 C10 1_555 1_555
H18 C16 1_555 1_555
H19 C16 1_555 1_555
H20 C16 1_555 1_555
C17 C13 1_555 1_555
C18 C17 1_555 1_555
H21 C18 1_555 1_555
H22 C18 1_555 1_555
H23 C18 1_555 1_555
C19 C17 1_555 1_555
H24 C19 1_555 1_555
H25 C19 1_555 1_555
H26 C19 1_555 1_555
C20 C17 1_555 1_555
C21 C20 1_555 1_555
H27 C21 1_555 1_555
C22 C21 1_555 1_555
H28 C22 1_555 1_555
C23 C22 1_555 1_555
H29 C23 1_555 1_555
C24 C23 1_555 1_555
H30 C24 1_555 1_555
C25 C20 1_555 1_555
H31 C25 1_555 1_555
C26 C8 1_555 1_555
C27 C26 1_555 1_555
H32 C27 1_555 1_555
C28 C27 1_555 1_555
H33 C28 1_555 1_555
C29 C28 1_555 1_555
H34 C29 1_555 1_555
C30 C29 1_555 1_555
H35 C30 1_555 1_555
C31 C26 1_555 1_555
H36 C31 1_555 1_555
C32 O1 1_555 1_555
C33 C32 1_555 1_555
H37 C33 1_555 1_555
H38 C33 1_555 1_555
H39 C33 1_555 1_555
C34 O3 1_555 1_555
C35 C34 1_555 1_555
H40 C35 1_555 1_555
H41 C35 1_555 1_555
H42 C35 1_555 1_555
C36 O6 1_555 1_555
H43 C36 1_555 1_555
H44 C36 1_555 1_555
C37 O7 1_555 1_555
H45 C37 1_555 1_555
H46 C37 1_555 1_555
H47 C37 1_555 1_555
C4 C5 1_555 1_555
C6 C7 1_555 1_555
C11 C12 1_555 1_555
C14 C15 1_555 1_555
C24 C25 1_555 1_555
C30 C31 1_555 1_555

#END
