
#######################################################################
#
#                 Cambridge Crystallographic Data Centre
#                                CCDC 
#
#######################################################################
#
# If this CIF has been generated from an entry in the Cambridge 
# Structural Database, then it will include bibliographic, chemical, 
# crystal, experimental, refinement or atomic coordinate data resulting 
# from the CCDC's data processing and validation procedures.
#
#######################################################################

data_UNIDUQ
_chemical_name_common            
"2,8,14,20-Tetrapentyl-O,O'-6,10:12,16:18,22:24,4-O,O'-tetrakis(quinoxaline-2,3-diyl)calix(4)resorcinarene dichloromethane clathrate acetonitrile solvate"
_chemical_formula_moiety         'C80 H72 N8 O8,C1 H2 Cl2,2(C2 H3 N1)'
_chemical_name_systematic        
'61,65,69,73-Tetrapentyl-2,13,17,28,32,43,47,58-octaoxa-4,11,19,26,34,41,49,56-octa-azaheptadecacyclo(57.15.1.1^60,74^.0^3,12^.0^5,10^.0^14,72^.0^16,70^.0^18,27^.0^20,25^.0^29,68^.0^31,66^.0^33,42^.0^35,40^.0^44,64^.0^46,62^.0^48,57^.0^50,55^)hexaheptaconta-1(74),3,5(10),11,14,16(70),18,20(25),21,23,26,29(68),30,33,35(40),36,38,41,44(64),45,48,50(55),51,53,56,59(75),60(76),62,66,71-triacontaene dichloromethane clathrate acetonitrile solvate'
_symmetry_cell_setting           monoclinic
_symmetry_space_group_name_H-M   'C 2/c'
_symmetry_Int_Tables_number      15
_space_group_name_Hall           '-C 2yn'
loop_
_symmetry_equiv_pos_site_id
_symmetry_equiv_pos_as_xyz
1 x,y,z
2 1/2+x,1/2+y,z
3 x,-y,1/2+z
4 1/2+x,1/2-y,1/2+z
5 -x,-y,-z
6 1/2-x,1/2-y,-z
7 -x,y,1/2-z
8 1/2-x,1/2+y,1/2-z
_cell_length_a                   19.007(14)
_cell_length_b                   17.623(13)
_cell_length_c                   24.570(22)
_cell_angle_alpha                90
_cell_angle_beta                 109.63(6)
_cell_angle_gamma                90
_cell_volume                     7751.66
_exptl_crystal_colour            colorless
_exptl_crystal_description       prism
_cell_formula_units_Z            4
loop_
_atom_site_label
_atom_site_type_symbol
_atom_site_fract_x
_atom_site_fract_y
_atom_site_fract_z
Cl1 Cl 0.00283(13) 0.40188(14) 0.19266(8)
C39 C 0.0000 0.3497(5) 0.2500
H37 H 0.0433 0.3176(5) 0.2624
Cl1F Cl -0.00283(13) 0.40188(14) 0.30734(8)
H37F H -0.0433 0.3176(5) 0.2376
N5 N 1.0000 0.0124(6) 0.2500
C45 C 0.9646(8) -0.0407(7) 0.2423(6)
C47 C 0.9196(14) -0.1125(10) 0.2344(8)
C45F C 1.0354(8) -0.0407(7) 0.2577(6)
C47F C 1.0804(14) -0.1125(10) 0.2656(8)
N6 N 0.4733(23) -0.2288(13) 0.7763(16)
C44 C 0.5000 -0.0916(12) 0.7500
C46 C 0.4802(16) -0.1660(13) 0.7699(13)
C46F C 0.5198(16) -0.1660(13) 0.7301(13)
N6F N 0.5267(23) -0.2288(13) 0.7237(16)
O1 O 0.39756(15) 0.20733(14) 0.91936(10)
O2 O 0.28642(15) 0.19755(15) 0.81665(11)
O3 O 0.6612(2) 0.19226(15) 0.95635(11)
C1 C 0.5194(2) 0.3173(2) 0.86080(15)
H1 H 0.5160(2) 0.3580(2) 0.83408(15)
C2 C 0.3459(2) 0.2905(2) 0.7761(2)
C3 C 0.4540(2) 0.2926(2) 0.86862(14)
C4 C 0.3581(2) 0.3189(2) 0.7268(2)
H2 H 0.3882(2) 0.3637(2) 0.7308(2)
C5 C 0.3032(2) 0.2249(2) 0.7688(2)
C6 C 0.6595(2) 0.3189(2) 0.8809(2)
H3 H 0.7011(2) 0.3019(2) 0.9132(2)
N1 N 0.4073(2) 0.0767(2) 0.92546(14)
N2 N 0.3000(2) 0.0678(2) 0.81406(15)
C7 C 0.3345(2) 0.0038(2) 0.8425(2)
C8 C 0.2747(2) 0.1881(2) 0.7163(2)
H4 H 0.2458(2) 0.1426(2) 0.7130(2)
C9 C 0.3784(2) 0.3283(2) 0.8352(2)
H5 H 0.3452(2) 0.3173(2) 0.8562(2)
N3 N 0.6381(2) 0.0637(2) 0.94757(15)
C10 C 0.5295(2) 0.2017(2) 0.9375(2)
H6 H 0.5331(2) 0.1616(2) 0.9648(2)
C11 C 0.4613(2) 0.2342(2) 0.90809(15)
C12 C 0.3763(2) 0.1358(2) 0.8963(2)
C13 C 0.3202(2) 0.1311(2) 0.8405(2)
C14 C 0.6622(2) 0.4056(2) 0.8811(2)
H7 H 0.6200(2) 0.4243(2) 0.8501(2)
H8 H 0.7064(2) 0.4210(2) 0.8734(2)
C15 C 0.5897(2) 0.2874(2) 0.88960(15)
C16 C 0.3860(2) 0.0079(2) 0.8989(2)
C17 C 0.5922(2) 0.2277(2) 0.92721(15)
C18 C 0.6682(2) 0.1224(2) 0.9333(2)
C19 C 0.3831(2) 0.4150(2) 0.8316(2)
H9 H 0.3354(2) 0.4345(2) 0.8080(2)
H10 H 0.4187(2) 0.4271(2) 0.8129(2)
C20 C 0.3181(3) -0.0676(3) 0.8157(2)
H11 H 0.2837(3) -0.0707(3) 0.7769(2)
C21 C 0.4065(3) 0.4546(2) 0.8898(2)
H12 H 0.4531(3) 0.4339(2) 0.9142(2)
H13 H 0.3697(3) 0.4450(2) 0.9078(2)
C22 C 0.6474(3) -0.0039(2) 0.9232(2)
C23 C 0.6632(3) 0.4411(2) 0.9374(2)
H14 H 0.7034(3) 0.4213(2) 0.9695(2)
H15 H 0.6170(3) 0.4310(2) 0.9439(2)
C24 C 0.4177(3) -0.0582(3) 0.9277(2)
H16 H 0.4526(3) -0.0559(3) 0.9663(2)
C25 C 0.4156(3) 0.5393(2) 0.8848(2)
H17 H 0.3689(3) 0.5595(2) 0.8601(2)
H18 H 0.4524(3) 0.5485(2) 0.8667(2)
C26 C 0.6176(3) -0.0701(3) 0.9377(3)
H19 H 0.5900(3) -0.0681(3) 0.9641(3)
C27 C 0.3510(3) -0.1314(3) 0.8442(3)
H20 H 0.3401(3) -0.1797(3) 0.8252(3)
C28 C 0.3994(3) -0.1266(3) 0.9002(2)
H21 H 0.4201(3) -0.1724(3) 0.9203(2)
C29 C 0.4374(4) 0.5819(3) 0.9400(2)
H22 H 0.4834(4) 0.5606(3) 0.9650(2)
H23 H 0.3999(4) 0.5737(3) 0.9576(2)
C30 C 0.6271(4) -0.1375(3) 0.9136(3)
H24 H 0.6065(4) -0.1830(3) 0.9235(3)
C31 C 0.4473(4) 0.6654(3) 0.9345(3)
H25 H 0.4616(4) 0.6882(3) 0.9721(3)
H26 H 0.4855(4) 0.6742(3) 0.9178(3)
H27 H 0.4012(4) 0.6874(3) 0.9102(3)
C32 C 0.7093(2) 0.1187(2) 0.8947(2)
C33 C 0.6869(3) -0.0074(3) 0.8839(2)
C34 C 0.6662(4) -0.1414(3) 0.8753(3)
H28 H 0.6738(4) -0.1896(3) 0.8598(3)
O4 O 0.74237(14) 0.1842(2) 0.88515(11)
N4 N 0.7180(2) 0.0564(2) 0.8700(2)
C35 C 0.6945(3) -0.0774(3) 0.8601(3)
H29 H 0.7203(3) -0.0803(3) 0.8327(3)
C36 C 0.6628(5) 0.5264(4) 0.9380(4)
H30 H 0.6274(5) 0.5440(4) 0.9023(4)
H31 H 0.7121(5) 0.5363(4) 0.9371(4)
C37 C 0.6770(11) 0.6617(7) 0.9674(8)
H32 H 0.6766(11) 0.7066(7) 0.9894(8)
H33 H 0.7263(11) 0.6540(7) 0.9658(8)
H34 H 0.6423(11) 0.6676(7) 0.9289(8)
C38 C 0.6685(8) 0.5773(7) 0.9771(5)
H35 H 0.7032(8) 0.5645(7) 1.0144(5)
H36 H 0.6179(8) 0.5783(7) 0.9769(5)
C40 C 0.2891(2) 0.2185(2) 0.6694(2)
C41 C 0.3298(2) 0.2849(2) 0.6726(2)
C41F C 0.6702(2) 0.2849(2) 0.8274(2)
C4F C 0.6419(2) 0.3189(2) 0.7732(2)
C2F C 0.6541(2) 0.2905(2) 0.7239(2)
C5F C 0.6968(2) 0.2249(2) 0.7312(2)
O2F O 0.71358(15) 0.19755(15) 0.68335(11)
C13F C 0.6798(2) 0.1311(2) 0.6595(2)
N2F N 0.7000(2) 0.0678(2) 0.68594(15)
C7F C 0.6655(2) 0.0038(2) 0.6575(2)
C16F C 0.6140(2) 0.0079(2) 0.6011(2)
N1F N 0.5927(2) 0.0767(2) 0.57454(14)
C12F C 0.6237(2) 0.1358(2) 0.6037(2)
O1F O 0.60244(15) 0.20733(14) 0.58064(10)
C11F C 0.5387(2) 0.2342(2) 0.59191(15)
C3F C 0.5460(2) 0.2926(2) 0.63138(14)
C1F C 0.4806(2) 0.3173(2) 0.63920(15)
H1F H 0.4840(2) 0.3580(2) 0.66592(15)
C15F C 0.4103(2) 0.2874(2) 0.61040(15)
C6F C 0.3405(2) 0.3189(2) 0.6191(2)
H3F H 0.2989(2) 0.3019(2) 0.5868(2)
C14F C 0.3378(2) 0.4056(2) 0.6189(2)
H7F H 0.3800(2) 0.4243(2) 0.6499(2)
H8F H 0.2936(2) 0.4210(2) 0.6266(2)
C23F C 0.3368(3) 0.4411(2) 0.5626(2)
H14F H 0.2966(3) 0.4213(2) 0.5305(2)
H15F H 0.3830(3) 0.4310(2) 0.5561(2)
C36F C 0.3372(5) 0.5264(4) 0.5620(4)
H30F H 0.3726(5) 0.5440(4) 0.5977(4)
H31F H 0.2879(5) 0.5363(4) 0.5629(4)
C38F C 0.3315(8) 0.5773(7) 0.5229(5)
C37F C 0.3230(11) 0.6617(7) 0.5326(8)
H32F H 0.3234(11) 0.7066(7) 0.5106(8)
H33F H 0.2737(11) 0.6540(7) 0.5342(8)
H34F H 0.3577(11) 0.6676(7) 0.5711(8)
H35F H 0.2968(8) 0.5645(7) 0.4856(5)
H36F H 0.3821(8) 0.5783(7) 0.5231(5)
O4F O 0.25763(14) 0.1842(2) 0.61485(11)
C32F C 0.2907(2) 0.1187(2) 0.6053(2)
C18F C 0.3318(2) 0.1224(2) 0.5667(2)
O3F O 0.3388(2) 0.19226(15) 0.54365(11)
C17F C 0.4078(2) 0.2277(2) 0.57279(15)
C10F C 0.4705(2) 0.2017(2) 0.5625(2)
H6F H 0.4669(2) 0.1616(2) 0.5352(2)
N3F N 0.3619(2) 0.0637(2) 0.55243(15)
C22F C 0.3526(3) -0.0039(2) 0.5768(2)
C26F C 0.3824(3) -0.0701(3) 0.5623(3)
H19F H 0.4100(3) -0.0681(3) 0.5359(3)
C30F C 0.3729(4) -0.1375(3) 0.5864(3)
H24F H 0.3935(4) -0.1830(3) 0.5765(3)
C34F C 0.3338(4) -0.1414(3) 0.6247(3)
H28F H 0.3262(4) -0.1896(3) 0.6402(3)
C35F C 0.3055(3) -0.0774(3) 0.6399(3)
C33F C 0.3131(3) -0.0074(3) 0.6161(2)
N4F N 0.2820(2) 0.0564(2) 0.6300(2)
H29F H 0.2797(3) -0.0803(3) 0.6673(3)
C9F C 0.6216(2) 0.3283(2) 0.6648(2)
H5F H 0.6548(2) 0.3173(2) 0.6438(2)
C19F C 0.6169(2) 0.4150(2) 0.6684(2)
H9F H 0.6646(2) 0.4345(2) 0.6920(2)
H10F H 0.5813(2) 0.4271(2) 0.6871(2)
C21F C 0.5935(3) 0.4546(2) 0.6102(2)
H12F H 0.5469(3) 0.4339(2) 0.5858(2)
H13F H 0.6303(3) 0.4450(2) 0.5922(2)
C25F C 0.5844(3) 0.5393(2) 0.6152(2)
H17F H 0.6311(3) 0.5595(2) 0.6399(2)
H18F H 0.5476(3) 0.5485(2) 0.6333(2)
C29F C 0.5626(4) 0.5819(3) 0.5600(2)
H22F H 0.5166(4) 0.5606(3) 0.5350(2)
H23F H 0.6001(4) 0.5737(3) 0.5424(2)
C31F C 0.5527(4) 0.6654(3) 0.5655(3)
H25F H 0.5384(4) 0.6882(3) 0.5279(3)
H26F H 0.5145(4) 0.6742(3) 0.5822(3)
H27F H 0.5988(4) 0.6874(3) 0.5898(3)
C24F C 0.5823(3) -0.0582(3) 0.5723(2)
H16F H 0.5474(3) -0.0559(3) 0.5337(2)
C28F C 0.6006(3) -0.1266(3) 0.5998(2)
C27F C 0.6490(3) -0.1314(3) 0.6558(3)
C20F C 0.6819(3) -0.0676(3) 0.6843(2)
H11F H 0.7163(3) -0.0707(3) 0.7231(2)
H20F H 0.6599(3) -0.1797(3) 0.6748(3)
H21F H 0.5799(3) -0.1724(3) 0.5797(2)
C8F C 0.7253(2) 0.1881(2) 0.7837(2)
H4F H 0.7542(2) 0.1426(2) 0.7870(2)
C40F C 0.7109(2) 0.2185(2) 0.8306(2)
H2F H 0.6118(2) 0.3637(2) 0.7692(2)
C42? C 0.7058(10) 0.5726(7) 0.9262(8)
C43? C 0.6931(12) 0.6552(8) 0.9303(9)
loop_
_geom_bond_atom_site_label_1
_geom_bond_atom_site_label_2
_geom_bond_site_symmetry_1
_geom_bond_site_symmetry_2
O1 C11 1_555 1_555
O2 C5 1_555 1_555
O3 C17 1_555 1_555
C1 H1 1_555 1_555
C2 C4 1_555 1_555
C3 C1 1_555 1_555
C4 H2 1_555 1_555
C5 C2 1_555 1_555
C6 H3 1_555 1_555
N1 C12 1_555 1_555
N2 C7 1_555 1_555
C7 C16 1_555 1_555
C8 C5 1_555 1_555
H4 C8 1_555 1_555
C9 C2 1_555 1_555
H5 C9 1_555 1_555
N3 C18 1_555 1_555
C10 H6 1_555 1_555
C11 C3 1_555 1_555
C12 O1 1_555 1_555
C13 O2 1_555 1_555
C14 C6 1_555 1_555
H7 C14 1_555 1_555
H8 C14 1_555 1_555
C15 C1 1_555 1_555
C16 N1 1_555 1_555
C17 C10 1_555 1_555
C18 O3 1_555 1_555
C19 C9 1_555 1_555
H9 C19 1_555 1_555
H10 C19 1_555 1_555
C20 C7 1_555 1_555
H11 C20 1_555 1_555
C21 C19 1_555 1_555
H12 C21 1_555 1_555
H13 C21 1_555 1_555
C22 N3 1_555 1_555
C23 C14 1_555 1_555
H14 C23 1_555 1_555
H15 C23 1_555 1_555
C24 C16 1_555 1_555
H16 C24 1_555 1_555
C25 C21 1_555 1_555
H17 C25 1_555 1_555
H18 C25 1_555 1_555
C26 C22 1_555 1_555
H19 C26 1_555 1_555
C27 C20 1_555 1_555
H20 C27 1_555 1_555
C28 C24 1_555 1_555
H21 C28 1_555 1_555
C29 C25 1_555 1_555
H22 C29 1_555 1_555
H23 C29 1_555 1_555
C30 C26 1_555 1_555
H24 C30 1_555 1_555
C31 C29 1_555 1_555
H25 C31 1_555 1_555
H26 C31 1_555 1_555
H27 C31 1_555 1_555
C32 C18 1_555 1_555
C33 C22 1_555 1_555
C34 C30 1_555 1_555
H28 C34 1_555 1_555
O4 C32 1_555 1_555
N4 C32 1_555 1_555
C35 C33 1_555 1_555
H29 C35 1_555 1_555
C36 C23 1_555 1_555
H30 C36 1_555 1_555
H31 C36 1_555 1_555
C37 H32 1_555 1_555
H33 C37 1_555 1_555
H34 C37 1_555 1_555
C38 C36 1_555 1_555
H35 C38 1_555 1_555
H36 C38 1_555 1_555
Cl1 C39 1_555 1_555
C39 H37 1_555 1_555
C40 C8 1_555 1_555
C41 C4 1_555 1_555
N5 C45 1_555 1_555
N6 C46 1_555 1_555
C44 C46 1_555 1_555
C45 C47 1_555 1_555
C46 C46F 1_555 1_555
C41F C6 1_555 1_555
C4F C41F 1_555 1_555
C2F C4F 1_555 1_555
C5F C2F 1_555 1_555
O2F C5F 1_555 1_555
C13F O2F 1_555 1_555
N2F C13F 1_555 1_555
C7F N2F 1_555 1_555
C16F C7F 1_555 1_555
N1F C16F 1_555 1_555
C12F C13F 1_555 1_555
O1F C12F 1_555 1_555
C11F O1F 1_555 1_555
C3F C11F 1_555 1_555
C1F C3F 1_555 1_555
H1F C1F 1_555 1_555
C15F C1F 1_555 1_555
C6F C41 1_555 1_555
H3F C6F 1_555 1_555
C14F C6F 1_555 1_555
H7F C14F 1_555 1_555
H8F C14F 1_555 1_555
C23F C14F 1_555 1_555
H14F C23F 1_555 1_555
H15F C23F 1_555 1_555
C36F C23F 1_555 1_555
H30F C36F 1_555 1_555
H31F C36F 1_555 1_555
C38F C36F 1_555 1_555
C37F C38F 1_555 1_555
H32F C37F 1_555 1_555
H33F C37F 1_555 1_555
H34F C37F 1_555 1_555
H35F C38F 1_555 1_555
H36F C38F 1_555 1_555
O4F C40 1_555 1_555
C32F O4F 1_555 1_555
C18F C32F 1_555 1_555
O3F C18F 1_555 1_555
C17F C15F 1_555 1_555
C10F C11F 1_555 1_555
H6F C10F 1_555 1_555
N3F C18F 1_555 1_555
C22F N3F 1_555 1_555
C26F C22F 1_555 1_555
H19F C26F 1_555 1_555
C30F C26F 1_555 1_555
H24F C30F 1_555 1_555
C34F C30F 1_555 1_555
H28F C34F 1_555 1_555
C35F C34F 1_555 1_555
C33F C22F 1_555 1_555
N4F C32F 1_555 1_555
H29F C35F 1_555 1_555
C9F C2F 1_555 1_555
H5F C9F 1_555 1_555
C19F C9F 1_555 1_555
H9F C19F 1_555 1_555
H10F C19F 1_555 1_555
C21F C19F 1_555 1_555
H12F C21F 1_555 1_555
H13F C21F 1_555 1_555
C25F C21F 1_555 1_555
H17F C25F 1_555 1_555
H18F C25F 1_555 1_555
C29F C25F 1_555 1_555
H22F C29F 1_555 1_555
H23F C29F 1_555 1_555
C31F C29F 1_555 1_555
H25F C31F 1_555 1_555
H26F C31F 1_555 1_555
H27F C31F 1_555 1_555
C24F C16F 1_555 1_555
H16F C24F 1_555 1_555
C28F C24F 1_555 1_555
C27F C28F 1_555 1_555
C20F C7F 1_555 1_555
H11F C20F 1_555 1_555
H20F C27F 1_555 1_555
H21F C28F 1_555 1_555
C8F C5F 1_555 1_555
H4F C8F 1_555 1_555
C40F O4 1_555 1_555
H2F C4F 1_555 1_555
Cl1F C39 1_555 1_555
H37F C39 1_555 1_555
C45F N5 1_555 1_555
C47F C45F 1_555 1_555
C46F C44 1_555 1_555
N6F C46F 1_555 1_555
C3 C9 1_555 1_555
C6 C15 1_555 1_555
N2 C13 1_555 1_555
C10 C11 1_555 1_555
C12 C13 1_555 1_555
C15 C17 1_555 1_555
C27 C28 1_555 1_555
C33 N4 1_555 1_555
C34 C35 1_555 1_555
C37 C38 1_555 1_555
C40 C41 1_555 1_555
C45 C45F 1_555 1_555
C41F C40F 1_555 1_555
N1F C12F 1_555 1_555
C3F C9F 1_555 1_555
C15F C6F 1_555 1_555
O3F C17F 1_555 1_555
C17F C10F 1_555 1_555
C35F C33F 1_555 1_555
C33F N4F 1_555 1_555
C27F C20F 1_555 1_555
C8F C40F 1_555 1_555

#END
