
#######################################################################
#
#                 Cambridge Crystallographic Data Centre
#                                CCDC 
#
#######################################################################
#
# If this CIF has been generated from an entry in the Cambridge 
# Structural Database, then it will include bibliographic, chemical, 
# crystal, experimental, refinement or atomic coordinate data resulting 
# from the CCDC's data processing and validation procedures.
#
#######################################################################

data_UNIFEC
_chemical_name_common            
'2,8,14,20-tetrakis(isobutyl)calix(4)resorcinarene methanol ethanol solvate'
_chemical_formula_moiety         'C44 H56 O8,2(C1 H4 O1),C2 H6 O1'
_chemical_name_systematic        
'4,6,10,12,16,18,22,24-Octahydroxy-2,8,14,20-tetrakis(isobutyl)calix(4)arene methanol ethanol solvate'
_symmetry_cell_setting           monoclinic
_symmetry_space_group_name_H-M   'C 2/c'
_symmetry_Int_Tables_number      15
_space_group_name_Hall           '-C 2yn'
loop_
_symmetry_equiv_pos_site_id
_symmetry_equiv_pos_as_xyz
1 x,y,z
2 1/2+x,1/2+y,z
3 x,-y,1/2+z
4 1/2+x,1/2-y,1/2+z
5 -x,-y,-z
6 1/2-x,1/2-y,-z
7 -x,y,1/2-z
8 1/2-x,1/2+y,1/2-z
_cell_length_a                   36.049(7)
_cell_length_b                   11.564(2)
_cell_length_c                   21.773(5)
_cell_angle_alpha                90
_cell_angle_beta                 93.71(2)
_cell_angle_gamma                90
_cell_volume                     9057.5
_exptl_crystal_colour            colorless
_cell_formula_units_Z            8
_chemical_properties_physical    air-sensitive
loop_
_atom_site_label
_atom_site_type_symbol
_atom_site_fract_x
_atom_site_fract_y
_atom_site_fract_z
C1 C 0.09160(12) -0.0098(4) 0.4124(2)
C2 C 0.05470(12) 0.0236(4) 0.3991(2)
C3 C 0.03400(13) 0.0727(5) 0.4431(2)
H1 H 0.0094 0.0958 0.4329
C4 C 0.04933(13) 0.0882(5) 0.5022(2)
C5 C 0.08553(12) 0.0537(4) 0.5187(2)
C6 C 0.10565(12) 0.0054(4) 0.4726(2)
H2 H 0.1302 -0.0183 0.4830
O1 O 0.03927(9) 0.0050(3) 0.33967(14)
H3 H 0.0171 0.0253 0.3375
O2 O 0.02963(10) 0.1398(4) 0.54687(15)
H4 H 0.0121 0.1773 0.5303
C7 C 0.10154(12) 0.0680(4) 0.5850(2)
H5 H 0.0869 0.1297 0.6035
C8 C 0.14263(13) 0.1103(5) 0.5887(2)
H6 H 0.1588 0.0421 0.5888
H7 H 0.1468 0.1550 0.5516
C9 C 0.1542(2) 0.1836(10) 0.6457(4)
H8 H 0.1350 0.2439 0.6493
C10 C 0.1909(3) 0.2437(11) 0.6380(4)
H9 H 0.1893 0.2890 0.6004
H10 H 0.2103 0.1863 0.6358
H11 H 0.1965 0.2943 0.6728
C11 C 0.1560(3) 0.1159(11) 0.7014(5)
H12 H 0.1323 0.0779 0.7056
H13 H 0.1615 0.1660 0.7365
H14 H 0.1754 0.0580 0.6995
C15 C 0.09468(12) -0.0429(4) 0.6214(2)
C16 C 0.06306(12) -0.0554(5) 0.6549(2)
C17 C 0.05688(13) -0.1545(5) 0.6871(2)
H15 H 0.0357 -0.1604 0.7099
C18 C 0.08182(13) -0.2467(5) 0.6864(2)
C19 C 0.11353(12) -0.2389(5) 0.6539(2)
C20 C 0.11864(12) -0.1358(5) 0.6217(2)
H16 H 0.1398 -0.1296 0.5988
O3 O 0.07350(11) -0.3452(3) 0.71947(18)
H17 H 0.0900 -0.3943 0.7160
O4 O 0.03629(8) 0.0308(4) 0.65688(17)
H18 H 0.0424 0.0868 0.6359
C21 C 0.14185(13) -0.3372(4) 0.6552(2)
H19 H 0.1379 -0.3828 0.6927
C22 C 0.18224(13) -0.2929(5) 0.6624(2)
H20 H 0.1879 -0.2530 0.6244
H21 H 0.1840 -0.2357 0.6957
C23 C 0.21164(14) -0.3849(5) 0.6760(3)
H22 H 0.2093 -0.4435 0.6428
C24 C 0.25016(17) -0.3300(7) 0.6751(4)
H23 H 0.2527 -0.2929 0.6357
H24 H 0.2690 -0.3893 0.6815
H25 H 0.2532 -0.2728 0.7077
C25 C 0.2066(2) -0.4456(7) 0.7368(3)
H26 H 0.1822 -0.4807 0.7358
H27 H 0.2091 -0.3898 0.7701
H28 H 0.2255 -0.5050 0.7433
C26 C 0.13468(12) -0.4190(4) 0.6013(2)
C27 C 0.11117(13) -0.5144(4) 0.6061(2)
C28 C 0.10363(15) -0.5883(4) 0.5573(2)
H29 H 0.0874 -0.6510 0.5613
C29 C 0.11994(14) -0.5702(4) 0.5022(2)
C30 C 0.14394(12) -0.4779(4) 0.4947(2)
C31 C 0.14994(12) -0.4043(4) 0.5448(2)
H30 H 0.1654 -0.3400 0.5401
O5 O 0.09526(11) -0.5309(3) 0.66132(16)
H31 H 0.0818 -0.5892 0.6590
O6 O 0.11130(13) -0.6504(3) 0.45688(18)
H32 H 0.1146 -0.6217 0.4227
C32 C 0.16160(12) -0.4563(4) 0.4339(2)
H33 H 0.1633 -0.5325 0.4136
C33 C 0.20122(13) -0.4077(5) 0.4408(2)
H34 H 0.2105 -0.4008 0.3996
H35 H 0.2000 -0.3295 0.4579
C34 C 0.22954(14) -0.4773(5) 0.4810(3)
H36 H 0.2227 -0.4714 0.5242
C35 C 0.26804(15) -0.4249(7) 0.4771(3)
H37 H 0.2674 -0.3439 0.4885
H38 H 0.2756 -0.4319 0.4354
H39 H 0.2856 -0.4655 0.5050
C36 C 0.22988(19) -0.6027(6) 0.4640(4)
H40 H 0.2480 -0.6431 0.4909
H41 H 0.2364 -0.6106 0.4217
H42 H 0.2054 -0.6355 0.4683
C37 C 0.13601(12) -0.3819(4) 0.3915(2)
C38 C 0.11170(13) -0.4319(4) 0.3473(2)
C39 C 0.08730(13) -0.3661(4) 0.3108(2)
H43 H 0.0705 -0.4020 0.2821
C40 C 0.08756(12) -0.2459(4) 0.3167(2)
C41 C 0.11221(12) -0.1908(4) 0.35877(19)
C42 C 0.13534(12) -0.2620(4) 0.39593(19)
H44 H 0.1515 -0.2267 0.4259
O7 O 0.06299(9) -0.1866(3) 0.27699(15)
H45 H 0.0554 -0.1282 0.2945
O8 O 0.11202(11) -0.5508(3) 0.34140(17)
H46 H 0.0904 -0.5755 0.3397
C43 C 0.11444(12) -0.0598(4) 0.36249(19)
H47 H 0.1030 -0.0305 0.3229
C44 C 0.15492(12) -0.0176(4) 0.3663(2)
H48 H 0.1673 -0.0476 0.4044
H49 H 0.1674 -0.0515 0.3319
C45 C 0.16068(15) 0.1137(5) 0.3650(2)
H50 H 0.1531 0.1464 0.4043
C46 C 0.20226(18) 0.1383(7) 0.3600(4)
H51 H 0.2165 0.1008 0.3937
H52 H 0.2066 0.2211 0.3619
H53 H 0.2100 0.1086 0.3212
C47 C 0.13808(18) 0.1714(5) 0.3127(3)
H54 H 0.1119 0.1555 0.3165
H55 H 0.1456 0.1414 0.2738
H56 H 0.1422 0.2542 0.3144
O9 O 0.04909(10) 0.7045(3) 0.16577(17)
H57 H 0.0523 0.7396 0.1989
C48 C 0.01185(19) 0.6716(7) 0.1568(4)
H58 H 0.0049 0.6258 0.1916
H59 H 0.0084 0.6261 0.1195
H60 H -0.0037 0.7400 0.1532
O10 O -0.0390(2) 0.2078(7) 0.5053(4)
C49 C -0.0545(2) 0.3067(8) 0.5026(4)
O12 O 0.0378(3) 0.4000(9) 0.3171(6)
C50 C 0.0223(3) 0.3409(12) 0.3610(5)
H61 H 0.0330 0.2629 0.3625
H62 H -0.0043 0.3332 0.3496
C51 C 0.0266(3) 0.3890(12) 0.4202(6)
H63 H 0.0522 0.4121 0.4288
H64 H 0.0198 0.3322 0.4502
H65 H 0.0106 0.4562 0.4224
C12? C 0.1612(5) 0.1091(18) 0.6561(8)
C13? C 0.2020(7) 0.129(4) 0.6573(15)
C14? C 0.1407(5) 0.209(2) 0.6905(8)
O11? O -0.0170(3) 0.2944(13) 0.5012(6)
loop_
_geom_bond_atom_site_label_1
_geom_bond_atom_site_label_2
_geom_bond_site_symmetry_1
_geom_bond_site_symmetry_2
C1 C2 1_555 1_555
C2 C3 1_555 1_555
C3 H1 1_555 1_555
C4 C3 1_555 1_555
C5 C4 1_555 1_555
C6 C1 1_555 1_555
H2 C6 1_555 1_555
O1 C2 1_555 1_555
H3 O1 1_555 1_555
O2 C4 1_555 1_555
H4 O2 1_555 1_555
C7 C5 1_555 1_555
H5 C7 1_555 1_555
C8 C7 1_555 1_555
H6 C8 1_555 1_555
H7 C8 1_555 1_555
C9 C8 1_555 1_555
H8 C9 1_555 1_555
C10 C9 1_555 1_555
H9 C10 1_555 1_555
H10 C10 1_555 1_555
H11 C10 1_555 1_555
C11 C9 1_555 1_555
H12 C11 1_555 1_555
H13 C11 1_555 1_555
H14 C11 1_555 1_555
C15 C7 1_555 1_555
C16 C15 1_555 1_555
C17 C16 1_555 1_555
H15 C17 1_555 1_555
C18 C17 1_555 1_555
C19 C18 1_555 1_555
C20 C15 1_555 1_555
H16 C20 1_555 1_555
O3 C18 1_555 1_555
H17 O3 1_555 1_555
O4 C16 1_555 1_555
H18 O4 1_555 1_555
C21 C19 1_555 1_555
H19 C21 1_555 1_555
C22 C21 1_555 1_555
H20 C22 1_555 1_555
H21 C22 1_555 1_555
C23 C22 1_555 1_555
H22 C23 1_555 1_555
C24 C23 1_555 1_555
H23 C24 1_555 1_555
H24 C24 1_555 1_555
H25 C24 1_555 1_555
C25 C23 1_555 1_555
H26 C25 1_555 1_555
H27 C25 1_555 1_555
H28 C25 1_555 1_555
C26 C21 1_555 1_555
C27 C26 1_555 1_555
C28 C27 1_555 1_555
H29 C28 1_555 1_555
C29 C28 1_555 1_555
C30 C29 1_555 1_555
C31 C26 1_555 1_555
H30 C31 1_555 1_555
O5 C27 1_555 1_555
H31 O5 1_555 1_555
O6 C29 1_555 1_555
H32 O6 1_555 1_555
C32 C30 1_555 1_555
H33 C32 1_555 1_555
C33 C32 1_555 1_555
H34 C33 1_555 1_555
H35 C33 1_555 1_555
C34 C33 1_555 1_555
H36 C34 1_555 1_555
C35 C34 1_555 1_555
H37 C35 1_555 1_555
H38 C35 1_555 1_555
H39 C35 1_555 1_555
C36 C34 1_555 1_555
H40 C36 1_555 1_555
H41 C36 1_555 1_555
H42 C36 1_555 1_555
C37 C32 1_555 1_555
C38 C37 1_555 1_555
C39 C38 1_555 1_555
H43 C39 1_555 1_555
C40 C39 1_555 1_555
C41 C40 1_555 1_555
C42 C37 1_555 1_555
H44 C42 1_555 1_555
O7 C40 1_555 1_555
H45 O7 1_555 1_555
O8 C38 1_555 1_555
H46 O8 1_555 1_555
C43 C1 1_555 1_555
H47 C43 1_555 1_555
C44 C43 1_555 1_555
H48 C44 1_555 1_555
H49 C44 1_555 1_555
C45 C44 1_555 1_555
H50 C45 1_555 1_555
C46 C45 1_555 1_555
H51 C46 1_555 1_555
H52 C46 1_555 1_555
H53 C46 1_555 1_555
C47 C45 1_555 1_555
H54 C47 1_555 1_555
H55 C47 1_555 1_555
H56 C47 1_555 1_555
O9 H57 1_555 1_555
C48 O9 1_555 1_555
H58 C48 1_555 1_555
H59 C48 1_555 1_555
H60 C48 1_555 1_555
O10 C49 1_555 1_555
O12 C50 1_555 1_555
C50 H61 1_555 1_555
H62 C50 1_555 1_555
C51 C50 1_555 1_555
H63 C51 1_555 1_555
H64 C51 1_555 1_555
H65 C51 1_555 1_555
C5 C6 1_555 1_555
C19 C20 1_555 1_555
C30 C31 1_555 1_555
C41 C43 1_555 1_555
C41 C42 1_555 1_555

#END
