
#######################################################################
#
#                 Cambridge Crystallographic Data Centre
#                                CCDC 
#
#######################################################################
#
# If this CIF has been generated from an entry in the Cambridge 
# Structural Database, then it will include bibliographic, chemical, 
# crystal, experimental, refinement or atomic coordinate data resulting 
# from the CCDC's data processing and validation procedures.
#
#######################################################################

data_UNIFAY
_chemical_name_common            
"2,8,14,20-tetrakis(3-(Methoxycarbonyl)propyl)-6,10:12,16:18,22:24,4-O,O'-tetrakis(quinoxaline-2,3-diyl)calix(4)resorcinarene acetonitrile monohydrate clathrate"
_chemical_formula_moiety         'C80 H64 N8 O16,C2 H3 N1,H2 O1'
_chemical_name_systematic        
"2,3:2',3':2'',3'':2''',3'''-(2-endo,8-endo,14-endo,20-endo-tetrakis(3-(Methoxycarbonyl)propyl)pentacyclo(19.3.1.1^3,7^.1^9,13^.1^15,19^)octacosa-1(25),3,5,7(28),9,11,13(27),15,17,19(26),21,23-dodecaene-4,24:6,10:12,16:18,22-octayloctaoxy)tetraquinoxaline acetonitrile monohydrate clathrate"
_symmetry_cell_setting           monoclinic
_symmetry_space_group_name_H-M   'P 21/c'
_symmetry_Int_Tables_number      14
_space_group_name_Hall           '-P 2ybc'
loop_
_symmetry_equiv_pos_site_id
_symmetry_equiv_pos_as_xyz
1 x,y,z
2 x,1/2-y,1/2+z
3 -x,-y,-z
4 -x,1/2+y,1/2-z
_cell_length_a                   21.085(18)
_cell_length_b                   17.073(19)
_cell_length_c                   20.993(31)
_cell_angle_alpha                90
_cell_angle_beta                 104.03(9)
_cell_angle_gamma                90
_cell_volume                     7331.71
_exptl_crystal_colour            colorless
_exptl_crystal_description       prism
_chemical_melting_point          'above 250deg.C'
_cell_formula_units_Z            4
_exptl_crystal_recrystallization_method acetonitrile/chloroform
loop_
_atom_site_label
_atom_site_type_symbol
_atom_site_fract_x
_atom_site_fract_y
_atom_site_fract_z
O1 O 0.6322(5) 0.0699(7) 0.1810(7)
O2 O 0.5687(10) 0.0901(11) 0.2418(10)
O3 O 0.7998(5) 0.3572(4) 0.4248(4)
O4 O 0.8843(3) 0.2847(5) 0.3692(4)
O5 O 0.7540(7) -0.0612(6) 0.1597(8)
O6 O 0.6596(6) -0.0836(6) 0.0904(6)
O7 O 0.9363(3) 0.2536(4) 0.1594(3)
O8 O 0.8967(4) 0.3114(4) 0.0387(4)
O9 O 0.6093(10) 0.1890(8) -0.0365(11)
O10 O 0.5169(8) 0.1524(10) -0.0789(13)
O11 O 0.7400(4) 0.5138(6) -0.0405(4)
O12 O 0.6599(4) 0.6007(4) 0.0154(4)
O13 O 0.4694(6) 0.2913(7) 0.0699(6)
O14 O 0.3781(7) 0.2455(7) 0.0844(6)
O15 O 0.5962(5) 0.6188(5) 0.2200(5)
O16 O 0.6344(4) 0.5475(5) 0.3363(4)
N1 N 0.8655(7) 0.4682(9) 0.4464(5)
N2 N 0.9469(6) 0.3962(8) 0.3765(5)
N3 N 1.0041(5) 0.3595(7) 0.1954(5)
N4 N 0.9706(5) 0.4140(7) 0.0646(5)
N5 N 0.8287(7) 0.5911(7) 0.0054(6)
N6 N 0.7471(7) 0.6839(8) 0.0647(6)
N7 N 0.6774(8) 0.7139(8) 0.2479(7)
N8 N 0.7205(8) 0.6333(8) 0.3694(7)
C1 C 0.6662(8) 0.4730(7) 0.3339(8)
C2 C 0.7176(7) 0.4502(8) 0.3798(6)
H1 H 0.7378(7) 0.4835(8) 0.4159(6)
C3 C 0.7448(6) 0.3770(8) 0.3750(7)
C4 C 0.7198(6) 0.3280(6) 0.3218(6)
C5 C 0.6654(5) 0.3544(6) 0.2753(5)
H2 H 0.6472(5) 0.3219(6) 0.2381(5)
C6 C 0.6371(5) 0.4284(7) 0.2796(6)
C7 C 0.7513(5) 0.2474(5) 0.3182(5)
H3 H 0.7761(5) 0.2359(5) 0.3619(5)
C8 C 0.7000(5) 0.1850(5) 0.2999(5)
H4 H 0.6752(5) 0.1955(5) 0.2560(5)
H5 H 0.6708(5) 0.1875(5) 0.3285(5)
C9 C 0.7283(5) 0.1010(6) 0.3008(6)
H6 H 0.7576(5) 0.0929(6) 0.3431(6)
H7 H 0.7527(5) 0.0958(6) 0.2679(6)
C10 C 0.6721(7) 0.0397(6) 0.2859(9)
H8 H 0.6728(7) 0.0079(6) 0.3238(9)
C11 C 0.6113(17) 0.0293(23) 0.2270(8)
C12 C 0.5153(14) 0.1258(26) 0.1858(22)
H10 H 0.4976(14) 0.1702(26) 0.2037(22)
H11 H 0.5314(14) 0.1422(26) 0.1489(22)
H12 H 0.4816(14) 0.0873(26) 0.1717(22)
C13 C 0.8546(7) 0.3993(10) 0.4219(6)
C14 C 0.9192(9) 0.5087(10) 0.4352(8)
C15 C 0.9318(9) 0.5856(10) 0.4617(8)
H13 H 0.9055(9) 0.6067(10) 0.4891(8)
C16 C 0.9841(11) 0.6233(9) 0.4459(11)
H14 H 0.9938(11) 0.6750(9) 0.4634(11)
C17 C 1.0206(10) 0.5891(15) 0.4085(10)
H15 H 1.0535(10) 0.6205(15) 0.3962(10)
C18 C 1.0098(9) 0.5148(11) 0.3873(7)
H16 H 1.0393(9) 0.4900(11) 0.3653(7)
C19 C 0.9564(7) 0.4710(11) 0.3994(7)
C20 C 0.8959(8) 0.3625(9) 0.3870(6)
C21 C 0.8647(7) 0.2712(6) 0.3024(7)
C22 C 0.9097(6) 0.2728(5) 0.2652(8)
H17 H 0.9547(6) 0.2850(5) 0.2843(8)
C23 C 0.8909(7) 0.2560(5) 0.1994(8)
C24 C 0.8252(6) 0.2370(5) 0.1674(6)
C25 C 0.7820(5) 0.2352(5) 0.2074(6)
H18 H 0.7370(5) 0.2223(5) 0.1887(6)
C26 C 0.7988(6) 0.2508(5) 0.2740(6)
C27 C 0.8056(5) 0.2219(5) 0.0944(6)
H19 H 0.8441(5) 0.2036(5) 0.0824(6)
C28 C 0.7524(5) 0.1611(6) 0.0730(5)
H20 H 0.7417(5) 0.1585(6) 0.0259(5)
H21 H 0.7140(5) 0.1767(6) 0.0865(5)
C29 C 0.7722(6) 0.0808(6) 0.0969(7)
H22 H 0.7796(6) 0.0811(6) 0.1438(7)
H23 H 0.8117(6) 0.0651(6) 0.0853(7)
C30 C 0.7161(9) 0.0234(8) 0.0680(7)
H24 H 0.7209(9) 0.0062(8) 0.0259(7)
H25 H 0.6757(9) 0.0517(8) 0.0615(7)
C31 C 0.7147(9) -0.0433(11) 0.1083(11)
C32 C 0.6477(10) -0.1524(10) 0.1354(10)
H26 H 0.6062(10) -0.1765(10) 0.1170(10)
H27 H 0.6818(10) -0.1908(10) 0.1395(10)
H28 H 0.6481(10) -0.1316(10) 0.1780(10)
C33 C 0.9631(6) 0.3245(7) 0.1481(8)
C34 C 1.0305(6) 0.4288(7) 0.1771(9)
C35 C 1.0731(7) 0.4719(10) 0.2258(7)
H29 H 1.0838(7) 0.4550(10) 0.2708(7)
C36 C 1.1002(6) 0.5397(10) 0.2088(9)
H30 H 1.1282(6) 0.5722(10) 0.2411(9)
C37 C 1.0874(7) 0.5609(7) 0.1447(10)
H31 H 1.1092(7) 0.6059(7) 0.1327(10)
C38 C 1.0463(7) 0.5212(9) 0.0967(7)
H32 H 1.0365(7) 0.5387(9) 0.0519(7)
C39 C 1.0163(6) 0.4508(7) 0.1134(9)
C40 C 0.9451(6) 0.3519(8) 0.0828(6)
C41 C 0.8316(5) 0.3429(8) 0.0293(5)
C42 C 0.8163(6) 0.4124(7) -0.0019(5)
H33 H 0.8481(6) 0.4403(7) -0.0191(5)
C43 C 0.7551(7) 0.4426(7) -0.0100(5)
C44 C 0.7059(5) 0.4025(7) 0.0141(5)
C45 C 0.7255(6) 0.3305(6) 0.0461(5)
H34 H 0.6932(6) 0.3024(6) 0.0623(5)
C46 C 0.7863(6) 0.3002(6) 0.0568(4)
C47 C 0.6376(5) 0.4371(6) 0.0050(6)
H35 H 0.6322(5) 0.4736(6) -0.0306(6)
C48 C 0.5823(5) 0.3740(7) -0.0168(6)
H36 H 0.5403(5) 0.3965(7) -0.0181(6)
H37 H 0.5901(5) 0.3318(7) 0.0143(6)
C49 C 0.5817(6) 0.3443(8) -0.0819(7)
H38 H 0.6236(6) 0.3213(8) -0.0804(7)
H39 H 0.5747(6) 0.3868(8) -0.1127(7)
C50 C 0.5312(9) 0.2811(11) -0.1029(8)
H40 H 0.5172(9) 0.2777(11) -0.1499(8)
H41 H 0.4943(9) 0.2957(11) -0.0862(8)
C51 C 0.5559(11) 0.2058(16) -0.0706(13)
C52 C 0.5352(16) 0.0700(17) -0.0453(25)
H42 H 0.4975(16) 0.0366(17) -0.0563(25)
H43 H 0.5707(16) 0.0458(17) -0.0592(25)
H44 H 0.5475(16) 0.0781(17) 0.0013(25)
C53 C 0.7660(9) 0.5768(8) -0.0010(6)
C54 C 0.8517(9) 0.6542(10) 0.0428(8)
C55 C 0.9198(9) 0.6720(10) 0.0529(8)
H45 H 0.9480(9) 0.6417(10) 0.0328(8)
C56 C 0.9432(9) 0.7362(14) 0.0907(10)
H46 H 0.9884(9) 0.7508(14) 0.0988(10)
C57 C 0.9015(11) 0.7843(11) 0.1194(9)
H47 H 0.9196(11) 0.8275(11) 0.1471(9)
C58 C 0.8384(10) 0.7651(10) 0.1118(8)
H48 H 0.8100(10) 0.7986(10) 0.1290(8)
C59 C 0.8114(9) 0.7019(10) 0.0739(7)
C60 C 0.7254(7) 0.6233(10) 0.0306(7)
C61 C 0.6410(5) 0.5664(8) 0.0688(7)
C62 C 0.6293(5) 0.6079(7) 0.1202(8)
H49 H 0.6368(5) 0.6634(7) 0.1213(8)
C63 C 0.6096(5) 0.5725(8) 0.1694(7)
C64 C 0.5989(5) 0.4905(7) 0.1682(6)
C65 C 0.6097(4) 0.4500(6) 0.1153(6)
H50 H 0.6012(4) 0.3947(6) 0.1140(6)
C66 C 0.6306(5) 0.4841(8) 0.0636(5)
C67 C 0.5780(5) 0.4523(5) 0.2258(6)
H51 H 0.5561(5) 0.4927(5) 0.2440(6)
C68 C 0.5280(5) 0.3883(6) 0.2039(6)
H52 H 0.5172(5) 0.3650(6) 0.2416(6)
H53 H 0.5467(5) 0.3484(6) 0.1819(6)
C69 C 0.4646(6) 0.4161(7) 0.1585(6)
H54 H 0.4744(6) 0.4304(7) 0.1177(6)
H55 H 0.4513(6) 0.4627(7) 0.1773(6)
C70 C 0.4107(6) 0.3576(8) 0.1436(7)
H56 H 0.3709(6) 0.3841(8) 0.1231(7)
H57 H 0.4058(6) 0.3352(8) 0.1840(7)
C71 C 0.4257(9) 0.2951(10) 0.0983(8)
C72 C 0.3786(10) 0.1868(10) 0.0355(9)
H58 H 0.3408(10) 0.1536(10) 0.0292(9)
H59 H 0.3789(10) 0.2129(10) -0.0049(9)
H60 H 0.4174(10) 0.1556(10) 0.0491(9)
C73 C 0.6506(7) 0.6492(11) 0.2624(9)
C74 C 0.7296(10) 0.7392(10) 0.2954(12)
C75 C 0.7609(10) 0.8091(12) 0.2803(11)
H61 H 0.7449(10) 0.8378(12) 0.2403(11)
C76 C 0.8153(13) 0.8337(11) 0.3252(15)
H62 H 0.8394(13) 0.8784(11) 0.3162(15)
C77 C 0.8349(11) 0.7983(13) 0.3812(16)
H63 H 0.8724(11) 0.8198(13) 0.4116(16)
C78 C 0.8091(10) 0.7311(12) 0.4010(10)
H64 H 0.8244(10) 0.7047(12) 0.4422(10)
C79 C 0.7528(10) 0.7018(11) 0.3537(13)
C80 C 0.6703(9) 0.6129(8) 0.3242(11)
O17 O 0.6002(10) 0.2291(11) 0.1176(10)
N9 N 0.8419(28) 0.4848(19) 0.1780(27)
C81 C 0.8402(20) 0.5326(41) 0.2167(33)
C82 C 0.8293(42) 0.5940(55) 0.2571(35)
H9? H 0.5937(17) -0.0223(23) 0.2163(8)
O18? O 0.5459(25) -0.0107(31) 0.1679(28)
loop_
_geom_bond_atom_site_label_1
_geom_bond_atom_site_label_2
_geom_bond_site_symmetry_1
_geom_bond_site_symmetry_2
O1 C11 1_555 1_555
O2 C11 1_555 1_555
O3 C3 1_555 1_555
O4 C20 1_555 1_555
O5 C31 1_555 1_555
O6 C31 1_555 1_555
O7 C23 1_555 1_555
O8 C40 1_555 1_555
O9 C51 1_555 1_555
O10 C51 1_555 1_555
O11 C43 1_555 1_555
O12 C60 1_555 1_555
O13 C71 1_555 1_555
O14 C71 1_555 1_555
O15 C63 1_555 1_555
O16 C1 1_555 1_555
N1 C13 1_555 1_555
N2 C19 1_555 1_555
N3 C33 1_555 1_555
N4 C39 1_555 1_555
N5 C53 1_555 1_555
N6 C59 1_555 1_555
N7 C73 1_555 1_555
N8 C79 1_555 1_555
C1 C2 1_555 1_555
C2 H1 1_555 1_555
C3 C2 1_555 1_555
C4 C3 1_555 1_555
C5 C4 1_555 1_555
H2 C5 1_555 1_555
C6 C1 1_555 1_555
C7 C4 1_555 1_555
H3 C7 1_555 1_555
C8 C7 1_555 1_555
H4 C8 1_555 1_555
H5 C8 1_555 1_555
C9 C8 1_555 1_555
H6 C9 1_555 1_555
H7 C9 1_555 1_555
C10 C9 1_555 1_555
H8 C10 1_555 1_555
C11 C10 1_555 1_555
C12 O2 1_555 1_555
H10 C12 1_555 1_555
H11 C12 1_555 1_555
H12 C12 1_555 1_555
C13 O3 1_555 1_555
C14 N1 1_555 1_555
C15 C14 1_555 1_555
H13 C15 1_555 1_555
C16 C15 1_555 1_555
H14 C16 1_555 1_555
C17 C16 1_555 1_555
H15 C17 1_555 1_555
C18 C17 1_555 1_555
H16 C18 1_555 1_555
C19 C14 1_555 1_555
C20 N2 1_555 1_555
C21 O4 1_555 1_555
C22 C21 1_555 1_555
H17 C22 1_555 1_555
C23 C22 1_555 1_555
C24 C23 1_555 1_555
C25 C24 1_555 1_555
H18 C25 1_555 1_555
C26 C7 1_555 1_555
C27 C24 1_555 1_555
H19 C27 1_555 1_555
C28 C27 1_555 1_555
H20 C28 1_555 1_555
H21 C28 1_555 1_555
C29 C28 1_555 1_555
H22 C29 1_555 1_555
H23 C29 1_555 1_555
C30 C29 1_555 1_555
H24 C30 1_555 1_555
H25 C30 1_555 1_555
C31 C30 1_555 1_555
C32 O6 1_555 1_555
H26 C32 1_555 1_555
H27 C32 1_555 1_555
H28 C32 1_555 1_555
C33 O7 1_555 1_555
C34 N3 1_555 1_555
C35 C34 1_555 1_555
H29 C35 1_555 1_555
C36 C35 1_555 1_555
H30 C36 1_555 1_555
C37 C36 1_555 1_555
H31 C37 1_555 1_555
C38 C37 1_555 1_555
H32 C38 1_555 1_555
C39 C34 1_555 1_555
C40 N4 1_555 1_555
C41 O8 1_555 1_555
C42 C41 1_555 1_555
H33 C42 1_555 1_555
C43 C42 1_555 1_555
C44 C43 1_555 1_555
C45 C44 1_555 1_555
H34 C45 1_555 1_555
C46 C27 1_555 1_555
C47 C44 1_555 1_555
H35 C47 1_555 1_555
C48 C47 1_555 1_555
H36 C48 1_555 1_555
H37 C48 1_555 1_555
C49 C48 1_555 1_555
H38 C49 1_555 1_555
H39 C49 1_555 1_555
C50 C49 1_555 1_555
H40 C50 1_555 1_555
H41 C50 1_555 1_555
C51 C50 1_555 1_555
C52 O10 1_555 1_555
H42 C52 1_555 1_555
H43 C52 1_555 1_555
H44 C52 1_555 1_555
C53 O11 1_555 1_555
C54 N5 1_555 1_555
C55 C54 1_555 1_555
H45 C55 1_555 1_555
C56 C55 1_555 1_555
H46 C56 1_555 1_555
C57 C56 1_555 1_555
H47 C57 1_555 1_555
C58 C57 1_555 1_555
H48 C58 1_555 1_555
C59 C54 1_555 1_555
C60 N6 1_555 1_555
C61 O12 1_555 1_555
C62 C61 1_555 1_555
H49 C62 1_555 1_555
C63 C62 1_555 1_555
C64 C63 1_555 1_555
C65 C64 1_555 1_555
H50 C65 1_555 1_555
C66 C47 1_555 1_555
C67 C6 1_555 1_555
H51 C67 1_555 1_555
C68 C67 1_555 1_555
H52 C68 1_555 1_555
H53 C68 1_555 1_555
C69 C68 1_555 1_555
H54 C69 1_555 1_555
H55 C69 1_555 1_555
C70 C69 1_555 1_555
H56 C70 1_555 1_555
H57 C70 1_555 1_555
C71 C70 1_555 1_555
C72 O14 1_555 1_555
H58 C72 1_555 1_555
H59 C72 1_555 1_555
H60 C72 1_555 1_555
C73 O15 1_555 1_555
C74 N7 1_555 1_555
C75 C74 1_555 1_555
H61 C75 1_555 1_555
C76 C75 1_555 1_555
H62 C76 1_555 1_555
C77 C76 1_555 1_555
H63 C77 1_555 1_555
C78 C77 1_555 1_555
H64 C78 1_555 1_555
C79 C74 1_555 1_555
C80 O16 1_555 1_555
N9 C81 1_555 1_555
C81 C82 1_555 1_555
N8 C80 1_555 1_555
C5 C6 1_555 1_555
C13 C20 1_555 1_555
C18 C19 1_555 1_555
C21 C26 1_555 1_555
C25 C26 1_555 1_555
C33 C40 1_555 1_555
C38 C39 1_555 1_555
C41 C46 1_555 1_555
C45 C46 1_555 1_555
C53 C60 1_555 1_555
C58 C59 1_555 1_555
C61 C66 1_555 1_555
C64 C67 1_555 1_555
C65 C66 1_555 1_555
C73 C80 1_555 1_555
C78 C79 1_555 1_555

#END
