
#######################################################################
#
#                 Cambridge Crystallographic Data Centre
#                                CCDC 
#
#######################################################################
#
# If this CIF has been generated from an entry in the Cambridge 
# Structural Database, then it will include bibliographic, chemical, 
# crystal, experimental, refinement or atomic coordinate data resulting 
# from the CCDC's data processing and validation procedures.
#
#######################################################################

data_UNIHUV
_chemical_formula_moiety         'C12 H17 B1 N2 O1'
_chemical_name_systematic        
1-(1-t-Butyl-1H-[1,3,2]diazaborolo[1,2-a][1,2]azaborinin-3-yl)ethanone
_symmetry_cell_setting           triclinic
_symmetry_space_group_name_H-M   'P -1'
_symmetry_Int_Tables_number      2
_space_group_name_Hall           '-P 1'
loop_
_symmetry_equiv_pos_site_id
_symmetry_equiv_pos_as_xyz
1 x,y,z
2 -x,-y,-z
_cell_length_a                   7.961(2)
_cell_length_b                   8.703(3)
_cell_length_c                   9.587(3)
_cell_angle_alpha                80.769(5)
_cell_angle_beta                 75.052(5)
_cell_angle_gamma                68.094(4)
_cell_volume                     593.889
_exptl_crystal_colour            colorless
_exptl_crystal_description       needle
_cell_formula_units_Z            2
loop_
_atom_site_label
_atom_site_type_symbol
_atom_site_fract_x
_atom_site_fract_y
_atom_site_fract_z
N1 N 0.15639(16) 1.12714(15) 0.88606(14)
N2 N 0.28624(17) 0.86497(15) 0.80467(14)
O1 O 0.21631(17) 1.20497(16) 1.15132(14)
B1 B 0.1809(2) 1.0364(2) 0.7642(2)
C1 C 0.0602(2) 1.2950(2) 0.8903(2)
C2 C -0.0126(2) 1.3798(2) 0.7760(2)
C3 C 0.0094(2) 1.3010(2) 0.6507(2)
C4 C 0.1012(2) 1.1345(2) 0.6382(2)
C5 C 0.3184(2) 0.86161(19) 0.93822(16)
C6 C 0.2437(2) 1.01549(19) 0.99190(17)
C7 C 0.2670(2) 1.0596(2) 1.12256(18)
C8 C 0.3584(3) 0.9215(2) 1.2242(2)
C9 C 0.3708(2) 0.71920(19) 0.71410(17)
C10 C 0.4379(3) 0.5584(2) 0.8064(2)
C11 C 0.2243(3) 0.7119(3) 0.6421(2)
C12 C 0.5339(3) 0.7438(3) 0.6008(2)
H1 H 0.052(3) 1.347(2) 0.975(2)
H2 H -0.080(3) 1.499(3) 0.783(2)
H3 H -0.039(3) 1.370(2) 0.570(2)
H4 H 0.111(2) 1.093(2) 0.5528(19)
H5 H 0.390(2) 0.758(2) 0.9845(16)
H6 H 0.389(3) 0.970(3) 1.295(3)
H7 H 0.285(3) 0.851(3) 1.268(3)
H8 H 0.482(3) 0.838(3) 1.172(3)
H9 H 0.335(3) 0.545(2) 0.885(2)
H10 H 0.485(3) 0.465(3) 0.742(2)
H11 H 0.550(3) 0.551(2) 0.848(2)
H12 H 0.279(3) 0.614(3) 0.583(2)
H13 H 0.179(3) 0.816(3) 0.578(2)
H14 H 0.114(3) 0.699(2) 0.718(2)
H15 H 0.590(2) 0.652(2) 0.535(2)
H16 H 0.634(3) 0.748(2) 0.646(2)
H17 H 0.492(3) 0.850(2) 0.538(2)
loop_
_geom_bond_atom_site_label_1
_geom_bond_atom_site_label_2
_geom_bond_site_symmetry_1
_geom_bond_site_symmetry_2
N1 B1 1_555 1_555
N2 B1 1_555 1_555
O1 C7 1_555 1_555
B1 C4 1_555 1_555
C1 N1 1_555 1_555
C2 C1 1_555 1_555
C3 C2 1_555 1_555
C4 C3 1_555 1_555
C5 N2 1_555 1_555
C6 N1 1_555 1_555
C7 C6 1_555 1_555
C8 C7 1_555 1_555
C9 N2 1_555 1_555
C10 C9 1_555 1_555
C11 C9 1_555 1_555
C12 C9 1_555 1_555
H1 C1 1_555 1_555
H2 C2 1_555 1_555
H3 C3 1_555 1_555
H4 C4 1_555 1_555
H5 C5 1_555 1_555
H6 C8 1_555 1_555
H7 C8 1_555 1_555
H8 C8 1_555 1_555
H9 C10 1_555 1_555
H10 C10 1_555 1_555
H11 C10 1_555 1_555
H12 C11 1_555 1_555
H13 C11 1_555 1_555
H14 C11 1_555 1_555
H15 C12 1_555 1_555
H16 C12 1_555 1_555
H17 C12 1_555 1_555
C5 C6 1_555 1_555

#END
