
#######################################################################
#
#                 Cambridge Crystallographic Data Centre
#                                CCDC 
#
#######################################################################
#
# If this CIF has been generated from an entry in the Cambridge 
# Structural Database, then it will include bibliographic, chemical, 
# crystal, experimental, refinement or atomic coordinate data resulting 
# from the CCDC's data processing and validation procedures.
#
#######################################################################

data_UNIJAD
_chemical_formula_moiety         'C27 H38 B3 N5 O1'
_chemical_name_systematic        
3,3'-(2-(2-Methoxy-1,2-azaborinin-1(2H)-yl)ethane-1,1-diyl)bis(1-t-butyl-1H-[1,3,2]diazaborolo[1,2-a][1,2]azaborinine)
_symmetry_cell_setting           orthorhombic
_symmetry_space_group_name_H-M   'P b c n'
_symmetry_Int_Tables_number      60
_space_group_name_Hall           '-P 2n 2ab'
loop_
_symmetry_equiv_pos_site_id
_symmetry_equiv_pos_as_xyz
1 x,y,z
2 1/2-x,1/2-y,1/2+z
3 -x,y,1/2-z
4 1/2+x,1/2-y,-z
5 -x,-y,-z
6 1/2+x,1/2+y,1/2-z
7 x,-y,1/2+z
8 1/2-x,1/2+y,z
_cell_length_a                   17.5388(17)
_cell_length_b                   17.3342(17)
_cell_length_c                   18.8857(18)
_cell_angle_alpha                90
_cell_angle_beta                 90
_cell_angle_gamma                90
_cell_volume                     5741.65
_exptl_crystal_colour            colorless
_exptl_crystal_description       block
_cell_formula_units_Z            8
loop_
_atom_site_label
_atom_site_type_symbol
_atom_site_fract_x
_atom_site_fract_y
_atom_site_fract_z
B1 B 0.32101(10) 0.58167(11) 0.15571(9)
B2 B 0.17945(9) 0.79883(10) -0.08306(9)
B3 B -0.01995(10) 0.69601(12) 0.15381(10)
N1 N 0.23940(7) 0.59529(7) 0.14582(6)
N2 N 0.35701(7) 0.64691(8) 0.12243(6)
N3 N 0.16127(7) 0.73230(7) -0.03877(6)
N4 N 0.18684(7) 0.86126(7) -0.03380(6)
N5 N 0.03791(7) 0.75508(8) 0.15518(6)
O1 O 0.00682(6) 0.62145(7) 0.15774(7)
C1 C 0.29930(8) 0.69357(10) 0.09555(8)
C2 C 0.22935(8) 0.66463(9) 0.10857(7)
C3 C 0.18435(9) 0.54477(10) 0.16817(8)
C4 C 0.20527(11) 0.47830(10) 0.20081(8)
C5 C 0.28309(11) 0.46011(11) 0.21304(9)
C6 C 0.34149(11) 0.50763(11) 0.19312(8)
C7 C 0.43826(9) 0.67005(11) 0.11459(8)
C8 C 0.48768(12) 0.60594(18) 0.14537(15)
C9 C 0.45797(12) 0.67974(18) 0.03688(10)
C10 C 0.45171(13) 0.74456(16) 0.15487(14)
C11 C 0.15227(8) 0.69911(9) 0.09259(8)
C12 C 0.15938(8) 0.75547(9) 0.03259(7)
C13 C 0.17465(8) 0.83147(9) 0.03385(8)
C14 C 0.14914(9) 0.66024(10) -0.06587(9)
C15 C 0.15450(10) 0.64837(10) -0.13665(9)
C16 C 0.17242(9) 0.70949(10) -0.18410(9)
C17 C 0.18453(9) 0.78330(10) -0.16208(8)
C18 C 0.20881(10) 0.94294(10) -0.04227(8)
C19 C 0.28447(16) 0.95556(17) -0.00367(13)
C20 C 0.21873(13) 0.96083(12) -0.12084(10)
C21 C 0.14609(17) 0.99437(13) -0.01231(12)
C22 C 0.11907(9) 0.73519(10) 0.16057(8)
C23 C 0.01793(10) 0.83126(11) 0.15441(8)
C24 C -0.05561(10) 0.85514(12) 0.15106(9)
C25 C -0.11531(10) 0.80066(13) 0.14761(9)
C26 C -0.10180(10) 0.72367(12) 0.14886(9)
C27 C -0.04569(13) 0.55890(14) 0.16063(16)
H1 H 0.3101(9) 0.7405(10) 0.0707(9)
H2 H 0.1314(10) 0.5605(10) 0.1598(8)
H3 H 0.1638(10) 0.4430(11) 0.2151(10)
H4 H 0.2947(10) 0.4122(11) 0.2365(9)
H5 H 0.3937(10) 0.4912(10) 0.2048(9)
H6 H 0.4791(15) 0.5558(17) 0.1175(15)
H7 H 0.4741(12) 0.5996(13) 0.1969(13)
H8 H 0.5397(14) 0.6223(13) 0.1423(11)
H9 H 0.4494(14) 0.6311(15) 0.0097(13)
H10 H 0.5135(13) 0.6965(12) 0.0307(11)
H11 H 0.4263(12) 0.7231(13) 0.0172(11)
H12 H 0.4389(13) 0.7367(13) 0.2047(13)
H13 H 0.4215(13) 0.7869(13) 0.1348(12)
H14 H 0.5051(13) 0.7625(12) 0.1511(10)
H15 H 0.1174(9) 0.6572(9) 0.0774(8)
H16 H 0.1777(8) 0.8643(9) 0.0757(8)
H17 H 0.1379(9) 0.6187(10) -0.0315(9)
H18 H 0.1459(10) 0.5973(12) -0.1547(9)
H19 H 0.1761(9) 0.6957(10) -0.2360(10)
H20 H 0.1972(9) 0.8234(10) -0.1974(9)
H21 H 0.3243(17) 0.9191(18) -0.0236(16)
H22 H 0.2954(13) 1.0093(15) -0.0080(12)
H23 H 0.2791(11) 0.9478(12) 0.0488(12)
H24 H 0.1706(11) 0.9509(11) -0.1456(10)
H25 H 0.2624(12) 0.9293(13) -0.1435(11)
H26 H 0.2329(10) 1.0152(12) -0.1236(10)
H27 H 0.0951(14) 0.9870(14) -0.0389(13)
H28 H 0.1633(12) 1.0466(14) -0.0177(12)
H29 H 0.1357(11) 0.9835(12) 0.0383(12)
H30 H 0.1256(8) 0.6969(9) 0.1998(8)
H31 H 0.1480(9) 0.7831(9) 0.1726(8)
H32 H 0.0589(10) 0.8677(10) 0.1565(8)
H33 H -0.0659(11) 0.9117(12) 0.1497(9)
H34 H -0.1669(11) 0.8204(11) 0.1436(9)
H35 H -0.1468(10) 0.6876(11) 0.1466(9)
H36 H -0.0838(15) 0.5628(16) 0.2009(14)
H37 H -0.0170(13) 0.5100(15) 0.1660(12)
H38 H -0.0733(13) 0.5543(13) 0.1156(12)
loop_
_geom_bond_atom_site_label_1
_geom_bond_atom_site_label_2
_geom_bond_site_symmetry_1
_geom_bond_site_symmetry_2
B1 N1 1_555 1_555
B2 N3 1_555 1_555
B3 N5 1_555 1_555
N1 C2 1_555 1_555
N2 B1 1_555 1_555
N3 C12 1_555 1_555
N4 B2 1_555 1_555
N5 C22 1_555 1_555
O1 B3 1_555 1_555
C1 N2 1_555 1_555
C2 C1 1_555 1_555
C3 N1 1_555 1_555
C4 C3 1_555 1_555
C5 C4 1_555 1_555
C6 B1 1_555 1_555
C7 N2 1_555 1_555
C8 C7 1_555 1_555
C9 C7 1_555 1_555
C10 C7 1_555 1_555
C11 C2 1_555 1_555
C12 C11 1_555 1_555
C13 N4 1_555 1_555
C14 N3 1_555 1_555
C15 C14 1_555 1_555
C16 C15 1_555 1_555
C17 B2 1_555 1_555
C18 N4 1_555 1_555
C19 C18 1_555 1_555
C20 C18 1_555 1_555
C21 C18 1_555 1_555
C22 C11 1_555 1_555
C23 N5 1_555 1_555
C24 C23 1_555 1_555
C25 C24 1_555 1_555
C26 B3 1_555 1_555
C27 O1 1_555 1_555
H1 C1 1_555 1_555
H2 C3 1_555 1_555
H3 C4 1_555 1_555
H4 C5 1_555 1_555
H5 C6 1_555 1_555
H6 C8 1_555 1_555
H7 C8 1_555 1_555
H8 C8 1_555 1_555
H9 C9 1_555 1_555
H10 C9 1_555 1_555
H11 C9 1_555 1_555
H12 C10 1_555 1_555
H13 C10 1_555 1_555
H14 C10 1_555 1_555
H15 C11 1_555 1_555
H16 C13 1_555 1_555
H17 C14 1_555 1_555
H18 C15 1_555 1_555
H19 C16 1_555 1_555
H20 C17 1_555 1_555
H21 C19 1_555 1_555
H22 C19 1_555 1_555
H23 C19 1_555 1_555
H24 C20 1_555 1_555
H25 C20 1_555 1_555
H26 C20 1_555 1_555
H27 C21 1_555 1_555
H28 C21 1_555 1_555
H29 C21 1_555 1_555
H30 C22 1_555 1_555
H31 C22 1_555 1_555
H32 C23 1_555 1_555
H33 C24 1_555 1_555
H34 C25 1_555 1_555
H35 C26 1_555 1_555
H36 C27 1_555 1_555
H37 C27 1_555 1_555
H38 C27 1_555 1_555
C5 C6 1_555 1_555
C12 C13 1_555 1_555
C16 C17 1_555 1_555
C25 C26 1_555 1_555

#END
