
#######################################################################
#
#                 Cambridge Crystallographic Data Centre
#                                CCDC 
#
#######################################################################
#
# If this CIF has been generated from an entry in the Cambridge 
# Structural Database, then it will include bibliographic, chemical, 
# crystal, experimental, refinement or atomic coordinate data resulting 
# from the CCDC's data processing and validation procedures.
#
#######################################################################

data_UNIKUY
_chemical_formula_moiety         'C16 H26 O2'
_chemical_name_systematic        
7-Isopropyl-4-methylene-3-(2-methylprop-2-en-1-yl)octahydro-2-benzofuran-1-ol
_symmetry_cell_setting           monoclinic
_symmetry_space_group_name_H-M   'P 21/n'
_symmetry_Int_Tables_number      14
_space_group_name_Hall           '-P 2yn'
loop_
_symmetry_equiv_pos_site_id
_symmetry_equiv_pos_as_xyz
1 x,y,z
2 1/2-x,1/2+y,1/2-z
3 -x,-y,-z
4 1/2+x,1/2-y,1/2+z
_cell_length_a                   20.398(7)
_cell_length_b                   5.6912(19)
_cell_length_c                   26.770(9)
_cell_angle_alpha                90
_cell_angle_beta                 112.062(4)
_cell_angle_gamma                90
_cell_volume                     2880.15
_exptl_crystal_colour            colorless
_exptl_crystal_description       needle
_cell_formula_units_Z            8
loop_
_atom_site_label
_atom_site_type_symbol
_atom_site_fract_x
_atom_site_fract_y
_atom_site_fract_z
O1 O 0.34914(4) -0.23589(14) 0.07232(3)
O2 O 0.30928(4) 0.15276(14) 0.06646(3)
H1 H 0.3326(7) 0.180(3) 0.1004(5)
C1 C 0.28921(5) -0.08421(19) 0.06158(4)
H2 H 0.2692(7) -0.125(2) 0.0887(5)
C2 C 0.24226(5) -0.13210(19) 0.00299(4)
H3 H 0.2109(6) 0.003(2) -0.0130(5)
C3 C 0.19786(5) -0.35695(19) -0.00386(4)
H4 H 0.2291(7) -0.479(2) 0.0188(5)
C4 C 0.17171(6) -0.4442(2) -0.06236(5)
H5 H 0.1398(7) -0.326(2) -0.0868(5)
H6 H 0.1442(7) -0.590(2) -0.0666(5)
C5 C 0.23327(6) -0.4892(2) -0.08069(5)
H7 H 0.2639(7) -0.615(2) -0.0577(5)
H8 H 0.2154(7) -0.547(2) -0.1184(5)
C6 C 0.27407(6) -0.2653(2) -0.07614(4)
C7 C 0.29958(5) -0.15232(19) -0.02148(4)
H9 H 0.3168(6) 0.008(2) -0.0240(5)
C8 C 0.35827(6) -0.28997(19) 0.02236(4)
H10 H 0.3499(7) -0.460(2) 0.0170(5)
C9 C 0.13673(6) -0.3254(2) 0.01620(4)
H11 H 0.1569(7) -0.241(2) 0.0515(5)
C10 C 0.07571(6) -0.1772(2) -0.02156(5)
H12 H 0.0421(8) -0.137(3) -0.0045(6)
H13 H 0.0496(8) -0.265(3) -0.0549(6)
H14 H 0.0918(8) -0.028(2) -0.0327(6)
C11 C 0.10823(7) -0.5622(2) 0.02566(5)
H15 H 0.0746(7) -0.540(3) 0.0435(6)
H16 H 0.1465(7) -0.666(3) 0.0484(6)
H17 H 0.0837(8) -0.644(3) -0.0088(5)
C12 C 0.28261(6) -0.1643(2) -0.11801(5)
H18 H 0.2651(7) -0.238(3) -0.1540(5)
H19 H 0.3063(7) -0.015(2) -0.1150(6)
C13 C 0.43171(6) -0.2247(2) 0.02599(4)
H20 H 0.4395(7) -0.060(2) 0.0378(5)
H21 H 0.4324(7) -0.221(2) -0.0104(5)
C14 C 0.49174(6) -0.3769(2) 0.06126(4)
C15 C 0.48302(6) -0.5748(2) 0.08395(5)
H22 H 0.4366(7) -0.635(3) 0.0809(6)
H23 H 0.5249(7) -0.667(2) 0.1058(5)
C16 C 0.56380(6) -0.2876(2) 0.06804(5)
H24 H 0.6008(7) -0.397(3) 0.0897(6)
H25 H 0.5713(8) -0.134(2) 0.0856(6)
H26 H 0.5676(8) -0.263(3) 0.0327(5)
O3 O 0.39765(4) 0.17016(14) 0.17586(3)
O4 O 0.43685(4) -0.21953(14) 0.18410(3)
H27 H 0.4133(8) -0.251(3) 0.1500(5)
C17 C 0.45710(6) 0.01712(19) 0.18682(4)
H28 H 0.4758(7) 0.054(2) 0.1584(5)
C18 C 0.50579(6) 0.07585(19) 0.24437(4)
H29 H 0.5385(6) -0.056(2) 0.2611(5)
C19 C 0.54873(6) 0.3011(2) 0.24740(4)
H30 H 0.5163(7) 0.418(2) 0.2239(5)
C20 C 0.57711(6) 0.3997(2) 0.30491(5)
H31 H 0.6061(7) 0.542(2) 0.3070(5)
H32 H 0.6095(7) 0.283(2) 0.3296(5)
C21 C 0.51632(6) 0.4574(2) 0.32319(5)
H33 H 0.5342(7) 0.531(2) 0.3593(5)
H34 H 0.4841(7) 0.572(2) 0.2973(5)
C22 C 0.47491(6) 0.2395(2) 0.32257(4)
C23 C 0.45047(6) 0.10294(19) 0.27064(4)
H35 H 0.4348(7) -0.056(2) 0.2762(5)
C24 C 0.38773(6) 0.2201(2) 0.22561(4)
H36 H 0.3895(7) 0.393(2) 0.2298(5)
C25 C 0.60769(6) 0.2674(2) 0.22502(4)
H37 H 0.5870(7) 0.174(2) 0.1909(5)
C26 C 0.67148(6) 0.1304(2) 0.26251(5)
H38 H 0.7025(8) 0.088(3) 0.2437(6)
H39 H 0.6576(8) -0.015(3) 0.2766(6)
H40 H 0.6984(8) 0.226(3) 0.2939(6)
C27 C 0.63163(7) 0.5039(2) 0.21105(5)
H41 H 0.6641(8) 0.485(3) 0.1921(6)
H42 H 0.6575(8) 0.595(3) 0.2445(6)
H43 H 0.5909(7) 0.597(3) 0.1882(6)
C28 C 0.46170(7) 0.1678(3) 0.36494(5)
H44 H 0.4368(7) 0.021(2) 0.3637(6)
H45 H 0.4759(8) 0.258(3) 0.3984(6)
C29 C 0.31708(6) 0.1278(2) 0.22321(5)
H46 H 0.3161(7) 0.137(2) 0.2592(5)
H47 H 0.3153(7) -0.041(2) 0.2148(5)
C30 C 0.25217(6) 0.2469(2) 0.18402(5)
C31 C 0.25388(7) 0.4520(2) 0.16012(5)
H48 H 0.2972(7) 0.528(3) 0.1623(6)
H49 H 0.2089(7) 0.523(3) 0.1367(6)
C32 C 0.18473(7) 0.1245(3) 0.17612(7)
H50 H 0.1435(8) 0.197(3) 0.1480(6)
H51 H 0.1797(9) 0.111(3) 0.2135(6)
H52 H 0.1892(10) -0.030(3) 0.1621(7)
loop_
_geom_bond_atom_site_label_1
_geom_bond_atom_site_label_2
_geom_bond_site_symmetry_1
_geom_bond_site_symmetry_2
O1 C1 1_555 1_555
O2 H1 1_555 1_555
C1 O2 1_555 1_555
H2 C1 1_555 1_555
C2 C1 1_555 1_555
H3 C2 1_555 1_555
C3 C2 1_555 1_555
H4 C3 1_555 1_555
C4 C3 1_555 1_555
H5 C4 1_555 1_555
H6 C4 1_555 1_555
C5 C4 1_555 1_555
H7 C5 1_555 1_555
H8 C5 1_555 1_555
C6 C5 1_555 1_555
C7 C2 1_555 1_555
H9 C7 1_555 1_555
C8 O1 1_555 1_555
H10 C8 1_555 1_555
C9 C3 1_555 1_555
H11 C9 1_555 1_555
C10 C9 1_555 1_555
H12 C10 1_555 1_555
H13 C10 1_555 1_555
H14 C10 1_555 1_555
C11 C9 1_555 1_555
H15 C11 1_555 1_555
H16 C11 1_555 1_555
H17 C11 1_555 1_555
C12 C6 1_555 1_555
H18 C12 1_555 1_555
H19 C12 1_555 1_555
C13 C8 1_555 1_555
H20 C13 1_555 1_555
H21 C13 1_555 1_555
C14 C13 1_555 1_555
C15 C14 1_555 1_555
H22 C15 1_555 1_555
H23 C15 1_555 1_555
C16 C14 1_555 1_555
H24 C16 1_555 1_555
H25 C16 1_555 1_555
H26 C16 1_555 1_555
O3 C17 1_555 1_555
O4 H27 1_555 1_555
C17 O4 1_555 1_555
H28 C17 1_555 1_555
C18 C17 1_555 1_555
H29 C18 1_555 1_555
C19 C18 1_555 1_555
H30 C19 1_555 1_555
C20 C19 1_555 1_555
H31 C20 1_555 1_555
H32 C20 1_555 1_555
C21 C20 1_555 1_555
H33 C21 1_555 1_555
H34 C21 1_555 1_555
C22 C21 1_555 1_555
C23 C18 1_555 1_555
H35 C23 1_555 1_555
C24 O3 1_555 1_555
H36 C24 1_555 1_555
C25 C19 1_555 1_555
H37 C25 1_555 1_555
C26 C25 1_555 1_555
H38 C26 1_555 1_555
H39 C26 1_555 1_555
H40 C26 1_555 1_555
C27 C25 1_555 1_555
H41 C27 1_555 1_555
H42 C27 1_555 1_555
H43 C27 1_555 1_555
C28 C22 1_555 1_555
H44 C28 1_555 1_555
H45 C28 1_555 1_555
C29 C24 1_555 1_555
H46 C29 1_555 1_555
H47 C29 1_555 1_555
C30 C29 1_555 1_555
C31 C30 1_555 1_555
H48 C31 1_555 1_555
H49 C31 1_555 1_555
C32 C30 1_555 1_555
H50 C32 1_555 1_555
H51 C32 1_555 1_555
H52 C32 1_555 1_555
C6 C7 1_555 1_555
C7 C8 1_555 1_555
C22 C23 1_555 1_555
C23 C24 1_555 1_555

#END
