
#######################################################################
#
#                 Cambridge Crystallographic Data Centre
#                                CCDC 
#
#######################################################################
#
# If this CIF has been generated from an entry in the Cambridge 
# Structural Database, then it will include bibliographic, chemical, 
# crystal, experimental, refinement or atomic coordinate data resulting 
# from the CCDC's data processing and validation procedures.
#
#######################################################################

data_UNIMUA
_chemical_formula_moiety         'C17 H30 N2 O6'
_chemical_name_systematic        
'bis(N-\a-Amido-L-leucine methyl ester)malonate'
_symmetry_cell_setting           monoclinic
_symmetry_space_group_name_H-M   'C 2'
_symmetry_Int_Tables_number      5
_space_group_name_Hall           'C 2y'
loop_
_symmetry_equiv_pos_site_id
_symmetry_equiv_pos_as_xyz
1 x,y,z
2 -x,y,-z
3 1/2+x,1/2+y,z
4 1/2-x,1/2+y,-z
_cell_length_a                   24.342(2)
_cell_length_b                   8.2740(6)
_cell_length_c                   9.8114(7)
_cell_angle_alpha                90
_cell_angle_beta                 91.086(7)
_cell_angle_gamma                90
_cell_volume                     1975.72
_exptl_crystal_colour            white
_exptl_crystal_description       needle
_cell_formula_units_Z            4
loop_
_atom_site_label
_atom_site_type_symbol
_atom_site_fract_x
_atom_site_fract_y
_atom_site_fract_z
C1 C 0.5000 0.6591(3) 0.5000
H1 H 0.4962 0.7277 0.5795
C2 C 0.54998(6) 0.55210(17) 0.51690(13)
C3 C 0.62589(6) 0.42060(19) 0.40163(15)
H2 H 0.6259 0.3541 0.4843
C4 C 0.67764(6) 0.5230(2) 0.40466(15)
C5 C 0.77449(6) 0.5123(2) 0.42268(18)
H3 H 0.7729 0.6001 0.4864
H4 H 0.7823 0.5537 0.3337
H5 H 0.8029 0.4384 0.4506
C11 C 0.62411(7) 0.3076(2) 0.27861(16)
H11 H 0.6251 0.3725 0.1964
H12 H 0.6570 0.2412 0.2809
C12 C 0.57421(7) 0.1968(2) 0.26966(16)
H13 H 0.5416 0.2661 0.2656
C13 C 0.56858(10) 0.0882(3) 0.3920(2)
H14 H 0.5646 0.1529 0.4724
H15 H 0.6008 0.0218 0.4017
H16 H 0.5368 0.0205 0.3798
C14 C 0.57497(9) 0.1002(3) 0.13756(19)
H17 H 0.6070 0.0323 0.1372
H18 H 0.5759 0.1730 0.0615
H19 H 0.5426 0.0344 0.1308
O1 O 0.56246(4) 0.49130(13) 0.62810(9)
O2 O 0.67956(5) 0.66670(15) 0.39633(14)
O3 O 0.72206(4) 0.42866(14) 0.41860(11)
N1 N 0.57806(5) 0.52357(15) 0.40351(11)
H29 H 0.5672 0.5684 0.3287
H1A H 0.5038 0.7277 0.4205
C2A C 0.45002(6) 0.55210(17) 0.48310(13)
C3A C 0.37411(6) 0.42060(19) 0.59837(15)
H2A H 0.3741 0.3541 0.5157
C4A C 0.32236(6) 0.5230(2) 0.59534(15)
C5A C 0.22551(6) 0.5123(2) 0.57732(18)
H3A H 0.2271 0.6001 0.5136
H4A H 0.2177 0.5537 0.6663
H5A H 0.1971 0.4384 0.5494
C11A C 0.37589(7) 0.3076(2) 0.72139(16)
H11A H 0.3749 0.3725 0.8036
H12A H 0.3430 0.2412 0.7191
C12A C 0.42579(7) 0.1968(2) 0.73034(16)
H13A H 0.4584 0.2661 0.7344
C13A C 0.43142(10) 0.0882(3) 0.6080(2)
H14A H 0.4354 0.1529 0.5276
H15A H 0.3992 0.0218 0.5983
H16A H 0.4632 0.0205 0.6202
C14A C 0.42503(9) 0.1002(3) 0.86244(19)
H17A H 0.3930 0.0323 0.8628
H18A H 0.4241 0.1730 0.9385
H19A H 0.4574 0.0344 0.8692
O1A O 0.43754(4) 0.49130(13) 0.37190(9)
O2A O 0.32044(5) 0.66670(15) 0.60367(14)
O3A O 0.27794(4) 0.42866(14) 0.58140(11)
N1A N 0.42194(5) 0.52357(15) 0.59649(11)
H29A H 0.4328 0.5684 0.6713
C6 C 0.5000 0.4830(3) 1.0000
H6 H 0.5033 0.4144 0.9204
C7 C 0.55052(6) 0.5907(2) 1.01511(15)
C8 C 0.61909(6) 0.74378(18) 0.89240(15)
H7 H 0.6306 0.7743 0.9851
C9 C 0.59591(7) 0.8924(2) 0.81999(16)
C10 C 0.61006(8) 1.1659(2) 0.76964(17)
H8 H 0.5741 1.1932 0.8006
H9 H 0.6088 1.1494 0.6728
H10 H 0.6351 1.2524 0.7912
C15 C 0.66944(6) 0.6817(2) 0.81612(15)
H20 H 0.6577 0.6495 0.7251
H21 H 0.6953 0.7702 0.8069
C16 C 0.69923(7) 0.5402(2) 0.88331(15)
H22 H 0.6723 0.4550 0.9008
C17 C 0.72641(8) 0.5876(2) 1.01821(18)
H23 H 0.7533 0.6702 1.0028
H24 H 0.7441 0.4948 1.0582
H25 H 0.6991 0.6277 1.0788
C18 C 0.74179(8) 0.4738(2) 0.7844(2)
H26 H 0.7665 0.5588 0.7593
H27 H 0.7233 0.4330 0.7042
H28 H 0.7622 0.3882 0.8277
O4 O 0.56433(5) 0.64566(14) 1.12677(10)
O5 O 0.55409(6) 0.89462(16) 0.75404(15)
O6 O 0.62856(4) 1.01992(13) 0.83623(10)
N2 N 0.57669(5) 0.62218(15) 0.90023(11)
H30 H 0.5680 0.5682 0.8281
H6A H 0.4967 0.4144 1.0796
C7A C 0.44948(6) 0.5907(2) 0.98489(15)
C8A C 0.38091(6) 0.74378(18) 1.10760(15)
H7A H 0.3694 0.7743 1.0149
C9A C 0.40409(7) 0.8924(2) 1.18001(16)
C10A C 0.38994(8) 1.1659(2) 1.23036(17)
H8A H 0.4259 1.1932 1.1994
H9A H 0.3912 1.1494 1.3272
H10A H 0.3649 1.2524 1.2088
C15A C 0.33056(6) 0.6817(2) 1.18388(15)
H20A H 0.3423 0.6495 1.2749
H21A H 0.3047 0.7702 1.1931
C16A C 0.30077(7) 0.5402(2) 1.11669(15)
H22A H 0.3277 0.4550 1.0992
C17A C 0.27359(8) 0.5876(2) 0.98179(18)
H23A H 0.2467 0.6702 0.9972
H24A H 0.2559 0.4948 0.9418
H25A H 0.3009 0.6277 0.9212
C18A C 0.25821(8) 0.4738(2) 1.2156(2)
H26A H 0.2335 0.5588 1.2407
H27A H 0.2767 0.4330 1.2958
H28A H 0.2378 0.3882 1.1723
O4A O 0.43567(5) 0.64566(14) 0.87323(10)
O5A O 0.44591(6) 0.89462(16) 1.24596(15)
O6A O 0.37144(4) 1.01992(13) 1.16377(10)
N2A N 0.42331(5) 0.62218(15) 1.09977(11)
H30A H 0.4320 0.5682 1.1719
loop_
_geom_bond_atom_site_label_1
_geom_bond_atom_site_label_2
_geom_bond_site_symmetry_1
_geom_bond_site_symmetry_2
C1 H1 1_555 1_555
C2 C1 1_555 1_555
C3 H2 1_555 1_555
C4 C3 1_555 1_555
C5 H3 1_555 1_555
H4 C5 1_555 1_555
H5 C5 1_555 1_555
C6 H6 1_555 1_555
C7 C6 1_555 1_555
C8 H7 1_555 1_555
C9 C8 1_555 1_555
C10 H8 1_555 1_555
H9 C10 1_555 1_555
H10 C10 1_555 1_555
C11 C3 1_555 1_555
H11 C11 1_555 1_555
H12 C11 1_555 1_555
C12 C11 1_555 1_555
H13 C12 1_555 1_555
C13 C12 1_555 1_555
H14 C13 1_555 1_555
H15 C13 1_555 1_555
H16 C13 1_555 1_555
C14 C12 1_555 1_555
H17 C14 1_555 1_555
H18 C14 1_555 1_555
H19 C14 1_555 1_555
C15 C8 1_555 1_555
H20 C15 1_555 1_555
H21 C15 1_555 1_555
C16 C15 1_555 1_555
H22 C16 1_555 1_555
C17 C16 1_555 1_555
H23 C17 1_555 1_555
H24 C17 1_555 1_555
H25 C17 1_555 1_555
C18 C16 1_555 1_555
H26 C18 1_555 1_555
H27 C18 1_555 1_555
H28 C18 1_555 1_555
O1 C2 1_555 1_555
O2 C4 1_555 1_555
O3 C4 1_555 1_555
O4 C7 1_555 1_555
O5 C9 1_555 1_555
O6 C9 1_555 1_555
N1 C2 1_555 1_555
H29 N1 1_555 1_555
N2 C7 1_555 1_555
H30 N2 1_555 1_555
H1A C1 1_555 1_555
C2A C1 1_555 1_555
C3A H2A 1_555 1_555
C4A C3A 1_555 1_555
C5A H3A 1_555 1_555
H4A C5A 1_555 1_555
H5A C5A 1_555 1_555
H6A C6 1_555 1_555
C7A C6 1_555 1_555
C8A H7A 1_555 1_555
C9A C8A 1_555 1_555
C10A H8A 1_555 1_555
H9A C10A 1_555 1_555
H10A C10A 1_555 1_555
C11A C3A 1_555 1_555
H11A C11A 1_555 1_555
H12A C11A 1_555 1_555
C12A C11A 1_555 1_555
H13A C12A 1_555 1_555
C13A C12A 1_555 1_555
H14A C13A 1_555 1_555
H15A C13A 1_555 1_555
H16A C13A 1_555 1_555
C14A C12A 1_555 1_555
H17A C14A 1_555 1_555
H18A C14A 1_555 1_555
H19A C14A 1_555 1_555
C15A C8A 1_555 1_555
H20A C15A 1_555 1_555
H21A C15A 1_555 1_555
C16A C15A 1_555 1_555
H22A C16A 1_555 1_555
C17A C16A 1_555 1_555
H23A C17A 1_555 1_555
H24A C17A 1_555 1_555
H25A C17A 1_555 1_555
C18A C16A 1_555 1_555
H26A C18A 1_555 1_555
H27A C18A 1_555 1_555
H28A C18A 1_555 1_555
O1A C2A 1_555 1_555
O2A C4A 1_555 1_555
O3A C4A 1_555 1_555
O4A C7A 1_555 1_555
O5A C9A 1_555 1_555
O6A C9A 1_555 1_555
N1A C2A 1_555 1_555
H29A N1A 1_555 1_555
N2A C7A 1_555 1_555
H30A N2A 1_555 1_555
C3 N1 1_555 1_555
C5 O3 1_555 1_555
C8 N2 1_555 1_555
C10 O6 1_555 1_555
C3A N1A 1_555 1_555
C5A O3A 1_555 1_555
C8A N2A 1_555 1_555
C10A O6A 1_555 1_555

#END
