
#######################################################################
#
#                 Cambridge Crystallographic Data Centre
#                                CCDC 
#
#######################################################################
#
# If this CIF has been generated from an entry in the Cambridge 
# Structural Database, then it will include bibliographic, chemical, 
# crystal, experimental, refinement or atomic coordinate data resulting 
# from the CCDC's data processing and validation procedures.
#
#######################################################################

data_UNIMEK
_chemical_formula_moiety         'C18 H30 N2 O6'
_chemical_name_systematic        
'bis(N-\a-Amido-L-valine methyl ester)-1,1-cyclobutanedicarboxylate'
_symmetry_cell_setting           orthorhombic
_symmetry_space_group_name_H-M   'P 21 21 21'
_symmetry_Int_Tables_number      19
_space_group_name_Hall           'P 2ac 2ab'
loop_
_symmetry_equiv_pos_site_id
_symmetry_equiv_pos_as_xyz
1 x,y,z
2 -x,1/2+y,1/2-z
3 1/2+x,1/2-y,-z
4 1/2-x,-y,1/2+z
_cell_length_a                   9.5232(17)
_cell_length_b                   16.749(3)
_cell_length_c                   25.991(5)
_cell_angle_alpha                90
_cell_angle_beta                 90
_cell_angle_gamma                90
_cell_volume                     4145.67
_exptl_crystal_colour            white
_exptl_crystal_description       needle
_cell_formula_units_Z            8
loop_
_atom_site_label
_atom_site_type_symbol
_atom_site_fract_x
_atom_site_fract_y
_atom_site_fract_z
C1 C 0.1130(18) 0.4815(7) 1.0789(6)
H1 H 0.0462 0.4388 1.0821
H2 H 0.0951 0.5209 1.1048
H3 H 0.2062 0.4607 1.0831
C3 C 0.1195(18) 0.3261(9) 0.8970(6)
H7 H 0.1708 0.3118 0.9279
H8 H 0.0816 0.2789 0.8804
O1 O 0.2999(7) 0.5049(4) 0.9226(3)
C5 C 0.1722(12) 0.5110(7) 0.9116(4)
N3 N 0.0943(9) 0.5672(5) 0.9327(3)
H11 H 0.0074 0.5706 0.9240
O4 O -0.0848(8) 0.4766(5) 0.8164(3)
C8 C 0.0364(14) 0.4877(7) 0.8281(4)
N4 N 0.1227(9) 0.5324(5) 0.8008(4)
H12 H 0.2023 0.5462 0.8137
C9 C 0.1058(11) 0.4485(6) 0.8754(4)
C10 C 0.1485(11) 0.6232(7) 0.9698(4)
H13 H 0.2420 0.6379 0.9571
O5 O 0.1001(10) 0.5176(6) 1.0285(3)
C16 C 0.0676(12) 0.7023(7) 0.9747(5)
H20 H 0.1248 0.7387 0.9955
C17 C 0.1998(12) 0.3782(7) 0.8617(4)
H21 H 0.1934 0.3622 0.8259
H22 H 0.2970 0.3855 0.8719
C18 C 0.1730(17) 0.5830(10) 1.0206(6)
O7 O 0.2547(10) 0.6109(5) 1.0517(4)
C19 C 0.1457(13) 0.6404(8) 0.7376(4)
H23 H 0.2484 0.6381 0.7392
C21 C -0.0702(11) 0.6862(6) 1.0045(4)
H24 H -0.0514 0.6514 1.0330
H25 H -0.1372 0.6615 0.9819
H26 H -0.1075 0.7358 1.0170
C23 C 0.0090(14) 0.3924(7) 0.9058(5)
H28 H -0.0806 0.3823 0.8893
H29 H -0.0033 0.4073 0.9415
C24 C 0.0429(14) 0.7422(7) 0.9221(5)
H30 H 0.1287 0.7661 0.9103
H31 H -0.0280 0.7826 0.9254
H32 H 0.0124 0.7027 0.8977
C28 C 0.1005(15) 0.6672(8) 0.6832(5)
H39 H 0.1331 0.7206 0.6771
H40 H 0.0000 0.6658 0.6807
H41 H 0.1405 0.6319 0.6581
C31 C 0.0927(14) 0.7033(7) 0.7759(5)
H48 H 0.1331 0.7542 0.7677
H49 H 0.1198 0.6882 0.8102
H50 H -0.0077 0.7068 0.7739
C34 C 0.086(2) 0.5580(17) 0.7502(17)
H57 H -0.0164 0.5578 0.7459
C35 C 0.158(4) 0.4994(15) 0.7093(10)
O11 O 0.0696(15) 0.4434(9) 0.7038(5)
O12 O 0.2745(17) 0.5073(8) 0.6907(6)
C36 C 0.118(3) 0.3736(14) 0.6752(9)
H58 H 0.1541 0.3902 0.6425
H59 H 0.0404 0.3377 0.6700
H60 H 0.1901 0.3471 0.6944
C2 C -0.2986(19) 0.2188(9) 0.9556(6)
H4 H -0.2111 0.1913 0.9602
H5 H -0.3291 0.2132 0.9206
H6 H -0.3679 0.1964 0.9782
N1 N -0.3849(9) 0.4788(5) 0.8064(3)
H9 H -0.3017 0.4722 0.8185
O2 O -0.5821(8) 0.5552(4) 0.8099(3)
O3 O -0.1991(8) 0.5516(5) 0.9213(3)
C4 C -0.3231(14) 0.5401(8) 0.9091(4)
N2 N -0.4051(9) 0.4869(5) 0.9301(3)
H10 H -0.4881 0.4801 0.9178
C6 C -0.3917(12) 0.5881(6) 0.8656(4)
C7 C -0.4617(14) 0.5370(8) 0.8258(5)
C11 C -0.3592(12) 0.4382(7) 0.9744(5)
H14 H -0.2578 0.4453 0.9789
C12 C -0.4315(13) 0.4252(7) 0.7658(4)
H15 H -0.5260 0.4408 0.7547
C13 C -0.4800(12) 0.6600(6) 0.8875(4)
H16 H -0.5636 0.6716 0.8675
H17 H -0.5028 0.6546 0.9237
C14 C -0.2902(11) 0.6518(7) 0.8435(4)
H18 H -0.3012 0.6608 0.8068
H19 H -0.1924 0.6428 0.8522
C15 C -0.4380(16) 0.3431(9) 0.7902(6)
O6 O -0.5579(9) 0.3037(6) 0.7775(3)
C20 C -0.3874(17) 0.3497(9) 0.9570(6)
C22 C -0.3333(13) 0.4256(9) 0.7190(5)
H27 H -0.2394 0.4106 0.7310
O8 O -0.3520(12) 0.3156(6) 0.8167(4)
C25 C -0.4298(14) 0.4560(7) 1.0241(5)
H33 H -0.5316 0.4534 1.0190
C26 C -0.3633(13) 0.7161(7) 0.8776(5)
H34 H -0.3105 0.7302 0.9082
H35 H -0.3913 0.7635 0.8588
O9 O -0.4969(13) 0.3274(6) 0.9423(4)
O10 O -0.2796(10) 0.3048(6) 0.9677(4)
C27 C -0.3747(14) 0.3681(7) 0.6783(5)
H36 H -0.3056 0.3685 0.6514
H37 H -0.4642 0.3832 0.6644
H38 H -0.3810 0.3155 0.6927
C29 C -0.3907(14) 0.5413(7) 1.0404(4)
H42 H -0.4103 0.5774 1.0126
H43 H -0.2925 0.5435 1.0487
H44 H -0.4448 0.5562 1.0700
C30 C -0.3238(15) 0.5108(8) 0.6971(5)
H45 H -0.2969 0.5471 0.7239
H46 H -0.4136 0.5262 0.6836
H47 H -0.2551 0.5121 0.6701
C32 C -0.3911(17) 0.4010(7) 1.0674(6)
H51 H -0.4314 0.3493 1.0614
H52 H -0.4264 0.4221 1.0992
H53 H -0.2908 0.3963 1.0693
C33 C -0.5700(17) 0.2256(8) 0.8021(6)
H54 H -0.6657 0.2079 0.8005
H55 H -0.5415 0.2297 0.8375
H56 H -0.5108 0.1880 0.7846
C37? C 0.086(3) 0.564(3) 0.747(3)
C38? C 0.076(6) 0.500(3) 0.7166(18)
C39? C 0.191(4) 0.371(2) 0.6841(14)
H61? H -0.0128 0.5781 0.7518
H62? H 0.2859 0.3762 0.6724
H63? H 0.1279 0.3785 0.6557
H64? H 0.1773 0.3184 0.6982
O13? O -0.009(3) 0.4766(14) 0.6788(10)
O14? O 0.162(3) 0.4315(16) 0.7242(10)
loop_
_geom_bond_atom_site_label_1
_geom_bond_atom_site_label_2
_geom_bond_site_symmetry_1
_geom_bond_site_symmetry_2
C1 H1 1_555 1_555
H2 C1 1_555 1_555
H3 C1 1_555 1_555
C2 H4 1_555 1_555
H5 C2 1_555 1_555
H6 C2 1_555 1_555
C3 H7 1_555 1_555
H8 C3 1_555 1_555
O1 C5 1_555 1_555
N1 H9 1_555 1_555
O2 C7 1_555 1_555
O3 C4 1_555 1_555
C4 N2 1_555 1_555
N2 H10 1_555 1_555
C5 N3 1_555 1_555
N3 H11 1_555 1_555
C6 C4 1_555 1_555
C7 N1 1_555 1_555
O4 C8 1_555 1_555
C8 N4 1_555 1_555
N4 H12 1_555 1_555
C9 C5 1_555 1_555
C10 N3 1_555 1_555
H13 C10 1_555 1_555
C11 N2 1_555 1_555
H14 C11 1_555 1_555
C12 N1 1_555 1_555
H15 C12 1_555 1_555
O5 C1 1_555 1_555
C13 C6 1_555 1_555
H16 C13 1_555 1_555
H17 C13 1_555 1_555
C14 C6 1_555 1_555
H18 C14 1_555 1_555
H19 C14 1_555 1_555
C15 C12 1_555 1_555
C16 C10 1_555 1_555
H20 C16 1_555 1_555
C17 C3 1_555 1_555
H21 C17 1_555 1_555
H22 C17 1_555 1_555
O6 C15 1_555 1_555
C18 C10 1_555 1_555
O7 C18 1_555 1_555
C19 H23 1_555 1_555
C20 C11 1_555 1_555
C21 C16 1_555 1_555
H24 C21 1_555 1_555
H25 C21 1_555 1_555
H26 C21 1_555 1_555
C22 C12 1_555 1_555
H27 C22 1_555 1_555
C23 C3 1_555 1_555
H28 C23 1_555 1_555
H29 C23 1_555 1_555
C24 C16 1_555 1_555
H30 C24 1_555 1_555
H31 C24 1_555 1_555
H32 C24 1_555 1_555
O8 C15 1_555 1_555
C25 C11 1_555 1_555
H33 C25 1_555 1_555
C26 C13 1_555 1_555
H34 C26 1_555 1_555
H35 C26 1_555 1_555
O9 C20 1_555 1_555
O10 C2 1_555 1_555
C27 C22 1_555 1_555
H36 C27 1_555 1_555
H37 C27 1_555 1_555
H38 C27 1_555 1_555
C28 C19 1_555 1_555
H39 C28 1_555 1_555
H40 C28 1_555 1_555
H41 C28 1_555 1_555
C29 C25 1_555 1_555
H42 C29 1_555 1_555
H43 C29 1_555 1_555
H44 C29 1_555 1_555
C30 C22 1_555 1_555
H45 C30 1_555 1_555
H46 C30 1_555 1_555
H47 C30 1_555 1_555
C31 C19 1_555 1_555
H48 C31 1_555 1_555
H49 C31 1_555 1_555
H50 C31 1_555 1_555
C32 C25 1_555 1_555
H51 C32 1_555 1_555
H52 C32 1_555 1_555
H53 C32 1_555 1_555
C33 O6 1_555 1_555
H54 C33 1_555 1_555
H55 C33 1_555 1_555
H56 C33 1_555 1_555
C34 N4 1_555 1_555
H57 C34 1_555 1_555
C35 C34 1_555 1_555
O11 C35 1_555 1_555
O12 C35 1_555 1_555
C36 O11 1_555 1_555
H58 C36 1_555 1_555
H59 C36 1_555 1_555
H60 C36 1_555 1_555
C6 C7 1_555 1_555
C8 C9 1_555 1_555
C9 C17 1_555 1_555
C9 C23 1_555 1_555
O5 C18 1_555 1_555
C14 C26 1_555 1_555
C19 C34 1_555 1_555
C20 O10 1_555 1_555

#END
