
#######################################################################
#
#                 Cambridge Crystallographic Data Centre
#                                CCDC 
#
#######################################################################
#
# If this CIF has been generated from an entry in the Cambridge 
# Structural Database, then it will include bibliographic, chemical, 
# crystal, experimental, refinement or atomic coordinate data resulting 
# from the CCDC's data processing and validation procedures.
#
#######################################################################

data_UNIMOU
_chemical_formula_moiety         'C16 H26 N2 O6'
_chemical_name_systematic        
'bis(N-\a-Amido-\a-aminoisobutyric acid methyl ester)-1,1-cyclobutanedicarboxylate'
_symmetry_cell_setting           monoclinic
_symmetry_space_group_name_H-M   'C 2/c'
_symmetry_Int_Tables_number      15
_space_group_name_Hall           '-C 2yn'
loop_
_symmetry_equiv_pos_site_id
_symmetry_equiv_pos_as_xyz
1 x,y,z
2 1/2+x,1/2+y,z
3 -x,y,1/2-z
4 1/2-x,1/2+y,1/2-z
5 -x,-y,-z
6 1/2-x,1/2-y,-z
7 x,-y,1/2+z
8 1/2+x,1/2-y,1/2+z
_cell_length_a                   11.613(9)
_cell_length_b                   16.260(13)
_cell_length_c                   10.010(9)
_cell_angle_alpha                90
_cell_angle_beta                 99.718(10)
_cell_angle_gamma                90
_cell_volume                     1863.04
_exptl_crystal_colour            white
_exptl_crystal_description       needle
_cell_formula_units_Z            4
loop_
_atom_site_label
_atom_site_type_symbol
_atom_site_fract_x
_atom_site_fract_y
_atom_site_fract_z
C1 C 0.0000 -0.0544(3) 0.2500
C2 C 0.0267(4) -0.1225(2) 0.3592(5)
H1 H 0.1092 -0.1357 0.3816
H2 H -0.0051 -0.1108 0.4407
C3 C 0.0385(8) -0.1824(5) 0.2250(10)
H3 H 0.1180 -0.1892 0.2088
H4 H -0.0006 -0.2351 0.2255
C4 C 0.1043(3) 0.0004(2) 0.2342(3)
O1 O 0.1351(2) 0.01068(17) 0.1242(3)
N1 N 0.1583(3) 0.03610(18) 0.3473(3)
H5 H 0.1300 0.0302 0.4208
C5 C 0.2645(3) 0.0851(3) 0.3506(4)
C6 C 0.3677(4) 0.0289(4) 0.3386(6)
H6 H 0.4373 0.0614 0.3431
H7 H 0.3528 0.0003 0.2536
H8 H 0.3779 -0.0102 0.4115
C7 C 0.2873(5) 0.1322(3) 0.4849(5)
H9 H 0.2203 0.1652 0.4933
H10 H 0.3542 0.1671 0.4869
H11 H 0.3016 0.0939 0.5588
C8 C 0.2470(4) 0.1481(3) 0.2356(5)
O2 O 0.1497(3) 0.1915(2) 0.2358(4)
C9 C 0.1274(6) 0.2580(3) 0.1392(6)
H12 H 0.1822 0.3017 0.1656
H13 H 0.0494 0.2782 0.1368
H14 H 0.1359 0.2384 0.0509
O3 O 0.3156(4) 0.1604(3) 0.1611(4)
C2B C -0.0267(4) -0.1225(2) 0.1408(5)
H1B H -0.1092 -0.1357 0.1184
H2B H 0.0051 -0.1108 0.0593
C3B C -0.0385(8) -0.1824(5) 0.2750(10)
H3B H -0.1180 -0.1892 0.2912
H4B H 0.0006 -0.2351 0.2745
C4B C -0.1043(3) 0.0004(2) 0.2658(3)
O1B O -0.1351(2) 0.01068(17) 0.3758(3)
N1B N -0.1583(3) 0.03610(18) 0.1527(3)
H5B H -0.1300 0.0302 0.0792
C5B C -0.2645(3) 0.0851(3) 0.1494(4)
C6B C -0.3677(4) 0.0289(4) 0.1614(6)
H6B H -0.4373 0.0614 0.1569
H7B H -0.3528 0.0003 0.2464
H8B H -0.3779 -0.0102 0.0885
C7B C -0.2873(5) 0.1322(3) 0.0151(5)
H9B H -0.2203 0.1652 0.0067
H10B H -0.3542 0.1671 0.0131
H11B H -0.3016 0.0939 -0.0588
C8B C -0.2470(4) 0.1481(3) 0.2644(5)
O2B O -0.1497(3) 0.1915(2) 0.2642(4)
C9B C -0.1274(6) 0.2580(3) 0.3608(6)
H12B H -0.1822 0.3017 0.3344
H13B H -0.0494 0.2782 0.3632
H14B H -0.1359 0.2384 0.4491
O3B O -0.3156(4) 0.1604(3) 0.3389(4)
loop_
_geom_bond_atom_site_label_1
_geom_bond_atom_site_label_2
_geom_bond_site_symmetry_1
_geom_bond_site_symmetry_2
C1 C2 1_555 1_555
C2 H1 1_555 1_555
H2 C2 1_555 1_555
C3 C2 1_555 1_555
H3 C3 1_555 1_555
H4 C3 1_555 1_555
C4 C1 1_555 1_555
O1 C4 1_555 1_555
N1 C4 1_555 1_555
H5 N1 1_555 1_555
C5 N1 1_555 1_555
C6 C5 1_555 1_555
H6 C6 1_555 1_555
H7 C6 1_555 1_555
H8 C6 1_555 1_555
C7 C5 1_555 1_555
H9 C7 1_555 1_555
H10 C7 1_555 1_555
H11 C7 1_555 1_555
C8 C5 1_555 1_555
O2 C8 1_555 1_555
C9 O2 1_555 1_555
H12 C9 1_555 1_555
H13 C9 1_555 1_555
H14 C9 1_555 1_555
O3 C8 1_555 1_555
C2B C1 1_555 1_555
H1B C2B 1_555 1_555
H2B C2B 1_555 1_555
C3B C2 1_555 1_555
H3B C3B 1_555 1_555
H4B C3 1_555 1_555
C4B C1 1_555 1_555
O1B C4B 1_555 1_555
N1B C4B 1_555 1_555
H5B N1B 1_555 1_555
C5B N1B 1_555 1_555
C6B C5B 1_555 1_555
H6B C6B 1_555 1_555
H7B C6B 1_555 1_555
H8B C6B 1_555 1_555
C7B C5B 1_555 1_555
H9B C7B 1_555 1_555
H10B C7B 1_555 1_555
H11B C7B 1_555 1_555
C8B C5B 1_555 1_555
O2B C8B 1_555 1_555
C9B O2B 1_555 1_555
H12B C9B 1_555 1_555
H13B C9B 1_555 1_555
H14B C9B 1_555 1_555
O3B C8B 1_555 1_555
C3 C2B 1_555 1_555
C3 C3B 1_555 1_555
H4 C3B 1_555 1_555
C2B C3B 1_555 1_555
C3B H4B 1_555 1_555

#END
