
#######################################################################
#
#                 Cambridge Crystallographic Data Centre
#                                CCDC 
#
#######################################################################
#
# If this CIF has been generated from an entry in the Cambridge 
# Structural Database, then it will include bibliographic, chemical, 
# crystal, experimental, refinement or atomic coordinate data resulting 
# from the CCDC's data processing and validation procedures.
#
#######################################################################

data_UNOGAF
_chemical_formula_moiety         'C13 H15 N1 O6'
_chemical_name_systematic        'Diethyl 2-(4-nitrophenyl)malonate'
_symmetry_cell_setting           monoclinic
_symmetry_space_group_name_H-M   'P 21/c'
_symmetry_Int_Tables_number      14
_space_group_name_Hall           '-P 2ybc'
loop_
_symmetry_equiv_pos_site_id
_symmetry_equiv_pos_as_xyz
1 x,y,z
2 x,1/2-y,1/2+z
3 -x,-y,-z
4 -x,1/2+y,1/2-z
_cell_length_a                   11.9275(6)
_cell_length_b                   13.8407(8)
_cell_length_c                   8.4595(3)
_cell_angle_alpha                90
_cell_angle_beta                 99.192(3)
_cell_angle_gamma                90
_cell_volume                     1378.6
_exptl_crystal_colour            colorless
_exptl_crystal_description       block
_chemical_melting_point          '330-332 K'
_cell_formula_units_Z            4
_exptl_crystal_recrystallization_method ethanol
loop_
_atom_site_label
_atom_site_type_symbol
_atom_site_fract_x
_atom_site_fract_y
_atom_site_fract_z
C1 C 0.26206(15) 0.70841(13) 0.0045(2)
C2 C 0.31247(15) 0.78599(13) 0.0895(2)
C3 C 0.42206(15) 0.77511(13) 0.1707(2)
C4 C 0.47936(14) 0.68809(12) 0.16643(19)
C5 C 0.42446(15) 0.61054(13) 0.0833(2)
C6 C 0.31552(15) 0.62012(13) 0.0003(2)
N1 N 0.14715(14) 0.71995(13) -0.0862(2)
O1 O 0.10571(12) 0.65304(12) -0.1696(2)
O2 O 0.09727(13) 0.79570(13) -0.0729(2)
C7 C 0.60129(14) 0.68116(12) 0.24883(19)
C8 C 0.62259(14) 0.59399(13) 0.3596(2)
C9 C 0.68408(14) 0.67088(12) 0.1294(2)
O3 O 0.63993(11) 0.62046(9) 0.51212(14)
O4 O 0.62378(12) 0.51227(9) 0.31328(15)
C10 C 0.66937(19) 0.54315(15) 0.6290(2)
C11 C 0.7935(2) 0.52559(17) 0.6564(3)
O5 O 0.78551(10) 0.70414(9) 0.19546(14)
O6 O 0.66166(10) 0.63559(9) -0.00140(13)
C12 C 0.87722(15) 0.69521(14) 0.0998(2)
C13 C 0.92740(18) 0.59653(16) 0.1161(3)
H1 H 0.2731 0.8455 0.0923
H2 H 0.4585 0.8278 0.2299
H3 H 0.4623 0.5501 0.0834
H4 H 0.2784 0.5674 -0.0582
H5 H 0.6207 0.7411 0.3133
H6 H 0.6291 0.4832 0.5894
H7 H 0.6447 0.5612 0.7313
H8 H 0.8177 0.5069 0.5553
H9 H 0.8116 0.4736 0.7349
H10 H 0.8333 0.5847 0.6971
H11 H 0.9369 0.7437 0.1361
H12 H 0.8470 0.7082 -0.0141
H13 H 0.9520 0.5819 0.2297
H14 H 0.9929 0.5936 0.0595
H15 H 0.8704 0.5492 0.0698
loop_
_geom_bond_atom_site_label_1
_geom_bond_atom_site_label_2
_geom_bond_site_symmetry_1
_geom_bond_site_symmetry_2
C1 C2 1_555 1_555
C2 C3 1_555 1_555
C3 C4 1_555 1_555
C4 C5 1_555 1_555
C5 C6 1_555 1_555
C6 C1 1_555 1_555
N1 C1 1_555 1_555
O1 N1 1_555 1_555
O2 N1 1_555 1_555
C7 C4 1_555 1_555
C8 C7 1_555 1_555
C9 C7 1_555 1_555
O3 C8 1_555 1_555
O4 C8 1_555 1_555
C10 O3 1_555 1_555
C11 C10 1_555 1_555
O5 C9 1_555 1_555
O6 C9 1_555 1_555
C12 O5 1_555 1_555
C13 C12 1_555 1_555
H1 C2 1_555 1_555
H2 C3 1_555 1_555
H3 C5 1_555 1_555
H4 C6 1_555 1_555
H5 C7 1_555 1_555
H6 C10 1_555 1_555
H7 C10 1_555 1_555
H8 C11 1_555 1_555
H9 C11 1_555 1_555
H10 C11 1_555 1_555
H11 C12 1_555 1_555
H12 C12 1_555 1_555
H13 C13 1_555 1_555
H14 C13 1_555 1_555
H15 C13 1_555 1_555

#END
