
#######################################################################
#
#                 Cambridge Crystallographic Data Centre
#                                CCDC 
#
#######################################################################
#
# If this CIF has been generated from an entry in the Cambridge 
# Structural Database, then it will include bibliographic, chemical, 
# crystal, experimental, refinement or atomic coordinate data resulting 
# from the CCDC's data processing and validation procedures.
#
#######################################################################

data_UNORAS
_chemical_name_common            Taxatriol
_chemical_formula_moiety         'C20 H34 O3'
_chemical_name_systematic        tax-11-ene-2,4,5-triol
_symmetry_cell_setting           monoclinic
_symmetry_space_group_name_H-M   'P n'
_symmetry_Int_Tables_number      7
_space_group_name_Hall           'P -2yac'
loop_
_symmetry_equiv_pos_site_id
_symmetry_equiv_pos_as_xyz
1 x,y,z
2 1/2+x,-y,1/2+z
_cell_length_a                   7.8199(5)
_cell_length_b                   12.4905(8)
_cell_length_c                   9.4550(6)
_cell_angle_alpha                90
_cell_angle_beta                 106.830(2)
_cell_angle_gamma                90
_cell_volume                     883.956
_exptl_crystal_colour            colorless
_exptl_crystal_description       plate
_cell_formula_units_Z            2
_exptl_crystal_recrystallization_method 'ethyl acetate'
loop_
_atom_site_label
_atom_site_type_symbol
_atom_site_fract_x
_atom_site_fract_y
_atom_site_fract_z
O1 O -0.1678(2) -0.60996(14) -0.4445(2)
H1 H -0.064(4) -0.615(3) -0.466(4)
O2 O -0.8248(2) -0.59101(15) -0.5046(2)
H2 H -0.825(5) -0.543(3) -0.574(4)
O3 O -0.3695(2) -0.53424(15) -0.2751(2)
H3 H -0.270(6) -0.545(3) -0.294(5)
C1 C -0.6784(3) -0.56837(19) -0.3760(3)
H4 H -0.6932 -0.4956 -0.3425
C2 C -0.6945(4) -0.6464(2) -0.2583(3)
H5 H -0.8132 -0.6416 -0.2461
H6 H -0.6087 -0.6280 -0.1649
C3 C -0.6608(3) -0.7601(2) -0.3007(3)
H7 H -0.7511 -0.7792 -0.3915
H8 H -0.6727 -0.8086 -0.2240
C4 C -0.4738(3) -0.7751(2) -0.3229(3)
C5 C -0.3307(4) -0.7627(2) -0.1731(3)
H9 H -0.2144 -0.7622 -0.1880
H10 H -0.3389 -0.8216 -0.1101
H11 H -0.3494 -0.6967 -0.1277
C6 C -0.4520(3) -0.69216(17) -0.4416(3)
H12 H -0.5438 -0.7115 -0.5329
C7 C -0.4958(3) -0.57510(18) -0.4078(3)
C8 C -0.4992(3) -0.4980(2) -0.5333(3)
H13 H -0.5537 -0.4319 -0.5178
H14 H -0.5668 -0.5290 -0.6255
H15 H -0.3793 -0.4845 -0.5358
C9 C -0.2682(3) -0.70824(19) -0.4762(3)
H16 H -0.2012 -0.7610 -0.4048
C10 C -0.5791(3) -0.7249(2) -0.8266(3)
H17 H -0.6574 -0.6641 -0.8302
H18 H -0.5966 -0.7489 -0.9274
C11 C -0.3826(3) -0.6863(2) -0.7636(3)
H19 H -0.3253 -0.6897 -0.8418
H20 H -0.3834 -0.6119 -0.7344
C12 C -0.2703(3) -0.7504(2) -0.6313(3)
H21 H -0.1467 -0.7455 -0.6353
C13 C -0.3224(3) -0.87071(19) -0.6558(3)
C14 C -0.1836(4) -0.9434(2) -0.5481(3)
H22 H -0.1488 -0.9115 -0.4516
H23 H -0.0805 -0.9513 -0.5829
H24 H -0.2355 -1.0124 -0.5430
C15 C -0.3169(3) -0.9078(2) -0.8098(3)
H25 H -0.3346 -0.9838 -0.8183
H26 H -0.2030 -0.8901 -0.8229
H27 H -0.4098 -0.8725 -0.8843
C16 C -0.5160(3) -0.87699(18) -0.6492(3)
C17 C -0.6356(3) -0.81399(19) -0.7414(3)
C18 C -0.8324(3) -0.8120(2) -0.7565(4)
H28 H -0.8671 -0.8789 -0.7229
H29 H -0.8981 -0.8013 -0.8583
H30 H -0.8578 -0.7546 -0.6981
C19 C -0.5574(4) -0.9368(2) -0.5234(3)
H31 H -0.5264 -1.0116 -0.5287
H32 H -0.6850 -0.9331 -0.5366
C20 C -0.4582(4) -0.8937(2) -0.3683(3)
H33 H -0.3322 -0.9077 -0.3530
H34 H -0.4950 -0.9378 -0.2978
loop_
_geom_bond_atom_site_label_1
_geom_bond_atom_site_label_2
_geom_bond_site_symmetry_1
_geom_bond_site_symmetry_2
O1 H1 1_555 1_555
O2 H2 1_555 1_555
O3 H3 1_555 1_555
C1 O2 1_555 1_555
H4 C1 1_555 1_555
C2 C1 1_555 1_555
H5 C2 1_555 1_555
H6 C2 1_555 1_555
C3 C2 1_555 1_555
H7 C3 1_555 1_555
H8 C3 1_555 1_555
C4 C3 1_555 1_555
C5 C4 1_555 1_555
H9 C5 1_555 1_555
H10 C5 1_555 1_555
H11 C5 1_555 1_555
C6 C4 1_555 1_555
H12 C6 1_555 1_555
C7 O3 1_555 1_555
C8 C7 1_555 1_555
H13 C8 1_555 1_555
H14 C8 1_555 1_555
H15 C8 1_555 1_555
C9 O1 1_555 1_555
H16 C9 1_555 1_555
C10 H17 1_555 1_555
H18 C10 1_555 1_555
C11 C10 1_555 1_555
H19 C11 1_555 1_555
H20 C11 1_555 1_555
C12 C9 1_555 1_555
H21 C12 1_555 1_555
C13 C12 1_555 1_555
C14 C13 1_555 1_555
H22 C14 1_555 1_555
H23 C14 1_555 1_555
H24 C14 1_555 1_555
C15 C13 1_555 1_555
H25 C15 1_555 1_555
H26 C15 1_555 1_555
H27 C15 1_555 1_555
C16 C13 1_555 1_555
C17 C10 1_555 1_555
C18 C17 1_555 1_555
H28 C18 1_555 1_555
H29 C18 1_555 1_555
H30 C18 1_555 1_555
C19 C16 1_555 1_555
H31 C19 1_555 1_555
H32 C19 1_555 1_555
C20 C4 1_555 1_555
H33 C20 1_555 1_555
H34 C20 1_555 1_555
C1 C7 1_555 1_555
C6 C7 1_555 1_555
C6 C9 1_555 1_555
C11 C12 1_555 1_555
C16 C17 1_555 1_555
C19 C20 1_555 1_555

#END
