
#######################################################################
#
#                 Cambridge Crystallographic Data Centre
#                                CCDC 
#
#######################################################################
#
# If this CIF has been generated from an entry in the Cambridge 
# Structural Database, then it will include bibliographic, chemical, 
# crystal, experimental, refinement or atomic coordinate data resulting 
# from the CCDC's data processing and validation procedures.
#
#######################################################################

data_UNOVID
_chemical_formula_moiety         'C13 H9 Cl1 O3'
_chemical_name_systematic        '2-(2-Chlorophenoxy)benzoic acid'
_symmetry_cell_setting           monoclinic
_symmetry_space_group_name_H-M   'P 21/c'
_symmetry_Int_Tables_number      14
_space_group_name_Hall           '-P 2ybc'
loop_
_symmetry_equiv_pos_site_id
_symmetry_equiv_pos_as_xyz
1 x,y,z
2 -x,1/2+y,1/2-z
3 -x,-y,-z
4 x,1/2-y,1/2+z
_cell_length_a                   6.9930(14)
_cell_length_b                   24.986(5)
_cell_length_c                   7.5140(15)
_cell_angle_alpha                90
_cell_angle_beta                 115.79(3)
_cell_angle_gamma                90
_cell_volume                     1182.13
_exptl_crystal_colour            colorless
_exptl_crystal_description       block
_cell_formula_units_Z            4
loop_
_atom_site_label
_atom_site_type_symbol
_atom_site_fract_x
_atom_site_fract_y
_atom_site_fract_z
Cl1 Cl 0.30495(19) 0.80926(6) 0.11968(19)
O1 O 0.5536(3) 0.90532(7) 0.1714(2)
C1 C 0.5689(5) 0.81539(15) 0.2793(5)
O2 O 0.0554(3) 0.99730(8) -0.2082(2)
H1 H -0.0220 1.0088 -0.1606
C2 C 0.6811(8) 0.77525(16) 0.4047(6)
H2 H 0.6136 0.7432 0.4050
O3 O 0.2120(3) 0.96137(9) 0.0872(2)
C3 C 0.8874(8) 0.78149(18) 0.5273(6)
H3 H 0.9597 0.7542 0.6150
C4 C 0.9925(6) 0.82717(19) 0.5254(5)
H4 H 1.1367 0.8308 0.6076
C5 C 0.8814(5) 0.86787(13) 0.3997(4)
H5 H 0.9506 0.8994 0.3967
C6 C 0.6706(5) 0.86214(12) 0.2799(3)
C7 C 0.5230(4) 0.91164(10) -0.0195(3)
C8 C 0.3564(4) 0.94517(10) -0.1407(3)
C9 C 0.3345(4) 0.95491(11) -0.3322(3)
H6 H 0.2275 0.9778 -0.4143
C10 C 0.4647(5) 0.93199(13) -0.4018(4)
H7 H 0.4463 0.9388 -0.5299
C11 C 0.6243(5) 0.89853(13) -0.2802(4)
H8 H 0.7140 0.8826 -0.3268
C12 C 0.6529(4) 0.88827(11) -0.0903(3)
H9 H 0.7608 0.8654 -0.0099
C13 C 0.2020(4) 0.96877(11) -0.0801(3)
loop_
_geom_bond_atom_site_label_1
_geom_bond_atom_site_label_2
_geom_bond_site_symmetry_1
_geom_bond_site_symmetry_2
Cl1 C1 1_555 1_555
O1 C6 1_555 1_555
C1 C2 1_555 1_555
O2 H1 1_555 1_555
C2 H2 1_555 1_555
O3 C13 1_555 1_555
C3 C2 1_555 1_555
H3 C3 1_555 1_555
C4 C3 1_555 1_555
H4 C4 1_555 1_555
C5 C4 1_555 1_555
H5 C5 1_555 1_555
C6 C1 1_555 1_555
C7 O1 1_555 1_555
C8 C7 1_555 1_555
C9 C8 1_555 1_555
H6 C9 1_555 1_555
C10 C9 1_555 1_555
H7 C10 1_555 1_555
C11 C10 1_555 1_555
H8 C11 1_555 1_555
C12 C7 1_555 1_555
H9 C12 1_555 1_555
C13 O2 1_555 1_555
C5 C6 1_555 1_555
C8 C13 1_555 1_555
C11 C12 1_555 1_555

#END
