
#######################################################################
#
#                 Cambridge Crystallographic Data Centre
#                                CCDC 
#
#######################################################################
#
# If this CIF has been generated from an entry in the Cambridge 
# Structural Database, then it will include bibliographic, chemical, 
# crystal, experimental, refinement or atomic coordinate data resulting 
# from the CCDC's data processing and validation procedures.
#
#######################################################################

data_UNOZED
_chemical_name_common            
'Phenylmethanaminium 1,4,7,10,13,16-hexaoxacyclooctadecane perchlorate'
_chemical_formula_moiety         'C7 H10 N1 1+,C12 H24 O6,Cl1 O4 1-'
_chemical_name_systematic        'Benzylaminium 18-crown-6 perchlorate'
_symmetry_cell_setting           triclinic
_symmetry_space_group_name_H-M   'P -1'
_symmetry_Int_Tables_number      2
_space_group_name_Hall           '-P 1'
loop_
_symmetry_equiv_pos_site_id
_symmetry_equiv_pos_as_xyz
1 x,y,z
2 -x,-y,-z
_cell_length_a                   9.3482(19)
_cell_length_b                   10.948(2)
_cell_length_c                   12.071(2)
_cell_angle_alpha                76.71(3)
_cell_angle_beta                 86.64(3)
_cell_angle_gamma                78.27(3)
_cell_volume                     1177.11
_exptl_crystal_colour            colorless
_exptl_crystal_description       prism
_cell_formula_units_Z            2
loop_
_atom_site_label
_atom_site_type_symbol
_atom_site_fract_x
_atom_site_fract_y
_atom_site_fract_z
Cl1 Cl 0.09437(7) 0.73666(6) 0.23044(6)
O7 O 0.0730(3) 0.7953(3) 0.3246(2)
O8 O 0.0789(4) 0.8327(2) 0.1295(2)
O9 O -0.0107(4) 0.6649(4) 0.2327(3)
O10 O 0.2345(3) 0.6655(4) 0.2346(3)
N1 N 0.4131(2) 0.2586(2) 0.25044(18)
H1 H 0.328(2) 0.241(2) 0.262(2)
H2 H 0.434(3) 0.280(3) 0.309(2)
H3 H 0.473(3) 0.191(2) 0.242(2)
C13 C 0.4150(3) 0.3677(3) 0.1516(2)
H28 H 0.3409 0.4401 0.1630
H29 H 0.3909 0.3441 0.0833
C14 C 0.5614(2) 0.4067(2) 0.13535(19)
C15 C 0.6709(3) 0.3499(2) 0.0712(2)
H30 H 0.6544 0.2862 0.0369
C16 C 0.8057(3) 0.3872(3) 0.0573(2)
H31 H 0.8787 0.3488 0.0135
C17 C 0.8306(3) 0.4798(3) 0.1078(2)
H32 H 0.9213 0.5035 0.0996
C18 C 0.7231(3) 0.5378(3) 0.1702(2)
H33 H 0.7402 0.6018 0.2038
C19 C 0.5883(3) 0.5018(2) 0.1837(2)
H34 H 0.5152 0.5424 0.2260
C1 C 0.0242(3) 0.2263(3) 0.3324(2)
H4 H 0.0421 0.1450 0.3874
H5 H -0.0765 0.2435 0.3083
C2 C 0.0486(3) 0.3295(3) 0.3861(2)
H6 H 0.0375 0.4099 0.3300
H7 H -0.0228 0.3398 0.4465
C3 C 0.2209(3) 0.3866(3) 0.4913(2)
H8 H 0.1504 0.3930 0.5530
H9 H 0.2119 0.4703 0.4403
C4 C 0.3716(3) 0.3441(3) 0.5380(2)
H10 H 0.3864 0.3972 0.5889
H11 H 0.3844 0.2562 0.5811
C5 C 0.6237(3) 0.3138(3) 0.4840(3)
H12 H 0.6322 0.3391 0.5549
H13 H 0.6854 0.3574 0.4276
C6 C 0.6772(3) 0.1724(3) 0.5013(2)
H14 H 0.7751 0.1489 0.5319
H15 H 0.6138 0.1273 0.5549
C7 C 0.7380(3) 0.0069(3) 0.4014(3)
H16 H 0.6859 -0.0457 0.4588
H17 H 0.8397 -0.0112 0.4232
C8 C 0.7269(3) -0.0241(3) 0.2899(3)
H18 H 0.7716 0.0334 0.2311
H19 H 0.7778 -0.1111 0.2916
C9 C 0.5564(3) -0.0628(3) 0.1715(2)
H20 H 0.5974 -0.1538 0.1880
H21 H 0.6062 -0.0219 0.1048
C10 C 0.3972(3) -0.0412(3) 0.1491(2)
H22 H 0.3805 -0.0887 0.0941
H23 H 0.3450 -0.0702 0.2189
C11 C 0.1953(3) 0.1244(3) 0.0785(2)
H24 H 0.1734 0.0645 0.0370
H25 H 0.1754 0.2091 0.0287
C12 C 0.0963(3) 0.1234(3) 0.1806(2)
H26 H -0.0047 0.1405 0.1574
H27 H 0.1167 0.0400 0.2323
O1 O 0.19248(17) 0.29632(15) 0.43136(15)
O2 O 0.47524(19) 0.35379(16) 0.44750(14)
O3 O 0.67755(19) 0.13841(15) 0.39507(15)
O4 O 0.57664(17) -0.01084(16) 0.26576(14)
O5 O 0.34709(18) 0.09153(16) 0.10618(14)
O6 O 0.11943(17) 0.21897(16) 0.23658(15)
loop_
_geom_bond_atom_site_label_1
_geom_bond_atom_site_label_2
_geom_bond_site_symmetry_1
_geom_bond_site_symmetry_2
Cl1 O7 1_555 1_555
N1 H1 1_555 1_555
H2 N1 1_555 1_555
H3 N1 1_555 1_555
C1 H4 1_555 1_555
H5 C1 1_555 1_555
C2 C1 1_555 1_555
H6 C2 1_555 1_555
H7 C2 1_555 1_555
C3 H8 1_555 1_555
H9 C3 1_555 1_555
C4 C3 1_555 1_555
H10 C4 1_555 1_555
H11 C4 1_555 1_555
C5 H12 1_555 1_555
H13 C5 1_555 1_555
C6 C5 1_555 1_555
H14 C6 1_555 1_555
H15 C6 1_555 1_555
C7 H16 1_555 1_555
H17 C7 1_555 1_555
C8 C7 1_555 1_555
H18 C8 1_555 1_555
H19 C8 1_555 1_555
C9 H20 1_555 1_555
H21 C9 1_555 1_555
C10 C9 1_555 1_555
H22 C10 1_555 1_555
H23 C10 1_555 1_555
C11 H24 1_555 1_555
H25 C11 1_555 1_555
C12 C11 1_555 1_555
H26 C12 1_555 1_555
H27 C12 1_555 1_555
C13 N1 1_555 1_555
H28 C13 1_555 1_555
H29 C13 1_555 1_555
C14 C13 1_555 1_555
C15 C14 1_555 1_555
H30 C15 1_555 1_555
C16 C15 1_555 1_555
H31 C16 1_555 1_555
C17 C16 1_555 1_555
H32 C17 1_555 1_555
C18 C17 1_555 1_555
H33 C18 1_555 1_555
C19 C14 1_555 1_555
H34 C19 1_555 1_555
O1 C2 1_555 1_555
O2 C4 1_555 1_555
O3 C6 1_555 1_555
O4 C8 1_555 1_555
O5 C10 1_555 1_555
O6 C1 1_555 1_555
O8 Cl1 1_555 1_555
O9 Cl1 1_555 1_555
O10 Cl1 1_555 1_555
C3 O1 1_555 1_555
C5 O2 1_555 1_555
C7 O3 1_555 1_555
C9 O4 1_555 1_555
C11 O5 1_555 1_555
C12 O6 1_555 1_555
C18 C19 1_555 1_555

#END
