
#######################################################################
#
#                 Cambridge Crystallographic Data Centre
#                                CCDC 
#
#######################################################################
#
# If this CIF has been generated from an entry in the Cambridge 
# Structural Database, then it will include bibliographic, chemical, 
# crystal, experimental, refinement or atomic coordinate data resulting 
# from the CCDC's data processing and validation procedures.
#
#######################################################################

data_UNUBEL
_chemical_formula_moiety         'C6 H8 N3 1+,Cl1 1-'
_chemical_name_systematic        'Pyridine-3-carboxamidinium chloride'
_symmetry_cell_setting           orthorhombic
_symmetry_space_group_name_H-M   'P n a 21'
_symmetry_Int_Tables_number      33
_space_group_name_Hall           'P 2c -2n'
loop_
_symmetry_equiv_pos_site_id
_symmetry_equiv_pos_as_xyz
1 x,y,z
2 -x,-y,1/2+z
3 1/2-x,1/2+y,1/2+z
4 1/2+x,1/2-y,z
_cell_length_a                   10.9485(7)
_cell_length_b                   33.1581(14)
_cell_length_c                   4.1488(5)
_cell_angle_alpha                90
_cell_angle_beta                 90
_cell_angle_gamma                90
_cell_volume                     1506.14
_exptl_crystal_colour            colorless
_exptl_crystal_description       block
_cell_formula_units_Z            8
_exptl_crystal_recrystallization_method ethanol
loop_
_atom_site_label
_atom_site_type_symbol
_atom_site_fract_x
_atom_site_fract_y
_atom_site_fract_z
Cl1 Cl 0.80408(4) 0.549620(13) 0.75756(15)
Cl2 Cl 0.82982(4) 0.318730(12) 0.22533(15)
N1 N 0.49341(12) 0.25905(4) 1.1812(4)
H1 H 0.5635 0.2541 1.2661
H2 H 0.4372 0.2409 1.1835
N2 N 0.17495(13) 0.28055(4) 0.6167(4)
C1 C 0.30154(15) 0.34172(5) 0.9320(5)
H3 H 0.3444 0.3622 1.0348
C2 C 0.35090(13) 0.30307(5) 0.9096(4)
N4 N 0.55529(14) 0.32232(5) 1.0408(6)
H4 H 0.6261 0.3181 1.1239
H5 H 0.5390 0.3451 0.9521
C3 C 0.28379(13) 0.27351(4) 0.7498(5)
H6 H 0.3164 0.2477 0.7352
C6 C 0.47248(14) 0.29402(5) 1.0493(5)
C7 C 0.12821(16) 0.31783(5) 0.6479(5)
H12 H 0.0512 0.3228 0.5624
C9 C 0.18844(16) 0.34905(5) 0.7998(5)
H13 H 0.1533 0.3745 0.8126
N3 N 0.56768(13) 0.39520(4) 0.6649(4)
N5 N 0.93657(14) 0.40511(4) 0.3554(5)
H7 H 1.0143 0.4075 0.3329
H8 H 0.9030 0.3817 0.3431
N6 N 0.91881(14) 0.47268(4) 0.4274(5)
H9 H 0.9965 0.4754 0.4053
H10 H 0.8739 0.4935 0.4622
C4 C 0.68741(16) 0.40022(5) 0.6164(5)
H11 H 0.7409 0.3809 0.6971
C5 C 0.86919(16) 0.43713(5) 0.4083(5)
C8 C 0.73540(15) 0.43301(4) 0.4505(4)
C10 C 0.65596(16) 0.46198(5) 0.3279(5)
H14 H 0.6853 0.4846 0.2198
C11 C 0.49241(17) 0.42297(5) 0.5413(5)
H15 H 0.4089 0.4196 0.5718
C12 C 0.53172(17) 0.45609(5) 0.3720(5)
H16 H 0.4757 0.4744 0.2879
loop_
_geom_bond_atom_site_label_1
_geom_bond_atom_site_label_2
_geom_bond_site_symmetry_1
_geom_bond_site_symmetry_2
N1 H1 1_555 1_555
H2 N1 1_555 1_555
N2 C3 1_555 1_555
N3 C4 1_555 1_555
C1 H3 1_555 1_555
C2 C1 1_555 1_555
N4 H4 1_555 1_555
H5 N4 1_555 1_555
C3 C2 1_555 1_555
H6 C3 1_555 1_555
N5 H7 1_555 1_555
H8 N5 1_555 1_555
N6 H9 1_555 1_555
H10 N6 1_555 1_555
C4 H11 1_555 1_555
C5 N5 1_555 1_555
C6 N1 1_555 1_555
C7 N2 1_555 1_555
H12 C7 1_555 1_555
C8 C4 1_555 1_555
C9 C1 1_555 1_555
H13 C9 1_555 1_555
C10 C8 1_555 1_555
H14 C10 1_555 1_555
C11 N3 1_555 1_555
H15 C11 1_555 1_555
C12 C10 1_555 1_555
H16 C12 1_555 1_555
C2 C6 1_555 1_555
N4 C6 1_555 1_555
N6 C5 1_555 1_555
C5 C8 1_555 1_555
C7 C9 1_555 1_555
C11 C12 1_555 1_555

#END
