
#######################################################################
#
#                 Cambridge Crystallographic Data Centre
#                                CCDC 
#
#######################################################################
#
# If this CIF has been generated from an entry in the Cambridge 
# Structural Database, then it will include bibliographic, chemical, 
# crystal, experimental, refinement or atomic coordinate data resulting 
# from the CCDC's data processing and validation procedures.
#
#######################################################################

data_UNUHAN
_chemical_formula_moiety         'C14 H9 Cl1 I2 N2 O2'
_chemical_name_systematic        
2-Chloro-N'-(2-hydroxy-3,5-diiodobenzylidene)benzohydrazide
_symmetry_cell_setting           monoclinic
_symmetry_space_group_name_H-M   'P 21/c'
_symmetry_Int_Tables_number      14
_space_group_name_Hall           '-P 2ybc'
loop_
_symmetry_equiv_pos_site_id
_symmetry_equiv_pos_as_xyz
1 x,y,z
2 -x,1/2+y,1/2-z
3 -x,-y,-z
4 x,1/2-y,1/2+z
_cell_length_a                   14.311(3)
_cell_length_b                   11.469(2)
_cell_length_c                   9.736(2)
_cell_angle_alpha                90
_cell_angle_beta                 90.032(2)
_cell_angle_gamma                90
_cell_volume                     1598
_exptl_crystal_colour            colorless
_exptl_crystal_description       block
_cell_formula_units_Z            4
_exptl_crystal_recrystallization_method methanol
loop_
_atom_site_label
_atom_site_type_symbol
_atom_site_fract_x
_atom_site_fract_y
_atom_site_fract_z
I1 I -0.22657(4) 0.87447(6) -0.18612(7)
I2 I -0.12679(4) 0.97420(6) 0.39763(7)
Cl1 Cl 0.39839(19) 0.5079(3) 0.3068(3)
N1 N 0.1820(4) 0.8044(6) 0.1129(6)
N2 N 0.2702(4) 0.7650(6) 0.0825(6)
O1 O 0.0634(3) 0.8886(5) 0.2821(5)
H1 H 0.1148 0.8671 0.2551
O2 O 0.3053(4) 0.7548(6) 0.3039(6)
C1 C 0.0291(5) 0.8487(6) 0.0472(8)
C2 C 0.0025(5) 0.8833(6) 0.1793(8)
C3 C -0.0897(5) 0.9172(7) 0.2027(8)
C4 C -0.1538(5) 0.9133(7) 0.0998(10)
H2 H -0.2153 0.9350 0.1168
C5 C -0.1283(5) 0.8778(8) -0.0279(9)
C6 C -0.0383(5) 0.8446(6) -0.0562(8)
H3 H -0.0222 0.8196 -0.1439
C7 C 0.1229(5) 0.8119(7) 0.0171(8)
H4 H 0.1400 0.7937 -0.0725
C8 C 0.3274(5) 0.7392(8) 0.1856(8)
C9 C 0.4215(5) 0.6948(8) 0.1424(8)
C10 C 0.4584(6) 0.5931(8) 0.1939(9)
C11 C 0.5447(7) 0.5530(10) 0.1535(11)
H5 H 0.5699 0.4843 0.1882
C12 C 0.5921(7) 0.6211(15) 0.0577(14)
H6 H 0.6510 0.5968 0.0293
C13 C 0.5576(8) 0.7187(12) 0.0048(12)
H7 H 0.5915 0.7607 -0.0599
C14 C 0.4710(6) 0.7572(9) 0.0471(9)
H8 H 0.4462 0.8255 0.0109
H9 H 0.290(5) 0.755(8) -0.005(3)
loop_
_geom_bond_atom_site_label_1
_geom_bond_atom_site_label_2
_geom_bond_site_symmetry_1
_geom_bond_site_symmetry_2
I1 C5 1_555 1_555
I2 C3 1_555 1_555
Cl1 C10 1_555 1_555
N1 N2 1_555 1_555
N2 C8 1_555 1_555
O1 H1 1_555 1_555
O2 C8 1_555 1_555
C1 C2 1_555 1_555
C2 O1 1_555 1_555
C3 C2 1_555 1_555
C4 C3 1_555 1_555
H2 C4 1_555 1_555
C5 C4 1_555 1_555
C6 C1 1_555 1_555
H3 C6 1_555 1_555
C7 N1 1_555 1_555
H4 C7 1_555 1_555
C8 C9 1_555 1_555
C9 C10 1_555 1_555
C10 C11 1_555 1_555
C11 H5 1_555 1_555
C12 C11 1_555 1_555
H6 C12 1_555 1_555
C13 C12 1_555 1_555
H7 C13 1_555 1_555
C14 C9 1_555 1_555
H8 C14 1_555 1_555
H9 N2 1_555 1_555
C1 C7 1_555 1_555
C5 C6 1_555 1_555
C13 C14 1_555 1_555

#END
