
#######################################################################
#
#                 Cambridge Crystallographic Data Centre
#                                CCDC 
#
#######################################################################
#
# If this CIF has been generated from an entry in the Cambridge 
# Structural Database, then it will include bibliographic, chemical, 
# crystal, experimental, refinement or atomic coordinate data resulting 
# from the CCDC's data processing and validation procedures.
#
#######################################################################

data_UNUJEU
_chemical_formula_moiety         'C21 H18 O1'
_chemical_name_systematic        1,3,3-triphenylpropan-1-one
_symmetry_cell_setting           triclinic
_symmetry_space_group_name_H-M   'P -1'
_symmetry_Int_Tables_number      2
_space_group_name_Hall           '-P 1'
loop_
_symmetry_equiv_pos_site_id
_symmetry_equiv_pos_as_xyz
1 x,y,z
2 -x,-y,-z
_cell_length_a                   5.8626(12)
_cell_length_b                   8.9710(18)
_cell_length_c                   15.298(3)
_cell_angle_alpha                94.01(3)
_cell_angle_beta                 94.00(3)
_cell_angle_gamma                92.42(3)
_cell_volume                     799.751
_exptl_crystal_colour            colorless
_exptl_crystal_description       block
_cell_formula_units_Z            2
loop_
_atom_site_label
_atom_site_type_symbol
_atom_site_fract_x
_atom_site_fract_y
_atom_site_fract_z
O1 O 0.7356(2) 0.14817(19) 0.35785(9)
C1 C 0.6871(3) 0.3202(3) 0.51221(14)
H1 H 0.8224 0.3327 0.4847
C2 C 0.6628(4) 0.3973(3) 0.59156(16)
H2 H 0.7813 0.4615 0.6172
C3 C 0.4668(5) 0.3803(3) 0.63262(15)
H3 H 0.4509 0.4334 0.6861
C4 C 0.2923(4) 0.2852(3) 0.59559(14)
H4 H 0.1589 0.2730 0.6243
C5 C 0.3140(3) 0.2069(3) 0.51502(12)
H5 H 0.1947 0.1430 0.4898
C6 C 0.5128(3) 0.2240(2) 0.47251(11)
C7 C 0.1706(3) 0.3008(2) 0.21396(13)
H6 H 0.0514 0.2653 0.2451
C8 C 0.1608(4) 0.4397(2) 0.18023(17)
H7 H 0.0345 0.4970 0.1888
C9 C 0.3352(5) 0.4939(3) 0.13432(17)
H8 H 0.3274 0.5871 0.1116
C10 C 0.5201(5) 0.4097(3) 0.12238(15)
H9 H 0.6392 0.4457 0.0915
C11 C 0.5312(3) 0.2716(2) 0.15584(12)
H10 H 0.6588 0.2156 0.1474
C12 C 0.3571(3) 0.21461(19) 0.20155(10)
C13 C -0.0065(3) -0.1015(2) 0.21249(13)
H11 H -0.0343 -0.0777 0.2708
C14 C -0.1652(3) -0.1916(2) 0.15952(15)
H12 H -0.2972 -0.2282 0.1826
C15 C -0.1289(4) -0.2269(2) 0.07351(14)
H13 H -0.2360 -0.2869 0.0378
C16 C 0.0662(4) -0.1733(2) 0.04051(13)
H14 H 0.0915 -0.1967 -0.0181
C17 C 0.2266(3) -0.0845(2) 0.09332(11)
H15 H 0.3595 -0.0499 0.0700
C18 C 0.1915(3) -0.04638(18) 0.18074(11)
C19 C 0.5468(3) 0.1456(2) 0.38581(11)
C20 C 0.3458(3) 0.0620(2) 0.33362(11)
H16 H 0.2057 0.1093 0.3475
H17 H 0.3351 -0.0399 0.3510
C21 C 0.3677(3) 0.05883(19) 0.23452(10)
H18 H 0.5192 0.0227 0.2235
loop_
_geom_bond_atom_site_label_1
_geom_bond_atom_site_label_2
_geom_bond_site_symmetry_1
_geom_bond_site_symmetry_2
O1 C19 1_555 1_555
C1 H1 1_555 1_555
C2 C1 1_555 1_555
H2 C2 1_555 1_555
C3 C2 1_555 1_555
H3 C3 1_555 1_555
C4 C3 1_555 1_555
H4 C4 1_555 1_555
C5 C4 1_555 1_555
H5 C5 1_555 1_555
C6 C1 1_555 1_555
C7 H6 1_555 1_555
C8 C7 1_555 1_555
H7 C8 1_555 1_555
C9 C8 1_555 1_555
H8 C9 1_555 1_555
C10 C9 1_555 1_555
H9 C10 1_555 1_555
C11 C10 1_555 1_555
H10 C11 1_555 1_555
C12 C7 1_555 1_555
C13 H11 1_555 1_555
C14 C13 1_555 1_555
H12 C14 1_555 1_555
C15 C14 1_555 1_555
H13 C15 1_555 1_555
C16 C15 1_555 1_555
H14 C16 1_555 1_555
C17 C16 1_555 1_555
H15 C17 1_555 1_555
C18 C13 1_555 1_555
C19 C6 1_555 1_555
C20 C19 1_555 1_555
H16 C20 1_555 1_555
H17 C20 1_555 1_555
C21 C12 1_555 1_555
H18 C21 1_555 1_555
C5 C6 1_555 1_555
C11 C12 1_555 1_555
C17 C18 1_555 1_555
C18 C21 1_555 1_555
C20 C21 1_555 1_555

#END
