
#######################################################################
#
#                 Cambridge Crystallographic Data Centre
#                                CCDC 
#
#######################################################################
#
# If this CIF has been generated from an entry in the Cambridge 
# Structural Database, then it will include bibliographic, chemical, 
# crystal, experimental, refinement or atomic coordinate data resulting 
# from the CCDC's data processing and validation procedures.
#
#######################################################################

data_UNUKAQ
_chemical_formula_moiety         'C16 H19 N2 1+,C9 H11 O3 S1 1-,H2 O1'
_chemical_name_systematic        
'4-(2-[4-(Dimethylamino)phenyl]ethenyl)-1-methylpyridinium 2,4,6-trimethylbenzenesulfonate monohydrate'
_symmetry_cell_setting           triclinic
_symmetry_space_group_name_H-M   'P -1'
_symmetry_Int_Tables_number      2
_space_group_name_Hall           '-P 1'
loop_
_symmetry_equiv_pos_site_id
_symmetry_equiv_pos_as_xyz
1 x,y,z
2 -x,-y,-z
_cell_length_a                   8.1993(17)
_cell_length_b                   9.669(2)
_cell_length_c                   15.247(3)
_cell_angle_alpha                87.806(7)
_cell_angle_beta                 75.805(6)
_cell_angle_gamma                83.239(5)
_cell_volume                     1163.65
_exptl_crystal_colour            red
_exptl_crystal_description       chunk
_cell_formula_units_Z            2
loop_
_atom_site_label
_atom_site_type_symbol
_atom_site_fract_x
_atom_site_fract_y
_atom_site_fract_z
S1 S 0.36608(5) 0.78675(4) 0.16984(2)
O1 O 0.51685(14) 0.75321(13) 0.20319(8)
O2 O 0.36736(15) 0.92045(12) 0.12167(8)
O3 O 0.33464(15) 0.67560(12) 0.11702(8)
C17 C 0.02360(19) 0.82889(15) 0.24753(10)
C18 C -0.1177(2) 0.83123(16) 0.32025(11)
H20 H -0.2270 0.8412 0.3084
C19 C -0.1047(2) 0.81959(16) 0.40931(11)
C20 C 0.0562(2) 0.80729(17) 0.42491(11)
H21 H 0.0670 0.8027 0.4856
C21 C 0.2030(2) 0.80140(16) 0.35469(10)
C22 C 0.18631(19) 0.80801(15) 0.26519(10)
C23 C -0.0066(2) 0.85704(17) 0.15439(11)
H22 H -0.1263 0.8522 0.1567
H23 H 0.0635 0.7872 0.1122
H24 H 0.0233 0.9500 0.1338
C24 C -0.2586(2) 0.8222(2) 0.48747(11)
H25 H -0.3611 0.8382 0.4646
H26 H -0.2578 0.8972 0.5287
H27 H -0.2570 0.7327 0.5199
C25 C 0.3698(2) 0.7919(2) 0.38181(12)
H28 H 0.3481 0.8006 0.4476
H29 H 0.4343 0.8671 0.3521
H30 H 0.4350 0.7017 0.3632
N1 N 1.13709(16) 0.36393(14) 0.06835(9)
N2 N -0.18615(17) 0.31865(14) 0.36790(9)
C1 C 1.0477(2) 0.25780(17) 0.06110(11)
H1 H 1.1037 0.1764 0.0292
C2 C 0.8769(2) 0.26638(18) 0.09932(11)
H2 H 0.8158 0.1908 0.0940
C3 C 0.7916(2) 0.38704(18) 0.14644(11)
C4 C 0.8883(2) 0.49457(18) 0.15010(11)
H3 H 0.8351 0.5788 0.1794
C5 C 1.0588(2) 0.48092(17) 0.11214(11)
H4 H 1.1228 0.5549 0.1167
C6 C 1.3204(2) 0.35286(19) 0.02549(11)
H5 H 1.3378 0.3588 -0.0404
H6 H 1.3750 0.2634 0.0421
H7 H 1.3701 0.4290 0.0463
C7 C 0.6116(2) 0.40354(18) 0.19219(11)
H8 H 0.5612 0.4933 0.2138
C8 C 0.5143(2) 0.29984(17) 0.20536(11)
H9 H 0.5658 0.2119 0.1810
C9 C 0.3364(2) 0.30837(18) 0.25350(11)
C10 C 0.2517(2) 0.19128(18) 0.25496(11)
H10 H 0.3134 0.1078 0.2282
C11 C 0.0816(2) 0.19291(17) 0.29396(10)
H11 H 0.0281 0.1110 0.2939
C12 C -0.01440(19) 0.31519(16) 0.33420(10)
C13 C 0.0716(2) 0.43197(16) 0.33729(11)
H12 H 0.0117 0.5140 0.3670
C14 C 0.2427(2) 0.42795(17) 0.29738(11)
H13 H 0.2983 0.5081 0.2997
C15 C -0.2692(2) 0.19605(18) 0.36304(11)
H14 H -0.2441 0.1659 0.3000
H15 H -0.3918 0.2181 0.3858
H16 H -0.2279 0.1212 0.4000
C16 C -0.2850(2) 0.44394(19) 0.40913(13)
H17 H -0.2528 0.4623 0.4650
H18 H -0.4056 0.4316 0.4231
H19 H -0.2634 0.5227 0.3671
O4 O 0.69606(17) 1.00845(14) 0.04707(10)
H31 H 0.611(3) 0.977(3) 0.0748(18)
H32 H 0.675(3) 1.039(3) -0.0023(18)
loop_
_geom_bond_atom_site_label_1
_geom_bond_atom_site_label_2
_geom_bond_site_symmetry_1
_geom_bond_site_symmetry_2
S1 O1 1_555 1_555
O2 S1 1_555 1_555
O3 S1 1_555 1_555
N1 C1 1_555 1_555
N2 C12 1_555 1_555
C1 H1 1_555 1_555
C2 C1 1_555 1_555
H2 C2 1_555 1_555
C3 C2 1_555 1_555
C4 C3 1_555 1_555
H3 C4 1_555 1_555
C5 N1 1_555 1_555
H4 C5 1_555 1_555
C6 N1 1_555 1_555
H5 C6 1_555 1_555
H6 C6 1_555 1_555
H7 C6 1_555 1_555
C7 C3 1_555 1_555
H8 C7 1_555 1_555
C8 C7 1_555 1_555
H9 C8 1_555 1_555
C9 C8 1_555 1_555
C10 C9 1_555 1_555
H10 C10 1_555 1_555
C11 C10 1_555 1_555
H11 C11 1_555 1_555
C12 C11 1_555 1_555
C13 C12 1_555 1_555
H12 C13 1_555 1_555
C14 C9 1_555 1_555
H13 C14 1_555 1_555
C15 N2 1_555 1_555
H14 C15 1_555 1_555
H15 C15 1_555 1_555
H16 C15 1_555 1_555
C16 N2 1_555 1_555
H17 C16 1_555 1_555
H18 C16 1_555 1_555
H19 C16 1_555 1_555
C17 C18 1_555 1_555
C18 H20 1_555 1_555
C19 C18 1_555 1_555
C20 C19 1_555 1_555
H21 C20 1_555 1_555
C21 C20 1_555 1_555
C22 S1 1_555 1_555
C23 C17 1_555 1_555
H22 C23 1_555 1_555
H23 C23 1_555 1_555
H24 C23 1_555 1_555
C24 C19 1_555 1_555
H25 C24 1_555 1_555
H26 C24 1_555 1_555
H27 C24 1_555 1_555
C25 C21 1_555 1_555
H28 C25 1_555 1_555
H29 C25 1_555 1_555
H30 C25 1_555 1_555
O4 H31 1_555 1_555
H32 O4 1_555 1_555
C4 C5 1_555 1_555
C13 C14 1_555 1_555
C17 C22 1_555 1_555
C21 C22 1_555 1_555

#END
