
#######################################################################
#
#                 Cambridge Crystallographic Data Centre
#                                CCDC 
#
#######################################################################
#
# If this CIF has been generated from an entry in the Cambridge 
# Structural Database, then it will include bibliographic, chemical, 
# crystal, experimental, refinement or atomic coordinate data resulting 
# from the CCDC's data processing and validation procedures.
#
#######################################################################

data_UNULEV
_chemical_name_common            
2'-Carboxymethoxy-4,4'-bis(3-methylbut-2-enyloxy)chalcone
_chemical_formula_moiety         'C27 H30 O6'
_chemical_name_systematic        Sofalcone
_chemical_properties_biological  'anti-ulcer agent'
_symmetry_cell_setting           triclinic
_symmetry_space_group_name_H-M   'P -1'
_symmetry_Int_Tables_number      2
_space_group_name_Hall           '-P 1'
loop_
_symmetry_equiv_pos_site_id
_symmetry_equiv_pos_as_xyz
1 x,y,z
2 -x,-y,-z
_cell_length_a                   7.4496(15)
_cell_length_b                   12.195(2)
_cell_length_c                   13.085(3)
_cell_angle_alpha                88.39(3)
_cell_angle_beta                 78.53(3)
_cell_angle_gamma                86.99(3)
_cell_volume                     1163.21
_exptl_crystal_colour            yellow
_exptl_crystal_description       prism
_cell_formula_units_Z            2
loop_
_atom_site_label
_atom_site_type_symbol
_atom_site_fract_x
_atom_site_fract_y
_atom_site_fract_z
O1 O 0.45375(16) -0.07058(11) 1.21292(10)
O2 O 0.39551(15) 0.25262(10) 1.01329(10)
O3 O 0.19896(16) 0.42849(11) 0.96442(10)
O4 O -0.04272(16) 0.38360(11) 1.08729(10)
H1 H -0.0869 0.4422 1.0692
O5 O 0.96148(17) 0.22153(11) 0.88715(11)
O6 O 0.52436(16) 0.79502(10) 0.64049(10)
C1 C 0.6943(2) 0.16654(15) 1.00089(14)
C2 C 0.7978(2) 0.07896(15) 1.03331(15)
H2 H 0.9231 0.0750 1.0059
C3 C 0.7285(2) -0.00236(16) 1.10304(14)
H3 H 0.8045 -0.0591 1.1219
C4 C 0.5426(2) 0.00300(15) 1.14398(14)
C5 C 0.4324(2) 0.08869(15) 1.11472(14)
H4 H 0.3075 0.0921 1.1429
C6 C 0.5055(2) 0.16926(15) 1.04415(14)
C7 C 0.5612(3) -0.16271(16) 1.24391(16)
H5 H 0.6645 -0.1375 1.2701
H6 H 0.6075 -0.2098 1.1850
C8 C 0.4368(3) -0.22398(16) 1.32763(15)
H7 H 0.3166 -0.1963 1.3476
C9 C 0.4851(3) -0.31441(16) 1.37529(15)
C10 C 0.6741(3) -0.36753(17) 1.35051(17)
H8 H 0.7473 -0.3280 1.2941
H9 H 0.6672 -0.4421 1.3306
H10 H 0.7290 -0.3665 1.4109
C11 C 0.3521(3) -0.37149(18) 1.45850(16)
H11 H 0.2355 -0.3316 1.4694
H12 H 0.3977 -0.3747 1.5222
H13 H 0.3381 -0.4447 1.4371
C12 C 0.2107(2) 0.26291(15) 1.06756(15)
H14 H 0.2065 0.2641 1.1421
H15 H 0.1442 0.2008 1.0530
C13 C 0.1247(2) 0.36717(15) 1.03284(15)
C14 C 0.7976(2) 0.24378(15) 0.92286(15)
C15 C 0.7105(3) 0.34591(15) 0.88957(15)
H16 H 0.5896 0.3648 0.9202
C16 C 0.8002(3) 0.41176(15) 0.81682(15)
H17 H 0.9221 0.3914 0.7899
C17 C 0.7269(3) 0.51316(15) 0.77462(15)
C18 C 0.5463(2) 0.55068(15) 0.80792(15)
H18 H 0.4715 0.5119 0.8605
C19 C 0.4741(3) 0.64361(16) 0.76561(15)
H19 H 0.3522 0.6665 0.7893
C20 C 0.5842(3) 0.70289(15) 0.68747(15)
C21 C 0.7656(3) 0.66794(16) 0.65364(15)
H20 H 0.8406 0.7075 0.6017
C22 C 0.8355(3) 0.57460(16) 0.69672(15)
H21 H 0.9577 0.5521 0.6733
C23 C 0.3328(2) 0.82802(16) 0.67028(15)
H22 H 0.3008 0.8407 0.7447
H23 H 0.2576 0.7710 0.6537
C24 C 0.3013(3) 0.93145(17) 0.61086(16)
H24 H 0.3969 0.9533 0.5583
C25 C 0.1492(3) 0.99420(16) 0.62685(15)
C26 C 0.1281(3) 1.09886(17) 0.56591(17)
H25 H 0.2386 1.1096 0.5155
H26 H 0.1048 1.1596 0.6126
H27 H 0.0273 1.0942 0.5308
C27 C -0.0158(3) 0.96821(18) 0.70712(16)
H28 H 0.0093 0.9020 0.7442
H29 H -0.1173 0.9584 0.6737
H30 H -0.0457 1.0276 0.7552
loop_
_geom_bond_atom_site_label_1
_geom_bond_atom_site_label_2
_geom_bond_site_symmetry_1
_geom_bond_site_symmetry_2
O1 C4 1_555 1_555
O2 C6 1_555 1_555
O3 C13 1_555 1_555
O4 H1 1_555 1_555
O5 C14 1_555 1_555
O6 C20 1_555 1_555
C1 C2 1_555 1_555
C2 H2 1_555 1_555
C3 C2 1_555 1_555
H3 C3 1_555 1_555
C4 C3 1_555 1_555
C5 C4 1_555 1_555
H4 C5 1_555 1_555
C6 C1 1_555 1_555
C7 O1 1_555 1_555
H5 C7 1_555 1_555
H6 C7 1_555 1_555
C8 C7 1_555 1_555
H7 C8 1_555 1_555
C9 C8 1_555 1_555
C10 C9 1_555 1_555
H8 C10 1_555 1_555
H9 C10 1_555 1_555
H10 C10 1_555 1_555
C11 C9 1_555 1_555
H11 C11 1_555 1_555
H12 C11 1_555 1_555
H13 C11 1_555 1_555
C12 O2 1_555 1_555
H14 C12 1_555 1_555
H15 C12 1_555 1_555
C13 O4 1_555 1_555
C14 C1 1_555 1_555
C15 C14 1_555 1_555
H16 C15 1_555 1_555
C16 C15 1_555 1_555
H17 C16 1_555 1_555
C17 C16 1_555 1_555
C18 C17 1_555 1_555
H18 C18 1_555 1_555
C19 C18 1_555 1_555
H19 C19 1_555 1_555
C20 C19 1_555 1_555
C21 C20 1_555 1_555
H20 C21 1_555 1_555
C22 C17 1_555 1_555
H21 C22 1_555 1_555
C23 O6 1_555 1_555
H22 C23 1_555 1_555
H23 C23 1_555 1_555
C24 C23 1_555 1_555
H24 C24 1_555 1_555
C25 C24 1_555 1_555
C26 C25 1_555 1_555
H25 C26 1_555 1_555
H26 C26 1_555 1_555
H27 C26 1_555 1_555
C27 C25 1_555 1_555
H28 C27 1_555 1_555
H29 C27 1_555 1_555
H30 C27 1_555 1_555
C5 C6 1_555 1_555
C12 C13 1_555 1_555
C21 C22 1_555 1_555

#END
