
#######################################################################
#
#                 Cambridge Crystallographic Data Centre
#                                CCDC 
#
#######################################################################
#
# If this CIF has been generated from an entry in the Cambridge 
# Structural Database, then it will include bibliographic, chemical, 
# crystal, experimental, refinement or atomic coordinate data resulting 
# from the CCDC's data processing and validation procedures.
#
#######################################################################

data_UNUQOK
_chemical_name_common            'Picric acid 2,4,6-trichloroaniline'
_chemical_formula_moiety         'C6 H3 N3 O7,C6 H4 Cl3 N1'
_chemical_name_systematic        '2,4,6-Trinitrophenol 2,4,6-trichloroaniline'
_symmetry_cell_setting           orthorhombic
_symmetry_space_group_name_H-M   'P b c a'
_symmetry_Int_Tables_number      61
_space_group_name_Hall           '-P 2ac 2ab'
loop_
_symmetry_equiv_pos_site_id
_symmetry_equiv_pos_as_xyz
1 x,y,z
2 1/2-x,-y,1/2+z
3 -x,1/2+y,1/2-z
4 1/2+x,1/2-y,-z
5 -x,-y,-z
6 1/2+x,y,1/2-z
7 x,1/2-y,1/2+z
8 1/2-x,1/2+y,z
_cell_length_a                   9.2162(14)
_cell_length_b                   10.0174(14)
_cell_length_c                   35.051(5)
_cell_angle_alpha                90
_cell_angle_beta                 90
_cell_angle_gamma                90
_cell_volume                     3235.99
_exptl_crystal_colour            red
_exptl_crystal_description       block
_cell_formula_units_Z            8
loop_
_atom_site_label
_atom_site_type_symbol
_atom_site_fract_x
_atom_site_fract_y
_atom_site_fract_z
C1 C 0.4507(4) 0.4557(3) 0.57639(9)
C2 C 0.5792(3) 0.4955(3) 0.55888(10)
C3 C 0.5881(4) 0.6056(4) 0.53560(10)
H1 H 0.6760 0.6295 0.5245
C4 C 0.4651(4) 0.6801(3) 0.52893(9)
C5 C 0.3352(4) 0.6456(3) 0.54541(10)
H2 H 0.2523 0.6960 0.5408
C6 C 0.3293(3) 0.5361(3) 0.56874(9)
Cl1 Cl 0.73498(10) 0.40282(11) 0.56753(3)
Cl2 Cl 0.47396(11) 0.81912(11) 0.49911(3)
Cl3 Cl 0.16542(10) 0.49502(10) 0.59030(3)
N4 N 0.4439(4) 0.3486(3) 0.60078(10)
H5 H 0.512(3) 0.290(3) 0.6009(11)
H6 H 0.359(2) 0.332(4) 0.6079(11)
C7 C 0.4085(3) 0.4501(3) 0.70238(9)
C8 C 0.5325(3) 0.3724(3) 0.70914(9)
C9 C 0.6640(3) 0.3992(3) 0.69253(9)
H3 H 0.7437 0.3447 0.6972
C10 C 0.6760(4) 0.5082(3) 0.66889(9)
C11 C 0.5597(4) 0.5899(3) 0.66136(9)
H4 H 0.5694 0.6642 0.6456
C12 C 0.4278(3) 0.5584(3) 0.67784(9)
N1 N 0.5268(3) 0.2597(3) 0.73550(9)
N2 N 0.8171(3) 0.5390(4) 0.65186(9)
N3 N 0.3064(3) 0.6474(3) 0.66942(9)
O1 O 0.2826(3) 0.4170(2) 0.71812(7)
H7 H 0.218(5) 0.479(4) 0.7114(11)
O2 O 0.4487(4) 0.2669(3) 0.76291(9)
O3 O 0.6055(3) 0.1642(3) 0.72928(8)
O4 O 0.9144(3) 0.4573(3) 0.65587(9)
O5 O 0.8294(3) 0.6445(3) 0.63491(9)
O6 O 0.3275(3) 0.7422(3) 0.64860(8)
O7 O 0.1878(3) 0.6247(3) 0.68450(8)
loop_
_geom_bond_atom_site_label_1
_geom_bond_atom_site_label_2
_geom_bond_site_symmetry_1
_geom_bond_site_symmetry_2
C1 C2 1_555 1_555
C2 C3 1_555 1_555
C3 H1 1_555 1_555
C4 C3 1_555 1_555
C5 C4 1_555 1_555
H2 C5 1_555 1_555
C6 C1 1_555 1_555
C7 C8 1_555 1_555
C8 C9 1_555 1_555
C9 H3 1_555 1_555
C10 C9 1_555 1_555
C11 C10 1_555 1_555
H4 C11 1_555 1_555
C12 C7 1_555 1_555
Cl1 C2 1_555 1_555
Cl2 C4 1_555 1_555
Cl3 C6 1_555 1_555
N1 C8 1_555 1_555
N2 C10 1_555 1_555
N3 C12 1_555 1_555
N4 C1 1_555 1_555
H5 N4 1_555 1_555
H6 N4 1_555 1_555
O1 C7 1_555 1_555
H7 O1 1_555 1_555
O2 N1 1_555 1_555
O3 N1 1_555 1_555
O4 N2 1_555 1_555
O5 N2 1_555 1_555
O6 N3 1_555 1_555
O7 N3 1_555 1_555
C5 C6 1_555 1_555
C11 C12 1_555 1_555

#END
