
#######################################################################
#
#                 Cambridge Crystallographic Data Centre
#                                CCDC 
#
#######################################################################
#
# If this CIF has been generated from an entry in the Cambridge 
# Structural Database, then it will include bibliographic, chemical, 
# crystal, experimental, refinement or atomic coordinate data resulting 
# from the CCDC's data processing and validation procedures.
#
#######################################################################

data_UNUSAZ
_chemical_formula_moiety         'C3 H2 N5 O10 1-,C2 H5 N4 1+'
_chemical_name_systematic        
'5-amino-4H-1,2,4-triazol-1-ium 2,2,2-trinitroethyl nitrocarbamate'
_symmetry_cell_setting           orthorhombic
_symmetry_space_group_name_H-M   'P c a 21'
_symmetry_Int_Tables_number      29
_space_group_name_Hall           'P 2c -2ac'
loop_
_symmetry_equiv_pos_site_id
_symmetry_equiv_pos_as_xyz
1 x,y,z
2 -x,-y,1/2+z
3 1/2-x,y,1/2+z
4 1/2+x,-y,z
_cell_length_a                   29.106(4)
_cell_length_b                   7.0395(9)
_cell_length_c                   6.4650(8)
_cell_angle_alpha                90
_cell_angle_beta                 90
_cell_angle_gamma                90
_cell_volume                     1324.62
_exptl_crystal_colour            colorless
_exptl_crystal_description       block
_cell_formula_units_Z            4
loop_
_atom_site_label
_atom_site_type_symbol
_atom_site_fract_x
_atom_site_fract_y
_atom_site_fract_z
O1 O -0.02072(6) -0.5468(2) -0.3555(4)
O2 O 0.01717(6) -0.2851(3) -0.3174(3)
O3 O -0.06522(7) 0.0491(2) -0.2847(4)
O4 O -0.03398(7) -0.0864(3) -0.0185(3)
O5 O -0.12754(5) -0.2410(2) -0.4755(3)
O6 O -0.06101(7) -0.2407(3) -0.6277(3)
O7 O -0.12541(5) -0.2808(2) -0.0369(3)
O8 O -0.17855(5) -0.4950(2) -0.1413(3)
O9 O -0.26081(5) -0.36952(19) -0.0617(3)
O10 O -0.26562(5) -0.0947(2) 0.0824(3)
N1 N -0.01736(6) -0.3786(3) -0.3176(3)
N2 N -0.05267(7) -0.0860(3) -0.1853(3)
N3 N -0.08597(6) -0.2541(2) -0.4785(3)
N4 N -0.19650(6) -0.2021(2) 0.0193(3)
N5 N -0.24216(6) -0.2263(2) 0.0115(3)
C1 C -0.06280(6) -0.2831(3) -0.2714(3)
C2 C -0.09045(7) -0.3991(3) -0.1180(4)
H1 H -0.1042 -0.5106 -0.1877
H2 H -0.0703 -0.4450 -0.0050
C3 C -0.17011(6) -0.3438(3) -0.0630(3)
N6 N -0.26009(6) -0.7386(2) -0.2340(3)
H3 H -0.2439 -0.6425 -0.1867
H4 H -0.2462 -0.8354 -0.2931
N7 N -0.33160(6) -0.6034(2) -0.1323(3)
H5 H -0.3210 -0.4978 -0.0774
N8 N -0.37766(6) -0.6499(3) -0.1411(4)
N9 N -0.33422(6) -0.8736(2) -0.2812(3)
H6 H -0.3268 -0.9806 -0.3432
C4 C -0.30511(7) -0.7374(3) -0.2166(3)
C5 C -0.37768(8) -0.8139(3) -0.2322(4)
H7 H -0.4047 -0.8846 -0.2616
loop_
_geom_bond_atom_site_label_1
_geom_bond_atom_site_label_2
_geom_bond_site_symmetry_1
_geom_bond_site_symmetry_2
O1 N1 1_555 1_555
O2 N1 1_555 1_555
O3 N2 1_555 1_555
O4 N2 1_555 1_555
O5 N3 1_555 1_555
O6 N3 1_555 1_555
O7 C2 1_555 1_555
O8 C3 1_555 1_555
O9 N5 1_555 1_555
O10 N5 1_555 1_555
N1 C1 1_555 1_555
N2 C1 1_555 1_555
N3 C1 1_555 1_555
N4 N5 1_555 1_555
C1 C2 1_555 1_555
C2 H1 1_555 1_555
H2 C2 1_555 1_555
C3 O7 1_555 1_555
N6 H3 1_555 1_555
H4 N6 1_555 1_555
N7 H5 1_555 1_555
N8 N7 1_555 1_555
N9 H6 1_555 1_555
C4 N6 1_555 1_555
C5 N8 1_555 1_555
H7 C5 1_555 1_555
N4 C3 1_555 1_555
N7 C4 1_555 1_555
N9 C4 1_555 1_555
N9 C5 1_555 1_555

#END
