
#######################################################################
#
#                 Cambridge Crystallographic Data Centre
#                                CCDC 
#
#######################################################################
#
# If this CIF has been generated from an entry in the Cambridge 
# Structural Database, then it will include bibliographic, chemical, 
# crystal, experimental, refinement or atomic coordinate data resulting 
# from the CCDC's data processing and validation procedures.
#
#######################################################################

data_UNUXEH
_chemical_name_common            
'2,3-Dicyano-1,4-phenylene bis(4-methylbenzenesulfonate)'
_chemical_formula_moiety         'C22 H16 N2 O6 S2'
_chemical_name_systematic        
'2,3-Dicyano-4-[(4-methylphenylsulfonyl)oxy]phenyl 4-methylbenzenesulfonate'
_symmetry_cell_setting           monoclinic
_symmetry_space_group_name_H-M   'P 21/c'
_symmetry_Int_Tables_number      14
_space_group_name_Hall           '-P 2ybc'
loop_
_symmetry_equiv_pos_site_id
_symmetry_equiv_pos_as_xyz
1 x,y,z
2 -x,1/2+y,1/2-z
3 -x,-y,-z
4 x,1/2-y,1/2+z
_cell_length_a                   6.2484(16)
_cell_length_b                   21.478(6)
_cell_length_c                   16.331(4)
_cell_angle_alpha                90
_cell_angle_beta                 94.940(4)
_cell_angle_gamma                90
_cell_volume                     2183.53
_exptl_crystal_colour            colorless
_exptl_crystal_description       block
_cell_formula_units_Z            4
loop_
_atom_site_label
_atom_site_type_symbol
_atom_site_fract_x
_atom_site_fract_y
_atom_site_fract_z
S1 S 1.13975(8) 0.52784(2) 0.81677(3)
S2 S 0.32466(8) 0.28406(2) 0.95047(3)
O1 O 1.3671(2) 0.52925(8) 0.82002(10)
O2 O 1.0278(3) 0.55562(7) 0.87978(8)
O3 O 1.0886(2) 0.45361(6) 0.81606(8)
O4 O 0.33997(19) 0.35694(6) 0.92363(8)
O5 O 0.4229(2) 0.24810(7) 0.89114(9)
O6 O 0.1032(2) 0.27798(8) 0.96165(9)
N1 N 0.2599(3) 0.33703(9) 0.70932(11)
N2 N 0.7716(3) 0.41758(10) 0.62978(11)
C1 C 0.5326(3) 0.37925(9) 0.89697(11)
C2 C 0.5550(3) 0.38090(8) 0.81323(10)
C3 C 0.7409(3) 0.40812(8) 0.78578(10)
C4 C 0.8981(3) 0.43099(8) 0.84335(11)
C5 C 0.8736(3) 0.42786(9) 0.92640(11)
H1 H 0.9816 0.4427 0.9642
C6 C 0.6896(3) 0.40281(9) 0.95348(11)
H2 H 0.6709 0.4017 1.0093
C7 C 0.3899(3) 0.35619(9) 0.75541(11)
C8 C 0.7631(3) 0.41295(9) 0.69862(11)
C9 C 1.0274(3) 0.55195(8) 0.72064(11)
C10 C 1.1458(3) 0.54618(10) 0.65330(12)
H3 H 1.2845 0.5301 0.6592
C11 C 1.0549(4) 0.56462(11) 0.57751(13)
H4 H 1.1342 0.5611 0.5321
C12 C 0.8488(4) 0.58828(10) 0.56718(13)
C13 C 0.7331(4) 0.59329(10) 0.63583(13)
H5 H 0.5942 0.6091 0.6298
C14 C 0.8195(3) 0.57529(9) 0.71285(12)
H6 H 0.7405 0.5787 0.7584
C15 C 0.7522(5) 0.60828(14) 0.48352(15)
H7 H 0.8225 0.6454 0.4671
H8 H 0.6018 0.6164 0.4858
H9 H 0.7710 0.5758 0.4444
C16 C 0.4794(3) 0.28074(9) 1.04487(11)
C17 C 0.6793(3) 0.25268(10) 1.04910(13)
H10 H 0.7307 0.2355 1.0023
C18 C 0.8014(3) 0.25053(10) 1.12350(13)
H11 H 0.9358 0.2317 1.1266
C19 C 0.7272(3) 0.27601(9) 1.19388(12)
C20 C 0.5257(4) 0.30354(10) 1.18779(12)
H12 H 0.4736 0.3206 1.2345
C21 C 0.4005(3) 0.30622(10) 1.11400(12)
H13 H 0.2657 0.3248 1.1108
C22 C 0.8603(4) 0.27260(12) 1.27527(14)
H14 H 0.8330 0.3087 1.3075
H15 H 1.0099 0.2712 1.2660
H16 H 0.8227 0.2358 1.3041
loop_
_geom_bond_atom_site_label_1
_geom_bond_atom_site_label_2
_geom_bond_site_symmetry_1
_geom_bond_site_symmetry_2
S1 O1 1_555 1_555
S2 O4 1_555 1_555
O2 S1 1_555 1_555
O3 S1 1_555 1_555
O4 C1 1_555 1_555
O5 S2 1_555 1_555
O6 S2 1_555 1_555
N1 C7 1_555 1_555
N2 C8 1_555 1_555
C1 C2 1_555 1_555
C2 C3 1_555 1_555
C3 C4 1_555 1_555
C4 O3 1_555 1_555
C5 C4 1_555 1_555
H1 C5 1_555 1_555
C6 C1 1_555 1_555
H2 C6 1_555 1_555
C7 C2 1_555 1_555
C8 C3 1_555 1_555
C9 S1 1_555 1_555
C10 C9 1_555 1_555
H3 C10 1_555 1_555
C11 C10 1_555 1_555
H4 C11 1_555 1_555
C12 C11 1_555 1_555
C13 C12 1_555 1_555
H5 C13 1_555 1_555
C14 C9 1_555 1_555
H6 C14 1_555 1_555
C15 C12 1_555 1_555
H7 C15 1_555 1_555
H8 C15 1_555 1_555
H9 C15 1_555 1_555
C16 S2 1_555 1_555
C17 C16 1_555 1_555
H10 C17 1_555 1_555
C18 C17 1_555 1_555
H11 C18 1_555 1_555
C19 C18 1_555 1_555
C20 C19 1_555 1_555
H12 C20 1_555 1_555
C21 C16 1_555 1_555
H13 C21 1_555 1_555
C22 C19 1_555 1_555
H14 C22 1_555 1_555
H15 C22 1_555 1_555
H16 C22 1_555 1_555
C5 C6 1_555 1_555
C13 C14 1_555 1_555
C20 C21 1_555 1_555

#END
