
#######################################################################
#
#                 Cambridge Crystallographic Data Centre
#                                CCDC 
#
#######################################################################
#
# If this CIF has been generated from an entry in the Cambridge 
# Structural Database, then it will include bibliographic, chemical, 
# crystal, experimental, refinement or atomic coordinate data resulting 
# from the CCDC's data processing and validation procedures.
#
#######################################################################

data_UNUXIM
_chemical_formula_moiety         'C15 H11 N1 O1'
_chemical_name_systematic        1H-indol-3-yl(phenyl)methanone
_symmetry_cell_setting           monoclinic
_symmetry_space_group_name_H-M   'P 21/n'
_symmetry_Int_Tables_number      14
_space_group_name_Hall           '-P 2yn'
loop_
_symmetry_equiv_pos_site_id
_symmetry_equiv_pos_as_xyz
1 x,y,z
2 1/2-x,1/2+y,1/2-z
3 -x,-y,-z
4 1/2+x,1/2-y,1/2+z
_cell_length_a                   13.2486(15)
_cell_length_b                   7.0891(9)
_cell_length_c                   13.5496(18)
_cell_angle_alpha                90
_cell_angle_beta                 114.155(4)
_cell_angle_gamma                90
_cell_volume                     1161.16
_exptl_crystal_colour            colorless
_exptl_crystal_description       plate
_cell_formula_units_Z            4
loop_
_atom_site_label
_atom_site_type_symbol
_atom_site_fract_x
_atom_site_fract_y
_atom_site_fract_z
C1 C 0.84422(17) 0.2328(3) 0.85536(17)
C2 C 0.75694(18) 0.1963(3) 0.89081(17)
C3 C 0.79243(19) 0.2654(3) 0.74540(18)
H1 H 0.8284 0.2933 0.7009
C4 C 0.65676(18) 0.2071(3) 0.79847(18)
C5 C 0.5546(2) 0.1751(4) 0.8009(2)
H2 H 0.4894 0.1820 0.7385
C6 C 0.7528(2) 0.1512(4) 0.9894(2)
H3 H 0.8174 0.1424 1.0523
C7 C 0.6517(2) 0.1204(5) 0.9915(2)
H4 H 0.6484 0.0902 1.0568
C8 C 0.5542(2) 0.1329(5) 0.8991(3)
H5 H 0.4871 0.1121 0.9040
N1 N 0.68202(15) 0.2508(3) 0.71230(15)
H6 H 0.6343 0.2666 0.6469
C9 C 0.96071(19) 0.2418(3) 0.92360(18)
C10 C 1.1388(2) 0.3584(4) 0.9260(2)
H7 H 1.1490 0.4258 0.9882
C11 C 1.0311(2) 0.1490(4) 0.7841(2)
H8 H 0.9683 0.0753 0.7496
C12 C 1.04381(18) 0.2513(3) 0.87546(18)
C13 C 1.1124(3) 0.1565(5) 0.7440(3)
H9 H 1.1036 0.0883 0.6824
C14 C 1.2184(2) 0.3662(5) 0.8852(3)
H10 H 1.2810 0.4406 0.9188
C15 C 1.2048(3) 0.2636(5) 0.7948(3)
H11 H 1.2591 0.2672 0.7679
O1 O 0.99364(13) 0.2422(3) 1.02266(13)
loop_
_geom_bond_atom_site_label_1
_geom_bond_atom_site_label_2
_geom_bond_site_symmetry_1
_geom_bond_site_symmetry_2
C1 C2 1_555 1_555
C2 C4 1_555 1_555
C3 C1 1_555 1_555
H1 C3 1_555 1_555
C4 C5 1_555 1_555
C5 H2 1_555 1_555
C6 C2 1_555 1_555
H3 C6 1_555 1_555
C7 C6 1_555 1_555
H4 C7 1_555 1_555
C8 C5 1_555 1_555
H5 C8 1_555 1_555
N1 C3 1_555 1_555
H6 N1 1_555 1_555
C9 C1 1_555 1_555
C10 H7 1_555 1_555
C11 H8 1_555 1_555
C12 C9 1_555 1_555
C13 C11 1_555 1_555
H9 C13 1_555 1_555
C14 C10 1_555 1_555
H10 C14 1_555 1_555
C15 C13 1_555 1_555
H11 C15 1_555 1_555
O1 C9 1_555 1_555
C4 N1 1_555 1_555
C7 C8 1_555 1_555
C10 C12 1_555 1_555
C11 C12 1_555 1_555
C14 C15 1_555 1_555

#END
