
#######################################################################
#
#                 Cambridge Crystallographic Data Centre
#                                CCDC 
#
#######################################################################
#
# If this CIF has been generated from an entry in the Cambridge 
# Structural Database, then it will include bibliographic, chemical, 
# crystal, experimental, refinement or atomic coordinate data resulting 
# from the CCDC's data processing and validation procedures.
#
#######################################################################

data_UPABUJ
_chemical_formula_moiety         'C16 H20 O4'
_chemical_name_systematic        'Ethyl 4-acetyl-5-oxo-3-phenylhexanoate'
_symmetry_cell_setting           triclinic
_symmetry_space_group_name_H-M   'P -1'
_symmetry_Int_Tables_number      2
_space_group_name_Hall           '-P 1'
loop_
_symmetry_equiv_pos_site_id
_symmetry_equiv_pos_as_xyz
1 x,y,z
2 -x,-y,-z
_cell_length_a                   5.8213(11)
_cell_length_b                   7.7638(18)
_cell_length_c                   17.8532(15)
_cell_angle_alpha                80.973(2)
_cell_angle_beta                 88.977(3)
_cell_angle_gamma                75.033(2)
_cell_volume                     769.637
_exptl_crystal_colour            colorless
_exptl_crystal_description       block
_cell_formula_units_Z            2
_exptl_crystal_recrystallization_method 'ethyl acetate'
loop_
_atom_site_label
_atom_site_type_symbol
_atom_site_fract_x
_atom_site_fract_y
_atom_site_fract_z
C1 C 0.9743(3) 0.8135(3) 0.22191(11)
C2 C 0.8295(4) 0.7260(3) 0.19182(11)
H1 H 0.7199 0.6823 0.2226
C3 C 0.8438(4) 0.7019(3) 0.11675(11)
H2 H 0.7450 0.6411 0.0978
C4 C 1.0006(4) 0.7658(3) 0.07023(12)
H3 H 1.0075 0.7507 0.0195
C5 C 1.1474(3) 0.8521(3) 0.09850(11)
H4 H 1.2557 0.8957 0.0671
C6 C 1.1361(3) 0.8750(3) 0.17330(11)
H5 H 1.2389 0.9329 0.1920
C7 C 0.9534(4) 0.8488(3) 0.30314(11)
H6 H 0.8304 0.7949 0.3272
C8 C 0.8736(3) 1.0549(3) 0.30396(11)
H7 H 0.8589 1.0774 0.3560
H8 H 0.9929 1.1111 0.2802
C9 C 0.6410(3) 1.1362(3) 0.26269(11)
C10 C 0.4381(4) 1.3543(3) 0.16176(11)
H9 H 0.4133 1.4844 0.1540
H10 H 0.3032 1.3256 0.1887
C11 C 0.4545(4) 1.2916(3) 0.08822(11)
H11 H 0.5764 1.3323 0.0593
H12 H 0.3048 1.3394 0.0612
H13 H 0.4931 1.1621 0.0960
C12 C 1.1855(3) 0.7662(3) 0.34946(11)
H14 H 1.3046 0.8279 0.3281
C13 C 1.2830(3) 0.5652(3) 0.34769(11)
C14 C 1.1213(4) 0.4433(3) 0.36507(12)
H15 H 1.2115 0.3200 0.3675
H16 H 1.0003 0.4717 0.3259
H17 H 1.0483 0.4599 0.4130
C15 C 1.1577(4) 0.7879(3) 0.43302(12)
C16 C 1.3691(4) 0.8014(3) 0.47412(12)
H18 H 1.3837 0.9232 0.4638
H19 H 1.5089 0.7214 0.4577
H20 H 1.3520 0.7683 0.5276
O1 O 0.4638(2) 1.0866(2) 0.27737(8)
O2 O 0.6542(2) 1.2691(2) 0.20664(8)
O3 O 1.4918(2) 0.50694(19) 0.33553(7)
O4 O 0.9718(2) 0.7909(2) 0.46421(8)
loop_
_geom_bond_atom_site_label_1
_geom_bond_atom_site_label_2
_geom_bond_site_symmetry_1
_geom_bond_site_symmetry_2
C1 C2 1_555 1_555
C2 H1 1_555 1_555
C3 C2 1_555 1_555
H2 C3 1_555 1_555
C4 C3 1_555 1_555
H3 C4 1_555 1_555
C5 C4 1_555 1_555
H4 C5 1_555 1_555
C6 C1 1_555 1_555
H5 C6 1_555 1_555
C7 C1 1_555 1_555
H6 C7 1_555 1_555
C8 C7 1_555 1_555
H7 C8 1_555 1_555
H8 C8 1_555 1_555
C9 C8 1_555 1_555
C10 H9 1_555 1_555
H10 C10 1_555 1_555
C11 C10 1_555 1_555
H11 C11 1_555 1_555
H12 C11 1_555 1_555
H13 C11 1_555 1_555
C12 C7 1_555 1_555
H14 C12 1_555 1_555
C13 C12 1_555 1_555
C14 C13 1_555 1_555
H15 C14 1_555 1_555
H16 C14 1_555 1_555
H17 C14 1_555 1_555
C15 C12 1_555 1_555
C16 C15 1_555 1_555
H18 C16 1_555 1_555
H19 C16 1_555 1_555
H20 C16 1_555 1_555
O1 C9 1_555 1_555
O2 C9 1_555 1_555
O3 C13 1_555 1_555
O4 C15 1_555 1_555
C5 C6 1_555 1_555
C10 O2 1_555 1_555

#END
