
#######################################################################
#
#                 Cambridge Crystallographic Data Centre
#                                CCDC 
#
#######################################################################
#
# If this CIF has been generated from an entry in the Cambridge 
# Structural Database, then it will include bibliographic, chemical, 
# crystal, experimental, refinement or atomic coordinate data resulting 
# from the CCDC's data processing and validation procedures.
#
#######################################################################

data_UPADUM
_chemical_formula_moiety         'C31 H21 F1 N4 O4'
_chemical_name_systematic        
5-fluoro-3',5'-diisonicotinoyl-1'-(4-methoxyphenyl)-1'H-spiro[indole-3,4'-pyridin]-2(1H)-one
_symmetry_cell_setting           monoclinic
_symmetry_space_group_name_H-M   'C c'
_symmetry_Int_Tables_number      9
_space_group_name_Hall           'C -2yc'
loop_
_symmetry_equiv_pos_site_id
_symmetry_equiv_pos_as_xyz
1 x,y,z
2 x,-y,1/2+z
3 1/2+x,1/2+y,z
4 1/2+x,1/2-y,1/2+z
_cell_length_a                   6.522(3)
_cell_length_b                   19.035(8)
_cell_length_c                   20.250(8)
_cell_angle_alpha                90
_cell_angle_beta                 92.660(6)
_cell_angle_gamma                90
_cell_volume                     2511.25
_exptl_crystal_colour            yellow
_exptl_crystal_description       block
_cell_formula_units_Z            4
loop_
_atom_site_label
_atom_site_type_symbol
_atom_site_fract_x
_atom_site_fract_y
_atom_site_fract_z
F1 F 1.1842(5) 0.39279(16) 0.21184(18)
N1 N 0.7144(7) 0.2196(2) 0.54782(19)
N2 N 0.4667(5) 0.2484(2) 0.16793(18)
H1 H 0.3494 0.2609 0.1507
N3 N 1.0438(13) -0.0427(3) -0.0104(3)
N4 N 1.0045(6) 0.07447(19) 0.28079(17)
O1 O 0.4589(5) 0.23016(18) 0.31572(16)
O2 O 0.3977(5) 0.13252(19) 0.18668(17)
O3 O 0.7506(6) 0.1741(2) 0.07907(17)
O4 O 1.5042(7) -0.13803(19) 0.3836(3)
C1 C 0.5344(8) 0.2009(3) 0.5208(2)
H2 H 0.4269 0.1933 0.5485
C2 C 0.4968(8) 0.1919(3) 0.4538(2)
H3 H 0.3667 0.1793 0.4372
C3 C 0.6554(7) 0.2020(2) 0.4116(2)
C4 C 0.8452(7) 0.2211(2) 0.4389(2)
H4 H 0.9565 0.2277 0.4125
C5 C 0.8653(9) 0.2300(2) 0.5073(3)
H5 H 0.9922 0.2442 0.5255
C6 C 0.6143(7) 0.2005(2) 0.3377(2)
C7 C 0.7542(6) 0.1646(2) 0.2941(2)
C8 C 0.8859(6) 0.1155(2) 0.3187(2)
H6 H 0.8964 0.1094 0.3643
C9 C 0.9779(7) 0.0796(2) 0.2134(2)
H7 H 1.0491 0.0483 0.1876
C10 C 0.8552(7) 0.1269(2) 0.1826(2)
C11 C 0.7371(6) 0.1820(2) 0.2204(2)
C12 C 0.5106(7) 0.1831(3) 0.1911(2)
C13 C 0.6390(7) 0.2931(2) 0.1758(2)
C14 C 0.8016(7) 0.2568(2) 0.2069(2)
C15 C 0.9881(7) 0.2904(2) 0.2198(2)
H8 H 1.0989 0.2676 0.2409
C16 C 1.0002(9) 0.3592(3) 0.1997(3)
C17 C 0.8432(9) 0.3955(3) 0.1695(3)
H9 H 0.8611 0.4421 0.1572
C18 C 0.6557(8) 0.3624(3) 0.1571(2)
H10 H 0.5452 0.3861 0.1368
C19 C 0.8382(7) 0.1269(3) 0.1104(2)
C20 C 0.9209(8) 0.0661(2) 0.0725(2)
C21 C 1.1116(9) 0.0653(3) 0.0472(3)
H11 H 1.2041 0.1014 0.0570
C22 C 1.1662(12) 0.0100(4) 0.0065(4)
H12 H 1.2973 0.0104 -0.0098
C23 C 0.8629(15) -0.0417(3) 0.0141(4)
H13 H 0.7730 -0.0781 0.0028
C24 C 0.7948(10) 0.0107(3) 0.0565(3)
H14 H 0.6651 0.0078 0.0735
C25 C 1.1381(7) 0.0209(3) 0.3091(2)
C26 C 1.0709(9) -0.0459(3) 0.3123(3)
H15 H 0.9372 -0.0565 0.2978
C27 C 1.1974(11) -0.0984(3) 0.3367(4)
H16 H 1.1514 -0.1446 0.3373
C28 C 1.3915(9) -0.0821(3) 0.3600(3)
C29 C 1.4635(8) -0.0161(3) 0.3559(3)
H17 H 1.5978 -0.0054 0.3698
C30 C 1.3313(8) 0.0362(3) 0.3301(3)
H18 H 1.3781 0.0822 0.3276
C31 C 1.6951(11) -0.1298(3) 0.4119(4)
H19 H 1.7912 -0.1224 0.3780
H20 H 1.7327 -0.1712 0.4366
H21 H 1.6966 -0.0900 0.4409
loop_
_geom_bond_atom_site_label_1
_geom_bond_atom_site_label_2
_geom_bond_site_symmetry_1
_geom_bond_site_symmetry_2
F1 C16 1_555 1_555
N1 C1 1_555 1_555
N2 H1 1_555 1_555
N3 C22 1_555 1_555
N4 C8 1_555 1_555
O1 C6 1_555 1_555
O2 C12 1_555 1_555
O3 C19 1_555 1_555
O4 C28 1_555 1_555
C1 H2 1_555 1_555
C2 C1 1_555 1_555
H3 C2 1_555 1_555
C3 C2 1_555 1_555
C4 C3 1_555 1_555
H4 C4 1_555 1_555
C5 N1 1_555 1_555
H5 C5 1_555 1_555
C6 C3 1_555 1_555
C7 C6 1_555 1_555
C8 C7 1_555 1_555
H6 C8 1_555 1_555
C9 N4 1_555 1_555
H7 C9 1_555 1_555
C10 C9 1_555 1_555
C11 C7 1_555 1_555
C12 N2 1_555 1_555
C13 N2 1_555 1_555
C14 C11 1_555 1_555
C15 C14 1_555 1_555
H8 C15 1_555 1_555
C16 C15 1_555 1_555
C17 C16 1_555 1_555
H9 C17 1_555 1_555
C18 C13 1_555 1_555
H10 C18 1_555 1_555
C19 C10 1_555 1_555
C20 C19 1_555 1_555
C21 C20 1_555 1_555
H11 C21 1_555 1_555
C22 C21 1_555 1_555
H12 C22 1_555 1_555
C23 N3 1_555 1_555
H13 C23 1_555 1_555
C24 C20 1_555 1_555
H14 C24 1_555 1_555
C25 N4 1_555 1_555
C26 C25 1_555 1_555
H15 C26 1_555 1_555
C27 C26 1_555 1_555
H16 C27 1_555 1_555
C28 C27 1_555 1_555
C29 C28 1_555 1_555
H17 C29 1_555 1_555
C30 C25 1_555 1_555
H18 C30 1_555 1_555
C31 O4 1_555 1_555
H19 C31 1_555 1_555
H20 C31 1_555 1_555
H21 C31 1_555 1_555
C4 C5 1_555 1_555
C10 C11 1_555 1_555
C11 C12 1_555 1_555
C13 C14 1_555 1_555
C17 C18 1_555 1_555
C23 C24 1_555 1_555
C29 C30 1_555 1_555

#END
