
#######################################################################
#
#                 Cambridge Crystallographic Data Centre
#                                CCDC 
#
#######################################################################
#
# If this CIF has been generated from an entry in the Cambridge 
# Structural Database, then it will include bibliographic, chemical, 
# crystal, experimental, refinement or atomic coordinate data resulting 
# from the CCDC's data processing and validation procedures.
#
#######################################################################

data_UPAFOH
_chemical_formula_moiety         'C23 H14 F8 N2 S1'
_chemical_name_systematic        
4-(2-[5-(3,5-Difluorophenyl)-2-methylthiophen-3-yl]-3,3,4,4,5,5-hexafluorocyclopent-1-en-1-yl)-1,5-dimethylpyrrole-2-carbonitrile
_symmetry_cell_setting           monoclinic
_symmetry_space_group_name_H-M   'P 21/c'
_symmetry_Int_Tables_number      14
_space_group_name_Hall           '-P 2ybc'
loop_
_symmetry_equiv_pos_site_id
_symmetry_equiv_pos_as_xyz
1 x,y,z
2 -x,1/2+y,1/2-z
3 -x,-y,-z
4 x,1/2-y,1/2+z
_cell_length_a                   11.873(2)
_cell_length_b                   12.063(2)
_cell_length_c                   16.208(3)
_cell_angle_alpha                90
_cell_angle_beta                 109.225(3)
_cell_angle_gamma                90
_cell_volume                     2191.92
_exptl_crystal_colour            colorless
_exptl_crystal_description       block
_cell_formula_units_Z            4
loop_
_atom_site_label
_atom_site_type_symbol
_atom_site_fract_x
_atom_site_fract_y
_atom_site_fract_z
S1 S 0.20592(8) 0.64459(8) 0.08798(6)
F1 F -0.1023(3) 0.5715(2) -0.22785(15)
F2 F -0.3477(2) 0.7314(2) -0.08674(16)
F3 F 0.12870(18) 1.04692(16) 0.16690(13)
F4 F 0.31802(19) 1.04374(18) 0.19007(13)
F5 F 0.1543(2) 1.10471(19) 0.32403(14)
F6 F 0.3169(2) 1.17628(17) 0.31582(13)
F7 F 0.3056(2) 1.01110(17) 0.45684(13)
F8 F 0.44533(17) 1.01423(16) 0.39904(12)
N1 N 0.2949(2) 0.6232(2) 0.45199(17)
N2 N 0.5482(3) 0.5675(3) 0.6326(2)
C1 C -0.1419(3) 0.7236(3) -0.0150(2)
H1 H -0.1522 0.7596 0.0328
C2 C -0.2385(3) 0.7008(4) -0.0874(3)
C3 C -0.2293(4) 0.6494(3) -0.1595(3)
H2 H -0.2957 0.6352 -0.2082
C4 C -0.1168(4) 0.6197(3) -0.1564(3)
C5 C -0.0167(3) 0.6391(3) -0.0855(2)
H3 H 0.0580 0.6165 -0.0860
C6 C -0.0287(3) 0.6927(3) -0.0134(2)
C7 C 0.0764(3) 0.7213(3) 0.06179(19)
C8 C 0.0902(3) 0.8070(3) 0.11854(19)
H4 H 0.0303 0.8583 0.1150
C9 C 0.2049(3) 0.8111(3) 0.18408(18)
C10 C 0.2779(3) 0.7270(3) 0.17555(19)
C11 C 0.4044(3) 0.7020(3) 0.2296(2)
H5 H 0.4424 0.7685 0.2578
H6 H 0.4464 0.6739 0.1925
H7 H 0.4053 0.6475 0.2729
C12 C 0.2404(2) 0.8972(3) 0.25172(19)
C13 C 0.2332(3) 1.0168(3) 0.2267(2)
C14 C 0.2579(3) 1.0803(3) 0.3117(2)
C15 C 0.3261(3) 0.9968(3) 0.3807(2)
C16 C 0.2898(2) 0.8857(3) 0.33946(19)
C17 C 0.3125(3) 0.7868(3) 0.39402(18)
C18 C 0.2400(3) 0.6945(3) 0.3864(2)
C19 C 0.1198(3) 0.6706(3) 0.3228(2)
H8 H 0.1270 0.6179 0.2804
H9 H 0.0852 0.7379 0.2938
H10 H 0.0697 0.6405 0.3532
C20 C 0.4144(3) 0.7692(3) 0.4683(2)
H11 H 0.4781 0.8178 0.4902
C21 C 0.4025(3) 0.6688(3) 0.5020(2)
C22 C 0.4826(4) 0.6117(3) 0.5744(3)
C23 C 0.2477(3) 0.5162(3) 0.4684(2)
H12 H 0.1777 0.5282 0.4845
H13 H 0.3070 0.4786 0.5150
H14 H 0.2274 0.4717 0.4165
loop_
_geom_bond_atom_site_label_1
_geom_bond_atom_site_label_2
_geom_bond_site_symmetry_1
_geom_bond_site_symmetry_2
S1 C7 1_555 1_555
F1 C4 1_555 1_555
F2 C2 1_555 1_555
F3 C13 1_555 1_555
F4 C13 1_555 1_555
F5 C14 1_555 1_555
F6 C14 1_555 1_555
F7 C15 1_555 1_555
F8 C15 1_555 1_555
N1 C18 1_555 1_555
N2 C22 1_555 1_555
C1 H1 1_555 1_555
C2 C1 1_555 1_555
C3 C2 1_555 1_555
H2 C3 1_555 1_555
C4 C3 1_555 1_555
C5 C4 1_555 1_555
H3 C5 1_555 1_555
C6 C1 1_555 1_555
C7 C6 1_555 1_555
C8 C7 1_555 1_555
H4 C8 1_555 1_555
C9 C8 1_555 1_555
C10 S1 1_555 1_555
C11 C10 1_555 1_555
H5 C11 1_555 1_555
H6 C11 1_555 1_555
H7 C11 1_555 1_555
C12 C9 1_555 1_555
C13 C12 1_555 1_555
C14 C13 1_555 1_555
C15 C14 1_555 1_555
C16 C12 1_555 1_555
C17 C16 1_555 1_555
C18 C17 1_555 1_555
C19 C18 1_555 1_555
H8 C19 1_555 1_555
H9 C19 1_555 1_555
H10 C19 1_555 1_555
C20 C17 1_555 1_555
H11 C20 1_555 1_555
C21 N1 1_555 1_555
C22 C21 1_555 1_555
C23 N1 1_555 1_555
H12 C23 1_555 1_555
H13 C23 1_555 1_555
H14 C23 1_555 1_555
C5 C6 1_555 1_555
C9 C10 1_555 1_555
C15 C16 1_555 1_555
C20 C21 1_555 1_555

#END
