
#######################################################################
#
#                 Cambridge Crystallographic Data Centre
#                                CCDC 
#
#######################################################################
#
# If this CIF has been generated from an entry in the Cambridge 
# Structural Database, then it will include bibliographic, chemical, 
# crystal, experimental, refinement or atomic coordinate data resulting 
# from the CCDC's data processing and validation procedures.
#
#######################################################################

data_UPAJIF
_chemical_formula_moiety         'C9 H6 N2 O2'
_chemical_name_systematic        8-Nitroquinoline
_symmetry_cell_setting           monoclinic
_symmetry_space_group_name_H-M   'P 21/c'
_symmetry_Int_Tables_number      14
_space_group_name_Hall           '-P 2ybc'
loop_
_symmetry_equiv_pos_site_id
_symmetry_equiv_pos_as_xyz
1 x,y,z
2 -x,1/2+y,1/2-z
3 -x,-y,-z
4 x,1/2-y,1/2+z
_cell_length_a                   7.2421(11)
_cell_length_b                   16.688(3)
_cell_length_c                   7.2089(11)
_cell_angle_alpha                90
_cell_angle_beta                 114.086(4)
_cell_angle_gamma                90
_cell_volume                     795.385
_exptl_crystal_colour            yellow
_exptl_crystal_description       block
_cell_formula_units_Z            4
_exptl_crystal_recrystallization_method dichloromethane/hexane
loop_
_atom_site_label
_atom_site_type_symbol
_atom_site_fract_x
_atom_site_fract_y
_atom_site_fract_z
C1 C 0.25070(14) 0.69710(6) 0.26068(13)
C2 C 0.25541(15) 0.61239(7) 0.26308(15)
N1 N 0.41946(14) 0.73928(6) 0.28382(15)
C3 C 0.06270(16) 0.73360(7) 0.22521(16)
N2 N 0.44722(15) 0.57111(6) 0.30592(16)
C4 C -0.10800(18) 0.68516(9) 0.1935(2)
H1 H -0.2304 0.7092 0.1738
C5 C 0.08895(19) 0.56627(8) 0.2262(2)
H2 H 0.0973 0.5107 0.2241
C6 C 0.0561(2) 0.81833(8) 0.21989(19)
H3 H -0.0634 0.8452 0.1985
C7 C 0.4030(2) 0.81781(8) 0.27567(19)
H4 H 0.5169 0.8474 0.2905
C8 C -0.09546(19) 0.60401(9) 0.1914(2)
H5 H -0.2101 0.5732 0.1668
O1 O 0.59089(14) 0.58621(7) 0.46328(17)
C9 C 0.2259(2) 0.86002(8) 0.2462(2)
H6 H 0.2248 0.9157 0.2448
O2 O 0.45132(17) 0.52226(7) 0.18178(19)
loop_
_geom_bond_atom_site_label_1
_geom_bond_atom_site_label_2
_geom_bond_site_symmetry_1
_geom_bond_site_symmetry_2
C1 C2 1_555 1_555
C2 N2 1_555 1_555
N1 C1 1_555 1_555
C3 C1 1_555 1_555
N2 O1 1_555 1_555
C4 C3 1_555 1_555
H1 C4 1_555 1_555
C5 C2 1_555 1_555
H2 C5 1_555 1_555
C6 C3 1_555 1_555
H3 C6 1_555 1_555
C7 N1 1_555 1_555
H4 C7 1_555 1_555
C8 C4 1_555 1_555
H5 C8 1_555 1_555
C9 C6 1_555 1_555
H6 C9 1_555 1_555
O2 N2 1_555 1_555
C5 C8 1_555 1_555
C7 C9 1_555 1_555

#END
