
#######################################################################
#
#                 Cambridge Crystallographic Data Centre
#                                CCDC 
#
#######################################################################
#
# If this CIF has been generated from an entry in the Cambridge 
# Structural Database, then it will include bibliographic, chemical, 
# crystal, experimental, refinement or atomic coordinate data resulting 
# from the CCDC's data processing and validation procedures.
#
#######################################################################

data_UPAPOR
_chemical_formula_moiety         'C22 H35 O2 P1'
_chemical_name_systematic        
'(R~p~)-2-Isopropyl-5-methylcyclohexyl cyclohexyl(phenyl)phosphinate'
_symmetry_cell_setting           monoclinic
_symmetry_space_group_name_H-M   'P 21'
_symmetry_Int_Tables_number      4
_space_group_name_Hall           'P 2yb'
loop_
_symmetry_equiv_pos_site_id
_symmetry_equiv_pos_as_xyz
1 x,y,z
2 -x,1/2+y,-z
_cell_length_a                   11.4892(13)
_cell_length_b                   5.8872(6)
_cell_length_c                   16.3531(17)
_cell_angle_alpha                90
_cell_angle_beta                 94.6960(10)
_cell_angle_gamma                90
_cell_volume                     1102.4
_exptl_crystal_colour            colorless
_exptl_crystal_description       block
_cell_formula_units_Z            2
loop_
_atom_site_label
_atom_site_type_symbol
_atom_site_fract_x
_atom_site_fract_y
_atom_site_fract_z
O1 O 0.23767(17) 0.3099(5) 0.23127(13)
O2 O 0.0655(2) 0.5689(4) 0.26004(16)
P1 P 0.11424(7) 0.33939(18) 0.26861(5)
C1 C 0.3668(4) 0.8147(10) 0.1266(3)
H1 H 0.3503 0.9307 0.1671
C2 C 0.2885(3) 0.6094(8) 0.1401(2)
H2 H 0.2073 0.6561 0.1330
H3 H 0.3008 0.4947 0.0991
C3 C 0.3131(3) 0.5077(7) 0.2245(2)
H4 H 0.2941 0.6204 0.2654
C4 C 0.4397(3) 0.4344(8) 0.2429(3)
H5 H 0.4556 0.3199 0.2017
C5 C 0.5175(4) 0.6387(9) 0.2281(3)
H6 H 0.5059 0.7535 0.2692
H7 H 0.5986 0.5913 0.2351
C6 C 0.4939(4) 0.7439(10) 0.1434(3)
H8 H 0.5436 0.8759 0.1392
H9 H 0.5136 0.6351 0.1022
C7 C 0.3404(5) 0.9182(10) 0.0410(3)
H10 H 0.3626 0.8129 0.0003
H11 H 0.3837 1.0566 0.0371
H12 H 0.2583 0.9498 0.0322
C8 C 0.4657(3) 0.3225(10) 0.3271(3)
H13 H 0.4093 0.1986 0.3305
C9 C 0.5883(4) 0.2143(10) 0.3369(4)
H14 H 0.6015 0.1294 0.2884
H15 H 0.5936 0.1145 0.3835
H16 H 0.6462 0.3316 0.3450
C10 C 0.4503(4) 0.4809(11) 0.4004(3)
H17 H 0.5076 0.5998 0.4014
H18 H 0.4603 0.3955 0.4505
H19 H 0.3735 0.5462 0.3950
C11 C 0.1394(3) 0.2629(7) 0.3751(2)
C12 C 0.1898(3) 0.0589(8) 0.4006(3)
H20 H 0.2096 -0.0463 0.3617
C13 C 0.2111(4) 0.0089(9) 0.4834(3)
H21 H 0.2465 -0.1278 0.4995
C14 C 0.1804(5) 0.1593(12) 0.5412(3)
H22 H 0.1933 0.1251 0.5967
C15 C 0.1302(4) 0.3623(12) 0.5164(3)
H23 H 0.1102 0.4666 0.5556
C16 C 0.1088(3) 0.4143(8) 0.4334(2)
H24 H 0.0738 0.5516 0.4176
C17 C 0.0280(3) 0.1208(6) 0.2167(2)
H25 H 0.0700 -0.0232 0.2254
C18 C 0.0112(4) 0.1628(9) 0.1254(2)
H26 H 0.0867 0.1661 0.1029
H27 H -0.0256 0.3095 0.1153
C19 C -0.0646(4) -0.0220(11) 0.0820(2)
H28 H -0.0772 0.0142 0.0241
H29 H -0.0238 -0.1662 0.0871
C20 C -0.1814(4) -0.0440(10) 0.1178(3)
H30 H -0.2260 0.0944 0.1077
H31 H -0.2251 -0.1684 0.0913
C21 C -0.1641(3) -0.0873(8) 0.2087(3)
H32 H -0.1264 -0.2334 0.2183
H33 H -0.2396 -0.0931 0.2312
C22 C -0.0900(3) 0.0966(8) 0.2526(2)
H34 H -0.1313 0.2402 0.2478
H35 H -0.0776 0.0593 0.3104
loop_
_geom_bond_atom_site_label_1
_geom_bond_atom_site_label_2
_geom_bond_site_symmetry_1
_geom_bond_site_symmetry_2
O1 P1 1_555 1_555
O2 P1 1_555 1_555
P1 C11 1_555 1_555
C1 H1 1_555 1_555
C2 C1 1_555 1_555
H2 C2 1_555 1_555
H3 C2 1_555 1_555
C3 O1 1_555 1_555
H4 C3 1_555 1_555
C4 C3 1_555 1_555
H5 C4 1_555 1_555
C5 C4 1_555 1_555
H6 C5 1_555 1_555
H7 C5 1_555 1_555
C6 C1 1_555 1_555
H8 C6 1_555 1_555
H9 C6 1_555 1_555
C7 C1 1_555 1_555
H10 C7 1_555 1_555
H11 C7 1_555 1_555
H12 C7 1_555 1_555
C8 C4 1_555 1_555
H13 C8 1_555 1_555
C9 C8 1_555 1_555
H14 C9 1_555 1_555
H15 C9 1_555 1_555
H16 C9 1_555 1_555
C10 C8 1_555 1_555
H17 C10 1_555 1_555
H18 C10 1_555 1_555
H19 C10 1_555 1_555
C11 C12 1_555 1_555
C12 H20 1_555 1_555
C13 C12 1_555 1_555
H21 C13 1_555 1_555
C14 C13 1_555 1_555
H22 C14 1_555 1_555
C15 C14 1_555 1_555
H23 C15 1_555 1_555
C16 C11 1_555 1_555
H24 C16 1_555 1_555
C17 P1 1_555 1_555
H25 C17 1_555 1_555
C18 C17 1_555 1_555
H26 C18 1_555 1_555
H27 C18 1_555 1_555
C19 C18 1_555 1_555
H28 C19 1_555 1_555
H29 C19 1_555 1_555
C20 C19 1_555 1_555
H30 C20 1_555 1_555
H31 C20 1_555 1_555
C21 C20 1_555 1_555
H32 C21 1_555 1_555
H33 C21 1_555 1_555
C22 C17 1_555 1_555
H34 C22 1_555 1_555
H35 C22 1_555 1_555
C2 C3 1_555 1_555
C5 C6 1_555 1_555
C15 C16 1_555 1_555
C21 C22 1_555 1_555

#END
