
#######################################################################
#
#                 Cambridge Crystallographic Data Centre
#                                CCDC 
#
#######################################################################
#
# If this CIF has been generated from an entry in the Cambridge 
# Structural Database, then it will include bibliographic, chemical, 
# crystal, experimental, refinement or atomic coordinate data resulting 
# from the CCDC's data processing and validation procedures.
#
#######################################################################

data_UPAQOT
_chemical_name_common            
'( )-(2S,4R)-1-[2-Ethynyl-2-(hydroxymethyl)-1,3-dioxolan-4-yl]thymine'
_chemical_formula_moiety         'C11 H12 N2 O5'
_chemical_name_systematic        
1-(2-ethynyl-2-(hydroxymethyl)-1,3-dioxolan-4-yl)-5-methylpyrimidine-2,4(1H,3H)-dione
_symmetry_cell_setting           triclinic
_symmetry_space_group_name_H-M   'P -1'
_symmetry_Int_Tables_number      2
_space_group_name_Hall           '-P 1'
loop_
_symmetry_equiv_pos_site_id
_symmetry_equiv_pos_as_xyz
1 x,y,z
2 -x,-y,-z
_cell_length_a                   7.2203(6)
_cell_length_b                   9.5807(10)
_cell_length_c                   9.5823(8)
_cell_angle_alpha                85.105(4)
_cell_angle_beta                 65.666(2)
_cell_angle_gamma                72.397(3)
_cell_volume                     575.101
_exptl_crystal_colour            colorless
_exptl_crystal_description       block
_cell_formula_units_Z            2
loop_
_atom_site_label
_atom_site_type_symbol
_atom_site_fract_x
_atom_site_fract_y
_atom_site_fract_z
O1 O -0.32142(18) 0.59580(12) 0.27875(13)
O2 O -0.30466(18) 0.33906(13) -0.10517(14)
O3 O 0.09722(16) 0.26847(13) 0.49915(12)
O4 O 0.24528(16) 0.31984(12) 0.25011(12)
O5 O 0.48278(19) 0.34503(14) 0.41425(15)
N1 N -0.3067(2) 0.46400(14) 0.08623(15)
N2 N -0.05352(19) 0.38141(14) 0.18752(14)
C1 C -0.2341(3) 0.48784(16) 0.19117(17)
C2 C -0.2196(3) 0.34876(17) -0.01947(17)
C3 C -0.0244(3) 0.24443(17) -0.02275(17)
C4 C 0.0459(3) 0.26497(17) 0.08149(18)
C5 C 0.0266(3) 0.39696(18) 0.30354(18)
C6 C -0.0766(3) 0.3287(2) 0.45471(18)
C7 C 0.2750(3) 0.21495(17) 0.36094(17)
C8 C 0.2868(3) 0.0678(2) 0.3134(2)
C9 C 0.3049(4) -0.0508(3) 0.2756(3)
C10 C 0.4784(3) 0.20875(19) 0.3774(2)
C11 C 0.0913(3) 0.12297(19) -0.1434(2)
H1 H -0.1909 0.4021 0.5300
H2 H -0.1317 0.2529 0.4404
H3 H 0.4930 0.1419 0.4567
H4 H 0.5992 0.1699 0.2819
H5 H 0.2169 0.0634 -0.1315
H6 H 0.1309 0.1636 -0.2430
H7 H 0.0005 0.0640 -0.1334
H8 H 0.170(3) 0.201(2) 0.089(2)
H9 H -0.424(4) 0.527(3) 0.090(3)
H10 H 0.321(4) -0.143(4) 0.242(3)
H11 H 0.008(3) 0.497(2) 0.316(2)
H12 H 0.415(4) 0.362(3) 0.524(3)
loop_
_geom_bond_atom_site_label_1
_geom_bond_atom_site_label_2
_geom_bond_site_symmetry_1
_geom_bond_site_symmetry_2
O1 C1 1_555 1_555
O2 C2 1_555 1_555
O3 C6 1_555 1_555
O4 C5 1_555 1_555
O5 C10 1_555 1_555
N1 C1 1_555 1_555
N2 C1 1_555 1_555
C2 N1 1_555 1_555
C3 C2 1_555 1_555
C4 N2 1_555 1_555
C5 N2 1_555 1_555
C6 C5 1_555 1_555
C7 O3 1_555 1_555
C8 C7 1_555 1_555
C9 C8 1_555 1_555
C10 C7 1_555 1_555
C11 C3 1_555 1_555
H1 C6 1_555 1_555
H2 C6 1_555 1_555
H3 C10 1_555 1_555
H4 C10 1_555 1_555
H5 C11 1_555 1_555
H6 C11 1_555 1_555
H7 C11 1_555 1_555
H8 C4 1_555 1_555
H9 N1 1_555 1_555
H10 C9 1_555 1_555
H11 C5 1_555 1_555
H12 O5 1_555 1_555
O4 C7 1_555 1_555
C3 C4 1_555 1_555

#END
