
#######################################################################
#
#                 Cambridge Crystallographic Data Centre
#                                CCDC 
#
#######################################################################
#
# If this CIF has been generated from an entry in the Cambridge 
# Structural Database, then it will include bibliographic, chemical, 
# crystal, experimental, refinement or atomic coordinate data resulting 
# from the CCDC's data processing and validation procedures.
#
#######################################################################

data_UPAREK
_chemical_name_common            
1$2!,$1!5-dimethyl-7-tosyl-3,11-dithia-7-aza-1(1,4)-benzenacyclododecaphane
_chemical_formula_moiety         'C21 H27 N1 O2 S3'
_chemical_name_systematic        
12,14-dimethyl-6-((4-methylphenyl)sulfonyl)-3,9-dithia-6-azabicyclo[9.2.2]pentadeca-1(13),11,14-triene
_symmetry_cell_setting           monoclinic
_symmetry_space_group_name_H-M   'P 21/n'
_symmetry_Int_Tables_number      14
_space_group_name_Hall           '-P 2yn'
loop_
_symmetry_equiv_pos_site_id
_symmetry_equiv_pos_as_xyz
1 x,y,z
2 1/2-x,1/2+y,1/2-z
3 -x,-y,-z
4 1/2+x,1/2-y,1/2+z
_cell_length_a                   7.9564(3)
_cell_length_b                   15.0196(5)
_cell_length_c                   17.5735(4)
_cell_angle_alpha                90
_cell_angle_beta                 100.065(2)
_cell_angle_gamma                90
_cell_volume                     2067.75
_exptl_crystal_colour            colorless
_exptl_crystal_description       blocks
_cell_formula_units_Z            4
loop_
_atom_site_label
_atom_site_type_symbol
_atom_site_fract_x
_atom_site_fract_y
_atom_site_fract_z
C1 C 0.73254(19) 0.54803(10) 0.46277(8)
H1 H 0.8083 0.5327 0.5119
H2 H 0.6568 0.5970 0.4736
S1 S 0.86462(5) 0.58781(2) 0.39325(2)
C2 C 0.93333(18) 0.48586(9) 0.35193(8)
H3 H 1.0524 0.4931 0.3436
H4 H 0.9312 0.4364 0.3890
C3 C 0.81970(18) 0.46205(9) 0.27521(8)
H5 H 0.6994 0.4585 0.2827
H6 H 0.8279 0.5095 0.2369
N1 N 0.87063(15) 0.37617(8) 0.24527(7)
C4 C 0.78989(19) 0.29497(10) 0.26873(8)
H7 H 0.7921 0.2974 0.3252
H8 H 0.8590 0.2430 0.2583
C5 C 0.60540(19) 0.28018(10) 0.22831(8)
H9 H 0.6022 0.2714 0.1722
H10 H 0.5359 0.3333 0.2352
S2 S 0.51740(5) 0.18282(2) 0.26886(2)
C6 C 0.38149(19) 0.23138(10) 0.33270(9)
H11 H 0.2701 0.2479 0.3013
H12 H 0.3601 0.1858 0.3706
C7 C 0.45859(18) 0.31221(9) 0.37561(8)
C8 C 0.59694(18) 0.30647(9) 0.43746(8)
C9 C 0.67710(17) 0.38516(10) 0.46497(8)
H13 H 0.7719 0.3819 0.5061
C10 C 0.62514(18) 0.46855(9) 0.43515(8)
C11 C 0.47921(17) 0.47514(9) 0.37730(8)
C12 C 0.40054(17) 0.39617(10) 0.34884(8)
H14 H 0.3027 0.3996 0.3093
C13 C 0.6629(2) 0.21852(10) 0.47154(9)
H15 H 0.7164 0.1858 0.4338
H16 H 0.5678 0.1836 0.4846
H17 H 0.7473 0.2290 0.5184
C14 C 0.41425(19) 0.56352(10) 0.34415(8)
H18 H 0.3136 0.5541 0.3041
H19 H 0.5036 0.5932 0.3215
H20 H 0.3832 0.6009 0.3853
S3 S 0.98513(4) 0.37492(2) 0.17737(2)
O1 O 1.09626(13) 0.45085(8) 0.18973(6)
O2 O 1.05442(14) 0.28704(7) 0.17582(6)
C15 C 0.84874(17) 0.39219(9) 0.08766(8)
C16 C 0.7598(2) 0.32073(10) 0.04968(8)
H21 H 0.7713 0.2628 0.0718
C17 C 0.6542(2) 0.33497(11) -0.02090(9)
H22 H 0.5917 0.2865 -0.0466
C18 C 0.63839(19) 0.41908(11) -0.05469(8)
C19 C 0.7296(2) 0.48915(11) -0.01571(9)
H23 H 0.7201 0.5469 -0.0382
C20 C 0.83436(19) 0.47664(10) 0.05546(8)
H24 H 0.8953 0.5253 0.0817
C21 C 0.5288(2) 0.43412(14) -0.13266(9)
H25 H 0.5941 0.4194 -0.1734
H26 H 0.4936 0.4967 -0.1375
H27 H 0.4274 0.3960 -0.1379
loop_
_geom_bond_atom_site_label_1
_geom_bond_atom_site_label_2
_geom_bond_site_symmetry_1
_geom_bond_site_symmetry_2
C1 H1 1_555 1_555
H2 C1 1_555 1_555
S1 C1 1_555 1_555
C2 S1 1_555 1_555
H3 C2 1_555 1_555
H4 C2 1_555 1_555
C3 C2 1_555 1_555
H5 C3 1_555 1_555
H6 C3 1_555 1_555
N1 C3 1_555 1_555
C4 N1 1_555 1_555
H7 C4 1_555 1_555
H8 C4 1_555 1_555
C5 C4 1_555 1_555
H9 C5 1_555 1_555
H10 C5 1_555 1_555
S2 C5 1_555 1_555
C6 S2 1_555 1_555
H11 C6 1_555 1_555
H12 C6 1_555 1_555
C7 C6 1_555 1_555
C8 C7 1_555 1_555
C9 C8 1_555 1_555
H13 C9 1_555 1_555
C10 C1 1_555 1_555
C11 C10 1_555 1_555
C12 C7 1_555 1_555
H14 C12 1_555 1_555
C13 C8 1_555 1_555
H15 C13 1_555 1_555
H16 C13 1_555 1_555
H17 C13 1_555 1_555
C14 C11 1_555 1_555
H18 C14 1_555 1_555
H19 C14 1_555 1_555
H20 C14 1_555 1_555
S3 N1 1_555 1_555
O1 S3 1_555 1_555
O2 S3 1_555 1_555
C15 S3 1_555 1_555
C16 C15 1_555 1_555
H21 C16 1_555 1_555
C17 C16 1_555 1_555
H22 C17 1_555 1_555
C18 C17 1_555 1_555
C19 C18 1_555 1_555
H23 C19 1_555 1_555
C20 C15 1_555 1_555
H24 C20 1_555 1_555
C21 C18 1_555 1_555
H25 C21 1_555 1_555
H26 C21 1_555 1_555
H27 C21 1_555 1_555
C9 C10 1_555 1_555
C11 C12 1_555 1_555
C19 C20 1_555 1_555

#END
