
#######################################################################
#
#                 Cambridge Crystallographic Data Centre
#                                CCDC 
#
#######################################################################
#
# If this CIF has been generated from an entry in the Cambridge 
# Structural Database, then it will include bibliographic, chemical, 
# crystal, experimental, refinement or atomic coordinate data resulting 
# from the CCDC's data processing and validation procedures.
#
#######################################################################

data_UPATEM
_chemical_formula_moiety         'C13 H14 N3 O1 S1 1+,B1 F4 1-'
_chemical_name_systematic        
'1-(pyridinium-2-yl)-3-(3-(methylsulfanyl)phenyl)urea tetrafluoroborate'
_symmetry_cell_setting           triclinic
_symmetry_space_group_name_H-M   'P -1'
_symmetry_Int_Tables_number      2
_space_group_name_Hall           '-P 1'
loop_
_symmetry_equiv_pos_site_id
_symmetry_equiv_pos_as_xyz
1 x,y,z
2 -x,-y,-z
_cell_length_a                   6.6282(3)
_cell_length_b                   10.3741(5)
_cell_length_c                   11.1178(5)
_cell_angle_alpha                96.700(10)
_cell_angle_beta                 92.305(10)
_cell_angle_gamma                99.927(10)
_cell_volume                     746.466
_exptl_crystal_colour            colorless
_exptl_crystal_description       needle
_cell_formula_units_Z            2
loop_
_atom_site_label
_atom_site_type_symbol
_atom_site_fract_x
_atom_site_fract_y
_atom_site_fract_z
S1 S 0.23125(11) 0.53170(6) 0.38488(5)
O1 O 0.2814(2) -0.10780(14) 0.49772(12)
N1 N 0.2408(3) 0.10509(17) 0.55939(15)
N2 N 0.2994(3) -0.02869(18) 0.69983(15)
N3 N 0.2889(3) -0.25725(17) 0.67444(16)
C1 C 0.2603(4) 0.5869(3) 0.2383(2)
C2 C 0.2269(3) 0.3603(2) 0.35769(18)
C3 C 0.2351(3) 0.2948(2) 0.45997(18)
C4 C 0.2304(3) 0.1594(2) 0.44855(17)
C5 C 0.2125(3) 0.0858(2) 0.33435(18)
C6 C 0.2054(3) 0.1526(2) 0.23324(18)
C7 C 0.2127(3) 0.2876(2) 0.24287(18)
C8 C 0.2740(3) -0.0163(2) 0.57647(18)
C9 C 0.2961(3) -0.1441(2) 0.74799(18)
C10 C 0.3000(3) -0.1472(2) 0.87325(19)
C11 C 0.2933(3) -0.2652(2) 0.9177(2)
C12 C 0.2840(3) -0.3811(2) 0.8388(2)
C13 C 0.2821(3) -0.3747(2) 0.7177(2)
H1 H 0.228(4) 0.162(2) 0.625(2)
H2 H 0.301(4) 0.038(2) 0.750(2)
H3 H 0.296(4) -0.245(3) 0.595(3)
H4 H 0.395(5) 0.564(3) 0.206(3)
H5 H 0.143(4) 0.543(3) 0.178(3)
H6 H 0.257(5) 0.681(3) 0.253(3)
H7 H 0.252(4) 0.343(3) 0.542(3)
H8 H 0.211(3) -0.008(2) 0.323(2)
H9 H 0.197(3) 0.102(2) 0.152(2)
H10 H 0.213(3) 0.332(2) 0.172(2)
H11 H 0.307(4) -0.065(2) 0.924(2)
H12 H 0.282(4) -0.267(2) 1.005(2)
H13 H 0.283(4) -0.464(3) 0.868(2)
H14 H 0.273(3) -0.452(2) 0.656(2)
F1 F -0.0278(3) 0.16572(16) 0.87099(16)
F2 F 0.1890(2) 0.29091(14) 0.76315(11)
F3 F 0.1741(3) 0.35151(13) 0.96417(12)
F4 F 0.3139(3) 0.17229(15) 0.89614(14)
B1 B 0.1606(5) 0.2459(3) 0.8762(2)
loop_
_geom_bond_atom_site_label_1
_geom_bond_atom_site_label_2
_geom_bond_site_symmetry_1
_geom_bond_site_symmetry_2
S1 C1 1_555 1_555
O1 C8 1_555 1_555
N1 C4 1_555 1_555
N2 C8 1_555 1_555
N3 C9 1_555 1_555
C1 H4 1_555 1_555
C2 S1 1_555 1_555
C3 C2 1_555 1_555
C4 C3 1_555 1_555
C5 C4 1_555 1_555
C6 C5 1_555 1_555
C7 C2 1_555 1_555
C8 N1 1_555 1_555
C9 N2 1_555 1_555
C10 C9 1_555 1_555
C11 C10 1_555 1_555
C12 C11 1_555 1_555
C13 N3 1_555 1_555
H1 N1 1_555 1_555
H2 N2 1_555 1_555
H3 N3 1_555 1_555
H5 C1 1_555 1_555
H6 C1 1_555 1_555
H7 C3 1_555 1_555
H8 C5 1_555 1_555
H9 C6 1_555 1_555
H10 C7 1_555 1_555
H11 C10 1_555 1_555
H12 C11 1_555 1_555
H13 C12 1_555 1_555
H14 C13 1_555 1_555
F1 B1 1_555 1_555
F2 B1 1_555 1_555
F3 B1 1_555 1_555
F4 B1 1_555 1_555
C6 C7 1_555 1_555
C12 C13 1_555 1_555

#END
