
#######################################################################
#
#                 Cambridge Crystallographic Data Centre
#                                CCDC 
#
#######################################################################
#
# If this CIF has been generated from an entry in the Cambridge 
# Structural Database, then it will include bibliographic, chemical, 
# crystal, experimental, refinement or atomic coordinate data resulting 
# from the CCDC's data processing and validation procedures.
#
#######################################################################

data_UPAVOY
_chemical_formula_moiety         'C14 H10 Br1 N1 O2'
_chemical_name_systematic        
(R)-3-(3-bromophenyl)-3,4-dihydro-2H-1,4-benzoxazin-2-one
_symmetry_cell_setting           orthorhombic
_symmetry_space_group_name_H-M   'P 21 21 21'
_symmetry_Int_Tables_number      19
_space_group_name_Hall           'P 2ac 2ab'
loop_
_symmetry_equiv_pos_site_id
_symmetry_equiv_pos_as_xyz
1 x,y,z
2 1/2-x,-y,1/2+z
3 1/2+x,1/2-y,-z
4 -x,1/2+y,1/2-z
_cell_length_a                   4.4197(5)
_cell_length_b                   11.6677(13)
_cell_length_c                   22.915(2)
_cell_angle_alpha                90
_cell_angle_beta                 90
_cell_angle_gamma                90
_cell_volume                     1181.67
_exptl_crystal_colour            colorless
_exptl_crystal_description       block
_cell_formula_units_Z            4
loop_
_atom_site_label
_atom_site_type_symbol
_atom_site_fract_x
_atom_site_fract_y
_atom_site_fract_z
Br1 Br 0.7614(3) 0.45786(8) 0.97654(4)
O1 O 0.7013(15) 0.4878(5) 0.7385(3)
O2 O 0.9717(12) 0.4276(5) 0.6642(2)
N1 N 1.1183(15) 0.2326(7) 0.7252(3)
H1 H 1.2095 0.1805 0.7452
C1 C 0.8928(19) 0.3828(9) 0.8611(4)
H2 H 1.0077 0.4514 0.8584
C2 C 0.736(3) 0.3574(7) 0.9117(3)
C3 C 0.567(2) 0.2573(9) 0.9162(4)
H3 H 0.4595 0.2405 0.9511
C4 C 0.556(2) 0.1836(9) 0.8703(4)
H4 H 0.4410 0.1150 0.8731
C5 C 0.711(2) 0.2085(7) 0.8195(4)
H5 H 0.7014 0.1566 0.7876
C6 C 0.8811(18) 0.3071(8) 0.8142(4)
C7 C 1.0571(18) 0.3352(7) 0.7596(4)
H6 H 1.2549 0.3698 0.7713
C8 C 0.889(2) 0.4214(8) 0.7212(4)
C9 C 1.1911(19) 0.3509(7) 0.6416(4)
C10 C 1.259(3) 0.2533(7) 0.6717(3)
C11 C 1.468(2) 0.1772(8) 0.6465(4)
H7 H 1.5284 0.1100 0.6668
C12 C 1.585(2) 0.2012(8) 0.5915(4)
H8 H 1.7214 0.1485 0.5739
C13 C 1.5089(19) 0.2988(9) 0.5627(4)
H9 H 1.5950 0.3146 0.5255
C14 C 1.3085(19) 0.3740(8) 0.5870(3)
H10 H 1.2505 0.4414 0.5666
loop_
_geom_bond_atom_site_label_1
_geom_bond_atom_site_label_2
_geom_bond_site_symmetry_1
_geom_bond_site_symmetry_2
Br1 C2 1_555 1_555
O1 C8 1_555 1_555
O2 C8 1_555 1_555
N1 H1 1_555 1_555
C1 H2 1_555 1_555
C2 C1 1_555 1_555
C3 C2 1_555 1_555
H3 C3 1_555 1_555
C4 C3 1_555 1_555
H4 C4 1_555 1_555
C5 C4 1_555 1_555
H5 C5 1_555 1_555
C6 C1 1_555 1_555
C7 N1 1_555 1_555
H6 C7 1_555 1_555
C8 C7 1_555 1_555
C9 O2 1_555 1_555
C10 N1 1_555 1_555
C11 C10 1_555 1_555
H7 C11 1_555 1_555
C12 C11 1_555 1_555
H8 C12 1_555 1_555
C13 C12 1_555 1_555
H9 C13 1_555 1_555
C14 C9 1_555 1_555
H10 C14 1_555 1_555
C5 C6 1_555 1_555
C6 C7 1_555 1_555
C9 C10 1_555 1_555
C13 C14 1_555 1_555

#END
