
#######################################################################
#
#                 Cambridge Crystallographic Data Centre
#                                CCDC 
#
#######################################################################
#
# If this CIF has been generated from an entry in the Cambridge 
# Structural Database, then it will include bibliographic, chemical, 
# crystal, experimental, refinement or atomic coordinate data resulting 
# from the CCDC's data processing and validation procedures.
#
#######################################################################

data_UPAWEO
_chemical_formula_moiety         'C17 H10 F4 O1'
_chemical_name_systematic        
(1E,4E)-1,5-Bis(2,6-difluorophenyl)penta-1,4-dien-3-on
_symmetry_cell_setting           monoclinic
_symmetry_space_group_name_H-M   'P 21/n'
_symmetry_Int_Tables_number      14
_space_group_name_Hall           '-P 2yn'
loop_
_symmetry_equiv_pos_site_id
_symmetry_equiv_pos_as_xyz
1 x,y,z
2 1/2-x,1/2+y,1/2-z
3 -x,-y,-z
4 1/2+x,1/2-y,1/2+z
_cell_length_a                   7.7522(11)
_cell_length_b                   15.413(2)
_cell_length_c                   12.2848(17)
_cell_angle_alpha                90
_cell_angle_beta                 106.194(2)
_cell_angle_gamma                90
_cell_volume                     1409.61
_exptl_crystal_colour            green
_exptl_crystal_description       prismatic
_cell_formula_units_Z            4
loop_
_atom_site_label
_atom_site_type_symbol
_atom_site_fract_x
_atom_site_fract_y
_atom_site_fract_z
F1 F 0.1321(2) -0.05696(10) -0.13761(11)
F2 F 0.2040(3) -0.14772(13) 0.23505(14)
F3 F 0.4725(3) 0.31282(12) -0.12340(13)
F4 F 0.7788(3) 0.37861(11) 0.25107(15)
O1 O 0.4636(3) 0.11929(12) 0.21918(15)
C1 C 0.4216(3) 0.12103(15) 0.1155(2)
C2 C 0.3222(3) 0.04845(15) 0.0490(2)
H1 H 0.2925 0.0506 -0.0297
C3 C 0.2739(3) -0.01982(16) 0.09889(19)
H2 H 0.3101 -0.0180 0.1777
C4 C 0.1752(3) -0.09625(15) 0.05189(18)
C5 C 0.1051(3) -0.11493(15) -0.06245(19)
C6 C 0.0106(3) -0.18811(17) -0.1029(2)
H3 H -0.0336 -0.1970 -0.1806
C7 C -0.0187(4) -0.24790(18) -0.0290(3)
H4 H -0.0837 -0.2979 -0.0561
C8 C 0.0473(4) -0.23481(19) 0.0854(3)
H5 H 0.0285 -0.2755 0.1368
C9 C 0.1404(4) -0.16122(19) 0.1214(2)
C10 C 0.4659(3) 0.19589(16) 0.0545(2)
H6 H 0.4252 0.1973 -0.0242
C11 C 0.5625(3) 0.26144(16) 0.10904(19)
H7 H 0.5979 0.2561 0.1876
C12 C 0.6217(3) 0.33956(16) 0.06650(19)
C13 C 0.5821(3) 0.36416(17) -0.0465(2)
C14 C 0.6445(4) 0.4382(2) -0.0837(3)
H8 H 0.6124 0.4518 -0.1605
C15 C 0.7535(4) 0.4915(2) -0.0071(3)
H9 H 0.7977 0.5417 -0.0316
C16 C 0.7993(4) 0.4721(2) 0.1059(3)
H10 H 0.8741 0.5086 0.1588
C17 C 0.7330(3) 0.39840(19) 0.1388(2)
loop_
_geom_bond_atom_site_label_1
_geom_bond_atom_site_label_2
_geom_bond_site_symmetry_1
_geom_bond_site_symmetry_2
F1 C5 1_555 1_555
F2 C9 1_555 1_555
F3 C13 1_555 1_555
F4 C17 1_555 1_555
O1 C1 1_555 1_555
C1 C2 1_555 1_555
C2 H1 1_555 1_555
C3 C2 1_555 1_555
H2 C3 1_555 1_555
C4 C3 1_555 1_555
C5 C4 1_555 1_555
C6 C5 1_555 1_555
H3 C6 1_555 1_555
C7 C6 1_555 1_555
H4 C7 1_555 1_555
C8 C7 1_555 1_555
H5 C8 1_555 1_555
C9 C4 1_555 1_555
C10 C1 1_555 1_555
H6 C10 1_555 1_555
C11 C10 1_555 1_555
H7 C11 1_555 1_555
C12 C11 1_555 1_555
C13 C12 1_555 1_555
C14 C13 1_555 1_555
H8 C14 1_555 1_555
C15 C14 1_555 1_555
H9 C15 1_555 1_555
C16 C15 1_555 1_555
H10 C16 1_555 1_555
C17 C12 1_555 1_555
C8 C9 1_555 1_555
C16 C17 1_555 1_555

#END
