
#######################################################################
#
#                 Cambridge Crystallographic Data Centre
#                                CCDC 
#
#######################################################################
#
# If this CIF has been generated from an entry in the Cambridge 
# Structural Database, then it will include bibliographic, chemical, 
# crystal, experimental, refinement or atomic coordinate data resulting 
# from the CCDC's data processing and validation procedures.
#
#######################################################################

data_UPAYOA
_chemical_formula_moiety         'C16 H19 F1 N3 O3 1+,C8 H5 O4 1-,0.5(C8 H6 O4)'
_chemical_name_systematic        
'4-(3-Carboxy-1-ethyl-6-fluoro-4-oxo-1,4-dihydroquinolin-7-yl)piperazin-1-ium 4-carboxybenzoate hemikis(terephthalic acid)'
_symmetry_cell_setting           triclinic
_symmetry_space_group_name_H-M   'P -1'
_symmetry_Int_Tables_number      2
_space_group_name_Hall           '-P 1'
loop_
_symmetry_equiv_pos_site_id
_symmetry_equiv_pos_as_xyz
1 x,y,z
2 -x,-y,-z
_cell_length_a                   9.8901(15)
_cell_length_b                   10.2420(16)
_cell_length_c                   13.665(2)
_cell_angle_alpha                89.304(2)
_cell_angle_beta                 74.672(2)
_cell_angle_gamma                71.677(2)
_cell_volume                     1263.46
_exptl_crystal_colour            yellow
_exptl_crystal_description       block
_cell_formula_units_Z            2
loop_
_atom_site_label
_atom_site_type_symbol
_atom_site_fract_x
_atom_site_fract_y
_atom_site_fract_z
F1 F 0.63577(11) 0.18180(9) 0.27698(7)
C1 C 0.63370(16) -0.02848(19) 0.79008(11)
C2 C 0.65495(15) -0.05532(16) 0.68003(10)
C3 C 0.63043(15) 0.05539(15) 0.61573(11)
C4 C 0.66237(14) 0.01485(14) 0.50870(10)
C5 C 0.64110(15) 0.11621(15) 0.43912(10)
H1 H 0.6076 0.2090 0.4619
C6 C 0.66906(15) 0.07966(14) 0.33949(10)
C7 C 0.72669(15) -0.05884(15) 0.29813(10)
C8 C 0.75114(15) -0.15922(15) 0.36672(10)
H2 H 0.7915 -0.2517 0.3427
C9 C 0.71625(14) -0.12410(14) 0.47136(10)
C10 C 0.70628(16) -0.18915(16) 0.63933(11)
H3 H 0.7198 -0.2588 0.6836
C11 C 0.79437(18) -0.37552(16) 0.50584(12)
H4 H 0.8377 -0.4277 0.5560
H5 H 0.8717 -0.3910 0.4423
C12 C 0.6737(2) -0.42777(18) 0.49078(15)
H6 H 0.7149 -0.5242 0.4686
H7 H 0.6316 -0.3776 0.4403
H8 H 0.5979 -0.4147 0.5539
C13 C 0.82815(18) -0.02111(17) 0.11838(11)
H9 H 0.9339 -0.0663 0.1060
H10 H 0.8050 0.0741 0.1427
C14 C 0.78474(18) -0.02599(16) 0.02080(11)
H11 H 0.6795 0.0219 0.0328
H12 H 0.8381 0.0201 -0.0302
C15 C 0.74848(17) -0.24840(16) 0.06232(11)
H13 H 0.7813 -0.3450 0.0383
H14 H 0.6419 -0.2125 0.0739
C16 C 0.78617(19) -0.23578(15) 0.16120(11)
H15 H 0.7325 -0.2810 0.2127
H16 H 0.8913 -0.2813 0.1517
N1 N 0.74725(14) -0.09079(12) 0.19528(9)
N2 N 0.81977(15) -0.17166(14) -0.01670(9)
H17 H 0.923(2) -0.2219(19) -0.0393(13)
H18 H 0.785(2) -0.169(2) -0.0715(15)
N3 N 0.73831(13) -0.22629(12) 0.54007(9)
O1 O 0.60295(14) 0.10171(15) 0.82150(9)
H19 H 0.595(3) 0.154(3) 0.760(2)
O2 O 0.64619(14) -0.11994(15) 0.84810(9)
O3 O 0.58611(12) 0.18033(11) 0.64870(8)
C17 C 0.17400(16) 0.50636(16) 0.20944(11)
C18 C 0.33786(15) 0.48186(14) 0.18335(11)
C19 C 0.43591(16) 0.39424(16) 0.10056(12)
H20 H 0.4000 0.3534 0.0571
C20 C 0.58733(16) 0.36724(16) 0.08232(11)
H21 H 0.6523 0.3088 0.0264
C21 C 0.64275(15) 0.42664(14) 0.14690(11)
C22 C 0.54455(16) 0.51661(16) 0.22799(12)
H22 H 0.5804 0.5588 0.2707
C23 C 0.39284(16) 0.54453(16) 0.24616(12)
H23 H 0.3278 0.6056 0.3007
C24 C 0.80895(16) 0.38823(15) 0.12883(12)
O4 O 0.08777(13) 0.57308(16) 0.28487(10)
O5 O 0.13363(12) 0.44329(13) 0.14372(9)
H24 H 0.030(3) 0.448(2) 0.1690(17)
O6 O 0.88873(12) 0.30848(14) 0.05353(9)
O7 O 0.85565(11) 0.43952(11) 0.19277(9)
C25 C 0.97781(16) 0.15488(18) 0.32394(12)
C26 C 0.98985(15) 0.07643(17) 0.41574(11)
C27 C 1.04199(16) -0.06690(17) 0.40371(12)
H25 H 1.0697 -0.1117 0.3392
C28 C 1.05276(16) -0.14308(18) 0.48721(12)
H26 H 1.087(2) -0.246(2) 0.4790(14)
O8 O 1.01763(14) 0.10184(13) 0.23849(9)
O9 O 0.91792(16) 0.28979(13) 0.34610(10)
H27 H 0.903(3) 0.334(2) 0.2932(18)
C25A C 1.02219(16) -0.15488(18) 0.67606(12)
C26A C 1.01015(15) -0.07643(17) 0.58426(11)
C27A C 0.95801(16) 0.06690(17) 0.59629(12)
H25A H 0.9303 0.1117 0.6608
C28A C 0.94724(16) 0.14308(18) 0.51279(12)
H26A H 0.913(2) 0.246(2) 0.5210(14)
O8A O 0.98237(14) -0.10184(13) 0.76151(9)
O9A O 1.08208(16) -0.28979(13) 0.65390(10)
H27A H 1.097(3) -0.334(2) 0.7068(18)
loop_
_geom_bond_atom_site_label_1
_geom_bond_atom_site_label_2
_geom_bond_site_symmetry_1
_geom_bond_site_symmetry_2
F1 C6 1_555 1_555
C1 C2 1_555 1_555
C2 C3 1_555 1_555
C3 C4 1_555 1_555
C4 C5 1_555 1_555
C5 H1 1_555 1_555
C6 C5 1_555 1_555
C7 C6 1_555 1_555
C8 C7 1_555 1_555
H2 C8 1_555 1_555
C9 C4 1_555 1_555
C10 C2 1_555 1_555
H3 C10 1_555 1_555
C11 H4 1_555 1_555
H5 C11 1_555 1_555
C12 C11 1_555 1_555
H6 C12 1_555 1_555
H7 C12 1_555 1_555
H8 C12 1_555 1_555
C13 H9 1_555 1_555
H10 C13 1_555 1_555
C14 C13 1_555 1_555
H11 C14 1_555 1_555
H12 C14 1_555 1_555
C15 H13 1_555 1_555
H14 C15 1_555 1_555
C16 C15 1_555 1_555
H15 C16 1_555 1_555
H16 C16 1_555 1_555
N1 C7 1_555 1_555
N2 C14 1_555 1_555
H17 N2 1_555 1_555
H18 N2 1_555 1_555
N3 C9 1_555 1_555
O1 C1 1_555 1_555
H19 O1 1_555 1_555
O2 C1 1_555 1_555
O3 C3 1_555 1_555
C17 C18 1_555 1_555
C18 C19 1_555 1_555
C19 H20 1_555 1_555
C20 C19 1_555 1_555
H21 C20 1_555 1_555
C21 C20 1_555 1_555
C22 C21 1_555 1_555
H22 C22 1_555 1_555
C23 C18 1_555 1_555
H23 C23 1_555 1_555
C24 C21 1_555 1_555
O4 C17 1_555 1_555
O5 C17 1_555 1_555
H24 O5 1_555 1_555
O6 C24 1_555 1_555
O7 C24 1_555 1_555
C25 C26 1_555 1_555
C26 C27 1_555 1_555
C27 H25 1_555 1_555
C28 C27 1_555 1_555
H26 C28 1_555 1_555
O8 C25 1_555 1_555
O9 C25 1_555 1_555
H27 O9 1_555 1_555
C25A C26A 1_555 1_555
C26A C28 1_555 1_555
C27A C26A 1_555 1_555
H25A C27A 1_555 1_555
C28A C26 1_555 1_555
H26A C28A 1_555 1_555
O8A C25A 1_555 1_555
O9A C25A 1_555 1_555
H27A O9A 1_555 1_555
C8 C9 1_555 1_555
C10 N3 1_555 1_555
C11 N3 1_555 1_555
C13 N1 1_555 1_555
C15 N2 1_555 1_555
C16 N1 1_555 1_555
C22 C23 1_555 1_555
C27A C28A 1_555 1_555

#END
