
#######################################################################
#
#                 Cambridge Crystallographic Data Centre
#                                CCDC 
#
#######################################################################
#
# If this CIF has been generated from an entry in the Cambridge 
# Structural Database, then it will include bibliographic, chemical, 
# crystal, experimental, refinement or atomic coordinate data resulting 
# from the CCDC's data processing and validation procedures.
#
#######################################################################

data_UPAZIW
_chemical_formula_moiety         'C65 H70 Br2 N2 O12,C2 H6 O1'
_chemical_name_systematic        
'4-bromo-2-(((4-((34-(4-((5-bromo-2-hydroxybenzylidene)amino)butoxy)-9,14,19,24,26,28,30,32-octamethoxyhexacyclo[21.2.2.2^3,6^.2^8,11^.2^13,16^.2^18,21^]pentatriaconta-1(25),3,5,8,10,13,15,18,20,23,26,28,30,32,34-pentadecaen-4-yl)oxy)butyl)imino)methyl)phenol ethanol solvate'
_symmetry_cell_setting           monoclinic
_symmetry_space_group_name_H-M   'C 2/c'
_symmetry_Int_Tables_number      15
_space_group_name_Hall           '-C 2yn'
loop_
_symmetry_equiv_pos_site_id
_symmetry_equiv_pos_as_xyz
1 x,y,z
2 -x,y,1/2-z
3 1/2+x,1/2+y,z
4 1/2-x,1/2+y,1/2-z
5 -x,-y,-z
6 x,-y,1/2+z
7 1/2-x,1/2-y,-z
8 1/2+x,1/2-y,1/2+z
_cell_length_a                   18.885(3)
_cell_length_b                   17.349(3)
_cell_length_c                   20.564(4)
_cell_angle_alpha                90
_cell_angle_beta                 109.225(4)
_cell_angle_gamma                90
_cell_volume                     6361.77
_exptl_crystal_colour            yellow
_exptl_crystal_description       block
_cell_formula_units_Z            4
loop_
_atom_site_label
_atom_site_type_symbol
_atom_site_fract_x
_atom_site_fract_y
_atom_site_fract_z
Br1 Br -0.12977(9) 0.35323(9) 0.15437(9)
C1 C 0.5000 0.0492(6) 0.2500
H1 H 0.5419 0.0162 0.2741
C2 C 0.5208(5) 0.0961(4) 0.1986(4)
C3 C 0.5935(5) 0.1211(4) 0.2099(4)
H2 H 0.6307 0.1047 0.2497
C4 C 0.6141(5) 0.1691(5) 0.1653(5)
C5 C 0.5597(6) 0.1920(4) 0.1033(4)
C6 C 0.4873(5) 0.1673(4) 0.0911(4)
H3 H 0.4504 0.1819 0.0504
C7 C 0.4676(5) 0.1214(5) 0.1374(5)
C8 C 0.7354(5) 0.1946(7) 0.2427(6)
H4 H 0.7121 0.2175 0.2730
H5 H 0.7795 0.2235 0.2447
H6 H 0.7492 0.1424 0.2566
C9 C 0.3362(6) 0.1429(6) 0.0846(6)
H7 H 0.3540 0.1950 0.0876
H8 H 0.2946 0.1402 0.1015
H9 H 0.3205 0.1262 0.0375
C10 C 0.5795(5) 0.2470(5) 0.0552(4)
H10 H 0.6296 0.2353 0.0549
H11 H 0.5451 0.2391 0.0088
C11 C 0.5766(5) 0.3301(5) 0.0745(4)
C12 C 0.6376(5) 0.3707(5) 0.1155(5)
H12 H 0.6843 0.3468 0.1299
C13 C 0.6321(6) 0.4445(6) 0.1357(5)
C14 C 0.5668(6) 0.4841(5) 0.1139(4)
C15 C 0.5029(5) 0.4460(5) 0.0722(4)
H13 H 0.4572 0.4717 0.0570
C16 C 0.5077(6) 0.3692(5) 0.0533(4)
C17 C 0.7443(8) 0.4459(9) 0.2315(10)
H14 H 0.7168 0.4132 0.2524
H15 H 0.7738 0.4818 0.2649
H16 H 0.7767 0.4149 0.2147
C18 C 0.3755(6) 0.3569(6) -0.0002(6)
H17 H 0.3711 0.3768 0.0418
H18 H 0.3392 0.3167 -0.0175
H19 H 0.3666 0.3976 -0.0336
C19 C 0.5602(5) 0.5676(4) 0.1350(4)
H20 H 0.5274 0.5957 0.0959
H21 H 0.6092 0.5917 0.1486
C20 C 0.5288(6) 0.5720(4) 0.1949(5)
C21 C 0.4526(6) 0.5734(4) 0.1825(5)
C22 C 0.4250(5) 0.5729(4) 0.2374(5)
H22 H 0.3734 0.5731 0.2281
C23 C 0.3523(7) 0.6345(6) 0.0922(6)
H23 H 0.3766 0.6765 0.0766
H24 H 0.3369 0.6533 0.1299
C24 C 0.2843(6) 0.6081(7) 0.0340(7)
H25 H 0.2510 0.6516 0.0169
H26 H 0.3000 0.5889 -0.0034
C25 C 0.2437(9) 0.5467(9) 0.0571(13)
H27 H 0.2661 0.4986 0.0498
H28 H 0.2573 0.5529 0.1066
C26 C 0.1741(9) 0.5353(9) 0.0357(10)
H29 H 0.1578 0.5293 -0.0139
H30 H 0.1494 0.5807 0.0457
C27 C 0.0880(7) 0.4693(6) 0.0767(5)
H31 H 0.0602 0.5146 0.0669
C28 C 0.0580(6) 0.4054(5) 0.1037(5)
C29 C 0.1012(7) 0.3350(7) 0.1207(5)
C30 C 0.0722(7) 0.2745(6) 0.1459(5)
H32 H 0.0989 0.2286 0.1554
C31 C 0.0064(8) 0.2791(6) 0.1574(5)
H33 H -0.0105 0.2369 0.1760
C32 C -0.0385(6) 0.3479(6) 0.1414(5)
C33 C -0.0089(7) 0.4084(6) 0.1139(5)
H34 H -0.0369 0.4534 0.1019
N1 N 0.1493(6) 0.4674(5) 0.0656(6)
O1 O 0.6855(4) 0.1954(4) 0.1755(3)
O2 O 0.3955(4) 0.0937(4) 0.1255(3)
O3 O 0.6950(5) 0.4853(4) 0.1777(4)
O4 O 0.4466(4) 0.3277(3) 0.0122(3)
O5 O 0.4038(4) 0.5722(4) 0.1156(3)
O6 O 0.1682(5) 0.3285(4) 0.1100(5)
H35 H 0.1874 0.3712 0.1125
Br1A Br 1.12977(9) 0.35323(9) 0.34563(9)
H1A H 0.4581 0.0162 0.2259
C2A C 0.4792(5) 0.0961(4) 0.3014(4)
C3A C 0.4065(5) 0.1211(4) 0.2901(4)
H2A H 0.3693 0.1047 0.2503
C4A C 0.3859(5) 0.1691(5) 0.3347(5)
C5A C 0.4403(6) 0.1920(4) 0.3967(4)
C6A C 0.5127(5) 0.1673(4) 0.4089(4)
H3A H 0.5496 0.1819 0.4496
C7A C 0.5324(5) 0.1214(5) 0.3626(5)
C8A C 0.2646(5) 0.1946(7) 0.2573(6)
H4A H 0.2879 0.2175 0.2270
H5A H 0.2205 0.2235 0.2553
H6A H 0.2508 0.1424 0.2434
C9A C 0.6638(6) 0.1429(6) 0.4154(6)
H7A H 0.6460 0.1950 0.4124
H8A H 0.7054 0.1402 0.3985
H9A H 0.6795 0.1262 0.4625
C10A C 0.4205(5) 0.2470(5) 0.4448(4)
H10A H 0.3704 0.2353 0.4451
H11A H 0.4549 0.2391 0.4912
C11A C 0.4234(5) 0.3301(5) 0.4255(4)
C12A C 0.3624(5) 0.3707(5) 0.3845(5)
H12A H 0.3157 0.3468 0.3701
C13A C 0.3679(6) 0.4445(6) 0.3643(5)
C14A C 0.4332(6) 0.4841(5) 0.3861(4)
C15A C 0.4971(5) 0.4460(5) 0.4278(4)
H13A H 0.5428 0.4717 0.4430
C16A C 0.4923(6) 0.3692(5) 0.4467(4)
C17A C 0.2557(8) 0.4459(9) 0.2685(10)
H14A H 0.2832 0.4132 0.2476
H15A H 0.2262 0.4818 0.2351
H16A H 0.2233 0.4149 0.2853
C18A C 0.6245(6) 0.3569(6) 0.5002(6)
H17A H 0.6289 0.3768 0.4582
H18A H 0.6608 0.3167 0.5175
H19A H 0.6334 0.3976 0.5336
C19A C 0.4398(5) 0.5676(4) 0.3650(4)
H20A H 0.4726 0.5957 0.4041
H21A H 0.3908 0.5917 0.3514
C20A C 0.4712(6) 0.5720(4) 0.3051(5)
C21A C 0.5474(6) 0.5734(4) 0.3175(5)
C22A C 0.5750(5) 0.5729(4) 0.2626(5)
H22A H 0.6266 0.5731 0.2719
C23A C 0.6477(7) 0.6345(6) 0.4078(6)
H23A H 0.6234 0.6765 0.4234
H24A H 0.6631 0.6533 0.3701
C24A C 0.7157(6) 0.6081(7) 0.4660(7)
H25A H 0.7490 0.6516 0.4831
H26A H 0.7000 0.5889 0.5034
C25A C 0.7563(9) 0.5467(9) 0.4429(13)
H27A H 0.7339 0.4986 0.4502
H28A H 0.7427 0.5529 0.3934
C26A C 0.8259(9) 0.5353(9) 0.4643(10)
H29A H 0.8422 0.5293 0.5139
H30A H 0.8506 0.5807 0.4543
C27A C 0.9120(7) 0.4693(6) 0.4233(5)
H31A H 0.9398 0.5146 0.4331
C28A C 0.9420(6) 0.4054(5) 0.3963(5)
C29A C 0.8988(7) 0.3350(7) 0.3793(5)
C30A C 0.9278(7) 0.2745(6) 0.3541(5)
H32A H 0.9011 0.2286 0.3446
C31A C 0.9936(8) 0.2791(6) 0.3426(5)
H33A H 1.0105 0.2369 0.3240
C32A C 1.0385(6) 0.3479(6) 0.3586(5)
C33A C 1.0089(7) 0.4084(6) 0.3861(5)
H34A H 1.0369 0.4534 0.3981
N1A N 0.8507(6) 0.4674(5) 0.4344(6)
O1A O 0.3145(4) 0.1954(4) 0.3245(3)
O2A O 0.6045(4) 0.0937(4) 0.3745(3)
O3A O 0.3050(5) 0.4853(4) 0.3223(4)
O4A O 0.5534(4) 0.3277(3) 0.4878(3)
O5A O 0.5962(4) 0.5722(4) 0.3844(3)
O6A O 0.8318(5) 0.3285(4) 0.3900(5)
H35A H 0.8126 0.3712 0.3875
H36? H 0.5419 0.0162 0.2741
O7? O 0.5978(9) 0.3438(8) 0.3011(6)
H37? H 0.5945 0.3790 0.3266
C34? C 0.5254(11) 0.3046(13) 0.2739(12)
H38? H 0.5190 0.2748 0.3116
H39? H 0.5299 0.2678 0.2400
C35? C 0.4489(13) 0.3504(15) 0.2394(12)
H40? H 0.4598 0.4033 0.2329
H41? H 0.4188 0.3478 0.2689
H42? H 0.4221 0.3277 0.1957
loop_
_geom_bond_atom_site_label_1
_geom_bond_atom_site_label_2
_geom_bond_site_symmetry_1
_geom_bond_site_symmetry_2
Br1 C32 1_555 1_555
C1 H1 1_555 1_555
C2 C1 1_555 1_555
C3 C2 1_555 1_555
H2 C3 1_555 1_555
C4 C3 1_555 1_555
C5 C4 1_555 1_555
C6 C5 1_555 1_555
H3 C6 1_555 1_555
C7 C2 1_555 1_555
C8 H4 1_555 1_555
H5 C8 1_555 1_555
H6 C8 1_555 1_555
C9 H7 1_555 1_555
H8 C9 1_555 1_555
H9 C9 1_555 1_555
C10 C5 1_555 1_555
H10 C10 1_555 1_555
H11 C10 1_555 1_555
C11 C10 1_555 1_555
C12 C11 1_555 1_555
H12 C12 1_555 1_555
C13 C12 1_555 1_555
C14 C13 1_555 1_555
C15 C14 1_555 1_555
H13 C15 1_555 1_555
C16 C11 1_555 1_555
C17 H14 1_555 1_555
H15 C17 1_555 1_555
H16 C17 1_555 1_555
C18 H17 1_555 1_555
H18 C18 1_555 1_555
H19 C18 1_555 1_555
C19 C14 1_555 1_555
H20 C19 1_555 1_555
H21 C19 1_555 1_555
C20 C19 1_555 1_555
C21 C20 1_555 1_555
C22 C21 1_555 1_555
H22 C22 1_555 1_555
C23 H23 1_555 1_555
H24 C23 1_555 1_555
C24 C23 1_555 1_555
H25 C24 1_555 1_555
H26 C24 1_555 1_555
C25 C24 1_555 1_555
H27 C25 1_555 1_555
H28 C25 1_555 1_555
C26 C25 1_555 1_555
H29 C26 1_555 1_555
H30 C26 1_555 1_555
C27 H31 1_555 1_555
C28 C27 1_555 1_555
C29 C28 1_555 1_555
C30 C29 1_555 1_555
H32 C30 1_555 1_555
C31 C30 1_555 1_555
H33 C31 1_555 1_555
C32 C31 1_555 1_555
C33 C28 1_555 1_555
H34 C33 1_555 1_555
N1 C26 1_555 1_555
O1 C4 1_555 1_555
O2 C7 1_555 1_555
O3 C13 1_555 1_555
O4 C16 1_555 1_555
O5 C21 1_555 1_555
O6 C29 1_555 1_555
H35 O6 1_555 1_555
Br1A C32A 1_555 1_555
H1A C1 1_555 1_555
C2A C1 1_555 1_555
C3A C2A 1_555 1_555
H2A C3A 1_555 1_555
C4A C3A 1_555 1_555
C5A C4A 1_555 1_555
C6A C5A 1_555 1_555
H3A C6A 1_555 1_555
C7A C2A 1_555 1_555
C8A H4A 1_555 1_555
H5A C8A 1_555 1_555
H6A C8A 1_555 1_555
C9A H7A 1_555 1_555
H8A C9A 1_555 1_555
H9A C9A 1_555 1_555
C10A C5A 1_555 1_555
H10A C10A 1_555 1_555
H11A C10A 1_555 1_555
C11A C10A 1_555 1_555
C12A C11A 1_555 1_555
H12A C12A 1_555 1_555
C13A C12A 1_555 1_555
C14A C13A 1_555 1_555
C15A C14A 1_555 1_555
H13A C15A 1_555 1_555
C16A C11A 1_555 1_555
C17A H14A 1_555 1_555
H15A C17A 1_555 1_555
H16A C17A 1_555 1_555
C18A H17A 1_555 1_555
H18A C18A 1_555 1_555
H19A C18A 1_555 1_555
C19A C14A 1_555 1_555
H20A C19A 1_555 1_555
H21A C19A 1_555 1_555
C20A C22 1_555 1_555
C21A C20A 1_555 1_555
C22A C20 1_555 1_555
H22A C22A 1_555 1_555
C23A H23A 1_555 1_555
H24A C23A 1_555 1_555
C24A C23A 1_555 1_555
H25A C24A 1_555 1_555
H26A C24A 1_555 1_555
C25A C24A 1_555 1_555
H27A C25A 1_555 1_555
H28A C25A 1_555 1_555
C26A C25A 1_555 1_555
H29A C26A 1_555 1_555
H30A C26A 1_555 1_555
C27A H31A 1_555 1_555
C28A C27A 1_555 1_555
C29A C28A 1_555 1_555
C30A C29A 1_555 1_555
H32A C30A 1_555 1_555
C31A C30A 1_555 1_555
H33A C31A 1_555 1_555
C32A C31A 1_555 1_555
C33A C28A 1_555 1_555
H34A C33A 1_555 1_555
N1A C26A 1_555 1_555
O1A C4A 1_555 1_555
O2A C7A 1_555 1_555
O3A C13A 1_555 1_555
O4A C16A 1_555 1_555
O5A C21A 1_555 1_555
O6A C29A 1_555 1_555
H35A O6A 1_555 1_555
C6 C7 1_555 1_555
C8 O1 1_555 1_555
C9 O2 1_555 1_555
C15 C16 1_555 1_555
C17 O3 1_555 1_555
C18 O4 1_555 1_555
C23 O5 1_555 1_555
C27 N1 1_555 1_555
C32 C33 1_555 1_555
C6A C7A 1_555 1_555
C8A O1A 1_555 1_555
C9A O2A 1_555 1_555
C15A C16A 1_555 1_555
C17A O3A 1_555 1_555
C18A O4A 1_555 1_555
C19A C20A 1_555 1_555
C21A C22A 1_555 1_555
C23A O5A 1_555 1_555
C27A N1A 1_555 1_555
C32A C33A 1_555 1_555

#END
