
#######################################################################
#
#                 Cambridge Crystallographic Data Centre
#                                CCDC 
#
#######################################################################
#
# If this CIF has been generated from an entry in the Cambridge 
# Structural Database, then it will include bibliographic, chemical, 
# crystal, experimental, refinement or atomic coordinate data resulting 
# from the CCDC's data processing and validation procedures.
#
#######################################################################

data_UPAZOC
_chemical_formula_moiety         'C24 H30 O4'
_chemical_name_systematic        
5,6-bis(4-methoxyphenyl)deca-1,9-diene-5,6-diol
_symmetry_cell_setting           orthorhombic
_symmetry_space_group_name_H-M   'F d d 2'
_symmetry_Int_Tables_number      43
_space_group_name_Hall           'F 2 -2d'
loop_
_symmetry_equiv_pos_site_id
_symmetry_equiv_pos_as_xyz
1 x,y,z
2 -x,-y,z
3 1/4+x,1/4-y,1/4+z
4 1/4-x,1/4+y,1/4+z
5 x,1/2+y,1/2+z
6 -x,1/2-y,1/2+z
7 1/4+x,3/4-y,3/4+z
8 1/4-x,3/4+y,3/4+z
9 1/2+x,y,1/2+z
10 1/2-x,-y,1/2+z
11 3/4+x,1/4-y,3/4+z
12 3/4-x,1/4+y,3/4+z
13 1/2+x,1/2+y,z
14 1/2-x,1/2-y,z
15 3/4+x,3/4-y,1/4+z
16 3/4-x,3/4+y,1/4+z
_cell_length_a                   30.158(6)
_cell_length_b                   8.6837(18)
_cell_length_c                   15.926(3)
_cell_angle_alpha                90
_cell_angle_beta                 90
_cell_angle_gamma                90
_cell_volume                     4170.75
_exptl_crystal_colour            colorless
_cell_formula_units_Z            8
loop_
_atom_site_label
_atom_site_type_symbol
_atom_site_fract_x
_atom_site_fract_y
_atom_site_fract_z
C1 C 0.75469(8) 0.5658(3) 0.47176(17)
C2 C 0.73751(8) 0.5804(3) 0.55289(16)
H1 H 0.7140 0.6510 0.5626
C3 C 0.75364(8) 0.4955(3) 0.61897(16)
H2 H 0.7417 0.5093 0.6737
C4 C 0.78751(7) 0.3893(3) 0.60556(16)
C5 C 0.80403(8) 0.3674(3) 0.52516(16)
H3 H 0.8265 0.2928 0.5152
C6 C 0.78750(8) 0.4554(3) 0.45919(16)
H4 H 0.7989 0.4398 0.4042
C7 C 0.73827(8) 0.6675(3) 0.40037(16)
C8 C 0.68751(8) 0.6840(3) 0.40244(18)
H5 H 0.6787 0.7316 0.4564
H6 H 0.6782 0.7542 0.3568
C9 C 0.66313(9) 0.5312(3) 0.3926(2)
H7 H 0.6695 0.4878 0.3364
H8 H 0.6741 0.4575 0.4352
C10 C 0.61411(9) 0.5507(3) 0.4027(2)
C11 C 0.83995(8) 0.2162(3) 0.66674(19)
H9 H 0.8337 0.1345 0.6260
H10 H 0.8474 0.1701 0.7211
H11 H 0.8649 0.2784 0.6469
O1 O 0.75101(6) 0.5939(2) 0.32378(12)
H12 H 0.7374 0.6344 0.2835
C12 C 0.59005(10) 0.4911(4) 0.4627(2)
H13 H 0.6036 0.4293 0.5047
H14 H 0.5590 0.5094 0.4643
O2 O 0.80176(5) 0.3118(2) 0.67591(11)
C1M C 0.74531(8) 0.9342(3) 0.47176(17)
C2M C 0.76249(8) 0.9196(3) 0.55289(16)
H1M H 0.7860 0.8490 0.5626
C3M C 0.74636(8) 1.0045(3) 0.61897(16)
H2M H 0.7583 0.9907 0.6737
C4M C 0.71249(7) 1.1107(3) 0.60556(16)
C5M C 0.69597(8) 1.1326(3) 0.52516(16)
H3M H 0.6735 1.2072 0.5152
C6M C 0.71250(8) 1.0446(3) 0.45919(16)
H4M H 0.7011 1.0602 0.4042
C7M C 0.76173(8) 0.8325(3) 0.40037(16)
C8M C 0.81249(8) 0.8160(3) 0.40244(18)
H5M H 0.8213 0.7684 0.4564
H6M H 0.8218 0.7458 0.3568
C9M C 0.83687(9) 0.9688(3) 0.3926(2)
H7M H 0.8305 1.0122 0.3364
H8M H 0.8259 1.0425 0.4352
C10M C 0.88589(9) 0.9493(3) 0.4027(2)
C11M C 0.66005(8) 1.2838(3) 0.66674(19)
H9M H 0.6663 1.3655 0.6260
H10M H 0.6526 1.3299 0.7211
H11M H 0.6351 1.2216 0.6469
O1M O 0.74899(6) 0.9061(2) 0.32378(12)
H12M H 0.7626 0.8656 0.2835
C12M C 0.90995(10) 1.0089(4) 0.4627(2)
H13M H 0.8964 1.0707 0.5047
H14M H 0.9410 0.9906 0.4643
O2M O 0.69824(5) 1.1882(2) 0.67591(11)
H15? H 0.6008 0.5145 0.3494
H16? H 0.6088 0.6632 0.4050
loop_
_geom_bond_atom_site_label_1
_geom_bond_atom_site_label_2
_geom_bond_site_symmetry_1
_geom_bond_site_symmetry_2
C1 C2 1_555 1_555
C2 H1 1_555 1_555
C3 C2 1_555 1_555
H2 C3 1_555 1_555
C4 C3 1_555 1_555
C5 C4 1_555 1_555
H3 C5 1_555 1_555
C6 C1 1_555 1_555
H4 C6 1_555 1_555
C7 C1 1_555 1_555
C8 C7 1_555 1_555
H5 C8 1_555 1_555
H6 C8 1_555 1_555
C9 C8 1_555 1_555
H7 C9 1_555 1_555
H8 C9 1_555 1_555
C10 C9 1_555 1_555
C11 H9 1_555 1_555
H10 C11 1_555 1_555
H11 C11 1_555 1_555
O1 C7 1_555 1_555
H12 O1 1_555 1_555
C12 C10 1_555 1_555
H13 C12 1_555 1_555
H14 C12 1_555 1_555
O2 C4 1_555 1_555
C1M C2M 1_555 1_555
C2M H1M 1_555 1_555
C3M C2M 1_555 1_555
H2M C3M 1_555 1_555
C4M C3M 1_555 1_555
C5M C4M 1_555 1_555
H3M C5M 1_555 1_555
C6M C1M 1_555 1_555
H4M C6M 1_555 1_555
C7M C7 1_555 1_555
C8M C7M 1_555 1_555
H5M C8M 1_555 1_555
H6M C8M 1_555 1_555
C9M C8M 1_555 1_555
H7M C9M 1_555 1_555
H8M C9M 1_555 1_555
C10M C9M 1_555 1_555
C11M H9M 1_555 1_555
H10M C11M 1_555 1_555
H11M C11M 1_555 1_555
O1M C7M 1_555 1_555
H12M O1M 1_555 1_555
C12M C10M 1_555 1_555
H13M C12M 1_555 1_555
H14M C12M 1_555 1_555
O2M C4M 1_555 1_555
C5 C6 1_555 1_555
C11 O2 1_555 1_555
C1M C7M 1_555 1_555
C5M C6M 1_555 1_555
C11M O2M 1_555 1_555

#END
