
#######################################################################
#
#                 Cambridge Crystallographic Data Centre
#                                CCDC 
#
#######################################################################
#
# If this CIF has been generated from an entry in the Cambridge 
# Structural Database, then it will include bibliographic, chemical, 
# crystal, experimental, refinement or atomic coordinate data resulting 
# from the CCDC's data processing and validation procedures.
#
#######################################################################

data_UPAZAO
_chemical_formula_moiety         'C63 H66 Br2 N2 O12'
_chemical_name_systematic        
'4-bromo-2-(((3-((34-(3-((5-bromo-2-hydroxybenzylidene)amino)propoxy)-9,14,19,24,26,28,30,32-octamethoxyhexacyclo[21.2.2.2^3,6^.2^8,11^.2^13,16^.2^18,21^]pentatriaconta-1(25),3,5,8,10,13,15,18,20,23,26,28,30,32,34-pentadecaen-4-yl)oxy)propyl)imino)methyl)phenol unknown solvate'
_symmetry_cell_setting           monoclinic
_symmetry_space_group_name_H-M   'C 2/c'
_symmetry_Int_Tables_number      15
_space_group_name_Hall           '-C 2yn'
loop_
_symmetry_equiv_pos_site_id
_symmetry_equiv_pos_as_xyz
1 x,y,z
2 -x,y,1/2-z
3 1/2+x,1/2+y,z
4 1/2-x,1/2+y,1/2-z
5 -x,-y,-z
6 x,-y,1/2+z
7 1/2-x,1/2-y,-z
8 1/2+x,1/2-y,1/2+z
_cell_length_a                   17.744(5)
_cell_length_b                   17.242(5)
_cell_length_c                   20.354(5)
_cell_angle_alpha                90
_cell_angle_beta                 106.006(5)
_cell_angle_gamma                90
_cell_volume                     5985.74
_exptl_crystal_colour            yellow
_exptl_crystal_description       block
_cell_formula_units_Z            4
loop_
_atom_site_label
_atom_site_type_symbol
_atom_site_fract_x
_atom_site_fract_y
_atom_site_fract_z
Br1 Br -0.11318(4) 0.17000(4) 0.65339(4)
C1 C 0.5000 0.4639(3) 0.7500
H1 H 0.5440 0.4969 0.7720
C2 C 0.5218(2) 0.41249(18) 0.69652(17)
C3 C 0.5975(2) 0.38378(19) 0.70803(17)
H2 H 0.6358 0.3980 0.7474
C4 C 0.6162(2) 0.33457(19) 0.66168(18)
C5 C 0.5617(2) 0.31364(19) 0.60150(16)
C6 C 0.4864(2) 0.34288(19) 0.58999(18)
H3 H 0.4487 0.3301 0.5497
C7 C 0.4659(2) 0.39070(19) 0.63695(18)
C8 C 0.7404(2) 0.3005(3) 0.7386(2)
H4 H 0.7538 0.3520 0.7558
H5 H 0.7874 0.2727 0.7389
H6 H 0.7136 0.2741 0.7670
C9 C 0.3283(2) 0.3737(3) 0.5961(2)
H7 H 0.3268 0.3660 0.5491
H8 H 0.2804 0.3980 0.5987
H9 H 0.3339 0.3246 0.6191
C10 C 0.5835(2) 0.25783(19) 0.55228(18)
H10 H 0.5493 0.2666 0.5067
H11 H 0.6369 0.2683 0.5512
C11 C 0.5772(2) 0.17401(19) 0.57172(17)
C12 C 0.6412(2) 0.1340(2) 0.60915(19)
H12 H 0.6899 0.1582 0.6214
C13 C 0.6348(2) 0.0569(2) 0.6295(2)
C14 C 0.5638(2) 0.01859(19) 0.60749(16)
C15 C 0.4997(2) 0.05885(19) 0.57021(16)
H13 H 0.4515 0.0337 0.5562
C16 C 0.5046(2) 0.1358(2) 0.55283(15)
C17 C 0.7515(4) 0.0554(3) 0.7204(4)
H14 H 0.7854 0.0859 0.7012
H15 H 0.7823 0.0192 0.7527
H16 H 0.7235 0.0889 0.7431
C18 C 0.3672(2) 0.1493(3) 0.5070(2)
H17 H 0.3612 0.1045 0.4780
H18 H 0.3289 0.1876 0.4858
H19 H 0.3600 0.1348 0.5503
C19 C 0.5565(2) -0.06504(19) 0.62828(17)
H20 H 0.5209 -0.0924 0.5907
H21 H 0.6073 -0.0900 0.6377
C20 C 0.5266(2) -0.07061(17) 0.69082(17)
C21 C 0.4468(2) -0.07119(18) 0.68509(17)
C22 C 0.4209(2) -0.07064(18) 0.74412(17)
H22 H 0.3674 -0.0703 0.7398
C23 C 0.3155(2) -0.0673(2) 0.61216(19)
H23 H 0.3033 -0.0221 0.6358
H24 H 0.2973 -0.1132 0.6307
C24 C 0.2767(2) -0.0611(2) 0.53612(19)
H25 H 0.2875 -0.1078 0.5138
H26 H 0.2990 -0.0176 0.5178
C25 C 0.1877(2) -0.0501(2) 0.5199(2)
H27 H 0.1653 -0.0475 0.4707
H28 H 0.1648 -0.0943 0.5368
C26 C 0.1062(2) 0.0237(2) 0.56962(18)
H29 H 0.0752 -0.0205 0.5656
C27 C 0.0815(2) 0.0943(2) 0.59691(17)
C28 C 0.0094(2) 0.0977(2) 0.61132(18)
H30 H -0.0229 0.0542 0.6038
C29 C -0.0147(3) 0.1639(2) 0.6363(2)
C30 C 0.0322(3) 0.2302(2) 0.6468(2)
H31 H 0.0154 0.2754 0.6633
C31 C 0.1043(3) 0.2280(2) 0.6323(2)
H32 H 0.1358 0.2719 0.6394
C32 C 0.1294(3) 0.1615(2) 0.6076(2)
N1 N 0.16892(19) 0.02075(17) 0.55121(16)
O1 O 0.69112(15) 0.30462(17) 0.67091(13)
O2 O 0.39159(15) 0.42117(16) 0.62736(15)
O3 O 0.69933(17) 0.01568(17) 0.66934(19)
O4 O 0.44254(16) 0.18018(14) 0.51673(13)
O5 O 0.39745(15) -0.07194(15) 0.62016(12)
O6 O 0.1988(2) 0.16243(16) 0.5939(2)
H33 H 0.2090 0.1188 0.5828
H1A H 0.4560 0.4969 0.7280
Br1A Br 1.11318(4) 0.17000(4) 0.84661(4)
C2A C 0.4782(2) 0.41249(18) 0.80348(17)
C3A C 0.4025(2) 0.38378(19) 0.79197(17)
H2A H 0.3642 0.3980 0.7526
C4A C 0.3838(2) 0.33457(19) 0.83832(18)
C5A C 0.4383(2) 0.31364(19) 0.89850(16)
C6A C 0.5136(2) 0.34288(19) 0.91001(18)
H3A H 0.5513 0.3301 0.9503
C7A C 0.5341(2) 0.39070(19) 0.86305(18)
C8A C 0.2596(2) 0.3005(3) 0.7614(2)
H4A H 0.2462 0.3520 0.7442
H5A H 0.2126 0.2727 0.7611
H6A H 0.2864 0.2741 0.7330
C9A C 0.6717(2) 0.3737(3) 0.9039(2)
H7A H 0.6732 0.3660 0.9509
H8A H 0.7196 0.3980 0.9013
H9A H 0.6661 0.3246 0.8809
C10A C 0.4165(2) 0.25783(19) 0.94772(18)
H10A H 0.4507 0.2666 0.9933
H11A H 0.3631 0.2683 0.9488
C11A C 0.4228(2) 0.17401(19) 0.92828(17)
C12A C 0.3588(2) 0.1340(2) 0.89085(19)
H12A H 0.3101 0.1582 0.8786
C13A C 0.3652(2) 0.0569(2) 0.8705(2)
C14A C 0.4362(2) 0.01859(19) 0.89251(16)
C15A C 0.5003(2) 0.05885(19) 0.92979(16)
H13A H 0.5485 0.0337 0.9438
C16A C 0.4954(2) 0.1358(2) 0.94717(15)
C17A C 0.2485(4) 0.0554(3) 0.7796(4)
H14A H 0.2146 0.0859 0.7988
H15A H 0.2177 0.0192 0.7473
H16A H 0.2765 0.0889 0.7569
C18A C 0.6328(2) 0.1493(3) 0.9930(2)
H17A H 0.6388 0.1045 1.0220
H18A H 0.6711 0.1876 1.0142
H19A H 0.6400 0.1348 0.9497
C19A C 0.4435(2) -0.06504(19) 0.87172(17)
H20A H 0.4791 -0.0924 0.9093
H21A H 0.3927 -0.0900 0.8623
C20A C 0.4734(2) -0.07061(17) 0.80918(17)
C21A C 0.5532(2) -0.07119(18) 0.81491(17)
C22A C 0.5791(2) -0.07064(18) 0.75588(17)
H22A H 0.6326 -0.0703 0.7602
C23A C 0.6845(2) -0.0673(2) 0.88784(19)
H23A H 0.6967 -0.0221 0.8642
H24A H 0.7027 -0.1132 0.8693
C24A C 0.7233(2) -0.0611(2) 0.96388(19)
H25A H 0.7125 -0.1078 0.9862
H26A H 0.7010 -0.0176 0.9822
C25A C 0.8123(2) -0.0501(2) 0.9801(2)
H27A H 0.8347 -0.0475 1.0293
H28A H 0.8352 -0.0943 0.9632
C26A C 0.8938(2) 0.0237(2) 0.93038(18)
H29A H 0.9248 -0.0205 0.9344
C27A C 0.9185(2) 0.0943(2) 0.90309(17)
C28A C 0.9906(2) 0.0977(2) 0.88868(18)
H30A H 1.0229 0.0542 0.8962
C29A C 1.0147(3) 0.1639(2) 0.8637(2)
C30A C 0.9678(3) 0.2302(2) 0.8532(2)
H31A H 0.9846 0.2754 0.8367
C31A C 0.8957(3) 0.2280(2) 0.8677(2)
H32A H 0.8642 0.2719 0.8606
C32A C 0.8706(3) 0.1615(2) 0.8924(2)
N1A N 0.83108(19) 0.02075(17) 0.94879(16)
O1A O 0.30888(15) 0.30462(17) 0.82909(13)
O2A O 0.60841(15) 0.42117(16) 0.87264(15)
O3A O 0.30067(17) 0.01568(17) 0.83066(19)
O4A O 0.55746(16) 0.18018(14) 0.98327(13)
O5A O 0.60255(15) -0.07194(15) 0.87984(12)
O6A O 0.8012(2) 0.16243(16) 0.9061(2)
H33A H 0.7910 0.1188 0.9172
H34? H 0.5440 0.4969 0.7720
loop_
_geom_bond_atom_site_label_1
_geom_bond_atom_site_label_2
_geom_bond_site_symmetry_1
_geom_bond_site_symmetry_2
Br1 C29 1_555 1_555
C1 H1 1_555 1_555
C2 C1 1_555 1_555
C3 C2 1_555 1_555
H2 C3 1_555 1_555
C4 C3 1_555 1_555
C5 C4 1_555 1_555
C6 C5 1_555 1_555
H3 C6 1_555 1_555
C7 C2 1_555 1_555
C8 H4 1_555 1_555
H5 C8 1_555 1_555
H6 C8 1_555 1_555
C9 H7 1_555 1_555
H8 C9 1_555 1_555
H9 C9 1_555 1_555
C10 C5 1_555 1_555
H10 C10 1_555 1_555
H11 C10 1_555 1_555
C11 C10 1_555 1_555
C12 C11 1_555 1_555
H12 C12 1_555 1_555
C13 C12 1_555 1_555
C14 C13 1_555 1_555
C15 C14 1_555 1_555
H13 C15 1_555 1_555
C16 C11 1_555 1_555
C17 H14 1_555 1_555
H15 C17 1_555 1_555
H16 C17 1_555 1_555
C18 H17 1_555 1_555
H18 C18 1_555 1_555
H19 C18 1_555 1_555
C19 C14 1_555 1_555
H20 C19 1_555 1_555
H21 C19 1_555 1_555
C20 C19 1_555 1_555
C21 C20 1_555 1_555
C22 C21 1_555 1_555
H22 C22 1_555 1_555
C23 H23 1_555 1_555
H24 C23 1_555 1_555
C24 C23 1_555 1_555
H25 C24 1_555 1_555
H26 C24 1_555 1_555
C25 C24 1_555 1_555
H27 C25 1_555 1_555
H28 C25 1_555 1_555
C26 H29 1_555 1_555
C27 C26 1_555 1_555
C28 C27 1_555 1_555
H30 C28 1_555 1_555
C29 C28 1_555 1_555
C30 C29 1_555 1_555
H31 C30 1_555 1_555
C31 C30 1_555 1_555
H32 C31 1_555 1_555
C32 C27 1_555 1_555
N1 C25 1_555 1_555
O1 C4 1_555 1_555
O2 C7 1_555 1_555
O3 C13 1_555 1_555
O4 C16 1_555 1_555
O5 C21 1_555 1_555
O6 C32 1_555 1_555
H33 O6 1_555 1_555
H1A C1 1_555 1_555
Br1A C29A 1_555 1_555
C2A C1 1_555 1_555
C3A C2A 1_555 1_555
H2A C3A 1_555 1_555
C4A C3A 1_555 1_555
C5A C4A 1_555 1_555
C6A C5A 1_555 1_555
H3A C6A 1_555 1_555
C7A C2A 1_555 1_555
C8A H4A 1_555 1_555
H5A C8A 1_555 1_555
H6A C8A 1_555 1_555
C9A H7A 1_555 1_555
H8A C9A 1_555 1_555
H9A C9A 1_555 1_555
C10A C5A 1_555 1_555
H10A C10A 1_555 1_555
H11A C10A 1_555 1_555
C11A C10A 1_555 1_555
C12A C11A 1_555 1_555
H12A C12A 1_555 1_555
C13A C12A 1_555 1_555
C14A C13A 1_555 1_555
C15A C14A 1_555 1_555
H13A C15A 1_555 1_555
C16A C11A 1_555 1_555
C17A H14A 1_555 1_555
H15A C17A 1_555 1_555
H16A C17A 1_555 1_555
C18A H17A 1_555 1_555
H18A C18A 1_555 1_555
H19A C18A 1_555 1_555
C19A C14A 1_555 1_555
H20A C19A 1_555 1_555
H21A C19A 1_555 1_555
C20A C22 1_555 1_555
C21A C20A 1_555 1_555
C22A C20 1_555 1_555
H22A C22A 1_555 1_555
C23A H23A 1_555 1_555
H24A C23A 1_555 1_555
C24A C23A 1_555 1_555
H25A C24A 1_555 1_555
H26A C24A 1_555 1_555
C25A C24A 1_555 1_555
H27A C25A 1_555 1_555
H28A C25A 1_555 1_555
C26A H29A 1_555 1_555
C27A C26A 1_555 1_555
C28A C27A 1_555 1_555
H30A C28A 1_555 1_555
C29A C28A 1_555 1_555
C30A C29A 1_555 1_555
H31A C30A 1_555 1_555
C31A C30A 1_555 1_555
H32A C31A 1_555 1_555
C32A C27A 1_555 1_555
N1A C25A 1_555 1_555
O1A C4A 1_555 1_555
O2A C7A 1_555 1_555
O3A C13A 1_555 1_555
O4A C16A 1_555 1_555
O5A C21A 1_555 1_555
O6A C32A 1_555 1_555
H33A O6A 1_555 1_555
C6 C7 1_555 1_555
C8 O1 1_555 1_555
C9 O2 1_555 1_555
C15 C16 1_555 1_555
C17 O3 1_555 1_555
C18 O4 1_555 1_555
C23 O5 1_555 1_555
C26 N1 1_555 1_555
C31 C32 1_555 1_555
C6A C7A 1_555 1_555
C8A O1A 1_555 1_555
C9A O2A 1_555 1_555
C15A C16A 1_555 1_555
C17A O3A 1_555 1_555
C18A O4A 1_555 1_555
C19A C20A 1_555 1_555
C21A C22A 1_555 1_555
C23A O5A 1_555 1_555
C26A N1A 1_555 1_555
C31A C32A 1_555 1_555

#END
