
#######################################################################
#
#                 Cambridge Crystallographic Data Centre
#                                CCDC 
#
#######################################################################
#
# If this CIF has been generated from an entry in the Cambridge 
# Structural Database, then it will include bibliographic, chemical, 
# crystal, experimental, refinement or atomic coordinate data resulting 
# from the CCDC's data processing and validation procedures.
#
#######################################################################

data_UPEBAT
_chemical_compound_source        'Gossampinus malabarica leaf'
_chemical_name_common            'Gossampinus xanthone'
_chemical_formula_moiety         'C19 H18 O11'
_chemical_name_systematic        
'1,3,6,7-tetrahydroxy-2-\b-D-glucopyranosyl xanthone'
_symmetry_cell_setting           orthorhombic
_symmetry_space_group_name_H-M   'P 21 21 2'
_symmetry_Int_Tables_number      18
_space_group_name_Hall           'P 2 2ab'
loop_
_symmetry_equiv_pos_site_id
_symmetry_equiv_pos_as_xyz
1 x,y,z
2 -x,-y,z
3 1/2-x,1/2+y,-z
4 1/2+x,1/2-y,-z
_cell_length_a                   7.265(5)
_cell_length_b                   30.086(4)
_cell_length_c                   8.342(2)
_cell_angle_alpha                90
_cell_angle_beta                 90
_cell_angle_gamma                90
_cell_volume                     1823.35
_exptl_crystal_colour            'light yellow'
_exptl_crystal_description       acicular
_cell_formula_units_Z            4
loop_
_atom_site_label
_atom_site_type_symbol
_atom_site_fract_x
_atom_site_fract_y
_atom_site_fract_z
O1 O 0.4241(4) -0.17295(8) 0.6642(3)
O2 O 0.3764(5) -0.14400(9) 0.9953(3)
O3 O 0.2682(5) -0.03830(8) 0.3053(3)
O4 O 0.2330(4) 0.00043(8) 0.7748(3)
O5 O 0.1316(4) 0.14854(8) 0.6438(3)
O6 O 0.2372(5) 0.04448(8) 0.2220(3)
O7 O 0.2834(4) 0.17018(8) 0.3655(3)
O8 O 0.5934(4) 0.22135(9) 0.3986(3)
O9 O 0.1317(4) 0.26042(7) 0.1042(3)
O10 O -0.1938(4) 0.20865(8) 0.1507(3)
O11 O -0.1246(4) 0.11797(8) 0.1838(3)
C1 C 0.3532(5) -0.1010(1) 0.5536(5)
C2 C 0.3766(5) -0.1294(1) 0.6787(5)
C3 C 0.3507(6) -0.1138(1) 0.8371(5)
C4 C 0.3046(6) -0.0706(1) 0.8653(5)
C5 C 0.2804(5) -0.0423(1) 0.7376(5)
C6 C 0.3019(5) -0.0563(1) 0.5794(5)
C7 C 0.2660(5) -0.0258(5) 0.4493(5)
C8 C 0.2302(5) 0.0194(1) 0.4948(5)
C9 C 0.2130(5) 0.0311(1) 0.6566(5)
C10 C 0.1768(5) 0.0738(1) 0.7045(5)
C11 C 0.1635(5) 0.1070(1) 0.5906(5)
C12 C 0.1822(5) 0.0974(1) 0.4250(5)
C13 C 0.2124(5) 0.0539(1) 0.3796(4)
C14 C 0.1768(5) 0.1337(1) 0.3011(5)
C15 C -0.0188(5) 0.1505(1) 0.2644(5)
C16 C -0.0124(5) 0.1911(1) 0.1568(5)
C17 C 0.1177(5) 0.2260(1) 0.2191(4)
C18 C 0.3066(5) 0.2064(1) 0.25675(5)
C19 C 0.4258(5) 0.2400(1) 0.3411(5)
H1 H 0.3634 -0.1129 0.4516
H2 H 0.4166 -0.1833 0.5478
H4 H 0.2974 -0.0593 0.9693
H5 H 0.1678 0.0813 0.8134
H6 H 0.1700 0.1681 0.5713
H7 H 0.2381 0.0141 0.2164
H8 H 0.2317 0.1229 0.2030
H9 H -0.0738 0.1597 0.3721
H10 H -0.1402 0.0933 0.2392
H11 H 0.0199 0.1784 0.0558
H13 H 0.0717 0.2386 0.3184
H14 H 0.1246 0.2857 0.1429
H15 H 0.3667 0.1963 0.1542
H16 H 0.4486 0.2656 0.2811
H17 H 0.3725 0.2551 0.4391
H18 H 0.6615 0.2147 0.3150
H3? H 0.3948 -0.1330 1.0386
H12? H 0.2053 0.2225 0.0682
loop_
_geom_bond_atom_site_label_1
_geom_bond_atom_site_label_2
_geom_bond_site_symmetry_1
_geom_bond_site_symmetry_2
O1 C2 1_555 1_555
O2 C3 1_555 1_555
O3 C7 1_555 1_555
O4 C5 1_555 1_555
O5 C11 1_555 1_555
O6 C13 1_555 1_555
O7 C14 1_555 1_555
O8 C19 1_555 1_555
O9 C17 1_555 1_555
O10 C16 1_555 1_555
O11 C15 1_555 1_555
C1 C2 1_555 1_555
C2 C3 1_555 1_555
C3 C4 1_555 1_555
C4 C5 1_555 1_555
C5 C6 1_555 1_555
C6 C1 1_555 1_555
C7 C6 1_555 1_555
C8 C7 1_555 1_555
C9 O4 1_555 1_555
C10 C9 1_555 1_555
C11 C10 1_555 1_555
C12 C11 1_555 1_555
C13 C8 1_555 1_555
C14 C12 1_555 1_555
C15 C14 1_555 1_555
C16 C15 1_555 1_555
C17 C16 1_555 1_555
C18 O7 1_555 1_555
C19 C18 1_555 1_555
H1 C1 1_555 1_555
H2 O1 1_555 1_555
H4 C4 1_555 1_555
H5 C10 1_555 1_555
H6 O5 1_555 1_555
H7 O6 1_555 1_555
H8 C14 1_555 1_555
H9 C15 1_555 1_555
H10 O11 1_555 1_555
H11 C16 1_555 1_555
H13 C17 1_555 1_555
H14 O9 1_555 1_555
H15 C18 1_555 1_555
H16 C19 1_555 1_555
H17 C19 1_555 1_555
H18 O8 1_555 1_555
C8 C9 1_555 1_555
C12 C13 1_555 1_555
C17 C18 1_555 1_555

#END
