
#######################################################################
#
#                 Cambridge Crystallographic Data Centre
#                                CCDC 
#
#######################################################################
#
# If this CIF has been generated from an entry in the Cambridge 
# Structural Database, then it will include bibliographic, chemical, 
# crystal, experimental, refinement or atomic coordinate data resulting 
# from the CCDC's data processing and validation procedures.
#
#######################################################################

data_UPEBIB
_chemical_formula_moiety         'C21 H33 O12 P3'
_chemical_name_systematic        
1,2,3-tris(5,5-dimethyl-1,3-dioxaphosphorinanyl-2-oxy)benzene
_symmetry_cell_setting           triclinic
_symmetry_space_group_name_H-M   'P -1'
_symmetry_Int_Tables_number      2
_space_group_name_Hall           '-P 1'
loop_
_symmetry_equiv_pos_site_id
_symmetry_equiv_pos_as_xyz
1 x,y,z
2 -x,-y,-z
_cell_length_a                   7.0450(14)
_cell_length_b                   12.850(3)
_cell_length_c                   15.609(3)
_cell_angle_alpha                69.19(3)
_cell_angle_beta                 86.29(3)
_cell_angle_gamma                86.60(3)
_cell_volume                     1317.11
_cell_formula_units_Z            2
loop_
_atom_site_label
_atom_site_type_symbol
_atom_site_fract_x
_atom_site_fract_y
_atom_site_fract_z
P1 P 0.3602(1) 0.2562(1) 0.4096(1)
O1 O 0.2265(3) 0.2150(2) 0.3636(1)
O2 O 0.5708(3) 0.2174(2) 0.3966(2)
O3 O 0.3591(3) 0.3851(2) 0.3790(1)
O4 O 0.3201(3) 0.2246(2) 0.5169(1)
C1 C 0.7052(4) 0.3950(2) 0.3882(2)
C2 C 0.7225(4) 0.2680(3) 0.4268(2)
P2 P 0.3999(1) -0.1564(1) 0.8910(1)
O5 O 0.2179(3) -0.1329(2) 0.9303(1)
O6 O 0.5761(3) -0.1536(2) 0.9454(1)
O7 O 0.4590(3) -0.0690(2) 0.7927(1)
O8 O 0.4094(3) -0.2734(2) 0.8810(1)
C3 C 0.5946(4) -0.3186(2) 0.8595(2)
C4 C 0.7597(4) -0.1992(3) 0.9220(2)
C5 C 0.7420(4) -0.3182(2) 0.9265(2)
P3 P 0.5237(1) 0.2278(1) 0.7026(1)
O9 O 0.3583(3) 0.3014(2) 0.6724(1)
O10 O 0.5260(3) 0.1738(2) 0.8088(1)
O11 O 0.7183(3) 0.2840(2) 0.6683(1)
O12 O 0.5450(3) 0.1281(2) 0.6633(1)
C6 C 0.7031(4) 0.1245(2) 0.8528(2)
C7 C 0.8660(4) 0.2037(2) 0.8172(2)
loop_
_geom_bond_atom_site_label_1
_geom_bond_atom_site_label_2
_geom_bond_site_symmetry_1
_geom_bond_site_symmetry_2
P1 O1 1_555 1_555
O2 P1 1_555 1_555
O3 P1 1_555 1_555
O4 P1 1_555 1_555
C1 C2 1_555 1_555
C2 O2 1_555 1_555
P2 O5 1_555 1_555
O6 P2 1_555 1_555
O7 P2 1_555 1_555
O8 P2 1_555 1_555
C3 O8 1_555 1_555
C4 O6 1_555 1_555
C5 C3 1_555 1_555
P3 O9 1_555 1_555
O10 P3 1_555 1_555
O11 P3 1_555 1_555
O12 P3 1_555 1_555
C6 O10 1_555 1_555
C7 C6 1_555 1_555
C4 C5 1_555 1_555

#END
