
#######################################################################
#
#                 Cambridge Crystallographic Data Centre
#                                CCDC 
#
#######################################################################
#
# If this CIF has been generated from an entry in the Cambridge 
# Structural Database, then it will include bibliographic, chemical, 
# crystal, experimental, refinement or atomic coordinate data resulting 
# from the CCDC's data processing and validation procedures.
#
#######################################################################

data_UPEBIC
_chemical_name_common            
'1$2!,1$5!-dimethyl-3,6,9-trithia-1(1,4)-benzenacyclodecaphane 3,3,6,6,9,9-hexaoxide'
_chemical_formula_moiety         'C14 H20 O6 S3'
_chemical_name_systematic        
'12,14-dimethyl-3,6,9-trithiabicyclo[9.2.2]pentadeca-1(13),11,14-triene 3,3,6,6,9,9-hexaoxide'
_symmetry_cell_setting           monoclinic
_symmetry_space_group_name_H-M   'P 21/c'
_symmetry_Int_Tables_number      14
_space_group_name_Hall           '-P 2ybc'
loop_
_symmetry_equiv_pos_site_id
_symmetry_equiv_pos_as_xyz
1 x,y,z
2 -x,1/2+y,1/2-z
3 -x,-y,-z
4 x,1/2-y,1/2+z
_cell_length_a                   9.2730(4)
_cell_length_b                   9.7111(5)
_cell_length_c                   18.2499(10)
_cell_angle_alpha                90
_cell_angle_beta                 101.703(3)
_cell_angle_gamma                90
_cell_volume                     1609.26
_exptl_crystal_colour            colorless
_exptl_crystal_description       blocks
_cell_formula_units_Z            4
loop_
_atom_site_label
_atom_site_type_symbol
_atom_site_fract_x
_atom_site_fract_y
_atom_site_fract_z
C1 C 0.59317(19) 0.7805(2) 0.48709(11)
H1 H 0.6076 0.8800 0.4979
H2 H 0.5820 0.7338 0.5339
S1 S 0.42921(5) 0.75627(5) 0.41734(3)
O1 O 0.32136(13) 0.85534(14) 0.43032(8)
O2 O 0.39160(13) 0.61217(14) 0.41670(7)
C2 C 0.4742(2) 0.79560(18) 0.32854(10)
H3 H 0.3908 0.8463 0.2977
H4 H 0.5610 0.8572 0.3368
C3 C 0.5072(2) 0.66932(19) 0.28526(10)
H5 H 0.4196 0.6086 0.2752
H6 H 0.5895 0.6171 0.3160
S2 S 0.55525(5) 0.71666(5) 0.19878(3)
O3 O 0.49327(13) 0.84967(12) 0.17706(7)
O4 O 0.51865(12) 0.60377(13) 0.14761(7)
C4 C 0.75026(18) 0.73600(19) 0.21804(11)
H7 H 0.7781 0.7956 0.1792
H8 H 0.7810 0.7832 0.2668
C5 C 0.83394(18) 0.59971(19) 0.22048(11)
H9 H 0.8197 0.5615 0.1692
H10 H 0.7923 0.5332 0.2517
S3 S 1.02849(5) 0.61891(5) 0.25779(3)
O5 O 1.10840(13) 0.53017(13) 0.21696(8)
O6 O 1.06334(12) 0.76404(12) 0.25977(7)
C6 C 1.05171(18) 0.55340(19) 0.35079(10)
H11 H 1.0421 0.4519 0.3485
H12 H 1.1526 0.5753 0.3781
C7 C 0.94283(18) 0.61008(19) 0.39416(10)
C8 C 0.93582(18) 0.75184(19) 0.40566(10)
H13 H 1.0075 0.8094 0.3907
C9 C 0.82800(19) 0.81231(19) 0.43824(10)
C10 C 0.72693(19) 0.7236(2) 0.46181(10)
C11 C 0.74180(19) 0.5816(2) 0.45603(10)
H14 H 0.6769 0.5234 0.4760
C12 C 0.84783(18) 0.52138(19) 0.42226(10)
C13 C 0.8557(2) 0.36665(19) 0.41642(11)
H15 H 0.8293 0.3393 0.3637
H16 H 0.7868 0.3245 0.4441
H17 H 0.9560 0.3357 0.4377
C14 C 0.8218(2) 0.96614(19) 0.44630(11)
H18 H 0.9050 1.0081 0.4289
H19 H 0.8272 0.9898 0.4990
H20 H 0.7292 1.0008 0.4162
loop_
_geom_bond_atom_site_label_1
_geom_bond_atom_site_label_2
_geom_bond_site_symmetry_1
_geom_bond_site_symmetry_2
C1 H1 1_555 1_555
H2 C1 1_555 1_555
S1 C1 1_555 1_555
O1 S1 1_555 1_555
O2 S1 1_555 1_555
C2 S1 1_555 1_555
H3 C2 1_555 1_555
H4 C2 1_555 1_555
C3 C2 1_555 1_555
H5 C3 1_555 1_555
H6 C3 1_555 1_555
S2 C3 1_555 1_555
O3 S2 1_555 1_555
O4 S2 1_555 1_555
C4 S2 1_555 1_555
H7 C4 1_555 1_555
H8 C4 1_555 1_555
C5 C4 1_555 1_555
H9 C5 1_555 1_555
H10 C5 1_555 1_555
S3 C5 1_555 1_555
O5 S3 1_555 1_555
O6 S3 1_555 1_555
C6 S3 1_555 1_555
H11 C6 1_555 1_555
H12 C6 1_555 1_555
C7 C6 1_555 1_555
C8 C7 1_555 1_555
H13 C8 1_555 1_555
C9 C8 1_555 1_555
C10 C1 1_555 1_555
C11 C10 1_555 1_555
H14 C11 1_555 1_555
C12 C7 1_555 1_555
C13 C12 1_555 1_555
H15 C13 1_555 1_555
H16 C13 1_555 1_555
H17 C13 1_555 1_555
C14 C9 1_555 1_555
H18 C14 1_555 1_555
H19 C14 1_555 1_555
H20 C14 1_555 1_555
C9 C10 1_555 1_555
C11 C12 1_555 1_555

#END
