
#######################################################################
#
#                 Cambridge Crystallographic Data Centre
#                                CCDC 
#
#######################################################################
#
# If this CIF has been generated from an entry in the Cambridge 
# Structural Database, then it will include bibliographic, chemical, 
# crystal, experimental, refinement or atomic coordinate data resulting 
# from the CCDC's data processing and validation procedures.
#
#######################################################################

data_UPEDAV
_chemical_formula_moiety         'C10 H22 N1 O2 1+,Cl1 1-'
_chemical_name_systematic        
'1-carboxy-3,4-dimethylheptan-2-aminium chloride'
_symmetry_cell_setting           triclinic
_symmetry_space_group_name_H-M   'P 1'
_symmetry_Int_Tables_number      1
_space_group_name_Hall           'P 1'
loop_
_symmetry_equiv_pos_site_id
_symmetry_equiv_pos_as_xyz
1 x,y,z
_cell_length_a                   7.9401(19)
_cell_length_b                   11.412(3)
_cell_length_c                   14.855(4)
_cell_angle_alpha                99.380(4)
_cell_angle_beta                 98.863(5)
_cell_angle_gamma                90.380(5)
_cell_volume                     1311.5
_cell_formula_units_Z            4
_exptl_crystal_recrystallization_method methanol/acetonitrile
loop_
_atom_site_label
_atom_site_type_symbol
_atom_site_fract_x
_atom_site_fract_y
_atom_site_fract_z
C1 C 0.9160(50) 0.0620(20) 0.0941(18)
N2 N 0.2496(16) 0.2350(12) -0.1363(9)
O1 O 0.3075(14) -0.1491(11) -0.1346(9)
O2 O 0.1295(16) -0.0004(11) -0.1125(9)
C3 C 0.2620(20) -0.0288(16) -0.1241(11)
C8 C 0.3490(20) 0.3376(14) 0.0604(11)
C12 C 0.4130(20) 0.0534(14) -0.1229(10)
C13 C 0.3603(19) 0.2017(15) 0.0231(11)
C14 C 0.3921(17) 0.1804(12) -0.0785(14)
C15 C 0.4900(30) 0.1386(18) 0.0859(12)
C16 C 0.4380(30) 0.1380(20) 0.1800(12)
C27 C 0.6670(20) 0.1960(20) 0.0969(11)
C40 C 0.8180(30) 0.1480(30) 0.1566(13)
H1 H 0.8469 -0.0083 0.0689
H2 H 1.0197 0.0410 0.1298
H3 H 0.9437 0.0998 0.0447
H7 H 0.2549 0.2119 -0.1959
H8 H 0.2603 0.3138 -0.1227
H9 H 0.1496 0.2114 -0.1242
H13 H 0.2374 -0.1881 -0.1158
H21 H 0.3520 0.3494 0.1261
H22 H 0.2444 0.3665 0.0317
H23 H 0.4438 0.3800 0.0463
H27 H 0.5141 0.0229 -0.0898
H28 H 0.4324 0.0528 -0.1859
H29 H 0.2480 0.1655 0.0230
H30 H 0.4976 0.2247 -0.0801
H31 H 0.4947 0.0559 0.0560
H32 H 0.3641 0.2032 0.1931
H33 H 0.5378 0.1473 0.2263
H34 H 0.3789 0.0648 0.1800
H57 H 0.6584 0.2794 0.1218
H58 H 0.6959 0.1923 0.0355
H87 H 0.8937 0.2137 0.1896
H88 H 0.7772 0.1072 0.2017
Cl1 Cl 0.2280(8) 0.1637(7) 0.6472(4)
Cl2 Cl 0.2942(8) 0.5042(7) 0.8550(4)
Cl3 Cl 0.8411(8) 0.2243(7) 0.8705(4)
N1 N 0.8836(17) 0.4957(12) -0.1455(9)
O3 O 0.8389(15) 0.8748(13) -0.1260(9)
O5 O 1.01600(16) 0.7327(11) -0.1416(9)
C4 C 0.7248(19) 0.6820(13) -0.1432(10)
C5 C 0.7649(18) 0.5788(14) -0.0928(11)
C7 C 0.8620(20) 0.7646(16) -0.1357(11)
C9 C 0.8540(20) 0.6041(15) 0.0112(11)
C17 C 0.8680(20) 0.7457(18) 0.1635(12)
C18 C 0.8910(30) 0.4880(17) 0.0539(12)
C19 C 0.4950(30) 0.7798(16) 0.0923(16)
C23 C 0.5820(30) 0.6601(18) 0.0728(12)
C26 C 0.7630(20) 0.7027(18) 0.0620(12)
C39 C 0.3070(30) 0.7550(30) 0.0991(19)
H4 H 0.9913 0.5219 -0.1273
H5 H 0.8553 0.4951 -0.2059
H6 H 0.8724 0.4224 -0.1334
H14 H 0.8041 0.8933 -0.1766
H16 H 0.6874 0.6512 -0.2081
H17 H 0.6304 0.7236 -0.1196
H18 H 0.6578 0.5343 -0.0955
H24 H 0.9665 0.6385 0.0096
H35 H 0.8149 0.8133 0.1936
H36 H 0.9829 0.7671 0.1588
H37 H 0.8685 0.6824 0.1989
H38 H 0.9516 0.5086 0.1157
H39 H 0.9591 0.4371 0.0170
H40 H 0.7854 0.4474 0.0551
H41 H 0.5516 0.8260 0.1497
H42 H 0.5018 0.8248 0.0429
H49 H 0.5857 0.6165 0.1239
H50 H 0.5250 0.6111 0.0166
H56 H 0.7532 0.7696 0.0279
H84 H 0.2627 0.8233 0.1334
H85 H 0.2988 0.6879 0.1301
H86 H 0.2418 0.7378 0.0382
N3 N 0.8162(15) 1.16710(11) 0.6557(8)
O4 O 0.7645(15) 0.7807(10) 0.6383(9)
C2 C 0.8110(20) 0.8941(17) 0.6525(11)
O6 O 0.9534(17) 0.9320(11) 0.6556(10)
C6 C 0.6674(19) 0.9767(14) 0.6573(10)
C10 C 0.6771(19) 1.0821(12) 0.6028(9)
C11 C 0.6989(19) 1.0489(13) 0.5038(9)
C20 C 0.5670(20) 0.9596(14) 0.4485(10)
C21 C 0.3900(30) 1.0090(16) 0.4275(11)
C22 C 0.7250(20) 1.1591(15) 0.4596(13)
C24 C 0.0850(30) 0.9460(30) 0.3810(20)
C25 C 0.2680(20) 0.9008(19) 0.3895(16)
C38 C 0.6250(20) 0.8950(19) 0.3568(12)
H10 H 0.9148 1.1302 0.6603
H11 H 0.7922 1.1932 0.7119
H12 H 0.8241 1.2283 0.6262
H15 H 0.8485 0.7400 0.6341
H19 H 0.6646 1.0090 0.7217
H20 H 0.5614 0.9317 0.6334
H25 H 0.5696 1.1235 0.6038
H26 H 0.8072 1.0081 0.5051
H43 H 0.5557 0.8982 0.4865
H44 H 0.3889 1.0613 0.3821
H45 H 0.3574 1.0534 0.4832
H46 H 0.6881 1.1404 0.3941
H47 H 0.8435 1.11828 0.4717
H48 H 0.6594 1.2227 0.4854
H51 H 0.0230 0.9131 0.3216
H52 H 0.0883 1.0309 0.3883
H53 H 0.0297 0.9213 0.4285
H54 H 0.2916 0.8632 0.32985
H55 H 0.2828 0.8430 0.4311
H81 H 0.7339 0.8612 0.3712
H82 H 0.6325 0.9514 0.3161
H83 H 0.5425 0.8331 0.3273
Cl4 Cl 0.7760(8) 0.4407(7) 0.6380(4)
N4 N 0.1925(16) 0.4374(12) 0.6400(9)
O7 O 0.2426(14) 0.8066(14) 0.6398(11)
O8 O 0.0550(16) 0.6659(11) 0.6204(9)
C28 C 0.2000(20) 0.6995(16) 0.6262(11)
C29 C 0.2153(18) 0.4749(15) 0.4819(11)
C30 C 0.3489(17) 0.6173(14) 0.6291(11)
C31 C 0.3058(17) 0.4930(13) 0.5840(10)
C32 C 0.4727(19) 0.4671(16) 0.4032(11)
C33 C 0.1980(30) 0.5400(20) 0.3254(13)
C34 C 0.1660(30) 0.3452(19) 0.4518(13)
C35 C 0.7850(30) 0.4750(40) 0.3750(30)
C36 C 0.3110(20) 0.5330(20) 0.4183(11)
C37 C 0.6040(30) 0.5220(20) 0.3548(16)
H59 H 0.0894 0.4679 0.6323
H60 H 0.2377 0.4526 0.6995
H61 H 0.1839 0.3592 0.6210
H62 H 0.1603 0.8450 0.6229
H63 H 0.1077 0.5163 0.4830
H64 H 0.4359 0.6488 0.5995
H65 H 0.3975 0.6174 0.6932
H66 H 0.4120 0.4496 0.5858
H67 H 0.4389 0.3892 0.3678
H68 H 0.5307 0.4549 0.4632
H69 H 0.2348 0.6071 0.3011
H70 H 0.0811 0.5494 0.3347
H71 H 0.2064 0.4687 0.2825
H72 H 0.2534 0.2981 0.4790
H73 H 0.1539 0.3260 0.3857
H74 H 0.0601 0.3289 0.4715
H75 H 0.7826 0.4101 0.4079
H76 H 0.8600 0.5376 0.4109
H77 H 0.8256 0.4487 0.3173
H78 H 0.3440 0.6139 0.4490
H79 H 0.5654 0.5065 0.2886
H80 H 0.6089 0.6077 0.3743
loop_
_geom_bond_atom_site_label_1
_geom_bond_atom_site_label_2
_geom_bond_site_symmetry_1
_geom_bond_site_symmetry_2
C1 C40 1_555 1_555
N1 C5 1_555 1_555
N2 C14 1_555 1_555
N3 C10 1_555 1_555
O1 C3 1_555 1_555
O2 C3 1_555 1_555
O3 C7 1_555 1_555
O4 C2 1_555 1_555
C2 O6 1_555 1_555
O5 C7 1_555 1_555
C3 C12 1_555 1_555
C4 C5 1_555 1_555
C5 C9 1_555 1_555
C6 C2 1_555 1_555
C7 C4 1_555 1_555
C8 C13 1_555 1_555
C9 C18 1_555 1_555
C10 C6 1_555 1_555
C11 C10 1_555 1_555
C12 C14 1_555 1_555
C13 C14 1_555 1_555
C14 H30 1_555 1_555
C15 C13 1_555 1_555
C16 C15 1_555 1_555
C17 C26 1_555 1_555
C18 H38 1_555 1_555
C19 C23 1_555 1_555
C20 C11 1_555 1_555
C21 C20 1_555 1_555
C22 C11 1_555 1_555
C23 C26 1_555 1_555
C24 C25 1_555 1_555
C25 C21 1_555 1_555
C26 C9 1_555 1_555
C27 C15 1_555 1_555
N4 C31 1_555 1_555
O7 C28 1_555 1_555
O8 C28 1_555 1_555
C28 C30 1_555 1_555
C29 C31 1_555 1_555
C30 C31 1_555 1_555
C31 H66 1_555 1_555
C32 C36 1_555 1_555
C33 C36 1_555 1_555
C34 C29 1_555 1_555
C35 C37 1_555 1_555
C36 C29 1_555 1_555
C37 C32 1_555 1_555
C38 C20 1_555 1_555
C39 C19 1_555 1_555
C40 C27 1_555 1_555
H1 C1 1_555 1_555
H2 C1 1_555 1_555
H3 C1 1_555 1_555
H4 N1 1_555 1_555
H5 N1 1_555 1_555
H6 N1 1_555 1_555
H7 N2 1_555 1_555
H8 N2 1_555 1_555
H9 N2 1_555 1_555
H10 N3 1_555 1_555
H11 N3 1_555 1_555
H12 N3 1_555 1_555
H13 O1 1_555 1_555
H14 O3 1_555 1_555
H15 O4 1_555 1_555
H16 C4 1_555 1_555
H17 C4 1_555 1_555
H18 C5 1_555 1_555
H19 C6 1_555 1_555
H20 C6 1_555 1_555
H21 C8 1_555 1_555
H22 C8 1_555 1_555
H23 C8 1_555 1_555
H24 C9 1_555 1_555
H25 C10 1_555 1_555
H26 C11 1_555 1_555
H27 C12 1_555 1_555
H28 C12 1_555 1_555
H29 C13 1_555 1_555
H31 C15 1_555 1_555
H32 C16 1_555 1_555
H33 C16 1_555 1_555
H34 C16 1_555 1_555
H35 C17 1_555 1_555
H36 C17 1_555 1_555
H37 C17 1_555 1_555
H39 C18 1_555 1_555
H40 C18 1_555 1_555
H41 C19 1_555 1_555
H42 C19 1_555 1_555
H43 C20 1_555 1_555
H44 C21 1_555 1_555
H45 C21 1_555 1_555
H46 C22 1_555 1_555
H47 C22 1_555 1_555
H48 C22 1_555 1_555
H49 C23 1_555 1_555
H50 C23 1_555 1_555
H51 C24 1_555 1_555
H52 C24 1_555 1_555
H53 C24 1_555 1_555
H54 C25 1_555 1_555
H55 C25 1_555 1_555
H56 C26 1_555 1_555
H57 C27 1_555 1_555
H58 C27 1_555 1_555
H59 N4 1_555 1_555
H60 N4 1_555 1_555
H61 N4 1_555 1_555
H62 O7 1_555 1_555
H63 C29 1_555 1_555
H64 C30 1_555 1_555
H65 C30 1_555 1_555
H67 C32 1_555 1_555
H68 C32 1_555 1_555
H69 C33 1_555 1_555
H70 C33 1_555 1_555
H71 C33 1_555 1_555
H72 C34 1_555 1_555
H73 C34 1_555 1_555
H74 C34 1_555 1_555
H75 C35 1_555 1_555
H76 C35 1_555 1_555
H77 C35 1_555 1_555
H78 C36 1_555 1_555
H79 C37 1_555 1_555
H80 C37 1_555 1_555
H81 C38 1_555 1_555
H82 C38 1_555 1_555
H83 C38 1_555 1_555
H84 C39 1_555 1_555
H85 C39 1_555 1_555
H86 C39 1_555 1_555
H87 C40 1_555 1_555
H88 C40 1_555 1_555

#END
