
#######################################################################
#
#                 Cambridge Crystallographic Data Centre
#                                CCDC 
#
#######################################################################
#
# If this CIF has been generated from an entry in the Cambridge 
# Structural Database, then it will include bibliographic, chemical, 
# crystal, experimental, refinement or atomic coordinate data resulting 
# from the CCDC's data processing and validation procedures.
#
#######################################################################

data_UPEDUP
_chemical_formula_moiety         'C28 H19 Cl2 N5 O4'
_chemical_name_systematic        
1-acetyl-3,3-bis((3-(4-chlorophenyl)-1,2,4-oxaiazol-5-yl)methyl)indolin-2-one
_symmetry_cell_setting           monoclinic
_symmetry_space_group_name_H-M   'P 21/c'
_symmetry_Int_Tables_number      14
_space_group_name_Hall           '-P 2ybc'
loop_
_symmetry_equiv_pos_site_id
_symmetry_equiv_pos_as_xyz
1 x,y,z
2 -x,1/2+y,1/2-z
3 -x,-y,-z
4 x,1/2-y,1/2+z
_cell_length_a                   13.747(3)
_cell_length_b                   16.308(3)
_cell_length_c                   23.433(5)
_cell_angle_alpha                90
_cell_angle_beta                 97.20(3)
_cell_angle_gamma                90
_cell_volume                     5211.93
_cell_formula_units_Z            8
loop_
_atom_site_label
_atom_site_type_symbol
_atom_site_fract_x
_atom_site_fract_y
_atom_site_fract_z
Cl1 Cl 0.6288(1) -0.0198(1) -0.5763(1)
Cl2 Cl 0.3657(1) -0.0150(1) 0.0784(1)
O1 O 0.4226(3) -0.0551(2) -0.2791(2)
O2 O 0.3043(3) -0.28740(2) -0.2917(2)
O3 O 0.5862(3) -0.4046(2) -0.3696(2)
O4 O 0.3891(3) -0.3980(2) -0.1050(2)
N1 N 0.4243(3) -0.1908(2) -0.2631(2)
N2 N 0.3744(4) -0.3484(3) -0.0572(2)
N3 N 0.4018(3) -0.2697(3) -0.1327(2)
N4 N 0.5295(3) -0.2791(3) -0.3618(2)
N5 N 0.6180(4) -0.3593(3) -0.4148(2)
C1 C 0.7028(5) -0.2346(5) -0.1808(3)
C2 C 0.6780(5) -0.1533(4) -0.1890(3)
C3 C 0.5870(5) -0.1324(4) -0.2163(2)
C4 C 0.5218(4) -0.1952(3) -0.2344(2)
C5 C 0.5485(4) -0.2767(3) -0.2231(2)
C6 C 0.6394(5) -0.2978(4) -0.1976(2)
C7 C 0.3869(5) -0.2708(3) -0.2694(2)
C8 C 0.4646(4) -0.3309(3) -0.2451(2)
C9 C 0.4250(5) -0.3866(3) -0.2009(2)
C10 C 0.4893(5) -0.3897(3) -0.2935(2)
C11 C 0.2843(4) -0.1273(4) -0.3256(3)
C12 C 0.3807(5) -0.1201(3) -0.2878(3)
C13 C 0.4074(5) -0.0576(4) -0.0229(3)
C14 C 0.3980(4) -0.0830(4) 0.0319(3)
C15 C 0.3431(4) -0.1443(4) 0.0507(3)
C16 C 0.3480(4) -0.2116(4) 0.0153(3)
C17 C 0.3757(4) -0.2015(4) -0.0392(2)
C18 C 0.3964(4) -0.1240(4) -0.0584(2)
C19 C 0.3819(4) -0.2747(4) -0.0760(2)
C20 C 0.6377(4) -0.1763(4) -0.5398(2)
C21 C 0.6191(4) -0.0968(4) -0.5262(3)
C22 C 0.5911(4) -0.0771(4) -0.4733(3)
C23 C 0.5797(4) -0.1383(3) -0.4345(2)
C24 C 0.5944(4) -0.2199(3) -0.4486(2)
C25 C 0.6254(4) -0.2385(4) -0.5020(2)
C26 C 0.5821(4) -0.2854(2) -0.4082(2)
C27 C 0.5352(4) -0.3524(4) -0.3412(2)
C28 C 0.4055(4) -0.3459(4) -0.1463(2)
loop_
_geom_bond_atom_site_label_1
_geom_bond_atom_site_label_2
_geom_bond_site_symmetry_1
_geom_bond_site_symmetry_2
Cl1 C21 1_555 1_555
Cl2 C14 1_555 1_555
O1 C12 1_555 1_555
O2 C7 1_555 1_555
O3 N5 1_555 1_555
O4 N2 1_555 1_555
N1 C4 1_555 1_555
N2 C19 1_555 1_555
N3 C19 1_555 1_555
N4 C26 1_555 1_555
N5 C26 1_555 1_555
C1 C2 1_555 1_555
C2 C3 1_555 1_555
C3 C4 1_555 1_555
C4 C5 1_555 1_555
C5 C6 1_555 1_555
C6 C1 1_555 1_555
C7 N1 1_555 1_555
C8 C5 1_555 1_555
C9 C8 1_555 1_555
C10 C8 1_555 1_555
C11 C12 1_555 1_555
C12 N1 1_555 1_555
C13 C14 1_555 1_555
C14 C15 1_555 1_555
C15 C16 1_555 1_555
C16 C17 1_555 1_555
C17 C18 1_555 1_555
C18 C13 1_555 1_555
C19 C17 1_555 1_555
C20 C21 1_555 1_555
C21 C22 1_555 1_555
C22 C23 1_555 1_555
C23 C24 1_555 1_555
C24 C25 1_555 1_555
C25 C20 1_555 1_555
C26 C24 1_555 1_555
C27 O3 1_555 1_555
C28 O4 1_555 1_555
N3 C28 1_555 1_555
N4 C27 1_555 1_555
C7 C8 1_555 1_555
C9 C28 1_555 1_555
C10 C27 1_555 1_555

#END
