
#######################################################################
#
#                 Cambridge Crystallographic Data Centre
#                                CCDC 
#
#######################################################################
#
# If this CIF has been generated from an entry in the Cambridge 
# Structural Database, then it will include bibliographic, chemical, 
# crystal, experimental, refinement or atomic coordinate data resulting 
# from the CCDC's data processing and validation procedures.
#
#######################################################################

data_UPEDOJ
_chemical_formula_moiety         'C16 H14 Cl1 N1 O2'
_chemical_name_systematic        
(4-Chlorophenyl)(2-(N-methoxyethanimidoyl)phenyl)methanone
_symmetry_cell_setting           orthorhombic
_symmetry_space_group_name_H-M   'P b c a'
_symmetry_Int_Tables_number      61
_space_group_name_Hall           '-P 2ac 2ab'
loop_
_symmetry_equiv_pos_site_id
_symmetry_equiv_pos_as_xyz
1 x,y,z
2 1/2-x,-y,1/2+z
3 -x,1/2+y,1/2-z
4 1/2+x,1/2-y,-z
5 -x,-y,-z
6 1/2+x,y,1/2-z
7 x,1/2-y,1/2+z
8 1/2-x,1/2+y,z
_cell_length_a                   11.7356(5)
_cell_length_b                   14.9218(7)
_cell_length_c                   16.8878(7)
_cell_angle_alpha                90
_cell_angle_beta                 90
_cell_angle_gamma                90
_cell_volume                     2957.33
_exptl_crystal_colour            'pale yellow'
_chemical_melting_point          '379.6-380.1 K'
_cell_formula_units_Z            8
loop_
_atom_site_label
_atom_site_type_symbol
_atom_site_fract_x
_atom_site_fract_y
_atom_site_fract_z
Cl1 Cl 0.4183(1) 0.5208(1) 0.3081(1)
O1 O 0.8133(2) 0.3672(2) 0.5560(2)
O2 O 0.7802(2) 0.2059(2) 0.3329(1)
N1 N 0.7696(2) 0.2054(2) 0.4161(1)
C1 C 0.6611(2) 0.1689(2) 0.5252(2)
C2 C 0.6259(2) 0.0915(2) 0.5640(2)
C3 C 0.6228(3) 0.0872(2) 0.6450(2)
C4 C 0.6543(3) 0.1599(3) 0.6902(2)
C5 C 0.6885(2) 0.2371(2) 0.6531(2)
C6 C 0.6913(2) 0.2432(2) 0.5708(2)
C7 C 0.7257(3) 0.3303(2) 0.5353(2)
C8 C 0.6481(2) 0.3747(2) 0.4775(2)
C9 C 0.5331(2) 0.3570(2) 0.4749(2)
C10 C 0.4623(3) 0.4016(2) 0.4232(2)
C11 C 0.5075(3) 0.4644(2) 0.3734(2)
C12 C 0.6211(3) 0.4843(2) 0.3742(2)
C13 C 0.6911(3) 0.4391(2) 0.4266(2)
C14 C 0.6757(2) 0.1699(2) 0.4383(2)
C15 C 0.8861(3) 0.2463(3) 0.3137(2)
C16 C 0.5870(2) 0.1324(2) 0.3844(2)
H1 H 0.6041 0.0417 0.5345
H2 H 0.5991 0.0347 0.6698
H3 H 0.6525 0.1566 0.7451
H4 H 0.7101 0.2863 0.6835
H5 H 0.5027 0.3140 0.5087
H6 H 0.3847 0.3892 0.4223
H7 H 0.6508 0.5274 0.3401
H8 H 0.7685 0.4523 0.4277
H9 H 0.8952 0.2476 0.2572
H10 H 0.9469 0.2123 0.3369
H11 H 0.8877 0.3065 0.3339
H12 H 0.6111 0.1394 0.3304
H13 H 0.5165 0.1639 0.3923
H14 H 0.5762 0.0700 0.3958
loop_
_geom_bond_atom_site_label_1
_geom_bond_atom_site_label_2
_geom_bond_site_symmetry_1
_geom_bond_site_symmetry_2
Cl1 C11 1_555 1_555
O1 C7 1_555 1_555
O2 N1 1_555 1_555
N1 C14 1_555 1_555
C1 C2 1_555 1_555
C2 C3 1_555 1_555
C3 C4 1_555 1_555
C4 C5 1_555 1_555
C5 C6 1_555 1_555
C6 C1 1_555 1_555
C7 C6 1_555 1_555
C8 C7 1_555 1_555
C9 C8 1_555 1_555
C10 C9 1_555 1_555
C11 C10 1_555 1_555
C12 C11 1_555 1_555
C13 C8 1_555 1_555
C14 C1 1_555 1_555
C15 O2 1_555 1_555
C16 C14 1_555 1_555
H1 C2 1_555 1_555
H2 C3 1_555 1_555
H3 C4 1_555 1_555
H4 C5 1_555 1_555
H5 C9 1_555 1_555
H6 C10 1_555 1_555
H7 C12 1_555 1_555
H8 C13 1_555 1_555
H9 C15 1_555 1_555
H10 C15 1_555 1_555
H11 C15 1_555 1_555
H12 C16 1_555 1_555
H13 C16 1_555 1_555
H14 C16 1_555 1_555
C12 C13 1_555 1_555

#END
