
#######################################################################
#
#                 Cambridge Crystallographic Data Centre
#                                CCDC 
#
#######################################################################
#
# If this CIF has been generated from an entry in the Cambridge 
# Structural Database, then it will include bibliographic, chemical, 
# crystal, experimental, refinement or atomic coordinate data resulting 
# from the CCDC's data processing and validation procedures.
#
#######################################################################

data_UPEKUX
_chemical_formula_moiety         'C27 H22 N2 O3'
_chemical_name_systematic        
'ethyl 1-(4-methoxyphenyl)-4-phenyl-1H-pyrido[3,2-b]indole-2-carboxylate'
_symmetry_cell_setting           triclinic
_symmetry_space_group_name_H-M   'P -1'
_symmetry_Int_Tables_number      2
_space_group_name_Hall           '-P 1'
loop_
_symmetry_equiv_pos_site_id
_symmetry_equiv_pos_as_xyz
1 x,y,z
2 -x,-y,-z
_cell_length_a                   10.1909(10)
_cell_length_b                   10.4196(9)
_cell_length_c                   11.4499(11)
_cell_angle_alpha                76.975(15)
_cell_angle_beta                 78.006(16)
_cell_angle_gamma                61.735(9)
_cell_volume                     1036.03
_exptl_crystal_colour            colorless
_exptl_crystal_description       Prism
_cell_formula_units_Z            2
_exptl_crystal_preparation       Fiber
loop_
_atom_site_label
_atom_site_type_symbol
_atom_site_fract_x
_atom_site_fract_y
_atom_site_fract_z
O1 O 0.39945(8) 0.45757(8) 0.41972(7)
O2 O 0.02824(9) 0.37634(10) 0.23177(7)
O3 O -0.11294(8) 0.36818(9) 0.11023(7)
N1 N 0.28058(9) 0.27675(9) 0.04764(7)
N2 N 0.49641(9) 0.13451(9) -0.22491(8)
C1 C 0.39422(11) 0.21882(10) -0.03990(9)
C2 C 0.36967(11) 0.18646(10) -0.14827(9)
C3 C 0.22271(11) 0.21818(10) -0.16248(9)
C4 C 0.11193(11) 0.27266(11) -0.06703(9)
H1 H 0.0126 0.2915 -0.0732
C5 C 0.13864(11) 0.30081(11) 0.03635(9)
C6 C 0.54969(11) 0.18205(10) -0.05271(9)
C7 C 0.60452(11) 0.13110(10) -0.16754(9)
C8 C 0.75746(11) 0.08398(11) -0.21228(10)
H2 H 0.7951 0.0506 -0.2886
C9 C 0.85134(11) 0.08729(11) -0.14322(10)
H3 H 0.9545 0.0560 -0.1727
C10 C 0.79733(11) 0.13634(11) -0.02936(10)
H4 H 0.8650 0.1365 0.0164
C11 C 0.64821(11) 0.18400(11) 0.01646(9)
H5 H 0.6126 0.2174 0.0928
C12 C 0.18259(11) 0.19880(11) -0.27219(9)
C13 C 0.27551(12) 0.07539(11) -0.32983(9)
H6 H 0.3664 0.0033 -0.2993
C14 C 0.23509(13) 0.05795(12) -0.43179(10)
H7 H 0.2978 -0.0268 -0.4699
C15 C 0.10376(13) 0.16352(14) -0.47815(10)
H8 H 0.0770 0.1513 -0.5481
C16 C 0.01135(13) 0.28716(14) -0.42220(11)
H9 H -0.0784 0.3598 -0.4542
C17 C 0.05003(12) 0.30473(13) -0.31954(10)
H10 H -0.0138 0.3891 -0.2812
C18 C 0.01645(11) 0.35253(11) 0.13760(9)
C19 C -0.23738(11) 0.40774(12) 0.20671(10)
H11 H -0.3335 0.4530 0.1719
H12 H -0.2366 0.4811 0.2481
C20 C -0.22548(13) 0.27431(14) 0.29625(11)
H13 H -0.2238 0.2007 0.2549
H14 H -0.3120 0.3023 0.3586
H15 H -0.1329 0.2326 0.3338
C21 C 0.31410(10) 0.31956(11) 0.14642(9)
C22 C 0.31245(11) 0.45667(11) 0.12960(9)
H16 H 0.2903 0.5204 0.0551
C23 C 0.34345(11) 0.49922(11) 0.22255(9)
H17 H 0.3438 0.5922 0.2119
C24 C 0.37420(10) 0.40505(11) 0.33209(9)
C25 C 0.37882(11) 0.26668(11) 0.34662(9)
H18 H 0.4021 0.2019 0.4206
C26 C 0.34922(11) 0.22355(11) 0.25249(9)
H19 H 0.3532 0.1290 0.2613
C27 C 0.41957(13) 0.36782(13) 0.53600(9)
H20 H 0.5057 0.2714 0.5281
H21 H 0.3291 0.3548 0.5684
H22 H 0.4377 0.4160 0.5909
loop_
_geom_bond_atom_site_label_1
_geom_bond_atom_site_label_2
_geom_bond_site_symmetry_1
_geom_bond_site_symmetry_2
O1 C24 1_555 1_555
O2 C18 1_555 1_555
O3 C18 1_555 1_555
N1 C1 1_555 1_555
N2 C2 1_555 1_555
C1 C2 1_555 1_555
C2 C3 1_555 1_555
C3 C4 1_555 1_555
C4 H1 1_555 1_555
C5 N1 1_555 1_555
C6 C1 1_555 1_555
C7 N2 1_555 1_555
C8 C7 1_555 1_555
H2 C8 1_555 1_555
C9 C8 1_555 1_555
H3 C9 1_555 1_555
C10 C9 1_555 1_555
H4 C10 1_555 1_555
C11 C6 1_555 1_555
H5 C11 1_555 1_555
C12 C3 1_555 1_555
C13 C12 1_555 1_555
H6 C13 1_555 1_555
C14 C13 1_555 1_555
H7 C14 1_555 1_555
C15 C14 1_555 1_555
H8 C15 1_555 1_555
C16 C15 1_555 1_555
H9 C16 1_555 1_555
C17 C12 1_555 1_555
H10 C17 1_555 1_555
C18 C5 1_555 1_555
C19 O3 1_555 1_555
H11 C19 1_555 1_555
H12 C19 1_555 1_555
C20 C19 1_555 1_555
H13 C20 1_555 1_555
H14 C20 1_555 1_555
H15 C20 1_555 1_555
C21 N1 1_555 1_555
C22 C21 1_555 1_555
H16 C22 1_555 1_555
C23 C22 1_555 1_555
H17 C23 1_555 1_555
C24 C23 1_555 1_555
C25 C24 1_555 1_555
H18 C25 1_555 1_555
C26 C21 1_555 1_555
H19 C26 1_555 1_555
C27 O1 1_555 1_555
H20 C27 1_555 1_555
H21 C27 1_555 1_555
H22 C27 1_555 1_555
C4 C5 1_555 1_555
C6 C7 1_555 1_555
C10 C11 1_555 1_555
C16 C17 1_555 1_555
C25 C26 1_555 1_555

#END
