
#######################################################################
#
#                 Cambridge Crystallographic Data Centre
#                                CCDC 
#
#######################################################################
#
# If this CIF has been generated from an entry in the Cambridge 
# Structural Database, then it will include bibliographic, chemical, 
# crystal, experimental, refinement or atomic coordinate data resulting 
# from the CCDC's data processing and validation procedures.
#
#######################################################################

data_UPESEP
_chemical_formula_moiety         'C12 H11 N2 O1 1+,I1 1-'
_chemical_name_systematic        
'1-(2-oxo-2-(pyridin-2-yl)ethyl)pyridinium iodide'
_symmetry_cell_setting           monoclinic
_symmetry_space_group_name_H-M   'P 21/c'
_symmetry_Int_Tables_number      14
_space_group_name_Hall           '-P 2ybc'
loop_
_symmetry_equiv_pos_site_id
_symmetry_equiv_pos_as_xyz
1 x,y,z
2 -x,1/2+y,1/2-z
3 -x,-y,-z
4 x,1/2-y,1/2+z
_cell_length_a                   7.5230(1)
_cell_length_b                   21.3539(4)
_cell_length_c                   7.7022(1)
_cell_angle_alpha                90
_cell_angle_beta                 104.005(1)
_cell_angle_gamma                90
_cell_volume                     1200.54
_exptl_crystal_colour            brown
_exptl_crystal_description       blocks
_cell_formula_units_Z            4
loop_
_atom_site_label
_atom_site_type_symbol
_atom_site_fract_x
_atom_site_fract_y
_atom_site_fract_z
I1 I 0.56210(2) 0.08254(2) 0.24308(2)
O1 O 0.6737(2) 0.19625(9) 0.6554(3)
C1 C 0.5449(3) 0.16133(12) 0.6463(3)
C2 C 0.5648(3) 0.09860(14) 0.7432(3)
H1 H 0.5157 0.1020 0.8511
H2 H 0.4931 0.0663 0.6638
C3 C 0.3536(3) 0.17813(12) 0.5483(3)
N1 N 0.2235(3) 0.13600(10) 0.5575(3)
C4 C 0.0513(3) 0.15015(13) 0.4714(3)
H3 H -0.0431 0.1213 0.4773
C5 C 0.0036(4) 0.20504(13) 0.3736(3)
H4 H -0.1201 0.2129 0.3129
C6 C 0.1391(4) 0.24762(14) 0.3667(4)
H5 H 0.1102 0.2855 0.3012
C7 C 0.3184(4) 0.23452(13) 0.4568(4)
H6 H 0.4143 0.2633 0.4559
N2 N 0.7581(3) 0.07977(10) 0.7957(3)
C8 C 0.8740(4) 0.11155(13) 0.9286(3)
H7 H 0.8287 0.1441 0.9903
C9 C 1.0573(4) 0.09660(13) 0.9742(4)
H8 H 1.1388 0.1183 1.0685
C10 C 1.1223(3) 0.04978(13) 0.8820(3)
H9 H 1.2492 0.0399 0.9105
C11 C 1.0011(4) 0.01729(13) 0.7477(3)
H10 H 1.0438 -0.0156 0.6851
C12 C 0.8181(3) 0.03329(12) 0.7062(3)
H11 H 0.7341 0.0115 0.6142
loop_
_geom_bond_atom_site_label_1
_geom_bond_atom_site_label_2
_geom_bond_site_symmetry_1
_geom_bond_site_symmetry_2
O1 C1 1_555 1_555
C1 C2 1_555 1_555
C2 H1 1_555 1_555
H2 C2 1_555 1_555
C3 C1 1_555 1_555
N1 C3 1_555 1_555
C4 N1 1_555 1_555
H3 C4 1_555 1_555
C5 C4 1_555 1_555
H4 C5 1_555 1_555
C6 C5 1_555 1_555
H5 C6 1_555 1_555
C7 C3 1_555 1_555
H6 C7 1_555 1_555
N2 C2 1_555 1_555
C8 N2 1_555 1_555
H7 C8 1_555 1_555
C9 C8 1_555 1_555
H8 C9 1_555 1_555
C10 C9 1_555 1_555
H9 C10 1_555 1_555
C11 C10 1_555 1_555
H10 C11 1_555 1_555
C12 N2 1_555 1_555
H11 C12 1_555 1_555
C6 C7 1_555 1_555
C11 C12 1_555 1_555

#END
