
#######################################################################
#
#                 Cambridge Crystallographic Data Centre
#                                CCDC 
#
#######################################################################
#
# If this CIF has been generated from an entry in the Cambridge 
# Structural Database, then it will include bibliographic, chemical, 
# crystal, experimental, refinement or atomic coordinate data resulting 
# from the CCDC's data processing and validation procedures.
#
#######################################################################

data_UPETIU
_chemical_formula_moiety         'C26 H28 N4 O8,H2 O1'
_chemical_name_systematic        
'(2,5-dimethylpiperazine-1,4-diyl)bis((2-methyl-3-(4-nitrophenyl)oxiran-2-yl)methanone) monohydrate'
_symmetry_cell_setting           monoclinic
_symmetry_space_group_name_H-M   'C 2'
_symmetry_Int_Tables_number      5
_space_group_name_Hall           'C 2y'
loop_
_symmetry_equiv_pos_site_id
_symmetry_equiv_pos_as_xyz
1 x,y,z
2 -x,y,-z
3 1/2+x,1/2+y,z
4 1/2-x,1/2+y,-z
_cell_length_a                   25.2770(4)
_cell_length_b                   5.38493(7)
_cell_length_c                   9.89642(15)
_cell_angle_alpha                90
_cell_angle_beta                 101.0958(15)
_cell_angle_gamma                90
_cell_volume                     1321.87
_exptl_crystal_colour            colorless
_exptl_crystal_description       block
_cell_formula_units_Z            2
loop_
_atom_site_label
_atom_site_type_symbol
_atom_site_fract_x
_atom_site_fract_y
_atom_site_fract_z
C1 C 0.54977(8) 0.8721(4) 1.06864(19)
H1 H 0.5871 0.8526 1.1210
H2 H 0.5412 1.0517 1.0619
C2 C 0.54551(8) 0.7630(4) 0.9246(2)
H3 H 0.5614 0.5923 0.9328
C3 C 0.47310(8) 0.5948(4) 0.7509(2)
C4 C 0.41431(8) 0.5956(4) 0.6785(2)
C5 C 0.40450(9) 0.6715(4) 0.5325(2)
H4 H 0.4374 0.7109 0.4942
C6 C 0.35690(9) 0.5807(5) 0.4309(2)
C7 C 0.36240(10) 0.3885(7) 0.3452(3)
H5 H 0.3965 0.3098 0.3523
C8 C 0.31899(11) 0.3062(7) 0.2479(3)
H6 H 0.3232 0.1722 0.1884
C9 C 0.27071(9) 0.4183(5) 0.2385(2)
C10 C 0.26383(12) 0.6103(7) 0.3216(4)
H7 H 0.2296 0.6884 0.3132
C11 C 0.30738(12) 0.6919(7) 0.4194(3)
H8 H 0.3028 0.8256 0.4788
C12 C 0.57623(9) 0.9218(5) 0.8389(2)
H9 H 0.5625 1.0924 0.8352
H10 H 0.5713 0.8542 0.7453
H11 H 0.6147 0.9211 0.8808
C13 C 0.37770(9) 0.4195(4) 0.7329(2)
H12 H 0.3896 0.2486 0.7222
H13 H 0.3408 0.4407 0.6815
H14 H 0.3788 0.4540 0.8306
N1 N 0.48771(7) 0.7450(3) 0.85966(17)
N2 N 0.22443(8) 0.3319(5) 0.1357(2)
O1 O 0.50551(6) 0.4584(3) 0.70844(16)
O2 O 0.39314(6) 0.8390(3) 0.63738(15)
O3 O 0.18340(7) 0.4567(5) 0.1173(2)
O4 O 0.22871(8) 0.1394(5) 0.0741(2)
C1A C 0.45023(8) 0.8721(4) 0.93136(19)
H1A H 0.4129 0.8526 0.8790
H2A H 0.4588 1.0517 0.9381
C2A C 0.45449(8) 0.7630(4) 1.0754(2)
H3A H 0.4386 0.5923 1.0672
C3A C 0.52690(8) 0.5948(4) 1.2491(2)
C4A C 0.58569(8) 0.5956(4) 1.3215(2)
C5A C 0.59550(9) 0.6715(4) 1.4675(2)
H4A H 0.5626 0.7109 1.5058
C6A C 0.64310(9) 0.5807(5) 1.5691(2)
C7A C 0.63760(10) 0.3885(7) 1.6548(3)
H5A H 0.6035 0.3098 1.6477
C8A C 0.68101(11) 0.3062(7) 1.7521(3)
H6A H 0.6768 0.1722 1.8116
C9A C 0.72929(9) 0.4183(5) 1.7615(2)
C10A C 0.73617(12) 0.6103(7) 1.6784(4)
H7A H 0.7704 0.6884 1.6868
C11A C 0.69262(12) 0.6919(7) 1.5806(3)
H8A H 0.6972 0.8256 1.5212
C12A C 0.42377(9) 0.9218(5) 1.1611(2)
H9A H 0.4375 1.0924 1.1648
H10A H 0.4287 0.8542 1.2547
H11A H 0.3853 0.9211 1.1192
C13A C 0.62230(9) 0.4195(4) 1.2671(2)
H12A H 0.6104 0.2486 1.2778
H13A H 0.6592 0.4407 1.3185
H14A H 0.6212 0.4540 1.1694
N1A N 0.51229(7) 0.7450(3) 1.14034(17)
N2A N 0.77557(8) 0.3319(5) 1.8643(2)
O1A O 0.49449(6) 0.4584(3) 1.29156(16)
O2A O 0.60686(6) 0.8390(3) 1.36262(15)
O3A O 0.81660(7) 0.4567(5) 1.8827(2)
O4A O 0.77129(8) 0.1394(5) 1.9259(2)
O5 O 0.5000 0.0830(5) 0.5000
H15 H 0.4968(13) 0.182(6) 0.565(3)
H15A H 0.5032(13) 0.182(6) 0.435(3)
loop_
_geom_bond_atom_site_label_1
_geom_bond_atom_site_label_2
_geom_bond_site_symmetry_1
_geom_bond_site_symmetry_2
C1 H1 1_555 1_555
H2 C1 1_555 1_555
C2 C1 1_555 1_555
H3 C2 1_555 1_555
C3 C4 1_555 1_555
C4 C5 1_555 1_555
C5 H4 1_555 1_555
C6 C5 1_555 1_555
C7 C6 1_555 1_555
H5 C7 1_555 1_555
C8 C7 1_555 1_555
H6 C8 1_555 1_555
C9 C8 1_555 1_555
C10 C9 1_555 1_555
H7 C10 1_555 1_555
C11 C6 1_555 1_555
H8 C11 1_555 1_555
C12 C2 1_555 1_555
H9 C12 1_555 1_555
H10 C12 1_555 1_555
H11 C12 1_555 1_555
C13 C4 1_555 1_555
H12 C13 1_555 1_555
H13 C13 1_555 1_555
H14 C13 1_555 1_555
N1 C2 1_555 1_555
N2 C9 1_555 1_555
O1 C3 1_555 1_555
O2 C4 1_555 1_555
O3 N2 1_555 1_555
O4 N2 1_555 1_555
O5 H15 1_555 1_555
C1A N1 1_555 1_555
H1A C1A 1_555 1_555
H2A C1A 1_555 1_555
C2A C1A 1_555 1_555
H3A C2A 1_555 1_555
C3A C4A 1_555 1_555
C4A C5A 1_555 1_555
C5A H4A 1_555 1_555
C6A C5A 1_555 1_555
C7A C6A 1_555 1_555
H5A C7A 1_555 1_555
C8A C7A 1_555 1_555
H6A C8A 1_555 1_555
C9A C8A 1_555 1_555
C10A C9A 1_555 1_555
H7A C10A 1_555 1_555
C11A C6A 1_555 1_555
H8A C11A 1_555 1_555
C12A C2A 1_555 1_555
H9A C12A 1_555 1_555
H10A C12A 1_555 1_555
H11A C12A 1_555 1_555
C13A C4A 1_555 1_555
H12A C13A 1_555 1_555
H13A C13A 1_555 1_555
H14A C13A 1_555 1_555
N1A C1 1_555 1_555
N2A C9A 1_555 1_555
O1A C3A 1_555 1_555
O2A C4A 1_555 1_555
O3A N2A 1_555 1_555
O4A N2A 1_555 1_555
H15A O5 1_555 1_555
C3 N1 1_555 1_555
C5 O2 1_555 1_555
C10 C11 1_555 1_555
C2A N1A 1_555 1_555
C3A N1A 1_555 1_555
C5A O2A 1_555 1_555
C10A C11A 1_555 1_555

#END
