
#######################################################################
#
#                 Cambridge Crystallographic Data Centre
#                                CCDC 
#
#######################################################################
#
# If this CIF has been generated from an entry in the Cambridge 
# Structural Database, then it will include bibliographic, chemical, 
# crystal, experimental, refinement or atomic coordinate data resulting 
# from the CCDC's data processing and validation procedures.
#
#######################################################################

data_UPETEQ
_chemical_compound_source        
'deep-sea-derived fungus Penicillium chrysogenum SCSIO41001'
_chemical_name_common            'chrysamide A'
_chemical_formula_moiety         'C26 H26 N4 O9'
_chemical_name_systematic        
(1R,3R,4R,6R)-(3,6-dimethyl-7-oxa-2,5-diazabicyclo[2.2.1]heptane-2,5-diyl)bis((1S,3R)-(2-methyl-3-(4-nitrophenyl)oxiran-2-yl)methanone)
_symmetry_cell_setting           hexagonal
_symmetry_space_group_name_H-M   'P 65 2 2'
_symmetry_Int_Tables_number      179
_space_group_name_Hall           "P 65 2' (0,0,1)"
loop_
_symmetry_equiv_pos_site_id
_symmetry_equiv_pos_as_xyz
1 x,y,z
2 x-y,x,5/6+z
3 -y,x-y,2/3+z
4 -x,-y,1/2+z
5 -x+y,-x,1/3+z
6 y,-x+y,1/6+z
7 x-y,-y,-z
8 -x,-x+y,1/3-z
9 y,x,2/3-z
10 -y,-x,1/6-z
11 -x+y,y,1/2-z
12 x,x-y,5/6-z
_cell_length_a                   10.68560(10)
_cell_length_b                   10.68560(10)
_cell_length_c                   79.4588(9)
_cell_angle_alpha                90
_cell_angle_beta                 90
_cell_angle_gamma                120
_cell_volume                     7857.25
_exptl_crystal_colour            colorless
_exptl_crystal_description       block
_cell_formula_units_Z            12
loop_
_atom_site_label
_atom_site_type_symbol
_atom_site_fract_x
_atom_site_fract_y
_atom_site_fract_z
C1 C 0.3206(2) 0.0768(2) 0.95070(3)
H1 H 0.2425 -0.0270 0.9509
C2 C 0.4314(2) 0.1194(2) 0.96500(3)
H2 H 0.4616 0.0449 0.9659
C3 C 0.6904(2) 0.2914(2) 0.96111(2)
C4 C 0.8060(2) 0.3968(2) 0.94940(2)
C5 C 0.9038(2) 0.5458(2) 0.95520(3)
H3 H 0.8880 0.5677 0.9670
C6 C 1.0538(2) 0.6318(2) 0.94880(3)
C7 C 1.0818(2) 0.6901(2) 0.93265(3)
H4 H 1.0040 0.6781 0.9258
C8 C 1.2219(2) 0.7654(2) 0.92651(3)
H5 H 1.2408 0.8031 0.9154
C9 C 1.3335(2) 0.7843(2) 0.93699(3)
C10 C 1.3093(3) 0.7292(3) 0.95313(3)
H6 H 1.3879 0.7440 0.9601
C11 C 1.1690(3) 0.6523(2) 0.95903(3)
H7 H 1.1508 0.6131 0.9701
C12 C 0.3836(3) 0.1414(3) 0.98220(3)
H8 H 0.3515 0.2125 0.9813
H9 H 0.4647 0.1764 0.9901
H10 H 0.3037 0.0494 0.9863
C13 C 0.8525(3) 0.3234(3) 0.93677(3)
H11 H 0.8855 0.2646 0.9427
H12 H 0.9317 0.3966 0.9299
H13 H 0.7708 0.2613 0.9295
C14 C 0.4994(2) 0.2662(2) 0.94083(2)
H14 H 0.5783 0.3256 0.9327
C15 C 0.3876(2) 0.3153(2) 0.94282(3)
H15 H 0.3584 0.3316 0.9314
C16 C 0.1286(2) 0.1445(3) 0.94752(3)
C17 C 0.0110(2) 0.0015(3) 0.95447(3)
C18 C -0.0234(2) -0.0004(3) 0.97254(3)
H16 H 0.0320 0.0936 0.9786
C19 C -0.1692(2) -0.1031(2) 0.97943(2)
C20 C -0.1983(2) -0.2370(2) 0.98551(3)
H17 H -0.1240 -0.2612 0.9856
C21 C -0.3341(3) -0.3353(2) 0.99144(3)
H18 H -0.3542 -0.4269 0.9956
C22 C -0.4395(2) -0.2972(2) 0.99119(2)
C23 C -0.4128(2) -0.1629(2) 0.98586(3)
H19 H -0.4867 -0.1382 0.9862
C24 C -0.2762(2) -0.0652(2) 0.97998(3)
H20 H -0.2555 0.0279 0.9763
C25 C 0.4315(3) 0.4473(3) 0.95363(3)
H21 H 0.4580 0.4308 0.9649
H22 H 0.3505 0.4655 0.9545
H23 H 0.5144 0.5311 0.9485
C26 C -0.0998(3) -0.0959(3) 0.94186(3)
H24 H -0.1530 -0.0497 0.9376
H25 H -0.1673 -0.1879 0.9472
H26 H -0.0513 -0.1137 0.9325
N1 N 0.55178(18) 0.25312(19) 0.95746(2)
N2 N 1.4830(2) 0.8708(2) 0.93104(3)
N3 N 0.26746(19) 0.17972(19) 0.95012(2)
N4 N -0.5862(2) -0.4044(2) 0.99641(2)
O1 O 0.72208(17) 0.24030(17) 0.97312(2)
O2 O 0.78881(16) 0.51525(16) 0.94346(2)
O3 O 1.50349(19) 0.8979(2) 0.91597(2)
O4 O 1.58005(19) 0.9149(2) 0.94156(2)
O5 O 0.41155(16) 0.11780(16) 0.93595(2)
O6 O 0.09546(19) 0.2262(2) 0.94053(3)
O7 O 0.05902(17) -0.06500(18) 0.96681(2)
O8 O -0.60601(19) -0.51864(19) 1.00258(2)
O9 O -0.68334(18) -0.3768(2) 0.99398(2)
loop_
_geom_bond_atom_site_label_1
_geom_bond_atom_site_label_2
_geom_bond_site_symmetry_1
_geom_bond_site_symmetry_2
C1 H1 1_555 1_555
C2 C1 1_555 1_555
H2 C2 1_555 1_555
C3 C4 1_555 1_555
C4 C5 1_555 1_555
C5 H3 1_555 1_555
C6 C5 1_555 1_555
C7 C6 1_555 1_555
H4 C7 1_555 1_555
C8 C7 1_555 1_555
H5 C8 1_555 1_555
C9 C8 1_555 1_555
C10 C9 1_555 1_555
H6 C10 1_555 1_555
C11 C6 1_555 1_555
H7 C11 1_555 1_555
C12 C2 1_555 1_555
H8 C12 1_555 1_555
H9 C12 1_555 1_555
H10 C12 1_555 1_555
C13 C4 1_555 1_555
H11 C13 1_555 1_555
H12 C13 1_555 1_555
H13 C13 1_555 1_555
C14 H14 1_555 1_555
C15 C14 1_555 1_555
H15 C15 1_555 1_555
C16 C17 1_555 1_555
C17 C18 1_555 1_555
C18 H16 1_555 1_555
C19 C18 1_555 1_555
C20 C19 1_555 1_555
H17 C20 1_555 1_555
C21 C20 1_555 1_555
H18 C21 1_555 1_555
C22 C21 1_555 1_555
C23 C22 1_555 1_555
H19 C23 1_555 1_555
C24 C19 1_555 1_555
H20 C24 1_555 1_555
C25 C15 1_555 1_555
H21 C25 1_555 1_555
H22 C25 1_555 1_555
H23 C25 1_555 1_555
C26 C17 1_555 1_555
H24 C26 1_555 1_555
H25 C26 1_555 1_555
H26 C26 1_555 1_555
N1 C2 1_555 1_555
N2 C9 1_555 1_555
N3 C1 1_555 1_555
N4 C22 1_555 1_555
O1 C3 1_555 1_555
O2 C4 1_555 1_555
O3 N2 1_555 1_555
O4 N2 1_555 1_555
O5 C1 1_555 1_555
O6 C16 1_555 1_555
O7 C17 1_555 1_555
O8 N4 1_555 1_555
O9 N4 1_555 1_555
C3 N1 1_555 1_555
C5 O2 1_555 1_555
C10 C11 1_555 1_555
C14 N1 1_555 1_555
C14 O5 1_555 1_555
C15 N3 1_555 1_555
C16 N3 1_555 1_555
C18 O7 1_555 1_555
C23 C24 1_555 1_555

#END
