
#######################################################################
#
#                 Cambridge Crystallographic Data Centre
#                                CCDC 
#
#######################################################################
#
# If this CIF has been generated from an entry in the Cambridge 
# Structural Database, then it will include bibliographic, chemical, 
# crystal, experimental, refinement or atomic coordinate data resulting 
# from the CCDC's data processing and validation procedures.
#
#######################################################################

data_UPETOA
_chemical_formula_moiety         '3(C6 H16 N1 1+),C4 H1 O8 3-,H2 O1'
_chemical_name_systematic        
'tris(di-n-propylammonium) (hydrogen bis(oxalate)) monohydrate'
_symmetry_cell_setting           orthorhombic
_symmetry_space_group_name_H-M   'P 21 21 21'
_symmetry_Int_Tables_number      19
_space_group_name_Hall           'P 2ac 2ab'
loop_
_symmetry_equiv_pos_site_id
_symmetry_equiv_pos_as_xyz
1 x,y,z
2 1/2-x,-y,1/2+z
3 -x,1/2+y,1/2-z
4 1/2+x,1/2-y,-z
_cell_length_a                   9.6140(19)
_cell_length_b                   14.291(3)
_cell_length_c                   21.232(4)
_cell_angle_alpha                90
_cell_angle_beta                 90
_cell_angle_gamma                90
_cell_volume                     2917.14
_exptl_crystal_colour            colorless
_exptl_crystal_description       block
_cell_formula_units_Z            4
loop_
_atom_site_label
_atom_site_type_symbol
_atom_site_fract_x
_atom_site_fract_y
_atom_site_fract_z
O1 O 0.22623(17) 1.00447(15) 1.00706(9)
H1 H 0.280(4) 0.992(2) 0.9751(14)
H2 H 0.282(4) 1.005(2) 1.0373(15)
O2 O 0.43428(16) 0.97735(14) 0.91276(7)
O3 O 0.69921(15) 0.99034(15) 0.87002(7)
O4 O 0.61836(15) 0.99958(14) 0.77154(6)
O5 O 0.35982(15) 0.98417(14) 0.81304(7)
C1 C 0.4514(2) 0.98429(17) 0.85490(10)
C2 C 0.6051(2) 0.99229(18) 0.83190(9)
O6 O 1.11842(15) 0.95932(14) 0.69496(7)
O7 O 1.05532(16) 1.00569(15) 0.59859(7)
O8 O 0.86020(16) 0.98256(14) 0.73671(7)
O9 O 0.78934(16) 1.02054(14) 0.63988(7)
C3 C 1.0324(2) 0.98649(18) 0.65488(10)
C4 C 0.8790(2) 0.99812(19) 0.67769(9)
H3 H 0.729(5) 0.996(4) 0.7553(17)
N1 N 0.65374(18) 0.98977(14) 1.00477(8)
H4 H 0.5983 0.9828 0.9703
H5 H 0.5991 0.9849 1.0396
C5 C 0.7182(3) 1.08376(19) 1.00337(12)
H6 H 0.7857 1.0869 0.9682
H7 H 0.7696 1.0944 1.0431
C6 C 0.6100(3) 1.1595(2) 0.99519(14)
H8 H 0.5441 1.1574 1.0310
H9 H 0.5568 1.1478 0.9561
C7 C 0.7589(2) 0.91362(19) 1.00557(11)
H10 H 0.8227 0.9231 1.0416
H11 H 0.8147 0.9164 0.9664
C8 C 0.6923(3) 0.81880(19) 1.01082(13)
H12 H 0.6242 0.8106 0.9763
H13 H 0.6415 0.8143 1.0513
C9 C 0.8013(3) 0.7416(2) 1.00738(16)
H14 H 0.8694 0.7502 1.0412
H15 H 0.8487 0.7443 0.9665
H16 H 0.7560 0.6806 1.0122
C10 C 0.6766(4) 1.2562(2) 0.99186(15)
H17 H 0.7384 1.2594 0.9552
H18 H 0.7303 1.2676 1.0303
H19 H 0.6037 1.3038 0.9879
N2 N 0.08073(18) 0.95779(16) 0.82899(9)
H20 H 0.1754 0.9589 0.8282
H21 H 0.0500 0.9578 0.7885
C11 C 0.0336(3) 0.8702(2) 0.86059(12)
H22 H -0.0669 0.8754 0.8701
H23 H 0.0836 0.8635 0.9011
C12 C 0.0580(3) 0.7834(2) 0.82118(13)
H24 H 0.0071 0.7902 0.7809
H25 H 0.0183 0.7288 0.8436
C13 C 0.0699(3) 1.1309(2) 0.82615(13)
H26 H 0.0467 1.1238 0.7810
H27 H 0.1716 1.1406 0.8297
C14 C -0.0054(4) 1.2153(3) 0.85254(15)
H28 H 0.0257 1.2718 0.8305
H29 H 0.0153 1.2213 0.8976
H30 H -0.1058 1.2075 0.8467
C15 C 0.2099(3) 0.7636(2) 0.80684(15)
H31 H 0.2618 0.7580 0.8464
H32 H 0.2485 0.8150 0.7818
H33 H 0.2175 0.7050 0.7831
C16 C 0.0295(2) 1.0434(2) 0.86110(11)
H34 H 0.0682 1.0459 0.9043
H35 H -0.0731 1.0404 0.8646
N3 N 0.39513(18) 0.99568(16) 0.67884(8)
H36 H 0.4220 0.9945 0.7199
H37 H 0.3034 0.9802 0.6773
C17 C 0.4754(2) 0.92492(18) 0.64371(11)
H38 H 0.5750 0.9426 0.6438
H39 H 0.4432 0.9235 0.5994
C18 C 0.4128(3) 1.0922(2) 0.65412(12)
H40 H 0.3809 1.0948 0.6098
H41 H 0.5125 1.1095 0.6551
C19 C 0.4593(3) 0.8288(2) 0.67221(12)
H42 H 0.3652 0.8043 0.6629
H43 H 0.4699 0.8328 0.7185
C20 C 0.3303(3) 1.1613(2) 0.69316(13)
H44 H 0.2305 1.1444 0.6913
H45 H 0.3604 1.1569 0.7376
C21 C 0.5690(3) 0.7621(2) 0.64533(14)
H46 H 0.5514 0.6985 0.6607
H47 H 0.6617 0.7823 0.6588
H48 H 0.5641 0.7627 0.5992
C22 C 0.3481(3) 1.2609(2) 0.67074(14)
H49 H 0.4470 1.2775 0.6715
H50 H 0.2964 1.3031 0.6985
H51 H 0.3126 1.2666 0.6277
loop_
_geom_bond_atom_site_label_1
_geom_bond_atom_site_label_2
_geom_bond_site_symmetry_1
_geom_bond_site_symmetry_2
O1 H1 1_555 1_555
H2 O1 1_555 1_555
O2 C1 1_555 1_555
O3 C2 1_555 1_555
O4 C2 1_555 1_555
O5 C1 1_555 1_555
C1 C2 1_555 1_555
O6 C3 1_555 1_555
O7 C3 1_555 1_555
O8 C4 1_555 1_555
O9 C4 1_555 1_555
C3 C4 1_555 1_555
H3 O4 1_555 1_555
N1 H4 1_555 1_555
H5 N1 1_555 1_555
C5 N1 1_555 1_555
H6 C5 1_555 1_555
H7 C5 1_555 1_555
C6 C5 1_555 1_555
H8 C6 1_555 1_555
H9 C6 1_555 1_555
C7 N1 1_555 1_555
H10 C7 1_555 1_555
H11 C7 1_555 1_555
C8 C7 1_555 1_555
H12 C8 1_555 1_555
H13 C8 1_555 1_555
C9 C8 1_555 1_555
H14 C9 1_555 1_555
H15 C9 1_555 1_555
H16 C9 1_555 1_555
C10 C6 1_555 1_555
H17 C10 1_555 1_555
H18 C10 1_555 1_555
H19 C10 1_555 1_555
N2 H20 1_555 1_555
H21 N2 1_555 1_555
C11 N2 1_555 1_555
H22 C11 1_555 1_555
H23 C11 1_555 1_555
C12 C11 1_555 1_555
H24 C12 1_555 1_555
H25 C12 1_555 1_555
C13 H26 1_555 1_555
H27 C13 1_555 1_555
C14 C13 1_555 1_555
H28 C14 1_555 1_555
H29 C14 1_555 1_555
H30 C14 1_555 1_555
C15 C12 1_555 1_555
H31 C15 1_555 1_555
H32 C15 1_555 1_555
H33 C15 1_555 1_555
C16 N2 1_555 1_555
H34 C16 1_555 1_555
H35 C16 1_555 1_555
N3 H36 1_555 1_555
H37 N3 1_555 1_555
C17 N3 1_555 1_555
H38 C17 1_555 1_555
H39 C17 1_555 1_555
C18 N3 1_555 1_555
H40 C18 1_555 1_555
H41 C18 1_555 1_555
C19 C17 1_555 1_555
H42 C19 1_555 1_555
H43 C19 1_555 1_555
C20 C18 1_555 1_555
H44 C20 1_555 1_555
H45 C20 1_555 1_555
C21 C19 1_555 1_555
H46 C21 1_555 1_555
H47 C21 1_555 1_555
H48 C21 1_555 1_555
C22 C20 1_555 1_555
H49 C22 1_555 1_555
H50 C22 1_555 1_555
H51 C22 1_555 1_555
O8 H3 1_555 1_555
C13 C16 1_555 1_555

#END
