
#######################################################################
#
#                 Cambridge Crystallographic Data Centre
#                                CCDC 
#
#######################################################################
#
# If this CIF has been generated from an entry in the Cambridge 
# Structural Database, then it will include bibliographic, chemical, 
# crystal, experimental, refinement or atomic coordinate data resulting 
# from the CCDC's data processing and validation procedures.
#
#######################################################################

data_UPEVUI
_chemical_formula_moiety         'C26 H23 N1'
_chemical_name_systematic        3-t-butyl-5-phenyl-11H-benzo[a]carbazole
_symmetry_cell_setting           orthorhombic
_symmetry_space_group_name_H-M   'P b c a'
_symmetry_Int_Tables_number      61
_space_group_name_Hall           '-P 2ac 2ab'
loop_
_symmetry_equiv_pos_site_id
_symmetry_equiv_pos_as_xyz
1 x,y,z
2 1/2-x,-y,1/2+z
3 1/2+x,1/2-y,-z
4 -x,1/2+y,1/2-z
5 -x,-y,-z
6 1/2+x,y,1/2-z
7 1/2-x,1/2+y,z
8 x,1/2-y,1/2+z
_cell_length_a                   17.8140(4)
_cell_length_b                   9.6903(2)
_cell_length_c                   23.0455(5)
_cell_angle_alpha                90
_cell_angle_beta                 90
_cell_angle_gamma                90
_cell_volume                     3978.18
_exptl_crystal_colour            colorless
_exptl_crystal_description       block
_cell_formula_units_Z            8
loop_
_atom_site_label
_atom_site_type_symbol
_atom_site_fract_x
_atom_site_fract_y
_atom_site_fract_z
N1 N 0.70908(15) 0.1583(3) 0.86208(11)
C1 C 0.66575(15) 0.0618(3) 0.76602(12)
C2 C 0.70698(17) -0.0610(3) 0.76703(13)
H1 H 0.7412 -0.0763 0.7968
C3 C 0.64629(16) -0.1398(3) 0.67926(12)
C4 C 0.58046(15) 0.3094(3) 0.76082(12)
H2 H 0.5532 0.3911 0.7592
C5 C 0.60858(15) -0.0170(3) 0.67668(11)
H3 H 0.5755 -0.0027 0.6460
C6 C 0.61728(14) 0.0895(3) 0.71828(11)
C7 C 0.57770(15) 0.2190(3) 0.71504(12)
C8 C 0.66759(15) 0.1620(3) 0.81121(12)
C9 C 0.61267(17) 0.4758(3) 0.88778(14)
H4 H 0.5783 0.5302 0.8678
C10 C 0.6383(2) 0.5154(4) 0.94161(14)
H5 H 0.6206 0.5966 0.9582
C11 C 0.53584(16) 0.2615(3) 0.66141(13)
C12 C 0.62424(14) 0.2796(3) 0.81028(12)
C13 C 0.69791(17) -0.1584(3) 0.72515(13)
H6 H 0.7263 -0.2389 0.7267
C14 C 0.63876(15) 0.3537(3) 0.86376(12)
C15 C 0.6906(2) 0.4353(4) 0.97152(15)
H7 H 0.7071 0.4640 1.0079
C16 C 0.56906(19) 0.2539(3) 0.60717(13)
H8 H 0.6165 0.2150 0.6033
C17 C 0.63332(18) -0.2582(3) 0.63661(13)
C18 C 0.46527(18) 0.3181(3) 0.66587(14)
H9 H 0.4418 0.3221 0.7019
C19 C 0.7184(2) 0.3147(4) 0.94836(14)
H10 H 0.7540 0.2625 0.9681
C20 C 0.69151(16) 0.2735(3) 0.89463(12)
C21 C 0.5321(2) 0.3039(4) 0.55844(15)
H11 H 0.5547 0.2977 0.5222
C22 C 0.4287(2) 0.3694(4) 0.61701(16)
H12 H 0.3812 0.4087 0.6205
C23 C 0.4627(2) 0.3620(4) 0.56366(16)
H13 H 0.4384 0.3967 0.5310
C24 C 0.5729(3) -0.2232(5) 0.5921(2)
H14 H 0.5622 -0.3034 0.5691
H15 H 0.5904 -0.1502 0.5675
H16 H 0.5282 -0.1941 0.6119
C25 C 0.6054(4) -0.3812(4) 0.6700(2)
H17 H 0.5981 -0.4573 0.6439
H18 H 0.5587 -0.3587 0.6885
H19 H 0.6417 -0.4062 0.6989
C26 C 0.7037(3) -0.2931(7) 0.6057(2)
H20 H 0.7408 -0.3225 0.6332
H21 H 0.7216 -0.2132 0.5853
H22 H 0.6942 -0.3661 0.5785
H23 H 0.746(2) 0.098(4) 0.8709(16)
loop_
_geom_bond_atom_site_label_1
_geom_bond_atom_site_label_2
_geom_bond_site_symmetry_1
_geom_bond_site_symmetry_2
N1 C8 1_555 1_555
C1 C2 1_555 1_555
C2 H1 1_555 1_555
C3 C5 1_555 1_555
C4 H2 1_555 1_555
C5 H3 1_555 1_555
C6 C1 1_555 1_555
C7 C4 1_555 1_555
C8 C1 1_555 1_555
C9 H4 1_555 1_555
C10 C9 1_555 1_555
H5 C10 1_555 1_555
C11 C7 1_555 1_555
C12 C4 1_555 1_555
C13 C2 1_555 1_555
H6 C13 1_555 1_555
C14 C9 1_555 1_555
C15 C10 1_555 1_555
H7 C15 1_555 1_555
C16 C11 1_555 1_555
H8 C16 1_555 1_555
C17 C3 1_555 1_555
C18 C11 1_555 1_555
H9 C18 1_555 1_555
C19 C15 1_555 1_555
H10 C19 1_555 1_555
C20 N1 1_555 1_555
C21 C16 1_555 1_555
H11 C21 1_555 1_555
C22 C18 1_555 1_555
H12 C22 1_555 1_555
C23 C21 1_555 1_555
H13 C23 1_555 1_555
C24 C17 1_555 1_555
H14 C24 1_555 1_555
H15 C24 1_555 1_555
H16 C24 1_555 1_555
C25 C17 1_555 1_555
H17 C25 1_555 1_555
H18 C25 1_555 1_555
H19 C25 1_555 1_555
C26 C17 1_555 1_555
H20 C26 1_555 1_555
H21 C26 1_555 1_555
H22 C26 1_555 1_555
H23 N1 1_555 1_555
C3 C13 1_555 1_555
C5 C6 1_555 1_555
C6 C7 1_555 1_555
C8 C12 1_555 1_555
C12 C14 1_555 1_555
C14 C20 1_555 1_555
C19 C20 1_555 1_555
C22 C23 1_555 1_555

#END
