
#######################################################################
#
#                 Cambridge Crystallographic Data Centre
#                                CCDC 
#
#######################################################################
#
# If this CIF has been generated from an entry in the Cambridge 
# Structural Database, then it will include bibliographic, chemical, 
# crystal, experimental, refinement or atomic coordinate data resulting 
# from the CCDC's data processing and validation procedures.
#
#######################################################################

data_UPEWET
_chemical_formula_moiety         'C12 H18 O4'
_chemical_name_systematic        
5,6',6'-trimethylhexahydro-3H,5'H-spiro[furan-2,2'-furo[3,2-b]furan]-5'-one
_symmetry_cell_setting           orthorhombic
_symmetry_space_group_name_H-M   'P c a 21'
_symmetry_Int_Tables_number      29
_space_group_name_Hall           'P 2c -2ac'
loop_
_symmetry_equiv_pos_site_id
_symmetry_equiv_pos_as_xyz
1 x,y,z
2 -x,-y,1/2+z
3 1/2-x,y,1/2+z
4 1/2+x,-y,z
_cell_length_a                   9.58732(15)
_cell_length_b                   7.56398(14)
_cell_length_c                   16.2390(4)
_cell_angle_alpha                90
_cell_angle_beta                 90
_cell_angle_gamma                90
_cell_volume                     1177.62
_exptl_crystal_colour            colorless
_cell_formula_units_Z            4
loop_
_atom_site_label
_atom_site_type_symbol
_atom_site_fract_x
_atom_site_fract_y
_atom_site_fract_z
O1 O 0.69268(10) 0.25459(15) 0.60479(8)
O2 O 0.57677(9) 0.02875(13) 0.54929(7)
O3 O 0.40007(11) 0.22641(13) 0.40985(6)
O4 O 0.63077(9) 0.16378(14) 0.37472(7)
C1 C 0.58817(14) 0.19909(19) 0.57257(9)
C2 C 0.45297(14) 0.2987(2) 0.55612(9)
C3 C 0.37840(13) 0.17996(19) 0.49413(9)
H1 H 0.2764 0.1746 0.5067
C4 C 0.44566(14) -0.00313(19) 0.50586(10)
H2 H 0.3834 -0.0858 0.5368
C5 C 0.47370(15) -0.06664(18) 0.41950(9)
H3 H 0.3946 -0.1377 0.3984
H4 H 0.5597 -0.1389 0.4173
C6 C 0.49068(13) 0.10304(17) 0.37024(9)
C7 C 0.45552(15) 0.09972(19) 0.27909(10)
H5 H 0.3541 0.1140 0.2699
H6 H 0.4871 -0.0116 0.2530
C8 C 0.53658(14) 0.2580(2) 0.24632(10)
H7 H 0.4836 0.3692 0.2538
H8 H 0.5593 0.2433 0.1872
C9 C 0.66869(15) 0.2562(2) 0.29945(9)
H9 H 0.7424 0.1867 0.2703
C10 C 0.72625(18) 0.4355(2) 0.32038(12)
H10 H 0.8031 0.4225 0.3597
H11 H 0.6526 0.5082 0.3449
H12 H 0.7606 0.4926 0.2702
C11 C 0.37087(17) 0.2964(2) 0.63759(11)
H13 H 0.3432 0.1748 0.6505
H14 H 0.2874 0.3703 0.6321
H15 H 0.4298 0.3427 0.6820
C12 C 0.48026(17) 0.4867(2) 0.52764(11)
H16 H 0.3912 0.5478 0.5194
H17 H 0.5322 0.4844 0.4757
H18 H 0.5350 0.5493 0.5695
loop_
_geom_bond_atom_site_label_1
_geom_bond_atom_site_label_2
_geom_bond_site_symmetry_1
_geom_bond_site_symmetry_2
O1 C1 1_555 1_555
O2 C1 1_555 1_555
O3 C3 1_555 1_555
O4 C6 1_555 1_555
C1 C2 1_555 1_555
C2 C3 1_555 1_555
C3 H1 1_555 1_555
C4 O2 1_555 1_555
H2 C4 1_555 1_555
C5 C4 1_555 1_555
H3 C5 1_555 1_555
H4 C5 1_555 1_555
C6 O3 1_555 1_555
C7 C6 1_555 1_555
H5 C7 1_555 1_555
H6 C7 1_555 1_555
C8 C7 1_555 1_555
H7 C8 1_555 1_555
H8 C8 1_555 1_555
C9 O4 1_555 1_555
H9 C9 1_555 1_555
C10 C9 1_555 1_555
H10 C10 1_555 1_555
H11 C10 1_555 1_555
H12 C10 1_555 1_555
C11 C2 1_555 1_555
H13 C11 1_555 1_555
H14 C11 1_555 1_555
H15 C11 1_555 1_555
C12 C2 1_555 1_555
H16 C12 1_555 1_555
H17 C12 1_555 1_555
H18 C12 1_555 1_555
C3 C4 1_555 1_555
C5 C6 1_555 1_555
C8 C9 1_555 1_555

#END
