
#######################################################################
#
#                 Cambridge Crystallographic Data Centre
#                                CCDC 
#
#######################################################################
#
# If this CIF has been generated from an entry in the Cambridge 
# Structural Database, then it will include bibliographic, chemical, 
# crystal, experimental, refinement or atomic coordinate data resulting 
# from the CCDC's data processing and validation procedures.
#
#######################################################################

data_UPEXOD
_chemical_compound_source        
'whole plant of Palhinhaea cernua L. (Lycopodiaceae)'
_chemical_name_common            'Palhinine A'
_chemical_formula_moiety         'C17 H25 N1 O3'
_chemical_name_systematic        
2-Hydroxy-5-methyl-5-azatetracyclo[10.4.1.0^1,9^.0^9,14^]heptadecane-10,16-dione
_symmetry_cell_setting           orthorhombic
_symmetry_space_group_name_H-M   'P 21 21 21'
_symmetry_Int_Tables_number      19
_space_group_name_Hall           'P 2ac 2ab'
loop_
_symmetry_equiv_pos_site_id
_symmetry_equiv_pos_as_xyz
1 x,y,z
2 1/2-x,-y,1/2+z
3 -x,1/2+y,1/2-z
4 1/2+x,1/2-y,-z
_cell_length_a                   9.1204(4)
_cell_length_b                   11.6853(4)
_cell_length_c                   14.1079(6)
_cell_angle_alpha                90
_cell_angle_beta                 90
_cell_angle_gamma                90
_cell_volume                     1503.54
_exptl_crystal_colour            colorless
_exptl_crystal_description       block
_cell_formula_units_Z            4
loop_
_atom_site_label
_atom_site_type_symbol
_atom_site_fract_x
_atom_site_fract_y
_atom_site_fract_z
O1 O 0.71300(18) 0.25617(10) 0.87000(12)
H1 H 0.6476 0.2524 0.8302
O2 O 0.5730(2) 0.14373(14) 0.72989(12)
O3 O 0.98130(14) -0.20485(10) 0.87447(10)
N1 N 1.10660(14) 0.02342(11) 0.89726(11)
C1 C 1.0895(2) 0.14820(15) 0.90672(15)
H2 H 1.1197 0.1844 0.8480
H3 H 1.1540 0.1753 0.9566
C2 C 0.9346(2) 0.18429(13) 0.92928(13)
H4 H 0.9362 0.2645 0.9471
H5 H 0.9020 0.1413 0.9842
C3 C 0.82136(19) 0.16907(12) 0.85113(12)
H6 H 0.8679 0.1856 0.7901
C4 C 0.74029(15) 0.05316(12) 0.84367(10)
C5 C 0.62564(19) 0.05821(16) 0.76340(12)
C6 C 0.5857(2) -0.06018(17) 0.73350(14)
H7 H 0.6056 -0.0715 0.6666
H8 H 0.4827 -0.0752 0.7453
C7 C 0.68194(19) -0.13750(14) 0.79381(11)
H9 H 0.7102 -0.2058 0.7579
C8 C 0.6081(2) -0.17211(15) 0.88781(13)
H10 H 0.5024 -0.1671 0.8814
H11 H 0.6333 -0.2506 0.9032
C9 C 1.1654(2) -0.00986(17) 0.80530(16)
H12 H 1.1882 -0.0909 0.8064
H13 H 1.2560 0.0314 0.7941
C10 C 1.0602(2) 0.01382(16) 0.72465(14)
H14 H 1.1108 -0.0016 0.6655
H15 H 1.0363 0.0947 0.7255
C11 C 0.91700(19) -0.05389(15) 0.72484(12)
H16 H 0.9408 -0.1319 0.7069
H17 H 0.8561 -0.0229 0.6747
C12 C 0.82142(16) -0.06042(11) 0.81451(10)
C13 C 0.89528(17) -0.12882(12) 0.89268(11)
C14 C 0.8217(2) -0.11852(15) 0.98686(12)
H18 H 0.8655 -0.0571 1.0235
H19 H 0.8313 -0.1893 1.0222
C15 C 0.6597(2) -0.09270(14) 0.96695(11)
H20 H 0.6011 -0.1054 1.0242
C16 C 0.64590(18) 0.03062(13) 0.93494(12)
H21 H 0.6784 0.0810 0.9854
H22 H 0.5439 0.0477 0.9217
C17 C 1.1923(2) -0.0239(2) 0.97520(18)
H23 H 1.2019 -0.1051 0.9671
H24 H 1.1437 -0.0083 1.0341
H25 H 1.2879 0.0106 0.9757
loop_
_geom_bond_atom_site_label_1
_geom_bond_atom_site_label_2
_geom_bond_site_symmetry_1
_geom_bond_site_symmetry_2
O1 H1 1_555 1_555
O2 C5 1_555 1_555
O3 C13 1_555 1_555
N1 C1 1_555 1_555
C1 H2 1_555 1_555
H3 C1 1_555 1_555
C2 C1 1_555 1_555
H4 C2 1_555 1_555
H5 C2 1_555 1_555
C3 O1 1_555 1_555
H6 C3 1_555 1_555
C4 C3 1_555 1_555
C5 C4 1_555 1_555
C6 C5 1_555 1_555
H7 C6 1_555 1_555
H8 C6 1_555 1_555
C7 C6 1_555 1_555
H9 C7 1_555 1_555
C8 C7 1_555 1_555
H10 C8 1_555 1_555
H11 C8 1_555 1_555
C9 N1 1_555 1_555
H12 C9 1_555 1_555
H13 C9 1_555 1_555
C10 C9 1_555 1_555
H14 C10 1_555 1_555
H15 C10 1_555 1_555
C11 C10 1_555 1_555
H16 C11 1_555 1_555
H17 C11 1_555 1_555
C12 C4 1_555 1_555
C13 C12 1_555 1_555
C14 C13 1_555 1_555
H18 C14 1_555 1_555
H19 C14 1_555 1_555
C15 C8 1_555 1_555
H20 C15 1_555 1_555
C16 C4 1_555 1_555
H21 C16 1_555 1_555
H22 C16 1_555 1_555
C17 N1 1_555 1_555
H23 C17 1_555 1_555
H24 C17 1_555 1_555
H25 C17 1_555 1_555
C2 C3 1_555 1_555
C7 C12 1_555 1_555
C11 C12 1_555 1_555
C14 C15 1_555 1_555
C15 C16 1_555 1_555

#END
