
#######################################################################
#
#                 Cambridge Crystallographic Data Centre
#                                CCDC 
#
#######################################################################
#
# If this CIF has been generated from an entry in the Cambridge 
# Structural Database, then it will include bibliographic, chemical, 
# crystal, experimental, refinement or atomic coordinate data resulting 
# from the CCDC's data processing and validation procedures.
#
#######################################################################

data_UPEXET
_chemical_formula_moiety         'C23 H19 N1 O2'
_chemical_name_systematic        
1-Benzyl-5-hydroxy-3,5-diphenyl-1,5-dihydro-2H-pyrrol-2-one
_symmetry_cell_setting           triclinic
_symmetry_space_group_name_H-M   'P -1'
_symmetry_Int_Tables_number      2
_space_group_name_Hall           '-P 1'
loop_
_symmetry_equiv_pos_site_id
_symmetry_equiv_pos_as_xyz
1 x,y,z
2 -x,-y,-z
_cell_length_a                   8.0436(16)
_cell_length_b                   10.604(2)
_cell_length_c                   11.289(2)
_cell_angle_alpha                110.89(3)
_cell_angle_beta                 95.92(3)
_cell_angle_gamma                99.62(3)
_cell_volume                     872.994
_exptl_crystal_colour            colorless
_exptl_crystal_description       'thin plate'
_cell_formula_units_Z            2
loop_
_atom_site_label
_atom_site_type_symbol
_atom_site_fract_x
_atom_site_fract_y
_atom_site_fract_z
O1 O 0.40033(18) 0.16133(14) 0.61578(13)
O2 O 0.53939(19) -0.00086(14) 0.23510(13)
H1 H 0.5562 -0.0515 0.2735
N1 N 0.4154(2) 0.13156(16) 0.40595(16)
C1 C 0.6744(2) 0.20596(19) 0.54333(19)
C2 C 0.7968(3) 0.25051(19) 0.66513(19)
C3 C 0.5252(2) 0.2263(2) 0.25111(19)
C4 C 0.4830(3) 0.16593(19) 0.53078(19)
C5 C 0.7454(3) 0.2971(2) 0.78407(19)
H2 H 0.6325 0.3050 0.7881
C6 C 0.7081(3) 0.1871(2) 0.4261(2)
H3 H 0.8180 0.2047 0.4083
C7 C 0.5475(3) 0.1337(2) 0.32508(19)
C8 C 0.2344(3) 0.0749(2) 0.3513(2)
H4 H 0.1774 0.0499 0.4139
H5 H 0.2235 -0.0092 0.2762
C9 C 0.0272(3) 0.1206(2) 0.1974(2)
H6 H 0.0069 0.0274 0.1445
C10 C 0.1431(2) 0.1712(2) 0.31217(19)
C11 C 0.8604(3) 0.3320(2) 0.8967(2)
H7 H 0.8242 0.3635 0.9757
C12 C 0.9678(3) 0.2418(2) 0.6625(2)
H8 H 1.0053 0.2127 0.5838
C13 C 0.1694(3) 0.3098(2) 0.3906(2)
H9 H 0.2440 0.3449 0.4692
C14 C -0.0287(3) 0.3456(3) 0.2379(2)
H10 H -0.0850 0.4042 0.2127
C15 C 1.0817(3) 0.2757(2) 0.7746(2)
H11 H 1.1949 0.2687 0.7709
C16 C 0.0846(3) 0.3968(2) 0.3524(2)
H12 H 0.1048 0.4902 0.4046
C17 C 0.5619(3) 0.3688(2) 0.3175(2)
H13 H 0.6029 0.4062 0.4058
C18 C 0.5376(3) 0.4552(2) 0.2529(2)
H14 H 0.5625 0.5505 0.2977
C19 C 0.4638(3) 0.1721(2) 0.1204(2)
H15 H 0.4382 0.0767 0.0753
C20 C -0.0588(3) 0.2069(3) 0.1604(2)
H16 H -0.1367 0.1716 0.0835
C21 C 0.4767(3) 0.3999(3) 0.1225(2)
H17 H 0.4602 0.4580 0.0792
C22 C 1.0288(3) 0.3203(2) 0.8927(2)
H18 H 1.1053 0.3421 0.9684
C23 C 0.4400(3) 0.2588(3) 0.0558(2)
H19 H 0.3994 0.2217 -0.0325
loop_
_geom_bond_atom_site_label_1
_geom_bond_atom_site_label_2
_geom_bond_site_symmetry_1
_geom_bond_site_symmetry_2
O1 C4 1_555 1_555
O2 H1 1_555 1_555
N1 C4 1_555 1_555
C1 C2 1_555 1_555
C2 C5 1_555 1_555
C3 C7 1_555 1_555
C4 C1 1_555 1_555
C5 H2 1_555 1_555
C6 C1 1_555 1_555
H3 C6 1_555 1_555
C7 O2 1_555 1_555
C8 N1 1_555 1_555
H4 C8 1_555 1_555
H5 C8 1_555 1_555
C9 H6 1_555 1_555
C10 C8 1_555 1_555
C11 C5 1_555 1_555
H7 C11 1_555 1_555
C12 C2 1_555 1_555
H8 C12 1_555 1_555
C13 C10 1_555 1_555
H9 C13 1_555 1_555
C14 H10 1_555 1_555
C15 C12 1_555 1_555
H11 C15 1_555 1_555
C16 C13 1_555 1_555
H12 C16 1_555 1_555
C17 C3 1_555 1_555
H13 C17 1_555 1_555
C18 C17 1_555 1_555
H14 C18 1_555 1_555
C19 C3 1_555 1_555
H15 C19 1_555 1_555
C20 C9 1_555 1_555
H16 C20 1_555 1_555
C21 C18 1_555 1_555
H17 C21 1_555 1_555
C22 C11 1_555 1_555
H18 C22 1_555 1_555
C23 C19 1_555 1_555
H19 C23 1_555 1_555
N1 C7 1_555 1_555
C6 C7 1_555 1_555
C9 C10 1_555 1_555
C14 C16 1_555 1_555
C14 C20 1_555 1_555
C15 C22 1_555 1_555
C21 C23 1_555 1_555

#END
