
#######################################################################
#
#                 Cambridge Crystallographic Data Centre
#                                CCDC 
#
#######################################################################
#
# If this CIF has been generated from an entry in the Cambridge 
# Structural Database, then it will include bibliographic, chemical, 
# crystal, experimental, refinement or atomic coordinate data resulting 
# from the CCDC's data processing and validation procedures.
#
#######################################################################

data_UPEXIX
_chemical_formula_moiety         'C24 H21 N1 O2'
_chemical_name_systematic        
1-Benzyl-3-methoxy-3,5-diphenyl-1,3-dihydro-2H-pyrrol-2-one
_symmetry_cell_setting           monoclinic
_symmetry_space_group_name_H-M   'P 21/c'
_symmetry_Int_Tables_number      14
_space_group_name_Hall           '-P 2ybc'
loop_
_symmetry_equiv_pos_site_id
_symmetry_equiv_pos_as_xyz
1 x,y,z
2 -x,1/2+y,1/2-z
3 -x,-y,-z
4 x,1/2-y,1/2+z
_cell_length_a                   8.5467(17)
_cell_length_b                   10.490(2)
_cell_length_c                   21.228(4)
_cell_angle_alpha                90
_cell_angle_beta                 101.57(3)
_cell_angle_gamma                90
_cell_volume                     1864.52
_exptl_crystal_colour            colorless
_exptl_crystal_description       prism
_cell_formula_units_Z            4
loop_
_atom_site_label
_atom_site_type_symbol
_atom_site_fract_x
_atom_site_fract_y
_atom_site_fract_z
O1 O 0.16964(15) 0.91413(13) 0.17686(6)
O2 O 0.04978(16) 0.64884(13) 0.15790(6)
N1 N 0.16224(17) 0.86344(14) 0.28183(7)
C1 C 0.1207(2) 0.84959(17) 0.21645(8)
C2 C 0.0965(2) 0.76026(17) 0.31245(8)
C3 C -0.1624(2) 0.78457(17) 0.17162(8)
C4 C 0.4348(2) 0.87963(19) 0.34965(9)
C5 C 0.1051(2) 0.8525(2) 0.42262(9)
H1 H 0.0877 0.9338 0.4052
C6 C 0.0034(2) 0.73551(18) 0.20254(9)
C7 C 0.2903(2) 0.94863(18) 0.31256(9)
H2 H 0.2493 1.0050 0.3416
H3 H 0.3230 1.0009 0.2798
C8 C 0.0105(2) 0.68405(18) 0.26892(9)
H4 H -0.0385 0.6092 0.2783
C9 C 0.1190(2) 0.74966(18) 0.38302(8)
C10 C -0.2173(2) 0.7803(2) 0.10594(10)
H5 H -0.1530 0.7460 0.0797
C11 C -0.2603(3) 0.8375(2) 0.20882(10)
H6 H -0.2259 0.8406 0.2532
C12 C 0.1459(3) 0.6294(2) 0.41043(9)
H7 H 0.1566 0.5595 0.3847
C13 C 0.4921(2) 0.7691(2) 0.32699(11)
H8 H 0.4385 0.7341 0.2884
C14 C 0.1170(3) 0.8346(2) 0.48779(10)
H9 H 0.1074 0.9041 0.5140
C15 C 0.5158(2) 0.9288(2) 0.40766(10)
H10 H 0.4790 1.0027 0.4241
C16 C -0.3671(3) 0.8266(2) 0.07879(10)
H11 H -0.4033 0.8224 0.0345
C17 C -0.4623(3) 0.8786(2) 0.11677(12)
H12 H -0.5635 0.9087 0.0984
C18 C 0.1429(3) 0.7150(2) 0.51439(10)
H13 H 0.1508 0.7035 0.5584
C19 C -0.4082(3) 0.8860(3) 0.18154(11)
H14 H -0.4711 0.9238 0.2074
C20 C 0.1568(3) 0.6132(2) 0.47579(10)
H15 H 0.1738 0.5322 0.4936
C21 C 0.6278(3) 0.7095(3) 0.36067(12)
H16 H 0.6653 0.6357 0.3445
C22 C 0.2095(3) 0.6041(2) 0.17549(10)
H17 H 0.2314 0.5468 0.1431
H18 H 0.2233 0.5602 0.2159
H19 H 0.2816 0.6751 0.1794
C23 C 0.6511(3) 0.8685(3) 0.44121(11)
H20 H 0.7050 0.9022 0.4801
C24 C 0.7063(3) 0.7594(3) 0.41757(12)
H21 H 0.7974 0.7194 0.4404
loop_
_geom_bond_atom_site_label_1
_geom_bond_atom_site_label_2
_geom_bond_site_symmetry_1
_geom_bond_site_symmetry_2
O1 C1 1_555 1_555
O2 C6 1_555 1_555
N1 C1 1_555 1_555
C1 C6 1_555 1_555
C2 N1 1_555 1_555
C3 C6 1_555 1_555
C4 C7 1_555 1_555
C5 H1 1_555 1_555
C6 C8 1_555 1_555
C7 N1 1_555 1_555
H2 C7 1_555 1_555
H3 C7 1_555 1_555
C8 C2 1_555 1_555
H4 C8 1_555 1_555
C9 C2 1_555 1_555
C10 C3 1_555 1_555
H5 C10 1_555 1_555
C11 C3 1_555 1_555
H6 C11 1_555 1_555
C12 C9 1_555 1_555
H7 C12 1_555 1_555
C13 C4 1_555 1_555
H8 C13 1_555 1_555
C14 C5 1_555 1_555
H9 C14 1_555 1_555
C15 C4 1_555 1_555
H10 C15 1_555 1_555
C16 C10 1_555 1_555
H11 C16 1_555 1_555
C17 C16 1_555 1_555
H12 C17 1_555 1_555
C18 C14 1_555 1_555
H13 C18 1_555 1_555
C19 C11 1_555 1_555
H14 C19 1_555 1_555
C20 C12 1_555 1_555
H15 C20 1_555 1_555
C21 C13 1_555 1_555
H16 C21 1_555 1_555
C22 O2 1_555 1_555
H17 C22 1_555 1_555
H18 C22 1_555 1_555
H19 C22 1_555 1_555
C23 C15 1_555 1_555
H20 C23 1_555 1_555
C24 C21 1_555 1_555
H21 C24 1_555 1_555
C5 C9 1_555 1_555
C17 C19 1_555 1_555
C18 C20 1_555 1_555
C23 C24 1_555 1_555

#END
