
#######################################################################
#
#                 Cambridge Crystallographic Data Centre
#                                CCDC 
#
#######################################################################
#
# If this CIF has been generated from an entry in the Cambridge 
# Structural Database, then it will include bibliographic, chemical, 
# crystal, experimental, refinement or atomic coordinate data resulting 
# from the CCDC's data processing and validation procedures.
#
#######################################################################

data_UPIDOO
_chemical_formula_moiety         'C34 H29 N1 O2,0.5(C1 H4 O1)'
_chemical_name_systematic        
'2-(1-ethyl-2,6-bis(2-(4-methylphenyl)vinyl)pyridin-4(1H)-ylidene)-1H-indene-1,3(2H)-dione methanol solvate'
_symmetry_cell_setting           monoclinic
_symmetry_space_group_name_H-M   'P 21/c'
_symmetry_Int_Tables_number      14
_space_group_name_Hall           '-P 2ybc'
loop_
_symmetry_equiv_pos_site_id
_symmetry_equiv_pos_as_xyz
1 x,y,z
2 -x,1/2+y,1/2-z
3 -x,-y,-z
4 x,1/2-y,1/2+z
_cell_length_a                   8.9842(17)
_cell_length_b                   25.762(4)
_cell_length_c                   15.533(2)
_cell_angle_alpha                90
_cell_angle_beta                 124.280(7)
_cell_angle_gamma                90
_cell_volume                     2970.64
_exptl_crystal_description       Block
_cell_formula_units_Z            4
loop_
_atom_site_label
_atom_site_type_symbol
_atom_site_fract_x
_atom_site_fract_y
_atom_site_fract_z
O1 O 0.6541(4) 0.82647(8) 1.00404(19)
O2 O 0.6974(4) 0.88554(8) 0.73055(18)
N1 N 0.7840(3) 1.02732(8) 1.00563(19)
C1 C 0.6463(4) 0.80187(11) 0.7785(2)
C2 C 0.6280(5) 0.76811(13) 0.7039(3)
H1 H 0.6377 0.7798 0.6506
C3 C 0.5949(5) 0.71633(14) 0.7110(3)
H2 H 0.5832 0.6928 0.6621
C4 C 0.5792(6) 0.69925(14) 0.7893(4)
H3 H 0.5550 0.6644 0.7918
C5 C 0.5986(5) 0.73289(12) 0.8647(3)
H4 H 0.5886 0.7211 0.9178
C6 C 0.6334(4) 0.78469(11) 0.8586(2)
C7 C 0.6563(4) 0.82990(11) 0.9257(2)
C8 C 0.6809(4) 0.87547(10) 0.8790(2)
C9 C 0.6778(4) 0.85956(11) 0.7897(2)
C10 C 0.7093(3) 0.92708(10) 0.9191(2)
C11 C 0.7109(4) 0.93926(11) 1.0083(2)
H5 H 0.6871 0.9130 1.0400
C12 C 0.7462(4) 0.98813(11) 1.0501(2)
C13 C 0.7738(4) 1.01864(10) 0.9152(2)
C14 C 0.7370(4) 0.96962(10) 0.8725(2)
H6 H 0.7302 0.9644 0.8112
C15 C 0.7415(4) 0.99911(12) 1.1417(2)
H7 H 0.7113 1.0324 1.1497
C16 C 0.7779(4) 0.96403(12) 1.2128(2)
H8 H 0.8120 0.9315 1.2038
C17 C 0.7712(4) 0.97023(11) 1.3043(2)
C18 C 0.8216(5) 0.92955(13) 1.3724(3)
H9 H 0.8594 0.8988 1.3591
C19 C 0.8183(5) 0.93277(14) 1.4608(3)
H10 H 0.8515 0.9042 1.5046
C20 C 0.7665(4) 0.97779(13) 1.4834(2)
C21 C 0.7124(5) 1.01876(13) 1.4148(3)
H11 H 0.6748 1.0494 1.4286
C22 C 0.7125(4) 1.01550(12) 1.3260(2)
H12 H 0.6733 1.0436 1.2805
C23 C 0.7655(5) 0.98190(16) 1.5810(3)
H13 H 0.7570 0.9478 1.6028
H14 H 0.6641 1.0023 1.5661
H15 H 0.8748 0.9982 1.6357
C24 C 0.8088(4) 1.06177(11) 0.8676(2)
H16 H 0.8972 1.0856 0.9117
C25 C 0.7222(4) 1.06911(11) 0.7649(2)
H17 H 0.6289 1.0464 0.7214
C26 C 0.7619(4) 1.10980(10) 0.7157(2)
C27 C 0.6504(5) 1.11556(12) 0.6067(2)
H18 H 0.5517 1.0937 0.5678
C28 C 0.6849(5) 1.15321(14) 0.5564(3)
H19 H 0.6093 1.1562 0.4843
C29 C 0.8302(5) 1.18644(13) 0.6119(3)
C30 C 0.9388(5) 1.18054(13) 0.7189(3)
H20 H 1.0373 1.2025 0.7578
C31 C 0.9063(4) 1.14336(11) 0.7699(3)
H21 H 0.9827 1.1408 0.8420
C32 C 0.8678(8) 1.22752(19) 0.5569(4)
H22 H 0.7874 1.2230 0.4829
H23 H 0.9900 1.2243 0.5772
H24 H 0.8500 1.2613 0.5757
C33 C 0.8477(5) 1.07889(12) 1.0581(3)
H25 H 0.8947 1.0753 1.1314
H26 H 0.9442 1.0914 1.0529
C34 C 0.6970(6) 1.11699(16) 1.0089(4)
H27 H 0.6532 1.1214 0.9369
H28 H 0.7392 1.1497 1.0442
H29 H 0.6013 1.1045 1.0137
O3 O -0.069(2) 0.8634(5) 0.6755(14)
H30 H -0.0035 0.8888 0.6924
C35 C 0.024(4) 0.8190(4) 0.6798(13)
H31 H 0.0320 0.7951 0.7297
H32 H 0.1429 0.8285 0.7002
H33 H -0.0391 0.8028 0.6124
loop_
_geom_bond_atom_site_label_1
_geom_bond_atom_site_label_2
_geom_bond_site_symmetry_1
_geom_bond_site_symmetry_2
O1 C7 1_555 1_555
O2 C9 1_555 1_555
N1 C12 1_555 1_555
C1 C2 1_555 1_555
C2 H1 1_555 1_555
C3 C2 1_555 1_555
H2 C3 1_555 1_555
C4 C3 1_555 1_555
H3 C4 1_555 1_555
C5 C4 1_555 1_555
H4 C5 1_555 1_555
C6 C1 1_555 1_555
C7 C6 1_555 1_555
C8 C7 1_555 1_555
C9 C1 1_555 1_555
C10 C8 1_555 1_555
C11 C10 1_555 1_555
H5 C11 1_555 1_555
C12 C11 1_555 1_555
C13 N1 1_555 1_555
C14 C10 1_555 1_555
H6 C14 1_555 1_555
C15 C12 1_555 1_555
H7 C15 1_555 1_555
C16 C15 1_555 1_555
H8 C16 1_555 1_555
C17 C16 1_555 1_555
C18 C17 1_555 1_555
H9 C18 1_555 1_555
C19 C18 1_555 1_555
H10 C19 1_555 1_555
C20 C19 1_555 1_555
C21 C20 1_555 1_555
H11 C21 1_555 1_555
C22 C17 1_555 1_555
H12 C22 1_555 1_555
C23 C20 1_555 1_555
H13 C23 1_555 1_555
H14 C23 1_555 1_555
H15 C23 1_555 1_555
C24 C13 1_555 1_555
H16 C24 1_555 1_555
C25 C24 1_555 1_555
H17 C25 1_555 1_555
C26 C25 1_555 1_555
C27 C26 1_555 1_555
H18 C27 1_555 1_555
C28 C27 1_555 1_555
H19 C28 1_555 1_555
C29 C28 1_555 1_555
C30 C29 1_555 1_555
H20 C30 1_555 1_555
C31 C26 1_555 1_555
H21 C31 1_555 1_555
C32 C29 1_555 1_555
H22 C32 1_555 1_555
H23 C32 1_555 1_555
H24 C32 1_555 1_555
C33 N1 1_555 1_555
H25 C33 1_555 1_555
H26 C33 1_555 1_555
C34 C33 1_555 1_555
H27 C34 1_555 1_555
H28 C34 1_555 1_555
H29 C34 1_555 1_555
O3 H30 1_555 1_555
C35 O3 1_555 1_555
H31 C35 1_555 1_555
H32 C35 1_555 1_555
H33 C35 1_555 1_555
C5 C6 1_555 1_555
C8 C9 1_555 1_555
C13 C14 1_555 1_555
C21 C22 1_555 1_555
C30 C31 1_555 1_555

#END
