
#######################################################################
#
#                 Cambridge Crystallographic Data Centre
#                                CCDC 
#
#######################################################################
#
# If this CIF has been generated from an entry in the Cambridge 
# Structural Database, then it will include bibliographic, chemical, 
# crystal, experimental, refinement or atomic coordinate data resulting 
# from the CCDC's data processing and validation procedures.
#
#######################################################################

data_UPIFEG
_chemical_formula_moiety         'C12 H20 O5'
_chemical_name_systematic        
4,5-dihydroxy-3,3,10-trimethyloxecane-2,7-dione
_symmetry_cell_setting           orthorhombic
_symmetry_space_group_name_H-M   'P b c n'
_symmetry_Int_Tables_number      60
_space_group_name_Hall           '-P 2n 2ab'
loop_
_symmetry_equiv_pos_site_id
_symmetry_equiv_pos_as_xyz
1 x,y,z
2 1/2-x,1/2-y,1/2+z
3 1/2+x,1/2-y,-z
4 -x,y,1/2-z
5 -x,-y,-z
6 1/2+x,1/2+y,1/2-z
7 1/2-x,1/2+y,z
8 x,-y,1/2+z
_cell_length_a                   16.80683(18)
_cell_length_b                   14.18677(16)
_cell_length_c                   10.38483(11)
_cell_angle_alpha                90
_cell_angle_beta                 90
_cell_angle_gamma                90
_cell_volume                     2476.1
_exptl_crystal_colour            colorless
_exptl_crystal_description       needle
_cell_formula_units_Z            8
loop_
_atom_site_label
_atom_site_type_symbol
_atom_site_fract_x
_atom_site_fract_y
_atom_site_fract_z
O1 O 0.27574(4) 0.34376(5) 0.49065(7)
O2 O 0.22029(5) 0.26514(6) 0.32519(8)
O3 O 0.06971(4) 0.47147(5) 0.60149(7)
H1 H 0.0768 0.4646 0.6810
O4 O 0.09332(4) 0.55544(5) 0.36217(7)
H2 H 0.0501 0.5498 0.4021
O5 O 0.31118(5) 0.55518(6) 0.55371(8)
C1 C 0.21370(6) 0.31516(7) 0.41862(10)
C2 C 0.13475(6) 0.34980(7) 0.47361(10)
C3 C 0.14207(6) 0.44957(7) 0.53426(9)
H3 H 0.1857 0.4469 0.5996
C4 C 0.15824(6) 0.53506(7) 0.44742(10)
H4 H 0.1645 0.5909 0.5053
C5 C 0.23289(6) 0.52933(7) 0.36543(10)
H5 H 0.2300 0.4722 0.3109
H6 H 0.2347 0.5847 0.3075
C6 C 0.30902(6) 0.52613(7) 0.44362(10)
C7 C 0.38328(6) 0.48992(8) 0.37770(11)
H7 H 0.4291 0.4989 0.4362
H8 H 0.3930 0.5283 0.2996
C8 C 0.37926(6) 0.38542(8) 0.33862(10)
H9 H 0.3404 0.3787 0.2675
H10 H 0.4320 0.3662 0.3052
C9 C 0.35580(6) 0.31863(8) 0.44654(11)
H11 H 0.3556 0.2524 0.4135
C10 C 0.40748(7) 0.32440(10) 0.56526(11)
H12 H 0.4048 0.3882 0.6011
H13 H 0.4626 0.3097 0.5422
H14 H 0.3886 0.2790 0.6295
C11 C 0.11514(7) 0.28006(7) 0.58352(10)
H15 H 0.1146 0.2156 0.5496
H16 H 0.0628 0.2952 0.6196
H17 H 0.1556 0.2852 0.6511
C12 C 0.07132(6) 0.34317(8) 0.36874(10)
H18 H 0.0884 0.3794 0.2933
H19 H 0.0211 0.3689 0.4012
H20 H 0.0638 0.2770 0.3444
loop_
_geom_bond_atom_site_label_1
_geom_bond_atom_site_label_2
_geom_bond_site_symmetry_1
_geom_bond_site_symmetry_2
O1 C1 1_555 1_555
O2 C1 1_555 1_555
O3 H1 1_555 1_555
O4 H2 1_555 1_555
O5 C6 1_555 1_555
C1 C2 1_555 1_555
C2 C3 1_555 1_555
C3 O3 1_555 1_555
H3 C3 1_555 1_555
C4 O4 1_555 1_555
H4 C4 1_555 1_555
C5 C4 1_555 1_555
H5 C5 1_555 1_555
H6 C5 1_555 1_555
C6 C5 1_555 1_555
C7 C6 1_555 1_555
H7 C7 1_555 1_555
H8 C7 1_555 1_555
C8 C7 1_555 1_555
H9 C8 1_555 1_555
H10 C8 1_555 1_555
C9 O1 1_555 1_555
H11 C9 1_555 1_555
C10 C9 1_555 1_555
H12 C10 1_555 1_555
H13 C10 1_555 1_555
H14 C10 1_555 1_555
C11 C2 1_555 1_555
H15 C11 1_555 1_555
H16 C11 1_555 1_555
H17 C11 1_555 1_555
C12 C2 1_555 1_555
H18 C12 1_555 1_555
H19 C12 1_555 1_555
H20 C12 1_555 1_555
C3 C4 1_555 1_555
C8 C9 1_555 1_555

#END
