
#######################################################################
#
#                 Cambridge Crystallographic Data Centre
#                                CCDC 
#
#######################################################################
#
# If this CIF has been generated from an entry in the Cambridge 
# Structural Database, then it will include bibliographic, chemical, 
# crystal, experimental, refinement or atomic coordinate data resulting 
# from the CCDC's data processing and validation procedures.
#
#######################################################################

data_UPIWUM
_chemical_formula_moiety         'C14 H9 Br1 Cl2 N2 O2,C1 H4 O1'
_chemical_name_systematic        
"N'-(3-Bromo-5-chloro-2-hydroxybenzylidene)-4-chlorobenzohydrazide methanol solvate"
_symmetry_cell_setting           triclinic
_symmetry_space_group_name_H-M   'P -1'
_symmetry_Int_Tables_number      2
_space_group_name_Hall           '-P 1'
loop_
_symmetry_equiv_pos_site_id
_symmetry_equiv_pos_as_xyz
1 x,y,z
2 -x,-y,-z
_cell_length_a                   7.462(1)
_cell_length_b                   9.281(2)
_cell_length_c                   12.626(1)
_cell_angle_alpha                98.451(2)
_cell_angle_beta                 98.630(2)
_cell_angle_gamma                100.025(2)
_cell_volume                     837.75
_exptl_crystal_colour            colorless
_exptl_crystal_description       block
_cell_formula_units_Z            2
loop_
_atom_site_label
_atom_site_type_symbol
_atom_site_fract_x
_atom_site_fract_y
_atom_site_fract_z
Br1 Br 0.35221(6) 1.38198(5) 0.06087(4)
Cl1 Cl 0.10819(15) 0.50471(10) 0.77275(7)
Cl2 Cl -0.37261(13) 1.17050(12) -0.13141(7)
O1 O 0.2520(3) 1.1777(3) 0.21318(17)
H1 H 0.2244 1.1199 0.2541
O2 O 0.3144(3) 0.9548(3) 0.4263(2)
N1 N 0.0360(3) 0.9843(2) 0.28669(17)
N2 N 0.0091(3) 0.8973(3) 0.36365(18)
C1 C -0.0709(4) 1.0856(3) 0.1342(2)
C2 C 0.1025(4) 1.1739(3) 0.1372(2)
C3 C 0.1200(4) 1.2626(3) 0.0581(2)
C4 C -0.0246(5) 1.2637(3) -0.0220(2)
H3 H -0.0091 1.3244 -0.0737
C5 C -0.1926(4) 1.1743(3) -0.0251(2)
C6 C -0.2165(4) 1.0865(3) 0.0525(2)
H4 H -0.3316 1.0272 0.0500
C7 C -0.1005(4) 0.9906(3) 0.2145(2)
H5 H -0.2175 0.9351 0.2133
C8 C 0.1625(4) 0.8891(3) 0.4338(2)
C9 C 0.1381(4) 0.7947(3) 0.5187(2)
C10 C 0.2960(4) 0.7892(3) 0.5907(2)
H6 H 0.4095 0.8452 0.5854
C11 C 0.2868(4) 0.7013(3) 0.6700(2)
H7 H 0.3926 0.6977 0.7181
C12 C 0.1193(4) 0.6203(3) 0.6762(2)
C13 C -0.0396(4) 0.6262(3) 0.6085(3)
H8 H -0.1528 0.5718 0.6157
C14 C -0.0297(4) 0.7143(3) 0.5289(2)
H9 H -0.1368 0.7191 0.4824
H13 H -0.107(2) 0.852(4) 0.365(3)
O3 O 0.6160(3) 0.7996(2) 0.3647(2)
H2 H 0.5710 0.8601 0.4009
C15 C 0.5029(5) 0.6593(4) 0.3489(3)
H10 H 0.5041 0.6260 0.4174
H11 H 0.5478 0.5908 0.2998
H12 H 0.3787 0.6644 0.3186
loop_
_geom_bond_atom_site_label_1
_geom_bond_atom_site_label_2
_geom_bond_site_symmetry_1
_geom_bond_site_symmetry_2
Br1 C3 1_555 1_555
Cl1 C12 1_555 1_555
Cl2 C5 1_555 1_555
O1 H1 1_555 1_555
O2 C8 1_555 1_555
O3 H2 1_555 1_555
N1 N2 1_555 1_555
N2 C8 1_555 1_555
C1 C2 1_555 1_555
C2 O1 1_555 1_555
C3 C2 1_555 1_555
C4 C3 1_555 1_555
H3 C4 1_555 1_555
C5 C4 1_555 1_555
C6 C1 1_555 1_555
H4 C6 1_555 1_555
C7 N1 1_555 1_555
H5 C7 1_555 1_555
C8 C9 1_555 1_555
C9 C10 1_555 1_555
C10 H6 1_555 1_555
C11 C10 1_555 1_555
H7 C11 1_555 1_555
C12 C11 1_555 1_555
C13 C12 1_555 1_555
H8 C13 1_555 1_555
C14 C9 1_555 1_555
H9 C14 1_555 1_555
C15 O3 1_555 1_555
H10 C15 1_555 1_555
H11 C15 1_555 1_555
H12 C15 1_555 1_555
H13 N2 1_555 1_555
C1 C7 1_555 1_555
C5 C6 1_555 1_555
C13 C14 1_555 1_555

#END
