
#######################################################################
#
#                 Cambridge Crystallographic Data Centre
#                                CCDC 
#
#######################################################################
#
# If this CIF has been generated from an entry in the Cambridge 
# Structural Database, then it will include bibliographic, chemical, 
# crystal, experimental, refinement or atomic coordinate data resulting 
# from the CCDC's data processing and validation procedures.
#
#######################################################################

data_UPOJEQ
_chemical_formula_moiety         'C32 H25 Cl1 N2 O7 S1'
_chemical_name_systematic        
"Methyl 3-(2-(1'-benzyl-3-nitro-2'-oxo-5-(2-thienyl)-1',2',4,5-tetrahydro-3H-spiro[furan-2,3'-indol]-4-yl)-4-chlorophenoxy)acrylate"
_symmetry_cell_setting           triclinic
_symmetry_space_group_name_H-M   'P -1'
_symmetry_Int_Tables_number      2
_space_group_name_Hall           '-P 1'
loop_
_symmetry_equiv_pos_site_id
_symmetry_equiv_pos_as_xyz
1 x,y,z
2 -x,-y,-z
_cell_length_a                   10.6364(8)
_cell_length_b                   12.0676(9)
_cell_length_c                   13.0653(10)
_cell_angle_alpha                77.597(2)
_cell_angle_beta                 66.646(2)
_cell_angle_gamma                80.522(2)
_cell_volume                     1497.76
_exptl_crystal_colour            colorless
_exptl_crystal_description       block
_cell_formula_units_Z            2
loop_
_atom_site_label
_atom_site_type_symbol
_atom_site_fract_x
_atom_site_fract_y
_atom_site_fract_z
S1 S 0.91982(9) 0.94436(8) 0.38382(8)
Cl1 Cl 1.11880(11) 0.36322(8) 0.21850(9)
N1 N 1.3203(3) 0.7995(2) 0.4334(2)
N2 N 1.5583(2) 0.86289(19) 0.07825(19)
O1 O 1.4787(2) 0.4672(2) 0.7011(2)
O2 O 1.3756(2) 0.59954(17) 0.80927(17)
O3 O 1.2079(2) 0.58680(15) 0.53541(15)
O4 O 1.4291(3) 0.7831(2) 0.4463(2)
O5 O 1.2171(3) 0.85070(19) 0.49227(19)
O6 O 1.4209(2) 0.72827(16) 0.09025(16)
O7 O 1.21539(17) 0.89634(13) 0.22535(14)
C1 C 1.1915(3) 0.4117(2) 0.4800(3)
H1 H 1.2065 0.3678 0.5426
C2 C 1.1691(3) 0.3610(2) 0.4046(3)
H2 H 1.1690 0.2823 0.4156
C3 C 1.1470(3) 0.4275(2) 0.3134(3)
C4 C 1.1473(3) 0.5444(2) 0.2947(2)
H3 H 1.1321 0.5879 0.2320
C5 C 1.1702(2) 0.5971(2) 0.3692(2)
C6 C 1.1914(3) 0.5284(2) 0.4612(2)
C7 C 1.2933(3) 0.5417(2) 0.5910(2)
H4 H 1.3519 0.4770 0.5709
C8 C 1.2944(3) 0.5880(2) 0.6723(2)
H5 H 1.2317 0.6497 0.6957
C9 C 1.3921(3) 0.5443(2) 0.7265(2)
C10 C 1.4659(4) 0.5612(3) 0.8705(3)
H6 H 1.4446 0.6074 0.9276
H7 H 1.5595 0.5676 0.8192
H8 H 1.4535 0.4832 0.9055
C11 C 1.9240(3) 0.8300(3) -0.0774(3)
H9 H 1.9266 0.8982 -0.1273
C12 C 2.0455(4) 0.7718(5) -0.0708(5)
H10 H 2.1291 0.8011 -0.1165
C13 C 2.0429(5) 0.6722(5) 0.0020(5)
H11 H 2.1244 0.6339 0.0066
C14 C 1.9227(5) 0.6295(3) 0.0670(3)
H12 H 1.9210 0.5608 0.1160
C15 C 1.8017(3) 0.6865(3) 0.0619(3)
H13 H 1.7188 0.6563 0.1085
C16 C 1.8009(3) 0.7871(2) -0.0107(2)
C17 C 1.6717(3) 0.8433(3) -0.0263(2)
H14 H 1.6915 0.9158 -0.0761
H15 H 1.6432 0.7961 -0.0633
C18 C 1.4439(3) 0.8054(2) 0.1248(2)
C19 C 1.3459(2) 0.8557(2) 0.2319(2)
C20 C 1.4206(3) 0.9528(2) 0.2275(2)
C21 C 1.3809(3) 1.0376(2) 0.2928(3)
H16 H 1.2970 1.0386 0.3535
C22 C 1.4688(4) 1.1213(2) 0.2661(3)
H17 H 1.4446 1.1787 0.3097
C23 C 1.5906(4) 1.1199(3) 0.1762(3)
H18 H 1.6479 1.1772 0.1596
C24 C 1.6325(3) 1.0362(3) 0.1086(3)
H19 H 1.7159 1.0363 0.0474
C25 C 1.5445(3) 0.9530(2) 0.1365(2)
C26 C 1.3172(2) 0.7571(2) 0.3344(2)
H20 H 1.3859 0.6922 0.3154
C27 C 1.1742(2) 0.72487(19) 0.3556(2)
H21 H 1.1108 0.7487 0.4269
C28 C 1.1337(2) 0.8007(2) 0.2604(2)
H22 H 1.1589 0.7592 0.1973
C29 C 0.9856(3) 0.8455(2) 0.2949(2)
C30 C 0.8869(3) 0.8165(3) 0.2649(3)
H23 H 0.9024 0.7662 0.2154
C31 C 0.7569(3) 0.8750(3) 0.3209(3)
H24 H 0.6765 0.8647 0.3131
C32 C 0.7606(3) 0.9450(3) 0.3846(3)
H25 H 0.6843 0.9895 0.4251
loop_
_geom_bond_atom_site_label_1
_geom_bond_atom_site_label_2
_geom_bond_site_symmetry_1
_geom_bond_site_symmetry_2
S1 C29 1_555 1_555
Cl1 C3 1_555 1_555
N1 O4 1_555 1_555
N2 C17 1_555 1_555
O1 C9 1_555 1_555
O2 C9 1_555 1_555
O3 C6 1_555 1_555
O5 N1 1_555 1_555
O6 C18 1_555 1_555
O7 C19 1_555 1_555
C1 H1 1_555 1_555
C2 C1 1_555 1_555
H2 C2 1_555 1_555
C3 C2 1_555 1_555
C4 C3 1_555 1_555
H3 C4 1_555 1_555
C5 C4 1_555 1_555
C6 C1 1_555 1_555
C7 O3 1_555 1_555
H4 C7 1_555 1_555
C8 C7 1_555 1_555
H5 C8 1_555 1_555
C9 C8 1_555 1_555
C10 O2 1_555 1_555
H6 C10 1_555 1_555
H7 C10 1_555 1_555
H8 C10 1_555 1_555
C11 H9 1_555 1_555
C12 C11 1_555 1_555
H10 C12 1_555 1_555
C13 C12 1_555 1_555
H11 C13 1_555 1_555
C14 C13 1_555 1_555
H12 C14 1_555 1_555
C15 C14 1_555 1_555
H13 C15 1_555 1_555
C16 C11 1_555 1_555
C17 C16 1_555 1_555
H14 C17 1_555 1_555
H15 C17 1_555 1_555
C18 N2 1_555 1_555
C19 C18 1_555 1_555
C20 C19 1_555 1_555
C21 C20 1_555 1_555
H16 C21 1_555 1_555
C22 C21 1_555 1_555
H17 C22 1_555 1_555
C23 C22 1_555 1_555
H18 C23 1_555 1_555
C24 C23 1_555 1_555
H19 C24 1_555 1_555
C25 N2 1_555 1_555
C26 N1 1_555 1_555
H20 C26 1_555 1_555
C27 C5 1_555 1_555
H21 C27 1_555 1_555
C28 O7 1_555 1_555
H22 C28 1_555 1_555
C29 C28 1_555 1_555
C30 C29 1_555 1_555
H23 C30 1_555 1_555
C31 C30 1_555 1_555
H24 C31 1_555 1_555
C32 S1 1_555 1_555
H25 C32 1_555 1_555
C5 C6 1_555 1_555
C15 C16 1_555 1_555
C19 C26 1_555 1_555
C20 C25 1_555 1_555
C24 C25 1_555 1_555
C26 C27 1_555 1_555
C27 C28 1_555 1_555
C31 C32 1_555 1_555

#END
