
#######################################################################
#
#                 Cambridge Crystallographic Data Centre
#                                CCDC 
#
#######################################################################
#
# If this CIF has been generated from an entry in the Cambridge 
# Structural Database, then it will include bibliographic, chemical, 
# crystal, experimental, refinement or atomic coordinate data resulting 
# from the CCDC's data processing and validation procedures.
#
#######################################################################

data_UPOJOA
_chemical_formula_moiety         'C35 H30 N2 O8'
_chemical_name_systematic        
"Methyl 3-(2-(1'-benzyl-3-nitro-2'-oxo-4-phenyl-1',2',4,5-tetrahydro-3H-spiro[furan-2,3'-indol]-5-yl)-6-methoxyphenoxy)acrylate"
_symmetry_cell_setting           monoclinic
_symmetry_space_group_name_H-M   'P 21/c'
_symmetry_Int_Tables_number      14
_space_group_name_Hall           '-P 2ybc'
loop_
_symmetry_equiv_pos_site_id
_symmetry_equiv_pos_as_xyz
1 x,y,z
2 -x,1/2+y,1/2-z
3 -x,-y,-z
4 x,1/2-y,1/2+z
_cell_length_a                   9.4057(3)
_cell_length_b                   21.7495(8)
_cell_length_c                   15.2284(5)
_cell_angle_alpha                90
_cell_angle_beta                 107.8470(10)
_cell_angle_gamma                90
_cell_volume                     2965.35
_exptl_crystal_colour            colorless
_exptl_crystal_description       block
_cell_formula_units_Z            4
loop_
_atom_site_label
_atom_site_type_symbol
_atom_site_fract_x
_atom_site_fract_y
_atom_site_fract_z
O1 O 0.4044(2) 0.42470(9) 0.48650(13)
O2 O 0.5701(2) 0.43543(8) 0.40913(13)
O3 O -0.0382(2) 0.53864(8) 0.37223(11)
O4 O 0.09817(18) 0.49945(7) 0.24781(10)
O5 O -0.2278(2) 0.24793(9) -0.02157(14)
O6 O 0.0082(2) 0.25560(8) 0.04762(12)
O7 O -0.14365(18) 0.44302(7) -0.01264(10)
O8 O -0.4424(2) 0.38578(9) -0.08868(12)
N1 N -0.1164(3) 0.27691(9) 0.02063(14)
N2 N -0.3287(2) 0.35597(9) -0.19582(13)
C1 C -0.4456(3) 0.23150(13) -0.25497(18)
H1 H -0.4063 0.2368 -0.1915
C2 C -0.4664(3) 0.17286(13) -0.2912(2)
H2 H -0.4413 0.1390 -0.2522
C3 C -0.5243(3) 0.16457(14) -0.3847(2)
H3 H -0.5386 0.1251 -0.4094
C4 C -0.5607(3) 0.21453(15) -0.4413(2)
H4 H -0.5999 0.2090 -0.5047
C5 C -0.5400(3) 0.27303(14) -0.40533(18)
H5 H -0.5652 0.3067 -0.4447
C6 C -0.4822(3) 0.28232(12) -0.31151(17)
C7 C -0.4621(3) 0.34698(12) -0.27414(16)
H6 H -0.4581 0.3747 -0.3232
H7 H -0.5488 0.3580 -0.2558
C8 C -0.3320(3) 0.37588(11) -0.11178(17)
C9 C -0.1694(3) 0.38239(10) -0.04963(14)
C10 C -0.0809(3) 0.36631(10) -0.11346(15)
C11 C -0.1809(3) 0.34994(10) -0.19864(16)
C12 C -0.1336(4) 0.33212(12) -0.27141(17)
H8 H -0.2014 0.3205 -0.3274
C13 C 0.0186(4) 0.33200(12) -0.25858(19)
H9 H 0.0535 0.3197 -0.3067
C14 C 0.1195(3) 0.34975(12) -0.17603(19)
H10 H 0.2212 0.3499 -0.1692
C15 C 0.0692(3) 0.36739(11) -0.10284(16)
H11 H 0.1368 0.3798 -0.0472
C16 C -0.1359(3) 0.47117(10) 0.14282(15)
C17 C -0.2905(3) 0.47211(11) 0.11714(17)
H12 H -0.3463 0.4581 0.0591
C18 C -0.3609(3) 0.49383(12) 0.17751(19)
H13 H -0.4647 0.4943 0.1597
C19 C -0.2817(3) 0.51504(11) 0.26397(18)
H14 H -0.3318 0.5283 0.3045
C20 C -0.1286(3) 0.51647(10) 0.29003(16)
C21 C -0.0568(3) 0.49463(10) 0.22872(15)
C22 C 0.1910(3) 0.47340(10) 0.32494(16)
H15 H 0.1513 0.4544 0.3669
C23 C 0.3357(3) 0.47464(11) 0.34110(17)
H16 H 0.3757 0.4961 0.3014
C24 C 0.4348(3) 0.44299(12) 0.4201(2)
C25 C 0.6789(3) 0.40303(15) 0.4810(2)
H17 H 0.7711 0.4007 0.4664
H18 H 0.6434 0.3623 0.4863
H19 H 0.6951 0.4244 0.5383
C26 C -0.0705(3) 0.34764(10) 0.25191(15)
H20 H -0.1690 0.3595 0.2238
C27 C -0.0274(3) 0.32608(11) 0.34174(16)
H21 H -0.0972 0.3234 0.3736
C28 C 0.1182(3) 0.30851(11) 0.38429(17)
H22 H 0.1473 0.2948 0.4451
C29 C 0.2194(3) 0.31135(11) 0.33649(16)
H23 H 0.3176 0.2991 0.3646
C30 C 0.1766(3) 0.33228(10) 0.24687(16)
H24 H 0.2462 0.3334 0.2148
C31 C 0.0321(3) 0.35162(9) 0.20363(14)
C32 C -0.0510(3) 0.44278(10) 0.08372(14)
H25 H 0.0396 0.4669 0.0899
C33 C -0.0076(2) 0.37413(10) 0.10534(14)
H26 H 0.0788 0.3660 0.0839
C34 C -0.1406(3) 0.34307(10) 0.03825(14)
H27 H -0.2267 0.3465 0.0614
C35 C -0.1102(3) 0.56686(14) 0.43259(18)
H28 H -0.0360 0.5806 0.4877
H29 H -0.1746 0.5375 0.4484
H30 H -0.1682 0.6014 0.4020
loop_
_geom_bond_atom_site_label_1
_geom_bond_atom_site_label_2
_geom_bond_site_symmetry_1
_geom_bond_site_symmetry_2
O1 C24 1_555 1_555
O2 C24 1_555 1_555
O3 C20 1_555 1_555
O4 C21 1_555 1_555
O5 N1 1_555 1_555
O6 N1 1_555 1_555
O7 C9 1_555 1_555
O8 C8 1_555 1_555
N1 C34 1_555 1_555
N2 C7 1_555 1_555
C1 H1 1_555 1_555
C2 C1 1_555 1_555
H2 C2 1_555 1_555
C3 C2 1_555 1_555
H3 C3 1_555 1_555
C4 C3 1_555 1_555
H4 C4 1_555 1_555
C5 C4 1_555 1_555
H5 C5 1_555 1_555
C6 C1 1_555 1_555
C7 C6 1_555 1_555
H6 C7 1_555 1_555
H7 C7 1_555 1_555
C8 N2 1_555 1_555
C9 C8 1_555 1_555
C10 C9 1_555 1_555
C11 N2 1_555 1_555
C12 C11 1_555 1_555
H8 C12 1_555 1_555
C13 C12 1_555 1_555
H9 C13 1_555 1_555
C14 C13 1_555 1_555
H10 C14 1_555 1_555
C15 C10 1_555 1_555
H11 C15 1_555 1_555
C16 C17 1_555 1_555
C17 H12 1_555 1_555
C18 C17 1_555 1_555
H13 C18 1_555 1_555
C19 C18 1_555 1_555
H14 C19 1_555 1_555
C20 C19 1_555 1_555
C21 C16 1_555 1_555
C22 O4 1_555 1_555
H15 C22 1_555 1_555
C23 C22 1_555 1_555
H16 C23 1_555 1_555
C24 C23 1_555 1_555
C25 O2 1_555 1_555
H17 C25 1_555 1_555
H18 C25 1_555 1_555
H19 C25 1_555 1_555
C26 H20 1_555 1_555
C27 C26 1_555 1_555
H21 C27 1_555 1_555
C28 C27 1_555 1_555
H22 C28 1_555 1_555
C29 C28 1_555 1_555
H23 C29 1_555 1_555
C30 C29 1_555 1_555
H24 C30 1_555 1_555
C31 C26 1_555 1_555
C32 O7 1_555 1_555
H25 C32 1_555 1_555
C33 C31 1_555 1_555
H26 C33 1_555 1_555
C34 C9 1_555 1_555
H27 C34 1_555 1_555
C35 O3 1_555 1_555
H28 C35 1_555 1_555
H29 C35 1_555 1_555
H30 C35 1_555 1_555
C5 C6 1_555 1_555
C10 C11 1_555 1_555
C14 C15 1_555 1_555
C16 C32 1_555 1_555
C20 C21 1_555 1_555
C30 C31 1_555 1_555
C32 C33 1_555 1_555
C33 C34 1_555 1_555

#END
