
#######################################################################
#
#                 Cambridge Crystallographic Data Centre
#                                CCDC 
#
#######################################################################
#
# If this CIF has been generated from an entry in the Cambridge 
# Structural Database, then it will include bibliographic, chemical, 
# crystal, experimental, refinement or atomic coordinate data resulting 
# from the CCDC's data processing and validation procedures.
#
#######################################################################

data_UPOLAN
_chemical_formula_moiety         'C31 H27 P1,C1 H2 Cl2'
_chemical_name_systematic        
'Dimethylphenylphosphonium 2,3,5-triphenylcyclopentadienylide dichloromethane solvate'
_symmetry_cell_setting           monoclinic
_symmetry_space_group_name_H-M   'P 21/c'
_symmetry_Int_Tables_number      14
_space_group_name_Hall           '-P 2ybc'
loop_
_symmetry_equiv_pos_site_id
_symmetry_equiv_pos_as_xyz
1 x,y,z
2 -x,1/2+y,1/2-z
3 -x,-y,-z
4 x,1/2-y,1/2+z
_cell_length_a                   16.5447(5)
_cell_length_b                   9.0530(3)
_cell_length_c                   18.7979(5)
_cell_angle_alpha                90
_cell_angle_beta                 102.671(2)
_cell_angle_gamma                90
_cell_volume                     2746.96
_exptl_crystal_colour            yellow
_exptl_crystal_description       block
_cell_formula_units_Z            4
loop_
_atom_site_label
_atom_site_type_symbol
_atom_site_fract_x
_atom_site_fract_y
_atom_site_fract_z
C1 C 0.20680(17) 0.4964(3) 0.17286(15)
C2 C 0.24055(17) 0.6348(3) 0.19446(15)
C3 C 0.28721(17) 0.6229(3) 0.26841(15)
C4 C 0.28112(18) 0.4712(3) 0.29049(15)
C5 C 0.23262(18) 0.3973(3) 0.23214(16)
H1 H 0.2189 0.2977 0.2317
C6 C 0.32681(19) 0.3995(3) 0.35811(15)
C7 C 0.4123(2) 0.4188(4) 0.38193(19)
H2 H 0.4406 0.4770 0.3546
C8 C 0.4556(3) 0.3533(4) 0.4450(2)
H3 H 0.5123 0.3688 0.4600
C9 C 0.4164(3) 0.2662(4) 0.48581(19)
H4 H 0.4458 0.2227 0.5285
C10 C 0.3325(3) 0.2433(4) 0.4629(2)
H5 H 0.3054 0.1828 0.4902
C11 C 0.2872(2) 0.3093(4) 0.39941(18)
H6 H 0.2304 0.2928 0.3849
C12 C 0.15854(17) 0.4535(3) 0.09987(16)
C13 C 0.09306(19) 0.3551(4) 0.09249(18)
H7 H 0.0788 0.3173 0.1341
C14 C 0.0484(2) 0.3118(4) 0.0244(2)
H8 H 0.0048 0.2455 0.0209
C15 C 0.0681(2) 0.3659(5) -0.0373(2)
H9 H 0.0380 0.3369 -0.0829
C16 C 0.1324(3) 0.4628(5) -0.0318(2)
H10 H 0.1462 0.4990 -0.0739
C17 C 0.1776(2) 0.5081(4) 0.03625(18)
H11 H 0.2208 0.5752 0.0392
C18 C 0.23140(19) 0.7714(3) 0.14982(16)
C19 C 0.2996(2) 0.8474(4) 0.13748(18)
H12 H 0.3524 0.8110 0.1568
C20 C 0.2908(3) 0.9763(4) 0.0971(2)
H13 H 0.3374 1.0261 0.0897
C21 C 0.2121(3) 1.0317(5) 0.0674(3)
H14 H 0.2058 1.1178 0.0397
C22 C 0.1435(3) 0.9572(5) 0.0795(3)
H15 H 0.0907 0.9943 0.0606
C23 C 0.1529(2) 0.8284(4) 0.1193(2)
H16 H 0.1060 0.7783 0.1260
C24 C 0.2517(2) 0.9311(4) 0.3022(2)
H17 H 0.2499 0.9593 0.2526
H18 H 0.2727 1.0118 0.3340
H19 H 0.1969 0.9064 0.3075
C25 C 0.3162(3) 0.7337(4) 0.4187(2)
H20 H 0.3507 0.6497 0.4352
H21 H 0.2603 0.7125 0.4222
H22 H 0.3363 0.8177 0.4485
C26 C 0.42245(18) 0.8371(3) 0.32741(16)
C27 C 0.4506(2) 0.9687(4) 0.3624(2)
H23 H 0.4155 1.0262 0.3834
C28 C 0.5318(2) 1.0135(4) 0.3658(2)
H24 H 0.5508 1.1013 0.3892
C29 C 0.5836(2) 0.9306(4) 0.3352(2)
H25 H 0.6381 0.9609 0.3386
C30 C 0.5559(2) 0.8026(4) 0.2993(2)
H26 H 0.5912 0.7470 0.2776
C31 C 0.4751(2) 0.7557(4) 0.29510(18)
H27 H 0.4564 0.6690 0.2704
P1 P 0.31866(5) 0.77309(9) 0.32547(4)
C32 C 0.0680(4) 0.9310(13) 0.7866(4)
H28 H 0.1008 0.8580 0.7678
H29 H 0.0859 1.0275 0.7737
Cl1 Cl -0.03282(15) 0.9081(5) 0.74325(12)
Cl2 Cl 0.08922(14) 0.9178(5) 0.87553(12)
loop_
_geom_bond_atom_site_label_1
_geom_bond_atom_site_label_2
_geom_bond_site_symmetry_1
_geom_bond_site_symmetry_2
C1 C2 1_555 1_555
C2 C3 1_555 1_555
C3 C4 1_555 1_555
C4 C5 1_555 1_555
C5 C1 1_555 1_555
H1 C5 1_555 1_555
C6 C4 1_555 1_555
C7 C6 1_555 1_555
H2 C7 1_555 1_555
C8 C7 1_555 1_555
H3 C8 1_555 1_555
C9 C8 1_555 1_555
H4 C9 1_555 1_555
C10 C9 1_555 1_555
H5 C10 1_555 1_555
C11 C6 1_555 1_555
H6 C11 1_555 1_555
C12 C1 1_555 1_555
C13 C12 1_555 1_555
H7 C13 1_555 1_555
C14 C13 1_555 1_555
H8 C14 1_555 1_555
C15 C14 1_555 1_555
H9 C15 1_555 1_555
C16 C15 1_555 1_555
H10 C16 1_555 1_555
C17 C12 1_555 1_555
H11 C17 1_555 1_555
C18 C2 1_555 1_555
C19 C18 1_555 1_555
H12 C19 1_555 1_555
C20 C19 1_555 1_555
H13 C20 1_555 1_555
C21 C20 1_555 1_555
H14 C21 1_555 1_555
C22 C21 1_555 1_555
H15 C22 1_555 1_555
C23 C18 1_555 1_555
H16 C23 1_555 1_555
C24 H17 1_555 1_555
H18 C24 1_555 1_555
H19 C24 1_555 1_555
C25 H20 1_555 1_555
H21 C25 1_555 1_555
H22 C25 1_555 1_555
C26 C27 1_555 1_555
C27 H23 1_555 1_555
C28 C27 1_555 1_555
H24 C28 1_555 1_555
C29 C28 1_555 1_555
H25 C29 1_555 1_555
C30 C29 1_555 1_555
H26 C30 1_555 1_555
C31 C26 1_555 1_555
H27 C31 1_555 1_555
C32 H28 1_555 1_555
H29 C32 1_555 1_555
Cl1 C32 1_555 1_555
Cl2 C32 1_555 1_555
P1 C3 1_555 1_555
C10 C11 1_555 1_555
C16 C17 1_555 1_555
C22 C23 1_555 1_555
C24 P1 1_555 1_555
C25 P1 1_555 1_555
C26 P1 1_555 1_555
C30 C31 1_555 1_555

#END
