
#######################################################################
#
#                 Cambridge Crystallographic Data Centre
#                                CCDC 
#
#######################################################################
#
# If this CIF has been generated from an entry in the Cambridge 
# Structural Database, then it will include bibliographic, chemical, 
# crystal, experimental, refinement or atomic coordinate data resulting 
# from the CCDC's data processing and validation procedures.
#
#######################################################################

data_UPOLER
_chemical_formula_moiety         'C26 H26 P1 1+,Cl1 O4 1-'
_chemical_name_systematic        
'Trimethyl-(2,3,5-triphenylcyclopentadienyl)phosphonium perchlorate'
_symmetry_cell_setting           monoclinic
_symmetry_space_group_name_H-M   'C 2/c'
_symmetry_Int_Tables_number      15
_space_group_name_Hall           '-C 2yn'
loop_
_symmetry_equiv_pos_site_id
_symmetry_equiv_pos_as_xyz
1 x,y,z
2 -x,y,1/2-z
3 1/2+x,1/2+y,z
4 1/2-x,1/2+y,1/2-z
5 -x,-y,-z
6 x,-y,1/2+z
7 1/2-x,1/2-y,-z
8 1/2+x,1/2-y,1/2+z
_cell_length_a                   27.352(4)
_cell_length_b                   10.2322(17)
_cell_length_c                   20.664(6)
_cell_angle_alpha                90
_cell_angle_beta                 125.869(2)
_cell_angle_gamma                90
_cell_volume                     4686.51
_exptl_crystal_colour            colorless
_exptl_crystal_description       block
_cell_formula_units_Z            8
loop_
_atom_site_label
_atom_site_type_symbol
_atom_site_fract_x
_atom_site_fract_y
_atom_site_fract_z
Cl1 Cl 0.12451(2) 0.36820(5) 0.10028(3)
O1 O 0.12373(12) 0.3574(3) 0.03233(14)
O2 O 0.16130(11) 0.4725(3) 0.14790(18)
O3 O 0.14967(17) 0.2553(3) 0.1454(2)
O4 O 0.06657(9) 0.3879(3) 0.08012(13)
P1 P 0.30401(2) 0.56449(5) 0.85724(3)
C1 C 0.37644(9) 0.5533(2) 0.95532(11)
H1 H 0.3938 0.4654 0.9656
C2 C 0.36777(9) 0.5950(2) 1.01849(11)
C3 C 0.39696(9) 0.7103(2) 1.05021(12)
C4 C 0.42738(10) 0.7472(2) 1.01386(12)
H2 H 0.4498 0.8231 1.0257
C5 C 0.41844(9) 0.6561(2) 0.96080(12)
C6 C 0.33263(9) 0.5185(2) 1.03850(11)
C7 C 0.34308(10) 0.3860(2) 1.05548(13)
H3 H 0.3716 0.3434 1.0522
C8 C 0.31134(12) 0.3169(2) 1.07730(15)
H4 H 0.3196 0.2287 1.0901
C9 C 0.26762(12) 0.3775(3) 1.08025(15)
H5 H 0.2465 0.3305 1.0950
C10 C 0.25559(12) 0.5071(3) 1.06144(15)
H6 H 0.2253 0.5478 1.0618
C11 C 0.28835(11) 0.5776(2) 1.04195(14)
H7 H 0.2807 0.6663 1.0309
C12 C 0.40330(9) 0.7862(2) 1.11581(12)
C13 C 0.40964(11) 0.7244(3) 1.18030(13)
H8 H 0.4103 0.6336 1.1828
C14 C 0.41496(12) 0.7966(3) 1.24072(15)
H9 H 0.4188 0.7541 1.2833
C15 C 0.41454(12) 0.9302(3) 1.23819(16)
H10 H 0.4175 0.9784 1.2785
C16 C 0.40981(12) 0.9932(3) 1.17610(17)
H11 H 0.4104 1.0840 1.1750
C17 C 0.40418(10) 0.9219(2) 1.11471(14)
H12 H 0.4010 0.9652 1.0728
C18 C 0.44584(9) 0.6518(2) 0.91721(12)
C19 C 0.46159(10) 0.7675(3) 0.89829(13)
H13 H 0.4535 0.8475 0.9115
C20 C 0.48925(12) 0.7635(4) 0.85999(15)
H14 H 0.5001 0.8410 0.8479
C21 C 0.50087(11) 0.6463(4) 0.83961(15)
H15 H 0.5195 0.6448 0.8137
C22 C 0.48520(11) 0.5301(3) 0.85718(14)
H16 H 0.4928 0.4508 0.8427
C23 C 0.45795(10) 0.5326(3) 0.89664(13)
H17 H 0.4478 0.4548 0.9093
C24 C 0.31127(10) 0.5386(2) 0.77790(12)
H18 H 0.2719 0.5367 0.7280
H19 H 0.3313 0.4569 0.7858
H20 H 0.3345 0.6084 0.7772
C25 C 0.25182(11) 0.4458(3) 0.84604(14)
H21 H 0.2437 0.4619 0.8846
H22 H 0.2687 0.3600 0.8542
H23 H 0.2150 0.4515 0.7932
C26 C 0.27275(12) 0.7226(2) 0.84597(15)
H24 H 0.3015 0.7879 0.8555
H25 H 0.2632 0.7331 0.8836
H26 H 0.2367 0.7320 0.7927
loop_
_geom_bond_atom_site_label_1
_geom_bond_atom_site_label_2
_geom_bond_site_symmetry_1
_geom_bond_site_symmetry_2
Cl1 O1 1_555 1_555
P1 C1 1_555 1_555
C1 H1 1_555 1_555
C2 C1 1_555 1_555
C3 C2 1_555 1_555
C4 C3 1_555 1_555
H2 C4 1_555 1_555
C5 C1 1_555 1_555
C6 C2 1_555 1_555
C7 C6 1_555 1_555
H3 C7 1_555 1_555
C8 C7 1_555 1_555
H4 C8 1_555 1_555
C9 C8 1_555 1_555
H5 C9 1_555 1_555
C10 C9 1_555 1_555
H6 C10 1_555 1_555
C11 C6 1_555 1_555
H7 C11 1_555 1_555
C12 C3 1_555 1_555
C13 C12 1_555 1_555
H8 C13 1_555 1_555
C14 C13 1_555 1_555
H9 C14 1_555 1_555
C15 C14 1_555 1_555
H10 C15 1_555 1_555
C16 C15 1_555 1_555
H11 C16 1_555 1_555
C17 C12 1_555 1_555
H12 C17 1_555 1_555
C18 C5 1_555 1_555
C19 C18 1_555 1_555
H13 C19 1_555 1_555
C20 C19 1_555 1_555
H14 C20 1_555 1_555
C21 C20 1_555 1_555
H15 C21 1_555 1_555
C22 C21 1_555 1_555
H16 C22 1_555 1_555
C23 C18 1_555 1_555
H17 C23 1_555 1_555
C24 P1 1_555 1_555
H18 C24 1_555 1_555
H19 C24 1_555 1_555
H20 C24 1_555 1_555
C25 P1 1_555 1_555
H21 C25 1_555 1_555
H22 C25 1_555 1_555
H23 C25 1_555 1_555
C26 P1 1_555 1_555
H24 C26 1_555 1_555
H25 C26 1_555 1_555
H26 C26 1_555 1_555
O2 Cl1 1_555 1_555
O3 Cl1 1_555 1_555
O4 Cl1 1_555 1_555
C4 C5 1_555 1_555
C10 C11 1_555 1_555
C16 C17 1_555 1_555
C22 C23 1_555 1_555

#END
