
#######################################################################
#
#                 Cambridge Crystallographic Data Centre
#                                CCDC 
#
#######################################################################
#
# If this CIF has been generated from an entry in the Cambridge 
# Structural Database, then it will include bibliographic, chemical, 
# crystal, experimental, refinement or atomic coordinate data resulting 
# from the CCDC's data processing and validation procedures.
#
#######################################################################

data_UPOQEX
_chemical_formula_moiety         'C23 H28 O4'
_chemical_name_systematic        
'methyl 2-(1-(hydroxy(phenyl)methyl)-3,8-dimethyl-2-oxo-1,2,4,5,6,7,8,8a-octahydroazulen-5-yl)acrylate'
_chemical_properties_biological  
'evaluated for in vitro inhibitory activity against influenza A (H1N1 and H3N2) and B viruses'
_symmetry_cell_setting           tetragonal
_symmetry_space_group_name_H-M   'P 41 21 2'
_symmetry_Int_Tables_number      92
_space_group_name_Hall           'P 4abw 2nw'
loop_
_symmetry_equiv_pos_site_id
_symmetry_equiv_pos_as_xyz
1 x,y,z
2 -x,-y,1/2+z
3 1/2+x,1/2-y,3/4-z
4 1/2-x,1/2+y,1/4-z
5 -y,-x,1/2-z
6 y,x,-z
7 1/2+y,1/2-x,3/4+z
8 1/2-y,1/2+x,1/4+z
_cell_length_a                   8.5582(2)
_cell_length_b                   8.5582(2)
_cell_length_c                   58.266(2)
_cell_angle_alpha                90
_cell_angle_beta                 90
_cell_angle_gamma                90
_cell_volume                     4267.56
_exptl_crystal_description       block
_chemical_melting_point          '186-188 deg.C'
_cell_formula_units_Z            8
loop_
_atom_site_label
_atom_site_type_symbol
_atom_site_fract_x
_atom_site_fract_y
_atom_site_fract_z
O1 O 0.6281(2) 0.12309(19) 0.34722(2)
H1 H 0.6865 0.1504 0.3576
O2 O 0.2842(3) 0.2622(2) 0.36598(3)
C1 C 0.3780(3) 0.0267(2) 0.31688(3)
H2 H 0.4888 0.0144 0.3130
O3 O 0.6725(3) 0.0407(3) 0.23937(4)
O4 O 0.6269(3) 0.2297(3) 0.21451(3)
C2 C 0.5184(3) 0.0133(3) 0.35576(3)
H3 H 0.5019 0.0333 0.3721
C3 C 0.3252(3) 0.1845(2) 0.30816(4)
C4 C 0.3646(3) 0.0407(2) 0.34307(3)
H4 H 0.2868 -0.0345 0.3486
C5 C 0.3295(3) 0.2285(3) 0.28332(4)
H5 H 0.3790 0.3300 0.2820
H6 H 0.2227 0.2397 0.2780
C6 C 0.4137(3) 0.1160(3) 0.26725(4)
H7 H 0.5149 0.0915 0.2742
C7 C 0.2888(3) -0.1148(3) 0.30690(4)
H8 H 0.3136 -0.2040 0.3168
C8 C 0.5744(3) -0.1531(3) 0.35283(3)
C9 C 0.6886(3) -0.1921(3) 0.33716(4)
H9 H 0.7372 -0.1139 0.3287
C10 C 0.5914(4) 0.1447(3) 0.23283(4)
C11 C 0.3035(3) 0.2048(3) 0.34703(4)
C12 C 0.2797(3) 0.2801(3) 0.32503(4)
C13 C 0.5068(4) -0.2728(3) 0.36534(5)
H10 H 0.4303 -0.2500 0.3762
C14 C 0.3476(4) -0.1574(3) 0.28296(5)
H11 H 0.4582 -0.1810 0.2842
H12 H 0.2954 -0.2528 0.2783
C15 C 0.4460(4) 0.1920(4) 0.24431(4)
C16 C 0.5522(5) -0.4261(4) 0.36186(7)
H13 H 0.5055 -0.5056 0.3703
C17 C 0.3270(4) -0.0384(4) 0.26389(5)
H14 H 0.2164 -0.0161 0.2623
H15 H 0.3619 -0.0851 0.2496
C18 C 0.7315(5) -0.3456(4) 0.33393(6)
H16 H 0.8079 -0.3697 0.3231
C19 C 0.1128(4) -0.0955(4) 0.30777(7)
H17 H 0.0816 -0.0687 0.3231
H18 H 0.0635 -0.1916 0.3033
H19 H 0.0818 -0.0138 0.2974
C20 C 0.2217(5) 0.4452(3) 0.32317(6)
H20 H 0.1982 0.4845 0.3382
H21 H 0.1289 0.4475 0.3139
H22 H 0.3007 0.5091 0.3162
C21 C 0.7666(5) 0.1866(5) 0.20248(6)
H23 H 0.7812 0.2551 0.1896
H24 H 0.7575 0.0809 0.1971
H25 H 0.8545 0.1950 0.2126
C22 C 0.6646(6) -0.4614(4) 0.34615(7)
H26 H 0.6949 -0.5646 0.3439
C23 C 0.3487(7) 0.2866(8) 0.23403(7)
H27 H 0.3714 0.3242 0.2194
H28 H 0.2567 0.3164 0.2413
loop_
_geom_bond_atom_site_label_1
_geom_bond_atom_site_label_2
_geom_bond_site_symmetry_1
_geom_bond_site_symmetry_2
O1 H1 1_555 1_555
O2 C11 1_555 1_555
C1 H2 1_555 1_555
O3 C10 1_555 1_555
O4 C10 1_555 1_555
C2 O1 1_555 1_555
H3 C2 1_555 1_555
C3 C1 1_555 1_555
C4 C1 1_555 1_555
H4 C4 1_555 1_555
C5 C3 1_555 1_555
H5 C5 1_555 1_555
H6 C5 1_555 1_555
C6 C5 1_555 1_555
H7 C6 1_555 1_555
C7 C1 1_555 1_555
H8 C7 1_555 1_555
C8 C2 1_555 1_555
C9 C8 1_555 1_555
H9 C9 1_555 1_555
C10 C15 1_555 1_555
C11 C4 1_555 1_555
C12 C3 1_555 1_555
C13 C8 1_555 1_555
H10 C13 1_555 1_555
C14 C7 1_555 1_555
H11 C14 1_555 1_555
H12 C14 1_555 1_555
C15 C6 1_555 1_555
C16 C13 1_555 1_555
H13 C16 1_555 1_555
C17 C6 1_555 1_555
H14 C17 1_555 1_555
H15 C17 1_555 1_555
C18 C9 1_555 1_555
H16 C18 1_555 1_555
C19 C7 1_555 1_555
H17 C19 1_555 1_555
H18 C19 1_555 1_555
H19 C19 1_555 1_555
C20 C12 1_555 1_555
H20 C20 1_555 1_555
H21 C20 1_555 1_555
H22 C20 1_555 1_555
C21 O4 1_555 1_555
H23 C21 1_555 1_555
H24 C21 1_555 1_555
H25 C21 1_555 1_555
C22 C16 1_555 1_555
H26 C22 1_555 1_555
C23 C15 1_555 1_555
H27 C23 1_555 1_555
H28 C23 1_555 1_555
C2 C4 1_555 1_555
C11 C12 1_555 1_555
C14 C17 1_555 1_555
C18 C22 1_555 1_555

#END
