
#######################################################################
#
#                 Cambridge Crystallographic Data Centre
#                                CCDC 
#
#######################################################################
#
# If this CIF has been generated from an entry in the Cambridge 
# Structural Database, then it will include bibliographic, chemical, 
# crystal, experimental, refinement or atomic coordinate data resulting 
# from the CCDC's data processing and validation procedures.
#
#######################################################################

data_UPOTOK
_chemical_formula_moiety         'C30 H23 Br2 N1 O3 S1'
_chemical_name_systematic        
3-(4-bromobenzylidene)-2-(4-bromophenyl)-6-methyl-1-((4-methylphenyl)sulfonyl)-2,3-dihydroquinolin-4(1H)-one
_symmetry_cell_setting           monoclinic
_symmetry_space_group_name_H-M   'P 21/c'
_symmetry_Int_Tables_number      14
_space_group_name_Hall           '-P 2ybc'
loop_
_symmetry_equiv_pos_site_id
_symmetry_equiv_pos_as_xyz
1 x,y,z
2 -x,1/2+y,1/2-z
3 -x,-y,-z
4 x,1/2-y,1/2+z
_cell_length_a                   8.998(6)
_cell_length_b                   12.277(8)
_cell_length_c                   27.243(17)
_cell_angle_alpha                90
_cell_angle_beta                 90.549(9)
_cell_angle_gamma                90
_cell_volume                     3009.35
_exptl_crystal_colour            'pale yellow'
_exptl_crystal_description       block
_cell_formula_units_Z            4
loop_
_atom_site_label
_atom_site_type_symbol
_atom_site_fract_x
_atom_site_fract_y
_atom_site_fract_z
Br1 Br 0.44415(5) 1.22451(4) 0.257255(17)
Br2 Br 1.21828(7) 0.76981(4) 0.110020(17)
N1 N 1.1461(3) 0.8296(3) 0.35639(9)
O1 O 0.8162(3) 0.6065(2) 0.36856(10)
O2 O 1.1594(3) 1.0238(2) 0.38038(9)
O3 O 1.2963(3) 0.8835(2) 0.42848(8)
S1 S 1.16672(11) 0.91771(9) 0.40241(4)
C1 C 0.9161(5) 0.6713(4) 0.35864(13)
C2 C 0.8852(4) 0.7818(3) 0.34047(12)
C3 C 1.0176(4) 0.8471(3) 0.32289(12)
H1 H 0.9908 0.9243 0.3247
C4 C 1.3310(5) 0.6868(4) 0.36743(12)
H2 H 1.4058 0.7391 0.3677
C5 C 1.3666(5) 0.5787(5) 0.37131(13)
H3 H 1.4661 0.5592 0.3745
C6 C 1.2600(6) 0.4974(4) 0.37067(14)
C7 C 1.1133(5) 0.5295(4) 0.36664(12)
H4 H 1.0386 0.4771 0.3665
C8 C 1.0756(5) 0.6387(4) 0.36284(12)
C9 C 1.1848(4) 0.7181(4) 0.36309(12)
C10 C 1.3006(5) 0.3776(3) 0.37477(16)
H5 H 1.4065 0.3703 0.3775
H6 H 1.2657 0.3397 0.3461
H7 H 1.2550 0.3471 0.4034
C11 C 0.7469(4) 0.8187(3) 0.34158(12)
H8 H 0.6795 0.7725 0.3568
C12 C 0.6829(4) 0.9200(3) 0.32283(13)
C13 C 0.5592(4) 0.9647(3) 0.34528(13)
H9 H 0.5219 0.9319 0.3734
C14 C 0.4900(4) 1.0571(3) 0.32678(14)
H10 H 0.4082 1.0867 0.3426
C15 C 0.5435(4) 1.1041(3) 0.28509(14)
C16 C 0.6653(4) 1.0627(3) 0.26210(12)
H11 H 0.7012 1.0962 0.2340
C17 C 0.7355(4) 0.9706(3) 0.28070(13)
H12 H 0.8182 0.9425 0.2649
C18 C 1.0643(4) 0.8238(3) 0.27045(13)
C19 C 0.9987(4) 0.7465(3) 0.24165(14)
H13 H 0.9227 0.7040 0.2544
C20 C 1.0438(5) 0.7301(3) 0.19331(14)
H14 H 0.9987 0.6773 0.1737
C21 C 1.1548(5) 0.7929(4) 0.17562(14)
C22 C 1.2213(5) 0.8728(4) 0.20276(15)
H15 H 1.2954 0.9163 0.1895
C23 C 1.1754(4) 0.8872(3) 0.25036(14)
H16 H 1.2202 0.9409 0.2695
C24 C 1.0118(4) 0.9022(3) 0.44005(12)
C25 C 0.8953(5) 0.9742(3) 0.43568(12)
H17 H 0.9018 1.0335 0.4146
C26 C 0.7686(4) 0.9576(3) 0.46298(14)
H18 H 0.6901 1.0065 0.4601
C27 C 0.7561(5) 0.8701(4) 0.49429(14)
C28 C 0.8752(5) 0.8006(3) 0.49807(14)
H19 H 0.8695 0.7415 0.5193
C29 C 1.0028(4) 0.8155(3) 0.47133(14)
H20 H 1.0818 0.7671 0.4745
C30 C 0.6154(4) 0.8525(3) 0.52257(14)
H21 H 0.5927 0.9170 0.5410
H22 H 0.6285 0.7923 0.5447
H23 H 0.5353 0.8370 0.5001
loop_
_geom_bond_atom_site_label_1
_geom_bond_atom_site_label_2
_geom_bond_site_symmetry_1
_geom_bond_site_symmetry_2
Br1 C15 1_555 1_555
Br2 C21 1_555 1_555
N1 S1 1_555 1_555
O1 C1 1_555 1_555
O2 S1 1_555 1_555
O3 S1 1_555 1_555
S1 C24 1_555 1_555
C1 C2 1_555 1_555
C2 C3 1_555 1_555
C3 N1 1_555 1_555
H1 C3 1_555 1_555
C4 H2 1_555 1_555
C5 C4 1_555 1_555
H3 C5 1_555 1_555
C6 C5 1_555 1_555
C7 C6 1_555 1_555
H4 C7 1_555 1_555
C8 C1 1_555 1_555
C9 N1 1_555 1_555
C10 C6 1_555 1_555
H5 C10 1_555 1_555
H6 C10 1_555 1_555
H7 C10 1_555 1_555
C11 C2 1_555 1_555
H8 C11 1_555 1_555
C12 C11 1_555 1_555
C13 C12 1_555 1_555
H9 C13 1_555 1_555
C14 C13 1_555 1_555
H10 C14 1_555 1_555
C15 C14 1_555 1_555
C16 C15 1_555 1_555
H11 C16 1_555 1_555
C17 C12 1_555 1_555
H12 C17 1_555 1_555
C18 C3 1_555 1_555
C19 C18 1_555 1_555
H13 C19 1_555 1_555
C20 C19 1_555 1_555
H14 C20 1_555 1_555
C21 C20 1_555 1_555
C22 C21 1_555 1_555
H15 C22 1_555 1_555
C23 C18 1_555 1_555
H16 C23 1_555 1_555
C24 C25 1_555 1_555
C25 H17 1_555 1_555
C26 C25 1_555 1_555
H18 C26 1_555 1_555
C27 C26 1_555 1_555
C28 C27 1_555 1_555
H19 C28 1_555 1_555
C29 C24 1_555 1_555
H20 C29 1_555 1_555
C30 C27 1_555 1_555
H21 C30 1_555 1_555
H22 C30 1_555 1_555
H23 C30 1_555 1_555
C4 C9 1_555 1_555
C7 C8 1_555 1_555
C8 C9 1_555 1_555
C16 C17 1_555 1_555
C22 C23 1_555 1_555
C28 C29 1_555 1_555

#END
