
#######################################################################
#
#                 Cambridge Crystallographic Data Centre
#                                CCDC 
#
#######################################################################
#
# If this CIF has been generated from an entry in the Cambridge 
# Structural Database, then it will include bibliographic, chemical, 
# crystal, experimental, refinement or atomic coordinate data resulting 
# from the CCDC's data processing and validation procedures.
#
#######################################################################

data_UPUHIY
_chemical_formula_moiety         'C20 H17 F3 I1 N1 O1'
_chemical_name_systematic        
4-(iodo(phenyl)methylene)-1,3-dimethyl-3-(2,2,2-trifluoroethyl)-3,4-dihydroquinolin-2(1H)-one
_symmetry_cell_setting           monoclinic
_symmetry_space_group_name_H-M   'C 2/c'
_symmetry_Int_Tables_number      15
_space_group_name_Hall           '-C 2yn'
loop_
_symmetry_equiv_pos_site_id
_symmetry_equiv_pos_as_xyz
1 x,y,z
2 -x,y,1/2-z
3 1/2+x,1/2+y,z
4 1/2-x,1/2+y,1/2-z
5 -x,-y,-z
6 x,-y,1/2+z
7 1/2-x,1/2-y,-z
8 1/2+x,1/2-y,1/2+z
_cell_length_a                   31.800(14)
_cell_length_b                   8.994(4)
_cell_length_c                   13.605(6)
_cell_angle_alpha                90
_cell_angle_beta                 110.595(5)
_cell_angle_gamma                90
_cell_volume                     3642.47
_exptl_crystal_colour            colorless
_exptl_crystal_description       block
_cell_formula_units_Z            8
loop_
_atom_site_label
_atom_site_type_symbol
_atom_site_fract_x
_atom_site_fract_y
_atom_site_fract_z
I1 I 0.02154(2) 0.32260(3) 0.43239(2)
F1 F 0.22399(8) 0.1360(2) 0.81258(16)
F2 F 0.15750(7) 0.0889(3) 0.71121(19)
F3 F 0.21263(9) -0.0258(2) 0.69354(18)
N1 N 0.17575(8) 0.4936(3) 0.4911(2)
O1 O 0.20648(8) 0.3255(3) 0.41427(18)
C1 C 0.18555(10) 0.3520(3) 0.4716(2)
C2 C 0.16953(9) 0.2252(3) 0.5266(2)
C3 C 0.12219(9) 0.2727(3) 0.5198(2)
C4 C 0.12478(9) 0.4152(3) 0.5757(2)
C5 C 0.10408(10) 0.4401(3) 0.6482(2)
H1 H 0.0863 0.3660 0.6610
C6 C 0.10941(12) 0.5729(4) 0.7015(3)
H2 H 0.0950 0.5887 0.7494
C7 C 0.13610(13) 0.6816(4) 0.6837(3)
H3 H 0.1394 0.7719 0.7189
C8 C 0.15782(12) 0.6580(3) 0.6144(3)
H4 H 0.1760 0.7321 0.6033
C9 C 0.15288(10) 0.5245(3) 0.5606(2)
C10 C 0.20358(9) 0.2261(3) 0.6416(2)
H5 H 0.2336 0.2197 0.6390
H6 H 0.2012 0.3215 0.6725
C11 C 0.19904(11) 0.1074(4) 0.7140(3)
C12 C 0.08367(9) 0.2080(3) 0.4620(2)
C13 C 0.07458(9) 0.0607(3) 0.4099(2)
C14 C 0.06404(10) 0.0470(3) 0.3019(3)
H7 H 0.0630 0.1309 0.2612
C15 C 0.05512(11) -0.0918(4) 0.2555(3)
H8 H 0.0484 -0.1009 0.1835
C16 C 0.05602(12) -0.2164(4) 0.3147(3)
H9 H 0.0505 -0.3096 0.2831
C17 C 0.06509(11) -0.2025(3) 0.4200(3)
H10 H 0.0649 -0.2862 0.4599
C18 C 0.07453(10) -0.0650(3) 0.4674(3)
H11 H 0.0810 -0.0571 0.5394
C19 C 0.17387(10) 0.0786(3) 0.4737(3)
H12 H 0.1632 -0.0016 0.5051
H13 H 0.2048 0.0618 0.4828
H14 H 0.1564 0.0837 0.4002
C20 C 0.19105(13) 0.6165(4) 0.4413(3)
H15 H 0.2171 0.6617 0.4917
H16 H 0.1676 0.6892 0.4164
H17 H 0.1985 0.5793 0.3834
loop_
_geom_bond_atom_site_label_1
_geom_bond_atom_site_label_2
_geom_bond_site_symmetry_1
_geom_bond_site_symmetry_2
I1 C12 1_555 1_555
F1 C11 1_555 1_555
F2 C11 1_555 1_555
F3 C11 1_555 1_555
N1 C1 1_555 1_555
O1 C1 1_555 1_555
C1 C2 1_555 1_555
C2 C3 1_555 1_555
C3 C4 1_555 1_555
C4 C5 1_555 1_555
C5 H1 1_555 1_555
C6 C5 1_555 1_555
H2 C6 1_555 1_555
C7 C6 1_555 1_555
H3 C7 1_555 1_555
C8 C7 1_555 1_555
H4 C8 1_555 1_555
C9 N1 1_555 1_555
C10 C2 1_555 1_555
H5 C10 1_555 1_555
H6 C10 1_555 1_555
C11 C10 1_555 1_555
C12 C3 1_555 1_555
C13 C12 1_555 1_555
C14 C13 1_555 1_555
H7 C14 1_555 1_555
C15 C14 1_555 1_555
H8 C15 1_555 1_555
C16 C15 1_555 1_555
H9 C16 1_555 1_555
C17 C16 1_555 1_555
H10 C17 1_555 1_555
C18 C13 1_555 1_555
H11 C18 1_555 1_555
C19 C2 1_555 1_555
H12 C19 1_555 1_555
H13 C19 1_555 1_555
H14 C19 1_555 1_555
C20 N1 1_555 1_555
H15 C20 1_555 1_555
H16 C20 1_555 1_555
H17 C20 1_555 1_555
C4 C9 1_555 1_555
C8 C9 1_555 1_555
C17 C18 1_555 1_555

#END
