
#######################################################################
#
#                 Cambridge Crystallographic Data Centre
#                                CCDC 
#
#######################################################################
#
# If this CIF has been generated from an entry in the Cambridge 
# Structural Database, then it will include bibliographic, chemical, 
# crystal, experimental, refinement or atomic coordinate data resulting 
# from the CCDC's data processing and validation procedures.
#
#######################################################################

data_UPUHIX
_chemical_formula_moiety         'C19 H13 F3 N2 O4'
_chemical_name_systematic        
'Ethyl 2-oxo-6-((4-(trifluoromethyl)phenyl)diazenyl)-2H-chromene-3-carboxylate'
_symmetry_cell_setting           triclinic
_symmetry_space_group_name_H-M   'P -1'
_symmetry_Int_Tables_number      2
_space_group_name_Hall           '-P 1'
loop_
_symmetry_equiv_pos_site_id
_symmetry_equiv_pos_as_xyz
1 x,y,z
2 -x,-y,-z
_cell_length_a                   6.9007(19)
_cell_length_b                   7.746(2)
_cell_length_c                   16.975(5)
_cell_angle_alpha                88.797(5)
_cell_angle_beta                 81.253(4)
_cell_angle_gamma                73.407(4)
_cell_volume                     859.222
_exptl_crystal_colour            red
_exptl_crystal_description       block
_cell_formula_units_Z            2
loop_
_atom_site_label
_atom_site_type_symbol
_atom_site_fract_x
_atom_site_fract_y
_atom_site_fract_z
F1 F 1.2467(6) 0.6171(4) 0.96450(18)
F2 F 1.5017(4) 0.4720(6) 0.89378(17)
F3 F 1.3241(5) 0.3389(4) 0.96207(17)
O1 O 0.3299(3) 0.9698(3) 0.20184(11)
O2 O 0.5937(4) 1.0555(3) 0.22995(13)
O3 O 0.0694(3) 0.9341(3) 0.33541(11)
O4 O 0.2125(2) 0.8143(2) 0.43744(10)
N1 N 0.8388(3) 0.6378(3) 0.61991(12)
N2 N 0.8114(3) 0.5407(3) 0.67785(12)
C1 C 0.1952(5) 1.0047(5) 0.08031(18)
H1 H 0.2375 0.8769 0.0703
H2 H 0.1914 1.0659 0.0306
H3 H 0.0615 1.0394 0.1116
C2 C 0.3437(5) 1.0544(4) 0.12470(16)
H4 H 0.4815 1.0114 0.0957
H5 H 0.3091 1.1842 0.1315
C3 C 0.4590(4) 0.9866(3) 0.24922(15)
C4 C 0.4272(3) 0.9073(3) 0.32889(14)
C5 C 0.2257(4) 0.8893(3) 0.36304(14)
C6 C 0.3727(3) 0.7666(3) 0.47992(14)
C7 C 0.5627(3) 0.7897(3) 0.44918(13)
C8 C 0.5835(4) 0.8629(3) 0.37143(14)
H6 H 0.7082 0.8804 0.3496
C9 C 0.3340(3) 0.6972(3) 0.55420(14)
H7 H 0.2059 0.6827 0.5730
C10 C 0.4876(4) 0.6500(3) 0.59982(14)
H8 H 0.4640 0.6026 0.6500
C11 C 0.6806(3) 0.6725(3) 0.57140(14)
C12 C 0.7172(3) 0.7426(3) 0.49722(14)
H9 H 0.8448 0.7586 0.4790
C13 C 0.9521(3) 0.5237(3) 0.73324(14)
C14 C 0.9659(4) 0.3816(4) 0.78506(16)
H10 H 0.8940 0.2986 0.7800
C15 C 1.0864(4) 0.3636(4) 0.84410(16)
H11 H 1.0970 0.2679 0.8787
C16 C 1.1916(4) 0.4883(3) 0.85168(14)
C17 C 1.1788(4) 0.6293(3) 0.79995(15)
H12 H 1.2513 0.7117 0.8051
C18 C 1.0589(4) 0.6485(3) 0.74066(14)
H13 H 1.0495 0.7440 0.7059
C19 C 1.3133(5) 0.4787(4) 0.91804(18)
loop_
_geom_bond_atom_site_label_1
_geom_bond_atom_site_label_2
_geom_bond_site_symmetry_1
_geom_bond_site_symmetry_2
F1 C19 1_555 1_555
F2 C19 1_555 1_555
F3 C19 1_555 1_555
O1 C2 1_555 1_555
O2 C3 1_555 1_555
O3 C5 1_555 1_555
O4 C5 1_555 1_555
N1 N2 1_555 1_555
N2 C13 1_555 1_555
C1 H1 1_555 1_555
H2 C1 1_555 1_555
H3 C1 1_555 1_555
C2 C1 1_555 1_555
H4 C2 1_555 1_555
H5 C2 1_555 1_555
C3 O1 1_555 1_555
C4 C3 1_555 1_555
C5 C4 1_555 1_555
C6 O4 1_555 1_555
C7 C6 1_555 1_555
C8 C4 1_555 1_555
H6 C8 1_555 1_555
C9 C6 1_555 1_555
H7 C9 1_555 1_555
C10 C9 1_555 1_555
H8 C10 1_555 1_555
C11 N1 1_555 1_555
C12 C7 1_555 1_555
H9 C12 1_555 1_555
C13 C14 1_555 1_555
C14 H10 1_555 1_555
C15 C14 1_555 1_555
H11 C15 1_555 1_555
C16 C15 1_555 1_555
C17 C16 1_555 1_555
H12 C17 1_555 1_555
C18 C13 1_555 1_555
H13 C18 1_555 1_555
C19 C16 1_555 1_555
C7 C8 1_555 1_555
C10 C11 1_555 1_555
C11 C12 1_555 1_555
C17 C18 1_555 1_555

#END
