
#######################################################################
#
#                 Cambridge Crystallographic Data Centre
#                                CCDC 
#
#######################################################################
#
# If this CIF has been generated from an entry in the Cambridge 
# Structural Database, then it will include bibliographic, chemical, 
# crystal, experimental, refinement or atomic coordinate data resulting 
# from the CCDC's data processing and validation procedures.
#
#######################################################################

data_UPUMOI
_chemical_formula_moiety         'C25 H17 N1 O1'
_chemical_name_systematic        
Phenyl(2-phenylpyrrolo[2,1-a]isoquinolin-3-yl)methanone
_symmetry_cell_setting           monoclinic
_symmetry_space_group_name_H-M   'P 21/c'
_symmetry_Int_Tables_number      14
_space_group_name_Hall           '-P 2ybc'
loop_
_symmetry_equiv_pos_site_id
_symmetry_equiv_pos_as_xyz
1 x,y,z
2 -x,1/2+y,1/2-z
3 -x,-y,-z
4 x,1/2-y,1/2+z
_cell_length_a                   18.6732(15)
_cell_length_b                   13.1118(12)
_cell_length_c                   7.4589(8)
_cell_angle_alpha                90
_cell_angle_beta                 98.697(7)
_cell_angle_gamma                90
_cell_volume                     1805.23
_exptl_crystal_colour            'yellowish green'
_exptl_crystal_description       rhombohedral
_chemical_melting_point          '193 deg.C'
_cell_formula_units_Z            4
loop_
_atom_site_label
_atom_site_type_symbol
_atom_site_fract_x
_atom_site_fract_y
_atom_site_fract_z
N1 N 0.11294(9) 0.64251(13) 0.3854(2)
O1 O 0.22950(9) 0.78430(15) 0.4190(3)
C1 C -0.11108(13) 0.67089(19) 0.3709(4)
H1 H -0.1300 0.7289 0.4182
C2 C -0.15674(13) 0.5973(2) 0.2900(4)
H2 H -0.2066 0.6062 0.2805
C3 C -0.12971(12) 0.5097(2) 0.2222(4)
H3 H -0.1613 0.4593 0.1705
C4 C -0.05651(12) 0.49714(18) 0.2311(3)
H4 H -0.0386 0.4382 0.1846
C5 C -0.00839(11) 0.57218(16) 0.3095(3)
C6 C -0.03580(11) 0.65948(17) 0.3831(3)
C7 C 0.01457(12) 0.73415(19) 0.4667(3)
H5 H -0.0029 0.7903 0.5228
C8 C 0.08527(12) 0.72561(17) 0.4667(3)
H6 H 0.1164 0.7757 0.5214
C9 C 0.18465(10) 0.61838(18) 0.3732(3)
C10 C 0.18378(11) 0.52357(17) 0.2901(3)
C11 C 0.11214(11) 0.49008(17) 0.2548(3)
H7 H 0.0965 0.4284 0.2009
C12 C 0.06845(11) 0.56364(16) 0.3131(3)
C13 C 0.24547(11) 0.46499(19) 0.2353(3)
C14 C 0.25332(12) 0.3633(2) 0.2732(4)
H8 H 0.2202 0.3312 0.3358
C15 C 0.30882(14) 0.3070(2) 0.2211(5)
H9 H 0.3129 0.2376 0.2470
C16 C 0.35802(14) 0.3545(3) 0.1306(5)
H10 H 0.3961 0.3176 0.0957
C17 C 0.35113(13) 0.4564(2) 0.0915(4)
H11 H 0.3847 0.4882 0.0299
C18 C 0.29517(12) 0.5122(2) 0.1421(3)
H12 H 0.2907 0.5812 0.1139
C19 C 0.24192(12) 0.6922(2) 0.4252(4)
C20 C 0.31742(12) 0.6565(2) 0.4870(4)
C21 C 0.37447(14) 0.7170(2) 0.4536(4)
H13 H 0.3655 0.7785 0.3920
C22 C 0.44479(16) 0.6864(3) 0.5116(6)
H14 H 0.4830 0.7269 0.4872
C23 C 0.45871(16) 0.5978(3) 0.6040(6)
H15 H 0.5064 0.5783 0.6427
C24 C 0.40286(16) 0.5363(3) 0.6411(4)
H16 H 0.4124 0.4754 0.7044
C25 C 0.33236(13) 0.5669(2) 0.5824(4)
H17 H 0.2943 0.5263 0.6076
loop_
_geom_bond_atom_site_label_1
_geom_bond_atom_site_label_2
_geom_bond_site_symmetry_1
_geom_bond_site_symmetry_2
N1 C8 1_555 1_555
O1 C19 1_555 1_555
C1 H1 1_555 1_555
C2 C1 1_555 1_555
H2 C2 1_555 1_555
C3 C2 1_555 1_555
H3 C3 1_555 1_555
C4 C3 1_555 1_555
H4 C4 1_555 1_555
C5 C4 1_555 1_555
C6 C1 1_555 1_555
C7 C6 1_555 1_555
H5 C7 1_555 1_555
C8 C7 1_555 1_555
H6 C8 1_555 1_555
C9 N1 1_555 1_555
C10 C9 1_555 1_555
C11 C10 1_555 1_555
H7 C11 1_555 1_555
C12 N1 1_555 1_555
C13 C10 1_555 1_555
C14 C13 1_555 1_555
H8 C14 1_555 1_555
C15 C14 1_555 1_555
H9 C15 1_555 1_555
C16 C15 1_555 1_555
H10 C16 1_555 1_555
C17 C16 1_555 1_555
H11 C17 1_555 1_555
C18 C13 1_555 1_555
H12 C18 1_555 1_555
C19 C9 1_555 1_555
C20 C19 1_555 1_555
C21 C20 1_555 1_555
H13 C21 1_555 1_555
C22 C21 1_555 1_555
H14 C22 1_555 1_555
C23 C22 1_555 1_555
H15 C23 1_555 1_555
C24 C23 1_555 1_555
H16 C24 1_555 1_555
C25 C20 1_555 1_555
H17 C25 1_555 1_555
C5 C6 1_555 1_555
C5 C12 1_555 1_555
C11 C12 1_555 1_555
C17 C18 1_555 1_555
C24 C25 1_555 1_555

#END
