
#######################################################################
#
#                 Cambridge Crystallographic Data Centre
#                                CCDC 
#
#######################################################################
#
# If this CIF has been generated from an entry in the Cambridge 
# Structural Database, then it will include bibliographic, chemical, 
# crystal, experimental, refinement or atomic coordinate data resulting 
# from the CCDC's data processing and validation procedures.
#
#######################################################################

data_UPUNUQ
_chemical_formula_moiety         'C11 H19 B1 O4 Si1'
_chemical_name_systematic        
'(2,6-dimethoxy-4-(trimethylsilyl)phenyl)boronic acid'
_symmetry_cell_setting           monoclinic
_symmetry_space_group_name_H-M   'P 21/c'
_symmetry_Int_Tables_number      14
_space_group_name_Hall           '-P 2ybc'
loop_
_symmetry_equiv_pos_site_id
_symmetry_equiv_pos_as_xyz
1 x,y,z
2 -x,1/2+y,1/2-z
3 -x,-y,-z
4 x,1/2-y,1/2+z
_cell_length_a                   7.7685(12)
_cell_length_b                   12.973(2)
_cell_length_c                   13.791(2)
_cell_angle_alpha                90
_cell_angle_beta                 103.162(9)
_cell_angle_gamma                90
_cell_volume                     1353.36
_exptl_crystal_colour            colorless
_exptl_crystal_description       block
_cell_formula_units_Z            4
_exptl_crystal_recrystallization_method chloroform
_exptl_crystal_preparation       
'Needle crystals were grown by slow evaporation of a chloroform solution  at RT. A crystal fragment was cut from a large needle.'
loop_
_atom_site_label
_atom_site_type_symbol
_atom_site_fract_x
_atom_site_fract_y
_atom_site_fract_z
Si1 Si 0.58797(5) 0.46099(3) 0.20003(3)
O1 O 0.74569(13) 0.56329(8) 0.57982(7)
O2 O 0.96594(12) 0.24464(7) 0.49785(7)
O3 O 0.92532(16) 0.45191(8) 0.72610(8)
O4 O 1.03378(14) 0.29661(8) 0.68817(7)
C1 C 0.69524(16) 0.43771(10) 0.33496(10)
C2 C 0.67930(17) 0.51062(10) 0.40702(10)
H1 H 0.6148 0.5724 0.3878
C3 C 0.75764(16) 0.49295(10) 0.50681(10)
C4 C 0.85395(16) 0.40318(10) 0.54013(9)
C5 C 0.86872(16) 0.33163(10) 0.46542(10)
C6 C 0.79104(16) 0.34763(10) 0.36483(10)
H2 H 0.8033 0.2973 0.3168
C7 C 0.5440(2) 0.60190(12) 0.18308(11)
H3 H 0.6531 0.6403 0.2099
H4 H 0.4533 0.6222 0.2184
H5 H 0.5026 0.6172 0.1120
C8 C 0.37798(19) 0.38601(12) 0.16470(11)
H6 H 0.3261 0.3952 0.0935
H7 H 0.2948 0.4107 0.2033
H8 H 0.4027 0.3128 0.1787
C9 C 0.7363(2) 0.41721(14) 0.11963(11)
H9 H 0.6862 0.4377 0.0506
H10 H 0.7479 0.3420 0.1235
H11 H 0.8530 0.4489 0.1425
C10 C 0.65459(19) 0.65847(11) 0.55150(11)
H12 H 0.7095 0.6948 0.5040
H13 H 0.6616 0.7015 0.6107
H14 H 0.5304 0.6443 0.5204
C11 C 0.97249(19) 0.16437(11) 0.42727(10)
H15 H 0.8521 0.1416 0.3967
H16 H 1.0408 0.1061 0.4614
H17 H 1.0290 0.1906 0.3755
B1 B 0.9417(2) 0.38334(12) 0.65424(11)
H18 H 1.041(2) 0.2582(11) 0.6403(8)
H19 H 0.8676(19) 0.5035(8) 0.6998(11)
loop_
_geom_bond_atom_site_label_1
_geom_bond_atom_site_label_2
_geom_bond_site_symmetry_1
_geom_bond_site_symmetry_2
Si1 C1 1_555 1_555
O1 C3 1_555 1_555
O2 C5 1_555 1_555
O3 B1 1_555 1_555
O4 B1 1_555 1_555
C1 C2 1_555 1_555
C2 H1 1_555 1_555
C3 C2 1_555 1_555
C4 C3 1_555 1_555
C5 C4 1_555 1_555
C6 C1 1_555 1_555
H2 C6 1_555 1_555
C7 Si1 1_555 1_555
H3 C7 1_555 1_555
H4 C7 1_555 1_555
H5 C7 1_555 1_555
C8 Si1 1_555 1_555
H6 C8 1_555 1_555
H7 C8 1_555 1_555
H8 C8 1_555 1_555
C9 Si1 1_555 1_555
H9 C9 1_555 1_555
H10 C9 1_555 1_555
H11 C9 1_555 1_555
C10 O1 1_555 1_555
H12 C10 1_555 1_555
H13 C10 1_555 1_555
H14 C10 1_555 1_555
C11 O2 1_555 1_555
H15 C11 1_555 1_555
H16 C11 1_555 1_555
H17 C11 1_555 1_555
B1 C4 1_555 1_555
H18 O4 1_555 1_555
H19 O3 1_555 1_555
C5 C6 1_555 1_555

#END
