
#######################################################################
#
#                 Cambridge Crystallographic Data Centre
#                                CCDC 
#
#######################################################################
#
# If this CIF has been generated from an entry in the Cambridge 
# Structural Database, then it will include bibliographic, chemical, 
# crystal, experimental, refinement or atomic coordinate data resulting 
# from the CCDC's data processing and validation procedures.
#
#######################################################################

data_UPUPEC
_chemical_name_common            
5-(4-diphenylaminophenyl)benzo[c][1,2,5]thiadiazole
_chemical_formula_moiety         'C24 H17 N3 S1'
_chemical_name_systematic        
4-(2,1,3-benzothiadiazol-5-yl)-N,N-diphenylaniline
_symmetry_cell_setting           monoclinic
_symmetry_space_group_name_H-M   'P 21/c'
_symmetry_Int_Tables_number      14
_space_group_name_Hall           '-P 2ybc'
loop_
_symmetry_equiv_pos_site_id
_symmetry_equiv_pos_as_xyz
1 x,y,z
2 -x,1/2+y,1/2-z
3 -x,-y,-z
4 x,1/2-y,1/2+z
_cell_length_a                   19.4003(4)
_cell_length_b                   9.4082(2)
_cell_length_c                   21.1126(5)
_cell_angle_alpha                90
_cell_angle_beta                 105.654(2)
_cell_angle_gamma                90
_cell_volume                     3710.58
_exptl_crystal_colour            yellow
_exptl_crystal_description       Plate
_cell_formula_units_Z            8
_exptl_crystal_recrystallization_method ethanol
_exptl_crystal_preparation       
'Crystals were grown by slowly cooling a hot ethanol solution.'
loop_
_atom_site_label
_atom_site_type_symbol
_atom_site_fract_x
_atom_site_fract_y
_atom_site_fract_z
S1 S -0.23263(2) 0.46501(4) 0.18862(2)
N1 N -0.19310(7) 0.60303(15) 0.22798(7)
C1 C -0.12714(8) 0.60578(16) 0.21836(7)
N2 N -0.17028(7) 0.40233(15) 0.15875(7)
C2 C -0.11383(8) 0.49086(16) 0.17915(7)
N3 N 0.29304(7) 0.47605(14) 0.17562(7)
C3 C -0.04593(8) 0.47493(15) 0.16660(7)
H1 H -0.0372 0.3981 0.1406
C4 C 0.00697(8) 0.57233(16) 0.19262(7)
C5 C -0.00848(8) 0.69048(16) 0.22969(7)
H2 H 0.0280 0.7591 0.2458
C6 C -0.07304(8) 0.70872(16) 0.24283(7)
H3 H -0.0815 0.7879 0.2676
C7 C 0.08048(8) 0.55352(15) 0.18543(7)
C8 C 0.09374(8) 0.47745(15) 0.13274(7)
H4 H 0.0545 0.4434 0.0987
C9 C 0.16294(8) 0.45112(16) 0.12942(7)
H5 H 0.1704 0.3993 0.0932
C10 C 0.22218(8) 0.49976(16) 0.17869(7)
C11 C 0.20925(8) 0.57623(17) 0.23128(7)
H6 H 0.2484 0.6098 0.2655
C12 C 0.13983(8) 0.60333(16) 0.23393(7)
H7 H 0.1324 0.6571 0.2696
C13 C 0.31293(8) 0.35329(16) 0.14584(7)
C14 C 0.27877(8) 0.22281(16) 0.14671(8)
H8 H 0.2416 0.2149 0.1680
C15 C 0.29904(9) 0.10472(17) 0.11660(8)
H9 H 0.2747 0.0170 0.1164
C16 C 0.35477(9) 0.11349(18) 0.08667(8)
H10 H 0.3688 0.0322 0.0665
C17 C 0.38942(8) 0.24224(18) 0.08665(7)
H11 H 0.4278 0.2488 0.0668
C18 C 0.36865(8) 0.36166(17) 0.11534(7)
H12 H 0.3923 0.4497 0.1143
C19 C 0.34757(8) 0.57562(16) 0.20590(7)
C20 C 0.41085(8) 0.52831(16) 0.24928(7)
H13 H 0.4173 0.4299 0.2593
C21 C 0.46468(8) 0.62411(18) 0.27809(7)
H14 H 0.5083 0.5908 0.3067
C22 C 0.45491(8) 0.76886(18) 0.26509(8)
H15 H 0.4913 0.8347 0.2853
C23 C 0.39156(9) 0.81609(18) 0.22232(8)
H16 H 0.3846 0.9149 0.2136
C24 C 0.33814(8) 0.72042(17) 0.19203(8)
H17 H 0.2954 0.7536 0.1620
S2 S -0.161854(19) 0.15890(4) 0.499542(18)
N4 N -0.17918(7) 0.27448(15) 0.44055(6)
C25 C -0.11544(8) 0.30994(17) 0.43088(7)
N5 N -0.07572(7) 0.14717(15) 0.51563(6)
C26 C -0.05602(8) 0.23724(17) 0.47370(7)
N6 N 0.31136(7) 0.49448(14) 0.41914(6)
C27 C 0.01498(8) 0.26300(17) 0.47052(7)
H18 H 0.0542 0.2153 0.4995
C28 C 0.02599(8) 0.35763(16) 0.42509(7)
C29 C -0.03441(8) 0.42971(17) 0.38179(7)
H19 H -0.0258 0.4951 0.3505
C30 C -0.10314(8) 0.40795(17) 0.38390(8)
H20 H -0.1418 0.4569 0.3548
C31 C 0.09944(8) 0.38944(16) 0.42064(7)
C32 C 0.15374(8) 0.28713(16) 0.43565(7)
H21 H 0.1428 0.1934 0.4466
C33 C 0.22354(8) 0.31959(16) 0.43493(7)
H22 H 0.2596 0.2486 0.4457
C34 C 0.24057(8) 0.45667(16) 0.41838(7)
C35 C 0.18615(8) 0.55805(16) 0.40171(7)
H23 H 0.1967 0.6509 0.3893
C36 C 0.11702(8) 0.52485(16) 0.40304(7)
H24 H 0.0809 0.5957 0.3918
C37 C 0.33540(8) 0.63592(16) 0.43588(7)
C38 C 0.31830(8) 0.70597(17) 0.48783(7)
H25 H 0.2919 0.6580 0.5133
C39 C 0.33986(8) 0.84651(17) 0.50246(8)
H26 H 0.3268 0.8945 0.5371
C40 C 0.38010(9) 0.91672(17) 0.46702(9)
H27 H 0.3948 1.0123 0.4772
C41 C 0.39871(9) 0.84548(17) 0.41639(8)
H28 H 0.4272 0.8921 0.3925
C42 C 0.37597(8) 0.70635(17) 0.40027(8)
H29 H 0.3881 0.6594 0.3649
C43 C 0.35790(8) 0.39563(15) 0.40092(7)
C44 C 0.42976(8) 0.39046(17) 0.43645(8)
H30 H 0.4470 0.4514 0.4732
C45 C 0.47639(9) 0.29638(18) 0.41830(9)
H31 H 0.5254 0.2941 0.4424
C46 C 0.45167(9) 0.20583(17) 0.36515(9)
H32 H 0.4835 0.1419 0.3526
C47 C 0.37990(9) 0.20958(17) 0.33052(8)
H33 H 0.3626 0.1462 0.2947
C48 C 0.33300(8) 0.30482(16) 0.34749(7)
H34 H 0.2842 0.3079 0.3228
loop_
_geom_bond_atom_site_label_1
_geom_bond_atom_site_label_2
_geom_bond_site_symmetry_1
_geom_bond_site_symmetry_2
S1 N1 1_555 1_555
N1 C1 1_555 1_555
C1 C2 1_555 1_555
N2 S1 1_555 1_555
C2 N2 1_555 1_555
N3 C10 1_555 1_555
C3 C2 1_555 1_555
H1 C3 1_555 1_555
C4 C3 1_555 1_555
C5 C4 1_555 1_555
H2 C5 1_555 1_555
C6 C1 1_555 1_555
H3 C6 1_555 1_555
C7 C4 1_555 1_555
C8 C7 1_555 1_555
H4 C8 1_555 1_555
C9 C8 1_555 1_555
H5 C9 1_555 1_555
C10 C9 1_555 1_555
C11 C10 1_555 1_555
H6 C11 1_555 1_555
C12 C7 1_555 1_555
H7 C12 1_555 1_555
C13 N3 1_555 1_555
C14 C13 1_555 1_555
H8 C14 1_555 1_555
C15 C14 1_555 1_555
H9 C15 1_555 1_555
C16 C15 1_555 1_555
H10 C16 1_555 1_555
C17 C16 1_555 1_555
H11 C17 1_555 1_555
C18 C13 1_555 1_555
H12 C18 1_555 1_555
C19 N3 1_555 1_555
C20 C19 1_555 1_555
H13 C20 1_555 1_555
C21 C20 1_555 1_555
H14 C21 1_555 1_555
C22 C21 1_555 1_555
H15 C22 1_555 1_555
C23 C22 1_555 1_555
H16 C23 1_555 1_555
C24 C19 1_555 1_555
H17 C24 1_555 1_555
S2 N4 1_555 1_555
N4 C25 1_555 1_555
C25 C26 1_555 1_555
N5 S2 1_555 1_555
C26 N5 1_555 1_555
N6 C34 1_555 1_555
C27 C26 1_555 1_555
H18 C27 1_555 1_555
C28 C27 1_555 1_555
C29 C28 1_555 1_555
H19 C29 1_555 1_555
C30 C25 1_555 1_555
H20 C30 1_555 1_555
C31 C28 1_555 1_555
C32 C31 1_555 1_555
H21 C32 1_555 1_555
C33 C32 1_555 1_555
H22 C33 1_555 1_555
C34 C33 1_555 1_555
C35 C34 1_555 1_555
H23 C35 1_555 1_555
C36 C31 1_555 1_555
H24 C36 1_555 1_555
C37 N6 1_555 1_555
C38 C37 1_555 1_555
H25 C38 1_555 1_555
C39 C38 1_555 1_555
H26 C39 1_555 1_555
C40 C39 1_555 1_555
H27 C40 1_555 1_555
C41 C40 1_555 1_555
H28 C41 1_555 1_555
C42 C37 1_555 1_555
H29 C42 1_555 1_555
C43 N6 1_555 1_555
C44 C43 1_555 1_555
H30 C44 1_555 1_555
C45 C44 1_555 1_555
H31 C45 1_555 1_555
C46 C45 1_555 1_555
H32 C46 1_555 1_555
C47 C46 1_555 1_555
H33 C47 1_555 1_555
C48 C43 1_555 1_555
H34 C48 1_555 1_555
C5 C6 1_555 1_555
C11 C12 1_555 1_555
C17 C18 1_555 1_555
C23 C24 1_555 1_555
C29 C30 1_555 1_555
C35 C36 1_555 1_555
C41 C42 1_555 1_555
C47 C48 1_555 1_555

#END
