
#######################################################################
#
#                 Cambridge Crystallographic Data Centre
#                                CCDC 
#
#######################################################################
#
# If this CIF has been generated from an entry in the Cambridge 
# Structural Database, then it will include bibliographic, chemical, 
# crystal, experimental, refinement or atomic coordinate data resulting 
# from the CCDC's data processing and validation procedures.
#
#######################################################################

data_UPUPOL
_chemical_formula_moiety         'C25 H26 O5'
_chemical_name_systematic        
'3-Mesityl-2-oxo-1-oxaspiro[4.4]non-3-en-4-yl 2-methoxybenzoate'
_symmetry_cell_setting           monoclinic
_symmetry_space_group_name_H-M   'P 21/c'
_symmetry_Int_Tables_number      14
_space_group_name_Hall           '-P 2ybc'
loop_
_symmetry_equiv_pos_site_id
_symmetry_equiv_pos_as_xyz
1 x,y,z
2 -x,1/2+y,1/2-z
3 -x,-y,-z
4 x,1/2-y,1/2+z
_cell_length_a                   10.6945(7)
_cell_length_b                   12.8176(7)
_cell_length_c                   16.4223(10)
_cell_angle_alpha                90
_cell_angle_beta                 103.5665(17)
_cell_angle_gamma                90
_cell_volume                     2188.32
_exptl_crystal_colour            colorless
_exptl_crystal_description       chunk
_cell_formula_units_Z            4
loop_
_atom_site_label
_atom_site_type_symbol
_atom_site_fract_x
_atom_site_fract_y
_atom_site_fract_z
O1 O 0.74602(16) 0.23699(12) 0.14635(11)
O2 O 0.92428(18) 0.30537(14) 0.22840(12)
O3 O 0.49036(14) 0.41506(12) 0.14933(9)
O4 O 0.47210(18) 0.39620(18) 0.28070(11)
O5 O 0.24480(16) 0.45140(14) 0.30707(11)
C1 C 0.8101(2) 0.3112(2) 0.19997(16)
C2 C 0.7191(2) 0.39304(18) 0.21260(13)
C3 C 0.7600(2) 0.48566(17) 0.26652(13)
C4 C 0.8061(2) 0.47165(18) 0.35323(13)
C5 C 0.8519(2) 0.5579(2) 0.40204(13)
C6 C 0.8516(2) 0.65719(19) 0.36887(16)
C7 C 0.8040(2) 0.66847(19) 0.28384(16)
C8 C 0.7583(2) 0.58518(19) 0.23168(13)
C9 C 0.8042(2) 0.36551(19) 0.39275(16)
C10 C 0.9026(3) 0.7485(2) 0.42456(17)
C11 C 0.7082(2) 0.6043(2) 0.13916(14)
C12 C 0.6061(2) 0.36423(17) 0.16561(13)
C13 C 0.4259(2) 0.42770(19) 0.21287(14)
C14 C 0.3026(2) 0.48095(17) 0.17986(13)
C15 C 0.2731(2) 0.52103(19) 0.09877(16)
C16 C 0.1586(2) 0.5708(2) 0.0662(2)
C17 C 0.0723(3) 0.5819(2) 0.1154(2)
C18 C 0.0977(2) 0.5437(2) 0.1960(2)
C19 C 0.2135(2) 0.49211(19) 0.22920(17)
C20 C 0.1555(2) 0.4618(2) 0.35910(18)
C21 C 0.6097(2) 0.26360(17) 0.12106(12)
C22 C 0.5302(2) 0.17665(17) 0.14717(13)
C23 C 0.4858(3) 0.1076(2) 0.07220(16)
C24 C 0.4899(4) 0.1724(2) -0.00270(19)
C25 C 0.5673(2) 0.26931(19) 0.02591(12)
H1 H 0.8841 0.5488 0.4593
H2 H 0.8024 0.7347 0.2605
H3 H 0.3324 0.5139 0.0659
H4 H 0.1401 0.5965 0.0117
H5 H -0.0052 0.6160 0.0939
H6 H 0.0377 0.5523 0.2284
H7 H 0.8155 0.3732 0.4522
H8 H 0.8726 0.3236 0.3815
H9 H 0.7232 0.3322 0.3697
H10 H 0.8328 0.7942 0.4279
H11 H 0.9643 0.7859 0.4017
H12 H 0.9432 0.7237 0.4796
H13 H 0.7186 0.6767 0.1272
H14 H 0.7554 0.5623 0.1083
H15 H 0.6187 0.5862 0.1231
H16 H 0.0731 0.4355 0.3300
H17 H 0.1858 0.4228 0.4098
H18 H 0.1476 0.5341 0.3725
H19 H 0.5825 0.1371 0.1931
H20 H 0.4568 0.2058 0.1644
H21 H 0.5425 0.0479 0.0755
H22 H 0.3988 0.0836 0.0691
H23 H 0.5298 0.1330 -0.0402
H24 H 0.4032 0.1916 -0.0317
H25 H 0.6419 0.2717 0.0019
H26 H 0.5149 0.3309 0.0091
loop_
_geom_bond_atom_site_label_1
_geom_bond_atom_site_label_2
_geom_bond_site_symmetry_1
_geom_bond_site_symmetry_2
O1 C1 1_555 1_555
O2 C1 1_555 1_555
O3 C12 1_555 1_555
O4 C13 1_555 1_555
O5 C19 1_555 1_555
C1 C2 1_555 1_555
C2 C3 1_555 1_555
C3 C4 1_555 1_555
C4 C5 1_555 1_555
C5 C6 1_555 1_555
C6 C7 1_555 1_555
C7 C8 1_555 1_555
C8 C3 1_555 1_555
C9 C4 1_555 1_555
C10 C6 1_555 1_555
C11 C8 1_555 1_555
C12 C2 1_555 1_555
C13 O3 1_555 1_555
C14 C13 1_555 1_555
C15 C14 1_555 1_555
C16 C15 1_555 1_555
C17 C16 1_555 1_555
C18 C17 1_555 1_555
C19 C14 1_555 1_555
C20 O5 1_555 1_555
C21 O1 1_555 1_555
C22 C21 1_555 1_555
C23 C22 1_555 1_555
C24 C23 1_555 1_555
C25 C21 1_555 1_555
H1 C5 1_555 1_555
H2 C7 1_555 1_555
H3 C15 1_555 1_555
H4 C16 1_555 1_555
H5 C17 1_555 1_555
H6 C18 1_555 1_555
H7 C9 1_555 1_555
H8 C9 1_555 1_555
H9 C9 1_555 1_555
H10 C10 1_555 1_555
H11 C10 1_555 1_555
H12 C10 1_555 1_555
H13 C11 1_555 1_555
H14 C11 1_555 1_555
H15 C11 1_555 1_555
H16 C20 1_555 1_555
H17 C20 1_555 1_555
H18 C20 1_555 1_555
H19 C22 1_555 1_555
H20 C22 1_555 1_555
H21 C23 1_555 1_555
H22 C23 1_555 1_555
H23 C24 1_555 1_555
H24 C24 1_555 1_555
H25 C25 1_555 1_555
H26 C25 1_555 1_555
C12 C21 1_555 1_555
C18 C19 1_555 1_555
C24 C25 1_555 1_555

#END
