
#######################################################################
#
#                 Cambridge Crystallographic Data Centre
#                                CCDC 
#
#######################################################################
#
# If this CIF has been generated from an entry in the Cambridge 
# Structural Database, then it will include bibliographic, chemical, 
# crystal, experimental, refinement or atomic coordinate data resulting 
# from the CCDC's data processing and validation procedures.
#
#######################################################################

data_UPUPUR
_chemical_formula_moiety         'C13 H11 N1 O4'
_chemical_name_systematic        
'5-(((2-Furylmethyl)amino)methylene)-6-oxocyclohexa-1,3-diene-1-carboxylic acid'
_symmetry_cell_setting           monoclinic
_symmetry_space_group_name_H-M   'P 21/c'
_symmetry_Int_Tables_number      14
_space_group_name_Hall           '-P 2ybc'
loop_
_symmetry_equiv_pos_site_id
_symmetry_equiv_pos_as_xyz
1 x,y,z
2 -x,1/2+y,1/2-z
3 -x,-y,-z
4 x,1/2-y,1/2+z
_cell_length_a                   8.472(2)
_cell_length_b                   19.743(5)
_cell_length_c                   7.2300(18)
_cell_angle_alpha                90
_cell_angle_beta                 110.278(4)
_cell_angle_gamma                90
_cell_volume                     1134.36
_exptl_crystal_colour            colorless
_exptl_crystal_description       block
_cell_formula_units_Z            4
loop_
_atom_site_label
_atom_site_type_symbol
_atom_site_fract_x
_atom_site_fract_y
_atom_site_fract_z
C1 C 1.2903(2) 0.79492(10) 0.0839(3)
C2 C 1.1166(2) 0.81066(8) 0.0737(3)
C3 C 1.0670(3) 0.87700(9) 0.0719(3)
H1 H 1.1435 0.9112 0.0757
C4 C 0.9063(3) 0.89465(9) 0.0645(3)
H2 H 0.8767 0.9400 0.0659
C5 C 0.7915(2) 0.84445(9) 0.0551(3)
H3 H 0.6834 0.8560 0.0492
C6 C 0.8352(2) 0.77620(8) 0.0543(3)
C7 C 1.0015(2) 0.75731(8) 0.0668(3)
C8 C 0.7116(2) 0.72579(9) 0.0414(3)
H4 H 0.6038 0.7399 0.0296
C9 C 0.6178(2) 0.60844(9) 0.0328(3)
H5 H 0.5065 0.6241 -0.0470
H6 H 0.6169 0.5985 0.1638
C10 C 0.6583(2) 0.54619(9) -0.0549(3)
C11 C 0.5906(3) 0.51502(10) -0.2273(3)
H7 H 0.4969 0.5292 -0.3320
C12 C 0.6877(3) 0.45624(10) -0.2214(4)
H8 H 0.6706 0.4245 -0.3215
C13 C 0.8062(3) 0.45518(11) -0.0480(5)
H9 H 0.8882 0.4218 -0.0050
N1 N 0.74117(18) 0.66173(7) 0.0450(2)
H10 H 0.8412 0.6493 0.0554
O1 O 1.39567(17) 0.83814(7) 0.0929(2)
O2 O 1.32977(17) 0.73031(7) 0.0861(3)
H11 H 1.2461 0.7072 0.0725
O3 O 1.04514(15) 0.69449(6) 0.0716(2)
O4 O 0.79310(19) 0.51022(7) 0.0622(2)
loop_
_geom_bond_atom_site_label_1
_geom_bond_atom_site_label_2
_geom_bond_site_symmetry_1
_geom_bond_site_symmetry_2
C1 C2 1_555 1_555
C2 C3 1_555 1_555
C3 H1 1_555 1_555
C4 C3 1_555 1_555
H2 C4 1_555 1_555
C5 C4 1_555 1_555
H3 C5 1_555 1_555
C6 C5 1_555 1_555
C7 C2 1_555 1_555
C8 C6 1_555 1_555
H4 C8 1_555 1_555
C9 H5 1_555 1_555
H6 C9 1_555 1_555
C10 C9 1_555 1_555
C11 C10 1_555 1_555
H7 C11 1_555 1_555
C12 C11 1_555 1_555
H8 C12 1_555 1_555
C13 C12 1_555 1_555
H9 C13 1_555 1_555
N1 C8 1_555 1_555
H10 N1 1_555 1_555
O1 C1 1_555 1_555
O2 C1 1_555 1_555
H11 O2 1_555 1_555
O3 C7 1_555 1_555
O4 C10 1_555 1_555
C6 C7 1_555 1_555
C9 N1 1_555 1_555
C13 O4 1_555 1_555

#END
