
#######################################################################
#
#                 Cambridge Crystallographic Data Centre
#                                CCDC 
#
#######################################################################
#
# If this CIF has been generated from an entry in the Cambridge 
# Structural Database, then it will include bibliographic, chemical, 
# crystal, experimental, refinement or atomic coordinate data resulting 
# from the CCDC's data processing and validation procedures.
#
#######################################################################

data_UPURAA
_chemical_formula_moiety         'C34 H25 N5 O1'
_chemical_name_systematic        
4-((hydroxyimino)methyl)-N-phenyl-N-(4-(2,2':6',2''-terpyridin-4'-yl)phenyl)aniline
_symmetry_cell_setting           triclinic
_symmetry_space_group_name_H-M   'P -1'
_symmetry_Int_Tables_number      2
_space_group_name_Hall           '-P 1'
loop_
_symmetry_equiv_pos_site_id
_symmetry_equiv_pos_as_xyz
1 x,y,z
2 -x,-y,-z
_cell_length_a                   8.8941(17)
_cell_length_b                   10.241(2)
_cell_length_c                   15.811(3)
_cell_angle_alpha                79.530(2)
_cell_angle_beta                 86.870(2)
_cell_angle_gamma                70.650(2)
_cell_volume                     1336.14
_exptl_crystal_description       block
_cell_formula_units_Z            2
loop_
_atom_site_label
_atom_site_type_symbol
_atom_site_fract_x
_atom_site_fract_y
_atom_site_fract_z
N1 N 0.8156(3) 0.6286(3) 0.78735(15)
N2 N 0.7487(4) 0.3426(3) 0.32231(18)
C1 C 0.8072(4) 0.5313(3) 0.63307(19)
N3 N 0.9587(5) 0.2594(3) 0.86668(18)
C2 C 0.7733(4) 0.6726(3) 0.63535(19)
H1 H 0.7471 0.7377 0.5846
C3 C 0.8518(4) 0.4917(3) 0.78548(18)
C4 C 0.7776(4) 0.7186(3) 0.71216(19)
C5 C 0.8946(4) 0.3950(3) 0.86951(19)
N4 N 0.7311(4) 0.9561(3) 0.6409(2)
C6 C 0.8495(4) 0.4399(3) 0.70992(19)
H2 H 0.8765 0.3436 0.7115
C7 C 0.7952(4) 0.4820(3) 0.55243(19)
C8 C 0.8900(4) 0.3526(4) 0.53582(19)
H3 H 0.9656 0.2946 0.5766
C9 C 0.8704(4) 0.4457(4) 0.9463(2)
H4 H 0.8264 0.5417 0.9465
C10 C 0.7646(4) 0.3889(4) 0.3993(2)
C11 C 0.7410(4) 0.8698(3) 0.7160(2)
C12 C 0.8768(4) 0.3056(4) 0.4607(2)
H5 H 0.9436 0.2178 0.4515
C13 C 0.6894(4) 0.4367(4) 0.2481(2)
C14 C 0.7592(5) 0.1983(4) 0.3265(2)
C15 C 0.7209(5) 0.9173(4) 0.7933(2)
H6 H 0.7303 0.8542 0.8447
C16 C 0.7392(5) 0.5515(5) 0.2226(2)
H7 H 0.8157 0.5648 0.2548
C17 C 0.6844(4) 0.5654(4) 0.4897(2)
H8 H 0.6197 0.6542 0.4982
C18 C 0.6682(5) 0.5194(4) 0.4152(2)
H9 H 0.5913 0.5767 0.3748
C19 C 0.9123(5) 0.3524(4) 1.0222(2)
H10 H 0.8942 0.3843 1.0745
C20 C 0.5553(5) 0.6220(5) 0.1013(2)
C21 C 0.9805(6) 0.2133(4) 1.0201(2)
H11 H 1.0116 0.1481 1.0705
N5 N 0.4897(7) 0.8329(6) 0.0075(3)
C22 C 0.5781(5) 0.4179(5) 0.1969(3)
H12 H 0.5446 0.3401 0.2134
C23 C 0.6759(5) 1.1455(4) 0.7186(3)
H13 H 0.6535 1.2412 0.7174
C24 C 0.6875(6) 1.0564(4) 0.7945(3)
H14 H 0.6728 1.0898 0.8463
C25 C 1.0022(6) 0.1717(4) 0.9409(3)
H15 H 1.0501 0.0765 0.9392
C26 C 0.6761(5) 0.1354(5) 0.3866(3)
H16 H 0.6153 0.1852 0.4273
C27 C 0.6767(5) 0.6457(5) 0.1505(3)
H17 H 0.7101 0.7233 0.1327
C28 C 0.6975(6) 1.0934(4) 0.6445(3)
H18 H 0.6886 1.1560 0.5930
C29 C 0.8527(8) -0.0137(7) 0.2678(4)
H19 H 0.9125 -0.0639 0.2270
C30 C 0.8507(6) 0.1228(6) 0.2673(3)
H20 H 0.9106 0.1628 0.2273
C31 C 0.5193(5) 0.5054(6) 0.1266(3)
H21 H 0.4497 0.4852 0.0932
C32 C 0.7675(8) -0.0757(6) 0.3277(5)
H22 H 0.7685 -0.1667 0.3275
C33 C 0.6818(7) -0.0009(5) 0.3873(4)
H23 H 0.6263 -0.0425 0.4292
C34 C 0.4764(7) 0.7198(6) 0.0247(3)
H24 H 0.4157 0.6929 -0.0105
O1 O 0.3966(8) 0.9223(5) -0.0690(4)
H25 H 0.3772 0.8724 -0.0991
loop_
_geom_bond_atom_site_label_1
_geom_bond_atom_site_label_2
_geom_bond_site_symmetry_1
_geom_bond_site_symmetry_2
N1 C3 1_555 1_555
N2 C10 1_555 1_555
C1 C2 1_555 1_555
N3 C5 1_555 1_555
C2 H1 1_555 1_555
C3 C5 1_555 1_555
C4 N1 1_555 1_555
C5 C9 1_555 1_555
N4 C11 1_555 1_555
C6 C1 1_555 1_555
H2 C6 1_555 1_555
C7 C1 1_555 1_555
C8 C7 1_555 1_555
H3 C8 1_555 1_555
C9 H4 1_555 1_555
C10 C12 1_555 1_555
C11 C4 1_555 1_555
C12 C8 1_555 1_555
H5 C12 1_555 1_555
C13 N2 1_555 1_555
C14 N2 1_555 1_555
C15 C11 1_555 1_555
H6 C15 1_555 1_555
C16 C13 1_555 1_555
H7 C16 1_555 1_555
C17 C7 1_555 1_555
H8 C17 1_555 1_555
C18 C10 1_555 1_555
H9 C18 1_555 1_555
C19 C9 1_555 1_555
H10 C19 1_555 1_555
C20 C27 1_555 1_555
C21 C19 1_555 1_555
H11 C21 1_555 1_555
N5 C34 1_555 1_555
C22 C13 1_555 1_555
H12 C22 1_555 1_555
C23 H13 1_555 1_555
C24 C15 1_555 1_555
H14 C24 1_555 1_555
C25 N3 1_555 1_555
H15 C25 1_555 1_555
C26 C14 1_555 1_555
H16 C26 1_555 1_555
C27 C16 1_555 1_555
H17 C27 1_555 1_555
C28 N4 1_555 1_555
H18 C28 1_555 1_555
C29 H19 1_555 1_555
C30 C14 1_555 1_555
H20 C30 1_555 1_555
C31 C20 1_555 1_555
H21 C31 1_555 1_555
C32 C29 1_555 1_555
H22 C32 1_555 1_555
C33 C26 1_555 1_555
H23 C33 1_555 1_555
C34 C20 1_555 1_555
H24 C34 1_555 1_555
O1 N5 1_555 1_555
H25 O1 1_555 1_555
C2 C4 1_555 1_555
C3 C6 1_555 1_555
C17 C18 1_555 1_555
C21 C25 1_555 1_555
C22 C31 1_555 1_555
C23 C24 1_555 1_555
C23 C28 1_555 1_555
C29 C30 1_555 1_555
C32 C33 1_555 1_555

#END
