
#######################################################################
#
#                 Cambridge Crystallographic Data Centre
#                                CCDC 
#
#######################################################################
#
# If this CIF has been generated from an entry in the Cambridge 
# Structural Database, then it will include bibliographic, chemical, 
# crystal, experimental, refinement or atomic coordinate data resulting 
# from the CCDC's data processing and validation procedures.
#
#######################################################################

data_UPUTOQ
_chemical_name_common            
'tetrabutylammonium benzo-tetrathiafulvalene-calix[4]pyrrole C60fullerene fluoride'
_chemical_formula_moiety         'C60,C60 H44 N4 S16,F1 1-,C16 H36 N1 1+'
_chemical_name_systematic        
'tetrabutylammonium C60fullerene 6,30-bis(1,3-benzodithiol-2-ylidene)-14,22-bis(1,3-benzodithiol-2-ylidene)-2,2,10,10,18,18,26,26-octamethyl-5,7,13,15,21,23,29,31-octathia-33,34,35,36-tetraazanonacyclo[25.5.1.1^3,9^.1^11,17^.1^19,25^.0^4,8^.0^12,16^.0^20,24^.0^28,32^]hexatriaconta-1(32),3,8,11,16,19,24,27-octaene fluoride'
_symmetry_cell_setting           tetragonal
_symmetry_space_group_name_H-M   'P 4/n'
_symmetry_Int_Tables_number      85
_space_group_name_Hall           '-P 4a'
loop_
_symmetry_equiv_pos_site_id
_symmetry_equiv_pos_as_xyz
1 x,y,z
2 1/2-y,x,z
3 1/2-x,1/2-y,z
4 y,1/2-x,z
5 -x,-y,-z
6 1/2+y,-x,-z
7 1/2+x,1/2+y,-z
8 -y,1/2+x,-z
_cell_length_a                   18.7465(8)
_cell_length_b                   18.7465(8)
_cell_length_c                   14.7998(7)
_cell_angle_alpha                90
_cell_angle_beta                 90
_cell_angle_gamma                90
_cell_volume                     5201.11
_exptl_crystal_colour            'dark blue'
_exptl_crystal_description       plate
_cell_formula_units_Z            2
_exptl_crystal_recrystallization_method dichloromethane/pentane
loop_
_atom_site_label
_atom_site_type_symbol
_atom_site_fract_x
_atom_site_fract_y
_atom_site_fract_z
F1 F 0.7500 0.7500 -0.1228(3)
S1 S 0.46999(6) 0.75011(6) 0.13664(7)
S2 S 0.51219(6) 0.90399(6) 0.13125(8)
S3 S 0.38524(7) 0.77737(7) 0.32194(8)
S4 S 0.42489(7) 0.92978(7) 0.31842(9)
C1 C 0.5411(2) 0.7722(2) 0.0640(3)
N1 N 0.62925(18) 0.78580(19) -0.0311(2)
H1 H 0.6614 0.7762 -0.0707
C2 C 0.5620(2) 0.8452(2) 0.0645(3)
C3 C 0.4658(2) 0.8351(2) 0.1870(3)
C4 C 0.4208(3) 0.9285(3) 0.5064(4)
H2 H 0.4329 0.9766 0.5060
C5 C 0.3948(2) 0.8194(2) 0.4278(3)
C6 C 0.6182(2) 0.8522(2) 0.0037(3)
C7 C 0.4297(2) 0.8470(2) 0.2639(3)
C8 C 0.3854(3) 0.7848(3) 0.5094(3)
H3 H 0.3743 0.7365 0.5108
C9 C 0.5832(2) 0.7356(2) 0.0042(3)
C10 C 0.6589(2) 0.9168(2) -0.0290(3)
C11 C 0.4127(2) 0.8916(2) 0.4257(3)
C12 C 0.6586(3) 0.9176(3) -0.1336(3)
H4 H 0.6867 0.9569 -0.1548
H5 H 0.6105 0.9225 -0.1549
H6 H 0.6784 0.8737 -0.1558
C13 C 0.6220(3) 0.9847(2) 0.0068(4)
H7 H 0.6248 0.9856 0.0716
H8 H 0.5728 0.9846 -0.0113
H9 H 0.6453 1.0260 -0.0174
C14 C 0.4107(3) 0.8929(4) 0.5879(4)
H10 H 0.4163 0.9172 0.6423
C15 C 0.3926(3) 0.8226(3) 0.5883(4)
H11 H 0.3849 0.7997 0.6432
S1A S 0.74989(6) 0.46999(6) 0.13664(7)
S2A S 0.59601(6) 0.51219(6) 0.13125(8)
S3A S 0.72263(7) 0.38524(7) 0.32194(8)
S4A S 0.57022(7) 0.42489(7) 0.31842(9)
C1A C 0.7278(2) 0.5411(2) 0.0640(3)
N1A N 0.71420(19) 0.62925(18) -0.0311(2)
H1A H 0.7238 0.6614 -0.0707
C2A C 0.6548(2) 0.5620(2) 0.0645(3)
C3A C 0.6649(2) 0.4658(2) 0.1870(3)
C4A C 0.5715(3) 0.4208(3) 0.5064(4)
H2A H 0.5234 0.4329 0.5060
C5A C 0.6806(2) 0.3948(2) 0.4278(3)
C6A C 0.6478(2) 0.6182(2) 0.0037(3)
C7A C 0.6530(2) 0.4297(2) 0.2639(3)
C8A C 0.7152(3) 0.3854(3) 0.5094(3)
H3A H 0.7635 0.3743 0.5108
C9A C 0.7644(2) 0.5832(2) 0.0042(3)
C10A C 0.5832(2) 0.6589(2) -0.0290(3)
C11A C 0.6084(2) 0.4127(2) 0.4257(3)
C12A C 0.5824(3) 0.6586(3) -0.1336(3)
H4A H 0.5431 0.6867 -0.1548
H5A H 0.5775 0.6105 -0.1549
H6A H 0.6263 0.6784 -0.1558
C13A C 0.5153(2) 0.6220(3) 0.0068(4)
H7A H 0.5144 0.6248 0.0716
H8A H 0.5154 0.5728 -0.0113
H9A H 0.4740 0.6453 -0.0174
C14A C 0.6071(4) 0.4107(3) 0.5879(4)
H10A H 0.5828 0.4163 0.6423
C15A C 0.6774(3) 0.3926(3) 0.5883(4)
H11A H 0.7003 0.3849 0.6432
S1C S 0.75011(6) 1.03001(6) 0.13664(7)
S2C S 0.90399(6) 0.98781(6) 0.13125(8)
S3C S 0.77737(7) 1.11476(7) 0.32194(8)
S4C S 0.92978(7) 1.07511(7) 0.31842(9)
C1C C 0.7722(2) 0.9589(2) 0.0640(3)
N1C N 0.78580(19) 0.87075(18) -0.0311(2)
H1C H 0.7762 0.8386 -0.0707
C2C C 0.8452(2) 0.9380(2) 0.0645(3)
C3C C 0.8351(2) 1.0342(2) 0.1870(3)
C4C C 0.9285(3) 1.0792(3) 0.5064(4)
H2C H 0.9766 1.0671 0.5060
C5C C 0.8194(2) 1.1052(2) 0.4278(3)
C6C C 0.8522(2) 0.8818(2) 0.0037(3)
C7C C 0.8470(2) 1.0703(2) 0.2639(3)
C8C C 0.7848(3) 1.1146(3) 0.5094(3)
H3C H 0.7365 1.1257 0.5108
C9C C 0.7356(2) 0.9168(2) 0.0042(3)
C10C C 0.9168(2) 0.8411(2) -0.0290(3)
C11C C 0.8916(2) 1.0873(2) 0.4257(3)
C12C C 0.9176(3) 0.8414(3) -0.1336(3)
H4C H 0.9569 0.8133 -0.1548
H5C H 0.9225 0.8895 -0.1549
H6C H 0.8737 0.8216 -0.1558
C13C C 0.9847(2) 0.8780(3) 0.0068(4)
H7C H 0.9856 0.8752 0.0716
H8C H 0.9846 0.9272 -0.0113
H9C H 1.0260 0.8547 -0.0174
C14C C 0.8929(4) 1.0893(3) 0.5879(4)
H10C H 0.9172 1.0837 0.6423
C15C C 0.8226(3) 1.1074(3) 0.5883(4)
H11C H 0.7997 1.1151 0.6432
S1B S 1.03001(6) 0.74989(6) 0.13664(7)
S2B S 0.98781(6) 0.59601(6) 0.13125(8)
S3B S 1.11476(7) 0.72263(7) 0.32194(8)
S4B S 1.07511(7) 0.57022(7) 0.31842(9)
C1B C 0.9589(2) 0.7278(2) 0.0640(3)
N1B N 0.87075(18) 0.71420(19) -0.0311(2)
H1B H 0.8386 0.7238 -0.0707
C2B C 0.9380(2) 0.6548(2) 0.0645(3)
C3B C 1.0342(2) 0.6649(2) 0.1870(3)
C4B C 1.0792(3) 0.5715(3) 0.5064(4)
H2B H 1.0671 0.5234 0.5060
C5B C 1.1052(2) 0.6806(2) 0.4278(3)
C6B C 0.8818(2) 0.6478(2) 0.0037(3)
C7B C 1.0703(2) 0.6530(2) 0.2639(3)
C8B C 1.1146(3) 0.7152(3) 0.5094(3)
H3B H 1.1257 0.7635 0.5108
C9B C 0.9168(2) 0.7644(2) 0.0042(3)
C10B C 0.8411(2) 0.5832(2) -0.0290(3)
C11B C 1.0873(2) 0.6084(2) 0.4257(3)
C12B C 0.8414(3) 0.5824(3) -0.1336(3)
H4B H 0.8133 0.5431 -0.1548
H5B H 0.8895 0.5775 -0.1549
H6B H 0.8216 0.6263 -0.1558
C13B C 0.8780(3) 0.5153(2) 0.0068(4)
H7B H 0.8752 0.5144 0.0716
H8B H 0.9272 0.5154 -0.0113
H9B H 0.8547 0.4740 -0.0174
C14B C 1.0893(3) 0.6071(4) 0.5879(4)
H10B H 1.0837 0.5828 0.6423
C15B C 1.1074(3) 0.6774(3) 0.5883(4)
H11B H 1.1151 0.7003 0.6432
C16? C 0.7504(4) 0.6389(4) 0.6377(5)
C17? C 0.7262(4) 0.7053(4) 0.6737(6)
C18? C 0.6579(4) 0.7321(4) 0.6506(5)
C19? C 0.6126(5) 0.6926(4) 0.5914(5)
C20? C 0.6366(5) 0.6263(4) 0.5554(6)
C21? C 0.7057(4) 0.6000(5) 0.5780(6)
C22? C 0.8249(4) 0.6456(4) 0.6191(5)
C23? C 0.8466(4) 0.7157(4) 0.6444(5)
C24? C 0.7853(4) 0.7528(3) 0.6773(5)
C25? C 0.7761(4) 0.8265(3) 0.6585(6)
C26? C 0.7070(4) 0.8536(4) 0.6365(7)
C27? C 0.6478(4) 0.8061(4) 0.6323(5)
C28? C 0.5977(5) 0.8123(4) 0.5599(5)
C29? C 0.5759(4) 0.7420(4) 0.5349(5)
C30? C 0.5637(6) 0.7256(4) 0.4422(5)
C31? C 0.5888(11) 0.6597(4) 0.4058(5)
C32? C 0.6228(8) 0.6092(6) 0.4631(8)
C33? C 0.6850(9) 0.5757(13) 0.4272(6)
C34? C 0.7349(5) 0.5670(8) 0.4992(9)
C35? C 0.8088(7) 0.5751(8) 0.4795(8)
C36? C 0.8539(5) 0.6132(4) 0.5402(6)
C37? C 0.9061(5) 0.6504(4) 0.4883(5)
C38? C 0.9278(5) 0.7200(4) 0.5133(5)
C39? C 0.8983(5) 0.7529(4) 0.5921(6)
C40? C 0.8891(7) 0.8270(4) 0.5731(9)
C41? C 0.8273(5) 0.8635(4) 0.6045(12)
C42? C 0.7900(7) 0.9146(10) 0.5508(12)
C43? C 0.7157(6) 0.9077(6) 0.5696(11)
C44? C 0.6652(8) 0.9139(6) 0.4981(6)
C45? C 0.6065(6) 0.8658(4) 0.4934(5)
C46? C 0.5943(5) 0.8491(4) 0.4001(5)
C47? C 0.5728(5) 0.7795(4) 0.3751(5)
C48? C 0.6020(5) 0.7465(4) 0.2963(6)
C49? C 0.6114(8) 0.6725(4) 0.3153(9)
C50? C 0.6727(8) 0.6359(5) 0.2828(12)
C51? C 0.7103(8) 0.5854(11) 0.3373(10)
C52? C 0.7848(7) 0.5912(9) 0.3191(11)
C53? C 0.8358(9) 0.5852(7) 0.3901(6)
C54? C 0.8940(6) 0.6338(5) 0.3948(5)
C55? C 0.9026(5) 0.6874(4) 0.3284(5)
C56? C 0.9242(5) 0.7577(4) 0.3535(5)
C57? C 0.9368(6) 0.7739(4) 0.4462(5)
C58? C 0.9121(12) 0.8399(4) 0.4828(6)
C59? C 0.8779(11) 0.8903(7) 0.4257(9)
C60? C 0.8165(8) 0.9252(14) 0.4616(9)
C61? C 0.7661(6) 0.9303(11) 0.3898(10)
C62? C 0.6919(7) 0.9243(8) 0.4086(8)
C63? C 0.6465(5) 0.8864(4) 0.3480(6)
C64? C 0.6754(4) 0.8538(4) 0.2692(5)
C65? C 0.6536(4) 0.7838(4) 0.2437(5)
C66? C 0.7145(4) 0.7467(4) 0.2099(6)
C67? C 0.7241(5) 0.6731(4) 0.2293(11)
C68? C 0.7928(6) 0.6463(4) 0.2531(11)
C69? C 0.8524(6) 0.6934(4) 0.2562(7)
C70? C 0.8869(5) 0.8070(4) 0.2974(6)
C71? C 0.8625(8) 0.8730(4) 0.3340(10)
C72? C 0.7944(5) 0.9002(5) 0.3088(10)
C73? C 0.7497(4) 0.8605(4) 0.2498(7)
C74? C 0.7739(4) 0.7943(4) 0.2133(5)
C75? C 0.8423(4) 0.7675(4) 0.2376(5)
N2? N 0.2500 0.7500 0.0000
C76? C 0.31187(15) 0.7364(5) -0.05692(19)
H12? H 0.2969 0.7195 -0.1159
H13? H 0.3404 0.6994 -0.0289
C77? C 0.3561(7) 0.8012(7) -0.0676(10)
H14? H 0.3820 0.8112 -0.0124
H15? H 0.3258 0.8417 -0.0813
C78? C 0.4061(8) 0.7877(8) -0.1437(11)
H16? H 0.4389 0.7496 -0.1283
H17? H 0.3804 0.7744 -0.1980
C79? C 0.4461(9) 0.8552(9) -0.1588(12)
H18? H 0.4738 0.8517 -0.2131
H19? H 0.4771 0.8638 -0.1084
H20? H 0.4128 0.8939 -0.1643
C80? C 0.1900(4) 0.7065(6) -0.0348(8)
H21? H 0.2095 0.6631 -0.0604
H22? H 0.1591 0.6932 0.0150
C81? C 0.1489(8) 0.7434(8) -0.1050(11)
H23? H 0.1799 0.7709 -0.1442
H24? H 0.1154 0.7759 -0.0765
C82? C 0.1091(8) 0.6894(11) -0.1575(11)
H25? H 0.1198 0.7023 -0.2195
H26? H 0.1358 0.6460 -0.1463
C83? C 0.0359(9) 0.6605(14) -0.1585(18)
H27? H 0.0346 0.6126 -0.1816
H28? H 0.0091 0.6913 -0.1977
H29? H 0.0154 0.6614 -0.0991
loop_
_geom_bond_atom_site_label_1
_geom_bond_atom_site_label_2
_geom_bond_site_symmetry_1
_geom_bond_site_symmetry_2
S1 C1 1_555 1_555
S2 C2 1_555 1_555
S3 C5 1_555 1_555
S4 C7 1_555 1_555
C1 C2 1_555 1_555
N1 H1 1_555 1_555
C2 C6 1_555 1_555
C3 S1 1_555 1_555
C4 H2 1_555 1_555
C5 C8 1_555 1_555
C6 N1 1_555 1_555
C7 S3 1_555 1_555
C8 H3 1_555 1_555
C9 C1 1_555 1_555
C10 C6 1_555 1_555
C11 S4 1_555 1_555
C12 C10 1_555 1_555
H4 C12 1_555 1_555
H5 C12 1_555 1_555
H6 C12 1_555 1_555
C13 C10 1_555 1_555
H7 C13 1_555 1_555
H8 C13 1_555 1_555
H9 C13 1_555 1_555
C14 C4 1_555 1_555
H10 C14 1_555 1_555
C15 C8 1_555 1_555
H11 C15 1_555 1_555
S1A C1A 1_555 1_555
S2A C2A 1_555 1_555
S3A C5A 1_555 1_555
S4A C7A 1_555 1_555
C1A C2A 1_555 1_555
N1A H1A 1_555 1_555
C2A C6A 1_555 1_555
C3A S1A 1_555 1_555
C4A H2A 1_555 1_555
C5A C8A 1_555 1_555
C6A N1A 1_555 1_555
C7A S3A 1_555 1_555
C8A H3A 1_555 1_555
C9A C1A 1_555 1_555
C10A C9 1_555 1_555
C11A S4A 1_555 1_555
C12A C10A 1_555 1_555
H4A C12A 1_555 1_555
H5A C12A 1_555 1_555
H6A C12A 1_555 1_555
C13A C10A 1_555 1_555
H7A C13A 1_555 1_555
H8A C13A 1_555 1_555
H9A C13A 1_555 1_555
C14A C4A 1_555 1_555
H10A C14A 1_555 1_555
C15A C8A 1_555 1_555
H11A C15A 1_555 1_555
S1C C1C 1_555 1_555
S2C C2C 1_555 1_555
S3C C5C 1_555 1_555
S4C C7C 1_555 1_555
C1C C2C 1_555 1_555
N1C H1C 1_555 1_555
C2C C6C 1_555 1_555
C3C S1C 1_555 1_555
C4C H2C 1_555 1_555
C5C C8C 1_555 1_555
C6C N1C 1_555 1_555
C7C S3C 1_555 1_555
C8C H3C 1_555 1_555
C9C C10 1_555 1_555
C10C C6C 1_555 1_555
C11C S4C 1_555 1_555
C12C C10C 1_555 1_555
H4C C12C 1_555 1_555
H5C C12C 1_555 1_555
H6C C12C 1_555 1_555
C13C C10C 1_555 1_555
H7C C13C 1_555 1_555
H8C C13C 1_555 1_555
H9C C13C 1_555 1_555
C14C C4C 1_555 1_555
H10C C14C 1_555 1_555
C15C C8C 1_555 1_555
H11C C15C 1_555 1_555
S1B C1B 1_555 1_555
S2B C2B 1_555 1_555
S3B C5B 1_555 1_555
S4B C7B 1_555 1_555
C1B C2B 1_555 1_555
N1B H1B 1_555 1_555
C2B C6B 1_555 1_555
C3B S1B 1_555 1_555
C4B H2B 1_555 1_555
C5B C8B 1_555 1_555
C6B N1B 1_555 1_555
C7B S3B 1_555 1_555
C8B H3B 1_555 1_555
C9B C10C 1_555 1_555
C10B C9A 1_555 1_555
C11B S4B 1_555 1_555
C12B C10B 1_555 1_555
H4B C12B 1_555 1_555
H5B C12B 1_555 1_555
H6B C12B 1_555 1_555
C13B C10B 1_555 1_555
H7B C13B 1_555 1_555
H8B C13B 1_555 1_555
H9B C13B 1_555 1_555
C14B C4B 1_555 1_555
H10B C14B 1_555 1_555
C15B C8B 1_555 1_555
H11B C15B 1_555 1_555
S2 C3 1_555 1_555
N1 C9 1_555 1_555
C3 C7 1_555 1_555
C4 C11 1_555 1_555
C5 C11 1_555 1_555
C14 C15 1_555 1_555
S2A C3A 1_555 1_555
N1A C9A 1_555 1_555
C3A C7A 1_555 1_555
C4A C11A 1_555 1_555
C5A C11A 1_555 1_555
C6A C10A 1_555 1_555
C14A C15A 1_555 1_555
S2C C3C 1_555 1_555
C1C C9C 1_555 1_555
N1C C9C 1_555 1_555
C3C C7C 1_555 1_555
C4C C11C 1_555 1_555
C5C C11C 1_555 1_555
C14C C15C 1_555 1_555
S2B C3B 1_555 1_555
C1B C9B 1_555 1_555
N1B C9B 1_555 1_555
C3B C7B 1_555 1_555
C4B C11B 1_555 1_555
C5B C11B 1_555 1_555
C6B C10B 1_555 1_555
C14B C15B 1_555 1_555

#END
