
#######################################################################
#
#                 Cambridge Crystallographic Data Centre
#                                CCDC 
#
#######################################################################
#
# If this CIF has been generated from an entry in the Cambridge 
# Structural Database, then it will include bibliographic, chemical, 
# crystal, experimental, refinement or atomic coordinate data resulting 
# from the CCDC's data processing and validation procedures.
#
#######################################################################

data_UPUVEI
_chemical_name_common            
'tetraoctylammonium tetrathiafulvalene-calix[4]pyrrole C70fullerene chloride dichloromethane solvate'
_chemical_formula_moiety         
'C68 H84 N4 S24,C32 H68 N1 1+,2.6(C1 H2 Cl2),Cl1 1-,C70'
_chemical_name_systematic        
'tetrtaoctylammonium 14,22-bis(4,5-bis(propylsulfanyl)-1,3-dithiol-2-ylidene)-6,30-bis(4,5-bis(propylsulfanyl)-1,3-dithiol-2-ylidene)-2,2,10,10,18,18,26,26-octamethyl-5,7,13,15,21,23,29,31-octathia-33,34,35,36-tetraazanonacyclo[25.5.1.1^3,9^.1^11,17^.1^19,25^.0^4,8^.0^12,16^.0^20,24^.0^28,32^]hexatriaconta-1(32),3,8,11,16,19,24,27-octaene C70fullerene chloride dichloromethane solvate'
_symmetry_cell_setting           triclinic
_symmetry_space_group_name_H-M   'P -1'
_symmetry_Int_Tables_number      2
_space_group_name_Hall           '-P 1'
loop_
_symmetry_equiv_pos_site_id
_symmetry_equiv_pos_as_xyz
1 x,y,z
2 -x,-y,-z
_cell_length_a                   19.601(11)
_cell_length_b                   20.274(11)
_cell_length_c                   20.336(10)
_cell_angle_alpha                74.425(16)
_cell_angle_beta                 81.702(17)
_cell_angle_gamma                86.891(19)
_cell_volume                     7702.07
_exptl_crystal_colour            'dark brown'
_exptl_crystal_description       prism
_cell_formula_units_Z            2
_exptl_crystal_recrystallization_method dichloromethane/pentane
loop_
_atom_site_label
_atom_site_type_symbol
_atom_site_fract_x
_atom_site_fract_y
_atom_site_fract_z
S1 S 0.52438(13) 0.66495(12) 0.55979(13)
S2 S 0.50301(13) 0.80691(13) 0.57919(13)
S3 S 0.37867(13) 0.75030(13) 0.70337(13)
S4 S 0.41027(16) 0.60886(15) 0.69169(18)
S5 S 0.25257(15) 0.70719(16) 0.80906(15)
S6 S 0.28513(15) 0.55085(15) 0.79545(17)
S7 S 0.64213(15) 0.99176(13) 0.60966(14)
S8 S 0.78970(15) 0.99420(12) 0.63419(13)
S9 S 0.73840(18) 1.03117(15) 0.77818(14)
S10 S 0.59310(18) 1.03445(16) 0.75292(15)
S11 S 0.6997(2) 1.0286(2) 0.92913(16)
S12 S 1.01332(14) 0.82385(12) 0.63051(12)
S13 S 1.03647(13) 0.68266(12) 0.60960(12)
S14 S 1.09323(14) 0.63247(14) 0.75957(14)
S15 S 1.06985(14) 0.77174(14) 0.77775(13)
S16 S 1.08127(15) 0.72869(18) 0.92891(15)
S17 S 1.10668(18) 0.56808(18) 0.90971(18)
S18 S 0.87343(12) 0.50260(11) 0.56851(12)
S19 S 0.72379(12) 0.50051(11) 0.55100(12)
S20 S 0.71150(14) 0.34868(12) 0.66121(13)
S21 S 0.85836(14) 0.35525(13) 0.67942(13)
S22 S 0.8541(2) 0.22945(15) 0.79804(14)
S23 S 0.6895(2) 0.21566(16) 0.77278(18)
N1 N 0.6716(4) 0.7911(3) 0.4500(4)
H1 H 0.7086 0.8046 0.4202
N2 N 0.7702(4) 0.9020(4) 0.4882(4)
H2 H 0.7836 0.8813 0.4555
N3 N 0.9048(4) 0.7928(3) 0.4913(4)
H3 H 0.8767 0.8025 0.4598
N4 N 0.8084(4) 0.6798(4) 0.4569(4)
H4 H 0.8116 0.7221 0.4306
C1 C 0.6300(5) 0.8332(5) 0.4829(5)
C2 C 0.5763(5) 0.7920(5) 0.5245(5)
C3 C 0.5887(5) 0.7256(4) 0.5152(4)
C4 C 0.6469(5) 0.7245(4) 0.4703(4)
C5 C 0.4792(5) 0.7194(5) 0.6064(5)
C6 C 0.4310(5) 0.6965(5) 0.6594(5)
C7 C 0.3242(5) 0.6854(5) 0.7566(5)
C8 C 0.3394(5) 0.6204(5) 0.7501(5)
C9 C 0.2868(7) 0.6842(7) 0.8923(5)
H5 H 0.2479 0.6817 0.9298
H6 H 0.3087 0.6381 0.8992
C10 C 0.3380(7) 0.7332(7) 0.8977(5)
H7 H 0.3159 0.7791 0.8919
H8 H 0.3764 0.7365 0.8596
C11 C 0.3671(7) 0.7136(9) 0.9651(6)
H9 H 0.3297 0.7122 1.0030
H10 H 0.4009 0.7475 0.9650
H11 H 0.3894 0.6684 0.9711
C12 C 0.3386(5) 0.4759(4) 0.7861(7)
H12 H 0.3570 0.4817 0.7370
H13 H 0.3782 0.4720 0.8123
C13 C 0.2968(5) 0.4114(3) 0.8125(6)
H14 H 0.2753 0.4082 0.8603
H15 H 0.2593 0.4144 0.7839
C14 C 0.3385(6) 0.3482(4) 0.8112(6)
H16 H 0.3619 0.3520 0.7644
H17 H 0.3082 0.3085 0.8255
H18 H 0.3729 0.3425 0.8429
C15 C 0.6451(5) 0.9091(5) 0.4701(5)
C16 C 0.5776(5) 0.9473(5) 0.4933(6)
H19 H 0.5628 0.9278 0.5426
H20 H 0.5411 0.9418 0.4671
H21 H 0.5869 0.9961 0.4848
C17 C 0.6647(6) 0.9408(5) 0.3896(5)
H22 H 0.6791 0.9882 0.3808
H23 H 0.6245 0.9397 0.3663
H24 H 0.7026 0.9139 0.3720
C18 C 0.7025(5) 0.9202(4) 0.5073(5)
C19 C 0.7041(6) 0.9510(5) 0.5598(5)
C20 C 0.7745(5) 0.9515(5) 0.5720(5)
C21 C 0.8145(5) 0.9213(4) 0.5282(5)
C22 C 0.7015(6) 1.0027(5) 0.6645(5)
C23 C 0.6799(6) 1.0200(5) 0.7227(5)
S24 S 0.5442(3) 1.0563(3) 0.8952(3)
C24 C 0.4901(8) 0.9805(6) 0.9125(11)
H25 H 0.4466 0.9874 0.9415
H26 H 0.4783 0.9755 0.8684
C25 C 0.5254(9) 0.9161(5) 0.9483(12)
H27 H 0.5448 0.9242 0.9877
H28 H 0.5642 0.9049 0.9160
C26 C 0.4779(13) 0.8560(7) 0.9740(14)
H29 H 0.4317 0.8719 0.9893
H30 H 0.4955 0.8229 1.0127
H31 H 0.4756 0.8343 0.9368
C27 C 0.7948(4) 1.0292(7) 0.9125(5)
H32 H 0.8115 0.9910 0.8924
H33 H 0.8099 1.0726 0.8786
C28 C 0.8262(5) 1.0223(7) 0.9770(6)
H34 H 0.8197 0.9750 1.0064
H35 H 0.8014 1.0536 1.0026
C29 C 0.9016(6) 1.0382(9) 0.9639(9)
H36 H 0.9249 1.0153 0.9299
H37 H 0.9215 1.0218 1.0070
H38 H 0.9076 1.0877 0.9462
C30 C 0.8936(5) 0.9118(4) 0.5136(5)
C31 C 0.9167(6) 0.9504(5) 0.4344(5)
H39 H 0.9026 0.9988 0.4259
H40 H 0.8948 0.9291 0.4050
H41 H 0.9670 0.9470 0.4237
C32 C 0.9264(6) 0.9473(5) 0.5578(5)
H42 H 0.9129 0.9242 0.6066
H43 H 0.9107 0.9952 0.5486
H44 H 0.9767 0.9453 0.5468
C33 C 0.9209(5) 0.8385(4) 0.5275(4)
C34 C 0.9657(5) 0.8033(4) 0.5716(5)
C35 C 0.9773(5) 0.7357(4) 0.5612(4)
C36 C 0.9382(5) 0.7309(4) 0.5111(4)
C37 C 1.0409(5) 0.7376(5) 0.6631(5)
C38 C 1.0642(5) 0.7151(5) 0.7257(5)
C39 C 1.0776(5) 0.7039(6) 0.8530(5)
C40 C 1.0853(5) 0.6397(5) 0.8462(5)
C41 C 0.9974(5) 0.7726(6) 0.9401(5)
H45 H 0.9888 0.8037 0.8953
H46 H 0.9605 0.7381 0.9548
C42 C 0.9942(6) 0.8130(7) 0.9923(7)
H47 H 1.0285 0.8499 0.9756
H48 H 1.0068 0.7826 1.0359
C43 C 0.9240(7) 0.8443(7) 1.0064(7)
H49 H 0.9065 0.8656 0.9627
H50 H 0.9275 0.8792 1.0311
H51 H 0.8924 0.8086 1.0346
C44 C 1.0431(7) 0.5075(5) 0.9022(9)
C45 C 1.0713(8) 0.4367(5) 0.9090(11)
C46 C 1.0180(9) 0.3872(6) 0.9066(9)
H52 H 0.9793 0.3873 0.9430
H53 H 1.0385 0.3410 0.9138
H54 H 1.0014 0.4009 0.8616
C47 C 0.9349(5) 0.6745(4) 0.4746(5)
C48 C 0.9578(5) 0.7014(5) 0.3967(4)
H55 H 0.9300 0.7419 0.3781
H56 H 0.9515 0.6658 0.3739
H57 H 1.0066 0.7137 0.3886
C49 C 0.9869(5) 0.6159(5) 0.5021(5)
H58 H 1.0335 0.6344 0.4935
H59 H 0.9859 0.5799 0.4784
H60 H 0.9740 0.5967 0.5518
C50 C 0.8619(5) 0.6432(4) 0.4884(4)
C51 C 0.8383(4) 0.5799(4) 0.5228(4)
C52 C 0.7667(5) 0.5794(4) 0.5137(4)
C53 C 0.7488(4) 0.6411(4) 0.4722(4)
C54 C 0.7940(5) 0.4588(4) 0.5936(5)
C55 C 0.7874(5) 0.3974(5) 0.6391(5)
C56 C 0.7425(6) 0.2842(5) 0.7307(5)
C57 C 0.8087(6) 0.2890(5) 0.7390(5)
C58 C 0.6063(5) 0.2535(7) 0.7983(6)
H61 H 0.5924 0.2883 0.7578
H62 H 0.5711 0.2173 0.8127
C59 C 0.6072(6) 0.2864(8) 0.8556(7)
H63 H 0.6382 0.3262 0.8396
H64 H 0.6257 0.2533 0.8945
C60 C 0.5359(6) 0.3100(12) 0.8801(9)
H65 H 0.5015 0.2765 0.8805
H66 H 0.5257 0.3540 0.8484
H67 H 0.5345 0.3159 0.9265
C61 C 0.8705(5) 0.2822(5) 0.8558(4)
H68 H 0.9137 0.2659 0.8754
H69 H 0.8770 0.3304 0.8285
C62 C 0.8132(6) 0.2793(5) 0.9131(4)
H70 H 0.7706 0.2975 0.8932
H71 H 0.8241 0.3096 0.9409
C63 C 0.7991(8) 0.2094(6) 0.9599(6)
H72 H 0.7742 0.1831 0.9372
H73 H 0.7710 0.2133 1.0027
H74 H 0.8428 0.1860 0.9704
C64 C 0.6844(5) 0.6687(4) 0.4396(4)
C65 C 0.7025(5) 0.6956(5) 0.3612(4)
H75 H 0.6600 0.7082 0.3403
H76 H 0.7274 0.6598 0.3427
H77 H 0.7316 0.7359 0.3506
C66 C 0.6325(5) 0.6088(5) 0.4539(5)
H78 H 0.6185 0.5919 0.5036
H79 H 0.6548 0.5716 0.4359
H80 H 0.5918 0.6256 0.4310
C67 C 0.6744(7) 1.0306(6) 0.8477(6)
C68 C 0.6090(7) 1.0334(6) 0.8359(6)
Cl1 Cl 0.4630(5) 0.9508(5) 0.6625(4)
Cl2 Cl 0.4091(8) 0.8904(8) 0.8021(7)
C72 C 0.473(2) 0.8945(19) 0.7373(9)
H88 H 0.5158 0.9055 0.7522
H89 H 0.4794 0.8485 0.7291
N5 N 0.2799(4) 0.7795(3) 0.4964(3)
C73 C 0.2531(6) 0.8065(4) 0.5584(5)
H90 H 0.2051 0.7914 0.5750
H91 H 0.2811 0.7856 0.5958
C74 C 0.2545(6) 0.8825(4) 0.5453(4)
H92 H 0.3032 0.8958 0.5406
H93 H 0.2381 0.9030 0.5003
C75 C 0.2142(6) 0.9137(4) 0.5965(4)
H94 H 0.1648 0.9092 0.5932
H95 H 0.2240 0.9633 0.5819
C76 C 0.2232(6) 0.8887(5) 0.6703(3)
H96 H 0.2729 0.8896 0.6741
H97 H 0.2088 0.8403 0.6870
C77 C 0.1846(6) 0.9277(5) 0.7168(4)
H98 H 0.1975 0.9764 0.6983
H99 H 0.1348 0.9252 0.7138
C78 C 0.1937(8) 0.9067(6) 0.7909(4)
H100 H 0.2428 0.9134 0.7934
H101 H 0.1855 0.8569 0.8075
C79 C 0.1518(9) 0.9396(6) 0.8414(7)
H102 H 0.1032 0.9262 0.8455
H103 H 0.1674 0.9200 0.8869
C80 C 0.1533(12) 1.0154(6) 0.8265(9)
H104 H 0.2012 1.0302 0.8194
H105 H 0.1277 1.0300 0.8654
H106 H 0.1320 1.0361 0.7848
C81 C 0.3541(5) 0.8001(6) 0.4721(5)
H107 H 0.3800 0.7826 0.5119
H108 H 0.3552 0.8507 0.4605
C82 C 0.3939(5) 0.7783(5) 0.4118(5)
H109 H 0.3999 0.7278 0.4252
H110 H 0.3662 0.7903 0.3731
C83 C 0.4636(4) 0.8100(6) 0.3873(5)
H111 H 0.4582 0.8600 0.3816
H112 H 0.4934 0.7919 0.4237
C84 C 0.5001(5) 0.7986(6) 0.3212(4)
H113 H 0.4682 0.8115 0.2862
H114 H 0.5105 0.7490 0.3286
C85 C 0.5659(5) 0.8366(5) 0.2926(4)
H115 H 0.5561 0.8859 0.2880
H116 H 0.5989 0.8214 0.3265
C86 C 0.6005(5) 0.8287(6) 0.2244(5)
H117 H 0.6085 0.7792 0.2285
H118 H 0.5682 0.8456 0.1901
C87 C 0.6676(6) 0.8643(8) 0.1967(6)
H119 H 0.7024 0.8414 0.2263
H120 H 0.6619 0.9120 0.2005
C88 C 0.6953(8) 0.8662(8) 0.1234(6)
H121 H 0.7065 0.8195 0.1198
H122 H 0.7370 0.8939 0.1092
H123 H 0.6604 0.8865 0.0935
C89 C 0.2424(5) 0.8068(5) 0.4345(5)
H124 H 0.2548 0.7770 0.4030
H125 H 0.2605 0.8529 0.4101
C90 C 0.1646(5) 0.8127(7) 0.4463(5)
H126 H 0.1508 0.8485 0.4708
H127 H 0.1454 0.7687 0.4756
C91 C 0.1357(5) 0.8311(6) 0.3777(5)
H128 H 0.1656 0.8658 0.3440
H129 H 0.1378 0.7897 0.3604
C92 C 0.0635(5) 0.8580(6) 0.3809(4)
H130 H 0.0621 0.9016 0.3944
H131 H 0.0342 0.8251 0.4174
C93 C 0.0332(5) 0.8706(4) 0.3145(5)
H132 H 0.0429 0.8297 0.2967
H133 H -0.0175 0.8749 0.3251
C94 C 0.0577(6) 0.9317(4) 0.2587(5)
H134 H 0.0442 0.9270 0.2151
H135 H 0.1087 0.9313 0.2533
C95 C 0.0323(7) 1.0000(4) 0.2679(6)
H136 H 0.0483 1.0061 0.3099
H137 H -0.0187 0.9996 0.2761
C96 C 0.0541(7) 1.0609(4) 0.2093(6)
H138 H 0.1045 1.0609 0.1988
H139 H 0.0382 1.1030 0.2222
H140 H 0.0340 1.0586 0.1686
C97 C 0.2709(7) 0.7025(4) 0.5162(5)
H141 H 0.2207 0.6944 0.5245
H142 H 0.2893 0.6866 0.4751
C98 C 0.3006(7) 0.6561(5) 0.5754(7)
H143 H 0.2829 0.6708 0.6174
H144 H 0.3512 0.6614 0.5673
C99 C 0.2851(6) 0.5819(4) 0.5884(6)
H145 H 0.3147 0.5551 0.6220
H146 H 0.2984 0.5686 0.5448
C100 C 0.2111(6) 0.5617(4) 0.6152(8)
H147 H 0.1940 0.5838 0.6525
H148 H 0.1826 0.5790 0.5776
C101 C 0.2025(5) 0.4852(4) 0.6425(5)
H149 H 0.2069 0.4655 0.6025
H150 H 0.2416 0.4667 0.6683
C102 C 0.1386(5) 0.4596(7) 0.6874(7)
H151 H 0.1357 0.4772 0.7287
H152 H 0.1430 0.4091 0.7031
C103 C 0.0720(5) 0.4759(10) 0.6596(8)
H153 H 0.0738 0.4569 0.6193
H154 H 0.0677 0.5263 0.6427
C104 C 0.0080(5) 0.4505(9) 0.7077(7)
H155 H -0.0044 0.4063 0.7021
H156 H -0.0297 0.4836 0.6973
H157 H 0.0164 0.4448 0.7553
C105 C 0.4624(8) 0.5325(7) 0.3878(6)
H158 H 0.4192 0.5158 0.3785
H159 H 0.4924 0.4922 0.4040
Cl3 Cl 0.44305(16) 0.57457(16) 0.45276(17)
Cl4 Cl 0.5041(2) 0.58539(19) 0.31101(19)
Cl5 Cl 0.81976(13) 0.83736(11) 0.35878(11)
Cl6 Cl 0.9543(2) 0.7867(3) 0.1981(2)
Cl7 Cl 0.8367(3) 0.7188(3) 0.1786(3)
C106 C 0.8643(6) 0.7914(9) 0.1992(9)
H160 H 0.8515 0.8335 0.1652
H161 H 0.8415 0.7932 0.2454
C108 C 0.5390(6) 0.5177(5) 0.8969(5)
C109 C 0.5889(6) 0.4730(6) 0.9362(6)
C110 C 0.6342(6) 0.4427(7) 0.8906(5)
C111 C 0.6115(6) 0.4657(7) 0.8224(5)
C112 C 0.5544(7) 0.5119(7) 0.8273(6)
C113 C 0.5504(9) 0.5730(8) 0.7717(5)
C114 C 0.6006(9) 0.5870(7) 0.7140(7)
C115 C 0.6595(9) 0.5408(9) 0.7098(7)
C116 C 0.6642(7) 0.4818(8) 0.7641(5)
C117 C 0.7329(7) 0.4733(9) 0.7683(7)
C118 C 0.7561(6) 0.4471(9) 0.8374(8)
C119 C 0.7052(6) 0.4343(8) 0.8946(6)
C120 C 0.7317(6) 0.4602(9) 0.9491(9)
C121 C 0.6882(6) 0.4871(7) 0.9922(7)
C122 C 0.6129(5) 0.4929(5) 0.9896(6)
C123 C 0.5906(5) 0.5576(5) 1.0041(6)
C124 C 0.5428(6) 0.5999(4) 0.9661(5)
C125 C 0.5161(7) 0.5776(5) 0.9127(6)
C126 C 0.5154(10) 0.6420(6) 0.8543(6)
C127 C 0.5277(11) 0.6354(7) 0.7882(7)
C128 C 0.5481(6) 0.6723(4) 0.9477(6)
C129 C 0.5292(8) 0.6963(5) 0.8756(7)
C130 C 0.6060(6) 0.7045(5) 0.9603(6)
C131 C 0.6548(4) 0.6609(4) 1.0027(6)
C132 C 0.6477(4) 0.5884(4) 1.0201(6)
C133 C 0.7231(4) 0.6869(4) 0.9964(6)
C134 C 0.7814(4) 0.6415(4) 0.9908(5)
C135 C 0.7730(5) 0.5711(5) 0.9948(6)
C136 C 0.7064(5) 0.5430(5) 1.0161(7)
C137 C 0.8204(7) 0.5393(5) 0.9489(7)
C138 C 0.7954(9) 0.4792(8) 0.9257(9)
C139 C 0.8693(7) 0.5773(7) 0.9004(7)
C140 C 0.8861(8) 0.5708(8) 0.8244(6)
C141 C 0.8524(8) 0.5228(6) 0.8039(8)
C142 C 0.9023(8) 0.6366(6) 0.7908(7)
C143 C 0.8779(6) 0.6497(7) 0.8965(6)
C144 C 0.8987(9) 0.6887(8) 0.8263(6)
C145 C 0.8755(7) 0.7517(7) 0.8104(7)
C146 C 0.8323(5) 0.7803(9) 0.8541(5)
C147 C 0.8126(5) 0.7499(6) 0.9199(7)
C148 C 0.8532(6) 0.7803(6) 0.7368(5)
C149 C 0.7986(5) 0.8225(6) 0.7447(5)
C150 C 0.7820(5) 0.8309(6) 0.8127(5)
C151 C 0.7400(5) 0.8264(7) 0.7046(5)
C152 C 0.6734(5) 0.8304(7) 0.7363(5)
C153 C 0.6560(5) 0.8348(6) 0.8063(5)
C154 C 0.7156(5) 0.8333(6) 0.8454(4)
C155 C 0.6934(5) 0.7962(5) 0.9153(5)
C156 C 0.7410(5) 0.7541(4) 0.9558(5)
C157 C 0.6030(5) 0.7969(6) 0.8512(5)
C158 C 0.6244(5) 0.7710(5) 0.9209(5)
C159 C 0.5597(7) 0.7537(8) 0.8302(5)
C160 C 0.5759(8) 0.7503(8) 0.7571(8)
C161 C 0.6291(5) 0.7857(8) 0.7136(6)
C162 C 0.6740(9) 0.7559(7) 0.6648(7)
C163 C 0.6684(9) 0.6870(9) 0.6595(7)
C164 C 0.6027(11) 0.6581(11) 0.6927(9)
C165 C 0.5643(9) 0.6871(10) 0.7382(9)
C166 C 0.7273(11) 0.6364(10) 0.6553(8)
C167 C 0.7244(11) 0.5689(11) 0.6819(9)
C168 C 0.7676(11) 0.5270(10) 0.7180(10)
C169 C 0.8302(8) 0.5491(7) 0.7313(8)
C170 C 0.8475(8) 0.6159(8) 0.6970(6)
C171 C 0.7863(10) 0.6623(10) 0.6545(8)
C172 C 0.7961(9) 0.7305(8) 0.6606(8)
C173 C 0.7451(5) 0.7752(8) 0.6646(6)
C174 C 0.8587(7) 0.7297(7) 0.6997(6)
C175 C 0.8771(9) 0.6643(6) 0.7184(6)
C176 C 0.8353(5) 0.6800(5) 0.9416(7)
C177 C 0.8143(10) 0.4788(9) 0.8549(11)
S25? S 0.5230(6) 1.0252(6) 0.8980(6)
C69? C 0.4926(17) 0.9369(10) 0.9216(16)
H81? H 0.5330 0.9054 0.9278
H82? H 0.4627 0.9284 0.9665
C70? C 0.4535(15) 0.9197(17) 0.8707(17)
H83? H 0.4691 0.9500 0.8245
H84? H 0.4653 0.8720 0.8691
C71? C 0.3771(15) 0.927(2) 0.885(2)
H85? H 0.3603 0.8884 0.9245
H86? H 0.3557 0.9251 0.8450
H87? H 0.3650 0.9700 0.8969
Cl8? Cl 0.9708(14) 0.8636(12) 0.1397(14)
Cl9? Cl 0.8905(13) 0.7424(12) 0.2015(12)
C107? C 0.945(4) 0.786(3) 0.128(2)
H162? H 0.9867 0.7571 0.1201
H163? H 0.9211 0.7954 0.0868
loop_
_geom_bond_atom_site_label_1
_geom_bond_atom_site_label_2
_geom_bond_site_symmetry_1
_geom_bond_site_symmetry_2
S1 C3 1_555 1_555
S2 C2 1_555 1_555
S3 C6 1_555 1_555
S4 C6 1_555 1_555
S5 C7 1_555 1_555
S6 C8 1_555 1_555
S7 C19 1_555 1_555
S8 C20 1_555 1_555
S9 C23 1_555 1_555
S10 C23 1_555 1_555
S11 C27 1_555 1_555
S12 C34 1_555 1_555
S13 C35 1_555 1_555
S14 C38 1_555 1_555
S15 C38 1_555 1_555
S16 C39 1_555 1_555
S17 C40 1_555 1_555
S18 C51 1_555 1_555
S19 C52 1_555 1_555
S20 C55 1_555 1_555
S21 C55 1_555 1_555
S22 C57 1_555 1_555
S23 C56 1_555 1_555
N1 H1 1_555 1_555
N2 H2 1_555 1_555
N3 H3 1_555 1_555
N4 H4 1_555 1_555
C1 N1 1_555 1_555
C2 C1 1_555 1_555
C3 C2 1_555 1_555
C4 N1 1_555 1_555
C5 S1 1_555 1_555
C6 C5 1_555 1_555
C7 S3 1_555 1_555
C8 S4 1_555 1_555
C9 S5 1_555 1_555
H5 C9 1_555 1_555
H6 C9 1_555 1_555
C10 C9 1_555 1_555
H7 C10 1_555 1_555
H8 C10 1_555 1_555
C11 C10 1_555 1_555
H9 C11 1_555 1_555
H10 C11 1_555 1_555
H11 C11 1_555 1_555
C12 S6 1_555 1_555
H12 C12 1_555 1_555
H13 C12 1_555 1_555
C13 C12 1_555 1_555
H14 C13 1_555 1_555
H15 C13 1_555 1_555
C14 C13 1_555 1_555
H16 C14 1_555 1_555
H17 C14 1_555 1_555
H18 C14 1_555 1_555
C15 C1 1_555 1_555
C16 C15 1_555 1_555
H19 C16 1_555 1_555
H20 C16 1_555 1_555
H21 C16 1_555 1_555
C17 C15 1_555 1_555
H22 C17 1_555 1_555
H23 C17 1_555 1_555
H24 C17 1_555 1_555
C18 N2 1_555 1_555
C19 C18 1_555 1_555
C20 C19 1_555 1_555
C21 N2 1_555 1_555
C22 S7 1_555 1_555
C23 C22 1_555 1_555
S24 C24 1_555 1_555
C24 H25 1_555 1_555
H26 C24 1_555 1_555
C25 C24 1_555 1_555
H27 C25 1_555 1_555
H28 C25 1_555 1_555
C26 C25 1_555 1_555
H29 C26 1_555 1_555
H30 C26 1_555 1_555
H31 C26 1_555 1_555
C27 H32 1_555 1_555
H33 C27 1_555 1_555
C28 C27 1_555 1_555
H34 C28 1_555 1_555
H35 C28 1_555 1_555
C29 C28 1_555 1_555
H36 C29 1_555 1_555
H37 C29 1_555 1_555
H38 C29 1_555 1_555
C30 C21 1_555 1_555
C31 C30 1_555 1_555
H39 C31 1_555 1_555
H40 C31 1_555 1_555
H41 C31 1_555 1_555
C32 C30 1_555 1_555
H42 C32 1_555 1_555
H43 C32 1_555 1_555
H44 C32 1_555 1_555
C33 N3 1_555 1_555
C34 C33 1_555 1_555
C35 C34 1_555 1_555
C36 N3 1_555 1_555
C37 S12 1_555 1_555
C38 C37 1_555 1_555
C39 S15 1_555 1_555
C40 S14 1_555 1_555
C41 S16 1_555 1_555
H45 C41 1_555 1_555
H46 C41 1_555 1_555
C42 C41 1_555 1_555
H47 C42 1_555 1_555
H48 C42 1_555 1_555
C43 C42 1_555 1_555
H49 C43 1_555 1_555
H50 C43 1_555 1_555
H51 C43 1_555 1_555
C44 S17 1_555 1_555
C45 C44 1_555 1_555
C46 C45 1_555 1_555
H52 C46 1_555 1_555
H53 C46 1_555 1_555
H54 C46 1_555 1_555
C47 C36 1_555 1_555
C48 C47 1_555 1_555
H55 C48 1_555 1_555
H56 C48 1_555 1_555
H57 C48 1_555 1_555
C49 C47 1_555 1_555
H58 C49 1_555 1_555
H59 C49 1_555 1_555
H60 C49 1_555 1_555
C50 N4 1_555 1_555
C51 C50 1_555 1_555
C52 C51 1_555 1_555
C53 N4 1_555 1_555
C54 S18 1_555 1_555
C55 C54 1_555 1_555
C56 S20 1_555 1_555
C57 S21 1_555 1_555
C58 S23 1_555 1_555
H61 C58 1_555 1_555
H62 C58 1_555 1_555
C59 C58 1_555 1_555
H63 C59 1_555 1_555
H64 C59 1_555 1_555
C60 C59 1_555 1_555
H65 C60 1_555 1_555
H66 C60 1_555 1_555
H67 C60 1_555 1_555
C61 S22 1_555 1_555
H68 C61 1_555 1_555
H69 C61 1_555 1_555
C62 C61 1_555 1_555
H70 C62 1_555 1_555
H71 C62 1_555 1_555
C63 C62 1_555 1_555
H72 C63 1_555 1_555
H73 C63 1_555 1_555
H74 C63 1_555 1_555
C64 C4 1_555 1_555
C65 C64 1_555 1_555
H75 C65 1_555 1_555
H76 C65 1_555 1_555
H77 C65 1_555 1_555
C66 C64 1_555 1_555
H78 C66 1_555 1_555
H79 C66 1_555 1_555
H80 C66 1_555 1_555
C67 S9 1_555 1_555
C68 S10 1_555 1_555
Cl1 C72 1_555 1_555
Cl2 C72 1_555 1_555
C72 H88 1_555 1_555
H89 C72 1_555 1_555
N5 C73 1_555 1_555
C73 H90 1_555 1_555
H91 C73 1_555 1_555
C74 C73 1_555 1_555
H92 C74 1_555 1_555
H93 C74 1_555 1_555
C75 C74 1_555 1_555
H94 C75 1_555 1_555
H95 C75 1_555 1_555
C76 C75 1_555 1_555
H96 C76 1_555 1_555
H97 C76 1_555 1_555
C77 C76 1_555 1_555
H98 C77 1_555 1_555
H99 C77 1_555 1_555
C78 C77 1_555 1_555
H100 C78 1_555 1_555
H101 C78 1_555 1_555
C79 C78 1_555 1_555
H102 C79 1_555 1_555
H103 C79 1_555 1_555
C80 C79 1_555 1_555
H104 C80 1_555 1_555
H105 C80 1_555 1_555
H106 C80 1_555 1_555
C81 N5 1_555 1_555
H107 C81 1_555 1_555
H108 C81 1_555 1_555
C82 C81 1_555 1_555
H109 C82 1_555 1_555
H110 C82 1_555 1_555
C83 C82 1_555 1_555
H111 C83 1_555 1_555
H112 C83 1_555 1_555
C84 C83 1_555 1_555
H113 C84 1_555 1_555
H114 C84 1_555 1_555
C85 C84 1_555 1_555
H115 C85 1_555 1_555
H116 C85 1_555 1_555
C86 C85 1_555 1_555
H117 C86 1_555 1_555
H118 C86 1_555 1_555
C87 C86 1_555 1_555
H119 C87 1_555 1_555
H120 C87 1_555 1_555
C88 C87 1_555 1_555
H121 C88 1_555 1_555
H122 C88 1_555 1_555
H123 C88 1_555 1_555
C89 N5 1_555 1_555
H124 C89 1_555 1_555
H125 C89 1_555 1_555
C90 C89 1_555 1_555
H126 C90 1_555 1_555
H127 C90 1_555 1_555
C91 C90 1_555 1_555
H128 C91 1_555 1_555
H129 C91 1_555 1_555
C92 C91 1_555 1_555
H130 C92 1_555 1_555
H131 C92 1_555 1_555
C93 C92 1_555 1_555
H132 C93 1_555 1_555
H133 C93 1_555 1_555
C94 C93 1_555 1_555
H134 C94 1_555 1_555
H135 C94 1_555 1_555
C95 C94 1_555 1_555
H136 C95 1_555 1_555
H137 C95 1_555 1_555
C96 C95 1_555 1_555
H138 C96 1_555 1_555
H139 C96 1_555 1_555
H140 C96 1_555 1_555
C97 N5 1_555 1_555
H141 C97 1_555 1_555
H142 C97 1_555 1_555
C98 C97 1_555 1_555
H143 C98 1_555 1_555
H144 C98 1_555 1_555
C99 C98 1_555 1_555
H145 C99 1_555 1_555
H146 C99 1_555 1_555
C100 C99 1_555 1_555
H147 C100 1_555 1_555
H148 C100 1_555 1_555
C101 C100 1_555 1_555
H149 C101 1_555 1_555
H150 C101 1_555 1_555
C102 C101 1_555 1_555
H151 C102 1_555 1_555
H152 C102 1_555 1_555
C103 C102 1_555 1_555
H153 C103 1_555 1_555
H154 C103 1_555 1_555
C104 C103 1_555 1_555
H155 C104 1_555 1_555
H156 C104 1_555 1_555
H157 C104 1_555 1_555
C105 H158 1_555 1_555
H159 C105 1_555 1_555
Cl3 C105 1_555 1_555
Cl4 C105 1_555 1_555
Cl6 C106 1_555 1_555
Cl7 C106 1_555 1_555
C106 H160 1_555 1_555
H161 C106 1_555 1_555
C108 C109 1_555 1_555
C109 C110 1_555 1_555
C110 C111 1_555 1_555
C111 C112 1_555 1_555
C112 C108 1_555 1_555
C113 C112 1_555 1_555
C114 C113 1_555 1_555
C115 C114 1_555 1_555
C116 C111 1_555 1_555
C117 C116 1_555 1_555
C118 C117 1_555 1_555
C119 C110 1_555 1_555
C120 C119 1_555 1_555
C121 C120 1_555 1_555
C122 C109 1_555 1_555
C123 C122 1_555 1_555
C124 C123 1_555 1_555
C125 C108 1_555 1_555
C126 C125 1_555 1_555
C127 C113 1_555 1_555
C128 C124 1_555 1_555
C129 C126 1_555 1_555
C130 C128 1_555 1_555
C131 C130 1_555 1_555
C132 C123 1_555 1_555
C133 C131 1_555 1_555
C134 C133 1_555 1_555
C135 C134 1_555 1_555
C136 C121 1_555 1_555
C137 C135 1_555 1_555
C138 C120 1_555 1_555
C139 C137 1_555 1_555
C140 C139 1_555 1_555
C141 C140 1_555 1_555
C142 C140 1_555 1_555
C143 C139 1_555 1_555
C144 C142 1_555 1_555
C145 C144 1_555 1_555
C146 C145 1_555 1_555
C147 C146 1_555 1_555
C148 C145 1_555 1_555
C149 C148 1_555 1_555
C150 C146 1_555 1_555
C151 C149 1_555 1_555
C152 C151 1_555 1_555
C153 C152 1_555 1_555
C154 C150 1_555 1_555
C155 C154 1_555 1_555
C156 C133 1_555 1_555
C157 C153 1_555 1_555
C158 C130 1_555 1_555
C159 C129 1_555 1_555
C160 C159 1_555 1_555
C161 C152 1_555 1_555
C162 C161 1_555 1_555
C163 C162 1_555 1_555
C164 C114 1_555 1_555
C165 C127 1_555 1_555
C166 C163 1_555 1_555
C167 C115 1_555 1_555
C168 C117 1_555 1_555
C169 C141 1_555 1_555
C170 C169 1_555 1_555
C171 C166 1_555 1_555
C172 C171 1_555 1_555
C173 C151 1_555 1_555
C174 C148 1_555 1_555
C175 C142 1_555 1_555
C176 C134 1_555 1_555
C177 C118 1_555 1_555
S2 C5 1_555 1_555
S8 C22 1_555 1_555
S11 C67 1_555 1_555
S13 C37 1_555 1_555
S19 C54 1_555 1_555
C3 C4 1_555 1_555
C7 C8 1_555 1_555
C15 C18 1_555 1_555
C20 C21 1_555 1_555
S24 C68 1_555 1_555
C30 C33 1_555 1_555
C35 C36 1_555 1_555
C39 C40 1_555 1_555
C47 C50 1_555 1_555
C52 C53 1_555 1_555
C53 C64 1_555 1_555
C56 C57 1_555 1_555
C67 C68 1_555 1_555
C115 C116 1_555 1_555
C118 C119 1_555 1_555
C121 C122 1_555 1_555
C124 C125 1_555 1_555
C126 C127 1_555 1_555
C128 C129 1_555 1_555
C131 C132 1_555 1_555
C132 C136 1_555 1_555
C135 C136 1_555 1_555
C137 C138 1_555 1_555
C138 C177 1_555 1_555
C141 C177 1_555 1_555
C143 C144 1_555 1_555
C143 C176 1_555 1_555
C147 C156 1_555 1_555
C147 C176 1_555 1_555
C149 C150 1_555 1_555
C153 C154 1_555 1_555
C155 C156 1_555 1_555
C155 C158 1_555 1_555
C157 C158 1_555 1_555
C157 C159 1_555 1_555
C160 C161 1_555 1_555
C160 C165 1_555 1_555
C162 C173 1_555 1_555
C163 C164 1_555 1_555
C164 C165 1_555 1_555
C166 C167 1_555 1_555
C167 C168 1_555 1_555
C168 C169 1_555 1_555
C170 C171 1_555 1_555
C170 C175 1_555 1_555
C172 C173 1_555 1_555
C172 C174 1_555 1_555
C174 C175 1_555 1_555

#END
