
#######################################################################
#
#                 Cambridge Crystallographic Data Centre
#                                CCDC 
#
#######################################################################
#
# If this CIF has been generated from an entry in the Cambridge 
# Structural Database, then it will include bibliographic, chemical, 
# crystal, experimental, refinement or atomic coordinate data resulting 
# from the CCDC's data processing and validation procedures.
#
#######################################################################

data_UPUYEL
_chemical_formula_moiety         'C26 H28 N4 O1'
_chemical_name_systematic        
2-(2H-benzotriazol-2-yl)-6-((2,6-diisopropylphenyl)carbonoimidoyl)-4-methylphenol
_symmetry_cell_setting           triclinic
_symmetry_space_group_name_H-M   'P -1'
_symmetry_Int_Tables_number      2
_space_group_name_Hall           '-P 1'
loop_
_symmetry_equiv_pos_site_id
_symmetry_equiv_pos_as_xyz
1 x,y,z
2 -x,-y,-z
_cell_length_a                   8.35990(10)
_cell_length_b                   10.9408(2)
_cell_length_c                   12.4091(2)
_cell_angle_alpha                103.5400(10)
_cell_angle_beta                 96.2580(10)
_cell_angle_gamma                94.5840(10)
_cell_volume                     1090.32
_cell_formula_units_Z            2
loop_
_atom_site_label
_atom_site_type_symbol
_atom_site_fract_x
_atom_site_fract_y
_atom_site_fract_z
O1 O 0.83334(11) 1.10658(8) 0.76923(7)
H1 H 0.8949 1.1686 0.7635
N1 N 0.96648(13) 1.26148(10) 0.66716(8)
N2 N 0.91446(12) 1.17552(9) 0.57025(8)
N3 N 0.96494(12) 1.19969(9) 0.47875(8)
N4 N 0.53192(12) 0.79486(10) 0.75693(9)
C1 C 0.77252(14) 1.03558(11) 0.66593(10)
C2 C 0.80944(13) 1.06481(11) 0.56645(10)
C3 C 0.74420(14) 0.98718(11) 0.46268(10)
H2 H 0.7714 1.0084 0.3965
C4 C 0.63979(14) 0.87906(11) 0.45466(10)
C5 C 0.60239(14) 0.85104(11) 0.55312(10)
H3 H 0.5307 0.7777 0.5488
C6 C 0.66631(14) 0.92675(11) 0.65788(10)
C7 C 1.06001(14) 1.34998(11) 0.63525(10)
C8 C 1.14903(16) 1.46411(12) 0.69947(11)
H4 H 1.1491 1.4911 0.7780
C9 C 1.23468(16) 1.53327(12) 0.64233(11)
H5 H 1.2953 1.6108 0.6824
C10 C 1.23629(15) 1.49324(12) 0.52479(11)
H6 H 1.2987 1.5444 0.4891
C11 C 1.15083(15) 1.38347(12) 0.46172(11)
H7 H 1.1527 1.3571 0.3833
C12 C 1.05953(14) 1.31106(11) 0.51879(10)
C13 C 0.56880(16) 0.79461(12) 0.34258(11)
H8 H 0.5728 0.8424 0.2851
H9 H 0.4561 0.7644 0.3452
H10 H 0.6314 0.7222 0.3245
C14 C 0.61976(14) 0.89619(11) 0.76065(10)
H11 H 0.6563 0.9535 0.8309
C15 C 0.48193(14) 0.77276(11) 0.85792(10)
C16 C 0.57063(14) 0.69915(11) 0.91666(10)
C17 C 0.51252(16) 0.67297(12) 1.01060(10)
H12 H 0.5703 0.6233 1.0514
C18 C 0.37173(16) 0.71800(12) 1.04573(10)
H13 H 0.3352 0.7006 1.1110
C19 C 0.28446(15) 0.78819(12) 0.98587(10)
H14 H 0.1880 0.8185 1.0105
C20 C 0.33596(14) 0.81515(11) 0.88993(10)
C21 C 0.72216(15) 0.64764(12) 0.87489(11)
H15 H 0.7793 0.7140 0.8451
C22 C 0.67549(17) 0.53084(13) 0.77781(11)
H16 H 0.6108 0.5540 0.7163
H17 H 0.6120 0.4660 0.8029
H18 H 0.7737 0.4976 0.7519
C23 C 0.84097(17) 0.61880(14) 0.96613(13)
H19 H 0.8636 0.6930 1.0297
H20 H 0.9420 0.5981 0.9363
H21 H 0.7934 0.5469 0.9908
C24 C 0.23579(15) 0.88798(12) 0.82229(10)
H22 H 0.2696 0.8713 0.7458
C25 C 0.05505(15) 0.84490(13) 0.80962(11)
H23 H 0.0371 0.7525 0.7842
H24 H -0.0031 0.8824 0.7547
H25 H 0.0151 0.8722 0.8819
C26 C 0.26791(17) 1.03012(13) 0.87397(13)
H26 H 0.3839 1.0570 0.8803
H27 H 0.2331 1.0494 0.9485
H28 H 0.2073 1.0752 0.8264
loop_
_geom_bond_atom_site_label_1
_geom_bond_atom_site_label_2
_geom_bond_site_symmetry_1
_geom_bond_site_symmetry_2
O1 H1 1_555 1_555
N1 N2 1_555 1_555
N2 N3 1_555 1_555
N3 C12 1_555 1_555
N4 C14 1_555 1_555
C1 O1 1_555 1_555
C2 N2 1_555 1_555
C3 C2 1_555 1_555
H2 C3 1_555 1_555
C4 C3 1_555 1_555
C5 C4 1_555 1_555
H3 C5 1_555 1_555
C6 C1 1_555 1_555
C7 N1 1_555 1_555
C8 C7 1_555 1_555
H4 C8 1_555 1_555
C9 C8 1_555 1_555
H5 C9 1_555 1_555
C10 C9 1_555 1_555
H6 C10 1_555 1_555
C11 C10 1_555 1_555
H7 C11 1_555 1_555
C12 C7 1_555 1_555
C13 C4 1_555 1_555
H8 C13 1_555 1_555
H9 C13 1_555 1_555
H10 C13 1_555 1_555
C14 C6 1_555 1_555
H11 C14 1_555 1_555
C15 N4 1_555 1_555
C16 C15 1_555 1_555
C17 C16 1_555 1_555
H12 C17 1_555 1_555
C18 C17 1_555 1_555
H13 C18 1_555 1_555
C19 C18 1_555 1_555
H14 C19 1_555 1_555
C20 C15 1_555 1_555
C21 C16 1_555 1_555
H15 C21 1_555 1_555
C22 C21 1_555 1_555
H16 C22 1_555 1_555
H17 C22 1_555 1_555
H18 C22 1_555 1_555
C23 C21 1_555 1_555
H19 C23 1_555 1_555
H20 C23 1_555 1_555
H21 C23 1_555 1_555
C24 C20 1_555 1_555
H22 C24 1_555 1_555
C25 C24 1_555 1_555
H23 C25 1_555 1_555
H24 C25 1_555 1_555
H25 C25 1_555 1_555
C26 C24 1_555 1_555
H26 C26 1_555 1_555
H27 C26 1_555 1_555
H28 C26 1_555 1_555
C1 C2 1_555 1_555
C5 C6 1_555 1_555
C11 C12 1_555 1_555
C19 C20 1_555 1_555

#END
