
#######################################################################
#
#                 Cambridge Crystallographic Data Centre
#                                CCDC 
#
#######################################################################
#
# If this CIF has been generated from an entry in the Cambridge 
# Structural Database, then it will include bibliographic, chemical, 
# crystal, experimental, refinement or atomic coordinate data resulting 
# from the CCDC's data processing and validation procedures.
#
#######################################################################

data_UPUYAH
_chemical_formula_moiety         'C22 H20 N4 O1'
_chemical_name_systematic        
2-(2H-benzotriazol-2-yl)-6-((2,6-dimethylphenyl)carbonoimidoyl)-4-methylphenol
_symmetry_cell_setting           monoclinic
_symmetry_space_group_name_H-M   'P 21/c'
_symmetry_Int_Tables_number      14
_space_group_name_Hall           '-P 2ybc'
loop_
_symmetry_equiv_pos_site_id
_symmetry_equiv_pos_as_xyz
1 x,y,z
2 -x,1/2+y,1/2-z
3 -x,-y,-z
4 x,1/2-y,1/2+z
_cell_length_a                   12.0962(4)
_cell_length_b                   13.6035(4)
_cell_length_c                   12.4595(4)
_cell_angle_alpha                90
_cell_angle_beta                 113.6910(10)
_cell_angle_gamma                90
_cell_volume                     1877.44
_exptl_crystal_colour            yellow
_exptl_crystal_description       block
_cell_formula_units_Z            4
loop_
_atom_site_label
_atom_site_type_symbol
_atom_site_fract_x
_atom_site_fract_y
_atom_site_fract_z
O1 O 0.19211(9) 0.74679(7) 0.13883(8)
H1 H 0.1614 0.6905 0.1154
N1 N 0.18143(10) 0.95605(8) 0.12967(10)
N2 N 0.29141(10) 0.93059(8) 0.20598(10)
N3 N 0.38516(10) 0.98029(8) 0.20219(10)
N4 N 0.16086(10) 0.56957(8) 0.19792(10)
C1 C 0.25589(12) 0.76270(10) 0.25300(12)
C2 C 0.30935(11) 0.85452(10) 0.29079(12)
C3 C 0.37966(12) 0.87304(10) 0.40777(12)
H2 H 0.4162 0.9358 0.4302
C4 C 0.39788(12) 0.80167(10) 0.49326(12)
C5 C 0.34407(12) 0.71069(10) 0.45647(12)
H3 H 0.3547 0.6610 0.5134
C6 C 0.27491(12) 0.68962(10) 0.33877(12)
C7 C 0.20484(12) 1.02961(10) 0.06888(12)
C8 C 0.12450(13) 1.08614(10) -0.02570(12)
H4 H 0.0397 1.0761 -0.0563
C9 C 0.17504(14) 1.15578(11) -0.07063(12)
H5 H 0.1240 1.1951 -0.1343
C10 C 0.30216(14) 1.17125(11) -0.02485(13)
H6 H 0.3331 1.2206 -0.0591
C11 C 0.38085(13) 1.11784(12) 0.06620(13)
H7 H 0.4654 1.1291 0.0961
C12 C 0.33068(12) 1.04476(10) 0.11418(12)
C13 C 0.47043(14) 0.82318(11) 0.62136(12)
H8 H 0.4895 0.7614 0.6655
H9 H 0.4234 0.8655 0.6510
H10 H 0.5455 0.8566 0.6307
C14 C 0.22412(12) 0.59160(10) 0.30490(12)
H11 H 0.2384 0.5430 0.3637
C15 C 0.11491(12) 0.47136(10) 0.17049(11)
C16 C 0.19207(13) 0.39513(10) 0.16991(12)
C17 C 0.14327(13) 0.30117(11) 0.14161(12)
H12 H 0.1942 0.2478 0.1423
C18 C 0.02187(13) 0.28422(11) 0.11257(12)
H13 H -0.0100 0.2197 0.0934
C19 C -0.05311(13) 0.36155(11) 0.11154(12)
H14 H -0.1365 0.3495 0.0908
C20 C -0.00847(13) 0.45659(10) 0.14026(12)
C21 C 0.32376(14) 0.41310(12) 0.19724(15)
H15 H 0.3576 0.3557 0.1737
H16 H 0.3675 0.4242 0.2816
H17 H 0.3317 0.4711 0.1542
C22 C -0.08865(14) 0.54094(11) 0.14034(14)
H18 H -0.1732 0.5199 0.1048
H19 H -0.0764 0.5957 0.0952
H20 H -0.0686 0.5622 0.2211
loop_
_geom_bond_atom_site_label_1
_geom_bond_atom_site_label_2
_geom_bond_site_symmetry_1
_geom_bond_site_symmetry_2
O1 H1 1_555 1_555
N1 N2 1_555 1_555
N2 N3 1_555 1_555
N3 C12 1_555 1_555
N4 C14 1_555 1_555
C1 O1 1_555 1_555
C2 N2 1_555 1_555
C3 C2 1_555 1_555
H2 C3 1_555 1_555
C4 C3 1_555 1_555
C5 C4 1_555 1_555
H3 C5 1_555 1_555
C6 C1 1_555 1_555
C7 N1 1_555 1_555
C8 C7 1_555 1_555
H4 C8 1_555 1_555
C9 C8 1_555 1_555
H5 C9 1_555 1_555
C10 C9 1_555 1_555
H6 C10 1_555 1_555
C11 C10 1_555 1_555
H7 C11 1_555 1_555
C12 C7 1_555 1_555
C13 C4 1_555 1_555
H8 C13 1_555 1_555
H9 C13 1_555 1_555
H10 C13 1_555 1_555
C14 C6 1_555 1_555
H11 C14 1_555 1_555
C15 N4 1_555 1_555
C16 C15 1_555 1_555
C17 C16 1_555 1_555
H12 C17 1_555 1_555
C18 C17 1_555 1_555
H13 C18 1_555 1_555
C19 C18 1_555 1_555
H14 C19 1_555 1_555
C20 C15 1_555 1_555
C21 C16 1_555 1_555
H15 C21 1_555 1_555
H16 C21 1_555 1_555
H17 C21 1_555 1_555
C22 C20 1_555 1_555
H18 C22 1_555 1_555
H19 C22 1_555 1_555
H20 C22 1_555 1_555
C1 C2 1_555 1_555
C5 C6 1_555 1_555
C11 C12 1_555 1_555
C19 C20 1_555 1_555

#END
