
#######################################################################
#
#                 Cambridge Crystallographic Data Centre
#                                CCDC 
#
#######################################################################
#
# If this CIF has been generated from an entry in the Cambridge 
# Structural Database, then it will include bibliographic, chemical, 
# crystal, experimental, refinement or atomic coordinate data resulting 
# from the CCDC's data processing and validation procedures.
#
#######################################################################

data_UQABAQ
_chemical_formula_moiety         'C12 H6 Br1 F3 O2'
_chemical_name_systematic        
4-Bromo-5-(4-(trifluoromethyl)benzylidene)furan-2(5H)-one
_symmetry_cell_setting           monoclinic
_symmetry_space_group_name_H-M   'P 21/c'
_symmetry_Int_Tables_number      14
_space_group_name_Hall           '-P 2ybc'
loop_
_symmetry_equiv_pos_site_id
_symmetry_equiv_pos_as_xyz
1 x,y,z
2 -x,1/2+y,1/2-z
3 -x,-y,-z
4 x,1/2-y,1/2+z
_cell_length_a                   7.2607(6)
_cell_length_b                   14.8378(14)
_cell_length_c                   10.5142(10)
_cell_angle_alpha                90
_cell_angle_beta                 93.882(5)
_cell_angle_gamma                90
_cell_volume                     1130.13
_exptl_crystal_colour            colorless
_exptl_crystal_description       'thick plates'
_cell_formula_units_Z            4
loop_
_atom_site_label
_atom_site_type_symbol
_atom_site_fract_x
_atom_site_fract_y
_atom_site_fract_z
Br1 Br 0.03570(3) 1.250883(15) -0.16582(2)
O1 O 0.1865(2) 0.98693(10) -0.18078(14)
O2 O 0.1340(3) 0.94003(12) -0.38389(15)
C1 C 0.1296(3) 1.00073(17) -0.3094(2)
C2 C 0.0726(3) 1.09464(16) -0.3232(2)
H1 H 0.0290 1.1235 -0.4000
C3 C 0.0928(3) 1.13256(15) -0.2079(2)
C4 C 0.1658(3) 1.06706(15) -0.1151(2)
C5 C 0.2086(3) 1.07631(16) 0.0099(2)
H2 H 0.1874 1.1345 0.0436
C6 C 0.2834(3) 1.00993(15) 0.1021(2)
C7 C 0.3298(3) 0.92179(16) 0.0699(2)
H3 H 0.3180 0.9033 -0.0168
C8 C 0.3926(3) 0.86144(16) 0.1627(2)
H4 H 0.4244 0.8019 0.1395
C9 C 0.4095(3) 0.88727(15) 0.2898(2)
C10 C 0.3674(3) 0.97473(16) 0.3237(2)
H5 H 0.3798 0.9928 0.4105
C11 C 0.3073(3) 1.03548(16) 0.2304(2)
H6 H 0.2816 1.0958 0.2537
C12 C 0.4591(3) 0.81902(17) 0.3905(2)
F1 F 0.5577(3) 0.75065(10) 0.34885(15)
F2 F 0.3097(2) 0.78231(12) 0.43650(16)
F3 F 0.5582(2) 0.85256(11) 0.49099(15)
loop_
_geom_bond_atom_site_label_1
_geom_bond_atom_site_label_2
_geom_bond_site_symmetry_1
_geom_bond_site_symmetry_2
Br1 C3 1_555 1_555
O1 C1 1_555 1_555
O2 C1 1_555 1_555
C1 C2 1_555 1_555
C2 H1 1_555 1_555
C3 C2 1_555 1_555
C4 O1 1_555 1_555
C5 C4 1_555 1_555
H2 C5 1_555 1_555
C6 C5 1_555 1_555
C7 C6 1_555 1_555
H3 C7 1_555 1_555
C8 C7 1_555 1_555
H4 C8 1_555 1_555
C9 C8 1_555 1_555
C10 C9 1_555 1_555
H5 C10 1_555 1_555
C11 C6 1_555 1_555
H6 C11 1_555 1_555
C12 C9 1_555 1_555
F1 C12 1_555 1_555
F2 C12 1_555 1_555
F3 C12 1_555 1_555
C3 C4 1_555 1_555
C10 C11 1_555 1_555

#END
