
#######################################################################
#
#                 Cambridge Crystallographic Data Centre
#                                CCDC 
#
#######################################################################
#
# If this CIF has been generated from an entry in the Cambridge 
# Structural Database, then it will include bibliographic, chemical, 
# crystal, experimental, refinement or atomic coordinate data resulting 
# from the CCDC's data processing and validation procedures.
#
#######################################################################

data_UQACUM
_chemical_formula_moiety         'C28 H20 O4'
_chemical_name_systematic        
"4,4'-(2,2-diphenylethene-1,1-diyl)dibenzoic acid"
_symmetry_cell_setting           triclinic
_symmetry_space_group_name_H-M   'P -1'
_symmetry_Int_Tables_number      2
_space_group_name_Hall           '-P 1'
loop_
_symmetry_equiv_pos_site_id
_symmetry_equiv_pos_as_xyz
1 x,y,z
2 -x,-y,-z
_cell_length_a                   9.8296(4)
_cell_length_b                   12.6283(6)
_cell_length_c                   18.9578(8)
_cell_angle_alpha                71.769(4)
_cell_angle_beta                 86.991(4)
_cell_angle_gamma                88.723(4)
_cell_volume                     2232
_exptl_crystal_colour            colorless
_exptl_crystal_description       block
_cell_formula_units_Z            4
_exptl_crystal_recrystallization_method tetrahydrofuran
_exptl_crystal_preparation       Luminescent
loop_
_atom_site_label
_atom_site_type_symbol
_atom_site_fract_x
_atom_site_fract_y
_atom_site_fract_z
O1 O 0.35972(12) 0.60020(9) 0.49105(7)
H1 H 0.3853 0.5362 0.5161
O2 O 0.57135(12) 0.60694(10) 0.44001(7)
O3 O -0.13440(14) 1.07522(14) 0.03282(8)
O4 O -0.25460(12) 1.12198(11) 0.12208(7)
H2 H -0.3192 1.1214 0.0949
C1 C 0.45982(16) 0.65066(13) 0.44531(9)
C2 C 0.42776(15) 0.76541(12) 0.39793(8)
C3 C 0.53420(15) 0.83316(13) 0.35870(9)
H3 H 0.6254 0.8065 0.3640
C4 C 0.50739(15) 0.93931(13) 0.31197(9)
H4 H 0.5805 0.9850 0.2853
C5 C 0.37357(15) 0.97991(12) 0.30358(8)
C6 C 0.26777(15) 0.90991(13) 0.34229(9)
H5 H 0.1762 0.9353 0.3359
C7 C 0.29441(16) 0.80420(13) 0.38973(9)
H6 H 0.2216 0.7583 0.4166
C8 C 0.34175(14) 1.09327(12) 0.25300(8)
C9 C 0.21937(15) 1.09838(12) 0.20839(8)
C10 C 0.10497(15) 1.15933(13) 0.21990(9)
H7 H 0.1082 1.2023 0.2529
C11 C -0.01345(16) 1.15772(13) 0.18358(9)
H8 H -0.0922 1.1967 0.1935
C12 C -0.01675(16) 1.09903(13) 0.13271(9)
C13 C 0.09822(16) 1.04008(14) 0.11945(9)
H9 H 0.0971 1.0017 0.0836
C14 C 0.21372(16) 1.03749(13) 0.15843(9)
H10 H 0.2901 0.9939 0.1512
C15 C -0.14006(17) 1.09765(14) 0.09131(10)
C16 C 0.41302(15) 1.18473(12) 0.25095(8)
C17 C 0.51027(15) 1.18118(12) 0.30949(8)
C18 C 0.46614(17) 1.14795(14) 0.38417(9)
H11 H 0.3738 1.1274 0.3978
C19 C 0.5562(2) 1.14470(16) 0.43889(10)
H12 H 0.5252 1.1224 0.4897
C20 C 0.6909(2) 1.17392(17) 0.41942(11)
H13 H 0.7527 1.1713 0.4568
C21 C 0.73571(19) 1.20699(16) 0.34543(11)
H14 H 0.8285 1.2262 0.3321
C22 C 0.64559(16) 1.21212(14) 0.29067(9)
H15 H 0.6764 1.2370 0.2399
C23 C 0.39847(14) 1.29420(12) 0.19195(8)
C24 C 0.40555(15) 1.39386(13) 0.20917(9)
H16 H 0.4179 1.3914 0.2590
C25 C 0.39475(16) 1.49623(13) 0.15434(10)
H17 H 0.3988 1.5632 0.1670
C26 C 0.37806(16) 1.50103(14) 0.08132(10)
H18 H 0.3701 1.5711 0.0439
C27 C 0.37300(16) 1.40299(14) 0.06315(9)
H19 H 0.3620 1.4060 0.0131
C28 C 0.38394(15) 1.30083(13) 0.11774(9)
H20 H 0.3815 1.2343 0.1046
O5 O -0.04775(14) 0.85925(11) 0.51074(7)
H21 H -0.0286 0.9041 0.5334
O6 O -0.02532(13) 1.01331(10) 0.41284(7)
O7 O -0.53654(12) 0.87966(11) -0.03613(7)
O8 O -0.67642(13) 0.86548(13) 0.06323(8)
H22 H -0.7339 0.8876 0.0304
C29 C -0.05084(16) 0.91166(14) 0.44038(9)
C30 C -0.08230(15) 0.84496(14) 0.39152(9)
C31 C -0.10040(16) 0.90064(14) 0.31693(9)
H23 H -0.0990 0.9798 0.2992
C32 C -0.12043(16) 0.84113(14) 0.26852(9)
H24 H -0.1346 0.8801 0.2177
C33 C -0.12027(15) 0.72423(13) 0.29286(9)
C34 C -0.10610(16) 0.66908(14) 0.36848(9)
H25 H -0.1093 0.5900 0.3865
C35 C -0.08738(16) 0.72871(14) 0.41755(9)
H26 H -0.0780 0.6903 0.4689
C36 C -0.13907(15) 0.66421(13) 0.23754(9)
C37 C -0.24559(16) 0.71494(13) 0.18341(9)
C38 C -0.21602(16) 0.75192(14) 0.10679(9)
H27 H -0.1260 0.7446 0.0881
C39 C -0.31633(17) 0.79909(14) 0.05790(9)
H28 H -0.2950 0.8234 0.0059
C40 C -0.44865(16) 0.81108(14) 0.08470(9)
C41 C -0.47845(16) 0.77726(14) 0.16125(10)
H29 H -0.5679 0.7867 0.1800
C42 C -0.37779(16) 0.73011(14) 0.20981(9)
H30 H -0.3986 0.7077 0.2619
C43 C -0.55637(17) 0.85586(15) 0.03157(10)
C44 C -0.06422(15) 0.57409(13) 0.23467(9)
C45 C -0.09214(16) 0.51085(13) 0.18264(9)
C46 C -0.22401(16) 0.48114(13) 0.17219(9)
H31 H -0.2986 0.4977 0.2010
C47 C -0.24694(16) 0.42762(13) 0.12013(9)
H32 H -0.3371 0.4084 0.1132
C48 C -0.13882(17) 0.40221(13) 0.07829(9)
H33 H -0.1549 0.3676 0.0417
C49 C -0.00702(17) 0.42735(14) 0.08998(9)
H34 H 0.0675 0.4081 0.0623
C50 C 0.01625(16) 0.48054(14) 0.14202(9)
H35 H 0.1070 0.4966 0.1502
C51 C 0.05630(16) 0.53486(14) 0.28110(9)
C52 C 0.06561(17) 0.42471(14) 0.32669(9)
H36 H -0.0055 0.3742 0.3282
C53 C 0.17693(19) 0.38778(15) 0.36988(10)
H37 H 0.1810 0.3128 0.4014
C54 C 0.28232(18) 0.46004(16) 0.36718(10)
H38 H 0.3585 0.4351 0.3970
C55 C 0.27586(17) 0.56896(16) 0.32072(10)
H39 H 0.3489 0.6183 0.3179
C56 C 0.16368(16) 0.60664(14) 0.27825(9)
H40 H 0.1599 0.6818 0.2470
loop_
_geom_bond_atom_site_label_1
_geom_bond_atom_site_label_2
_geom_bond_site_symmetry_1
_geom_bond_site_symmetry_2
O1 H1 1_555 1_555
O2 C1 1_555 1_555
O3 C15 1_555 1_555
O4 H2 1_555 1_555
C1 O1 1_555 1_555
C2 C1 1_555 1_555
C3 C2 1_555 1_555
H3 C3 1_555 1_555
C4 C3 1_555 1_555
H4 C4 1_555 1_555
C5 C4 1_555 1_555
C6 C5 1_555 1_555
H5 C6 1_555 1_555
C7 C2 1_555 1_555
H6 C7 1_555 1_555
C8 C5 1_555 1_555
C9 C8 1_555 1_555
C10 C9 1_555 1_555
H7 C10 1_555 1_555
C11 C10 1_555 1_555
H8 C11 1_555 1_555
C12 C11 1_555 1_555
C13 C12 1_555 1_555
H9 C13 1_555 1_555
C14 C9 1_555 1_555
H10 C14 1_555 1_555
C15 O4 1_555 1_555
C16 C8 1_555 1_555
C17 C16 1_555 1_555
C18 C17 1_555 1_555
H11 C18 1_555 1_555
C19 C18 1_555 1_555
H12 C19 1_555 1_555
C20 C19 1_555 1_555
H13 C20 1_555 1_555
C21 C20 1_555 1_555
H14 C21 1_555 1_555
C22 C17 1_555 1_555
H15 C22 1_555 1_555
C23 C16 1_555 1_555
C24 C23 1_555 1_555
H16 C24 1_555 1_555
C25 C24 1_555 1_555
H17 C25 1_555 1_555
C26 C25 1_555 1_555
H18 C26 1_555 1_555
C27 C26 1_555 1_555
H19 C27 1_555 1_555
C28 C23 1_555 1_555
H20 C28 1_555 1_555
O5 H21 1_555 1_555
O6 C29 1_555 1_555
O7 C43 1_555 1_555
O8 H22 1_555 1_555
C29 O5 1_555 1_555
C30 C29 1_555 1_555
C31 C30 1_555 1_555
H23 C31 1_555 1_555
C32 C31 1_555 1_555
H24 C32 1_555 1_555
C33 C32 1_555 1_555
C34 C33 1_555 1_555
H25 C34 1_555 1_555
C35 C30 1_555 1_555
H26 C35 1_555 1_555
C36 C33 1_555 1_555
C37 C36 1_555 1_555
C38 C37 1_555 1_555
H27 C38 1_555 1_555
C39 C38 1_555 1_555
H28 C39 1_555 1_555
C40 C39 1_555 1_555
C41 C40 1_555 1_555
H29 C41 1_555 1_555
C42 C37 1_555 1_555
H30 C42 1_555 1_555
C43 O8 1_555 1_555
C44 C36 1_555 1_555
C45 C44 1_555 1_555
C46 C45 1_555 1_555
H31 C46 1_555 1_555
C47 C46 1_555 1_555
H32 C47 1_555 1_555
C48 C47 1_555 1_555
H33 C48 1_555 1_555
C49 C48 1_555 1_555
H34 C49 1_555 1_555
C50 C45 1_555 1_555
H35 C50 1_555 1_555
C51 C44 1_555 1_555
C52 C51 1_555 1_555
H36 C52 1_555 1_555
C53 C52 1_555 1_555
H37 C53 1_555 1_555
C54 C53 1_555 1_555
H38 C54 1_555 1_555
C55 C54 1_555 1_555
H39 C55 1_555 1_555
C56 C51 1_555 1_555
H40 C56 1_555 1_555
C6 C7 1_555 1_555
C12 C15 1_555 1_555
C13 C14 1_555 1_555
C21 C22 1_555 1_555
C27 C28 1_555 1_555
C34 C35 1_555 1_555
C40 C43 1_555 1_555
C41 C42 1_555 1_555
C49 C50 1_555 1_555
C55 C56 1_555 1_555

#END
