
#######################################################################
#
#                 Cambridge Crystallographic Data Centre
#                                CCDC 
#
#######################################################################
#
# If this CIF has been generated from an entry in the Cambridge 
# Structural Database, then it will include bibliographic, chemical, 
# crystal, experimental, refinement or atomic coordinate data resulting 
# from the CCDC's data processing and validation procedures.
#
#######################################################################

data_UQACAR
_chemical_formula_moiety         'C10 H11 N3 O4'
_chemical_name_systematic        
'(Z)-methyl 2-[2-(4-nitrophenyl)hydrazono]propanoate'
_symmetry_cell_setting           triclinic
_symmetry_space_group_name_H-M   'P -1'
_symmetry_Int_Tables_number      2
_space_group_name_Hall           '-P 1'
loop_
_symmetry_equiv_pos_site_id
_symmetry_equiv_pos_as_xyz
1 x,y,z
2 -x,-y,-z
_cell_length_a                   7.1530(10)
_cell_length_b                   7.3561(11)
_cell_length_c                   11.0506(17)
_cell_angle_alpha                76.168(4)
_cell_angle_beta                 85.571(4)
_cell_angle_gamma                72.028(3)
_cell_volume                     537.049
_exptl_crystal_colour            colorless
_exptl_crystal_description       parallelepiped
_cell_formula_units_Z            2
loop_
_atom_site_label
_atom_site_type_symbol
_atom_site_fract_x
_atom_site_fract_y
_atom_site_fract_z
N1 N 0.2519(2) 0.5832(2) 0.05265(14)
O1 O 0.18139(19) 0.88419(19) 0.16418(12)
N2 N 0.33642(19) 0.4708(2) 0.16128(13)
O2 O 0.31860(18) 0.79926(19) 0.35399(12)
O3 O 0.0760(2) 0.3081(2) -0.41147(13)
N3 N 0.1785(2) 0.2106(2) -0.32006(14)
O4 O 0.2641(2) 0.0336(2) -0.30597(14)
H1 H 0.274(3) 1.092(4) 0.296(2)
H2 H 0.084(4) 1.037(4) 0.368(2)
H3 H 0.285(3) 1.001(4) 0.443(3)
H4 H 0.496(3) 0.276(4) 0.355(2)
H5 H 0.347(3) 0.404(4) 0.435(2)
H6 H 0.552(3) 0.442(4) 0.402(2)
H7 H 0.328(3) 0.060(4) -0.096(2)
H8 H 0.353(3) 0.211(4) 0.060(2)
H9 H 0.067(3) 0.583(3) -0.322(2)
H10 H 0.197(4) 0.720(4) 0.042(2)
H11 H 0.105(3) 0.743(4) -0.168(2)
C1 C 0.1973(2) 0.3081(3) -0.22337(16)
C2 C 0.1258(2) 0.5114(3) -0.24488(17)
C3 C 0.1462(2) 0.6023(3) -0.15211(16)
C4 C 0.2345(2) 0.4895(2) -0.03907(16)
C5 C 0.3014(3) 0.2844(3) -0.01858(17)
C6 C 0.2832(3) 0.1943(3) -0.11147(17)
C7 C 0.3514(2) 0.5463(3) 0.25356(16)
C8 C 0.4433(3) 0.4075(3) 0.37032(17)
C9 C 0.2743(2) 0.7597(3) 0.25005(16)
C10 C 0.2332(3) 1.0008(3) 0.3668(2)
loop_
_geom_bond_atom_site_label_1
_geom_bond_atom_site_label_2
_geom_bond_site_symmetry_1
_geom_bond_site_symmetry_2
N1 N2 1_555 1_555
O1 C9 1_555 1_555
N2 C7 1_555 1_555
O2 C9 1_555 1_555
O3 N3 1_555 1_555
N3 O4 1_555 1_555
H1 C10 1_555 1_555
H2 C10 1_555 1_555
H3 C10 1_555 1_555
H4 C8 1_555 1_555
H5 C8 1_555 1_555
H6 C8 1_555 1_555
H7 C6 1_555 1_555
H8 C5 1_555 1_555
H9 C2 1_555 1_555
H10 N1 1_555 1_555
H11 C3 1_555 1_555
C1 N3 1_555 1_555
C2 C1 1_555 1_555
C3 C2 1_555 1_555
C4 N1 1_555 1_555
C5 C4 1_555 1_555
C6 C1 1_555 1_555
C7 C8 1_555 1_555
C9 C7 1_555 1_555
C10 O2 1_555 1_555
C3 C4 1_555 1_555
C5 C6 1_555 1_555

#END
