
#######################################################################
#
#                 Cambridge Crystallographic Data Centre
#                                CCDC 
#
#######################################################################
#
# If this CIF has been generated from an entry in the Cambridge 
# Structural Database, then it will include bibliographic, chemical, 
# crystal, experimental, refinement or atomic coordinate data resulting 
# from the CCDC's data processing and validation procedures.
#
#######################################################################

data_UQAFAU
_chemical_name_common            
N-((3aR,4R,4aR,5aS,6S,6aS)-1,3-Dioxooctahydro-4,6-ethenocyclopropa[f]isoindol-2(1H)-yl)-3-(trifluoromethyl)phenylmethanimine
_chemical_formula_moiety         'C19 H15 F3 N2 O2'
_chemical_name_systematic        
4-((3-(Trifluoromethyl)benzylidene)amino)-4-azatetracyclo[5.3.2.0^2,6^.0^8,10^]dodec-11-ene-3,5-dione
_chemical_properties_biological  'potential activity against smallpox virus'
_symmetry_cell_setting           triclinic
_symmetry_space_group_name_H-M   'P -1'
_symmetry_Int_Tables_number      2
_space_group_name_Hall           '-P 1'
loop_
_symmetry_equiv_pos_site_id
_symmetry_equiv_pos_as_xyz
1 x,y,z
2 -x,-y,-z
_cell_length_a                   6.5604(7)
_cell_length_b                   13.9614(16)
_cell_length_c                   18.1790(18)
_cell_angle_alpha                102.749(7)
_cell_angle_beta                 97.542(6)
_cell_angle_gamma                94.355(4)
_cell_volume                     1600.46
_exptl_crystal_colour            colorless
_exptl_crystal_description       platelet
_cell_formula_units_Z            4
loop_
_atom_site_label
_atom_site_type_symbol
_atom_site_fract_x
_atom_site_fract_y
_atom_site_fract_z
O1 O 1.08105(15) 0.13861(8) 0.39023(6)
O2 O 0.43244(15) 0.16885(8) 0.27647(6)
N1 N 0.74127(17) 0.13379(8) 0.33763(7)
N2 N 0.68368(18) 0.04575(8) 0.35820(7)
C1 C 0.9504(2) 0.16906(10) 0.35067(8)
C2 C 0.9788(2) 0.25083(10) 0.30953(8)
H1 H 1.0587 0.2292 0.2667
C3 C 0.7582(2) 0.26672(10) 0.27739(8)
H2 H 0.7461 0.2579 0.2208
C4 C 0.6175(2) 0.18664(10) 0.29500(8)
C5 C 1.0894(2) 0.34797(10) 0.36350(8)
H3 H 1.2331 0.3396 0.3854
C6 C 1.0891(2) 0.42306(10) 0.31329(8)
H4 H 1.1882 0.4165 0.2756
C7 C 0.8702(2) 0.43891(10) 0.28505(9)
H5 H 0.8388 0.4421 0.2304
C8 C 0.7148(2) 0.37361(10) 0.31407(8)
H6 H 0.5688 0.3852 0.2979
C9 C 0.9577(3) 0.37709(11) 0.42469(9)
H7 H 1.0086 0.3859 0.4774
C10 C 0.7652(3) 0.38959(11) 0.39941(9)
H8 H 0.6666 0.4073 0.4325
C11 C 1.0133(2) 0.52249(11) 0.33709(9)
H9 H 0.9878 0.5438 0.3904
H10 H 1.0664 0.5763 0.3149
C12 C 0.5049(2) 0.03730(10) 0.37817(8)
H11 H 0.4195 0.0894 0.3792
C13 C 0.4321(2) -0.05358(10) 0.39951(8)
C14 C 0.5422(2) -0.13651(10) 0.39051(8)
H12 H 0.6665 -0.1360 0.3690
C15 C 0.4679(2) -0.21945(11) 0.41327(9)
C16 C 0.2861(2) -0.22145(11) 0.44471(9)
H13 H 0.2364 -0.2787 0.4598
C17 C 0.1779(2) -0.13940(11) 0.45380(8)
H14 H 0.0540 -0.1400 0.4755
C18 C 0.2505(2) -0.05620(11) 0.43114(8)
H15 H 0.1751 -0.0002 0.4373
C19 C 0.5810(3) -0.30965(12) 0.40196(11)
F1 F 0.5137(2) -0.37249(9) 0.33445(8)
F2 F 0.5599(3) -0.36216(11) 0.45388(10)
F3 F 0.78229(16) -0.28971(8) 0.40242(9)
O3 O -0.24076(15) 0.07925(7) 0.15390(6)
O4 O 0.29115(16) -0.06527(7) 0.05032(6)
N3 N 0.04724(17) 0.02845(8) 0.10334(7)
N4 N 0.11865(18) 0.12451(8) 0.10076(7)
C20 C -0.1443(2) 0.01317(10) 0.12688(8)
C21 C -0.2014(2) -0.09638(10) 0.11484(8)
H16 H -0.3317 -0.1178 0.0775
C22 C -0.0196(2) -0.14478(10) 0.08168(8)
H17 H -0.0700 -0.1882 0.0298
C23 C 0.1295(2) -0.06020(10) 0.07539(8)
C24 C -0.2270(2) -0.12601(10) 0.19106(8)
H18 H -0.3401 -0.0934 0.2153
C25 C -0.2760(2) -0.23875(11) 0.16799(9)
H19 H -0.4185 -0.2653 0.1408
C26 C -0.0984(2) -0.28650(10) 0.13531(9)
H20 H -0.1340 -0.3415 0.0885
C27 C 0.0773(2) -0.20749(10) 0.13566(8)
H21 H 0.2000 -0.2377 0.1171
C28 C -0.0216(2) -0.09773(11) 0.24206(8)
H22 H -0.0053 -0.0534 0.2908
C29 C 0.1345(2) -0.13949(11) 0.21367(8)
H23 H 0.2719 -0.1275 0.2404
C30 C -0.1586(3) -0.30592(12) 0.20805(10)
H24 H -0.0651 -0.2753 0.2562
H25 H -0.2287 -0.3720 0.2061
C31 C 0.3121(2) 0.14320(10) 0.10196(8)
H26 H 0.4030 0.0945 0.1073
C32 C 0.3927(2) 0.24176(10) 0.09485(8)
C33 C 0.2811(2) 0.32343(10) 0.11065(8)
H27 H 0.1513 0.3170 0.1279
C34 C 0.3617(2) 0.41419(10) 0.10085(8)
C35 C 0.5506(2) 0.42443(11) 0.07518(8)
H28 H 0.6044 0.4866 0.0686
C36 C 0.6599(2) 0.34308(11) 0.05922(8)
H29 H 0.7883 0.3493 0.0410
C37 C 0.5823(2) 0.25253(11) 0.06979(8)
H30 H 0.6596 0.1975 0.0598
C38 C 0.2454(3) 0.50244(11) 0.11801(10)
F4 F 0.3343(3) 0.55977(16) 0.19479(13)
F5 F 0.0563(6) 0.4849(4) 0.1276(2)
F6 F 0.2705(4) 0.56558(17) 0.07849(15)
F7? F 0.658(3) -0.3260(12) 0.3378(6)
F8? F 0.457(2) -0.3863(10) 0.4023(10)
F9? F 0.7349(19) -0.2965(11) 0.4590(7)
F10? F 0.3499(4) 0.58533(16) 0.1353(2)
F11? F 0.0995(7) 0.4942(4) 0.1566(2)
F12? F 0.1213(4) 0.5049(2) 0.04398(13)
loop_
_geom_bond_atom_site_label_1
_geom_bond_atom_site_label_2
_geom_bond_site_symmetry_1
_geom_bond_site_symmetry_2
O1 C1 1_555 1_555
O2 C4 1_555 1_555
O3 C20 1_555 1_555
O4 C23 1_555 1_555
N1 N2 1_555 1_555
N2 C12 1_555 1_555
N3 N4 1_555 1_555
N4 C31 1_555 1_555
C1 N1 1_555 1_555
C2 C1 1_555 1_555
H1 C2 1_555 1_555
C3 C2 1_555 1_555
H2 C3 1_555 1_555
C4 N1 1_555 1_555
C5 C2 1_555 1_555
H3 C5 1_555 1_555
C6 C5 1_555 1_555
H4 C6 1_555 1_555
C7 C6 1_555 1_555
H5 C7 1_555 1_555
C8 C3 1_555 1_555
H6 C8 1_555 1_555
C9 C5 1_555 1_555
H7 C9 1_555 1_555
C10 C8 1_555 1_555
H8 C10 1_555 1_555
C11 C6 1_555 1_555
H9 C11 1_555 1_555
H10 C11 1_555 1_555
C12 H11 1_555 1_555
C13 C12 1_555 1_555
C14 C13 1_555 1_555
H12 C14 1_555 1_555
C15 C14 1_555 1_555
C16 C15 1_555 1_555
H13 C16 1_555 1_555
C17 C16 1_555 1_555
H14 C17 1_555 1_555
C18 C13 1_555 1_555
H15 C18 1_555 1_555
C19 C15 1_555 1_555
F1 C19 1_555 1_555
F2 C19 1_555 1_555
F3 C19 1_555 1_555
C20 N3 1_555 1_555
C21 C20 1_555 1_555
H16 C21 1_555 1_555
C22 C21 1_555 1_555
H17 C22 1_555 1_555
C23 N3 1_555 1_555
C24 C21 1_555 1_555
H18 C24 1_555 1_555
C25 C24 1_555 1_555
H19 C25 1_555 1_555
C26 C25 1_555 1_555
H20 C26 1_555 1_555
C27 C22 1_555 1_555
H21 C27 1_555 1_555
C28 C24 1_555 1_555
H22 C28 1_555 1_555
C29 C27 1_555 1_555
H23 C29 1_555 1_555
C30 C25 1_555 1_555
H24 C30 1_555 1_555
H25 C30 1_555 1_555
C31 H26 1_555 1_555
C32 C31 1_555 1_555
C33 C32 1_555 1_555
H27 C33 1_555 1_555
C34 C33 1_555 1_555
C35 C34 1_555 1_555
H28 C35 1_555 1_555
C36 C35 1_555 1_555
H29 C36 1_555 1_555
C37 C32 1_555 1_555
H30 C37 1_555 1_555
C38 C34 1_555 1_555
F4 C38 1_555 1_555
F5 C38 1_555 1_555
F6 C38 1_555 1_555
C3 C4 1_555 1_555
C7 C8 1_555 1_555
C7 C11 1_555 1_555
C9 C10 1_555 1_555
C17 C18 1_555 1_555
C22 C23 1_555 1_555
C26 C27 1_555 1_555
C26 C30 1_555 1_555
C28 C29 1_555 1_555
C36 C37 1_555 1_555

#END
