
#######################################################################
#
#                 Cambridge Crystallographic Data Centre
#                                CCDC 
#
#######################################################################
#
# If this CIF has been generated from an entry in the Cambridge 
# Structural Database, then it will include bibliographic, chemical, 
# crystal, experimental, refinement or atomic coordinate data resulting 
# from the CCDC's data processing and validation procedures.
#
#######################################################################

data_UQAMEG
_chemical_formula_moiety         'C41 H27 N3 O2,C1 H4 O1'
_chemical_name_systematic        
"N,N'-bis(pyren-1-ylmethyl)pyridine-2,6-dicarboxamide methanol solvate"
_symmetry_cell_setting           tetragonal
_symmetry_space_group_name_H-M   'I 41/a'
_symmetry_Int_Tables_number      88
_space_group_name_Hall           '-I 4ad'
loop_
_symmetry_equiv_pos_site_id
_symmetry_equiv_pos_as_xyz
1 x,y,z
2 -x,1/2-y,z
3 3/4-y,1/4+x,1/4+z
4 1/4+y,1/4-x,1/4+z
5 1/2+x,1/2+y,1/2+z
6 1/2-x,-y,1/2+z
7 1/4-y,3/4+x,3/4+z
8 3/4+y,3/4-x,3/4+z
9 -x,-y,-z
10 x,1/2+y,-z
11 1/4+y,3/4-x,3/4-z
12 3/4-y,3/4+x,3/4-z
13 1/2-x,1/2-y,1/2-z
14 1/2+x,y,1/2-z
15 3/4+y,1/4-x,1/4-z
16 1/4-y,1/4+x,1/4-z
_cell_length_a                   27.8949(10)
_cell_length_b                   27.8949(10)
_cell_length_c                   16.4272(7)
_cell_angle_alpha                90
_cell_angle_beta                 90
_cell_angle_gamma                90
_cell_volume                     12782.4
_exptl_crystal_colour            yellow
_exptl_crystal_description       prisms
_cell_formula_units_Z            16
loop_
_atom_site_label
_atom_site_type_symbol
_atom_site_fract_x
_atom_site_fract_y
_atom_site_fract_z
O1 O 0.54792(9) 0.59928(9) 0.34819(15)
O2 O 0.79690(8) 0.56657(8) 0.38570(13)
N1 N 0.59266(10) 0.57653(11) 0.24041(19)
H1 H 0.6208 0.5672 0.2220
N2 N 0.67255(10) 0.57538(9) 0.33730(15)
N3 N 0.75861(9) 0.56199(9) 0.26437(15)
H2 H 0.7308 0.5601 0.2392
C1 C 0.55926(13) 0.55555(17) 0.1057(2)
C2 C 0.55583(12) 0.50581(16) 0.0981(2)
C3 C 0.54696(12) 0.47457(18) 0.1666(2)
H3 H 0.5438 0.4879 0.2195
C4 C 0.54305(13) 0.42605(18) 0.1563(2)
H4 H 0.5377 0.4065 0.2028
C5 C 0.54666(13) 0.40390(17) 0.0793(3)
C6 C 0.54105(14) 0.35501(19) 0.0691(3)
H5 H 0.5355 0.3354 0.1154
C7 C 0.54333(16) 0.33389(19) -0.0081(4)
H6 H 0.5388 0.3003 -0.0143
C8 C 0.55235(15) 0.3625(2) -0.0756(3)
H7 H 0.5539 0.3484 -0.1281
C9 C 0.55918(13) 0.4117(2) -0.0674(3)
C10 C 0.56919(14) 0.4426(2) -0.1369(3)
H8 H 0.5733 0.4290 -0.1894
C11 C 0.57256(14) 0.4897(2) -0.1274(3)
H9 H 0.5783 0.5089 -0.1741
C12 C 0.56799(12) 0.51265(19) -0.0502(3)
C13 C 0.57058(13) 0.5617(2) -0.0400(3)
H10 H 0.5756 0.5815 -0.0863
C14 C 0.56608(13) 0.58280(16) 0.0360(3)
H11 H 0.5677 0.6167 0.0405
C15 C 0.56024(12) 0.48366(17) 0.0200(2)
C16 C 0.55572(12) 0.43379(16) 0.0102(2)
C17 C 0.55190(13) 0.58026(15) 0.1844(2)
H12 H 0.5454 0.6146 0.1738
H13 H 0.5232 0.5666 0.2112
C18 C 0.58749(14) 0.58722(13) 0.3189(3)
C19 C 0.63047(13) 0.58379(12) 0.3729(2)
C20 C 0.62533(14) 0.59030(12) 0.4565(2)
H14 H 0.5947 0.5959 0.4799
C21 C 0.66589(16) 0.58843(12) 0.5044(2)
H15 H 0.6634 0.5922 0.5617
C22 C 0.70979(14) 0.58112(11) 0.4691(2)
H16 H 0.7382 0.5805 0.5011
C23 C 0.71175(13) 0.57469(11) 0.3857(2)
C24 C 0.75970(13) 0.56728(11) 0.3448(2)
C25 C 0.80243(12) 0.55926(11) 0.2177(2)
H17 H 0.8261 0.5816 0.2419
H18 H 0.7957 0.5705 0.1616
C26 C 0.82489(12) 0.50992(12) 0.21291(18)
C27 C 0.87211(12) 0.50512(12) 0.18166(18)
C28 C 0.89956(12) 0.54531(12) 0.15157(18)
H19 H 0.8854 0.5763 0.1508
C29 C 0.94444(12) 0.53989(13) 0.12480(19)
H20 H 0.9613 0.5672 0.1054
C30 C 0.96795(12) 0.49439(13) 0.1244(2)
C31 C 1.01559(14) 0.48816(15) 0.0991(2)
H21 H 1.0332 0.5151 0.0801
C32 C 1.03731(15) 0.44409(18) 0.1010(2)
H22 H 1.0695 0.4407 0.0832
C33 C 1.01199(15) 0.40420(16) 0.1293(2)
H23 H 1.0270 0.3736 0.1298
C34 C 0.96533(14) 0.40872(14) 0.1565(2)
C35 C 0.93960(15) 0.36860(14) 0.1893(2)
H24 H 0.9548 0.3381 0.1915
C36 C 0.89462(14) 0.37313(13) 0.2171(2)
H25 H 0.8789 0.3460 0.2396
C37 C 0.86947(13) 0.41875(12) 0.21343(19)
C38 C 0.82232(13) 0.42481(13) 0.23942(18)
H26 H 0.8045 0.3978 0.2573
C39 C 0.80112(12) 0.46937(13) 0.23957(19)
H27 H 0.7691 0.4724 0.2586
C40 C 0.89428(12) 0.45934(12) 0.18206(18)
C41 C 0.94279(12) 0.45402(13) 0.15357(19)
loop_
_geom_bond_atom_site_label_1
_geom_bond_atom_site_label_2
_geom_bond_site_symmetry_1
_geom_bond_site_symmetry_2
O1 C18 1_555 1_555
O2 C24 1_555 1_555
N1 H1 1_555 1_555
N2 C19 1_555 1_555
N3 H2 1_555 1_555
C1 C2 1_555 1_555
C2 C3 1_555 1_555
C3 H3 1_555 1_555
C4 C3 1_555 1_555
H4 C4 1_555 1_555
C5 C4 1_555 1_555
C6 C5 1_555 1_555
H5 C6 1_555 1_555
C7 C6 1_555 1_555
H6 C7 1_555 1_555
C8 C7 1_555 1_555
H7 C8 1_555 1_555
C9 C8 1_555 1_555
C10 C9 1_555 1_555
H8 C10 1_555 1_555
C11 C10 1_555 1_555
H9 C11 1_555 1_555
C12 C11 1_555 1_555
C13 C12 1_555 1_555
H10 C13 1_555 1_555
C14 C1 1_555 1_555
H11 C14 1_555 1_555
C15 C2 1_555 1_555
C16 C5 1_555 1_555
C17 N1 1_555 1_555
H12 C17 1_555 1_555
H13 C17 1_555 1_555
C18 N1 1_555 1_555
C19 C18 1_555 1_555
C20 C19 1_555 1_555
H14 C20 1_555 1_555
C21 C20 1_555 1_555
H15 C21 1_555 1_555
C22 C21 1_555 1_555
H16 C22 1_555 1_555
C23 N2 1_555 1_555
C24 N3 1_555 1_555
C25 N3 1_555 1_555
H17 C25 1_555 1_555
H18 C25 1_555 1_555
C26 C25 1_555 1_555
C27 C26 1_555 1_555
C28 C27 1_555 1_555
H19 C28 1_555 1_555
C29 C28 1_555 1_555
H20 C29 1_555 1_555
C30 C29 1_555 1_555
C31 C30 1_555 1_555
H21 C31 1_555 1_555
C32 C31 1_555 1_555
H22 C32 1_555 1_555
C33 C32 1_555 1_555
H23 C33 1_555 1_555
C34 C33 1_555 1_555
C35 C34 1_555 1_555
H24 C35 1_555 1_555
C36 C35 1_555 1_555
H25 C36 1_555 1_555
C37 C36 1_555 1_555
C38 C37 1_555 1_555
H26 C38 1_555 1_555
C39 C26 1_555 1_555
H27 C39 1_555 1_555
C40 C27 1_555 1_555
C41 C30 1_555 1_555
C1 C17 1_555 1_555
C9 C16 1_555 1_555
C12 C15 1_555 1_555
C13 C14 1_555 1_555
C15 C16 1_555 1_555
C22 C23 1_555 1_555
C23 C24 1_555 1_555
C34 C41 1_555 1_555
C37 C40 1_555 1_555
C38 C39 1_555 1_555
C40 C41 1_555 1_555

#END
