
#######################################################################
#
#                 Cambridge Crystallographic Data Centre
#                                CCDC 
#
#######################################################################
#
# If this CIF has been generated from an entry in the Cambridge 
# Structural Database, then it will include bibliographic, chemical, 
# crystal, experimental, refinement or atomic coordinate data resulting 
# from the CCDC's data processing and validation procedures.
#
#######################################################################

data_UQAMIK
_chemical_formula_moiety         'C41 H27 N3 O2,C6 H3 N3 O6'
_chemical_name_systematic        
"N,N'-bis(pyren-1-ylmethyl)pyridine-2,6-dicarboxamide 1,3,5-trinitrobenzene"
_symmetry_cell_setting           triclinic
_symmetry_space_group_name_H-M   'P -1'
_symmetry_Int_Tables_number      2
_space_group_name_Hall           '-P 1'
loop_
_symmetry_equiv_pos_site_id
_symmetry_equiv_pos_as_xyz
1 x,y,z
2 -x,-y,-z
_cell_length_a                   9.8820(4)
_cell_length_b                   10.0530(5)
_cell_length_c                   21.2051(9)
_cell_angle_alpha                81.036(1)
_cell_angle_beta                 78.409(1)
_cell_angle_gamma                62.916(1)
_cell_volume                     1832.33
_exptl_crystal_colour            red
_exptl_crystal_description       prisms
_cell_formula_units_Z            2
loop_
_atom_site_label
_atom_site_type_symbol
_atom_site_fract_x
_atom_site_fract_y
_atom_site_fract_z
O1 O 0.5333(2) 0.30359(18) 0.16811(9)
O2 O 0.49905(18) 0.30126(18) 0.27242(9)
O3 O 0.66699(18) 0.58581(16) 0.37256(7)
O4 O 0.7994(2) 0.69557(18) 0.31391(8)
O5 O 0.92027(19) 0.6591(2) 0.08412(8)
O6 O 0.83155(19) 0.5413(2) 0.03869(8)
N1 N 0.5485(2) 0.33751(19) 0.21840(10)
N2 N 0.7305(2) 0.61889(18) 0.32048(8)
N3 N 0.8497(2) 0.5847(2) 0.08592(9)
C1 C 0.6323(2) 0.4291(2) 0.21313(9)
C2 C 0.6412(2) 0.47691(19) 0.26889(9)
H1 H 0.5949 0.4524 0.3099
C3 C 0.7210(2) 0.56253(19) 0.26232(9)
C4 C 0.7910(2) 0.5983(2) 0.20350(9)
H2 H 0.8459 0.6565 0.2003
C5 C 0.7784(2) 0.5463(2) 0.14963(9)
C6 C 0.6987(2) 0.4623(2) 0.15295(10)
H3 H 0.6899 0.4286 0.1152
O7 O 0.08571(18) 0.6374(2) 0.42097(8)
O8 O 0.78479(16) 0.05052(15) 0.49256(7)
N4 N 0.3071(2) 0.66325(19) 0.39590(7)
H4 H 0.4076 0.6176 0.3945
N5 N 0.46387(17) 0.38333(17) 0.45051(7)
N6 N 0.77618(17) 0.26831(17) 0.44054(7)
H5 H 0.7166 0.3611 0.4279
C7 C 0.3176(2) 0.8473(2) 0.30437(9)
C8 C 0.3076(2) 0.7970(2) 0.24775(9)
C9 C 0.2202(2) 0.7148(2) 0.24778(10)
H6 H 0.1693 0.6900 0.2875
C10 C 0.2095(2) 0.6723(2) 0.19237(10)
H7 H 0.1480 0.6213 0.1940
C11 C 0.2875(2) 0.7014(2) 0.13132(9)
C12 C 0.2804(3) 0.6561(2) 0.07355(11)
H8 H 0.2199 0.6047 0.0738
C13 C 0.3603(3) 0.6852(3) 0.01607(11)
H9 H 0.3540 0.6534 -0.0227
C14 C 0.4487(3) 0.7592(3) 0.01392(10)
H10 H 0.5039 0.7765 -0.0261
C15 C 0.4582(2) 0.8091(2) 0.06979(9)
C16 C 0.5457(2) 0.8902(2) 0.06975(11)
H11 H 0.6033 0.9077 0.0305
C17 C 0.5483(3) 0.9419(2) 0.12367(11)
H12 H 0.6040 0.9990 0.1213
C18 C 0.4698(2) 0.9139(2) 0.18470(10)
C19 C 0.4736(3) 0.9638(2) 0.24143(11)
H13 H 0.5278 1.0218 0.2402
C20 C 0.3999(3) 0.9304(2) 0.29950(11)
H14 H 0.4055 0.9653 0.3376
C21 C 0.3843(2) 0.82954(19) 0.18781(9)
C22 C 0.3767(2) 0.7804(2) 0.12969(9)
C23 C 0.2351(3) 0.8188(2) 0.36900(10)
H15 H 0.2316 0.8855 0.3997
H16 H 0.1278 0.8450 0.3645
C24 C 0.2241(2) 0.5887(3) 0.42251(9)
C25 C 0.3102(2) 0.4377(2) 0.45621(9)
C26 C 0.2291(2) 0.3629(3) 0.49137(10)
H17 H 0.1208 0.4050 0.4933
C27 C 0.3067(3) 0.2262(3) 0.52372(10)
H18 H 0.2530 0.1735 0.5490
C28 C 0.4648(2) 0.1679(2) 0.51842(9)
H19 H 0.5219 0.0741 0.5400
C29 C 0.5385(2) 0.2486(2) 0.48099(8)
C30 C 0.7114(2) 0.1806(2) 0.47212(8)
C31 C 0.9425(2) 0.2147(2) 0.42638(9)
H20 H 0.9925 0.1066 0.4402
H21 H 0.9735 0.2679 0.4519
C32 C 0.9999(2) 0.2372(2) 0.35555(8)
C33 C 0.9755(2) 0.17286(19) 0.30686(8)
C34 C 0.8950(2) 0.0802(2) 0.32025(9)
H22 H 0.8590 0.0584 0.3638
C35 C 0.8697(2) 0.0239(2) 0.27255(9)
H23 H 0.8174 -0.0376 0.2834
C36 C 0.9195(2) 0.0542(2) 0.20614(9)
C37 C 0.8901(3) 0.0013(2) 0.15562(11)
H24 H 0.8360 -0.0587 0.1651
C38 C 0.9389(3) 0.0354(3) 0.09194(11)
H25 H 0.9155 0.0007 0.0583
C39 C 1.0210(3) 0.1190(3) 0.07680(11)
H26 H 1.0530 0.1416 0.0328
C40 C 1.0576(2) 0.1708(2) 0.12517(9)
C41 C 1.1459(2) 0.2550(3) 0.11147(10)
H27 H 1.1834 0.2746 0.0679
C42 C 1.1767(2) 0.3064(2) 0.15856(10)
H28 H 1.2378 0.3596 0.1478
C43 C 1.1195(2) 0.2833(2) 0.22518(9)
C44 C 1.1428(2) 0.3424(2) 0.27487(10)
H29 H 1.2012 0.3983 0.2651
C45 C 1.0828(2) 0.3213(2) 0.33802(10)
H30 H 1.0985 0.3657 0.3706
C46 C 1.0329(2) 0.19863(19) 0.24124(8)
C47 C 1.0040(2) 0.1403(2) 0.19094(9)
loop_
_geom_bond_atom_site_label_1
_geom_bond_atom_site_label_2
_geom_bond_site_symmetry_1
_geom_bond_site_symmetry_2
O1 N1 1_555 1_555
O2 N1 1_555 1_555
O3 N2 1_555 1_555
O4 N2 1_555 1_555
O5 N3 1_555 1_555
O6 N3 1_555 1_555
N1 C1 1_555 1_555
N2 C3 1_555 1_555
N3 C5 1_555 1_555
C1 C2 1_555 1_555
C2 H1 1_555 1_555
C3 C2 1_555 1_555
C4 C3 1_555 1_555
H2 C4 1_555 1_555
C5 C4 1_555 1_555
C6 C1 1_555 1_555
H3 C6 1_555 1_555
O7 C24 1_555 1_555
O8 C30 1_555 1_555
N4 H4 1_555 1_555
N5 C25 1_555 1_555
N6 H5 1_555 1_555
C7 C8 1_555 1_555
C8 C9 1_555 1_555
C9 H6 1_555 1_555
C10 C9 1_555 1_555
H7 C10 1_555 1_555
C11 C10 1_555 1_555
C12 C11 1_555 1_555
H8 C12 1_555 1_555
C13 C12 1_555 1_555
H9 C13 1_555 1_555
C14 C13 1_555 1_555
H10 C14 1_555 1_555
C15 C14 1_555 1_555
C16 C15 1_555 1_555
H11 C16 1_555 1_555
C17 C16 1_555 1_555
H12 C17 1_555 1_555
C18 C17 1_555 1_555
C19 C18 1_555 1_555
H13 C19 1_555 1_555
C20 C7 1_555 1_555
H14 C20 1_555 1_555
C21 C8 1_555 1_555
C22 C11 1_555 1_555
C23 N4 1_555 1_555
H15 C23 1_555 1_555
H16 C23 1_555 1_555
C24 N4 1_555 1_555
C25 C24 1_555 1_555
C26 C25 1_555 1_555
H17 C26 1_555 1_555
C27 C26 1_555 1_555
H18 C27 1_555 1_555
C28 C27 1_555 1_555
H19 C28 1_555 1_555
C29 N5 1_555 1_555
C30 N6 1_555 1_555
C31 N6 1_555 1_555
H20 C31 1_555 1_555
H21 C31 1_555 1_555
C32 C31 1_555 1_555
C33 C32 1_555 1_555
C34 C33 1_555 1_555
H22 C34 1_555 1_555
C35 C34 1_555 1_555
H23 C35 1_555 1_555
C36 C35 1_555 1_555
C37 C36 1_555 1_555
H24 C37 1_555 1_555
C38 C37 1_555 1_555
H25 C38 1_555 1_555
C39 C38 1_555 1_555
H26 C39 1_555 1_555
C40 C39 1_555 1_555
C41 C40 1_555 1_555
H27 C41 1_555 1_555
C42 C41 1_555 1_555
H28 C42 1_555 1_555
C43 C42 1_555 1_555
C44 C43 1_555 1_555
H29 C44 1_555 1_555
C45 C32 1_555 1_555
H30 C45 1_555 1_555
C46 C33 1_555 1_555
C47 C36 1_555 1_555
C5 C6 1_555 1_555
C7 C23 1_555 1_555
C15 C22 1_555 1_555
C18 C21 1_555 1_555
C19 C20 1_555 1_555
C21 C22 1_555 1_555
C28 C29 1_555 1_555
C29 C30 1_555 1_555
C40 C47 1_555 1_555
C43 C46 1_555 1_555
C44 C45 1_555 1_555
C46 C47 1_555 1_555

#END
