
#######################################################################
#
#                 Cambridge Crystallographic Data Centre
#                                CCDC 
#
#######################################################################
#
# If this CIF has been generated from an entry in the Cambridge 
# Structural Database, then it will include bibliographic, chemical, 
# crystal, experimental, refinement or atomic coordinate data resulting 
# from the CCDC's data processing and validation procedures.
#
#######################################################################

data_UQAPOS
_chemical_formula_moiety         'C13 H8 Cl1 N4 O1'
_chemical_name_systematic        
(Z)-3-((3-Chloropyridin-2-yl)hydrazono)-1,3-dihydro-2H-indol-2-one
_chemical_properties_biological  
'Herbicidal activity with some inhibition of acetohydroxyacid synthase (AHAS) both in vitro and in vivo'
_symmetry_cell_setting           orthorhombic
_symmetry_space_group_name_H-M   'P c a 21'
_symmetry_Int_Tables_number      29
_space_group_name_Hall           'P 2c -2ac'
loop_
_symmetry_equiv_pos_site_id
_symmetry_equiv_pos_as_xyz
1 x,y,z
2 -x,-y,1/2+z
3 1/2+x,-y,z
4 1/2-x,y,1/2+z
_cell_length_a                   20.799(4)
_cell_length_b                   4.9312(10)
_cell_length_c                   11.764(2)
_cell_angle_alpha                90
_cell_angle_beta                 90
_cell_angle_gamma                90
_cell_volume                     1206.56
_exptl_crystal_colour            yellow
_chemical_melting_point          '275-277 deg.C'
_cell_formula_units_Z            4
_exptl_crystal_recrystallization_method ethanol
loop_
_atom_site_label
_atom_site_type_symbol
_atom_site_fract_x
_atom_site_fract_y
_atom_site_fract_z
Cl1 Cl 0.56092(2) 0.02439(9) 0.49227(4)
O1 O 0.70729(7) 0.4214(3) 0.61461(12)
N1 N 0.58355(7) 0.5947(3) 0.25725(13)
N2 N 0.64775(7) 0.4581(3) 0.40896(12)
N3 N 0.69019(6) 0.6540(3) 0.37972(12)
N4 N 0.79131(7) 0.7328(3) 0.61976(13)
C1 C 0.52843(9) 0.5697(4) 0.19852(16)
H1 H 0.5222 0.6841 0.1367
C2 C 0.48058(9) 0.3863(4) 0.22365(17)
H2 H 0.4430 0.3790 0.1808
C3 C 0.49026(9) 0.2112(4) 0.31571(16)
H3 H 0.4593 0.0835 0.3355
C4 C 0.54635(9) 0.2327(4) 0.37585(15)
C5 C 0.59217(8) 0.4295(4) 0.34556(14)
C6 C 0.73387(8) 0.7124(4) 0.45385(13)
C7 C 0.74090(9) 0.5988(4) 0.57120(14)
C8 C 0.81802(8) 0.9214(4) 0.54334(15)
C9 C 0.86906(9) 1.0957(4) 0.56023(15)
H4 H 0.8922 1.0957 0.6279
C10 C 0.88448(9) 1.2713(4) 0.47183(16)
H5 H 0.9184 1.3922 0.4811
C11 C 0.85047(8) 1.2709(4) 0.36968(16)
H6 H 0.8619 1.3911 0.3122
C12 C 0.79978(8) 1.0925(4) 0.35339(15)
H7 H 0.7770 1.0911 0.2854
C13 C 0.78388(8) 0.9166(4) 0.44045(14)
H8 H 0.6531(14) 0.390(6) 0.4799(12)
loop_
_geom_bond_atom_site_label_1
_geom_bond_atom_site_label_2
_geom_bond_site_symmetry_1
_geom_bond_site_symmetry_2
Cl1 C4 1_555 1_555
O1 C7 1_555 1_555
N1 C1 1_555 1_555
N2 N3 1_555 1_555
N3 C6 1_555 1_555
N4 C7 1_555 1_555
C1 H1 1_555 1_555
C2 C1 1_555 1_555
H2 C2 1_555 1_555
C3 C2 1_555 1_555
H3 C3 1_555 1_555
C4 C3 1_555 1_555
C5 N1 1_555 1_555
C6 C7 1_555 1_555
C8 N4 1_555 1_555
C9 C8 1_555 1_555
H4 C9 1_555 1_555
C10 C9 1_555 1_555
H5 C10 1_555 1_555
C11 C10 1_555 1_555
H6 C11 1_555 1_555
C12 C11 1_555 1_555
H7 C12 1_555 1_555
C13 C6 1_555 1_555
H8 N2 1_555 1_555
N2 C5 1_555 1_555
C4 C5 1_555 1_555
C8 C13 1_555 1_555
C12 C13 1_555 1_555

#END
