
#######################################################################
#
#                 Cambridge Crystallographic Data Centre
#                                CCDC 
#
#######################################################################
#
# If this CIF has been generated from an entry in the Cambridge 
# Structural Database, then it will include bibliographic, chemical, 
# crystal, experimental, refinement or atomic coordinate data resulting 
# from the CCDC's data processing and validation procedures.
#
#######################################################################

data_UQARUB
_chemical_formula_moiety         'C28 H39 N1 O1'
_chemical_name_systematic        
8-(1H-indol-3-ylmethyl)-4,4a-dimethyl-7-methylene-8a-(4-methylpent-3-en-1-yl)decahydronaphthalen-1-ol
_symmetry_cell_setting           triclinic
_symmetry_space_group_name_H-M   'P -1'
_symmetry_Int_Tables_number      2
_space_group_name_Hall           '-P 1'
loop_
_symmetry_equiv_pos_site_id
_symmetry_equiv_pos_as_xyz
1 x,y,z
2 -x,-y,-z
_cell_length_a                   9.3676(8)
_cell_length_b                   10.5455(9)
_cell_length_c                   13.8622(11)
_cell_angle_alpha                88.235(2)
_cell_angle_beta                 72.615(2)
_cell_angle_gamma                63.819(2)
_cell_volume                     1164.57
_exptl_crystal_colour            colorless
_exptl_crystal_description       prismatic
_cell_formula_units_Z            2
loop_
_atom_site_label
_atom_site_type_symbol
_atom_site_fract_x
_atom_site_fract_y
_atom_site_fract_z
N1 N 1.0639(2) -0.46169(15) 0.09739(11)
O1 O 0.93590(15) 0.33145(11) 0.18694(9)
C1 C 1.1937(2) -0.45648(16) 0.02250(12)
C2 C 1.3161(2) -0.55723(18) -0.05959(14)
H1 H 1.3187 -0.6450 -0.0700
C3 C 1.4320(2) -0.52170(19) -0.12413(14)
H2 H 1.5151 -0.5869 -0.1791
C4 C 1.4280(2) -0.38952(19) -0.10906(13)
H3 H 1.5084 -0.3684 -0.1541
C5 C 1.3076(2) -0.29044(17) -0.02894(12)
H4 H 1.3060 -0.2027 -0.0200
C6 C 1.18707(18) -0.32236(15) 0.03921(11)
C7 C 1.04619(19) -0.24685(16) 0.12876(11)
C8 C 0.9774(2) -0.33627(18) 0.15996(13)
H5 H 0.8835 -0.3150 0.2166
C9 C 0.97828(19) -0.09660(16) 0.17519(12)
H6 H 0.8734 -0.0726 0.2291
H7 H 0.9532 -0.0337 0.1236
C10 C 1.09471(17) -0.06653(14) 0.21972(10)
H8 H 1.2026 -0.1015 0.1652
C11 C 1.1316(2) -0.15042(16) 0.30773(11)
C12 C 1.2714(2) -0.14617(17) 0.33643(13)
H9 H 1.3749 -0.1899 0.2799
H10 H 1.2873 -0.1991 0.3940
C13 C 1.2288(2) 0.00737(16) 0.36400(11)
H11 H 1.3226 0.0092 0.3791
H12 H 1.1328 0.0460 0.4254
C14 C 1.18906(17) 0.10410(15) 0.28056(10)
C15 C 1.04082(16) 0.09645(14) 0.25067(10)
C16 C 1.01203(18) 0.17953(15) 0.15815(11)
H13 H 0.9343 0.1592 0.1350
C17 C 1.1706(2) 0.13897(17) 0.06880(11)
H14 H 1.1451 0.2020 0.0173
H15 H 1.2099 0.0428 0.0391
C18 C 1.3094(2) 0.14738(18) 0.09936(12)
H16 H 1.2754 0.2455 0.1221
H17 H 1.4099 0.1155 0.0407
C19 C 1.34832(18) 0.05598(16) 0.18425(11)
H18 H 1.3780 -0.0412 0.1592
C20 C 1.5026(2) 0.0506(2) 0.20467(15)
H19 H 1.5950 0.0188 0.1424
H20 H 1.5315 -0.0143 0.2537
H21 H 1.4780 0.1438 0.2307
C21 C 1.0454(3) -0.2147(2) 0.35953(14)
H22 H 1.0709 -0.2589 0.4154
H23 H 0.9591 -0.2159 0.3402
C22 C 1.1418(2) 0.25472(17) 0.32589(13)
H24 H 1.0496 0.2822 0.3880
H25 H 1.1098 0.3211 0.2782
H26 H 1.2365 0.2544 0.3396
C23 C 0.87755(18) 0.15973(17) 0.34302(11)
H27 H 0.8917 0.0926 0.3930
H28 H 0.8691 0.2456 0.3732
C24 C 0.70999(19) 0.1970(2) 0.32768(13)
H29 H 0.6757 0.2841 0.2958
H30 H 0.7233 0.1218 0.2820
C25 C 0.4347(2) 0.3200(2) 0.46999(15)
C26 C 0.5778(3) 0.2160(3) 0.4241(2)
H31 H 0.6036 0.1362 0.4589
C27 C 0.3154(5) 0.3264(8) 0.5681(3)
H32 H 0.3545 0.2348 0.5925
H33 H 0.2079 0.3527 0.5603
H34 H 0.3055 0.3958 0.6162
C28 C 0.3698(5) 0.4651(4) 0.4250(3)
H35 H 0.4581 0.4647 0.3675
H36 H 0.3355 0.5413 0.4760
H37 H 0.2761 0.4783 0.4037
H38 H 0.844(2) 0.363(3) 0.1764(19)
H39 H 1.042(2) -0.5325(18) 0.1055(15)
H40? H 0.7190 0.2218 0.2596
C29? C 0.5579(6) 0.3070(6) 0.3962(4)
H41? H 0.5486 0.3962 0.3806
C30? C 0.4318(8) 0.1741(7) 0.5126(5)
H42? H 0.3327 0.1705 0.5093
H43? H 0.4316 0.1735 0.5819
H44? H 0.5294 0.0928 0.4716
C31? C 0.2924(9) 0.4412(10) 0.5325(8)
H45? H 0.2865 0.5259 0.5025
H46? H 0.3026 0.4462 0.5990
H47? H 0.1922 0.4330 0.5381
loop_
_geom_bond_atom_site_label_1
_geom_bond_atom_site_label_2
_geom_bond_site_symmetry_1
_geom_bond_site_symmetry_2
N1 C1 1_555 1_555
O1 C16 1_555 1_555
C1 C2 1_555 1_555
C2 H1 1_555 1_555
C3 C2 1_555 1_555
H2 C3 1_555 1_555
C4 C3 1_555 1_555
H3 C4 1_555 1_555
C5 C4 1_555 1_555
H4 C5 1_555 1_555
C6 C1 1_555 1_555
C7 C6 1_555 1_555
C8 N1 1_555 1_555
H5 C8 1_555 1_555
C9 C7 1_555 1_555
H6 C9 1_555 1_555
H7 C9 1_555 1_555
C10 C9 1_555 1_555
H8 C10 1_555 1_555
C11 C10 1_555 1_555
C12 C11 1_555 1_555
H9 C12 1_555 1_555
H10 C12 1_555 1_555
C13 C12 1_555 1_555
H11 C13 1_555 1_555
H12 C13 1_555 1_555
C14 C13 1_555 1_555
C15 C10 1_555 1_555
C16 C15 1_555 1_555
H13 C16 1_555 1_555
C17 C16 1_555 1_555
H14 C17 1_555 1_555
H15 C17 1_555 1_555
C18 C17 1_555 1_555
H16 C18 1_555 1_555
H17 C18 1_555 1_555
C19 C14 1_555 1_555
H18 C19 1_555 1_555
C20 C19 1_555 1_555
H19 C20 1_555 1_555
H20 C20 1_555 1_555
H21 C20 1_555 1_555
C21 C11 1_555 1_555
H22 C21 1_555 1_555
H23 C21 1_555 1_555
C22 C14 1_555 1_555
H24 C22 1_555 1_555
H25 C22 1_555 1_555
H26 C22 1_555 1_555
C23 C15 1_555 1_555
H27 C23 1_555 1_555
H28 C23 1_555 1_555
C24 C23 1_555 1_555
H29 C24 1_555 1_555
H30 C24 1_555 1_555
C25 C26 1_555 1_555
C26 C24 1_555 1_555
H31 C26 1_555 1_555
C27 C25 1_555 1_555
H32 C27 1_555 1_555
H33 C27 1_555 1_555
H34 C27 1_555 1_555
C28 C25 1_555 1_555
H35 C28 1_555 1_555
H36 C28 1_555 1_555
H37 C28 1_555 1_555
H38 O1 1_555 1_555
H39 N1 1_555 1_555
C5 C6 1_555 1_555
C7 C8 1_555 1_555
C14 C15 1_555 1_555
C18 C19 1_555 1_555

#END
