
#######################################################################
#
#                 Cambridge Crystallographic Data Centre
#                                CCDC 
#
#######################################################################
#
# If this CIF has been generated from an entry in the Cambridge 
# Structural Database, then it will include bibliographic, chemical, 
# crystal, experimental, refinement or atomic coordinate data resulting 
# from the CCDC's data processing and validation procedures.
#
#######################################################################

data_UQASIQ
_chemical_formula_moiety         'C30 H31 N1 O4 S1'
_chemical_name_systematic        
3,3a-dimethyl-7-(phenylsulfonyl)-1,2,3,3a,4,5,7,13,14,15a-decahydrofuro[2',3':8,8a]naphtho[2,1-b]carbazol-14-ol
_symmetry_cell_setting           monoclinic
_symmetry_space_group_name_H-M   'P 21/c'
_symmetry_Int_Tables_number      14
_space_group_name_Hall           '-P 2ybc'
loop_
_symmetry_equiv_pos_site_id
_symmetry_equiv_pos_as_xyz
1 x,y,z
2 -x,1/2+y,1/2-z
3 -x,-y,-z
4 x,1/2-y,1/2+z
_cell_length_a                   13.4405(14)
_cell_length_b                   8.5144(9)
_cell_length_c                   22.050(2)
_cell_angle_alpha                90
_cell_angle_beta                 94.138(2)
_cell_angle_gamma                90
_cell_volume                     2516.78
_exptl_crystal_colour            colorless
_exptl_crystal_description       prismatic
_cell_formula_units_Z            4
loop_
_atom_site_label
_atom_site_type_symbol
_atom_site_fract_x
_atom_site_fract_y
_atom_site_fract_z
S1 S -0.15173(7) 0.47897(12) 0.82751(5)
N1 N -0.0775(2) 0.5530(4) 0.88386(14)
O1 O 0.4316(3) 0.8315(5) 1.04770(13)
H1 H 0.4712 0.8982 1.0613
O2 O 0.43833(19) 0.9138(3) 0.94759(12)
O3 O -0.24877(19) 0.5392(3) 0.83563(13)
O4 O -0.10529(19) 0.5082(3) 0.77291(11)
C1 C 0.4557(3) 0.7875(6) 0.98962(19)
H2 H 0.5257 0.7545 0.9906
C2 C 0.3884(3) 0.6540(5) 0.96716(17)
H3 H 0.3389 0.6321 0.9959
H4 H 0.4269 0.5595 0.9615
C3 C 0.3373(2) 0.7113(4) 0.90532(16)
C4 C 0.3415(3) 0.8892(4) 0.91757(16)
H5 H 0.2911 0.9155 0.9459
C5 C 0.3274(3) 0.9948(5) 0.86303(18)
H6 H 0.3456 1.1012 0.8750
H7 H 0.2575 0.9951 0.8487
C6 C 0.3889(3) 0.9450(5) 0.81163(19)
H8 H 0.3720 1.0099 0.7762
H9 H 0.4592 0.9600 0.8236
C7 C 0.3701(3) 0.7745(5) 0.79556(17)
H10 H 0.2980 0.7637 0.7864
C8 C 0.3984(3) 0.6630(5) 0.84986(17)
C9 C 0.3706(3) 0.4931(5) 0.8335(2)
H11 H 0.4133 0.4560 0.8029
H12 H 0.3829 0.4278 0.8693
C10 C 0.2631(3) 0.4752(5) 0.80986(18)
H13 H 0.2541 0.5207 0.7695
H14 H 0.2468 0.3644 0.8066
C11 C 0.1932(3) 0.5538(4) 0.85070(16)
C12 C 0.2280(2) 0.6554(4) 0.89773(15)
C13 C 0.1611(3) 0.7057(4) 0.93846(15)
H15 H 0.1837 0.7681 0.9712
C14 C 0.0618(3) 0.6652(4) 0.93149(15)
C15 C 0.0272(3) 0.5753(4) 0.88163(16)
C16 C 0.0928(3) 0.5161(4) 0.84214(16)
H16 H 0.0700 0.4515 0.8101
C17 C -0.0230(3) 0.6967(4) 0.96758(16)
C18 C -0.0320(3) 0.7786(5) 1.02051(17)
H17 H 0.0233 0.8267 1.0403
C19 C -0.1241(4) 0.7884(6) 1.0439(2)
H18 H -0.1312 0.8437 1.0796
C20 C -0.2055(3) 0.7167(6) 1.0145(2)
H19 H -0.2668 0.7247 1.0313
C21 C -0.2000(3) 0.6336(5) 0.9614(2)
H20 H -0.2558 0.5856 0.9422
C22 C -0.1067(3) 0.6247(4) 0.93770(16)
C23 C -0.1507(3) 0.2769(4) 0.84133(16)
C24 C -0.0817(3) 0.1829(5) 0.81559(18)
H21 H -0.0350 0.2261 0.7912
C25 C -0.0831(4) 0.0238(6) 0.8266(2)
H22 H -0.0366 -0.0414 0.8101
C26 C -0.1518(6) -0.0376(6) 0.8613(2)
H23 H -0.1525 -0.1455 0.8679
C27 C -0.2202(5) 0.0545(7) 0.8871(2)
H24 H -0.2668 0.0095 0.9111
C28 C -0.2202(3) 0.2142(5) 0.87753(18)
H25 H -0.2661 0.2785 0.8951
C29 C 0.5128(3) 0.6654(6) 0.8646(2)
H26 H 0.5456 0.6332 0.8294
H27 H 0.5302 0.5947 0.8976
H28 H 0.5337 0.7698 0.8759
C30 C 0.4194(3) 0.7330(6) 0.73696(19)
H29 H 0.4905 0.7404 0.7440
H30 H 0.3969 0.8048 0.7053
H31 H 0.4014 0.6278 0.7249
loop_
_geom_bond_atom_site_label_1
_geom_bond_atom_site_label_2
_geom_bond_site_symmetry_1
_geom_bond_site_symmetry_2
S1 N1 1_555 1_555
N1 C15 1_555 1_555
O1 H1 1_555 1_555
O2 C1 1_555 1_555
O3 S1 1_555 1_555
O4 S1 1_555 1_555
C1 O1 1_555 1_555
H2 C1 1_555 1_555
C2 C1 1_555 1_555
H3 C2 1_555 1_555
H4 C2 1_555 1_555
C3 C2 1_555 1_555
C4 O2 1_555 1_555
H5 C4 1_555 1_555
C5 C4 1_555 1_555
H6 C5 1_555 1_555
H7 C5 1_555 1_555
C6 C5 1_555 1_555
H8 C6 1_555 1_555
H9 C6 1_555 1_555
C7 C6 1_555 1_555
H10 C7 1_555 1_555
C8 C3 1_555 1_555
C9 C8 1_555 1_555
H11 C9 1_555 1_555
H12 C9 1_555 1_555
C10 C9 1_555 1_555
H13 C10 1_555 1_555
H14 C10 1_555 1_555
C11 C10 1_555 1_555
C12 C3 1_555 1_555
C13 C12 1_555 1_555
H15 C13 1_555 1_555
C14 C13 1_555 1_555
C15 C14 1_555 1_555
C16 C11 1_555 1_555
H16 C16 1_555 1_555
C17 C14 1_555 1_555
C18 C17 1_555 1_555
H17 C18 1_555 1_555
C19 C18 1_555 1_555
H18 C19 1_555 1_555
C20 C19 1_555 1_555
H19 C20 1_555 1_555
C21 C20 1_555 1_555
H20 C21 1_555 1_555
C22 N1 1_555 1_555
C23 S1 1_555 1_555
C24 C23 1_555 1_555
H21 C24 1_555 1_555
C25 C24 1_555 1_555
H22 C25 1_555 1_555
C26 C25 1_555 1_555
H23 C26 1_555 1_555
C27 C26 1_555 1_555
H24 C27 1_555 1_555
C28 C23 1_555 1_555
H25 C28 1_555 1_555
C29 C8 1_555 1_555
H26 C29 1_555 1_555
H27 C29 1_555 1_555
H28 C29 1_555 1_555
C30 C7 1_555 1_555
H29 C30 1_555 1_555
H30 C30 1_555 1_555
H31 C30 1_555 1_555
C3 C4 1_555 1_555
C7 C8 1_555 1_555
C11 C12 1_555 1_555
C15 C16 1_555 1_555
C17 C22 1_555 1_555
C21 C22 1_555 1_555
C27 C28 1_555 1_555

#END
