
#######################################################################
#
#                 Cambridge Crystallographic Data Centre
#                                CCDC 
#
#######################################################################
#
# If this CIF has been generated from an entry in the Cambridge 
# Structural Database, then it will include bibliographic, chemical, 
# crystal, experimental, refinement or atomic coordinate data resulting 
# from the CCDC's data processing and validation procedures.
#
#######################################################################

data_UQATEN
_chemical_formula_moiety         'C30 H26 N2'
_chemical_name_systematic        
(1R*,7aS*)-1,3,6,6-tetraphenyl-5,6,7,7a-tetrahydro-1H-pyrrolo[1,2-c]imidazole
_symmetry_cell_setting           monoclinic
_symmetry_space_group_name_H-M   'P 21/c'
_symmetry_Int_Tables_number      14
_space_group_name_Hall           '-P 2ybc'
loop_
_symmetry_equiv_pos_site_id
_symmetry_equiv_pos_as_xyz
1 x,y,z
2 -x,1/2+y,1/2-z
3 -x,-y,-z
4 x,1/2-y,1/2+z
_cell_length_a                   12.1452(4)
_cell_length_b                   19.8949(7)
_cell_length_c                   9.0046(3)
_cell_angle_alpha                90
_cell_angle_beta                 90.590(2)
_cell_angle_gamma                90
_cell_volume                     2175.64
_exptl_crystal_colour            colorless
_exptl_crystal_description       block
_cell_formula_units_Z            4
loop_
_atom_site_label
_atom_site_type_symbol
_atom_site_fract_x
_atom_site_fract_y
_atom_site_fract_z
C1 C 0.16755(11) 0.12249(6) 0.46821(14)
H1 H 0.1798 0.1546 0.3860
H2 H 0.0927 0.1033 0.4580
C2 C 0.25558(10) 0.06646(6) 0.46831(13)
C3 C 0.34931(10) 0.10164(7) 0.55532(14)
H3 H 0.4052 0.0690 0.5906
H4 H 0.3855 0.1364 0.4943
C4 C 0.28718(10) 0.13296(6) 0.68501(14)
H5 H 0.2724 0.0984 0.7629
C5 C 0.33424(11) 0.19816(7) 0.75697(14)
H6 H 0.3233 0.1952 0.8667
C6 C 0.18620(10) 0.22648(7) 0.62318(14)
C7 C 0.09938(11) 0.26689(6) 0.54819(14)
C8 C 0.12018(11) 0.33451(7) 0.51658(14)
H7 H 0.1874 0.3546 0.5481
C9 C 0.04251(12) 0.37220(7) 0.43909(15)
H8 H 0.0572 0.4180 0.4165
C10 C -0.05650(12) 0.34336(7) 0.39442(15)
H9 H -0.1087 0.3691 0.3394
C11 C -0.07927(11) 0.27724(7) 0.42999(16)
H10 H -0.1480 0.2580 0.4020
C12 C -0.00164(11) 0.23894(7) 0.50672(15)
H11 H -0.0175 0.1935 0.5310
C13 C 0.45603(11) 0.20792(7) 0.72922(14)
C14 C 0.49736(12) 0.26205(7) 0.65052(16)
H12 H 0.4488 0.2962 0.6159
C15 C 0.60949(12) 0.26673(8) 0.62188(17)
H13 H 0.6370 0.3041 0.5681
C16 C 0.68100(12) 0.21746(8) 0.67107(16)
H14 H 0.7575 0.2209 0.6511
C17 C 0.64113(12) 0.16313(8) 0.74935(17)
H15 H 0.6900 0.1289 0.7830
C18 C 0.52950(12) 0.15870(8) 0.77870(16)
H16 H 0.5026 0.1215 0.8335
C19 C 0.22174(11) 0.00339(6) 0.55522(14)
C20 C 0.12557(11) -0.00098(7) 0.63686(15)
H17 H 0.0752 0.0356 0.6368
C21 C 0.10229(12) -0.05883(7) 0.71920(15)
H18 H 0.0362 -0.0613 0.7745
C22 C 0.17449(14) -0.11234(7) 0.72075(15)
H19 H 0.1587 -0.1513 0.7776
C23 C 0.27020(15) -0.10886(7) 0.63890(16)
H20 H 0.3201 -0.1456 0.6389
C24 C 0.29324(13) -0.05149(7) 0.55675(15)
H21 H 0.3589 -0.0496 0.5006
C25 C 0.28250(11) 0.04699(6) 0.30878(14)
C26 C 0.20428(12) 0.01182(7) 0.22522(15)
H22 H 0.1367 -0.0007 0.2696
C27 C 0.22363(14) -0.00531(7) 0.07794(16)
H23 H 0.1690 -0.0288 0.0223
C28 C 0.32204(14) 0.01172(8) 0.01255(16)
H24 H 0.3357 -0.0001 -0.0878
C29 C 0.40047(14) 0.04614(8) 0.09443(17)
H25 H 0.4683 0.0580 0.0498
C30 C 0.38145(12) 0.06384(7) 0.24201(16)
H26 H 0.4363 0.0875 0.2970
N1 N 0.18219(9) 0.15616(5) 0.61532(11)
N2 N 0.26486(9) 0.25318(6) 0.69912(13)
loop_
_geom_bond_atom_site_label_1
_geom_bond_atom_site_label_2
_geom_bond_site_symmetry_1
_geom_bond_site_symmetry_2
C1 H1 1_555 1_555
H2 C1 1_555 1_555
C2 C1 1_555 1_555
C3 C2 1_555 1_555
H3 C3 1_555 1_555
H4 C3 1_555 1_555
C4 C3 1_555 1_555
H5 C4 1_555 1_555
C5 C4 1_555 1_555
H6 C5 1_555 1_555
C6 C7 1_555 1_555
C7 C8 1_555 1_555
C8 H7 1_555 1_555
C9 C8 1_555 1_555
H8 C9 1_555 1_555
C10 C9 1_555 1_555
H9 C10 1_555 1_555
C11 C10 1_555 1_555
H10 C11 1_555 1_555
C12 C7 1_555 1_555
H11 C12 1_555 1_555
C13 C5 1_555 1_555
C14 C13 1_555 1_555
H12 C14 1_555 1_555
C15 C14 1_555 1_555
H13 C15 1_555 1_555
C16 C15 1_555 1_555
H14 C16 1_555 1_555
C17 C16 1_555 1_555
H15 C17 1_555 1_555
C18 C13 1_555 1_555
H16 C18 1_555 1_555
C19 C2 1_555 1_555
C20 C19 1_555 1_555
H17 C20 1_555 1_555
C21 C20 1_555 1_555
H18 C21 1_555 1_555
C22 C21 1_555 1_555
H19 C22 1_555 1_555
C23 C22 1_555 1_555
H20 C23 1_555 1_555
C24 C19 1_555 1_555
H21 C24 1_555 1_555
C25 C2 1_555 1_555
C26 C25 1_555 1_555
H22 C26 1_555 1_555
C27 C26 1_555 1_555
H23 C27 1_555 1_555
C28 C27 1_555 1_555
H24 C28 1_555 1_555
C29 C28 1_555 1_555
H25 C29 1_555 1_555
C30 C25 1_555 1_555
H26 C30 1_555 1_555
N1 C1 1_555 1_555
N2 C5 1_555 1_555
C4 N1 1_555 1_555
C6 N1 1_555 1_555
C6 N2 1_555 1_555
C11 C12 1_555 1_555
C17 C18 1_555 1_555
C23 C24 1_555 1_555
C29 C30 1_555 1_555

#END
