
#######################################################################
#
#                 Cambridge Crystallographic Data Centre
#                                CCDC 
#
#######################################################################
#
# If this CIF has been generated from an entry in the Cambridge 
# Structural Database, then it will include bibliographic, chemical, 
# crystal, experimental, refinement or atomic coordinate data resulting 
# from the CCDC's data processing and validation procedures.
#
#######################################################################

data_UQAWIT
_chemical_formula_moiety         'C18 H23 N4 O5,0.5(H2 O1)'
_chemical_name_systematic        
'(L)-2-(1-(4-Nitrobenzoyl)pyrrolidin-2-yl)-4,4,5,5-tetramethyl-4,5-dihydro-1H-imidazole-1-oxyl 3-oxide radical hemihydrate'
_symmetry_cell_setting           monoclinic
_symmetry_space_group_name_H-M   'P 21'
_symmetry_Int_Tables_number      4
_space_group_name_Hall           'P 2yb'
loop_
_symmetry_equiv_pos_site_id
_symmetry_equiv_pos_as_xyz
1 x,y,z
2 -x,1/2+y,-z
_cell_length_a                   14.079(5)
_cell_length_b                   10.210(3)
_cell_length_c                   14.827(5)
_cell_angle_alpha                90
_cell_angle_beta                 114.003(4)
_cell_angle_gamma                90
_cell_volume                     1947.02
_exptl_crystal_colour            'deep red'
_exptl_crystal_description       needle
_cell_formula_units_Z            4
_exptl_crystal_recrystallization_method 'ethyl acetate/hexane/petroleum'
loop_
_atom_site_label
_atom_site_type_symbol
_atom_site_fract_x
_atom_site_fract_y
_atom_site_fract_z
N1 N 0.6802(5) 0.8575(7) 0.9966(5)
N2 N 0.6347(5) 0.7712(6) 0.8509(5)
N3 N 0.8466(5) 0.6437(6) 0.9395(5)
N4 N 1.1709(7) 0.7383(10) 0.7340(7)
O1 O 0.7280(5) 0.8750(6) 1.0903(4)
O2 O 0.6306(5) 0.6941(6) 0.7825(4)
O3 O 0.8920(4) 0.8563(5) 0.9682(4)
O4 O 1.1480(8) 0.8006(11) 0.6606(7)
O5 O 1.2480(7) 0.6749(11) 0.7670(7)
C1 C 0.4970(8) 0.8834(12) 0.9532(8)
H3 H 0.4345 0.9294 0.9134
H4 H 0.5106 0.8939 1.0217
H5 H 0.4889 0.7921 0.9365
C2 C 0.5876(6) 0.9387(8) 0.9343(6)
C3 C 0.6068(8) 1.0771(11) 0.9617(8)
H6 H 0.6724 1.1028 0.9617
H7 H 0.6083 1.0898 1.0264
H8 H 0.5524 1.1294 0.9149
C4 C 0.4780(7) 0.8927(11) 0.7501(7)
H9 H 0.4356 0.8302 0.7652
H10 H 0.4857 0.8659 0.6914
H11 H 0.4456 0.9773 0.7398
C5 C 0.5785(7) 0.8994(9) 0.8308(6)
C6 C 0.6483(9) 0.9903(11) 0.7975(9)
H12 H 0.6163 1.0749 0.7798
H13 H 0.6557 0.9521 0.7415
H14 H 0.7156 0.9995 0.8508
C7 C 0.6979(6) 0.7591(8) 0.9457(6)
C8 C 0.7783(6) 0.6547(7) 0.9911(6)
H15 H 0.8194 0.6750 1.0608
C9 C 0.7313(8) 0.5177(9) 0.9818(8)
H16 H 0.7364 0.4871 1.0456
H17 H 0.6586 0.5186 0.9364
C10 C 0.7895(8) 0.4345(10) 0.9456(8)
H18 H 0.7434 0.3719 0.8991
H19 H 0.8409 0.3863 0.9999
C11 C 0.8411(7) 0.5137(8) 0.8970(8)
H20 H 0.8010 0.5153 0.8261
H21 H 0.9101 0.4802 0.9107
C12 C 0.9019(6) 0.7496(8) 0.9337(6)
C13 C 0.9701(5) 0.7388(8) 0.8774(6)
C14 C 1.0491(5) 0.6445(8) 0.9034(6)
H22 H 1.0573 0.5826 0.9521
C15 C 1.1141(5) 0.6458(8) 0.8552(6)
H23 H 1.1673 0.5844 0.8711
C16 C 1.1008(6) 0.7387(9) 0.7826(6)
C17 C 1.0234(7) 0.8305(9) 0.7591(6)
H24 H 1.0152 0.8933 0.7110
C18 C 0.9579(6) 0.8293(9) 0.8072(6)
H25 H 0.9050 0.8910 0.7913
N5 N 0.6760(4) 0.9112(6) 0.5187(5)
N6 N 0.6384(5) 0.7855(7) 0.3904(5)
N7 N 0.8589(5) 0.6932(7) 0.4890(5)
N8 N 1.1254(7) 0.7113(8) 0.2186(8)
O6 O 0.6407(5) 0.6903(7) 0.3354(5)
O7 O 0.7211(4) 0.9529(7) 0.6066(4)
O8 O 0.8744(4) 0.9067(6) 0.4633(5)
O9 O 1.0829(7) 0.6999(11) 0.1320(6)
O10 O 1.2189(6) 0.7214(11) 0.2640(6)
C19 C 0.5007(11) 0.9780(18) 0.4803(10)
H26 H 0.5281 1.0116 0.5464
H27 H 0.4751 0.8907 0.4798
H28 H 0.4449 1.0331 0.4384
C20 C 0.5845(7) 0.9757(10) 0.4432(7)
C21 C 0.6132(10) 1.1169(13) 0.4407(10)
H29 H 0.6646 1.1235 0.4138
H30 H 0.6409 1.1518 0.5065
H31 H 0.5525 1.1657 0.4002
C22 C 0.4582(8) 0.8486(14) 0.2964(10)
H32 H 0.4465 0.7753 0.3311
H33 H 0.4501 0.8214 0.2317
H34 H 0.4089 0.9164 0.2907
C23 C 0.5650(6) 0.8991(9) 0.3515(6)
C24 C 0.5981(10) 0.9689(14) 0.2777(9)
H35 H 0.5623 1.0512 0.2593
H36 H 0.5810 0.9153 0.2200
H37 H 0.6717 0.9841 0.3074
C25 C 0.7023(6) 0.8017(9) 0.4846(6)
C26 C 0.7963(7) 0.7224(9) 0.5457(7)
H38 H 0.8391 0.7755 0.6029
C27 C 0.7786(9) 0.5949(12) 0.5826(9)
H39 H 0.7097 0.5915 0.5826
H40 H 0.8297 0.5797 0.6492
C28 C 0.7891(9) 0.4938(12) 0.5121(9)
H41 H 0.8178 0.4130 0.5470
H42 H 0.7216 0.4749 0.4598
C29 C 0.8604(8) 0.5505(9) 0.4698(9)
H43 H 0.9300 0.5151 0.5026
H44 H 0.8349 0.5329 0.3996
C30 C 0.8916(6) 0.7911(9) 0.4494(6)
C31 C 0.9522(5) 0.7604(8) 0.3899(6)
C32 C 1.0379(6) 0.6819(9) 0.4221(6)
H45 H 1.0565 0.6372 0.4815
C33 C 1.0986(6) 0.6669(8) 0.3678(6)
H46 H 1.1598 0.6186 0.3921
C34 C 1.0640(6) 0.7262(8) 0.2783(6)
C35 C 0.9778(6) 0.8064(8) 0.2421(6)
H47 H 0.9579 0.8481 0.1814
C36 C 0.9223(6) 0.8221(8) 0.2993(6)
H48 H 0.8636 0.8753 0.2766
O11 O 0.6845(8) 0.6432(12) 0.1748(7)
H1 H 0.7162 0.7007 0.1561
H2 H 0.7031 0.6488 0.2369
loop_
_geom_bond_atom_site_label_1
_geom_bond_atom_site_label_2
_geom_bond_site_symmetry_1
_geom_bond_site_symmetry_2
N1 O1 1_555 1_555
N2 O2 1_555 1_555
N3 C8 1_555 1_555
N4 O4 1_555 1_555
N5 O7 1_555 1_555
N6 O6 1_555 1_555
N7 C26 1_555 1_555
N8 O9 1_555 1_555
O3 C12 1_555 1_555
O5 N4 1_555 1_555
O8 C30 1_555 1_555
O10 N8 1_555 1_555
O11 H1 1_555 1_555
H2 O11 1_555 1_555
C1 H3 1_555 1_555
H4 C1 1_555 1_555
H5 C1 1_555 1_555
C2 N1 1_555 1_555
C3 C2 1_555 1_555
H6 C3 1_555 1_555
H7 C3 1_555 1_555
H8 C3 1_555 1_555
C4 H9 1_555 1_555
H10 C4 1_555 1_555
H11 C4 1_555 1_555
C5 N2 1_555 1_555
C6 C5 1_555 1_555
H12 C6 1_555 1_555
H13 C6 1_555 1_555
H14 C6 1_555 1_555
C7 N1 1_555 1_555
C8 C7 1_555 1_555
H15 C8 1_555 1_555
C9 C8 1_555 1_555
H16 C9 1_555 1_555
H17 C9 1_555 1_555
C10 C9 1_555 1_555
H18 C10 1_555 1_555
H19 C10 1_555 1_555
C11 N3 1_555 1_555
H20 C11 1_555 1_555
H21 C11 1_555 1_555
C12 N3 1_555 1_555
C13 C12 1_555 1_555
C14 C13 1_555 1_555
H22 C14 1_555 1_555
C15 C14 1_555 1_555
H23 C15 1_555 1_555
C16 N4 1_555 1_555
C17 C16 1_555 1_555
H24 C17 1_555 1_555
C18 C13 1_555 1_555
H25 C18 1_555 1_555
C19 H26 1_555 1_555
H27 C19 1_555 1_555
H28 C19 1_555 1_555
C20 N5 1_555 1_555
C21 C20 1_555 1_555
H29 C21 1_555 1_555
H30 C21 1_555 1_555
H31 C21 1_555 1_555
C22 H32 1_555 1_555
H33 C22 1_555 1_555
H34 C22 1_555 1_555
C23 N6 1_555 1_555
C24 C23 1_555 1_555
H35 C24 1_555 1_555
H36 C24 1_555 1_555
H37 C24 1_555 1_555
C25 N5 1_555 1_555
C26 C25 1_555 1_555
H38 C26 1_555 1_555
C27 C26 1_555 1_555
H39 C27 1_555 1_555
H40 C27 1_555 1_555
C28 C27 1_555 1_555
H41 C28 1_555 1_555
H42 C28 1_555 1_555
C29 N7 1_555 1_555
H43 C29 1_555 1_555
H44 C29 1_555 1_555
C30 N7 1_555 1_555
C31 C30 1_555 1_555
C32 C31 1_555 1_555
H45 C32 1_555 1_555
C33 C32 1_555 1_555
H46 C33 1_555 1_555
C34 N8 1_555 1_555
C35 C34 1_555 1_555
H47 C35 1_555 1_555
C36 C31 1_555 1_555
H48 C36 1_555 1_555
N2 C7 1_555 1_555
N6 C25 1_555 1_555
C1 C2 1_555 1_555
C2 C5 1_555 1_555
C4 C5 1_555 1_555
C10 C11 1_555 1_555
C15 C16 1_555 1_555
C17 C18 1_555 1_555
C19 C20 1_555 1_555
C20 C23 1_555 1_555
C22 C23 1_555 1_555
C28 C29 1_555 1_555
C33 C34 1_555 1_555
C35 C36 1_555 1_555

#END
