
#######################################################################
#
#                 Cambridge Crystallographic Data Centre
#                                CCDC 
#
#######################################################################
#
# If this CIF has been generated from an entry in the Cambridge 
# Structural Database, then it will include bibliographic, chemical, 
# crystal, experimental, refinement or atomic coordinate data resulting 
# from the CCDC's data processing and validation procedures.
#
#######################################################################

data_UQAYAN
_chemical_formula_moiety         'C18 H22 N2 O6 S2,C42 H42 N28 O14,8.06(H2 O1)'
_chemical_name_systematic        
"[2]-(3,3'-((E)-Ethene-1,2-diyldipyridinium-4,1-diyl)dipropane-1-sulfonate)-(cucurbit[7]uril)-pseudorotaxane hydrate"
_symmetry_cell_setting           monoclinic
_symmetry_space_group_name_H-M   'P 21/c'
_symmetry_Int_Tables_number      14
_space_group_name_Hall           '-P 2ybc'
loop_
_symmetry_equiv_pos_site_id
_symmetry_equiv_pos_as_xyz
1 x,y,z
2 -x,1/2+y,1/2-z
3 -x,-y,-z
4 x,1/2-y,1/2+z
_cell_length_a                   13.7380(19)
_cell_length_b                   22.251(3)
_cell_length_c                   27.184(4)
_cell_angle_alpha                90
_cell_angle_beta                 98.503(3)
_cell_angle_gamma                90
_cell_volume                     8218.38
_exptl_crystal_colour            colorless
_exptl_crystal_description       plate
_cell_formula_units_Z            4
loop_
_atom_site_label
_atom_site_type_symbol
_atom_site_fract_x
_atom_site_fract_y
_atom_site_fract_z
O1 O 0.1856(4) 0.4476(2) 0.53927(18)
O2 O 0.1549(4) 0.2808(3) 0.50929(19)
O3 O 0.0682(5) 0.1813(3) 0.5954(2)
O4 O -0.0463(4) 0.1967(3) 0.7139(2)
O5 O -0.0724(5) 0.3295(3) 0.7817(2)
O6 O -0.0077(4) 0.4790(2) 0.74598(19)
O7 O 0.1139(4) 0.5352(2) 0.63585(18)
O8 O 0.5904(5) 0.3967(3) 0.6508(2)
O9 O 0.5690(4) 0.2487(3) 0.6277(2)
O10 O 0.4776(4) 0.1405(2) 0.7098(2)
O11 O 0.3662(4) 0.1676(2) 0.83303(18)
O12 O 0.3256(5) 0.3003(3) 0.90904(19)
O13 O 0.3919(5) 0.4383(3) 0.8722(2)
O14 O 0.5156(4) 0.4842(3) 0.7618(2)
N1 N 0.3295(5) 0.4999(3) 0.5661(2)
N2 N 0.3410(4) 0.4091(3) 0.5340(2)
N3 N 0.3208(5) 0.3041(3) 0.5114(2)
N4 N 0.2825(5) 0.2113(3) 0.5270(2)
N5 N 0.2212(6) 0.1460(3) 0.5879(2)
N6 N 0.1559(5) 0.1227(3) 0.6552(2)
N7 N 0.0824(6) 0.1298(4) 0.7295(2)
N8 N 0.0368(5) 0.1799(3) 0.7939(2)
N9 N 0.0084(5) 0.2674(3) 0.8420(2)
N10 N 0.0292(5) 0.3648(3) 0.8500(2)
N11 N 0.0678(5) 0.4663(3) 0.8280(2)
N12 N 0.1367(5) 0.5287(3) 0.7789(2)
N13 N 0.2152(5) 0.5581(3) 0.7086(2)
N14 N 0.2839(5) 0.5483(3) 0.6402(2)
N15 N 0.4789(5) 0.4708(3) 0.6203(2)
N16 N 0.5137(5) 0.3972(3) 0.5697(2)
N17 N 0.4853(5) 0.2910(3) 0.5570(2)
N18 N 0.4428(5) 0.2007(3) 0.5790(2)
N19 N 0.3857(5) 0.1254(3) 0.6324(2)
N20 N 0.3187(5) 0.1037(3) 0.6998(2)
N21 N 0.2489(5) 0.1232(3) 0.7742(2)
N22 N 0.2003(5) 0.1684(3) 0.8393(2)
N23 N 0.1736(5) 0.2568(3) 0.8860(2)
N24 N 0.1817(5) 0.3530(3) 0.9080(2)
N25 N 0.2266(5) 0.4491(3) 0.8775(2)
N26 N 0.2945(5) 0.5121(3) 0.8284(2)
N27 N 0.3749(5) 0.5392(3) 0.7582(2)
N28 N 0.4415(5) 0.5301(3) 0.6901(2)
C1 C 0.2759(6) 0.4521(4) 0.5456(2)
C2 C 0.3079(6) 0.3665(3) 0.4950(3)
H1 H 0.3449 0.3731 0.4668
H2 H 0.2373 0.3737 0.4827
C3 C 0.2419(7) 0.2668(4) 0.5153(2)
C4 C 0.2199(7) 0.1601(4) 0.5352(3)
H3 H 0.2422 0.1244 0.5182
H4 H 0.1515 0.1690 0.5200
C5 C 0.1392(6) 0.1524(4) 0.6107(3)
C6 C 0.0728(7) 0.1048(5) 0.6795(3)
H5 H 0.0108 0.1191 0.6598
H6 H 0.0699 0.0604 0.6813
C7 C 0.0179(7) 0.1716(4) 0.7420(3)
C8 C -0.0315(7) 0.2113(4) 0.8202(3)
H7 H -0.0492 0.1851 0.8470
H8 H -0.0924 0.2199 0.7970
C9 C -0.0183(7) 0.3216(4) 0.8206(3)
C10 C -0.0048(6) 0.4271(4) 0.8444(3)
H9 H -0.0659 0.4286 0.8200
H10 H -0.0206 0.4417 0.8767
C11 C 0.0590(6) 0.4892(3) 0.7798(3)
C12 C 0.1388(6) 0.5699(4) 0.7379(3)
H11 H 0.0745 0.5681 0.7160
H12 H 0.1472 0.6113 0.7513
C13 C 0.1968(6) 0.5464(3) 0.6587(3)
C14 C 0.2858(6) 0.5518(4) 0.5864(2)
H13 H 0.2175 0.5565 0.5692
H14 H 0.3231 0.5881 0.5794
C15 C 0.5342(6) 0.4187(4) 0.6180(3)
C16 C 0.5508(6) 0.3407(4) 0.5552(3)
H15 H 0.5661 0.3444 0.5209
H16 H 0.6132 0.3318 0.5772
C17 C 0.5035(7) 0.2472(4) 0.5916(3)
C18 C 0.4610(7) 0.1418(4) 0.6019(3)
H17 H 0.5263 0.1419 0.6229
H18 H 0.4624 0.1113 0.5755
C19 C 0.4005(7) 0.1254(3) 0.6841(3)
C20 C 0.3185(7) 0.0871(4) 0.7506(3)
H19 H 0.3856 0.0923 0.7692
H20 H 0.3008 0.0441 0.7522
C21 C 0.2791(6) 0.1542(3) 0.8167(3)
C22 C 0.2102(6) 0.1957(3) 0.8885(2)
H21 H 0.1731 0.1716 0.9101
H22 H 0.2804 0.1957 0.9036
C23 C 0.2365(7) 0.3034(4) 0.9016(3)
C24 C 0.2232(7) 0.4110(4) 0.9207(3)
H23 H 0.2908 0.4058 0.9387
H24 H 0.1837 0.4312 0.9435
C25 C 0.3132(7) 0.4636(4) 0.8610(3)
C26 C 0.3732(7) 0.5440(5) 0.8115(3)
H25 H 0.4363 0.5287 0.8294
H26 H 0.3682 0.5870 0.8202
C27 C 0.4507(6) 0.5149(4) 0.7395(3)
C28 C 0.5153(6) 0.5146(4) 0.6591(3)
H27 H 0.5737 0.4978 0.6803
H28 H 0.5360 0.5516 0.6432
C29 C 0.4331(6) 0.4907(3) 0.5713(3)
H29 H 0.4683 0.5256 0.5589
C30 C 0.4405(6) 0.4330(3) 0.5397(3)
H30 H 0.4607 0.4428 0.5067
C31 C 0.4128(6) 0.2724(3) 0.5155(3)
H31 H 0.4404 0.2732 0.4835
C32 C 0.3860(6) 0.2079(3) 0.5294(3)
H32 H 0.4054 0.1777 0.5055
C33 C 0.2911(7) 0.1026(4) 0.6128(3)
H33 H 0.2964 0.0664 0.5914
C34 C 0.2452(8) 0.0863(4) 0.6596(3)
H34 H 0.2300 0.0424 0.6608
C35 C 0.1471(6) 0.1049(4) 0.7710(3)
H35 H 0.1398 0.0603 0.7737
C36 C 0.1130(6) 0.1396(4) 0.8167(3)
H36 H 0.0873 0.1112 0.8402
C37 C 0.0718(6) 0.2723(3) 0.8878(3)
H37 H 0.0452 0.2507 0.9152
C38 C 0.0787(6) 0.3417(4) 0.8972(3)
H38 H 0.0438 0.3538 0.9254
C39 C 0.1473(6) 0.4924(4) 0.8609(3)
H39 H 0.1247 0.5146 0.8891
C40 C 0.1966(6) 0.5343(4) 0.8258(3)
H40 H 0.1971 0.5768 0.8378
C41 C 0.3161(6) 0.5788(3) 0.7236(2)
H41 H 0.3186 0.6213 0.7356
C42 C 0.3624(6) 0.5716(4) 0.6751(2)
H42 H 0.3871 0.6108 0.6638
S1 S -0.24644(16) 0.51209(9) 0.59921(7)
O15 O -0.3410(4) 0.5161(2) 0.56728(19)
O16 O -0.2529(4) 0.5178(2) 0.65209(16)
O17 O -0.1727(4) 0.5527(3) 0.58441(18)
C43 C -0.2031(8) 0.4377(4) 0.5937(3)
H43 H -0.1323 0.4365 0.6076
H44 H -0.2382 0.4109 0.6143
C44 C -0.2154(11) 0.4134(6) 0.5422(5)
H45 H -0.1762 0.4387 0.5224
H46 H -0.2854 0.4180 0.5275
C45 C -0.1859(12) 0.3475(6) 0.5362(6)
H47 H -0.2385 0.3203 0.5441
H48 H -0.1748 0.3397 0.5016
N29 N -0.0928(9) 0.3374(5) 0.5717(5)
C46 C -0.0006(13) 0.3537(7) 0.5598(7)
H49 H 0.0055 0.3695 0.5279
C47 C 0.0763(14) 0.3468(8) 0.5932(7)
H50 H 0.1382 0.3570 0.5839
C48 C 0.0764(16) 0.3268(10) 0.6391(8)
C49 C -0.0194(14) 0.3045(8) 0.6485(7)
H51 H -0.0255 0.2844 0.6787
C50 C -0.0939(15) 0.3125(8) 0.6157(7)
H52 H -0.1557 0.2994 0.6234
C51 C 0.1673(18) 0.3098(12) 0.6795(10)
H53 H 0.1618 0.2856 0.7077
C52 C 0.2457(16) 0.3310(11) 0.6708(9)
H54 H 0.2465 0.3592 0.6447
N30 N 0.5194(11) 0.2894(9) 0.7628(6)
C53 C 0.5113(12) 0.3371(8) 0.7295(7)
H55 H 0.5665 0.3622 0.7274
C54 C 0.4224(15) 0.3482(8) 0.6993(6)
H56 H 0.4168 0.3809 0.6765
C55 C 0.3416(11) 0.3116(10) 0.7024(7)
C56 C 0.3497(12) 0.2638(9) 0.7357(8)
H57 H 0.2944 0.2388 0.7378
C57 C 0.4386(15) 0.2527(8) 0.7659(7)
H58 H 0.4441 0.2201 0.7887
C58 C 0.6185(17) 0.2711(13) 0.7895(7)
H59 H 0.6713 0.2925 0.7754
H60 H 0.6283 0.2273 0.7860
C59 C 0.6207(13) 0.2876(11) 0.8436(6)
H61 H 0.5872 0.3268 0.8453
H62 H 0.5822 0.2573 0.8592
C60 C 0.7219(10) 0.2918(6) 0.8738(6)
H63 H 0.7206 0.3213 0.9010
H64 H 0.7691 0.3064 0.8523
S2 S 0.7618(3) 0.22184(18) 0.89944(15)
O18 O 0.6863(6) 0.2064(4) 0.9368(3)
O19 O 0.8631(7) 0.2308(5) 0.9283(4)
O20 O 0.7646(8) 0.1782(4) 0.8608(4)
O21 O 0.7020(12) 0.4404(8) 0.8017(6)
O22 O 0.9497(12) 0.5352(7) 0.9220(6)
O23 O 0.5053(5) 0.1466(3) 0.9209(2)
O24 O -0.2014(5) 0.4285(3) 0.7244(2)
O25 O 0.7423(6) 0.3129(3) 0.6905(3)
O26 O -0.0007(5) 0.5459(5) 0.5399(3)
O27 O 0.6094(8) 0.2974(7) 0.9979(4)
O28 O 0.5957(10) 0.4781(7) 0.8664(6)
O29 O -0.2462(10) 0.1876(5) 0.6689(6)
O30 O 0.5009(16) 0.3975(12) 0.9594(9)
O31 O 0.703(2) 0.4465(11) 1.0534(9)
O32 O 0.610(2) 0.5273(13) 0.9859(8)
O33 O 0.9449(15) 0.2963(10) 1.0031(8)
C61? C 0.3939(18) 0.3602(13) 0.7541(10)
C62? C 0.663(2) 0.3562(11) 0.8024(9)
C63? C 0.575(2) 0.3629(12) 0.7744(10)
C64? C 0.4919(16) 0.3478(10) 0.7885(8)
C65? C 0.491(2) 0.3295(13) 0.8353(12)
C66? C 0.5804(18) 0.3182(11) 0.8660(9)
C67? C 0.760(2) 0.3184(11) 0.8766(15)
C68? C 0.8192(16) 0.3723(13) 0.8931(12)
C69? C 0.7726(19) 0.4260(11) 0.9138(10)
C70? C -0.0901(12) 0.4335(8) 0.6199(8)
C71? C -0.0461(15) 0.3715(9) 0.6191(9)
C72? C 0.123(2) 0.3853(13) 0.6371(11)
C73? C 0.223(2) 0.3868(13) 0.6752(10)
C74? C 0.228(2) 0.3579(13) 0.7217(11)
C75? C 0.136(2) 0.3331(13) 0.7286(11)
C76? C 0.0485(19) 0.3401(10) 0.6954(9)
C77? C 0.316(2) 0.3344(17) 0.7601(14)
H65? H 0.3930 0.3882 0.7277
H66? H 0.7229 0.3657 0.7905
H67? H 0.5732 0.3797 0.7422
H68? H 0.4307 0.3242 0.8476
H69? H 0.5819 0.2994 0.8975
H70? H 0.7950 0.2940 0.8544
H71? H 0.7518 0.2935 0.9059
H72? H 0.8495 0.3865 0.8643
H73? H 0.8737 0.3589 0.9187
H74? H 0.7148 0.4124 0.9286
H75? H 0.7486 0.4537 0.8861
H76? H -0.0502 0.4616 0.6028
H77? H -0.0859 0.4468 0.6548
H78? H -0.0928 0.3418 0.6293
H79? H -0.0353 0.3617 0.5848
H80? H 0.1204 0.3979 0.6035
H81? H 0.2796 0.4069 0.6667
H82? H 0.1340 0.3099 0.7577
H83? H -0.0115 0.3251 0.7040
H84? H 0.3114 0.3046 0.7846
N31? N 0.0492(13) 0.3672(8) 0.6531(7)
N32? N 0.6612(13) 0.3344(8) 0.8499(7)
O34? O 0.524(3) 0.3570(19) 0.9360(15)
O35? O 0.726(3) 0.3498(16) 1.0788(12)
O36? O 0.7332(19) 0.2289(10) 0.7781(10)
O37? O 0.938(2) 0.4253(14) 0.9779(13)
O38? O 0.9005(15) 0.5136(8) 0.9273(7)
O39? O 0.795(2) 0.4777(15) 1.0020(9)
S3? S 0.8534(11) 0.4665(7) 0.9599(6)
loop_
_geom_bond_atom_site_label_1
_geom_bond_atom_site_label_2
_geom_bond_site_symmetry_1
_geom_bond_site_symmetry_2
O1 C1 1_555 1_555
O2 C3 1_555 1_555
O3 C5 1_555 1_555
O4 C7 1_555 1_555
O5 C9 1_555 1_555
O6 C11 1_555 1_555
O7 C13 1_555 1_555
O8 C15 1_555 1_555
O9 C17 1_555 1_555
O10 C19 1_555 1_555
O11 C21 1_555 1_555
O12 C23 1_555 1_555
O13 C25 1_555 1_555
O14 C27 1_555 1_555
N1 C1 1_555 1_555
N2 C1 1_555 1_555
N3 C2 1_555 1_555
N4 C3 1_555 1_555
N5 C4 1_555 1_555
N6 C5 1_555 1_555
N7 C6 1_555 1_555
N8 C7 1_555 1_555
N9 C8 1_555 1_555
N10 C9 1_555 1_555
N11 C10 1_555 1_555
N12 C11 1_555 1_555
N13 C12 1_555 1_555
N14 C13 1_555 1_555
N15 C15 1_555 1_555
N16 C15 1_555 1_555
N17 C16 1_555 1_555
N18 C17 1_555 1_555
N19 C18 1_555 1_555
N20 C19 1_555 1_555
N21 C20 1_555 1_555
N22 C21 1_555 1_555
N23 C22 1_555 1_555
N24 C23 1_555 1_555
N25 C24 1_555 1_555
N26 C25 1_555 1_555
N27 C26 1_555 1_555
N28 C27 1_555 1_555
C2 N2 1_555 1_555
H1 C2 1_555 1_555
H2 C2 1_555 1_555
C3 N3 1_555 1_555
C4 N4 1_555 1_555
H3 C4 1_555 1_555
H4 C4 1_555 1_555
C5 N5 1_555 1_555
C6 N6 1_555 1_555
H5 C6 1_555 1_555
H6 C6 1_555 1_555
C7 N7 1_555 1_555
C8 N8 1_555 1_555
H7 C8 1_555 1_555
H8 C8 1_555 1_555
C9 N9 1_555 1_555
C10 N10 1_555 1_555
H9 C10 1_555 1_555
H10 C10 1_555 1_555
C11 N11 1_555 1_555
C12 N12 1_555 1_555
H11 C12 1_555 1_555
H12 C12 1_555 1_555
C13 N13 1_555 1_555
C14 N1 1_555 1_555
H13 C14 1_555 1_555
H14 C14 1_555 1_555
C16 N16 1_555 1_555
H15 C16 1_555 1_555
H16 C16 1_555 1_555
C17 N17 1_555 1_555
C18 N18 1_555 1_555
H17 C18 1_555 1_555
H18 C18 1_555 1_555
C19 N19 1_555 1_555
C20 N20 1_555 1_555
H19 C20 1_555 1_555
H20 C20 1_555 1_555
C21 N21 1_555 1_555
C22 N22 1_555 1_555
H21 C22 1_555 1_555
H22 C22 1_555 1_555
C23 N23 1_555 1_555
C24 N24 1_555 1_555
H23 C24 1_555 1_555
H24 C24 1_555 1_555
C25 N25 1_555 1_555
C26 N26 1_555 1_555
H25 C26 1_555 1_555
H26 C26 1_555 1_555
C27 N27 1_555 1_555
C28 N15 1_555 1_555
H27 C28 1_555 1_555
H28 C28 1_555 1_555
C29 N1 1_555 1_555
H29 C29 1_555 1_555
C30 N2 1_555 1_555
H30 C30 1_555 1_555
C31 N3 1_555 1_555
H31 C31 1_555 1_555
C32 N4 1_555 1_555
H32 C32 1_555 1_555
C33 N5 1_555 1_555
H33 C33 1_555 1_555
C34 N6 1_555 1_555
H34 C34 1_555 1_555
C35 N7 1_555 1_555
H35 C35 1_555 1_555
C36 N8 1_555 1_555
H36 C36 1_555 1_555
C37 N9 1_555 1_555
H37 C37 1_555 1_555
C38 N10 1_555 1_555
H38 C38 1_555 1_555
C39 N11 1_555 1_555
H39 C39 1_555 1_555
C40 N12 1_555 1_555
H40 C40 1_555 1_555
C41 N13 1_555 1_555
H41 C41 1_555 1_555
C42 N14 1_555 1_555
H42 C42 1_555 1_555
S1 O15 1_555 1_555
O16 S1 1_555 1_555
O17 S1 1_555 1_555
C43 S1 1_555 1_555
H43 C43 1_555 1_555
H44 C43 1_555 1_555
C44 C43 1_555 1_555
H45 C44 1_555 1_555
H46 C44 1_555 1_555
C45 C44 1_555 1_555
H47 C45 1_555 1_555
H48 C45 1_555 1_555
N29 C45 1_555 1_555
C46 N29 1_555 1_555
H49 C46 1_555 1_555
C47 C46 1_555 1_555
H50 C47 1_555 1_555
C48 C47 1_555 1_555
C49 C48 1_555 1_555
H51 C49 1_555 1_555
C50 N29 1_555 1_555
H52 C50 1_555 1_555
C51 C48 1_555 1_555
H53 C51 1_555 1_555
C52 C51 1_555 1_555
H54 C52 1_555 1_555
N30 C53 1_555 1_555
C53 H55 1_555 1_555
C54 C53 1_555 1_555
H56 C54 1_555 1_555
C55 C52 1_555 1_555
C56 C55 1_555 1_555
H57 C56 1_555 1_555
C57 N30 1_555 1_555
H58 C57 1_555 1_555
C58 N30 1_555 1_555
H59 C58 1_555 1_555
H60 C58 1_555 1_555
C59 C58 1_555 1_555
H61 C59 1_555 1_555
H62 C59 1_555 1_555
C60 C59 1_555 1_555
H63 C60 1_555 1_555
H64 C60 1_555 1_555
S2 C60 1_555 1_555
O18 S2 1_555 1_555
O19 S2 1_555 1_555
O20 S2 1_555 1_555
N14 C14 1_555 1_555
N15 C29 1_555 1_555
N16 C30 1_555 1_555
N17 C31 1_555 1_555
N18 C32 1_555 1_555
N19 C33 1_555 1_555
N20 C34 1_555 1_555
N21 C35 1_555 1_555
N22 C36 1_555 1_555
N23 C37 1_555 1_555
N24 C38 1_555 1_555
N25 C39 1_555 1_555
N26 C40 1_555 1_555
N27 C41 1_555 1_555
N28 C28 1_555 1_555
N28 C42 1_555 1_555
C29 C30 1_555 1_555
C31 C32 1_555 1_555
C33 C34 1_555 1_555
C35 C36 1_555 1_555
C37 C38 1_555 1_555
C39 C40 1_555 1_555
C41 C42 1_555 1_555
C49 C50 1_555 1_555
C54 C55 1_555 1_555
C56 C57 1_555 1_555

#END
