
#######################################################################
#
#                 Cambridge Crystallographic Data Centre
#                                CCDC 
#
#######################################################################
#
# If this CIF has been generated from an entry in the Cambridge 
# Structural Database, then it will include bibliographic, chemical, 
# crystal, experimental, refinement or atomic coordinate data resulting 
# from the CCDC's data processing and validation procedures.
#
#######################################################################

data_UQECID
_chemical_name_common            '15alpha-Hydroxyoleanolic acid monohydrate'
_chemical_formula_moiety         'C30 H48 O4,H2 O1'
_chemical_name_systematic        
'3,15-Dihydroxyolean-12-en-28-oic acid monohydrate'
_symmetry_cell_setting           rhombohedral
_symmetry_space_group_name_H-M   'R 3'
_symmetry_Int_Tables_number      146
_space_group_name_Hall           'R 3'
loop_
_symmetry_equiv_pos_site_id
_symmetry_equiv_pos_as_xyz
1 x,y,z
2 -y,x-y,z
3 -x+y,-x,z
4 2/3+x,1/3+y,1/3+z
5 2/3-y,1/3+x-y,1/3+z
6 2/3-x+y,1/3-x,1/3+z
7 1/3+x,2/3+y,2/3+z
8 1/3-y,2/3+x-y,2/3+z
9 1/3-x+y,2/3-x,2/3+z
_cell_length_a                   34.255(5)
_cell_length_b                   34.255(5)
_cell_length_c                   6.8671(14)
_cell_angle_alpha                90
_cell_angle_beta                 90
_cell_angle_gamma                120
_cell_volume                     6978.34
_exptl_crystal_colour            colorless
_exptl_crystal_description       prism
_cell_formula_units_Z            9
loop_
_atom_site_label
_atom_site_type_symbol
_atom_site_fract_x
_atom_site_fract_y
_atom_site_fract_z
O1 O 0.64276(6) 0.64145(7) 0.5541(4)
H1 H 0.6526 0.6569 0.6560
O2 O 0.35012(7) 0.43524(7) 0.7440(3)
H2 H 0.3339 0.4355 0.8372
O3 O 0.29873(9) 0.43625(10) 0.0392(4)
O4 O 0.27534(10) 0.37948(10) 0.2520(5)
H3 H 0.2872 0.3696 0.1735
C1 C 0.53068(10) 0.62096(10) 0.3695(6)
H4 H 0.5233 0.6335 0.2545
H5 H 0.5210 0.6306 0.4870
C2 C 0.58117(10) 0.64029(10) 0.3776(5)
H6 H 0.5916 0.6333 0.2549
H7 H 0.5963 0.6735 0.3910
C3 C 0.59385(9) 0.62085(10) 0.5474(5)
H8 H 0.5840 0.6294 0.6696
C4 C 0.57139(10) 0.56950(10) 0.5423(5)
C5 C 0.52009(10) 0.55083(9) 0.5264(5)
H9 H 0.5123 0.5619 0.6469
C6 C 0.49040(9) 0.49928(10) 0.5363(5)
H10 H 0.5020 0.4876 0.6397
H11 H 0.4924 0.4861 0.4109
C7 C 0.44078(10) 0.48433(10) 0.5788(5)
H12 H 0.4385 0.4948 0.7106
H13 H 0.4229 0.4510 0.5783
C8 C 0.42031(9) 0.50278(10) 0.4298(5)
C9 C 0.45280(9) 0.55380(10) 0.3973(5)
H14 H 0.4529 0.5682 0.5240
C10 C 0.50402(10) 0.56930(10) 0.3573(5)
C11 C 0.43381(10) 0.57383(11) 0.2480(6)
H15 H 0.4450 0.6058 0.2814
H16 H 0.4456 0.5730 0.1173
C12 C 0.38351(10) 0.54978(11) 0.2391(6)
H17 H 0.3705 0.5604 0.1459
C13 C 0.35494(10) 0.51475(10) 0.3495(5)
C14 C 0.37396(10) 0.49746(10) 0.5090(5)
C15 C 0.33962(10) 0.44750(10) 0.5575(5)
H18 H 0.3432 0.4285 0.4563
C16 C 0.29034(10) 0.43528(10) 0.5564(5)
H19 H 0.2710 0.4027 0.5842
H20 H 0.2852 0.4523 0.6601
C17 C 0.27737(10) 0.44610(10) 0.3607(5)
C18 C 0.30453(9) 0.49696(10) 0.3220(5)
H21 H 0.2998 0.5018 0.1825
C19 C 0.28846(10) 0.52358(11) 0.4465(6)
H22 H 0.3063 0.5559 0.4112
H23 H 0.2944 0.5207 0.5853
C20 C 0.23791(11) 0.50754(12) 0.4208(6)
C21 C 0.21132(11) 0.45691(11) 0.4693(6)
H24 H 0.2155 0.4528 0.6089
H25 H 0.1788 0.4456 0.4476
C22 C 0.22563(10) 0.42900(11) 0.3480(6)
H26 H 0.2175 0.4297 0.2103
H27 H 0.2087 0.3973 0.3927
C23 C 0.59144(10) 0.55430(10) 0.3775(6)
H28 H 0.6220 0.5614 0.4133
H29 H 0.5926 0.5702 0.2570
H30 H 0.5725 0.5217 0.3576
C24 C 0.58252(10) 0.55372(11) 0.7336(5)
H31 H 0.6153 0.5697 0.7526
H32 H 0.5711 0.5212 0.7272
H33 H 0.5682 0.5602 0.8428
C25 C 0.51173(11) 0.55553(11) 0.1536(5)
H34 H 0.4880 0.5526 0.0651
H35 H 0.5110 0.5266 0.1622
H36 H 0.5412 0.5786 0.1040
C26 C 0.41165(10) 0.47527(10) 0.2395(5)
H37 H 0.4024 0.4887 0.1363
H38 H 0.3878 0.4441 0.2617
H39 H 0.4394 0.4757 0.2003
C27 C 0.38061(10) 0.52561(10) 0.6955(5)
H40 H 0.3962 0.5577 0.6622
H41 H 0.3987 0.5199 0.7898
H42 H 0.3512 0.5170 0.7525
C28 C 0.28562(11) 0.42078(13) 0.2001(6)
C29 C 0.22715(12) 0.51642(13) 0.2147(7)
H43 H 0.1950 0.5067 0.2055
H44 H 0.2345 0.4996 0.1207
H45 H 0.2450 0.5487 0.1861
C30 C 0.22495(12) 0.53301(13) 0.5689(7)
H46 H 0.2414 0.5653 0.5386
H47 H 0.2328 0.5282 0.7005
H48 H 0.1924 0.5217 0.5616
O5 O 0.35720(8) 0.36120(8) 0.7456(4)
H49 H 0.3600(11) 0.3871(6) 0.736(5)
H50 H 0.3391(11) 0.3441(9) 0.834(5)
loop_
_geom_bond_atom_site_label_1
_geom_bond_atom_site_label_2
_geom_bond_site_symmetry_1
_geom_bond_site_symmetry_2
O1 H1 1_555 1_555
O2 H2 1_555 1_555
O3 C28 1_555 1_555
O4 H3 1_555 1_555
C1 H4 1_555 1_555
H5 C1 1_555 1_555
C2 C1 1_555 1_555
H6 C2 1_555 1_555
H7 C2 1_555 1_555
C3 O1 1_555 1_555
H8 C3 1_555 1_555
C4 C3 1_555 1_555
C5 C4 1_555 1_555
H9 C5 1_555 1_555
C6 C5 1_555 1_555
H10 C6 1_555 1_555
H11 C6 1_555 1_555
C7 C6 1_555 1_555
H12 C7 1_555 1_555
H13 C7 1_555 1_555
C8 C7 1_555 1_555
C9 C8 1_555 1_555
H14 C9 1_555 1_555
C10 C1 1_555 1_555
C11 C9 1_555 1_555
H15 C11 1_555 1_555
H16 C11 1_555 1_555
C12 C11 1_555 1_555
H17 C12 1_555 1_555
C13 C12 1_555 1_555
C14 C8 1_555 1_555
C15 O2 1_555 1_555
H18 C15 1_555 1_555
C16 C15 1_555 1_555
H19 C16 1_555 1_555
H20 C16 1_555 1_555
C17 C16 1_555 1_555
C18 C13 1_555 1_555
H21 C18 1_555 1_555
C19 C18 1_555 1_555
H22 C19 1_555 1_555
H23 C19 1_555 1_555
C20 C19 1_555 1_555
C21 C20 1_555 1_555
H24 C21 1_555 1_555
H25 C21 1_555 1_555
C22 C17 1_555 1_555
H26 C22 1_555 1_555
H27 C22 1_555 1_555
C23 C4 1_555 1_555
H28 C23 1_555 1_555
H29 C23 1_555 1_555
H30 C23 1_555 1_555
C24 C4 1_555 1_555
H31 C24 1_555 1_555
H32 C24 1_555 1_555
H33 C24 1_555 1_555
C25 C10 1_555 1_555
H34 C25 1_555 1_555
H35 C25 1_555 1_555
H36 C25 1_555 1_555
C26 C8 1_555 1_555
H37 C26 1_555 1_555
H38 C26 1_555 1_555
H39 C26 1_555 1_555
C27 C14 1_555 1_555
H40 C27 1_555 1_555
H41 C27 1_555 1_555
H42 C27 1_555 1_555
C28 O4 1_555 1_555
C29 C20 1_555 1_555
H43 C29 1_555 1_555
H44 C29 1_555 1_555
H45 C29 1_555 1_555
C30 C20 1_555 1_555
H46 C30 1_555 1_555
H47 C30 1_555 1_555
H48 C30 1_555 1_555
O5 H49 1_555 1_555
H50 O5 1_555 1_555
C2 C3 1_555 1_555
C5 C10 1_555 1_555
C9 C10 1_555 1_555
C13 C14 1_555 1_555
C14 C15 1_555 1_555
C17 C18 1_555 1_555
C17 C28 1_555 1_555
C21 C22 1_555 1_555

#END
