
#######################################################################
#
#                 Cambridge Crystallographic Data Centre
#                                CCDC 
#
#######################################################################
#
# If this CIF has been generated from an entry in the Cambridge 
# Structural Database, then it will include bibliographic, chemical, 
# crystal, experimental, refinement or atomic coordinate data resulting 
# from the CCDC's data processing and validation procedures.
#
#######################################################################

data_UQEDAW
_chemical_formula_moiety         'C26 H16 Cl2 N4 O2,2(C1 H4 O1)'
_chemical_name_systematic        
"2,2'-(3,5-bis(pyridin-2-yl)pyrazine-2,6-diyl)bis(4-chlorophenol) methanol solvate"
_symmetry_cell_setting           monoclinic
_symmetry_space_group_name_H-M   'P 21/c'
_symmetry_Int_Tables_number      14
_space_group_name_Hall           '-P 2ybc'
loop_
_symmetry_equiv_pos_site_id
_symmetry_equiv_pos_as_xyz
1 x,y,z
2 -x,1/2+y,1/2-z
3 -x,-y,-z
4 x,1/2-y,1/2+z
_cell_length_a                   8.9433(12)
_cell_length_b                   32.003(4)
_cell_length_c                   10.5209(18)
_cell_angle_alpha                90
_cell_angle_beta                 111.199(2)
_cell_angle_gamma                90
_cell_volume                     2807.44
_exptl_crystal_colour            yellow
_exptl_crystal_description       block
_cell_formula_units_Z            4
loop_
_atom_site_label
_atom_site_type_symbol
_atom_site_fract_x
_atom_site_fract_y
_atom_site_fract_z
Cl1 Cl 0.96846(16) 0.36939(6) 1.10162(17)
Cl2 Cl 0.4477(2) 0.15737(4) 0.6942(2)
N1 N 0.3662(4) 0.32078(9) 0.8112(3)
N2 N 0.0791(4) 0.36339(9) 0.7347(3)
N3 N 0.0884(5) 0.44984(11) 0.6997(4)
N4 N -0.0851(4) 0.26887(9) 0.5851(3)
O1 O 0.4139(4) 0.42159(11) 0.6302(4)
H1 H 0.4436 0.4315 0.5714
O2 O 0.0868(4) 0.26117(8) 0.9402(3)
H2 H 0.0456 0.2473 0.9843
C1 C 0.3630(4) 0.36282(11) 0.8065(4)
C2 C 0.2185(5) 0.38421(11) 0.7785(4)
C3 C 0.0818(4) 0.32181(11) 0.7293(4)
C4 C 0.2280(4) 0.30002(11) 0.7789(4)
C5 C 0.5220(5) 0.38297(12) 0.8333(4)
C6 C 0.5431(6) 0.41188(13) 0.7414(5)
C7 C 0.6948(7) 0.42865(15) 0.7675(6)
H5 H 0.7097 0.4484 0.7083
C8 C 0.8232(6) 0.41622(15) 0.8803(6)
H6 H 0.9240 0.4278 0.8972
C9 C 0.8033(5) 0.38731(15) 0.9666(5)
C10 C 0.6533(5) 0.37072(13) 0.9440(5)
H7 H 0.6408 0.3510 1.0043
C11 C 0.2406(4) 0.25420(11) 0.8029(4)
C12 C 0.1706(4) 0.23593(11) 0.8885(4)
C13 C 0.1946(5) 0.19347(12) 0.9180(4)
H8 H 0.1509 0.1812 0.9769
C14 C 0.2820(5) 0.16929(13) 0.8613(5)
H9 H 0.2978 0.1410 0.8816
C15 C 0.3454(5) 0.18786(13) 0.7742(5)
C16 C 0.3278(5) 0.22965(12) 0.7466(4)
H10 H 0.3747 0.2417 0.6896
C17 C 0.2068(5) 0.43008(12) 0.7983(5)
C18 C 0.3029(6) 0.44967(14) 0.9150(5)
H11 H 0.3816 0.4349 0.9828
C19 C 0.2804(8) 0.49189(17) 0.9300(7)
H12 H 0.3452 0.5060 1.0075
C20 C 0.1628(9) 0.51247(17) 0.8302(7)
H13 H 0.1450 0.5408 0.8389
C21 C 0.0708(8) 0.49078(15) 0.7164(6)
H14 H -0.0078 0.5052 0.6475
C22 C -0.0763(4) 0.30057(11) 0.6702(4)
C23 C -0.2065(5) 0.31373(13) 0.7005(4)
H15 H -0.1982 0.3367 0.7567
C24 C -0.3490(5) 0.29217(14) 0.6461(5)
H16 H -0.4380 0.3000 0.6663
C25 C -0.3572(5) 0.25865(15) 0.5607(5)
H17 H -0.4513 0.2433 0.5235
C26 C -0.2256(5) 0.24867(14) 0.5324(4)
H18 H -0.2329 0.2265 0.4732
O3 O 0.5299(8) 0.4429(2) 0.4413(6)
H3 H 0.6260 0.4467 0.4590
C27 C 0.4462(13) 0.4591(3) 0.3178(8)
H19 H 0.3432 0.4683 0.3157
H20 H 0.4320 0.4382 0.2491
H21 H 0.5037 0.4824 0.3004
O4 O 0.8348(7) 0.42370(19) 0.4662(5)
H4 H 0.9181 0.4294 0.5295
C28 C 0.8574(11) 0.3895(3) 0.4014(8)
H22 H 0.9694 0.3866 0.4167
H23 H 0.7977 0.3921 0.3055
H24 H 0.8211 0.3653 0.4359
loop_
_geom_bond_atom_site_label_1
_geom_bond_atom_site_label_2
_geom_bond_site_symmetry_1
_geom_bond_site_symmetry_2
Cl1 C9 1_555 1_555
Cl2 C15 1_555 1_555
N1 C1 1_555 1_555
N2 C2 1_555 1_555
N3 C17 1_555 1_555
N4 C22 1_555 1_555
O1 H1 1_555 1_555
O2 H2 1_555 1_555
O3 H3 1_555 1_555
O4 H4 1_555 1_555
C1 C2 1_555 1_555
C2 C17 1_555 1_555
C3 N2 1_555 1_555
C4 N1 1_555 1_555
C5 C1 1_555 1_555
C6 O1 1_555 1_555
C7 C6 1_555 1_555
H5 C7 1_555 1_555
C8 C7 1_555 1_555
H6 C8 1_555 1_555
C9 C8 1_555 1_555
C10 C5 1_555 1_555
H7 C10 1_555 1_555
C11 C4 1_555 1_555
C12 O2 1_555 1_555
C13 C12 1_555 1_555
H8 C13 1_555 1_555
C14 C13 1_555 1_555
H9 C14 1_555 1_555
C15 C14 1_555 1_555
C16 C11 1_555 1_555
H10 C16 1_555 1_555
C17 C18 1_555 1_555
C18 H11 1_555 1_555
C19 C18 1_555 1_555
H12 C19 1_555 1_555
C20 C19 1_555 1_555
H13 C20 1_555 1_555
C21 N3 1_555 1_555
H14 C21 1_555 1_555
C22 C3 1_555 1_555
C23 C22 1_555 1_555
H15 C23 1_555 1_555
C24 C23 1_555 1_555
H16 C24 1_555 1_555
C25 C24 1_555 1_555
H17 C25 1_555 1_555
C26 N4 1_555 1_555
H18 C26 1_555 1_555
C27 O3 1_555 1_555
H19 C27 1_555 1_555
H20 C27 1_555 1_555
H21 C27 1_555 1_555
C28 O4 1_555 1_555
H22 C28 1_555 1_555
H23 C28 1_555 1_555
H24 C28 1_555 1_555
C3 C4 1_555 1_555
C5 C6 1_555 1_555
C9 C10 1_555 1_555
C11 C12 1_555 1_555
C15 C16 1_555 1_555
C20 C21 1_555 1_555
C25 C26 1_555 1_555

#END
