
#######################################################################
#
#                 Cambridge Crystallographic Data Centre
#                                CCDC 
#
#######################################################################
#
# If this CIF has been generated from an entry in the Cambridge 
# Structural Database, then it will include bibliographic, chemical, 
# crystal, experimental, refinement or atomic coordinate data resulting 
# from the CCDC's data processing and validation procedures.
#
#######################################################################

data_UQEGUU
_chemical_formula_moiety         'C102 H113 B1 N6 O7,C1 H1 Cl3,2.5(C1 H4 O1)'
_chemical_name_systematic        
'(6,7,15,16,24,25-hexakis(2,6-di-isopropylphenoxy)-2,11,20,28,29,30-hexa-azaheptacyclo[19.6.1.1^3,10^.1^12,19^.0^4,9^.0^13,18^.0^22,27^]triaconta-1(28),2,4,6,8,10,12,14,16,18,20,22,24,26-tetradecaene)-phenoxy-boron chloroform methanol solvate'
_symmetry_cell_setting           triclinic
_symmetry_space_group_name_H-M   'P -1'
_symmetry_Int_Tables_number      2
_space_group_name_Hall           '-P 1'
loop_
_symmetry_equiv_pos_site_id
_symmetry_equiv_pos_as_xyz
1 x,y,z
2 -x,-y,-z
_cell_length_a                   17.5262(7)
_cell_length_b                   19.0223(11)
_cell_length_c                   19.7947(12)
_cell_angle_alpha                102.203(5)
_cell_angle_beta                 102.828(4)
_cell_angle_gamma                110.853(5)
_cell_volume                     5699.53
_exptl_crystal_colour            red
_exptl_crystal_description       block
_cell_formula_units_Z            2
loop_
_atom_site_label
_atom_site_type_symbol
_atom_site_fract_x
_atom_site_fract_y
_atom_site_fract_z
B1 B 0.4582(2) 0.2339(2) 0.0963(2)
C1 C 0.55387(19) 0.20933(17) 0.19487(17)
C2 C 0.54224(11) 0.15227(10) 0.23396(11)
C3 C 0.59869(9) 0.14217(11) 0.28856(11)
H1 H 0.6578 0.1734 0.3031
C4 C 0.56686(11) 0.08542(12) 0.32150(10)
C5 C 0.47858(12) 0.03877(11) 0.29984(11)
C6 C 0.42214(9) 0.04887(10) 0.24524(11)
H2 H 0.3631 0.0177 0.2307
C7 C 0.45397(10) 0.10562(11) 0.21230(10)
C8 C 0.4110(2) 0.13217(17) 0.15952(16)
C9 C 0.31307(19) 0.17836(18) 0.11470(16)
C10 C 0.24671(12) 0.20523(10) 0.11646(12)
C11 C 0.16863(12) 0.17174(9) 0.12881(13)
H3 H 0.1484 0.1201 0.1306
C12 C 0.12075(11) 0.21544(12) 0.13843(13)
C13 C 0.15095(12) 0.29263(11) 0.13570(13)
C14 C 0.22903(13) 0.32612(9) 0.12335(13)
H4 H 0.2492 0.3778 0.1215
C15 C 0.27691(10) 0.28243(11) 0.11373(13)
C16 C 0.36137(19) 0.30345(18) 0.10743(17)
C17 C 0.5060(2) 0.38155(18) 0.14126(16)
C18 C 0.58586(9) 0.44908(10) 0.18357(11)
C19 C 0.60889(11) 0.53024(11) 0.20213(12)
H5 H 0.5690 0.5489 0.1839
C20 C 0.69159(12) 0.58350(8) 0.24794(12)
C21 C 0.75127(10) 0.55560(10) 0.27519(11)
C22 C 0.72824(11) 0.47444(11) 0.25662(11)
H6 H 0.7682 0.4558 0.2749
C23 C 0.64554(12) 0.42118(8) 0.21082(11)
C24 C 0.60244(19) 0.33510(17) 0.18593(17)
C25 C 0.70159(14) 0.11743(15) 0.40632(15)
C26 C 0.7610(2) 0.09252(17) 0.38567(16)
C27 C 0.84887(17) 0.1378(2) 0.4217(2)
H7 H 0.8886 0.1211 0.4079
C28 C 0.87743(15) 0.2079(2) 0.4784(2)
H8 H 0.9363 0.2382 0.5025
C29 C 0.8181(2) 0.23283(16) 0.49901(17)
H9 H 0.8372 0.2798 0.5369
C30 C 0.7301(2) 0.18758(17) 0.46300(16)
C31 C 0.7509(8) -0.0456(5) 0.3545(6)
H10 H 0.8024 -0.0460 0.3455
H11 H 0.7043 -0.0975 0.3308
H12 H 0.7606 -0.0311 0.4062
C32 C 0.7283(3) 0.0133(3) 0.3251(3)
H13 H 0.6652 -0.0081 0.3058
C33 C 0.7608(10) 0.0181(6) 0.2644(6)
H14 H 0.8082 0.0033 0.2706
H15 H 0.7802 0.0715 0.2626
H16 H 0.7157 -0.0172 0.2196
C34 C 0.6659(4) 0.2144(3) 0.4875(3)
H17 H 0.6081 0.1760 0.4549
C35 C 0.6679(7) 0.2157(5) 0.5639(4)
H18 H 0.6873 0.1772 0.5760
H19 H 0.6110 0.2031 0.5672
H20 H 0.7068 0.2676 0.5974
C36 C 0.6777(6) 0.2961(4) 0.4792(5)
H21 H 0.7069 0.3361 0.5263
H22 H 0.6222 0.2951 0.4587
H23 H 0.7114 0.3078 0.4475
C37 C 0.36973(15) -0.04861(16) 0.32978(17)
C38 C 0.3396(2) -0.01298(17) 0.38004(18)
C39 C 0.2531(3) -0.0479(2) 0.3749(3)
H24 H 0.2330 -0.0240 0.4085
C40 C 0.19688(17) -0.1184(2) 0.3194(3)
H25 H 0.1391 -0.1418 0.3160
C41 C 0.22703(18) -0.15406(18) 0.2692(2)
H26 H 0.1894 -0.2013 0.2321
C42 C 0.3135(2) -0.11915(16) 0.27434(16)
C43 C 0.2976(8) -0.1843(6) 0.1406(4)
H27 H 0.2372 -0.2151 0.1308
H28 H 0.3197 -0.2151 0.1125
H29 H 0.3057 -0.1371 0.1274
C44 C 0.3474(4) -0.1609(3) 0.2247(3)
H30 H 0.4062 -0.1227 0.2329
C45 C 0.3561(5) -0.2307(4) 0.2440(4)
H31 H 0.3913 -0.2135 0.2941
H32 H 0.3826 -0.2527 0.2131
H33 H 0.3000 -0.2703 0.2369
C46 C 0.4153(8) 0.0626(6) 0.5208(5)
H34 H 0.4070 0.1061 0.5476
H35 H 0.4721 0.0674 0.5438
H36 H 0.3729 0.0135 0.5202
C47 C 0.4056(6) 0.0639(3) 0.4419(4)
H37 H 0.4616 0.0702 0.4364
C48 C 0.3967(9) 0.1363(5) 0.4322(5)
H38 H 0.3428 0.1345 0.4371
H39 H 0.3981 0.1386 0.3845
H40 H 0.4434 0.1824 0.4687
C49 C -0.00362(17) 0.11032(13) 0.13442(18)
C50 C 0.0045(2) 0.0704(2) 0.18499(16)
C51 C -0.0511(2) -0.0090(2) 0.1675(2)
H41 H -0.0457 -0.0356 0.2014
C52 C -0.1148(2) -0.04848(14) 0.0995(2)
H42 H -0.1520 -0.1016 0.0878
C53 C -0.12294(19) -0.00860(19) 0.04892(18)
H43 H -0.1656 -0.0350 0.0034
C54 C -0.0673(2) 0.07079(18) 0.06638(17)
C55 C -0.1605(7) 0.1196(8) -0.0028(9)
H44 H -0.2028 0.0753 -0.0440
H45 H -0.1547 0.1681 -0.0129
H46 H -0.1785 0.1188 0.0395
C56 C -0.0782(3) 0.1146(3) 0.0108(3)
H47 H -0.0340 0.1693 0.0344
C57 C -0.0603(11) 0.0846(7) -0.0526(6)
H48 H -0.0743 0.1094 -0.0880
H49 H -0.0944 0.0283 -0.0727
H50 H -0.0001 0.0957 -0.0401
C58 C 0.0370(7) 0.1331(7) 0.3199(5)
H51 H 0.0061 0.1640 0.3080
H52 H 0.0833 0.1631 0.3653
H53 H -0.0016 0.0851 0.3244
C59 C 0.0737(4) 0.1125(4) 0.2593(3)
H54 H 0.1146 0.1625 0.2574
C60 C 0.1249(6) 0.0664(5) 0.2820(5)
H55 H 0.0857 0.0136 0.2765
H56 H 0.1610 0.0927 0.3321
H57 H 0.1602 0.0638 0.2516
C61 C 0.12367(18) 0.40503(13) 0.14089(17)
C62 C 0.09006(19) 0.41428(17) 0.07451(15)
C63 C 0.1094(2) 0.4899(2) 0.06896(18)
H58 H 0.0869 0.4961 0.0245
C64 C 0.1623(2) 0.55626(15) 0.1298(2)
H59 H 0.1753 0.6069 0.1261
C65 C 0.1959(2) 0.54702(15) 0.19617(19)
H60 H 0.2314 0.5914 0.2369
C66 C 0.1766(2) 0.47141(18) 0.20172(14)
C67 C 0.0784(7) 0.3258(7) -0.0433(5)
H61 H 0.0375 0.2862 -0.0882
H62 H 0.1200 0.3076 -0.0229
H63 H 0.1074 0.3742 -0.0527
C68 C 0.0324(4) 0.3403(4) 0.0092(4)
H64 H 0.0194 0.2955 0.0285
C69 C -0.0493(6) 0.3370(6) -0.0288(7)
H65 H -0.0407 0.3729 -0.0568
H66 H -0.0759 0.3518 0.0059
H67 H -0.0861 0.2840 -0.0610
C70 C 0.3016(10) 0.5175(7) 0.3169(7)
H68 H 0.3388 0.5161 0.2881
H69 H 0.3209 0.5048 0.3602
H70 H 0.3032 0.5697 0.3305
C71 C 0.2119(4) 0.4588(4) 0.2736(3)
H71 H 0.2160 0.4080 0.2592
C72 C 0.1416(9) 0.4433(11) 0.3094(6)
H72 H 0.1557 0.4902 0.3485
H73 H 0.1377 0.4003 0.3286
H74 H 0.0873 0.4298 0.2738
C73 C 0.66643(19) 0.69751(16) 0.24612(17)
C74 C 0.6158(2) 0.7120(2) 0.28744(17)
C75 C 0.5649(3) 0.7507(3) 0.2672(3)
H75 H 0.5310 0.7604 0.2948
C76 C 0.5645(3) 0.7748(3) 0.2056(3)
H76 H 0.5304 0.8007 0.1920
C77 C 0.6151(3) 0.7603(2) 0.16428(19)
H77 H 0.6149 0.7765 0.1231
C78 C 0.6661(2) 0.72165(19) 0.18454(17)
C79 C 0.8178(5) 0.7774(6) 0.1858(5)
H78 H 0.8191 0.8259 0.1779
H79 H 0.8585 0.7637 0.1670
H80 H 0.8329 0.7845 0.2372
C80 C 0.7256(4) 0.7098(3) 0.1457(3)
H81 H 0.7278 0.6591 0.1462
C81 C 0.7029(7) 0.7099(7) 0.0685(4)
H82 H 0.6528 0.6620 0.0387
H83 H 0.7504 0.7128 0.0509
H84 H 0.6908 0.7549 0.0662
C82 C 0.6911(6) 0.7538(5) 0.4201(4)
H85 H 0.6951 0.8045 0.4166
H86 H 0.7446 0.7504 0.4207
H87 H 0.6798 0.7479 0.4644
C83 C 0.6190(4) 0.6889(4) 0.3555(4)
H88 H 0.6314 0.6421 0.3484
C84 C 0.5364(7) 0.6681(8) 0.3749(7)
H89 H 0.5270 0.6241 0.3935
H90 H 0.4886 0.6540 0.3320
H91 H 0.5413 0.7131 0.4115
C85 C 0.89149(15) 0.59283(16) 0.35139(15)
C86 C 0.95266(19) 0.58584(18) 0.31950(15)
C87 C 1.01956(18) 0.5711(2) 0.3566(2)
H92 H 1.0605 0.5664 0.3353
C88 C 1.02529(19) 0.5633(2) 0.4256(2)
H93 H 1.0700 0.5535 0.4505
C89 C 0.9641(2) 0.5703(2) 0.45750(15)
H94 H 0.9679 0.5651 0.5037
C90 C 0.8972(2) 0.58508(19) 0.42039(15)
C91 C 0.9553(8) 0.5291(6) 0.1935(5)
H95 H 1.0117 0.5470 0.1884
H96 H 0.9125 0.5128 0.1467
H97 H 0.9453 0.4850 0.2120
C92 C 0.9495(4) 0.5966(4) 0.2466(3)
H98 H 0.8925 0.5950 0.2253
C93 C 1.0128(6) 0.6744(6) 0.2521(5)
H99 H 1.0042 0.7152 0.2828
H100 H 1.0057 0.6799 0.2043
H101 H 1.0700 0.6789 0.2729
C94 C 0.7877(7) 0.5238(6) 0.4790(6)
H102 H 0.8235 0.5292 0.5259
H103 H 0.7782 0.4757 0.4439
H104 H 0.7332 0.5221 0.4824
C95 C 0.8320(4) 0.5943(4) 0.4552(3)
H105 H 0.7865 0.5951 0.4167
C96 C 0.8622(6) 0.6662(6) 0.5129(6)
H106 H 0.9016 0.6657 0.5549
H107 H 0.8141 0.6716 0.5253
H108 H 0.8912 0.7101 0.4976
C97 C 0.4469(3) 0.13817(19) -0.01451(18)
C98 C 0.3637(3) 0.0795(3) -0.0338(2)
H109 H 0.3231 0.0907 -0.0158
C99 C 0.3411(4) 0.0040(2) -0.0798(3)
H110 H 0.2855 -0.0353 -0.0927
C100 C 0.4018(5) -0.0128(2) -0.1066(3)
H111 H 0.3867 -0.0634 -0.1374
C101 C 0.4849(4) 0.0459(3) -0.0873(3)
H112 H 0.5255 0.0346 -0.1053
C102 C 0.5075(3) 0.1214(3) -0.0413(3)
H113 H 0.5632 0.1606 -0.0284
N1 N 0.47490(15) 0.18802(14) 0.14633(13)
N2 N 0.32936(16) 0.12355(14) 0.13962(14)
N3 N 0.37494(16) 0.23644(15) 0.10013(14)
N4 N 0.42482(16) 0.37540(15) 0.12255(14)
N5 N 0.52417(16) 0.31769(14) 0.13821(14)
N6 N 0.62045(16) 0.28109(14) 0.21126(14)
O1 O 0.61492(15) 0.06967(14) 0.37478(14)
O2 O 0.45441(15) -0.01501(14) 0.33502(14)
O3 O 0.04523(15) 0.18996(14) 0.15252(15)
O4 O 0.10059(15) 0.33077(14) 0.14675(16)
O5 O 0.72062(15) 0.66324(13) 0.26868(13)
O6 O 0.82977(15) 0.61340(13) 0.31673(14)
O7 O 0.46377(18) 0.20967(15) 0.02500(13)
loop_
_geom_bond_atom_site_label_1
_geom_bond_atom_site_label_2
_geom_bond_site_symmetry_1
_geom_bond_site_symmetry_2
B1 N1 1_555 1_555
C1 C2 1_555 1_555
C2 C3 1_555 1_555
C3 H1 1_555 1_555
C4 C3 1_555 1_555
C5 C4 1_555 1_555
C6 C5 1_555 1_555
H2 C6 1_555 1_555
C7 C2 1_555 1_555
C8 C7 1_555 1_555
C9 C10 1_555 1_555
C10 C11 1_555 1_555
C11 H3 1_555 1_555
C12 C11 1_555 1_555
C13 C12 1_555 1_555
C14 C13 1_555 1_555
H4 C14 1_555 1_555
C15 C10 1_555 1_555
C16 C15 1_555 1_555
C17 C18 1_555 1_555
C18 C19 1_555 1_555
C19 H5 1_555 1_555
C20 C19 1_555 1_555
C21 C20 1_555 1_555
C22 C21 1_555 1_555
H6 C22 1_555 1_555
C23 C18 1_555 1_555
C24 C23 1_555 1_555
C25 C26 1_555 1_555
C26 C27 1_555 1_555
C27 H7 1_555 1_555
C28 C27 1_555 1_555
H8 C28 1_555 1_555
C29 C28 1_555 1_555
H9 C29 1_555 1_555
C30 C25 1_555 1_555
C31 H10 1_555 1_555
H11 C31 1_555 1_555
H12 C31 1_555 1_555
C32 C26 1_555 1_555
H13 C32 1_555 1_555
C33 C32 1_555 1_555
H14 C33 1_555 1_555
H15 C33 1_555 1_555
H16 C33 1_555 1_555
C34 C30 1_555 1_555
H17 C34 1_555 1_555
C35 C34 1_555 1_555
H18 C35 1_555 1_555
H19 C35 1_555 1_555
H20 C35 1_555 1_555
C36 C34 1_555 1_555
H21 C36 1_555 1_555
H22 C36 1_555 1_555
H23 C36 1_555 1_555
C37 C38 1_555 1_555
C38 C39 1_555 1_555
C39 H24 1_555 1_555
C40 C39 1_555 1_555
H25 C40 1_555 1_555
C41 C40 1_555 1_555
H26 C41 1_555 1_555
C42 C37 1_555 1_555
C43 H27 1_555 1_555
H28 C43 1_555 1_555
H29 C43 1_555 1_555
C44 C42 1_555 1_555
H30 C44 1_555 1_555
C45 C44 1_555 1_555
H31 C45 1_555 1_555
H32 C45 1_555 1_555
H33 C45 1_555 1_555
C46 H34 1_555 1_555
H35 C46 1_555 1_555
H36 C46 1_555 1_555
C47 C38 1_555 1_555
H37 C47 1_555 1_555
C48 C47 1_555 1_555
H38 C48 1_555 1_555
H39 C48 1_555 1_555
H40 C48 1_555 1_555
C49 C50 1_555 1_555
C50 C51 1_555 1_555
C51 H41 1_555 1_555
C52 C51 1_555 1_555
H42 C52 1_555 1_555
C53 C52 1_555 1_555
H43 C53 1_555 1_555
C54 C49 1_555 1_555
C55 H44 1_555 1_555
H45 C55 1_555 1_555
H46 C55 1_555 1_555
C56 C54 1_555 1_555
H47 C56 1_555 1_555
C57 C56 1_555 1_555
H48 C57 1_555 1_555
H49 C57 1_555 1_555
H50 C57 1_555 1_555
C58 H51 1_555 1_555
H52 C58 1_555 1_555
H53 C58 1_555 1_555
C59 C50 1_555 1_555
H54 C59 1_555 1_555
C60 C59 1_555 1_555
H55 C60 1_555 1_555
H56 C60 1_555 1_555
H57 C60 1_555 1_555
C61 C62 1_555 1_555
C62 C63 1_555 1_555
C63 H58 1_555 1_555
C64 C63 1_555 1_555
H59 C64 1_555 1_555
C65 C64 1_555 1_555
H60 C65 1_555 1_555
C66 C61 1_555 1_555
C67 H61 1_555 1_555
H62 C67 1_555 1_555
H63 C67 1_555 1_555
C68 C62 1_555 1_555
H64 C68 1_555 1_555
C69 C68 1_555 1_555
H65 C69 1_555 1_555
H66 C69 1_555 1_555
H67 C69 1_555 1_555
C70 H68 1_555 1_555
H69 C70 1_555 1_555
H70 C70 1_555 1_555
C71 C66 1_555 1_555
H71 C71 1_555 1_555
C72 C71 1_555 1_555
H72 C72 1_555 1_555
H73 C72 1_555 1_555
H74 C72 1_555 1_555
C73 C74 1_555 1_555
C74 C75 1_555 1_555
C75 H75 1_555 1_555
C76 C75 1_555 1_555
H76 C76 1_555 1_555
C77 C76 1_555 1_555
H77 C77 1_555 1_555
C78 C73 1_555 1_555
C79 H78 1_555 1_555
H79 C79 1_555 1_555
H80 C79 1_555 1_555
C80 C78 1_555 1_555
H81 C80 1_555 1_555
C81 C80 1_555 1_555
H82 C81 1_555 1_555
H83 C81 1_555 1_555
H84 C81 1_555 1_555
C82 H85 1_555 1_555
H86 C82 1_555 1_555
H87 C82 1_555 1_555
C83 C74 1_555 1_555
H88 C83 1_555 1_555
C84 C83 1_555 1_555
H89 C84 1_555 1_555
H90 C84 1_555 1_555
H91 C84 1_555 1_555
C85 C86 1_555 1_555
C86 C87 1_555 1_555
C87 H92 1_555 1_555
C88 C87 1_555 1_555
H93 C88 1_555 1_555
C89 C88 1_555 1_555
H94 C89 1_555 1_555
C90 C85 1_555 1_555
C91 H95 1_555 1_555
H96 C91 1_555 1_555
H97 C91 1_555 1_555
C92 C86 1_555 1_555
H98 C92 1_555 1_555
C93 C92 1_555 1_555
H99 C93 1_555 1_555
H100 C93 1_555 1_555
H101 C93 1_555 1_555
C94 H102 1_555 1_555
H103 C94 1_555 1_555
H104 C94 1_555 1_555
C95 C90 1_555 1_555
H105 C95 1_555 1_555
C96 C95 1_555 1_555
H106 C96 1_555 1_555
H107 C96 1_555 1_555
H108 C96 1_555 1_555
C97 C98 1_555 1_555
C98 H109 1_555 1_555
C99 C98 1_555 1_555
H110 C99 1_555 1_555
C100 C99 1_555 1_555
H111 C100 1_555 1_555
C101 C100 1_555 1_555
H112 C101 1_555 1_555
C102 C97 1_555 1_555
H113 C102 1_555 1_555
N1 C1 1_555 1_555
N2 C8 1_555 1_555
N3 B1 1_555 1_555
N4 C16 1_555 1_555
N5 B1 1_555 1_555
N6 C1 1_555 1_555
O1 C4 1_555 1_555
O2 C5 1_555 1_555
O3 C12 1_555 1_555
O4 C13 1_555 1_555
O5 C20 1_555 1_555
O6 C21 1_555 1_555
O7 B1 1_555 1_555
C6 C7 1_555 1_555
C8 N1 1_555 1_555
C9 N2 1_555 1_555
C9 N3 1_555 1_555
C14 C15 1_555 1_555
C16 N3 1_555 1_555
C17 N4 1_555 1_555
C17 N5 1_555 1_555
C22 C23 1_555 1_555
C24 N5 1_555 1_555
C24 N6 1_555 1_555
C25 O1 1_555 1_555
C29 C30 1_555 1_555
C31 C32 1_555 1_555
C37 O2 1_555 1_555
C41 C42 1_555 1_555
C43 C44 1_555 1_555
C46 C47 1_555 1_555
C49 O3 1_555 1_555
C53 C54 1_555 1_555
C55 C56 1_555 1_555
C58 C59 1_555 1_555
C61 O4 1_555 1_555
C65 C66 1_555 1_555
C67 C68 1_555 1_555
C70 C71 1_555 1_555
C73 O5 1_555 1_555
C77 C78 1_555 1_555
C79 C80 1_555 1_555
C82 C83 1_555 1_555
C85 O6 1_555 1_555
C89 C90 1_555 1_555
C91 C92 1_555 1_555
C94 C95 1_555 1_555
C97 O7 1_555 1_555
C101 C102 1_555 1_555

#END
