
#######################################################################
#
#                 Cambridge Crystallographic Data Centre
#                                CCDC 
#
#######################################################################
#
# If this CIF has been generated from an entry in the Cambridge 
# Structural Database, then it will include bibliographic, chemical, 
# crystal, experimental, refinement or atomic coordinate data resulting 
# from the CCDC's data processing and validation procedures.
#
#######################################################################

data_UQEJIK
_chemical_formula_moiety         'C21 H19 N1 O2'
_chemical_name_systematic        
8-Methoxy-11-phenyl-11,12-dihydro-6H-dibenzo[b,f][1,5]oxazocine
_chemical_properties_biological  'kappa-opioid agonist activity'
_symmetry_cell_setting           triclinic
_symmetry_space_group_name_H-M   'P -1'
_symmetry_Int_Tables_number      2
_space_group_name_Hall           '-P 1'
loop_
_symmetry_equiv_pos_site_id
_symmetry_equiv_pos_as_xyz
1 x,y,z
2 -x,-y,-z
_cell_length_a                   9.781(2)
_cell_length_b                   9.806(2)
_cell_length_c                   10.530(4)
_cell_angle_alpha                105.362(19)
_cell_angle_beta                 106.85(2)
_cell_angle_gamma                111.933(13)
_cell_volume                     813.572
_exptl_crystal_colour            colorless
_exptl_crystal_description       block
_cell_formula_units_Z            2
loop_
_atom_site_label
_atom_site_type_symbol
_atom_site_fract_x
_atom_site_fract_y
_atom_site_fract_z
C1 C 1.2555(4) 0.3361(4) 0.8438(3)
H1 H 1.3580 0.4201 0.8694
C2 C 0.9687(4) 0.1777(4) 0.6871(3)
C3 C 1.0397(4) 0.3378(4) 0.2841(3)
H2 H 1.1485 0.4094 0.3116
C4 C 1.1216(4) 0.3022(4) 0.7250(3)
C5 C 1.2387(4) 0.2459(4) 0.9260(3)
C6 C 0.9541(4) 0.0864(4) 0.7666(4)
H3 H 0.8522 0.0008 0.7400
C7 C 0.8390(4) 0.1540(4) 0.3326(3)
C8 C 0.7303(4) 0.2131(4) 0.6027(3)
C9 C 1.0879(4) 0.1199(4) 0.8847(4)
H4 H 1.0760 0.0566 0.9370
C10 C 0.9985(4) 0.2618(4) 0.3718(3)
C11 C 1.1413(4) 0.3931(4) 0.6315(3)
H5 H 1.0591 0.4272 0.6130
H6 H 1.2484 0.4890 0.6817
C12 C 0.6003(4) 0.2000(4) 0.4935(4)
H7 H 0.5760 0.1461 0.3961
C13 C 0.7202(4) 0.1259(5) 0.2043(4)
H8 H 0.6112 0.0543 0.1761
C14 C 0.7600(5) 0.2022(5) 0.1164(4)
H9 H 0.6781 0.1817 0.0303
C15 C 0.7942(4) 0.0581(4) 0.4204(3)
H10 H 0.6780 -0.0189 0.3680
H11 H 0.8517 -0.0038 0.4231
C16 C 0.7613(4) 0.2935(4) 0.7474(4)
H12 H 0.8476 0.3039 0.8234
C17 C 0.5372(5) 0.3449(5) 0.6683(4)
H13 H 0.4733 0.3894 0.6898
C18 C 0.9188(5) 0.3069(5) 0.1565(4)
H14 H 0.9459 0.3577 0.0975
C19 C 0.6647(5) 0.3577(5) 0.7782(4)
H15 H 0.6865 0.4103 0.8751
C20 C 0.5058(4) 0.2658(5) 0.5272(4)
H16 H 0.4191 0.2559 0.4519
C21 C 1.3628(5) 0.2230(5) 1.1442(4)
H17 H 1.2903 0.2454 1.1800
H18 H 1.4683 0.2705 1.2243
H19 H 1.3191 0.1080 1.0975
O1 O 1.1238(3) 0.2899(3) 0.4950(2)
O2 O 1.3786(3) 0.2899(3) 1.0416(2)
N1 N 0.8290(3) 0.1503(3) 0.5705(3)
loop_
_geom_bond_atom_site_label_1
_geom_bond_atom_site_label_2
_geom_bond_site_symmetry_1
_geom_bond_site_symmetry_2
C1 H1 1_555 1_555
C2 C4 1_555 1_555
C3 H2 1_555 1_555
C4 C1 1_555 1_555
C5 C1 1_555 1_555
C6 C2 1_555 1_555
H3 C6 1_555 1_555
C7 C10 1_555 1_555
C8 C12 1_555 1_555
C9 C5 1_555 1_555
H4 C9 1_555 1_555
C10 C3 1_555 1_555
C11 C4 1_555 1_555
H5 C11 1_555 1_555
H6 C11 1_555 1_555
C12 H7 1_555 1_555
C13 C7 1_555 1_555
H8 C13 1_555 1_555
C14 C13 1_555 1_555
H9 C14 1_555 1_555
C15 C7 1_555 1_555
H10 C15 1_555 1_555
H11 C15 1_555 1_555
C16 C8 1_555 1_555
H12 C16 1_555 1_555
C17 H13 1_555 1_555
C18 C3 1_555 1_555
H14 C18 1_555 1_555
C19 C16 1_555 1_555
H15 C19 1_555 1_555
C20 C12 1_555 1_555
H16 C20 1_555 1_555
C21 H17 1_555 1_555
H18 C21 1_555 1_555
H19 C21 1_555 1_555
O1 C10 1_555 1_555
O2 C5 1_555 1_555
N1 C2 1_555 1_555
C6 C9 1_555 1_555
C8 N1 1_555 1_555
C11 O1 1_555 1_555
C14 C18 1_555 1_555
C15 N1 1_555 1_555
C17 C19 1_555 1_555
C17 C20 1_555 1_555
C21 O2 1_555 1_555

#END
