
#######################################################################
#
#                 Cambridge Crystallographic Data Centre
#                                CCDC 
#
#######################################################################
#
# If this CIF has been generated from an entry in the Cambridge 
# Structural Database, then it will include bibliographic, chemical, 
# crystal, experimental, refinement or atomic coordinate data resulting 
# from the CCDC's data processing and validation procedures.
#
#######################################################################

data_UQELOS
_chemical_formula_moiety         'C20 H22 Cl1 N6 O4'
_chemical_name_systematic        
1-(6-Chloro-3-pyridinylmethyl)-5-(2-phenyl-1-ethoxycarbonylethyl)-1,3,5-hexahydrotriazine-2-N-nitroimine
_chemical_properties_biological  'insecticidal activity'
_symmetry_cell_setting           triclinic
_symmetry_space_group_name_H-M   'P 1'
_symmetry_Int_Tables_number      1
_space_group_name_Hall           'P 1'
loop_
_symmetry_equiv_pos_site_id
_symmetry_equiv_pos_as_xyz
1 x,y,z
_cell_length_a                   8.877(2)
_cell_length_b                   9.176(2)
_cell_length_c                   13.661(3)
_cell_angle_alpha                101.978(4)
_cell_angle_beta                 97.636(4)
_cell_angle_gamma                96.217(4)
_cell_volume                     1068.23
_exptl_crystal_colour            colorless
_exptl_crystal_description       block
_cell_formula_units_Z            2
loop_
_atom_site_label
_atom_site_type_symbol
_atom_site_fract_x
_atom_site_fract_y
_atom_site_fract_z
C1 C 0.7013(5) 0.0838(4) 0.5327(3)
C2 C 0.7351(6) -0.0392(4) 0.4776(3)
H1 H 0.7527 -0.1215 0.5052
C3 C 0.7433(6) -0.0419(5) 0.3800(4)
H2 H 0.7680 -0.1286 0.3403
C4 C 0.7178(4) 0.0750(4) 0.3357(3)
C5 C 0.6780(8) 0.1974(5) 0.3975(4)
H3 H 0.6560 0.2797 0.3711
C6 C 0.7305(4) 0.0693(4) 0.2260(3)
H4 H 0.7971 0.1583 0.2221
H5 H 0.7788 -0.0176 0.2002
C7 C 0.4916(4) -0.0710(3) 0.1219(2)
C8 C 0.3247(4) 0.0611(4) 0.0242(2)
H6 H 0.3704 0.0687 -0.0355
H7 H 0.2142 0.0528 0.0060
C9 C 0.5397(4) 0.2017(4) 0.1351(3)
H8 H 0.5715 0.2835 0.1944
H9 H 0.5948 0.2242 0.0821
C10 C 0.2825(4) 0.2308(3) 0.1831(2)
H10 H 0.3498 0.2929 0.2434
C11 C 0.2101(4) 0.0913(4) 0.2124(3)
C12 C 0.2534(8) -0.0820(6) 0.3194(4)
H11 H 0.1824 -0.1487 0.2641
H12 H 0.3428 -0.1314 0.3324
C13 C 0.1840(13) -0.0571(10) 0.4053(7)
H13 H 0.0913 -0.0149 0.3912
H14 H 0.2526 0.0117 0.4596
H15 H 0.1600 -0.1507 0.4246
C14 C 0.1636(4) 0.3235(4) 0.1505(3)
H16 H 0.0910 0.2603 0.0945
H17 H 0.2142 0.4038 0.1251
C15 C 0.0745(4) 0.3930(3) 0.2316(3)
C16 C -0.0599(4) 0.4495(4) 0.2022(3)
H18 H -0.0962 0.4373 0.1336
C17 C -0.1398(5) 0.5225(4) 0.2719(3)
H19 H -0.2277 0.5615 0.2505
C18 C -0.0903(6) 0.5378(6) 0.3726(4)
H20 H -0.1452 0.5863 0.4200
C19 C 0.0387(6) 0.4828(7) 0.4041(4)
H21 H 0.0732 0.4955 0.4731
C20 C 0.1200(5) 0.4071(6) 0.3337(3)
H22 H 0.2058 0.3658 0.3560
O1 O 0.5133(3) -0.4271(3) 0.1544(3)
O2 O 0.3265(4) -0.3468(3) 0.0762(3)
O3 O 0.3004(3) 0.0582(3) 0.2893(2)
O4 O 0.0891(3) 0.0201(3) 0.1705(2)
Cl1 Cl 0.68949(16) 0.09158(15) 0.66025(9)
N1 N 0.6699(7) 0.2016(5) 0.4977(4)
N2 N 0.5824(3) 0.0607(3) 0.1603(2)
N3 N 0.3633(3) -0.0739(3) 0.0576(2)
N4 N 0.3787(3) 0.1939(3) 0.1021(2)
N5 N 0.5436(3) -0.1887(3) 0.1546(2)
N6 N 0.4567(3) -0.3236(3) 0.1263(2)
C21 C 0.4968(5) 0.6283(5) 0.5311(4)
C22 C 0.4415(7) 0.7450(6) 0.5828(4)
H23 H 0.4052 0.8176 0.5511
C23 C 0.4397(6) 0.7546(6) 0.6842(4)
H24 H 0.4014 0.8352 0.7212
C24 C 0.4924(4) 0.6496(4) 0.7322(3)
C25 C 0.5473(7) 0.5356(6) 0.6697(4)
H25 H 0.5835 0.4598 0.6981
C26 C 0.4869(4) 0.6539(4) 0.8426(3)
H26 H 0.4291 0.7332 0.8686
H27 H 0.4321 0.5593 0.8481
C27 C 0.7174(4) 0.8183(3) 0.9419(2)
C28 C 0.8876(5) 0.7122(4) 1.0512(3)
H28 H 0.9960 0.7318 1.0793
H29 H 0.8302 0.7036 1.1059
C29 C 0.6976(5) 0.5469(4) 0.9352(3)
H30 H 0.6401 0.5163 0.9849
H31 H 0.6800 0.4644 0.8759
C30 C 0.9770(4) 0.5470(4) 0.9126(3)
H32 H 1.0701 0.5411 0.9582
C31 C 1.0174(4) 0.6748(4) 0.8602(3)
C32 C 0.9235(6) 0.8109(6) 0.7367(4)
H33 H 0.8222 0.8358 0.7166
H34 H 0.9820 0.8974 0.7852
C33 C 0.9985(11) 0.7780(10) 0.6489(6)
H35 H 0.9482 0.6852 0.6048
H36 H 1.1040 0.7691 0.6700
H37 H 0.9934 0.8579 0.6136
C34 C 0.9364(4) 0.3947(4) 0.8377(3)
H38 H 0.9014 0.3199 0.8735
H39 H 0.8519 0.4004 0.7864
C35 C 1.0678(4) 0.3429(4) 0.7857(3)
C36 C 1.1869(5) 0.2905(5) 0.8344(3)
H40 H 1.1923 0.2934 0.9033
C37 C 1.3015(6) 0.2323(6) 0.7834(4)
H41 H 1.3817 0.1962 0.8178
C38 C 1.2943(6) 0.2291(7) 0.6841(5)
H42 H 1.3683 0.1878 0.6492
C39 C 1.1803(7) 0.2854(8) 0.6343(4)
H43 H 1.1787 0.2861 0.5662
C40 C 1.0658(6) 0.3421(6) 0.6844(4)
H44 H 0.9873 0.3799 0.6496
Cl2 Cl 0.50053(16) 0.61153(16) 0.40123(10)
N7 N 0.5520(6) 0.5269(5) 0.5720(3)
N8 N 0.6385(3) 0.6793(3) 0.9063(2)
N9 N 0.8452(3) 0.8377(3) 1.0081(2)
N10 N 0.8570(4) 0.5736(3) 0.9762(2)
N11 N 0.6509(3) 0.9253(3) 0.9025(2)
N12 N 0.7224(3) 1.0667(3) 0.9287(2)
O5 O 0.6512(3) 1.1610(3) 0.8981(2)
O6 O 0.8518(4) 1.1046(3) 0.9783(3)
O7 O 0.9091(3) 0.6812(3) 0.7849(2)
O8 O 1.1318(3) 0.7627(3) 0.8873(2)
loop_
_geom_bond_atom_site_label_1
_geom_bond_atom_site_label_2
_geom_bond_site_symmetry_1
_geom_bond_site_symmetry_2
C1 C2 1_555 1_555
C2 H1 1_555 1_555
C3 C2 1_555 1_555
H2 C3 1_555 1_555
C4 C3 1_555 1_555
C5 C4 1_555 1_555
H3 C5 1_555 1_555
C6 C4 1_555 1_555
H4 C6 1_555 1_555
H5 C6 1_555 1_555
C7 N2 1_555 1_555
C8 H6 1_555 1_555
H7 C8 1_555 1_555
C9 H8 1_555 1_555
H9 C9 1_555 1_555
C10 H10 1_555 1_555
C11 C10 1_555 1_555
C12 H11 1_555 1_555
H12 C12 1_555 1_555
C13 C12 1_555 1_555
H13 C13 1_555 1_555
H14 C13 1_555 1_555
H15 C13 1_555 1_555
C14 C10 1_555 1_555
H16 C14 1_555 1_555
H17 C14 1_555 1_555
C15 C14 1_555 1_555
C16 C15 1_555 1_555
H18 C16 1_555 1_555
C17 C16 1_555 1_555
H19 C17 1_555 1_555
C18 C17 1_555 1_555
H20 C18 1_555 1_555
C19 C18 1_555 1_555
H21 C19 1_555 1_555
C20 C15 1_555 1_555
H22 C20 1_555 1_555
O1 N6 1_555 1_555
O2 N6 1_555 1_555
O3 C11 1_555 1_555
O4 C11 1_555 1_555
Cl1 C1 1_555 1_555
N1 C1 1_555 1_555
N2 C6 1_555 1_555
N3 C7 1_555 1_555
N4 C8 1_555 1_555
N5 C7 1_555 1_555
N6 N5 1_555 1_555
C21 C22 1_555 1_555
C22 H23 1_555 1_555
C23 C22 1_555 1_555
H24 C23 1_555 1_555
C24 C23 1_555 1_555
C25 C24 1_555 1_555
H25 C25 1_555 1_555
C26 C24 1_555 1_555
H26 C26 1_555 1_555
H27 C26 1_555 1_555
C27 N8 1_555 1_555
C28 H28 1_555 1_555
H29 C28 1_555 1_555
C29 H30 1_555 1_555
H31 C29 1_555 1_555
C30 H32 1_555 1_555
C31 C30 1_555 1_555
C32 H33 1_555 1_555
H34 C32 1_555 1_555
C33 C32 1_555 1_555
H35 C33 1_555 1_555
H36 C33 1_555 1_555
H37 C33 1_555 1_555
C34 C30 1_555 1_555
H38 C34 1_555 1_555
H39 C34 1_555 1_555
C35 C34 1_555 1_555
C36 C35 1_555 1_555
H40 C36 1_555 1_555
C37 C36 1_555 1_555
H41 C37 1_555 1_555
C38 C37 1_555 1_555
H42 C38 1_555 1_555
C39 C38 1_555 1_555
H43 C39 1_555 1_555
C40 C35 1_555 1_555
H44 C40 1_555 1_555
Cl2 C21 1_555 1_555
N7 C21 1_555 1_555
N8 C26 1_555 1_555
N9 C27 1_555 1_555
N10 C28 1_555 1_555
N11 C27 1_555 1_555
N12 N11 1_555 1_555
O5 N12 1_555 1_555
O6 N12 1_555 1_555
O7 C31 1_555 1_555
O8 C31 1_555 1_555
C5 N1 1_555 1_555
C8 N3 1_555 1_555
C9 N2 1_555 1_555
C9 N4 1_555 1_555
C10 N4 1_555 1_555
C12 O3 1_555 1_555
C19 C20 1_555 1_555
C25 N7 1_555 1_555
C28 N9 1_555 1_555
C29 N8 1_555 1_555
C29 N10 1_555 1_555
C30 N10 1_555 1_555
C32 O7 1_555 1_555
C39 C40 1_555 1_555

#END
