
#######################################################################
#
#                 Cambridge Crystallographic Data Centre
#                                CCDC 
#
#######################################################################
#
# If this CIF has been generated from an entry in the Cambridge 
# Structural Database, then it will include bibliographic, chemical, 
# crystal, experimental, refinement or atomic coordinate data resulting 
# from the CCDC's data processing and validation procedures.
#
#######################################################################

data_UQEQIR
_chemical_formula_moiety         'C24 H26 O5'
_chemical_name_systematic        
(E,E)-2,6-bis(2,3-Dimethoxybenzylidene)cyclohexanone
_chemical_properties_biological  
'Cytotoxic activity; anti-inflammatory activity shown by inhibition of LPS-induced TNF-alpha expression'
_symmetry_cell_setting           orthorhombic
_symmetry_space_group_name_H-M   'P c a 21'
_symmetry_Int_Tables_number      29
_space_group_name_Hall           'P 2c -2ac'
loop_
_symmetry_equiv_pos_site_id
_symmetry_equiv_pos_as_xyz
1 x,y,z
2 -x,-y,1/2+z
3 1/2+x,-y,z
4 1/2-x,y,1/2+z
_cell_length_a                   17.536(2)
_cell_length_b                   14.8515(16)
_cell_length_c                   8.0512(9)
_cell_angle_alpha                90
_cell_angle_beta                 90
_cell_angle_gamma                90
_cell_volume                     2096.82
_exptl_crystal_colour            green
_exptl_crystal_description       prismatic
_chemical_melting_point          '452-454 K'
_cell_formula_units_Z            4
_exptl_crystal_recrystallization_method dichloromethane/ethanol
loop_
_atom_site_label
_atom_site_type_symbol
_atom_site_fract_x
_atom_site_fract_y
_atom_site_fract_z
O1 O 0.12728(16) 0.26937(15) 0.2679(3)
O2 O 0.05176(11) -0.01674(13) 0.1554(3)
O3 O 0.06798(13) -0.19775(13) 0.1401(3)
O4 O 0.03555(12) 0.54566(14) 0.4432(3)
O5 O 0.04728(14) 0.70623(14) 0.5894(3)
C1 C 0.14170(17) 0.2500(2) 0.4105(4)
C2 C 0.14997(17) 0.3222(2) 0.5406(4)
C3 C 0.13723(17) 0.4065(2) 0.4920(4)
H1 H 0.1215 0.4128 0.3823
C4 C 0.15256(16) 0.1535(2) 0.4639(4)
C5 C 0.14335(15) 0.09287(19) 0.3414(4)
H2 H 0.1281 0.1162 0.2395
C6 C 0.14431(17) 0.4909(2) 0.5853(4)
C7 C 0.20395(18) 0.5074(2) 0.6962(5)
H3 H 0.2394 0.4622 0.7175
C8 C 0.2111(2) 0.5891(2) 0.7742(5)
H4 H 0.2511 0.5986 0.8481
C9 C 0.1594(2) 0.6573(2) 0.7439(4)
H5 H 0.1644 0.7122 0.7983
C10 C 0.10061(18) 0.6442(2) 0.6337(4)
C11 C 0.09295(17) 0.56032(19) 0.5554(4)
C12 C 0.15409(15) -0.00521(19) 0.3465(4)
C13 C 0.20963(17) -0.0471(2) 0.4437(4)
H6 H 0.2404 -0.0129 0.5134
C14 C 0.21886(18) -0.1398(2) 0.4361(5)
H7 H 0.2568 -0.1672 0.4989
C15 C 0.17270(19) -0.1913(2) 0.3370(4)
H8 H 0.1791 -0.2535 0.3343
C16 C 0.11699(16) -0.15178(19) 0.2415(4)
C17 C 0.10884(14) -0.05849(18) 0.2429(4)
C18 C -0.0392(2) 0.5370(3) 0.5163(5)
H9 H -0.0376 0.4929 0.6035
H10 H -0.0749 0.5183 0.4328
H11 H -0.0547 0.5940 0.5612
C19 C 0.0473(2) 0.7903(2) 0.6790(5)
H12 H 0.0383 0.7789 0.7947
H13 H 0.0078 0.8285 0.6363
H14 H 0.0958 0.8194 0.6655
C20 C 0.0577(2) -0.0199(3) -0.0191(5)
H15 H 0.1076 -0.0005 -0.0522
H16 H 0.0200 0.0191 -0.0675
H17 H 0.0494 -0.0805 -0.0566
C21 C 0.0679(2) -0.2935(2) 0.1492(5)
H18 H 0.1178 -0.3159 0.1228
H19 H 0.0316 -0.3172 0.0713
H20 H 0.0542 -0.3120 0.2595
C22 C 0.1718(2) 0.2955(2) 0.7134(5)
H21 H 0.1523 0.3398 0.7911
H22 H 0.2269 0.2947 0.7229
C23 C 0.1402(2) 0.2025(2) 0.7583(5)
H23 H 0.1545 0.1873 0.8713
H24 H 0.0849 0.2033 0.7518
C24 C 0.1714(2) 0.1329(2) 0.6404(5)
H25 H 0.2264 0.1299 0.6528
H26 H 0.1507 0.0744 0.6691
loop_
_geom_bond_atom_site_label_1
_geom_bond_atom_site_label_2
_geom_bond_site_symmetry_1
_geom_bond_site_symmetry_2
O1 C1 1_555 1_555
O2 C17 1_555 1_555
O3 C16 1_555 1_555
O4 C11 1_555 1_555
O5 C10 1_555 1_555
C1 C2 1_555 1_555
C2 C3 1_555 1_555
C3 H1 1_555 1_555
C4 C1 1_555 1_555
C5 C4 1_555 1_555
H2 C5 1_555 1_555
C6 C3 1_555 1_555
C7 C6 1_555 1_555
H3 C7 1_555 1_555
C8 C7 1_555 1_555
H4 C8 1_555 1_555
C9 C8 1_555 1_555
H5 C9 1_555 1_555
C10 C9 1_555 1_555
C11 C6 1_555 1_555
C12 C5 1_555 1_555
C13 C12 1_555 1_555
H6 C13 1_555 1_555
C14 C13 1_555 1_555
H7 C14 1_555 1_555
C15 C14 1_555 1_555
H8 C15 1_555 1_555
C16 C15 1_555 1_555
C17 C12 1_555 1_555
C18 O4 1_555 1_555
H9 C18 1_555 1_555
H10 C18 1_555 1_555
H11 C18 1_555 1_555
C19 O5 1_555 1_555
H12 C19 1_555 1_555
H13 C19 1_555 1_555
H14 C19 1_555 1_555
C20 O2 1_555 1_555
H15 C20 1_555 1_555
H16 C20 1_555 1_555
H17 C20 1_555 1_555
C21 O3 1_555 1_555
H18 C21 1_555 1_555
H19 C21 1_555 1_555
H20 C21 1_555 1_555
C22 C2 1_555 1_555
H21 C22 1_555 1_555
H22 C22 1_555 1_555
C23 C22 1_555 1_555
H23 C23 1_555 1_555
H24 C23 1_555 1_555
C24 C4 1_555 1_555
H25 C24 1_555 1_555
H26 C24 1_555 1_555
C10 C11 1_555 1_555
C16 C17 1_555 1_555
C23 C24 1_555 1_555

#END
