
#######################################################################
#
#                 Cambridge Crystallographic Data Centre
#                                CCDC 
#
#######################################################################
#
# If this CIF has been generated from an entry in the Cambridge 
# Structural Database, then it will include bibliographic, chemical, 
# crystal, experimental, refinement or atomic coordinate data resulting 
# from the CCDC's data processing and validation procedures.
#
#######################################################################

data_UQETEQ
_chemical_formula_moiety         'C18 H17 Cl2 N7 O3 S2'
_chemical_name_systematic        
N'-t-Butyl-3,6-dichloro-N,N'-bis((4-methyl-1,2,3-thiadiazol-5-yl)carbonyl)pyridine-2-carbohydrazide
_chemical_properties_biological  
'weak fungicidal activity against five of nine target fungi; good insecticidal activity against one of two species studied'
_symmetry_cell_setting           monoclinic
_symmetry_space_group_name_H-M   'C 2/c'
_symmetry_Int_Tables_number      15
_space_group_name_Hall           '-C 2yn'
loop_
_symmetry_equiv_pos_site_id
_symmetry_equiv_pos_as_xyz
1 x,y,z
2 -x,y,1/2-z
3 1/2+x,1/2+y,z
4 1/2-x,1/2+y,1/2-z
5 -x,-y,-z
6 x,-y,1/2+z
7 1/2-x,1/2-y,-z
8 1/2+x,1/2-y,1/2+z
_cell_length_a                   27.726(8)
_cell_length_b                   11.045(3)
_cell_length_c                   14.507(4)
_cell_angle_alpha                90
_cell_angle_beta                 96.758(4)
_cell_angle_gamma                90
_cell_volume                     4411.67
_exptl_crystal_colour            colorless
_exptl_crystal_description       prism
_chemical_melting_point          '185-186 deg.C'
_cell_formula_units_Z            8
_exptl_crystal_recrystallization_method 'ethyl acetate'
loop_
_atom_site_label
_atom_site_type_symbol
_atom_site_fract_x
_atom_site_fract_y
_atom_site_fract_z
Cl1 Cl 0.16836(4) 0.41472(9) 0.03802(7)
Cl2 Cl 0.20998(4) 0.75569(10) 0.37245(7)
S1 S 0.07676(4) 0.70011(10) 0.32913(7)
S2 S 0.09762(4) 0.72806(9) -0.07788(7)
O1 O 0.03464(10) 0.7692(2) 0.0796(2)
O2 O 0.18579(10) 0.9046(2) 0.1876(2)
O3 O 0.10521(11) 1.0562(2) -0.03555(19)
N1 N 0.06587(12) 0.5563(3) 0.3559(3)
N2 N 0.05781(12) 0.4878(3) 0.2838(3)
N3 N 0.10843(11) 0.8416(3) 0.1413(2)
N4 N 0.09850(11) 0.9514(3) 0.0961(2)
N5 N 0.18365(13) 0.7375(3) -0.1046(2)
N6 N 0.14565(12) 0.6692(3) -0.1219(2)
N7 N 0.16277(11) 0.6193(3) 0.1242(2)
C1 C 0.04909(15) 0.4798(4) 0.1131(3)
H1 H 0.0653 0.4009 0.1190
H2 H 0.0615 0.5262 0.0633
H3 H 0.0140 0.4679 0.0983
C2 C 0.05893(13) 0.5470(4) 0.2017(3)
C3 C 0.06970(13) 0.6682(4) 0.2133(3)
C4 C 0.06881(14) 0.7596(3) 0.1386(3)
C5 C 0.08028(14) 1.0565(3) 0.1497(3)
C6 C 0.03292(16) 1.1032(4) 0.0975(3)
H4 H 0.0394 1.1375 0.0379
H5 H 0.0192 1.1658 0.1345
H6 H 0.0098 1.0361 0.0866
C7 C 0.07111(17) 1.0114(4) 0.2456(3)
H7 H 0.0476 0.9448 0.2388
H8 H 0.0581 1.0777 0.2802
H9 H 0.1017 0.9829 0.2793
C8 C 0.11950(16) 1.1549(4) 0.1612(3)
H10 H 0.1497 1.1207 0.1925
H11 H 0.1087 1.2215 0.1985
H12 H 0.1252 1.1855 0.1000
C9 C 0.10946(13) 0.9618(4) 0.0071(3)
C10 C 0.12946(14) 0.8518(3) -0.0349(2)
C11 C 0.17607(14) 0.8416(3) -0.0566(3)
C12 C 0.21659(16) 0.9299(4) -0.0363(3)
H13 H 0.2239 0.9672 -0.0944
H14 H 0.2455 0.8878 -0.0069
H15 H 0.2070 0.9928 0.0056
C13 C 0.15754(14) 0.8216(4) 0.1789(3)
C14 C 0.17247(13) 0.6932(3) 0.1972(3)
C15 C 0.19750(13) 0.6554(4) 0.2815(3)
C16 C 0.21076(14) 0.5358(4) 0.2917(3)
H16 H 0.2265 0.5068 0.3492
C17 C 0.20088(14) 0.4584(4) 0.2174(3)
H17 H 0.2096 0.3753 0.2220
C18 C 0.17792(14) 0.5061(3) 0.1359(3)
loop_
_geom_bond_atom_site_label_1
_geom_bond_atom_site_label_2
_geom_bond_site_symmetry_1
_geom_bond_site_symmetry_2
Cl1 C18 1_555 1_555
Cl2 C15 1_555 1_555
S1 N1 1_555 1_555
S2 N6 1_555 1_555
O1 C4 1_555 1_555
O2 C13 1_555 1_555
O3 C9 1_555 1_555
N1 N2 1_555 1_555
N2 C2 1_555 1_555
N3 N4 1_555 1_555
N4 C5 1_555 1_555
N5 N6 1_555 1_555
N7 C14 1_555 1_555
C1 H1 1_555 1_555
H2 C1 1_555 1_555
H3 C1 1_555 1_555
C2 C1 1_555 1_555
C3 S1 1_555 1_555
C4 N3 1_555 1_555
C5 C6 1_555 1_555
C6 H4 1_555 1_555
H5 C6 1_555 1_555
H6 C6 1_555 1_555
C7 C5 1_555 1_555
H7 C7 1_555 1_555
H8 C7 1_555 1_555
H9 C7 1_555 1_555
C8 C5 1_555 1_555
H10 C8 1_555 1_555
H11 C8 1_555 1_555
H12 C8 1_555 1_555
C9 N4 1_555 1_555
C10 S2 1_555 1_555
C11 N5 1_555 1_555
C12 C11 1_555 1_555
H13 C12 1_555 1_555
H14 C12 1_555 1_555
H15 C12 1_555 1_555
C13 N3 1_555 1_555
C14 C13 1_555 1_555
C15 C14 1_555 1_555
C16 C15 1_555 1_555
H16 C16 1_555 1_555
C17 C16 1_555 1_555
H17 C17 1_555 1_555
C18 N7 1_555 1_555
C2 C3 1_555 1_555
C3 C4 1_555 1_555
C9 C10 1_555 1_555
C10 C11 1_555 1_555
C17 C18 1_555 1_555

#END
