
#######################################################################
#
#                 Cambridge Crystallographic Data Centre
#                                CCDC 
#
#######################################################################
#
# If this CIF has been generated from an entry in the Cambridge 
# Structural Database, then it will include bibliographic, chemical, 
# crystal, experimental, refinement or atomic coordinate data resulting 
# from the CCDC's data processing and validation procedures.
#
#######################################################################

data_UQEVIW
_chemical_formula_moiety         'C14 H9 N1 O3'
_chemical_name_systematic        4-Methylbenzo[g]quinoline-2,5,10(1H)-trione
_symmetry_cell_setting           triclinic
_symmetry_space_group_name_H-M   'P -1'
_symmetry_Int_Tables_number      2
_space_group_name_Hall           '-P 1'
loop_
_symmetry_equiv_pos_site_id
_symmetry_equiv_pos_as_xyz
1 x,y,z
2 -x,-y,-z
_cell_length_a                   5.2140(5)
_cell_length_b                   10.1871(11)
_cell_length_c                   11.0709(13)
_cell_angle_alpha                110.452(2)
_cell_angle_beta                 103.376(2)
_cell_angle_gamma                90.1870(10)
_cell_volume                     533.738
_cell_formula_units_Z            2
loop_
_atom_site_label
_atom_site_type_symbol
_atom_site_fract_x
_atom_site_fract_y
_atom_site_fract_z
N1 N 0.7524(3) 0.49266(14) 0.61298(14)
H1 H 0.8189 0.4297 0.5569
O1 O 0.9604(3) 0.66615(13) 0.57496(13)
O2 O 0.2293(3) 0.56750(14) 0.92383(15)
O3 O 0.6261(3) 0.21823(12) 0.53956(13)
C1 C 0.8157(4) 0.63263(18) 0.63563(18)
C2 C 0.6978(4) 0.72961(18) 0.73124(19)
H2 H 0.7317 0.8251 0.7490
C3 C 0.5399(3) 0.69188(17) 0.79777(17)
C4 C 0.4847(3) 0.54305(17) 0.76867(16)
C5 C 0.3161(4) 0.48883(19) 0.83488(18)
C6 C 0.2525(3) 0.33347(18) 0.78919(17)
C7 C 0.0856(4) 0.2809(2) 0.84652(19)
H3 H 0.0183 0.3422 0.9137
C8 C 0.0200(4) 0.1380(2) 0.8038(2)
H4 H -0.0916 0.1037 0.8426
C9 C 0.1177(4) 0.0452(2) 0.7043(2)
H5 H 0.0711 -0.0509 0.6759
C10 C 0.2851(4) 0.09554(19) 0.64681(19)
H6 H 0.3525 0.0332 0.5802
C11 C 0.3528(3) 0.23965(18) 0.68874(17)
C12 C 0.5311(4) 0.29334(17) 0.62717(17)
C13 C 0.5914(3) 0.44965(17) 0.67440(16)
C14 C 0.4267(4) 0.80458(19) 0.8943(2)
H7 H 0.4826 0.8950 0.8954
H8 H 0.4882 0.8010 0.9817
H9 H 0.2370 0.7900 0.8677
loop_
_geom_bond_atom_site_label_1
_geom_bond_atom_site_label_2
_geom_bond_site_symmetry_1
_geom_bond_site_symmetry_2
N1 H1 1_555 1_555
O1 C1 1_555 1_555
O2 C5 1_555 1_555
O3 C12 1_555 1_555
C1 N1 1_555 1_555
C2 C1 1_555 1_555
H2 C2 1_555 1_555
C3 C2 1_555 1_555
C4 C3 1_555 1_555
C5 C4 1_555 1_555
C6 C5 1_555 1_555
C7 C6 1_555 1_555
H3 C7 1_555 1_555
C8 C7 1_555 1_555
H4 C8 1_555 1_555
C9 C8 1_555 1_555
H5 C9 1_555 1_555
C10 C9 1_555 1_555
H6 C10 1_555 1_555
C11 C6 1_555 1_555
C12 C11 1_555 1_555
C13 N1 1_555 1_555
C14 C3 1_555 1_555
H7 C14 1_555 1_555
H8 C14 1_555 1_555
H9 C14 1_555 1_555
C4 C13 1_555 1_555
C10 C11 1_555 1_555
C12 C13 1_555 1_555

#END
