
#######################################################################
#
#                 Cambridge Crystallographic Data Centre
#                                CCDC 
#
#######################################################################
#
# If this CIF has been generated from an entry in the Cambridge 
# Structural Database, then it will include bibliographic, chemical, 
# crystal, experimental, refinement or atomic coordinate data resulting 
# from the CCDC's data processing and validation procedures.
#
#######################################################################

data_UQEWOE
_chemical_formula_moiety         'C54 H42'
_chemical_name_systematic        
2,7-di-t-butyl-9,18-diphenylacenaphtho[1,2-b]dibenzo[hi,mn]tetracene
_symmetry_cell_setting           orthorhombic
_symmetry_space_group_name_H-M   'P b c a'
_symmetry_Int_Tables_number      61
_space_group_name_Hall           '-P 2ac 2ab'
loop_
_symmetry_equiv_pos_site_id
_symmetry_equiv_pos_as_xyz
1 x,y,z
2 1/2-x,-y,1/2+z
3 -x,1/2+y,1/2-z
4 1/2+x,1/2-y,-z
5 -x,-y,-z
6 1/2+x,y,1/2-z
7 x,1/2-y,1/2+z
8 1/2-x,1/2+y,z
_cell_length_a                   13.0059(13)
_cell_length_b                   21.389(2)
_cell_length_c                   27.612(3)
_cell_angle_alpha                90
_cell_angle_beta                 90
_cell_angle_gamma                90
_cell_volume                     7681.19
_cell_formula_units_Z            8
loop_
_atom_site_label
_atom_site_type_symbol
_atom_site_fract_x
_atom_site_fract_y
_atom_site_fract_z
C1 C 0.81833(17) 0.34442(9) 0.62190(7)
C2 C 0.88669(17) 0.30347(9) 0.59675(8)
H1 H 0.9043 0.2653 0.6106
C3 C 0.92633(17) 0.31948(10) 0.55296(8)
C4 C 0.90005(18) 0.37848(10) 0.53126(7)
C5 C 0.83352(17) 0.41765(10) 0.55368(7)
H2 H 0.8175 0.4558 0.5393
C6 C 0.78746(17) 0.40150(9) 0.59903(7)
C7 C 0.71056(17) 0.43877(9) 0.62104(7)
C8 C 0.67077(17) 0.42278(9) 0.66665(7)
C9 C 0.57733(19) 0.45189(9) 0.68732(8)
C10 C 0.50481(19) 0.48348(9) 0.65978(8)
H3 H 0.5172 0.4876 0.6268
C11 C 0.41435(19) 0.50950(10) 0.67827(9)
C12 C 0.39775(18) 0.50362(10) 0.72734(8)
H4 H 0.3398 0.5220 0.7410
C13 C 0.4661(2) 0.47063(10) 0.75708(8)
C14 C 0.55419(19) 0.44259(10) 0.73719(8)
C15 C 0.61917(19) 0.40513(10) 0.76699(8)
C16 C 0.5992(2) 0.40087(10) 0.81754(9)
C17 C 0.6651(2) 0.36631(11) 0.84690(8)
H5 H 0.6498 0.3625 0.8797
C18 C 0.7521(2) 0.33761(10) 0.82917(8)
C19 C 0.76893(19) 0.34145(9) 0.77884(8)
H6 H 0.8275 0.3227 0.7661
C20 C 0.70212(19) 0.37189(9) 0.74719(8)
C21 C 0.72070(18) 0.37404(10) 0.69409(7)
C22 C 0.78556(17) 0.33252(10) 0.67025(8)
C23 C 0.4474(2) 0.46471(10) 0.80824(9)
H7 H 0.3900 0.4838 0.8218
C24 C 0.5116(2) 0.43215(11) 0.83651(8)
H8 H 0.4985 0.4299 0.8696
C25 C 0.99831(18) 0.28744(11) 0.52029(8)
C26 C 1.00963(18) 0.32680(10) 0.47948(8)
C27 C 0.95334(18) 0.38243(10) 0.48444(8)
C28 C 0.95707(19) 0.42522(11) 0.44774(8)
H9 H 0.9219 0.4630 0.4501
C29 C 1.0158(2) 0.41069(12) 0.40605(9)
H10 H 1.0173 0.4393 0.3807
C30 C 1.07014(19) 0.35649(13) 0.40155(9)
H11 H 1.1076 0.3488 0.3735
C31 C 1.0696(2) 0.31202(12) 0.43940(9)
C32 C 1.12431(19) 0.25512(12) 0.44159(9)
H12 H 1.1663 0.2433 0.4159
C33 C 1.1159(2) 0.21728(11) 0.48127(10)
H13 H 1.1534 0.1803 0.4821
C34 C 1.05189(19) 0.23261(10) 0.52134(8)
H14 H 1.0467 0.2058 0.5477
C35 C 0.68015(17) 0.49716(10) 0.59469(8)
C36 C 0.63601(18) 0.49626(12) 0.54909(8)
H15 H 0.6198 0.4582 0.5347
C37 C 0.6156(2) 0.55186(15) 0.52449(9)
H16 H 0.5864 0.5507 0.4938
C38 C 0.6386(2) 0.60795(15) 0.54555(12)
H17 H 0.6263 0.6450 0.5289
C39 C 0.6794(2) 0.60952(12) 0.59080(11)
H18 H 0.6931 0.6478 0.6054
C40 C 0.70067(18) 0.55472(11) 0.61524(8)
H19 H 0.7293 0.5566 0.6461
C41 C 0.8182(2) 0.27155(11) 0.69184(7)
C42 C 0.7446(2) 0.22617(11) 0.70055(7)
H20 H 0.6756 0.2352 0.6949
C43 C 0.7720(3) 0.16733(13) 0.71765(9)
H21 H 0.7219 0.1371 0.7231
C44 C 0.8733(3) 0.15427(14) 0.72635(10)
H22 H 0.8916 0.1148 0.7376
C45 C 0.9485(3) 0.19831(15) 0.71878(8)
H23 H 1.0171 0.1891 0.7252
C46 C 0.9202(2) 0.25703(11) 0.70128(8)
H24 H 0.9707 0.2870 0.6958
C47 C 0.34083(19) 0.54381(11) 0.64398(8)
C48 C 0.31321(19) 0.50229(11) 0.60077(8)
H25 H 0.3750 0.4897 0.5844
H26 H 0.2701 0.5252 0.5788
H27 H 0.2772 0.4659 0.6120
C49 C 0.3933(2) 0.60280(10) 0.62477(9)
H28 H 0.4082 0.6304 0.6513
H29 H 0.3486 0.6234 0.6022
H30 H 0.4562 0.5916 0.6088
C50 C 0.24002(19) 0.56209(10) 0.66826(8)
H31 H 0.2069 0.5253 0.6807
H32 H 0.1959 0.5820 0.6450
H33 H 0.2537 0.5905 0.6944
C51 C 0.8266(2) 0.30068(12) 0.86131(9)
C52 C 0.9358(9) 0.3199(6) 0.8520(5)
H34 H 0.9811 0.2954 0.8719
H35 H 0.9440 0.3634 0.8598
H36 H 0.9521 0.3133 0.8185
C53 C 0.8117(14) 0.2316(6) 0.8498(5)
H37 H 0.8327 0.2236 0.8171
H38 H 0.7405 0.2208 0.8536
H39 H 0.8525 0.2069 0.8716
C54 C 0.7992(11) 0.3091(6) 0.9162(3)
H40 H 0.8475 0.2862 0.9356
H41 H 0.7311 0.2936 0.9221
H42 H 0.8023 0.3526 0.9245
C55? C 0.777(2) 0.2378(12) 0.8730(9)
H43? H 0.7500 0.2197 0.8439
H44? H 0.7226 0.2438 0.8959
H45? H 0.8280 0.2103 0.8865
C56? C 0.8602(19) 0.3358(8) 0.9076(6)
H46? H 0.9058 0.3098 0.9261
H47? H 0.8007 0.3456 0.9267
H48? H 0.8949 0.3737 0.8988
C57? C 0.9313(15) 0.2864(11) 0.8359(6)
H49? H 0.9637 0.3249 0.8267
H50? H 0.9193 0.2614 0.8075
H51? H 0.9753 0.2640 0.8578
loop_
_geom_bond_atom_site_label_1
_geom_bond_atom_site_label_2
_geom_bond_site_symmetry_1
_geom_bond_site_symmetry_2
C1 C2 1_555 1_555
C2 H1 1_555 1_555
C3 C2 1_555 1_555
C4 C3 1_555 1_555
C5 C4 1_555 1_555
H2 C5 1_555 1_555
C6 C1 1_555 1_555
C7 C6 1_555 1_555
C8 C7 1_555 1_555
C9 C8 1_555 1_555
C10 C9 1_555 1_555
H3 C10 1_555 1_555
C11 C10 1_555 1_555
C12 C11 1_555 1_555
H4 C12 1_555 1_555
C13 C12 1_555 1_555
C14 C9 1_555 1_555
C15 C14 1_555 1_555
C16 C15 1_555 1_555
C17 C16 1_555 1_555
H5 C17 1_555 1_555
C18 C17 1_555 1_555
C19 C18 1_555 1_555
H6 C19 1_555 1_555
C20 C15 1_555 1_555
C21 C8 1_555 1_555
C22 C1 1_555 1_555
C23 C13 1_555 1_555
H7 C23 1_555 1_555
C24 C16 1_555 1_555
H8 C24 1_555 1_555
C25 C3 1_555 1_555
C26 C25 1_555 1_555
C27 C4 1_555 1_555
C28 C27 1_555 1_555
H9 C28 1_555 1_555
C29 C28 1_555 1_555
H10 C29 1_555 1_555
C30 C29 1_555 1_555
H11 C30 1_555 1_555
C31 C26 1_555 1_555
C32 C31 1_555 1_555
H12 C32 1_555 1_555
C33 C32 1_555 1_555
H13 C33 1_555 1_555
C34 C25 1_555 1_555
H14 C34 1_555 1_555
C35 C7 1_555 1_555
C36 C35 1_555 1_555
H15 C36 1_555 1_555
C37 C36 1_555 1_555
H16 C37 1_555 1_555
C38 C37 1_555 1_555
H17 C38 1_555 1_555
C39 C38 1_555 1_555
H18 C39 1_555 1_555
C40 C35 1_555 1_555
H19 C40 1_555 1_555
C41 C22 1_555 1_555
C42 C41 1_555 1_555
H20 C42 1_555 1_555
C43 C42 1_555 1_555
H21 C43 1_555 1_555
C44 C43 1_555 1_555
H22 C44 1_555 1_555
C45 C44 1_555 1_555
H23 C45 1_555 1_555
C46 C41 1_555 1_555
H24 C46 1_555 1_555
C47 C11 1_555 1_555
C48 C47 1_555 1_555
H25 C48 1_555 1_555
H26 C48 1_555 1_555
H27 C48 1_555 1_555
C49 C47 1_555 1_555
H28 C49 1_555 1_555
H29 C49 1_555 1_555
H30 C49 1_555 1_555
C50 C47 1_555 1_555
H31 C50 1_555 1_555
H32 C50 1_555 1_555
H33 C50 1_555 1_555
C51 C18 1_555 1_555
C52 C51 1_555 1_555
H34 C52 1_555 1_555
H35 C52 1_555 1_555
H36 C52 1_555 1_555
C53 C51 1_555 1_555
H37 C53 1_555 1_555
H38 C53 1_555 1_555
H39 C53 1_555 1_555
C54 C51 1_555 1_555
H40 C54 1_555 1_555
H41 C54 1_555 1_555
H42 C54 1_555 1_555
C5 C6 1_555 1_555
C13 C14 1_555 1_555
C19 C20 1_555 1_555
C20 C21 1_555 1_555
C21 C22 1_555 1_555
C23 C24 1_555 1_555
C26 C27 1_555 1_555
C30 C31 1_555 1_555
C33 C34 1_555 1_555
C39 C40 1_555 1_555
C45 C46 1_555 1_555

#END
