
#######################################################################
#
#                 Cambridge Crystallographic Data Centre
#                                CCDC 
#
#######################################################################
#
# If this CIF has been generated from an entry in the Cambridge 
# Structural Database, then it will include bibliographic, chemical, 
# crystal, experimental, refinement or atomic coordinate data resulting 
# from the CCDC's data processing and validation procedures.
#
#######################################################################

data_UQIBED
_chemical_formula_moiety         'C14 H16 O5'
_chemical_name_systematic        
1-(5-hydroxy-2-(3-hydroxyprop-1-en-2-yl)-3-methoxy-2,3-dihydro-1-benzofuran-6-yl)ethanone
_symmetry_cell_setting           monoclinic
_symmetry_space_group_name_H-M   'P 21'
_symmetry_Int_Tables_number      4
_space_group_name_Hall           'P 2yb'
loop_
_symmetry_equiv_pos_site_id
_symmetry_equiv_pos_as_xyz
1 x,y,z
2 -x,1/2+y,-z
_cell_length_a                   10.6178(17)
_cell_length_b                   4.4283(8)
_cell_length_c                   13.9303(18)
_cell_angle_alpha                90
_cell_angle_beta                 94.932(13)
_cell_angle_gamma                90
_cell_volume                     652.561
_exptl_crystal_colour            'light yellow'
_exptl_crystal_description       block
_cell_formula_units_Z            2
loop_
_atom_site_label
_atom_site_type_symbol
_atom_site_fract_x
_atom_site_fract_y
_atom_site_fract_z
O1 O -0.02981(18) -0.4546(6) -0.61919(13)
O2 O 0.3640(2) -0.5724(9) -0.90123(17)
O3 O 0.1691(2) -0.2747(10) -0.96378(15)
H1 H 0.2441 -0.3205 -0.9622
O4 O -0.26132(19) -0.4103(6) -0.76916(15)
O5 O -0.4325(2) -0.1482(6) -0.50854(19)
H2 H -0.4773 -0.2987 -0.5077
C1 C -0.1321(3) -0.2360(8) -0.6285(2)
H3 H -0.0979 -0.0430 -0.6037
C2 C -0.1670(3) -0.1957(9) -0.7372(2)
H4 H -0.1933 0.0115 -0.7533
C3 C 0.0058(3) -0.2170(11) -0.8619(2)
H5 H -0.0399 -0.1052 -0.9095
C4 C 0.1251(3) -0.3354(10) -0.8766(2)
C5 C 0.1947(3) -0.5019(9) -0.8055(2)
C6 C 0.1451(3) -0.5491(9) -0.7160(2)
H6 H 0.1899 -0.6583 -0.6673
C7 C 0.0296(3) -0.4300(8) -0.70310(19)
C8 C -0.0409(3) -0.2726(8) -0.7746(2)
C9 C 0.3192(3) -0.6221(11) -0.8242(2)
C10 C 0.3946(4) -0.8027(13) -0.7491(3)
H7 H 0.3491 -0.9830 -0.7357
H8 H 0.4089 -0.6851 -0.6913
H9 H 0.4743 -0.8561 -0.7721
C11 C -0.2356(3) -0.3269(8) -0.5667(2)
C12 C -0.2167(3) -0.5269(9) -0.4971(2)
H10 H -0.284(3) -0.582(8) -0.456(2)
H11 H -0.137(3) -0.650(10) -0.485(2)
C13 C -0.3581(3) -0.1639(9) -0.5887(2)
H12 H -0.3406 0.0395 -0.6098
H13 H -0.4063 -0.2656 -0.6415
C14 C -0.3119(3) -0.3602(13) -0.8665(2)
H14 H -0.2490 -0.4087 -0.9096
H15 H -0.3358 -0.1520 -0.8746
H16 H -0.3847 -0.4861 -0.8806
loop_
_geom_bond_atom_site_label_1
_geom_bond_atom_site_label_2
_geom_bond_site_symmetry_1
_geom_bond_site_symmetry_2
O1 C1 1_555 1_555
O2 C9 1_555 1_555
O3 H1 1_555 1_555
O4 C2 1_555 1_555
O5 H2 1_555 1_555
C1 H3 1_555 1_555
C2 C1 1_555 1_555
H4 C2 1_555 1_555
C3 H5 1_555 1_555
C4 O3 1_555 1_555
C5 C4 1_555 1_555
C6 C5 1_555 1_555
H6 C6 1_555 1_555
C7 O1 1_555 1_555
C8 C2 1_555 1_555
C9 C5 1_555 1_555
C10 C9 1_555 1_555
H7 C10 1_555 1_555
H8 C10 1_555 1_555
H9 C10 1_555 1_555
C11 C1 1_555 1_555
C12 C11 1_555 1_555
H10 C12 1_555 1_555
H11 C12 1_555 1_555
C13 O5 1_555 1_555
H12 C13 1_555 1_555
H13 C13 1_555 1_555
C14 O4 1_555 1_555
H14 C14 1_555 1_555
H15 C14 1_555 1_555
H16 C14 1_555 1_555
C3 C4 1_555 1_555
C3 C8 1_555 1_555
C6 C7 1_555 1_555
C7 C8 1_555 1_555
C11 C13 1_555 1_555

#END
