
#######################################################################
#
#                 Cambridge Crystallographic Data Centre
#                                CCDC 
#
#######################################################################
#
# If this CIF has been generated from an entry in the Cambridge 
# Structural Database, then it will include bibliographic, chemical, 
# crystal, experimental, refinement or atomic coordinate data resulting 
# from the CCDC's data processing and validation procedures.
#
#######################################################################

data_UQIDOP
_chemical_name_common            
'21-(2-phenylethyl)-18-(p-tolyl)-16-oxa-17,21-diazahexacyclo[6.6.5.3(15,19).0(2,7).0(9,14).0(15,19)]docoza-2(7),3,5,9(14),10,12,17-heptaene-20-hydroxy-22-one ethanol solvate'
_chemical_formula_moiety         'C34 H28 N2 O3,C2 H6 O1'
_chemical_name_systematic        
'20-hydroxy-18-(4-methylphenyl)-21-(2-phenylethyl)-16-oxa-17,21-diazahexacyclo[6.6.5.3^15,19^.0^2,7^.0^9,14^.0^15,19^]docosa-2,4,6,9,11,13,17-heptaen-22-one ethanol solvate'
_symmetry_cell_setting           monoclinic
_symmetry_space_group_name_H-M   'P 21/c'
_symmetry_Int_Tables_number      14
_space_group_name_Hall           '-P 2ybc'
loop_
_symmetry_equiv_pos_site_id
_symmetry_equiv_pos_as_xyz
1 x,y,z
2 -x,1/2+y,1/2-z
3 -x,-y,-z
4 x,1/2-y,1/2+z
_cell_length_a                   14.0919(3)
_cell_length_b                   16.6314(3)
_cell_length_c                   12.3584(3)
_cell_angle_alpha                90
_cell_angle_beta                 94.321(2)
_cell_angle_gamma                90
_cell_volume                     2888.18
_exptl_crystal_colour            colorless
_exptl_crystal_description       prism
_cell_formula_units_Z            4
loop_
_atom_site_label
_atom_site_type_symbol
_atom_site_fract_x
_atom_site_fract_y
_atom_site_fract_z
H1 H 1.0113(11) 0.4198(9) 0.3903(13)
H2 H 0.8837(11) 0.3433(9) 0.4447(12)
H3 H 1.0366(11) 0.2884(9) 0.7319(13)
H4 H 1.1653(11) 0.3657(9) 0.6774(12)
H5 H 0.8670(9) 0.1911(8) 0.4169(10)
H6 H 0.7451(10) 0.0403(9) 0.6826(11)
H7 H 0.6284(11) -0.0314(9) 0.5432(12)
H8 H 0.5709(11) -0.0495(9) 0.3590(12)
H9 H 0.6373(11) 0.0289(9) 0.2216(12)
H10 H 0.7571(10) 0.1254(9) 0.2682(12)
H11 H 0.9108(10) -0.0108(9) 0.7506(12)
H12 H 1.0771(11) -0.0136(9) 0.7295(13)
H13 H 1.1411(11) 0.0638(9) 0.5891(11)
H14 H 1.0386(10) 0.1440(9) 0.4694(12)
H15 H 0.7068(9) 0.2635(8) 0.4257(11)
H16 H 0.7001(13) 0.3791(11) 0.4800(15)
H17 H 0.4926(10) 0.2593(8) 0.5759(12)
H18 H 0.5368(10) 0.3216(9) 0.4946(11)
H19 H 0.5327(12) 0.2204(10) 0.3562(14)
H20 H 0.4928(12) 0.1565(11) 0.4403(14)
H21 H 0.3290(12) 0.1841(10) 0.5052(14)
H22 H 0.1737(13) 0.2316(11) 0.4572(15)
H23 H 0.1435(13) 0.3141(10) 0.3014(14)
H24 H 0.4262(13) 0.3044(10) 0.2500(13)
H25 H 0.2709(12) 0.3523(11) 0.1980(15)
H26 H 1.2370(15) 0.4213(12) 0.4845(15)
H27 H 1.1664(15) 0.4813(13) 0.4284(18)
H28 H 1.2010(14) 0.4937(12) 0.5529(17)
C1 C 1.10009(10) 0.40222(8) 0.52971(11)
C2 C 1.01692(10) 0.39322(8) 0.46242(11)
C3 C 0.94135(10) 0.34728(8) 0.49346(11)
C4 C 0.94651(9) 0.31008(7) 0.59475(10)
C5 C 1.03061(10) 0.31747(8) 0.66178(11)
C6 C 1.10589(10) 0.36209(8) 0.62900(11)
C7 C 0.86836(9) 0.26093(7) 0.63101(10)
C8 C 0.79486(9) 0.21599(7) 0.55837(10)
C9 C 0.74997(9) 0.16363(7) 0.64310(10)
C10 C 0.84117(9) 0.16016(7) 0.47473(10)
C11 C 0.77102(9) 0.07321(7) 0.62540(10)
C12 C 0.72653(9) 0.05532(7) 0.51207(10)
C13 C 0.65450(9) 0.00038(8) 0.48560(11)
C14 C 0.62125(10) -0.00923(8) 0.37721(12)
C15 C 0.65991(10) 0.03622(8) 0.29705(11)
C16 C 0.73088(9) 0.09269(8) 0.32352(11)
C17 C 0.76408(9) 0.10204(7) 0.43141(10)
C18 C 0.87810(9) 0.06611(7) 0.62331(10)
C19 C 0.93755(10) 0.02069(8) 0.69342(11)
C20 C 1.03491(10) 0.01990(8) 0.68085(11)
C21 C 1.07220(10) 0.06506(8) 0.59968(11)
C22 C 1.01252(9) 0.11174(8) 0.52958(11)
C23 C 0.91547(9) 0.11159(7) 0.54159(10)
C24 C 0.64430(9) 0.18222(7) 0.63112(10)
C25 C 0.71295(9) 0.26923(7) 0.50645(10)
C26 C 0.53275(9) 0.26335(8) 0.51403(11)
C27 C 0.49184(10) 0.21349(9) 0.41781(12)
C28 C 0.39180(9) 0.24017(8) 0.38252(11)
C29 C 0.31614(11) 0.21862(9) 0.44240(13)
C30 C 0.22469(11) 0.24535(9) 0.41253(14)
C31 C 0.20759(10) 0.29405(9) 0.32215(13)
C32 C 0.28210(11) 0.31578(10) 0.26227(12)
C33 C 0.37393(10) 0.28926(9) 0.29243(12)
C34 C 1.18090(11) 0.45330(10) 0.49661(14)
N1 N 0.86397(8) 0.24650(6) 0.73265(8)
N2 N 0.62815(7) 0.23634(6) 0.55198(8)
O1 O 0.78967(6) 0.19062(5) 0.74834(7)
O2 O 0.72493(7) 0.34999(5) 0.53568(8)
O3 O 0.58328(6) 0.15061(5) 0.68402(7)
H29 H 0.5913(11) 0.5145(9) 0.4563(13)
H30 H 0.5736(12) 0.5466(10) 0.2262(14)
H31 H 0.5416(14) 0.6097(12) 0.3165(15)
H32 H 0.6555(15) 0.5879(12) 0.3095(15)
H33 H 0.5088(13) 0.4761(10) 0.3774(13)
H34 H 0.6205(14) 0.4075(12) 0.3063(16)
C35 C 0.58845(12) 0.56516(9) 0.30299(14)
C36 C 0.57694(11) 0.49742(9) 0.38168(12)
O4 O 0.64118(7) 0.43276(6) 0.36635(8)
loop_
_geom_bond_atom_site_label_1
_geom_bond_atom_site_label_2
_geom_bond_site_symmetry_1
_geom_bond_site_symmetry_2
H1 C2 1_555 1_555
H2 C3 1_555 1_555
H3 C5 1_555 1_555
H4 C6 1_555 1_555
H5 C10 1_555 1_555
H6 C11 1_555 1_555
H7 C13 1_555 1_555
H8 C14 1_555 1_555
H9 C15 1_555 1_555
H10 C16 1_555 1_555
H11 C19 1_555 1_555
H12 C20 1_555 1_555
H13 C21 1_555 1_555
H14 C22 1_555 1_555
H15 C25 1_555 1_555
H16 O2 1_555 1_555
H17 C26 1_555 1_555
H18 C26 1_555 1_555
H19 C27 1_555 1_555
H20 C27 1_555 1_555
H21 C29 1_555 1_555
H22 C30 1_555 1_555
H23 C31 1_555 1_555
H24 C33 1_555 1_555
H25 C32 1_555 1_555
H26 C34 1_555 1_555
H27 C34 1_555 1_555
H28 C34 1_555 1_555
C1 C2 1_555 1_555
C2 C3 1_555 1_555
C3 C4 1_555 1_555
C4 C5 1_555 1_555
C5 C6 1_555 1_555
C6 C1 1_555 1_555
C7 C4 1_555 1_555
C8 C7 1_555 1_555
C9 C8 1_555 1_555
C10 C8 1_555 1_555
C11 C9 1_555 1_555
C12 C11 1_555 1_555
C13 C12 1_555 1_555
C14 C13 1_555 1_555
C15 C14 1_555 1_555
C16 C15 1_555 1_555
C17 C10 1_555 1_555
C18 C11 1_555 1_555
C19 C18 1_555 1_555
C20 C19 1_555 1_555
C21 C20 1_555 1_555
C22 C21 1_555 1_555
C23 C10 1_555 1_555
C24 C9 1_555 1_555
C25 C8 1_555 1_555
C26 C27 1_555 1_555
C27 C28 1_555 1_555
C28 C29 1_555 1_555
C29 C30 1_555 1_555
C30 C31 1_555 1_555
C31 C32 1_555 1_555
C32 C33 1_555 1_555
C33 C28 1_555 1_555
C34 C1 1_555 1_555
N1 C7 1_555 1_555
N2 C24 1_555 1_555
O1 C9 1_555 1_555
O2 C25 1_555 1_555
O3 C24 1_555 1_555
H29 C36 1_555 1_555
H30 C35 1_555 1_555
H31 C35 1_555 1_555
H32 C35 1_555 1_555
H33 C36 1_555 1_555
H34 O4 1_555 1_555
C35 C36 1_555 1_555
C36 O4 1_555 1_555
C12 C17 1_555 1_555
C16 C17 1_555 1_555
C18 C23 1_555 1_555
C22 C23 1_555 1_555
C25 N2 1_555 1_555
C26 N2 1_555 1_555
N1 O1 1_555 1_555

#END
