
#######################################################################
#
#                 Cambridge Crystallographic Data Centre
#                                CCDC 
#
#######################################################################
#
# If this CIF has been generated from an entry in the Cambridge 
# Structural Database, then it will include bibliographic, chemical, 
# crystal, experimental, refinement or atomic coordinate data resulting 
# from the CCDC's data processing and validation procedures.
#
#######################################################################

data_UQIFOQ
_chemical_formula_moiety         'C40 H44 F8 N4'
_chemical_name_systematic        
1,4,7,10-tetrakis(2-(2,3-difluorophenyl)ethyl)-1,4,7,10-tetraazacyclododecane
_symmetry_cell_setting           triclinic
_symmetry_space_group_name_H-M   'P -1'
_symmetry_Int_Tables_number      2
_space_group_name_Hall           '-P 1'
loop_
_symmetry_equiv_pos_site_id
_symmetry_equiv_pos_as_xyz
1 x,y,z
2 -x,-y,-z
_cell_length_a                   9.543(2)
_cell_length_b                   10.507(3)
_cell_length_c                   10.734(3)
_cell_angle_alpha                60.979(3)
_cell_angle_beta                 81.870(4)
_cell_angle_gamma                84.279(4)
_cell_volume                     931.085
_exptl_crystal_colour            colorless
_exptl_crystal_description       block
_cell_formula_units_Z            1
loop_
_atom_site_label
_atom_site_type_symbol
_atom_site_fract_x
_atom_site_fract_y
_atom_site_fract_z
C1 C 0.4324(3) 0.3768(3) 0.2135(3)
C2 C 0.4971(3) 0.2431(4) 0.2936(3)
C3 C 0.4594(4) 0.1236(4) 0.2928(4)
H1 H 0.5029 0.0334 0.3473
C4 C 0.3561(4) 0.1367(4) 0.2107(4)
H2 H 0.3283 0.0549 0.2096
C5 C 0.2931(3) 0.2706(4) 0.1297(3)
H3 H 0.2239 0.2778 0.0735
C6 C 0.3295(3) 0.3946(3) 0.1293(3)
C7 C 0.2585(3) 0.5392(3) 0.0424(3)
H4 H 0.2543 0.5530 -0.0532
H5 H 0.3152 0.6154 0.0336
C8 C 0.1089(3) 0.5544(3) 0.1071(2)
H6 H 0.0662 0.6463 0.0408
H7 H 0.0531 0.4771 0.1170
C9 C 0.1495(3) 0.6843(3) 0.2322(2)
H8 H 0.0778 0.7610 0.1913
H9 H 0.2352 0.7124 0.1660
C10 C 0.1791(2) 0.6713(3) 0.3735(3)
H10 H 0.2124 0.5724 0.4339
H11 H 0.2550 0.7353 0.3545
C11 C -0.0456(3) 0.5223(3) 0.3149(2)
H12 H -0.1097 0.5742 0.2418
H13 H -0.0622 0.5606 0.3819
C12 C 0.0782(3) 0.6384(3) 0.6063(3)
H14 H 0.0172 0.6882 0.6506
H15 H 0.1755 0.6492 0.6151
C13 C 0.0319(3) 0.8640(3) 0.3931(3)
H16 H 0.0580 0.9103 0.2904
H17 H 0.0918 0.9010 0.4334
C14 C -0.1212(3) 0.9042(3) 0.4227(3)
H18 H -0.1491 0.8531 0.5251
H19 H -0.1302 1.0079 0.3914
C15 C -0.2190(3) 0.8674(3) 0.3481(3)
C16 C -0.2989(3) 0.7448(3) 0.4160(3)
H20 H -0.2943 0.6824 0.5133
C17 C -0.3854(3) 0.7121(3) 0.3440(4)
H21 H -0.4376 0.6282 0.3928
C18 C -0.3951(3) 0.8022(3) 0.2010(4)
H22 H -0.4539 0.7813 0.1517
C19 C -0.3170(3) 0.9223(3) 0.1336(3)
C20 C -0.2303(3) 0.9539(3) 0.2051(3)
F1 F 0.47436(19) 0.4913(2) 0.2199(2)
F2 F 0.5979(2) 0.2335(2) 0.3735(2)
F3 F -0.3232(2) 1.0147(2) -0.0077(2)
F4 F -0.1564(2) 1.07678(18) 0.13148(18)
N1 N 0.1011(2) 0.5490(2) 0.24710(19)
N2 N 0.0574(2) 0.7068(2) 0.4534(2)
C1A C -0.4324(3) 0.6232(3) 0.7865(3)
C2A C -0.4971(3) 0.7569(4) 0.7064(3)
C3A C -0.4594(4) 0.8764(4) 0.7072(4)
H1A H -0.5029 0.9666 0.6527
C4A C -0.3561(4) 0.8633(4) 0.7893(4)
H2A H -0.3283 0.9451 0.7904
C5A C -0.2931(3) 0.7294(4) 0.8703(3)
H3A H -0.2239 0.7222 0.9265
C6A C -0.3295(3) 0.6054(3) 0.8707(3)
C7A C -0.2585(3) 0.4608(3) 0.9576(3)
H4A H -0.2543 0.4470 1.0532
H5A H -0.3152 0.3846 0.9664
C8A C -0.1089(3) 0.4456(3) 0.8929(2)
H6A H -0.0662 0.3537 0.9592
H7A H -0.0531 0.5229 0.8830
C9A C -0.1495(3) 0.3157(3) 0.7678(2)
H8A H -0.0778 0.2390 0.8087
H9A H -0.2352 0.2876 0.8340
C10A C -0.1791(2) 0.3287(3) 0.6265(3)
H10A H -0.2124 0.4276 0.5661
H11A H -0.2550 0.2647 0.6455
C11A C 0.0456(3) 0.4777(3) 0.6851(2)
H12A H 0.1097 0.4258 0.7582
H13A H 0.0622 0.4394 0.6181
C12A C -0.0782(3) 0.3616(3) 0.3937(3)
H14A H -0.0172 0.3118 0.3494
H15A H -0.1755 0.3508 0.3849
C13A C -0.0319(3) 0.1360(3) 0.6069(3)
H16A H -0.0580 0.0897 0.7096
H17A H -0.0918 0.0990 0.5666
C14A C 0.1212(3) 0.0958(3) 0.5773(3)
H18A H 0.1491 0.1469 0.4749
H19A H 0.1302 -0.0079 0.6086
C15A C 0.2190(3) 0.1326(3) 0.6519(3)
C16A C 0.2989(3) 0.2552(3) 0.5840(3)
H20A H 0.2943 0.3176 0.4867
C17A C 0.3854(3) 0.2879(3) 0.6560(4)
H21A H 0.4376 0.3718 0.6072
C18A C 0.3951(3) 0.1978(3) 0.7990(4)
H22A H 0.4539 0.2187 0.8483
C19A C 0.3170(3) 0.0777(3) 0.8664(3)
C20A C 0.2303(3) 0.0461(3) 0.7949(3)
F1A F -0.47436(19) 0.5087(2) 0.7801(2)
F2A F -0.5979(2) 0.7665(2) 0.6265(2)
F3A F 0.3232(2) -0.0147(2) 1.0077(2)
F4A F 0.1564(2) -0.07678(18) 0.86852(18)
N1A N -0.1011(2) 0.4510(2) 0.75290(19)
N2A N -0.0574(2) 0.2932(2) 0.5466(2)
loop_
_geom_bond_atom_site_label_1
_geom_bond_atom_site_label_2
_geom_bond_site_symmetry_1
_geom_bond_site_symmetry_2
C1 C2 1_555 1_555
C2 C3 1_555 1_555
C3 H1 1_555 1_555
C4 C3 1_555 1_555
H2 C4 1_555 1_555
C5 C4 1_555 1_555
H3 C5 1_555 1_555
C6 C1 1_555 1_555
C7 C6 1_555 1_555
H4 C7 1_555 1_555
H5 C7 1_555 1_555
C8 C7 1_555 1_555
H6 C8 1_555 1_555
H7 C8 1_555 1_555
C9 H8 1_555 1_555
H9 C9 1_555 1_555
C10 C9 1_555 1_555
H10 C10 1_555 1_555
H11 C10 1_555 1_555
C11 H12 1_555 1_555
H13 C11 1_555 1_555
C12 H14 1_555 1_555
H15 C12 1_555 1_555
C13 H16 1_555 1_555
H17 C13 1_555 1_555
C14 C13 1_555 1_555
H18 C14 1_555 1_555
H19 C14 1_555 1_555
C15 C14 1_555 1_555
C16 C15 1_555 1_555
H20 C16 1_555 1_555
C17 C16 1_555 1_555
H21 C17 1_555 1_555
C18 C17 1_555 1_555
H22 C18 1_555 1_555
C19 C18 1_555 1_555
C20 C15 1_555 1_555
F1 C1 1_555 1_555
F2 C2 1_555 1_555
F3 C19 1_555 1_555
F4 C20 1_555 1_555
N1 C8 1_555 1_555
N2 C10 1_555 1_555
C1A C2A 1_555 1_555
C2A C3A 1_555 1_555
C3A H1A 1_555 1_555
C4A C3A 1_555 1_555
H2A C4A 1_555 1_555
C5A C4A 1_555 1_555
H3A C5A 1_555 1_555
C6A C1A 1_555 1_555
C7A C6A 1_555 1_555
H4A C7A 1_555 1_555
H5A C7A 1_555 1_555
C8A C7A 1_555 1_555
H6A C8A 1_555 1_555
H7A C8A 1_555 1_555
C9A H8A 1_555 1_555
H9A C9A 1_555 1_555
C10A C9A 1_555 1_555
H10A C10A 1_555 1_555
H11A C10A 1_555 1_555
C11A C12 1_555 1_555
H12A C11A 1_555 1_555
H13A C11A 1_555 1_555
C12A C11 1_555 1_555
H14A C12A 1_555 1_555
H15A C12A 1_555 1_555
C13A H16A 1_555 1_555
H17A C13A 1_555 1_555
C14A C13A 1_555 1_555
H18A C14A 1_555 1_555
H19A C14A 1_555 1_555
C15A C14A 1_555 1_555
C16A C15A 1_555 1_555
H20A C16A 1_555 1_555
C17A C16A 1_555 1_555
H21A C17A 1_555 1_555
C18A C17A 1_555 1_555
H22A C18A 1_555 1_555
C19A C18A 1_555 1_555
C20A C15A 1_555 1_555
F1A C1A 1_555 1_555
F2A C2A 1_555 1_555
F3A C19A 1_555 1_555
F4A C20A 1_555 1_555
N1A C8A 1_555 1_555
N2A C10A 1_555 1_555
C5 C6 1_555 1_555
C9 N1 1_555 1_555
C11 N1 1_555 1_555
C12 N2 1_555 1_555
C13 N2 1_555 1_555
C19 C20 1_555 1_555
C5A C6A 1_555 1_555
C9A N1A 1_555 1_555
C11A N1A 1_555 1_555
C12A N2A 1_555 1_555
C13A N2A 1_555 1_555
C19A C20A 1_555 1_555

#END
