
#######################################################################
#
#                 Cambridge Crystallographic Data Centre
#                                CCDC 
#
#######################################################################
#
# If this CIF has been generated from an entry in the Cambridge 
# Structural Database, then it will include bibliographic, chemical, 
# crystal, experimental, refinement or atomic coordinate data resulting 
# from the CCDC's data processing and validation procedures.
#
#######################################################################

data_UQIHAE
_chemical_formula_moiety         'C13 H17 N1 O2'
_chemical_name_systematic        
6-(2-Hydroxyphenyl)-2,2-dimethylpiperidin-4-one
_symmetry_cell_setting           triclinic
_symmetry_space_group_name_H-M   'P -1'
_symmetry_Int_Tables_number      2
_space_group_name_Hall           '-P 1'
loop_
_symmetry_equiv_pos_site_id
_symmetry_equiv_pos_as_xyz
1 x,y,z
2 -x,-y,-z
_cell_length_a                   5.7313(7)
_cell_length_b                   11.8701(14)
_cell_length_c                   18.407(2)
_cell_angle_alpha                72.324(2)
_cell_angle_beta                 85.809(2)
_cell_angle_gamma                79.963(2)
_cell_volume                     1174.6
_exptl_crystal_colour            colorless
_exptl_crystal_description       plate
_cell_formula_units_Z            4
loop_
_atom_site_label
_atom_site_type_symbol
_atom_site_fract_x
_atom_site_fract_y
_atom_site_fract_z
O1 O 0.2878(2) 0.70149(12) 0.38258(9)
O2 O 1.0495(2) 0.86678(11) 0.54877(7)
H1 H 0.9774 0.8849 0.5070
N1 N 0.8373(2) 0.83354(12) 0.43621(7)
H2 H 0.9520 0.7897 0.4186
C1 C 0.7187(3) 0.74959(14) 0.49741(9)
H3 H 0.5899 0.7977 0.5181
C2 C 0.6048(3) 0.66499(16) 0.46680(11)
H4 H 0.7277 0.6027 0.4582
H5 H 0.4950 0.6267 0.5052
C3 C 0.4755(3) 0.72762(15) 0.39424(11)
C4 C 0.5902(3) 0.82028(16) 0.33618(10)
H6 H 0.4747 0.8674 0.2982
H7 H 0.7177 0.7807 0.3106
C5 C 0.6905(3) 0.90471(15) 0.37013(9)
C6 C 0.4901(3) 0.98767(16) 0.39561(11)
H8 H 0.3856 0.9408 0.4304
H9 H 0.4035 1.0394 0.3520
H10 H 0.5549 1.0352 0.4206
C7 C 0.8492(3) 0.97758(18) 0.31151(10)
H11 H 0.9097 1.0309 0.3328
H12 H 0.7595 1.0233 0.2671
H13 H 0.9789 0.9246 0.2975
C8 C 0.8911(3) 0.68580(14) 0.56134(9)
C9 C 1.0445(3) 0.74841(15) 0.58388(10)
C10 C 1.1969(4) 0.69140(18) 0.64357(11)
H14 H 1.2993 0.7338 0.6574
C11 C 1.1981(4) 0.5728(2) 0.68246(12)
H15 H 1.2997 0.5350 0.7230
C12 C 1.0493(5) 0.51025(19) 0.66143(12)
H16 H 1.0500 0.4298 0.6877
C13 C 0.8979(4) 0.56614(17) 0.60136(11)
H17 H 0.7984 0.5223 0.5876
O3 O -0.2047(2) 0.58756(11) 0.07589(8)
O4 O 0.5476(2) 0.93248(11) -0.06317(7)
H18 H 0.4779 0.8951 -0.0226
N2 N 0.3457(2) 0.77039(12) 0.04069(8)
H19 H 0.4636 0.7105 0.0539
C14 C 0.2398(3) 0.75455(15) -0.02463(9)
H20 H 0.1119 0.8224 -0.0419
C15 C 0.1272(3) 0.64029(15) -0.00410(10)
H21 H 0.0243 0.6452 -0.0449
H22 H 0.2514 0.5719 -0.0001
C16 C -0.0125(3) 0.62109(14) 0.06879(11)
C17 C 0.0987(3) 0.64183(17) 0.13306(10)
H23 H 0.2279 0.5768 0.1520
H24 H -0.0175 0.6411 0.1742
C18 C 0.1945(3) 0.76158(15) 0.10990(9)
C19 C -0.0079(4) 0.86592(17) 0.09544(12)
H25 H 0.0544 0.9398 0.0771
H26 H -0.0963 0.8637 0.1421
H27 H -0.1101 0.8604 0.0580
C20 C 0.3500(4) 0.76485(19) 0.17261(11)
H28 H 0.4827 0.7011 0.1793
H29 H 0.2593 0.7551 0.2194
H30 H 0.4062 0.8404 0.1586
C21 C 0.4242(3) 0.76377(15) -0.08929(9)
C22 C 0.5674(3) 0.85307(16) -0.10449(10)
C23 C 0.7353(3) 0.86424(18) -0.16334(10)
H31 H 0.8284 0.9243 -0.1733
C24 C 0.7647(4) 0.78746(18) -0.20669(11)
H32 H 0.8805 0.7943 -0.2452
C25 C 0.6252(4) 0.70043(18) -0.19393(11)
H33 H 0.6427 0.6499 -0.2246
C26 C 0.4568(4) 0.68822(16) -0.13473(10)
H34 H 0.3644 0.6280 -0.1256
loop_
_geom_bond_atom_site_label_1
_geom_bond_atom_site_label_2
_geom_bond_site_symmetry_1
_geom_bond_site_symmetry_2
O1 C3 1_555 1_555
O2 H1 1_555 1_555
N1 H2 1_555 1_555
C1 N1 1_555 1_555
H3 C1 1_555 1_555
C2 C1 1_555 1_555
H4 C2 1_555 1_555
H5 C2 1_555 1_555
C3 C2 1_555 1_555
C4 C3 1_555 1_555
H6 C4 1_555 1_555
H7 C4 1_555 1_555
C5 N1 1_555 1_555
C6 C5 1_555 1_555
H8 C6 1_555 1_555
H9 C6 1_555 1_555
H10 C6 1_555 1_555
C7 C5 1_555 1_555
H11 C7 1_555 1_555
H12 C7 1_555 1_555
H13 C7 1_555 1_555
C8 C1 1_555 1_555
C9 O2 1_555 1_555
C10 C9 1_555 1_555
H14 C10 1_555 1_555
C11 C10 1_555 1_555
H15 C11 1_555 1_555
C12 C11 1_555 1_555
H16 C12 1_555 1_555
C13 C8 1_555 1_555
H17 C13 1_555 1_555
O3 C16 1_555 1_555
O4 H18 1_555 1_555
N2 H19 1_555 1_555
C14 N2 1_555 1_555
H20 C14 1_555 1_555
C15 C14 1_555 1_555
H21 C15 1_555 1_555
H22 C15 1_555 1_555
C16 C15 1_555 1_555
C17 C16 1_555 1_555
H23 C17 1_555 1_555
H24 C17 1_555 1_555
C18 N2 1_555 1_555
C19 C18 1_555 1_555
H25 C19 1_555 1_555
H26 C19 1_555 1_555
H27 C19 1_555 1_555
C20 C18 1_555 1_555
H28 C20 1_555 1_555
H29 C20 1_555 1_555
H30 C20 1_555 1_555
C21 C14 1_555 1_555
C22 O4 1_555 1_555
C23 C22 1_555 1_555
H31 C23 1_555 1_555
C24 C23 1_555 1_555
H32 C24 1_555 1_555
C25 C24 1_555 1_555
H33 C25 1_555 1_555
C26 C21 1_555 1_555
H34 C26 1_555 1_555
C4 C5 1_555 1_555
C8 C9 1_555 1_555
C12 C13 1_555 1_555
C17 C18 1_555 1_555
C21 C22 1_555 1_555
C25 C26 1_555 1_555

#END
