
#######################################################################
#
#                 Cambridge Crystallographic Data Centre
#                                CCDC 
#
#######################################################################
#
# If this CIF has been generated from an entry in the Cambridge 
# Structural Database, then it will include bibliographic, chemical, 
# crystal, experimental, refinement or atomic coordinate data resulting 
# from the CCDC's data processing and validation procedures.
#
#######################################################################

data_UQILIQ
_chemical_formula_moiety         'C2 H6 O1 S1,C24 H20 F2 N2 O5'
_chemical_name_systematic        
"4',6'-bis(4-fluorophenyl)-2,2,3'-trimethyl-6',7'-dihydro-4'H-spiro[1,3-dioxane-5,5'-[1,2]oxazolo[5,4-b]pyridine]-4,6-dione dimethyl sulfoxide solvate"
_symmetry_cell_setting           monoclinic
_symmetry_space_group_name_H-M   'P 21/c'
_symmetry_Int_Tables_number      14
_space_group_name_Hall           '-P 2ybc'
loop_
_symmetry_equiv_pos_site_id
_symmetry_equiv_pos_as_xyz
1 x,y,z
2 -x,1/2+y,1/2-z
3 -x,-y,-z
4 x,1/2-y,1/2+z
_cell_length_a                   14.6241(13)
_cell_length_b                   20.681(2)
_cell_length_c                   8.7450(11)
_cell_angle_alpha                90
_cell_angle_beta                 90.5380(10)
_cell_angle_gamma                90
_cell_volume                     2644.73
_exptl_crystal_colour            colorless
_exptl_crystal_description       prism
_cell_formula_units_Z            4
loop_
_atom_site_label
_atom_site_type_symbol
_atom_site_fract_x
_atom_site_fract_y
_atom_site_fract_z
S1 S 0.4334(2) 0.26806(15) 0.7387(5)
O6 O 0.4344(4) 0.3079(2) 0.5967(6)
C25 C 0.3483(6) 0.2121(3) 0.7214(11)
H21 H 0.2901 0.2332 0.7284
H22 H 0.3542 0.1808 0.8020
H23 H 0.3528 0.1908 0.6243
C26 C 0.5263(5) 0.2182(3) 0.7249(11)
H24 H 0.5813 0.2433 0.7342
H25 H 0.5251 0.1968 0.6275
H26 H 0.5247 0.1866 0.8052
F1 F 0.0945(3) 0.7421(2) 0.1612(5)
F2 F 0.1198(3) 0.3295(2) 1.0907(5)
N1 N 0.4655(3) 0.4745(3) 0.2098(6)
N2 N 0.3660(3) 0.4345(2) 0.5630(6)
H1 H 0.3713 0.3935 0.5764
O1 O 0.4488(3) 0.43048(18) 0.3329(5)
O2 O 0.1018(3) 0.5123(2) 0.5676(5)
O3 O 0.1534(3) 0.5845(2) 0.7618(5)
O4 O 0.1928(2) 0.46331(18) 0.4143(4)
O5 O 0.2965(3) 0.60564(19) 0.8003(5)
C1 C 0.4400(4) 0.5845(3) 0.1406(7)
H2 H 0.4960 0.5792 0.0856
H3 H 0.4429 0.6235 0.2000
H4 H 0.3897 0.5870 0.0695
C2 C 0.4266(4) 0.5277(3) 0.2452(8)
C3 C 0.3797(4) 0.5241(3) 0.3877(8)
C4 C 0.3961(4) 0.4635(3) 0.4352(8)
C5 C 0.3255(4) 0.5709(3) 0.4811(6)
H5 H 0.3692 0.5966 0.5410
C6 C 0.2662(4) 0.5307(3) 0.5987(6)
C7 C 0.3252(4) 0.4749(3) 0.6749(7)
H6 H 0.3749 0.4956 0.7328
C8 C 0.1860(4) 0.5005(3) 0.5179(7)
C9 C 0.2415(5) 0.5765(3) 0.7266(7)
C10 C 0.0759(4) 0.5582(3) 0.6796(8)
C11 C 0.0282(4) 0.6129(3) 0.6016(7)
H7 H 0.0677 0.6314 0.5263
H8 H 0.0127 0.6453 0.6757
H9 H -0.0265 0.5973 0.5527
C12 C 0.0198(4) 0.5228(3) 0.7931(7)
H10 H -0.0335 0.5054 0.7432
H11 H 0.0014 0.5520 0.8724
H12 H 0.0552 0.4883 0.8368
C13 C 0.2672(4) 0.6178(3) 0.3891(8)
C14 C 0.2594(4) 0.6813(3) 0.4345(7)
H13 H 0.2924 0.6959 0.5191
C15 C 0.2025(6) 0.7236(3) 0.3548(10)
H14 H 0.1987 0.7669 0.3832
C16 C 0.1530(6) 0.7009(4) 0.2357(11)
C17 C 0.1609(5) 0.6396(4) 0.1818(8)
H15 H 0.1286 0.6262 0.0953
C18 C 0.2182(4) 0.5980(3) 0.2589(8)
H16 H 0.2246 0.5557 0.2240
C19 C 0.2710(4) 0.4345(3) 0.7866(7)
C20 C 0.2732(4) 0.4491(3) 0.9397(8)
H17 H 0.3099 0.4828 0.9747
C21 C 0.2217(5) 0.4141(4) 1.0428(8)
H18 H 0.2233 0.4241 1.1465
C22 C 0.1684(6) 0.3646(4) 0.9889(11)
C23 C 0.1651(5) 0.3486(3) 0.8395(10)
H19 H 0.1289 0.3144 0.8055
C24 C 0.2167(4) 0.3841(3) 0.7379(7)
H20 H 0.2146 0.3737 0.6344
H27? H 0.3110 0.2487 0.7472
H28? H 0.3724 0.1929 0.8133
H29? H 0.3120 0.1809 0.6671
H30? H 0.5754 0.2479 0.7058
H31? H 0.5464 0.1749 0.7046
H32? H 0.5081 0.2216 0.8298
S2? S 0.4363(16) 0.2353(11) 0.608(4)
loop_
_geom_bond_atom_site_label_1
_geom_bond_atom_site_label_2
_geom_bond_site_symmetry_1
_geom_bond_site_symmetry_2
S1 O6 1_555 1_555
F1 C16 1_555 1_555
F2 C22 1_555 1_555
N1 O1 1_555 1_555
N2 H1 1_555 1_555
O1 C4 1_555 1_555
O2 C8 1_555 1_555
O3 C9 1_555 1_555
O4 C8 1_555 1_555
O5 C9 1_555 1_555
C1 H2 1_555 1_555
H3 C1 1_555 1_555
H4 C1 1_555 1_555
C2 N1 1_555 1_555
C3 C2 1_555 1_555
C4 N2 1_555 1_555
C5 C3 1_555 1_555
H5 C5 1_555 1_555
C6 C5 1_555 1_555
C7 N2 1_555 1_555
H6 C7 1_555 1_555
C8 C6 1_555 1_555
C9 C6 1_555 1_555
C10 O2 1_555 1_555
C11 C10 1_555 1_555
H7 C11 1_555 1_555
H8 C11 1_555 1_555
H9 C11 1_555 1_555
C12 C10 1_555 1_555
H10 C12 1_555 1_555
H11 C12 1_555 1_555
H12 C12 1_555 1_555
C13 C5 1_555 1_555
C14 C13 1_555 1_555
H13 C14 1_555 1_555
C15 C14 1_555 1_555
H14 C15 1_555 1_555
C16 C15 1_555 1_555
C17 C16 1_555 1_555
H15 C17 1_555 1_555
C18 C13 1_555 1_555
H16 C18 1_555 1_555
C19 C7 1_555 1_555
C20 C19 1_555 1_555
H17 C20 1_555 1_555
C21 C20 1_555 1_555
H18 C21 1_555 1_555
C22 C21 1_555 1_555
C23 C22 1_555 1_555
H19 C23 1_555 1_555
C24 C19 1_555 1_555
H20 C24 1_555 1_555
C25 S1 1_555 1_555
H21 C25 1_555 1_555
H22 C25 1_555 1_555
H23 C25 1_555 1_555
C26 S1 1_555 1_555
H24 C26 1_555 1_555
H25 C26 1_555 1_555
H26 C26 1_555 1_555
O3 C10 1_555 1_555
C1 C2 1_555 1_555
C3 C4 1_555 1_555
C6 C7 1_555 1_555
C17 C18 1_555 1_555
C23 C24 1_555 1_555

#END
