
#######################################################################
#
#                 Cambridge Crystallographic Data Centre
#                                CCDC 
#
#######################################################################
#
# If this CIF has been generated from an entry in the Cambridge 
# Structural Database, then it will include bibliographic, chemical, 
# crystal, experimental, refinement or atomic coordinate data resulting 
# from the CCDC's data processing and validation procedures.
#
#######################################################################

data_UQILUC
_chemical_formula_moiety         'C18 H15 Cl1 N2'
_chemical_name_systematic        
1-(4-Chlorobenzylidene)-1,2,3,4-tetrahydropyrido[1,2-a]benzimidazole
_symmetry_cell_setting           triclinic
_symmetry_space_group_name_H-M   'P -1'
_symmetry_Int_Tables_number      2
_space_group_name_Hall           '-P 1'
loop_
_symmetry_equiv_pos_site_id
_symmetry_equiv_pos_as_xyz
1 x,y,z
2 -x,-y,-z
_cell_length_a                   7.0977(9)
_cell_length_b                   9.8929(12)
_cell_length_c                   10.5583(13)
_cell_angle_alpha                81.903(2)
_cell_angle_beta                 84.345(2)
_cell_angle_gamma                84.315(2)
_cell_volume                     727.673
_exptl_crystal_colour            colorless
_exptl_crystal_description       prismatic
_cell_formula_units_Z            2
loop_
_atom_site_label
_atom_site_type_symbol
_atom_site_fract_x
_atom_site_fract_y
_atom_site_fract_z
Cl1 Cl 1.36810(7) 0.91654(5) 0.91566(5)
N1 N 0.77203(19) 0.54441(15) 0.43878(12)
N2 N 0.73753(17) 0.55384(12) 0.65077(11)
C1 C 0.7781(2) 0.67902(18) 0.46066(14)
C2 C 0.7942(3) 0.7966(2) 0.37261(17)
H1 H 0.8108 0.7916 0.2849
C3 C 0.7851(3) 0.9195(2) 0.41856(19)
H2 H 0.7974 0.9993 0.3613
C4 C 0.7574(3) 0.9276(2) 0.5501(2)
H3 H 0.7488 1.0131 0.5783
C5 C 0.7426(3) 0.81303(17) 0.63896(17)
H4 H 0.7251 0.8189 0.7265
C6 C 0.7550(2) 0.68828(16) 0.59236(14)
C7 C 0.7447(2) 0.47480(16) 0.55191(14)
C8 C 0.7143(2) 0.32598(17) 0.57749(16)
H5 H 0.8246 0.2742 0.5410
H6 H 0.6056 0.3102 0.5344
C9 C 0.6811(3) 0.27278(18) 0.71930(17)
H7 H 0.8023 0.2429 0.7537
H8 H 0.6067 0.1942 0.7295
C10 C 0.5769(2) 0.38293(17) 0.79462(16)
H9 H 0.4550 0.4130 0.7612
H10 H 0.5544 0.3459 0.8843
C11 C 0.6964(2) 0.50141(15) 0.78204(14)
C12 C 0.7642(2) 0.54503(17) 0.88104(14)
H11 H 0.7096 0.5100 0.9612
C13 C 0.9106(2) 0.63911(16) 0.88481(14)
C14 C 0.8939(2) 0.72556(18) 0.97901(15)
H12 H 0.7870 0.7253 1.0375
C15 C 1.0315(2) 0.81152(17) 0.98787(15)
H13 H 1.0165 0.8700 1.0505
C16 C 1.1917(2) 0.81012(17) 0.90299(16)
C17 C 1.2149(2) 0.72372(17) 0.80914(15)
H14 H 1.3241 0.7226 0.7527
C18 C 1.0748(2) 0.63955(17) 0.80018(14)
H15 H 1.0897 0.5820 0.7367
loop_
_geom_bond_atom_site_label_1
_geom_bond_atom_site_label_2
_geom_bond_site_symmetry_1
_geom_bond_site_symmetry_2
Cl1 C16 1_555 1_555
N1 C1 1_555 1_555
N2 C6 1_555 1_555
C1 C2 1_555 1_555
C2 H1 1_555 1_555
C3 C2 1_555 1_555
H2 C3 1_555 1_555
C4 C3 1_555 1_555
H3 C4 1_555 1_555
C5 C4 1_555 1_555
H4 C5 1_555 1_555
C6 C1 1_555 1_555
C7 N1 1_555 1_555
C8 C7 1_555 1_555
H5 C8 1_555 1_555
H6 C8 1_555 1_555
C9 C8 1_555 1_555
H7 C9 1_555 1_555
H8 C9 1_555 1_555
C10 C9 1_555 1_555
H9 C10 1_555 1_555
H10 C10 1_555 1_555
C11 N2 1_555 1_555
C12 C11 1_555 1_555
H11 C12 1_555 1_555
C13 C12 1_555 1_555
C14 C13 1_555 1_555
H12 C14 1_555 1_555
C15 C14 1_555 1_555
H13 C15 1_555 1_555
C16 C15 1_555 1_555
C17 C16 1_555 1_555
H14 C17 1_555 1_555
C18 C13 1_555 1_555
H15 C18 1_555 1_555
N2 C7 1_555 1_555
C5 C6 1_555 1_555
C10 C11 1_555 1_555
C17 C18 1_555 1_555

#END
