
#######################################################################
#
#                 Cambridge Crystallographic Data Centre
#                                CCDC 
#
#######################################################################
#
# If this CIF has been generated from an entry in the Cambridge 
# Structural Database, then it will include bibliographic, chemical, 
# crystal, experimental, refinement or atomic coordinate data resulting 
# from the CCDC's data processing and validation procedures.
#
#######################################################################

data_UQIRIX
_chemical_formula_moiety         'C16 H18 F2 N4 O1 S1'
_chemical_name_systematic        
(4S,6S)-4-(5-amino-2,3-difluorophenyl)-6-(3,5-dimethylisoxazol-4-yl)-4-methyl-5,6-dihydro-4H-1,3-thiazin-2-amine
_symmetry_cell_setting           monoclinic
_symmetry_space_group_name_H-M   'C 2'
_symmetry_Int_Tables_number      5
_space_group_name_Hall           'C 2y'
loop_
_symmetry_equiv_pos_site_id
_symmetry_equiv_pos_as_xyz
1 x,y,z
2 -x,y,-z
3 1/2+x,1/2+y,z
4 1/2-x,1/2+y,-z
_cell_length_a                   13.2026(5)
_cell_length_b                   8.7799(4)
_cell_length_c                   15.1117(6)
_cell_angle_alpha                90
_cell_angle_beta                 102.4501(15)
_cell_angle_gamma                90
_cell_volume                     1710.52
_exptl_crystal_colour            colorless
_exptl_crystal_description       needle
_cell_formula_units_Z            4
_exptl_crystal_recrystallization_method ethanol
loop_
_atom_site_label
_atom_site_type_symbol
_atom_site_fract_x
_atom_site_fract_y
_atom_site_fract_z
S1 S 0.66534(4) 0.80956(9) 0.31697(3)
F1 F 0.33886(12) 0.4679(2) 0.17908(11)
F2 F 0.38219(17) 0.1752(2) 0.20051(17)
N1 N 0.63316(15) 0.8929(2) 0.47496(12)
H1 H 0.6005 0.9091 0.5175
H2 H 0.6970 0.9199 0.4818
N2 N 0.48877(13) 0.7839(2) 0.38592(11)
N3 N 0.62880(16) 0.2707(3) 0.47652(16)
H3 H 0.6454 0.1759 0.4821
H4 H 0.6587 0.3353 0.5165
N4 N 0.66310(19) 0.7228(3) 0.00397(15)
O1 O 0.64448(19) 0.8786(3) 0.01318(15)
C1 C 0.58324(15) 0.8237(3) 0.39577(13)
C2 C 0.43345(15) 0.7028(3) 0.30539(15)
C3 C 0.46615(16) 0.7565(3) 0.21898(14)
H5 H 0.4216 0.7092 0.1668
H6 H 0.4567 0.8659 0.2131
C4 C 0.57904(17) 0.7176(3) 0.21954(15)
H7 H 0.5870 0.6072 0.2279
C5 C 0.31802(17) 0.7365(3) 0.29812(18)
H8 H 0.3066 0.8445 0.2931
H9 H 0.2972 0.6994 0.3513
H10 H 0.2780 0.6869 0.2455
C6 C 0.45563(15) 0.5304(3) 0.31853(15)
C7 C 0.40845(17) 0.4249(3) 0.25432(17)
C8 C 0.4323(2) 0.2722(3) 0.2646(2)
C9 C 0.5041(2) 0.2177(3) 0.3372(2)
H11 H 0.5194 0.1143 0.3425
C10 C 0.55337(16) 0.3197(3) 0.40250(16)
C11 C 0.52773(16) 0.4742(3) 0.39237(15)
H12 H 0.5602 0.5421 0.4368
C12 C 0.61230(17) 0.7573(3) 0.13381(15)
C13 C 0.6436(2) 0.6533(4) 0.07626(19)
C14 C 0.61376(18) 0.8968(3) 0.09050(17)
C15 C 0.6555(3) 0.4860(5) 0.0829(3)
H13 H 0.6639 0.4461 0.0258
H14 H 0.5949 0.4421 0.0982
H15 H 0.7154 0.4612 0.1290
C16 C 0.5876(3) 1.0531(4) 0.1151(2)
H16 H 0.6255 1.1257 0.0874
H17 H 0.6057 1.0648 0.1797
H18 H 0.5145 1.0702 0.0940
loop_
_geom_bond_atom_site_label_1
_geom_bond_atom_site_label_2
_geom_bond_site_symmetry_1
_geom_bond_site_symmetry_2
S1 C1 1_555 1_555
F1 C7 1_555 1_555
F2 C8 1_555 1_555
N1 H1 1_555 1_555
H2 N1 1_555 1_555
N2 C1 1_555 1_555
N3 H3 1_555 1_555
H4 N3 1_555 1_555
N4 O1 1_555 1_555
O1 C14 1_555 1_555
C1 N1 1_555 1_555
C2 N2 1_555 1_555
C3 C2 1_555 1_555
H5 C3 1_555 1_555
H6 C3 1_555 1_555
C4 S1 1_555 1_555
H7 C4 1_555 1_555
C5 C2 1_555 1_555
H8 C5 1_555 1_555
H9 C5 1_555 1_555
H10 C5 1_555 1_555
C6 C2 1_555 1_555
C7 C6 1_555 1_555
C8 C7 1_555 1_555
C9 C8 1_555 1_555
H11 C9 1_555 1_555
C10 N3 1_555 1_555
C11 C6 1_555 1_555
H12 C11 1_555 1_555
C12 C4 1_555 1_555
C13 N4 1_555 1_555
C14 C12 1_555 1_555
C15 C13 1_555 1_555
H13 C15 1_555 1_555
H14 C15 1_555 1_555
H15 C15 1_555 1_555
C16 C14 1_555 1_555
H16 C16 1_555 1_555
H17 C16 1_555 1_555
H18 C16 1_555 1_555
C3 C4 1_555 1_555
C9 C10 1_555 1_555
C10 C11 1_555 1_555
C12 C13 1_555 1_555

#END
