
#######################################################################
#
#                 Cambridge Crystallographic Data Centre
#                                CCDC 
#
#######################################################################
#
# If this CIF has been generated from an entry in the Cambridge 
# Structural Database, then it will include bibliographic, chemical, 
# crystal, experimental, refinement or atomic coordinate data resulting 
# from the CCDC's data processing and validation procedures.
#
#######################################################################

data_UQIVEW
_chemical_formula_moiety         'C40 H55 N3'
_chemical_name_systematic        
1-(2,6-Diisopropylphenyl)-2,5-bis((2,6-diisopropylphenyl)imino)pyrrolidine
_symmetry_cell_setting           triclinic
_symmetry_space_group_name_H-M   'P -1'
_symmetry_Int_Tables_number      2
_space_group_name_Hall           '-P 1'
loop_
_symmetry_equiv_pos_site_id
_symmetry_equiv_pos_as_xyz
1 x,y,z
2 -x,-y,-z
_cell_length_a                   10.781(2)
_cell_length_b                   11.366(2)
_cell_length_c                   15.844(3)
_cell_angle_alpha                99.228(4)
_cell_angle_beta                 94.052(4)
_cell_angle_gamma                108.997(4)
_cell_volume                     1796.21
_exptl_crystal_colour            yellow
_exptl_crystal_description       block
_cell_formula_units_Z            2
loop_
_atom_site_label
_atom_site_type_symbol
_atom_site_fract_x
_atom_site_fract_y
_atom_site_fract_z
N1 N 0.59942(18) 0.14668(17) 0.27055(12)
N2 N 0.60141(18) -0.02743(18) 0.33225(13)
N3 N 0.55985(19) 0.27815(18) 0.18114(12)
C1 C 0.5871(2) 0.0198(2) 0.26648(15)
C2 C 0.5548(3) -0.0434(3) 0.17272(16)
H1 H 0.6233 -0.0779 0.1550
H2 H 0.4696 -0.1129 0.1626
C3 C 0.5489(3) 0.0560(2) 0.12346(17)
H3 H 0.4632 0.0298 0.0875
H4 H 0.6190 0.0720 0.0862
C4 C 0.5679(2) 0.1724(2) 0.18991(15)
C5 C 0.6289(2) 0.2440(2) 0.34729(15)
C6 C 0.7592(3) 0.3283(2) 0.37003(17)
C7 C 0.7832(3) 0.4294(3) 0.43855(19)
H5 H 0.8693 0.4887 0.4544
C8 C 0.6833(3) 0.4439(3) 0.4833(2)
H6 H 0.7014 0.5133 0.5291
C9 C 0.5577(3) 0.3586(3) 0.46189(17)
H7 H 0.4907 0.3689 0.4941
C10 C 0.5273(2) 0.2567(2) 0.39306(16)
C11 C 0.8719(3) 0.3102(3) 0.3256(2)
H8 H 0.8349 0.2506 0.2699
C12 C 0.9451(4) 0.2483(4) 0.3831(3)
H9 H 0.9893 0.3087 0.4357
H10 H 1.0101 0.2238 0.3521
H11 H 0.8817 0.1739 0.3973
C13 C 0.9690(4) 0.4316(4) 0.3081(3)
H12 H 0.9220 0.4723 0.2749
H13 H 1.0352 0.4119 0.2759
H14 H 1.0118 0.4883 0.3624
C14 C 0.3875(3) 0.1640(3) 0.37193(18)
H15 H 0.3840 0.1020 0.3194
C15 C 0.2880(3) 0.2279(4) 0.3526(3)
H16 H 0.2786 0.2788 0.4055
H17 H 0.2031 0.1637 0.3287
H18 H 0.3187 0.2819 0.3114
C16 C 0.3524(4) 0.0904(4) 0.4451(2)
H19 H 0.4182 0.0516 0.4563
H20 H 0.2660 0.0250 0.4285
H21 H 0.3507 0.1481 0.4969
C17 C 0.5786(2) -0.1613(2) 0.31728(15)
C18 C 0.4489(3) -0.2482(2) 0.30632(17)
C19 C 0.4317(3) -0.3769(3) 0.29592(19)
H22 H 0.3454 -0.4361 0.2881
C20 C 0.5362(3) -0.4195(3) 0.29673(19)
H23 H 0.5221 -0.5069 0.2884
C21 C 0.6623(3) -0.3330(3) 0.30986(18)
H24 H 0.7343 -0.3623 0.3116
C22 C 0.6868(3) -0.2034(2) 0.32066(17)
C23 C 0.3280(3) -0.2073(3) 0.3079(2)
H25 H 0.3585 -0.1140 0.3128
C24 C 0.2584(3) -0.2391(3) 0.3870(2)
H26 H 0.2273 -0.3302 0.3836
H27 H 0.1838 -0.2092 0.3882
H28 H 0.3203 -0.1980 0.4392
C25 C 0.2293(3) -0.2669(4) 0.2257(3)
H29 H 0.2728 -0.2445 0.1761
H30 H 0.1558 -0.2356 0.2289
H31 H 0.1966 -0.3584 0.2199
C26 C 0.8265(3) -0.1106(3) 0.3366(2)
H32 H 0.8230 -0.0271 0.3634
C27 C 0.9171(4) -0.1450(5) 0.3985(3)
H33 H 0.9390 -0.2159 0.3693
H34 H 0.8725 -0.1683 0.4476
H35 H 0.9975 -0.0727 0.4183
C28 C 0.8851(4) -0.0952(5) 0.2545(3)
H36 H 0.8899 -0.1757 0.2263
H37 H 0.9734 -0.0323 0.2673
H38 H 0.8301 -0.0677 0.2166
C29 C 0.5291(2) 0.2957(2) 0.09558(16)
C30 C 0.3963(3) 0.2594(2) 0.05935(17)
C31 C 0.3711(3) 0.2854(3) -0.02209(18)
H39 H 0.2830 0.2613 -0.0478
C32 C 0.4712(3) 0.3451(3) -0.06541(18)
H40 H 0.4515 0.3616 -0.1201
C33 C 0.6003(3) 0.3807(3) -0.02887(18)
H41 H 0.6685 0.4215 -0.0590
C34 C 0.6321(3) 0.3573(2) 0.05245(17)
C35 C 0.2826(3) 0.1972(3) 0.1052(2)
H42 H 0.3202 0.1841 0.1603
C36 C 0.1926(4) 0.0659(4) 0.0537(3)
H43 H 0.1569 0.0753 -0.0018
H44 H 0.1206 0.0301 0.0856
H45 H 0.2440 0.0100 0.0448
C37 C 0.2015(4) 0.2828(4) 0.1271(3)
H46 H 0.2592 0.3649 0.1590
H47 H 0.1347 0.2446 0.1619
H48 H 0.1588 0.2933 0.0742
C38 C 0.7746(3) 0.3979(3) 0.0926(2)
H49 H 0.7739 0.3812 0.1520
C39 C 0.8490(4) 0.3218(5) 0.0454(4)
H50 H 0.8629 0.3454 -0.0103
H51 H 0.7979 0.2321 0.0371
H52 H 0.9338 0.3390 0.0790
C40 C 0.8463(4) 0.5380(4) 0.0994(3)
H53 H 0.8500 0.5576 0.0420
H54 H 0.9355 0.5608 0.1284
H55 H 0.7996 0.5857 0.1320
loop_
_geom_bond_atom_site_label_1
_geom_bond_atom_site_label_2
_geom_bond_site_symmetry_1
_geom_bond_site_symmetry_2
N1 C1 1_555 1_555
N2 C1 1_555 1_555
N3 C4 1_555 1_555
C1 C2 1_555 1_555
C2 H1 1_555 1_555
H2 C2 1_555 1_555
C3 C2 1_555 1_555
H3 C3 1_555 1_555
H4 C3 1_555 1_555
C4 N1 1_555 1_555
C5 N1 1_555 1_555
C6 C5 1_555 1_555
C7 C6 1_555 1_555
H5 C7 1_555 1_555
C8 C7 1_555 1_555
H6 C8 1_555 1_555
C9 C8 1_555 1_555
H7 C9 1_555 1_555
C10 C5 1_555 1_555
C11 C6 1_555 1_555
H8 C11 1_555 1_555
C12 C11 1_555 1_555
H9 C12 1_555 1_555
H10 C12 1_555 1_555
H11 C12 1_555 1_555
C13 C11 1_555 1_555
H12 C13 1_555 1_555
H13 C13 1_555 1_555
H14 C13 1_555 1_555
C14 C10 1_555 1_555
H15 C14 1_555 1_555
C15 C14 1_555 1_555
H16 C15 1_555 1_555
H17 C15 1_555 1_555
H18 C15 1_555 1_555
C16 C14 1_555 1_555
H19 C16 1_555 1_555
H20 C16 1_555 1_555
H21 C16 1_555 1_555
C17 N2 1_555 1_555
C18 C17 1_555 1_555
C19 C18 1_555 1_555
H22 C19 1_555 1_555
C20 C19 1_555 1_555
H23 C20 1_555 1_555
C21 C20 1_555 1_555
H24 C21 1_555 1_555
C22 C17 1_555 1_555
C23 C18 1_555 1_555
H25 C23 1_555 1_555
C24 C23 1_555 1_555
H26 C24 1_555 1_555
H27 C24 1_555 1_555
H28 C24 1_555 1_555
C25 C23 1_555 1_555
H29 C25 1_555 1_555
H30 C25 1_555 1_555
H31 C25 1_555 1_555
C26 C22 1_555 1_555
H32 C26 1_555 1_555
C27 C26 1_555 1_555
H33 C27 1_555 1_555
H34 C27 1_555 1_555
H35 C27 1_555 1_555
C28 C26 1_555 1_555
H36 C28 1_555 1_555
H37 C28 1_555 1_555
H38 C28 1_555 1_555
C29 N3 1_555 1_555
C30 C29 1_555 1_555
C31 C30 1_555 1_555
H39 C31 1_555 1_555
C32 C31 1_555 1_555
H40 C32 1_555 1_555
C33 C32 1_555 1_555
H41 C33 1_555 1_555
C34 C29 1_555 1_555
C35 C30 1_555 1_555
H42 C35 1_555 1_555
C36 C35 1_555 1_555
H43 C36 1_555 1_555
H44 C36 1_555 1_555
H45 C36 1_555 1_555
C37 C35 1_555 1_555
H46 C37 1_555 1_555
H47 C37 1_555 1_555
H48 C37 1_555 1_555
C38 C34 1_555 1_555
H49 C38 1_555 1_555
C39 C38 1_555 1_555
H50 C39 1_555 1_555
H51 C39 1_555 1_555
H52 C39 1_555 1_555
C40 C38 1_555 1_555
H53 C40 1_555 1_555
H54 C40 1_555 1_555
H55 C40 1_555 1_555
C3 C4 1_555 1_555
C9 C10 1_555 1_555
C21 C22 1_555 1_555
C33 C34 1_555 1_555

#END
