
#######################################################################
#
#                 Cambridge Crystallographic Data Centre
#                                CCDC 
#
#######################################################################
#
# If this CIF has been generated from an entry in the Cambridge 
# Structural Database, then it will include bibliographic, chemical, 
# crystal, experimental, refinement or atomic coordinate data resulting 
# from the CCDC's data processing and validation procedures.
#
#######################################################################

data_UQODEL
_chemical_name_common            '(+)-(S)-medetomidine hydrochloride'
_chemical_formula_moiety         'C13 H17 N2 1+,Cl1 1-,H2 O1'
_chemical_name_systematic        
'(+)-(S)-5-(1-(2,3-dimethylphenyl)ethyl)-1H-imidazol-3-ium chloride monohydrate'
_chemical_properties_biological  'alpha2 adrenoceptor agonist; anesthetic drug'
_symmetry_cell_setting           monoclinic
_symmetry_space_group_name_H-M   'P 21'
_symmetry_Int_Tables_number      4
_space_group_name_Hall           'P 2yb'
loop_
_symmetry_equiv_pos_site_id
_symmetry_equiv_pos_as_xyz
1 x,y,z
2 -x,1/2+y,-z
_cell_length_a                   7.7979(8)
_cell_length_b                   7.4053(7)
_cell_length_c                   11.5749(12)
_cell_angle_alpha                90
_cell_angle_beta                 97.689(3)
_cell_angle_gamma                90
_cell_volume                     662.392
_exptl_crystal_colour            colorless
_exptl_crystal_description       block
_chemical_melting_point          '428 K'
_cell_formula_units_Z            2
_exptl_crystal_recrystallization_method dichloromethane/methanol
loop_
_atom_site_label
_atom_site_type_symbol
_atom_site_fract_x
_atom_site_fract_y
_atom_site_fract_z
Cl1 Cl 0.83861(9) 0.22257(14) 0.94048(10)
N1 N 0.3411(4) 0.0790(4) 0.1280(3)
H1 H 0.296(6) -0.016(6) 0.102(3)
N2 N 0.3525(4) 0.3675(4) 0.1298(3)
H2 H 0.309(6) 0.485(7) 0.133(4)
C1 C 0.2515(3) 0.2253(6) 0.1008(2)
H3 H 0.1340 0.2297 0.0661
C2 C 0.5065(4) 0.1249(5) 0.1741(3)
H4 H 0.5983 0.0438 0.1994
C3 C 0.5146(4) 0.3081(5) 0.1767(3)
C4 C 0.6638(3) 0.4334(4) 0.2168(2)
H5 H 0.7638 0.3958 0.1765
C5 C 0.6210(5) 0.6297(5) 0.1832(3)
H6 H 0.5808 0.6369 0.0994
H7 H 0.7249 0.7042 0.2019
H8 H 0.5300 0.6737 0.2268
C6 C 0.7210(3) 0.4203(4) 0.3480(2)
C7 C 0.8956(3) 0.4232(4) 0.3941(3)
C8 C 0.9416(4) 0.4233(4) 0.5152(3)
C9 C 0.8155(5) 0.4178(6) 0.5870(3)
H9 H 0.8475 0.4162 0.6692
C10 C 0.6422(5) 0.4148(7) 0.5414(3)
H10 H 0.5560 0.4119 0.5921
C11 C 0.5948(4) 0.4159(6) 0.4222(3)
H11 H 0.4759 0.4136 0.3908
C12 C 1.0364(4) 0.4285(6) 0.3160(3)
H12 H 1.0005 0.3572 0.2456
H13 H 1.1433 0.3779 0.3577
H14 H 1.0566 0.5538 0.2942
C13 C 1.1289(4) 0.4276(6) 0.5690(3)
H15 H 1.1358 0.4191 0.6540
H16 H 1.1819 0.5409 0.5481
H17 H 1.1905 0.3255 0.5397
O1 O 1.1037(10) 0.4849(13) 0.8547(7)
loop_
_geom_bond_atom_site_label_1
_geom_bond_atom_site_label_2
_geom_bond_site_symmetry_1
_geom_bond_site_symmetry_2
N1 H1 1_555 1_555
N2 H2 1_555 1_555
C1 N1 1_555 1_555
H3 C1 1_555 1_555
C2 N1 1_555 1_555
H4 C2 1_555 1_555
C3 N2 1_555 1_555
C4 C3 1_555 1_555
H5 C4 1_555 1_555
C5 C4 1_555 1_555
H6 C5 1_555 1_555
H7 C5 1_555 1_555
H8 C5 1_555 1_555
C6 C4 1_555 1_555
C7 C6 1_555 1_555
C8 C7 1_555 1_555
C9 C8 1_555 1_555
H9 C9 1_555 1_555
C10 C9 1_555 1_555
H10 C10 1_555 1_555
C11 C6 1_555 1_555
H11 C11 1_555 1_555
C12 C7 1_555 1_555
H12 C12 1_555 1_555
H13 C12 1_555 1_555
H14 C12 1_555 1_555
C13 C8 1_555 1_555
H15 C13 1_555 1_555
H16 C13 1_555 1_555
H17 C13 1_555 1_555
N2 C1 1_555 1_555
C2 C3 1_555 1_555
C10 C11 1_555 1_555

#END
