
#######################################################################
#
#                 Cambridge Crystallographic Data Centre
#                                CCDC 
#
#######################################################################
#
# If this CIF has been generated from an entry in the Cambridge 
# Structural Database, then it will include bibliographic, chemical, 
# crystal, experimental, refinement or atomic coordinate data resulting 
# from the CCDC's data processing and validation procedures.
#
#######################################################################

data_UQOPOH
_chemical_formula_moiety         'C21 H13 N1 O2'
_chemical_name_systematic        
4-hydroxy-5-phenyl-6H-pyrido[3,2,1-jk]carbazol-6-one
_symmetry_cell_setting           orthorhombic
_symmetry_space_group_name_H-M   'P b c a'
_symmetry_Int_Tables_number      61
_space_group_name_Hall           '-P 2ac 2ab'
loop_
_symmetry_equiv_pos_site_id
_symmetry_equiv_pos_as_xyz
1 x,y,z
2 1/2-x,-y,1/2+z
3 -x,1/2+y,1/2-z
4 1/2+x,1/2-y,-z
5 -x,-y,-z
6 1/2+x,y,1/2-z
7 x,1/2-y,1/2+z
8 1/2-x,1/2+y,z
_cell_length_a                   7.8116(14)
_cell_length_b                   13.870(3)
_cell_length_c                   28.363(6)
_cell_angle_alpha                90
_cell_angle_beta                 90
_cell_angle_gamma                90
_cell_volume                     3073.04
_cell_formula_units_Z            8
_exptl_crystal_recrystallization_method dichloromethane
_exptl_crystal_preparation       Luminescent
loop_
_atom_site_label
_atom_site_type_symbol
_atom_site_fract_x
_atom_site_fract_y
_atom_site_fract_z
C1 C -0.1504(4) 0.1493(2) 0.52694(11)
H1 H -0.1943 0.1121 0.5025
C2 C -0.1480(5) 0.1124(3) 0.57210(13)
H2 H -0.1919 0.0513 0.5779
C3 C -0.0809(5) 0.1656(3) 0.60860(12)
H3 H -0.0774 0.1400 0.6389
C4 C -0.0190(4) 0.2569(3) 0.60024(11)
H4 H 0.0251 0.2934 0.6249
C5 C -0.0225(4) 0.2948(2) 0.55460(11)
H5 H 0.0195 0.3566 0.5491
C6 C -0.0878(4) 0.2416(2) 0.51735(10)
C7 C -0.0891(3) 0.2813(2) 0.46895(9)
C8 C -0.0025(4) 0.2259(2) 0.43259(11)
N1 N -0.0051(3) 0.26462(18) 0.38730(8)
C9 C 0.0687(4) 0.2305(2) 0.34474(11)
C10 C 0.1546(4) 0.1454(3) 0.33613(12)
H6 H 0.1709 0.0996 0.3597
C11 C 0.2157(5) 0.1312(3) 0.29067(14)
H7 H 0.2744 0.0748 0.2835
C12 C 0.1910(5) 0.1991(4) 0.25598(15)
H8 H 0.2341 0.1876 0.2259
C13 C 0.1042(5) 0.2838(3) 0.26453(12)
H9 H 0.0883 0.3291 0.2407
C14 C 0.0408(4) 0.2998(3) 0.30983(12)
C15 C -0.0556(4) 0.3783(3) 0.33116(11)
C16 C -0.1271(5) 0.4651(3) 0.31648(13)
H10 H -0.1152 0.4853 0.2854
C17 C -0.2162(5) 0.5212(3) 0.34860(14)
H11 H -0.2661 0.5783 0.3384
C18 C -0.2334(4) 0.4944(2) 0.39594(12)
H12 H -0.2937 0.5336 0.4167
C19 C -0.1598(4) 0.4087(2) 0.41190(11)
C20 C -0.0768(4) 0.3539(2) 0.37848(11)
C21 C -0.1656(4) 0.3686(2) 0.45858(10)
O1 O 0.0684(3) 0.14678(14) 0.43910(6)
O2 O -0.2498(3) 0.42364(14) 0.48990(7)
H13 H -0.2811 0.3902 0.5121
loop_
_geom_bond_atom_site_label_1
_geom_bond_atom_site_label_2
_geom_bond_site_symmetry_1
_geom_bond_site_symmetry_2
C1 H1 1_555 1_555
C2 C1 1_555 1_555
H2 C2 1_555 1_555
C3 C2 1_555 1_555
H3 C3 1_555 1_555
C4 C3 1_555 1_555
H4 C4 1_555 1_555
C5 C4 1_555 1_555
H5 C5 1_555 1_555
C6 C1 1_555 1_555
C7 C6 1_555 1_555
C8 C7 1_555 1_555
N1 C8 1_555 1_555
C9 N1 1_555 1_555
C10 C9 1_555 1_555
H6 C10 1_555 1_555
C11 C10 1_555 1_555
H7 C11 1_555 1_555
C12 C11 1_555 1_555
H8 C12 1_555 1_555
C13 C12 1_555 1_555
H9 C13 1_555 1_555
C14 C9 1_555 1_555
C15 C14 1_555 1_555
C16 C15 1_555 1_555
H10 C16 1_555 1_555
C17 C16 1_555 1_555
H11 C17 1_555 1_555
C18 C17 1_555 1_555
H12 C18 1_555 1_555
C19 C18 1_555 1_555
C20 N1 1_555 1_555
C21 C7 1_555 1_555
O1 C8 1_555 1_555
O2 C21 1_555 1_555
H13 O2 1_555 1_555
C5 C6 1_555 1_555
C13 C14 1_555 1_555
C15 C20 1_555 1_555
C19 C20 1_555 1_555
C19 C21 1_555 1_555

#END
