
#######################################################################
#
#                 Cambridge Crystallographic Data Centre
#                                CCDC 
#
#######################################################################
#
# If this CIF has been generated from an entry in the Cambridge 
# Structural Database, then it will include bibliographic, chemical, 
# crystal, experimental, refinement or atomic coordinate data resulting 
# from the CCDC's data processing and validation procedures.
#
#######################################################################

data_UQOQEY
_chemical_name_common            'Dicyclohexylidene mannitol'
_chemical_formula_moiety         'C18 H30 O6'
_chemical_name_systematic        
1,2-bis(1,4-dioxaspiro[4.5]dec-2-yl)ethane-1,2-diol
_symmetry_cell_setting           monoclinic
_symmetry_space_group_name_H-M   'C 2'
_symmetry_Int_Tables_number      5
_space_group_name_Hall           'C 2y'
loop_
_symmetry_equiv_pos_site_id
_symmetry_equiv_pos_as_xyz
1 x,y,z
2 -x,y,-z
3 1/2+x,1/2+y,z
4 1/2-x,1/2+y,-z
_cell_length_a                   21.660(2)
_cell_length_b                   5.4890(7)
_cell_length_c                   16.9869(18)
_cell_angle_alpha                90
_cell_angle_beta                 113.084(6)
_cell_angle_gamma                90
_cell_volume                     1857.89
_exptl_crystal_colour            colorless
_exptl_crystal_description       Block
_cell_formula_units_Z            4
loop_
_atom_site_label
_atom_site_type_symbol
_atom_site_fract_x
_atom_site_fract_y
_atom_site_fract_z
C1 C 0.0479(4) 0.4113(15) 0.2027(4)
H1 H 0.0737 0.5413 0.1915
H2 H 0.0005 0.4501 0.1751
C2 C 0.0631(2) 0.1689(13) 0.1720(3)
H3 H 0.0212 0.0809 0.1406
C3 C 0.1049(2) 0.1843(10) 0.1178(3)
H4 H 0.1456 0.2773 0.1504
C4 C 0.12642(19) -0.0629(10) 0.0983(3)
H5 H 0.1438 -0.1586 0.1512
C5 C 0.18082(19) -0.0462(9) 0.0623(3)
H6 H 0.1629 0.0288 0.0054
C6 C 0.2122(2) -0.2891(11) 0.0597(3)
H7 H 0.1791 -0.4188 0.0447
H8 H 0.2337 -0.2881 0.0193
C7 C 0.2861(2) -0.0772(10) 0.1753(3)
C8 C 0.2910(2) -0.0506(11) 0.2659(3)
H9 H 0.3193 -0.1787 0.3012
H10 H 0.2467 -0.0673 0.2669
C9 C 0.3202(3) 0.1970(14) 0.3021(3)
H11 H 0.2887 0.3235 0.2714
H12 H 0.3263 0.2053 0.3617
C10 C 0.3857(3) 0.2427(13) 0.2953(4)
H13 H 0.4189 0.1299 0.3322
H14 H 0.4006 0.4068 0.3147
C11 C 0.3799(2) 0.2122(11) 0.2036(4)
H15 H 0.3512 0.3395 0.1684
H16 H 0.4239 0.2307 0.2021
C12 C 0.3516(2) -0.0315(11) 0.1671(3)
H17 H 0.3448 -0.0373 0.1072
H18 H 0.3833 -0.1584 0.1969
C13 C 0.0970(2) 0.1669(11) 0.3185(3)
C14 C 0.0529(5) 0.034(2) 0.3520(5)
H19 H 0.0080 0.0294 0.3076
H20 H 0.0687 -0.1327 0.3636
C15 C 0.0488(5) 0.134(3) 0.4293(5)
H21 H 0.0247 0.2878 0.4154
H22 H 0.0233 0.0235 0.4494
C16 C 0.1133(6) 0.174(3) 0.4969(5)
H23 H 0.1075 0.2692 0.5417
H24 H 0.1324 0.0183 0.5212
C17 C 0.1587(6) 0.296(4) 0.4698(6)
H25 H 0.2030 0.2889 0.5156
H26 H 0.1459 0.4665 0.4608
C18 C 0.1636(4) 0.200(3) 0.3892(6)
H27 H 0.1900 0.3118 0.3710
H28 H 0.1869 0.0445 0.4016
O1 O 0.0659(6) 0.3783(15) 0.2861(4)
O2 O 0.1011(2) 0.0440(9) 0.2487(2)
O3 O 0.06852(17) 0.3157(9) 0.0408(2)
H29 H 0.0464 0.2201 0.0033
O4 O 0.06968(17) -0.1878(10) 0.0371(2)
H30 H 0.0583 -0.2986 0.0610
O5 O 0.23640(12) 0.0891(6) 0.11902(17)
O6 O 0.26027(15) -0.3146(6) 0.1458(2)
loop_
_geom_bond_atom_site_label_1
_geom_bond_atom_site_label_2
_geom_bond_site_symmetry_1
_geom_bond_site_symmetry_2
C1 H1 1_555 1_555
H2 C1 1_555 1_555
C2 C1 1_555 1_555
H3 C2 1_555 1_555
C3 C2 1_555 1_555
H4 C3 1_555 1_555
C4 C3 1_555 1_555
H5 C4 1_555 1_555
C5 C4 1_555 1_555
H6 C5 1_555 1_555
C6 C5 1_555 1_555
H7 C6 1_555 1_555
H8 C6 1_555 1_555
C7 C8 1_555 1_555
C8 H9 1_555 1_555
H10 C8 1_555 1_555
C9 C8 1_555 1_555
H11 C9 1_555 1_555
H12 C9 1_555 1_555
C10 C9 1_555 1_555
H13 C10 1_555 1_555
H14 C10 1_555 1_555
C11 C10 1_555 1_555
H15 C11 1_555 1_555
H16 C11 1_555 1_555
C12 C7 1_555 1_555
H17 C12 1_555 1_555
H18 C12 1_555 1_555
C13 C14 1_555 1_555
C14 H19 1_555 1_555
H20 C14 1_555 1_555
C15 C14 1_555 1_555
H21 C15 1_555 1_555
H22 C15 1_555 1_555
C16 C15 1_555 1_555
H23 C16 1_555 1_555
H24 C16 1_555 1_555
C17 C16 1_555 1_555
H25 C17 1_555 1_555
H26 C17 1_555 1_555
C18 C13 1_555 1_555
H27 C18 1_555 1_555
H28 C18 1_555 1_555
O1 C1 1_555 1_555
O2 C2 1_555 1_555
O3 C3 1_555 1_555
H29 O3 1_555 1_555
O4 C4 1_555 1_555
H30 O4 1_555 1_555
O5 C5 1_555 1_555
O6 C6 1_555 1_555
C7 O5 1_555 1_555
C7 O6 1_555 1_555
C11 C12 1_555 1_555
C13 O1 1_555 1_555
C13 O2 1_555 1_555
C17 C18 1_555 1_555

#END
