
#######################################################################
#
#                 Cambridge Crystallographic Data Centre
#                                CCDC 
#
#######################################################################
#
# If this CIF has been generated from an entry in the Cambridge 
# Structural Database, then it will include bibliographic, chemical, 
# crystal, experimental, refinement or atomic coordinate data resulting 
# from the CCDC's data processing and validation procedures.
#
#######################################################################

data_UQOQIC
_chemical_name_common            'Diisopropylidene mannitol'
_chemical_formula_moiety         'C12 H22 O6'
_chemical_name_systematic        
1,2-bis(2,2-dimethyl-1,3-dioxolan-4-yl)ethane-1,2-diol
_symmetry_cell_setting           monoclinic
_symmetry_space_group_name_H-M   'P 21'
_symmetry_Int_Tables_number      4
_space_group_name_Hall           'P 2yb'
loop_
_symmetry_equiv_pos_site_id
_symmetry_equiv_pos_as_xyz
1 x,y,z
2 -x,1/2+y,-z
_cell_length_a                   14.199(5)
_cell_length_b                   5.526(5)
_cell_length_c                   18.342(5)
_cell_angle_alpha                90
_cell_angle_beta                 93.478(5)
_cell_angle_gamma                90
_cell_volume                     1436.53
_exptl_crystal_colour            colorless
_exptl_crystal_description       block
_cell_formula_units_Z            4
loop_
_atom_site_label
_atom_site_type_symbol
_atom_site_fract_x
_atom_site_fract_y
_atom_site_fract_z
C1 C 0.5748(3) 0.6060(7) 0.3396(2)
H1 H 0.6070 0.7404 0.3642
H2 H 0.5678 0.6407 0.2877
C2 C 0.6291(2) 0.3703(6) 0.35366(16)
H3 H 0.6433 0.2960 0.3071
C3 C 0.71876(19) 0.3960(5) 0.40165(14)
H4 H 0.7026 0.4803 0.4462
C4 C 0.76301(19) 0.1565(5) 0.42452(13)
H5 H 0.7170 0.0606 0.4498
C5 C 0.8516(2) 0.1836(6) 0.47370(16)
H6 H 0.9035 0.2372 0.4447
C6 C 0.8810(3) -0.0438(7) 0.51549(19)
H7 H 0.8529 -0.1866 0.4923
H8 H 0.9490 -0.0618 0.5189
C7 C 0.8529(3) 0.2445(7) 0.59921(18)
C8 C 0.7755(3) 0.3184(12) 0.6464(3)
H9 H 0.7801 0.4887 0.6563
H10 H 0.7811 0.2300 0.6915
H11 H 0.7155 0.2840 0.6215
C9 C 0.9483(3) 0.3176(11) 0.6307(2)
H12 H 0.9492 0.4888 0.6394
H13 H 0.9950 0.2773 0.5969
H14 H 0.9620 0.2334 0.6759
C10 C 0.4728(2) 0.3141(7) 0.37439(18)
C11 C 0.4154(3) 0.2650(11) 0.4389(2)
H15 H 0.4058 0.0939 0.4434
H16 H 0.3555 0.3448 0.4320
H17 H 0.4483 0.3251 0.4824
C12 C 0.4294(3) 0.2031(11) 0.3056(2)
H18 H 0.4222 0.0321 0.3125
H19 H 0.4696 0.2316 0.2662
H20 H 0.3688 0.2748 0.2941
O1 O 0.48630(18) 0.5652(5) 0.36805(18)
O2 O 0.56467(15) 0.2222(4) 0.38983(13)
O3 O 0.78415(15) 0.5445(3) 0.36623(10)
H21 H 0.8025 0.4729 0.3306
O4 O 0.78634(16) 0.0315(4) 0.35989(10)
H22 H 0.7832 -0.1149 0.3667
O5 O 0.8374(2) 0.3554(5) 0.52923(13)
O6 O 0.84598(17) -0.0056(5) 0.58532(13)
C13 C 0.6928(3) -0.1184(8) 0.1379(2)
H23 H 0.7360 -0.2537 0.1362
H24 H 0.6464 -0.1538 0.1732
C14 C 0.7459(3) 0.1150(6) 0.15814(18)
H25 H 0.7209 0.1863 0.2019
C15 C 0.8510(2) 0.0877(5) 0.16890(15)
H26 H 0.8729 0.0040 0.1260
C16 C 0.9025(2) 0.3285(5) 0.17563(13)
H27 H 0.8864 0.4256 0.1319
C17 C 1.0089(2) 0.2990(6) 0.18436(16)
H28 H 1.0272 0.2322 0.2327
C18 C 1.0636(3) 0.5307(7) 0.1717(2)
H29 H 1.0211 0.6674 0.1650
H30 H 1.1081 0.5638 0.2127
C19 C 1.1208(3) 0.2360(7) 0.10056(18)
C20 C 1.1191(4) 0.1753(12) 0.0207(2)
H31 H 1.1253 0.0035 0.0148
H32 H 1.1705 0.2554 -0.0010
H33 H 1.0605 0.2282 -0.0029
C21 C 1.2063(3) 0.1404(11) 0.1425(2)
H34 H 1.2100 -0.0317 0.1359
H35 H 1.2023 0.1761 0.1934
H36 H 1.2617 0.2151 0.1251
C22 C 0.6419(3) 0.1786(8) 0.0592(2)
C23 C 0.5566(3) 0.2850(12) 0.0892(4)
H37 H 0.5558 0.4565 0.0809
H38 H 0.5574 0.2539 0.1408
H39 H 0.5012 0.2135 0.0655
C24 C 0.6496(4) 0.2343(13) -0.0202(3)
H40 H 0.7057 0.1612 -0.0369
H41 H 0.6525 0.4064 -0.0269
H42 H 0.5954 0.1711 -0.0478
O7 O 0.6486(2) -0.0739(5) 0.06867(16)
O8 O 0.72503(17) 0.2675(4) 0.09709(14)
O9 O 0.87415(17) -0.0609(4) 0.23131(10)
H43 H 0.8582 0.0079 0.2682
O10 O 0.87072(17) 0.4511(4) 0.23793(10)
H44 H 0.8739 0.5977 0.2316
O11 O 1.03803(18) 0.1407(5) 0.12865(14)
O12 O 1.1107(2) 0.4874(5) 0.10850(15)
loop_
_geom_bond_atom_site_label_1
_geom_bond_atom_site_label_2
_geom_bond_site_symmetry_1
_geom_bond_site_symmetry_2
C1 H1 1_555 1_555
H2 C1 1_555 1_555
C2 C1 1_555 1_555
H3 C2 1_555 1_555
C3 C2 1_555 1_555
H4 C3 1_555 1_555
C4 C3 1_555 1_555
H5 C4 1_555 1_555
C5 C4 1_555 1_555
H6 C5 1_555 1_555
C6 C5 1_555 1_555
H7 C6 1_555 1_555
H8 C6 1_555 1_555
C7 C8 1_555 1_555
C8 H9 1_555 1_555
H10 C8 1_555 1_555
H11 C8 1_555 1_555
C9 C7 1_555 1_555
H12 C9 1_555 1_555
H13 C9 1_555 1_555
H14 C9 1_555 1_555
C10 C11 1_555 1_555
C11 H15 1_555 1_555
H16 C11 1_555 1_555
H17 C11 1_555 1_555
C12 C10 1_555 1_555
H18 C12 1_555 1_555
H19 C12 1_555 1_555
H20 C12 1_555 1_555
O1 C1 1_555 1_555
O2 C2 1_555 1_555
O3 C3 1_555 1_555
H21 O3 1_555 1_555
O4 C4 1_555 1_555
H22 O4 1_555 1_555
O5 C5 1_555 1_555
O6 C6 1_555 1_555
C13 H23 1_555 1_555
H24 C13 1_555 1_555
C14 C13 1_555 1_555
H25 C14 1_555 1_555
C15 C14 1_555 1_555
H26 C15 1_555 1_555
C16 C15 1_555 1_555
H27 C16 1_555 1_555
C17 C16 1_555 1_555
H28 C17 1_555 1_555
C18 C17 1_555 1_555
H29 C18 1_555 1_555
H30 C18 1_555 1_555
C19 C20 1_555 1_555
C20 H31 1_555 1_555
H32 C20 1_555 1_555
H33 C20 1_555 1_555
C21 C19 1_555 1_555
H34 C21 1_555 1_555
H35 C21 1_555 1_555
H36 C21 1_555 1_555
C22 C23 1_555 1_555
C23 H37 1_555 1_555
H38 C23 1_555 1_555
H39 C23 1_555 1_555
C24 C22 1_555 1_555
H40 C24 1_555 1_555
H41 C24 1_555 1_555
H42 C24 1_555 1_555
O7 C13 1_555 1_555
O8 C14 1_555 1_555
O9 C15 1_555 1_555
H43 O9 1_555 1_555
O10 C16 1_555 1_555
H44 O10 1_555 1_555
O11 C17 1_555 1_555
O12 C18 1_555 1_555
C7 O5 1_555 1_555
C7 O6 1_555 1_555
C10 O1 1_555 1_555
C10 O2 1_555 1_555
C19 O11 1_555 1_555
C19 O12 1_555 1_555
C22 O7 1_555 1_555
C22 O8 1_555 1_555

#END
