
#######################################################################
#
#                 Cambridge Crystallographic Data Centre
#                                CCDC 
#
#######################################################################
#
# If this CIF has been generated from an entry in the Cambridge 
# Structural Database, then it will include bibliographic, chemical, 
# crystal, experimental, refinement or atomic coordinate data resulting 
# from the CCDC's data processing and validation procedures.
#
#######################################################################

data_UQOTUR
_chemical_formula_moiety         'C30 H20 N2 O2'
_chemical_name_systematic        
3'-anilino-3-hydroxy-1'-(phenylimino)-1H,1'H-2,2'-biinden-1-one
_symmetry_cell_setting           monoclinic
_symmetry_space_group_name_H-M   'P 21/n'
_symmetry_Int_Tables_number      14
_space_group_name_Hall           '-P 2yn'
loop_
_symmetry_equiv_pos_site_id
_symmetry_equiv_pos_as_xyz
1 x,y,z
2 1/2-x,1/2+y,1/2-z
3 -x,-y,-z
4 1/2+x,1/2-y,1/2+z
_cell_length_a                   16.977(8)
_cell_length_b                   5.910(3)
_cell_length_c                   21.307(13)
_cell_angle_alpha                90
_cell_angle_beta                 101.97(3)
_cell_angle_gamma                90
_cell_volume                     2091.33
_exptl_crystal_colour            'dark red'
_exptl_crystal_description       needle
_cell_formula_units_Z            4
loop_
_atom_site_label
_atom_site_type_symbol
_atom_site_fract_x
_atom_site_fract_y
_atom_site_fract_z
C1 C 1.0546(6) 0.518(2) 0.2013(6)
C2 C 1.1044(6) 0.317(2) 0.2287(6)
C3 C 1.1414(5) 0.1509(19) 0.2029(6)
H1 H 1.1387 0.1460 0.1589
C4 C 1.1830(6) -0.010(2) 0.2421(6)
H2 H 1.2082 -0.1263 0.2243
C5 C 1.1885(6) -0.005(2) 0.3076(6)
H3 H 1.2169 -0.1170 0.3334
C6 C 1.1519(6) 0.167(2) 0.3346(6)
H4 H 1.1563 0.1748 0.3787
C7 C 1.1090(6) 0.325(2) 0.2947(6)
C8 C 1.0622(6) 0.5240(19) 0.3108(6)
C9 C 1.0258(6) 0.636(2) 0.2495(6)
C10 C 0.9753(6) 0.840(2) 0.2442(5)
C11 C 0.9385(6) 0.948(2) 0.1855(6)
C12 C 0.8905(5) 1.1477(18) 0.1990(6)
C13 C 0.8465(6) 1.310(2) 0.1629(6)
H5 H 0.8414 1.3059 0.1186
C14 C 0.8089(6) 1.481(2) 0.1899(6)
H6 H 0.7793 1.5909 0.1640
C15 C 0.8154(6) 1.486(2) 0.2539(6)
H7 H 0.7911 1.6032 0.2721
C16 C 0.8584(5) 1.3188(18) 0.2939(6)
H8 H 0.8617 1.3232 0.3380
C17 C 0.8953(6) 1.1494(18) 0.2670(5)
C18 C 0.9472(6) 0.9513(19) 0.2926(6)
C19 C 0.9093(6) 0.988(2) 0.0667(5)
C20 C 0.8428(6) 0.899(2) 0.0303(6)
H9 H 0.8178 0.7751 0.0448
C21 C 0.8113(6) 0.994(2) -0.0298(6)
H10 H 0.7661 0.9316 -0.0564
C22 C 0.8483(6) 1.179(2) -0.0485(6)
H11 H 0.8265 1.2441 -0.0881
C23 C 0.9142(7) 1.272(2) -0.0128(5)
H12 H 0.9379 1.3972 -0.0277
C24 C 0.9472(6) 1.180(2) 0.0467(6)
H13 H 0.9929 1.2422 0.0726
C25 C 0.9240(6) 0.982(2) 0.4036(5)
C26 C 0.8675(6) 0.863(2) 0.4250(6)
H14 H 0.8492 0.7285 0.4042
C27 C 0.8348(6) 0.932(2) 0.4771(6)
H15 H 0.7964 0.8453 0.4916
C28 C 0.8632(7) 1.137(2) 0.5064(6)
H16 H 0.8411 1.1929 0.5398
C29 C 0.9223(7) 1.2576(19) 0.4869(5)
H17 H 0.9408 1.3904 0.5084
C30 C 0.9559(6) 1.1874(19) 0.4356(6)
H18 H 0.9968 1.2688 0.4228
N1 N 0.9450(5) 0.8857(15) 0.1285(5)
N2 N 0.9599(5) 0.8965(17) 0.3546(5)
O1 O 1.0436(4) 0.5529(14) 0.1422(4)
O2 O 1.0590(4) 0.5661(13) 0.3672(4)
H19 H 0.988(4) 0.702(14) 0.130(4)
H20 H 1.005(5) 0.757(14) 0.360(4)
loop_
_geom_bond_atom_site_label_1
_geom_bond_atom_site_label_2
_geom_bond_site_symmetry_1
_geom_bond_site_symmetry_2
C1 C2 1_555 1_555
C2 C3 1_555 1_555
C3 H1 1_555 1_555
C4 C3 1_555 1_555
H2 C4 1_555 1_555
C5 C4 1_555 1_555
H3 C5 1_555 1_555
C6 C5 1_555 1_555
H4 C6 1_555 1_555
C7 C2 1_555 1_555
C8 C7 1_555 1_555
C9 C1 1_555 1_555
C10 C9 1_555 1_555
C11 C10 1_555 1_555
C12 C11 1_555 1_555
C13 C12 1_555 1_555
H5 C13 1_555 1_555
C14 C13 1_555 1_555
H6 C14 1_555 1_555
C15 C14 1_555 1_555
H7 C15 1_555 1_555
C16 C15 1_555 1_555
H8 C16 1_555 1_555
C17 C12 1_555 1_555
C18 C10 1_555 1_555
C19 C20 1_555 1_555
C20 H9 1_555 1_555
C21 C20 1_555 1_555
H10 C21 1_555 1_555
C22 C21 1_555 1_555
H11 C22 1_555 1_555
C23 C22 1_555 1_555
H12 C23 1_555 1_555
C24 C19 1_555 1_555
H13 C24 1_555 1_555
C25 C26 1_555 1_555
C26 H14 1_555 1_555
C27 C26 1_555 1_555
H15 C27 1_555 1_555
C28 C27 1_555 1_555
H16 C28 1_555 1_555
C29 C28 1_555 1_555
H17 C29 1_555 1_555
C30 C25 1_555 1_555
H18 C30 1_555 1_555
N1 C11 1_555 1_555
N2 C18 1_555 1_555
O1 C1 1_555 1_555
O2 C8 1_555 1_555
H19 O1 1_555 1_555
H20 N2 1_555 1_555
C6 C7 1_555 1_555
C8 C9 1_555 1_555
C16 C17 1_555 1_555
C17 C18 1_555 1_555
C19 N1 1_555 1_555
C23 C24 1_555 1_555
C25 N2 1_555 1_555
C29 C30 1_555 1_555

#END
