
#######################################################################
#
#                 Cambridge Crystallographic Data Centre
#                                CCDC 
#
#######################################################################
#
# If this CIF has been generated from an entry in the Cambridge 
# Structural Database, then it will include bibliographic, chemical, 
# crystal, experimental, refinement or atomic coordinate data resulting 
# from the CCDC's data processing and validation procedures.
#
#######################################################################

data_UQOVIH
_chemical_name_common            
'methyl 2-(4-bromophenyl)-3-(2,6,6-trimethyltricyclo[5.3.1.0$1,5!]undec-8-en-8-yl)propanoate'
_chemical_formula_moiety         'C24 H31 Br1 O2'
_chemical_name_systematic        
'methyl (2R)-2-(4-bromophenyl)-3-((3R,3aS,8aS)-3,8,8-trimethyl-2,3,4,7,8,8a-hexahydro-1H-3a,7-methanoazulen-6-yl)propanoate'
_symmetry_cell_setting           orthorhombic
_symmetry_space_group_name_H-M   'P 21 21 21'
_symmetry_Int_Tables_number      19
_space_group_name_Hall           'P 2ac 2ab'
loop_
_symmetry_equiv_pos_site_id
_symmetry_equiv_pos_as_xyz
1 x,y,z
2 1/2-x,-y,1/2+z
3 1/2+x,1/2-y,-z
4 -x,1/2+y,1/2-z
_cell_length_a                   5.7478(16)
_cell_length_b                   19.923(5)
_cell_length_c                   37.012(10)
_cell_angle_alpha                90
_cell_angle_beta                 90
_cell_angle_gamma                90
_cell_volume                     4238.37
_exptl_crystal_colour            colorless
_exptl_crystal_description       plate
_cell_formula_units_Z            8
loop_
_atom_site_label
_atom_site_type_symbol
_atom_site_fract_x
_atom_site_fract_y
_atom_site_fract_z
Br1 Br 0.0915(5) 0.08834(12) 0.02764(6)
O1 O 0.180(3) 0.3781(8) 0.1365(4)
O2 O 0.561(2) 0.3893(7) 0.1187(4)
C1 C 0.148(4) 0.1793(11) 0.0418(6)
C2 C 0.101(3) 0.5020(10) 0.0739(5)
C3 C 0.110(5) 0.7172(11) 0.0330(6)
H1 H 0.1654 0.7185 0.0083
H2 H -0.0318 0.7434 0.0344
C4 C 0.271(4) 0.3830(11) 0.0725(6)
H3 H 0.4079 0.3986 0.0593
C5 C 0.166(3) 0.5838(10) 0.0211(5)
C6 C 0.022(4) 0.2795(12) 0.0728(6)
H4 H -0.0831 0.3015 0.0879
C7 C -0.026(4) 0.2113(11) 0.0611(6)
H5 H -0.1663 0.1902 0.0662
C8 C -0.001(4) 0.6038(10) 0.1088(5)
H6 H 0.0543 0.6096 0.1334
H7 H -0.1540 0.6241 0.1071
C9 C 0.325(4) 0.3835(10) 0.1126(5)
C10 C 0.225(4) 0.7143(11) 0.0938(6)
H8 H 0.3614 0.7149 0.1096
C11 C 0.068(4) 0.4307(11) 0.0647(6)
H9 H 0.0318 0.4279 0.0391
H10 H -0.0675 0.4146 0.0777
C12 C 0.025(4) 0.7535(13) 0.1114(7)
H11 H 0.0762 0.7983 0.1169
H12 H -0.0211 0.7314 0.1334
H13 H -0.1048 0.7554 0.0952
C13 C 0.278(3) 0.5406(10) 0.0529(5)
H14 H 0.4006 0.5109 0.0437
C14 C 0.367(4) 0.6079(10) -0.0047(5)
H15 H 0.5002 0.6202 0.0094
H16 H 0.3146 0.6461 -0.0183
H17 H 0.4075 0.5722 -0.0209
C15 C 0.383(4) 0.5957(10) 0.0787(5)
H18 H 0.4321 0.5770 0.1017
H19 H 0.5123 0.6194 0.0676
C16 C 0.396(4) 0.2772(10) 0.0396(5)
H20 H 0.5309 0.2988 0.0323
C17 C 0.060(4) 0.6445(10) 0.0440(5)
H21 H -0.1088 0.6385 0.0458
C18 C -0.020(3) 0.5301(10) 0.1006(5)
H22 H -0.1183 0.5035 0.1145
C19 C 0.221(4) 0.3120(11) 0.0616(6)
C20 C 0.286(4) 0.7463(11) 0.0570(6)
H23 H 0.2734 0.7948 0.0579
H24 H 0.4421 0.7341 0.0494
C21 C -0.011(4) 0.5493(11) -0.0003(6)
H25 H 0.0485 0.5069 -0.0084
H26 H -0.0517 0.5764 -0.0208
H27 H -0.1470 0.5420 0.0143
C22 C 0.352(4) 0.2105(10) 0.0301(6)
H28 H 0.4581 0.1870 0.0160
C23 C 0.619(4) 0.3890(13) 0.1565(6)
H29 H 0.7690 0.4090 0.1599
H30 H 0.6211 0.3436 0.1651
H31 H 0.5041 0.4142 0.1696
C24 C 0.167(4) 0.6403(10) 0.0825(5)
Br2 Br 0.8449(5) 0.00980(12) 0.29553(7)
O3 O 0.549(2) 0.3353(8) 0.2387(4)
O4 O 0.180(3) 0.3202(7) 0.2546(4)
C25 C 0.283(3) 0.4877(13) 0.4013(5)
H32 H 0.3495 0.4976 0.4245
H33 H 0.1974 0.4463 0.4027
H34 H 0.1793 0.5233 0.3944
C26 C 0.430(4) 0.1753(11) 0.3138(6)
H35 H 0.2889 0.1834 0.3252
C27 C 0.480(3) 0.4808(11) 0.3727(5)
C28 C 0.853(4) 0.1481(10) 0.2796(5)
H36 H 0.9936 0.1382 0.2683
C29 C 0.575(4) 0.5505(11) 0.3580(6)
H37 H 0.7450 0.5488 0.3555
C30 C 0.504(4) 0.6125(12) 0.3790(6)
H38 H 0.6343 0.6430 0.3817
H39 H 0.4475 0.6004 0.4029
C31 C 0.106(4) 0.3359(12) 0.2191(6)
H40 H 0.0734 0.2952 0.2062
H41 H 0.2274 0.3601 0.2069
H42 H -0.0313 0.3630 0.2202
C32 C 0.388(4) 0.4470(11) 0.3388(5)
H43 H 0.2778 0.4112 0.3451
C33 C 0.723(4) 0.0988(10) 0.2964(6)
C34 C 0.651(4) 0.3472(11) 0.3158(6)
H44 H 0.6803 0.3338 0.3406
H45 H 0.7952 0.3421 0.3025
C35 C 0.556(4) 0.2297(10) 0.2978(6)
C36 C 0.552(5) 0.6810(15) 0.3042(7)
H46 H 0.6991 0.6707 0.3153
H47 H 0.5068 0.7258 0.3105
H48 H 0.5672 0.6774 0.2784
C37 C 0.581(4) 0.4201(11) 0.3154(5)
C38 C 0.687(4) 0.4635(11) 0.2919(6)
H49 H 0.8013 0.4465 0.2767
C39 C 0.460(4) 0.5592(12) 0.3205(6)
C40 C 0.766(4) 0.2120(11) 0.2804(6)
H50 H 0.8493 0.2457 0.2689
C41 C 0.407(4) 0.3209(11) 0.2598(6)
C42 C 0.370(5) 0.6320(12) 0.3173(6)
H51 H 0.2324 0.6338 0.3018
C43 C 0.304(4) 0.6460(12) 0.3561(6)
H52 H 0.1544 0.6261 0.3618
H53 H 0.2966 0.6939 0.3606
C44 C 0.465(4) 0.2988(10) 0.2993(6)
H54 H 0.3230 0.2999 0.3140
C45 C 0.262(4) 0.5053(11) 0.3197(6)
H55 H 0.1254 0.5200 0.3331
H56 H 0.2170 0.4937 0.2953
C46 C 0.517(4) 0.1115(11) 0.3124(6)
H57 H 0.4324 0.0764 0.3226
C47 C 0.671(4) 0.4412(11) 0.3909(6)
H58 H 0.6345 0.4360 0.4161
H59 H 0.8156 0.4647 0.3884
H60 H 0.6828 0.3978 0.3798
C48 C 0.630(4) 0.5354(11) 0.2892(6)
H61 H 0.5577 0.5440 0.2660
H62 H 0.7726 0.5613 0.2903
loop_
_geom_bond_atom_site_label_1
_geom_bond_atom_site_label_2
_geom_bond_site_symmetry_1
_geom_bond_site_symmetry_2
Br1 C1 1_555 1_555
O1 C9 1_555 1_555
O2 C9 1_555 1_555
C1 C7 1_555 1_555
C2 C11 1_555 1_555
C3 H1 1_555 1_555
H2 C3 1_555 1_555
C4 H3 1_555 1_555
C5 C13 1_555 1_555
C6 H4 1_555 1_555
C7 C6 1_555 1_555
H5 C7 1_555 1_555
C8 H6 1_555 1_555
H7 C8 1_555 1_555
C9 C4 1_555 1_555
C10 H8 1_555 1_555
C11 C4 1_555 1_555
H9 C11 1_555 1_555
H10 C11 1_555 1_555
C12 C10 1_555 1_555
H11 C12 1_555 1_555
H12 C12 1_555 1_555
H13 C12 1_555 1_555
C13 C2 1_555 1_555
H14 C13 1_555 1_555
C14 C5 1_555 1_555
H15 C14 1_555 1_555
H16 C14 1_555 1_555
H17 C14 1_555 1_555
C15 C13 1_555 1_555
H18 C15 1_555 1_555
H19 C15 1_555 1_555
C16 H20 1_555 1_555
C17 C3 1_555 1_555
H21 C17 1_555 1_555
C18 C2 1_555 1_555
H22 C18 1_555 1_555
C19 C4 1_555 1_555
C20 C3 1_555 1_555
H23 C20 1_555 1_555
H24 C20 1_555 1_555
C21 C5 1_555 1_555
H25 C21 1_555 1_555
H26 C21 1_555 1_555
H27 C21 1_555 1_555
C22 C1 1_555 1_555
H28 C22 1_555 1_555
C23 O2 1_555 1_555
H29 C23 1_555 1_555
H30 C23 1_555 1_555
H31 C23 1_555 1_555
C24 C8 1_555 1_555
Br2 C33 1_555 1_555
O3 C41 1_555 1_555
O4 C31 1_555 1_555
C25 H32 1_555 1_555
H33 C25 1_555 1_555
H34 C25 1_555 1_555
C26 H35 1_555 1_555
C27 C25 1_555 1_555
C28 H36 1_555 1_555
C29 C27 1_555 1_555
H37 C29 1_555 1_555
C30 C29 1_555 1_555
H38 C30 1_555 1_555
H39 C30 1_555 1_555
C31 H40 1_555 1_555
H41 C31 1_555 1_555
H42 C31 1_555 1_555
C32 C27 1_555 1_555
H43 C32 1_555 1_555
C33 C28 1_555 1_555
C34 H44 1_555 1_555
H45 C34 1_555 1_555
C35 C26 1_555 1_555
C36 H46 1_555 1_555
H47 C36 1_555 1_555
H48 C36 1_555 1_555
C37 C32 1_555 1_555
C38 C37 1_555 1_555
H49 C38 1_555 1_555
C39 C29 1_555 1_555
C40 C28 1_555 1_555
H50 C40 1_555 1_555
C41 O4 1_555 1_555
C42 C36 1_555 1_555
H51 C42 1_555 1_555
C43 C30 1_555 1_555
H52 C43 1_555 1_555
H53 C43 1_555 1_555
C44 C34 1_555 1_555
H54 C44 1_555 1_555
C45 C32 1_555 1_555
H55 C45 1_555 1_555
H56 C45 1_555 1_555
C46 C26 1_555 1_555
H57 C46 1_555 1_555
C47 C27 1_555 1_555
H58 C47 1_555 1_555
H59 C47 1_555 1_555
H60 C47 1_555 1_555
C48 C38 1_555 1_555
H61 C48 1_555 1_555
H62 C48 1_555 1_555
C5 C17 1_555 1_555
C6 C19 1_555 1_555
C8 C18 1_555 1_555
C10 C20 1_555 1_555
C10 C24 1_555 1_555
C15 C24 1_555 1_555
C16 C19 1_555 1_555
C16 C22 1_555 1_555
C17 C24 1_555 1_555
C33 C46 1_555 1_555
C34 C37 1_555 1_555
C35 C40 1_555 1_555
C35 C44 1_555 1_555
C39 C42 1_555 1_555
C39 C45 1_555 1_555
C39 C48 1_555 1_555
C41 C44 1_555 1_555
C42 C43 1_555 1_555

#END
