
#######################################################################
#
#                 Cambridge Crystallographic Data Centre
#                                CCDC 
#
#######################################################################
#
# If this CIF has been generated from an entry in the Cambridge 
# Structural Database, then it will include bibliographic, chemical, 
# crystal, experimental, refinement or atomic coordinate data resulting 
# from the CCDC's data processing and validation procedures.
#
#######################################################################

data_UQUCAL
_chemical_formula_moiety         '4(C2 H8 N1 1+),C8 H28 Mg2 O30 P8 4-'
_chemical_name_systematic        
"tetrakis(Dimethylammonium) bis(\m~2~-(1-hydroxyethane-1,1-diyl)bis(hydrogen phosphonate)-O,O',O'')-bis((1-hydroxyethane-1,1-diyl)bis(hydrogen phosphonate)-O,O')-di-magnesium"
_symmetry_cell_setting           monoclinic
_symmetry_space_group_name_H-M   'P 21/c'
_symmetry_Int_Tables_number      14
_space_group_name_Hall           '-P 2ybc'
loop_
_symmetry_equiv_pos_site_id
_symmetry_equiv_pos_as_xyz
1 x,y,z
2 -x,1/2+y,1/2-z
3 -x,-y,-z
4 x,1/2-y,1/2+z
_cell_length_a                   12.5530(16)
_cell_length_b                   11.8201(15)
_cell_length_c                   14.8107(19)
_cell_angle_alpha                90
_cell_angle_beta                 95.173(1)
_cell_angle_gamma                90
_cell_volume                     2188.63
_exptl_crystal_colour            colorless
_exptl_crystal_description       block
_cell_formula_units_Z            2
loop_
_atom_site_label
_atom_site_type_symbol
_atom_site_fract_x
_atom_site_fract_y
_atom_site_fract_z
Mg1 Mg 0.79391(8) -0.00836(9) 0.98090(7)
P1 P 0.91188(7) 0.18197(8) 0.86176(6)
P2 P 0.98761(7) 0.16393(7) 1.06223(6)
P3 P 0.64408(7) -0.17222(8) 1.10440(6)
P4 P 0.58712(7) -0.16046(8) 0.90025(5)
O1 O 0.83136(18) 0.0907(2) 0.87437(15)
O2 O 0.8823(2) 0.2647(2) 0.78613(16)
O3 O 1.02236(18) 0.1299(2) 0.84077(16)
H1 H 1.0334 0.0696 0.8715
O4 O 0.90695(18) 0.07025(19) 1.07313(14)
O5 O 1.0012(2) 0.2400(2) 1.14882(16)
H2 H 0.9533 0.2228 1.1834
O6 O 0.90243(18) -0.1301(2) 0.95979(15)
O7 O 0.8314(2) 0.3050(2) 0.99075(19)
H3 H 0.7856 0.2520 0.9907
O8 O 0.53400(17) -0.1160(2) 1.12205(15)
H4 H 0.5356 -0.0464 1.1079
O9 O 0.6714(2) -0.2549(2) 1.18039(15)
O10 O 0.72688(17) -0.0828(2) 1.09032(14)
O11 O 0.48608(18) -0.0960(2) 0.91419(16)
O12 O 0.5619(2) -0.2441(2) 0.81941(16)
H5 H 0.6057 -0.2322 0.7799
O13 O 0.68358(17) -0.0883(2) 0.88862(14)
O14 O 0.7222(2) -0.3080(2) 0.98487(17)
H6 H 0.7695 -0.2579 0.9784
O15 O 0.67870(17) 0.1277(2) 0.99136(16)
H7 H 0.6510 0.1452 0.9387
H8 H 0.6301 0.1061 1.0239
C1 C 0.6219(3) -0.2524(3) 0.9982(2)
C2 C 0.5392(3) -0.3456(3) 1.0058(3)
H13 H 0.5291 -0.3860 0.9495
H14 H 0.4726 -0.3126 1.0193
H15 H 0.5640 -0.3968 1.0534
C3 C 0.9335(3) 0.2579(3) 0.9704(2)
C4 C 1.0104(3) 0.3547(3) 0.9627(3)
H16 H 1.0211 0.3933 1.0198
H17 H 0.9816 0.4064 0.9169
H18 H 1.0776 0.3259 0.9465
Mg1B Mg 1.20609(8) 0.00836(9) 1.01910(7)
P1B P 1.08812(7) -0.18197(8) 1.13824(6)
P2B P 1.01239(7) -0.16393(7) 0.93777(6)
P3B P 1.35592(7) 0.17222(8) 0.89560(6)
P4B P 1.41288(7) 0.16046(8) 1.09975(5)
O1B O 1.16864(18) -0.0907(2) 1.12563(15)
O2B O 1.1177(2) -0.2647(2) 1.21387(16)
O3B O 0.97764(18) -0.1299(2) 1.15923(16)
H1B H 0.9666 -0.0696 1.1285
O4B O 1.09305(18) -0.07025(19) 0.92687(14)
O5B O 0.9988(2) -0.2400(2) 0.85118(16)
H2B H 1.0467 -0.2228 0.8166
O6B O 1.09757(18) 0.1301(2) 1.04021(15)
O7B O 1.1686(2) -0.3050(2) 1.00925(19)
H3B H 1.2144 -0.2520 1.0093
O8B O 1.46600(17) 0.1160(2) 0.87795(15)
H4B H 1.4644 0.0464 0.8921
O9B O 1.3286(2) 0.2549(2) 0.81961(15)
O10B O 1.27312(17) 0.0828(2) 0.90968(14)
O11B O 1.51392(18) 0.0960(2) 1.08581(16)
O12B O 1.4381(2) 0.2441(2) 1.18059(16)
H5B H 1.3943 0.2322 1.2201
O13B O 1.31642(17) 0.0883(2) 1.11138(14)
O14B O 1.2778(2) 0.3080(2) 1.01513(17)
H6B H 1.2305 0.2579 1.0216
O15B O 1.32130(17) -0.1277(2) 1.00864(16)
H7B H 1.3490 -0.1452 1.0613
H8B H 1.3699 -0.1061 0.9761
C1B C 1.3781(3) 0.2524(3) 1.0018(2)
C2B C 1.4608(3) 0.3456(3) 0.9942(3)
H13B H 1.4709 0.3860 1.0505
H14B H 1.5274 0.3126 0.9807
H15B H 1.4360 0.3968 0.9466
C3B C 1.0665(3) -0.2579(3) 1.0296(2)
C4B C 0.9896(3) -0.3547(3) 1.0373(3)
H16B H 0.9789 -0.3933 0.9802
H17B H 1.0184 -0.4064 1.0831
H18B H 0.9224 -0.3259 1.0535
N1 N 0.7384(3) 0.5230(3) 0.2140(2)
H9 H 0.7682 0.4804 0.2599
H10 H 0.7270 0.5788 0.2534
C5 C 0.6621(6) 0.4326(5) 0.1899(4)
H19 H 0.5997 0.4429 0.2219
H20 H 0.6943 0.3609 0.2061
H21 H 0.6421 0.4344 0.1258
C6 C 0.8361(5) 0.5141(6) 0.1701(4)
H22 H 0.8828 0.5755 0.1892
H23 H 0.8198 0.5172 0.1056
H24 H 0.8706 0.4435 0.1863
N2 N 0.7680(3) 0.4632(3) 0.7595(2)
H11 H 0.7993 0.4118 0.7981
H12 H 0.7979 0.4299 0.7133
C7 C 0.8204(4) 0.5547(4) 0.8155(3)
H25 H 0.8886 0.5717 0.7942
H26 H 0.8305 0.5305 0.8776
H27 H 0.7761 0.6210 0.8112
C8 C 0.6620(4) 0.4310(5) 0.7893(4)
H28 H 0.6317 0.3711 0.7515
H29 H 0.6152 0.4954 0.7845
H30 H 0.6708 0.4059 0.8512
loop_
_geom_bond_atom_site_label_1
_geom_bond_atom_site_label_2
_geom_bond_site_symmetry_1
_geom_bond_site_symmetry_2
Mg1 O1 1_555 1_555
P1 O1 1_555 1_555
P2 O4 1_555 1_555
P3 O8 1_555 1_555
P4 O11 1_555 1_555
O2 P1 1_555 1_555
O3 P1 1_555 1_555
H1 O3 1_555 1_555
O4 Mg1 1_555 1_555
O5 P2 1_555 1_555
H2 O5 1_555 1_555
O6 Mg1 1_555 1_555
O7 H3 1_555 1_555
O8 H4 1_555 1_555
O9 P3 1_555 1_555
O10 Mg1 1_555 1_555
O12 P4 1_555 1_555
H5 O12 1_555 1_555
O13 Mg1 1_555 1_555
O14 H6 1_555 1_555
O15 Mg1 1_555 1_555
H7 O15 1_555 1_555
H8 O15 1_555 1_555
N1 H9 1_555 1_555
H10 N1 1_555 1_555
N2 H11 1_555 1_555
H12 N2 1_555 1_555
C1 P3 1_555 1_555
C2 C1 1_555 1_555
H13 C2 1_555 1_555
H14 C2 1_555 1_555
H15 C2 1_555 1_555
C3 P1 1_555 1_555
C4 C3 1_555 1_555
H16 C4 1_555 1_555
H17 C4 1_555 1_555
H18 C4 1_555 1_555
C5 N1 1_555 1_555
H19 C5 1_555 1_555
H20 C5 1_555 1_555
H21 C5 1_555 1_555
C6 N1 1_555 1_555
H22 C6 1_555 1_555
H23 C6 1_555 1_555
H24 C6 1_555 1_555
C7 N2 1_555 1_555
H25 C7 1_555 1_555
H26 C7 1_555 1_555
H27 C7 1_555 1_555
C8 N2 1_555 1_555
H28 C8 1_555 1_555
H29 C8 1_555 1_555
H30 C8 1_555 1_555
Mg1B O1B 1_555 1_555
P1B O1B 1_555 1_555
P2B O6 1_555 1_555
P3B O8B 1_555 1_555
P4B O11B 1_555 1_555
O2B P1B 1_555 1_555
O3B P1B 1_555 1_555
H1B O3B 1_555 1_555
O4B Mg1B 1_555 1_555
O5B P2B 1_555 1_555
H2B O5B 1_555 1_555
O6B P2 1_555 1_555
O7B H3B 1_555 1_555
O8B H4B 1_555 1_555
O9B P3B 1_555 1_555
O10B Mg1B 1_555 1_555
O12B P4B 1_555 1_555
H5B O12B 1_555 1_555
O13B Mg1B 1_555 1_555
O14B H6B 1_555 1_555
O15B Mg1B 1_555 1_555
H7B O15B 1_555 1_555
H8B O15B 1_555 1_555
C1B P3B 1_555 1_555
C2B C1B 1_555 1_555
H13B C2B 1_555 1_555
H14B C2B 1_555 1_555
H15B C2B 1_555 1_555
C3B P1B 1_555 1_555
C4B C3B 1_555 1_555
H16B C4B 1_555 1_555
H17B C4B 1_555 1_555
H18B C4B 1_555 1_555
P2 C3 1_555 1_555
P3 O10 1_555 1_555
P4 O13 1_555 1_555
P4 C1 1_555 1_555
O7 C3 1_555 1_555
O14 C1 1_555 1_555
Mg1B O6B 1_555 1_555
P2B O4B 1_555 1_555
P2B C3B 1_555 1_555
P3B O10B 1_555 1_555
P4B O13B 1_555 1_555
P4B C1B 1_555 1_555
O7B C3B 1_555 1_555
O14B C1B 1_555 1_555

#END
