
#######################################################################
#
#                 Cambridge Crystallographic Data Centre
#                                CCDC 
#
#######################################################################
#
# If this CIF has been generated from an entry in the Cambridge 
# Structural Database, then it will include bibliographic, chemical, 
# crystal, experimental, refinement or atomic coordinate data resulting 
# from the CCDC's data processing and validation procedures.
#
#######################################################################

data_UQUMOK
_chemical_formula_moiety         'C25 H29 N1 O5 S1'
_chemical_name_systematic        
'ethyl (4S*,4aS*,8aR*)-4a-methyl-4-phenyl-8-tosyl-4a,5,6,7,8,8a-hexahydro-4H-pyrano[2,3-b]pyridine-2-carboxylate'
_symmetry_cell_setting           monoclinic
_symmetry_space_group_name_H-M   'P 21/n'
_symmetry_Int_Tables_number      14
_space_group_name_Hall           '-P 2yn'
loop_
_symmetry_equiv_pos_site_id
_symmetry_equiv_pos_as_xyz
1 x,y,z
2 1/2-x,1/2+y,1/2-z
3 -x,-y,-z
4 1/2+x,1/2-y,1/2+z
_cell_length_a                   9.2003(10)
_cell_length_b                   16.7314(19)
_cell_length_c                   14.9604(17)
_cell_angle_alpha                90
_cell_angle_beta                 97.605(2)
_cell_angle_gamma                90
_cell_volume                     2282.66
_exptl_crystal_colour            colorless
_exptl_crystal_description       plate
_cell_formula_units_Z            4
loop_
_atom_site_label
_atom_site_type_symbol
_atom_site_fract_x
_atom_site_fract_y
_atom_site_fract_z
S1 S 0.14850(7) 0.77846(4) 0.05497(4)
O1 O 0.35794(18) 0.67257(10) -0.05732(11)
O2 O 0.2573(2) 0.56581(12) -0.18136(13)
O3 O 0.4535(3) 0.58291(18) -0.25217(19)
O4 O 0.1367(2) 0.83158(11) -0.02057(14)
O5 O 0.1183(2) 0.80709(13) 0.14066(14)
N1 N 0.3169(2) 0.74532(12) 0.06965(13)
C1 C 0.3628(3) 0.69644(15) 0.14993(16)
H1 H 0.4150 0.6483 0.1325
H2 H 0.2752 0.6787 0.1764
C2 C 0.4628(3) 0.74365(18) 0.21942(18)
H3 H 0.4744 0.7139 0.2771
H4 H 0.4152 0.7953 0.2297
C3 C 0.6141(3) 0.76010(19) 0.19297(19)
H5 H 0.6682 0.7089 0.1947
H6 H 0.6674 0.7954 0.2393
C4 C 0.6190(3) 0.79846(16) 0.10053(18)
H7 H 0.5576 0.8473 0.0958
H8 H 0.7210 0.8148 0.0955
C5 C 0.5651(3) 0.74263(14) 0.02233(16)
H9 H 0.5916 0.6871 0.0433
C6 C 0.6354(2) 0.75592(14) -0.06492(17)
H10 H 0.7408 0.7400 -0.0512
C7 C 0.5650(3) 0.69858(15) -0.13471(17)
H11 H 0.6103 0.6895 -0.1873
C8 C 0.4408(3) 0.65989(14) -0.12551(16)
C9 C 0.3997(2) 0.74357(14) -0.00475(16)
H12 H 0.3733 0.7916 -0.0433
C10 C 0.3726(3) 0.59751(16) -0.18768(18)
C11 C 0.3846(4) 0.5294(2) -0.3306(3)
H13 H 0.2767 0.5354 -0.3422
H14 H 0.4274 0.5397 -0.3868
C12 C 0.4265(5) 0.4535(3) -0.2931(3)
H15 H 0.3972 0.4117 -0.3377
H16 H 0.3781 0.4445 -0.2394
H17 H 0.5331 0.4521 -0.2763
C13 C 0.6330(3) 0.84196(14) -0.09749(18)
C14 C 0.7497(3) 0.89238(16) -0.0667(2)
H18 H 0.8314 0.8717 -0.0283
C15 C 0.7482(4) 0.97241(18) -0.0915(3)
H19 H 0.8271 1.0064 -0.0685
C16 C 0.6320(4) 1.00254(18) -0.1497(2)
H20 H 0.6311 1.0572 -0.1670
C17 C 0.5179(4) 0.95333(18) -0.1825(2)
H21 H 0.4387 0.9739 -0.2232
C18 C 0.5176(3) 0.87343(16) -0.15659(18)
H22 H 0.4377 0.8400 -0.1795
C19 C 0.0327(2) 0.69617(14) 0.02610(16)
C20 C 0.0198(3) 0.66601(15) -0.06088(17)
H23 H 0.0742 0.6890 -0.1041
C21 C -0.0724(3) 0.60245(16) -0.08407(19)
H24 H -0.0820 0.5821 -0.1439
C22 C -0.1519(3) 0.56741(15) -0.0215(2)
C23 C -0.1347(3) 0.59725(17) 0.0656(2)
H25 H -0.1864 0.5730 0.1094
C24 C -0.0439(3) 0.66156(16) 0.09001(18)
H26 H -0.0341 0.6818 0.1498
C25 C -0.2543(3) 0.49885(17) -0.0481(3)
H27 H -0.3556 0.5183 -0.0570
H28 H -0.2433 0.4584 -0.0003
H29 H -0.2306 0.4751 -0.1043
loop_
_geom_bond_atom_site_label_1
_geom_bond_atom_site_label_2
_geom_bond_site_symmetry_1
_geom_bond_site_symmetry_2
S1 O4 1_555 1_555
O1 C8 1_555 1_555
O2 C10 1_555 1_555
O3 C10 1_555 1_555
O5 S1 1_555 1_555
N1 S1 1_555 1_555
C1 N1 1_555 1_555
H1 C1 1_555 1_555
H2 C1 1_555 1_555
C2 C1 1_555 1_555
H3 C2 1_555 1_555
H4 C2 1_555 1_555
C3 C2 1_555 1_555
H5 C3 1_555 1_555
H6 C3 1_555 1_555
C4 C3 1_555 1_555
H7 C4 1_555 1_555
H8 C4 1_555 1_555
C5 C4 1_555 1_555
H9 C5 1_555 1_555
C6 C5 1_555 1_555
H10 C6 1_555 1_555
C7 C6 1_555 1_555
H11 C7 1_555 1_555
C8 C7 1_555 1_555
C9 O1 1_555 1_555
H12 C9 1_555 1_555
C10 C8 1_555 1_555
C11 O3 1_555 1_555
H13 C11 1_555 1_555
H14 C11 1_555 1_555
C12 C11 1_555 1_555
H15 C12 1_555 1_555
H16 C12 1_555 1_555
H17 C12 1_555 1_555
C13 C6 1_555 1_555
C14 C13 1_555 1_555
H18 C14 1_555 1_555
C15 C14 1_555 1_555
H19 C15 1_555 1_555
C16 C15 1_555 1_555
H20 C16 1_555 1_555
C17 C16 1_555 1_555
H21 C17 1_555 1_555
C18 C13 1_555 1_555
H22 C18 1_555 1_555
C19 S1 1_555 1_555
C20 C19 1_555 1_555
H23 C20 1_555 1_555
C21 C20 1_555 1_555
H24 C21 1_555 1_555
C22 C21 1_555 1_555
C23 C22 1_555 1_555
H25 C23 1_555 1_555
C24 C19 1_555 1_555
H26 C24 1_555 1_555
C25 C22 1_555 1_555
H27 C25 1_555 1_555
H28 C25 1_555 1_555
H29 C25 1_555 1_555
N1 C9 1_555 1_555
C5 C9 1_555 1_555
C17 C18 1_555 1_555
C23 C24 1_555 1_555

#END
