
#######################################################################
#
#                 Cambridge Crystallographic Data Centre
#                                CCDC 
#
#######################################################################
#
# If this CIF has been generated from an entry in the Cambridge 
# Structural Database, then it will include bibliographic, chemical, 
# crystal, experimental, refinement or atomic coordinate data resulting 
# from the CCDC's data processing and validation procedures.
#
#######################################################################

data_UQUNIF
_chemical_formula_moiety         'C42 H32 Br1 O6 P1'
_chemical_name_systematic        
"methyl 5-(4-bromophenyl)-4-(2-methoxy-2-oxo-1-(triphenylphosphoranylidene)ethyl)-1',3'-dioxo-1',3'-dihydrospiro[cyclopent-3-ene-1,2'-indene]-2-carboxylate"
_symmetry_cell_setting           triclinic
_symmetry_space_group_name_H-M   'P -1'
_symmetry_Int_Tables_number      2
_space_group_name_Hall           '-P 1'
loop_
_symmetry_equiv_pos_site_id
_symmetry_equiv_pos_as_xyz
1 x,y,z
2 -x,-y,-z
_cell_length_a                   7.994(2)
_cell_length_b                   12.913(3)
_cell_length_c                   17.101(4)
_cell_angle_alpha                90.684(7)
_cell_angle_beta                 91.510(7)
_cell_angle_gamma                90.544(8)
_cell_volume                     1764.45
_exptl_crystal_colour            yellow
_exptl_crystal_description       block
_cell_formula_units_Z            2
loop_
_atom_site_label
_atom_site_type_symbol
_atom_site_fract_x
_atom_site_fract_y
_atom_site_fract_z
Br1 Br 0.8919(2) 0.12735(18) 0.48740(10)
C1 C 0.3520(10) 0.0377(7) 0.2108(4)
C2 C 0.2052(10) -0.0158(6) 0.2395(4)
C3 C 0.1887(13) -0.1091(8) 0.2799(5)
H1 H 0.2827 -0.1468 0.2946
C4 C 0.0313(17) -0.1438(9) 0.2972(6)
H2 H 0.0196 -0.2044 0.3254
C5 C -0.1108(15) -0.0904(10) 0.2735(6)
H3 H -0.2162 -0.1156 0.2858
C6 C -0.0964(11) -0.0007(8) 0.2323(5)
H4 H -0.1913 0.0352 0.2162
C7 C 0.0581(10) 0.0350(7) 0.2154(4)
C8 C 0.1051(9) 0.1275(7) 0.1708(5)
C9 C 0.2987(8) 0.1473(6) 0.1841(4)
C10 C 0.3114(9) 0.2271(6) 0.2538(4)
H5 H 0.2049 0.2298 0.2808
C11 C 0.4548(11) 0.2047(7) 0.3123(5)
C12 C 0.6183(11) 0.2286(7) 0.2965(5)
H6 H 0.6428 0.2596 0.2493
C13 C 0.7482(14) 0.2076(10) 0.3497(7)
H7 H 0.8580 0.2259 0.3391
C14 C 0.7116(18) 0.1606(10) 0.4167(7)
C15 C 0.5496(18) 0.1309(10) 0.4344(6)
H8 H 0.5275 0.0954 0.4800
C16 C 0.4208(13) 0.1563(8) 0.3812(5)
H9 H 0.3106 0.1402 0.3928
C17 C 0.2386(12) 0.0251(9) -0.0462(5)
H10 H 0.1228 0.0423 -0.0534
H11 H 0.2508 -0.0488 -0.0490
H12 H 0.3024 0.0566 -0.0865
C18 C 0.3130(10) 0.1668(8) 0.0362(5)
C19 C 0.3815(9) 0.1965(6) 0.1161(4)
H13 H 0.4996 0.1768 0.1184
C20 C 0.3741(9) 0.3109(6) 0.1358(4)
H14 H 0.3914 0.3630 0.0997
C21 C 0.3404(9) 0.3285(6) 0.2094(4)
C22 C 0.3301(8) 0.4275(6) 0.2526(4)
C23 C 0.2042(9) 0.4407(7) 0.3115(4)
C24 C 0.0715(11) 0.5697(9) 0.3905(5)
H15 H -0.0240 0.5914 0.3599
H16 H 0.1086 0.6254 0.4246
H17 H 0.0413 0.5110 0.4211
C25 C 0.7636(9) 0.4456(6) 0.2085(4)
H18 H 0.7696 0.4371 0.2624
C26 C 0.8871(10) 0.4071(7) 0.1627(5)
H19 H 0.9754 0.3719 0.1864
C27 C 0.8849(10) 0.4186(8) 0.0834(5)
H20 H 0.9673 0.3890 0.0533
C28 C 0.7555(10) 0.4762(8) 0.0484(5)
H21 H 0.7559 0.4880 -0.0051
C29 C 0.6277(10) 0.5154(8) 0.0924(4)
H22 H 0.5422 0.5529 0.0686
C30 C 0.6273(9) 0.4982(6) 0.1738(4)
C31 C 0.5852(10) 0.5217(8) 0.3826(4)
H23 H 0.5619 0.4513 0.3767
C32 C 0.6570(11) 0.5603(9) 0.4519(5)
H24 H 0.6806 0.5150 0.4925
C33 C 0.6930(12) 0.6613(11) 0.4615(6)
H25 H 0.7443 0.6851 0.5078
C34 C 0.6542(12) 0.7299(10) 0.4027(6)
H26 H 0.6780 0.8001 0.4099
C35 C 0.5800(10) 0.6948(7) 0.3332(5)
H27 H 0.5513 0.7411 0.2939
C36 C 0.5488(9) 0.5890(7) 0.3227(4)
C37 C 0.1728(10) 0.6259(7) 0.1646(5)
H28 H 0.1175 0.5695 0.1857
C38 C 0.0829(11) 0.6956(9) 0.1209(6)
H29 H -0.0324 0.6882 0.1139
C39 C 0.1670(12) 0.7763(8) 0.0880(5)
H30 H 0.1083 0.8228 0.0568
C40 C 0.3370(12) 0.7897(7) 0.1002(5)
H31 H 0.3914 0.8459 0.0783
C41 C 0.4275(11) 0.7194(7) 0.1452(5)
H32 H 0.5425 0.7274 0.1530
C42 C 0.3429(9) 0.6372(6) 0.1781(4)
O1 O 0.4948(7) 0.0066(5) 0.2085(3)
O2 O 0.0150(7) 0.1774(5) 0.1278(4)
O3 O 0.2985(8) 0.0626(5) 0.0290(3)
O4 O 0.2798(9) 0.2251(6) -0.0161(4)
O5 O 0.1063(7) 0.3776(5) 0.3347(3)
O6 O 0.2037(6) 0.5419(5) 0.3394(3)
P1 P 0.4536(2) 0.53603(17) 0.23238(11)
loop_
_geom_bond_atom_site_label_1
_geom_bond_atom_site_label_2
_geom_bond_site_symmetry_1
_geom_bond_site_symmetry_2
Br1 C14 1_555 1_555
C1 C2 1_555 1_555
C2 C3 1_555 1_555
C3 H1 1_555 1_555
C4 C3 1_555 1_555
H2 C4 1_555 1_555
C5 C4 1_555 1_555
H3 C5 1_555 1_555
C6 C5 1_555 1_555
H4 C6 1_555 1_555
C7 C2 1_555 1_555
C8 C7 1_555 1_555
C9 C1 1_555 1_555
C10 C9 1_555 1_555
H5 C10 1_555 1_555
C11 C10 1_555 1_555
C12 C11 1_555 1_555
H6 C12 1_555 1_555
C13 C12 1_555 1_555
H7 C13 1_555 1_555
C14 C13 1_555 1_555
C15 C14 1_555 1_555
H8 C15 1_555 1_555
C16 C11 1_555 1_555
H9 C16 1_555 1_555
C17 H10 1_555 1_555
H11 C17 1_555 1_555
H12 C17 1_555 1_555
C18 C19 1_555 1_555
C19 C9 1_555 1_555
H13 C19 1_555 1_555
C20 C19 1_555 1_555
H14 C20 1_555 1_555
C21 C10 1_555 1_555
C22 C21 1_555 1_555
C23 C22 1_555 1_555
C24 H15 1_555 1_555
H16 C24 1_555 1_555
H17 C24 1_555 1_555
C25 H18 1_555 1_555
C26 C25 1_555 1_555
H19 C26 1_555 1_555
C27 C26 1_555 1_555
H20 C27 1_555 1_555
C28 C27 1_555 1_555
H21 C28 1_555 1_555
C29 C28 1_555 1_555
H22 C29 1_555 1_555
C30 C25 1_555 1_555
C31 H23 1_555 1_555
C32 C31 1_555 1_555
H24 C32 1_555 1_555
C33 C32 1_555 1_555
H25 C33 1_555 1_555
C34 C33 1_555 1_555
H26 C34 1_555 1_555
C35 C34 1_555 1_555
H27 C35 1_555 1_555
C36 C31 1_555 1_555
C37 H28 1_555 1_555
C38 C37 1_555 1_555
H29 C38 1_555 1_555
C39 C38 1_555 1_555
H30 C39 1_555 1_555
C40 C39 1_555 1_555
H31 C40 1_555 1_555
C41 C40 1_555 1_555
H32 C41 1_555 1_555
C42 C37 1_555 1_555
O1 C1 1_555 1_555
O2 C8 1_555 1_555
O3 C17 1_555 1_555
O4 C18 1_555 1_555
O5 C23 1_555 1_555
O6 C23 1_555 1_555
P1 C22 1_555 1_555
C6 C7 1_555 1_555
C8 C9 1_555 1_555
C15 C16 1_555 1_555
C18 O3 1_555 1_555
C20 C21 1_555 1_555
C24 O6 1_555 1_555
C29 C30 1_555 1_555
C30 P1 1_555 1_555
C35 C36 1_555 1_555
C36 P1 1_555 1_555
C41 C42 1_555 1_555
C42 P1 1_555 1_555

#END
