
#######################################################################
#
#                 Cambridge Crystallographic Data Centre
#                                CCDC 
#
#######################################################################
#
# If this CIF has been generated from an entry in the Cambridge 
# Structural Database, then it will include bibliographic, chemical, 
# crystal, experimental, refinement or atomic coordinate data resulting 
# from the CCDC's data processing and validation procedures.
#
#######################################################################

data_UQUQOO
_chemical_formula_moiety         'C75 H79 N4,1.5(C1 H2 Cl2)'
_chemical_name_systematic        
'20,25,30-tris(3,5-di-t-butylphenyl)-18,32,35,36-tetraazanonacyclo[15.15.1.1^2,31^.1^16,19^.1^21,24^.1^26,29^.0^3,8^.0^9,33^.0^10,15^]heptatriaconta-1(33),2(34),3,5,7,10,12,14,16(37),17,19,21,23,25,27,29(35),30-heptadecaen-9-yl radical dichloromethane solvate'
_symmetry_cell_setting           triclinic
_symmetry_space_group_name_H-M   'P -1'
_symmetry_Int_Tables_number      2
_space_group_name_Hall           '-P 1'
loop_
_symmetry_equiv_pos_site_id
_symmetry_equiv_pos_as_xyz
1 x,y,z
2 -x,-y,-z
_cell_length_a                   16.939(4)
_cell_length_b                   19.333(6)
_cell_length_c                   21.772(8)
_cell_angle_alpha                115.269(11)
_cell_angle_beta                 91.968(8)
_cell_angle_gamma                92.7594(14)
_cell_volume                     6428.32
_exptl_crystal_colour            red
_exptl_crystal_description       Prism
_cell_formula_units_Z            4
loop_
_atom_site_label
_atom_site_type_symbol
_atom_site_fract_x
_atom_site_fract_y
_atom_site_fract_z
C1 C 0.30720(18) 0.89879(19) 0.00225(18)
C2 C 0.40264(18) 1.03733(18) 0.04510(17)
C3 C 0.37985(18) 0.99634(19) -0.02501(17)
N1 N 0.44861(15) 1.10352(15) 0.07623(14)
H1 H 0.4739 1.1281 0.0560
N2 N 0.54397(16) 1.22871(16) -0.01990(15)
H2 H 0.5259 1.2002 -0.0002
C4 C 0.37292(18) 1.01382(19) 0.09434(17)
N3 N 0.54629(16) 1.24454(16) 0.11994(15)
C5 C 0.32591(18) 0.93030(18) -0.04629(17)
C6 C 0.32717(18) 0.94275(19) 0.07315(18)
C7 C 0.58706(19) 1.2982(2) 0.01257(19)
C8 C 0.30392(19) 0.9139(2) 0.11978(19)
H3 H 0.3151 0.9445 0.1671
C9 C 0.40602(18) 1.02039(19) -0.07467(18)
C10 C 0.41707(19) 1.0165(2) -0.17888(18)
H4 H 0.4136 1.0017 -0.2265
N4 N 0.45368(15) 1.08376(16) -0.06448(15)
C11 C 0.26570(19) 0.8429(2) 0.09844(19)
H5 H 0.2482 0.8254 0.1307
C12 C 0.6022(2) 1.3263(2) -0.0376(2)
H6 H 0.6305 1.3732 -0.0297
C13 C 0.38171(18) 0.97779(19) -0.14473(18)
C14 C 0.61570(19) 1.33248(19) 0.0804(2)
C15 C 0.32379(19) 0.91428(19) -0.16655(18)
C16 C 0.22005(19) 0.84694(19) -0.13547(19)
H7 H 0.1915 0.8395 -0.1017
C17 C 0.59689(19) 1.3069(2) 0.13057(19)
C18 C 0.40129(19) 1.06920(19) 0.15746(18)
H8 H 0.3914 1.0698 0.2003
C19 C 0.53390(18) 1.2111(2) -0.08771(19)
C20 C 0.29037(18) 0.89561(18) -0.11529(18)
C21 C 0.4398(2) 1.1361(2) -0.31185(19)
C22 C 0.27386(19) 0.82347(19) -0.01771(19)
H9 H 0.2657 0.7904 -0.0648
C23 C 0.50169(19) 1.1365(2) -0.20959(18)
C24 C 0.46014(18) 1.08374(19) -0.12736(18)
C25 C 0.49780(18) 1.1429(2) -0.13886(18)
C26 C 0.4344(2) 1.1358(2) -0.24839(19)
H10 H 0.3837 1.1352 -0.2312
C27 C 0.25276(19) 0.7965(2) 0.0290(2)
H11 H 0.2292 0.7459 0.0138
C28 C 0.1917(2) 0.8102(2) -0.2020(2)
H12 H 0.1448 0.7772 -0.2138
C29 C 0.4349(2) 1.2812(2) 0.30358(19)
H13 H 0.4189 1.3104 0.2802
C30 C 0.4728(2) 1.2147(2) 0.26861(19)
C31 C 0.6217(2) 1.3454(2) 0.2012(2)
H14 H 0.6577 1.3893 0.2220
C32 C 0.44859(18) 1.12562(19) 0.14587(18)
C33 C 0.5368(2) 1.2449(2) 0.18187(18)
C34 C 0.4966(2) 1.1719(2) 0.30304(18)
H15 H 0.5227 1.1263 0.2795
C35 C 0.4826(2) 1.1953(2) 0.3712(2)
C36 C 0.2955(2) 0.8743(2) -0.23444(19)
H16 H 0.3207 0.8839 -0.2686
C37 C 0.5836(2) 1.1358(2) -0.2994(2)
C38 C 0.48767(19) 1.19258(19) 0.19613(18)
C39 C 0.5756(2) 1.1358(2) -0.2360(2)
H17 H 0.6217 1.1354 -0.2101
C40 C 0.2315(2) 0.8211(2) -0.2527(2)
H18 H 0.2146 0.7921 -0.2993
C41 C 0.4197(2) 1.3065(2) 0.3718(2)
C42 C 0.4442(2) 1.2628(2) 0.4045(2)
H19 H 0.4347 1.2793 0.4512
C43 C 0.5150(2) 1.1365(2) -0.3358(2)
H20 H 0.5195 1.1373 -0.3789
C44 C 0.5691(2) 1.2741(2) -0.0978(2)
H21 H 0.5692 1.2784 -0.1397
C45 C 0.6719(2) 1.4016(2) 0.1028(2)
C46 C 0.5846(2) 1.3079(2) 0.2329(2)
H22 H 0.5893 1.3206 0.2802
C47 C 0.7473(2) 1.4000(2) 0.1292(2)
H23 H 0.7625 1.3553 0.1330
C48 C 0.5097(2) 1.1486(2) 0.4093(2)
C49 C 0.3679(3) 1.1376(3) -0.3558(2)
C50 C 0.3760(4) 1.2118(4) -0.3648(3)
H24 H 0.3775 1.2558 -0.3202
H25 H 0.3307 1.2137 -0.3931
H26 H 0.4251 1.2133 -0.3869
C51 C 0.3783(3) 1.3803(3) 0.4087(2)
C52 C 0.6505(3) 1.4669(2) 0.0961(2)
H27 H 0.5979 1.4679 0.0801
C53 C 0.8013(3) 1.4648(3) 0.1502(3)
C54 C 0.6658(3) 1.1396(3) -0.3255(2)
C55 C 0.7015(4) 1.5289(3) 0.1115(3)
C56 C 0.7765(4) 1.5274(3) 0.1406(3)
H28 H 0.8123 1.5715 0.1545
C57 C 0.2899(3) 1.1353(4) -0.3222(2)
H29 H 0.2847 1.0884 -0.3154
H30 H 0.2452 1.1360 -0.3517
H31 H 0.2902 1.1801 -0.2782
C58 C 0.6790(4) 1.6005(3) 0.1015(4)
C59 C 0.3647(3) 1.0682(4) -0.4242(2)
H32 H 0.4140 1.0683 -0.4466
H33 H 0.3198 1.0701 -0.4529
H34 H 0.3584 1.0213 -0.4175
C60 C 0.8831(3) 1.4611(4) 0.1816(3)
C61 C 0.7355(5) 1.6185(4) 0.0600(4)
H35 H 0.7153 1.6580 0.0479
H36 H 0.7423 1.5721 0.0184
H37 H 0.7866 1.6373 0.0858
C62 C 0.6594(5) 1.6606(4) 0.1649(4)
H38 H 0.7057 1.6764 0.1973
H39 H 0.6157 1.6420 0.1834
H40 H 0.6435 1.7045 0.1572
C63 C 0.5953(4) 1.5842(4) 0.0582(5)
H41 H 0.5539 1.5697 0.0817
H42 H 0.5995 1.5424 0.0129
H43 H 0.5818 1.6306 0.0537
C64 C 0.3037(5) 1.3784(5) 0.3698(4)
H44 H 0.2667 1.3372 0.3685
H45 H 0.3154 1.3692 0.3232
H46 H 0.2798 1.4277 0.3919
C65 C 0.4361(5) 1.4500(4) 0.4051(4)
H47 H 0.4107 1.4985 0.4261
H48 H 0.4447 1.4381 0.3574
H49 H 0.4871 1.4544 0.4296
C66 C 0.7085(5) 1.2208(5) -0.2754(5)
H50 H 0.7640 1.2228 -0.2862
H51 H 0.7059 1.2277 -0.2282
H52 H 0.6817 1.2618 -0.2810
C67 C 0.3720(5) 1.4043(5) 0.4815(4)
H53 H 0.3471 1.4533 0.5012
H54 H 0.4250 1.4105 0.5035
H55 H 0.3397 1.3654 0.4888
C68 C 0.7198(4) 1.0905(7) -0.3071(4)
H56 H 0.7156 1.0383 -0.3436
H57 H 0.7042 1.0893 -0.2646
H58 H 0.7746 1.1121 -0.3011
C69 C 0.9268(5) 1.4089(5) 0.1278(5)
H59 H 0.9817 1.4110 0.1445
H60 H 0.9258 1.4234 0.0898
H61 H 0.9026 1.3567 0.1122
C70 C 0.6661(4) 1.1132(7) -0.3979(4)
H62 H 0.7209 1.1112 -0.4113
H63 H 0.6386 1.1485 -0.4114
H64 H 0.6391 1.0618 -0.4205
C71 C 0.8712(5) 1.4489(6) 0.2405(5)
H65 H 0.8413 1.3995 0.2275
H66 H 0.8414 1.4901 0.2723
H67 H 0.9226 1.4486 0.2624
C72 C 0.9264(5) 1.5454(5) 0.2051(5)
H68 H 0.8929 1.5840 0.2354
H69 H 0.9353 1.5548 0.1650
H70 H 0.9774 1.5487 0.2293
C73 C 0.5991(4) 1.1491(5) 0.4098(4)
H71 H 0.6178 1.1196 0.4338
H72 H 0.6220 1.2021 0.4331
H73 H 0.6154 1.1261 0.3629
C74 C 0.4691(5) 1.0713(4) 0.3754(4)
H74 H 0.4808 1.0479 0.3273
H75 H 0.4118 1.0752 0.3792
H76 H 0.4876 1.0396 0.3973
C75 C 0.4867(5) 1.1862(5) 0.4846(4)
H77 H 0.4292 1.1896 0.4859
H78 H 0.5130 1.2378 0.5078
H79 H 0.5033 1.1550 0.5076
N5 N 0.96138(16) 0.08710(17) 0.12657(15)
C85 C 0.90523(18) 0.04286(19) -0.01931(18)
C86 C 0.8028(2) -0.0768(2) -0.1906(2)
H107 H 0.8134 -0.0457 -0.2137
C87 C 0.91295(19) 0.02426(19) 0.08689(18)
C88 C 0.87419(18) 0.02102(19) -0.08632(18)
C89 C 0.80971(19) -0.0951(2) -0.0859(2)
C90 C 0.82799(19) -0.05012(19) -0.12212(19)
N6 N 0.95123(15) 0.10932(16) 0.00288(15)
H108 H 0.9775 0.1330 0.0427
C91 C 1.0988(2) 0.2996(2) 0.2199(2)
C92 C 0.88428(18) 0.00127(18) 0.01878(18)
C93 C 0.90128(19) 0.0779(2) -0.10540(19)
H109 H 0.8901 0.0797 -0.1478
N7 N 1.05230(17) 0.24893(17) 0.07101(17)
C94 C 0.7626(2) -0.1479(2) -0.2252(2)
H110 H 0.7430 -0.1645 -0.2711
C95 C 1.1038(2) 0.3105(2) 0.1102(2)
N8 N 1.05439(17) 0.23117(18) 0.19750(17)
H111 H 1.0351 0.2037 0.1555
C96 C 1.1260(2) 0.3346(2) 0.1792(2)
C97 C 0.79652(19) -0.1004(2) 0.0286(2)
C98 C 1.0449(2) 0.2125(2) 0.2507(2)
C99 C 0.92529(19) 0.2904(2) -0.0825(2)
H112 H 0.9093 0.3163 -0.0373
C100 C 0.83066(19) -0.06531(19) -0.0135(2)
C101 C 0.94917(19) 0.1330(2) -0.04875(18)
C102 C 1.0385(2) 0.2517(2) 0.0099(2)
C103 C 0.8911(2) -0.0190(2) 0.1237(2)
C104 C 0.9679(2) 0.2259(2) -0.0994(2)
C105 C 0.7753(2) -0.1702(2) -0.1255(2)
H113 H 0.7688 -0.2044 -0.1048
C106 C 1.1252(2) 0.3510(2) 0.0697(3)
H114 H 1.1614 0.3948 0.0834
C107 C 0.9709(2) 0.0849(2) 0.18918(19)
C108 C 1.1158(3) 0.3260(3) 0.2912(2)
H115 H 1.1456 0.3721 0.3203
C109 C 0.7514(2) -0.1946(2) -0.1918(2)
H116 H 0.7265 -0.2447 -0.2161
C110 C 0.9919(2) 0.1879(3) -0.1653(2)
H117 H 1.0214 0.1439 -0.1771
C111 C 1.0846(2) 0.3156(2) 0.0095(2)
H118 H 1.0860 0.3301 -0.0270
C112 C 0.98747(19) 0.2009(2) -0.04499(19)
C113 C 0.8305(2) -0.0814(2) 0.0947(2)
C114 C 0.9295(2) 0.0171(2) 0.1870(2)
H119 H 0.9288 0.0006 0.2223
C115 C 0.7258(2) -0.1483(2) 0.0093(2)
H120 H 0.6973 -0.1573 -0.0321
C116 C 0.90525(19) 0.3183(2) -0.1297(2)
C117 C 0.7359(3) -0.1676(2) 0.1112(3)
H121 H 0.7172 -0.1928 0.1376
C118 C 0.6969(2) -0.1825(2) 0.0492(3)
H122 H 0.6504 -0.2162 0.0341
C119 C 1.0086(2) 0.1356(2) 0.3130(2)
C120 C 1.0088(2) 0.1441(2) 0.24786(19)
C121 C 0.8589(2) 0.3915(2) -0.1066(2)
C122 C 1.2588(2) 0.3995(2) 0.1838(3)
H123 H 1.2702 0.3549 0.1449
C123 C 0.9294(2) 0.2795(3) -0.1951(2)
H124 H 0.9162 0.2978 -0.2280
C124 C 1.0796(3) 0.1397(3) 0.3494(2)
H125 H 1.1284 0.1438 0.3307
C125 C 1.0818(3) 0.2736(3) 0.3102(2)
H126 H 1.0825 0.2771 0.3551
C126 C 0.8005(2) -0.1171(2) 0.1343(2)
H127 H 0.8257 -0.1059 0.1775
C127 C 0.9727(2) 0.2142(3) -0.2145(3)
C128 C 1.0012(3) 0.1722(4) -0.2862(3)
C129 C 1.1850(2) 0.4021(2) 0.2114(2)
C130 C 0.8382(3) 0.4121(3) -0.1657(3)
H128 H 0.8870 0.4205 -0.1852
H129 H 0.8097 0.4590 -0.1488
H130 H 0.8048 0.3701 -0.2007
C131 C 1.0801(3) 0.1379(3) 0.4119(2)
C132 C 0.7818(2) 0.3793(3) -0.0762(3)
H131 H 0.7506 0.4241 -0.0648
H132 H 0.7945 0.3726 -0.0348
H133 H 0.7512 0.3335 -0.1094
C133 C 1.2985(3) 0.5231(3) 0.2704(3)
H134 H 1.3376 0.5645 0.2911
C134 C 0.9100(3) 0.4586(3) -0.0523(3)
H135 H 0.9599 0.4655 -0.0711
H136 H 0.9212 0.4477 -0.0129
H137 H 0.8817 0.5054 -0.0381
C135 C 1.3157(2) 0.4605(2) 0.2117(3)
C136 C 1.2259(3) 0.5277(2) 0.3004(3)
C137 C 0.9652(5) 0.1978(6) -0.3380(4)
H138 H 0.9825 0.2516 -0.3251
H139 H 0.9073 0.1924 -0.3388
H140 H 0.9828 0.1658 -0.3833
C138 C 1.0069(3) 0.1275(3) 0.4366(2)
H141 H 1.0077 0.1310 0.4815
C139 C 1.3946(2) 0.4612(3) 0.1789(3)
C140 C 1.2074(3) 0.5964(3) 0.3657(3)
C141 C 1.3963(3) 0.5266(3) 0.1570(4)
H142 H 1.4473 0.5300 0.1382
H143 H 1.3892 0.5750 0.1965
H144 H 1.3535 0.5166 0.1222
C142 C 1.1691(3) 0.4676(2) 0.2679(3)
H145 H 1.1178 0.4715 0.2849
C143 C 1.1573(3) 0.1457(4) 0.4540(3)
C144 C 1.1456(4) 0.6421(3) 0.3503(3)
H146 H 1.1689 0.6682 0.3246
H147 H 1.1274 0.6803 0.3931
H148 H 1.1006 0.6074 0.3234
C145 C 1.0884(4) 0.1719(5) -0.2851(4)
H149 H 1.1116 0.2244 -0.2700
H150 H 1.1046 0.1400 -0.3310
H151 H 1.1069 0.1510 -0.2537
C146 C 1.4040(3) 0.3860(3) 0.1170(4)
H152 H 1.3577 0.3741 0.0850
H153 H 1.4085 0.3447 0.1314
H154 H 1.4518 0.3908 0.0946
C147 C 1.4642(3) 0.4756(4) 0.2301(4)
H155 H 1.5139 0.4770 0.2087
H156 H 1.4635 0.4343 0.2449
H157 H 1.4600 0.5247 0.2696
C148 C 1.1759(5) 0.5677(3) 0.4153(3)
H158 H 1.1240 0.5403 0.3977
H159 H 1.1706 0.6114 0.4593
H160 H 1.2126 0.5330 0.4211
C149 C 0.9689(5) 0.0861(5) -0.3158(3)
H161 H 0.9812 0.0599 -0.3637
H162 H 0.9115 0.0833 -0.3123
H163 H 0.9940 0.0613 -0.2900
C150 C 1.2812(4) 0.6501(4) 0.4012(4)
H164 H 1.3216 0.6212 0.4113
H165 H 1.2669 0.6917 0.4437
H166 H 1.3022 0.6718 0.3713
C151 C 1.1577(7) 0.1608(7) 0.5237(5)
H167 H 1.1283 0.2061 0.5483
H168 H 1.2125 0.1703 0.5430
H169 H 1.1327 0.1165 0.5281
C152 C 1.2147(7) 0.0873(8) 0.4137(6)
H170 H 1.2660 0.0990 0.4396
H171 H 1.2216 0.0895 0.3701
H172 H 1.1937 0.0358 0.4056
C153 C 1.2145(6) 0.2278(6) 0.4587(5)
H173 H 1.1853 0.2736 0.4818
H174 H 1.2246 0.2215 0.4127
H175 H 1.2650 0.2333 0.4843
C154 C 0.9323(10) 0.1188(8) 0.3376(10)
H176 H 0.8846 0.1127 0.3110
C155 C 0.9289(8) 0.1118(7) 0.3990(8)
C156 C 0.8496(7) 0.0965(7) 0.4261(6)
C157 C 0.8555(5) 0.0340(5) 0.4493(4)
H177 H 0.8062 0.0282 0.4696
H178 H 0.8999 0.0473 0.4833
H179 H 0.8640 -0.0144 0.4103
C158 C 0.7834(6) 0.0748(8) 0.3726(6)
H180 H 0.8019 0.0403 0.3285
H181 H 0.7656 0.1211 0.3701
H182 H 0.7392 0.0489 0.3842
C159 C 0.8348(6) 0.1708(5) 0.4878(5)
H183 H 0.8362 0.2134 0.4747
H184 H 0.8758 0.1810 0.5240
H185 H 0.7827 0.1656 0.5043
Cl1 Cl 0.7696(2) 0.6437(2) 0.3238(2)
Cl2 Cl 0.6655(4) 0.5375(3) 0.3502(2)
C169 C 0.6852(8) 0.5701(7) 0.2913(7)
Cl3 Cl 0.8872(3) 0.3568(2) 0.3643(2)
Cl4 Cl 0.7254(4) 0.3708(3) 0.40968(18)
C170 C 0.7910(8) 0.3867(8) 0.3536(7)
Cl5 Cl 0.9783(8) 0.6519(10) 0.4973(9)
C171 C 0.892(3) 0.667(4) 0.544(4)
Cl6 Cl 0.870(3) 0.567(3) 0.514(2)
C76? C 0.5448(6) 1.0705(6) 0.3616(5)
H80? H 0.5907 1.0812 0.3401
H81? H 0.5043 1.0383 0.3264
H82? H 0.5611 1.0437 0.3888
C77? C 0.4423(8) 1.1237(9) 0.4404(8)
H83? H 0.4634 1.1017 0.4702
H84? H 0.4069 1.0851 0.4043
H85? H 0.4128 1.1681 0.4672
C78? C 0.5762(8) 1.1937(7) 0.4614(7)
H86? H 0.5571 1.2417 0.4946
H87? H 0.6203 1.2053 0.4385
H88? H 0.5944 1.1634 0.4849
C79? C 0.9009(8) 1.3719(8) 0.1789(9)
H89? H 0.8640 1.3599 0.2073
H90? H 0.9554 1.3730 0.1960
H91? H 0.8932 1.3326 0.1318
C80? C 0.9585(8) 1.4649(10) 0.1457(8)
H92? H 0.9468 1.4410 0.0963
H93? H 0.9994 1.4375 0.1572
H94? H 0.9776 1.5186 0.1605
C81? C 0.9018(12) 1.5040(10) 0.2573(7)
H95? H 0.9111 1.5589 0.2695
H96? H 0.9494 1.4850 0.2701
H97? H 0.8571 1.4960 0.2816
C82? C 0.2911(7) 1.3499(8) 0.4308(8)
H98? H 0.2581 1.3933 0.4515
H99? H 0.3028 1.3286 0.4634
H100? H 0.2627 1.3102 0.3900
C83? C 0.3483(11) 1.4171(9) 0.3674(8)
H101? H 0.3210 1.4624 0.3960
H102? H 0.3111 1.3810 0.3311
H103? H 0.3925 1.4328 0.3472
C84? C 0.4172(10) 1.4269(9) 0.4753(8)
H104? H 0.4677 1.4501 0.4699
H105? H 0.4270 1.3946 0.4989
H106? H 0.3832 1.4674 0.5019
H186? H 1.0032 0.1151 0.4742
C160? C 0.9463(15) 0.1395(12) 0.3427(15)
H187? H 0.8980 0.1449 0.3222
C161? C 0.9458(12) 0.1360(10) 0.4053(11)
C162? C 0.8671(10) 0.1284(9) 0.4358(8)
C163? C 0.8227(7) 0.2023(7) 0.4525(6)
H188? H 0.7727 0.1982 0.4724
H189? H 0.8119 0.2084 0.4107
H190? H 0.8556 0.2469 0.4850
C164? C 0.8784(9) 0.1199(10) 0.5002(7)
H191? H 0.9025 0.0715 0.4908
H192? H 0.8270 0.1196 0.5195
H193? H 0.9133 0.1628 0.5327
C165? C 0.8171(11) 0.0617(9) 0.3840(10)
H194? H 0.8474 0.0160 0.3677
H195? H 0.8013 0.0730 0.3457
H196? H 0.7697 0.0525 0.4048
C166? C 1.1513(6) 0.0730(7) 0.4753(6)
H197? H 1.1440 0.0247 0.4340
H198? H 1.1062 0.0780 0.5036
H199? H 1.2002 0.0734 0.5009
C167? C 1.2232(6) 0.1392(8) 0.4180(6)
H200? H 1.2283 0.1818 0.4049
H201? H 1.2183 0.0905 0.3770
H202? H 1.2702 0.1407 0.4462
C168? C 1.1464(7) 0.2108(8) 0.5200(5)
H203? H 1.1855 0.2108 0.5542
H204? H 1.0930 0.2057 0.5341
H205? H 1.1536 0.2589 0.5154
Cl7? Cl 0.8976(5) 0.5687(3) 0.5128(3)
C172? C 0.946(3) 0.555(2) 0.440(2)
Cl8? Cl 0.9596(3) 0.6309(4) 0.4199(3)
loop_
_geom_bond_atom_site_label_1
_geom_bond_atom_site_label_2
_geom_bond_site_symmetry_1
_geom_bond_site_symmetry_2
C1 C5 1_555 1_555
C2 C3 1_555 1_555
C3 C5 1_555 1_555
N1 C2 1_555 1_555
H1 N1 1_555 1_555
N2 H2 1_555 1_555
C4 C2 1_555 1_555
N3 C17 1_555 1_555
C5 C20 1_555 1_555
C6 C1 1_555 1_555
C7 N2 1_555 1_555
C8 C6 1_555 1_555
H3 C8 1_555 1_555
C9 C3 1_555 1_555
C10 H4 1_555 1_555
N4 C9 1_555 1_555
C11 C8 1_555 1_555
H5 C11 1_555 1_555
C12 C7 1_555 1_555
H6 C12 1_555 1_555
C13 C9 1_555 1_555
C14 C7 1_555 1_555
C15 C13 1_555 1_555
C16 H7 1_555 1_555
C17 C14 1_555 1_555
C18 C4 1_555 1_555
H8 C18 1_555 1_555
C19 N2 1_555 1_555
C20 C15 1_555 1_555
C21 C26 1_555 1_555
C22 C1 1_555 1_555
H9 C22 1_555 1_555
C23 C25 1_555 1_555
C24 C10 1_555 1_555
C25 C19 1_555 1_555
C26 C23 1_555 1_555
H10 C26 1_555 1_555
C27 C11 1_555 1_555
H11 C27 1_555 1_555
C28 C16 1_555 1_555
H12 C28 1_555 1_555
C29 H13 1_555 1_555
C30 C29 1_555 1_555
C31 C17 1_555 1_555
H14 C31 1_555 1_555
C32 N1 1_555 1_555
C33 N3 1_555 1_555
C34 C30 1_555 1_555
H15 C34 1_555 1_555
C35 C34 1_555 1_555
C36 C15 1_555 1_555
H16 C36 1_555 1_555
C37 C39 1_555 1_555
C38 C30 1_555 1_555
C39 C23 1_555 1_555
H17 C39 1_555 1_555
C40 C28 1_555 1_555
H18 C40 1_555 1_555
C41 C29 1_555 1_555
C42 C35 1_555 1_555
H19 C42 1_555 1_555
C43 C21 1_555 1_555
H20 C43 1_555 1_555
C44 C12 1_555 1_555
H21 C44 1_555 1_555
C45 C14 1_555 1_555
C46 C31 1_555 1_555
H22 C46 1_555 1_555
C47 C45 1_555 1_555
H23 C47 1_555 1_555
C48 C35 1_555 1_555
C49 C21 1_555 1_555
C50 C49 1_555 1_555
H24 C50 1_555 1_555
H25 C50 1_555 1_555
H26 C50 1_555 1_555
C51 C41 1_555 1_555
C52 C45 1_555 1_555
H27 C52 1_555 1_555
C53 C47 1_555 1_555
C54 C37 1_555 1_555
C55 C52 1_555 1_555
C56 C53 1_555 1_555
H28 C56 1_555 1_555
C57 C49 1_555 1_555
H29 C57 1_555 1_555
H30 C57 1_555 1_555
H31 C57 1_555 1_555
C58 C55 1_555 1_555
C59 C49 1_555 1_555
H32 C59 1_555 1_555
H33 C59 1_555 1_555
H34 C59 1_555 1_555
C60 C53 1_555 1_555
C61 C58 1_555 1_555
H35 C61 1_555 1_555
H36 C61 1_555 1_555
H37 C61 1_555 1_555
C62 C58 1_555 1_555
H38 C62 1_555 1_555
H39 C62 1_555 1_555
H40 C62 1_555 1_555
C63 C58 1_555 1_555
H41 C63 1_555 1_555
H42 C63 1_555 1_555
H43 C63 1_555 1_555
C64 C51 1_555 1_555
H44 C64 1_555 1_555
H45 C64 1_555 1_555
H46 C64 1_555 1_555
C65 C51 1_555 1_555
H47 C65 1_555 1_555
H48 C65 1_555 1_555
H49 C65 1_555 1_555
C66 C54 1_555 1_555
H50 C66 1_555 1_555
H51 C66 1_555 1_555
H52 C66 1_555 1_555
C67 C51 1_555 1_555
H53 C67 1_555 1_555
H54 C67 1_555 1_555
H55 C67 1_555 1_555
C68 C54 1_555 1_555
H56 C68 1_555 1_555
H57 C68 1_555 1_555
H58 C68 1_555 1_555
C69 C60 1_555 1_555
H59 C69 1_555 1_555
H60 C69 1_555 1_555
H61 C69 1_555 1_555
C70 C54 1_555 1_555
H62 C70 1_555 1_555
H63 C70 1_555 1_555
H64 C70 1_555 1_555
C71 C60 1_555 1_555
H65 C71 1_555 1_555
H66 C71 1_555 1_555
H67 C71 1_555 1_555
C72 C60 1_555 1_555
H68 C72 1_555 1_555
H69 C72 1_555 1_555
H70 C72 1_555 1_555
C73 C48 1_555 1_555
H71 C73 1_555 1_555
H72 C73 1_555 1_555
H73 C73 1_555 1_555
C74 C48 1_555 1_555
H74 C74 1_555 1_555
H75 C74 1_555 1_555
H76 C74 1_555 1_555
C75 C48 1_555 1_555
H77 C75 1_555 1_555
H78 C75 1_555 1_555
H79 C75 1_555 1_555
N5 C87 1_555 1_555
C85 C88 1_555 1_555
C86 H107 1_555 1_555
C87 C92 1_555 1_555
C88 C90 1_555 1_555
C89 C90 1_555 1_555
C90 C86 1_555 1_555
N6 C85 1_555 1_555
H108 N6 1_555 1_555
C91 N8 1_555 1_555
C92 C85 1_555 1_555
C93 C88 1_555 1_555
H109 C93 1_555 1_555
N7 C95 1_555 1_555
C94 C86 1_555 1_555
H110 C94 1_555 1_555
C95 C96 1_555 1_555
N8 H111 1_555 1_555
C96 C91 1_555 1_555
C97 C100 1_555 1_555
C98 N8 1_555 1_555
C99 H112 1_555 1_555
C100 C89 1_555 1_555
C101 N6 1_555 1_555
C102 N7 1_555 1_555
C103 C87 1_555 1_555
C104 C99 1_555 1_555
C105 C89 1_555 1_555
H113 C105 1_555 1_555
C106 C95 1_555 1_555
H114 C106 1_555 1_555
C107 N5 1_555 1_555
C108 C91 1_555 1_555
H115 C108 1_555 1_555
C109 C94 1_555 1_555
H116 C109 1_555 1_555
C110 C104 1_555 1_555
H117 C110 1_555 1_555
C111 C102 1_555 1_555
H118 C111 1_555 1_555
C112 C101 1_555 1_555
C113 C97 1_555 1_555
C114 C103 1_555 1_555
H119 C114 1_555 1_555
C115 C97 1_555 1_555
H120 C115 1_555 1_555
C116 C99 1_555 1_555
C117 H121 1_555 1_555
C118 C115 1_555 1_555
H122 C118 1_555 1_555
C119 C120 1_555 1_555
C120 C98 1_555 1_555
C121 C116 1_555 1_555
C122 H123 1_555 1_555
C123 C116 1_555 1_555
H124 C123 1_555 1_555
C124 C119 1_555 1_555
H125 C124 1_555 1_555
C125 C98 1_555 1_555
H126 C125 1_555 1_555
C126 C113 1_555 1_555
H127 C126 1_555 1_555
C127 C110 1_555 1_555
C128 C127 1_555 1_555
C129 C96 1_555 1_555
C130 C121 1_555 1_555
H128 C130 1_555 1_555
H129 C130 1_555 1_555
H130 C130 1_555 1_555
C131 C124 1_555 1_555
C132 C121 1_555 1_555
H131 C132 1_555 1_555
H132 C132 1_555 1_555
H133 C132 1_555 1_555
C133 H134 1_555 1_555
C134 C121 1_555 1_555
H135 C134 1_555 1_555
H136 C134 1_555 1_555
H137 C134 1_555 1_555
C135 C122 1_555 1_555
C136 C133 1_555 1_555
C137 C128 1_555 1_555
H138 C137 1_555 1_555
H139 C137 1_555 1_555
H140 C137 1_555 1_555
C138 C131 1_555 1_555
H141 C138 1_555 1_555
C139 C135 1_555 1_555
C140 C136 1_555 1_555
C141 C139 1_555 1_555
H142 C141 1_555 1_555
H143 C141 1_555 1_555
H144 C141 1_555 1_555
C142 C129 1_555 1_555
H145 C142 1_555 1_555
C143 C131 1_555 1_555
C144 C140 1_555 1_555
H146 C144 1_555 1_555
H147 C144 1_555 1_555
H148 C144 1_555 1_555
C145 C128 1_555 1_555
H149 C145 1_555 1_555
H150 C145 1_555 1_555
H151 C145 1_555 1_555
C146 C139 1_555 1_555
H152 C146 1_555 1_555
H153 C146 1_555 1_555
H154 C146 1_555 1_555
C147 C139 1_555 1_555
H155 C147 1_555 1_555
H156 C147 1_555 1_555
H157 C147 1_555 1_555
C148 C140 1_555 1_555
H158 C148 1_555 1_555
H159 C148 1_555 1_555
H160 C148 1_555 1_555
C149 C128 1_555 1_555
H161 C149 1_555 1_555
H162 C149 1_555 1_555
H163 C149 1_555 1_555
C150 C140 1_555 1_555
H164 C150 1_555 1_555
H165 C150 1_555 1_555
H166 C150 1_555 1_555
C151 C143 1_555 1_555
H167 C151 1_555 1_555
H168 C151 1_555 1_555
H169 C151 1_555 1_555
C152 C143 1_555 1_555
H170 C152 1_555 1_555
H171 C152 1_555 1_555
H172 C152 1_555 1_555
C153 C143 1_555 1_555
H173 C153 1_555 1_555
H174 C153 1_555 1_555
H175 C153 1_555 1_555
C154 C119 1_555 1_555
H176 C154 1_555 1_555
C155 C138 1_555 1_555
C156 C155 1_555 1_555
C157 C156 1_555 1_555
H177 C157 1_555 1_555
H178 C157 1_555 1_555
H179 C157 1_555 1_555
C158 C156 1_555 1_555
H180 C158 1_555 1_555
H181 C158 1_555 1_555
H182 C158 1_555 1_555
C159 C156 1_555 1_555
H183 C159 1_555 1_555
H184 C159 1_555 1_555
H185 C159 1_555 1_555
Cl1 C169 1_555 1_555
Cl2 C169 1_555 1_555
Cl3 C170 1_555 1_555
Cl4 C170 1_555 1_555
Cl5 C171 1_555 1_555
C171 Cl6 1_555 1_555
C4 C6 1_555 1_555
C10 C13 1_555 1_555
N4 C24 1_555 1_555
C16 C20 1_555 1_555
C18 C32 1_555 1_555
C19 C44 1_555 1_555
C22 C27 1_555 1_555
C24 C25 1_555 1_555
C32 C38 1_555 1_555
C33 C38 1_555 1_555
C33 C46 1_555 1_555
C36 C40 1_555 1_555
C37 C43 1_555 1_555
C41 C42 1_555 1_555
C55 C56 1_555 1_555
C92 C100 1_555 1_555
C93 C101 1_555 1_555
C102 C112 1_555 1_555
C103 C113 1_555 1_555
C104 C112 1_555 1_555
C105 C109 1_555 1_555
C106 C111 1_555 1_555
C107 C114 1_555 1_555
C107 C120 1_555 1_555
C108 C125 1_555 1_555
C117 C118 1_555 1_555
C117 C126 1_555 1_555
C122 C129 1_555 1_555
C123 C127 1_555 1_555
C133 C135 1_555 1_555
C136 C142 1_555 1_555
C154 C155 1_555 1_555

#END
