
#######################################################################
#
#                 Cambridge Crystallographic Data Centre
#                                CCDC 
#
#######################################################################
#
# If this CIF has been generated from an entry in the Cambridge 
# Structural Database, then it will include bibliographic, chemical, 
# crystal, experimental, refinement or atomic coordinate data resulting 
# from the CCDC's data processing and validation procedures.
#
#######################################################################

data_URAFAV01
_chemical_formula_moiety         'C23 H14 O6 S1'
_chemical_name_systematic        
3,3'-(3-Thienylmethylene)bis(4-hydroxy-2H-chromen-2-one)
_symmetry_cell_setting           monoclinic
_symmetry_space_group_name_H-M   'P 21/n'
_symmetry_Int_Tables_number      14
_space_group_name_Hall           '-P 2yn'
loop_
_symmetry_equiv_pos_site_id
_symmetry_equiv_pos_as_xyz
1 x,y,z
2 1/2-x,1/2+y,1/2-z
3 -x,-y,-z
4 1/2+x,1/2-y,1/2+z
_cell_length_a                   7.7983(4)
_cell_length_b                   8.9785(5)
_cell_length_c                   26.6473(19)
_cell_angle_alpha                90
_cell_angle_beta                 96.514(6)
_cell_angle_gamma                90
_cell_volume                     1853.72
_cell_formula_units_Z            4
loop_
_atom_site_label
_atom_site_type_symbol
_atom_site_fract_x
_atom_site_fract_y
_atom_site_fract_z
C1 C -0.9759(13) 1.5769(12) 0.4362(4)
C2 C -1.0589(14) 1.6834(12) 0.3927(4)
C3 C -1.0139(15) 1.8238(12) 0.3953(4)
C4 C -0.9039(14) 1.8937(16) 0.4362(4)
C5 C -0.8423(16) 1.7921(13) 0.4756(6)
C6 C -0.7428(18) 1.849(2) 0.5192(5)
H1 H -0.7062 1.7879 0.5464
C7 C -0.7038(19) 1.9915(18) 0.5202(6)
H2 H -0.6340 2.0286 0.5480
C8 C -0.756(2) 2.0793(19) 0.4855(7)
H3 H -0.7246 2.1789 0.4894
C9 C -0.8527(18) 2.0413(13) 0.4438(5)
H4 H -0.8866 2.1127 0.4194
C10 C -1.1931(12) 1.6104(10) 0.3533(4)
H5 H -1.2592 1.6941 0.3374
C11 C -1.0931(16) 1.6457(17) 0.2669(6)
C12 C -1.1062(13) 1.5410(11) 0.3111(3)
C13 C -1.0432(15) 1.4028(14) 0.3100(6)
C14 C -0.9774(10) 1.3519(9) 0.2631(3)
C15 C -0.9798(11) 1.4537(8) 0.2237(3)
C16 C -0.9202(12) 1.4121(13) 0.1785(3)
H6 H -0.9217 1.4802 0.1522
C17 C -0.8583(11) 1.2687(14) 0.1727(3)
H7 H -0.8184 1.2408 0.1425
C18 C -0.8559(11) 1.1669(10) 0.2121(5)
H8 H -0.8145 1.0709 0.2082
C19 C -0.9155(11) 1.2085(8) 0.2573(4)
H9 H -0.9140 1.1404 0.2836
C20 C -1.4291(7) 1.3861(6) 0.3467(2)
H10 H -1.4106 1.3416 0.3175
C21 C -1.3178(9) 1.5196(7) 0.3728(2)
C22 C -1.3960(8) 1.5621(7) 0.4236(2)
H11 H -1.3568 1.6342 0.4456
C23 C -1.5558(7) 1.4549(6) 0.42887(18)
H12 H -1.6229 1.4556 0.4543
S1 S -1.5762(4) 1.3461(4) 0.38134(13)
O1 O -0.8749(11) 1.6400(9) 0.4732(3)
O2 O -0.9832(13) 1.4446(9) 0.4328(3)
O3 O -1.0649(13) 1.9174(11) 0.3594(3)
H13 H -1.097(10) 1.901(8) 0.3276(12)
O4 O -1.0301(13) 1.5939(10) 0.2269(3)
O5 O -1.1283(13) 1.7771(10) 0.2692(3)
O6 O -1.0332(12) 1.3154(10) 0.3456(3)
H14 H -1.028(9) 1.333(7) 0.3777(10)
loop_
_geom_bond_atom_site_label_1
_geom_bond_atom_site_label_2
_geom_bond_site_symmetry_1
_geom_bond_site_symmetry_2
C1 C2 1_555 1_555
C2 C3 1_555 1_555
C3 C4 1_555 1_555
C4 C5 1_555 1_555
C5 C6 1_555 1_555
C6 H1 1_555 1_555
C7 C6 1_555 1_555
H2 C7 1_555 1_555
C8 C7 1_555 1_555
H3 C8 1_555 1_555
C9 C4 1_555 1_555
H4 C9 1_555 1_555
C10 C2 1_555 1_555
H5 C10 1_555 1_555
C11 C12 1_555 1_555
C12 C10 1_555 1_555
C13 C12 1_555 1_555
C14 C13 1_555 1_555
C15 C14 1_555 1_555
C16 C15 1_555 1_555
H6 C16 1_555 1_555
C17 C16 1_555 1_555
H7 C17 1_555 1_555
C18 C17 1_555 1_555
H8 C18 1_555 1_555
C19 C14 1_555 1_555
H9 C19 1_555 1_555
C20 H10 1_555 1_555
C21 C10 1_555 1_555
C22 C21 1_555 1_555
H11 C22 1_555 1_555
C23 C22 1_555 1_555
H12 C23 1_555 1_555
S1 C20 1_555 1_555
O1 C1 1_555 1_555
O2 C1 1_555 1_555
O3 C3 1_555 1_555
H13 O3 1_555 1_555
O4 C11 1_555 1_555
O5 C11 1_555 1_555
O6 C13 1_555 1_555
H14 O6 1_555 1_555
C5 O1 1_555 1_555
C8 C9 1_555 1_555
C15 O4 1_555 1_555
C18 C19 1_555 1_555
C20 C21 1_555 1_555
C23 S1 1_555 1_555

#END
