
#######################################################################
#
#                 Cambridge Crystallographic Data Centre
#                                CCDC 
#
#######################################################################
#
# If this CIF has been generated from an entry in the Cambridge 
# Structural Database, then it will include bibliographic, chemical, 
# crystal, experimental, refinement or atomic coordinate data resulting 
# from the CCDC's data processing and validation procedures.
#
#######################################################################

data_URAFID
_chemical_name_common            
(5-Methyl-3-(3-methyl-2-thienyl)-4,5-dihydro-1,2-oxazol-5-yl)methanol
_chemical_formula_moiety         'C10 H13 N1 O2 S1'
_chemical_name_systematic        
(S)-[5-Methyl-3-(3-methylthiophen-2-yl)-4,5-dihydroisoxazol-5-yl]methanol
_symmetry_cell_setting           orthorhombic
_symmetry_space_group_name_H-M   'P 21 21 21'
_symmetry_Int_Tables_number      19
_space_group_name_Hall           'P 2ac 2ab'
loop_
_symmetry_equiv_pos_site_id
_symmetry_equiv_pos_as_xyz
1 x,y,z
2 1/2-x,-y,1/2+z
3 -x,1/2+y,1/2-z
4 1/2+x,1/2-y,-z
_cell_length_a                   7.3672(9)
_cell_length_b                   8.8534(11)
_cell_length_c                   16.0632(19)
_cell_angle_alpha                90
_cell_angle_beta                 90
_cell_angle_gamma                90
_cell_volume                     1047.72
_exptl_crystal_colour            silver
_exptl_crystal_description       block
_cell_formula_units_Z            4
_exptl_crystal_recrystallization_method 'ethyl acetate'
loop_
_atom_site_label
_atom_site_type_symbol
_atom_site_fract_x
_atom_site_fract_y
_atom_site_fract_z
S1 S -0.00757(12) 0.90745(7) 0.64150(4)
C1 C -0.0074(4) 0.8815(3) 0.53306(13)
C2 C -0.0070(5) 0.7321(3) 0.51314(15)
C3 C -0.0075(4) 0.6395(3) 0.58618(17)
H1 H -0.0080 0.5345 0.5841
C4 C -0.0071(5) 0.7169(3) 0.65749(17)
H2 H -0.0067 0.6721 0.7099
C5 C -0.0104(4) 1.0139(2) 0.47984(12)
N1 N -0.0045(4) 1.1462(2) 0.51234(11)
O1 O -0.0178(4) 1.25711(18) 0.45051(10)
C6 C -0.0104(4) 1.1857(3) 0.36792(13)
C7 C -0.0244(4) 1.0174(3) 0.38670(13)
H3 H -0.1394 0.9763 0.3679
H4 H 0.0740 0.9615 0.3610
C8 C 0.1691(4) 1.2299(4) 0.3280(2)
H5 H 0.1707 1.3369 0.3182
H6 H 0.1828 1.1774 0.2760
H7 H 0.2672 1.2033 0.3645
C9 C -0.1672(4) 1.2500(4) 0.31872(17)
H8 H -0.1627 1.3593 0.3219
H9 H -0.1527 1.2219 0.2607
O2 O -0.3406(2) 1.2007(2) 0.34646(11)
H10 H -0.3554 1.2261 0.3951
C10 C -0.0073(5) 0.6707(3) 0.42966(17)
H11 H -0.0080 0.7518 0.3900
H12 H -0.1134 0.6093 0.4220
H13 H 0.0994 0.6101 0.4216
loop_
_geom_bond_atom_site_label_1
_geom_bond_atom_site_label_2
_geom_bond_site_symmetry_1
_geom_bond_site_symmetry_2
S1 C1 1_555 1_555
C1 C2 1_555 1_555
C2 C3 1_555 1_555
C3 H1 1_555 1_555
C4 S1 1_555 1_555
H2 C4 1_555 1_555
C5 C1 1_555 1_555
N1 C5 1_555 1_555
O1 N1 1_555 1_555
C6 O1 1_555 1_555
C7 C5 1_555 1_555
H3 C7 1_555 1_555
H4 C7 1_555 1_555
C8 C6 1_555 1_555
H5 C8 1_555 1_555
H6 C8 1_555 1_555
H7 C8 1_555 1_555
C9 C6 1_555 1_555
H8 C9 1_555 1_555
H9 C9 1_555 1_555
O2 C9 1_555 1_555
H10 O2 1_555 1_555
C10 C2 1_555 1_555
H11 C10 1_555 1_555
H12 C10 1_555 1_555
H13 C10 1_555 1_555
C3 C4 1_555 1_555
C6 C7 1_555 1_555

#END
