
#######################################################################
#
#                 Cambridge Crystallographic Data Centre
#                                CCDC 
#
#######################################################################
#
# If this CIF has been generated from an entry in the Cambridge 
# Structural Database, then it will include bibliographic, chemical, 
# crystal, experimental, refinement or atomic coordinate data resulting 
# from the CCDC's data processing and validation procedures.
#
#######################################################################

data_URAKAA
_chemical_formula_moiety         'C30 H38 O4 S2'
_chemical_name_systematic        
'Dimethyl 2,5-bis(5-hexyl-2-thienyl)terephthalate'
_symmetry_cell_setting           monoclinic
_symmetry_space_group_name_H-M   'P 2/c'
_symmetry_Int_Tables_number      13
_space_group_name_Hall           '-P 2yc'
loop_
_symmetry_equiv_pos_site_id
_symmetry_equiv_pos_as_xyz
1 x,y,z
2 -x,y,1/2-z
3 -x,-y,-z
4 x,-y,1/2+z
_cell_length_a                   15.617(6)
_cell_length_b                   8.083(3)
_cell_length_c                   11.585(4)
_cell_angle_alpha                90
_cell_angle_beta                 104.470(4)
_cell_angle_gamma                90
_cell_volume                     1416.01
_exptl_crystal_colour            colorless
_exptl_crystal_description       block
_chemical_melting_point          '362 K'
_cell_formula_units_Z            2
loop_
_atom_site_label
_atom_site_type_symbol
_atom_site_fract_x
_atom_site_fract_y
_atom_site_fract_z
C1 C 0.07441(12) 0.8250(2) -0.01209(17)
C2 C 0.03976(12) 0.6534(2) -0.00661(17)
C3 C 0.07574(12) 0.5472(2) 0.08892(16)
C4 C 0.15632(12) 0.5867(2) 0.18357(17)
C5 C 0.16918(13) 0.5716(3) 0.30285(18)
H1 H 0.1254 0.5364 0.3388
C6 C 0.25579(14) 0.6143(3) 0.36780(19)
H2 H 0.2739 0.6121 0.4506
C7 C 0.30953(12) 0.6585(2) 0.29820(18)
C8 C 0.40559(13) 0.7071(3) 0.3327(2)
H3 H 0.4122 0.8115 0.2946
H4 H 0.4393 0.6246 0.3020
C9 C 0.44453(13) 0.7245(3) 0.4653(2)
H5 H 0.4376 0.6205 0.5037
H6 H 0.4115 0.8080 0.4960
C10 C 0.54203(14) 0.7720(3) 0.4984(2)
H7 H 0.5750 0.6890 0.4672
H8 H 0.5489 0.8764 0.4604
C11 C 0.58113(14) 0.7884(3) 0.6310(2)
H9 H 0.5466 0.8688 0.6621
H10 H 0.5752 0.6830 0.6682
C12 C 0.67691(15) 0.8399(3) 0.6673(2)
H11 H 0.7115 0.7618 0.6342
H12 H 0.6827 0.9475 0.6330
C13 C 0.71464(18) 0.8491(3) 0.7999(2)
H13 H 0.6816 0.9277 0.8334
H14 H 0.7754 0.8833 0.8164
H15 H 0.7111 0.7422 0.8345
C14 C 0.03448(12) 0.3957(2) 0.09348(17)
H16 H 0.0574 0.3248 0.1569
C15 C 0.11166(16) 1.0295(3) -0.1356(2)
H17 H 0.0682 1.1060 -0.1218
H18 H 0.1181 1.0434 -0.2153
H19 H 0.1673 1.0503 -0.0797
O1 O 0.08339(9) 0.86154(16) -0.12051(12)
O2 O 0.09033(9) 0.91985(17) 0.07033(12)
S1 S 0.25288(3) 0.65154(7) 0.15037(5)
C1B C -0.07441(12) 0.1750(2) 0.01209(17)
C2B C -0.03976(12) 0.3466(2) 0.00661(17)
C3B C -0.07574(12) 0.4528(2) -0.08892(16)
C4B C -0.15632(12) 0.4133(2) -0.18357(17)
C5B C -0.16918(13) 0.4284(3) -0.30285(18)
H1B H -0.1254 0.4636 -0.3388
C6B C -0.25579(14) 0.3857(3) -0.36780(19)
H2B H -0.2739 0.3879 -0.4506
C7B C -0.30953(12) 0.3415(2) -0.29820(18)
C8B C -0.40559(13) 0.2929(3) -0.3327(2)
H3B H -0.4122 0.1885 -0.2946
H4B H -0.4393 0.3754 -0.3020
C9B C -0.44453(13) 0.2755(3) -0.4653(2)
H5B H -0.4376 0.3795 -0.5037
H6B H -0.4115 0.1920 -0.4960
C10B C -0.54203(14) 0.2280(3) -0.4984(2)
H7B H -0.5750 0.3110 -0.4672
H8B H -0.5489 0.1236 -0.4604
C11B C -0.58113(14) 0.2116(3) -0.6310(2)
H9B H -0.5466 0.1312 -0.6621
H10B H -0.5752 0.3170 -0.6682
C12B C -0.67691(15) 0.1601(3) -0.6673(2)
H11B H -0.7115 0.2382 -0.6342
H12B H -0.6827 0.0525 -0.6330
C13B C -0.71464(18) 0.1509(3) -0.7999(2)
H13B H -0.6816 0.0723 -0.8334
H14B H -0.7754 0.1167 -0.8164
H15B H -0.7111 0.2578 -0.8345
C14B C -0.03448(12) 0.6043(2) -0.09348(17)
H16B H -0.0574 0.6752 -0.1569
C15B C -0.11166(16) -0.0295(3) 0.1356(2)
H17B H -0.0682 -0.1060 0.1218
H18B H -0.1181 -0.0434 0.2153
H19B H -0.1673 -0.0503 0.0797
O1B O -0.08339(9) 0.13846(16) 0.12051(12)
O2B O -0.09033(9) 0.08015(17) -0.07033(12)
S1B S -0.25288(3) 0.34846(7) -0.15037(5)
loop_
_geom_bond_atom_site_label_1
_geom_bond_atom_site_label_2
_geom_bond_site_symmetry_1
_geom_bond_site_symmetry_2
C1 C2 1_555 1_555
C2 C3 1_555 1_555
C3 C4 1_555 1_555
C4 C5 1_555 1_555
C5 H1 1_555 1_555
C6 C5 1_555 1_555
H2 C6 1_555 1_555
C7 C6 1_555 1_555
C8 C7 1_555 1_555
H3 C8 1_555 1_555
H4 C8 1_555 1_555
C9 C8 1_555 1_555
H5 C9 1_555 1_555
H6 C9 1_555 1_555
C10 C9 1_555 1_555
H7 C10 1_555 1_555
H8 C10 1_555 1_555
C11 C10 1_555 1_555
H9 C11 1_555 1_555
H10 C11 1_555 1_555
C12 C11 1_555 1_555
H11 C12 1_555 1_555
H12 C12 1_555 1_555
C13 C12 1_555 1_555
H13 C13 1_555 1_555
H14 C13 1_555 1_555
H15 C13 1_555 1_555
C14 C3 1_555 1_555
H16 C14 1_555 1_555
C15 H17 1_555 1_555
H18 C15 1_555 1_555
H19 C15 1_555 1_555
O1 C1 1_555 1_555
O2 C1 1_555 1_555
S1 C4 1_555 1_555
C1B C2B 1_555 1_555
C2B C14 1_555 1_555
C3B C2B 1_555 1_555
C4B C3B 1_555 1_555
C5B C4B 1_555 1_555
H1B C5B 1_555 1_555
C6B C5B 1_555 1_555
H2B C6B 1_555 1_555
C7B C6B 1_555 1_555
C8B C7B 1_555 1_555
H3B C8B 1_555 1_555
H4B C8B 1_555 1_555
C9B C8B 1_555 1_555
H5B C9B 1_555 1_555
H6B C9B 1_555 1_555
C10B C9B 1_555 1_555
H7B C10B 1_555 1_555
H8B C10B 1_555 1_555
C11B C10B 1_555 1_555
H9B C11B 1_555 1_555
H10B C11B 1_555 1_555
C12B C11B 1_555 1_555
H11B C12B 1_555 1_555
H12B C12B 1_555 1_555
C13B C12B 1_555 1_555
H13B C13B 1_555 1_555
H14B C13B 1_555 1_555
H15B C13B 1_555 1_555
C14B C2 1_555 1_555
H16B C14B 1_555 1_555
C15B H17B 1_555 1_555
H18B C15B 1_555 1_555
H19B C15B 1_555 1_555
O1B C1B 1_555 1_555
O2B C1B 1_555 1_555
S1B C4B 1_555 1_555
C7 S1 1_555 1_555
C15 O1 1_555 1_555
C3B C14B 1_555 1_555
C7B S1B 1_555 1_555
C15B O1B 1_555 1_555

#END
