
#######################################################################
#
#                 Cambridge Crystallographic Data Centre
#                                CCDC 
#
#######################################################################
#
# If this CIF has been generated from an entry in the Cambridge 
# Structural Database, then it will include bibliographic, chemical, 
# crystal, experimental, refinement or atomic coordinate data resulting 
# from the CCDC's data processing and validation procedures.
#
#######################################################################

data_URANIM
_chemical_formula_moiety         'C38 H32 S2'
_chemical_name_systematic        7,14-dimesitylthiochromeno[2,3-b]thioxanthene
_symmetry_cell_setting           monoclinic
_symmetry_space_group_name_H-M   'P 21/n'
_symmetry_Int_Tables_number      14
_space_group_name_Hall           '-P 2yn'
loop_
_symmetry_equiv_pos_site_id
_symmetry_equiv_pos_as_xyz
1 x,y,z
2 1/2-x,1/2+y,1/2-z
3 -x,-y,-z
4 1/2+x,1/2-y,1/2+z
_cell_length_a                   10.3332(3)
_cell_length_b                   11.9045(4)
_cell_length_c                   11.7958(4)
_cell_angle_alpha                90
_cell_angle_beta                 103.3240(10)
_cell_angle_gamma                90
_cell_volume                     1411.96
_exptl_crystal_colour            red
_exptl_crystal_description       'prism frag'
_cell_formula_units_Z            2
loop_
_atom_site_label
_atom_site_type_symbol
_atom_site_fract_x
_atom_site_fract_y
_atom_site_fract_z
S1 S 0.18913(2) 1.02560(2) 0.43335(2)
C1 C 0.36231(10) 1.01683(8) 0.47364(9)
C2 C 0.41410(9) 0.92022(8) 0.52809(8)
H1 H 0.3549 0.8668 0.5482
C3 C 0.55406(9) 0.89553(8) 0.55649(8)
C4 C 0.60159(10) 0.79360(8) 0.60595(9)
C5 C 0.74149(9) 0.76149(8) 0.62973(8)
C6 C 0.84157(10) 0.83490(8) 0.61052(9)
C7 C 0.97414(10) 0.80111(9) 0.63138(10)
H2 H 1.0396 0.8515 0.6164
C8 C 1.01108(11) 0.69418(10) 0.67390(11)
H3 H 1.1016 0.6715 0.6886
C9 C 0.91453(11) 0.62039(9) 0.69482(10)
H4 H 0.9392 0.5473 0.7243
C10 C 0.78228(10) 0.65360(9) 0.67261(9)
H5 H 0.7175 0.6021 0.6867
C11 C 0.50464(10) 0.70888(8) 0.63100(9)
C12 C 0.48664(10) 0.69438(9) 0.74439(9)
C13 C 0.39565(10) 0.61418(9) 0.76455(10)
H6 H 0.3833 0.6044 0.8413
C14 C 0.32266(10) 0.54824(9) 0.67465(10)
C15 C 0.34044(10) 0.56518(9) 0.56242(10)
H7 H 0.2895 0.5221 0.5001
C16 C 0.43101(10) 0.64368(9) 0.53910(9)
C17 C 0.56637(12) 0.76280(10) 0.84408(10)
H8 H 0.6562 0.7314 0.8685
H9 H 0.5229 0.7606 0.9096
H10 H 0.5718 0.8407 0.8188
C18 C 0.22763(12) 0.45915(10) 0.69710(13)
H11 H 0.2689 0.3850 0.6973
H12 H 0.1457 0.4619 0.6357
H13 H 0.2067 0.4727 0.7728
C19 C 0.44752(12) 0.65773(10) 0.41631(9)
H14 H 0.4063 0.5940 0.3688
H15 H 0.5424 0.6607 0.4168
H16 H 0.4046 0.7276 0.3834
S1B S 0.81087(2) 0.97440(2) 0.56665(2)
C1B C 0.63769(10) 0.98317(8) 0.52636(9)
C2B C 0.58590(9) 1.07978(8) 0.47191(8)
H1B H 0.6451 1.1332 0.4518
C3B C 0.44594(9) 1.10447(8) 0.44351(8)
C4B C 0.39841(10) 1.20640(8) 0.39405(9)
C5B C 0.25851(9) 1.23851(8) 0.37027(8)
C6B C 0.15843(10) 1.16510(8) 0.38948(9)
C7B C 0.02586(10) 1.19889(9) 0.36862(10)
H2B H -0.0396 1.1485 0.3836
C8B C -0.01108(11) 1.30582(10) 0.32610(11)
H3B H -0.1016 1.3285 0.3114
C9B C 0.08547(11) 1.37961(9) 0.30518(10)
H4B H 0.0608 1.4527 0.2757
C10B C 0.21772(10) 1.34640(9) 0.32739(9)
H5B H 0.2825 1.3979 0.3133
C11B C 0.49536(10) 1.29112(8) 0.36900(9)
C12B C 0.51336(10) 1.30562(9) 0.25561(9)
C13B C 0.60435(10) 1.38582(9) 0.23545(10)
H6B H 0.6167 1.3956 0.1587
C14B C 0.67734(10) 1.45176(9) 0.32535(10)
C15B C 0.65956(10) 1.43482(9) 0.43758(10)
H7B H 0.7105 1.4779 0.4999
C16B C 0.56899(10) 1.35632(9) 0.46090(9)
C17B C 0.43363(12) 1.23720(10) 0.15592(10)
H8B H 0.3438 1.2686 0.1315
H9B H 0.4771 1.2394 0.0904
H10B H 0.4282 1.1593 0.1812
C18B C 0.77237(12) 1.54085(10) 0.30290(13)
H11B H 0.7311 1.6150 0.3027
H12B H 0.8543 1.5381 0.3643
H13B H 0.7933 1.5273 0.2272
C19B C 0.55248(12) 1.34227(10) 0.58369(9)
H14B H 0.5937 1.4060 0.6312
H15B H 0.4576 1.3393 0.5832
H16B H 0.5954 1.2724 0.6166
loop_
_geom_bond_atom_site_label_1
_geom_bond_atom_site_label_2
_geom_bond_site_symmetry_1
_geom_bond_site_symmetry_2
S1 C1 1_555 1_555
C1 C2 1_555 1_555
C2 H1 1_555 1_555
C3 C2 1_555 1_555
C4 C3 1_555 1_555
C5 C4 1_555 1_555
C6 C5 1_555 1_555
C7 C6 1_555 1_555
H2 C7 1_555 1_555
C8 C7 1_555 1_555
H3 C8 1_555 1_555
C9 C8 1_555 1_555
H4 C9 1_555 1_555
C10 C5 1_555 1_555
H5 C10 1_555 1_555
C11 C4 1_555 1_555
C12 C11 1_555 1_555
C13 C12 1_555 1_555
H6 C13 1_555 1_555
C14 C13 1_555 1_555
C15 C14 1_555 1_555
H7 C15 1_555 1_555
C16 C11 1_555 1_555
C17 C12 1_555 1_555
H8 C17 1_555 1_555
H9 C17 1_555 1_555
H10 C17 1_555 1_555
C18 C14 1_555 1_555
H11 C18 1_555 1_555
H12 C18 1_555 1_555
H13 C18 1_555 1_555
C19 C16 1_555 1_555
H14 C19 1_555 1_555
H15 C19 1_555 1_555
H16 C19 1_555 1_555
S1B C6 1_555 1_555
C1B C3 1_555 1_555
C2B C1B 1_555 1_555
H1B C2B 1_555 1_555
C3B C1 1_555 1_555
C4B C3B 1_555 1_555
C5B C4B 1_555 1_555
C6B S1 1_555 1_555
C7B C6B 1_555 1_555
H2B C7B 1_555 1_555
C8B C7B 1_555 1_555
H3B C8B 1_555 1_555
C9B C8B 1_555 1_555
H4B C9B 1_555 1_555
C10B C5B 1_555 1_555
H5B C10B 1_555 1_555
C11B C4B 1_555 1_555
C12B C11B 1_555 1_555
C13B C12B 1_555 1_555
H6B C13B 1_555 1_555
C14B C13B 1_555 1_555
C15B C14B 1_555 1_555
H7B C15B 1_555 1_555
C16B C11B 1_555 1_555
C17B C12B 1_555 1_555
H8B C17B 1_555 1_555
H9B C17B 1_555 1_555
H10B C17B 1_555 1_555
C18B C14B 1_555 1_555
H11B C18B 1_555 1_555
H12B C18B 1_555 1_555
H13B C18B 1_555 1_555
C19B C16B 1_555 1_555
H14B C19B 1_555 1_555
H15B C19B 1_555 1_555
H16B C19B 1_555 1_555
C9 C10 1_555 1_555
C15 C16 1_555 1_555
S1B C1B 1_555 1_555
C2B C3B 1_555 1_555
C5B C6B 1_555 1_555
C9B C10B 1_555 1_555
C15B C16B 1_555 1_555

#END
