
#######################################################################
#
#                 Cambridge Crystallographic Data Centre
#                                CCDC 
#
#######################################################################
#
# If this CIF has been generated from an entry in the Cambridge 
# Structural Database, then it will include bibliographic, chemical, 
# crystal, experimental, refinement or atomic coordinate data resulting 
# from the CCDC's data processing and validation procedures.
#
#######################################################################

data_URANEH
_chemical_formula_moiety         'C14 H12 O4'
_chemical_name_systematic        '2-(3-Methoxyphenoxy)benzoic acid'
_symmetry_cell_setting           orthorhombic
_symmetry_space_group_name_H-M   'P b c a'
_symmetry_Int_Tables_number      61
_space_group_name_Hall           '-P 2ac 2ab'
loop_
_symmetry_equiv_pos_site_id
_symmetry_equiv_pos_as_xyz
1 x,y,z
2 1/2-x,-y,1/2+z
3 1/2+x,1/2-y,-z
4 -x,1/2+y,1/2-z
5 -x,-y,-z
6 1/2+x,y,1/2-z
7 1/2-x,1/2+y,z
8 x,1/2-y,1/2+z
_cell_length_a                   14.309(3)
_cell_length_b                   8.5330(17)
_cell_length_c                   19.432(4)
_cell_angle_alpha                90
_cell_angle_beta                 90
_cell_angle_gamma                90
_cell_volume                     2372.62
_exptl_crystal_colour            colorless
_exptl_crystal_description       block
_cell_formula_units_Z            8
loop_
_atom_site_label
_atom_site_type_symbol
_atom_site_fract_x
_atom_site_fract_y
_atom_site_fract_z
O1 O 0.60412(16) 0.2617(3) 0.77635(10)
C1 C 0.6361(3) 0.4135(4) 0.79576(18)
H1 H 0.6239 0.4863 0.7592
H2 H 0.7021 0.4098 0.8046
H3 H 0.6040 0.4468 0.8366
O2 O 0.70190(16) 0.0652(2) 0.99264(12)
C2 C 0.6162(2) 0.1419(4) 0.82240(16)
O3 O 0.88741(15) 0.0003(3) 0.97959(10)
C3 C 0.6528(2) 0.1601(4) 0.88657(16)
H4 H 0.6720 0.2584 0.9016
O4 O 0.95145(16) -0.0699(3) 1.07827(11)
H5 H 0.9992 -0.0465 1.0573
C4 C 0.6614(2) 0.0306(4) 0.92945(16)
C5 C 0.6323(2) -0.1143(4) 0.90941(18)
H6 H 0.6371 -0.2000 0.9388
C6 C 0.5953(3) -0.1298(4) 0.84420(18)
H7 H 0.5751 -0.2279 0.8296
C7 C 0.5878(2) -0.0056(5) 0.80078(18)
H8 H 0.5636 -0.0193 0.7568
C8 C 0.7034(2) -0.0465(4) 1.04428(17)
C9 C 0.7889(2) -0.0922(3) 1.06981(15)
C10 C 0.7896(2) -0.1884(4) 1.12863(16)
H9 H 0.8463 -0.2195 1.1477
C11 C 0.7077(3) -0.2363(4) 1.15792(17)
H10 H 0.7090 -0.3012 1.1964
C12 C 0.6238(3) -0.1898(5) 1.1312(2)
H11 H 0.5683 -0.2236 1.1512
C13 C 0.6218(2) -0.0919(5) 1.0743(2)
H12 H 0.5650 -0.0575 1.0567
C14 C 0.8796(2) -0.0495(4) 1.03863(15)
loop_
_geom_bond_atom_site_label_1
_geom_bond_atom_site_label_2
_geom_bond_site_symmetry_1
_geom_bond_site_symmetry_2
O1 C1 1_555 1_555
C1 H1 1_555 1_555
H2 C1 1_555 1_555
H3 C1 1_555 1_555
O2 C4 1_555 1_555
C2 O1 1_555 1_555
O3 C14 1_555 1_555
C3 C2 1_555 1_555
H4 C3 1_555 1_555
O4 H5 1_555 1_555
C4 C3 1_555 1_555
C5 C4 1_555 1_555
H6 C5 1_555 1_555
C6 C5 1_555 1_555
H7 C6 1_555 1_555
C7 C2 1_555 1_555
H8 C7 1_555 1_555
C8 O2 1_555 1_555
C9 C8 1_555 1_555
C10 C9 1_555 1_555
H9 C10 1_555 1_555
C11 C10 1_555 1_555
H10 C11 1_555 1_555
C12 C11 1_555 1_555
H11 C12 1_555 1_555
C13 C8 1_555 1_555
H12 C13 1_555 1_555
C14 O4 1_555 1_555
C6 C7 1_555 1_555
C9 C14 1_555 1_555
C12 C13 1_555 1_555

#END
