
#######################################################################
#
#                 Cambridge Crystallographic Data Centre
#                                CCDC 
#
#######################################################################
#
# If this CIF has been generated from an entry in the Cambridge 
# Structural Database, then it will include bibliographic, chemical, 
# crystal, experimental, refinement or atomic coordinate data resulting 
# from the CCDC's data processing and validation procedures.
#
#######################################################################

data_URAQEK03
_chemical_formula_moiety         'C22 H30 N4 O2'
_chemical_name_systematic        
2,2'-(Hydrazine-1,2-diylidenedimethylylidene)bis(5-(diethylamino)phenol)
_symmetry_cell_setting           triclinic
_symmetry_space_group_name_H-M   'P -1'
_symmetry_Int_Tables_number      2
_space_group_name_Hall           '-P 1'
loop_
_symmetry_equiv_pos_site_id
_symmetry_equiv_pos_as_xyz
1 x,y,z
2 -x,-y,-z
_cell_length_a                   6.9676(19)
_cell_length_b                   8.345(3)
_cell_length_c                   9.765(4)
_cell_angle_alpha                79.75(3)
_cell_angle_beta                 70.26(3)
_cell_angle_gamma                83.19(3)
_cell_volume                     524.838
_exptl_crystal_colour            yellow
_exptl_crystal_description       block
_cell_formula_units_Z            1
loop_
_atom_site_label
_atom_site_type_symbol
_atom_site_fract_x
_atom_site_fract_y
_atom_site_fract_z
O1 O 0.8930(2) 0.24085(19) 0.3809(2)
H1 H 0.8229 0.3179 0.4182
N1 N 0.5616(3) 0.43354(19) 0.47029(18)
N2 N 0.8564(3) -0.2128(2) 0.1583(2)
C1 C 0.4661(3) 0.3364(2) 0.4307(2)
H2 H 0.3269 0.3579 0.4464
C2 C 0.5670(3) 0.1964(2) 0.3632(2)
C3 C 0.7763(3) 0.1527(2) 0.3388(2)
C4 C 0.8697(3) 0.0183(2) 0.2730(2)
H3 H 1.0079 -0.0076 0.2589
C5 C 0.7610(3) -0.0806(2) 0.2267(2)
C6 C 0.5505(3) -0.0387(2) 0.2527(2)
H4 H 0.4734 -0.1021 0.2244
C7 C 0.4594(3) 0.0949(2) 0.3193(2)
H5 H 0.3203 0.1191 0.3361
C8 C 1.0761(3) -0.2514(3) 0.1227(3)
H6 H 1.1454 -0.1506 0.0954
H7 H 1.1239 -0.3098 0.0387
C9 C 1.1314(4) -0.3540(3) 0.2502(3)
H8 H 1.2770 -0.3747 0.2225
H9 H 1.0674 -0.4558 0.2753
H10 H 1.0848 -0.2966 0.3336
C10 C 0.7399(4) -0.3324(3) 0.1314(2)
H11 H 0.6085 -0.3398 0.2086
H12 H 0.8127 -0.4387 0.1360
C11 C 0.7055(4) -0.2895(3) -0.0160(2)
H13 H 0.6292 -0.3715 -0.0280
H14 H 0.8349 -0.2841 -0.0931
H15 H 0.6304 -0.1856 -0.0204
O1A O 0.1070(2) 0.75915(19) 0.6191(2)
H1A H 0.1771 0.6821 0.5818
N1A N 0.4384(3) 0.56646(19) 0.52971(18)
N2A N 0.1436(3) 1.2128(2) 0.8417(2)
C1A C 0.5339(3) 0.6636(2) 0.5693(2)
H2A H 0.6731 0.6421 0.5536
C2A C 0.4330(3) 0.8036(2) 0.6368(2)
C3A C 0.2237(3) 0.8473(2) 0.6612(2)
C4A C 0.1303(3) 0.9817(2) 0.7270(2)
H3A H -0.0079 1.0076 0.7411
C5A C 0.2390(3) 1.0806(2) 0.7733(2)
C6A C 0.4495(3) 1.0387(2) 0.7473(2)
H4A H 0.5266 1.1021 0.7756
C7A C 0.5406(3) 0.9051(2) 0.6807(2)
H5A H 0.6797 0.8809 0.6639
C8A C -0.0761(3) 1.2514(3) 0.8773(3)
H6A H -0.1454 1.1506 0.9046
H7A H -0.1239 1.3098 0.9613
C9A C -0.1314(4) 1.3540(3) 0.7498(3)
H8A H -0.2770 1.3747 0.7775
H9A H -0.0674 1.4558 0.7247
H10A H -0.0848 1.2966 0.6664
C10A C 0.2601(4) 1.3324(3) 0.8686(2)
H11A H 0.3915 1.3398 0.7914
H12A H 0.1873 1.4387 0.8640
C11A C 0.2945(4) 1.2895(3) 1.0160(2)
H13A H 0.3708 1.3715 1.0280
H14A H 0.1651 1.2841 1.0931
H15A H 0.3696 1.1856 1.0204
loop_
_geom_bond_atom_site_label_1
_geom_bond_atom_site_label_2
_geom_bond_site_symmetry_1
_geom_bond_site_symmetry_2
O1 H1 1_555 1_555
N1 C1 1_555 1_555
N2 C5 1_555 1_555
C1 H2 1_555 1_555
C2 C1 1_555 1_555
C3 O1 1_555 1_555
C4 C3 1_555 1_555
H3 C4 1_555 1_555
C5 C4 1_555 1_555
C6 C5 1_555 1_555
H4 C6 1_555 1_555
C7 C2 1_555 1_555
H5 C7 1_555 1_555
C8 N2 1_555 1_555
H6 C8 1_555 1_555
H7 C8 1_555 1_555
C9 C8 1_555 1_555
H8 C9 1_555 1_555
H9 C9 1_555 1_555
H10 C9 1_555 1_555
C10 N2 1_555 1_555
H11 C10 1_555 1_555
H12 C10 1_555 1_555
C11 C10 1_555 1_555
H13 C11 1_555 1_555
H14 C11 1_555 1_555
H15 C11 1_555 1_555
O1A H1A 1_555 1_555
N1A N1 1_555 1_555
N2A C5A 1_555 1_555
C1A N1A 1_555 1_555
H2A C1A 1_555 1_555
C2A C1A 1_555 1_555
C3A O1A 1_555 1_555
C4A C3A 1_555 1_555
H3A C4A 1_555 1_555
C5A C4A 1_555 1_555
C6A C5A 1_555 1_555
H4A C6A 1_555 1_555
C7A C2A 1_555 1_555
H5A C7A 1_555 1_555
C8A N2A 1_555 1_555
H6A C8A 1_555 1_555
H7A C8A 1_555 1_555
C9A C8A 1_555 1_555
H8A C9A 1_555 1_555
H9A C9A 1_555 1_555
H10A C9A 1_555 1_555
C10A N2A 1_555 1_555
H11A C10A 1_555 1_555
H12A C10A 1_555 1_555
C11A C10A 1_555 1_555
H13A C11A 1_555 1_555
H14A C11A 1_555 1_555
H15A C11A 1_555 1_555
C2 C3 1_555 1_555
C6 C7 1_555 1_555
C2A C3A 1_555 1_555
C6A C7A 1_555 1_555

#END
