
#######################################################################
#
#                 Cambridge Crystallographic Data Centre
#                                CCDC 
#
#######################################################################
#
# If this CIF has been generated from an entry in the Cambridge 
# Structural Database, then it will include bibliographic, chemical, 
# crystal, experimental, refinement or atomic coordinate data resulting 
# from the CCDC's data processing and validation procedures.
#
#######################################################################

data_URAQOU
_chemical_formula_moiety         'C17 H15 Br1 N4 O2'
_chemical_name_systematic        
3-(2-(6-Bromo-2-phenyl-3H-imidazo[4,5-b]pyridin-3-yl)ethyl)-1,3-oxazolidin-2-one
_symmetry_cell_setting           monoclinic
_symmetry_space_group_name_H-M   'P 21/n'
_symmetry_Int_Tables_number      14
_space_group_name_Hall           '-P 2yn'
loop_
_symmetry_equiv_pos_site_id
_symmetry_equiv_pos_as_xyz
1 x,y,z
2 1/2-x,1/2+y,1/2-z
3 -x,-y,-z
4 1/2+x,1/2-y,1/2+z
_cell_length_a                   11.3553(6)
_cell_length_b                   11.5915(5)
_cell_length_c                   12.2542(8)
_cell_angle_alpha                90
_cell_angle_beta                 98.685(6)
_cell_angle_gamma                90
_cell_volume                     1594.46
_exptl_crystal_colour            colorless
_exptl_crystal_description       block
_chemical_melting_point          '454 K'
_cell_formula_units_Z            4
_exptl_crystal_recrystallization_method ethanol
loop_
_atom_site_label
_atom_site_type_symbol
_atom_site_fract_x
_atom_site_fract_y
_atom_site_fract_z
Br1 Br 0.83535(2) 0.94591(2) 0.34797(3)
O1 O 0.28122(17) 0.80153(15) 0.18265(18)
O2 O 0.09323(15) 0.76454(14) 0.20646(16)
N1 N 0.61867(17) 0.66117(16) 0.33964(18)
N2 N 0.42350(16) 0.82558(14) 0.48010(15)
N3 N 0.43353(16) 0.64555(14) 0.41210(15)
N4 N 0.22330(16) 0.62233(15) 0.23253(16)
C1 C 0.53419(19) 0.70349(17) 0.39157(18)
C2 C 0.7057(2) 0.7361(2) 0.3310(2)
H1 H 0.7694 0.7119 0.2943
C3 C 0.7086(2) 0.84809(19) 0.3727(2)
C4 C 0.61915(19) 0.89053(18) 0.42593(18)
H2 H 0.6204 0.9668 0.4544
C5 C 0.52729(19) 0.81425(17) 0.43494(18)
C6 C 0.37023(19) 0.72409(17) 0.46453(17)
C7 C 0.3943(2) 0.53819(17) 0.3543(2)
H3 H 0.3378 0.4977 0.3952
H4 H 0.4640 0.4872 0.3526
C8 C 0.3343(2) 0.56137(19) 0.2369(2)
H5 H 0.3888 0.6072 0.1981
H6 H 0.3195 0.4870 0.1975
C9 C 0.2077(2) 0.7339(2) 0.2053(2)
C10 C 0.0290(2) 0.6685(2) 0.2428(2)
H7 H -0.0444 0.6533 0.1900
H8 H 0.0066 0.6841 0.3164
C11 C 0.1133(2) 0.5666(2) 0.2479(2)
H9 H 0.1207 0.5270 0.3201
H10 H 0.0873 0.5104 0.1882
C12 C 0.25728(19) 0.69848(18) 0.50368(17)
C13 C 0.2346(2) 0.5929(2) 0.5501(2)
H11 H 0.2927 0.5333 0.5559
C14 C 0.1272(3) 0.5745(2) 0.5880(2)
H12 H 0.1116 0.5019 0.6188
C15 C 0.0434(2) 0.6598(3) 0.5815(2)
H13 H -0.0304 0.6462 0.6069
C16 C 0.0661(2) 0.7651(2) 0.5383(2)
H14 H 0.0085 0.8249 0.5350
C17 C 0.1725(2) 0.7849(2) 0.49934(19)
H15 H 0.1875 0.8581 0.4695
loop_
_geom_bond_atom_site_label_1
_geom_bond_atom_site_label_2
_geom_bond_site_symmetry_1
_geom_bond_site_symmetry_2
Br1 C3 1_555 1_555
O1 C9 1_555 1_555
O2 C9 1_555 1_555
N1 C1 1_555 1_555
N2 C5 1_555 1_555
N3 C1 1_555 1_555
N4 C8 1_555 1_555
C1 C5 1_555 1_555
C2 N1 1_555 1_555
H1 C2 1_555 1_555
C3 C2 1_555 1_555
C4 C3 1_555 1_555
H2 C4 1_555 1_555
C5 C4 1_555 1_555
C6 N2 1_555 1_555
C7 N3 1_555 1_555
H3 C7 1_555 1_555
H4 C7 1_555 1_555
C8 C7 1_555 1_555
H5 C8 1_555 1_555
H6 C8 1_555 1_555
C9 N4 1_555 1_555
C10 O2 1_555 1_555
H7 C10 1_555 1_555
H8 C10 1_555 1_555
C11 N4 1_555 1_555
H9 C11 1_555 1_555
H10 C11 1_555 1_555
C12 C6 1_555 1_555
C13 C12 1_555 1_555
H11 C13 1_555 1_555
C14 C13 1_555 1_555
H12 C14 1_555 1_555
C15 C14 1_555 1_555
H13 C15 1_555 1_555
C16 C15 1_555 1_555
H14 C16 1_555 1_555
C17 C12 1_555 1_555
H15 C17 1_555 1_555
N3 C6 1_555 1_555
C10 C11 1_555 1_555
C16 C17 1_555 1_555

#END
