
#######################################################################
#
#                 Cambridge Crystallographic Data Centre
#                                CCDC 
#
#######################################################################
#
# If this CIF has been generated from an entry in the Cambridge 
# Structural Database, then it will include bibliographic, chemical, 
# crystal, experimental, refinement or atomic coordinate data resulting 
# from the CCDC's data processing and validation procedures.
#
#######################################################################

data_URAQEK07
_chemical_formula_moiety         'C22 H30 N4 O2'
_chemical_name_systematic        
2,2'-(hydrazine-1,2-diylidenedimethylylidene)bis[5-(diethylamino)phenol]
_symmetry_cell_setting           triclinic
_symmetry_space_group_name_H-M   'P -1'
_symmetry_Int_Tables_number      2
_space_group_name_Hall           '-P 1'
loop_
_symmetry_equiv_pos_site_id
_symmetry_equiv_pos_as_xyz
1 x,y,z
2 -x,-y,-z
_cell_length_a                   6.8677(10)
_cell_length_b                   8.2475(12)
_cell_length_c                   9.6475(14)
_cell_angle_alpha                78.996(5)
_cell_angle_beta                 69.498(4)
_cell_angle_gamma                83.187(4)
_cell_volume                     501.628
_exptl_crystal_colour            colorless
_exptl_crystal_description       BLOCK
_cell_formula_units_Z            1
loop_
_atom_site_label
_atom_site_type_symbol
_atom_site_fract_x
_atom_site_fract_y
_atom_site_fract_z
O1 O 0.60291(17) 0.26046(14) 0.11848(14)
H1 H 0.6743 0.1819 0.0823
N1 N 0.9384(2) 0.06710(15) 0.02994(15)
N2 N 0.6348(2) 0.71405(16) 0.34860(16)
C1 C 0.9482(2) 0.54170(19) 0.25004(18)
H2 H 1.0257 0.6055 0.2790
C2 C 0.7195(2) 0.34890(19) 0.16176(18)
C3 C 0.7330(2) 0.58273(18) 0.27738(17)
C4 C 0.9333(2) 0.30594(18) 0.13698(17)
C5 C 0.7530(2) 0.83689(18) 0.37045(18)
H3 H 0.6776 0.9438 0.3654
H4 H 0.8856 0.8454 0.2894
C6 C 1.0429(2) 0.40782(19) 0.18090(17)
H5 H 1.1847 0.3842 0.1627
C7 C 1.0373(2) 0.16493(18) 0.06818(17)
H6 H 1.1792 0.1437 0.0508
C8 C 0.6222(2) 0.48370(18) 0.23037(18)
H7 H 0.4814 0.5093 0.2457
C9 C 0.4119(2) 0.75261(19) 0.38351(18)
H8 H 0.3613 0.8116 0.4684
H9 H 0.3410 0.6502 0.4122
C10 C 0.7926(3) 0.7961(2) 0.51930(19)
H10 H 0.6620 0.7911 0.6002
H11 H 0.8719 0.8803 0.5269
H12 H 0.8690 0.6911 0.5246
C11 C 0.3586(3) 0.8572(2) 0.2518(2)
H13 H 0.4298 0.9581 0.2220
H14 H 0.2110 0.8825 0.2812
H15 H 0.4013 0.7968 0.1692
O1A O 1.39709(17) -0.26046(14) -0.11848(14)
H1A H 1.3257 -0.1819 -0.0823
N1A N 1.0616(2) -0.06710(15) -0.02994(15)
N2A N 1.3652(2) -0.71405(16) -0.34860(16)
C1A C 1.0518(2) -0.54170(19) -0.25004(18)
H2A H 0.9743 -0.6055 -0.2790
C2A C 1.2805(2) -0.34890(19) -0.16176(18)
C3A C 1.2670(2) -0.58273(18) -0.27738(17)
C4A C 1.0667(2) -0.30594(18) -0.13698(17)
C5A C 1.2470(2) -0.83689(18) -0.37045(18)
H3A H 1.3224 -0.9438 -0.3654
H4A H 1.1144 -0.8454 -0.2894
C6A C 0.9571(2) -0.40782(19) -0.18090(17)
H5A H 0.8153 -0.3842 -0.1627
C7A C 0.9627(2) -0.16493(18) -0.06818(17)
H6A H 0.8208 -0.1437 -0.0508
C8A C 1.3778(2) -0.48370(18) -0.23037(18)
H7A H 1.5186 -0.5093 -0.2457
C9A C 1.5881(2) -0.75261(19) -0.38351(18)
H8A H 1.6387 -0.8116 -0.4684
H9A H 1.6590 -0.6502 -0.4122
C10A C 1.2074(3) -0.7961(2) -0.51930(19)
H10A H 1.3380 -0.7911 -0.6002
H11A H 1.1281 -0.8803 -0.5269
H12A H 1.1310 -0.6911 -0.5246
C11A C 1.6414(3) -0.8572(2) -0.2518(2)
H13A H 1.5702 -0.9581 -0.2220
H14A H 1.7890 -0.8825 -0.2812
H15A H 1.5987 -0.7968 -0.1692
loop_
_geom_bond_atom_site_label_1
_geom_bond_atom_site_label_2
_geom_bond_site_symmetry_1
_geom_bond_site_symmetry_2
O1 H1 1_555 1_555
N1 C7 1_555 1_555
N2 C3 1_555 1_555
C1 H2 1_555 1_555
C2 O1 1_555 1_555
C3 C1 1_555 1_555
C4 C2 1_555 1_555
C5 N2 1_555 1_555
H3 C5 1_555 1_555
H4 C5 1_555 1_555
C6 C1 1_555 1_555
H5 C6 1_555 1_555
C7 C4 1_555 1_555
H6 C7 1_555 1_555
C8 C2 1_555 1_555
H7 C8 1_555 1_555
C9 N2 1_555 1_555
H8 C9 1_555 1_555
H9 C9 1_555 1_555
C10 C5 1_555 1_555
H10 C10 1_555 1_555
H11 C10 1_555 1_555
H12 C10 1_555 1_555
C11 C9 1_555 1_555
H13 C11 1_555 1_555
H14 C11 1_555 1_555
H15 C11 1_555 1_555
O1A H1A 1_555 1_555
N1A N1 1_555 1_555
N2A C3A 1_555 1_555
C1A H2A 1_555 1_555
C2A O1A 1_555 1_555
C3A C1A 1_555 1_555
C4A C2A 1_555 1_555
C5A N2A 1_555 1_555
H3A C5A 1_555 1_555
H4A C5A 1_555 1_555
C6A C1A 1_555 1_555
H5A C6A 1_555 1_555
C7A N1A 1_555 1_555
H6A C7A 1_555 1_555
C8A C2A 1_555 1_555
H7A C8A 1_555 1_555
C9A N2A 1_555 1_555
H8A C9A 1_555 1_555
H9A C9A 1_555 1_555
C10A C5A 1_555 1_555
H10A C10A 1_555 1_555
H11A C10A 1_555 1_555
H12A C10A 1_555 1_555
C11A C9A 1_555 1_555
H13A C11A 1_555 1_555
H14A C11A 1_555 1_555
H15A C11A 1_555 1_555
C3 C8 1_555 1_555
C4 C6 1_555 1_555
C3A C8A 1_555 1_555
C4A C6A 1_555 1_555
C4A C7A 1_555 1_555

#END
