
#######################################################################
#
#                 Cambridge Crystallographic Data Centre
#                                CCDC 
#
#######################################################################
#
# If this CIF has been generated from an entry in the Cambridge 
# Structural Database, then it will include bibliographic, chemical, 
# crystal, experimental, refinement or atomic coordinate data resulting 
# from the CCDC's data processing and validation procedures.
#
#######################################################################

data_URAQAG
_chemical_name_common            
1,3-bis(Prop-2-ynyl)-1H-1,3-benzimidazol-2(3H)-one
_chemical_formula_moiety         'C13 H10 N2 O1'
_chemical_name_systematic        
1,3-bis(Prop-2-yn-1-yl)-1,3-dihydro-2H-benzimidazol-2-one
_symmetry_cell_setting           monoclinic
_symmetry_space_group_name_H-M   'P 21/c'
_symmetry_Int_Tables_number      14
_space_group_name_Hall           '-P 2ybc'
loop_
_symmetry_equiv_pos_site_id
_symmetry_equiv_pos_as_xyz
1 x,y,z
2 -x,1/2+y,1/2-z
3 -x,-y,-z
4 x,1/2-y,1/2+z
_cell_length_a                   7.7398(4)
_cell_length_b                   17.1869(9)
_cell_length_c                   8.4856(5)
_cell_angle_alpha                90
_cell_angle_beta                 101.459(6)
_cell_angle_gamma                90
_cell_volume                     1106.28
_exptl_crystal_colour            colorless
_exptl_crystal_description       block
_chemical_melting_point          '425 K'
_cell_formula_units_Z            4
_exptl_crystal_recrystallization_method dichloromethane
loop_
_atom_site_label
_atom_site_type_symbol
_atom_site_fract_x
_atom_site_fract_y
_atom_site_fract_z
O1 O 0.19931(12) 0.56190(5) 0.15005(11)
N1 N 0.13961(12) 0.46462(5) 0.32281(11)
N2 N 0.29126(12) 0.56670(5) 0.42832(12)
C1 C 0.20862(14) 0.53446(6) 0.28398(14)
C2 C 0.18290(13) 0.45232(6) 0.48810(13)
C3 C 0.14722(15) 0.39128(7) 0.58201(15)
H1 H 0.0826 0.3470 0.5362
C4 C 0.21003(18) 0.39733(9) 0.74692(16)
H2 H 0.1871 0.3565 0.8153
C5 C 0.30518(18) 0.46160(9) 0.81362(16)
H3 H 0.3463 0.4638 0.9267
C6 C 0.34172(16) 0.52287(8) 0.71876(15)
H4 H 0.4073 0.5669 0.7646
C7 C 0.27878(14) 0.51721(6) 0.55512(14)
C8 C 0.06303(16) 0.40760(7) 0.20295(15)
H5 H 0.0159 0.4343 0.1000
H6 H -0.0362 0.3810 0.2383
C9 C 0.19408(17) 0.34996(7) 0.17828(16)
C10 C 0.3035(2) 0.30587(10) 0.1615(2)
H7 H 0.3927 0.2699 0.1479
C11 C 0.39412(16) 0.63759(7) 0.43751(18)
H8 H 0.4208 0.6484 0.3302
H9 H 0.5076 0.6293 0.5131
C12 C 0.30770(17) 0.70582(7) 0.48968(16)
C13 C 0.2472(2) 0.76260(9) 0.5312(2)
H10 H 0.1980 0.8088 0.5649
loop_
_geom_bond_atom_site_label_1
_geom_bond_atom_site_label_2
_geom_bond_site_symmetry_1
_geom_bond_site_symmetry_2
O1 C1 1_555 1_555
N1 C1 1_555 1_555
N2 C1 1_555 1_555
C2 N1 1_555 1_555
C3 C2 1_555 1_555
H1 C3 1_555 1_555
C4 C3 1_555 1_555
H2 C4 1_555 1_555
C5 C4 1_555 1_555
H3 C5 1_555 1_555
C6 C5 1_555 1_555
H4 C6 1_555 1_555
C7 N2 1_555 1_555
C8 N1 1_555 1_555
H5 C8 1_555 1_555
H6 C8 1_555 1_555
C9 C8 1_555 1_555
C10 C9 1_555 1_555
H7 C10 1_555 1_555
C11 N2 1_555 1_555
H8 C11 1_555 1_555
H9 C11 1_555 1_555
C12 C11 1_555 1_555
C13 C12 1_555 1_555
H10 C13 1_555 1_555
C2 C7 1_555 1_555
C6 C7 1_555 1_555

#END
