
#######################################################################
#
#                 Cambridge Crystallographic Data Centre
#                                CCDC 
#
#######################################################################
#
# If this CIF has been generated from an entry in the Cambridge 
# Structural Database, then it will include bibliographic, chemical, 
# crystal, experimental, refinement or atomic coordinate data resulting 
# from the CCDC's data processing and validation procedures.
#
#######################################################################

data_URAQEK06
_chemical_formula_moiety         'C22 H30 N4 O2'
_chemical_name_systematic        
2,2'-(hydrazine-1,2-diylidenedimethylylidene)bis(5-(diethylamino)phenol)
_symmetry_cell_setting           monoclinic
_symmetry_space_group_name_H-M   'P 21/n'
_symmetry_Int_Tables_number      14
_space_group_name_Hall           '-P 2yn'
loop_
_symmetry_equiv_pos_site_id
_symmetry_equiv_pos_as_xyz
1 x,y,z
2 1/2-x,1/2+y,1/2-z
3 -x,-y,-z
4 1/2+x,1/2-y,1/2+z
_cell_length_a                   11.9967(4)
_cell_length_b                   6.5316(2)
_cell_length_c                   13.3427(4)
_cell_angle_alpha                90
_cell_angle_beta                 95.924(3)
_cell_angle_gamma                90
_cell_volume                     1039.92
_exptl_crystal_colour            'light yellow'
_exptl_crystal_description       block
_cell_formula_units_Z            2
loop_
_atom_site_label
_atom_site_type_symbol
_atom_site_fract_x
_atom_site_fract_y
_atom_site_fract_z
O1 O 0.47801(12) 0.2114(2) 0.29592(10)
H1 H 0.4946 0.2504 0.3540
N1 N 0.48703(11) 0.4644(2) 0.45109(10)
N2 N 0.27204(14) 0.4167(2) -0.01129(11)
C1 C 0.42094(13) 0.3613(2) 0.24240(12)
C2 C 0.38212(14) 0.3204(2) 0.14400(12)
H2 H 0.3980 0.1943 0.1164
C3 C 0.31909(13) 0.4643(3) 0.08394(12)
C4 C 0.30274(14) 0.6588(3) 0.12726(13)
H3 H 0.2643 0.7603 0.0889
C5 C 0.34313(13) 0.6985(3) 0.22499(12)
H4 H 0.3310 0.8274 0.2514
C6 C 0.40198(12) 0.5530(3) 0.28691(11)
C7 C 0.43700(13) 0.5975(3) 0.39051(12)
H5 H 0.4232 0.7272 0.4151
C8 C 0.2004(2) 0.5612(4) -0.07279(18)
H6 H 0.1602 0.6460 -0.0289
H7 H 0.1456 0.4851 -0.1165
C9 C 0.2669(4) 0.6967(5) -0.1362(3)
H8 H 0.2999 0.6148 -0.1850
H9 H 0.3249 0.7647 -0.0937
H10 H 0.2181 0.7968 -0.1702
C10 C 0.29701(16) 0.2239(3) -0.05874(14)
H11 H 0.2412 0.2009 -0.1156
H12 H 0.2901 0.1141 -0.0108
C11 C 0.41180(19) 0.2119(4) -0.09536(17)
H13 H 0.4184 0.3151 -0.1456
H14 H 0.4220 0.0792 -0.1240
H15 H 0.4680 0.2337 -0.0398
O1B O 0.52199(12) 0.7886(2) 0.70408(10)
H1B H 0.5054 0.7496 0.6460
N1B N 0.51297(11) 0.5356(2) 0.54891(10)
N2B N 0.72796(14) 0.5833(2) 1.01129(11)
C1B C 0.57906(13) 0.6387(2) 0.75760(12)
C2B C 0.61788(14) 0.6796(2) 0.85600(12)
H2B H 0.6020 0.8057 0.8836
C3B C 0.68091(13) 0.5357(3) 0.91606(12)
C4B C 0.69726(14) 0.3412(3) 0.87274(13)
H3B H 0.7357 0.2397 0.9111
C5B C 0.65687(13) 0.3015(3) 0.77501(12)
H4B H 0.6690 0.1726 0.7486
C6B C 0.59802(12) 0.4470(3) 0.71309(11)
C7B C 0.56300(13) 0.4025(3) 0.60949(12)
H5B H 0.5768 0.2728 0.5849
C8B C 0.7996(2) 0.4388(4) 1.07279(18)
H6B H 0.8398 0.3540 1.0289
H7B H 0.8544 0.5149 1.1165
C9B C 0.7331(4) 0.3033(5) 1.1362(3)
H8B H 0.7001 0.3852 1.1850
H9B H 0.6751 0.2353 1.0937
H10B H 0.7819 0.2032 1.1702
C10B C 0.70299(16) 0.7761(3) 1.05874(14)
H11B H 0.7588 0.7991 1.1156
H12B H 0.7099 0.8859 1.0108
C11B C 0.58820(19) 0.7881(4) 1.09536(17)
H13B H 0.5816 0.6849 1.1456
H14B H 0.5780 0.9208 1.1240
H15B H 0.5320 0.7663 1.0398
C12? C 0.2896(13) 0.609(3) -0.0908(12)
H16? H 0.3311 0.7218 -0.0576
H17? H 0.3265 0.5643 -0.1483
C13? C 0.1736(19) 0.662(3) -0.119(2)
H18? H 0.1694 0.7963 -0.1482
H19? H 0.1337 0.6601 -0.0602
H20? H 0.1408 0.5643 -0.1671
loop_
_geom_bond_atom_site_label_1
_geom_bond_atom_site_label_2
_geom_bond_site_symmetry_1
_geom_bond_site_symmetry_2
O1 H1 1_555 1_555
N1 C7 1_555 1_555
N2 C3 1_555 1_555
C1 O1 1_555 1_555
C2 C1 1_555 1_555
H2 C2 1_555 1_555
C3 C2 1_555 1_555
C4 C3 1_555 1_555
H3 C4 1_555 1_555
C5 C4 1_555 1_555
H4 C5 1_555 1_555
C6 C1 1_555 1_555
C7 C6 1_555 1_555
H5 C7 1_555 1_555
C8 N2 1_555 1_555
H6 C8 1_555 1_555
H7 C8 1_555 1_555
C9 C8 1_555 1_555
H8 C9 1_555 1_555
H9 C9 1_555 1_555
H10 C9 1_555 1_555
C10 N2 1_555 1_555
H11 C10 1_555 1_555
H12 C10 1_555 1_555
C11 C10 1_555 1_555
H13 C11 1_555 1_555
H14 C11 1_555 1_555
H15 C11 1_555 1_555
O1B H1B 1_555 1_555
N1B N1 1_555 1_555
N2B C3B 1_555 1_555
C1B O1B 1_555 1_555
C2B C1B 1_555 1_555
H2B C2B 1_555 1_555
C3B C2B 1_555 1_555
C4B C3B 1_555 1_555
H3B C4B 1_555 1_555
C5B C4B 1_555 1_555
H4B C5B 1_555 1_555
C6B C1B 1_555 1_555
C7B N1B 1_555 1_555
H5B C7B 1_555 1_555
C8B N2B 1_555 1_555
H6B C8B 1_555 1_555
H7B C8B 1_555 1_555
C9B C8B 1_555 1_555
H8B C9B 1_555 1_555
H9B C9B 1_555 1_555
H10B C9B 1_555 1_555
C10B N2B 1_555 1_555
H11B C10B 1_555 1_555
H12B C10B 1_555 1_555
C11B C10B 1_555 1_555
H13B C11B 1_555 1_555
H14B C11B 1_555 1_555
H15B C11B 1_555 1_555
C5 C6 1_555 1_555
C5B C6B 1_555 1_555
C6B C7B 1_555 1_555

#END
