
#######################################################################
#
#                 Cambridge Crystallographic Data Centre
#                                CCDC 
#
#######################################################################
#
# If this CIF has been generated from an entry in the Cambridge 
# Structural Database, then it will include bibliographic, chemical, 
# crystal, experimental, refinement or atomic coordinate data resulting 
# from the CCDC's data processing and validation procedures.
#
#######################################################################

data_URAROV
_chemical_name_common            
'3-(((5-Chloro-1-naphthyl)sulfonyl)amino)-2-(2-hydroxyethyl)-4,5,6,7-tetrahydro-2H-pyrazolo[4,3-c]pyridin-5-ium chloride'
_chemical_formula_moiety         'C18 H20 Cl1 N4 O3 S1 1+,Cl1 1-'
_chemical_name_systematic        
'3-(5-Chloronaphthalene-1-sulfonamido)-2-(2-hydroxyethyl)-4,5,6,7-tetrahydro-2H-pyrazolo[4,3-c]pyridin-5-ium chloride'
_symmetry_cell_setting           monoclinic
_symmetry_space_group_name_H-M   'P 21/c'
_symmetry_Int_Tables_number      14
_space_group_name_Hall           '-P 2ybc'
loop_
_symmetry_equiv_pos_site_id
_symmetry_equiv_pos_as_xyz
1 x,y,z
2 -x,1/2+y,1/2-z
3 -x,-y,-z
4 x,1/2-y,1/2+z
_cell_length_a                   14.790(3)
_cell_length_b                   10.432(2)
_cell_length_c                   13.155(3)
_cell_angle_alpha                90
_cell_angle_beta                 103.84(3)
_cell_angle_gamma                90
_cell_volume                     1970.75
_exptl_crystal_colour            colorless
_exptl_crystal_description       prism
_cell_formula_units_Z            4
_exptl_crystal_recrystallization_method methanol
loop_
_atom_site_label
_atom_site_type_symbol
_atom_site_fract_x
_atom_site_fract_y
_atom_site_fract_z
C1 C 0.33453(13) 0.45892(19) 0.58292(14)
C2 C 0.27302(14) 0.5562(2) 0.57754(16)
H1 H 0.2497 0.5769 0.6352
C3 C 0.24496(15) 0.6255(2) 0.48403(17)
H2 H 0.2015 0.6909 0.4795
C4 C 0.28016(14) 0.59890(19) 0.39948(16)
H3 H 0.2603 0.6459 0.3381
C5 C 0.34684(13) 0.50006(18) 0.40460(14)
C6 C 0.37435(13) 0.42646(18) 0.49814(14)
C7 C 0.44156(14) 0.32761(19) 0.50555(16)
H4 H 0.4588 0.2794 0.5666
C8 C 0.48095(15) 0.3027(2) 0.42407(17)
H5 H 0.5247 0.2374 0.4297
C9 C 0.45611(14) 0.3748(2) 0.33186(16)
H6 H 0.4843 0.3582 0.2772
C10 C 0.39047(13) 0.46961(18) 0.32171(14)
C11 C 0.22097(13) 0.42683(18) 0.09794(13)
C12 C 0.16017(13) 0.34578(18) 0.13062(14)
C13 C 0.13724(13) 0.25285(19) 0.05261(14)
C14 C 0.07198(15) 0.1447(2) 0.05610(16)
H7 H 0.1068 0.0672 0.0801
H8 H 0.0329 0.1290 -0.0133
C15 C 0.01232(15) 0.1807(2) 0.13058(17)
H9 H -0.0311 0.2476 0.0994
H10 H -0.0235 0.1067 0.1426
C16 C 0.12047(15) 0.3506(2) 0.22543(16)
H11 H 0.1700 0.3633 0.2879
H12 H 0.0771 0.4215 0.2195
C17 C 0.28554(16) 0.4324(2) -0.06542(15)
H13 H 0.2941 0.3657 -0.1136
H14 H 0.3466 0.4569 -0.0242
C18 C 0.24133(19) 0.5456(2) -0.12688(17)
H15 H 0.2272 0.6100 -0.0797
H16 H 0.2842 0.5828 -0.1640
Cl1 Cl 0.36605(4) 0.37099(6) 0.69801(4)
N1 N 0.26065(12) 0.54306(17) 0.14066(12)
N2 N 0.18020(12) 0.27265(16) -0.02419(12)
N3 N 0.07142(12) 0.22688(17) 0.23298(13)
H17 H 0.0351 0.2367 0.2785
H18 H 0.1141 0.1665 0.2590
N4 N 0.23153(11) 0.38037(16) 0.00456(12)
O1 O 0.37721(11) 0.69457(15) 0.23095(12)
O2 O 0.42594(10) 0.50706(17) 0.14152(11)
O3 O 0.15812(13) 0.50853(16) -0.19966(14)
H19 H 0.1378 0.5694 -0.2378
S1 S 0.36955(3) 0.56130(5) 0.20470(4)
H20 H 0.2261(16) 0.595(2) 0.1539(18)
Cl2 Cl 0.09941(4) 0.74385(6) 0.16877(4)
loop_
_geom_bond_atom_site_label_1
_geom_bond_atom_site_label_2
_geom_bond_site_symmetry_1
_geom_bond_site_symmetry_2
C1 C2 1_555 1_555
C2 H1 1_555 1_555
C3 C2 1_555 1_555
H2 C3 1_555 1_555
C4 C3 1_555 1_555
H3 C4 1_555 1_555
C5 C4 1_555 1_555
C6 C1 1_555 1_555
C7 C6 1_555 1_555
H4 C7 1_555 1_555
C8 C7 1_555 1_555
H5 C8 1_555 1_555
C9 C8 1_555 1_555
H6 C9 1_555 1_555
C10 C5 1_555 1_555
C11 C12 1_555 1_555
C12 C13 1_555 1_555
C13 C14 1_555 1_555
C14 H7 1_555 1_555
H8 C14 1_555 1_555
C15 C14 1_555 1_555
H9 C15 1_555 1_555
H10 C15 1_555 1_555
C16 C12 1_555 1_555
H11 C16 1_555 1_555
H12 C16 1_555 1_555
C17 H13 1_555 1_555
H14 C17 1_555 1_555
C18 C17 1_555 1_555
H15 C18 1_555 1_555
H16 C18 1_555 1_555
Cl1 C1 1_555 1_555
N1 C11 1_555 1_555
N2 C13 1_555 1_555
N3 C15 1_555 1_555
H17 N3 1_555 1_555
H18 N3 1_555 1_555
N4 C11 1_555 1_555
O1 S1 1_555 1_555
O2 S1 1_555 1_555
O3 C18 1_555 1_555
H19 O3 1_555 1_555
S1 C10 1_555 1_555
H20 N1 1_555 1_555
C5 C6 1_555 1_555
C9 C10 1_555 1_555
C16 N3 1_555 1_555
C17 N4 1_555 1_555
N1 S1 1_555 1_555
N2 N4 1_555 1_555

#END
