
#######################################################################
#
#                 Cambridge Crystallographic Data Centre
#                                CCDC 
#
#######################################################################
#
# If this CIF has been generated from an entry in the Cambridge 
# Structural Database, then it will include bibliographic, chemical, 
# crystal, experimental, refinement or atomic coordinate data resulting 
# from the CCDC's data processing and validation procedures.
#
#######################################################################

data_URARUB
_chemical_name_common            
"1,1'-(2,2-bis(Hydroxymethyl)propane-1,3-diyl)dipyridinium bis(hexafluorophosphate)"
_chemical_formula_moiety         'C15 H20 N2 O2 2+,2(F6 P1 1-)'
_chemical_name_systematic        
"1,1'-((1,3-Dihydroxypropane-2,2-diyl)dimethylene)dipyridinium bis(hexafluorophosphate)"
_symmetry_cell_setting           monoclinic
_symmetry_space_group_name_H-M   'P 21/n'
_symmetry_Int_Tables_number      14
_space_group_name_Hall           '-P 2yn'
loop_
_symmetry_equiv_pos_site_id
_symmetry_equiv_pos_as_xyz
1 x,y,z
2 1/2-x,1/2+y,1/2-z
3 -x,-y,-z
4 1/2+x,1/2-y,1/2+z
_cell_length_a                   11.955(2)
_cell_length_b                   13.796(3)
_cell_length_c                   12.707(3)
_cell_angle_alpha                90
_cell_angle_beta                 95.17(3)
_cell_angle_gamma                90
_cell_volume                     2087.25
_exptl_crystal_colour            colorless
_exptl_crystal_description       block
_chemical_melting_point          '508-510 K'
_cell_formula_units_Z            4
_exptl_crystal_recrystallization_method methanol
loop_
_atom_site_label
_atom_site_type_symbol
_atom_site_fract_x
_atom_site_fract_y
_atom_site_fract_z
C1 C 0.7687(3) 0.3662(2) 0.7039(3)
H1 H 0.8189 0.3301 0.6679
C2 C 0.6564(3) 0.3615(3) 0.6737(3)
H2 H 0.6302 0.3240 0.6158
C3 C 0.5825(3) 0.4116(3) 0.7286(3)
H3 H 0.5056 0.4069 0.7100
C4 C 0.6229(3) 0.4692(3) 0.8114(3)
H4 H 0.5738 0.5046 0.8492
C5 C 0.7352(3) 0.4739(3) 0.8378(3)
H5 H 0.7630 0.5135 0.8934
C6 C 0.9277(3) 0.4206(2) 0.8207(2)
H6 H 0.9569 0.3568 0.8060
H7 H 0.9362 0.4296 0.8967
C7 C 0.9999(2) 0.4972(2) 0.7698(2)
C8 C 0.9657(3) 0.5992(2) 0.7975(3)
H8 H 1.0165 0.6459 0.7703
H9 H 0.8903 0.6127 0.7662
C9 C 0.9929(3) 0.4856(2) 0.6495(2)
H10 H 0.9157 0.4930 0.6198
H11 H 1.0380 0.5349 0.6191
C10 C 1.1185(2) 0.4719(2) 0.8195(2)
H12 H 1.1182 0.4741 0.8958
H13 H 1.1355 0.4058 0.8004
C11 C 1.2419(3) 0.6103(2) 0.8503(3)
H14 H 1.2049 0.6237 0.9100
C12 C 1.3296(3) 0.6672(3) 0.8268(3)
H15 H 1.3531 0.7187 0.8706
C13 C 1.3824(3) 0.6479(3) 0.7383(3)
H16 H 1.4421 0.6862 0.7213
C14 C 1.3471(3) 0.5719(3) 0.6748(3)
H17 H 1.3821 0.5587 0.6140
C15 C 1.2606(3) 0.5161(2) 0.7011(3)
H18 H 1.2369 0.4639 0.6584
N1 N 0.8068(2) 0.42241(18) 0.78490(19)
N2 N 1.2088(2) 0.53542(17) 0.78851(19)
O1 O 0.9697(2) 0.60654(18) 0.91006(18)
H19 H 0.9511 0.6613 0.9264
O2 O 1.0330(2) 0.39234(18) 0.62617(18)
H20 H 1.0300 0.3852 0.5619
F1 F 0.8561(10) 0.3151(7) 0.4690(8)
F2 F 0.8566(7) 0.0817(6) 0.4416(8)
F3 F 0.7337(10) 0.1917(9) 0.4717(10)
F4 F 0.9805(9) 0.2016(13) 0.4446(10)
F9 F 0.8379(3) 0.2040(2) 0.33183(18)
F10 F 0.8902(3) 0.19322(18) 0.57857(18)
P1 P 0.86380(8) 0.19842(7) 0.45439(7)
F11 F 0.7615(12) 0.6122(8) 0.5469(9)
F12 F 0.5398(6) 0.7270(5) 0.5386(7)
F13 F 0.5816(5) 0.5722(6) 0.5350(8)
F14 F 0.7152(4) 0.7742(5) 0.5546(4)
F19 F 0.6508(2) 0.67341(18) 0.41995(16)
F20 F 0.6571(2) 0.6637(2) 0.66872(17)
P2 P 0.65577(8) 0.66706(6) 0.54479(6)
F5? F 0.886(3) 0.3061(18) 0.448(2)
F6? F 0.867(3) 0.0966(17) 0.4638(19)
F7? F 0.742(2) 0.2191(19) 0.455(3)
F8? F 1.0133(16) 0.1966(19) 0.4436(13)
F15? F 0.783(3) 0.620(3) 0.5484(16)
F16? F 0.5348(13) 0.701(2) 0.5434(19)
F17? F 0.631(4) 0.558(2) 0.535(2)
F18? F 0.710(2) 0.7468(16) 0.5498(16)
loop_
_geom_bond_atom_site_label_1
_geom_bond_atom_site_label_2
_geom_bond_site_symmetry_1
_geom_bond_site_symmetry_2
C1 H1 1_555 1_555
C2 C1 1_555 1_555
H2 C2 1_555 1_555
C3 C2 1_555 1_555
H3 C3 1_555 1_555
C4 C3 1_555 1_555
H4 C4 1_555 1_555
C5 C4 1_555 1_555
H5 C5 1_555 1_555
C6 H6 1_555 1_555
H7 C6 1_555 1_555
C7 C6 1_555 1_555
C8 C7 1_555 1_555
H8 C8 1_555 1_555
H9 C8 1_555 1_555
C9 C7 1_555 1_555
H10 C9 1_555 1_555
H11 C9 1_555 1_555
C10 C7 1_555 1_555
H12 C10 1_555 1_555
H13 C10 1_555 1_555
C11 H14 1_555 1_555
C12 C11 1_555 1_555
H15 C12 1_555 1_555
C13 C12 1_555 1_555
H16 C13 1_555 1_555
C14 C13 1_555 1_555
H17 C14 1_555 1_555
C15 C14 1_555 1_555
H18 C15 1_555 1_555
F1 P1 1_555 1_555
F2 P1 1_555 1_555
F3 P1 1_555 1_555
F4 P1 1_555 1_555
F9 P1 1_555 1_555
F10 P1 1_555 1_555
F11 P2 1_555 1_555
F12 P2 1_555 1_555
F13 P2 1_555 1_555
F14 P2 1_555 1_555
F19 P2 1_555 1_555
F20 P2 1_555 1_555
N1 C1 1_555 1_555
N2 C10 1_555 1_555
O1 C8 1_555 1_555
H19 O1 1_555 1_555
O2 C9 1_555 1_555
H20 O2 1_555 1_555
C5 N1 1_555 1_555
C6 N1 1_555 1_555
C11 N2 1_555 1_555
C15 N2 1_555 1_555

#END
