
#######################################################################
#
#                 Cambridge Crystallographic Data Centre
#                                CCDC 
#
#######################################################################
#
# If this CIF has been generated from an entry in the Cambridge 
# Structural Database, then it will include bibliographic, chemical, 
# crystal, experimental, refinement or atomic coordinate data resulting 
# from the CCDC's data processing and validation procedures.
#
#######################################################################

data_URASOW
_chemical_formula_moiety         'C8 H9 Br1 O2,0.5(H2 O1)'
_chemical_name_systematic        '2-Bromo-4-(2-hydroxyethyl)phenol hemihydrate'
_symmetry_cell_setting           monoclinic
_symmetry_space_group_name_H-M   'C c'
_symmetry_Int_Tables_number      9
_space_group_name_Hall           'C -2yc'
loop_
_symmetry_equiv_pos_site_id
_symmetry_equiv_pos_as_xyz
1 x,y,z
2 x,-y,1/2+z
3 1/2+x,1/2+y,z
4 1/2+x,1/2-y,1/2+z
_cell_length_a                   5.9790(12)
_cell_length_b                   18.396(4)
_cell_length_c                   16.801(3)
_cell_angle_alpha                90
_cell_angle_beta                 98.83(3)
_cell_angle_gamma                90
_cell_volume                     1826.04
_exptl_crystal_colour            colorless
_exptl_crystal_description       block
_cell_formula_units_Z            8
_exptl_crystal_recrystallization_method ethanol
loop_
_atom_site_label
_atom_site_type_symbol
_atom_site_fract_x
_atom_site_fract_y
_atom_site_fract_z
Br1 Br 0.98869(14) 0.25839(6) 0.74826(7)
O1 O 0.7384(12) 0.5738(3) 0.6248(4)
H1 H 0.8398 0.5653 0.5983
O2 O 0.5409(11) 0.2412(3) 0.6368(4)
H2 H 0.6442 0.2103 0.6523
C1 C 0.827(2) 0.5705(6) 0.7086(6)
H3 H 0.8513 0.6194 0.7299
H4 H 0.9718 0.5455 0.7161
C2 C 0.6614(18) 0.5301(5) 0.7535(6)
H5 H 0.7193 0.5299 0.8107
H6 H 0.5173 0.5554 0.7458
C3 C 0.6262(19) 0.4526(5) 0.7238(6)
C4 C 0.4362(16) 0.4334(5) 0.6716(5)
H7 H 0.3248 0.4680 0.6560
C5 C 0.4082(16) 0.3643(5) 0.6423(5)
H8 H 0.2781 0.3530 0.6066
C6 C 0.5678(14) 0.3105(5) 0.6643(5)
C7 C 0.7609(14) 0.3305(5) 0.7164(5)
C8 C 0.7941(16) 0.3996(5) 0.7461(6)
H9 H 0.9260 0.4113 0.7807
O3 O 0.3419(11) 0.6470(4) 0.5757(5)
H10 H 0.2649 0.6129 0.5450
H11 H 0.3857 0.6750 0.5383
Br2 Br 0.34194(14) 0.53555(5) 0.40416(7)
O4 O 0.1966(11) 0.2167(3) 0.5222(4)
H12 H 0.3182 0.2261 0.5501
C9 C 0.2190(18) 0.2218(6) 0.4413(6)
H13 H 0.2241 0.1734 0.4187
H14 H 0.3597 0.2463 0.4361
O5 O -0.0093(10) 0.5504(3) 0.5150(4)
H15 H 0.0843 0.5814 0.5021
C10 C 0.0224(18) 0.2636(5) 0.3950(6)
H16 H 0.0376 0.2644 0.3383
H17 H -0.1178 0.2388 0.4002
C11 C 0.0112(17) 0.3401(5) 0.4246(5)
C12 C 0.1511(15) 0.3940(5) 0.4051(5)
H18 H 0.2537 0.3834 0.3703
C13 C 0.1449(15) 0.4620(5) 0.4346(5)
C14 C -0.0025(16) 0.4810(5) 0.4867(5)
C15 C -0.1492(16) 0.4280(5) 0.5058(5)
H19 H -0.2543 0.4396 0.5393
C16 C -0.1427(15) 0.3594(5) 0.4767(6)
H20 H -0.2415 0.3246 0.4914
loop_
_geom_bond_atom_site_label_1
_geom_bond_atom_site_label_2
_geom_bond_site_symmetry_1
_geom_bond_site_symmetry_2
Br1 C7 1_555 1_555
O1 H1 1_555 1_555
O2 H2 1_555 1_555
C1 O1 1_555 1_555
H3 C1 1_555 1_555
H4 C1 1_555 1_555
C2 C1 1_555 1_555
H5 C2 1_555 1_555
H6 C2 1_555 1_555
C3 C2 1_555 1_555
C4 C3 1_555 1_555
H7 C4 1_555 1_555
C5 C4 1_555 1_555
H8 C5 1_555 1_555
C6 O2 1_555 1_555
C7 C6 1_555 1_555
C8 C3 1_555 1_555
H9 C8 1_555 1_555
O3 H10 1_555 1_555
H11 O3 1_555 1_555
Br2 C13 1_555 1_555
O4 H12 1_555 1_555
C9 O4 1_555 1_555
H13 C9 1_555 1_555
H14 C9 1_555 1_555
O5 H15 1_555 1_555
C10 C9 1_555 1_555
H16 C10 1_555 1_555
H17 C10 1_555 1_555
C11 C10 1_555 1_555
C12 C11 1_555 1_555
H18 C12 1_555 1_555
C13 C12 1_555 1_555
C14 O5 1_555 1_555
C15 C14 1_555 1_555
H19 C15 1_555 1_555
C16 C11 1_555 1_555
H20 C16 1_555 1_555
C5 C6 1_555 1_555
C7 C8 1_555 1_555
C13 C14 1_555 1_555
C15 C16 1_555 1_555

#END
