
#######################################################################
#
#                 Cambridge Crystallographic Data Centre
#                                CCDC 
#
#######################################################################
#
# If this CIF has been generated from an entry in the Cambridge 
# Structural Database, then it will include bibliographic, chemical, 
# crystal, experimental, refinement or atomic coordinate data resulting 
# from the CCDC's data processing and validation procedures.
#
#######################################################################

data_URASIQ
_chemical_formula_moiety         'C14 H17 N3 O3'
_chemical_name_systematic        
7-Diethylamino-2-oxo-2H-chromene-3-carbohydrazide
_symmetry_cell_setting           triclinic
_symmetry_space_group_name_H-M   'P -1'
_symmetry_Int_Tables_number      2
_space_group_name_Hall           '-P 1'
loop_
_symmetry_equiv_pos_site_id
_symmetry_equiv_pos_as_xyz
1 x,y,z
2 -x,-y,-z
_cell_length_a                   9.3438(19)
_cell_length_b                   12.771(3)
_cell_length_c                   12.978(3)
_cell_angle_alpha                95.17(3)
_cell_angle_beta                 110.13(3)
_cell_angle_gamma                106.18(3)
_cell_volume                     1366.43
_exptl_crystal_colour            yellow
_exptl_crystal_description       block
_cell_formula_units_Z            4
_exptl_crystal_recrystallization_method dichloromethane/petroleum(60-90)
loop_
_atom_site_label
_atom_site_type_symbol
_atom_site_fract_x
_atom_site_fract_y
_atom_site_fract_z
C1 C 0.21139(18) 0.57501(13) 1.19989(14)
C2 C 0.13466(18) 0.48762(12) 1.24574(13)
C3 C 0.13127(19) 0.50961(13) 1.35921(14)
C4 C 0.06725(18) 0.38172(12) 1.18533(13)
H1 H 0.0150 0.3265 1.2146
C5 C 0.07300(18) 0.35191(12) 1.08046(13)
C6 C 0.15295(17) 0.43610(12) 1.03866(13)
C7 C 0.17389(18) 0.41745(13) 0.93993(14)
H2 H 0.2289 0.4764 0.9159
C8 C 0.11153(18) 0.30841(13) 0.87521(13)
C9 C 0.02840(19) 0.22172(13) 0.91645(14)
H3 H -0.0144 0.1489 0.8754
C10 C 0.01086(19) 0.24390(13) 1.01450(14)
H4 H -0.0443 0.1855 1.0391
C11 C 0.0769(2) 0.17291(15) 0.71424(16)
H5 H 0.0960 0.1239 0.7666
H6 H 0.1411 0.1699 0.6698
C12 C -0.0988(2) 0.13259(17) 0.63824(16)
H7 H -0.1625 0.1375 0.6817
H8 H -0.1295 0.0565 0.6013
H9 H -0.1168 0.1780 0.5832
C13 C 0.2090(2) 0.37670(15) 0.72996(15)
H10 H 0.1828 0.4430 0.7462
H11 H 0.1687 0.3532 0.6491
C14 C 0.3890(2) 0.40375(17) 0.77862(19)
H12 H 0.4301 0.4333 0.8577
H13 H 0.4371 0.4580 0.7430
H14 H 0.4149 0.3373 0.7662
N1 N 0.12851(17) 0.28688(11) 0.77682(12)
N2 N 0.19388(19) 0.61432(12) 1.41508(12)
H15 H 0.231(2) 0.6657(13) 1.3829(16)
N3 N 0.1989(2) 0.64809(13) 1.52280(14)
H16 H 0.268(2) 0.6211(18) 1.5658(15)
H17 H 0.1032(15) 0.6189(17) 1.5226(19)
O1 O 0.21779(13) 0.54484(8) 1.09751(9)
O2 O 0.27280(15) 0.67378(9) 1.24139(10)
O3 O 0.07200(17) 0.43205(10) 1.39865(11)
C15 C 0.2466(2) 0.11381(14) 1.16812(14)
C16 C 0.36577(19) 0.22392(14) 1.21170(14)
C17 C 0.3901(2) 0.29587(15) 1.31736(15)
C18 C 0.4607(2) 0.26342(14) 1.15444(14)
H18 H 0.5359 0.3349 1.1819
C19 C 0.44932(19) 0.20030(13) 1.05563(14)
C20 C 0.33527(18) 0.09381(13) 1.01525(13)
C21 C 0.31367(19) 0.02453(13) 0.92049(14)
H19 H 0.2345 -0.0454 0.8962
C22 C 0.41151(19) 0.05924(13) 0.85967(14)
C23 C 0.5282(2) 0.16798(14) 0.90010(14)
H20 H 0.5936 0.1939 0.8614
C24 C 0.5454(2) 0.23412(14) 0.99384(15)
H21 H 0.6236 0.3045 1.0184
C25 C 0.4975(2) 0.02687(16) 0.70252(16)
H22 H 0.5055 -0.0386 0.6639
H23 H 0.6054 0.0717 0.7547
C26 C 0.4354(3) 0.09271(17) 0.61840(16)
H24 H 0.3285 0.0490 0.5663
H25 H 0.5055 0.1117 0.5786
H26 H 0.4322 0.1596 0.6563
C27 C 0.2699(2) -0.11834(14) 0.72177(16)
H27 H 0.2679 -0.1551 0.7837
H28 H 0.2989 -0.1627 0.6727
C28 C 0.1023(2) -0.11651(16) 0.65768(16)
H29 H 0.0664 -0.0811 0.7077
H30 H 0.0299 -0.1915 0.6253
H31 H 0.1040 -0.0758 0.5992
N4 N 0.39535(17) -0.00890(12) 0.76634(12)
N5 N 0.3063(2) 0.25209(14) 1.37695(14)
H32 H 0.241(2) 0.1841(10) 1.3507(18)
N6 N 0.3254(2) 0.30988(17) 1.48147(15)
H33 H 0.270(3) 0.3544(18) 1.470(2)
H34 H 0.4263(14) 0.3504(18) 1.5136(19)
O4 O 0.23680(13) 0.05352(9) 1.07136(9)
O5 O 0.15179(15) 0.06693(10) 1.20795(11)
O6 O 0.48723(17) 0.39132(11) 1.34921(11)
loop_
_geom_bond_atom_site_label_1
_geom_bond_atom_site_label_2
_geom_bond_site_symmetry_1
_geom_bond_site_symmetry_2
C1 C2 1_555 1_555
C2 C3 1_555 1_555
C3 N2 1_555 1_555
C4 C2 1_555 1_555
H1 C4 1_555 1_555
C5 C4 1_555 1_555
C6 C5 1_555 1_555
C7 C6 1_555 1_555
H2 C7 1_555 1_555
C8 C7 1_555 1_555
C9 C8 1_555 1_555
H3 C9 1_555 1_555
C10 C5 1_555 1_555
H4 C10 1_555 1_555
C11 H5 1_555 1_555
H6 C11 1_555 1_555
C12 C11 1_555 1_555
H7 C12 1_555 1_555
H8 C12 1_555 1_555
H9 C12 1_555 1_555
C13 H10 1_555 1_555
H11 C13 1_555 1_555
C14 C13 1_555 1_555
H12 C14 1_555 1_555
H13 C14 1_555 1_555
H14 C14 1_555 1_555
N1 C8 1_555 1_555
N2 H15 1_555 1_555
N3 N2 1_555 1_555
H16 N3 1_555 1_555
H17 N3 1_555 1_555
O1 C1 1_555 1_555
O2 C1 1_555 1_555
O3 C3 1_555 1_555
C15 C16 1_555 1_555
C16 C17 1_555 1_555
C17 N5 1_555 1_555
C18 C16 1_555 1_555
H18 C18 1_555 1_555
C19 C18 1_555 1_555
C20 C19 1_555 1_555
C21 C20 1_555 1_555
H19 C21 1_555 1_555
C22 C21 1_555 1_555
C23 C22 1_555 1_555
H20 C23 1_555 1_555
C24 C19 1_555 1_555
H21 C24 1_555 1_555
C25 H22 1_555 1_555
H23 C25 1_555 1_555
C26 C25 1_555 1_555
H24 C26 1_555 1_555
H25 C26 1_555 1_555
H26 C26 1_555 1_555
C27 H27 1_555 1_555
H28 C27 1_555 1_555
C28 C27 1_555 1_555
H29 C28 1_555 1_555
H30 C28 1_555 1_555
H31 C28 1_555 1_555
N4 C22 1_555 1_555
N5 H32 1_555 1_555
N6 N5 1_555 1_555
H33 N6 1_555 1_555
H34 N6 1_555 1_555
O4 C15 1_555 1_555
O5 C15 1_555 1_555
O6 C17 1_555 1_555
C6 O1 1_555 1_555
C9 C10 1_555 1_555
C11 N1 1_555 1_555
C13 N1 1_555 1_555
C20 O4 1_555 1_555
C23 C24 1_555 1_555
C25 N4 1_555 1_555
C27 N4 1_555 1_555

#END
