
#######################################################################
#
#                 Cambridge Crystallographic Data Centre
#                                CCDC 
#
#######################################################################
#
# If this CIF has been generated from an entry in the Cambridge 
# Structural Database, then it will include bibliographic, chemical, 
# crystal, experimental, refinement or atomic coordinate data resulting 
# from the CCDC's data processing and validation procedures.
#
#######################################################################

data_URATAJ
_chemical_name_common            
4,4'-bis(2-(3,5-Dimethoxyphenyl)vinyl)biphenyl
_chemical_formula_moiety         'C32 H30 O4'
_chemical_name_systematic        
4,4'-bis(2-(3,5-Dimethoxyphenyl)ethenyl)biphenyl
_symmetry_cell_setting           monoclinic
_symmetry_space_group_name_H-M   'P 21/c'
_symmetry_Int_Tables_number      14
_space_group_name_Hall           '-P 2ybc'
loop_
_symmetry_equiv_pos_site_id
_symmetry_equiv_pos_as_xyz
1 x,y,z
2 -x,1/2+y,1/2-z
3 -x,-y,-z
4 x,1/2-y,1/2+z
_cell_length_a                   11.8208(13)
_cell_length_b                   27.896(3)
_cell_length_c                   22.875(3)
_cell_angle_alpha                90
_cell_angle_beta                 99.723(2)
_cell_angle_gamma                90
_cell_volume                     7434.75
_exptl_crystal_colour            colorless
_exptl_crystal_description       plate
_chemical_melting_point          '452 K'
_cell_formula_units_Z            12
_exptl_crystal_recrystallization_method acetone
loop_
_atom_site_label
_atom_site_type_symbol
_atom_site_fract_x
_atom_site_fract_y
_atom_site_fract_z
C1 C 0.15447(12) 0.46499(5) 0.09560(6)
C2 C 0.06813(12) 0.49166(5) 0.11557(6)
H1 H 0.0861 0.5124 0.1488
C3 C -0.04359(12) 0.48741(5) 0.08623(7)
C4 C -0.07196(12) 0.45719(5) 0.03724(7)
H2 H -0.1490 0.4549 0.0172
C5 C 0.01347(12) 0.43065(5) 0.01832(7)
C6 C 0.12663(12) 0.43462(5) 0.04730(7)
H3 H 0.1851 0.4164 0.0339
C7 C 0.27507(12) 0.46747(5) 0.12364(7)
H4 H 0.3278 0.4508 0.1040
C8 C 0.32024(12) 0.49024(5) 0.17333(6)
H5 H 0.2692 0.5069 0.1941
C9 C 0.44267(12) 0.49152(5) 0.19832(6)
C10 C 0.52534(12) 0.46805(5) 0.17172(7)
H6 H 0.5020 0.4505 0.1361
C11 C 0.63999(12) 0.46991(5) 0.19625(7)
H7 H 0.6942 0.4537 0.1771
C12 C 0.67846(12) 0.49502(5) 0.24851(6)
C13 C 0.59664(12) 0.51896(5) 0.27477(6)
H8 H 0.6202 0.5369 0.3101
C14 C 0.48114(12) 0.51703(5) 0.25009(6)
H9 H 0.4270 0.5335 0.2690
C15 C 0.80193(12) 0.49572(5) 0.27384(6)
C16 C 0.87267(13) 0.45705(6) 0.26583(7)
H10 H 0.8399 0.4293 0.2455
C17 C 0.98942(13) 0.45819(6) 0.28679(7)
H11 H 1.0354 0.4315 0.2801
C18 C 1.04088(12) 0.49784(5) 0.31748(6)
C19 C 0.96978(12) 0.53637(5) 0.32649(6)
H12 H 1.0022 0.5638 0.3477
C20 C 0.85324(12) 0.53519(5) 0.30507(6)
H13 H 0.8071 0.5619 0.3118
C21 C 1.16440(12) 0.49687(6) 0.34026(7)
H14 H 1.2078 0.4722 0.3258
C22 C 1.22132(12) 0.52726(5) 0.37928(6)
H15 H 1.1775 0.5521 0.3930
C23 C 1.34420(12) 0.52665(5) 0.40355(6)
C24 C 1.41857(12) 0.49137(6) 0.39001(6)
H16 H 1.3902 0.4657 0.3643
C25 C 1.53484(12) 0.49360(6) 0.41414(7)
C26 C 1.57761(12) 0.53051(5) 0.45167(6)
H17 H 1.6571 0.5320 0.4678
C27 C 1.50255(12) 0.56549(5) 0.46552(6)
C28 C 1.38688(12) 0.56404(5) 0.44188(6)
H18 H 1.3367 0.5883 0.4516
C29 C -0.10905(14) 0.54661(7) 0.14674(7)
H19 H -0.0678 0.5318 0.1830
H20 H -0.1807 0.5608 0.1548
H21 H -0.0612 0.5716 0.1334
C30 C -0.11888(14) 0.38859(7) -0.05346(8)
H22 H -0.1587 0.3759 -0.0225
H23 H -0.1196 0.3645 -0.0847
H24 H -0.1579 0.4177 -0.0704
C31 C 1.72111(13) 0.45930(7) 0.41990(8)
H25 H 1.7529 0.4888 0.4060
H26 H 1.7582 0.4315 0.4050
H27 H 1.7350 0.4588 0.4634
C32 C 1.47986(15) 0.63504(6) 0.52207(9)
H28 H 1.4360 0.6513 0.4876
H29 H 1.5262 0.6586 0.5474
H30 H 1.4269 0.6192 0.5446
O1 O -0.13450(9) 0.51116(4) 0.10185(5)
O2 O -0.00321(9) 0.39978(4) -0.02838(5)
O3 O 1.60083(9) 0.45756(4) 0.39861(5)
O4 O 1.55294(9) 0.60032(4) 0.50278(5)
C33 C 1.22529(13) 0.35012(7) 0.42489(8)
H31 H 1.2407 0.3509 0.4683
H32 H 1.2680 0.3759 0.4093
H33 H 1.2496 0.3191 0.4110
C34 C 0.91825(13) 0.32978(6) 0.39548(7)
H34 H 0.8969 0.3547 0.3675
C35 C 1.03183(13) 0.32419(6) 0.42179(7)
C36 C 1.06591(13) 0.28789(6) 0.46322(7)
H35 H 1.1441 0.2844 0.4810
C37 C 0.98301(13) 0.25722(6) 0.47757(7)
C38 C 0.86925(13) 0.26214(6) 0.45118(7)
H36 H 0.8135 0.2404 0.4610
C39 C 0.83559(12) 0.29863(5) 0.41031(6)
C40 C 0.71374(12) 0.30156(6) 0.38449(6)
H37 H 0.6658 0.2776 0.3968
C41 C 0.66159(12) 0.33367(5) 0.34585(7)
H38 H 0.7080 0.3580 0.3330
C42 C 0.53876(12) 0.33459(5) 0.32160(6)
C43 C 0.46492(12) 0.29667(5) 0.32902(6)
H39 H 0.4946 0.2691 0.3507
C44 C 0.34943(12) 0.29875(5) 0.30531(6)
H40 H 0.3014 0.2724 0.3109
C45 C 0.30172(12) 0.33866(5) 0.27328(6)
C46 C 0.37525(13) 0.37678(6) 0.26680(7)
H41 H 0.3452 0.4047 0.2460
C47 C 0.49105(13) 0.37460(6) 0.29016(7)
H42 H 0.5391 0.4010 0.2847
C48 C 0.17901(12) 0.34021(5) 0.24667(6)
C49 C 0.09571(12) 0.31668(5) 0.27237(7)
H43 H 0.1181 0.2985 0.3075
C50 C -0.01938(12) 0.31947(6) 0.24737(7)
H44 H -0.0745 0.3032 0.2659
C51 C -0.05605(12) 0.34550(5) 0.19575(7)
C52 C 0.02796(12) 0.36855(5) 0.16970(7)
H45 H 0.0057 0.3863 0.1342
C53 C 0.14264(12) 0.36598(5) 0.19463(7)
H46 H 0.1978 0.3821 0.1760
C54 C -0.17861(12) 0.34744(5) 0.17100(7)
H47 H -0.2294 0.3295 0.1906
C55 C -0.22425(12) 0.37232(5) 0.12328(7)
H48 H -0.1721 0.3903 0.1047
C56 C -0.34536(12) 0.37534(5) 0.09590(7)
C57 C -0.43179(12) 0.34840(5) 0.11558(7)
H49 H -0.4137 0.3275 0.1487
C58 C -0.54361(12) 0.35257(5) 0.08623(7)
C59 C -0.57203(12) 0.38340(5) 0.03787(7)
H50 H -0.6490 0.3856 0.0176
C60 C -0.48670(12) 0.41062(5) 0.01991(6)
C61 C -0.37355(12) 0.40639(5) 0.04856(7)
H51 H -0.3152 0.4250 0.0355
C62 C 1.12008(15) 0.20950(7) 0.54112(8)
H52 H 1.1599 0.1998 0.5087
H53 H 1.1228 0.1832 0.5697
H54 H 1.1577 0.2378 0.5609
C63 C -0.60962(15) 0.29225(6) 0.14510(8)
H55 H -0.5607 0.2677 0.1316
H56 H -0.6814 0.2776 0.1523
H57 H -0.5697 0.3067 0.1819
C64 C -0.62030(14) 0.45357(7) -0.04972(8)
H58 H -0.6592 0.4247 -0.0674
H59 H -0.6222 0.4784 -0.0802
H60 H -0.6594 0.4653 -0.0180
O5 O 1.10602(9) 0.35647(4) 0.40456(5)
O6 O 1.00406(10) 0.22052(5) 0.51787(5)
O7 O -0.63448(9) 0.32819(4) 0.10092(5)
O8 O -0.50431(9) 0.44240(4) -0.02580(5)
C65 C 1.38454(12) 0.22574(5) 0.45759(6)
H61 H 1.3298 0.2449 0.4729
C66 C 1.49943(12) 0.22673(5) 0.48485(6)
C67 C 1.57998(12) 0.19932(5) 0.46280(7)
H62 H 1.6584 0.2001 0.4811
C68 C 1.54444(12) 0.17039(5) 0.41322(7)
C69 C 1.43104(12) 0.16884(5) 0.38582(6)
H63 H 1.4083 0.1490 0.3521
C70 C 1.34976(12) 0.19700(5) 0.40838(6)
C71 C 1.22788(12) 0.19699(5) 0.38199(6)
H64 H 1.1789 0.2163 0.4011
C72 C 1.17803(12) 0.17304(5) 0.33432(6)
H65 H 1.2263 0.1541 0.3143
C73 C 1.05527(12) 0.17327(5) 0.31000(6)
C74 C 1.01218(13) 0.14143(6) 0.26500(8)
H66 H 1.0635 0.1204 0.2499
C75 C 0.89656(14) 0.13968(6) 0.24167(8)
H67 H 0.8701 0.1172 0.2112
C76 C 0.81788(12) 0.17009(5) 0.26172(6)
C77 C 0.86161(12) 0.20175(6) 0.30668(7)
H68 H 0.8104 0.2229 0.3217
C78 C 0.97666(13) 0.20354(6) 0.33027(7)
H69 H 1.0029 0.2259 0.3609
C79 C 0.69448(12) 0.16939(5) 0.23627(6)
C80 C 0.64884(13) 0.13538(6) 0.19423(7)
H70 H 0.6990 0.1129 0.1808
C81 C 0.53336(13) 0.13335(6) 0.17159(7)
H71 H 0.5059 0.1096 0.1430
C82 C 0.45600(12) 0.16546(5) 0.18980(6)
C83 C 0.50090(14) 0.19927(6) 0.23188(8)
H72 H 0.4505 0.2214 0.2459
C84 C 0.61719(14) 0.20155(6) 0.25398(8)
H73 H 0.6449 0.2257 0.2820
C85 C 0.33291(12) 0.16459(5) 0.16694(6)
H74 H 0.2852 0.1838 0.1870
C86 C 0.28167(12) 0.13947(5) 0.12067(6)
H75 H 0.3301 0.1205 0.1009
C87 C 0.15881(12) 0.13783(5) 0.09682(6)
C88 C 0.12162(12) 0.10430(5) 0.05276(6)
H76 H 0.1754 0.0836 0.0390
C89 C 0.00576(12) 0.10107(5) 0.02884(6)
C90 C -0.07309(12) 0.13105(5) 0.04851(6)
H77 H -0.1523 0.1287 0.0322
C91 C -0.03562(12) 0.16461(5) 0.09225(6)
C92 C 0.07974(12) 0.16824(5) 0.11681(6)
H78 H 0.1046 0.1912 0.1469
C93 C 1.64021(13) 0.26068(6) 0.56038(8)
H79 H 1.6725 0.2292 0.5727
H80 H 1.6454 0.2816 0.5951
H81 H 1.6834 0.2749 0.5317
C94 C 1.59720(14) 0.10730(6) 0.35327(7)
H82 H 1.5527 0.1209 0.3171
H83 H 1.5502 0.0838 0.3701
H84 H 1.6660 0.0916 0.3438
C95 C 0.04090(15) 0.04176(6) -0.04099(8)
H85 H 0.0907 0.0634 -0.0589
H86 H -0.0014 0.0210 -0.0717
H87 H 0.0878 0.0220 -0.0108
C96 C -0.08460(14) 0.23222(6) 0.14598(8)
H88 H -0.0384 0.2209 0.1831
H89 H -0.1526 0.2491 0.1547
H90 H -0.0387 0.2541 0.1260
O9 O 1.52291(9) 0.25537(4) 0.53358(5)
O10 O 1.63029(9) 0.14468(4) 0.39530(5)
O11 O -0.03835(9) 0.06925(4) -0.01410(5)
O12 O -0.11947(9) 0.19248(4) 0.10853(5)
loop_
_geom_bond_atom_site_label_1
_geom_bond_atom_site_label_2
_geom_bond_site_symmetry_1
_geom_bond_site_symmetry_2
C1 C2 1_555 1_555
C2 H1 1_555 1_555
C3 C2 1_555 1_555
C4 C3 1_555 1_555
H2 C4 1_555 1_555
C5 C4 1_555 1_555
C6 C1 1_555 1_555
H3 C6 1_555 1_555
C7 C1 1_555 1_555
H4 C7 1_555 1_555
C8 C7 1_555 1_555
H5 C8 1_555 1_555
C9 C8 1_555 1_555
C10 C9 1_555 1_555
H6 C10 1_555 1_555
C11 C10 1_555 1_555
H7 C11 1_555 1_555
C12 C11 1_555 1_555
C13 C12 1_555 1_555
H8 C13 1_555 1_555
C14 C9 1_555 1_555
H9 C14 1_555 1_555
C15 C12 1_555 1_555
C16 C15 1_555 1_555
H10 C16 1_555 1_555
C17 C16 1_555 1_555
H11 C17 1_555 1_555
C18 C17 1_555 1_555
C19 C18 1_555 1_555
H12 C19 1_555 1_555
C20 C15 1_555 1_555
H13 C20 1_555 1_555
C21 C18 1_555 1_555
H14 C21 1_555 1_555
C22 C21 1_555 1_555
H15 C22 1_555 1_555
C23 C22 1_555 1_555
C24 C23 1_555 1_555
H16 C24 1_555 1_555
C25 C24 1_555 1_555
C26 C25 1_555 1_555
H17 C26 1_555 1_555
C27 C26 1_555 1_555
C28 C23 1_555 1_555
H18 C28 1_555 1_555
C29 H19 1_555 1_555
H20 C29 1_555 1_555
H21 C29 1_555 1_555
C30 H22 1_555 1_555
H23 C30 1_555 1_555
H24 C30 1_555 1_555
C31 H25 1_555 1_555
H26 C31 1_555 1_555
H27 C31 1_555 1_555
C32 H28 1_555 1_555
H29 C32 1_555 1_555
H30 C32 1_555 1_555
C33 H31 1_555 1_555
H32 C33 1_555 1_555
H33 C33 1_555 1_555
C34 H34 1_555 1_555
C35 C34 1_555 1_555
C36 C35 1_555 1_555
H35 C36 1_555 1_555
C37 C36 1_555 1_555
C38 C37 1_555 1_555
H36 C38 1_555 1_555
C39 C34 1_555 1_555
C40 C39 1_555 1_555
H37 C40 1_555 1_555
C41 C40 1_555 1_555
H38 C41 1_555 1_555
C42 C41 1_555 1_555
C43 C42 1_555 1_555
H39 C43 1_555 1_555
C44 C43 1_555 1_555
H40 C44 1_555 1_555
C45 C44 1_555 1_555
C46 C45 1_555 1_555
H41 C46 1_555 1_555
C47 C42 1_555 1_555
H42 C47 1_555 1_555
C48 C45 1_555 1_555
C49 C48 1_555 1_555
H43 C49 1_555 1_555
C50 C49 1_555 1_555
H44 C50 1_555 1_555
C51 C50 1_555 1_555
C52 C51 1_555 1_555
H45 C52 1_555 1_555
C53 C48 1_555 1_555
H46 C53 1_555 1_555
C54 C51 1_555 1_555
H47 C54 1_555 1_555
C55 C54 1_555 1_555
H48 C55 1_555 1_555
C56 C55 1_555 1_555
C57 C56 1_555 1_555
H49 C57 1_555 1_555
C58 C57 1_555 1_555
C59 C58 1_555 1_555
H50 C59 1_555 1_555
C60 C59 1_555 1_555
C61 C56 1_555 1_555
H51 C61 1_555 1_555
C62 H52 1_555 1_555
H53 C62 1_555 1_555
H54 C62 1_555 1_555
C63 H55 1_555 1_555
H56 C63 1_555 1_555
H57 C63 1_555 1_555
C64 H58 1_555 1_555
H59 C64 1_555 1_555
H60 C64 1_555 1_555
C65 H61 1_555 1_555
C66 C65 1_555 1_555
C67 C66 1_555 1_555
H62 C67 1_555 1_555
C68 C67 1_555 1_555
C69 C68 1_555 1_555
H63 C69 1_555 1_555
C70 C65 1_555 1_555
C71 C70 1_555 1_555
H64 C71 1_555 1_555
C72 C71 1_555 1_555
H65 C72 1_555 1_555
C73 C72 1_555 1_555
C74 C73 1_555 1_555
H66 C74 1_555 1_555
C75 C74 1_555 1_555
H67 C75 1_555 1_555
C76 C75 1_555 1_555
C77 C76 1_555 1_555
H68 C77 1_555 1_555
C78 C73 1_555 1_555
H69 C78 1_555 1_555
C79 C76 1_555 1_555
C80 C79 1_555 1_555
H70 C80 1_555 1_555
C81 C80 1_555 1_555
H71 C81 1_555 1_555
C82 C81 1_555 1_555
C83 C82 1_555 1_555
H72 C83 1_555 1_555
C84 C79 1_555 1_555
H73 C84 1_555 1_555
C85 C82 1_555 1_555
H74 C85 1_555 1_555
C86 C85 1_555 1_555
H75 C86 1_555 1_555
C87 C86 1_555 1_555
C88 C87 1_555 1_555
H76 C88 1_555 1_555
C89 C88 1_555 1_555
C90 C89 1_555 1_555
H77 C90 1_555 1_555
C91 C90 1_555 1_555
C92 C87 1_555 1_555
H78 C92 1_555 1_555
C93 H79 1_555 1_555
H80 C93 1_555 1_555
H81 C93 1_555 1_555
C94 H82 1_555 1_555
H83 C94 1_555 1_555
H84 C94 1_555 1_555
C95 H85 1_555 1_555
H86 C95 1_555 1_555
H87 C95 1_555 1_555
C96 H88 1_555 1_555
H89 C96 1_555 1_555
H90 C96 1_555 1_555
O1 C3 1_555 1_555
O2 C5 1_555 1_555
O3 C25 1_555 1_555
O4 C27 1_555 1_555
O5 C33 1_555 1_555
O6 C37 1_555 1_555
O7 C58 1_555 1_555
O8 C60 1_555 1_555
O9 C66 1_555 1_555
O10 C68 1_555 1_555
O11 C89 1_555 1_555
O12 C91 1_555 1_555
C5 C6 1_555 1_555
C13 C14 1_555 1_555
C19 C20 1_555 1_555
C27 C28 1_555 1_555
C29 O1 1_555 1_555
C30 O2 1_555 1_555
C31 O3 1_555 1_555
C32 O4 1_555 1_555
C35 O5 1_555 1_555
C38 C39 1_555 1_555
C46 C47 1_555 1_555
C52 C53 1_555 1_555
C60 C61 1_555 1_555
C62 O6 1_555 1_555
C63 O7 1_555 1_555
C64 O8 1_555 1_555
C69 C70 1_555 1_555
C77 C78 1_555 1_555
C83 C84 1_555 1_555
C91 C92 1_555 1_555
C93 O9 1_555 1_555
C94 O10 1_555 1_555
C95 O11 1_555 1_555
C96 O12 1_555 1_555

#END
