
#######################################################################
#
#                 Cambridge Crystallographic Data Centre
#                                CCDC 
#
#######################################################################
#
# If this CIF has been generated from an entry in the Cambridge 
# Structural Database, then it will include bibliographic, chemical, 
# crystal, experimental, refinement or atomic coordinate data resulting 
# from the CCDC's data processing and validation procedures.
#
#######################################################################

data_URAWOA02
_chemical_formula_moiety         'C11 H12 N6 O1'
_chemical_name_systematic        2,2,2-tris(1H-Pyrazol-1-yl)ethanol
_symmetry_cell_setting           monoclinic
_symmetry_space_group_name_H-M   'C 2/c'
_symmetry_Int_Tables_number      15
_space_group_name_Hall           '-C 2yn'
loop_
_symmetry_equiv_pos_site_id
_symmetry_equiv_pos_as_xyz
1 x,y,z
2 -x,y,1/2-z
3 1/2+x,1/2+y,z
4 1/2-x,1/2+y,1/2-z
5 -x,-y,-z
6 x,-y,1/2+z
7 1/2-x,1/2-y,-z
8 1/2+x,1/2-y,1/2+z
_cell_length_a                   19.6841(11)
_cell_length_b                   11.6982(6)
_cell_length_c                   12.5672(7)
_cell_angle_alpha                90
_cell_angle_beta                 125.612(1)
_cell_angle_gamma                90
_cell_volume                     2352.62
_exptl_crystal_colour            white
_exptl_crystal_description       block
_cell_formula_units_Z            8
_exptl_crystal_recrystallization_method n-hexane
loop_
_atom_site_label
_atom_site_type_symbol
_atom_site_fract_x
_atom_site_fract_y
_atom_site_fract_z
N1 N 0.18424(6) 0.88383(8) 0.30544(9)
N2 N 0.16973(8) 0.88720(9) 0.39904(11)
N3 N 0.14781(6) 1.07194(8) 0.22619(9)
N4 N 0.16301(7) 1.17860(9) 0.20196(12)
N5 N 0.28831(6) 1.03009(8) 0.39885(9)
N6 N 0.36355(7) 0.98767(11) 0.43804(12)
O1 O 0.16224(5) 0.94019(8) 0.05464(8)
C1 C 0.23495(7) 0.96216(10) 0.18004(10)
H1 H 0.2638 1.0276 0.1764
H2 H 0.2720 0.8967 0.2096
C2 C 0.21345(6) 0.98631(9) 0.27811(10)
C3 C 0.15959(8) 0.78322(9) 0.24020(12)
H3 H 0.1628 0.7623 0.1718
C4 C 0.06605(8) 1.05602(11) 0.17298(13)
H4 H 0.0412 0.9892 0.1751
C5 C 0.08891(8) 1.22866(11) 0.13566(13)
H5 H 0.0797 1.3038 0.1060
C6 C 0.02687(8) 1.15657(12) 0.11554(14)
H6 H -0.0296 1.1732 0.0720
C7 C 0.12926(10) 0.71840(11) 0.29368(15)
H7 H 0.1078 0.6446 0.2700
C8 C 0.13712(11) 0.78590(12) 0.39121(15)
H8 H 0.1213 0.7627 0.4447
C9 C 0.29556(8) 1.10792(11) 0.48408(12)
H9 H 0.2522 1.1477 0.4770
C10 C 0.37825(9) 1.11709(13) 0.58230(13)
H10 H 0.4031 1.1640 0.6556
C11 C 0.41747(10) 1.04140(14) 0.54965(15)
H11 H 0.4749 1.0297 0.6002
H12 H 0.1603(11) 0.9915(15) 0.0021(17)
loop_
_geom_bond_atom_site_label_1
_geom_bond_atom_site_label_2
_geom_bond_site_symmetry_1
_geom_bond_site_symmetry_2
N1 N2 1_555 1_555
N2 C8 1_555 1_555
N3 N4 1_555 1_555
N4 C5 1_555 1_555
N5 N6 1_555 1_555
N6 C11 1_555 1_555
O1 C1 1_555 1_555
C1 H1 1_555 1_555
H2 C1 1_555 1_555
C2 N1 1_555 1_555
C3 N1 1_555 1_555
H3 C3 1_555 1_555
C4 N3 1_555 1_555
H4 C4 1_555 1_555
C5 H5 1_555 1_555
C6 C4 1_555 1_555
H6 C6 1_555 1_555
C7 C3 1_555 1_555
H7 C7 1_555 1_555
C8 C7 1_555 1_555
H8 C8 1_555 1_555
C9 N5 1_555 1_555
H9 C9 1_555 1_555
C10 C9 1_555 1_555
H10 C10 1_555 1_555
C11 C10 1_555 1_555
H11 C11 1_555 1_555
H12 O1 1_555 1_555
N3 C2 1_555 1_555
N5 C2 1_555 1_555
C1 C2 1_555 1_555
C5 C6 1_555 1_555

#END
