
#######################################################################
#
#                 Cambridge Crystallographic Data Centre
#                                CCDC 
#
#######################################################################
#
# If this CIF has been generated from an entry in the Cambridge 
# Structural Database, then it will include bibliographic, chemical, 
# crystal, experimental, refinement or atomic coordinate data resulting 
# from the CCDC's data processing and validation procedures.
#
#######################################################################

data_URAYOC
_chemical_name_common            
(6RS,9SR)-6,7-Dibromo-1,2,3,4-tetrahydro-1,4-methanoanthracene
_chemical_formula_moiety         'C15 H12 Br2'
_chemical_name_systematic        
(6RS,9SR)-6,7-dibromotetracyclo[10.2.1.0^2,11^.0^4,9^]pentadeca-2,4(9),5,7,10-pentaene
_symmetry_cell_setting           monoclinic
_symmetry_space_group_name_H-M   'C 2/c'
_symmetry_Int_Tables_number      15
_space_group_name_Hall           '-C 2yn'
loop_
_symmetry_equiv_pos_site_id
_symmetry_equiv_pos_as_xyz
1 x,y,z
2 -x,y,1/2-z
3 1/2+x,1/2+y,z
4 1/2-x,1/2+y,1/2-z
5 -x,-y,-z
6 x,-y,1/2+z
7 1/2-x,1/2-y,-z
8 1/2+x,1/2-y,1/2+z
_cell_length_a                   23.437(3)
_cell_length_b                   6.3565(8)
_cell_length_c                   18.416(2)
_cell_angle_alpha                90
_cell_angle_beta                 111.781(2)
_cell_angle_gamma                90
_cell_volume                     2547.7
_exptl_crystal_colour            colorless
_exptl_crystal_description       parallelepiped
_cell_formula_units_Z            8
_exptl_crystal_recrystallization_method chloroform
loop_
_atom_site_label
_atom_site_type_symbol
_atom_site_fract_x
_atom_site_fract_y
_atom_site_fract_z
Br1 Br 0.02569(2) 0.67170(9) 0.16329(3)
Br2 Br 0.02816(3) 0.21416(10) 0.07270(4)
C1 C 0.0959(2) 0.5881(7) 0.1431(2)
C2 C 0.1462(2) 0.7148(7) 0.1649(2)
H1 H 0.1447 0.8436 0.1881
C3 C 0.2004(2) 0.6583(7) 0.1536(2)
C4 C 0.2517(2) 0.7938(7) 0.1720(2)
H2 H 0.2510 0.9253 0.1938
C5 C 0.3020(2) 0.7309(7) 0.1576(2)
C6 C 0.3608(2) 0.8382(8) 0.1631(3)
H3 H 0.3726 0.9605 0.1979
C7 C 0.3561(2) 0.8766(9) 0.0789(3)
H4 H 0.3178 0.9466 0.0488
H5 H 0.3900 0.9621 0.0779
C8 C 0.3584(2) 0.6567(8) 0.0465(3)
H6 H 0.3932 0.6426 0.0302
H7 H 0.3209 0.6252 0.0025
C9 C 0.3656(2) 0.5124(9) 0.1171(3)
H8 H 0.3814 0.3705 0.1151
C10 C 0.3047(2) 0.5253(7) 0.1275(3)
C11 C 0.2564(2) 0.3915(8) 0.1093(3)
H9 H 0.2586 0.2587 0.0893
C12 C 0.2025(2) 0.4553(6) 0.1210(2)
C13 C 0.1496(2) 0.3277(7) 0.0989(3)
H10 H 0.1504 0.1961 0.0772
C14 C 0.0971(2) 0.3921(7) 0.1085(2)
C15 C 0.4058(2) 0.6541(10) 0.1856(3)
H11 H 0.4115 0.5958 0.2365
H12 H 0.4452 0.6885 0.1826
loop_
_geom_bond_atom_site_label_1
_geom_bond_atom_site_label_2
_geom_bond_site_symmetry_1
_geom_bond_site_symmetry_2
Br1 C1 1_555 1_555
Br2 C14 1_555 1_555
C1 C2 1_555 1_555
C2 H1 1_555 1_555
C3 C2 1_555 1_555
C4 C3 1_555 1_555
H2 C4 1_555 1_555
C5 C4 1_555 1_555
C6 C5 1_555 1_555
H3 C6 1_555 1_555
C7 C6 1_555 1_555
H4 C7 1_555 1_555
H5 C7 1_555 1_555
C8 C7 1_555 1_555
H6 C8 1_555 1_555
H7 C8 1_555 1_555
C9 C8 1_555 1_555
H8 C9 1_555 1_555
C10 C5 1_555 1_555
C11 C10 1_555 1_555
H9 C11 1_555 1_555
C12 C3 1_555 1_555
C13 C12 1_555 1_555
H10 C13 1_555 1_555
C14 C1 1_555 1_555
C15 C6 1_555 1_555
H11 C15 1_555 1_555
H12 C15 1_555 1_555
C9 C10 1_555 1_555
C9 C15 1_555 1_555
C11 C12 1_555 1_555
C13 C14 1_555 1_555

#END
