
#######################################################################
#
#                 Cambridge Crystallographic Data Centre
#                                CCDC 
#
#######################################################################
#
# If this CIF has been generated from an entry in the Cambridge 
# Structural Database, then it will include bibliographic, chemical, 
# crystal, experimental, refinement or atomic coordinate data resulting 
# from the CCDC's data processing and validation procedures.
#
#######################################################################

data_URAZET
_chemical_formula_moiety         'C13 H20 N4 O4'
_chemical_name_systematic        
'5-t-Butyl 1-ethyl 3-amino-4,6-dihydropyrrolo[3,4-c]pyrazole-1,5-dicarboxylate'
_symmetry_cell_setting           triclinic
_symmetry_space_group_name_H-M   'P -1'
_symmetry_Int_Tables_number      2
_space_group_name_Hall           '-P 1'
loop_
_symmetry_equiv_pos_site_id
_symmetry_equiv_pos_as_xyz
1 x,y,z
2 -x,-y,-z
_cell_length_a                   10.772(3)
_cell_length_b                   12.180(4)
_cell_length_c                   12.986(4)
_cell_angle_alpha                70.845(5)
_cell_angle_beta                 65.875(4)
_cell_angle_gamma                85.821(5)
_cell_volume                     1465.18
_exptl_crystal_colour            colorless
_exptl_crystal_description       block
_cell_formula_units_Z            4
_exptl_crystal_recrystallization_method methanol
loop_
_atom_site_label
_atom_site_type_symbol
_atom_site_fract_x
_atom_site_fract_y
_atom_site_fract_z
O1 O 0.26829(15) 0.40073(13) 0.06447(14)
O2 O 0.15420(17) 0.22918(13) 0.11483(14)
O3 O 0.18836(13) 0.80172(12) 0.11637(12)
O4 O -0.02679(14) 0.86224(13) 0.15737(14)
N1 N 0.04383(17) 0.39313(15) 0.13325(15)
N2 N -0.08554(17) 0.34058(15) 0.17464(16)
N3 N 0.03062(16) 0.69338(14) 0.12056(15)
N4 N -0.30512(18) 0.40713(16) 0.22648(17)
H1 H -0.3627 0.4607 0.2482
H2 H -0.3438 0.3339 0.2641
C1 C 0.0358(2) 0.50843(17) 0.12258(17)
C2 C -0.1695(2) 0.42522(18) 0.18909(18)
C3 C -0.0945(2) 0.53222(18) 0.15632(18)
C4 C -0.1110(2) 0.65547(17) 0.15288(19)
H5 H -0.1435 0.6998 0.0929
H6 H -0.1721 0.6611 0.2300
C5 C 0.1312(2) 0.60819(17) 0.08967(18)
H7 H 0.1848 0.5907 0.1369
H8 H 0.1914 0.6337 0.0054
C6 C 0.1580(2) 0.33069(19) 0.10486(18)
C7 C 0.3986(2) 0.3522(2) 0.0194(2)
H9 H 0.4667 0.4144 -0.0399
H10 H 0.3917 0.2983 -0.0191
C8 C 0.4422(3) 0.2901(3) 0.1178(2)
H11 H 0.4388 0.3408 0.1619
H12 H 0.5337 0.2679 0.0845
H13 H 0.3822 0.2218 0.1703
C9 C 0.0578(2) 0.79265(17) 0.13261(18)
C10 C 0.24457(19) 0.90541(17) 0.12164(18)
C11 C 0.3866(2) 0.87316(18) 0.10925(19)
H14 H 0.3815 0.8011 0.1707
H15 H 0.4315 0.9335 0.1168
H16 H 0.4371 0.8643 0.0324
C12 C 0.1652(2) 0.9233(2) 0.24050(18)
H17 H 0.0756 0.9455 0.2468
H18 H 0.2116 0.9837 0.2466
H19 H 0.1577 0.8522 0.3038
C13 C 0.2481(2) 1.00881(18) 0.01703(18)
H20 H 0.2999 0.9927 -0.0559
H21 H 0.2899 1.0760 0.0166
H22 H 0.1567 1.0235 0.0239
O5 O 0.28280(14) 1.06702(13) 0.45631(14)
O6 O 0.39625(15) 1.23659(13) 0.41233(14)
O7 O 0.33735(13) 0.66947(12) 0.40945(12)
O8 O 0.54850(14) 0.63169(12) 0.29063(12)
N5 N 0.50579(16) 1.08232(14) 0.36264(15)
N6 N 0.63493(17) 1.14050(15) 0.30111(15)
N7 N 0.51226(16) 0.79033(14) 0.34994(15)
N8 N 0.85181(18) 1.08823(16) 0.19749(17)
H3 H 0.8873 1.1559 0.1818
H4 H 0.9026 1.0366 0.1726
C14 C 0.7175(2) 1.06333(17) 0.26074(18)
C15 C 0.6416(2) 0.95619(17) 0.29503(17)
C16 C 0.5126(2) 0.97181(17) 0.35743(17)
C17 C 0.3930(2) 1.13870(19) 0.41168(18)
C18 C 0.1527(2) 1.1110(2) 0.5106(2)
H23 H 0.1624 1.1630 0.5500
H24 H 0.0880 1.0467 0.5704
C19 C 0.0999(3) 1.1747(3) 0.4194(2)
H25 H 0.1563 1.2452 0.3675
H26 H 0.0080 1.1935 0.4585
H27 H 0.1014 1.1266 0.3734
C20 C 0.4166(2) 0.86791(17) 0.40609(18)
H28 H 0.3799 0.8369 0.4926
H29 H 0.3426 0.8839 0.3802
C21 C 0.65594(19) 0.83642(17) 0.28762(18)
H30 H 0.6951 0.8374 0.2055
H31 H 0.7108 0.7922 0.3283
C22 C 0.4724(2) 0.69102(17) 0.34557(17)
C23 C 0.2682(2) 0.55632(18) 0.43977(19)
C24 C 0.3325(2) 0.45964(18) 0.5035(2)
H32 H 0.4243 0.4547 0.4499
H33 H 0.2809 0.3872 0.5303
H34 H 0.3335 0.4753 0.5710
C25 C 0.2688(2) 0.5414(2) 0.3285(2)
H35 H 0.2313 0.6073 0.2891
H36 H 0.2148 0.4717 0.3500
H37 H 0.3607 0.5358 0.2756
C26 C 0.1261(2) 0.5688(2) 0.5249(2)
H38 H 0.1310 0.5911 0.5876
H39 H 0.0732 0.4958 0.5588
H40 H 0.0837 0.6274 0.4825
loop_
_geom_bond_atom_site_label_1
_geom_bond_atom_site_label_2
_geom_bond_site_symmetry_1
_geom_bond_site_symmetry_2
O1 C6 1_555 1_555
O2 C6 1_555 1_555
O3 C9 1_555 1_555
O4 C9 1_555 1_555
O5 C17 1_555 1_555
O6 C17 1_555 1_555
O7 C22 1_555 1_555
O8 C22 1_555 1_555
N1 N2 1_555 1_555
N2 C2 1_555 1_555
N3 C4 1_555 1_555
N4 H1 1_555 1_555
H2 N4 1_555 1_555
N5 N6 1_555 1_555
N6 C14 1_555 1_555
N7 C20 1_555 1_555
N8 H3 1_555 1_555
H4 N8 1_555 1_555
C1 N1 1_555 1_555
C2 N4 1_555 1_555
C3 C1 1_555 1_555
C4 C3 1_555 1_555
H5 C4 1_555 1_555
H6 C4 1_555 1_555
C5 N3 1_555 1_555
H7 C5 1_555 1_555
H8 C5 1_555 1_555
C6 N1 1_555 1_555
C7 O1 1_555 1_555
H9 C7 1_555 1_555
H10 C7 1_555 1_555
C8 C7 1_555 1_555
H11 C8 1_555 1_555
H12 C8 1_555 1_555
H13 C8 1_555 1_555
C9 N3 1_555 1_555
C10 O3 1_555 1_555
C11 C10 1_555 1_555
H14 C11 1_555 1_555
H15 C11 1_555 1_555
H16 C11 1_555 1_555
C12 C10 1_555 1_555
H17 C12 1_555 1_555
H18 C12 1_555 1_555
H19 C12 1_555 1_555
C13 C10 1_555 1_555
H20 C13 1_555 1_555
H21 C13 1_555 1_555
H22 C13 1_555 1_555
C14 N8 1_555 1_555
C15 C14 1_555 1_555
C16 N5 1_555 1_555
C17 N5 1_555 1_555
C18 O5 1_555 1_555
H23 C18 1_555 1_555
H24 C18 1_555 1_555
C19 C18 1_555 1_555
H25 C19 1_555 1_555
H26 C19 1_555 1_555
H27 C19 1_555 1_555
C20 C16 1_555 1_555
H28 C20 1_555 1_555
H29 C20 1_555 1_555
C21 N7 1_555 1_555
H30 C21 1_555 1_555
H31 C21 1_555 1_555
C22 N7 1_555 1_555
C23 O7 1_555 1_555
C24 C23 1_555 1_555
H32 C24 1_555 1_555
H33 C24 1_555 1_555
H34 C24 1_555 1_555
C25 C23 1_555 1_555
H35 C25 1_555 1_555
H36 C25 1_555 1_555
H37 C25 1_555 1_555
C26 C23 1_555 1_555
H38 C26 1_555 1_555
H39 C26 1_555 1_555
H40 C26 1_555 1_555
C1 C5 1_555 1_555
C2 C3 1_555 1_555
C15 C16 1_555 1_555
C15 C21 1_555 1_555

#END
