
#######################################################################
#
#                 Cambridge Crystallographic Data Centre
#                                CCDC 
#
#######################################################################
#
# If this CIF has been generated from an entry in the Cambridge 
# Structural Database, then it will include bibliographic, chemical, 
# crystal, experimental, refinement or atomic coordinate data resulting 
# from the CCDC's data processing and validation procedures.
#
#######################################################################

data_UREBAW
_chemical_name_common            
"N,N',N'',N'''-((4,6,10,12,16,18,22,24-octahydroxy-2,8,14,20-tetramethylpentacyclo[19.3.1.1$3,7!.1$9,13!.1$15,19!]octacosa-1(25),3(28),4,6,9(27),10,12,15(26),16,18,21,23-dodecaene-5,11,17,23-tetrayl)tetrakis(methylene))tetrakis(2-hydroxyethanaminium) tetrrakis(chloride) chloroform methanol solvate"
_chemical_formula_moiety         
'C44 H64 N4 O12 4+,3(C1 H4 O1),C1 H1 Cl3,4(Cl1 1-)'
_chemical_name_systematic        
'5,11,17,23-tetrakis((2-hydroxyethanaminium)methylene)-C-methylcalix(4)resorcinarene tetrrakis(chloride) chloroform methanol solvate'
_symmetry_cell_setting           monoclinic
_symmetry_space_group_name_H-M   'P 21/c'
_symmetry_Int_Tables_number      14
_space_group_name_Hall           '-P 2ybc'
loop_
_symmetry_equiv_pos_site_id
_symmetry_equiv_pos_as_xyz
1 x,y,z
2 -x,1/2+y,1/2-z
3 -x,-y,-z
4 x,1/2-y,1/2+z
_cell_length_a                   14.8890(6)
_cell_length_b                   16.0929(7)
_cell_length_c                   23.8942(8)
_cell_angle_alpha                90
_cell_angle_beta                 92.125(3)
_cell_angle_gamma                90
_cell_volume                     5721.28
_exptl_crystal_colour            brown
_exptl_crystal_description       plate
_cell_formula_units_Z            4
loop_
_atom_site_label
_atom_site_type_symbol
_atom_site_fract_x
_atom_site_fract_y
_atom_site_fract_z
Cl1 Cl 0.63550(10) 0.25059(9) 0.69469(6)
Cl2 Cl 0.59375(9) -0.11447(9) 0.48615(6)
Cl3 Cl 0.89927(11) 0.05088(11) 0.53483(8)
Cl4 Cl 0.78580(14) 0.60498(14) 0.37315(11)
Cl5 Cl 0.9407(2) -0.2160(3) 0.31299(17)
Cl6 Cl 0.8690(3) -0.3185(3) 0.22306(18)
Cl7 Cl 0.8118(3) -0.1495(3) 0.2331(2)
C1 C 0.8455(8) -0.2447(9) 0.2718(6)
H1 H 0.7972 -0.2635 0.2955
O1 O 0.5780(3) 0.4297(3) 0.46012(17)
H3 H 0.6325 0.4283 0.4563
O2 O 0.3309(3) 0.2566(3) 0.41795(18)
H4 H 0.3257 0.2087 0.4066
O3 O 0.9411(3) 0.0647(3) 0.40233(19)
H5 H 0.9411 0.0495 0.4351
O4 O 0.7038(3) -0.1313(3) 0.36901(18)
H6 H 0.6490 -0.1299 0.3641
O5 O 0.5084(3) -0.1275(3) 0.35026(19)
H7 H 0.4704 -0.1591 0.3365
O6 O 0.3004(3) 0.0950(3) 0.38219(19)
H8 H 0.2555 0.0839 0.3626
O7 O 0.9682(3) 0.2334(3) 0.4231(2)
H9 H 0.9644 0.1842 0.4143
O8 O 0.5864(3) 0.3817(3) 0.60680(19)
H10 H 0.6049 0.3459 0.6288
O9 O 0.7642(3) 0.4557(3) 0.4481(2)
H11 H 0.7741 0.4989 0.4312
O10 O 0.3730(3) -0.2412(3) 0.48254(19)
H12 H 0.3268 -0.2407 0.4628
O11 O 0.7623(3) 0.2614(3) 0.59589(19)
H13 H 0.7381 0.2592 0.6261
N1 N 0.8127(3) -0.1040(3) 0.4785(2)
H14 H 0.7496 -0.1151 0.4699
H15 H 0.8166 -0.0504 0.4969
N2 N 0.4575(4) 0.3024(3) 0.5355(2)
H16 H 0.4326 0.2480 0.5269
H17 H 0.5222 0.2989 0.5323
N3 N 0.3885(3) -0.0626(3) 0.46489(19)
H18 H 0.3961 -0.0039 0.4730
H19 H 0.4475 -0.0881 0.4674
O12 O 0.8852(4) -0.2827(4) 0.4576(2)
H20 H 0.8610 -0.3166 0.4363
C3 C 0.4429(4) 0.2702(4) 0.3476(2)
C4 C 0.5341(4) 0.0064(3) 0.3093(2)
C5 C 0.4559(4) 0.3453(4) 0.4364(2)
C6 C 0.5694(4) 0.3652(3) 0.3674(2)
N4 N 0.8959(4) 0.3577(4) 0.5374(2)
H21 H 0.8345 0.3770 0.5403
H22 H 0.9328 0.3869 0.5653
C7 C 0.4103(4) 0.2899(4) 0.3999(2)
C8 C 0.5044(4) 0.0879(4) 0.3021(2)
H23 H 0.5391 0.1239 0.2814
C9 C 0.4258(4) 0.1186(3) 0.3240(2)
C10 C 0.5222(4) 0.3103(4) 0.3325(2)
H24 H 0.5443 0.2995 0.2973
C11 C 0.4812(4) -0.0461(4) 0.3417(2)
C12 C 0.4028(4) -0.0172(4) 0.3673(2)
C13 C 0.8435(4) 0.2490(4) 0.3560(2)
C14 C 0.3936(4) 0.2066(4) 0.3107(2)
H25 H 0.3301 0.2091 0.3200
C15 C 0.6165(4) -0.0265(4) 0.2827(2)
H26 H 0.6128 -0.0872 0.2839
C16 C 0.5361(4) 0.3800(4) 0.4203(2)
C17 C 0.3762(4) 0.0650(4) 0.3568(2)
C18 C 0.7670(4) 0.2940(4) 0.3402(2)
H27 H 0.7332 0.2767 0.3088
C19 C 0.7469(4) 0.0729(4) 0.3060(2)
H28 H 0.7227 0.1084 0.2787
C20 C 0.8262(4) 0.0966(4) 0.3345(2)
C21 C 0.7018(4) -0.0015(4) 0.3164(2)
C22 C 0.8745(4) 0.1757(4) 0.3208(2)
H29 H 0.9380 0.1666 0.3312
C23 C 0.8206(4) -0.0346(4) 0.3862(2)
C24 C 0.8615(4) 0.0411(4) 0.3753(3)
C25 C 0.7386(4) 0.3636(4) 0.3692(2)
C26 C 0.3979(4) 0.2246(4) 0.2479(2)
H30 H 0.3719 0.2781 0.2399
H31 H 0.3650 0.1827 0.2272
H32 H 0.4594 0.2244 0.2372
C27 C 0.8929(4) 0.2743(4) 0.4039(3)
C28 C 0.6215(4) -0.0014(4) 0.2206(2)
H33 H 0.5702 -0.0232 0.2000
H34 H 0.6755 -0.0235 0.2056
H35 H 0.6219 0.0580 0.2176
C29 C 0.6537(4) 0.4111(4) 0.3504(2)
H36 H 0.6550 0.4636 0.3712
C30 C 0.7396(4) -0.0541(4) 0.3573(2)
C31 C 0.7901(4) 0.3878(4) 0.4159(3)
C32 C 0.8672(4) 0.3450(4) 0.4336(3)
C33 C 0.4203(4) 0.3645(4) 0.4928(3)
H37 H 0.3552 0.3617 0.4911
H38 H 0.4378 0.4203 0.5039
C34 C 0.6535(4) 0.4340(4) 0.2880(2)
H39 H 0.6561 0.3842 0.2659
H40 H 0.7048 0.4681 0.2810
H41 H 0.5996 0.4640 0.2780
C35 C 0.3313(4) -0.1007(4) 0.5099(3)
H42 H 0.3320 -0.0640 0.5422
H43 H 0.2697 -0.1051 0.4957
C36 C 0.3641(4) -0.1853(4) 0.5282(3)
H44 H 0.4218 -0.1795 0.5479
H45 H 0.3222 -0.2086 0.5541
C37 C 0.8702(4) 0.1954(4) 0.2578(3)
H46 H 0.8086 0.2026 0.2453
H47 H 0.8962 0.1504 0.2376
H48 H 0.9030 0.2456 0.2511
C38 C 0.8478(5) -0.1688(4) 0.5181(3)
H49 H 0.8223 -0.1603 0.5544
H50 H 0.9126 -0.1632 0.5226
C39 C 0.8606(4) -0.0990(4) 0.4250(2)
H51 H 0.8581 -0.1528 0.4066
H52 H 0.9233 -0.0858 0.4331
C40 C 0.3517(4) -0.0715(4) 0.4055(2)
H53 H 0.3564 -0.1289 0.3936
H54 H 0.2886 -0.0560 0.4036
C41 C 0.4372(4) 0.3244(4) 0.5945(2)
H55 H 0.4489 0.2767 0.6185
H56 H 0.3740 0.3384 0.5964
C42 C 0.9278(4) 0.3785(5) 0.4807(3)
H57 H 0.9878 0.3561 0.4770
H58 H 0.9316 0.4385 0.4772
C43 C 0.4930(5) 0.3963(4) 0.6150(3)
H59 H 0.4743 0.4462 0.5950
H60 H 0.4837 0.4051 0.6545
C44 C 0.8996(5) 0.2667(4) 0.5494(3)
H61 H 0.9617 0.2485 0.5518
H62 H 0.8692 0.2365 0.5191
C45 C 0.8551(4) 0.2474(5) 0.6040(3)
H63 H 0.8662 0.1901 0.6147
H64 H 0.8794 0.2831 0.6336
C46 C 0.8246(6) -0.2578(5) 0.4972(3)
H65 H 0.8270 -0.2961 0.5285
H66 H 0.7641 -0.2586 0.4807
O13 O 0.7587(5) 0.4484(4) 0.5858(3)
H67 H 0.7066 0.4321 0.5833
C47 C 0.7605(7) 0.5343(6) 0.5807(4)
H68 H 0.7775 0.5490 0.5436
H69 H 0.8034 0.5569 0.6076
H70 H 0.7020 0.5563 0.5874
O14 O 1.0137(4) 0.4469(4) 0.6076(3)
H71 H 1.0685 0.4454 0.6052
C48 C 0.9916(8) 0.4935(9) 0.6560(5)
H72 H 0.9953 0.4582 0.6884
H73 H 0.9315 0.5148 0.6512
H74 H 1.0329 0.5389 0.6609
O15 O 0.8513(5) -0.0237(6) 0.6505(3)
H75 H 0.8851 -0.0163 0.6247
C49 C 0.8755(12) 0.0320(11) 0.6960(6)
H76 H 0.8310 0.0749 0.6981
H77 H 0.9330 0.0565 0.6896
H78 H 0.8785 0.0015 0.7305
Cl8? Cl 0.8852(18) -0.2209(15) 0.1691(9)
Cl9? Cl 0.905(2) -0.1005(17) 0.2565(12)
Cl10? Cl 0.865(2) -0.273(2) 0.2948(13)
C2? C 0.876(6) -0.203(2) 0.2399(11)
H2? H 0.8116 -0.1916 0.2366
loop_
_geom_bond_atom_site_label_1
_geom_bond_atom_site_label_2
_geom_bond_site_symmetry_1
_geom_bond_site_symmetry_2
Cl5 C1 1_555 1_555
Cl6 C1 1_555 1_555
Cl7 C1 1_555 1_555
C1 H1 1_555 1_555
O1 H3 1_555 1_555
O2 H4 1_555 1_555
O3 H5 1_555 1_555
O4 H6 1_555 1_555
O5 H7 1_555 1_555
O6 H8 1_555 1_555
O7 H9 1_555 1_555
O8 H10 1_555 1_555
O9 H11 1_555 1_555
O10 H12 1_555 1_555
O11 H13 1_555 1_555
N1 H14 1_555 1_555
H15 N1 1_555 1_555
N2 H16 1_555 1_555
H17 N2 1_555 1_555
N3 H18 1_555 1_555
H19 N3 1_555 1_555
O12 H20 1_555 1_555
C3 C7 1_555 1_555
C4 C8 1_555 1_555
C5 C7 1_555 1_555
C6 C10 1_555 1_555
N4 H21 1_555 1_555
H22 N4 1_555 1_555
C7 O2 1_555 1_555
C8 H23 1_555 1_555
C9 C8 1_555 1_555
C10 C3 1_555 1_555
H24 C10 1_555 1_555
C11 O5 1_555 1_555
C12 C11 1_555 1_555
C13 C18 1_555 1_555
C14 C3 1_555 1_555
H25 C14 1_555 1_555
C15 C4 1_555 1_555
H26 C15 1_555 1_555
C16 O1 1_555 1_555
C17 O6 1_555 1_555
C18 H27 1_555 1_555
C19 H28 1_555 1_555
C20 C19 1_555 1_555
C21 C15 1_555 1_555
C22 C13 1_555 1_555
H29 C22 1_555 1_555
C23 C24 1_555 1_555
C24 O3 1_555 1_555
C25 C18 1_555 1_555
C26 C14 1_555 1_555
H30 C26 1_555 1_555
H31 C26 1_555 1_555
H32 C26 1_555 1_555
C27 O7 1_555 1_555
C28 C15 1_555 1_555
H33 C28 1_555 1_555
H34 C28 1_555 1_555
H35 C28 1_555 1_555
C29 C6 1_555 1_555
H36 C29 1_555 1_555
C30 O4 1_555 1_555
C31 O9 1_555 1_555
C32 C27 1_555 1_555
C33 N2 1_555 1_555
H37 C33 1_555 1_555
H38 C33 1_555 1_555
C34 C29 1_555 1_555
H39 C34 1_555 1_555
H40 C34 1_555 1_555
H41 C34 1_555 1_555
C35 N3 1_555 1_555
H42 C35 1_555 1_555
H43 C35 1_555 1_555
C36 O10 1_555 1_555
H44 C36 1_555 1_555
H45 C36 1_555 1_555
C37 C22 1_555 1_555
H46 C37 1_555 1_555
H47 C37 1_555 1_555
H48 C37 1_555 1_555
C38 N1 1_555 1_555
H49 C38 1_555 1_555
H50 C38 1_555 1_555
C39 N1 1_555 1_555
H51 C39 1_555 1_555
H52 C39 1_555 1_555
C40 N3 1_555 1_555
H53 C40 1_555 1_555
H54 C40 1_555 1_555
C41 N2 1_555 1_555
H55 C41 1_555 1_555
H56 C41 1_555 1_555
C42 N4 1_555 1_555
H57 C42 1_555 1_555
H58 C42 1_555 1_555
C43 O8 1_555 1_555
H59 C43 1_555 1_555
H60 C43 1_555 1_555
C44 N4 1_555 1_555
H61 C44 1_555 1_555
H62 C44 1_555 1_555
C45 O11 1_555 1_555
H63 C45 1_555 1_555
H64 C45 1_555 1_555
C46 O12 1_555 1_555
H65 C46 1_555 1_555
H66 C46 1_555 1_555
O13 H67 1_555 1_555
C47 O13 1_555 1_555
H68 C47 1_555 1_555
H69 C47 1_555 1_555
H70 C47 1_555 1_555
O14 H71 1_555 1_555
C48 O14 1_555 1_555
H72 C48 1_555 1_555
H73 C48 1_555 1_555
H74 C48 1_555 1_555
O15 H75 1_555 1_555
C49 O15 1_555 1_555
H76 C49 1_555 1_555
H77 C49 1_555 1_555
H78 C49 1_555 1_555
C4 C11 1_555 1_555
C5 C16 1_555 1_555
C5 C33 1_555 1_555
C6 C16 1_555 1_555
C9 C14 1_555 1_555
C9 C17 1_555 1_555
C12 C17 1_555 1_555
C12 C40 1_555 1_555
C13 C27 1_555 1_555
C19 C21 1_555 1_555
C20 C22 1_555 1_555
C20 C24 1_555 1_555
C21 C30 1_555 1_555
C23 C30 1_555 1_555
C23 C39 1_555 1_555
C25 C29 1_555 1_555
C25 C31 1_555 1_555
C31 C32 1_555 1_555
C32 C42 1_555 1_555
C35 C36 1_555 1_555
C38 C46 1_555 1_555
C41 C43 1_555 1_555
C44 C45 1_555 1_555

#END
