
#######################################################################
#
#                 Cambridge Crystallographic Data Centre
#                                CCDC 
#
#######################################################################
#
# If this CIF has been generated from an entry in the Cambridge 
# Structural Database, then it will include bibliographic, chemical, 
# crystal, experimental, refinement or atomic coordinate data resulting 
# from the CCDC's data processing and validation procedures.
#
#######################################################################

data_UREGEE
_chemical_formula_moiety         'C25 H23 N3 O2'
_chemical_name_systematic        
2,6-bis[(S)-4-Benzyl-4,5-dihydro-1,3-oxazol-2-yl]pyridine
_symmetry_cell_setting           orthorhombic
_symmetry_space_group_name_H-M   'P 21 21 21'
_symmetry_Int_Tables_number      19
_space_group_name_Hall           'P 2ac 2ab'
loop_
_symmetry_equiv_pos_site_id
_symmetry_equiv_pos_as_xyz
1 x,y,z
2 1/2-x,-y,1/2+z
3 -x,1/2+y,1/2-z
4 1/2+x,1/2-y,-z
_cell_length_a                   7.0184(2)
_cell_length_b                   13.2654(3)
_cell_length_c                   21.5542(8)
_cell_angle_alpha                90
_cell_angle_beta                 90
_cell_angle_gamma                90
_cell_volume                     2006.74
_exptl_crystal_colour            colorless
_exptl_crystal_description       prism
_cell_formula_units_Z            4
_exptl_crystal_recrystallization_method dichloromethane/hexane
loop_
_atom_site_label
_atom_site_type_symbol
_atom_site_fract_x
_atom_site_fract_y
_atom_site_fract_z
C1 C 0.08221(18) 0.78242(8) 0.86378(6)
H1 H 0.0477 0.8470 0.8436
H2 H 0.1124 0.7953 0.9079
C2 C -0.07905(16) 0.70557(7) 0.85760(5)
H3 H -0.1664 0.7274 0.8235
C3 C 0.18890(16) 0.63775(7) 0.82495(5)
C4 C 0.33449(15) 0.56927(7) 0.79877(5)
C5 C 0.30631(16) 0.46567(7) 0.80236(5)
H4 H 0.1993 0.4390 0.8238
C6 C 0.43561(16) 0.40269(8) 0.77450(5)
H5 H 0.4199 0.3316 0.7762
C7 C 0.58872(16) 0.44469(7) 0.74402(5)
H6 H 0.6801 0.4029 0.7241
C8 C 0.60768(16) 0.54896(7) 0.74277(5)
C9 C 0.76549(16) 0.59535(7) 0.70744(4)
C10 C 1.02808(19) 0.58556(8) 0.64867(6)
H7 H 1.0471 0.5688 0.6044
H8 H 1.1483 0.5731 0.6715
C11 C 0.96205(16) 0.69563(8) 0.65652(5)
H9 H 0.9089 0.7199 0.6161
C12 C 1.11831(16) 0.76752(8) 0.67706(5)
H10 H 1.0595 0.8305 0.6927
H11 H 1.1903 0.7366 0.7116
C13 C 1.25418(16) 0.79284(7) 0.62524(5)
C14 C 1.23770(17) 0.88259(8) 0.59240(5)
H12 H 1.1407 0.9293 0.6032
C15 C 1.36016(18) 0.90471(10) 0.54433(6)
H13 H 1.3472 0.9665 0.5225
C16 C 1.50168(19) 0.83760(9) 0.52768(6)
H14 H 1.5855 0.8528 0.4944
C17 C 1.52003(17) 0.74822(9) 0.55991(6)
H15 H 1.6169 0.7016 0.5488
C18 C 1.39795(17) 0.72647(8) 0.60832(5)
H16 H 1.4126 0.6650 0.6304
C19 C -0.19380(17) 0.69334(8) 0.91699(5)
H17 H -0.3029 0.6477 0.9093
H18 H -0.1127 0.6623 0.9494
C20 C -0.26647(15) 0.79374(7) 0.93971(5)
C21 C -0.19421(16) 0.83776(8) 0.99302(5)
H19 H -0.0999 0.8031 1.0164
C22 C -0.25669(18) 0.93129(8) 1.01295(5)
H20 H -0.2051 0.9603 1.0496
C23 C -0.39392(18) 0.98226(8) 0.97955(6)
H21 H -0.4370 1.0466 0.9930
C24 C -0.46803(17) 0.93922(9) 0.92658(6)
H22 H -0.5632 0.9739 0.9037
C25 C -0.40519(17) 0.84613(8) 0.90655(5)
H23 H -0.4570 0.8175 0.8698
N1 N 0.48293(13) 0.61177(6) 0.76977(4)
N2 N 0.02005(14) 0.61231(6) 0.83845(4)
N3 N 0.80484(13) 0.68788(6) 0.70200(4)
O1 O 0.24182(12) 0.73528(5) 0.83241(3)
O2 O 0.87275(12) 0.52786(5) 0.67492(4)
loop_
_geom_bond_atom_site_label_1
_geom_bond_atom_site_label_2
_geom_bond_site_symmetry_1
_geom_bond_site_symmetry_2
C1 H1 1_555 1_555
H2 C1 1_555 1_555
C2 C1 1_555 1_555
H3 C2 1_555 1_555
C3 C4 1_555 1_555
C4 C5 1_555 1_555
C5 H4 1_555 1_555
C6 C5 1_555 1_555
H5 C6 1_555 1_555
C7 C6 1_555 1_555
H6 C7 1_555 1_555
C8 C7 1_555 1_555
C9 C8 1_555 1_555
C10 H7 1_555 1_555
H8 C10 1_555 1_555
C11 C10 1_555 1_555
H9 C11 1_555 1_555
C12 C11 1_555 1_555
H10 C12 1_555 1_555
H11 C12 1_555 1_555
C13 C12 1_555 1_555
C14 C13 1_555 1_555
H12 C14 1_555 1_555
C15 C14 1_555 1_555
H13 C15 1_555 1_555
C16 C15 1_555 1_555
H14 C16 1_555 1_555
C17 C16 1_555 1_555
H15 C17 1_555 1_555
C18 C13 1_555 1_555
H16 C18 1_555 1_555
C19 C2 1_555 1_555
H17 C19 1_555 1_555
H18 C19 1_555 1_555
C20 C19 1_555 1_555
C21 C20 1_555 1_555
H19 C21 1_555 1_555
C22 C21 1_555 1_555
H20 C22 1_555 1_555
C23 C22 1_555 1_555
H21 C23 1_555 1_555
C24 C23 1_555 1_555
H22 C24 1_555 1_555
C25 C20 1_555 1_555
H23 C25 1_555 1_555
N1 C4 1_555 1_555
N2 C2 1_555 1_555
N3 C9 1_555 1_555
O1 C1 1_555 1_555
O2 C9 1_555 1_555
C3 N2 1_555 1_555
C3 O1 1_555 1_555
C8 N1 1_555 1_555
C10 O2 1_555 1_555
C11 N3 1_555 1_555
C17 C18 1_555 1_555
C24 C25 1_555 1_555

#END
