
#######################################################################
#
#                 Cambridge Crystallographic Data Centre
#                                CCDC 
#
#######################################################################
#
# If this CIF has been generated from an entry in the Cambridge 
# Structural Database, then it will include bibliographic, chemical, 
# crystal, experimental, refinement or atomic coordinate data resulting 
# from the CCDC's data processing and validation procedures.
#
#######################################################################

data_URELAF
_chemical_formula_moiety         'C16 H19 N3 O6'
_chemical_name_systematic        
4-(2-(2-(2-(2-Nitro-1H-imidazol-1-yl)ethoxy)ethoxy)ethoxy)benzaldehyde
_symmetry_cell_setting           orthorhombic
_symmetry_space_group_name_H-M   'P 21 21 21'
_symmetry_Int_Tables_number      19
_space_group_name_Hall           'P 2ac 2ab'
loop_
_symmetry_equiv_pos_site_id
_symmetry_equiv_pos_as_xyz
1 x,y,z
2 1/2-x,-y,1/2+z
3 -x,1/2+y,1/2-z
4 1/2+x,1/2-y,-z
_cell_length_a                   4.4403(3)
_cell_length_b                   11.4686(8)
_cell_length_c                   31.2763(19)
_cell_angle_alpha                90
_cell_angle_beta                 90
_cell_angle_gamma                90
_cell_volume                     1592.72
_exptl_crystal_colour            colorless
_exptl_crystal_description       needle
_cell_formula_units_Z            4
loop_
_atom_site_label
_atom_site_type_symbol
_atom_site_fract_x
_atom_site_fract_y
_atom_site_fract_z
O1 O 0.9164(4) 0.80126(13) 0.06764(4)
O2 O 1.0360(4) 0.59396(12) 0.11489(4)
O3 O 0.9292(4) 0.36579(13) 0.15473(4)
O4 O 0.0201(4) 1.14948(13) -0.02814(5)
O5 O 0.3451(4) 0.06021(15) 0.17441(5)
O6 O 0.5051(5) -0.10825(14) 0.19678(5)
N1 N 0.7409(5) 0.17301(15) 0.22943(5)
N2 N 0.8668(5) -0.00344(17) 0.25495(6)
N3 N 0.5073(5) -0.00129(17) 0.19754(5)
C1 C 0.6176(6) 0.87874(18) 0.01331(7)
H1 H 0.6778 0.8169 -0.0039
C2 C 0.4203(6) 0.96061(18) -0.00235(7)
H2 H 0.3471 0.9536 -0.0301
C3 C 0.3288(5) 1.05450(19) 0.02312(7)
C4 C 0.4436(6) 1.06324(19) 0.06456(7)
H3 H 0.3840 1.1252 0.0818
C5 C 0.6446(6) 0.98164(19) 0.08066(7)
H4 H 0.7222 0.9893 0.1081
C6 C 0.7279(5) 0.88797(18) 0.05488(7)
C7 C 1.0208(6) 0.80108(18) 0.11112(6)
H5 H 0.8515 0.7973 0.1307
H6 H 1.1339 0.8716 0.1171
C8 C 1.2175(6) 0.69626(19) 0.11638(7)
H7 H 1.3665 0.6940 0.0937
H8 H 1.3226 0.7002 0.1435
C9 C 1.2191(6) 0.4924(2) 0.11083(7)
H9 H 1.3631 0.4893 0.1341
H10 H 1.3299 0.4952 0.0841
C10 C 1.0220(6) 0.38626(18) 0.11178(6)
H11 H 0.8471 0.3982 0.0937
H12 H 1.1322 0.3193 0.1011
C11 C 0.7292(6) 0.27044(19) 0.15794(7)
H13 H 0.8336 0.1984 0.1514
H14 H 0.5644 0.2797 0.1378
C12 C 0.6082(7) 0.26698(19) 0.20368(7)
H15 H 0.6493 0.3411 0.2174
H16 H 0.3914 0.2568 0.2028
C13 C 0.9408(6) 0.1895(2) 0.26212(7)
H17 H 1.0129 0.2605 0.2721
C14 C 1.0146(7) 0.0807(2) 0.27736(7)
H18 H 1.1469 0.0666 0.2998
C15 C 0.7066(6) 0.05487(19) 0.22695(6)
C16 C 0.1127(6) 1.14220(19) 0.00810(7)
H19 H 0.0418 1.1961 0.0279
loop_
_geom_bond_atom_site_label_1
_geom_bond_atom_site_label_2
_geom_bond_site_symmetry_1
_geom_bond_site_symmetry_2
O1 C6 1_555 1_555
O2 C8 1_555 1_555
O3 C10 1_555 1_555
O4 C16 1_555 1_555
O5 N3 1_555 1_555
O6 N3 1_555 1_555
N1 C12 1_555 1_555
N2 C14 1_555 1_555
N3 C15 1_555 1_555
C1 H1 1_555 1_555
C2 C1 1_555 1_555
H2 C2 1_555 1_555
C3 C2 1_555 1_555
C4 C3 1_555 1_555
H3 C4 1_555 1_555
C5 C4 1_555 1_555
H4 C5 1_555 1_555
C6 C1 1_555 1_555
C7 O1 1_555 1_555
H5 C7 1_555 1_555
H6 C7 1_555 1_555
C8 C7 1_555 1_555
H7 C8 1_555 1_555
H8 C8 1_555 1_555
C9 O2 1_555 1_555
H9 C9 1_555 1_555
H10 C9 1_555 1_555
C10 C9 1_555 1_555
H11 C10 1_555 1_555
H12 C10 1_555 1_555
C11 O3 1_555 1_555
H13 C11 1_555 1_555
H14 C11 1_555 1_555
C12 C11 1_555 1_555
H15 C12 1_555 1_555
H16 C12 1_555 1_555
C13 N1 1_555 1_555
H17 C13 1_555 1_555
C14 C13 1_555 1_555
H18 C14 1_555 1_555
C15 N1 1_555 1_555
C16 C3 1_555 1_555
H19 C16 1_555 1_555
N2 C15 1_555 1_555
C5 C6 1_555 1_555

#END
