
#######################################################################
#
#                 Cambridge Crystallographic Data Centre
#                                CCDC 
#
#######################################################################
#
# If this CIF has been generated from an entry in the Cambridge 
# Structural Database, then it will include bibliographic, chemical, 
# crystal, experimental, refinement or atomic coordinate data resulting 
# from the CCDC's data processing and validation procedures.
#
#######################################################################

data_UREQUE
_chemical_name_common            
1,1,3,3,5,5,7,7-Octaphenyl-2,6-dioxa-4,8-diaza-1,3,5,7-tetrasilacyclooctane
_chemical_formula_moiety         'C48 H42 N2 O2 Si4'
_chemical_name_systematic        
2,2,4,4,6,6,8,8-Octaphenyl-1,5,3,7,2,4,6,8-dioxadiazatetrasilocane
_symmetry_cell_setting           monoclinic
_symmetry_space_group_name_H-M   'C 2/c'
_symmetry_Int_Tables_number      15
_space_group_name_Hall           '-C 2yn'
loop_
_symmetry_equiv_pos_site_id
_symmetry_equiv_pos_as_xyz
1 x,y,z
2 -x,y,1/2-z
3 1/2+x,1/2+y,z
4 1/2-x,1/2+y,1/2-z
5 -x,-y,-z
6 x,-y,1/2+z
7 1/2-x,1/2-y,-z
8 1/2+x,1/2-y,1/2+z
_cell_length_a                   12.1188(18)
_cell_length_b                   17.016(3)
_cell_length_c                   20.621(3)
_cell_angle_alpha                90
_cell_angle_beta                 93.216(3)
_cell_angle_gamma                90
_cell_volume                     4245.63
_exptl_crystal_colour            colorless
_exptl_crystal_description       platelet
_cell_formula_units_Z            4
_exptl_crystal_recrystallization_method n-hexane
loop_
_atom_site_label
_atom_site_type_symbol
_atom_site_fract_x
_atom_site_fract_y
_atom_site_fract_z
Si1 Si 0.34094(4) 0.15720(3) 0.71343(2)
Si2 Si 0.55767(4) 0.21644(3) 0.65217(2)
O1 O 0.44552(11) 0.16871(8) 0.66768(6)
N1 N 0.35191(13) 0.21530(9) 0.78113(7)
H1 H 0.3008 0.2520 0.7818
C1 C 0.21399(15) 0.18949(11) 0.66561(8)
C2 C 0.21930(18) 0.23932(15) 0.61226(10)
H2 H 0.2895 0.2534 0.5975
C3 C 0.12476(19) 0.26890(15) 0.58017(11)
H3 H 0.1310 0.3036 0.5445
C4 C 0.02258(18) 0.24847(14) 0.59954(10)
H4 H -0.0422 0.2684 0.5772
C5 C 0.01439(18) 0.19908(15) 0.65148(12)
H5 H -0.0564 0.1845 0.6651
C6 C 0.10912(17) 0.17011(13) 0.68447(11)
H6 H 0.1019 0.1363 0.7207
C7 C 0.33633(15) 0.05141(11) 0.73523(9)
C8 C 0.29044(18) 0.02462(12) 0.79170(11)
H7 H 0.2599 0.0613 0.8204
C9 C 0.2889(2) -0.05507(14) 0.80646(12)
H8 H 0.2573 -0.0725 0.8450
C10 C 0.3333(2) -0.10885(13) 0.76511(13)
H9 H 0.3335 -0.1632 0.7756
C11 C 0.3772(2) -0.08378(13) 0.70882(12)
H10 H 0.4062 -0.1209 0.6799
C12 C 0.37953(19) -0.00461(12) 0.69411(10)
H11 H 0.4111 0.0121 0.6553
C13 C 0.61490(16) 0.16531(11) 0.58150(8)
C14 C 0.5520(2) 0.11582(13) 0.54049(10)
H12 H 0.4766 0.1068 0.5485
C15 C 0.5975(2) 0.07921(15) 0.48789(12)
H13 H 0.5531 0.0461 0.4600
C16 C 0.7078(2) 0.09105(15) 0.47616(12)
H14 H 0.7399 0.0647 0.4412
C17 C 0.7700(2) 0.14071(17) 0.51506(12)
H15 H 0.8451 0.1501 0.5065
C18 C 0.72369(18) 0.17780(15) 0.56732(11)
H16 H 0.7679 0.2125 0.5938
C19 C 0.52733(15) 0.32134(11) 0.63098(9)
C20 C 0.5545(2) 0.38324(14) 0.67257(12)
H17 H 0.5909 0.3725 0.7136
C21 C 0.5299(3) 0.46049(16) 0.65572(16)
H18 H 0.5515 0.5019 0.6846
C22 C 0.4745(3) 0.47717(17) 0.59751(16)
H19 H 0.4558 0.5299 0.5866
C23 C 0.4461(2) 0.41749(17) 0.55499(13)
H20 H 0.4083 0.4290 0.5145
C24 C 0.47270(17) 0.34019(14) 0.57119(10)
H21 H 0.4535 0.2994 0.5412
Si1A Si 0.65906(4) 0.15720(3) 0.78657(2)
Si2A Si 0.44233(4) 0.21644(3) 0.84783(2)
O1A O 0.55448(11) 0.16871(8) 0.83232(6)
N1A N 0.64809(13) 0.21530(9) 0.71887(7)
H1A H 0.6992 0.2520 0.7182
C1A C 0.78601(15) 0.18949(11) 0.83439(8)
C2A C 0.78070(18) 0.23932(15) 0.88774(10)
H2A H 0.7105 0.2534 0.9025
C3A C 0.87524(19) 0.26890(15) 0.91983(11)
H3A H 0.8690 0.3036 0.9555
C4A C 0.97742(18) 0.24847(14) 0.90046(10)
H4A H 1.0422 0.2684 0.9228
C5A C 0.98561(18) 0.19908(15) 0.84852(12)
H5A H 1.0564 0.1845 0.8349
C6A C 0.89088(17) 0.17011(13) 0.81553(11)
H6A H 0.8981 0.1363 0.7793
C7A C 0.66367(15) 0.05141(11) 0.76477(9)
C8A C 0.70956(18) 0.02462(12) 0.70830(11)
H7A H 0.7401 0.0613 0.6796
C9A C 0.7111(2) -0.05507(14) 0.69354(12)
H8A H 0.7427 -0.0725 0.6550
C10A C 0.6667(2) -0.10885(13) 0.73489(13)
H9A H 0.6665 -0.1632 0.7244
C11A C 0.6228(2) -0.08378(13) 0.79118(12)
H10A H 0.5938 -0.1209 0.8201
C12A C 0.62047(19) -0.00461(12) 0.80589(10)
H11A H 0.5889 0.0121 0.8447
C13A C 0.38510(16) 0.16531(11) 0.91850(8)
C14A C 0.4480(2) 0.11582(13) 0.95951(10)
H12A H 0.5234 0.1068 0.9515
C15A C 0.4025(2) 0.07921(15) 1.01211(12)
H13A H 0.4469 0.0461 1.0400
C16A C 0.2922(2) 0.09105(15) 1.02384(12)
H14A H 0.2601 0.0647 1.0588
C17A C 0.2300(2) 0.14071(17) 0.98494(12)
H15A H 0.1549 0.1501 0.9935
C18A C 0.27631(18) 0.17780(15) 0.93268(11)
H16A H 0.2321 0.2125 0.9062
C19A C 0.47267(15) 0.32134(11) 0.86902(9)
C20A C 0.4455(2) 0.38324(14) 0.82743(12)
H17A H 0.4091 0.3725 0.7864
C21A C 0.4701(3) 0.46049(16) 0.84428(16)
H18A H 0.4485 0.5019 0.8154
C22A C 0.5255(3) 0.47717(17) 0.90249(16)
H19A H 0.5442 0.5299 0.9134
C23A C 0.5539(2) 0.41749(17) 0.94501(13)
H20A H 0.5917 0.4290 0.9855
C24A C 0.52730(17) 0.34019(14) 0.92881(10)
H21A H 0.5465 0.2994 0.9588
loop_
_geom_bond_atom_site_label_1
_geom_bond_atom_site_label_2
_geom_bond_site_symmetry_1
_geom_bond_site_symmetry_2
Si1 O1 1_555 1_555
Si2 O1 1_555 1_555
N1 Si1 1_555 1_555
H1 N1 1_555 1_555
C1 Si1 1_555 1_555
C2 C1 1_555 1_555
H2 C2 1_555 1_555
C3 C2 1_555 1_555
H3 C3 1_555 1_555
C4 C3 1_555 1_555
H4 C4 1_555 1_555
C5 C4 1_555 1_555
H5 C5 1_555 1_555
C6 C1 1_555 1_555
H6 C6 1_555 1_555
C7 Si1 1_555 1_555
C8 C7 1_555 1_555
H7 C8 1_555 1_555
C9 C8 1_555 1_555
H8 C9 1_555 1_555
C10 C9 1_555 1_555
H9 C10 1_555 1_555
C11 C10 1_555 1_555
H10 C11 1_555 1_555
C12 C7 1_555 1_555
H11 C12 1_555 1_555
C13 Si2 1_555 1_555
C14 C13 1_555 1_555
H12 C14 1_555 1_555
C15 C14 1_555 1_555
H13 C15 1_555 1_555
C16 C15 1_555 1_555
H14 C16 1_555 1_555
C17 C16 1_555 1_555
H15 C17 1_555 1_555
C18 C13 1_555 1_555
H16 C18 1_555 1_555
C19 Si2 1_555 1_555
C20 C19 1_555 1_555
H17 C20 1_555 1_555
C21 C20 1_555 1_555
H18 C21 1_555 1_555
C22 C21 1_555 1_555
H19 C22 1_555 1_555
C23 C22 1_555 1_555
H20 C23 1_555 1_555
C24 C19 1_555 1_555
H21 C24 1_555 1_555
Si1A O1A 1_555 1_555
Si2A N1 1_555 1_555
O1A Si2A 1_555 1_555
N1A Si2 1_555 1_555
H1A N1A 1_555 1_555
C1A Si1A 1_555 1_555
C2A C1A 1_555 1_555
H2A C2A 1_555 1_555
C3A C2A 1_555 1_555
H3A C3A 1_555 1_555
C4A C3A 1_555 1_555
H4A C4A 1_555 1_555
C5A C4A 1_555 1_555
H5A C5A 1_555 1_555
C6A C1A 1_555 1_555
H6A C6A 1_555 1_555
C7A Si1A 1_555 1_555
C8A C7A 1_555 1_555
H7A C8A 1_555 1_555
C9A C8A 1_555 1_555
H8A C9A 1_555 1_555
C10A C9A 1_555 1_555
H9A C10A 1_555 1_555
C11A C10A 1_555 1_555
H10A C11A 1_555 1_555
C12A C7A 1_555 1_555
H11A C12A 1_555 1_555
C13A Si2A 1_555 1_555
C14A C13A 1_555 1_555
H12A C14A 1_555 1_555
C15A C14A 1_555 1_555
H13A C15A 1_555 1_555
C16A C15A 1_555 1_555
H14A C16A 1_555 1_555
C17A C16A 1_555 1_555
H15A C17A 1_555 1_555
C18A C13A 1_555 1_555
H16A C18A 1_555 1_555
C19A Si2A 1_555 1_555
C20A C19A 1_555 1_555
H17A C20A 1_555 1_555
C21A C20A 1_555 1_555
H18A C21A 1_555 1_555
C22A C21A 1_555 1_555
H19A C22A 1_555 1_555
C23A C22A 1_555 1_555
H20A C23A 1_555 1_555
C24A C19A 1_555 1_555
H21A C24A 1_555 1_555
C5 C6 1_555 1_555
C11 C12 1_555 1_555
C17 C18 1_555 1_555
C23 C24 1_555 1_555
Si1A N1A 1_555 1_555
C5A C6A 1_555 1_555
C11A C12A 1_555 1_555
C17A C18A 1_555 1_555
C23A C24A 1_555 1_555

#END
