
#######################################################################
#
#                 Cambridge Crystallographic Data Centre
#                                CCDC 
#
#######################################################################
#
# If this CIF has been generated from an entry in the Cambridge 
# Structural Database, then it will include bibliographic, chemical, 
# crystal, experimental, refinement or atomic coordinate data resulting 
# from the CCDC's data processing and validation procedures.
#
#######################################################################

data_URERAL
_chemical_name_common            
2,2,4,4-Tetraphenyl-1,3-bis(3,3,5,5-tetramethyl-1,1-diphenyl-5-vinyltrisiloxan-1-yl)cyclodisilazane
_chemical_formula_moiety         'C60 H70 N2 O4 Si8'
_chemical_name_systematic        
2,2,4,4-Tetraphenyl-1,3-bis(3,3,5,5-tetramethyl-1,1-diphenyl-5-vinyltrisiloxanyl)-1,3,2,4-diazadisiletidine
_symmetry_cell_setting           triclinic
_symmetry_space_group_name_H-M   'P -1'
_symmetry_Int_Tables_number      2
_space_group_name_Hall           '-P 1'
loop_
_symmetry_equiv_pos_site_id
_symmetry_equiv_pos_as_xyz
1 x,y,z
2 -x,-y,-z
_cell_length_a                   10.731(2)
_cell_length_b                   11.021(2)
_cell_length_c                   13.859(3)
_cell_angle_alpha                88.320(9)
_cell_angle_beta                 76.120(6)
_cell_angle_gamma                78.860(8)
_cell_volume                     1560.96
_exptl_crystal_colour            colorless
_exptl_crystal_description       block
_cell_formula_units_Z            1
_exptl_crystal_recrystallization_method n-hexane
loop_
_atom_site_label
_atom_site_type_symbol
_atom_site_fract_x
_atom_site_fract_y
_atom_site_fract_z
Si1 Si 0.25363(13) 0.87059(11) 0.07043(8)
Si2 Si 0.35367(9) 0.85862(8) 0.26534(7)
Si3 Si 0.44457(8) 0.58120(7) 0.30819(6)
Si4 Si 0.49207(8) 0.61058(7) 0.52203(6)
O1 O 0.3102(4) 0.8299(3) 0.1668(2)
O2 O 0.3845(2) 0.72946(19) 0.32207(15)
N1 N 0.4736(2) 0.5313(2) 0.42053(17)
C1 C 0.3722(5) 0.7923(5) -0.0386(3)
H1 H 0.3830 0.7025 -0.0303
H2 H 0.4565 0.8174 -0.0451
H3 H 0.3402 0.8151 -0.0984
C2 C 0.2206(6) 0.9597(5) 0.3495(4)
H4 H 0.1435 0.9209 0.3658
H5 H 0.1995 1.0389 0.3175
H6 H 0.2471 0.9737 0.4105
C3 C 0.5004(6) 0.9265(6) 0.2308(5)
H7 H 0.5695 0.8703 0.1848
H8 H 0.5300 0.9400 0.2906
H9 H 0.4803 1.0058 0.1985
C4 C 0.3206(3) 0.5015(3) 0.2770(2)
C5 C 0.3566(3) 0.3802(3) 0.2406(2)
H10 H 0.4461 0.3409 0.2266
C6 C 0.2644(4) 0.3153(4) 0.2242(3)
H11 H 0.2910 0.2322 0.2002
C7 C 0.1356(4) 0.3712(4) 0.2427(3)
H12 H 0.0727 0.3266 0.2315
C8 C 0.0964(4) 0.4913(4) 0.2774(3)
H13 H 0.0068 0.5301 0.2895
C9 C 0.1883(3) 0.5556(4) 0.2945(3)
H14 H 0.1604 0.6386 0.3188
C10 C 0.5940(3) 0.5541(3) 0.2047(2)
C11 C 0.7229(9) 0.5085(12) 0.2155(7)
H15 H 0.7364 0.4915 0.2802
C12 C 0.8279(8) 0.4885(15) 0.1357(6)
H16 H 0.9133 0.4631 0.1462
C13 C 0.8121(10) 0.5046(13) 0.0405(8)
H17 H 0.8851 0.4852 -0.0147
C14 C 0.6879(4) 0.5495(4) 0.0261(3)
H18 H 0.6763 0.5714 -0.0384
C15 C 0.5815(3) 0.5621(3) 0.1065(2)
H19 H 0.4963 0.5769 0.0947
C16 C 0.3401(3) 0.7168(3) 0.5883(2)
C17 C 0.2205(3) 0.7236(3) 0.5635(2)
H20 H 0.2164 0.6758 0.5088
C18 C 0.1073(4) 0.7988(3) 0.6170(3)
H21 H 0.0269 0.8016 0.5988
C19 C 0.1108(4) 0.8692(3) 0.6962(3)
H22 H 0.0331 0.9202 0.7328
C20 C 0.2274(4) 0.8653(3) 0.7220(3)
H23 H 0.2301 0.9137 0.7768
C21 C 0.3415(4) 0.7910(3) 0.6683(3)
H24 H 0.4218 0.7906 0.6861
C22 C 0.6302(3) 0.6964(3) 0.4937(2)
C23 C 0.6095(4) 0.8199(4) 0.4685(3)
H25 H 0.5233 0.8626 0.4695
C24 C 0.7126(5) 0.8820(4) 0.4419(4)
H26 H 0.6965 0.9666 0.4244
C25 C 0.8367(5) 0.8235(5) 0.4405(4)
H27 H 0.9069 0.8670 0.4216
C26 C 0.8607(4) 0.7013(4) 0.4664(3)
H28 H 0.9470 0.6603 0.4667
C27 C 0.7575(3) 0.6387(3) 0.4920(2)
H29 H 0.7745 0.5539 0.5088
C28 C 0.0010(15) 0.8122(14) 0.1453(11)
H30 H 0.0172 0.7954 0.2092
H31 H -0.0805 0.8042 0.1331
C29 C 0.0907(15) 0.8463(12) 0.0740(10)
H32 H 0.0658 0.8610 0.0127
C30 C 0.2438(10) 1.0414(7) 0.0555(6)
H33 H 0.1811 1.0851 0.1130
H34 H 0.2151 1.0672 -0.0053
H35 H 0.3302 1.0613 0.0509
Si1A Si 0.74637(13) 0.12941(11) 0.92957(8)
Si2A Si 0.64633(9) 0.14138(8) 0.73466(7)
Si3A Si 0.55543(8) 0.41880(7) 0.69181(6)
Si4A Si 0.50793(8) 0.38942(7) 0.47797(6)
O1A O 0.6898(4) 0.1701(3) 0.8332(2)
O2A O 0.6155(2) 0.27054(19) 0.67793(15)
N1A N 0.5264(2) 0.4687(2) 0.57947(17)
C1A C 0.6278(5) 0.2077(5) 1.0386(3)
H1A H 0.6170 0.2975 1.0303
H2A H 0.5435 0.1826 1.0451
H3A H 0.6598 0.1849 1.0984
C2A C 0.7794(6) 0.0403(5) 0.6505(4)
H4A H 0.8565 0.0791 0.6342
H5A H 0.8005 -0.0389 0.6825
H6A H 0.7529 0.0263 0.5895
C3A C 0.4996(6) 0.0735(6) 0.7692(5)
H7A H 0.4305 0.1297 0.8152
H8A H 0.4700 0.0600 0.7094
H9A H 0.5197 -0.0058 0.8015
C4A C 0.6794(3) 0.4985(3) 0.7230(2)
C5A C 0.6434(3) 0.6198(3) 0.7594(2)
H10A H 0.5539 0.6591 0.7734
C6A C 0.7356(4) 0.6847(4) 0.7758(3)
H11A H 0.7090 0.7678 0.7998
C7A C 0.8644(4) 0.6288(4) 0.7573(3)
H12A H 0.9273 0.6734 0.7685
C8A C 0.9036(4) 0.5087(4) 0.7226(3)
H13A H 0.9932 0.4699 0.7105
C9A C 0.8117(3) 0.4444(4) 0.7055(3)
H14A H 0.8396 0.3614 0.6812
C10A C 0.4060(3) 0.4459(3) 0.7953(2)
C11A C 0.2771(9) 0.4915(12) 0.7845(7)
H15A H 0.2636 0.5085 0.7198
C12A C 0.1721(8) 0.5115(15) 0.8643(6)
H16A H 0.0867 0.5369 0.8538
C13A C 0.1879(10) 0.4954(13) 0.9595(8)
H17A H 0.1149 0.5148 1.0147
C14A C 0.3121(4) 0.4505(4) 0.9739(3)
H18A H 0.3237 0.4286 1.0384
C15A C 0.4185(3) 0.4379(3) 0.8935(2)
H19A H 0.5037 0.4231 0.9053
C16A C 0.6599(3) 0.2832(3) 0.4117(2)
C17A C 0.7795(3) 0.2764(3) 0.4365(2)
H20A H 0.7836 0.3242 0.4912
C18A C 0.8927(4) 0.2012(3) 0.3830(3)
H21A H 0.9731 0.1984 0.4012
C19A C 0.8892(4) 0.1308(3) 0.3038(3)
H22A H 0.9669 0.0798 0.2672
C20A C 0.7726(4) 0.1347(3) 0.2780(3)
H23A H 0.7699 0.0863 0.2232
C21A C 0.6585(4) 0.2090(3) 0.3317(3)
H24A H 0.5782 0.2094 0.3139
C22A C 0.3698(3) 0.3036(3) 0.5063(2)
C23A C 0.3905(4) 0.1801(4) 0.5315(3)
H25A H 0.4767 0.1374 0.5305
C24A C 0.2874(5) 0.1180(4) 0.5581(4)
H26A H 0.3035 0.0334 0.5756
C25A C 0.1633(5) 0.1765(5) 0.5595(4)
H27A H 0.0931 0.1330 0.5784
C26A C 0.1393(4) 0.2987(4) 0.5336(3)
H28A H 0.0530 0.3397 0.5333
C27A C 0.2425(3) 0.3613(3) 0.5080(2)
H29A H 0.2255 0.4461 0.4912
C28A C 0.9990(15) 0.1878(14) 0.8547(11)
H30A H 0.9828 0.2046 0.7908
H31A H 1.0805 0.1958 0.8669
C29A C 0.9093(15) 0.1537(12) 0.9260(10)
H32A H 0.9342 0.1390 0.9873
C30A C 0.7562(10) -0.0414(7) 0.9445(6)
H33A H 0.8189 -0.0851 0.8870
H34A H 0.7849 -0.0672 1.0053
H35A H 0.6698 -0.0613 0.9491
C31? C 0.269(2) 1.105(2) 0.0102(17)
C32? C 0.7159(15) 0.5652(18) 0.2198(11)
C33? C 0.8242(12) 0.562(2) 0.1404(9)
C34? C 0.8082(16) 0.5605(18) 0.0437(12)
C35? C 0.187(2) 1.041(2) 0.0620(16)
C36? C 0.1027(19) 0.797(2) 0.0976(15)
H36? H 0.3555 1.0657 -0.0206
H37? H 0.2415 1.1916 0.0029
H38? H 0.7247 0.5753 0.2856
H39? H 0.9082 0.5607 0.1520
H40? H 0.8796 0.5671 -0.0107
H41? H 0.0998 1.0778 0.0937
H42? H 0.0388 0.8382 0.1558
H43? H 0.1276 0.7090 0.1111
H44? H 0.0638 0.8060 0.0400
loop_
_geom_bond_atom_site_label_1
_geom_bond_atom_site_label_2
_geom_bond_site_symmetry_1
_geom_bond_site_symmetry_2
Si1 O1 1_555 1_555
Si2 O1 1_555 1_555
Si3 O2 1_555 1_555
Si4 N1 1_555 1_555
O2 Si2 1_555 1_555
N1 Si3 1_555 1_555
C1 Si1 1_555 1_555
H1 C1 1_555 1_555
H2 C1 1_555 1_555
H3 C1 1_555 1_555
C2 Si2 1_555 1_555
H4 C2 1_555 1_555
H5 C2 1_555 1_555
H6 C2 1_555 1_555
C3 Si2 1_555 1_555
H7 C3 1_555 1_555
H8 C3 1_555 1_555
H9 C3 1_555 1_555
C4 Si3 1_555 1_555
C5 C4 1_555 1_555
H10 C5 1_555 1_555
C6 C5 1_555 1_555
H11 C6 1_555 1_555
C7 C6 1_555 1_555
H12 C7 1_555 1_555
C8 C7 1_555 1_555
H13 C8 1_555 1_555
C9 C4 1_555 1_555
H14 C9 1_555 1_555
C10 Si3 1_555 1_555
C11 C10 1_555 1_555
H15 C11 1_555 1_555
C12 C11 1_555 1_555
H16 C12 1_555 1_555
C13 C12 1_555 1_555
H17 C13 1_555 1_555
C14 C13 1_555 1_555
H18 C14 1_555 1_555
C15 C10 1_555 1_555
H19 C15 1_555 1_555
C16 Si4 1_555 1_555
C17 C16 1_555 1_555
H20 C17 1_555 1_555
C18 C17 1_555 1_555
H21 C18 1_555 1_555
C19 C18 1_555 1_555
H22 C19 1_555 1_555
C20 C19 1_555 1_555
H23 C20 1_555 1_555
C21 C16 1_555 1_555
H24 C21 1_555 1_555
C22 Si4 1_555 1_555
C23 C22 1_555 1_555
H25 C23 1_555 1_555
C24 C23 1_555 1_555
H26 C24 1_555 1_555
C25 C24 1_555 1_555
H27 C25 1_555 1_555
C26 C25 1_555 1_555
H28 C26 1_555 1_555
C27 C22 1_555 1_555
H29 C27 1_555 1_555
C28 H30 1_555 1_555
H31 C28 1_555 1_555
C29 Si1 1_555 1_555
H32 C29 1_555 1_555
C30 Si1 1_555 1_555
H33 C30 1_555 1_555
H34 C30 1_555 1_555
H35 C30 1_555 1_555
Si1A O1A 1_555 1_555
Si2A O1A 1_555 1_555
Si3A O2A 1_555 1_555
Si4A N1 1_555 1_555
O2A Si2A 1_555 1_555
N1A Si4 1_555 1_555
C1A Si1A 1_555 1_555
H1A C1A 1_555 1_555
H2A C1A 1_555 1_555
H3A C1A 1_555 1_555
C2A Si2A 1_555 1_555
H4A C2A 1_555 1_555
H5A C2A 1_555 1_555
H6A C2A 1_555 1_555
C3A Si2A 1_555 1_555
H7A C3A 1_555 1_555
H8A C3A 1_555 1_555
H9A C3A 1_555 1_555
C4A Si3A 1_555 1_555
C5A C4A 1_555 1_555
H10A C5A 1_555 1_555
C6A C5A 1_555 1_555
H11A C6A 1_555 1_555
C7A C6A 1_555 1_555
H12A C7A 1_555 1_555
C8A C7A 1_555 1_555
H13A C8A 1_555 1_555
C9A C4A 1_555 1_555
H14A C9A 1_555 1_555
C10A Si3A 1_555 1_555
C11A C10A 1_555 1_555
H15A C11A 1_555 1_555
C12A C11A 1_555 1_555
H16A C12A 1_555 1_555
C13A C12A 1_555 1_555
H17A C13A 1_555 1_555
C14A C13A 1_555 1_555
H18A C14A 1_555 1_555
C15A C10A 1_555 1_555
H19A C15A 1_555 1_555
C16A Si4A 1_555 1_555
C17A C16A 1_555 1_555
H20A C17A 1_555 1_555
C18A C17A 1_555 1_555
H21A C18A 1_555 1_555
C19A C18A 1_555 1_555
H22A C19A 1_555 1_555
C20A C19A 1_555 1_555
H23A C20A 1_555 1_555
C21A C16A 1_555 1_555
H24A C21A 1_555 1_555
C22A Si4A 1_555 1_555
C23A C22A 1_555 1_555
H25A C23A 1_555 1_555
C24A C23A 1_555 1_555
H26A C24A 1_555 1_555
C25A C24A 1_555 1_555
H27A C25A 1_555 1_555
C26A C25A 1_555 1_555
H28A C26A 1_555 1_555
C27A C22A 1_555 1_555
H29A C27A 1_555 1_555
C28A H30A 1_555 1_555
H31A C28A 1_555 1_555
C29A Si1A 1_555 1_555
H32A C29A 1_555 1_555
C30A Si1A 1_555 1_555
H33A C30A 1_555 1_555
H34A C30A 1_555 1_555
H35A C30A 1_555 1_555
C8 C9 1_555 1_555
C14 C15 1_555 1_555
C20 C21 1_555 1_555
C26 C27 1_555 1_555
C28 C29 1_555 1_555
Si3A N1A 1_555 1_555
Si4A N1A 1_555 1_555
C8A C9A 1_555 1_555
C14A C15A 1_555 1_555
C20A C21A 1_555 1_555
C26A C27A 1_555 1_555
C28A C29A 1_555 1_555

#END
