
#######################################################################
#
#                 Cambridge Crystallographic Data Centre
#                                CCDC 
#
#######################################################################
#
# If this CIF has been generated from an entry in the Cambridge 
# Structural Database, then it will include bibliographic, chemical, 
# crystal, experimental, refinement or atomic coordinate data resulting 
# from the CCDC's data processing and validation procedures.
#
#######################################################################

data_UREREQ
_chemical_formula_moiety         'C30 H44 Li1 O2 P1 Si2'
_chemical_name_systematic        
(3,4-diphenyl-2,5-bis(trimethylsilyl)phospholyl)-bis(tetrahydrofuran)-lithium
_symmetry_cell_setting           monoclinic
_symmetry_space_group_name_H-M   'P 21/c'
_symmetry_Int_Tables_number      14
_space_group_name_Hall           '-P 2ybc'
loop_
_symmetry_equiv_pos_site_id
_symmetry_equiv_pos_as_xyz
1 x,y,z
2 -x,1/2+y,1/2-z
3 -x,-y,-z
4 x,1/2-y,1/2+z
_cell_length_a                   9.4209(4)
_cell_length_b                   17.5085(8)
_cell_length_c                   19.1523(7)
_cell_angle_alpha                90
_cell_angle_beta                 98.923(4)
_cell_angle_gamma                90
_cell_volume                     3120.86
_exptl_crystal_colour            colorless
_exptl_crystal_description       block
_cell_formula_units_Z            4
loop_
_atom_site_label
_atom_site_type_symbol
_atom_site_fract_x
_atom_site_fract_y
_atom_site_fract_z
P1 P 0.51937(5) 0.42351(3) 0.28984(2)
Si1 Si 0.43010(6) 0.46340(3) 0.12785(3)
Si2 Si 0.47196(6) 0.34454(3) 0.43099(3)
O1 O 0.33608(15) 0.60459(9) 0.30401(8)
O2 O 0.09110(14) 0.50825(8) 0.32405(7)
C1 C 0.6240(2) 0.49100(17) 0.14029(12)
H1 H 0.6420 0.5295 0.1763
H2 H 0.6473 0.5107 0.0967
H3 H 0.6823 0.4470 0.1543
C2 C 0.3904(2) 0.42335(11) 0.21284(9)
C3 C 0.3252(3) 0.55093(13) 0.09841(12)
H4 H 0.3289 0.5857 0.1374
H5 H 0.2272 0.5373 0.0817
H6 H 0.3657 0.5749 0.0609
C4 C 0.26820(19) 0.38000(11) 0.22341(9)
C5 C 0.3947(3) 0.39195(14) 0.05510(11)
H7 H 0.4316 0.4107 0.0143
H8 H 0.2931 0.3837 0.0433
H9 H 0.4413 0.3447 0.0702
C6 C 0.2798(2) 0.34833(11) 0.29225(9)
C7 C 0.5655(3) 0.25013(14) 0.44030(12)
H10 H 0.4962 0.2099 0.4299
H11 H 0.6146 0.2444 0.4878
H12 H 0.6337 0.2475 0.4080
C8 C 0.4082(2) 0.36883(11) 0.33688(9)
C9 C 0.3268(2) 0.34433(14) 0.48716(11)
H13 H 0.2500 0.3116 0.4663
H14 H 0.2911 0.3953 0.4906
H15 H 0.3647 0.3259 0.5335
C10 C 0.1461(2) 0.36556(12) 0.16584(9)
C11 C 0.0608(2) 0.42484(14) 0.13462(10)
H16 H 0.0770 0.4742 0.1520
C12 C -0.0479(2) 0.41215(17) 0.07827(12)
H17 H -0.1031 0.4528 0.0580
C13 C -0.0739(3) 0.3398(2) 0.05262(12)
H18 H -0.1469 0.3312 0.0149
C14 C 0.0079(3) 0.27995(17) 0.08258(13)
H19 H -0.0099 0.2308 0.0649
C15 C 0.1174(3) 0.29215(14) 0.13931(11)
H20 H 0.1716 0.2511 0.1595
C16 C 0.1674(2) 0.29800(11) 0.31464(9)
C17 C 0.0252(2) 0.32139(13) 0.30990(11)
H21 H -0.0019 0.3685 0.2896
C18 C -0.0768(3) 0.27631(16) 0.33460(12)
H22 H -0.1712 0.2932 0.3312
C19 C -0.0382(3) 0.20642(17) 0.36418(13)
H23 H -0.1061 0.1765 0.3818
C20 C 0.1013(3) 0.18055(15) 0.36780(12)
H24 H 0.1269 0.1328 0.3870
C21 C 0.2033(3) 0.22619(13) 0.34256(11)
H25 H 0.2968 0.2083 0.3445
C22 C 0.4741(3) 0.63423(15) 0.29320(16)
H26 H 0.5028 0.6123 0.2511
H27 H 0.5468 0.6224 0.3334
C23 C 0.4558(3) 0.71612(16) 0.28543(18)
H28 H 0.4248 0.7297 0.2363
H29 H 0.5450 0.7425 0.3024
C24 C 0.3434(3) 0.73605(14) 0.32914(14)
H30 H 0.2887 0.7803 0.3102
H31 H 0.3858 0.7463 0.3777
C25 C 0.2514(3) 0.66647(13) 0.32437(13)
H32 H 0.2218 0.6558 0.3697
H33 H 0.1661 0.6737 0.2895
C26 C -0.0377(3) 0.53578(15) 0.28159(14)
H34 H -0.0881 0.4945 0.2546
H35 H -0.0154 0.5750 0.2491
C27 C -0.1263(3) 0.5678(2) 0.3326(2)
H36 H -0.0981 0.6197 0.3461
H37 H -0.2279 0.5666 0.3137
C28 C -0.0910(7) 0.5150(8) 0.3912(4)
H38 H -0.1470 0.4685 0.3828
H39 H -0.1103 0.5379 0.4349
C29 C 0.0642(3) 0.49858(16) 0.39505(12)
H40 H 0.1214 0.5339 0.4268
H41 H 0.0861 0.4468 0.4114
C30 C 0.6111(3) 0.41562(16) 0.46801(12)
H42 H 0.6312 0.4102 0.5185
H43 H 0.5763 0.4663 0.4563
H44 H 0.6974 0.4070 0.4483
Li1 Li 0.2829(4) 0.4944(2) 0.29773(18)
H45? H -0.2209 0.5446 0.3251
H46? H -0.1375 0.6225 0.3256
H47? H 0.1514 0.5087 0.4278
H48? H 0.0353 0.4463 0.4020
C31? C -0.0495(19) 0.5509(8) 0.4091(8)
H49? H -0.0101 0.5970 0.4326
H50? H -0.1139 0.5267 0.4373
loop_
_geom_bond_atom_site_label_1
_geom_bond_atom_site_label_2
_geom_bond_site_symmetry_1
_geom_bond_site_symmetry_2
P1 C2 1_555 1_555
Si1 C1 1_555 1_555
Si2 C7 1_555 1_555
O1 C22 1_555 1_555
O2 C26 1_555 1_555
C1 H1 1_555 1_555
H2 C1 1_555 1_555
H3 C1 1_555 1_555
C2 Si1 1_555 1_555
C3 Si1 1_555 1_555
H4 C3 1_555 1_555
H5 C3 1_555 1_555
H6 C3 1_555 1_555
C4 C2 1_555 1_555
C5 Si1 1_555 1_555
H7 C5 1_555 1_555
H8 C5 1_555 1_555
H9 C5 1_555 1_555
C6 C4 1_555 1_555
C7 H10 1_555 1_555
H11 C7 1_555 1_555
H12 C7 1_555 1_555
C8 P1 1_555 1_555
C9 Si2 1_555 1_555
H13 C9 1_555 1_555
H14 C9 1_555 1_555
H15 C9 1_555 1_555
C10 C4 1_555 1_555
C11 C10 1_555 1_555
H16 C11 1_555 1_555
C12 C11 1_555 1_555
H17 C12 1_555 1_555
C13 C12 1_555 1_555
H18 C13 1_555 1_555
C14 C13 1_555 1_555
H19 C14 1_555 1_555
C15 C10 1_555 1_555
H20 C15 1_555 1_555
C16 C6 1_555 1_555
C17 C16 1_555 1_555
H21 C17 1_555 1_555
C18 C17 1_555 1_555
H22 C18 1_555 1_555
C19 C18 1_555 1_555
H23 C19 1_555 1_555
C20 C19 1_555 1_555
H24 C20 1_555 1_555
C21 C16 1_555 1_555
H25 C21 1_555 1_555
C22 H26 1_555 1_555
H27 C22 1_555 1_555
C23 C22 1_555 1_555
H28 C23 1_555 1_555
H29 C23 1_555 1_555
C24 C23 1_555 1_555
H30 C24 1_555 1_555
H31 C24 1_555 1_555
C25 O1 1_555 1_555
H32 C25 1_555 1_555
H33 C25 1_555 1_555
C26 H34 1_555 1_555
H35 C26 1_555 1_555
C27 C26 1_555 1_555
H36 C27 1_555 1_555
H37 C27 1_555 1_555
C28 C27 1_555 1_555
H38 C28 1_555 1_555
H39 C28 1_555 1_555
C29 O2 1_555 1_555
H40 C29 1_555 1_555
H41 C29 1_555 1_555
C30 Si2 1_555 1_555
H42 C30 1_555 1_555
H43 C30 1_555 1_555
H44 C30 1_555 1_555
Li1 P1 1_555 1_555
Si2 C8 1_555 1_555
O1 Li1 1_555 1_555
O2 Li1 1_555 1_555
C2 Li1 1_555 1_555
C4 Li1 1_555 1_555
C6 C8 1_555 1_555
C6 Li1 1_555 1_555
C8 Li1 1_555 1_555
C14 C15 1_555 1_555
C20 C21 1_555 1_555
C24 C25 1_555 1_555
C28 C29 1_555 1_555

#END
