
#######################################################################
#
#                 Cambridge Crystallographic Data Centre
#                                CCDC 
#
#######################################################################
#
# If this CIF has been generated from an entry in the Cambridge 
# Structural Database, then it will include bibliographic, chemical, 
# crystal, experimental, refinement or atomic coordinate data resulting 
# from the CCDC's data processing and validation procedures.
#
#######################################################################

data_UREVAQ
_chemical_formula_moiety         'C25 H22 O1'
_chemical_name_systematic        
10,11-diphenyltricyclo[6.2.2.0^2,7^]dodeca-2,4,6-triene-1-carbaldehyde
_symmetry_cell_setting           monoclinic
_symmetry_space_group_name_H-M   'P 21/c'
_symmetry_Int_Tables_number      14
_space_group_name_Hall           '-P 2ybc'
loop_
_symmetry_equiv_pos_site_id
_symmetry_equiv_pos_as_xyz
1 x,y,z
2 -x,1/2+y,1/2-z
3 -x,-y,-z
4 x,1/2-y,1/2+z
_cell_length_a                   7.8993(7)
_cell_length_b                   15.7204(14)
_cell_length_c                   14.1360(12)
_cell_angle_alpha                90
_cell_angle_beta                 96.459(2)
_cell_angle_gamma                90
_cell_volume                     1744.27
_exptl_crystal_colour            colorless
_exptl_crystal_description       prismatic
_cell_formula_units_Z            4
loop_
_atom_site_label
_atom_site_type_symbol
_atom_site_fract_x
_atom_site_fract_y
_atom_site_fract_z
O1 O 1.14721(13) 0.07178(7) 0.85672(8)
C1 C 1.05814(17) 0.13279(8) 0.85161(9)
H1 H 1.1003 0.1833 0.8257
C2 C 0.88227(16) 0.13532(8) 0.88354(9)
C3 C 0.90564(16) 0.12974(8) 0.99611(9)
H2 H 0.9613 0.0739 1.0133
C4 C 0.72748(17) 0.12765(9) 1.03219(9)
H3 H 0.7138 0.0739 1.0670
H4 H 0.7172 0.1755 1.0767
C5 C 0.58729(16) 0.13453(8) 0.94788(9)
H5 H 0.4722 0.1370 0.9709
C6 C 0.60147(17) 0.05692(9) 0.88387(10)
H6 H 0.5135 0.0603 0.8283
H7 H 0.5813 0.0044 0.9197
C7 C 0.78101(16) 0.05320(8) 0.84909(9)
H8 H 0.8420 0.0040 0.8822
C8 C 0.77790(16) 0.21382(8) 0.85591(8)
C9 C 0.61973(16) 0.21315(8) 0.89232(9)
C10 C 0.51124(17) 0.28211(9) 0.87785(9)
H9 H 0.4040 0.2814 0.9022
C11 C 0.55914(18) 0.35239(9) 0.82775(10)
H10 H 0.4855 0.4002 0.8187
C12 C 0.71420(18) 0.35280(9) 0.79102(9)
H11 H 0.7464 0.4009 0.7565
C13 C 0.82349(17) 0.28330(8) 0.80412(9)
H12 H 0.9289 0.2835 0.7777
C14 C 1.02134(16) 0.19837(8) 1.04296(8)
C15 C 0.96374(17) 0.28057(9) 1.05680(9)
H13 H 0.8498 0.2953 1.0340
C16 C 1.06935(18) 0.34113(9) 1.10307(10)
H14 H 1.0273 0.3968 1.1122
C17 C 1.23578(18) 0.32114(9) 1.13620(10)
H15 H 1.3081 0.3627 1.1685
C18 C 1.29625(17) 0.24016(9) 1.12193(10)
H16 H 1.4109 0.2261 1.1439
C19 C 1.18998(17) 0.17963(9) 1.07566(9)
H17 H 1.2329 0.1242 1.0660
C20 C 0.77256(16) 0.03599(8) 0.74336(9)
C21 C 0.86137(16) -0.03239(8) 0.71037(9)
H18 H 0.9314 -0.0663 0.7545
C22 C 0.84913(18) -0.05168(9) 0.61418(10)
H19 H 0.9112 -0.0983 0.5928
C23 C 0.74679(18) -0.00321(9) 0.54927(10)
H20 H 0.7378 -0.0165 0.4833
C24 C 0.65750(17) 0.06490(9) 0.58096(10)
H21 H 0.5867 0.0983 0.5366
C25 C 0.67092(16) 0.08455(8) 0.67675(9)
H22 H 0.6100 0.1318 0.6975
loop_
_geom_bond_atom_site_label_1
_geom_bond_atom_site_label_2
_geom_bond_site_symmetry_1
_geom_bond_site_symmetry_2
O1 C1 1_555 1_555
C1 H1 1_555 1_555
C2 C1 1_555 1_555
C3 C2 1_555 1_555
H2 C3 1_555 1_555
C4 C3 1_555 1_555
H3 C4 1_555 1_555
H4 C4 1_555 1_555
C5 C4 1_555 1_555
H5 C5 1_555 1_555
C6 C5 1_555 1_555
H6 C6 1_555 1_555
H7 C6 1_555 1_555
C7 C2 1_555 1_555
H8 C7 1_555 1_555
C8 C2 1_555 1_555
C9 C5 1_555 1_555
C10 C9 1_555 1_555
H9 C10 1_555 1_555
C11 C10 1_555 1_555
H10 C11 1_555 1_555
C12 C11 1_555 1_555
H11 C12 1_555 1_555
C13 C8 1_555 1_555
H12 C13 1_555 1_555
C14 C3 1_555 1_555
C15 C14 1_555 1_555
H13 C15 1_555 1_555
C16 C15 1_555 1_555
H14 C16 1_555 1_555
C17 C16 1_555 1_555
H15 C17 1_555 1_555
C18 C17 1_555 1_555
H16 C18 1_555 1_555
C19 C14 1_555 1_555
H17 C19 1_555 1_555
C20 C7 1_555 1_555
C21 C20 1_555 1_555
H18 C21 1_555 1_555
C22 C21 1_555 1_555
H19 C22 1_555 1_555
C23 C22 1_555 1_555
H20 C23 1_555 1_555
C24 C23 1_555 1_555
H21 C24 1_555 1_555
C25 C20 1_555 1_555
H22 C25 1_555 1_555
C6 C7 1_555 1_555
C8 C9 1_555 1_555
C12 C13 1_555 1_555
C18 C19 1_555 1_555
C24 C25 1_555 1_555

#END
