
#######################################################################
#
#                 Cambridge Crystallographic Data Centre
#                                CCDC 
#
#######################################################################
#
# If this CIF has been generated from an entry in the Cambridge 
# Structural Database, then it will include bibliographic, chemical, 
# crystal, experimental, refinement or atomic coordinate data resulting 
# from the CCDC's data processing and validation procedures.
#
#######################################################################

data_UREWEU
_chemical_formula_moiety         'C23 H24 O6'
_chemical_name_systematic        
(E)-1-(5-Hydroxy-2,2-dimethyl-2H-chromen-6-yl)-3-(3,4,5-trimethoxyphenyl)prop-2-en-1-one
_symmetry_cell_setting           triclinic
_symmetry_space_group_name_H-M   'P -1'
_symmetry_Int_Tables_number      2
_space_group_name_Hall           '-P 1'
loop_
_symmetry_equiv_pos_site_id
_symmetry_equiv_pos_as_xyz
1 x,y,z
2 -x,-y,-z
_cell_length_a                   9.9470(9)
_cell_length_b                   13.9419(13)
_cell_length_c                   16.1187(11)
_cell_angle_alpha                72.681(7)
_cell_angle_beta                 89.487(7)
_cell_angle_gamma                73.173(8)
_cell_volume                     2035.32
_exptl_crystal_colour            yellow
_exptl_crystal_description       block
_cell_formula_units_Z            4
loop_
_atom_site_label
_atom_site_type_symbol
_atom_site_fract_x
_atom_site_fract_y
_atom_site_fract_z
O1 O 0.95861(16) 0.58077(12) 0.27494(11)
O2 O 0.9670(2) 0.38689(15) 0.07853(14)
H1 H 0.905(3) 0.386(2) 0.038(2)
O3 O 0.75683(19) 0.44108(14) -0.02863(12)
O4 O 0.27493(17) 0.69344(13) -0.41625(10)
O5 O 0.11331(19) 0.87351(13) -0.39207(11)
O6 O 0.11793(16) 0.90604(13) -0.23882(11)
C1 C 1.0710(2) 0.49482(18) 0.33362(15)
C2 C 1.1603(2) 0.4292(2) 0.28400(17)
H3 H 1.2543 0.3938 0.3040
C3 C 1.1095(2) 0.4202(2) 0.21254(18)
H4 H 1.1655 0.3751 0.1848
C4 C 0.9655(2) 0.48070(17) 0.17680(15)
C5 C 0.8962(2) 0.56160(17) 0.20991(15)
C6 C 0.7635(2) 0.62990(19) 0.17363(16)
H5 H 0.7182 0.6840 0.1960
C7 C 0.7014(2) 0.61607(18) 0.10495(15)
H6 H 0.6133 0.6623 0.0807
C8 C 0.7642(2) 0.53521(17) 0.06891(14)
C9 C 0.8980(2) 0.46652(17) 0.10828(15)
C10 C 1.1532(3) 0.5489(2) 0.37303(18)
H7 H 1.0909 0.5933 0.4016
H8 H 1.1943 0.5909 0.3278
H9 H 1.2265 0.4968 0.4147
C11 C 1.0012(3) 0.4300(2) 0.40235(19)
H10 H 0.9375 0.4750 0.4298
H11 H 1.0718 0.3771 0.4453
H12 H 0.9499 0.3968 0.3756
C12 C 0.7010(2) 0.52044(18) -0.00538(15)
C13 C 0.5738(2) 0.59855(17) -0.05740(15)
H13 H 0.5242 0.6542 -0.0379
C14 C 0.5293(2) 0.59073(17) -0.13112(16)
H14 H 0.5809 0.5311 -0.1449
C15 C 0.4117(2) 0.66076(17) -0.19463(15)
C16 C 0.3968(2) 0.63920(17) -0.27196(15)
H15 H 0.4568 0.5784 -0.2801
C17 C 0.2941(2) 0.70666(17) -0.33708(14)
C18 C 0.2040(2) 0.79777(17) -0.32491(15)
C19 C 0.2145(2) 0.81708(17) -0.24562(15)
C20 C 0.3182(2) 0.74967(17) -0.18115(15)
H16 H 0.3255 0.7636 -0.1287
C21 C 0.3577(3) 0.5985(2) -0.42989(18)
H17 H 0.3319 0.5979 -0.4869
H18 H 0.3415 0.5394 -0.3867
H19 H 0.4557 0.5939 -0.4252
C22 C -0.0125(3) 0.8552(3) -0.4090(3)
H20 H -0.0726 0.9165 -0.4517
H21 H -0.0587 0.8406 -0.3562
H22 H 0.0070 0.7961 -0.4309
C23 C 0.1245(3) 0.9282(2) -0.15864(17)
H23 H 0.0571 0.9950 -0.1630
H24 H 0.2175 0.9306 -0.1462
H25 H 0.1034 0.8740 -0.1126
O7 O 0.14385(15) 0.83524(12) 0.20823(10)
O8 O 0.58354(16) 0.66635(13) 0.37529(12)
H2 H 0.630(3) 0.670(2) 0.427(2)
O9 O 0.62958(17) 0.72834(13) 0.50207(11)
O10 O 0.67922(18) 0.92060(15) 0.87490(12)
O11 O 0.45780(18) 1.09188(13) 0.84452(11)
O12 O 0.25878(18) 1.14008(14) 0.71618(12)
C24 C 0.1940(2) 0.79416(17) 0.13636(14)
C25 C 0.3172(2) 0.69796(19) 0.16716(15)
H26 H 0.3355 0.6491 0.1366
C26 C 0.4013(2) 0.67979(18) 0.23656(15)
H27 H 0.4816 0.6216 0.2517
C27 C 0.3689(2) 0.75053(15) 0.28944(13)
C28 C 0.2387(2) 0.82697(16) 0.27187(13)
C29 C 0.1963(2) 0.89413(18) 0.32266(15)
H28 H 0.1085 0.9449 0.3104
C30 C 0.2853(2) 0.88433(17) 0.39039(14)
H29 H 0.2563 0.9290 0.4242
C31 C 0.4182(2) 0.80980(16) 0.41102(13)
C32 C 0.4584(2) 0.74255(16) 0.35879(14)
C33 C 0.0677(2) 0.7725(2) 0.10253(17)
H30 H 0.0915 0.7470 0.0535
H31 H -0.0097 0.8363 0.0848
H32 H 0.0412 0.7204 0.1478
C34 C 0.2363(3) 0.8798(2) 0.06837(16)
H33 H 0.2732 0.8542 0.0212
H34 H 0.3071 0.8988 0.0944
H35 H 0.1553 0.9404 0.0466
C35 C 0.5126(2) 0.79805(17) 0.48459(14)
C36 C 0.4706(2) 0.86664(17) 0.53995(14)
H36 H 0.3858 0.9207 0.5248
C37 C 0.5486(2) 0.85463(17) 0.61035(14)
H37 H 0.6340 0.8013 0.6219
C38 C 0.5175(2) 0.91464(16) 0.67238(14)
C39 C 0.6137(2) 0.88655(17) 0.74345(15)
H38 H 0.6944 0.8295 0.7514
C40 C 0.5909(2) 0.94278(18) 0.80282(15)
C41 C 0.4718(2) 1.02935(18) 0.78994(15)
C42 C 0.3737(2) 1.05527(18) 0.72055(15)
C43 C 0.3958(2) 0.99901(17) 0.66142(14)
H39 H 0.3297 1.0175 0.6145
C44 C 0.7986(3) 0.8291(2) 0.8931(2)
H40 H 0.8589 0.8370 0.8463
H41 H 0.7677 0.7684 0.8987
H42 H 0.8495 0.8201 0.9466
C45 C 0.3649(3) 1.0768(3) 0.9084(2)
H43 H 0.2702 1.1024 0.8816
H44 H 0.3733 1.1144 0.9482
H45 H 0.3869 1.0030 0.9395
C46 C 0.1505(3) 1.1689(2) 0.6485(2)
H46 H 0.1876 1.1887 0.5929
H47 H 0.0748 1.2273 0.6539
H48 H 0.1158 1.1102 0.6531
loop_
_geom_bond_atom_site_label_1
_geom_bond_atom_site_label_2
_geom_bond_site_symmetry_1
_geom_bond_site_symmetry_2
O1 C1 1_555 1_555
O2 H1 1_555 1_555
O3 C12 1_555 1_555
O4 C17 1_555 1_555
O5 C18 1_555 1_555
O6 C19 1_555 1_555
O7 C24 1_555 1_555
O8 H2 1_555 1_555
O9 C35 1_555 1_555
O10 C40 1_555 1_555
O11 C41 1_555 1_555
O12 C42 1_555 1_555
C1 C2 1_555 1_555
C2 H3 1_555 1_555
C3 C2 1_555 1_555
H4 C3 1_555 1_555
C4 C3 1_555 1_555
C5 O1 1_555 1_555
C6 C5 1_555 1_555
H5 C6 1_555 1_555
C7 C6 1_555 1_555
H6 C7 1_555 1_555
C8 C7 1_555 1_555
C9 O2 1_555 1_555
C10 C1 1_555 1_555
H7 C10 1_555 1_555
H8 C10 1_555 1_555
H9 C10 1_555 1_555
C11 C1 1_555 1_555
H10 C11 1_555 1_555
H11 C11 1_555 1_555
H12 C11 1_555 1_555
C12 C8 1_555 1_555
C13 C12 1_555 1_555
H13 C13 1_555 1_555
C14 C13 1_555 1_555
H14 C14 1_555 1_555
C15 C14 1_555 1_555
C16 C15 1_555 1_555
H15 C16 1_555 1_555
C17 C16 1_555 1_555
C18 C17 1_555 1_555
C19 C18 1_555 1_555
C20 C15 1_555 1_555
H16 C20 1_555 1_555
C21 O4 1_555 1_555
H17 C21 1_555 1_555
H18 C21 1_555 1_555
H19 C21 1_555 1_555
C22 O5 1_555 1_555
H20 C22 1_555 1_555
H21 C22 1_555 1_555
H22 C22 1_555 1_555
C23 O6 1_555 1_555
H23 C23 1_555 1_555
H24 C23 1_555 1_555
H25 C23 1_555 1_555
C24 C25 1_555 1_555
C25 H26 1_555 1_555
C26 C25 1_555 1_555
H27 C26 1_555 1_555
C27 C26 1_555 1_555
C28 O7 1_555 1_555
C29 C28 1_555 1_555
H28 C29 1_555 1_555
C30 C29 1_555 1_555
H29 C30 1_555 1_555
C31 C30 1_555 1_555
C32 O8 1_555 1_555
C33 C24 1_555 1_555
H30 C33 1_555 1_555
H31 C33 1_555 1_555
H32 C33 1_555 1_555
C34 C24 1_555 1_555
H33 C34 1_555 1_555
H34 C34 1_555 1_555
H35 C34 1_555 1_555
C35 C31 1_555 1_555
C36 C35 1_555 1_555
H36 C36 1_555 1_555
C37 C36 1_555 1_555
H37 C37 1_555 1_555
C38 C37 1_555 1_555
C39 C38 1_555 1_555
H38 C39 1_555 1_555
C40 C39 1_555 1_555
C41 C40 1_555 1_555
C42 C41 1_555 1_555
C43 C38 1_555 1_555
H39 C43 1_555 1_555
C44 O10 1_555 1_555
H40 C44 1_555 1_555
H41 C44 1_555 1_555
H42 C44 1_555 1_555
C45 O11 1_555 1_555
H43 C45 1_555 1_555
H44 C45 1_555 1_555
H45 C45 1_555 1_555
C46 O12 1_555 1_555
H46 C46 1_555 1_555
H47 C46 1_555 1_555
H48 C46 1_555 1_555
C4 C5 1_555 1_555
C4 C9 1_555 1_555
C8 C9 1_555 1_555
C19 C20 1_555 1_555
C27 C28 1_555 1_555
C27 C32 1_555 1_555
C31 C32 1_555 1_555
C42 C43 1_555 1_555

#END
