
#######################################################################
#
#                 Cambridge Crystallographic Data Centre
#                                CCDC 
#
#######################################################################
#
# If this CIF has been generated from an entry in the Cambridge 
# Structural Database, then it will include bibliographic, chemical, 
# crystal, experimental, refinement or atomic coordinate data resulting 
# from the CCDC's data processing and validation procedures.
#
#######################################################################

data_UREXUM
_chemical_formula_moiety         'C24 H20 O3'
_chemical_name_systematic        
'methyl 1-(4-methoxyphenyl)-2-phenyl-1H-indene-1-carboxylate'
_symmetry_cell_setting           monoclinic
_symmetry_space_group_name_H-M   'P 21/c'
_symmetry_Int_Tables_number      14
_space_group_name_Hall           '-P 2ybc'
loop_
_symmetry_equiv_pos_site_id
_symmetry_equiv_pos_as_xyz
1 x,y,z
2 -x,1/2+y,1/2-z
3 -x,-y,-z
4 x,1/2-y,1/2+z
_cell_length_a                   11.8870(4)
_cell_length_b                   10.4572(4)
_cell_length_c                   14.8193(5)
_cell_angle_alpha                90
_cell_angle_beta                 100.3600(10)
_cell_angle_gamma                90
_cell_volume                     1812.08
_exptl_crystal_colour            colorless
_exptl_crystal_description       block
_cell_formula_units_Z            4
loop_
_atom_site_label
_atom_site_type_symbol
_atom_site_fract_x
_atom_site_fract_y
_atom_site_fract_z
O1 O 0.20957(18) 0.2757(2) -0.33467(14)
O2 O 0.0597(2) 0.1484(2) -0.33255(14)
O3 O 0.36706(19) 0.6366(2) 0.01399(15)
C1 C 0.1557(3) 0.2128(3) -0.1868(2)
C2 C 0.0334(3) 0.2136(3) -0.1635(2)
C3 C -0.0437(3) 0.3079(4) -0.1738(2)
H1 H -0.0270 0.3885 -0.1978
C4 C -0.1473(3) 0.2852(4) -0.1490(2)
H2 H -0.2026 0.3518 -0.1570
C5 C -0.1751(3) 0.1709(4) -0.1132(2)
H3 H -0.2480 0.1588 -0.0966
C6 C -0.0924(3) 0.0703(3) -0.1013(2)
H4 H -0.1078 -0.0102 -0.0764
C7 C 0.0143(3) 0.0969(3) -0.1286(2)
C8 C 0.1141(3) 0.0150(3) -0.1241(2)
H5 H 0.1198 -0.0709 -0.1028
C9 C 0.1957(3) 0.0790(3) -0.1543(2)
C10 C 0.3152(3) 0.0289(3) -0.1566(2)
C11 C 0.3542(3) -0.0836(3) -0.1151(3)
H6 H 0.3042 -0.1320 -0.0850
C12 C 0.4587(4) -0.1280(4) -0.1152(3)
H7 H 0.4816 -0.2068 -0.0855
C13 C 0.5337(3) -0.0621(4) -0.1572(3)
H8 H 0.6080 -0.0958 -0.1569
C14 C 0.5033(3) 0.0519(3) -0.2000(2)
H9 H 0.5558 0.0975 -0.2292
C15 C 0.3915(3) 0.1011(3) -0.1998(2)
H10 H 0.3686 0.1808 -0.2281
C16 C 0.2261(2) 0.3216(3) -0.1365(2)
C17 C 0.2828(2) 0.3046(3) -0.0468(2)
H11 H 0.2893 0.2210 -0.0213
C18 C 0.3300(2) 0.4069(3) 0.0061(2)
H12 H 0.3677 0.3936 0.0675
C19 C 0.3220(2) 0.5291(3) -0.0313(2)
C20 C 0.2660(3) 0.5467(3) -0.1208(2)
H13 H 0.2599 0.6301 -0.1465
C21 C 0.2191(3) 0.4448(3) -0.1725(2)
H14 H 0.1813 0.4585 -0.2339
C22 C 0.1485(3) 0.2179(3) -0.2926(2)
C23 C 0.0365(3) 0.1476(3) -0.4312(2)
H15 H -0.0302 0.0934 -0.4529
H16 H 0.1030 0.1139 -0.4540
H17 H 0.0207 0.2350 -0.4539
C24 C 0.4308(3) 0.6204(3) 0.1041(2)
H18 H 0.4580 0.7039 0.1291
H19 H 0.4965 0.5646 0.1019
H20 H 0.3820 0.5817 0.1433
loop_
_geom_bond_atom_site_label_1
_geom_bond_atom_site_label_2
_geom_bond_site_symmetry_1
_geom_bond_site_symmetry_2
O1 C22 1_555 1_555
O2 C22 1_555 1_555
O3 C19 1_555 1_555
C1 C2 1_555 1_555
C2 C3 1_555 1_555
C3 H1 1_555 1_555
C4 C3 1_555 1_555
H2 C4 1_555 1_555
C5 C4 1_555 1_555
H3 C5 1_555 1_555
C6 C5 1_555 1_555
H4 C6 1_555 1_555
C7 C2 1_555 1_555
C8 C7 1_555 1_555
H5 C8 1_555 1_555
C9 C1 1_555 1_555
C10 C9 1_555 1_555
C11 C10 1_555 1_555
H6 C11 1_555 1_555
C12 C11 1_555 1_555
H7 C12 1_555 1_555
C13 C12 1_555 1_555
H8 C13 1_555 1_555
C14 C13 1_555 1_555
H9 C14 1_555 1_555
C15 C10 1_555 1_555
H10 C15 1_555 1_555
C16 C1 1_555 1_555
C17 C16 1_555 1_555
H11 C17 1_555 1_555
C18 C17 1_555 1_555
H12 C18 1_555 1_555
C19 C18 1_555 1_555
C20 C19 1_555 1_555
H13 C20 1_555 1_555
C21 C16 1_555 1_555
H14 C21 1_555 1_555
C22 C1 1_555 1_555
C23 O2 1_555 1_555
H15 C23 1_555 1_555
H16 C23 1_555 1_555
H17 C23 1_555 1_555
C24 O3 1_555 1_555
H18 C24 1_555 1_555
H19 C24 1_555 1_555
H20 C24 1_555 1_555
C6 C7 1_555 1_555
C8 C9 1_555 1_555
C14 C15 1_555 1_555
C20 C21 1_555 1_555

#END
