
#######################################################################
#
#                 Cambridge Crystallographic Data Centre
#                                CCDC 
#
#######################################################################
#
# If this CIF has been generated from an entry in the Cambridge 
# Structural Database, then it will include bibliographic, chemical, 
# crystal, experimental, refinement or atomic coordinate data resulting 
# from the CCDC's data processing and validation procedures.
#
#######################################################################

data_URIBAZ
_chemical_formula_moiety         'C9 H9 N5 S1'
_chemical_name_systematic        
4-(Methylsulfanyl)-6-(pyridin-4-yl)-1,3,5-triazin-2-amine
_symmetry_cell_setting           orthorhombic
_symmetry_space_group_name_H-M   'P 21 21 21'
_symmetry_Int_Tables_number      19
_space_group_name_Hall           'P 2ac 2ab'
loop_
_symmetry_equiv_pos_site_id
_symmetry_equiv_pos_as_xyz
1 x,y,z
2 1/2-x,-y,1/2+z
3 -x,1/2+y,1/2-z
4 1/2+x,1/2-y,-z
_cell_length_a                   3.9002(11)
_cell_length_b                   10.111(3)
_cell_length_c                   25.143(7)
_cell_angle_alpha                90
_cell_angle_beta                 90
_cell_angle_gamma                90
_cell_volume                     991.512
_exptl_crystal_colour            colorless
_exptl_crystal_description       prism
_cell_formula_units_Z            4
loop_
_atom_site_label
_atom_site_type_symbol
_atom_site_fract_x
_atom_site_fract_y
_atom_site_fract_z
N1 N 1.1007(9) 0.9098(3) 0.16248(11)
N2 N 1.0449(9) 1.1369(3) 0.13727(11)
N3 N 0.8318(10) 0.9659(3) 0.08066(11)
N4 N 0.7949(11) 1.1828(3) 0.05641(13)
H1 H 0.8298 1.2657 0.0620
H2 H 0.6971 1.1574 0.0275
N5 N 0.8411(12) 0.4703(3) 0.07660(13)
S1 S 1.3341(3) 1.07833(10) 0.23066(4)
C1 C 1.1382(10) 1.0410(4) 0.17022(13)
C2 C 0.8925(11) 1.0938(4) 0.09250(14)
C3 C 0.9465(10) 0.8803(3) 0.11698(14)
C4 C 1.3782(12) 1.2539(4) 0.22817(16)
H3 H 1.4850 1.2846 0.2603
H4 H 1.1559 1.2938 0.2247
H5 H 1.5175 1.2779 0.1982
C5 C 0.9850(14) 0.5082(4) 0.12212(17)
H6 H 1.0671 0.4430 0.1449
C6 C 1.0198(13) 0.6385(4) 0.13752(15)
H7 H 1.1208 0.6594 0.1699
C7 C 0.9028(10) 0.7375(3) 0.10425(13)
C8 C 0.7467(11) 0.6986(4) 0.05768(15)
H8 H 0.6563 0.7616 0.0346
C9 C 0.7248(12) 0.5655(4) 0.04524(16)
H9 H 0.6230 0.5417 0.0132
loop_
_geom_bond_atom_site_label_1
_geom_bond_atom_site_label_2
_geom_bond_site_symmetry_1
_geom_bond_site_symmetry_2
N1 C1 1_555 1_555
N2 C1 1_555 1_555
N3 C2 1_555 1_555
N4 H1 1_555 1_555
H2 N4 1_555 1_555
N5 C5 1_555 1_555
S1 C1 1_555 1_555
C2 N2 1_555 1_555
C3 N1 1_555 1_555
C4 S1 1_555 1_555
H3 C4 1_555 1_555
H4 C4 1_555 1_555
H5 C4 1_555 1_555
C5 H6 1_555 1_555
C6 C5 1_555 1_555
H7 C6 1_555 1_555
C7 C3 1_555 1_555
C8 C7 1_555 1_555
H8 C8 1_555 1_555
C9 N5 1_555 1_555
H9 C9 1_555 1_555
N3 C3 1_555 1_555
N4 C2 1_555 1_555
C6 C7 1_555 1_555
C8 C9 1_555 1_555

#END
