
#######################################################################
#
#                 Cambridge Crystallographic Data Centre
#                                CCDC 
#
#######################################################################
#
# If this CIF has been generated from an entry in the Cambridge 
# Structural Database, then it will include bibliographic, chemical, 
# crystal, experimental, refinement or atomic coordinate data resulting 
# from the CCDC's data processing and validation procedures.
#
#######################################################################

data_URIGOS
_chemical_formula_moiety         'C16 H14 O7 S1'
_chemical_name_systematic        
'Methyl 5,14-dihydroxy-7-methyl-3-oxo-10,16-dioxa-12-thiatetracyclo[11.2.1.0^2,11^.0^4,9^]hexadeca-2(11),4,6,8-tetraene-13-carboxylate'
_symmetry_cell_setting           tetragonal
_symmetry_space_group_name_H-M   'P 41'
_symmetry_Int_Tables_number      76
_space_group_name_Hall           'P 4w'
loop_
_symmetry_equiv_pos_site_id
_symmetry_equiv_pos_as_xyz
1 x,y,z
2 -x,-y,1/2+z
3 -y,x,1/4+z
4 y,-x,3/4+z
_cell_length_a                   7.1258(5)
_cell_length_b                   7.1258(5)
_cell_length_c                   59.557(5)
_cell_angle_alpha                90
_cell_angle_beta                 90
_cell_angle_gamma                90
_cell_volume                     3024.13
_exptl_crystal_colour            colorless
_exptl_crystal_description       plate
_cell_formula_units_Z            8
loop_
_atom_site_label
_atom_site_type_symbol
_atom_site_fract_x
_atom_site_fract_y
_atom_site_fract_z
S1 S 0.97558(17) 0.84632(18) 0.77408(2)
O1 O 0.4691(5) 1.0615(5) 0.86682(7)
H1 H 0.4130 1.0765 0.8546
O4 O 0.9665(4) 0.8773(4) 0.81639(6)
O5 O 0.4248(5) 1.0616(5) 0.82324(6)
O8 O 0.6935(5) 1.0683(5) 0.76039(6)
O9 O 0.5547(5) 0.7110(5) 0.73273(7)
H3 H 0.6004 0.6110 0.7277
O11 O 0.9703(5) 0.7674(5) 0.72678(6)
O13 O 0.8603(5) 1.0555(5) 0.71910(7)
C1 C 0.6489(6) 0.9986(7) 0.86281(9)
C4 C 0.7660(7) 0.9682(7) 0.88080(9)
H6 H 0.7219 0.9903 0.8956
C5 C 0.9496(7) 0.9049(7) 0.87743(9)
C8 C 1.0145(7) 0.8758(6) 0.85555(10)
H8 H 1.1388 0.8330 0.8529
C9 C 0.8942(7) 0.9104(6) 0.83787(9)
C11 C 0.8537(6) 0.9078(7) 0.79853(9)
C13 C 0.7814(7) 0.9002(6) 0.75412(8)
C15 C 0.6262(7) 0.7445(7) 0.75440(9)
H9 H 0.6740 0.6261 0.7614
C18 C 0.4755(7) 0.8352(8) 0.76898(11)
H13 H 0.4368 0.7496 0.7812
H14 H 0.3638 0.8677 0.7599
C20 C 0.5678(7) 1.0124(7) 0.77851(10)
H16 H 0.4713 1.1118 0.7812
C21 C 0.6759(7) 0.9742(7) 0.79958(9)
C23 C 0.5918(7) 1.0063(6) 0.82106(9)
C25 C 0.7101(7) 0.9703(6) 0.84056(9)
C27 C 1.0816(8) 0.8744(8) 0.89690(10)
H17 H 1.0089 0.8581 0.9107
H18 H 1.1645 0.9834 0.8984
H19 H 1.1573 0.7618 0.8942
C29 C 0.8749(7) 0.9189(7) 0.73114(10)
C31 C 1.0660(9) 0.7581(8) 0.70502(10)
H23 H 1.0456 0.6343 0.6983
H24 H 1.2008 0.7786 0.7072
H25 H 1.0157 0.8553 0.6951
S2 S 0.37487(19) 1.07785(17) 0.67108(2)
O2 O 0.5544(5) 1.5307(5) 0.57330(6)
H2 H 0.5701 1.5959 0.5849
O3 O 0.4007(5) 1.0603(4) 0.62858(6)
O6 O 0.5591(5) 1.6049(4) 0.61648(6)
O7 O 0.3257(5) 1.4452(5) 0.67851(6)
O10 O 0.6855(5) 1.3885(5) 0.71209(6)
H4 H 0.7454 1.2983 0.7177
O12 O 0.3526(6) 1.0905(5) 0.71968(7)
O14 O 0.2557(6) 1.3892(5) 0.72093(6)
C2 C 0.4961(6) 1.3548(7) 0.57929(9)
C3 C 0.4523(7) 1.2281(7) 0.56239(9)
H5 H 0.4624 1.2655 0.5471
C6 C 0.3931(6) 1.0447(7) 0.56762(9)
C7 C 0.3794(6) 0.9920(7) 0.59005(9)
H7 H 0.3423 0.8681 0.5939
C10 C 0.4202(6) 1.1211(6) 0.60661(9)
C12 C 0.4179(6) 1.1878(7) 0.64547(9)
C14 C 0.4145(7) 1.2911(7) 0.68858(9)
C16 C 0.6286(7) 1.3420(7) 0.68987(9)
H10 H 0.7067 1.2370 0.6838
C17 C 0.6431(8) 1.5158(7) 0.67457(10)
H11 H 0.6533 1.6326 0.6835
H12 H 0.7520 1.5065 0.6643
C19 C 0.4583(7) 1.5083(7) 0.66166(8)
H15 H 0.4235 1.6366 0.6563
C22 C 0.4589(7) 1.3721(7) 0.64224(9)
C24 C 0.5042(6) 1.4386(6) 0.62009(9)
C26 C 0.4756(6) 1.3050(7) 0.60171(9)
C28 C 0.3497(8) 0.9104(8) 0.54907(9)
H20 H 0.2624 0.8143 0.5545
H21 H 0.4658 0.8503 0.5440
H22 H 0.2923 0.9784 0.5365
C30 C 0.3337(7) 1.2436(7) 0.71151(10)
C32 C 0.1948(10) 1.3688(9) 0.74404(10)
H26 H 0.1448 1.4887 0.7495
H27 H 0.3016 1.3312 0.7534
H28 H 0.0967 1.2726 0.7449
loop_
_geom_bond_atom_site_label_1
_geom_bond_atom_site_label_2
_geom_bond_site_symmetry_1
_geom_bond_site_symmetry_2
S1 C11 1_555 1_555
S2 C12 1_555 1_555
O1 H1 1_555 1_555
O2 H2 1_555 1_555
O3 C10 1_555 1_555
O4 C9 1_555 1_555
O5 C23 1_555 1_555
O6 C24 1_555 1_555
O7 C14 1_555 1_555
O8 C13 1_555 1_555
O9 H3 1_555 1_555
O10 H4 1_555 1_555
O11 C29 1_555 1_555
O12 C30 1_555 1_555
O13 C29 1_555 1_555
O14 C30 1_555 1_555
C1 O1 1_555 1_555
C2 O2 1_555 1_555
C3 C2 1_555 1_555
H5 C3 1_555 1_555
C4 C1 1_555 1_555
H6 C4 1_555 1_555
C5 C4 1_555 1_555
C6 C3 1_555 1_555
C7 C6 1_555 1_555
H7 C7 1_555 1_555
C8 C5 1_555 1_555
H8 C8 1_555 1_555
C9 C8 1_555 1_555
C10 C7 1_555 1_555
C11 O4 1_555 1_555
C12 O3 1_555 1_555
C13 S1 1_555 1_555
C14 S2 1_555 1_555
C15 O9 1_555 1_555
H9 C15 1_555 1_555
C16 O10 1_555 1_555
H10 C16 1_555 1_555
C17 C16 1_555 1_555
H11 C17 1_555 1_555
H12 C17 1_555 1_555
C18 C15 1_555 1_555
H13 C18 1_555 1_555
H14 C18 1_555 1_555
C19 O7 1_555 1_555
H15 C19 1_555 1_555
C20 O8 1_555 1_555
H16 C20 1_555 1_555
C21 C11 1_555 1_555
C22 C12 1_555 1_555
C23 C21 1_555 1_555
C24 C22 1_555 1_555
C25 C1 1_555 1_555
C26 C2 1_555 1_555
C27 C5 1_555 1_555
H17 C27 1_555 1_555
H18 C27 1_555 1_555
H19 C27 1_555 1_555
C28 C6 1_555 1_555
H20 C28 1_555 1_555
H21 C28 1_555 1_555
H22 C28 1_555 1_555
C29 C13 1_555 1_555
C30 C14 1_555 1_555
C31 O11 1_555 1_555
H23 C31 1_555 1_555
H24 C31 1_555 1_555
H25 C31 1_555 1_555
C32 O14 1_555 1_555
H26 C32 1_555 1_555
H27 C32 1_555 1_555
H28 C32 1_555 1_555
C9 C25 1_555 1_555
C10 C26 1_555 1_555
C13 C15 1_555 1_555
C14 C16 1_555 1_555
C17 C19 1_555 1_555
C18 C20 1_555 1_555
C19 C22 1_555 1_555
C20 C21 1_555 1_555
C23 C25 1_555 1_555
C24 C26 1_555 1_555

#END
