
#######################################################################
#
#                 Cambridge Crystallographic Data Centre
#                                CCDC 
#
#######################################################################
#
# If this CIF has been generated from an entry in the Cambridge 
# Structural Database, then it will include bibliographic, chemical, 
# crystal, experimental, refinement or atomic coordinate data resulting 
# from the CCDC's data processing and validation procedures.
#
#######################################################################

data_URINUG
_chemical_formula_moiety         'C32 H25 N3'
_chemical_name_systematic        
N,N-diphenyl-4-(2-(4-((pyridin-4-ylmethylene)amino)phenyl)vinyl)aniline
_symmetry_cell_setting           triclinic
_symmetry_space_group_name_H-M   'P -1'
_symmetry_Int_Tables_number      2
_space_group_name_Hall           '-P 1'
loop_
_symmetry_equiv_pos_site_id
_symmetry_equiv_pos_as_xyz
1 x,y,z
2 -x,-y,-z
_cell_length_a                   9.7586(12)
_cell_length_b                   15.4226(19)
_cell_length_c                   24.439(3)
_cell_angle_alpha                88.839(2)
_cell_angle_beta                 89.370(2)
_cell_angle_gamma                82.413(2)
_cell_volume                     3645.07
_cell_formula_units_Z            6
loop_
_atom_site_label
_atom_site_type_symbol
_atom_site_fract_x
_atom_site_fract_y
_atom_site_fract_z
N1 N -0.0515(3) -0.01301(17) 0.83537(10)
N2 N 0.4591(3) 0.5026(3) 0.24545(13)
N3 N 0.3093(3) 0.32451(18) 0.40756(10)
C1 C 0.2593(3) 0.29669(19) 0.45910(11)
C2 C 0.1935(3) 0.17597(19) 0.51256(12)
H1 H 0.1816 0.1172 0.5149
C3 C 0.1055(3) 0.1154(2) 0.62642(12)
H2 H 0.1261 0.0731 0.6000
C4 C 0.1650(3) 0.22824(19) 0.55817(11)
C5 C 0.1859(3) 0.31482(19) 0.55232(11)
H3 H 0.1673 0.3514 0.5820
C6 C 0.2387(3) 0.20937(19) 0.46422(12)
H4 H 0.2558 0.1730 0.4343
C7 C 0.1181(3) 0.1961(2) 0.61145(12)
H5 H 0.0945 0.2383 0.6378
C8 C 0.3542(3) 0.4348(2) 0.34200(12)
C9 C -0.0166(3) 0.0201(2) 0.78277(12)
C10 C 0.2329(3) 0.34936(19) 0.50429(12)
H6 H 0.2470 0.4078 0.5022
C11 C 0.2981(3) 0.4030(2) 0.39420(12)
H7 H 0.2525 0.4437 0.4179
C12 C 0.0003(3) 0.1068(2) 0.77552(12)
H8 H -0.0152 0.1445 0.8048
C13 C 0.0623(3) 0.08437(19) 0.68034(11)
C14 C 0.0396(3) 0.1387(2) 0.72557(12)
H9 H 0.0514 0.1974 0.7218
C15 C 0.0508(3) -0.06722(19) 0.86487(12)
C16 C 0.0055(3) -0.0345(2) 0.73863(13)
H10 H -0.0053 -0.0933 0.7427
C17 C -0.1881(3) 0.00959(19) 0.85566(13)
C18 C 0.3377(3) 0.5233(2) 0.33009(13)
H11 H 0.2905 0.5625 0.3543
C19 C 0.0437(3) -0.0020(2) 0.68819(12)
H12 H 0.0571 -0.0397 0.6588
C20 C 0.0163(4) -0.1309(2) 0.90109(13)
H13 H -0.0757 -0.1392 0.9059
C21 C 0.3913(4) 0.5531(3) 0.28226(16)
H14 H 0.3790 0.6131 0.2754
C22 C 0.4237(4) 0.3806(2) 0.30420(14)
H15 H 0.4373 0.3204 0.3102
C23 C 0.1886(4) -0.0575(2) 0.85810(13)
H16 H 0.2134 -0.0147 0.8339
C24 C -0.4313(4) 0.0393(2) 0.83965(18)
H17 H -0.5049 0.0444 0.8154
C25 C 0.2552(5) -0.1716(3) 0.92310(15)
H18 H 0.3234 -0.2060 0.9430
C26 C -0.2133(4) 0.0277(2) 0.91057(13)
H19 H -0.1399 0.0250 0.9348
C27 C -0.2987(4) 0.0158(2) 0.82065(14)
H20 H -0.2836 0.0039 0.7838
C28 C 0.2895(4) -0.1097(2) 0.88646(15)
H21 H 0.3819 -0.1030 0.8807
C29 C -0.3471(4) 0.0498(2) 0.92928(16)
H22 H -0.3633 0.0610 0.9662
C30 C -0.4559(4) 0.0554(2) 0.8941(2)
H23 H -0.5458 0.0699 0.9070
C31 C 0.1183(5) -0.1823(2) 0.93014(15)
H24 H 0.0941 -0.2246 0.9548
C32 C 0.4732(4) 0.4167(3) 0.25726(15)
H25 H 0.5196 0.3789 0.2320
N4 N -0.0392(2) 0.28644(15) 0.87375(9)
N5 N 0.4777(4) 0.81162(19) 0.29156(11)
N6 N 0.3536(3) 0.64825(18) 0.46228(10)
C33 C 0.1234(3) 0.49631(18) 0.65015(12)
H26 H 0.0275 0.5053 0.6532
C34 C 0.1300(3) 0.40771(18) 0.73640(11)
C35 C 0.0158(3) 0.32665(18) 0.82828(11)
C36 C 0.2893(3) 0.61300(19) 0.50841(12)
C37 C 0.3236(3) 0.5347(2) 0.59354(13)
H27 H 0.3847 0.5081 0.6197
C38 C 0.1552(3) 0.30815(19) 0.81475(12)
H28 H 0.2122 0.2678 0.8358
C39 C 0.2799(3) 0.7937(2) 0.34712(13)
H29 H 0.1849 0.8068 0.3521
C40 C 0.1827(3) 0.53661(17) 0.60219(11)
C41 C 0.0537(3) 0.25072(19) 0.91655(11)
C42 C -0.0098(3) 0.42570(18) 0.75067(12)
H30 H -0.0672 0.4652 0.7291
C43 C 0.1895(3) 0.44869(19) 0.68965(11)
H31 H 0.2855 0.4406 0.6871
C44 C -0.0656(3) 0.38718(18) 0.79531(11)
H32 H -0.1589 0.4017 0.8036
C45 C 0.2916(3) 0.7072(2) 0.43382(12)
H33 H 0.2012 0.7294 0.4432
C46 C 0.2098(3) 0.34884(19) 0.77056(11)
H34 H 0.3040 0.3364 0.7633
C47 C 0.3571(3) 0.74400(18) 0.38489(12)
C48 C 0.0983(3) 0.5767(2) 0.56196(13)
H35 H 0.0031 0.5786 0.5662
C49 C -0.1837(3) 0.28548(17) 0.88226(11)
C50 C 0.4968(3) 0.7288(2) 0.37561(13)
H36 H 0.5542 0.6951 0.4003
C51 C -0.2685(3) 0.26701(19) 0.84023(12)
H37 H -0.2305 0.2544 0.8058
C52 C 0.3750(3) 0.5712(2) 0.54725(13)
H38 H 0.4702 0.5674 0.5422
C53 C -0.2420(3) 0.30184(19) 0.93330(12)
H39 H -0.1867 0.3133 0.9624
C54 C 0.3433(4) 0.8249(2) 0.30119(13)
H40 H 0.2876 0.8573 0.2754
C55 C 0.5511(4) 0.7639(3) 0.32944(15)
H41 H 0.6464 0.7534 0.3243
C56 C -0.4078(3) 0.2670(2) 0.84854(14)
H42 H -0.4634 0.2552 0.8197
C57 C 0.2135(3) 0.2710(2) 0.98692(12)
H43 H 0.2599 0.3078 1.0075
C58 C 0.1223(3) 0.3058(2) 0.94712(12)
H44 H 0.1070 0.3660 0.9408
C59 C 0.2361(3) 0.1821(3) 0.99626(13)
H45 H 0.2978 0.1589 1.0232
C60 C 0.1487(3) 0.6141(2) 0.51565(13)
H46 H 0.0880 0.6402 0.4892
C61 C 0.0765(3) 0.1618(2) 0.92638(12)
H47 H 0.0299 0.1247 0.9062
C62 C -0.3821(4) 0.3013(2) 0.94137(14)
H48 H -0.4206 0.3124 0.9759
C63 C 0.1684(4) 0.1278(2) 0.96619(14)
H49 H 0.1842 0.0677 0.9726
C64 C -0.4650(4) 0.2845(2) 0.89919(16)
H50 H -0.5594 0.2850 0.9048
N7 N -0.0081(2) 0.62911(16) 0.84403(9)
N8 N 0.4926(4) 1.14268(19) 0.25389(11)
N9 N 0.3128(3) 0.98935(15) 0.42025(9)
C65 C 0.3000(3) 0.93709(18) 0.46781(11)
C66 C 0.0872(3) 0.73552(17) 0.68885(11)
C67 C 0.2320(3) 0.79807(18) 0.61677(12)
H51 H 0.3089 0.7846 0.6390
C68 C 0.4422(3) 1.03422(18) 0.34306(11)
C69 C 0.1143(3) 0.77409(18) 0.63552(11)
H52 H 0.0398 0.7830 0.6117
C70 C 0.2540(3) 0.84324(17) 0.56510(11)
C71 C -0.0650(3) 0.66426(18) 0.74844(11)
H53 H -0.1463 0.6394 0.7529
C72 C 0.1671(3) 0.92717(19) 0.48512(12)
H54 H 0.0920 0.9522 0.4646
C73 C 0.3854(3) 0.8544(2) 0.54729(12)
H55 H 0.4608 0.8302 0.5680
C74 C 0.0974(3) 0.58199(18) 0.87657(12)
C75 C 0.0238(3) 0.66535(18) 0.79245(11)
C76 C -0.1497(3) 0.6347(2) 0.86075(11)
C77 C 0.1452(3) 0.88095(19) 0.53212(12)
H56 H 0.0550 0.8745 0.5424
C78 C -0.0340(3) 0.69976(18) 0.69818(11)
H57 H -0.0964 0.6996 0.6697
C79 C 0.1762(3) 0.73658(18) 0.73336(12)
H58 H 0.2583 0.7605 0.7286
C80 C 0.4086(3) 0.9002(2) 0.49977(12)
H59 H 0.4987 0.9063 0.4892
C81 C 0.4219(3) 0.97923(19) 0.39112(12)
H60 H 0.4920 0.9349 0.4008
C82 C 0.1448(3) 0.70297(19) 0.78414(12)
H61 H 0.2052 0.7055 0.8131
C83 C 0.3397(3) 1.0960(2) 0.32251(12)
H62 H 0.2518 1.1028 0.3382
C84 C 0.2135(3) 0.53572(18) 0.85250(12)
H63 H 0.2213 0.5341 0.8146
C85 C -0.2361(3) 0.7126(2) 0.85464(12)
H64 H -0.2015 0.7620 0.8408
C86 C 0.3171(3) 0.49218(19) 0.88437(14)
H65 H 0.3954 0.4627 0.8677
C87 C 0.3061(4) 0.4918(2) 0.94043(14)
H66 H 0.3764 0.4624 0.9618
C88 C 0.5680(3) 1.0271(2) 0.31697(13)
H67 H 0.6396 0.9852 0.3286
C89 C 0.0864(3) 0.58104(19) 0.93315(11)
H68 H 0.0090 0.6112 0.9500
C90 C 0.1895(4) 0.5356(2) 0.96452(13)
H69 H 0.1802 0.5345 1.0024
C91 C -0.2022(3) 0.5620(2) 0.88234(11)
H70 H -0.1447 0.5093 0.8868
C92 C -0.4257(4) 0.6446(3) 0.89065(13)
H71 H -0.5184 0.6479 0.9007
C93 C 0.5880(4) 1.0822(2) 0.27347(14)
H72 H 0.6748 1.0763 0.2568
C94 C 0.3697(4) 1.1475(2) 0.27832(14)
H73 H 0.2991 1.1884 0.2647
C95 C -0.3401(4) 0.5679(3) 0.89722(13)
H74 H -0.3749 0.5190 0.9119
C96 C -0.3746(4) 0.7171(2) 0.86916(13)
H75 H -0.4332 0.7693 0.8643
loop_
_geom_bond_atom_site_label_1
_geom_bond_atom_site_label_2
_geom_bond_site_symmetry_1
_geom_bond_site_symmetry_2
N1 C9 1_555 1_555
N2 C21 1_555 1_555
N3 C1 1_555 1_555
C1 C6 1_555 1_555
C2 H1 1_555 1_555
C3 H2 1_555 1_555
C4 C2 1_555 1_555
C5 C4 1_555 1_555
H3 C5 1_555 1_555
C6 C2 1_555 1_555
H4 C6 1_555 1_555
C7 C3 1_555 1_555
H5 C7 1_555 1_555
C8 C11 1_555 1_555
C9 C12 1_555 1_555
C10 C1 1_555 1_555
H6 C10 1_555 1_555
C11 N3 1_555 1_555
H7 C11 1_555 1_555
C12 H8 1_555 1_555
C13 C3 1_555 1_555
C14 C12 1_555 1_555
H9 C14 1_555 1_555
C15 N1 1_555 1_555
C16 C9 1_555 1_555
H10 C16 1_555 1_555
C17 N1 1_555 1_555
C18 C8 1_555 1_555
H11 C18 1_555 1_555
C19 C13 1_555 1_555
H12 C19 1_555 1_555
C20 C15 1_555 1_555
H13 C20 1_555 1_555
C21 C18 1_555 1_555
H14 C21 1_555 1_555
C22 C8 1_555 1_555
H15 C22 1_555 1_555
C23 C15 1_555 1_555
H16 C23 1_555 1_555
C24 H17 1_555 1_555
C25 H18 1_555 1_555
C26 C17 1_555 1_555
H19 C26 1_555 1_555
C27 C17 1_555 1_555
H20 C27 1_555 1_555
C28 C23 1_555 1_555
H21 C28 1_555 1_555
C29 C26 1_555 1_555
H22 C29 1_555 1_555
C30 C24 1_555 1_555
H23 C30 1_555 1_555
C31 C20 1_555 1_555
H24 C31 1_555 1_555
C32 N2 1_555 1_555
H25 C32 1_555 1_555
N4 C35 1_555 1_555
N5 C54 1_555 1_555
N6 C36 1_555 1_555
C33 H26 1_555 1_555
C34 C42 1_555 1_555
C35 C38 1_555 1_555
C36 C52 1_555 1_555
C37 H27 1_555 1_555
C38 H28 1_555 1_555
C39 H29 1_555 1_555
C40 C33 1_555 1_555
C41 N4 1_555 1_555
C42 H30 1_555 1_555
C43 C33 1_555 1_555
H31 C43 1_555 1_555
C44 C35 1_555 1_555
H32 C44 1_555 1_555
C45 N6 1_555 1_555
H33 C45 1_555 1_555
C46 C34 1_555 1_555
H34 C46 1_555 1_555
C47 C39 1_555 1_555
C48 C40 1_555 1_555
H35 C48 1_555 1_555
C49 N4 1_555 1_555
C50 C47 1_555 1_555
H36 C50 1_555 1_555
C51 C49 1_555 1_555
H37 C51 1_555 1_555
C52 C37 1_555 1_555
H38 C52 1_555 1_555
C53 C49 1_555 1_555
H39 C53 1_555 1_555
C54 C39 1_555 1_555
H40 C54 1_555 1_555
C55 N5 1_555 1_555
H41 C55 1_555 1_555
C56 C51 1_555 1_555
H42 C56 1_555 1_555
C57 H43 1_555 1_555
C58 C41 1_555 1_555
H44 C58 1_555 1_555
C59 C57 1_555 1_555
H45 C59 1_555 1_555
C60 C36 1_555 1_555
H46 C60 1_555 1_555
C61 C41 1_555 1_555
H47 C61 1_555 1_555
C62 C53 1_555 1_555
H48 C62 1_555 1_555
C63 C59 1_555 1_555
H49 C63 1_555 1_555
C64 C56 1_555 1_555
H50 C64 1_555 1_555
N7 C74 1_555 1_555
N8 C93 1_555 1_555
N9 C65 1_555 1_555
C65 C72 1_555 1_555
C66 C69 1_555 1_555
C67 H51 1_555 1_555
C68 C81 1_555 1_555
C69 C67 1_555 1_555
H52 C69 1_555 1_555
C70 C67 1_555 1_555
C71 H53 1_555 1_555
C72 H54 1_555 1_555
C73 C70 1_555 1_555
H55 C73 1_555 1_555
C74 C84 1_555 1_555
C75 N7 1_555 1_555
C76 N7 1_555 1_555
C77 C70 1_555 1_555
H56 C77 1_555 1_555
C78 C66 1_555 1_555
H57 C78 1_555 1_555
C79 C66 1_555 1_555
H58 C79 1_555 1_555
C80 C65 1_555 1_555
H59 C80 1_555 1_555
C81 N9 1_555 1_555
H60 C81 1_555 1_555
C82 C75 1_555 1_555
H61 C82 1_555 1_555
C83 C68 1_555 1_555
H62 C83 1_555 1_555
C84 H63 1_555 1_555
C85 C76 1_555 1_555
H64 C85 1_555 1_555
C86 C84 1_555 1_555
H65 C86 1_555 1_555
C87 C86 1_555 1_555
H66 C87 1_555 1_555
C88 C68 1_555 1_555
H67 C88 1_555 1_555
C89 C74 1_555 1_555
H68 C89 1_555 1_555
C90 C87 1_555 1_555
H69 C90 1_555 1_555
C91 C76 1_555 1_555
H70 C91 1_555 1_555
C92 H71 1_555 1_555
C93 C88 1_555 1_555
H72 C93 1_555 1_555
C94 N8 1_555 1_555
H73 C94 1_555 1_555
C95 C91 1_555 1_555
H74 C95 1_555 1_555
C96 C85 1_555 1_555
H75 C96 1_555 1_555
C4 C7 1_555 1_555
C5 C10 1_555 1_555
C13 C14 1_555 1_555
C16 C19 1_555 1_555
C22 C32 1_555 1_555
C24 C27 1_555 1_555
C25 C28 1_555 1_555
C25 C31 1_555 1_555
C29 C30 1_555 1_555
C34 C43 1_555 1_555
C37 C40 1_555 1_555
C38 C46 1_555 1_555
C42 C44 1_555 1_555
C45 C47 1_555 1_555
C48 C60 1_555 1_555
C50 C55 1_555 1_555
C57 C58 1_555 1_555
C61 C63 1_555 1_555
C62 C64 1_555 1_555
C71 C75 1_555 1_555
C71 C78 1_555 1_555
C72 C77 1_555 1_555
C73 C80 1_555 1_555
C79 C82 1_555 1_555
C83 C94 1_555 1_555
C89 C90 1_555 1_555
C92 C95 1_555 1_555
C92 C96 1_555 1_555

#END
