
#######################################################################
#
#                 Cambridge Crystallographic Data Centre
#                                CCDC 
#
#######################################################################
#
# If this CIF has been generated from an entry in the Cambridge 
# Structural Database, then it will include bibliographic, chemical, 
# crystal, experimental, refinement or atomic coordinate data resulting 
# from the CCDC's data processing and validation procedures.
#
#######################################################################

data_URIPES
_chemical_formula_moiety         'C32 H25 N3'
_chemical_name_systematic        
N,N-diphenyl-4-(2-(4-((pyridin-2-ylmethylene)amino)phenyl)vinyl)aniline
_symmetry_cell_setting           monoclinic
_symmetry_space_group_name_H-M   'P 21/c'
_symmetry_Int_Tables_number      14
_space_group_name_Hall           '-P 2ybc'
loop_
_symmetry_equiv_pos_site_id
_symmetry_equiv_pos_as_xyz
1 x,y,z
2 -x,1/2+y,1/2-z
3 -x,-y,-z
4 x,1/2-y,1/2+z
_cell_length_a                   10.872(10)
_cell_length_b                   38.16(4)
_cell_length_c                   11.993(11)
_cell_angle_alpha                90
_cell_angle_beta                 103.084(14)
_cell_angle_gamma                90
_cell_volume                     4846.43
_cell_formula_units_Z            8
loop_
_atom_site_label
_atom_site_type_symbol
_atom_site_fract_x
_atom_site_fract_y
_atom_site_fract_z
C1 C 1.2848(3) 0.86443(7) 0.7357(2)
H1 H 1.3250 0.8777 0.7983
C2 C 1.1560(3) 0.86695(6) 0.6963(2)
H2 H 1.1091 0.8818 0.7323
C3 C 1.0966(2) 0.84722(7) 0.6022(2)
H3 H 1.0096 0.8487 0.5752
C4 C 1.1663(3) 0.82545(6) 0.5491(2)
C5 C 1.2937(3) 0.82318(7) 0.5910(2)
H4 H 1.3409 0.8082 0.5559
C6 C 1.3536(3) 0.84262(8) 0.6840(2)
H5 H 1.4406 0.8409 0.7113
C7 C 1.1313(2) 0.76907(7) 0.4519(2)
C8 C 1.1812(2) 0.75437(7) 0.3675(2)
H6 H 1.1970 0.7684 0.3088
C9 C 1.2081(2) 0.71940(8) 0.3687(3)
H7 H 1.2418 0.7096 0.3111
C10 C 1.1851(3) 0.69881(7) 0.4553(3)
H8 H 1.2045 0.6751 0.4570
C11 C 1.1338(3) 0.71297(8) 0.5395(3)
H9 H 1.1172 0.6988 0.5974
C12 C 1.1069(3) 0.74824(8) 0.5382(2)
H10 H 1.0723 0.7580 0.5953
C13 C 1.0344(2) 0.82211(7) 0.3550(2)
C14 C 1.0579(2) 0.85685(7) 0.3318(2)
H11 H 1.1240 0.8688 0.3796
C15 C 0.9845(2) 0.87381(6) 0.2392(2)
H12 H 1.0014 0.8972 0.2263
C16 C 0.8860(2) 0.85711(7) 0.1644(2)
C17 C 0.8681(2) 0.82193(7) 0.1846(2)
H13 H 0.8059 0.8095 0.1339
C18 C 0.9403(2) 0.80490(6) 0.2780(2)
H14 H 0.9253 0.7813 0.2894
C19 C 0.8016(2) 0.87515(7) 0.0706(2)
H15 H 0.7574 0.8614 0.0107
C20 C 0.7821(2) 0.90933(7) 0.0632(2)
H16 H 0.8265 0.9225 0.1245
C21 C 0.7004(2) 0.92933(6) -0.0282(2)
C22 C 0.7048(3) 0.96555(7) -0.0260(2)
H17 H 0.7570 0.9767 0.0360
C23 C 0.6343(3) 0.98564(7) -0.1127(2)
H18 H 0.6400 1.0099 -0.1089
C24 C 0.5558(2) 0.96997(7) -0.2045(2)
C25 C 0.5503(2) 0.93396(7) -0.2091(2)
H19 H 0.4984 0.9230 -0.2717
C26 C 0.6205(2) 0.91401(6) -0.1221(2)
H20 H 0.6143 0.8897 -0.1264
C27 C 0.4212(3) 1.01510(7) -0.2796(2)
H21 H 0.4276 1.0220 -0.2042
C28 C 0.3394(3) 1.03552(7) -0.3717(3)
C29 C 0.1719(3) 1.07194(8) -0.4189(3)
H22 H 0.1100 1.0855 -0.3973
C30 C 0.1747(3) 1.07124(8) -0.5320(3)
H23 H 0.1147 1.0834 -0.5858
C31 C 0.2675(3) 1.05236(7) -0.5647(3)
H24 H 0.2738 1.0520 -0.6408
C32 C 0.3503(3) 1.03409(7) -0.4837(3)
H25 H 0.4137 1.0208 -0.5037
N1 N 1.1055(2) 0.80545(5) 0.45260(18)
N2 N 0.4827(2) 0.98874(6) -0.29889(18)
N3 N 0.2513(2) 1.05459(6) -0.3380(2)
C33 C 0.4558(3) 0.30558(7) 0.5335(3)
H26 H 0.4779 0.3292 0.5397
C34 C 0.4790(2) 0.28613(8) 0.4447(3)
H27 H 0.5151 0.2965 0.3897
C35 C 0.4486(2) 0.25105(7) 0.4373(2)
H28 H 0.4653 0.2376 0.3778
C36 C 0.3935(2) 0.23597(7) 0.5181(3)
C37 C 0.3696(3) 0.25587(8) 0.6058(2)
H29 H 0.3322 0.2457 0.6604
C38 C 0.4005(3) 0.29062(8) 0.6130(3)
H30 H 0.3836 0.3041 0.6723
C39 C 0.2822(2) 0.18701(7) 0.4115(2)
C40 C 0.1947(2) 0.20865(7) 0.3432(2)
H31 H 0.1872 0.2317 0.3660
C41 C 0.1186(3) 0.19718(8) 0.2430(2)
H32 H 0.0613 0.2125 0.1985
C42 C 0.1261(3) 0.16338(8) 0.2078(2)
H33 H 0.0742 0.1555 0.1399
C43 C 0.2113(3) 0.14152(7) 0.2745(2)
H34 H 0.2164 0.1184 0.2518
C44 C 0.2904(2) 0.15289(7) 0.3755(2)
H35 H 0.3489 0.1376 0.4188
C45 C 0.4210(3) 0.17774(7) 0.6022(2)
C46 C 0.5476(3) 0.18135(7) 0.6509(2)
H36 H 0.5937 0.1985 0.6232
C47 C 0.6075(2) 0.16034(7) 0.7395(2)
H37 H 0.6934 0.1633 0.7703
C48 C 0.5413(3) 0.13458(7) 0.7837(2)
C49 C 0.4135(3) 0.13155(6) 0.7354(2)
H38 H 0.3665 0.1148 0.7637
C50 C 0.3541(2) 0.15283(7) 0.6463(2)
H39 H 0.2680 0.1503 0.6158
C51 C 0.6017(3) 0.11104(6) 0.8764(2)
H40 H 0.5484 0.0980 0.9111
C52 C 0.7236(3) 0.10651(6) 0.9153(2)
H41 H 0.7757 0.1201 0.8809
C53 C 0.7880(3) 0.08281(6) 1.0059(2)
C54 C 0.9173(3) 0.07999(7) 1.0278(2)
H42 H 0.9618 0.0937 0.9861
C55 C 0.9831(3) 0.05740(7) 1.1101(2)
H43 H 1.0705 0.0561 1.1228
C56 C 0.9206(3) 0.03694(7) 1.1735(2)
C57 C 0.7913(3) 0.04077(6) 1.1565(2)
H44 H 0.7480 0.0285 1.2025
C58 C 0.7256(2) 0.06263(6) 1.0720(2)
H45 H 0.6381 0.0639 1.0592
C59 C 1.0681(3) -0.00551(7) 1.2411(2)
H46 H 1.0856 -0.0047 1.1687
C60 C 1.1431(3) -0.02932(7) 1.3279(3)
C61 C 1.3075(3) -0.06736(7) 1.3728(3)
H47 H 1.3731 -0.0794 1.3517
C62 C 1.2902(3) -0.07250(8) 1.4793(3)
H48 H 1.3426 -0.0876 1.5297
C63 C 1.1943(4) -0.05511(9) 1.5117(3)
H49 H 1.1802 -0.0580 1.5848
C64 C 1.1188(3) -0.03313(7) 1.4340(3)
H50 H 1.0523 -0.0211 1.4536
N4 N 0.3613(2) 0.19977(6) 0.51099(18)
N5 N 0.9815(2) 0.01374(6) 1.26107(19)
N6 N 1.2365(3) -0.04610(6) 1.2951(2)
loop_
_geom_bond_atom_site_label_1
_geom_bond_atom_site_label_2
_geom_bond_site_symmetry_1
_geom_bond_site_symmetry_2
C1 H1 1_555 1_555
C2 C1 1_555 1_555
H2 C2 1_555 1_555
C3 C2 1_555 1_555
H3 C3 1_555 1_555
C4 C3 1_555 1_555
C5 C4 1_555 1_555
H4 C5 1_555 1_555
C6 C1 1_555 1_555
H5 C6 1_555 1_555
C7 C8 1_555 1_555
C8 H6 1_555 1_555
C9 C8 1_555 1_555
H7 C9 1_555 1_555
C10 C9 1_555 1_555
H8 C10 1_555 1_555
C11 C10 1_555 1_555
H9 C11 1_555 1_555
C12 C7 1_555 1_555
H10 C12 1_555 1_555
C13 C14 1_555 1_555
C14 H11 1_555 1_555
C15 C14 1_555 1_555
H12 C15 1_555 1_555
C16 C15 1_555 1_555
C17 C16 1_555 1_555
H13 C17 1_555 1_555
C18 C13 1_555 1_555
H14 C18 1_555 1_555
C19 C16 1_555 1_555
H15 C19 1_555 1_555
C20 C19 1_555 1_555
H16 C20 1_555 1_555
C21 C20 1_555 1_555
C22 C21 1_555 1_555
H17 C22 1_555 1_555
C23 C22 1_555 1_555
H18 C23 1_555 1_555
C24 C23 1_555 1_555
C25 C24 1_555 1_555
H19 C25 1_555 1_555
C26 C21 1_555 1_555
H20 C26 1_555 1_555
C27 H21 1_555 1_555
C28 C27 1_555 1_555
C29 H22 1_555 1_555
C30 C29 1_555 1_555
H23 C30 1_555 1_555
C31 C30 1_555 1_555
H24 C31 1_555 1_555
C32 C28 1_555 1_555
H25 C32 1_555 1_555
N1 C4 1_555 1_555
N2 C24 1_555 1_555
N3 C28 1_555 1_555
C33 H26 1_555 1_555
C34 C33 1_555 1_555
H27 C34 1_555 1_555
C35 C34 1_555 1_555
H28 C35 1_555 1_555
C36 C35 1_555 1_555
C37 C36 1_555 1_555
H29 C37 1_555 1_555
C38 C33 1_555 1_555
H30 C38 1_555 1_555
C39 C40 1_555 1_555
C40 H31 1_555 1_555
C41 C40 1_555 1_555
H32 C41 1_555 1_555
C42 C41 1_555 1_555
H33 C42 1_555 1_555
C43 C42 1_555 1_555
H34 C43 1_555 1_555
C44 C39 1_555 1_555
H35 C44 1_555 1_555
C45 C46 1_555 1_555
C46 H36 1_555 1_555
C47 C46 1_555 1_555
H37 C47 1_555 1_555
C48 C47 1_555 1_555
C49 C48 1_555 1_555
H38 C49 1_555 1_555
C50 C45 1_555 1_555
H39 C50 1_555 1_555
C51 C48 1_555 1_555
H40 C51 1_555 1_555
C52 C51 1_555 1_555
H41 C52 1_555 1_555
C53 C52 1_555 1_555
C54 C53 1_555 1_555
H42 C54 1_555 1_555
C55 C54 1_555 1_555
H43 C55 1_555 1_555
C56 C55 1_555 1_555
C57 C56 1_555 1_555
H44 C57 1_555 1_555
C58 C53 1_555 1_555
H45 C58 1_555 1_555
C59 H46 1_555 1_555
C60 C59 1_555 1_555
C61 H47 1_555 1_555
C62 C61 1_555 1_555
H48 C62 1_555 1_555
C63 C62 1_555 1_555
H49 C63 1_555 1_555
C64 C60 1_555 1_555
H50 C64 1_555 1_555
N4 C36 1_555 1_555
N5 C56 1_555 1_555
N6 C60 1_555 1_555
C5 C6 1_555 1_555
C7 N1 1_555 1_555
C11 C12 1_555 1_555
C13 N1 1_555 1_555
C17 C18 1_555 1_555
C25 C26 1_555 1_555
C27 N2 1_555 1_555
C29 N3 1_555 1_555
C31 C32 1_555 1_555
C37 C38 1_555 1_555
C39 N4 1_555 1_555
C43 C44 1_555 1_555
C45 N4 1_555 1_555
C49 C50 1_555 1_555
C57 C58 1_555 1_555
C59 N5 1_555 1_555
C61 N6 1_555 1_555
C63 C64 1_555 1_555

#END
