
#######################################################################
#
#                 Cambridge Crystallographic Data Centre
#                                CCDC 
#
#######################################################################
#
# If this CIF has been generated from an entry in the Cambridge 
# Structural Database, then it will include bibliographic, chemical, 
# crystal, experimental, refinement or atomic coordinate data resulting 
# from the CCDC's data processing and validation procedures.
#
#######################################################################

data_URIPAO
_chemical_formula_moiety         'C32 H25 N3'
_chemical_name_systematic        
N,N-diphenyl-4-(2-(4-((pyridin-3-ylmethylene)amino)phenyl)vinyl)aniline
_symmetry_cell_setting           triclinic
_symmetry_space_group_name_H-M   'P 1'
_symmetry_Int_Tables_number      1
_space_group_name_Hall           'P 1'
loop_
_symmetry_equiv_pos_site_id
_symmetry_equiv_pos_as_xyz
1 x,y,z
_cell_length_a                   9.488(5)
_cell_length_b                   9.065(5)
_cell_length_c                   29.064(5)
_cell_angle_alpha                90.000(5)
_cell_angle_beta                 98.599(5)
_cell_angle_gamma                90.000(5)
_cell_volume                     2471.66
_cell_formula_units_Z            4
loop_
_atom_site_label
_atom_site_type_symbol
_atom_site_fract_x
_atom_site_fract_y
_atom_site_fract_z
C1 C -0.1815(5) 0.8624(6) 0.87868(14)
H1 H -0.2085 0.9304 0.8550
C2 C -0.1936(6) 0.7771(7) 0.95144(15)
H2 H -0.2289 0.7840 0.9795
C3 C -0.1030(7) 0.6651(7) 0.94591(17)
H3 H -0.0772 0.5978 0.9698
C4 C -0.0503(6) 0.6519(6) 0.90517(17)
H4 H 0.0119 0.5754 0.9010
C5 C -0.0890(5) 0.7513(5) 0.87059(14)
C6 C -0.0367(5) 0.7361(6) 0.82519(17)
H5 H 0.0319 0.6649 0.8222
C7 C -0.0338(4) 0.7896(5) 0.74813(13)
C8 C -0.1105(5) 0.8677(6) 0.71235(15)
H6 H -0.1863 0.9262 0.7183
C9 C 0.0384(4) 0.7809(4) 0.65771(12)
C10 C 0.1149(5) 0.7033(5) 0.69361(13)
H7 H 0.1922 0.6470 0.6877
C11 C 0.0808(5) 0.7060(6) 0.73807(14)
H8 H 0.1348 0.6516 0.7615
C12 C -0.0773(5) 0.8608(6) 0.66802(14)
H9 H -0.1341 0.9112 0.6442
C13 C 0.0814(5) 0.7745(5) 0.61108(13)
H10 H 0.1709 0.7351 0.6091
C14 C 0.0065(5) 0.8185(5) 0.57237(14)
H11 H -0.0828 0.8580 0.5745
C15 C 0.0479(4) 0.8124(4) 0.52562(13)
C16 C -0.0479(4) 0.8518(5) 0.48724(13)
H12 H -0.1390 0.8815 0.4914
C17 C 0.1215(4) 0.8066(4) 0.43533(12)
C18 C 0.2188(4) 0.7651(5) 0.47358(12)
H13 H 0.3091 0.7337 0.4692
C19 C 0.1843(4) 0.7695(5) 0.51780(13)
H14 H 0.2524 0.7436 0.5429
C20 C -0.0139(4) 0.8489(5) 0.44298(12)
H15 H -0.0819 0.8755 0.4179
C21 C 0.3033(4) 0.8354(4) 0.38452(11)
C22 C 0.3735(4) 0.9569(5) 0.40497(13)
H16 H 0.3273 1.0202 0.4230
C23 C 0.5125(5) 0.9852(6) 0.39877(16)
H17 H 0.5606 1.0657 0.4134
C24 C 0.5799(5) 0.8945(7) 0.37093(18)
H18 H 0.6730 0.9141 0.3664
C25 C 0.5100(5) 0.7771(7) 0.35025(17)
H19 H 0.5555 0.7169 0.3311
C26 C 0.3723(5) 0.7440(5) 0.35683(14)
H20 H 0.3263 0.6613 0.3428
C27 C 0.0633(5) 0.8807(5) 0.31155(13)
H21 H 0.1328 0.9537 0.3132
C28 C 0.0559(4) 0.7904(4) 0.34978(11)
C29 C -0.0504(4) 0.6848(4) 0.34659(13)
H22 H -0.0570 0.6227 0.3717
C30 C -0.1469(4) 0.6716(5) 0.30622(14)
H23 H -0.2194 0.6019 0.3045
C31 C -0.1367(5) 0.7599(5) 0.26873(15)
H24 H -0.2014 0.7500 0.2415
C32 C -0.0306(5) 0.8629(5) 0.27158(14)
H25 H -0.0223 0.9217 0.2459
N1 N -0.2350(5) 0.8783(5) 0.91865(14)
N2 N -0.0783(4) 0.8102(4) 0.79281(11)
N3 N 0.1595(3) 0.8040(4) 0.39047(10)
C33 C 0.3394(6) 0.2780(7) -0.36763(15)
H26 H 0.3727 0.2865 -0.3960
C34 C 0.2512(7) 0.1649(7) -0.36225(17)
H27 H 0.2272 0.0964 -0.3859
C35 C 0.1979(6) 0.1531(6) -0.32126(17)
H28 H 0.1356 0.0768 -0.3170
C36 C 0.2357(5) 0.2523(6) -0.28696(15)
C37 C 0.3290(5) 0.3630(6) -0.29484(15)
H29 H 0.3568 0.4307 -0.2712
C38 C 0.1822(5) 0.2343(6) -0.24140(16)
H30 H 0.1143 0.1624 -0.2382
C39 C 0.1802(5) 0.2903(5) -0.16439(14)
C40 C 0.0663(5) 0.2064(6) -0.15439(14)
H31 H 0.0127 0.1518 -0.1779
C41 C 0.0316(5) 0.2031(5) -0.10986(13)
H32 H -0.0461 0.1471 -0.1041
C42 C 0.1082(4) 0.2800(4) -0.07391(12)
C43 C 0.2246(5) 0.3607(6) -0.08425(14)
H33 H 0.2815 0.4115 -0.0606
C44 C 0.1392(5) 0.3184(5) 0.01132(14)
H34 H 0.2283 0.3584 0.0092
C45 C 0.0658(5) 0.2751(5) -0.02725(13)
H35 H -0.0240 0.2364 -0.0254
C46 C 0.0989(4) 0.3121(4) 0.05801(13)
C47 C -0.0364(4) 0.2691(5) 0.06574(13)
H36 H -0.1041 0.2426 0.0406
C48 C -0.0719(4) 0.2651(5) 0.11009(13)
H37 H -0.1624 0.2342 0.1144
C49 C 0.1952(4) 0.3506(5) 0.09637(13)
H38 H 0.2867 0.3788 0.0922
C50 C 0.0260(4) 0.3066(4) 0.14842(12)
C51 C 0.1607(4) 0.3487(5) 0.14071(13)
H39 H 0.2286 0.3760 0.1657
C52 C 0.0826(5) 0.3800(5) 0.27209(13)
H40 H 0.0126 0.4525 0.2704
C53 C 0.0904(4) 0.2901(4) 0.23409(11)
C54 C 0.2830(5) 0.2604(5) 0.31483(15)
H41 H 0.3479 0.2507 0.3420
C55 C 0.1770(5) 0.3632(5) 0.31219(14)
H42 H 0.1688 0.4222 0.3378
C56 C 0.2937(4) 0.1717(5) 0.27748(15)
H43 H 0.3663 0.1021 0.2792
C57 C 0.1965(4) 0.1853(4) 0.23707(13)
H44 H 0.2030 0.1236 0.2119
C58 C -0.2255(4) 0.2438(5) 0.22694(14)
H45 H -0.1796 0.1610 0.2409
C59 C -0.1570(4) 0.3351(5) 0.19946(12)
C60 C -0.3664(5) 0.4842(6) 0.18517(16)
H46 H -0.4144 0.5649 0.1706
C61 C -0.2272(4) 0.4557(5) 0.17887(14)
H47 H -0.1812 0.5186 0.1606
C62 C -0.4335(5) 0.3942(7) 0.21278(18)
H48 H -0.5268 0.4138 0.2172
C63 C 0.2568(5) 0.3664(6) -0.12887(15)
H49 H 0.3332 0.4240 -0.1349
C64 C -0.3640(5) 0.2772(7) 0.23342(17)
H50 H -0.4097 0.2170 0.2525
N4 N 0.2256(4) 0.3111(5) -0.20911(13)
N5 N 0.3821(5) 0.3781(5) -0.33525(13)
N6 N -0.0135(3) 0.3043(4) 0.19329(9)
C65 C 0.5553(5) 0.2755(7) 1.03613(16)
H51 H 0.5411 0.2882 1.0669
C66 C 0.5381(6) 0.1384(7) 1.01731(17)
H52 H 0.5122 0.0596 1.0348
C67 C 0.5596(6) 0.1180(5) 0.97231(15)
H53 H 0.5498 0.0246 0.9590
C68 C 0.5957(4) 0.2361(4) 0.94688(12)
C69 C 0.6111(5) 0.3693(5) 0.96884(14)
H54 H 0.6371 0.4495 0.9520
C70 C 0.6184(4) 0.2176(5) 0.89824(13)
H55 H 0.6049 0.1248 0.8846
C71 C 0.6759(4) 0.2997(4) 0.82766(13)
C72 C 0.7669(5) 0.3949(5) 0.81023(15)
H56 H 0.8115 0.4690 0.8292
C73 C 0.7937(5) 0.3826(5) 0.76434(16)
H57 H 0.8567 0.4478 0.7534
C74 C 0.7279(5) 0.2747(5) 0.73518(13)
C75 C 0.6097(5) 0.1934(5) 0.79802(14)
H58 H 0.5463 0.1283 0.8089
C76 C 0.6350(5) 0.1814(6) 0.75299(14)
H59 H 0.5884 0.1084 0.7340
C77 C 0.7499(6) 0.2580(6) 0.68560(16)
H60 H 0.6953 0.1861 0.6684
C78 C 0.8313(6) 0.3279(6) 0.66492(18)
H61 H 0.8840 0.4001 0.6826
C79 C 0.8598(5) 0.3161(5) 0.61591(14)
C80 C 0.9671(6) 0.3981(6) 0.60368(15)
H62 H 1.0164 0.4616 0.6255
C81 C 1.0058(5) 0.3910(5) 0.56029(14)
H63 H 1.0804 0.4496 0.5534
C82 C 0.9366(4) 0.2990(4) 0.52657(12)
C83 C 0.8238(4) 0.2161(5) 0.53765(13)
H64 H 0.7735 0.1548 0.5154
C84 C 0.7857(5) 0.2241(5) 0.58170(15)
H65 H 0.7098 0.1678 0.5887
C85 C 0.6745(6) 0.4275(10) 0.4003(3)
H66 H 0.5979 0.4917 0.4001
C86 C 0.7710(5) 0.4075(7) 0.44090(18)
H67 H 0.7597 0.4592 0.4677
C87 C 0.8832(4) 0.3110(5) 0.44122(14)
C88 C 0.9008(5) 0.2374(6) 0.40069(14)
H68 H 0.9767 0.1727 0.4005
C89 C 0.8055(8) 0.2604(8) 0.36076(17)
H69 H 0.8184 0.2123 0.3334
C90 C 0.6924(7) 0.3530(10) 0.3609(2)
H70 H 0.6271 0.3654 0.3340
C91 C 1.3337(5) 0.3850(6) 0.45221(16)
H71 H 1.3727 0.4501 0.4328
C92 C 1.1898(4) 0.3866(5) 0.45274(14)
H72 H 1.1326 0.4545 0.4346
C93 C 1.1292(4) 0.2877(4) 0.48015(11)
C94 C 1.2163(4) 0.1876(4) 0.50646(11)
H73 H 1.1768 0.1178 0.5242
C95 C 1.3624(5) 0.1906(5) 0.50660(13)
H74 H 1.4212 0.1252 0.5252
C96 C 1.4202(5) 0.2911(6) 0.47908(16)
H75 H 1.5182 0.2941 0.4791
N7 N 0.5916(4) 0.3927(5) 1.01287(14)
N8 N 0.6548(3) 0.3211(4) 0.87475(10)
N9 N 0.9811(3) 0.2886(4) 0.48234(9)
C97 C 0.5281(4) 0.7177(5) 0.68546(13)
H76 H 0.5412 0.6250 0.6991
C98 C 0.5509(4) 0.7354(4) 0.63695(12)
C99 C 0.5876(6) 0.6184(5) 0.61128(15)
H77 H 0.5984 0.5249 0.6245
C100 C 0.6081(6) 0.6395(7) 0.56626(17)
H78 H 0.6330 0.5609 0.5486
C101 C 0.5917(5) 0.7756(7) 0.54782(16)
H79 H 0.6067 0.7883 0.5172
C102 C 0.5349(5) 0.8696(5) 0.61497(14)
H80 H 0.5080 0.9497 0.6317
C103 C 0.4706(4) 0.7995(4) 0.75612(13)
C104 C 0.3798(5) 0.8943(5) 0.77365(15)
H81 H 0.3350 0.9681 0.7546
C105 C 0.4188(5) 0.7748(5) 0.84856(14)
C106 C 0.3530(5) 0.8832(5) 0.81917(16)
H82 H 0.2903 0.9490 0.8301
C107 C 0.5114(5) 0.6821(6) 0.83087(14)
H83 H 0.5580 0.6093 0.8500
C108 C 0.5376(5) 0.6936(5) 0.78572(14)
H84 H 0.6015 0.6289 0.7750
C109 C 0.3946(6) 0.7584(6) 0.89799(16)
H85 H 0.4477 0.6847 0.9148
C110 C 0.3162(6) 0.8271(6) 0.91932(18)
H86 H 0.2646 0.9008 0.9021
C111 C 0.2871(5) 0.8153(5) 0.96781(14)
C112 C 0.3600(5) 0.7239(5) 1.00171(15)
H87 H 0.4352 0.6671 0.9945
C113 C 0.3231(4) 0.7154(5) 1.04615(13)
H88 H 0.3738 0.6541 1.0684
C114 C 0.1408(5) 0.8915(5) 1.02370(14)
H89 H 0.0666 0.9501 1.0309
C115 C 0.1786(5) 0.8993(5) 0.97999(15)
H90 H 0.1294 0.9630 0.9582
C116 C 0.2106(4) 0.7985(4) 1.05715(12)
C117 C 0.0172(4) 0.7872(4) 1.10355(11)
C118 C -0.0695(4) 0.6876(4) 1.07713(11)
H91 H -0.0300 0.6187 1.0591
C119 C -0.2163(5) 0.6896(5) 1.07732(13)
H92 H -0.2750 0.6232 1.0591
C120 C -0.2736(5) 0.7906(5) 1.10470(16)
H93 H -0.3716 0.7937 1.1047
C121 C -0.1869(5) 0.8854(5) 1.13165(16)
H94 H -0.2257 0.9509 1.1510
C122 C -0.0429(4) 0.8861(5) 1.13086(13)
H95 H 0.0147 0.9539 1.1489
C123 C 0.2632(4) 0.8110(5) 1.14251(13)
C124 C 0.2443(5) 0.7375(6) 1.18298(14)
H96 H 0.1680 0.6731 1.1830
C125 C 0.3392(7) 0.7605(8) 1.22327(17)
H97 H 0.3251 0.7137 1.2507
C126 C 0.4539(7) 0.8519(10) 1.2229(2)
H98 H 0.5202 0.8622 1.2497
C127 C 0.4722(5) 0.9281(9) 1.1836(2)
H99 H 0.5481 0.9932 1.1841
C128 C 0.3758(5) 0.9075(7) 1.14273(17)
H100 H 0.3876 0.9586 1.1158
N10 N 0.4919(4) 0.8218(4) 0.70914(10)
N11 N 0.1653(3) 0.7887(4) 1.10149(9)
N12 N 0.5556(5) 0.8923(5) 0.57070(14)
loop_
_geom_bond_atom_site_label_1
_geom_bond_atom_site_label_2
_geom_bond_site_symmetry_1
_geom_bond_site_symmetry_2
C1 H1 1_555 1_555
C2 H2 1_555 1_555
C3 C2 1_555 1_555
H3 C3 1_555 1_555
C4 C3 1_555 1_555
H4 C4 1_555 1_555
C5 C1 1_555 1_555
C6 C5 1_555 1_555
H5 C6 1_555 1_555
C7 C8 1_555 1_555
C8 H6 1_555 1_555
C9 C10 1_555 1_555
C10 H7 1_555 1_555
C11 C7 1_555 1_555
H8 C11 1_555 1_555
C12 C8 1_555 1_555
H9 C12 1_555 1_555
C13 C9 1_555 1_555
H10 C13 1_555 1_555
C14 C13 1_555 1_555
H11 C14 1_555 1_555
C15 C14 1_555 1_555
C16 C15 1_555 1_555
H12 C16 1_555 1_555
C17 C18 1_555 1_555
C18 H13 1_555 1_555
C19 C15 1_555 1_555
H14 C19 1_555 1_555
C20 C16 1_555 1_555
H15 C20 1_555 1_555
C21 C22 1_555 1_555
C22 H16 1_555 1_555
C23 C22 1_555 1_555
H17 C23 1_555 1_555
C24 C23 1_555 1_555
H18 C24 1_555 1_555
C25 C24 1_555 1_555
H19 C25 1_555 1_555
C26 C21 1_555 1_555
H20 C26 1_555 1_555
C27 H21 1_555 1_555
C28 C27 1_555 1_555
C29 C28 1_555 1_555
H22 C29 1_555 1_555
C30 C29 1_555 1_555
H23 C30 1_555 1_555
C31 C30 1_555 1_555
H24 C31 1_555 1_555
C32 C27 1_555 1_555
H25 C32 1_555 1_555
N1 C1 1_555 1_555
N2 C6 1_555 1_555
N3 C17 1_555 1_555
C33 H26 1_555 1_555
C34 C33 1_555 1_555
H27 C34 1_555 1_555
C35 C34 1_555 1_555
H28 C35 1_555 1_555
C36 C35 1_555 1_555
C37 C36 1_555 1_555
H29 C37 1_555 1_555
C38 C36 1_555 1_555
H30 C38 1_555 1_555
C39 C40 1_555 1_555
C40 H31 1_555 1_555
C41 C40 1_555 1_555
H32 C41 1_555 1_555
C42 C41 1_555 1_555
C43 C42 1_555 1_555
H33 C43 1_555 1_555
C44 H34 1_555 1_555
C45 C42 1_555 1_555
H35 C45 1_555 1_555
C46 C44 1_555 1_555
C47 C46 1_555 1_555
H36 C47 1_555 1_555
C48 C47 1_555 1_555
H37 C48 1_555 1_555
C49 C46 1_555 1_555
H38 C49 1_555 1_555
C50 C48 1_555 1_555
C51 C49 1_555 1_555
H39 C51 1_555 1_555
C52 H40 1_555 1_555
C53 C52 1_555 1_555
C54 H41 1_555 1_555
C55 C52 1_555 1_555
H42 C55 1_555 1_555
C56 C54 1_555 1_555
H43 C56 1_555 1_555
C57 C53 1_555 1_555
H44 C57 1_555 1_555
C58 H45 1_555 1_555
C59 C58 1_555 1_555
C60 H46 1_555 1_555
C61 C59 1_555 1_555
H47 C61 1_555 1_555
C62 C60 1_555 1_555
H48 C62 1_555 1_555
C63 C39 1_555 1_555
H49 C63 1_555 1_555
C64 C58 1_555 1_555
H50 C64 1_555 1_555
N4 C38 1_555 1_555
N5 C33 1_555 1_555
N6 C50 1_555 1_555
C65 H51 1_555 1_555
C66 C65 1_555 1_555
H52 C66 1_555 1_555
C67 C66 1_555 1_555
H53 C67 1_555 1_555
C68 C67 1_555 1_555
C69 C68 1_555 1_555
H54 C69 1_555 1_555
C70 C68 1_555 1_555
H55 C70 1_555 1_555
C71 C72 1_555 1_555
C72 H56 1_555 1_555
C73 C72 1_555 1_555
H57 C73 1_555 1_555
C74 C73 1_555 1_555
C75 C71 1_555 1_555
H58 C75 1_555 1_555
C76 C74 1_555 1_555
H59 C76 1_555 1_555
C77 C74 1_555 1_555
H60 C77 1_555 1_555
C78 C77 1_555 1_555
H61 C78 1_555 1_555
C79 C78 1_555 1_555
C80 C79 1_555 1_555
H62 C80 1_555 1_555
C81 C80 1_555 1_555
H63 C81 1_555 1_555
C82 C81 1_555 1_555
C83 C82 1_555 1_555
H64 C83 1_555 1_555
C84 C79 1_555 1_555
H65 C84 1_555 1_555
C85 H66 1_555 1_555
C86 C85 1_555 1_555
H67 C86 1_555 1_555
C87 C86 1_555 1_555
C88 C87 1_555 1_555
H68 C88 1_555 1_555
C89 C88 1_555 1_555
H69 C89 1_555 1_555
C90 C85 1_555 1_555
H70 C90 1_555 1_555
C91 H71 1_555 1_555
C92 C91 1_555 1_555
H72 C92 1_555 1_555
C93 C92 1_555 1_555
C94 C93 1_555 1_555
H73 C94 1_555 1_555
C95 C94 1_555 1_555
H74 C95 1_555 1_555
C96 C91 1_555 1_555
H75 C96 1_555 1_555
N7 C65 1_555 1_555
N8 C70 1_555 1_555
N9 C82 1_555 1_555
C97 H76 1_555 1_555
C98 C97 1_555 1_555
C99 C98 1_555 1_555
H77 C99 1_555 1_555
C100 C99 1_555 1_555
H78 C100 1_555 1_555
C101 C100 1_555 1_555
H79 C101 1_555 1_555
C102 C98 1_555 1_555
H80 C102 1_555 1_555
C103 C104 1_555 1_555
C104 H81 1_555 1_555
C105 C106 1_555 1_555
C106 C104 1_555 1_555
H82 C106 1_555 1_555
C107 C105 1_555 1_555
H83 C107 1_555 1_555
C108 C103 1_555 1_555
H84 C108 1_555 1_555
C109 C105 1_555 1_555
H85 C109 1_555 1_555
C110 C109 1_555 1_555
H86 C110 1_555 1_555
C111 C110 1_555 1_555
C112 C111 1_555 1_555
H87 C112 1_555 1_555
C113 C112 1_555 1_555
H88 C113 1_555 1_555
C114 H89 1_555 1_555
C115 C111 1_555 1_555
H90 C115 1_555 1_555
C116 C113 1_555 1_555
C117 C118 1_555 1_555
C118 H91 1_555 1_555
C119 C118 1_555 1_555
H92 C119 1_555 1_555
C120 C119 1_555 1_555
H93 C120 1_555 1_555
C121 C120 1_555 1_555
H94 C121 1_555 1_555
C122 C117 1_555 1_555
H95 C122 1_555 1_555
C123 C124 1_555 1_555
C124 H96 1_555 1_555
C125 C124 1_555 1_555
H97 C125 1_555 1_555
C126 C125 1_555 1_555
H98 C126 1_555 1_555
C127 C126 1_555 1_555
H99 C127 1_555 1_555
C128 C123 1_555 1_555
H100 C128 1_555 1_555
N10 C97 1_555 1_555
N11 C116 1_555 1_555
N12 C101 1_555 1_555
C2 N1 1_555 1_555
C4 C5 1_555 1_555
C7 N2 1_555 1_555
C9 C12 1_555 1_555
C10 C11 1_555 1_555
C17 C20 1_555 1_555
C18 C19 1_555 1_555
C21 N3 1_555 1_555
C25 C26 1_555 1_555
C28 N3 1_555 1_555
C31 C32 1_555 1_555
C37 N5 1_555 1_555
C39 N4 1_555 1_555
C43 C63 1_555 1_555
C44 C45 1_555 1_555
C50 C51 1_555 1_555
C53 N6 1_555 1_555
C54 C55 1_555 1_555
C56 C57 1_555 1_555
C59 N6 1_555 1_555
C60 C61 1_555 1_555
C62 C64 1_555 1_555
C69 N7 1_555 1_555
C71 N8 1_555 1_555
C75 C76 1_555 1_555
C83 C84 1_555 1_555
C87 N9 1_555 1_555
C89 C90 1_555 1_555
C93 N9 1_555 1_555
C95 C96 1_555 1_555
C102 N12 1_555 1_555
C103 N10 1_555 1_555
C107 C108 1_555 1_555
C114 C115 1_555 1_555
C114 C116 1_555 1_555
C117 N11 1_555 1_555
C121 C122 1_555 1_555
C123 N11 1_555 1_555
C127 C128 1_555 1_555

#END
