
#######################################################################
#
#                 Cambridge Crystallographic Data Centre
#                                CCDC 
#
#######################################################################
#
# If this CIF has been generated from an entry in the Cambridge 
# Structural Database, then it will include bibliographic, chemical, 
# crystal, experimental, refinement or atomic coordinate data resulting 
# from the CCDC's data processing and validation procedures.
#
#######################################################################

data_URIREU
_chemical_formula_moiety         'C37 H35 N3'
_chemical_name_systematic        
4-(2-(4-((4-(diethylamino)benzylidene)amino)phenyl)vinyl)-N,N-diphenylaniline
_symmetry_cell_setting           triclinic
_symmetry_space_group_name_H-M   'P -1'
_symmetry_Int_Tables_number      2
_space_group_name_Hall           '-P 1'
loop_
_symmetry_equiv_pos_site_id
_symmetry_equiv_pos_as_xyz
1 x,y,z
2 -x,-y,-z
_cell_length_a                   9.289(5)
_cell_length_b                   9.450(5)
_cell_length_c                   17.389(5)
_cell_angle_alpha                83.091(5)
_cell_angle_beta                 89.713(5)
_cell_angle_gamma                74.588(5)
_cell_volume                     1460.27
_exptl_crystal_colour            yellow
_exptl_crystal_description       needle
_cell_formula_units_Z            2
loop_
_atom_site_label
_atom_site_type_symbol
_atom_site_fract_x
_atom_site_fract_y
_atom_site_fract_z
N1 N 0.08745(13) 0.20175(14) 1.00692(7)
N2 N 1.11482(15) 0.46509(15) 0.63061(8)
N3 N -0.52632(14) 0.22224(16) 1.19001(8)
C1 C -0.17120(15) 0.23972(16) 1.04035(9)
C2 C 1.00478(17) 0.40073(17) 0.66808(9)
C3 C -0.41016(16) 0.22798(16) 1.14134(9)
C4 C 0.19388(16) 0.23158(16) 0.95348(9)
C5 C 1.22628(16) 0.37544(17) 0.58751(9)
C6 C 0.29483(17) 0.39976(17) 0.86846(10)
H1 H 0.2857 0.4954 0.8447
C7 C 0.41898(16) 0.28738(16) 0.85387(8)
C8 C 0.42707(17) 0.14595(17) 0.89096(9)
H2 H 0.5082 0.0679 0.8823
C9 C 0.67395(17) 0.23839(17) 0.79534(9)
H3 H 0.6999 0.1425 0.8209
C10 C 0.78762(17) 0.28697(16) 0.74743(9)
C11 C 0.93925(17) 0.22761(17) 0.76484(10)
H4 H 0.9692 0.1478 0.8034
C12 C -0.25985(16) 0.18096(18) 1.16786(9)
H5 H -0.2381 0.1456 1.2199
C13 C 1.09573(16) 0.61848(17) 0.62676(9)
C14 C 0.74866(17) 0.40121(19) 0.68593(9)
H6 H 0.6485 0.4406 0.6711
C15 C -0.05072(16) 0.24947(16) 0.98776(9)
H7 H -0.0762 0.2932 0.9371
C16 C 0.53567(17) 0.32332(18) 0.80451(9)
H8 H 0.5109 0.4166 0.7760
C17 C -0.43691(16) 0.28193(16) 1.06219(8)
H9 H -0.5345 0.3141 1.0423
C18 C -0.31976(16) 0.28747(16) 1.01403(9)
H10 H -0.3406 0.3244 0.9621
C19 C 1.04695(17) 0.28381(18) 0.72651(10)
H11 H 1.1475 0.2430 0.7401
C20 C 0.31805(17) 0.11921(17) 0.93991(10)
H12 H 0.3278 0.0239 0.9644
C21 C -0.14475(16) 0.18611(17) 1.11874(9)
H13 H -0.0469 0.1531 1.1382
C22 C 0.18475(16) 0.37301(17) 0.91727(10)
H14 H 0.1034 0.4508 0.9260
C23 C -0.67764(17) 0.23360(18) 1.15884(10)
H15 H -0.7261 0.1758 1.1950
H16 H -0.6683 0.1911 1.1104
C24 C 1.19182(19) 0.27840(18) 0.54208(9)
H17 H 1.0951 0.2681 0.5408
C25 C 1.3002(2) 0.19647(19) 0.49848(10)
H18 H 1.2758 0.1314 0.4679
C26 C 0.85464(17) 0.45652(19) 0.64691(9)
H19 H 0.8256 0.5319 0.6060
C27 C 1.14884(18) 0.6976(2) 0.56570(10)
H20 H 1.1991 0.6487 0.5261
C28 C -0.5021(2) 0.18570(19) 1.27400(9)
H21 H -0.5914 0.2351 1.2994
H22 H -0.4210 0.2235 1.2899
C29 C 1.01937(19) 0.6965(2) 0.68458(10)
H23 H 0.9847 0.6459 0.7267
C30 C 1.37248(18) 0.3855(2) 0.58987(11)
H24 H 1.3988 0.4478 0.6215
C31 C 0.9950(2) 0.8472(2) 0.67988(11)
H25 H 0.9404 0.8977 0.7179
C32 C -0.77437(19) 0.3890(2) 1.14503(11)
H26 H -0.7813 0.4332 1.1923
H27 H -0.8724 0.3885 1.1280
H28 H -0.7316 0.4450 1.1060
C33 C 1.1276(2) 0.8481(2) 0.56335(12)
H29 H 1.1663 0.8990 0.5228
C34 C 1.4788(2) 0.3036(2) 0.54565(13)
H30 H 1.5761 0.3124 0.5472
C35 C 1.4439(2) 0.2100(2) 0.49973(12)
H31 H 1.5161 0.1559 0.4696
C36 C -0.4656(3) 0.0228(2) 1.30081(12)
H32 H -0.5482 -0.0144 1.2885
H33 H -0.4466 0.0059 1.3558
H34 H -0.3784 -0.0274 1.2752
C37 C 1.0498(2) 0.9244(2) 0.62026(12)
H35 H 1.0349 1.0261 0.6181
loop_
_geom_bond_atom_site_label_1
_geom_bond_atom_site_label_2
_geom_bond_site_symmetry_1
_geom_bond_site_symmetry_2
N1 C4 1_555 1_555
N2 C2 1_555 1_555
N3 C3 1_555 1_555
C1 C15 1_555 1_555
C2 C19 1_555 1_555
C3 C12 1_555 1_555
C4 C20 1_555 1_555
C5 N2 1_555 1_555
C6 H1 1_555 1_555
C7 C6 1_555 1_555
C8 C7 1_555 1_555
H2 C8 1_555 1_555
C9 H3 1_555 1_555
C10 C9 1_555 1_555
C11 C10 1_555 1_555
H4 C11 1_555 1_555
C12 H5 1_555 1_555
C13 N2 1_555 1_555
C14 C10 1_555 1_555
H6 C14 1_555 1_555
C15 N1 1_555 1_555
H7 C15 1_555 1_555
C16 C7 1_555 1_555
H8 C16 1_555 1_555
C17 C3 1_555 1_555
H9 C17 1_555 1_555
C18 C1 1_555 1_555
H10 C18 1_555 1_555
C19 C11 1_555 1_555
H11 C19 1_555 1_555
C20 C8 1_555 1_555
H12 C20 1_555 1_555
C21 C1 1_555 1_555
H13 C21 1_555 1_555
C22 C4 1_555 1_555
H14 C22 1_555 1_555
C23 N3 1_555 1_555
H15 C23 1_555 1_555
H16 C23 1_555 1_555
C24 C5 1_555 1_555
H17 C24 1_555 1_555
C25 C24 1_555 1_555
H18 C25 1_555 1_555
C26 C2 1_555 1_555
H19 C26 1_555 1_555
C27 C13 1_555 1_555
H20 C27 1_555 1_555
C28 N3 1_555 1_555
H21 C28 1_555 1_555
H22 C28 1_555 1_555
C29 C13 1_555 1_555
H23 C29 1_555 1_555
C30 C5 1_555 1_555
H24 C30 1_555 1_555
C31 C29 1_555 1_555
H25 C31 1_555 1_555
C32 C23 1_555 1_555
H26 C32 1_555 1_555
H27 C32 1_555 1_555
H28 C32 1_555 1_555
C33 C27 1_555 1_555
H29 C33 1_555 1_555
C34 C30 1_555 1_555
H30 C34 1_555 1_555
C35 C25 1_555 1_555
H31 C35 1_555 1_555
C36 C28 1_555 1_555
H32 C36 1_555 1_555
H33 C36 1_555 1_555
H34 C36 1_555 1_555
C37 C31 1_555 1_555
H35 C37 1_555 1_555
C6 C22 1_555 1_555
C9 C16 1_555 1_555
C12 C21 1_555 1_555
C14 C26 1_555 1_555
C17 C18 1_555 1_555
C33 C37 1_555 1_555
C34 C35 1_555 1_555

#END
