
#######################################################################
#
#                 Cambridge Crystallographic Data Centre
#                                CCDC 
#
#######################################################################
#
# If this CIF has been generated from an entry in the Cambridge 
# Structural Database, then it will include bibliographic, chemical, 
# crystal, experimental, refinement or atomic coordinate data resulting 
# from the CCDC's data processing and validation procedures.
#
#######################################################################

data_URIRIY
_chemical_formula_moiety         'C37 H35 N3 O1'
_chemical_name_systematic        
5-(diethylamino)-2-((4-(2-(4-(diphenylamino)phenyl)vinyl)phenyl)carbonoimidoyl)phenol
_symmetry_cell_setting           triclinic
_symmetry_space_group_name_H-M   'P -1'
_symmetry_Int_Tables_number      2
_space_group_name_Hall           '-P 1'
loop_
_symmetry_equiv_pos_site_id
_symmetry_equiv_pos_as_xyz
1 x,y,z
2 -x,-y,-z
_cell_length_a                   9.281(5)
_cell_length_b                   9.497(5)
_cell_length_c                   17.464(5)
_cell_angle_alpha                83.778(5)
_cell_angle_beta                 89.848(5)
_cell_angle_gamma                74.469(5)
_cell_volume                     1473.8
_exptl_crystal_colour            orange
_exptl_crystal_description       cube
_cell_formula_units_Z            2
loop_
_atom_site_label
_atom_site_type_symbol
_atom_site_fract_x
_atom_site_fract_y
_atom_site_fract_z
N1 N 0.91473(19) 0.2975(2) 0.50373(11)
O1 O 0.99300(16) 0.3868(2) 0.36803(10)
H1 H 0.9373 0.3810 0.4041
N2 N -0.1151(2) 0.0335(2) 0.87333(12)
C1 C 1.1699(2) 0.2634(2) 0.46931(12)
N3 N 1.5130(2) 0.2872(2) 0.31433(12)
C2 C 0.8067(2) 0.2642(2) 0.55472(13)
C3 C 1.1371(2) 0.3276(2) 0.39265(13)
C4 C 1.4008(2) 0.2799(2) 0.36474(13)
C5 C 1.0552(2) 0.2480(2) 0.52186(13)
H2 H 1.0830 0.2003 0.5711
C6 C 0.5679(3) 0.3438(2) 0.61260(14)
H3 H 0.4827 0.4192 0.6192
C7 C -0.0036(2) 0.0933(2) 0.83685(14)
C8 C 0.2170(2) 0.2008(2) 0.75889(13)
C9 C 0.5820(2) 0.2036(2) 0.65130(13)
C10 C 0.4667(2) 0.1668(3) 0.70019(13)
H4 H 0.4928 0.0733 0.7273
C11 C 1.4344(2) 0.2184(2) 0.44237(13)
H5 H 1.5335 0.1837 0.4599
C12 C -0.2278(2) 0.1252(2) 0.91490(13)
C13 C -0.0988(2) -0.1190(3) 0.87683(14)
C14 C 0.0650(2) 0.2667(2) 0.74356(14)
H6 H 0.0362 0.3488 0.7072
C15 C 0.2542(2) 0.0844(3) 0.81752(13)
H7 H 0.3544 0.0411 0.8310
C16 C 1.3217(2) 0.2102(2) 0.49127(13)
H8 H 1.3466 0.1672 0.5416
C17 C -0.1949(3) 0.2253(3) 0.95866(14)
H9 H -0.0984 0.2366 0.9595
C18 C 1.2486(2) 0.3343(2) 0.34167(13)
H10 H 1.2233 0.3755 0.2911
C19 C -0.0432(2) 0.2130(2) 0.78096(15)
H11 H -0.1437 0.2575 0.7686
C20 C 1.6675(2) 0.2733(3) 0.34293(15)
H12 H 1.6623 0.3116 0.3925
H13 H 1.7133 0.3333 0.3074
C21 C 0.6773(2) 0.3726(2) 0.56510(14)
H14 H 0.6641 0.4665 0.5395
C22 C 0.3294(3) 0.2486(3) 0.71131(14)
H15 H 0.3023 0.3442 0.6868
C23 C 0.1467(3) 0.0321(3) 0.85575(14)
H16 H 0.1749 -0.0454 0.8948
C24 C -0.0300(3) -0.1963(3) 0.81781(15)
H17 H 0.0019 -0.1468 0.7750
C25 C 0.8217(2) 0.1237(3) 0.59168(15)
H18 H 0.9069 0.0487 0.5846
C26 C -0.1491(2) -0.1957(3) 0.93858(14)
H19 H -0.1958 -0.1461 0.9788
C27 C 0.7111(2) 0.0948(3) 0.63882(15)
H20 H 0.7232 -0.0001 0.6629
C28 C -0.3041(3) 0.3091(3) 1.00146(15)
H21 H -0.2805 0.3758 1.0312
C29 C -0.1303(3) -0.3448(3) 0.94066(18)
H22 H -0.1660 -0.3946 0.9821
C30 C -0.3736(3) 0.1138(3) 0.91235(17)
H23 H -0.3988 0.0497 0.8815
C31 C 1.7648(3) 0.1195(3) 0.35160(18)
H24 H 1.7247 0.0608 0.3898
H25 H 1.8639 0.1188 0.3674
H26 H 1.7683 0.0796 0.3032
C32 C 1.4847(3) 0.3216(3) 0.23075(15)
H27 H 1.3991 0.2887 0.2167
H28 H 1.5706 0.2674 0.2044
C33 C -0.0086(3) -0.3470(3) 0.82235(17)
H29 H 0.0416 -0.3984 0.7835
C34 C -0.4476(3) 0.2942(3) 1.00026(17)
H30 H -0.5209 0.3494 1.0296
C35 C -0.0599(3) -0.4210(3) 0.88286(19)
H31 H -0.0473 -0.5218 0.8849
C36 C 1.4558(4) 0.4811(3) 0.20390(18)
H32 H 1.3741 0.5361 0.2315
H33 H 1.4309 0.4977 0.1498
H34 H 1.5438 0.5125 0.2131
C37 C -0.4809(3) 0.1974(3) 0.9554(2)
H35 H -0.5779 0.1878 0.9540
loop_
_geom_bond_atom_site_label_1
_geom_bond_atom_site_label_2
_geom_bond_site_symmetry_1
_geom_bond_site_symmetry_2
N1 C2 1_555 1_555
O1 H1 1_555 1_555
N2 C7 1_555 1_555
C1 C3 1_555 1_555
N3 C4 1_555 1_555
C2 C21 1_555 1_555
C3 O1 1_555 1_555
C4 C11 1_555 1_555
C5 N1 1_555 1_555
H2 C5 1_555 1_555
C6 H3 1_555 1_555
C7 C19 1_555 1_555
C8 C14 1_555 1_555
C9 C6 1_555 1_555
C10 C9 1_555 1_555
H4 C10 1_555 1_555
C11 H5 1_555 1_555
C12 N2 1_555 1_555
C13 N2 1_555 1_555
C14 H6 1_555 1_555
C15 C8 1_555 1_555
H7 C15 1_555 1_555
C16 C1 1_555 1_555
H8 C16 1_555 1_555
C17 C12 1_555 1_555
H9 C17 1_555 1_555
C18 C3 1_555 1_555
H10 C18 1_555 1_555
C19 C14 1_555 1_555
H11 C19 1_555 1_555
C20 N3 1_555 1_555
H12 C20 1_555 1_555
H13 C20 1_555 1_555
C21 C6 1_555 1_555
H14 C21 1_555 1_555
C22 C8 1_555 1_555
H15 C22 1_555 1_555
C23 C7 1_555 1_555
H16 C23 1_555 1_555
C24 C13 1_555 1_555
H17 C24 1_555 1_555
C25 C2 1_555 1_555
H18 C25 1_555 1_555
C26 C13 1_555 1_555
H19 C26 1_555 1_555
C27 C9 1_555 1_555
H20 C27 1_555 1_555
C28 C17 1_555 1_555
H21 C28 1_555 1_555
C29 C26 1_555 1_555
H22 C29 1_555 1_555
C30 C12 1_555 1_555
H23 C30 1_555 1_555
C31 C20 1_555 1_555
H24 C31 1_555 1_555
H25 C31 1_555 1_555
H26 C31 1_555 1_555
C32 N3 1_555 1_555
H27 C32 1_555 1_555
H28 C32 1_555 1_555
C33 C24 1_555 1_555
H29 C33 1_555 1_555
C34 C28 1_555 1_555
H30 C34 1_555 1_555
C35 C29 1_555 1_555
H31 C35 1_555 1_555
C36 C32 1_555 1_555
H32 C36 1_555 1_555
H33 C36 1_555 1_555
H34 C36 1_555 1_555
C37 C30 1_555 1_555
H35 C37 1_555 1_555
C1 C5 1_555 1_555
C4 C18 1_555 1_555
C10 C22 1_555 1_555
C11 C16 1_555 1_555
C15 C23 1_555 1_555
C25 C27 1_555 1_555
C33 C35 1_555 1_555
C34 C37 1_555 1_555

#END
