
#######################################################################
#
#                 Cambridge Crystallographic Data Centre
#                                CCDC 
#
#######################################################################
#
# If this CIF has been generated from an entry in the Cambridge 
# Structural Database, then it will include bibliographic, chemical, 
# crystal, experimental, refinement or atomic coordinate data resulting 
# from the CCDC's data processing and validation procedures.
#
#######################################################################

data_URISOF
_chemical_formula_moiety         'C31 H25 F2 N1 O4'
_chemical_name_systematic        
(3S,3aS,6S,7aS)-3-(4-(benzyloxy)phenyl)-2,6-bis(4-fluorophenyl)hexahydro-4H-pyrano[3,4-d][1,2]oxazol-4-one
_symmetry_cell_setting           monoclinic
_symmetry_space_group_name_H-M   'P 21'
_symmetry_Int_Tables_number      4
_space_group_name_Hall           'P 2yb'
loop_
_symmetry_equiv_pos_site_id
_symmetry_equiv_pos_as_xyz
1 x,y,z
2 -x,1/2+y,-z
_cell_length_a                   10.7715(5)
_cell_length_b                   9.7199(5)
_cell_length_c                   12.6088(7)
_cell_angle_alpha                90
_cell_angle_beta                 104.709(4)
_cell_angle_gamma                90
_cell_volume                     1276.85
_chemical_melting_point          '152-154 deg.C'
_cell_formula_units_Z            2
loop_
_atom_site_label
_atom_site_type_symbol
_atom_site_fract_x
_atom_site_fract_y
_atom_site_fract_z
O1 O -0.1958(4) 0.1405(5) 0.4894(3)
F1 F -0.6029(3) 0.6793(5) 0.7279(3)
O2 O 0.1814(4) -0.1610(3) 0.9283(4)
F2 F 0.5687(3) 0.0272(5) 0.6114(3)
O3 O -0.0468(3) 0.4615(4) 0.7706(3)
C1 C 0.4809(7) -0.4305(11) 1.0641(6)
H1 H 0.5674 -0.4070 1.0860
C2 C 0.3929(6) -0.3434(9) 0.9946(6)
H2 H 0.4192 -0.2605 0.9707
C3 C 0.2684(5) -0.3832(6) 0.9632(5)
C4 C 0.1664(5) -0.2980(5) 0.8877(5)
H3 H 0.1767 -0.3013 0.8135
H4 H 0.0817 -0.3325 0.8871
C5 C 0.0930(5) -0.0665(6) 0.8758(5)
C6 C 0.1077(5) 0.0643(6) 0.9227(5)
H5 H 0.1728 0.0813 0.9856
C7 C 0.0254(5) 0.1681(6) 0.8756(4)
H6 H 0.0345 0.2543 0.9087
C8 C -0.0708(4) 0.1484(5) 0.7801(4)
C9 C -0.1625(4) 0.2604(5) 0.7258(4)
H7 H -0.2506 0.2256 0.7113
C10 C -0.1401(4) 0.3228(5) 0.6173(4)
H8 H -0.2181 0.3731 0.5808
C11 C -0.1146(4) 0.2197(6) 0.5370(4)
O4 O 0.0016(3) 0.2137(4) 0.5165(3)
C12 C 0.1053(4) 0.3103(6) 0.5604(4)
H9 H 0.1012 0.3849 0.5073
C13 C 0.2277(4) 0.2329(5) 0.5710(4)
C14 C 0.3323(5) 0.2959(7) 0.5491(4)
H10 H 0.3258 0.3866 0.5250
C15 C 0.4460(5) 0.2273(8) 0.5622(5)
H11 H 0.5162 0.2704 0.5462
C16 C 0.4551(5) 0.0970(8) 0.5984(6)
C17 C -0.0025(5) -0.0891(5) 0.7815(5)
H12 H -0.0118 -0.1759 0.7495
C18 C -0.0844(5) 0.0156(5) 0.7342(5)
H13 H -0.1493 -0.0018 0.6712
C19 C 0.3547(5) 0.0277(7) 0.6214(5)
H14 H 0.3632 -0.0630 0.6457
C20 C 0.2398(5) 0.0980(6) 0.6070(5)
H15 H 0.1696 0.0536 0.6218
C21 C 0.0962(4) 0.3714(5) 0.6673(4)
H16 H 0.1589 0.4446 0.6878
H17 H 0.1163 0.3014 0.7239
C22 C -0.0360(4) 0.4283(5) 0.6603(4)
H18 H -0.0510 0.5107 0.6141
N1 N -0.1505(3) 0.3843(4) 0.7954(4)
C23 C -0.2656(4) 0.4655(5) 0.7743(4)
C24 C -0.3680(5) 0.4082(7) 0.8050(6)
H19 H -0.3604 0.3208 0.8361
C25 C -0.4827(5) 0.4802(8) 0.7898(6)
H20 H -0.5520 0.4428 0.8113
C26 C -0.4908(5) 0.6054(8) 0.7430(5)
C27 C -0.3921(6) 0.6649(8) 0.7145(5)
H21 H -0.4009 0.7529 0.6847
C28 C -0.2769(6) 0.5950(6) 0.7295(5)
H22 H -0.2079 0.6354 0.7094
C29 C 0.2274(9) -0.5052(8) 1.0021(7)
H23 H 0.1412 -0.5300 0.9816
C30 C 0.3131(14) -0.5859(11) 1.0690(9)
H24 H 0.2863 -0.6674 1.0948
C31 C 0.4384(11) -0.5501(10) 1.0995(8)
H25 H 0.4969 -0.6082 1.1454
loop_
_geom_bond_atom_site_label_1
_geom_bond_atom_site_label_2
_geom_bond_site_symmetry_1
_geom_bond_site_symmetry_2
O1 C11 1_555 1_555
F1 C26 1_555 1_555
O2 C4 1_555 1_555
F2 C16 1_555 1_555
O3 C22 1_555 1_555
C1 H1 1_555 1_555
C2 C1 1_555 1_555
H2 C2 1_555 1_555
C3 C2 1_555 1_555
C4 C3 1_555 1_555
H3 C4 1_555 1_555
H4 C4 1_555 1_555
C5 O2 1_555 1_555
C6 C5 1_555 1_555
H5 C6 1_555 1_555
C7 C6 1_555 1_555
H6 C7 1_555 1_555
C8 C7 1_555 1_555
C9 C8 1_555 1_555
H7 C9 1_555 1_555
C10 C9 1_555 1_555
H8 C10 1_555 1_555
C11 C10 1_555 1_555
O4 C11 1_555 1_555
C12 O4 1_555 1_555
H9 C12 1_555 1_555
C13 C12 1_555 1_555
C14 C13 1_555 1_555
H10 C14 1_555 1_555
C15 C14 1_555 1_555
H11 C15 1_555 1_555
C16 C15 1_555 1_555
C17 C5 1_555 1_555
H12 C17 1_555 1_555
C18 C8 1_555 1_555
H13 C18 1_555 1_555
C19 C16 1_555 1_555
H14 C19 1_555 1_555
C20 C13 1_555 1_555
H15 C20 1_555 1_555
C21 C12 1_555 1_555
H16 C21 1_555 1_555
H17 C21 1_555 1_555
C22 C10 1_555 1_555
H18 C22 1_555 1_555
N1 O3 1_555 1_555
C23 N1 1_555 1_555
C24 C23 1_555 1_555
H19 C24 1_555 1_555
C25 C24 1_555 1_555
H20 C25 1_555 1_555
C26 C25 1_555 1_555
C27 C26 1_555 1_555
H21 C27 1_555 1_555
C28 C23 1_555 1_555
H22 C28 1_555 1_555
C29 C3 1_555 1_555
H23 C29 1_555 1_555
C30 C29 1_555 1_555
H24 C30 1_555 1_555
C31 C1 1_555 1_555
H25 C31 1_555 1_555
C9 N1 1_555 1_555
C17 C18 1_555 1_555
C19 C20 1_555 1_555
C21 C22 1_555 1_555
C27 C28 1_555 1_555
C30 C31 1_555 1_555

#END
