
#######################################################################
#
#                 Cambridge Crystallographic Data Centre
#                                CCDC 
#
#######################################################################
#
# If this CIF has been generated from an entry in the Cambridge 
# Structural Database, then it will include bibliographic, chemical, 
# crystal, experimental, refinement or atomic coordinate data resulting 
# from the CCDC's data processing and validation procedures.
#
#######################################################################

data_URITAS
_chemical_formula_moiety         'C31 H25 F2 N1 O3'
_chemical_name_systematic        
'(1 R,6R)-3-((4-(benzyloxy)phenyl)((4-fluorophenyl)amino)methyl)-6-(4-fluorophenyl)-5,6-dihydro-2H-pyran-2-one'
_symmetry_cell_setting           orthorhombic
_symmetry_space_group_name_H-M   'P 21 21 21'
_symmetry_Int_Tables_number      19
_space_group_name_Hall           'P 2ac 2ab'
loop_
_symmetry_equiv_pos_site_id
_symmetry_equiv_pos_as_xyz
1 x,y,z
2 1/2+x,1/2-y,-z
3 -x,1/2+y,1/2-z
4 1/2-x,-y,1/2+z
_cell_length_a                   7.8450(2)
_cell_length_b                   11.3855(3)
_cell_length_c                   27.6202(7)
_cell_angle_alpha                90
_cell_angle_beta                 90
_cell_angle_gamma                90
_cell_volume                     2467.02
_exptl_crystal_colour            colorless
_chemical_melting_point          '170-172 deg.C'
_cell_formula_units_Z            4
loop_
_atom_site_label
_atom_site_type_symbol
_atom_site_fract_x
_atom_site_fract_y
_atom_site_fract_z
F1 F 0.0302(3) 0.47029(16) 0.47263(5)
F2 F 0.5595(3) 0.76104(16) 0.48751(4)
N1 N 0.4705(2) 0.84043(15) 0.29242(6)
H1 H 0.545(3) 0.894(2) 0.2805(8)
O1 O 0.2610(2) 0.53922(12) 0.22627(5)
O2 O 0.00262(18) 0.58271(12) 0.25010(5)
O3 O 0.5280(2) 0.87779(13) 0.06392(5)
C1 C 0.1702(2) 0.60965(16) 0.24575(6)
C2 C 0.2290(2) 0.72443(15) 0.26328(6)
C3 C 0.1154(2) 0.80366(16) 0.27771(8)
C4 C -0.0698(3) 0.77680(19) 0.27906(10)
C5 C -0.0954(3) 0.64650(17) 0.28618(7)
C6 C -0.0541(2) 0.60155(16) 0.33619(7)
C7 C -0.1108(3) 0.6602(2) 0.37668(8)
H2 H -0.1689 0.7308 0.3729
C8 C -0.0838(4) 0.6170(2) 0.42261(9)
H3 H -0.1239 0.6569 0.4497
C9 C 0.0035(3) 0.5141(2) 0.42735(8)
C10 C 0.0624(3) 0.4530(2) 0.38857(9)
H4 H 0.1217 0.3830 0.3928
C11 C 0.0329(3) 0.49664(18) 0.34290(8)
H5 H 0.0718 0.4552 0.3161
C12 C 0.4193(2) 0.74761(15) 0.25952(6)
H6 H 0.4810 0.6756 0.2679
C13 C 0.4863(2) 0.81951(16) 0.34201(7)
C14 C 0.4221(3) 0.71872(19) 0.36423(7)
H7 H 0.3647 0.6629 0.3459
C15 C 0.4435(3) 0.7012(2) 0.41343(8)
H8 H 0.3994 0.6345 0.4283
C16 C 0.5297(3) 0.7828(2) 0.43983(7)
C17 C 0.5926(4) 0.8843(2) 0.41951(7)
H9 H 0.6496 0.9393 0.4384
C18 C 0.5697(3) 0.90263(18) 0.37084(7)
H10 H 0.6102 0.9714 0.3568
C19 C 0.4622(2) 0.78114(15) 0.20766(6)
C20 C 0.3992(3) 0.88519(17) 0.18843(7)
H11 H 0.3388 0.9362 0.2084
C21 C 0.4238(3) 0.91457(17) 0.14090(7)
H12 H 0.3795 0.9845 0.1289
C22 C 0.5143(2) 0.84028(17) 0.11078(7)
C23 C 0.5816(3) 0.73681(18) 0.12911(7)
H13 H 0.6437 0.6866 0.1092
C24 C 0.5553(2) 0.70903(17) 0.17738(7)
H14 H 0.6016 0.6400 0.1897
C25 C 0.5874(3) 0.7996(2) 0.02784(7)
H15 H 0.5278 0.7253 0.0302
H16 H 0.7083 0.7852 0.0322
C26 C 0.5556(3) 0.85456(19) -0.02109(7)
C27 C 0.4509(4) 0.9500(2) -0.02743(8)
H17 H 0.3988 0.9845 -0.0007
C28 C 0.4220(4) 0.9957(3) -0.07367(10)
H18 H 0.3506 1.0601 -0.0779
C29 C 0.5001(4) 0.9445(3) -0.11284(9)
H19 H 0.4819 0.9745 -0.1437
C30 C 0.6045(4) 0.8497(3) -0.10659(9)
H20 H 0.6574 0.8154 -0.1332
C31 C 0.6312(3) 0.8053(2) -0.06120(8)
H21 H 0.7019 0.7404 -0.0574
H22 H -0.213(3) 0.625(2) 0.2785(8)
H23 H -0.124(3) 0.799(2) 0.2480(9)
H24 H -0.126(3) 0.817(2) 0.3043(9)
H25 H 0.157(3) 0.872(2) 0.2889(9)
loop_
_geom_bond_atom_site_label_1
_geom_bond_atom_site_label_2
_geom_bond_site_symmetry_1
_geom_bond_site_symmetry_2
F1 C9 1_555 1_555
F2 C16 1_555 1_555
N1 H1 1_555 1_555
O1 C1 1_555 1_555
O2 C1 1_555 1_555
O3 C22 1_555 1_555
C1 C2 1_555 1_555
C2 C3 1_555 1_555
C3 C4 1_555 1_555
C4 C5 1_555 1_555
C5 O2 1_555 1_555
C6 C5 1_555 1_555
C7 C6 1_555 1_555
H2 C7 1_555 1_555
C8 C7 1_555 1_555
H3 C8 1_555 1_555
C9 C8 1_555 1_555
C10 C9 1_555 1_555
H4 C10 1_555 1_555
C11 C6 1_555 1_555
H5 C11 1_555 1_555
C12 N1 1_555 1_555
H6 C12 1_555 1_555
C13 N1 1_555 1_555
C14 C13 1_555 1_555
H7 C14 1_555 1_555
C15 C14 1_555 1_555
H8 C15 1_555 1_555
C16 C15 1_555 1_555
C17 C16 1_555 1_555
H9 C17 1_555 1_555
C18 C13 1_555 1_555
H10 C18 1_555 1_555
C19 C12 1_555 1_555
C20 C19 1_555 1_555
H11 C20 1_555 1_555
C21 C20 1_555 1_555
H12 C21 1_555 1_555
C22 C21 1_555 1_555
C23 C22 1_555 1_555
H13 C23 1_555 1_555
C24 C19 1_555 1_555
H14 C24 1_555 1_555
C25 O3 1_555 1_555
H15 C25 1_555 1_555
H16 C25 1_555 1_555
C26 C25 1_555 1_555
C27 C26 1_555 1_555
H17 C27 1_555 1_555
C28 C27 1_555 1_555
H18 C28 1_555 1_555
C29 C28 1_555 1_555
H19 C29 1_555 1_555
C30 C29 1_555 1_555
H20 C30 1_555 1_555
C31 C26 1_555 1_555
H21 C31 1_555 1_555
H22 C5 1_555 1_555
H23 C4 1_555 1_555
H24 C4 1_555 1_555
H25 C3 1_555 1_555
C2 C12 1_555 1_555
C10 C11 1_555 1_555
C17 C18 1_555 1_555
C23 C24 1_555 1_555
C30 C31 1_555 1_555

#END
