
#######################################################################
#
#                 Cambridge Crystallographic Data Centre
#                                CCDC 
#
#######################################################################
#
# If this CIF has been generated from an entry in the Cambridge 
# Structural Database, then it will include bibliographic, chemical, 
# crystal, experimental, refinement or atomic coordinate data resulting 
# from the CCDC's data processing and validation procedures.
#
#######################################################################

data_URIYIF
_chemical_formula_moiety         'C24 H23 N1'
_chemical_name_systematic        
3-benzyl-4-methyl-1-(2-methylbenzyl)-1H-indole
_symmetry_cell_setting           triclinic
_symmetry_space_group_name_H-M   'P -1'
_symmetry_Int_Tables_number      2
_space_group_name_Hall           '-P 1'
loop_
_symmetry_equiv_pos_site_id
_symmetry_equiv_pos_as_xyz
1 x,y,z
2 -x,-y,-z
_cell_length_a                   8.9502(6)
_cell_length_b                   9.1881(5)
_cell_length_c                   11.6731(8)
_cell_angle_alpha                83.963(6)
_cell_angle_beta                 70.783(5)
_cell_angle_gamma                77.642(5)
_cell_volume                     884.821
_exptl_crystal_colour            colorless
_exptl_crystal_description       plate
_cell_formula_units_Z            2
loop_
_atom_site_label
_atom_site_type_symbol
_atom_site_fract_x
_atom_site_fract_y
_atom_site_fract_z
N1 N 0.53300(11) 0.60607(10) 0.59911(8)
C1 C 0.55606(12) 0.44664(11) 0.75620(9)
C2 C 0.39311(12) 0.53077(11) 0.78689(9)
C3 C 0.65456(12) 0.81456(11) 0.47596(9)
C4 C 0.09940(12) 0.61932(12) 0.88935(9)
C5 C 0.38672(13) 0.62485(12) 0.68913(10)
H1 H 0.2954 0.6926 0.6842
C6 C 0.63935(13) 0.49787(11) 0.63816(10)
C7 C 0.80100(13) 0.43995(12) 0.57728(10)
H2 H 0.8533 0.4754 0.5000
C8 C 0.68079(13) 0.85773(12) 0.57703(10)
H3 H 0.6421 0.8097 0.6520
C9 C 0.63898(13) 0.33102(12) 0.81492(10)
C10 C 0.70923(13) 0.88978(12) 0.36382(10)
C11 C 0.01514(13) 0.57620(13) 0.82145(10)
H4 H 0.0510 0.4836 0.7863
C12 C 0.56766(13) 0.68817(12) 0.48344(9)
H5 H 0.4669 0.7284 0.4671
H6 H 0.6327 0.6193 0.4203
C13 C 0.25251(12) 0.52070(12) 0.90063(9)
H7 H 0.2373 0.4182 0.9159
H8 H 0.2761 0.5503 0.9692
C14 C 0.79930(13) 0.27481(12) 0.75356(11)
H9 H 0.8560 0.1990 0.7911
C15 C 0.79510(14) 1.00185(12) 0.35555(11)
H10 H 0.8346 1.0501 0.2809
C16 C 0.55572(14) 0.26657(13) 0.93840(10)
H11 H 0.5080 0.3452 0.9949
H12 H 0.6331 0.1951 0.9660
H13 H 0.4732 0.2185 0.9328
C17 C 0.04177(14) 0.75736(12) 0.94210(10)
H14 H 0.0952 0.7876 0.9889
C18 C 0.87944(13) 0.32792(12) 0.63691(11)
H15 H 0.9871 0.2868 0.5993
C19 C -0.12099(14) 0.66879(15) 0.80542(11)
H16 H -0.1759 0.6382 0.7599
C20 C 0.76424(15) 0.97198(13) 0.56742(11)
H17 H 0.7806 1.0006 0.6358
C21 C -0.09461(15) 0.85095(13) 0.92599(11)
H18 H -0.1314 0.9432 0.9616
C22 C -0.17566(14) 0.80742(14) 0.85727(11)
H19 H -0.2662 0.8705 0.8458
C23 C 0.82296(14) 1.04302(13) 0.45612(12)
H20 H 0.8809 1.1181 0.4489
C24 C 0.67514(17) 0.85199(14) 0.25384(10)
H21 H 0.7361 0.7551 0.2279
H22 H 0.7054 0.9249 0.1897
H23 H 0.5622 0.8518 0.2738
loop_
_geom_bond_atom_site_label_1
_geom_bond_atom_site_label_2
_geom_bond_site_symmetry_1
_geom_bond_site_symmetry_2
N1 C5 1_555 1_555
C1 C2 1_555 1_555
C2 C5 1_555 1_555
C3 C8 1_555 1_555
C4 C11 1_555 1_555
C5 H1 1_555 1_555
C6 N1 1_555 1_555
C7 C6 1_555 1_555
H2 C7 1_555 1_555
C8 H3 1_555 1_555
C9 C1 1_555 1_555
C10 C3 1_555 1_555
C11 H4 1_555 1_555
C12 N1 1_555 1_555
H5 C12 1_555 1_555
H6 C12 1_555 1_555
C13 C2 1_555 1_555
H7 C13 1_555 1_555
H8 C13 1_555 1_555
C14 C9 1_555 1_555
H9 C14 1_555 1_555
C15 C10 1_555 1_555
H10 C15 1_555 1_555
C16 C9 1_555 1_555
H11 C16 1_555 1_555
H12 C16 1_555 1_555
H13 C16 1_555 1_555
C17 C4 1_555 1_555
H14 C17 1_555 1_555
C18 C7 1_555 1_555
H15 C18 1_555 1_555
C19 C11 1_555 1_555
H16 C19 1_555 1_555
C20 C8 1_555 1_555
H17 C20 1_555 1_555
C21 C17 1_555 1_555
H18 C21 1_555 1_555
C22 C19 1_555 1_555
H19 C22 1_555 1_555
C23 C15 1_555 1_555
H20 C23 1_555 1_555
C24 C10 1_555 1_555
H21 C24 1_555 1_555
H22 C24 1_555 1_555
H23 C24 1_555 1_555
C1 C6 1_555 1_555
C3 C12 1_555 1_555
C4 C13 1_555 1_555
C14 C18 1_555 1_555
C20 C23 1_555 1_555
C21 C22 1_555 1_555

#END
