
#######################################################################
#
#                 Cambridge Crystallographic Data Centre
#                                CCDC 
#
#######################################################################
#
# If this CIF has been generated from an entry in the Cambridge 
# Structural Database, then it will include bibliographic, chemical, 
# crystal, experimental, refinement or atomic coordinate data resulting 
# from the CCDC's data processing and validation procedures.
#
#######################################################################

data_URIZAY
_chemical_formula_moiety         'C22 H22 N2 O1'
_chemical_name_systematic        
(4aR*,9aR*)-4a,9-diallyl-3-phenyl-4,4a,9,9a-tetrahydro-[1,2]oxazino[6,5-b]indole
_chemical_properties_biological  'activity against leishmania panamensis'
_symmetry_cell_setting           triclinic
_symmetry_space_group_name_H-M   'P -1'
_symmetry_Int_Tables_number      2
_space_group_name_Hall           '-P 1'
loop_
_symmetry_equiv_pos_site_id
_symmetry_equiv_pos_as_xyz
1 x,y,z
2 -x,-y,-z
_cell_length_a                   9.059(2)
_cell_length_b                   9.9601(19)
_cell_length_c                   11.1789(18)
_cell_angle_alpha                114.934(8)
_cell_angle_beta                 101.127(13)
_cell_angle_gamma                92.311(14)
_cell_volume                     889.017
_exptl_crystal_colour            colorless
_exptl_crystal_description       needle
_cell_formula_units_Z            2
loop_
_atom_site_label
_atom_site_type_symbol
_atom_site_fract_x
_atom_site_fract_y
_atom_site_fract_z
O1 O 0.66318(9) 0.53230(9) 0.00644(8)
N1 N 0.79892(11) 0.32084(12) -0.07264(10)
N2 N 0.72589(11) 0.62271(11) -0.04765(10)
C1 C 0.83746(13) 0.27615(13) -0.19711(12)
C2 C 0.97545(14) 0.23886(13) -0.23072(12)
C3 C 0.57990(13) 0.32181(13) -0.22858(12)
C4 C 0.65229(13) 0.37208(13) -0.07605(12)
C5 C 0.71085(13) 0.26780(13) -0.29535(12)
C6 C 0.65764(13) 0.58786(13) -0.17082(12)
C7 C 0.71380(13) 0.68033(14) -0.23171(12)
C8 C 0.53099(13) 0.45957(14) -0.24616(12)
C9 C 0.71915(14) 0.21905(14) -0.42902(13)
C10 C 0.98192(14) 0.19022(14) -0.36659(13)
C11 C 0.90349(14) 0.35074(14) 0.05450(12)
C12 C 0.70958(15) 0.62123(15) -0.37020(13)
C13 C 0.44298(14) 0.19792(14) -0.28059(13)
C14 C 0.85624(15) 0.17853(14) -0.46543(13)
C15 C 0.77864(15) 0.82921(14) -0.14817(13)
C16 C 0.48176(15) 0.06805(14) -0.25171(13)
C17 C 0.83718(16) 0.91562(15) -0.20214(14)
C18 C 0.76947(15) 0.70872(15) -0.42360(13)
C19 C 0.83254(15) 0.85576(15) -0.34034(14)
C20 C 0.83381(16) 0.29400(17) 0.13865(14)
C21 C 0.8479(2) 0.3709(2) 0.27023(17)
C22 C 0.41395(19) 0.02023(18) -0.18008(16)
H1 H 0.442(2) 0.491(2) -0.2060(18)
H2 H 0.360(2) 0.242(2) -0.2376(18)
H3 H 0.590(2) 0.331(2) -0.0310(18)
H4 H 0.502(2) 0.437(2) -0.3444(18)
H5 H 0.942(2) 0.462(2) 0.1094(18)
H6 H 0.862(2) 0.144(2) -0.5613(18)
H7 H 0.408(2) 0.163(2) -0.3820(18)
H8 H 1.062(2) 0.248(2) -0.1645(18)
H9 H 1.077(2) 0.161(2) -0.3926(18)
H10 H 0.564(2) 0.017(2) -0.2901(18)
H11 H 0.871(2) 0.918(2) -0.3788(18)
H12 H 0.667(2) 0.516(2) -0.4292(18)
H13 H 0.993(2) 0.300(2) 0.0295(18)
H14 H 0.776(2) 0.192(2) 0.0890(18)
H15 H 0.780(2) 0.872(2) -0.0513(19)
H16 H 0.630(2) 0.211(2) -0.4973(18)
H17 H 0.885(2) 1.021(2) -0.1400(18)
H18 H 0.769(2) 0.665(2) -0.5209(18)
H19 H 0.443(2) -0.064(2) -0.1632(18)
H20 H 0.329(2) 0.072(2) -0.1391(18)
H21 H 0.909(2) 0.474(2) 0.3212(18)
H22 H 0.807(2) 0.330(2) 0.3242(18)
loop_
_geom_bond_atom_site_label_1
_geom_bond_atom_site_label_2
_geom_bond_site_symmetry_1
_geom_bond_site_symmetry_2
O1 N2 1_555 1_555
N1 C1 1_555 1_555
N2 C6 1_555 1_555
C1 C2 1_555 1_555
C2 C10 1_555 1_555
C3 C4 1_555 1_555
C4 O1 1_555 1_555
C5 C1 1_555 1_555
C6 C7 1_555 1_555
C7 C12 1_555 1_555
C8 C3 1_555 1_555
C9 C5 1_555 1_555
C10 C14 1_555 1_555
C11 N1 1_555 1_555
C12 C18 1_555 1_555
C13 C3 1_555 1_555
C14 C9 1_555 1_555
C15 C7 1_555 1_555
C16 C13 1_555 1_555
C17 C15 1_555 1_555
C18 C19 1_555 1_555
C19 C17 1_555 1_555
C20 C11 1_555 1_555
C21 C20 1_555 1_555
C22 C16 1_555 1_555
H1 C8 1_555 1_555
H2 C13 1_555 1_555
H3 C4 1_555 1_555
H4 C8 1_555 1_555
H5 C11 1_555 1_555
H6 C14 1_555 1_555
H7 C13 1_555 1_555
H8 C2 1_555 1_555
H9 C10 1_555 1_555
H10 C16 1_555 1_555
H11 C19 1_555 1_555
H12 C12 1_555 1_555
H13 C11 1_555 1_555
H14 C20 1_555 1_555
H15 C15 1_555 1_555
H16 C9 1_555 1_555
H17 C17 1_555 1_555
H18 C18 1_555 1_555
H19 C22 1_555 1_555
H20 C22 1_555 1_555
H21 C21 1_555 1_555
H22 C21 1_555 1_555
N1 C4 1_555 1_555
C3 C5 1_555 1_555
C6 C8 1_555 1_555

#END
