
#######################################################################
#
#                 Cambridge Crystallographic Data Centre
#                                CCDC 
#
#######################################################################
#
# If this CIF has been generated from an entry in the Cambridge 
# Structural Database, then it will include bibliographic, chemical, 
# crystal, experimental, refinement or atomic coordinate data resulting 
# from the CCDC's data processing and validation procedures.
#
#######################################################################

data_URIZOM
_chemical_formula_moiety         'C29 H17 F3 N2 O5,2(C3 H7 N1 O1)'
_chemical_name_systematic        
'5-(2-(5-fluoro-2-hydroxyphenyl)-4,5-bis(4-fluorophenyl)-1H-imidazol-1-yl)isophthalic acid N,N-dimethylformamide solvate'
_symmetry_cell_setting           triclinic
_symmetry_space_group_name_H-M   'P -1'
_symmetry_Int_Tables_number      2
_space_group_name_Hall           '-P 1'
loop_
_symmetry_equiv_pos_site_id
_symmetry_equiv_pos_as_xyz
1 x,y,z
2 -x,-y,-z
_cell_length_a                   10.3694(3)
_cell_length_b                   12.9551(5)
_cell_length_c                   13.3347(5)
_cell_angle_alpha                87.150(3)
_cell_angle_beta                 86.739(3)
_cell_angle_gamma                66.714(3)
_cell_volume                     1642.03
_exptl_crystal_description       block
_cell_formula_units_Z            2
loop_
_atom_site_label
_atom_site_type_symbol
_atom_site_fract_x
_atom_site_fract_y
_atom_site_fract_z
O1 O 0.64634(10) 0.09956(8) 0.33473(7)
O2 O 0.69810(11) 0.03043(9) 0.49095(7)
N1 N 1.13064(12) -0.05817(9) 0.14865(7)
O3 O 1.14593(11) -0.24636(10) 0.57140(7)
O4 O 1.32144(11) -0.31258(9) 0.45689(8)
C1 C 0.93373(14) -0.01126(10) 0.27185(9)
N2 N 1.23487(12) -0.08842(10) -0.00234(8)
O5 O 1.34755(13) -0.29156(11) -0.06608(9)
C2 C 0.88070(13) -0.02587(10) 0.36751(9)
F1 F 1.07700(12) 0.38504(9) 0.37850(8)
C3 C 1.16056(14) -0.15317(10) 0.31292(9)
F2 F 0.94571(13) -0.38993(9) 0.15056(9)
C4 C 0.96829(14) -0.10263(10) 0.43585(9)
C5 C 1.07283(14) -0.07535(10) 0.24586(9)
C6 C 0.72978(14) 0.04125(10) 0.39532(9)
C7 C 1.10743(13) -0.16677(10) 0.40844(9)
C8 C 1.23652(14) 0.00999(11) 0.03104(9)
F3 F 1.50817(14) 0.23482(11) -0.20971(9)
C9 C 1.14449(14) 0.12295(11) 0.19427(9)
C10 C 1.17153(14) -0.12825(11) 0.06912(9)
C11 C 1.20366(14) -0.25009(11) 0.48070(10)
C12 C 1.04724(17) -0.36514(13) 0.09892(11)
C13 C 1.30586(14) 0.07224(11) -0.03079(9)
C14 C 1.34590(15) 0.04242(13) -0.13062(10)
C15 C 1.17152(14) 0.03084(11) 0.12497(9)
C16 C 1.15657(14) -0.23528(11) 0.05986(9)
C17 C 1.05379(16) -0.26283(12) 0.11301(10)
C18 C 1.21929(15) 0.10546(12) 0.28156(10)
C19 C 1.02361(17) 0.31894(13) 0.23256(12)
C20 C 1.04665(16) 0.23005(12) 0.17126(10)
C21 C 1.19716(17) 0.19385(13) 0.34385(10)
C22 C 1.09973(17) 0.29792(13) 0.31743(11)
C23 C 1.41304(17) 0.09743(15) -0.19140(11)
C24 C 1.24837(15) -0.31302(12) -0.00889(10)
C25 C 1.23816(17) -0.41586(13) -0.02007(12)
C26 C 1.13808(18) -0.44276(13) 0.03410(12)
C27 C 1.44055(17) 0.18097(14) -0.15121(12)
C28 C 1.33711(17) 0.15781(13) 0.00686(11)
C29 C 1.40446(18) 0.21318(15) -0.05343(13)
H1 H 1.2594(18) -0.1969(14) 0.2927(12)
H2 H 0.9329(17) -0.1108(13) 0.4980(13)
H3 H 0.8733(17) 0.0434(14) 0.2251(12)
H4 H 0.996(2) 0.2435(16) 0.1099(15)
H5 H 0.9838(19) -0.2098(15) 0.1575(14)
H6 H 1.3258(17) -0.0179(14) -0.1589(12)
H7 H 1.2902(18) 0.0299(15) 0.2971(12)
H8 H 1.313(2) 0.1787(16) 0.0773(15)
H9 H 1.248(2) 0.1844(16) 0.4062(14)
H10 H 0.958(2) 0.3876(17) 0.2152(15)
H11 H 1.129(2) -0.5144(17) 0.0290(14)
H12 H 1.438(2) 0.0765(17) -0.2582(16)
H13 H 1.430(2) 0.2730(18) -0.0224(16)
H14 H 1.3054(19) -0.4695(16) -0.0670(14)
H15 H 1.213(3) -0.302(2) 0.6151(19)
H16 H 0.600(3) 0.076(2) 0.5050(18)
H17 H 1.332(2) -0.216(2) -0.0596(17)
O6 O 1.55535(12) -0.14939(10) 0.45061(8)
N3 N 1.69579(16) -0.33437(12) 0.44612(11)
C30 C 1.58129(17) -0.24864(14) 0.47314(12)
C31 C 1.7138(3) -0.44906(18) 0.4785(2)
H18 H 1.6314 -0.4469 0.5166
H19 H 1.7941 -0.4813 0.5195
H20 H 1.7277 -0.4939 0.4206
C32 C 1.8044(3) -0.3177(2) 0.38318(19)
H21 H 1.8076 -0.3474 0.3181
H22 H 1.8935 -0.3557 0.4134
H23 H 1.7843 -0.2387 0.3762
H24 H 1.515(2) -0.268(2) 0.5128(18)
O7 O 0.68556(13) 0.38996(10) 0.30485(8)
N4 N 0.46866(14) 0.42396(11) 0.25165(9)
C33 C 0.59264(17) 0.35853(13) 0.28472(11)
C34 C 0.4323(3) 0.54277(17) 0.2335(2)
C35 C 0.3718(3) 0.3760(3) 0.2225(2)
H25 H 0.606(2) 0.2794(17) 0.2946(14)
H26 H 0.501(3) 0.565(2) 0.257(2)
H27 H 0.411(3) 0.294(3) 0.248(2)
H28 H 0.427(3) 0.560(3) 0.164(3)
H29 H 0.358(4) 0.385(3) 0.146(3)
H30 H 0.283(3) 0.422(3) 0.259(2)
H31 H 0.340(4) 0.585(3) 0.255(3)
loop_
_geom_bond_atom_site_label_1
_geom_bond_atom_site_label_2
_geom_bond_site_symmetry_1
_geom_bond_site_symmetry_2
O1 C6 1_555 1_555
O2 C6 1_555 1_555
N1 C5 1_555 1_555
O3 C11 1_555 1_555
O4 C11 1_555 1_555
C1 C2 1_555 1_555
N2 C8 1_555 1_555
O5 C24 1_555 1_555
C2 C4 1_555 1_555
F1 C22 1_555 1_555
C3 C5 1_555 1_555
F2 C12 1_555 1_555
C4 C7 1_555 1_555
C5 C1 1_555 1_555
C6 C2 1_555 1_555
C7 C3 1_555 1_555
C8 C13 1_555 1_555
F3 C27 1_555 1_555
C9 C15 1_555 1_555
C10 N1 1_555 1_555
C11 C7 1_555 1_555
C12 C17 1_555 1_555
C13 C14 1_555 1_555
C14 C23 1_555 1_555
C15 N1 1_555 1_555
C16 C10 1_555 1_555
C17 C16 1_555 1_555
C18 C9 1_555 1_555
C19 C20 1_555 1_555
C20 C9 1_555 1_555
C21 C18 1_555 1_555
C22 C19 1_555 1_555
C23 C27 1_555 1_555
C24 C16 1_555 1_555
C25 C24 1_555 1_555
C26 C12 1_555 1_555
C27 C29 1_555 1_555
C28 C13 1_555 1_555
C29 C28 1_555 1_555
H1 C3 1_555 1_555
H2 C4 1_555 1_555
H3 C1 1_555 1_555
H4 C20 1_555 1_555
H5 C17 1_555 1_555
H6 C14 1_555 1_555
H7 C18 1_555 1_555
H8 C28 1_555 1_555
H9 C21 1_555 1_555
H10 C19 1_555 1_555
H11 C26 1_555 1_555
H12 C23 1_555 1_555
H13 C29 1_555 1_555
H14 C25 1_555 1_555
H15 O3 1_555 1_555
H16 O2 1_555 1_555
H17 O5 1_555 1_555
O6 C30 1_555 1_555
N3 C30 1_555 1_555
C30 H24 1_555 1_555
C31 N3 1_555 1_555
H18 C31 1_555 1_555
H19 C31 1_555 1_555
H20 C31 1_555 1_555
C32 N3 1_555 1_555
H21 C32 1_555 1_555
H22 C32 1_555 1_555
H23 C32 1_555 1_555
O7 C33 1_555 1_555
N4 C33 1_555 1_555
C33 H25 1_555 1_555
C34 N4 1_555 1_555
C35 N4 1_555 1_555
H26 C34 1_555 1_555
H27 C35 1_555 1_555
H28 C34 1_555 1_555
H29 C35 1_555 1_555
H30 C35 1_555 1_555
H31 C34 1_555 1_555
N2 C10 1_555 1_555
C8 C15 1_555 1_555
C21 C22 1_555 1_555
C25 C26 1_555 1_555

#END
