
#######################################################################
#
#                 Cambridge Crystallographic Data Centre
#                                CCDC 
#
#######################################################################
#
# If this CIF has been generated from an entry in the Cambridge 
# Structural Database, then it will include bibliographic, chemical, 
# crystal, experimental, refinement or atomic coordinate data resulting 
# from the CCDC's data processing and validation procedures.
#
#######################################################################

data_URIZEC
_chemical_formula_moiety         'C29 H17 F3 N2 O5,C3 H7 N1 O1,C2 H6 O1'
_chemical_name_systematic        
'5-(2-(5-fluoro-2-hydroxyphenyl)-4,5-bis(4-fluorophenyl)-1H-imidazol-1-yl)isophthalic acid N,N-dimethylformamide ethanol solvate'
_symmetry_cell_setting           triclinic
_symmetry_space_group_name_H-M   'P -1'
_symmetry_Int_Tables_number      2
_space_group_name_Hall           '-P 1'
loop_
_symmetry_equiv_pos_site_id
_symmetry_equiv_pos_as_xyz
1 x,y,z
2 -x,-y,-z
_cell_length_a                   10.4101(6)
_cell_length_b                   12.6325(6)
_cell_length_c                   13.2754(6)
_cell_angle_alpha                91.976(4)
_cell_angle_beta                 92.533(4)
_cell_angle_gamma                113.252(5)
_cell_volume                     1599.86
_exptl_crystal_description       block
_cell_formula_units_Z            2
loop_
_atom_site_label
_atom_site_type_symbol
_atom_site_fract_x
_atom_site_fract_y
_atom_site_fract_z
F1 F 0.9373(2) 0.39728(19) 0.15222(17)
F2 F 0.0131(3) -0.3827(2) 0.37068(18)
F3 F -0.2442(2) -0.2424(2) -0.20822(18)
O1 O 0.4483(3) 0.2920(2) -0.07388(19)
O2 O 0.5882(3) 0.2475(2) 0.57740(15)
H1 H 0.5816 0.2975 0.6153
O3 O 0.7604(3) -0.0395(2) 0.48383(15)
H2 H 0.8105 -0.0752 0.4927
O4 O 0.7406(3) -0.1103(2) 0.32569(17)
O5 O 0.4974(2) 0.3269(2) 0.46207(16)
N1 N 0.3528(2) 0.0888(2) -0.00463(16)
N2 N 0.4262(2) 0.06155(19) 0.14690(15)
C1 C 0.8008(4) 0.4506(3) 0.0350(3)
H3 H 0.8750 0.5212 0.0291
C2 C -0.1172(3) -0.2161(3) -0.0523(3)
H4 H -0.1939 -0.2733 -0.0262
C3 C 0.0984(4) -0.1870(3) 0.3396(2)
H5 H 0.0587 -0.1730 0.3973
C4 C 0.8124(3) 0.3719(3) 0.0993(2)
C5 C 0.0051(3) -0.1585(3) 0.0067(2)
H6 H 0.0100 -0.1766 0.0737
C6 C 0.0865(4) -0.2948(3) 0.3124(2)
C7 C 0.5773(3) 0.2393(2) 0.05761(19)
C8 C 0.5649(3) 0.3164(3) -0.0124(2)
C9 C 0.6375(3) 0.0221(2) 0.36420(19)
C10 C 0.5450(3) 0.2576(3) 0.4847(2)
C11 C 0.7053(3) 0.2683(3) 0.1122(2)
H7 H 0.7176 0.2176 0.1569
C12 C 0.7179(3) -0.0500(3) 0.3881(2)
C13 C -0.0127(4) -0.1040(3) -0.1912(2)
H8 H -0.0196 -0.0859 -0.2579
C14 C 0.6760(4) 0.4217(3) -0.0206(3)
H9 H 0.6658 0.4739 -0.0646
C15 C -0.1222(4) -0.1868(3) -0.1504(3)
C16 C 0.6279(3) 0.1014(2) 0.43497(19)
H10 H 0.6685 0.1077 0.4999
C17 C 0.5586(3) 0.1715(2) 0.40994(18)
C18 C 0.1091(3) -0.0473(3) -0.1316(2)
H11 H 0.1847 0.0099 -0.1587
C19 C 0.1211(3) -0.0741(2) -0.0317(2)
C20 C 0.1716(3) -0.0977(3) 0.2793(2)
H12 H 0.1814 -0.0228 0.2967
C21 C 0.1441(4) -0.3201(3) 0.2301(3)
H13 H 0.1350 -0.3951 0.2143
C22 C 0.2525(3) -0.0101(2) 0.02964(19)
C23 C 0.5722(3) 0.0099(2) 0.26794(19)
H14 H 0.5762 -0.0443 0.2203
C24 C 0.2168(3) -0.2310(3) 0.1706(2)
H15 H 0.2576 -0.2462 0.1140
C25 C 0.4944(3) 0.1601(2) 0.31371(19)
H16 H 0.4473 0.2067 0.2965
C26 C 0.5013(3) 0.0790(2) 0.24399(18)
C27 C 0.2298(3) -0.1198(2) 0.19356(18)
C28 C 0.4555(3) 0.1306(2) 0.06654(19)
C29 C 0.2967(3) -0.0283(2) 0.12364(18)
H17 H 0.384(5) 0.209(5) -0.066(4)
O6 O 0.9064(3) -0.1531(2) 0.54392(18)
N3 N 0.8856(3) -0.3322(3) 0.5787(3)
C30 C 1.0305(4) -0.2976(4) 0.6122(3)
H18 H 1.0370 -0.3130 0.6822
H19 H 1.0799 -0.2165 0.6040
H20 H 1.0711 -0.3402 0.5728
C31 C 0.8382(4) -0.2562(4) 0.5472(3)
H21 H 0.7439 -0.2837 0.5255
C32 C 0.7950(6) -0.4539(4) 0.5779(7)
H22 H 0.7691 -0.4743 0.6453
H23 H 0.8438 -0.4989 0.5528
H24 H 0.7123 -0.4691 0.5350
O7 O 0.5229(4) -0.6269(2) 0.71569(18)
H25 H 0.5155 -0.6570 0.7701
C33 C 0.4209(9) -0.5748(7) 0.7045(6)
H26 H 0.3907 -0.5899 0.6334
H27 H 0.4783 -0.4928 0.7121
C34 C 0.2928(16) -0.5854(17) 0.7530(14)
H28 H 0.2229 -0.6622 0.7398
H29 H 0.2588 -0.5310 0.7264
H30 H 0.3130 -0.5699 0.8246
H31? H 0.4179 -0.5551 0.6348
H32? H 0.3297 -0.6337 0.7159
C35? C 0.4395(12) -0.4729(9) 0.7680(8)
H33? H 0.4184 -0.4945 0.8359
H34? H 0.3775 -0.4390 0.7425
H35? H 0.5346 -0.4179 0.7674
loop_
_geom_bond_atom_site_label_1
_geom_bond_atom_site_label_2
_geom_bond_site_symmetry_1
_geom_bond_site_symmetry_2
F1 C4 1_555 1_555
F2 C6 1_555 1_555
F3 C15 1_555 1_555
O1 C8 1_555 1_555
O2 H1 1_555 1_555
O3 H2 1_555 1_555
O4 C12 1_555 1_555
O5 C10 1_555 1_555
N1 C22 1_555 1_555
N2 C26 1_555 1_555
C1 H3 1_555 1_555
C2 H4 1_555 1_555
C3 H5 1_555 1_555
C4 C1 1_555 1_555
C5 C2 1_555 1_555
H6 C5 1_555 1_555
C6 C3 1_555 1_555
C7 C8 1_555 1_555
C8 C14 1_555 1_555
C9 C12 1_555 1_555
C10 O2 1_555 1_555
C11 C4 1_555 1_555
H7 C11 1_555 1_555
C12 O3 1_555 1_555
C13 H8 1_555 1_555
C14 C1 1_555 1_555
H9 C14 1_555 1_555
C15 C2 1_555 1_555
C16 C9 1_555 1_555
H10 C16 1_555 1_555
C17 C10 1_555 1_555
C18 C13 1_555 1_555
H11 C18 1_555 1_555
C19 C5 1_555 1_555
C20 C3 1_555 1_555
H12 C20 1_555 1_555
C21 C6 1_555 1_555
H13 C21 1_555 1_555
C22 C19 1_555 1_555
C23 C9 1_555 1_555
H14 C23 1_555 1_555
C24 C21 1_555 1_555
H15 C24 1_555 1_555
C25 C17 1_555 1_555
H16 C25 1_555 1_555
C26 C23 1_555 1_555
C27 C20 1_555 1_555
C28 N1 1_555 1_555
C29 N2 1_555 1_555
H17 O1 1_555 1_555
O6 C31 1_555 1_555
N3 C30 1_555 1_555
C30 H18 1_555 1_555
H19 C30 1_555 1_555
H20 C30 1_555 1_555
C31 N3 1_555 1_555
H21 C31 1_555 1_555
C32 N3 1_555 1_555
H22 C32 1_555 1_555
H23 C32 1_555 1_555
H24 C32 1_555 1_555
O7 H25 1_555 1_555
C33 O7 1_555 1_555
H26 C33 1_555 1_555
H27 C33 1_555 1_555
C34 C33 1_555 1_555
H28 C34 1_555 1_555
H29 C34 1_555 1_555
H30 C34 1_555 1_555
N2 C28 1_555 1_555
C7 C11 1_555 1_555
C7 C28 1_555 1_555
C13 C15 1_555 1_555
C16 C17 1_555 1_555
C18 C19 1_555 1_555
C22 C29 1_555 1_555
C24 C27 1_555 1_555
C25 C26 1_555 1_555
C27 C29 1_555 1_555

#END
