
#######################################################################
#
#                 Cambridge Crystallographic Data Centre
#                                CCDC 
#
#######################################################################
#
# If this CIF has been generated from an entry in the Cambridge 
# Structural Database, then it will include bibliographic, chemical, 
# crystal, experimental, refinement or atomic coordinate data resulting 
# from the CCDC's data processing and validation procedures.
#
#######################################################################

data_UROBEK
_chemical_formula_moiety         'C27 H17 F3 N2 O1'
_chemical_name_systematic        
2-(4,5-bis(4-fluorophenyl)-1-phenyl-1H-imidazol-2-yl)-4-fluorophenol
_symmetry_cell_setting           monoclinic
_symmetry_space_group_name_H-M   'P 21/n'
_symmetry_Int_Tables_number      14
_space_group_name_Hall           '-P 2yn'
loop_
_symmetry_equiv_pos_site_id
_symmetry_equiv_pos_as_xyz
1 x,y,z
2 1/2-x,1/2+y,1/2-z
3 -x,-y,-z
4 1/2+x,1/2-y,1/2+z
_cell_length_a                   14.1247(5)
_cell_length_b                   10.5410(4)
_cell_length_c                   14.3333(4)
_cell_angle_alpha                90
_cell_angle_beta                 93.617(3)
_cell_angle_gamma                90
_cell_volume                     2129.81
_exptl_crystal_description       block
_cell_formula_units_Z            4
loop_
_atom_site_label
_atom_site_type_symbol
_atom_site_fract_x
_atom_site_fract_y
_atom_site_fract_z
N1 N 0.08000(11) 0.88471(15) 0.08347(10)
N2 N 0.15815(10) 0.92913(14) -0.04153(9)
C1 C 0.16074(12) 1.02313(18) 0.20412(11)
C2 C 0.28504(12) 1.07785(17) 0.02219(11)
C3 C 0.08784(12) 0.85749(17) -0.00680(12)
C4 C 0.19789(12) 1.00316(16) 0.03144(11)
C5 C 0.14776(12) 0.97494(17) 0.10787(11)
C6 C 0.03001(12) 0.75890(18) -0.05505(12)
C7 C 0.29202(14) 1.17405(19) -0.04332(12)
H1 H 0.2392 1.1962 -0.0819
C8 C 0.13860(15) 0.9475(2) 0.27896(13)
H2 H 0.1119 0.8678 0.2677
C9 C 0.18921(13) 0.93710(18) -0.13568(11)
C10 C -0.03929(14) 0.69572(19) -0.00662(13)
C11 C 0.19721(15) 1.14303(19) 0.22349(12)
H3 H 0.2101 1.1968 0.1744
C12 C -0.07895(16) 0.5637(2) -0.13980(16)
H4 H -0.1149 0.4991 -0.1686
C13 C 0.27275(15) 0.8800(2) -0.15651(14)
H5 H 0.3069 0.8315 -0.1118
C14 C 0.04309(15) 0.7199(2) -0.14644(14)
H6 H 0.0889 0.7588 -0.1804
C15 C 0.19483(15) 1.1052(2) 0.38576(13)
C16 C 0.21488(16) 1.1842(2) 0.31510(14)
H7 H 0.2400 1.2645 0.3276
C17 C -0.01110(16) 0.6252(2) -0.18571(15)
C18 C 0.13700(18) 1.0068(2) -0.20183(14)
H8 H 0.0796 1.0429 -0.1876
C19 C 0.15572(17) 0.9892(2) 0.37046(13)
H9 H 0.1406 0.9383 0.4204
C20 C -0.09265(16) 0.5997(2) -0.05000(16)
H10 H -0.1387 0.5590 -0.0174
C21 C 0.2546(2) 0.9677(3) -0.30956(17)
H11 H 0.2777 0.9792 -0.3683
C22 C 0.45193(15) 1.2063(2) 0.00812(17)
C23 C 0.30501(19) 0.8954(3) -0.24379(17)
H12 H 0.3613 0.8569 -0.2587
C24 C 0.1704(2) 1.0228(3) -0.28908(14)
H13 H 0.1361 1.0707 -0.3340
F1 F 0.21622(10) 1.14306(16) 0.47559(8)
O1 O -0.05655(12) 0.72375(17) 0.08343(10)
H14 H -0.0180 0.7766 0.1040
F2 F 0.00387(11) 0.59059(18) -0.27514(10)
F3 F 0.53481(11) 1.26994(19) 0.00107(14)
C25 C 0.37685(15) 1.2371(2) -0.05159(14)
H15 H 0.3824 1.2992 -0.0970
C26 C 0.36422(14) 1.0489(2) 0.07954(14)
H16 H 0.3609 0.9839 0.1231
C27 C 0.44803(16) 1.1141(3) 0.07359(18)
H17 H 0.5006 1.0954 0.1135
loop_
_geom_bond_atom_site_label_1
_geom_bond_atom_site_label_2
_geom_bond_site_symmetry_1
_geom_bond_site_symmetry_2
N1 C3 1_555 1_555
N2 C3 1_555 1_555
C1 C5 1_555 1_555
C2 C4 1_555 1_555
C3 C6 1_555 1_555
C4 N2 1_555 1_555
C5 N1 1_555 1_555
C6 C10 1_555 1_555
C7 C2 1_555 1_555
H1 C7 1_555 1_555
C8 C1 1_555 1_555
H2 C8 1_555 1_555
C9 N2 1_555 1_555
C10 C20 1_555 1_555
C11 C1 1_555 1_555
H3 C11 1_555 1_555
C12 H4 1_555 1_555
C13 C9 1_555 1_555
H5 C13 1_555 1_555
C14 C6 1_555 1_555
H6 C14 1_555 1_555
C15 C16 1_555 1_555
C16 C11 1_555 1_555
H7 C16 1_555 1_555
C17 C12 1_555 1_555
C18 C9 1_555 1_555
H8 C18 1_555 1_555
C19 C8 1_555 1_555
H9 C19 1_555 1_555
C20 C12 1_555 1_555
H10 C20 1_555 1_555
C21 H11 1_555 1_555
C22 F3 1_555 1_555
C23 C13 1_555 1_555
H12 C23 1_555 1_555
C24 C18 1_555 1_555
H13 C24 1_555 1_555
F1 C15 1_555 1_555
O1 C10 1_555 1_555
H14 O1 1_555 1_555
F2 C17 1_555 1_555
C25 C7 1_555 1_555
H15 C25 1_555 1_555
C26 C2 1_555 1_555
H16 C26 1_555 1_555
C27 C22 1_555 1_555
H17 C27 1_555 1_555
C4 C5 1_555 1_555
C14 C17 1_555 1_555
C15 C19 1_555 1_555
C21 C23 1_555 1_555
C21 C24 1_555 1_555
C22 C25 1_555 1_555
C26 C27 1_555 1_555

#END
