
#######################################################################
#
#                 Cambridge Crystallographic Data Centre
#                                CCDC 
#
#######################################################################
#
# If this CIF has been generated from an entry in the Cambridge 
# Structural Database, then it will include bibliographic, chemical, 
# crystal, experimental, refinement or atomic coordinate data resulting 
# from the CCDC's data processing and validation procedures.
#
#######################################################################

data_UROGUF
_chemical_formula_moiety         'C29 H33 Br1 N4 O1 S1,2(C2 H6 O1)'
_chemical_name_systematic        
'2-(4,5-bis(cyclohexylimino)-3-phenyl-1,3-thiazolidin-2-ylidene)-N-(4-bromophenyl)acetamide ethanol solvate'
_symmetry_cell_setting           triclinic
_symmetry_space_group_name_H-M   'P -1'
_symmetry_Int_Tables_number      2
_space_group_name_Hall           '-P 1'
loop_
_symmetry_equiv_pos_site_id
_symmetry_equiv_pos_as_xyz
1 x,y,z
2 -x,-y,-z
_cell_length_a                   9.931(3)
_cell_length_b                   11.965(3)
_cell_length_c                   15.114(4)
_cell_angle_alpha                103.186(2)
_cell_angle_beta                 97.94(2)
_cell_angle_gamma                105.160(3)
_cell_volume                     1649.91
_exptl_crystal_colour            colorless
_exptl_crystal_description       block
_cell_formula_units_Z            2
loop_
_atom_site_label
_atom_site_type_symbol
_atom_site_fract_x
_atom_site_fract_y
_atom_site_fract_z
Br1 Br -0.24795(5) 0.66549(4) 0.21029(3)
S1 S 0.47356(11) 0.55231(9) 0.67135(6)
O1 O 0.2763(3) 0.5893(2) 0.54271(18)
N1 N 0.1512(4) 0.4495(3) 0.4060(2)
N2 N 0.4685(3) 0.3301(3) 0.6066(2)
N3 N 0.6172(4) 0.2880(3) 0.7179(2)
N4 N 0.6553(4) 0.5472(3) 0.8216(2)
C1 C -0.1187(4) 0.6040(4) 0.2745(3)
C2 C -0.0454(5) 0.6643(4) 0.3641(3)
H1 H -0.0582 0.7367 0.3940
C3 C 0.0481(5) 0.6171(4) 0.4100(3)
H2 H 0.0989 0.6585 0.4702
C4 C 0.0653(4) 0.5081(4) 0.3657(3)
C5 C -0.0083(5) 0.4508(4) 0.2746(3)
H3 H 0.0048 0.3791 0.2436
C6 C -0.0997(5) 0.4978(4) 0.2294(3)
H4 H -0.1484 0.4580 0.1685
C7 C 0.2469(4) 0.4871(4) 0.4889(3)
C8 C 0.3104(4) 0.3961(3) 0.5072(3)
H5 H 0.2827 0.3215 0.4632
C9 C 0.4074(4) 0.4146(3) 0.5848(3)
C10 C 0.5635(4) 0.3636(3) 0.6932(2)
C11 C 0.5796(4) 0.4923(3) 0.7410(3)
C12 C 0.4190(4) 0.2068(3) 0.5489(3)
C13 C 0.4628(4) 0.1769(4) 0.4665(3)
H6 H 0.5248 0.2354 0.4476
C14 C 0.4129(5) 0.0580(4) 0.4121(3)
H7 H 0.4423 0.0369 0.3565
C15 C 0.3208(5) -0.0287(4) 0.4394(3)
H8 H 0.2878 -0.1079 0.4022
C16 C 0.2771(5) 0.0021(4) 0.5226(3)
H9 H 0.2152 -0.0562 0.5417
C17 C 0.3267(5) 0.1209(4) 0.5769(3)
H10 H 0.2974 0.1425 0.6325
C18 C 0.7115(4) 0.3180(4) 0.8094(3)
H11 H 0.7736 0.4013 0.8250
C19 C 0.6232(5) 0.3048(4) 0.8828(3)
H12 H 0.5593 0.2232 0.8665
H13 H 0.5658 0.3593 0.8852
C20 C 0.7198(5) 0.3331(5) 0.9780(3)
H14 H 0.6617 0.3220 1.0237
H15 H 0.7789 0.4166 0.9963
C21 C 0.8148(6) 0.2511(5) 0.9754(3)
H16 H 0.8793 0.2735 1.0353
H17 H 0.7561 0.1683 0.9634
C22 C 0.9001(5) 0.2613(5) 0.9005(3)
H18 H 0.9564 0.2059 0.8981
H19 H 0.9653 0.3424 0.9160
C23 C 0.8032(5) 0.2329(4) 0.8052(3)
H20 H 0.7423 0.1500 0.7874
H21 H 0.8608 0.2426 0.7590
C24 C 0.6571(4) 0.6710(3) 0.8640(3)
H22 H 0.5654 0.6811 0.8402
C25 C 0.7754(5) 0.7591(4) 0.8388(3)
H23 H 0.7568 0.7464 0.7720
H24 H 0.8654 0.7446 0.8572
C26 C 0.7864(5) 0.8902(4) 0.8874(3)
H25 H 0.8659 0.9448 0.8730
H26 H 0.6998 0.9072 0.8645
C27 C 0.8076(5) 0.9105(4) 0.9914(3)
H27 H 0.8989 0.9013 1.0150
H28 H 0.8092 0.9921 1.0205
C28 C 0.6903(5) 0.8227(4) 1.0166(3)
H29 H 0.6003 0.8375 0.9988
H30 H 0.7096 0.8351 1.0834
C29 C 0.6784(5) 0.6927(4) 0.9682(3)
H31 H 0.7645 0.6752 0.9913
H32 H 0.5985 0.6386 0.9828
H33 H 0.139(5) 0.386(4) 0.377(3)
O2 O 0.2473(4) 0.7852(3) 0.6682(2)
C30 C 0.3594(8) 0.9244(7) 0.8144(4)
H34 H 0.3788 0.9873 0.7839
H35 H 0.4341 0.9431 0.8679
H36 H 0.2699 0.9176 0.8334
C31 C 0.3521(6) 0.8105(5) 0.7503(4)
H37 H 0.4443 0.8151 0.7344
H38 H 0.3279 0.7460 0.7798
H39 H 0.253(6) 0.726(5) 0.636(4)
O3 O -0.0214(4) 0.8021(3) 0.6817(3)
C32 C 0.0282(6) 1.0173(5) 0.7092(4)
H40 H -0.0032 1.0767 0.6863
H41 H 0.1269 1.0287 0.7070
H42 H 0.0169 1.0256 0.7722
C33 C -0.0581(6) 0.8956(5) 0.6509(4)
H43 H -0.1581 0.8864 0.6507
H44 H -0.0456 0.8878 0.5874
H45 H 0.058(5) 0.803(4) 0.670(3)
loop_
_geom_bond_atom_site_label_1
_geom_bond_atom_site_label_2
_geom_bond_site_symmetry_1
_geom_bond_site_symmetry_2
Br1 C1 1_555 1_555
S1 C9 1_555 1_555
O1 C7 1_555 1_555
N1 C4 1_555 1_555
N2 C9 1_555 1_555
N3 C10 1_555 1_555
N4 C11 1_555 1_555
C1 C2 1_555 1_555
C2 H1 1_555 1_555
C3 C2 1_555 1_555
H2 C3 1_555 1_555
C4 C3 1_555 1_555
C5 C4 1_555 1_555
H3 C5 1_555 1_555
C6 C1 1_555 1_555
H4 C6 1_555 1_555
C7 N1 1_555 1_555
C8 C7 1_555 1_555
H5 C8 1_555 1_555
C9 C8 1_555 1_555
C10 N2 1_555 1_555
C11 S1 1_555 1_555
C12 N2 1_555 1_555
C13 C12 1_555 1_555
H6 C13 1_555 1_555
C14 C13 1_555 1_555
H7 C14 1_555 1_555
C15 C14 1_555 1_555
H8 C15 1_555 1_555
C16 C15 1_555 1_555
H9 C16 1_555 1_555
C17 C12 1_555 1_555
H10 C17 1_555 1_555
C18 N3 1_555 1_555
H11 C18 1_555 1_555
C19 C18 1_555 1_555
H12 C19 1_555 1_555
H13 C19 1_555 1_555
C20 C19 1_555 1_555
H14 C20 1_555 1_555
H15 C20 1_555 1_555
C21 C20 1_555 1_555
H16 C21 1_555 1_555
H17 C21 1_555 1_555
C22 C21 1_555 1_555
H18 C22 1_555 1_555
H19 C22 1_555 1_555
C23 C18 1_555 1_555
H20 C23 1_555 1_555
H21 C23 1_555 1_555
C24 N4 1_555 1_555
H22 C24 1_555 1_555
C25 C24 1_555 1_555
H23 C25 1_555 1_555
H24 C25 1_555 1_555
C26 C25 1_555 1_555
H25 C26 1_555 1_555
H26 C26 1_555 1_555
C27 C26 1_555 1_555
H27 C27 1_555 1_555
H28 C27 1_555 1_555
C28 C27 1_555 1_555
H29 C28 1_555 1_555
H30 C28 1_555 1_555
C29 C24 1_555 1_555
H31 C29 1_555 1_555
H32 C29 1_555 1_555
H33 N1 1_555 1_555
O2 C31 1_555 1_555
C30 H34 1_555 1_555
H35 C30 1_555 1_555
H36 C30 1_555 1_555
C31 C30 1_555 1_555
H37 C31 1_555 1_555
H38 C31 1_555 1_555
H39 O2 1_555 1_555
O3 C33 1_555 1_555
C32 H40 1_555 1_555
H41 C32 1_555 1_555
H42 C32 1_555 1_555
C33 C32 1_555 1_555
H43 C33 1_555 1_555
H44 C33 1_555 1_555
H45 O3 1_555 1_555
C5 C6 1_555 1_555
C10 C11 1_555 1_555
C16 C17 1_555 1_555
C22 C23 1_555 1_555
C28 C29 1_555 1_555

#END
