
#######################################################################
#
#                 Cambridge Crystallographic Data Centre
#                                CCDC 
#
#######################################################################
#
# If this CIF has been generated from an entry in the Cambridge 
# Structural Database, then it will include bibliographic, chemical, 
# crystal, experimental, refinement or atomic coordinate data resulting 
# from the CCDC's data processing and validation procedures.
#
#######################################################################

data_UROPUO
_chemical_formula_moiety         'C15 H10 Cl2 N2 O2'
_chemical_name_systematic        
2-amino-4-(2,4-dichlorophenyl)-5-oxo-4,5,6,7-tetrahydrocyclopenta[b]pyran-3-carbonitrile
_chemical_properties_biological  'tested for antitumor activity in vitro'
_symmetry_cell_setting           monoclinic
_symmetry_space_group_name_H-M   'P 21/c'
_symmetry_Int_Tables_number      14
_space_group_name_Hall           '-P 2ybc'
loop_
_symmetry_equiv_pos_site_id
_symmetry_equiv_pos_as_xyz
1 x,y,z
2 -x,1/2+y,1/2-z
3 -x,-y,-z
4 x,1/2-y,1/2+z
_cell_length_a                   8.0181(3)
_cell_length_b                   14.0097(5)
_cell_length_c                   13.0669(5)
_cell_angle_alpha                90
_cell_angle_beta                 101.2910(10)
_cell_angle_gamma                90
_cell_volume                     1439.41
_exptl_crystal_colour            colorless
_exptl_crystal_description       block
_cell_formula_units_Z            4
loop_
_atom_site_label
_atom_site_type_symbol
_atom_site_fract_x
_atom_site_fract_y
_atom_site_fract_z
Cl1 Cl 0.13315(8) 0.18688(4) 0.66710(5)
Cl2 Cl 0.17282(10) 0.08588(6) 1.06583(5)
C1 C 0.6529(2) -0.02364(14) 0.63719(16)
C2 C 0.5233(2) 0.03539(14) 0.64657(15)
C3 C 0.3402(2) 0.00313(13) 0.64321(15)
H1 H 0.2646 0.0387 0.5883
C4 C 0.3338(2) -0.10045(14) 0.61452(14)
C5 C 0.4685(2) -0.15210(14) 0.60340(15)
C6 C 0.4361(3) -0.25379(14) 0.57478(17)
H2 H 0.4927 -0.2959 0.6296
H3 H 0.4727 -0.2692 0.5102
C7 C 0.2430(3) -0.25994(15) 0.56195(19)
H4 H 0.1910 -0.2736 0.4900
H5 H 0.2115 -0.3098 0.6061
C8 C 0.1866(2) -0.16327(15) 0.59421(16)
C9 C 0.5676(3) 0.13245(15) 0.66651(16)
C10 C 0.2884(2) 0.02292(12) 0.74713(15)
C11 C 0.3365(3) -0.03887(14) 0.83106(16)
H6 H 0.3947 -0.0945 0.8213
C12 C 0.3009(3) -0.02053(15) 0.92768(17)
H7 H 0.3346 -0.0631 0.9824
C13 C 0.2146(3) 0.06174(15) 0.94279(17)
C14 C 0.1637(2) 0.12549(14) 0.86296(17)
H8 H 0.1060 0.1811 0.8736
C15 C 0.2005(2) 0.10465(13) 0.76621(16)
O1 O 0.63033(17) -0.11928(10) 0.61576(13)
O2 O 0.04158(19) -0.14367(13) 0.60016(15)
N1 N 0.8158(2) -0.00017(15) 0.64421(19)
H9 H 0.8477 0.0581 0.6559
H10 H 0.8890 -0.0433 0.6370
N2 N 0.6077(3) 0.21019(15) 0.68201(18)
loop_
_geom_bond_atom_site_label_1
_geom_bond_atom_site_label_2
_geom_bond_site_symmetry_1
_geom_bond_site_symmetry_2
Cl1 C15 1_555 1_555
Cl2 C13 1_555 1_555
C1 C2 1_555 1_555
C2 C3 1_555 1_555
C3 H1 1_555 1_555
C4 C3 1_555 1_555
C5 C4 1_555 1_555
C6 C5 1_555 1_555
H2 C6 1_555 1_555
H3 C6 1_555 1_555
C7 C6 1_555 1_555
H4 C7 1_555 1_555
H5 C7 1_555 1_555
C8 C4 1_555 1_555
C9 C2 1_555 1_555
C10 C3 1_555 1_555
C11 C10 1_555 1_555
H6 C11 1_555 1_555
C12 C11 1_555 1_555
H7 C12 1_555 1_555
C13 C12 1_555 1_555
C14 C13 1_555 1_555
H8 C14 1_555 1_555
C15 C10 1_555 1_555
O1 C1 1_555 1_555
O2 C8 1_555 1_555
N1 C1 1_555 1_555
H9 N1 1_555 1_555
H10 N1 1_555 1_555
N2 C9 1_555 1_555
C5 O1 1_555 1_555
C7 C8 1_555 1_555
C14 C15 1_555 1_555

#END
