
#######################################################################
#
#                 Cambridge Crystallographic Data Centre
#                                CCDC 
#
#######################################################################
#
# If this CIF has been generated from an entry in the Cambridge 
# Structural Database, then it will include bibliographic, chemical, 
# crystal, experimental, refinement or atomic coordinate data resulting 
# from the CCDC's data processing and validation procedures.
#
#######################################################################

data_UROQAV
_chemical_formula_moiety         'C15 H13 N3 O1'
_chemical_name_systematic        
N-(3-phenylimidazo[1,2-a]pyridin-2-yl)acetamide
_symmetry_cell_setting           triclinic
_symmetry_space_group_name_H-M   'P -1'
_symmetry_Int_Tables_number      2
_space_group_name_Hall           '-P 1'
loop_
_symmetry_equiv_pos_site_id
_symmetry_equiv_pos_as_xyz
1 x,y,z
2 -x,-y,-z
_cell_length_a                   8.3534(17)
_cell_length_b                   11.217(2)
_cell_length_c                   14.488(3)
_cell_angle_alpha                101.02(3)
_cell_angle_beta                 101.07(3)
_cell_angle_gamma                90.74(3)
_cell_volume                     1305.97
_cell_formula_units_Z            4
loop_
_atom_site_label
_atom_site_type_symbol
_atom_site_fract_x
_atom_site_fract_y
_atom_site_fract_z
O1 O 0.1971(3) 0.2790(2) 0.17455(18)
N1 N 0.3166(2) 0.07868(18) 0.42518(15)
N2 N 0.4433(3) 0.2388(2) 0.39237(17)
N3 N 0.4168(3) 0.1712(2) 0.22003(17)
C1 C 0.2673(3) 0.0089(2) 0.4848(2)
H1 H 0.2123 -0.0663 0.4591
C2 C 0.2999(4) 0.0507(3) 0.5808(2)
H2 H 0.2665 0.0044 0.6212
C3 C 0.3848(4) 0.1651(3) 0.6200(2)
H3 H 0.4059 0.1938 0.6860
C4 C 0.4356(4) 0.2328(3) 0.5616(2)
H4 H 0.4927 0.3071 0.5877
C5 C 0.4018(3) 0.1906(2) 0.4619(2)
C6 C 0.3855(3) 0.1562(2) 0.3107(2)
C7 C 0.3052(3) 0.0559(2) 0.32602(18)
C8 C 0.2225(3) -0.0526(2) 0.25905(18)
C9 C 0.2959(4) -0.1126(3) 0.1855(2)
H5 H 0.3988 -0.0856 0.1799
C10 C 0.2152(5) -0.2127(3) 0.1206(2)
H6 H 0.2636 -0.2513 0.0709
C11 C 0.0660(5) -0.2549(3) 0.1289(3)
H7 H 0.0143 -0.3229 0.0857
C12 C -0.0088(5) -0.1970(3) 0.2011(3)
H8 H -0.1108 -0.2260 0.2064
C13 C 0.0685(4) -0.0953(3) 0.2660(2)
H9 H 0.0173 -0.0558 0.3140
C14 C 0.3247(4) 0.2315(3) 0.1598(2)
C15 C 0.3883(4) 0.2396(3) 0.0702(2)
H10 H 0.2985 0.2469 0.0195
H11 H 0.4443 0.1675 0.0513
H12 H 0.4625 0.3095 0.0828
O2 O 0.7006(3) 0.0580(2) 0.18919(17)
N4 N 0.8191(2) 0.38441(18) 0.43269(14)
N5 N 0.9521(3) 0.2118(2) 0.40268(16)
N6 N 0.9245(3) 0.1885(2) 0.23056(16)
C16 C 0.9079(3) 0.2944(2) 0.47156(18)
C17 C 0.9404(4) 0.3044(3) 0.5719(2)
H13 H 0.9993 0.2458 0.5993
C18 C 0.8858(4) 0.3995(3) 0.6285(2)
H14 H 0.9044 0.4048 0.6946
C19 C 0.7997(3) 0.4913(3) 0.58674(19)
H15 H 0.7647 0.5572 0.6260
C20 C 0.7686(3) 0.4834(2) 0.49080(19)
H16 H 0.7137 0.5441 0.4640
C21 C 0.8086(3) 0.3559(2) 0.33386(17)
C22 C 0.7239(3) 0.4264(2) 0.26482(17)
C23 C 0.7131(4) 0.5115(3) 0.1222(2)
H17 H 0.7591 0.5221 0.0706
C24 C 0.5660(5) 0.5611(3) 0.1329(2)
H18 H 0.5145 0.6068 0.0898
C25 C 0.4957(4) 0.5424(3) 0.2082(2)
H19 H 0.3966 0.5758 0.2157
C26 C 0.5723(3) 0.4739(2) 0.27268(18)
H20 H 0.5219 0.4595 0.3217
C27 C 0.8924(3) 0.2499(2) 0.32063(18)
C28 C 0.8261(3) 0.0989(3) 0.1712(2)
C29 C 0.8825(4) 0.0487(3) 0.0797(2)
H21 H 0.9267 -0.0292 0.0831
H22 H 0.9652 0.1033 0.0708
H23 H 0.7917 0.0401 0.0266
C30 C 0.7933(4) 0.4459(3) 0.18781(19)
H24 H 0.8937 0.4147 0.1806
loop_
_geom_bond_atom_site_label_1
_geom_bond_atom_site_label_2
_geom_bond_site_symmetry_1
_geom_bond_site_symmetry_2
O1 C14 1_555 1_555
N1 C1 1_555 1_555
N2 C5 1_555 1_555
N3 C6 1_555 1_555
C1 H1 1_555 1_555
C2 C1 1_555 1_555
H2 C2 1_555 1_555
C3 C2 1_555 1_555
H3 C3 1_555 1_555
C4 C3 1_555 1_555
H4 C4 1_555 1_555
C5 N1 1_555 1_555
C6 N2 1_555 1_555
C7 N1 1_555 1_555
C8 C7 1_555 1_555
C9 C8 1_555 1_555
H5 C9 1_555 1_555
C10 C9 1_555 1_555
H6 C10 1_555 1_555
C11 C10 1_555 1_555
H7 C11 1_555 1_555
C12 C11 1_555 1_555
H8 C12 1_555 1_555
C13 C8 1_555 1_555
H9 C13 1_555 1_555
C14 N3 1_555 1_555
C15 C14 1_555 1_555
H10 C15 1_555 1_555
H11 C15 1_555 1_555
H12 C15 1_555 1_555
O2 C28 1_555 1_555
N4 C16 1_555 1_555
N5 C16 1_555 1_555
N6 C27 1_555 1_555
C16 C17 1_555 1_555
C17 H13 1_555 1_555
C18 C17 1_555 1_555
H14 C18 1_555 1_555
C19 C18 1_555 1_555
H15 C19 1_555 1_555
C20 N4 1_555 1_555
H16 C20 1_555 1_555
C21 N4 1_555 1_555
C22 C21 1_555 1_555
C23 H17 1_555 1_555
C24 C23 1_555 1_555
H18 C24 1_555 1_555
C25 C24 1_555 1_555
H19 C25 1_555 1_555
C26 C22 1_555 1_555
H20 C26 1_555 1_555
C27 N5 1_555 1_555
C28 N6 1_555 1_555
C29 C28 1_555 1_555
H21 C29 1_555 1_555
H22 C29 1_555 1_555
H23 C29 1_555 1_555
C30 C22 1_555 1_555
H24 C30 1_555 1_555
C4 C5 1_555 1_555
C6 C7 1_555 1_555
C12 C13 1_555 1_555
C19 C20 1_555 1_555
C21 C27 1_555 1_555
C23 C30 1_555 1_555
C25 C26 1_555 1_555

#END
