
#######################################################################
#
#                 Cambridge Crystallographic Data Centre
#                                CCDC 
#
#######################################################################
#
# If this CIF has been generated from an entry in the Cambridge 
# Structural Database, then it will include bibliographic, chemical, 
# crystal, experimental, refinement or atomic coordinate data resulting 
# from the CCDC's data processing and validation procedures.
#
#######################################################################

data_UROZIL
_chemical_formula_moiety         'C10 H28 As2 F6 O4 P4'
_chemical_name_systematic        
bis(\m~2~-bis(dimethylphosphinoyl)methane)-hexafluoro-di-arsenic(iii)
_symmetry_cell_setting           triclinic
_symmetry_space_group_name_H-M   'P -1'
_symmetry_Int_Tables_number      2
_space_group_name_Hall           '-P 1'
loop_
_symmetry_equiv_pos_site_id
_symmetry_equiv_pos_as_xyz
1 x,y,z
2 -x,-y,-z
_cell_length_a                   7.7004(10)
_cell_length_b                   8.1617(15)
_cell_length_c                   9.7109(15)
_cell_angle_alpha                76.455(2)
_cell_angle_beta                 78.429(2)
_cell_angle_gamma                65.015(2)
_cell_volume                     534.223
_exptl_crystal_colour            colorless
_cell_formula_units_Z            1
loop_
_atom_site_label
_atom_site_type_symbol
_atom_site_fract_x
_atom_site_fract_y
_atom_site_fract_z
As1 As 0.36259(4) 0.90658(3) 0.14921(3)
P1 P 0.76002(9) 0.47881(8) 0.27712(6)
P2 P 0.42275(9) 0.77521(8) -0.21744(7)
F1 F 0.2446(2) 0.7587(2) 0.17659(16)
F2 F 0.2548(2) 0.9834(2) 0.31216(16)
F3 F 0.1726(2) 1.0824(2) 0.06064(17)
O1 O 0.5815(2) 0.6378(2) 0.31763(18)
O2 O 0.5072(3) 0.7878(2) -0.09546(18)
C1 C 0.9513(4) 0.5452(3) 0.1813(3)
H1 H 0.9070 0.6328 0.0949
H2 H 1.0623 0.4365 0.1551
H3 H 0.9891 0.6025 0.2418
C2 C 0.8587(4) 0.3154(3) 0.4294(3)
H4 H 0.9098 0.3698 0.4831
H5 H 0.9628 0.2060 0.3978
H6 H 0.7573 0.2813 0.4907
C3 C 0.7183(3) 0.3641(3) 0.1560(2)
H7 H 0.8463 0.2847 0.1142
H8 H 0.6558 0.4598 0.0770
C4 C 0.2622(4) 0.9944(3) -0.2982(3)
H9 H 0.3292 1.0780 -0.3276
H10 H 0.2198 0.9806 -0.3819
H11 H 0.1498 1.0445 -0.2294
C5 C 0.6054(4) 0.6776(4) -0.3547(3)
H12 H 0.6815 0.5486 -0.3190
H13 H 0.5451 0.6857 -0.4371
H14 H 0.6900 0.7448 -0.3832
As1A As 0.63741(4) 0.09342(3) -0.14921(3)
P1A P 0.23998(9) 0.52119(8) -0.27712(6)
P2A P 0.57725(9) 0.22479(8) 0.21744(7)
F1A F 0.7554(2) 0.2413(2) -0.17659(16)
F2A F 0.7452(2) 0.0166(2) -0.31216(16)
F3A F 0.8274(2) -0.0824(2) -0.06064(17)
O1A O 0.4185(2) 0.3622(2) -0.31763(18)
O2A O 0.4928(3) 0.2122(2) 0.09546(18)
C1A C 0.0487(4) 0.4548(3) -0.1813(3)
H1A H 0.0930 0.3672 -0.0949
H2A H -0.0623 0.5635 -0.1551
H3A H 0.0109 0.3975 -0.2418
C2A C 0.1413(4) 0.6846(3) -0.4294(3)
H4A H 0.0902 0.6302 -0.4831
H5A H 0.0372 0.7940 -0.3978
H6A H 0.2427 0.7187 -0.4907
C3A C 0.2817(3) 0.6359(3) -0.1560(2)
H7A H 0.1537 0.7153 -0.1142
H8A H 0.3442 0.5402 -0.0770
C4A C 0.7378(4) 0.0056(3) 0.2982(3)
H9A H 0.6708 -0.0780 0.3276
H10A H 0.7802 0.0194 0.3819
H11A H 0.8502 -0.0445 0.2294
C5A C 0.3946(4) 0.3224(4) 0.3547(3)
H12A H 0.3185 0.4514 0.3190
H13A H 0.4549 0.3143 0.4371
H14A H 0.3100 0.2552 0.3832
loop_
_geom_bond_atom_site_label_1
_geom_bond_atom_site_label_2
_geom_bond_site_symmetry_1
_geom_bond_site_symmetry_2
As1 F1 1_555 1_555
P1 O1 1_555 1_555
P2 O2 1_555 1_555
F2 As1 1_555 1_555
F3 As1 1_555 1_555
O1 As1 1_555 1_555
O2 As1 1_555 1_555
C1 P1 1_555 1_555
H1 C1 1_555 1_555
H2 C1 1_555 1_555
H3 C1 1_555 1_555
C2 P1 1_555 1_555
H4 C2 1_555 1_555
H5 C2 1_555 1_555
H6 C2 1_555 1_555
C3 P1 1_555 1_555
H7 C3 1_555 1_555
H8 C3 1_555 1_555
C4 P2 1_555 1_555
H9 C4 1_555 1_555
H10 C4 1_555 1_555
H11 C4 1_555 1_555
C5 P2 1_555 1_555
H12 C5 1_555 1_555
H13 C5 1_555 1_555
H14 C5 1_555 1_555
As1A F1A 1_555 1_555
P1A O1A 1_555 1_555
P2A C3 1_555 1_555
F2A As1A 1_555 1_555
F3A As1A 1_555 1_555
O1A As1A 1_555 1_555
O2A As1A 1_555 1_555
C1A P1A 1_555 1_555
H1A C1A 1_555 1_555
H2A C1A 1_555 1_555
H3A C1A 1_555 1_555
C2A P1A 1_555 1_555
H4A C2A 1_555 1_555
H5A C2A 1_555 1_555
H6A C2A 1_555 1_555
C3A P2 1_555 1_555
H7A C3A 1_555 1_555
H8A C3A 1_555 1_555
C4A P2A 1_555 1_555
H9A C4A 1_555 1_555
H10A C4A 1_555 1_555
H11A C4A 1_555 1_555
C5A P2A 1_555 1_555
H12A C5A 1_555 1_555
H13A C5A 1_555 1_555
H14A C5A 1_555 1_555
P1A C3A 1_555 1_555
P2A O2A 1_555 1_555

#END
