
#######################################################################
#
#                 Cambridge Crystallographic Data Centre
#                                CCDC 
#
#######################################################################
#
# If this CIF has been generated from an entry in the Cambridge 
# Structural Database, then it will include bibliographic, chemical, 
# crystal, experimental, refinement or atomic coordinate data resulting 
# from the CCDC's data processing and validation procedures.
#
#######################################################################

data_URUDER04
_chemical_name_common            'Isoniazid 4-aminosalicylic acid'
_chemical_formula_moiety         'C7 H7 N1 O3,C6 H7 N3 O1'
_chemical_name_systematic        'Isonicotinohydrazide 4-aminosalicylic acid'
_symmetry_cell_setting           orthorhombic
_symmetry_space_group_name_H-M   'P n a 21'
_symmetry_Int_Tables_number      33
_space_group_name_Hall           'P 2c -2n'
loop_
_symmetry_equiv_pos_site_id
_symmetry_equiv_pos_as_xyz
1 x,y,z
2 -x,-y,1/2+z
3 1/2-x,1/2+y,1/2+z
4 1/2+x,1/2-y,z
_cell_length_a                   21.889(2)
_cell_length_b                   16.5223(14)
_cell_length_c                   7.2750(6)
_cell_angle_alpha                90
_cell_angle_beta                 90
_cell_angle_gamma                90
_cell_volume                     2631.05
_exptl_crystal_colour            yellow
_exptl_crystal_description       block
_cell_formula_units_Z            8
loop_
_atom_site_label
_atom_site_type_symbol
_atom_site_fract_x
_atom_site_fract_y
_atom_site_fract_z
O1 O 0.11401(8) 0.10565(11) 0.9164(4)
N1 N 0.20113(9) 0.38505(12) 0.9100(4)
N2 N 0.21564(10) 0.08100(12) 0.9307(4)
N3 N 0.21005(12) -0.00472(13) 0.9286(5)
C1 C 0.24326(11) 0.33388(16) 0.8453(4)
C2 C 0.23507(11) 0.25025(15) 0.8474(4)
C3 C 0.18110(10) 0.21938(13) 0.9176(4)
C4 C 0.13690(10) 0.27273(16) 0.9816(4)
C5 C 0.14843(11) 0.35542(16) 0.9766(4)
C6 C 0.16706(10) 0.12986(14) 0.9219(4)
H1 H 0.2534(18) 0.096(2) 0.953(6)
H2 H 0.191(2) -0.022(3) 0.817(7)
H3 H 0.186(2) -0.023(3) 1.019(7)
H4 H 0.2790(12) 0.3547(16) 0.801(4)
H6 H 0.2638(15) 0.220(2) 0.800(5)
H10 H 0.0992(14) 0.255(2) 1.042(5)
H11 H 0.1186(14) 0.3949(18) 1.029(5)
O2 O 0.31681(9) 0.50696(11) 0.9854(4)
O3 O 0.22146(8) 0.53769(10) 0.9006(4)
O4 O 0.39834(8) 0.61786(13) 0.9901(3)
N4 N 0.33218(11) 0.89240(13) 0.9191(4)
C7 C 0.29269(10) 0.64403(13) 0.9180(4)
C8 C 0.35252(10) 0.67124(15) 0.9541(4)
C9 C 0.36552(11) 0.75368(16) 0.9542(4)
C10 C 0.32033(11) 0.81076(14) 0.9173(4)
C11 C 0.26117(11) 0.78347(15) 0.8718(4)
C12 C 0.24850(11) 0.70204(14) 0.8726(4)
C13 C 0.27733(11) 0.55742(15) 0.9359(4)
H5 H 0.210(3) 0.470(3) 0.910(10)
H7 H 0.3653(19) 0.914(2) 0.969(6)
H8 H 0.2974(15) 0.9286(19) 0.910(5)
H9 H 0.3757(19) 0.572(2) 0.998(6)
H12 H 0.4024(17) 0.773(2) 0.985(6)
H13 H 0.2287(18) 0.821(2) 0.851(6)
H14 H 0.2082(14) 0.6831(18) 0.845(5)
O5 O 0.42400(8) 0.00270(10) 0.1152(4)
O6 O 0.52110(8) 0.03669(11) 0.1710(4)
O7 O 0.34704(8) 0.11690(12) 0.0369(3)
N5 N 0.40890(11) 0.38979(14) 0.1440(4)
C14 C 0.44912(10) 0.14149(14) 0.1483(4)
C15 C 0.39128(10) 0.16963(15) 0.0933(3)
C16 C 0.37823(10) 0.25163(15) 0.0916(4)
C17 C 0.42213(11) 0.30864(14) 0.1443(4)
C18 C 0.47996(11) 0.28078(15) 0.2044(4)
C19 C 0.49259(10) 0.19904(15) 0.2054(4)
C20 C 0.46364(11) 0.05464(15) 0.1441(4)
H15 H 0.532(2) -0.023(3) 0.161(8)
H16 H 0.3622(19) 0.069(2) 0.059(7)
H17 H 0.4386(16) 0.423(2) 0.150(6)
H18 H 0.375(2) 0.405(2) 0.078(7)
H19 H 0.3363(15) 0.2678(19) 0.054(5)
H20 H 0.5092(13) 0.3197(17) 0.239(4)
H21 H 0.5310(13) 0.1760(17) 0.253(4)
O8 O 0.37621(8) 0.39943(12) 0.6683(4)
N6 N 0.45664(9) 0.11636(13) 0.6592(3)
N7 N 0.47754(10) 0.42031(13) 0.6508(4)
N8 N 0.47308(12) 0.50606(14) 0.6515(6)
C21 C 0.50075(12) 0.16589(16) 0.7195(4)
C22 C 0.49499(11) 0.24929(15) 0.7237(4)
C23 C 0.44039(10) 0.28314(14) 0.6620(3)
C24 C 0.39418(11) 0.23230(17) 0.6015(4)
C25 C 0.40395(11) 0.14926(16) 0.6021(4)
C26 C 0.42825(11) 0.37307(15) 0.6600(4)
H22 H 0.5383(14) 0.1333(19) 0.759(5)
H23 H 0.5274(16) 0.284(2) 0.764(5)
H24 H 0.5161(17) 0.402(2) 0.642(6)
H25 H 0.4447(19) 0.522(3) 0.557(6)
H26 H 0.455(3) 0.518(4) 0.767(10)
H27 H 0.3557(16) 0.255(2) 0.566(5)
H28 H 0.3716(14) 0.1120(18) 0.563(5)
loop_
_geom_bond_atom_site_label_1
_geom_bond_atom_site_label_2
_geom_bond_site_symmetry_1
_geom_bond_site_symmetry_2
O1 C6 1_555 1_555
O2 C13 1_555 1_555
O3 C13 1_555 1_555
O4 C8 1_555 1_555
N1 C1 1_555 1_555
N2 N3 1_555 1_555
N3 H2 1_555 1_555
N4 C10 1_555 1_555
C1 C2 1_555 1_555
C2 C3 1_555 1_555
C3 C4 1_555 1_555
C4 C5 1_555 1_555
C5 N1 1_555 1_555
C6 N2 1_555 1_555
C7 C8 1_555 1_555
C8 C9 1_555 1_555
C9 C10 1_555 1_555
C10 C11 1_555 1_555
C11 C12 1_555 1_555
C12 C7 1_555 1_555
C13 C7 1_555 1_555
O5 C20 1_555 1_555
O6 C20 1_555 1_555
O7 C15 1_555 1_555
N5 C17 1_555 1_555
C14 C15 1_555 1_555
C15 C16 1_555 1_555
C16 C17 1_555 1_555
C17 C18 1_555 1_555
C18 C19 1_555 1_555
C19 C14 1_555 1_555
C20 C14 1_555 1_555
O8 C26 1_555 1_555
N6 C21 1_555 1_555
N7 N8 1_555 1_555
N8 H25 1_555 1_555
C21 C22 1_555 1_555
C22 C23 1_555 1_555
C23 C24 1_555 1_555
C24 C25 1_555 1_555
C25 N6 1_555 1_555
C26 N7 1_555 1_555
H1 N2 1_555 1_555
H3 N3 1_555 1_555
H4 C1 1_555 1_555
H5 O3 1_555 1_555
H6 C2 1_555 1_555
H7 N4 1_555 1_555
H8 N4 1_555 1_555
H9 O4 1_555 1_555
H10 C4 1_555 1_555
H11 C5 1_555 1_555
H12 C9 1_555 1_555
H13 C11 1_555 1_555
H14 C12 1_555 1_555
H15 O6 1_555 1_555
H16 O7 1_555 1_555
H17 N5 1_555 1_555
H18 N5 1_555 1_555
H19 C16 1_555 1_555
H20 C18 1_555 1_555
H21 C19 1_555 1_555
H22 C21 1_555 1_555
H23 C22 1_555 1_555
H24 N7 1_555 1_555
H26 N8 1_555 1_555
H27 C24 1_555 1_555
H28 C25 1_555 1_555
C3 C6 1_555 1_555
C23 C26 1_555 1_555

#END
