
#######################################################################
#
#                 Cambridge Crystallographic Data Centre
#                                CCDC 
#
#######################################################################
#
# If this CIF has been generated from an entry in the Cambridge 
# Structural Database, then it will include bibliographic, chemical, 
# crystal, experimental, refinement or atomic coordinate data resulting 
# from the CCDC's data processing and validation procedures.
#
#######################################################################

data_URUDER07
_chemical_name_common            'Isoniazid 4-aminosalicylic acid'
_chemical_formula_moiety         'C7 H7 N1 O3,C6 H7 N3 O1'
_chemical_name_systematic        'Isonicotinohydrazide 4-aminosalicylic acid'
_symmetry_cell_setting           orthorhombic
_symmetry_space_group_name_H-M   'P n a 21'
_symmetry_Int_Tables_number      33
_space_group_name_Hall           'P 2c -2n'
loop_
_symmetry_equiv_pos_site_id
_symmetry_equiv_pos_as_xyz
1 x,y,z
2 -x,-y,1/2+z
3 1/2-x,1/2+y,1/2+z
4 1/2+x,1/2-y,z
_cell_length_a                   21.926(10)
_cell_length_b                   16.514(8)
_cell_length_c                   7.310(3)
_cell_angle_alpha                90
_cell_angle_beta                 90
_cell_angle_gamma                90
_cell_volume                     2646.85
_exptl_crystal_colour            yellow
_exptl_crystal_description       block
_cell_formula_units_Z            8
loop_
_atom_site_label
_atom_site_type_symbol
_atom_site_fract_x
_atom_site_fract_y
_atom_site_fract_z
O1 O 0.42376(10) 0.00397(12) 0.3898(5)
O2 O 0.52045(9) 0.03779(12) 0.4471(5)
O3 O 0.34695(9) 0.11807(13) 0.3121(5)
N1 N 0.40860(14) 0.39074(16) 0.4169(5)
C1 C 0.44870(12) 0.14244(16) 0.4226(4)
C2 C 0.39123(12) 0.17064(17) 0.3678(4)
C3 C 0.37801(12) 0.25254(17) 0.3653(4)
C4 C 0.42200(12) 0.30956(16) 0.4178(4)
C5 C 0.47937(12) 0.28183(17) 0.4776(4)
C6 C 0.49205(11) 0.20023(17) 0.4781(4)
C7 C 0.46323(12) 0.05578(17) 0.4200(5)
H1 H 0.532(2) -0.022(3) 0.436(10)
H2 H 0.3648(19) 0.068(2) 0.329(7)
H3 H 0.4386(17) 0.426(2) 0.422(7)
H4 H 0.375(2) 0.409(3) 0.344(9)
H5 H 0.3364(16) 0.270(2) 0.328(5)
H6 H 0.5099(13) 0.3190(17) 0.509(4)
H7 H 0.5289(12) 0.1758(16) 0.526(4)
O4 O 0.18298(10) 0.00771(13) 0.7564(5)
O5 O 0.27818(9) 0.03853(12) 0.6752(5)
O6 O 0.10161(9) 0.11914(15) 0.7645(5)
N2 N 0.16817(14) 0.39318(16) 0.6937(5)
C8 C 0.20708(11) 0.14506(15) 0.6919(4)
C9 C 0.14761(12) 0.17245(18) 0.7280(4)
C10 C 0.13482(13) 0.25487(19) 0.7285(5)
C11 C 0.17998(12) 0.31157(16) 0.6916(4)
C12 C 0.23897(13) 0.28401(17) 0.6465(4)
C13 C 0.25136(12) 0.20273(16) 0.6471(4)
C14 C 0.22203(13) 0.05848(16) 0.7094(4)
H8 H 0.285(2) -0.022(3) 0.675(10)
H9 H 0.137(2) 0.412(3) 0.737(7)
H10 H 0.2029(17) 0.430(2) 0.684(6)
H11 H 0.127(2) 0.073(3) 0.764(9)
H12 H 0.0999(17) 0.274(2) 0.759(6)
H13 H 0.2699(18) 0.320(3) 0.629(7)
H14 H 0.2926(14) 0.1840(18) 0.623(5)
O7 O 0.37656(9) 0.39824(13) 0.9400(5)
N3 N 0.45707(11) 0.11552(14) 0.9349(4)
N4 N 0.47719(11) 0.41946(15) 0.9249(5)
N5 N 0.47275(14) 0.50504(16) 0.9247(8)
C15 C 0.50086(13) 0.16497(18) 0.9941(5)
C16 C 0.49501(12) 0.24826(18) 0.9966(5)
C17 C 0.44043(11) 0.28227(15) 0.9360(4)
C18 C 0.39447(13) 0.2309(2) 0.8762(5)
C19 C 0.40442(13) 0.14862(19) 0.8772(5)
C20 C 0.42840(12) 0.37152(17) 0.9335(5)
H15 H 0.5371(14) 0.128(2) 1.032(5)
H16 H 0.5272(16) 0.280(2) 1.032(6)
H17 H 0.513(2) 0.405(3) 0.909(8)
H18 H 0.442(3) 0.520(4) 0.828(8)
H19 H 0.453(3) 0.517(4) 1.031(10)
H20 H 0.3560(17) 0.255(2) 0.833(6)
H21 H 0.3750(17) 0.110(2) 0.834(6)
O8 O 0.11415(10) 0.10657(13) 0.1917(5)
N6 N 0.20132(11) 0.38558(14) 0.1836(4)
N7 N 0.21514(11) 0.08178(14) 0.2058(4)
N8 N 0.20954(14) -0.00388(15) 0.2049(6)
C21 C 0.24299(13) 0.33406(18) 0.1198(5)
C22 C 0.23486(12) 0.25045(17) 0.1216(4)
C23 C 0.18094(11) 0.22011(15) 0.1919(4)
C24 C 0.13724(12) 0.27349(18) 0.2554(4)
C25 C 0.14882(12) 0.35626(18) 0.2500(5)
C26 C 0.16704(12) 0.13054(16) 0.1971(5)
H22 H 0.256(2) 0.099(3) 0.219(8)
H23 H 0.183(2) -0.022(3) 0.300(8)
H24 H 0.194(3) -0.019(3) 0.093(9)
H25 H 0.2766(14) 0.3506(18) 0.071(5)
H26 H 0.2644(17) 0.215(2) 0.066(6)
H27 H 0.0994(16) 0.254(2) 0.316(5)
H28 H 0.1189(15) 0.398(2) 0.302(5)
loop_
_geom_bond_atom_site_label_1
_geom_bond_atom_site_label_2
_geom_bond_site_symmetry_1
_geom_bond_site_symmetry_2
O1 C7 1_555 1_555
O2 C7 1_555 1_555
O3 C2 1_555 1_555
N1 C4 1_555 1_555
C1 C2 1_555 1_555
C2 C3 1_555 1_555
C3 C4 1_555 1_555
C4 C5 1_555 1_555
C5 C6 1_555 1_555
C6 C1 1_555 1_555
C7 C1 1_555 1_555
O4 C14 1_555 1_555
O5 C14 1_555 1_555
O6 C9 1_555 1_555
N2 C11 1_555 1_555
C8 C9 1_555 1_555
C9 C10 1_555 1_555
C10 C11 1_555 1_555
C11 C12 1_555 1_555
C12 C13 1_555 1_555
C13 C8 1_555 1_555
C14 C8 1_555 1_555
O7 C20 1_555 1_555
N3 C15 1_555 1_555
N4 N5 1_555 1_555
N5 H18 1_555 1_555
C15 C16 1_555 1_555
C16 C17 1_555 1_555
C17 C18 1_555 1_555
C18 C19 1_555 1_555
C19 N3 1_555 1_555
C20 N4 1_555 1_555
O8 C26 1_555 1_555
N6 C21 1_555 1_555
N7 N8 1_555 1_555
N8 H23 1_555 1_555
C21 C22 1_555 1_555
C22 C23 1_555 1_555
C23 C24 1_555 1_555
C24 C25 1_555 1_555
C25 N6 1_555 1_555
C26 N7 1_555 1_555
H1 O2 1_555 1_555
H2 O3 1_555 1_555
H3 N1 1_555 1_555
H4 N1 1_555 1_555
H5 C3 1_555 1_555
H6 C5 1_555 1_555
H7 C6 1_555 1_555
H8 O5 1_555 1_555
H9 N2 1_555 1_555
H10 N2 1_555 1_555
H11 O6 1_555 1_555
H12 C10 1_555 1_555
H13 C12 1_555 1_555
H14 C13 1_555 1_555
H15 C15 1_555 1_555
H16 C16 1_555 1_555
H17 N4 1_555 1_555
H19 N5 1_555 1_555
H20 C18 1_555 1_555
H21 C19 1_555 1_555
H22 N7 1_555 1_555
H24 N8 1_555 1_555
H25 C21 1_555 1_555
H26 C22 1_555 1_555
H27 C24 1_555 1_555
H28 C25 1_555 1_555
C17 C20 1_555 1_555
C23 C26 1_555 1_555

#END
