
#######################################################################
#
#                 Cambridge Crystallographic Data Centre
#                                CCDC 
#
#######################################################################
#
# If this CIF has been generated from an entry in the Cambridge 
# Structural Database, then it will include bibliographic, chemical, 
# crystal, experimental, refinement or atomic coordinate data resulting 
# from the CCDC's data processing and validation procedures.
#
#######################################################################

data_URUDER
_chemical_name_common            'Isoniazid 4-aminosalicylic acid'
_chemical_formula_moiety         'C7 H7 N1 O3,C6 H7 N3 O1'
_chemical_name_systematic        'Isonicotinohydrazide 4-aminosalicylic acid'
_symmetry_cell_setting           orthorhombic
_symmetry_space_group_name_H-M   'P n a 21'
_symmetry_Int_Tables_number      33
_space_group_name_Hall           'P 2c -2n'
loop_
_symmetry_equiv_pos_site_id
_symmetry_equiv_pos_as_xyz
1 x,y,z
2 -x,-y,1/2+z
3 1/2-x,1/2+y,1/2+z
4 1/2+x,1/2-y,z
_cell_length_a                   21.837(2)
_cell_length_b                   16.5073(14)
_cell_length_c                   7.2252(6)
_cell_angle_alpha                90
_cell_angle_beta                 90
_cell_angle_gamma                90
_cell_volume                     2604.47
_exptl_crystal_colour            yellow
_exptl_crystal_description       block
_cell_formula_units_Z            8
loop_
_atom_site_label
_atom_site_type_symbol
_atom_site_fract_x
_atom_site_fract_y
_atom_site_fract_z
O1 O 0.11409(7) 0.10490(10) 0.5851(3)
N1 N 0.20071(9) 0.38462(11) 0.5896(3)
N2 N 0.21613(9) 0.08068(11) 0.5702(3)
N3 N 0.21063(10) -0.00563(11) 0.5725(4)
C1 C 0.24356(10) 0.33356(14) 0.6546(3)
C2 C 0.23549(10) 0.24999(13) 0.6530(3)
C3 C 0.18119(10) 0.21870(12) 0.5823(3)
C4 C 0.13665(10) 0.27183(14) 0.5185(3)
C5 C 0.14803(10) 0.35488(14) 0.5238(3)
C6 C 0.16733(10) 0.12896(13) 0.5789(3)
H1 H 0.2569(14) 0.0998(17) 0.556(5)
H2 H 0.1839(16) -0.020(2) 0.488(5)
H3 H 0.201(3) -0.026(3) 0.700(10)
H4 H 0.2807(14) 0.3567(18) 0.699(5)
H5 H 0.2677(13) 0.2145(16) 0.705(4)
H6 H 0.0974(13) 0.2515(18) 0.463(5)
H7 H 0.1206(12) 0.3955(16) 0.466(4)
O2 O 0.31633(8) 0.50589(10) 0.5112(3)
O3 O 0.22069(7) 0.53665(9) 0.5984(3)
O4 O 0.39845(7) 0.61627(11) 0.5095(3)
N4 N 0.33283(10) 0.89149(12) 0.5813(3)
C7 C 0.29248(9) 0.64292(12) 0.5815(3)
C8 C 0.35261(10) 0.67038(14) 0.5460(3)
C9 C 0.36619(10) 0.75238(14) 0.5460(3)
C10 C 0.32047(10) 0.81018(13) 0.5834(3)
C11 C 0.26107(10) 0.78301(13) 0.6295(3)
C12 C 0.24827(10) 0.70115(13) 0.6279(3)
C13 C 0.27688(10) 0.55664(13) 0.5626(3)
H8 H 0.212(2) 0.462(3) 0.601(9)
H9 H 0.3655(17) 0.908(2) 0.537(6)
H10 H 0.2994(14) 0.9251(17) 0.587(5)
H11 H 0.3744(19) 0.565(2) 0.510(7)
H12 H 0.4049(14) 0.7718(18) 0.516(5)
H13 H 0.2285(15) 0.823(2) 0.649(6)
H14 H 0.2048(13) 0.6770(16) 0.655(5)
O5 O 0.42425(7) 0.00133(9) 0.3852(3)
O6 O 0.52200(7) 0.03564(9) 0.3305(3)
O7 O 0.34727(7) 0.11554(10) 0.4644(3)
N5 N 0.40888(10) 0.38889(12) 0.3546(4)
C14 C 0.44966(10) 0.14031(13) 0.3521(3)
C15 C 0.39165(10) 0.16843(13) 0.4079(3)
C16 C 0.37844(10) 0.25059(13) 0.4087(3)
C17 C 0.42244(10) 0.30738(12) 0.3546(3)
C18 C 0.48022(10) 0.27972(13) 0.2947(3)
C19 C 0.49299(9) 0.19821(14) 0.2946(3)
C20 C 0.46426(10) 0.05342(13) 0.3564(3)
H15 H 0.5335(18) -0.021(2) 0.332(8)
H16 H 0.3621(15) 0.0615(19) 0.451(6)
H17 H 0.4409(15) 0.4261(19) 0.337(6)
H18 H 0.3758(15) 0.4032(18) 0.422(5)
H19 H 0.3356(14) 0.2659(18) 0.438(5)
H20 H 0.5100(14) 0.3172(17) 0.263(5)
H21 H 0.5301(11) 0.1792(14) 0.254(4)
O8 O 0.37578(7) 0.40071(10) 0.8293(3)
N6 N 0.45612(9) 0.11753(11) 0.8415(3)
N7 N 0.47760(9) 0.42170(11) 0.8486(4)
N8 N 0.47350(10) 0.50731(12) 0.8480(4)
C21 C 0.50044(11) 0.16683(14) 0.7805(3)
C22 C 0.49474(10) 0.25029(14) 0.7763(3)
C23 C 0.44018(9) 0.28425(13) 0.8376(3)
C24 C 0.39368(10) 0.23346(14) 0.8998(3)
C25 C 0.40325(10) 0.15038(14) 0.9002(4)
C26 C 0.42811(10) 0.37384(13) 0.8385(4)
H22 H 0.5372(12) 0.1361(16) 0.738(4)
H23 H 0.5243(14) 0.2788(18) 0.737(5)
H24 H 0.5149(16) 0.405(2) 0.867(6)
H25 H 0.4448(17) 0.520(2) 0.950(6)
H26 H 0.4532(17) 0.516(2) 0.743(6)
H27 H 0.3557(15) 0.254(2) 0.940(5)
H28 H 0.3717(13) 0.1109(16) 0.939(4)
loop_
_geom_bond_atom_site_label_1
_geom_bond_atom_site_label_2
_geom_bond_site_symmetry_1
_geom_bond_site_symmetry_2
O1 C6 1_555 1_555
N1 C1 1_555 1_555
N2 N3 1_555 1_555
N3 H2 1_555 1_555
C1 C2 1_555 1_555
C2 C3 1_555 1_555
C3 C4 1_555 1_555
C4 C5 1_555 1_555
C5 N1 1_555 1_555
C6 N2 1_555 1_555
H1 N2 1_555 1_555
H3 N3 1_555 1_555
H4 C1 1_555 1_555
H5 C2 1_555 1_555
H6 C4 1_555 1_555
H7 C5 1_555 1_555
O2 C13 1_555 1_555
O3 C13 1_555 1_555
O4 C8 1_555 1_555
N4 C10 1_555 1_555
C7 C8 1_555 1_555
C8 C9 1_555 1_555
C9 C10 1_555 1_555
C10 C11 1_555 1_555
C11 C12 1_555 1_555
C12 C7 1_555 1_555
C13 C7 1_555 1_555
H8 O3 1_555 1_555
H9 N4 1_555 1_555
H10 N4 1_555 1_555
H11 O4 1_555 1_555
H12 C9 1_555 1_555
H13 C11 1_555 1_555
H14 C12 1_555 1_555
O5 C20 1_555 1_555
O6 C20 1_555 1_555
O7 C15 1_555 1_555
N5 C17 1_555 1_555
C14 C15 1_555 1_555
C15 C16 1_555 1_555
C16 C17 1_555 1_555
C17 C18 1_555 1_555
C18 C19 1_555 1_555
C19 C14 1_555 1_555
C20 C14 1_555 1_555
H15 O6 1_555 1_555
H16 O7 1_555 1_555
H17 N5 1_555 1_555
H18 N5 1_555 1_555
H19 C16 1_555 1_555
H20 C18 1_555 1_555
H21 C19 1_555 1_555
O8 C26 1_555 1_555
N6 C21 1_555 1_555
N7 N8 1_555 1_555
N8 H25 1_555 1_555
C21 C22 1_555 1_555
C22 C23 1_555 1_555
C23 C24 1_555 1_555
C24 C25 1_555 1_555
C25 N6 1_555 1_555
C26 N7 1_555 1_555
H22 C21 1_555 1_555
H23 C22 1_555 1_555
H24 N7 1_555 1_555
H26 N8 1_555 1_555
H27 C24 1_555 1_555
H28 C25 1_555 1_555
C3 C6 1_555 1_555
C23 C26 1_555 1_555

#END
