
#######################################################################
#
#                 Cambridge Crystallographic Data Centre
#                                CCDC 
#
#######################################################################
#
# If this CIF has been generated from an entry in the Cambridge 
# Structural Database, then it will include bibliographic, chemical, 
# crystal, experimental, refinement or atomic coordinate data resulting 
# from the CCDC's data processing and validation procedures.
#
#######################################################################

data_URUDER02
_chemical_name_common            'Isoniazid 4-aminosalicylic acid'
_chemical_formula_moiety         'C7 H7 N1 O3,C6 H7 N3 O1'
_chemical_name_systematic        'Isonicotinohydrazide 4-aminosalicylic acid'
_symmetry_cell_setting           orthorhombic
_symmetry_space_group_name_H-M   'P n a 21'
_symmetry_Int_Tables_number      33
_space_group_name_Hall           'P 2c -2n'
loop_
_symmetry_equiv_pos_site_id
_symmetry_equiv_pos_as_xyz
1 x,y,z
2 -x,-y,1/2+z
3 1/2-x,1/2+y,1/2+z
4 1/2+x,1/2-y,z
_cell_length_a                   21.859(2)
_cell_length_b                   16.5084(14)
_cell_length_c                   7.2459(6)
_cell_angle_alpha                90
_cell_angle_beta                 90
_cell_angle_gamma                90
_cell_volume                     2614.73
_exptl_crystal_colour            yellow
_exptl_crystal_description       block
_cell_formula_units_Z            8
loop_
_atom_site_label
_atom_site_type_symbol
_atom_site_fract_x
_atom_site_fract_y
_atom_site_fract_z
O1 O 0.11406(8) 0.10522(10) 0.5845(3)
N1 N 0.20085(9) 0.38484(12) 0.5897(3)
N2 N 0.21585(9) 0.08093(12) 0.5701(3)
N3 N 0.21031(11) -0.00519(12) 0.5717(4)
C1 C 0.24333(10) 0.33381(15) 0.6545(4)
C2 C 0.23523(10) 0.25010(14) 0.6524(4)
C3 C 0.18101(10) 0.21902(12) 0.5825(3)
C4 C 0.13680(10) 0.27213(15) 0.5186(3)
C5 C 0.14818(10) 0.35511(15) 0.5238(4)
C6 C 0.16728(10) 0.12941(13) 0.5784(4)
H1 H 0.2532(16) 0.0979(18) 0.549(6)
H2 H 0.199(3) -0.028(3) 0.696(10)
H3 H 0.1839(16) -0.021(2) 0.485(5)
H4 H 0.2806(13) 0.3572(17) 0.692(5)
H6 H 0.2668(15) 0.2159(19) 0.709(5)
H10 H 0.0991(15) 0.252(2) 0.461(5)
H11 H 0.1210(12) 0.3962(16) 0.469(4)
O2 O 0.31658(8) 0.50655(11) 0.5131(3)
O3 O 0.22096(8) 0.53710(10) 0.5990(3)
O4 O 0.39842(8) 0.61692(12) 0.5098(3)
N4 N 0.33264(11) 0.89180(13) 0.5815(4)
C7 C 0.29256(10) 0.64346(13) 0.5820(3)
C8 C 0.35261(10) 0.67089(15) 0.5459(3)
C9 C 0.36584(11) 0.75298(15) 0.5456(4)
C10 C 0.32030(11) 0.81061(14) 0.5832(4)
C11 C 0.26107(11) 0.78310(14) 0.6286(4)
C12 C 0.24844(10) 0.70149(14) 0.6275(3)
C13 C 0.27718(11) 0.55697(13) 0.5631(3)
H5 H 0.212(2) 0.465(3) 0.598(9)
H7 H 0.3642(17) 0.910(2) 0.539(5)
H8 H 0.2999(15) 0.9248(19) 0.583(5)
H9 H 0.373(2) 0.565(3) 0.512(7)
H12 H 0.4030(15) 0.7749(19) 0.516(5)
H13 H 0.2294(15) 0.825(2) 0.649(5)
H14 H 0.2067(15) 0.6774(19) 0.658(5)
O5 O 0.42417(8) 0.00191(10) 0.3856(3)
O6 O 0.52158(8) 0.03619(10) 0.3298(4)
O7 O 0.34715(7) 0.11620(11) 0.4637(3)
N5 N 0.40900(10) 0.38936(13) 0.3549(4)
C14 C 0.44933(10) 0.14074(14) 0.3519(3)
C15 C 0.39152(10) 0.16885(14) 0.4076(3)
C16 C 0.37832(10) 0.25103(14) 0.4083(3)
C17 C 0.42233(10) 0.30792(13) 0.3554(4)
C18 C 0.48015(11) 0.28022(14) 0.2948(3)
C19 C 0.49277(10) 0.19858(14) 0.2949(3)
C20 C 0.46406(10) 0.05388(14) 0.3560(4)
H15 H 0.5332(19) -0.016(3) 0.333(8)
H16 H 0.3597(16) 0.065(2) 0.446(6)
H17 H 0.3772(16) 0.405(2) 0.426(5)
H18 H 0.4429(16) 0.427(2) 0.340(6)
H19 H 0.3349(14) 0.2653(18) 0.441(5)
H20 H 0.5104(14) 0.3165(18) 0.260(5)
H21 H 0.5303(11) 0.1802(14) 0.251(4)
O8 O 0.37595(8) 0.40008(11) 0.8303(3)
N6 N 0.45641(9) 0.11697(12) 0.8411(3)
N7 N 0.47767(9) 0.42123(12) 0.8492(4)
N8 N 0.47334(10) 0.50661(13) 0.8483(5)
C21 C 0.50068(11) 0.16651(15) 0.7801(4)
C22 C 0.49489(10) 0.24987(14) 0.7760(4)
C23 C 0.44018(10) 0.28380(13) 0.8382(3)
C24 C 0.39399(11) 0.23278(16) 0.8992(4)
C25 C 0.40373(11) 0.14974(15) 0.8991(4)
C26 C 0.42809(10) 0.37331(14) 0.8391(4)
H22 H 0.5370(14) 0.1339(19) 0.741(5)
H23 H 0.5247(15) 0.2789(19) 0.740(5)
H24 H 0.5149(15) 0.404(2) 0.868(6)
H25 H 0.452(2) 0.516(2) 0.747(7)
H26 H 0.4445(19) 0.520(3) 0.952(7)
H27 H 0.3553(14) 0.254(2) 0.939(5)
H28 H 0.3720(15) 0.1108(19) 0.939(5)
loop_
_geom_bond_atom_site_label_1
_geom_bond_atom_site_label_2
_geom_bond_site_symmetry_1
_geom_bond_site_symmetry_2
O1 C6 1_555 1_555
O2 C13 1_555 1_555
O3 C13 1_555 1_555
O4 C8 1_555 1_555
N1 C1 1_555 1_555
N2 N3 1_555 1_555
N3 H2 1_555 1_555
N4 C10 1_555 1_555
C1 C2 1_555 1_555
C2 C3 1_555 1_555
C3 C4 1_555 1_555
C4 C5 1_555 1_555
C5 N1 1_555 1_555
C6 N2 1_555 1_555
C7 C8 1_555 1_555
C8 C9 1_555 1_555
C9 C10 1_555 1_555
C10 C11 1_555 1_555
C11 C12 1_555 1_555
C12 C7 1_555 1_555
C13 C7 1_555 1_555
O5 C20 1_555 1_555
O6 C20 1_555 1_555
O7 C15 1_555 1_555
N5 C17 1_555 1_555
C14 C15 1_555 1_555
C15 C16 1_555 1_555
C16 C17 1_555 1_555
C17 C18 1_555 1_555
C18 C19 1_555 1_555
C19 C14 1_555 1_555
C20 C14 1_555 1_555
O8 C26 1_555 1_555
N6 C21 1_555 1_555
N7 N8 1_555 1_555
N8 H25 1_555 1_555
C21 C22 1_555 1_555
C22 C23 1_555 1_555
C23 C24 1_555 1_555
C24 C25 1_555 1_555
C25 N6 1_555 1_555
C26 N7 1_555 1_555
H1 N2 1_555 1_555
H3 N3 1_555 1_555
H4 C1 1_555 1_555
H5 O3 1_555 1_555
H6 C2 1_555 1_555
H7 N4 1_555 1_555
H8 N4 1_555 1_555
H9 O4 1_555 1_555
H10 C4 1_555 1_555
H11 C5 1_555 1_555
H12 C9 1_555 1_555
H13 C11 1_555 1_555
H14 C12 1_555 1_555
H15 O6 1_555 1_555
H16 O7 1_555 1_555
H17 N5 1_555 1_555
H18 N5 1_555 1_555
H19 C16 1_555 1_555
H20 C18 1_555 1_555
H21 C19 1_555 1_555
H22 C21 1_555 1_555
H23 C22 1_555 1_555
H24 N7 1_555 1_555
H26 N8 1_555 1_555
H27 C24 1_555 1_555
H28 C25 1_555 1_555
C3 C6 1_555 1_555
C23 C26 1_555 1_555

#END
