
#######################################################################
#
#                 Cambridge Crystallographic Data Centre
#                                CCDC 
#
#######################################################################
#
# If this CIF has been generated from an entry in the Cambridge 
# Structural Database, then it will include bibliographic, chemical, 
# crystal, experimental, refinement or atomic coordinate data resulting 
# from the CCDC's data processing and validation procedures.
#
#######################################################################

data_URUDER08
_chemical_name_common            'Isoniazid 4-aminosalicylic acid'
_chemical_formula_moiety         'C7 H7 N1 O3,C6 H7 N3 O1'
_chemical_name_systematic        'Isonicotinohydrazide 4-aminosalicylic acid'
_symmetry_cell_setting           orthorhombic
_symmetry_space_group_name_H-M   'P n a 21'
_symmetry_Int_Tables_number      33
_space_group_name_Hall           'P 2c -2n'
loop_
_symmetry_equiv_pos_site_id
_symmetry_equiv_pos_as_xyz
1 x,y,z
2 -x,-y,1/2+z
3 1/2-x,1/2+y,1/2+z
4 1/2+x,1/2-y,z
_cell_length_a                   21.969(2)
_cell_length_b                   16.485(2)
_cell_length_c                   7.3209(9)
_cell_angle_alpha                90
_cell_angle_beta                 90
_cell_angle_gamma                90
_cell_volume                     2651.33
_exptl_crystal_colour            yellow
_exptl_crystal_description       block
_cell_formula_units_Z            8
loop_
_atom_site_label
_atom_site_type_symbol
_atom_site_fract_x
_atom_site_fract_y
_atom_site_fract_z
O1 O 0.42373(10) 0.00433(12) 0.1155(4)
O2 O 0.52037(9) 0.03813(13) 0.1728(5)
O3 O 0.34682(9) 0.11843(14) 0.0385(4)
N1 N 0.40848(14) 0.39126(16) 0.1424(5)
C1 C 0.44844(12) 0.14295(16) 0.1488(4)
C2 C 0.39113(12) 0.17111(17) 0.0938(4)
C3 C 0.37820(12) 0.25296(17) 0.0919(4)
C4 C 0.42200(13) 0.30986(16) 0.1434(4)
C5 C 0.47922(13) 0.28223(17) 0.2032(4)
C6 C 0.49180(12) 0.20048(17) 0.2037(4)
C7 C 0.46281(12) 0.05627(17) 0.1455(5)
H1 H 0.528(2) -0.023(3) 0.153(8)
H2 H 0.366(2) 0.069(3) 0.054(8)
H3 H 0.4362(16) 0.426(2) 0.141(6)
H4 H 0.368(3) 0.412(5) 0.073(15)
H5 H 0.3362(17) 0.269(2) 0.060(6)
H6 H 0.5090(15) 0.3207(19) 0.233(5)
H7 H 0.5281(13) 0.1744(17) 0.254(4)
O4 O 0.18284(10) 0.00820(13) 0.4810(4)
O5 O 0.27796(9) 0.03910(12) 0.4007(4)
O6 O 0.10164(9) 0.11947(16) 0.4901(4)
N2 N 0.16826(14) 0.39344(16) 0.4204(5)
C8 C 0.20710(11) 0.14529(15) 0.4180(4)
C9 C 0.14764(12) 0.17296(18) 0.4537(4)
C10 C 0.13487(13) 0.2549(2) 0.4549(5)
C11 C 0.17985(13) 0.31188(16) 0.4175(4)
C12 C 0.23897(13) 0.28423(18) 0.3724(4)
C13 C 0.25123(13) 0.20288(17) 0.3729(4)
C14 C 0.22196(13) 0.05893(17) 0.4342(4)
H8 H 0.287(3) -0.022(4) 0.400(12)
H9 H 0.1330(18) 0.407(2) 0.474(6)
H10 H 0.2030(18) 0.434(2) 0.404(6)
H11 H 0.123(2) 0.070(3) 0.489(8)
H12 H 0.0996(16) 0.275(2) 0.484(5)
H13 H 0.2706(17) 0.320(2) 0.357(6)
H14 H 0.2912(16) 0.1855(19) 0.351(5)
O7 O 0.37657(9) 0.39768(13) 0.6645(4)
N3 N 0.45701(11) 0.11548(15) 0.6605(4)
N4 N 0.47722(12) 0.41917(15) 0.6504(5)
N5 N 0.47262(14) 0.50459(17) 0.6500(8)
C15 C 0.50103(13) 0.16492(18) 0.7203(5)
C16 C 0.49493(13) 0.24801(18) 0.7230(5)
C17 C 0.44044(11) 0.28194(16) 0.6623(4)
C18 C 0.39467(13) 0.2307(2) 0.6026(4)
C19 C 0.40464(13) 0.14794(19) 0.6040(5)
C20 C 0.42842(12) 0.37104(17) 0.6586(5)
H15 H 0.5378(16) 0.126(2) 0.760(6)
H16 H 0.5275(16) 0.282(2) 0.764(5)
H17 H 0.5134(19) 0.400(2) 0.639(7)
H18 H 0.452(3) 0.516(3) 0.760(8)
H19 H 0.443(3) 0.519(4) 0.560(9)
H20 H 0.3567(16) 0.252(2) 0.570(6)
H21 H 0.3743(17) 0.108(2) 0.562(6)
O8 O 0.11418(10) 0.10679(13) 0.9169(5)
N6 N 0.20131(11) 0.38584(14) 0.9096(4)
N7 N 0.21486(12) 0.08207(14) 0.9317(4)
N8 N 0.20935(15) -0.00360(16) 0.9302(6)
C21 C 0.24291(13) 0.33427(18) 0.8459(5)
C22 C 0.23465(13) 0.25078(18) 0.8478(4)
C23 C 0.18097(12) 0.22032(15) 0.9180(4)
C24 C 0.13715(12) 0.27373(18) 0.9816(4)
C25 C 0.14899(12) 0.35617(18) 0.9763(5)
C26 C 0.16693(12) 0.13070(16) 0.9231(5)
H22 H 0.254(2) 0.098(2) 0.949(7)
H23 H 0.184(2) -0.020(3) 1.030(7)
H24 H 0.196(3) -0.023(4) 0.830(11)
H25 H 0.2769(13) 0.3524(16) 0.802(4)
H26 H 0.2614(19) 0.220(3) 0.806(7)
H27 H 0.1002(16) 0.254(2) 1.040(5)
H28 H 0.1179(15) 0.3979(19) 1.026(5)
loop_
_geom_bond_atom_site_label_1
_geom_bond_atom_site_label_2
_geom_bond_site_symmetry_1
_geom_bond_site_symmetry_2
O1 C7 1_555 1_555
O2 C7 1_555 1_555
O3 C2 1_555 1_555
N1 C4 1_555 1_555
C1 C2 1_555 1_555
C2 C3 1_555 1_555
C3 C4 1_555 1_555
C4 C5 1_555 1_555
C5 C6 1_555 1_555
C6 C1 1_555 1_555
C7 C1 1_555 1_555
O4 C14 1_555 1_555
O5 C14 1_555 1_555
O6 C9 1_555 1_555
N2 C11 1_555 1_555
C8 C9 1_555 1_555
C9 C10 1_555 1_555
C10 C11 1_555 1_555
C11 C12 1_555 1_555
C12 C13 1_555 1_555
C13 C8 1_555 1_555
C14 C8 1_555 1_555
O7 C20 1_555 1_555
N3 C15 1_555 1_555
N4 N5 1_555 1_555
N5 H18 1_555 1_555
C15 C16 1_555 1_555
C16 C17 1_555 1_555
C17 C18 1_555 1_555
C18 C19 1_555 1_555
C19 N3 1_555 1_555
C20 N4 1_555 1_555
O8 C26 1_555 1_555
N6 C21 1_555 1_555
N7 N8 1_555 1_555
N8 H23 1_555 1_555
C21 C22 1_555 1_555
C22 C23 1_555 1_555
C23 C24 1_555 1_555
C24 C25 1_555 1_555
C25 N6 1_555 1_555
C26 N7 1_555 1_555
H1 O2 1_555 1_555
H2 O3 1_555 1_555
H3 N1 1_555 1_555
H4 N1 1_555 1_555
H5 C3 1_555 1_555
H6 C5 1_555 1_555
H7 C6 1_555 1_555
H8 O5 1_555 1_555
H9 N2 1_555 1_555
H10 N2 1_555 1_555
H11 O6 1_555 1_555
H12 C10 1_555 1_555
H13 C12 1_555 1_555
H14 C13 1_555 1_555
H15 C15 1_555 1_555
H16 C16 1_555 1_555
H17 N4 1_555 1_555
H19 N5 1_555 1_555
H20 C18 1_555 1_555
H21 C19 1_555 1_555
H22 N7 1_555 1_555
H24 N8 1_555 1_555
H25 C21 1_555 1_555
H26 C22 1_555 1_555
H27 C24 1_555 1_555
H28 C25 1_555 1_555
C17 C20 1_555 1_555
C23 C26 1_555 1_555

#END
