
#######################################################################
#
#                 Cambridge Crystallographic Data Centre
#                                CCDC 
#
#######################################################################
#
# If this CIF has been generated from an entry in the Cambridge 
# Structural Database, then it will include bibliographic, chemical, 
# crystal, experimental, refinement or atomic coordinate data resulting 
# from the CCDC's data processing and validation procedures.
#
#######################################################################

data_URUDER09
_chemical_name_common            'Isoniazid 4-aminosalicylic acid'
_chemical_formula_moiety         'C7 H7 N1 O3,C6 H7 N3 O1'
_chemical_name_systematic        'Isonicotinohydrazide 4-aminosalicylic acid'
_symmetry_cell_setting           orthorhombic
_symmetry_space_group_name_H-M   'P n a 21'
_symmetry_Int_Tables_number      33
_space_group_name_Hall           'P 2c -2n'
loop_
_symmetry_equiv_pos_site_id
_symmetry_equiv_pos_as_xyz
1 x,y,z
2 -x,-y,1/2+z
3 1/2-x,1/2+y,1/2+z
4 1/2+x,1/2-y,z
_cell_length_a                   21.942(2)
_cell_length_b                   16.515(2)
_cell_length_c                   7.3435(8)
_cell_angle_alpha                90
_cell_angle_beta                 90
_cell_angle_gamma                90
_cell_volume                     2661.08
_exptl_crystal_colour            yellow
_exptl_crystal_description       block
_cell_formula_units_Z            8
loop_
_atom_site_label
_atom_site_type_symbol
_atom_site_fract_x
_atom_site_fract_y
_atom_site_fract_z
O1 O 0.42365(10) 0.00483(13) 0.1154(5)
O2 O 0.51998(10) 0.03866(14) 0.1736(5)
O3 O 0.34691(9) 0.11889(14) 0.0386(4)
N1 N 0.40849(15) 0.39157(17) 0.1419(6)
C1 C 0.44843(12) 0.14297(17) 0.1494(4)
C2 C 0.39094(12) 0.17164(18) 0.0939(4)
C3 C 0.37803(13) 0.25337(18) 0.0914(4)
C4 C 0.42183(13) 0.31028(17) 0.1428(5)
C5 C 0.47922(14) 0.28292(18) 0.2029(4)
C6 C 0.49179(12) 0.20080(18) 0.2038(4)
C7 C 0.46289(13) 0.05663(18) 0.1462(5)
H1 H 0.530(3) -0.018(3) 0.164(10)
H2 H 0.3629(18) 0.068(2) 0.068(7)
H3 H 0.4390(19) 0.429(3) 0.156(7)
H4 H 0.372(3) 0.410(4) 0.068(11)
H5 H 0.3360(18) 0.270(2) 0.058(6)
H6 H 0.5105(14) 0.3198(18) 0.229(5)
H7 H 0.5281(13) 0.1749(17) 0.246(4)
O4 O 0.18269(11) 0.00845(14) 0.4797(5)
O5 O 0.27791(10) 0.03915(13) 0.4005(5)
O6 O 0.10174(10) 0.11974(17) 0.4899(4)
N2 N 0.16845(16) 0.39385(18) 0.4204(6)
C8 C 0.20689(12) 0.14572(16) 0.4183(4)
C9 C 0.14757(13) 0.17307(19) 0.4537(5)
C10 C 0.13510(14) 0.2554(2) 0.4541(5)
C11 C 0.18005(13) 0.31224(18) 0.4173(5)
C12 C 0.23886(14) 0.28440(19) 0.3733(5)
C13 C 0.25126(14) 0.20348(18) 0.3734(4)
C14 C 0.22175(14) 0.05904(18) 0.4342(5)
H8 H 0.287(3) -0.027(4) 0.405(11)
H9 H 0.135(2) 0.409(2) 0.467(7)
H10 H 0.200(2) 0.430(3) 0.417(7)
H11 H 0.132(3) 0.071(3) 0.491(10)
H12 H 0.1029(19) 0.276(2) 0.485(6)
H13 H 0.2698(19) 0.323(3) 0.353(7)
H14 H 0.2934(16) 0.182(2) 0.351(6)
O7 O 0.37673(10) 0.39721(14) 0.6637(5)
N3 N 0.45726(12) 0.11482(15) 0.6612(4)
N4 N 0.47714(12) 0.41864(16) 0.6515(6)
N5 N 0.47252(15) 0.50416(18) 0.6497(9)
C15 C 0.50089(14) 0.1647(2) 0.7201(5)
C16 C 0.49503(13) 0.24778(19) 0.7219(5)
C17 C 0.44078(12) 0.28161(16) 0.6618(4)
C18 C 0.39485(14) 0.2302(2) 0.6028(5)
C19 C 0.40480(14) 0.1478(2) 0.6042(5)
C20 C 0.42850(13) 0.37092(19) 0.6586(5)
H15 H 0.5362(14) 0.129(2) 0.759(5)
H16 H 0.5269(18) 0.281(2) 0.760(6)
H17 H 0.5132(18) 0.400(2) 0.625(7)
H18 H 0.443(3) 0.518(4) 0.546(10)
H19 H 0.455(3) 0.513(4) 0.751(10)
H20 H 0.3544(18) 0.253(2) 0.564(6)
H21 H 0.3754(16) 0.109(2) 0.569(6)
O8 O 0.11406(11) 0.10723(14) 0.9181(5)
N6 N 0.20144(11) 0.38567(14) 0.9095(5)
N7 N 0.21483(13) 0.08215(15) 0.9326(5)
N8 N 0.20922(16) -0.00350(17) 0.9311(7)
C21 C 0.24280(14) 0.33451(19) 0.8457(5)
C22 C 0.23451(13) 0.25109(19) 0.8476(5)
C23 C 0.18093(12) 0.22079(15) 0.9182(4)
C24 C 0.13734(13) 0.2740(2) 0.9814(5)
C25 C 0.14907(13) 0.35668(19) 0.9757(5)
C26 C 0.16700(13) 0.13101(18) 0.9232(5)
H22 H 0.256(2) 0.098(3) 0.950(8)
H23 H 0.186(3) -0.018(3) 1.032(8)
H24 H 0.190(3) -0.023(4) 0.835(9)
H25 H 0.2766(14) 0.3506(18) 0.802(5)
H26 H 0.2623(17) 0.218(2) 0.801(6)
H27 H 0.1000(16) 0.253(2) 1.037(5)
H28 H 0.1186(17) 0.401(2) 1.029(6)
loop_
_geom_bond_atom_site_label_1
_geom_bond_atom_site_label_2
_geom_bond_site_symmetry_1
_geom_bond_site_symmetry_2
O1 C7 1_555 1_555
O2 C7 1_555 1_555
O3 C2 1_555 1_555
N1 C4 1_555 1_555
C1 C2 1_555 1_555
C2 C3 1_555 1_555
C3 C4 1_555 1_555
C4 C5 1_555 1_555
C5 C6 1_555 1_555
C6 C1 1_555 1_555
C7 C1 1_555 1_555
O4 C14 1_555 1_555
O5 C14 1_555 1_555
O6 C9 1_555 1_555
N2 C11 1_555 1_555
C8 C9 1_555 1_555
C9 C10 1_555 1_555
C10 C11 1_555 1_555
C11 C12 1_555 1_555
C12 C13 1_555 1_555
C13 C8 1_555 1_555
C14 C8 1_555 1_555
O7 C20 1_555 1_555
N3 C15 1_555 1_555
N4 N5 1_555 1_555
N5 H18 1_555 1_555
C15 C16 1_555 1_555
C16 C17 1_555 1_555
C17 C18 1_555 1_555
C18 C19 1_555 1_555
C19 N3 1_555 1_555
C20 N4 1_555 1_555
O8 C26 1_555 1_555
N6 C21 1_555 1_555
N7 N8 1_555 1_555
N8 H23 1_555 1_555
C21 C22 1_555 1_555
C22 C23 1_555 1_555
C23 C24 1_555 1_555
C24 C25 1_555 1_555
C25 N6 1_555 1_555
C26 N7 1_555 1_555
H1 O2 1_555 1_555
H2 O3 1_555 1_555
H3 N1 1_555 1_555
H4 N1 1_555 1_555
H5 C3 1_555 1_555
H6 C5 1_555 1_555
H7 C6 1_555 1_555
H8 O5 1_555 1_555
H9 N2 1_555 1_555
H10 N2 1_555 1_555
H11 O6 1_555 1_555
H12 C10 1_555 1_555
H13 C12 1_555 1_555
H14 C13 1_555 1_555
H15 C15 1_555 1_555
H16 C16 1_555 1_555
H17 N4 1_555 1_555
H19 N5 1_555 1_555
H20 C18 1_555 1_555
H21 C19 1_555 1_555
H22 N7 1_555 1_555
H24 N8 1_555 1_555
H25 C21 1_555 1_555
H26 C22 1_555 1_555
H27 C24 1_555 1_555
H28 C25 1_555 1_555
C17 C20 1_555 1_555
C23 C26 1_555 1_555

#END
