
#######################################################################
#
#                 Cambridge Crystallographic Data Centre
#                                CCDC 
#
#######################################################################
#
# If this CIF has been generated from an entry in the Cambridge 
# Structural Database, then it will include bibliographic, chemical, 
# crystal, experimental, refinement or atomic coordinate data resulting 
# from the CCDC's data processing and validation procedures.
#
#######################################################################

data_URUPAZ
_chemical_compound_source        'Chisocheton ceramicus'
_chemical_name_common            'Chisomicine B'
_chemical_formula_moiety         'C32 H40 O9'
_chemical_name_systematic        
'9-(3-Furyl)-18-hydroxy-15-(2-methoxy-2-oxoethyl)-10,14,16-trimethyl-7-oxo-3,8-dioxahexacyclo[14.2.1.0^2,4^.0^4,13^.0^5,10^.0^14,18^]nonadec-19-yl 2-methylbut-2-enoate'
_symmetry_cell_setting           orthorhombic
_symmetry_space_group_name_H-M   'P 21 21 21'
_symmetry_Int_Tables_number      19
_space_group_name_Hall           'P 2ac 2ab'
loop_
_symmetry_equiv_pos_site_id
_symmetry_equiv_pos_as_xyz
1 x,y,z
2 1/2-x,-y,1/2+z
3 1/2+x,1/2-y,-z
4 -x,1/2+y,1/2-z
_cell_length_a                   12.4910(2)
_cell_length_b                   13.4647(2)
_cell_length_c                   34.3327(5)
_cell_angle_alpha                90
_cell_angle_beta                 90
_cell_angle_gamma                90
_cell_volume                     5774.33
_chemical_melting_point          '176-178 deg.C'
_cell_formula_units_Z            8
loop_
_atom_site_label
_atom_site_type_symbol
_atom_site_fract_x
_atom_site_fract_y
_atom_site_fract_z
O1 O 1.0917(2) 0.1801(2) 0.36051(6)
O2 O 0.96755(16) 0.17789(15) 0.48186(5)
O3 O 0.96948(19) 0.18163(18) 0.54547(6)
O4 O 0.61733(18) 0.10130(18) 0.50214(6)
O5 O 0.47853(19) -0.0460(2) 0.47043(7)
H1 H 0.4814 0.0069 0.4833
O6 O 0.9006(2) -0.1282(2) 0.52302(7)
O7 O 0.86199(18) -0.09041(16) 0.46084(6)
O8 O 0.89887(19) -0.0782(2) 0.35355(7)
O9 O 0.80140(19) -0.16179(17) 0.30945(6)
C1 C 1.1334(3) 0.2571(3) 0.38154(10)
H2 H 1.1938 0.2953 0.3739
C2 C 1.0774(3) 0.2714(3) 0.41439(9)
H3 H 1.0906 0.3201 0.4338
C3 C 0.9938(2) 0.1987(2) 0.41449(8)
C4 C 1.0069(3) 0.1452(3) 0.38149(9)
H4 H 0.9632 0.0908 0.3740
C5 C 0.9104(2) 0.1819(2) 0.44441(7)
H5 H 0.8779 0.1152 0.4396
C6 C 0.8192(3) 0.2588(2) 0.44580(8)
C7 C 0.7437(2) 0.2249(2) 0.47835(8)
H6 H 0.6850 0.2752 0.4800
C8 C 0.8041(2) 0.2284(2) 0.51744(8)
H7 H 0.8034 0.2977 0.5271
H8 H 0.7647 0.1873 0.5366
C9 C 0.9181(2) 0.1933(2) 0.51606(8)
C10 C 0.8614(3) 0.3644(2) 0.45318(10)
H9 H 0.8014 0.4084 0.4595
H10 H 0.8977 0.3888 0.4298
H11 H 0.9120 0.3633 0.4750
C11 C 0.7545(3) 0.2609(2) 0.40785(9)
H12 H 0.6959 0.3098 0.4105
H13 H 0.8017 0.2836 0.3865
C12 C 0.7068(3) 0.1608(2) 0.39682(9)
H14 H 0.7656 0.1153 0.3894
H15 H 0.6604 0.1698 0.3737
C13 C 0.6401(2) 0.1116(2) 0.42967(9)
H16 H 0.5707 0.1485 0.4305
C14 C 0.6907(2) 0.1250(2) 0.47001(8)
C15 C 0.7090(2) 0.0368(2) 0.49511(8)
H17 H 0.7693 0.0410 0.5142
C16 C 0.6724(3) -0.0649(2) 0.48388(9)
H18 H 0.6451 -0.0980 0.5080
C17 C 0.5802(3) -0.0654(3) 0.45361(9)
C18 C 0.6110(3) 0.0016(3) 0.41840(9)
C19 C 0.5142(3) 0.0080(3) 0.39024(10)
H19 H 0.4511 0.0313 0.4045
H20 H 0.4997 -0.0579 0.3793
H21 H 0.5306 0.0546 0.3691
C20 C 0.7091(2) -0.0592(2) 0.40153(8)
H22 H 0.7761 -0.0223 0.4081
C21 C 0.7090(3) -0.1584(2) 0.42523(9)
C22 C 0.5915(3) -0.1703(3) 0.43711(10)
H23 H 0.5810 -0.2224 0.4571
H24 H 0.5438 -0.1824 0.4146
C23 C 0.7061(3) -0.0744(3) 0.35717(9)
H25 H 0.6530 -0.1266 0.3509
H26 H 0.6825 -0.0120 0.3446
C24 C 0.8139(3) -0.1041(3) 0.34080(8)
C25 C 0.8987(3) -0.1957(3) 0.29004(9)
H27 H 0.8885 -0.1932 0.2618
H28 H 0.9144 -0.2640 0.2980
H29 H 0.9586 -0.1525 0.2974
C26 C 0.7647(3) -0.2468(3) 0.40684(10)
H30 H 0.7534 -0.3058 0.4231
H31 H 0.8415 -0.2333 0.4048
H32 H 0.7351 -0.2586 0.3808
C27 C 0.7569(3) -0.1349(2) 0.46551(9)
H33 H 0.7627 -0.1972 0.4812
C28 C 0.9289(3) -0.0970(2) 0.49155(9)
C29 C 1.0385(3) -0.0594(2) 0.48281(10)
C30 C 1.1079(3) -0.0426(3) 0.51832(11)
H34 H 1.1834 -0.0491 0.5111
H35 H 1.0903 -0.0921 0.5383
H36 H 1.0949 0.0241 0.5286
C31 C 1.0691(3) -0.0429(2) 0.44660(11)
H37 H 1.0197 -0.0570 0.4263
C32 C 1.1780(3) -0.0027(3) 0.43541(13)
H38 H 1.1829 0.0024 0.4070
H39 H 1.2338 -0.0477 0.4450
H40 H 1.1879 0.0631 0.4470
O10 O 1.04176(18) -0.07511(17) 0.16805(7)
O11 O 0.86670(17) 0.21172(15) 0.18149(6)
O12 O 0.8207(2) 0.35816(17) 0.20423(7)
O13 O 0.51330(17) 0.22114(16) 0.15040(6)
O14 O 0.34001(16) 0.08861(17) 0.16422(7)
H41 H 0.3591 0.1421 0.1537
O15 O 0.65802(15) 0.06269(15) 0.24338(5)
O16 O 0.63180(19) 0.19063(17) 0.28420(6)
O17 O 0.66192(19) -0.33262(16) 0.19983(7)
O18 O 0.75737(18) -0.19279(17) 0.20704(7)
C33 C 1.1046(3) 0.0001(3) 0.15469(10)
H42 H 1.1795 -0.0050 0.1503
C34 C 1.0463(2) 0.0826(2) 0.14855(9)
H43 H 1.0716 0.1445 0.1390
C35 C 0.9379(2) 0.0586(2) 0.15939(8)
C36 C 0.9410(2) -0.0374(2) 0.17114(9)
H44 H 0.8808 -0.0737 0.1803
C37 C 0.8398(2) 0.1222(2) 0.15866(8)
H45 H 0.7819 0.0859 0.1729
C38 C 0.7966(2) 0.1498(2) 0.11828(8)
C39 C 0.6958(2) 0.2130(2) 0.12574(8)
H46 H 0.6679 0.2337 0.0997
C40 C 0.7274(3) 0.3079(2) 0.14723(9)
H47 H 0.7585 0.3548 0.1281
H48 H 0.6616 0.3389 0.1578
C41 C 0.8059(2) 0.2947(2) 0.18010(9)
C42 C 0.8790(3) 0.2076(3) 0.09404(9)
H49 H 0.9355 0.1622 0.0853
H50 H 0.9107 0.2602 0.1100
H51 H 0.8436 0.2371 0.0714
C43 C 0.7631(2) 0.0582(2) 0.09514(8)
H52 H 0.8271 0.0165 0.0905
H53 H 0.7356 0.0797 0.0695
C44 C 0.6777(2) -0.0051(2) 0.11516(8)
H54 H 0.7105 -0.0385 0.1379
H55 H 0.6541 -0.0574 0.0968
C45 C 0.5779(2) 0.0533(2) 0.12918(7)
H56 H 0.5344 0.0666 0.1053
C46 C 0.6058(2) 0.1549(2) 0.14590(8)
C47 C 0.5667(2) 0.1822(2) 0.18501(8)
H57 H 0.6117 0.2302 0.2001
C48 C 0.4922(2) 0.1187(2) 0.20814(8)
H58 H 0.4395 0.1634 0.2213
C49 C 0.4290(2) 0.0445(2) 0.18304(8)
C50 C 0.3982(2) -0.0343(2) 0.21341(8)
H59 H 0.3644 -0.0937 0.2017
H60 H 0.3525 -0.0075 0.2345
C51 C 0.5145(2) -0.0532(2) 0.22662(7)
C52 C 0.5724(2) -0.07373(19) 0.18725(7)
H61 H 0.6461 -0.0450 0.1887
C53 C 0.5064(2) -0.0133(2) 0.15575(8)
C54 C 0.4396(2) -0.0793(2) 0.12862(8)
H62 H 0.3855 -0.0387 0.1154
H63 H 0.4041 -0.1311 0.1439
H64 H 0.4865 -0.1102 0.1092
C55 C 0.5312(2) -0.1287(2) 0.25879(8)
H65 H 0.4935 -0.1068 0.2823
H66 H 0.6078 -0.1349 0.2644
H67 H 0.5029 -0.1932 0.2505
C56 C 0.5431(2) 0.0520(2) 0.23963(8)
H68 H 0.5085 0.0660 0.2653
C57 C 0.6920(2) 0.1341(2) 0.26831(8)
C58 C 0.8100(2) 0.1354(2) 0.27346(8)
C59 C 0.8522(3) 0.2292(3) 0.29205(10)
H69 H 0.9282 0.2208 0.2983
H70 H 0.8121 0.2428 0.3160
H71 H 0.8435 0.2848 0.2739
C60 C 0.8693(2) 0.0592(3) 0.26212(9)
H72 H 0.8334 0.0040 0.2509
C61 C 0.9888(3) 0.0533(4) 0.26566(11)
H73 H 1.0172 0.0102 0.2451
H74 H 1.0078 0.0260 0.2912
H75 H 1.0195 0.1200 0.2630
C62 C 0.5821(2) -0.1849(2) 0.17773(8)
H76 H 0.5157 -0.2191 0.1860
H77 H 0.5888 -0.1931 0.1492
C63 C 0.6764(2) -0.2337(2) 0.19720(8)
C64 C 0.7541(3) -0.3883(3) 0.21362(13)
H78 H 0.7412 -0.4595 0.2101
H79 H 0.7656 -0.3743 0.2413
H80 H 0.8177 -0.3685 0.1988
loop_
_geom_bond_atom_site_label_1
_geom_bond_atom_site_label_2
_geom_bond_site_symmetry_1
_geom_bond_site_symmetry_2
O1 C1 1_555 1_555
O2 C5 1_555 1_555
O3 C9 1_555 1_555
O4 C14 1_555 1_555
O5 H1 1_555 1_555
O6 C28 1_555 1_555
O7 C27 1_555 1_555
O8 C24 1_555 1_555
O9 C24 1_555 1_555
C1 H2 1_555 1_555
C2 C1 1_555 1_555
H3 C2 1_555 1_555
C3 C2 1_555 1_555
C4 O1 1_555 1_555
H4 C4 1_555 1_555
C5 C3 1_555 1_555
H5 C5 1_555 1_555
C6 C5 1_555 1_555
C7 C6 1_555 1_555
H6 C7 1_555 1_555
C8 C7 1_555 1_555
H7 C8 1_555 1_555
H8 C8 1_555 1_555
C9 O2 1_555 1_555
C10 C6 1_555 1_555
H9 C10 1_555 1_555
H10 C10 1_555 1_555
H11 C10 1_555 1_555
C11 C6 1_555 1_555
H12 C11 1_555 1_555
H13 C11 1_555 1_555
C12 C11 1_555 1_555
H14 C12 1_555 1_555
H15 C12 1_555 1_555
C13 C12 1_555 1_555
H16 C13 1_555 1_555
C14 C7 1_555 1_555
C15 O4 1_555 1_555
H17 C15 1_555 1_555
C16 C15 1_555 1_555
H18 C16 1_555 1_555
C17 O5 1_555 1_555
C18 C13 1_555 1_555
C19 C18 1_555 1_555
H19 C19 1_555 1_555
H20 C19 1_555 1_555
H21 C19 1_555 1_555
C20 C18 1_555 1_555
H22 C20 1_555 1_555
C21 C20 1_555 1_555
C22 C17 1_555 1_555
H23 C22 1_555 1_555
H24 C22 1_555 1_555
C23 C20 1_555 1_555
H25 C23 1_555 1_555
H26 C23 1_555 1_555
C24 C23 1_555 1_555
C25 O9 1_555 1_555
H27 C25 1_555 1_555
H28 C25 1_555 1_555
H29 C25 1_555 1_555
C26 C21 1_555 1_555
H30 C26 1_555 1_555
H31 C26 1_555 1_555
H32 C26 1_555 1_555
C27 C16 1_555 1_555
H33 C27 1_555 1_555
C28 O7 1_555 1_555
C29 C28 1_555 1_555
C30 C29 1_555 1_555
H34 C30 1_555 1_555
H35 C30 1_555 1_555
H36 C30 1_555 1_555
C31 C29 1_555 1_555
H37 C31 1_555 1_555
C32 C31 1_555 1_555
H38 C32 1_555 1_555
H39 C32 1_555 1_555
H40 C32 1_555 1_555
O10 C33 1_555 1_555
O11 C37 1_555 1_555
O12 C41 1_555 1_555
O13 C46 1_555 1_555
O14 H41 1_555 1_555
O15 C56 1_555 1_555
O16 C57 1_555 1_555
O17 C63 1_555 1_555
O18 C63 1_555 1_555
C33 H42 1_555 1_555
C34 C33 1_555 1_555
H43 C34 1_555 1_555
C35 C34 1_555 1_555
C36 O10 1_555 1_555
H44 C36 1_555 1_555
C37 C35 1_555 1_555
H45 C37 1_555 1_555
C38 C37 1_555 1_555
C39 C38 1_555 1_555
H46 C39 1_555 1_555
C40 C39 1_555 1_555
H47 C40 1_555 1_555
H48 C40 1_555 1_555
C41 O11 1_555 1_555
C42 C38 1_555 1_555
H49 C42 1_555 1_555
H50 C42 1_555 1_555
H51 C42 1_555 1_555
C43 C38 1_555 1_555
H52 C43 1_555 1_555
H53 C43 1_555 1_555
C44 C43 1_555 1_555
H54 C44 1_555 1_555
H55 C44 1_555 1_555
C45 C44 1_555 1_555
H56 C45 1_555 1_555
C46 C39 1_555 1_555
C47 O13 1_555 1_555
H57 C47 1_555 1_555
C48 C47 1_555 1_555
H58 C48 1_555 1_555
C49 O14 1_555 1_555
C50 C49 1_555 1_555
H59 C50 1_555 1_555
H60 C50 1_555 1_555
C51 C50 1_555 1_555
C52 C51 1_555 1_555
H61 C52 1_555 1_555
C53 C45 1_555 1_555
C54 C53 1_555 1_555
H62 C54 1_555 1_555
H63 C54 1_555 1_555
H64 C54 1_555 1_555
C55 C51 1_555 1_555
H65 C55 1_555 1_555
H66 C55 1_555 1_555
H67 C55 1_555 1_555
C56 C48 1_555 1_555
H68 C56 1_555 1_555
C57 O15 1_555 1_555
C58 C57 1_555 1_555
C59 C58 1_555 1_555
H69 C59 1_555 1_555
H70 C59 1_555 1_555
H71 C59 1_555 1_555
C60 C58 1_555 1_555
H72 C60 1_555 1_555
C61 C60 1_555 1_555
H73 C61 1_555 1_555
H74 C61 1_555 1_555
H75 C61 1_555 1_555
C62 C52 1_555 1_555
H76 C62 1_555 1_555
H77 C62 1_555 1_555
C63 C62 1_555 1_555
C64 O17 1_555 1_555
H78 C64 1_555 1_555
H79 C64 1_555 1_555
H80 C64 1_555 1_555
C3 C4 1_555 1_555
C8 C9 1_555 1_555
C13 C14 1_555 1_555
C14 C15 1_555 1_555
C16 C17 1_555 1_555
C17 C18 1_555 1_555
C21 C22 1_555 1_555
C21 C27 1_555 1_555
C35 C36 1_555 1_555
C40 C41 1_555 1_555
C45 C46 1_555 1_555
C46 C47 1_555 1_555
C48 C49 1_555 1_555
C49 C53 1_555 1_555
C51 C56 1_555 1_555
C52 C53 1_555 1_555

#END
