
#######################################################################
#
#                 Cambridge Crystallographic Data Centre
#                                CCDC 
#
#######################################################################
#
# If this CIF has been generated from an entry in the Cambridge 
# Structural Database, then it will include bibliographic, chemical, 
# crystal, experimental, refinement or atomic coordinate data resulting 
# from the CCDC's data processing and validation procedures.
#
#######################################################################

data_URUROP
_chemical_compound_source        'Euphorbia micractina roots'
_chemical_name_common            
'3,6,8,8,10a-Pentamethyl-5-oxo-1a,1b,2,3,4,5,7a,8,8a,9,10,10a-dodecahydro-4aH-cyclopenta[10,11]cyclopropa[5,6]cycloundeca[1,2-b]oxirene-2,4a-diyl diacetate'
_chemical_formula_moiety         'C24 H34 O6'
_chemical_name_systematic        
(-)-(12E,2S,3S,4R,5R,6R,9S,11S,15R)-3,15-Diacetoxy-5,6-epoxylathyr-12-en-14-one
_symmetry_cell_setting           orthorhombic
_symmetry_space_group_name_H-M   'P 21 21 21'
_symmetry_Int_Tables_number      19
_space_group_name_Hall           'P 2ac 2ab'
loop_
_symmetry_equiv_pos_site_id
_symmetry_equiv_pos_as_xyz
1 x,y,z
2 1/2-x,-y,1/2+z
3 -x,1/2+y,1/2-z
4 1/2+x,1/2-y,-z
_cell_length_a                   10.1962(2)
_cell_length_b                   12.6572(3)
_cell_length_c                   18.0256(4)
_cell_angle_alpha                90
_cell_angle_beta                 90
_cell_angle_gamma                90
_cell_volume                     2326.3
_exptl_crystal_colour            colorless
_exptl_crystal_description       block
_chemical_melting_point          '176.178 deg.C'
_cell_formula_units_Z            4
_exptl_crystal_recrystallization_method acetone
loop_
_atom_site_label
_atom_site_type_symbol
_atom_site_fract_x
_atom_site_fract_y
_atom_site_fract_z
O1 O -1.18540(15) -1.03937(13) -0.90744(8)
O2 O -1.2271(3) -1.1212(2) -1.01414(13)
O3 O -0.87960(17) -1.08348(13) -0.96327(8)
O4 O -0.9601(2) -0.68470(13) -0.87069(10)
O5 O -1.02594(14) -0.91881(10) -0.77219(7)
O6 O -1.0569(2) -0.76717(13) -0.71027(10)
C1 C -1.1690(2) -0.8203(2) -0.85642(14)
H1 H -1.2297 -0.8539 -0.8224
H2 H -1.1759 -0.7443 -0.8505
C2 C -1.2006(2) -0.8516(2) -0.93604(14)
H3 H -1.1631 -0.7978 -0.9689
C3 C -1.1228(2) -0.95226(18) -0.94636(12)
H4 H -1.1104 -0.9686 -0.9990
C4 C -0.9922(2) -0.92994(17) -0.90804(11)
H5 H -0.9424 -0.8855 -0.9425
C5 C -0.9089(2) -1.02704(16) -0.89522(12)
H6 H -0.9348 -1.0712 -0.8530
C6 C -0.7717(2) -1.0392(2) -0.92007(12)
C7 C -0.6890(3) -1.1228(2) -0.88255(14)
H7 H -0.6075 -1.1296 -0.9099
H8 H -0.7347 -1.1898 -0.8863
C8 C -0.6557(2) -1.10355(18) -0.80055(13)
H9 H -0.7372 -1.0914 -0.7741
H10 H -0.6177 -1.1679 -0.7808
C9 C -0.5637(2) -1.01342(18) -0.78286(12)
H11 H -0.4769 -1.0205 -0.8057
C10 C -0.5610(2) -0.96264(17) -0.70778(12)
C11 C -0.6097(2) -0.89851(17) -0.77464(12)
H12 H -0.5472 -0.8458 -0.7929
C12 C -0.7470(2) -0.87217(17) -0.78773(11)
H13 H -0.8084 -0.9247 -0.7781
C13 C -0.7929(2) -0.77946(17) -0.81231(12)
C14 C -0.9283(2) -0.76621(16) -0.83911(12)
C15 C -1.0273(2) -0.85708(16) -0.84049(11)
C16 C -1.3470(3) -0.8587(3) -0.95246(17)
H14 H -1.3597 -0.8787 -1.0033
H15 H -1.3871 -0.7912 -0.9437
H16 H -1.3863 -0.9106 -0.9207
C17 C -0.6990(3) -0.9539(2) -0.96057(14)
H17 H -0.7606 -0.9054 -0.9821
H18 H -0.6466 -0.9849 -0.9991
H19 H -0.6433 -0.9168 -0.9265
C18 C -0.4311(3) -0.9258(2) -0.67721(16)
H20 H -0.4069 -0.9693 -0.6358
H21 H -0.4385 -0.8537 -0.6613
H22 H -0.3652 -0.9311 -0.7151
C19 C -0.6560(3) -0.9994(2) -0.64884(14)
H23 H -0.6092 -1.0381 -0.6114
H24 H -0.7211 -1.0443 -0.6710
H25 H -0.6979 -0.9393 -0.6267
C20 C -0.7070(3) -0.6829(2) -0.8222(2)
H26 H -0.6207 -0.6975 -0.8035
H27 H -0.7442 -0.6246 -0.7954
H28 H -0.7017 -0.6654 -0.8739
C21 C -1.2282(3) -1.1212(2) -0.94773(15)
C22 C -1.2811(4) -1.2078(2) -0.9007(2)
H29 H -1.3105 -1.2646 -0.9317
H30 H -1.3533 -1.1817 -0.8718
H31 H -1.2135 -1.2329 -0.8680
C23 C -1.0428(2) -0.86104(18) -0.70920(12)
C24 C -1.0405(3) -0.9273(2) -0.64177(13)
H32 H -1.0526 -0.8834 -0.5989
H33 H -0.9576 -0.9629 -0.6383
H34 H -1.1097 -0.9785 -0.6443
loop_
_geom_bond_atom_site_label_1
_geom_bond_atom_site_label_2
_geom_bond_site_symmetry_1
_geom_bond_site_symmetry_2
O1 C3 1_555 1_555
O2 C21 1_555 1_555
O3 C5 1_555 1_555
O4 C14 1_555 1_555
O5 C15 1_555 1_555
O6 C23 1_555 1_555
C1 H1 1_555 1_555
H2 C1 1_555 1_555
C2 C1 1_555 1_555
H3 C2 1_555 1_555
C3 C2 1_555 1_555
H4 C3 1_555 1_555
C4 C3 1_555 1_555
H5 C4 1_555 1_555
C5 C4 1_555 1_555
H6 C5 1_555 1_555
C6 O3 1_555 1_555
C7 C6 1_555 1_555
H7 C7 1_555 1_555
H8 C7 1_555 1_555
C8 C7 1_555 1_555
H9 C8 1_555 1_555
H10 C8 1_555 1_555
C9 C8 1_555 1_555
H11 C9 1_555 1_555
C10 C9 1_555 1_555
C11 C9 1_555 1_555
H12 C11 1_555 1_555
C12 C11 1_555 1_555
H13 C12 1_555 1_555
C13 C12 1_555 1_555
C14 C13 1_555 1_555
C15 C1 1_555 1_555
C16 C2 1_555 1_555
H14 C16 1_555 1_555
H15 C16 1_555 1_555
H16 C16 1_555 1_555
C17 C6 1_555 1_555
H17 C17 1_555 1_555
H18 C17 1_555 1_555
H19 C17 1_555 1_555
C18 C10 1_555 1_555
H20 C18 1_555 1_555
H21 C18 1_555 1_555
H22 C18 1_555 1_555
C19 C10 1_555 1_555
H23 C19 1_555 1_555
H24 C19 1_555 1_555
H25 C19 1_555 1_555
C20 C13 1_555 1_555
H26 C20 1_555 1_555
H27 C20 1_555 1_555
H28 C20 1_555 1_555
C21 O1 1_555 1_555
C22 C21 1_555 1_555
H29 C22 1_555 1_555
H30 C22 1_555 1_555
H31 C22 1_555 1_555
C23 O5 1_555 1_555
C24 C23 1_555 1_555
H32 C24 1_555 1_555
H33 C24 1_555 1_555
H34 C24 1_555 1_555
C4 C15 1_555 1_555
C5 C6 1_555 1_555
C10 C11 1_555 1_555
C14 C15 1_555 1_555

#END
