
#######################################################################
#
#                 Cambridge Crystallographic Data Centre
#                                CCDC 
#
#######################################################################
#
# If this CIF has been generated from an entry in the Cambridge 
# Structural Database, then it will include bibliographic, chemical, 
# crystal, experimental, refinement or atomic coordinate data resulting 
# from the CCDC's data processing and validation procedures.
#
#######################################################################

data_USAJOO
_chemical_formula_moiety         'C18 H17 N1 O3'
_chemical_name_systematic        
3-(Amino(phenyl)methylene)-5-(phenoxymethyl)dihydrofuran-2(3H)-one
_symmetry_cell_setting           monoclinic
_symmetry_space_group_name_H-M   'P 21/c'
_symmetry_Int_Tables_number      14
_space_group_name_Hall           '-P 2ybc'
loop_
_symmetry_equiv_pos_site_id
_symmetry_equiv_pos_as_xyz
1 x,y,z
2 -x,1/2+y,1/2-z
3 -x,-y,-z
4 x,1/2-y,1/2+z
_cell_length_a                   12.320(2)
_cell_length_b                   10.1168(16)
_cell_length_c                   12.1529(19)
_cell_angle_alpha                90
_cell_angle_beta                 92.882(2)
_cell_angle_gamma                90
_cell_volume                     1512.81
_exptl_crystal_colour            colorless
_exptl_crystal_description       block
_cell_formula_units_Z            4
loop_
_atom_site_label
_atom_site_type_symbol
_atom_site_fract_x
_atom_site_fract_y
_atom_site_fract_z
C1 C 0.7087(2) 0.6959(2) 0.2768(2)
H1 H 0.7299 0.6475 0.2165
C2 C 0.7375(2) 0.8278(3) 0.2875(2)
H2 H 0.7794 0.8670 0.2349
C3 C 0.7051(2) 0.9009(3) 0.3745(2)
H3 H 0.7231 0.9900 0.3801
C4 C 0.6459(2) 0.8423(3) 0.4529(2)
H4 H 0.6240 0.8918 0.5123
C5 C 0.61827(19) 0.7104(2) 0.4451(2)
H5 H 0.5792 0.6713 0.4999
C6 C 0.64834(16) 0.6361(2) 0.35608(17)
C7 C 0.61318(17) 0.4958(2) 0.34308(16)
C8 C 0.64550(17) 0.4013(2) 0.41758(17)
C9 C 0.61111(18) 0.2661(2) 0.40908(18)
C10 C 0.6913(2) 0.2892(3) 0.5819(2)
H6 H 0.6339 0.3117 0.6317
C11 C 0.7212(2) 0.4133(2) 0.51798(18)
H7 H 0.7073 0.4932 0.5592
H8 H 0.7967 0.4119 0.4989
C12 C 0.7790(2) 0.2212(2) 0.6450(2)
H9 H 0.7502 0.1467 0.6845
H10 H 0.8326 0.1886 0.5959
C13 C 0.90646(19) 0.2688(2) 0.79343(18)
C14 C 0.9386(2) 0.1397(3) 0.8053(2)
H11 H 0.9063 0.0742 0.7610
C15 C 1.0193(2) 0.1075(3) 0.8836(2)
H12 H 1.0407 0.0197 0.8916
C16 C 1.0683(2) 0.2009(3) 0.9493(2)
H13 H 1.1219 0.1775 1.0023
C17 C 1.0372(2) 0.3309(3) 0.9358(2)
H14 H 1.0711 0.3960 0.9793
C18 C 0.9570(2) 0.3652(3) 0.8592(2)
H15 H 0.9363 0.4532 0.8512
O1 O 0.64755(15) 0.19719(16) 0.49909(13)
O2 O 0.55590(14) 0.21081(15) 0.33720(14)
O3 O 0.82716(15) 0.31395(17) 0.72032(14)
N1 N 0.54984(18) 0.4707(2) 0.25269(17)
H16 H 0.5156(19) 0.5351(17) 0.2204(18)
H17 H 0.530(2) 0.3908(9) 0.239(2)
loop_
_geom_bond_atom_site_label_1
_geom_bond_atom_site_label_2
_geom_bond_site_symmetry_1
_geom_bond_site_symmetry_2
C1 H1 1_555 1_555
C2 C1 1_555 1_555
H2 C2 1_555 1_555
C3 C2 1_555 1_555
H3 C3 1_555 1_555
C4 C3 1_555 1_555
H4 C4 1_555 1_555
C5 C4 1_555 1_555
H5 C5 1_555 1_555
C6 C1 1_555 1_555
C7 C6 1_555 1_555
C8 C7 1_555 1_555
C9 C8 1_555 1_555
C10 H6 1_555 1_555
C11 C8 1_555 1_555
H7 C11 1_555 1_555
H8 C11 1_555 1_555
C12 C10 1_555 1_555
H9 C12 1_555 1_555
H10 C12 1_555 1_555
C13 C14 1_555 1_555
C14 H11 1_555 1_555
C15 C14 1_555 1_555
H12 C15 1_555 1_555
C16 C15 1_555 1_555
H13 C16 1_555 1_555
C17 C16 1_555 1_555
H14 C17 1_555 1_555
C18 C13 1_555 1_555
H15 C18 1_555 1_555
O1 C9 1_555 1_555
O2 C9 1_555 1_555
O3 C12 1_555 1_555
N1 C7 1_555 1_555
H16 N1 1_555 1_555
H17 N1 1_555 1_555
C5 C6 1_555 1_555
C10 C11 1_555 1_555
C10 O1 1_555 1_555
C13 O3 1_555 1_555
C17 C18 1_555 1_555

#END
