
#######################################################################
#
#                 Cambridge Crystallographic Data Centre
#                                CCDC 
#
#######################################################################
#
# If this CIF has been generated from an entry in the Cambridge 
# Structural Database, then it will include bibliographic, chemical, 
# crystal, experimental, refinement or atomic coordinate data resulting 
# from the CCDC's data processing and validation procedures.
#
#######################################################################

data_USAJOP
_chemical_formula_moiety         'C28 H30 N2 O3'
_chemical_name_systematic        
'9H-fluoren-9-ylmethyl (1-(butylamino)-1-oxo-3-phenylpropan-2-yl)carbamate'
_symmetry_cell_setting           monoclinic
_symmetry_space_group_name_H-M   'P 21'
_symmetry_Int_Tables_number      4
_space_group_name_Hall           'P 2yb'
loop_
_symmetry_equiv_pos_site_id
_symmetry_equiv_pos_as_xyz
1 x,y,z
2 -x,1/2+y,-z
_cell_length_a                   15.6780(6)
_cell_length_b                   5.0025(2)
_cell_length_c                   16.7554(7)
_cell_angle_alpha                90
_cell_angle_beta                 117.545(2)
_cell_angle_gamma                90
_cell_volume                     1165.16
_exptl_crystal_colour            colorless
_exptl_crystal_description       Needle
_cell_formula_units_Z            2
_exptl_crystal_recrystallization_method Chloroform/hexane
loop_
_atom_site_label
_atom_site_type_symbol
_atom_site_fract_x
_atom_site_fract_y
_atom_site_fract_z
O1 O 0.75551(10) 0.3364(3) 0.19473(8)
O2 O 0.76168(10) 0.6753(3) 0.28672(9)
O3 O 0.85850(10) -0.0066(3) 0.49824(9)
N1 N 0.73817(13) 0.2456(4) 0.31653(11)
H1 H 0.7413(16) 0.084(6) 0.3037(15)
N2 N 0.89739(12) 0.4328(4) 0.51935(11)
H2 H 0.8809(18) 0.595(6) 0.5033(17)
C1 C 0.80155(14) 0.6076(4) 0.01044(13)
C2 C 0.89022(14) 0.7292(4) 0.03923(13)
H3 H 0.9432 0.6793 0.0947
C3 C 0.90035(15) 0.9256(4) -0.01445(14)
H4 H 0.9612 1.0083 0.0041
C4 C 0.82257(15) 1.0025(5) -0.09490(13)
H5 H 0.8303 1.1408 -0.1299
C5 C 0.73381(15) 0.8794(4) -0.12467(13)
H6 H 0.6810 0.9302 -0.1801
C6 C 0.72361(13) 0.6801(4) -0.07176(12)
C7 C 0.64044(14) 0.5163(4) -0.08553(13)
C8 C 0.54871(14) 0.5028(5) -0.15846(14)
H7 H 0.5310 0.6171 -0.2090
C9 C 0.48369(15) 0.3191(5) -0.15585(15)
H8 H 0.4210 0.3067 -0.2053
C10 C 0.50922(15) 0.1531(4) -0.08185(14)
H9 H 0.4639 0.0279 -0.0813
C11 C 0.60080(14) 0.1684(4) -0.00830(13)
H10 H 0.6179 0.0564 0.0426
C12 C 0.66625(13) 0.3494(4) -0.01072(13)
C13 C 0.76982(13) 0.4026(4) 0.05839(12)
H11 H 0.8094 0.2361 0.0716
C14 C 0.78044(14) 0.5311(4) 0.14515(12)
H12 H 0.8475 0.5921 0.1820
H13 H 0.7375 0.6883 0.1308
C15 C 0.75293(13) 0.4391(4) 0.26859(12)
C16 C 0.73966(14) 0.3079(4) 0.40243(12)
H14 H 0.7301 0.5045 0.4054
C17 C 0.83820(14) 0.2303(4) 0.47899(12)
C18 C 0.99296(14) 0.4005(5) 0.59612(14)
H15 H 1.0425 0.4602 0.5790
H16 H 1.0044 0.2092 0.6128
C19 C 1.00183(15) 0.5618(5) 0.67638(15)
H17 H 1.0685 0.5462 0.7254
H18 H 0.9900 0.7525 0.6589
C20 C 0.93350(17) 0.4758(5) 0.71175(15)
H19 H 0.9506 0.2926 0.7364
H20 H 0.8674 0.4700 0.6612
C21 C 0.93468(17) 0.6602(5) 0.78472(15)
H21 H 1.0000 0.6689 0.8348
H22 H 0.8908 0.5905 0.8065
H23 H 0.9140 0.8396 0.7598
C22 C 0.65879(14) 0.1588(5) 0.41096(13)
H24 H 0.5963 0.2108 0.3603
H25 H 0.6671 -0.0358 0.4063
C23 C 0.65664(13) 0.2162(4) 0.49876(13)
C24 C 0.60363(15) 0.4283(5) 0.50631(15)
H26 H 0.5682 0.5396 0.4557
C25 C 0.60168(16) 0.4799(5) 0.58689(16)
H27 H 0.5652 0.6259 0.5911
C26 C 0.65269(16) 0.3191(5) 0.66095(15)
H28 H 0.6514 0.3540 0.7161
C27 C 0.70529(16) 0.1086(5) 0.65444(15)
H29 H 0.7403 -0.0024 0.7053
C28 C 0.70762(14) 0.0569(5) 0.57396(14)
H30 H 0.7445 -0.0890 0.5703
loop_
_geom_bond_atom_site_label_1
_geom_bond_atom_site_label_2
_geom_bond_site_symmetry_1
_geom_bond_site_symmetry_2
O1 C14 1_555 1_555
O2 C15 1_555 1_555
O3 C17 1_555 1_555
N1 H1 1_555 1_555
N2 H2 1_555 1_555
C1 C2 1_555 1_555
C2 H3 1_555 1_555
C3 C2 1_555 1_555
H4 C3 1_555 1_555
C4 C3 1_555 1_555
H5 C4 1_555 1_555
C5 C4 1_555 1_555
H6 C5 1_555 1_555
C6 C1 1_555 1_555
C7 C6 1_555 1_555
C8 C7 1_555 1_555
H7 C8 1_555 1_555
C9 C8 1_555 1_555
H8 C9 1_555 1_555
C10 C9 1_555 1_555
H9 C10 1_555 1_555
C11 C10 1_555 1_555
H10 C11 1_555 1_555
C12 C7 1_555 1_555
C13 C1 1_555 1_555
H11 C13 1_555 1_555
C14 C13 1_555 1_555
H12 C14 1_555 1_555
H13 C14 1_555 1_555
C15 O1 1_555 1_555
C16 N1 1_555 1_555
H14 C16 1_555 1_555
C17 N2 1_555 1_555
C18 N2 1_555 1_555
H15 C18 1_555 1_555
H16 C18 1_555 1_555
C19 C18 1_555 1_555
H17 C19 1_555 1_555
H18 C19 1_555 1_555
C20 C19 1_555 1_555
H19 C20 1_555 1_555
H20 C20 1_555 1_555
C21 C20 1_555 1_555
H21 C21 1_555 1_555
H22 C21 1_555 1_555
H23 C21 1_555 1_555
C22 C16 1_555 1_555
H24 C22 1_555 1_555
H25 C22 1_555 1_555
C23 C22 1_555 1_555
C24 C23 1_555 1_555
H26 C24 1_555 1_555
C25 C24 1_555 1_555
H27 C25 1_555 1_555
C26 C25 1_555 1_555
H28 C26 1_555 1_555
C27 C26 1_555 1_555
H29 C27 1_555 1_555
C28 C23 1_555 1_555
H30 C28 1_555 1_555
N1 C15 1_555 1_555
C5 C6 1_555 1_555
C11 C12 1_555 1_555
C12 C13 1_555 1_555
C16 C17 1_555 1_555
C27 C28 1_555 1_555

#END
