
#######################################################################
#
#                 Cambridge Crystallographic Data Centre
#                                CCDC 
#
#######################################################################
#
# If this CIF has been generated from an entry in the Cambridge 
# Structural Database, then it will include bibliographic, chemical, 
# crystal, experimental, refinement or atomic coordinate data resulting 
# from the CCDC's data processing and validation procedures.
#
#######################################################################

data_USALEH
_chemical_formula_moiety         'C21 H24 N2 O3'
_chemical_name_systematic        
'9H-fluoren-9-ylmethyl (2-(butylamino)-2-oxoethyl)carbamate'
_symmetry_cell_setting           monoclinic
_symmetry_space_group_name_H-M   'I a'
_symmetry_Int_Tables_number      9
_space_group_name_Hall           'I -2ya'
loop_
_symmetry_equiv_pos_site_id
_symmetry_equiv_pos_as_xyz
1 x,y,z
2 1/2+x,-y,z
3 1/2+x,1/2+y,1/2+z
4 x,1/2-y,1/2+z
_cell_length_a                   17.3880(10)
_cell_length_b                   4.9168(3)
_cell_length_c                   43.438(2)
_cell_angle_alpha                90
_cell_angle_beta                 98.293(4)
_cell_angle_gamma                90
_cell_volume                     3674.83
_cell_formula_units_Z            8
loop_
_atom_site_label
_atom_site_type_symbol
_atom_site_fract_x
_atom_site_fract_y
_atom_site_fract_z
O1 O 0.1956(4) 0.5207(15) 0.10199(16)
O2 O 0.2149(4) 0.1926(15) 0.06725(16)
O3 O 0.1180(4) 0.4853(16) 0.00659(17)
N1 N 0.2319(5) 0.6415(18) 0.0570(2)
N2 N 0.2105(5) 0.2579(19) -0.0144(2)
C1 C 0.1694(7) 0.420(2) 0.1538(2)
H1 H 0.1359 0.5867 0.1521
C2 C 0.1383(7) 0.214(2) 0.1743(2)
C3 C 0.0665(6) 0.076(2) 0.1697(3)
H2 H 0.0290 0.1139 0.1520
C4 C 0.0520(6) -0.116(2) 0.1916(3)
H3 H 0.0036 -0.2090 0.1890
C5 C 0.1062(7) -0.176(3) 0.2171(3)
H4 H 0.0954 -0.3116 0.2314
C6 C 0.1775(7) -0.035(2) 0.2219(3)
H5 H 0.2143 -0.0700 0.2399
C7 C 0.1934(6) 0.155(2) 0.2003(2)
C8 C 0.2610(6) 0.326(2) 0.1993(3)
C9 C 0.3293(7) 0.356(2) 0.2197(3)
H6 H 0.3381 0.2493 0.2381
C10 C 0.3843(7) 0.538(3) 0.2132(3)
H7 H 0.4315 0.5565 0.2271
C11 C 0.3715(7) 0.698(3) 0.1862(3)
H8 H 0.4100 0.8245 0.1820
C12 C 0.3032(7) 0.673(2) 0.1658(3)
H9 H 0.2941 0.7841 0.1478
C13 C 0.2484(6) 0.485(2) 0.1717(2)
C14 C 0.1732(7) 0.306(2) 0.1216(3)
H10 H 0.2116 0.1564 0.1229
H11 H 0.1218 0.2324 0.1126
C15 C 0.2136(6) 0.427(2) 0.0746(2)
C16 C 0.2523(6) 0.572(2) 0.0261(2)
H12 H 0.2981 0.4500 0.0288
H13 H 0.2666 0.7399 0.0158
C17 C 0.1868(7) 0.435(2) 0.0058(3)
C18 C 0.1520(7) 0.103(2) -0.0358(3)
H14 H 0.1102 0.0428 -0.0242
H15 H 0.1770 -0.0613 -0.0430
C19 C 0.1155(7) 0.264(2) -0.0643(3)
H16 H 0.0971 0.4416 -0.0574
H17 H 0.1555 0.3001 -0.0778
C20 C 0.0484(7) 0.117(2) -0.0828(3)
H18 H 0.0098 0.0680 -0.0691
H19 H 0.0672 -0.0532 -0.0914
C21 C 0.0095(7) 0.296(3) -0.1096(3)
H20 H -0.0092 0.4645 -0.1011
H21 H -0.0344 0.1983 -0.1213
H22 H 0.0474 0.3409 -0.1235
H23 H 0.2215 0.8490 0.0587
H24 H 0.2815 0.2084 -0.0105
O4 O 0.2928(4) 0.0174(15) 0.40649(16)
O5 O 0.3526(5) -0.3205(17) 0.43606(19)
O6 O 0.3682(4) 0.4150(15) 0.50196(16)
N3 N 0.3755(5) 0.1220(17) 0.44855(19)
N4 N 0.4950(5) 0.326(2) 0.5193(2)
C22 C 0.2283(6) -0.066(2) 0.3546(2)
H25 H 0.1953 0.0988 0.3559
C23 C 0.1855(6) -0.275(2) 0.3332(2)
C24 C 0.1164(6) -0.409(2) 0.3358(2)
H26 H 0.0887 -0.3681 0.3525
C25 C 0.0883(6) -0.601(2) 0.3137(2)
H27 H 0.0409 -0.6924 0.3155
C26 C 0.1282(6) -0.664(2) 0.2892(3)
H28 H 0.1083 -0.7976 0.2744
C27 C 0.1973(6) -0.530(2) 0.2861(3)
H29 H 0.2247 -0.5702 0.2693
C28 C 0.2255(6) -0.336(2) 0.3083(2)
C29 C 0.2944(6) -0.162(2) 0.3109(2)
C30 C 0.3507(6) -0.135(2) 0.2912(3)
H30 H 0.3490 -0.2419 0.2729
C31 C 0.4097(7) 0.056(3) 0.2996(3)
H31 H 0.4493 0.0749 0.2868
C32 C 0.4126(6) 0.216(2) 0.3256(3)
H32 H 0.4527 0.3469 0.3302
C33 C 0.3551(6) 0.184(2) 0.3456(3)
H33 H 0.3572 0.2896 0.3640
C34 C 0.2976(7) 0.001(2) 0.3379(3)
C35 C 0.2520(6) -0.189(2) 0.3870(2)
H34 H 0.2053 -0.2492 0.3957
H35 H 0.2861 -0.3487 0.3856
C36 C 0.3410(6) -0.079(3) 0.4313(2)
C37 C 0.4305(6) 0.064(2) 0.4760(2)
H36 H 0.4833 0.0487 0.4702
H37 H 0.4172 -0.1119 0.4850
C38 C 0.4294(7) 0.287(2) 0.4999(2)
C39 C 0.5016(7) 0.530(2) 0.5437(2)
H38 H 0.4620 0.6730 0.5379
H39 H 0.5534 0.6166 0.5454
C40 C 0.4907(10) 0.413(4) 0.5748(3)
H40 H 0.5361 0.2949 0.5816
H41 H 0.4939 0.5667 0.5897
C41 C 0.4272(12) 0.270(5) 0.5786(4)
H42 H 0.4235 0.1141 0.5640
H43 H 0.3813 0.3866 0.5723
C42 C 0.4217(8) 0.155(3) 0.6122(3)
H44 H 0.4225 0.3067 0.6269
H45 H 0.4659 0.0347 0.6188
H46 H 0.3732 0.0529 0.6118
H47 H 0.3707 0.3148 0.4405
H48 H 0.5421 0.1951 0.5164
loop_
_geom_bond_atom_site_label_1
_geom_bond_atom_site_label_2
_geom_bond_site_symmetry_1
_geom_bond_site_symmetry_2
O1 C14 1_555 1_555
O2 C15 1_555 1_555
O3 C17 1_555 1_555
N1 C15 1_555 1_555
N2 C17 1_555 1_555
C1 H1 1_555 1_555
C2 C1 1_555 1_555
C3 C2 1_555 1_555
H2 C3 1_555 1_555
C4 C3 1_555 1_555
H3 C4 1_555 1_555
C5 C4 1_555 1_555
H4 C5 1_555 1_555
C6 C5 1_555 1_555
H5 C6 1_555 1_555
C7 C2 1_555 1_555
C8 C7 1_555 1_555
C9 C8 1_555 1_555
H6 C9 1_555 1_555
C10 C9 1_555 1_555
H7 C10 1_555 1_555
C11 C10 1_555 1_555
H8 C11 1_555 1_555
C12 C11 1_555 1_555
H9 C12 1_555 1_555
C13 C1 1_555 1_555
C14 C1 1_555 1_555
H10 C14 1_555 1_555
H11 C14 1_555 1_555
C15 O1 1_555 1_555
C16 N1 1_555 1_555
H12 C16 1_555 1_555
H13 C16 1_555 1_555
C17 C16 1_555 1_555
C18 N2 1_555 1_555
H14 C18 1_555 1_555
H15 C18 1_555 1_555
C19 C18 1_555 1_555
H16 C19 1_555 1_555
H17 C19 1_555 1_555
C20 C19 1_555 1_555
H18 C20 1_555 1_555
H19 C20 1_555 1_555
C21 C20 1_555 1_555
H20 C21 1_555 1_555
H21 C21 1_555 1_555
H22 C21 1_555 1_555
H23 N1 1_555 1_555
H24 N2 1_555 1_555
O4 C35 1_555 1_555
O5 C36 1_555 1_555
O6 C38 1_555 1_555
N3 C36 1_555 1_555
N4 C38 1_555 1_555
C22 H25 1_555 1_555
C23 C22 1_555 1_555
C24 C23 1_555 1_555
H26 C24 1_555 1_555
C25 C24 1_555 1_555
H27 C25 1_555 1_555
C26 C25 1_555 1_555
H28 C26 1_555 1_555
C27 C26 1_555 1_555
H29 C27 1_555 1_555
C28 C23 1_555 1_555
C29 C28 1_555 1_555
C30 C29 1_555 1_555
H30 C30 1_555 1_555
C31 C30 1_555 1_555
H31 C31 1_555 1_555
C32 C31 1_555 1_555
H32 C32 1_555 1_555
C33 C32 1_555 1_555
H33 C33 1_555 1_555
C34 C22 1_555 1_555
C35 C22 1_555 1_555
H34 C35 1_555 1_555
H35 C35 1_555 1_555
C36 O4 1_555 1_555
C37 N3 1_555 1_555
H36 C37 1_555 1_555
H37 C37 1_555 1_555
C38 C37 1_555 1_555
C39 N4 1_555 1_555
H38 C39 1_555 1_555
H39 C39 1_555 1_555
C40 C39 1_555 1_555
H40 C40 1_555 1_555
H41 C40 1_555 1_555
C41 C40 1_555 1_555
H42 C41 1_555 1_555
H43 C41 1_555 1_555
C42 C41 1_555 1_555
H44 C42 1_555 1_555
H45 C42 1_555 1_555
H46 C42 1_555 1_555
H47 N3 1_555 1_555
H48 N4 1_555 1_555
C6 C7 1_555 1_555
C8 C13 1_555 1_555
C12 C13 1_555 1_555
C27 C28 1_555 1_555
C29 C34 1_555 1_555
C33 C34 1_555 1_555

#END
