
#######################################################################
#
#                 Cambridge Crystallographic Data Centre
#                                CCDC 
#
#######################################################################
#
# If this CIF has been generated from an entry in the Cambridge 
# Structural Database, then it will include bibliographic, chemical, 
# crystal, experimental, refinement or atomic coordinate data resulting 
# from the CCDC's data processing and validation procedures.
#
#######################################################################

data_USALEG
_chemical_formula_moiety         'C28 H30 Cl1 N1 O6 S1'
_chemical_name_systematic        
'Diethyl 2-((2E,4E)-2-(4-chlorophenylcarbamoyl)-1-(ethylthio)-3-hydroxy-5-p-tolylpenta-2,4-dienylidene)malonate'
_symmetry_cell_setting           triclinic
_symmetry_space_group_name_H-M   'P -1'
_symmetry_Int_Tables_number      2
_space_group_name_Hall           '-P 1'
loop_
_symmetry_equiv_pos_site_id
_symmetry_equiv_pos_as_xyz
1 x,y,z
2 -x,-y,-z
_cell_length_a                   12.9170(13)
_cell_length_b                   15.1510(16)
_cell_length_c                   16.5330(17)
_cell_angle_alpha                71.0830(18)
_cell_angle_beta                 77.492(2)
_cell_angle_gamma                70.0850(19)
_cell_volume                     2857.23
_exptl_crystal_colour            colorless
_exptl_crystal_description       block
_chemical_melting_point          '167-168 deg.C'
_cell_formula_units_Z            4
loop_
_atom_site_label
_atom_site_type_symbol
_atom_site_fract_x
_atom_site_fract_y
_atom_site_fract_z
S1 S 0.35349(12) -0.01069(12) -0.20454(10)
Cl1 Cl 0.1641(2) 0.54993(17) -0.03107(15)
O1 O 0.6716(3) -0.0162(3) -0.1021(3)
H1 H 0.6378 0.0299 -0.0818
O2 O 0.5260(3) 0.1331(3) -0.0816(3)
C1 C 0.4773(5) 0.1307(5) -0.1372(4)
O3 O 0.3270(4) 0.0716(3) -0.3778(3)
C2 C 0.6163(5) -0.0149(5) -0.1631(4)
C3 C 0.4534(4) 0.0507(4) -0.2451(4)
N1 N 0.3825(5) 0.2019(4) -0.1603(3)
O5 O 0.4478(3) 0.1390(3) -0.4726(3)
C6 C 0.5192(5) 0.0556(4) -0.1830(4)
O8 O 0.5297(4) 0.2311(4) -0.3531(3)
C9 C 0.4738(5) 0.0939(4) -0.3286(4)
C12 C 0.7672(5) -0.1595(5) -0.1841(4)
H3 H 0.7983 -0.1542 -0.1408
C13 C 0.3329(5) 0.2838(5) -0.1286(4)
C14 C 0.6723(5) -0.0929(5) -0.2037(4)
H4 H 0.6390 -0.0964 -0.2467
C15 C 0.8289(5) -0.2394(5) -0.2211(5)
C18 C 0.3578(5) -0.0502(5) -0.0903(4)
H5 H 0.4299 -0.0950 -0.0768
H6 H 0.3444 0.0054 -0.0684
C19 C 0.5627(6) 0.1428(6) -0.3605(4)
C22 C 0.2843(6) 0.3719(5) -0.1814(5)
H9 H 0.2858 0.3769 -0.2392
O11 O 0.6545(4) 0.1026(4) -0.3888(3)
C24 C 0.4086(6) 0.0983(5) -0.3931(5)
C27 C 0.3890(6) 0.1430(6) -0.5406(4)
H13 H 0.3857 0.0785 -0.5357
H14 H 0.3138 0.1859 -0.5359
C29 C 0.2332(6) 0.4534(5) -0.1528(5)
H16 H 0.2011 0.5126 -0.1908
C30 C 0.8813(7) -0.3166(8) -0.3363(6)
H17 H 0.8735 -0.3118 -0.3924
C31 C 0.3302(6) 0.2794(6) -0.0444(5)
H18 H 0.3628 0.2204 -0.0063
C33 C 0.2297(6) 0.4475(6) -0.0695(6)
C36 C 0.9468(7) -0.3989(8) -0.2926(6)
C37 C 0.8226(6) -0.2360(6) -0.3033(5)
H23 H 0.7792 -0.1799 -0.3380
C39 C 0.8974(6) -0.3257(7) -0.1742(6)
H24 H 0.9070 -0.3300 -0.1187
C40 C 0.2796(7) 0.3612(7) -0.0149(5)
H25 H 0.2797 0.3573 0.0423
C43 C 0.4498(7) 0.1799(7) -0.6226(5)
H27 H 0.4129 0.1837 -0.6688
H28 H 0.5238 0.1367 -0.6267
H29 H 0.4527 0.2436 -0.6266
C44 C 1.0093(6) -0.4853(6) -0.3277(6)
H30 H 1.0499 -0.5368 -0.2843
H31 H 1.0599 -0.4664 -0.3771
H32 H 0.9577 -0.5076 -0.3441
C45 C 0.9526(6) -0.4066(7) -0.2074(8)
H33 H 0.9927 -0.4647 -0.1727
C48 C 0.6115(7) 0.2851(7) -0.3761(6)
H37 H 0.6655 0.2562 -0.3352
H38 H 0.6501 0.2833 -0.4331
C53 C 0.5530(9) 0.3836(8) -0.3746(9)
H47 H 0.6047 0.4209 -0.3895
H48 H 0.5152 0.3845 -0.3180
H49 H 0.5000 0.4114 -0.4154
C56 C 0.2677(5) -0.1007(5) -0.0497(4)
H56 H 0.2676 -0.1226 0.0117
H57 H 0.2820 -0.1557 -0.0716
H58 H 0.1967 -0.0557 -0.0636
H59 H 0.362(3) 0.204(3) -0.2067(15)
S2 S 1.10469(14) 0.19794(14) -0.16933(12)
Cl2 Cl 1.2999(3) -0.37172(18) -0.3654(2)
O4 O 1.1736(4) 0.3376(4) -0.4442(3)
C4 C 1.0767(5) 0.2397(4) -0.3358(5)
O6 O 0.7798(3) 0.1344(3) -0.1951(3)
H2 H 0.8106 0.0787 -0.1992
C5 C 1.0022(6) 0.0386(5) -0.2410(4)
C7 C 0.9650(5) 0.1405(5) -0.2367(4)
C8 C 1.1531(5) -0.0910(5) -0.2915(5)
O7 O 1.2299(4) 0.2818(3) -0.3135(3)
O9 O 1.0505(4) 0.1735(4) -0.4352(3)
C10 C 1.0472(5) 0.1949(4) -0.2533(4)
N2 N 1.1080(5) 0.0001(4) -0.2704(4)
O10 O 0.9355(4) -0.0101(3) -0.2186(3)
C11 C 1.1687(5) 0.2892(5) -0.3620(5)
C16 C 0.8548(5) 0.1831(5) -0.2145(4)
C17 C 1.0139(7) 0.2491(7) -0.4092(5)
C20 C 0.8113(5) 0.2824(5) -0.2095(4)
H7 H 0.8575 0.3225 -0.2285
C21 C 0.7066(5) 0.3184(5) -0.1784(4)
H8 H 0.6633 0.2760 -0.1618
C23 C 0.6511(5) 0.4155(5) -0.1671(4)
C25 C 1.2249(5) -0.0973(5) -0.3623(5)
H10 H 1.2428 -0.0416 -0.3979
C26 C 1.0235(6) 0.1475(5) -0.0740(4)
H11 H 0.9457 0.1837 -0.0765
H12 H 1.0323 0.0800 -0.0698
C28 C 0.7034(6) 0.4862(6) -0.1884(5)
H15 H 0.7783 0.4721 -0.2098
O12 O 0.9371(5) 0.3176(5) -0.4293(4)
C32 C 0.6463(7) 0.5788(6) -0.1786(5)
H19 H 0.6827 0.6266 -0.1960
C34 C 1.2602(7) 0.3878(7) -0.4710(5)
H20 H 1.2481 0.4324 -0.4367
H21 H 1.3329 0.3408 -0.4638
C35 C 1.2732(5) -0.1837(6) -0.3841(5)
H22 H 1.3255 -0.1871 -0.4324
C38 C 1.2439(7) -0.2633(6) -0.3350(5)
C41 C 0.5380(8) 0.6011(7) -0.1438(6)
C42 C 0.5418(6) 0.4417(7) -0.1368(6)
H26 H 0.5025 0.3966 -0.1235
C46 C 1.1678(9) -0.2571(7) -0.2653(7)
H34 H 1.1465 -0.3118 -0.2314
C47 C 0.9884(10) 0.1669(9) -0.4976(6)
H35 H 0.9431 0.2312 -0.5256
H36 H 1.0391 0.1387 -0.5414
C49 C 1.0614(7) 0.1532(7) 0.0023(5)
H39 H 1.0183 0.1264 0.0536
H40 H 1.0521 0.2201 -0.0022
H41 H 1.1382 0.1167 0.0046
C50 C 1.1221(8) -0.1706(6) -0.2445(6)
H42 H 1.0687 -0.1667 -0.1970
C51 C 0.4873(7) 0.5328(8) -0.1249(7)
H43 H 0.4126 0.5469 -0.1029
C52 C 0.4767(7) 0.7001(6) -0.1299(6)
H44 H 0.5255 0.7404 -0.1488
H45 H 0.4513 0.6932 -0.0698
H46 H 0.4143 0.7298 -0.1622
C54 C 1.2532(9) 0.4390(8) -0.5576(7)
H50 H 1.3089 0.4724 -0.5779
H51 H 1.1811 0.4855 -0.5637
H52 H 1.2647 0.3941 -0.5907
C55 C 0.9223(10) 0.1078(10) -0.4503(8)
H53 H 0.8799 0.1012 -0.4879
H54 H 0.8729 0.1365 -0.4071
H55 H 0.9683 0.0446 -0.4231
H60 H 1.135(4) 0.046(3) -0.300(3)
loop_
_geom_bond_atom_site_label_1
_geom_bond_atom_site_label_2
_geom_bond_site_symmetry_1
_geom_bond_site_symmetry_2
S1 C3 1_555 1_555
S2 C10 1_555 1_555
Cl1 C33 1_555 1_555
O1 H1 1_555 1_555
O2 C1 1_555 1_555
C1 N1 1_555 1_555
O3 C24 1_555 1_555
C2 O1 1_555 1_555
Cl2 C38 1_555 1_555
C3 C6 1_555 1_555
N1 C13 1_555 1_555
O4 C11 1_555 1_555
O5 C24 1_555 1_555
C4 C10 1_555 1_555
O6 H2 1_555 1_555
C5 C7 1_555 1_555
C6 C1 1_555 1_555
C7 C10 1_555 1_555
C8 N2 1_555 1_555
O7 C11 1_555 1_555
O8 C19 1_555 1_555
O9 C17 1_555 1_555
C9 C3 1_555 1_555
N2 C5 1_555 1_555
O10 C5 1_555 1_555
C11 C4 1_555 1_555
C12 H3 1_555 1_555
C13 C22 1_555 1_555
C14 C2 1_555 1_555
H4 C14 1_555 1_555
C15 C12 1_555 1_555
C16 O6 1_555 1_555
C17 C4 1_555 1_555
C18 S1 1_555 1_555
H5 C18 1_555 1_555
H6 C18 1_555 1_555
C19 C9 1_555 1_555
C20 C16 1_555 1_555
H7 C20 1_555 1_555
C21 C20 1_555 1_555
H8 C21 1_555 1_555
C22 H9 1_555 1_555
O11 C19 1_555 1_555
C23 C21 1_555 1_555
C24 C9 1_555 1_555
C25 C8 1_555 1_555
H10 C25 1_555 1_555
C26 S2 1_555 1_555
H11 C26 1_555 1_555
H12 C26 1_555 1_555
C27 O5 1_555 1_555
H13 C27 1_555 1_555
H14 C27 1_555 1_555
C28 C23 1_555 1_555
H15 C28 1_555 1_555
C29 C22 1_555 1_555
H16 C29 1_555 1_555
O12 C17 1_555 1_555
C30 H17 1_555 1_555
C31 C13 1_555 1_555
H18 C31 1_555 1_555
C32 C28 1_555 1_555
H19 C32 1_555 1_555
C33 C29 1_555 1_555
C34 O4 1_555 1_555
H20 C34 1_555 1_555
H21 C34 1_555 1_555
C35 C25 1_555 1_555
H22 C35 1_555 1_555
C36 C30 1_555 1_555
C37 C15 1_555 1_555
H23 C37 1_555 1_555
C38 C35 1_555 1_555
C39 C15 1_555 1_555
H24 C39 1_555 1_555
C40 C31 1_555 1_555
H25 C40 1_555 1_555
C41 C32 1_555 1_555
C42 C23 1_555 1_555
H26 C42 1_555 1_555
C43 C27 1_555 1_555
H27 C43 1_555 1_555
H28 C43 1_555 1_555
H29 C43 1_555 1_555
C44 C36 1_555 1_555
H30 C44 1_555 1_555
H31 C44 1_555 1_555
H32 C44 1_555 1_555
C45 C36 1_555 1_555
H33 C45 1_555 1_555
C46 C38 1_555 1_555
H34 C46 1_555 1_555
C47 O9 1_555 1_555
H35 C47 1_555 1_555
H36 C47 1_555 1_555
C48 O8 1_555 1_555
H37 C48 1_555 1_555
H38 C48 1_555 1_555
C49 C26 1_555 1_555
H39 C49 1_555 1_555
H40 C49 1_555 1_555
H41 C49 1_555 1_555
C50 C8 1_555 1_555
H42 C50 1_555 1_555
C51 C41 1_555 1_555
H43 C51 1_555 1_555
C52 C41 1_555 1_555
H44 C52 1_555 1_555
H45 C52 1_555 1_555
H46 C52 1_555 1_555
C53 C48 1_555 1_555
H47 C53 1_555 1_555
H48 C53 1_555 1_555
H49 C53 1_555 1_555
C54 C34 1_555 1_555
H50 C54 1_555 1_555
H51 C54 1_555 1_555
H52 C54 1_555 1_555
C55 C47 1_555 1_555
H53 C55 1_555 1_555
H54 C55 1_555 1_555
H55 C55 1_555 1_555
C56 C18 1_555 1_555
H56 C56 1_555 1_555
H57 C56 1_555 1_555
H58 C56 1_555 1_555
H59 N1 1_555 1_555
H60 N2 1_555 1_555
C2 C6 1_555 1_555
C7 C16 1_555 1_555
C12 C14 1_555 1_555
C30 C37 1_555 1_555
C33 C40 1_555 1_555
C39 C45 1_555 1_555
C42 C51 1_555 1_555
C46 C50 1_555 1_555

#END
