
#######################################################################
#
#                 Cambridge Crystallographic Data Centre
#                                CCDC 
#
#######################################################################
#
# If this CIF has been generated from an entry in the Cambridge 
# Structural Database, then it will include bibliographic, chemical, 
# crystal, experimental, refinement or atomic coordinate data resulting 
# from the CCDC's data processing and validation procedures.
#
#######################################################################

data_USAMUY
_chemical_formula_moiety         'C12 H12 N2 S3'
_chemical_name_systematic        2-((2-aminophenyl)trisulfanyl)aniline
_symmetry_cell_setting           monoclinic
_symmetry_space_group_name_H-M   'P 21/c'
_symmetry_Int_Tables_number      14
_space_group_name_Hall           '-P 2ybc'
loop_
_symmetry_equiv_pos_site_id
_symmetry_equiv_pos_as_xyz
1 x,y,z
2 -x,1/2+y,1/2-z
3 -x,-y,-z
4 x,1/2-y,1/2+z
_cell_length_a                   4.8646(8)
_cell_length_b                   12.515(2)
_cell_length_c                   21.222(4)
_cell_angle_alpha                90
_cell_angle_beta                 93.963(2)
_cell_angle_gamma                90
_cell_volume                     1288.92
_cell_formula_units_Z            4
loop_
_atom_site_label
_atom_site_type_symbol
_atom_site_fract_x
_atom_site_fract_y
_atom_site_fract_z
C1 C 0.8110(5) 1.08238(19) 0.38023(11)
C2 C 0.7358(5) 1.16480(19) 0.33752(11)
C3 C 0.5387(6) 1.2381(2) 0.35464(14)
H1 H 0.4851 1.2932 0.3270
C4 C 0.4224(7) 1.2303(2) 0.41164(15)
H2 H 0.2861 1.2784 0.4215
C5 C 0.5057(7) 1.1520(2) 0.45437(14)
H3 H 0.4328 1.1495 0.4937
C6 C 0.6956(6) 1.0781(2) 0.43870(12)
H4 H 0.7488 1.0243 0.4672
C7 C 0.8320(5) 0.6827(2) 0.38151(11)
C8 C 0.8372(5) 0.5859(2) 0.34899(12)
C9 C 1.0233(7) 0.5078(2) 0.37237(15)
H5 H 1.0299 0.4423 0.3518
C10 C 1.1954(7) 0.5261(2) 0.42491(16)
H6 H 1.3200 0.4735 0.4390
C11 C 1.1866(7) 0.6208(2) 0.45701(15)
H7 H 1.3024 0.6321 0.4931
C12 C 1.0063(6) 0.6986(2) 0.43556(12)
H8 H 1.0000 0.7630 0.4573
N1 N 0.8450(5) 1.17146(19) 0.27978(10)
H9 H 0.7919 1.2212 0.2538
H10 H 0.9665 1.1259 0.2696
N2 N 0.6765(5) 0.5686(2) 0.29390(10)
H11 H 0.6902 0.5096 0.2736
H12 H 0.5626 0.6169 0.2798
S1 S 1.05438(14) 0.98431(6) 0.36238(3)
S2 S 0.59900(14) 0.78566(6) 0.35689(3)
S3 S 0.82529(17) 0.88391(5) 0.30187(3)
loop_
_geom_bond_atom_site_label_1
_geom_bond_atom_site_label_2
_geom_bond_site_symmetry_1
_geom_bond_site_symmetry_2
C1 C2 1_555 1_555
C2 C3 1_555 1_555
C3 H1 1_555 1_555
C4 C3 1_555 1_555
H2 C4 1_555 1_555
C5 C4 1_555 1_555
H3 C5 1_555 1_555
C6 C1 1_555 1_555
H4 C6 1_555 1_555
C7 C8 1_555 1_555
C8 C9 1_555 1_555
C9 H5 1_555 1_555
C10 C9 1_555 1_555
H6 C10 1_555 1_555
C11 C10 1_555 1_555
H7 C11 1_555 1_555
C12 C7 1_555 1_555
H8 C12 1_555 1_555
N1 C2 1_555 1_555
H9 N1 1_555 1_555
H10 N1 1_555 1_555
N2 C8 1_555 1_555
H11 N2 1_555 1_555
H12 N2 1_555 1_555
S1 C1 1_555 1_555
S2 C7 1_555 1_555
S3 S1 1_555 1_555
C5 C6 1_555 1_555
C11 C12 1_555 1_555
S2 S3 1_555 1_555

#END
