
#######################################################################
#
#                 Cambridge Crystallographic Data Centre
#                                CCDC 
#
#######################################################################
#
# If this CIF has been generated from an entry in the Cambridge 
# Structural Database, then it will include bibliographic, chemical, 
# crystal, experimental, refinement or atomic coordinate data resulting 
# from the CCDC's data processing and validation procedures.
#
#######################################################################

data_USANEJ
_chemical_formula_moiety         'C32 H39 N2 O1 1+,C1 F3 O3 S1 1-,2(C1 H2 Cl2)'
_chemical_name_systematic        
'1,3-bis(2,6-diisopropylphenyl)-4-oxo-3,4-dihydroquinazolin-1-ium trifluoromethanesulfonate dichloromethane solvate'
_symmetry_cell_setting           monoclinic
_symmetry_space_group_name_H-M   'P 21/c'
_symmetry_Int_Tables_number      14
_space_group_name_Hall           '-P 2ybc'
loop_
_symmetry_equiv_pos_site_id
_symmetry_equiv_pos_as_xyz
1 x,y,z
2 -x,1/2+y,1/2-z
3 -x,-y,-z
4 x,1/2-y,1/2+z
_cell_length_a                   10.721(2)
_cell_length_b                   24.105(5)
_cell_length_c                   16.084(3)
_cell_angle_alpha                90
_cell_angle_beta                 105.148(3)
_cell_angle_gamma                90
_cell_volume                     4012.16
_cell_formula_units_Z            4
loop_
_atom_site_label
_atom_site_type_symbol
_atom_site_fract_x
_atom_site_fract_y
_atom_site_fract_z
N1 N 0.3322(4) 0.66377(18) 0.3042(3)
N2 N 0.3137(4) 0.66143(19) 0.1565(3)
C1 C 0.3194(5) 0.6365(2) 0.2304(3)
H1 H 0.3141 0.5976 0.2311
C2 C 0.3371(7) 0.7227(2) 0.3059(5)
C3 C 0.3449(17) 0.8061(4) 0.2292(10)
O1 O 0.3579(13) 0.7384(4) 0.3906(6)
C4 C 0.339(2) 0.7533(6) 0.0875(10)
H2 H 0.3337 0.7369 0.0337
C5 C 0.3630(15) 0.8104(5) 0.0975(9)
H3 H 0.3690 0.8307 0.0488
C6 C 0.3771(16) 0.8369(6) 0.1689(10)
H4 H 0.4066 0.8737 0.1775
H5 H 0.3268 0.8251 0.2758
C7 C 0.3361(8) 0.7500(3) 0.2294(6)
C8 C 0.3241(7) 0.7208(3) 0.1538(5)
C9 C 0.3405(6) 0.6318(3) 0.3812(4)
C10 C 0.2306(8) 0.6219(4) 0.4059(5)
C11 C 0.2416(11) 0.5843(5) 0.4763(8)
H6 H 0.1670 0.5721 0.4913
C12 C 0.3616(12) 0.5659(7) 0.5220(9)
H7 H 0.3692 0.5410 0.5681
C13 C 0.4725(12) 0.5845(6) 0.4995(7)
H8 H 0.5538 0.5738 0.5342
C14 C 0.4678(9) 0.6177(5) 0.4292(5)
C15 C 0.1001(7) 0.6420(4) 0.3572(6)
H9 H 0.1107 0.6654 0.3089
C16 C 0.0409(12) 0.6773(5) 0.4148(9)
H10 H -0.0125 0.6543 0.4411
H11 H -0.0117 0.7062 0.3808
H12 H 0.1091 0.6942 0.4595
C17 C 0.0132(13) 0.5947(6) 0.3203(10)
H13 H 0.0607 0.5677 0.2962
H14 H -0.0594 0.6084 0.2755
H15 H -0.0183 0.5775 0.3655
C18 C 0.5852(9) 0.6339(5) 0.4028(6)
H16 H 0.5593 0.6565 0.3497
C19 C 0.6710(14) 0.6701(8) 0.4764(10)
H17 H 0.6620 0.6571 0.5316
H18 H 0.6437 0.7085 0.4682
H19 H 0.7607 0.6672 0.4750
C20 C 0.6619(12) 0.5833(9) 0.3856(10)
H20 H 0.7222 0.5718 0.4389
H21 H 0.7091 0.5931 0.3438
H22 H 0.6027 0.5532 0.3632
C21 C 0.2971(6) 0.6266(3) 0.0800(4)
C22 C 0.1738(7) 0.6113(4) 0.0335(5)
C23 C 0.1587(9) 0.5801(5) -0.0403(6)
H23 H 0.0762 0.5697 -0.0737
C24 C 0.2693(10) 0.5645(7) -0.0635(7)
H24 H 0.2598 0.5439 -0.1144
C25 C 0.3895(9) 0.5772(7) -0.0172(7)
H25 H 0.4611 0.5637 -0.0345
C26 C 0.4092(8) 0.6108(5) 0.0575(5)
C27 C 0.0515(7) 0.6309(4) 0.0589(6)
H26 H 0.0789 0.6508 0.1145
C28 C -0.0277(9) 0.5809(5) 0.0707(8)
H27 H -0.0432 0.5576 0.0199
H28 H -0.1097 0.5932 0.0791
H29 H 0.0190 0.5600 0.1206
C29 C -0.0276(11) 0.6702(5) -0.0080(10)
H30 H -0.0743 0.6492 -0.0579
H31 H 0.0294 0.6966 -0.0251
H32 H -0.0887 0.6900 0.0163
C30 C 0.5410(8) 0.6263(5) 0.1069(6)
H33 H 0.5338 0.6469 0.1587
C31 C 0.6246(11) 0.5710(7) 0.1388(9)
H34 H 0.5948 0.5535 0.1845
H35 H 0.7151 0.5807 0.1602
H36 H 0.6142 0.5454 0.0909
C32 C 0.6087(11) 0.6628(5) 0.0576(10)
H37 H 0.6393 0.6407 0.0167
H38 H 0.6815 0.6807 0.0972
H39 H 0.5492 0.6909 0.0271
S1 S 0.2735(3) 0.46203(11) 0.2411(2)
O3 O 0.3063(8) 0.4273(3) 0.3143(4)
O4 O 0.2764(15) 0.5163(3) 0.2504(7)
O5 O 0.1414(8) 0.4434(6) 0.1888(8)
F1 F 0.3509(11) 0.3871(3) 0.1517(6)
F2 F 0.3259(8) 0.4679(3) 0.0953(4)
F3 F 0.4891(8) 0.4481(6) 0.2021(10)
C36 C 0.3570(13) 0.4391(5) 0.1678(7)
C37 C 0.971(3) 0.4395(10) 0.3156(13)
H44 H 1.0182 0.4613 0.2821
H45 H 0.9616 0.4015 0.2932
Cl1 Cl 1.0562(7) 0.4398(11) 0.4280(8)
Cl2 Cl 0.8228(3) 0.46845(12) 0.3096(2)
C38 C 0.2082(18) 0.2978(7) 0.2758(11)
H48 H 0.2670 0.3142 0.3271
H49 H 0.1747 0.3278 0.2350
Cl4 Cl 0.2927(5) 0.2510(2) 0.2293(4)
Cl5 Cl 0.0819(8) 0.2661(4) 0.3045(6)
O2? O 0.3020(14) 0.7309(5) 0.0663(8)
C33? C 0.332(2) 0.7574(6) 0.3708(10)
H40? H 0.3365 0.7422 0.4253
C34? C 0.3216(17) 0.8130(5) 0.3614(10)
H41? H 0.3148 0.8342 0.4091
C35? C 0.320(2) 0.8406(5) 0.2860(10)
H42? H 0.3040 0.8787 0.2767
H43? H 0.3716 0.8221 0.1834
H46? H 0.9691 0.4222 0.2601
H47? H 1.0362 0.4691 0.3253
Cl3? Cl 1.018(2) 0.3915(12) 0.3939(14)
loop_
_geom_bond_atom_site_label_1
_geom_bond_atom_site_label_2
_geom_bond_site_symmetry_1
_geom_bond_site_symmetry_2
N1 C1 1_555 1_555
N2 C1 1_555 1_555
C1 H1 1_555 1_555
C2 N1 1_555 1_555
C3 C6 1_555 1_555
O1 C2 1_555 1_555
C4 H2 1_555 1_555
C5 C4 1_555 1_555
H3 C5 1_555 1_555
C6 C5 1_555 1_555
H4 C6 1_555 1_555
H5 C3 1_555 1_555
C7 C2 1_555 1_555
C8 N2 1_555 1_555
C9 N1 1_555 1_555
C10 C9 1_555 1_555
C11 C10 1_555 1_555
H6 C11 1_555 1_555
C12 C11 1_555 1_555
H7 C12 1_555 1_555
C13 C12 1_555 1_555
H8 C13 1_555 1_555
C14 C9 1_555 1_555
C15 C10 1_555 1_555
H9 C15 1_555 1_555
C16 C15 1_555 1_555
H10 C16 1_555 1_555
H11 C16 1_555 1_555
H12 C16 1_555 1_555
C17 C15 1_555 1_555
H13 C17 1_555 1_555
H14 C17 1_555 1_555
H15 C17 1_555 1_555
C18 C14 1_555 1_555
H16 C18 1_555 1_555
C19 C18 1_555 1_555
H17 C19 1_555 1_555
H18 C19 1_555 1_555
H19 C19 1_555 1_555
C20 C18 1_555 1_555
H20 C20 1_555 1_555
H21 C20 1_555 1_555
H22 C20 1_555 1_555
C21 N2 1_555 1_555
C22 C21 1_555 1_555
C23 C22 1_555 1_555
H23 C23 1_555 1_555
C24 C23 1_555 1_555
H24 C24 1_555 1_555
C25 C24 1_555 1_555
H25 C25 1_555 1_555
C26 C21 1_555 1_555
C27 C22 1_555 1_555
H26 C27 1_555 1_555
C28 C27 1_555 1_555
H27 C28 1_555 1_555
H28 C28 1_555 1_555
H29 C28 1_555 1_555
C29 C27 1_555 1_555
H30 C29 1_555 1_555
H31 C29 1_555 1_555
H32 C29 1_555 1_555
C30 C26 1_555 1_555
H33 C30 1_555 1_555
C31 C30 1_555 1_555
H34 C31 1_555 1_555
H35 C31 1_555 1_555
H36 C31 1_555 1_555
C32 C30 1_555 1_555
H37 C32 1_555 1_555
H38 C32 1_555 1_555
H39 C32 1_555 1_555
S1 O3 1_555 1_555
O4 S1 1_555 1_555
O5 S1 1_555 1_555
F1 C36 1_555 1_555
F2 C36 1_555 1_555
F3 C36 1_555 1_555
C36 S1 1_555 1_555
C37 H44 1_555 1_555
H45 C37 1_555 1_555
Cl1 C37 1_555 1_555
Cl2 C37 1_555 1_555
C38 H48 1_555 1_555
H49 C38 1_555 1_555
Cl4 C38 1_555 1_555
Cl5 C38 1_555 1_555
C3 C7 1_555 1_555
C4 C8 1_555 1_555
C7 C8 1_555 1_555
C13 C14 1_555 1_555
C25 C26 1_555 1_555

#END
