
#######################################################################
#
#                 Cambridge Crystallographic Data Centre
#                                CCDC 
#
#######################################################################
#
# If this CIF has been generated from an entry in the Cambridge 
# Structural Database, then it will include bibliographic, chemical, 
# crystal, experimental, refinement or atomic coordinate data resulting 
# from the CCDC's data processing and validation procedures.
#
#######################################################################

data_USARIR
_chemical_formula_moiety         'C21 H19 Cl4 O7 P1'
_chemical_name_systematic        
'2-(2,4-dichlorophenoxy)-1-(5,5-dimethyl-2-oxido-1,3,2-dioxaphosphinan-2-yl)vinyl (2,4-dichlorophenoxy)acetate'
_symmetry_cell_setting           triclinic
_symmetry_space_group_name_H-M   'P -1'
_symmetry_Int_Tables_number      2
_space_group_name_Hall           '-P 1'
loop_
_symmetry_equiv_pos_site_id
_symmetry_equiv_pos_as_xyz
1 x,y,z
2 -x,-y,-z
_cell_length_a                   7.9393(17)
_cell_length_b                   11.974(3)
_cell_length_c                   13.532(3)
_cell_angle_alpha                90.937(4)
_cell_angle_beta                 101.998(3)
_cell_angle_gamma                101.363(4)
_cell_volume                     1231.45
_cell_formula_units_Z            2
loop_
_atom_site_label
_atom_site_type_symbol
_atom_site_fract_x
_atom_site_fract_y
_atom_site_fract_z
C1 C 0.1454(5) 0.0662(3) 0.6853(3)
C2 C 0.2809(6) 0.0740(3) 0.6316(3)
C3 C 0.2704(7) 0.1257(4) 0.5406(3)
H1 H 0.3604 0.1301 0.5056
C4 C 0.1257(8) 0.1705(4) 0.5027(3)
C5 C -0.0079(7) 0.1636(4) 0.5532(3)
H2 H -0.1058 0.1938 0.5263
C6 C 0.0024(6) 0.1116(4) 0.6448(3)
H3 H -0.0887 0.1075 0.6789
C7 C 0.0308(6) -0.0147(3) 0.8239(3)
H4 H 0.0574 -0.0726 0.8705
H5 H -0.0718 -0.0496 0.7726
C8 C -0.0173(5) 0.0788(3) 0.8812(3)
C9 C 0.0553(4) 0.2760(3) 0.9275(2)
C10 C -0.0821(4) 0.3209(3) 0.8909(2)
H6 H -0.0931 0.3891 0.9203
C11 C -0.3274(4) 0.3337(3) 0.7636(2)
C12 C -0.2781(4) 0.4159(3) 0.6999(3)
C13 C -0.3973(4) 0.4749(3) 0.6489(3)
H7 H -0.3635 0.5309 0.6060
C14 C -0.5668(4) 0.4504(3) 0.6621(2)
C15 C -0.6196(4) 0.3687(3) 0.7272(3)
H8 H -0.7345 0.3536 0.7366
C16 C -0.4969(5) 0.3103(3) 0.7776(3)
H9 H -0.5294 0.2550 0.8214
C17 C 0.5598(4) 0.3650(3) 1.0587(3)
H10 H 0.5861 0.4285 1.1087
H11 H 0.6517 0.3756 1.0204
C18 C 0.4105(4) 0.2391(3) 1.1705(3)
H12 H 0.4054 0.1676 1.2035
H13 H 0.4370 0.3004 1.2226
C19 C 0.5571(4) 0.2543(3) 1.1118(3)
C20 C 0.5298(5) 0.1526(3) 1.0367(3)
H14 H 0.4192 0.1462 0.9897
H15 H 0.5297 0.0841 1.0726
H16 H 0.6233 0.1635 1.0006
C21 C 0.7354(5) 0.2665(4) 1.1873(3)
H17 H 0.8285 0.2767 1.1509
H18 H 0.7364 0.1990 1.2244
H19 H 0.7523 0.3315 1.2334
Cl1 Cl 0.46336(19) 0.01895(13) 0.67912(11)
Cl2 Cl 0.1131(3) 0.23606(13) 0.38846(10)
Cl3 Cl -0.06575(13) 0.44505(12) 0.68143(10)
Cl4 Cl -0.71723(13) 0.52311(11) 0.59488(8)
O1 O 0.1742(3) 0.0173(2) 0.77584(18)
O2 O -0.1362(4) 0.0622(2) 0.9237(2)
O3 O 0.0899(3) 0.18111(18) 0.87872(16)
O4 O -0.2080(3) 0.2687(2) 0.81056(18)
O5 O 0.1748(3) 0.4399(2) 1.07815(19)
O6 O 0.2391(3) 0.23926(19) 1.10499(17)
O7 O 0.3903(3) 0.36363(19) 0.99062(18)
P1 P 0.21807(11) 0.34049(7) 1.03361(6)
loop_
_geom_bond_atom_site_label_1
_geom_bond_atom_site_label_2
_geom_bond_site_symmetry_1
_geom_bond_site_symmetry_2
C1 C2 1_555 1_555
C2 C3 1_555 1_555
C3 H1 1_555 1_555
C4 C3 1_555 1_555
C5 C4 1_555 1_555
H2 C5 1_555 1_555
C6 C1 1_555 1_555
H3 C6 1_555 1_555
C7 H4 1_555 1_555
H5 C7 1_555 1_555
C8 C7 1_555 1_555
C9 C10 1_555 1_555
C10 H6 1_555 1_555
C11 C12 1_555 1_555
C12 C13 1_555 1_555
C13 H7 1_555 1_555
C14 C13 1_555 1_555
C15 C14 1_555 1_555
H8 C15 1_555 1_555
C16 C11 1_555 1_555
H9 C16 1_555 1_555
C17 H10 1_555 1_555
H11 C17 1_555 1_555
C18 H12 1_555 1_555
H13 C18 1_555 1_555
C19 C17 1_555 1_555
C20 C19 1_555 1_555
H14 C20 1_555 1_555
H15 C20 1_555 1_555
H16 C20 1_555 1_555
C21 C19 1_555 1_555
H17 C21 1_555 1_555
H18 C21 1_555 1_555
H19 C21 1_555 1_555
Cl1 C2 1_555 1_555
Cl2 C4 1_555 1_555
Cl3 C12 1_555 1_555
Cl4 C14 1_555 1_555
O1 C1 1_555 1_555
O2 C8 1_555 1_555
O3 C8 1_555 1_555
O4 C10 1_555 1_555
O5 P1 1_555 1_555
O6 C18 1_555 1_555
O7 C17 1_555 1_555
P1 C9 1_555 1_555
C5 C6 1_555 1_555
C7 O1 1_555 1_555
C9 O3 1_555 1_555
C11 O4 1_555 1_555
C15 C16 1_555 1_555
C18 C19 1_555 1_555
O6 P1 1_555 1_555
O7 P1 1_555 1_555

#END
