
#######################################################################
#
#                 Cambridge Crystallographic Data Centre
#                                CCDC 
#
#######################################################################
#
# If this CIF has been generated from an entry in the Cambridge 
# Structural Database, then it will include bibliographic, chemical, 
# crystal, experimental, refinement or atomic coordinate data resulting 
# from the CCDC's data processing and validation procedures.
#
#######################################################################

data_USAVIV
_chemical_formula_moiety         'C26 H38 N4'
_chemical_name_systematic        
4,4'-(hydrazine-1,2-diylidenedimethylylidene)bis(N,N-dipropylaniline)
_symmetry_cell_setting           triclinic
_symmetry_space_group_name_H-M   'P -1'
_symmetry_Int_Tables_number      2
_space_group_name_Hall           '-P 1'
loop_
_symmetry_equiv_pos_site_id
_symmetry_equiv_pos_as_xyz
1 x,y,z
2 -x,-y,-z
_cell_length_a                   8.447(5)
_cell_length_b                   10.543(5)
_cell_length_c                   14.540(5)
_cell_angle_alpha                78.600(5)
_cell_angle_beta                 78.222(5)
_cell_angle_gamma                78.247(5)
_cell_volume                     1224.48
_exptl_crystal_colour            yellow
_exptl_crystal_description       needle
_cell_formula_units_Z            2
loop_
_atom_site_label
_atom_site_type_symbol
_atom_site_fract_x
_atom_site_fract_y
_atom_site_fract_z
N1 N 0.24462(13) 0.90652(10) 0.51602(7)
C1 C 0.07881(15) 0.91100(12) 0.81021(8)
C2 C 0.19125(14) 0.90717(12) 0.61205(8)
C3 C 0.08365(15) 1.02729(12) 0.74490(9)
H1 H 0.0496 1.1073 0.7668
C4 C 0.32471(15) 0.78564(12) 0.47969(9)
H2 H 0.3844 0.7292 0.5271
H3 H 0.4041 0.8073 0.4231
N2 N 0.02071(13) 1.01255(10) 0.94985(7)
C5 C 0.13763(15) 1.02661(12) 0.64874(9)
H4 H 0.1389 1.1059 0.6073
C6 C 0.03246(16) 0.90936(13) 0.91273(9)
H5 H 0.0109 0.8317 0.9522
C7 C 0.20841(16) 0.70955(13) 0.45495(10)
H6 H 0.1561 0.7620 0.4031
H7 H 0.1232 0.6935 0.5096
C8 C 0.18442(17) 0.79039(12) 0.67808(9)
H8 H 0.2181 0.7100 0.6568
C9 C 0.21637(16) 1.02584(13) 0.44621(9)
H9 H 0.1144 1.0796 0.4701
H10 H 0.2028 1.0012 0.3878
C10 C 0.12851(17) 0.79289(13) 0.77409(9)
H11 H 0.1238 0.7140 0.8157
C11 C 0.35169(17) 1.10827(14) 0.42284(10)
H12 H 0.4504 1.0605 0.3898
H13 H 0.3761 1.1245 0.4814
C12 C 0.29761(17) 0.57891(13) 0.42597(10)
H14 H 0.3806 0.5945 0.3711
H15 H 0.2206 0.5338 0.4110
H16 H 0.3478 0.5261 0.4776
C13 C 0.3008(2) 1.23848(15) 0.36081(12)
H17 H 0.2659 1.2226 0.3059
H18 H 0.3922 1.2844 0.3408
H19 H 0.2119 1.2907 0.3966
N1A N -0.24462(13) 1.09348(10) 1.48398(7)
C1A C -0.07881(15) 1.08900(12) 1.18979(8)
C2A C -0.19125(14) 1.09283(12) 1.38795(8)
C3A C -0.08365(15) 0.97271(12) 1.25510(9)
H1A H -0.0496 0.8927 1.2332
C4A C -0.32471(15) 1.21436(12) 1.52031(9)
H2A H -0.3844 1.2708 1.4729
H3A H -0.4041 1.1927 1.5769
N2A N -0.02071(13) 0.98745(10) 1.05015(7)
C5A C -0.13763(15) 0.97339(12) 1.35126(9)
H4A H -0.1389 0.8941 1.3927
C6A C -0.03246(16) 1.09064(13) 1.08727(9)
H5A H -0.0109 1.1683 1.0478
C7A C -0.20841(16) 1.29045(13) 1.54505(10)
H6A H -0.1561 1.2380 1.5969
H7A H -0.1232 1.3065 1.4904
C8A C -0.18442(17) 1.20961(12) 1.32192(9)
H8A H -0.2181 1.2900 1.3432
C9A C -0.21637(16) 0.97416(13) 1.55379(9)
H9A H -0.1144 0.9204 1.5299
H10A H -0.2028 0.9988 1.6122
C10A C -0.12851(17) 1.20711(13) 1.22591(9)
H11A H -0.1238 1.2860 1.1843
C11A C -0.35169(17) 0.89173(14) 1.57716(10)
H12A H -0.4504 0.9395 1.6102
H13A H -0.3761 0.8755 1.5186
C12A C -0.29761(17) 1.42109(13) 1.57403(10)
H14A H -0.3806 1.4055 1.6289
H15A H -0.2206 1.4662 1.5890
H16A H -0.3478 1.4739 1.5224
C13A C -0.3008(2) 0.76152(15) 1.63919(12)
H17A H -0.2659 0.7774 1.6941
H18A H -0.3922 0.7156 1.6592
H19A H -0.2119 0.7093 1.6034
N3 N 0.43575(12) 0.26637(10) 0.79659(8)
N4 N 0.96401(13) 0.45844(11) 0.98087(8)
C14 C 0.48178(16) 0.12742(12) 0.78770(9)
H20 H 0.5982 0.1090 0.7626
H21 H 0.4228 0.1094 0.7424
C15 C 0.53397(14) 0.32801(12) 0.83180(8)
C16 C 0.68647(15) 0.26167(12) 0.85623(8)
H22 H 0.7221 0.1747 0.8476
C17 C 0.78324(15) 0.32304(12) 0.89244(8)
H23 H 0.8830 0.2765 0.9077
C18 C 0.48941(16) 0.46086(12) 0.84328(10)
H24 H 0.3921 0.5091 0.8256
C19 C 0.44572(19) 0.03641(13) 0.88134(10)
H25 H 0.3286 0.0518 0.9051
H26 H 0.5008 0.0569 0.9276
C20 C 0.58774(16) 0.52081(13) 0.88039(10)
H27 H 0.5541 0.6084 0.8878
C21 C 0.26557(15) 0.32389(13) 0.78908(9)
H28 H 0.2265 0.3878 0.8319
H29 H 0.1986 0.2555 0.8092
C22 C 0.73566(15) 0.45388(12) 0.90701(9)
C23 C 0.83283(16) 0.51840(13) 0.94966(9)
H30 H 0.7981 0.6068 0.9544
C24 C 0.24462(17) 0.39048(14) 0.68856(10)
H31 H 0.3062 0.4624 0.6698
H32 H 0.2895 0.3280 0.6451
C25 C 0.06609(19) 0.44290(17) 0.68031(13)
H33 H 0.0048 0.3719 0.6984
H34 H 0.0584 0.4830 0.6157
H35 H 0.0221 0.5069 0.7216
C26 C 0.5011(2) -0.10776(15) 0.87199(12)
H36 H 0.4502 -0.1279 0.8246
H37 H 0.4698 -0.1613 0.9320
H38 H 0.6182 -0.1251 0.8535
N3A N 1.56425(12) 0.73363(10) 1.20341(8)
N4A N 1.03599(13) 0.54156(11) 1.01913(8)
C14A C 1.51822(16) 0.87258(12) 1.21230(9)
H20A H 1.4018 0.8910 1.2374
H21A H 1.5772 0.8906 1.2576
C15A C 1.46603(14) 0.67199(12) 1.16820(8)
C16A C 1.31353(15) 0.73833(12) 1.14377(8)
H22A H 1.2779 0.8253 1.1524
C17A C 1.21676(15) 0.67696(12) 1.10756(8)
H23A H 1.1170 0.7235 1.0923
C18A C 1.51059(16) 0.53914(12) 1.15672(10)
H24A H 1.6079 0.4909 1.1744
C19A C 1.55428(19) 0.96359(13) 1.11866(10)
H25A H 1.6714 0.9482 1.0949
H26A H 1.4992 0.9431 1.0724
C20A C 1.41226(16) 0.47919(13) 1.11961(10)
H27A H 1.4459 0.3916 1.1122
C21A C 1.73443(15) 0.67611(13) 1.21092(9)
H28A H 1.7735 0.6122 1.1681
H29A H 1.8014 0.7445 1.1908
C22A C 1.26434(15) 0.54612(12) 1.09299(9)
C23A C 1.16717(16) 0.48160(13) 1.05034(9)
H30A H 1.2019 0.3932 1.0456
C24A C 1.75538(17) 0.60952(14) 1.31144(10)
H31A H 1.6938 0.5376 1.3302
H32A H 1.7105 0.6720 1.3549
C25A C 1.93391(19) 0.55710(17) 1.31969(13)
H33A H 1.9952 0.6281 1.3016
H34A H 1.9416 0.5170 1.3843
H35A H 1.9779 0.4931 1.2784
C26A C 1.4989(2) 1.10776(15) 1.12801(12)
H36A H 1.5498 1.1279 1.1754
H37A H 1.5302 1.1613 1.0680
H38A H 1.3818 1.1251 1.1465
loop_
_geom_bond_atom_site_label_1
_geom_bond_atom_site_label_2
_geom_bond_site_symmetry_1
_geom_bond_site_symmetry_2
N1 C2 1_555 1_555
C1 C3 1_555 1_555
C2 C5 1_555 1_555
C3 H1 1_555 1_555
C4 N1 1_555 1_555
H2 C4 1_555 1_555
H3 C4 1_555 1_555
N2 C6 1_555 1_555
C5 C3 1_555 1_555
H4 C5 1_555 1_555
C6 C1 1_555 1_555
H5 C6 1_555 1_555
C7 C4 1_555 1_555
H6 C7 1_555 1_555
H7 C7 1_555 1_555
C8 C2 1_555 1_555
H8 C8 1_555 1_555
C9 N1 1_555 1_555
H9 C9 1_555 1_555
H10 C9 1_555 1_555
C10 C1 1_555 1_555
H11 C10 1_555 1_555
C11 C9 1_555 1_555
H12 C11 1_555 1_555
H13 C11 1_555 1_555
C12 C7 1_555 1_555
H14 C12 1_555 1_555
H15 C12 1_555 1_555
H16 C12 1_555 1_555
C13 C11 1_555 1_555
H17 C13 1_555 1_555
H18 C13 1_555 1_555
H19 C13 1_555 1_555
N3 C14 1_555 1_555
N4 C23 1_555 1_555
C14 H20 1_555 1_555
H21 C14 1_555 1_555
C15 N3 1_555 1_555
C16 C15 1_555 1_555
H22 C16 1_555 1_555
C17 C16 1_555 1_555
H23 C17 1_555 1_555
C18 C15 1_555 1_555
H24 C18 1_555 1_555
C19 C14 1_555 1_555
H25 C19 1_555 1_555
H26 C19 1_555 1_555
C20 C18 1_555 1_555
H27 C20 1_555 1_555
C21 N3 1_555 1_555
H28 C21 1_555 1_555
H29 C21 1_555 1_555
C22 C17 1_555 1_555
C23 C22 1_555 1_555
H30 C23 1_555 1_555
C24 C21 1_555 1_555
H31 C24 1_555 1_555
H32 C24 1_555 1_555
C25 C24 1_555 1_555
H33 C25 1_555 1_555
H34 C25 1_555 1_555
H35 C25 1_555 1_555
C26 C19 1_555 1_555
H36 C26 1_555 1_555
H37 C26 1_555 1_555
H38 C26 1_555 1_555
N1A C2A 1_555 1_555
C1A C3A 1_555 1_555
C2A C5A 1_555 1_555
C3A H1A 1_555 1_555
C4A N1A 1_555 1_555
H2A C4A 1_555 1_555
H3A C4A 1_555 1_555
N2A N2 1_555 1_555
C5A C3A 1_555 1_555
H4A C5A 1_555 1_555
C6A C1A 1_555 1_555
H5A C6A 1_555 1_555
C7A C4A 1_555 1_555
H6A C7A 1_555 1_555
H7A C7A 1_555 1_555
C8A C2A 1_555 1_555
H8A C8A 1_555 1_555
C9A N1A 1_555 1_555
H9A C9A 1_555 1_555
H10A C9A 1_555 1_555
C10A C1A 1_555 1_555
H11A C10A 1_555 1_555
C11A C9A 1_555 1_555
H12A C11A 1_555 1_555
H13A C11A 1_555 1_555
C12A C7A 1_555 1_555
H14A C12A 1_555 1_555
H15A C12A 1_555 1_555
H16A C12A 1_555 1_555
C13A C11A 1_555 1_555
H17A C13A 1_555 1_555
H18A C13A 1_555 1_555
H19A C13A 1_555 1_555
N3A C14A 1_555 1_555
N4A N4 1_555 1_555
C14A H20A 1_555 1_555
H21A C14A 1_555 1_555
C15A N3A 1_555 1_555
C16A C15A 1_555 1_555
H22A C16A 1_555 1_555
C17A C16A 1_555 1_555
H23A C17A 1_555 1_555
C18A C15A 1_555 1_555
H24A C18A 1_555 1_555
C19A C14A 1_555 1_555
H25A C19A 1_555 1_555
H26A C19A 1_555 1_555
C20A C18A 1_555 1_555
H27A C20A 1_555 1_555
C21A N3A 1_555 1_555
H28A C21A 1_555 1_555
H29A C21A 1_555 1_555
C22A C17A 1_555 1_555
C23A N4A 1_555 1_555
H30A C23A 1_555 1_555
C24A C21A 1_555 1_555
H31A C24A 1_555 1_555
H32A C24A 1_555 1_555
C25A C24A 1_555 1_555
H33A C25A 1_555 1_555
H34A C25A 1_555 1_555
H35A C25A 1_555 1_555
C26A C19A 1_555 1_555
H36A C26A 1_555 1_555
H37A C26A 1_555 1_555
H38A C26A 1_555 1_555
C8 C10 1_555 1_555
C20 C22 1_555 1_555
N2A C6A 1_555 1_555
C8A C10A 1_555 1_555
C20A C22A 1_555 1_555
C22A C23A 1_555 1_555

#END
