
#######################################################################
#
#                 Cambridge Crystallographic Data Centre
#                                CCDC 
#
#######################################################################
#
# If this CIF has been generated from an entry in the Cambridge 
# Structural Database, then it will include bibliographic, chemical, 
# crystal, experimental, refinement or atomic coordinate data resulting 
# from the CCDC's data processing and validation procedures.
#
#######################################################################

data_USEBUR
_chemical_formula_moiety         'C10 H13 N4 O3 P1,H2 O1'
_chemical_name_systematic        
'(4-(2-ethyl-2H-tetrazol-5-yl)benzyl)phosphonic acid monohydrate'
_symmetry_cell_setting           monoclinic
_symmetry_space_group_name_H-M   'P 21/c'
_symmetry_Int_Tables_number      14
_space_group_name_Hall           '-P 2ybc'
loop_
_symmetry_equiv_pos_site_id
_symmetry_equiv_pos_as_xyz
1 x,y,z
2 -x,1/2+y,1/2-z
3 -x,-y,-z
4 x,1/2-y,1/2+z
_cell_length_a                   13.3141(7)
_cell_length_b                   5.1650(3)
_cell_length_c                   21.9839(18)
_cell_angle_alpha                90
_cell_angle_beta                 115.307(5)
_cell_angle_gamma                90
_cell_volume                     1366.69
_exptl_crystal_colour            colorless
_exptl_crystal_description       block
_cell_formula_units_Z            4
loop_
_atom_site_label
_atom_site_type_symbol
_atom_site_fract_x
_atom_site_fract_y
_atom_site_fract_z
P1 P 0.03590(10) 1.1694(2) 0.66861(6)
O1 O -0.0354(3) 1.0363(9) 0.60126(19)
H1 H -0.070(5) 0.901(8) 0.600(4)
O2 O 0.0938(3) 0.9660(8) 0.72288(18)
H2 H 0.070(5) 0.931(13) 0.751(2)
O3 O -0.0303(3) 1.3584(7) 0.68669(17)
N1 N 0.3618(3) 0.4326(9) 0.5266(2)
N2 N 0.4410(4) 0.2765(9) 0.5290(2)
N3 N 0.5214(4) 0.3037(10) 0.5884(2)
N4 N 0.4999(4) 0.4713(10) 0.6270(2)
C1 C 0.2132(4) 1.1226(9) 0.6363(2)
C2 C 0.1772(4) 1.0285(10) 0.5709(2)
H3 H 0.1117 1.0917 0.5371
C3 C 0.2376(4) 0.8423(10) 0.5557(2)
H4 H 0.2116 0.7810 0.5118
C4 C 0.3356(4) 0.7458(9) 0.6044(2)
C5 C 0.3717(4) 0.8393(10) 0.6697(2)
H5 H 0.4375 0.7770 0.7035
C6 C 0.3112(4) 1.0229(10) 0.6848(2)
H6 H 0.3369 1.0818 0.7289
C7 C 0.1444(4) 1.3151(9) 0.6528(2)
H7 H 0.1116 1.4359 0.6157
H8 H 0.1924 1.4128 0.6922
C8 C 0.3992(4) 0.5500(9) 0.5876(2)
C9 C 0.6366(7) 0.1807(17) 0.6097(4)
H9 H 0.6338 0.0626 0.5747
H10 H 0.6896 0.3159 0.6137
C10 C 0.6711(8) 0.0561(18) 0.6660(4)
H11 H 0.6847 0.1761 0.7020
H12 H 0.7387 -0.0336 0.6738
H13 H 0.6156 -0.0666 0.6640
O4 O -0.1718(4) 0.7016(8) 0.5940(2)
H14 H -0.1940 0.6508 0.5535
H15 H -0.1127 0.6189 0.6178
loop_
_geom_bond_atom_site_label_1
_geom_bond_atom_site_label_2
_geom_bond_site_symmetry_1
_geom_bond_site_symmetry_2
P1 O1 1_555 1_555
O1 H1 1_555 1_555
O2 P1 1_555 1_555
H2 O2 1_555 1_555
O3 P1 1_555 1_555
N1 N2 1_555 1_555
N2 N3 1_555 1_555
N3 N4 1_555 1_555
N4 C8 1_555 1_555
C1 C2 1_555 1_555
C2 H3 1_555 1_555
C3 C2 1_555 1_555
H4 C3 1_555 1_555
C4 C3 1_555 1_555
C5 C4 1_555 1_555
H5 C5 1_555 1_555
C6 C1 1_555 1_555
H6 C6 1_555 1_555
C7 P1 1_555 1_555
H7 C7 1_555 1_555
H8 C7 1_555 1_555
C8 N1 1_555 1_555
C9 N3 1_555 1_555
H9 C9 1_555 1_555
H10 C9 1_555 1_555
C10 C9 1_555 1_555
H11 C10 1_555 1_555
H12 C10 1_555 1_555
H13 C10 1_555 1_555
O4 H14 1_555 1_555
H15 O4 1_555 1_555
C1 C7 1_555 1_555
C4 C8 1_555 1_555
C5 C6 1_555 1_555

#END
