
#######################################################################
#
#                 Cambridge Crystallographic Data Centre
#                                CCDC 
#
#######################################################################
#
# If this CIF has been generated from an entry in the Cambridge 
# Structural Database, then it will include bibliographic, chemical, 
# crystal, experimental, refinement or atomic coordinate data resulting 
# from the CCDC's data processing and validation procedures.
#
#######################################################################

data_USELOV
_chemical_formula_moiety         'C108 Cl12'
_chemical_name_systematic        dodecachloro-C108fullerene
_symmetry_cell_setting           triclinic
_symmetry_space_group_name_H-M   'P -1'
_symmetry_Int_Tables_number      2
_space_group_name_Hall           '-P 1'
loop_
_symmetry_equiv_pos_site_id
_symmetry_equiv_pos_as_xyz
1 x,y,z
2 -x,-y,-z
_cell_length_a                   11.3810(10)
_cell_length_b                   14.7340(10)
_cell_length_c                   20.5000(10)
_cell_angle_alpha                71.256(7)
_cell_angle_beta                 74.043(10)
_cell_angle_gamma                70.057(10)
_cell_volume                     3006.84
_exptl_crystal_colour            red
_exptl_crystal_description       plate
_cell_formula_units_Z            2
loop_
_atom_site_label
_atom_site_type_symbol
_atom_site_fract_x
_atom_site_fract_y
_atom_site_fract_z
Cl1 Cl 0.6572(3) -0.0084(2) 0.53239(14)
Cl2 Cl 0.1749(2) 0.4545(2) 0.97902(13)
Cl3 Cl 0.8180(3) 0.4040(2) 0.39136(13)
Cl4 Cl 0.7649(3) 0.2087(2) 0.40977(13)
Cl5 Cl 0.8762(3) -0.1973(2) 0.64164(14)
Cl6 Cl 0.9551(3) -0.2733(2) 0.78360(14)
Cl7 Cl 0.9642(3) -0.2250(2) 0.94552(14)
Cl8 Cl 0.6361(3) 0.0984(2) 1.10917(13)
Cl9 Cl 0.3942(3) 0.2681(2) 1.09604(13)
Cl10 Cl 0.2705(3) 0.6722(2) 0.86453(14)
Cl11 Cl 0.3942(3) 0.7682(2) 0.72052(14)
Cl12 Cl 0.6093(3) 0.7423(2) 0.55254(14)
C1 C 0.4148(9) 0.1749(8) 0.7825(5)
C2 C 0.3882(9) 0.2675(8) 0.7292(5)
C3 C 0.4456(9) 0.2659(8) 0.6582(5)
C4 C 0.5007(9) 0.1734(8) 0.6401(5)
C5 C 0.5259(9) 0.0822(8) 0.6935(5)
C6 C 0.4951(10) 0.0837(8) 0.7645(5)
C7 C 0.5755(10) 0.0107(7) 0.8114(5)
C8 C 0.5803(10) 0.0276(8) 0.8750(5)
C9 C 0.4830(9) 0.1068(7) 0.8994(4)
C10 C 0.3967(9) 0.1809(8) 0.8541(5)
C11 C 0.3321(9) 0.2714(8) 0.8714(5)
C12 C 0.3050(9) 0.3625(8) 0.8179(6)
C13 C 0.3461(9) 0.3601(7) 0.7485(5)
C14 C 0.3837(9) 0.4453(8) 0.6989(5)
C15 C 0.4654(10) 0.4361(8) 0.6334(5)
C16 C 0.4832(9) 0.3519(7) 0.6100(5)
C17 C 0.5798(10) 0.3347(8) 0.5512(5)
C18 C 0.6315(10) 0.2408(8) 0.5362(5)
C19 C 0.5950(10) 0.1595(8) 0.5791(5)
C20 C 0.6810(10) 0.0550(8) 0.5896(5)
C21 C 0.6301(11) 0.0114(8) 0.6660(6)
C22 C 0.7090(10) -0.0576(8) 0.7091(6)
C23 C 0.6835(11) -0.0570(7) 0.7792(5)
C24 C 0.7930(9) -0.0974(7) 0.8084(5)
C25 C 0.8023(11) -0.0755(7) 0.8654(5)
C26 C 0.6947(9) -0.0142(8) 0.9026(5)
C27 C 0.7109(9) 0.0301(7) 0.9508(5)
C28 C 0.6130(10) 0.0956(7) 0.9807(5)
C29 C 0.4956(10) 0.1319(8) 0.9563(5)
C30 C 0.4263(10) 0.2257(8) 0.9721(5)
C31 C 0.3431(10) 0.2948(8) 0.9309(5)
C32 C 0.3167(10) 0.4050(7) 0.9185(5)
C33 C 0.2966(9) 0.4416(8) 0.8443(5)
C34 C 0.3348(9) 0.5229(8) 0.7988(5)
C35 C 0.3756(9) 0.5211(8) 0.7272(5)
C36 C 0.4593(10) 0.5834(8) 0.6959(5)
C37 C 0.5457(9) 0.5723(8) 0.6355(5)
C38 C 0.5493(10) 0.4985(8) 0.6024(5)
C39 C 0.6606(11) 0.4679(7) 0.5490(5)
C40 C 0.6670(9) 0.3932(7) 0.5223(5)
C41 C 0.7900(10) 0.3356(7) 0.4838(5)
C42 C 0.7647(10) 0.2302(8) 0.4921(5)
C43 C 0.8562(10) 0.1385(7) 0.5311(5)
C44 C 0.8180(10) 0.0545(7) 0.5783(5)
C45 C 0.8951(9) -0.0150(7) 0.6250(5)
C46 C 0.8458(11) -0.0986(8) 0.6842(5)
C47 C 0.9092(11) -0.1369(8) 0.7527(5)
C48 C 1.0161(11) -0.1000(8) 0.7526(6)
C49 C 1.0329(10) -0.0996(8) 0.8162(5)
C50 C 0.9318(10) -0.1026(8) 0.8836(5)
C51 C 0.9434(10) -0.0245(7) 0.9129(5)
C52 C 0.8431(11) 0.0338(8) 0.9482(5)
C53 C 0.8558(10) 0.1232(8) 0.9554(5)
C54 C 0.7458(10) 0.1916(8) 0.9864(5)
C55 C 0.6234(10) 0.1654(8) 1.0187(5)
C56 C 0.4927(10) 0.2586(9) 1.0105(6)
C57 C 0.5113(10) 0.3584(8) 0.9718(5)
C58 C 0.4325(11) 0.4309(7) 0.9239(5)
C59 C 0.4693(10) 0.5138(7) 0.8758(5)
C60 C 0.3912(10) 0.5829(7) 0.8211(5)
C61 C 0.4681(10) 0.6328(8) 0.7485(5)
C62 C 0.6066(11) 0.6218(7) 0.7450(5)
C63 C 0.6844(11) 0.6271(7) 0.6800(5)
C64 C 0.6504(11) 0.6207(8) 0.6150(6)
C65 C 0.7738(10) 0.5547(8) 0.5829(5)
C66 C 0.7796(11) 0.4879(8) 0.5489(6)
C67 C 0.8978(11) 0.4063(8) 0.5403(5)
C68 C 0.9004(10) 0.3293(8) 0.5108(5)
C69 C 0.9950(10) 0.2447(9) 0.5187(6)
C70 C 0.9730(9) 0.1463(8) 0.5298(5)
C71 C 1.0567(10) 0.0728(7) 0.5747(5)
C72 C 1.0182(10) -0.0059(8) 0.6254(5)
C73 C 1.0786(9) -0.0473(7) 0.6880(5)
C74 C 1.1659(9) -0.0023(7) 0.6911(5)
C75 C 1.1772(9) 0.0056(8) 0.7576(5)
C76 C 1.1064(9) -0.0384(7) 0.8178(5)
C77 C 1.0515(10) 0.0102(8) 0.8743(5)
C78 C 1.0587(10) 0.1054(7) 0.8671(5)
C79 C 0.9619(11) 0.1627(8) 0.9120(5)
C80 C 0.9549(10) 0.2664(8) 0.8983(5)
C81 C 0.8495(10) 0.3256(7) 0.9362(4)
C82 C 0.7438(10) 0.2870(8) 0.9776(5)
C83 C 0.6302(10) 0.3721(8) 0.9684(5)
C84 C 0.6661(10) 0.4569(7) 0.9210(5)
C85 C 0.5942(10) 0.5258(7) 0.8721(5)
C86 C 0.6611(11) 0.5812(7) 0.8075(5)
C87 C 0.7946(11) 0.5558(8) 0.7991(5)
C88 C 0.8708(10) 0.5565(8) 0.7327(6)
C89 C 0.8180(10) 0.5908(8) 0.6728(5)
C90 C 0.8729(10) 0.5407(7) 0.6170(5)
C91 C 0.9781(9) 0.4545(7) 0.6223(5)
C92 C 0.9949(10) 0.3913(8) 0.5792(5)
C93 C 1.0896(10) 0.2964(8) 0.5904(5)
C94 C 1.0926(9) 0.2274(7) 0.5555(5)
C95 C 1.1378(10) 0.1226(8) 0.5823(5)
C96 C 1.1896(10) 0.0841(8) 0.6421(6)
C97 C 1.1964(10) 0.1532(8) 0.6766(5)
C98 C 1.1860(9) 0.1024(8) 0.7502(5)
C99 C 1.1265(9) 0.1565(8) 0.8027(5)
C100 C 1.0904(9) 0.2618(8) 0.7803(5)
C101 C 1.0202(10) 0.3167(8) 0.8324(6)
C102 C 0.9776(10) 0.4200(8) 0.8115(5)
C103 C 0.8638(10) 0.4777(7) 0.8483(5)
C104 C 0.8011(10) 0.4299(8) 0.9069(5)
C105 C 0.9823(9) 0.4704(8) 0.7372(5)
C106 C 1.0325(10) 0.4167(8) 0.6870(6)
C107 C 1.0994(10) 0.3136(8) 0.7061(6)
C108 C 1.1418(10) 0.2570(8) 0.6549(5)
loop_
_geom_bond_atom_site_label_1
_geom_bond_atom_site_label_2
_geom_bond_site_symmetry_1
_geom_bond_site_symmetry_2
Cl1 C20 1_555 1_555
Cl2 C32 1_555 1_555
Cl3 C41 1_555 1_555
Cl4 C42 1_555 1_555
Cl5 C46 1_555 1_555
Cl6 C47 1_555 1_555
Cl7 C50 1_555 1_555
Cl8 C55 1_555 1_555
Cl9 C56 1_555 1_555
Cl10 C60 1_555 1_555
Cl11 C61 1_555 1_555
Cl12 C64 1_555 1_555
C1 C2 1_555 1_555
C2 C3 1_555 1_555
C3 C4 1_555 1_555
C4 C5 1_555 1_555
C5 C6 1_555 1_555
C6 C1 1_555 1_555
C7 C6 1_555 1_555
C8 C7 1_555 1_555
C9 C8 1_555 1_555
C10 C1 1_555 1_555
C11 C10 1_555 1_555
C12 C11 1_555 1_555
C13 C2 1_555 1_555
C14 C13 1_555 1_555
C15 C14 1_555 1_555
C16 C3 1_555 1_555
C17 C16 1_555 1_555
C18 C17 1_555 1_555
C19 C4 1_555 1_555
C20 C19 1_555 1_555
C21 C5 1_555 1_555
C22 C21 1_555 1_555
C23 C7 1_555 1_555
C24 C23 1_555 1_555
C25 C24 1_555 1_555
C26 C8 1_555 1_555
C27 C26 1_555 1_555
C28 C27 1_555 1_555
C29 C9 1_555 1_555
C30 C29 1_555 1_555
C31 C11 1_555 1_555
C32 C31 1_555 1_555
C33 C12 1_555 1_555
C34 C33 1_555 1_555
C35 C14 1_555 1_555
C36 C35 1_555 1_555
C37 C36 1_555 1_555
C38 C15 1_555 1_555
C39 C38 1_555 1_555
C40 C17 1_555 1_555
C41 C40 1_555 1_555
C42 C18 1_555 1_555
C43 C42 1_555 1_555
C44 C20 1_555 1_555
C45 C44 1_555 1_555
C46 C22 1_555 1_555
C47 C24 1_555 1_555
C48 C47 1_555 1_555
C49 C48 1_555 1_555
C50 C25 1_555 1_555
C51 C50 1_555 1_555
C52 C27 1_555 1_555
C53 C52 1_555 1_555
C54 C53 1_555 1_555
C55 C28 1_555 1_555
C56 C30 1_555 1_555
C57 C56 1_555 1_555
C58 C32 1_555 1_555
C59 C58 1_555 1_555
C60 C34 1_555 1_555
C61 C36 1_555 1_555
C62 C61 1_555 1_555
C63 C62 1_555 1_555
C64 C37 1_555 1_555
C65 C64 1_555 1_555
C66 C39 1_555 1_555
C67 C66 1_555 1_555
C68 C41 1_555 1_555
C69 C68 1_555 1_555
C70 C43 1_555 1_555
C71 C70 1_555 1_555
C72 C45 1_555 1_555
C73 C48 1_555 1_555
C74 C73 1_555 1_555
C75 C74 1_555 1_555
C76 C49 1_555 1_555
C77 C51 1_555 1_555
C78 C77 1_555 1_555
C79 C53 1_555 1_555
C80 C79 1_555 1_555
C81 C80 1_555 1_555
C82 C54 1_555 1_555
C83 C57 1_555 1_555
C84 C83 1_555 1_555
C85 C59 1_555 1_555
C86 C62 1_555 1_555
C87 C86 1_555 1_555
C88 C87 1_555 1_555
C89 C63 1_555 1_555
C90 C65 1_555 1_555
C91 C90 1_555 1_555
C92 C67 1_555 1_555
C93 C92 1_555 1_555
C94 C69 1_555 1_555
C95 C71 1_555 1_555
C96 C74 1_555 1_555
C97 C96 1_555 1_555
C98 C75 1_555 1_555
C99 C78 1_555 1_555
C100 C99 1_555 1_555
C101 C80 1_555 1_555
C102 C101 1_555 1_555
C103 C87 1_555 1_555
C104 C81 1_555 1_555
C105 C88 1_555 1_555
C106 C91 1_555 1_555
C107 C100 1_555 1_555
C108 C93 1_555 1_555
C9 C10 1_555 1_555
C12 C13 1_555 1_555
C15 C16 1_555 1_555
C18 C19 1_555 1_555
C20 C21 1_555 1_555
C22 C23 1_555 1_555
C25 C26 1_555 1_555
C28 C29 1_555 1_555
C30 C31 1_555 1_555
C32 C33 1_555 1_555
C34 C35 1_555 1_555
C37 C38 1_555 1_555
C39 C40 1_555 1_555
C41 C42 1_555 1_555
C43 C44 1_555 1_555
C45 C46 1_555 1_555
C46 C47 1_555 1_555
C49 C50 1_555 1_555
C51 C52 1_555 1_555
C54 C55 1_555 1_555
C55 C56 1_555 1_555
C57 C58 1_555 1_555
C59 C60 1_555 1_555
C60 C61 1_555 1_555
C63 C64 1_555 1_555
C65 C66 1_555 1_555
C67 C68 1_555 1_555
C69 C70 1_555 1_555
C71 C72 1_555 1_555
C72 C73 1_555 1_555
C75 C76 1_555 1_555
C76 C77 1_555 1_555
C78 C79 1_555 1_555
C81 C82 1_555 1_555
C82 C83 1_555 1_555
C84 C85 1_555 1_555
C84 C104 1_555 1_555
C85 C86 1_555 1_555
C88 C89 1_555 1_555
C89 C90 1_555 1_555
C91 C92 1_555 1_555
C93 C94 1_555 1_555
C94 C95 1_555 1_555
C95 C96 1_555 1_555
C97 C98 1_555 1_555
C97 C108 1_555 1_555
C98 C99 1_555 1_555
C100 C101 1_555 1_555
C102 C103 1_555 1_555
C102 C105 1_555 1_555
C103 C104 1_555 1_555
C105 C106 1_555 1_555
C106 C107 1_555 1_555
C107 C108 1_555 1_555

#END
