
#######################################################################
#
#                 Cambridge Crystallographic Data Centre
#                                CCDC 
#
#######################################################################
#
# If this CIF has been generated from an entry in the Cambridge 
# Structural Database, then it will include bibliographic, chemical, 
# crystal, experimental, refinement or atomic coordinate data resulting 
# from the CCDC's data processing and validation procedures.
#
#######################################################################

data_USENIR
_chemical_formula_moiety         'C68 H52 N10 O10,0.5(C6 H12),2(C1 H1 Cl3)'
_chemical_name_systematic        
'8,11,14,17,20,23,37,45,56,64-decaoxa-2,29,31,51,71,73,76,79,81,84-decaazatetradecacyclo[28.21.17.3^38,44^.3^57,63^.2^4,7^.2^24,27^.2^33,36^.2^46,49^.2^52,55^.2^65,68^.1^3,50^.1^28,32^.0^41,80^.0^60,72^]octaoctaconta-1,3(76),4,6,24,26,28(84),29,31,33,35,38(81),39,41,43,46,48,50,52,54,57,59,61,63(71),65,67,69,72,74,77,79,82,85,87-tetratriacontaene chloroform cyclohexane solvate'
_symmetry_cell_setting           triclinic
_symmetry_space_group_name_H-M   'P -1'
_symmetry_Int_Tables_number      2
_space_group_name_Hall           '-P 1'
loop_
_symmetry_equiv_pos_site_id
_symmetry_equiv_pos_as_xyz
1 x,y,z
2 -x,-y,-z
_cell_length_a                   14.259(3)
_cell_length_b                   18.033(3)
_cell_length_c                   20.014(4)
_cell_angle_alpha                65.263(3)
_cell_angle_beta                 87.570(3)
_cell_angle_gamma                73.367(3)
_cell_volume                     4460.71
_exptl_crystal_colour            colorless
_exptl_crystal_description       block
_cell_formula_units_Z            2
loop_
_atom_site_label
_atom_site_type_symbol
_atom_site_fract_x
_atom_site_fract_y
_atom_site_fract_z
N1 N 0.3814(3) 0.4994(3) 0.4755(2)
N2 N 0.4709(3) 0.5546(2) 0.3725(2)
N3 N 0.3880(3) 0.6416(3) 0.4316(2)
N4 N -0.0787(3) 0.7349(3) 0.2009(2)
N5 N 0.0331(3) 0.7836(3) 0.1150(2)
N6 N -0.0379(3) 0.8587(3) 0.1850(2)
N7 N 0.4732(3) 0.9615(3) 0.1260(2)
N8 N 0.3337(3) 1.0345(3) 0.0460(2)
N9 N -0.0115(3) 0.6916(3) 0.6178(2)
N10 N -0.1504(3) 0.7575(3) 0.5384(2)
O1 O 0.5406(3) 0.1716(2) 0.4139(2)
O2 O 0.6129(3) 0.8863(2) 0.2066(2)
O3 O 0.1270(3) 0.6217(2) 0.7000(2)
O4 O 0.0567(4) 0.4382(3) 0.0914(3)
O5 O 0.1930(3) 1.1064(2) -0.0321(2)
O6 O -0.2917(2) 0.8224(3) 0.4582(2)
O7 O 0.4821(3) 0.0604(2) 0.3718(2)
O8 O 0.3355(3) -0.0019(3) 0.3341(2)
O9 O 0.1770(3) 0.1011(3) 0.2115(2)
O10 O 0.1911(4) 0.2718(3) 0.1141(2)
C1 C 0.4359(3) 0.4941(3) 0.4199(3)
C2 C 0.4460(3) 0.6278(3) 0.3804(3)
C3 C 0.3582(3) 0.5765(3) 0.4770(3)
C4 C 0.4621(3) 0.4101(3) 0.4157(3)
C5 C 0.5058(4) 0.4005(3) 0.3546(3)
H1 H 0.5180 0.4482 0.3150
C6 C 0.5312(4) 0.3227(4) 0.3518(3)
H2 H 0.5601 0.3171 0.3099
C7 C 0.5154(4) 0.2528(4) 0.4090(3)
C8 C 0.4726(4) 0.2605(3) 0.4709(3)
H3 H 0.4623 0.2121 0.5109
C9 C 0.4453(4) 0.3396(3) 0.4733(3)
H4 H 0.4148 0.3455 0.5146
C10 C 0.4858(3) 0.6968(3) 0.3339(3)
C11 C 0.5638(4) 0.6815(3) 0.2914(3)
H5 H 0.5885 0.6263 0.2922
C12 C 0.6045(4) 0.7430(3) 0.2496(3)
H6 H 0.6586 0.7308 0.2226
C13 C 0.5658(4) 0.8247(3) 0.2467(3)
C14 C 0.4884(4) 0.8436(3) 0.2860(3)
H7 H 0.4614 0.8996 0.2830
C15 C 0.4510(4) 0.7767(3) 0.3305(3)
H8 H 0.3991 0.7878 0.3596
C16 C 0.2961(3) 0.5874(3) 0.5357(3)
C17 C 0.2567(4) 0.5248(3) 0.5813(3)
H9 H 0.2692 0.4730 0.5759
C18 C 0.1987(4) 0.5369(4) 0.6351(3)
H10 H 0.1719 0.4934 0.6670
C19 C 0.1801(4) 0.6124(4) 0.6421(3)
C20 C 0.2191(4) 0.6739(4) 0.5986(3)
H11 H 0.2073 0.7246 0.6058
C21 C 0.2768(4) 0.6642(4) 0.5430(3)
H12 H 0.3022 0.7086 0.5108
C22 C -0.0178(4) 0.7288(3) 0.1493(3)
C23 C 0.0186(3) 0.8492(3) 0.1321(3)
C24 C -0.0839(3) 0.8011(3) 0.2174(3)
C25 C -0.0035(5) 0.6548(3) 0.1310(3)
C26 C -0.0579(5) 0.5984(4) 0.1574(3)
H13 H -0.1108 0.6086 0.1860
C27 C -0.0380(5) 0.5291(4) 0.1434(3)
H14 H -0.0770 0.4911 0.1619
C28 C 0.0402(6) 0.5124(4) 0.1016(3)
C29 C 0.0968(6) 0.5672(4) 0.0739(4)
H15 H 0.1504 0.5563 0.0460
C30 C 0.0723(5) 0.6393(4) 0.0884(4)
H16 H 0.1088 0.6791 0.0684
C31 C 0.0687(3) 0.9131(3) 0.0927(3)
C32 C 0.0717(4) 0.9764(3) 0.1153(3)
H17 H 0.0433 0.9756 0.1593
C33 C 0.1140(4) 1.0390(4) 0.0762(3)
H18 H 0.1150 1.0812 0.0926
C34 C 0.1553(3) 1.0399(3) 0.0125(3)
C35 C 0.1572(4) 0.9767(3) -0.0112(3)
H19 H 0.1891 0.9762 -0.0537
C36 C 0.1122(4) 0.9154(3) 0.0280(3)
H20 H 0.1104 0.8739 0.0109
C37 C -0.1402(3) 0.8048(3) 0.2805(3)
C38 C -0.1796(4) 0.7416(3) 0.3237(3)
H21 H -0.1744 0.6949 0.3117
C39 C -0.2277(4) 0.7447(4) 0.3853(3)
H22 H -0.2535 0.7000 0.4165
C40 C -0.2362(3) 0.8157(3) 0.3993(3)
C41 C -0.1989(4) 0.8787(4) 0.3581(3)
H23 H -0.2046 0.9252 0.3704
C42 C -0.1508(4) 0.8753(3) 0.2959(3)
H24 H -0.1259 0.9206 0.2648
C43 C 0.5709(5) 0.1590(4) 0.3497(4)
H25 H 0.6359 0.1684 0.3384
H26 H 0.5229 0.1995 0.3067
C44 C 0.5764(4) 0.0702(4) 0.3657(4)
H27 H 0.6069 0.0560 0.3255
H28 H 0.6180 0.0306 0.4123
C45 C 0.4837(4) -0.0266(4) 0.4022(4)
H29 H 0.5189 -0.0571 0.4522
H30 H 0.5193 -0.0540 0.3710
C46 C 0.3816(4) -0.0329(4) 0.4065(3)
H31 H 0.3829 -0.0932 0.4355
H32 H 0.3433 0.0012 0.4320
C47 C 0.2340(4) -0.0026(4) 0.3358(3)
H33 H 0.1947 0.0409 0.3519
H34 H 0.2301 -0.0593 0.3720
C48 C 0.1934(5) 0.0152(5) 0.2631(4)
H35 H 0.2391 -0.0225 0.2439
H36 H 0.1303 0.0014 0.2683
C49 C 0.2628(5) 0.1222(4) 0.1783(4)
H37 H 0.3072 0.0723 0.1723
H38 H 0.2985 0.1354 0.2112
C50 C 0.2358(5) 0.1964(4) 0.1055(3)
H39 H 0.2954 0.2016 0.0790
H40 H 0.1899 0.1876 0.0757
C51 C 0.1439(7) 0.3403(4) 0.0454(4)
H41 H 0.0786 0.3359 0.0360
H42 H 0.1838 0.3368 0.0045
C52 C 0.1330(7) 0.4209(4) 0.0484(4)
H43 H 0.1953 0.4193 0.0698
H44 H 0.1189 0.4673 -0.0023
C53 C 0.5620(4) 0.9558(3) 0.1483(3)
C54 C 0.6085(4) 1.0192(4) 0.1129(3)
H45 H 0.6714 1.0132 0.1321
C55 C 0.5629(4) 1.0886(4) 0.0515(3)
H46 H 0.5938 1.1317 0.0259
C56 C 0.4678(4) 1.0963(3) 0.0259(3)
C57 C 0.4120(4) 1.1668(3) -0.0375(3)
H47 H 0.4382 1.2122 -0.0663
C58 C 0.3202(4) 1.1686(3) -0.0567(3)
H48 H 0.2812 1.2142 -0.0993
C59 C 0.2867(4) 1.1010(3) -0.0113(3)
C60 C 0.4263(4) 1.0322(3) 0.0654(3)
C61 C 0.0302(4) 0.6694(3) 0.6838(3)
C62 C -0.0132(4) 0.6914(3) 0.7387(3)
H49 H 0.0232 0.6746 0.7840
C63 C -0.1092(4) 0.7377(3) 0.7257(3)
H50 H -0.1422 0.7534 0.7622
C64 C -0.1588(4) 0.7618(3) 0.6578(3)
C65 C -0.2599(4) 0.8072(3) 0.6390(3)
H51 H -0.2978 0.8238 0.6734
C66 C -0.3023(4) 0.8267(3) 0.5734(3)
H52 H -0.3701 0.8573 0.5601
C67 C -0.2433(4) 0.8005(3) 0.5240(3)
C68 C -0.1076(3) 0.7375(3) 0.6052(3)
C69 C 0.1175(6) 0.4604(6) 0.3723(5)
H53 H 0.0892 0.4121 0.3987
Cl1 Cl 0.19906(17) 0.4594(2) 0.43236(16)
Cl2 Cl 0.0278(2) 0.5479(3) 0.33101(17)
Cl3 Cl 0.1799(5) 0.4456(3) 0.2968(3)
C70 C 0.3333(14) 0.7248(7) 0.1436(6)
H54 H 0.2607 0.7514 0.1318
Cl4 Cl 0.3444(3) 0.8114(3) 0.1492(3)
Cl5 Cl 0.3159(7) 0.6410(6) 0.2168(6)
Cl6 Cl 0.3436(8) 0.7149(5) 0.0639(4)
C71 C 1.0746(10) 0.0415(7) 0.5006(8)
H55 H 1.0546 0.0597 0.5407
H56 H 1.1354 0.0565 0.4827
C72 C 0.9947(9) 0.0848(7) 0.4388(8)
H57 H 1.0155 0.0689 0.3975
H58 H 0.9777 0.1477 0.4200
C73 C 0.9080(11) 0.0540(11) 0.4715(10)
H59 H 0.8514 0.0841 0.4334
H60 H 0.8898 0.0700 0.5129
C71A C 0.9254(10) -0.0415(7) 0.4994(8)
H55A H 0.9454 -0.0597 0.4593
H56A H 0.8646 -0.0565 0.5173
C72A C 1.0053(9) -0.0848(7) 0.5612(8)
H57A H 0.9845 -0.0689 0.6025
H58A H 1.0223 -0.1477 0.5800
C73A C 1.0920(11) -0.0540(11) 0.5285(10)
H59A H 1.1486 -0.0841 0.5666
H60A H 1.1102 -0.0700 0.4871
loop_
_geom_bond_atom_site_label_1
_geom_bond_atom_site_label_2
_geom_bond_site_symmetry_1
_geom_bond_site_symmetry_2
N1 C1 1_555 1_555
N2 C1 1_555 1_555
N3 C2 1_555 1_555
N4 C22 1_555 1_555
N5 C22 1_555 1_555
N6 C23 1_555 1_555
N7 C53 1_555 1_555
N8 C59 1_555 1_555
N9 C61 1_555 1_555
N10 C67 1_555 1_555
O1 C7 1_555 1_555
O2 C13 1_555 1_555
O3 C19 1_555 1_555
O4 C28 1_555 1_555
O5 C34 1_555 1_555
O6 C40 1_555 1_555
O7 C44 1_555 1_555
O8 C46 1_555 1_555
O9 C48 1_555 1_555
O10 C50 1_555 1_555
C1 C4 1_555 1_555
C2 N2 1_555 1_555
C3 N1 1_555 1_555
C4 C5 1_555 1_555
C5 H1 1_555 1_555
C6 C5 1_555 1_555
H2 C6 1_555 1_555
C7 C6 1_555 1_555
C8 C7 1_555 1_555
H3 C8 1_555 1_555
C9 C4 1_555 1_555
H4 C9 1_555 1_555
C10 C2 1_555 1_555
C11 C10 1_555 1_555
H5 C11 1_555 1_555
C12 C11 1_555 1_555
H6 C12 1_555 1_555
C13 C12 1_555 1_555
C14 C13 1_555 1_555
H7 C14 1_555 1_555
C15 C10 1_555 1_555
H8 C15 1_555 1_555
C16 C3 1_555 1_555
C17 C16 1_555 1_555
H9 C17 1_555 1_555
C18 C17 1_555 1_555
H10 C18 1_555 1_555
C19 C18 1_555 1_555
C20 C19 1_555 1_555
H11 C20 1_555 1_555
C21 C16 1_555 1_555
H12 C21 1_555 1_555
C22 C25 1_555 1_555
C23 N5 1_555 1_555
C24 N4 1_555 1_555
C25 C26 1_555 1_555
C26 H13 1_555 1_555
C27 C26 1_555 1_555
H14 C27 1_555 1_555
C28 C27 1_555 1_555
C29 C28 1_555 1_555
H15 C29 1_555 1_555
C30 C25 1_555 1_555
H16 C30 1_555 1_555
C31 C23 1_555 1_555
C32 C31 1_555 1_555
H17 C32 1_555 1_555
C33 C32 1_555 1_555
H18 C33 1_555 1_555
C34 C33 1_555 1_555
C35 C34 1_555 1_555
H19 C35 1_555 1_555
C36 C31 1_555 1_555
H20 C36 1_555 1_555
C37 C24 1_555 1_555
C38 C37 1_555 1_555
H21 C38 1_555 1_555
C39 C38 1_555 1_555
H22 C39 1_555 1_555
C40 C39 1_555 1_555
C41 C40 1_555 1_555
H23 C41 1_555 1_555
C42 C37 1_555 1_555
H24 C42 1_555 1_555
C43 O1 1_555 1_555
H25 C43 1_555 1_555
H26 C43 1_555 1_555
C44 C43 1_555 1_555
H27 C44 1_555 1_555
H28 C44 1_555 1_555
C45 O7 1_555 1_555
H29 C45 1_555 1_555
H30 C45 1_555 1_555
C46 C45 1_555 1_555
H31 C46 1_555 1_555
H32 C46 1_555 1_555
C47 O8 1_555 1_555
H33 C47 1_555 1_555
H34 C47 1_555 1_555
C48 C47 1_555 1_555
H35 C48 1_555 1_555
H36 C48 1_555 1_555
C49 O9 1_555 1_555
H37 C49 1_555 1_555
H38 C49 1_555 1_555
C50 C49 1_555 1_555
H39 C50 1_555 1_555
H40 C50 1_555 1_555
C51 O10 1_555 1_555
H41 C51 1_555 1_555
H42 C51 1_555 1_555
C52 O4 1_555 1_555
H43 C52 1_555 1_555
H44 C52 1_555 1_555
C53 O2 1_555 1_555
C54 C53 1_555 1_555
H45 C54 1_555 1_555
C55 C54 1_555 1_555
H46 C55 1_555 1_555
C56 C55 1_555 1_555
C57 C56 1_555 1_555
H47 C57 1_555 1_555
C58 C57 1_555 1_555
H48 C58 1_555 1_555
C59 O5 1_555 1_555
C60 N7 1_555 1_555
C61 O3 1_555 1_555
C62 C61 1_555 1_555
H49 C62 1_555 1_555
C63 C62 1_555 1_555
H50 C63 1_555 1_555
C64 C63 1_555 1_555
C65 C64 1_555 1_555
H51 C65 1_555 1_555
C66 C65 1_555 1_555
H52 C66 1_555 1_555
C67 O6 1_555 1_555
C68 N9 1_555 1_555
C69 H53 1_555 1_555
Cl1 C69 1_555 1_555
Cl2 C69 1_555 1_555
Cl3 C69 1_555 1_555
C70 H54 1_555 1_555
Cl4 C70 1_555 1_555
Cl5 C70 1_555 1_555
Cl6 C70 1_555 1_555
C71 H55 1_555 1_555
H56 C71 1_555 1_555
C72 C71 1_555 1_555
H57 C72 1_555 1_555
H58 C72 1_555 1_555
C73 C72 1_555 1_555
H59 C73 1_555 1_555
H60 C73 1_555 1_555
C71A C73 1_555 1_555
H55A C71A 1_555 1_555
H56A C71A 1_555 1_555
C72A C71A 1_555 1_555
H57A C72A 1_555 1_555
H58A C72A 1_555 1_555
C73A C71 1_555 1_555
H59A C73A 1_555 1_555
H60A C73A 1_555 1_555
N3 C3 1_555 1_555
N6 C24 1_555 1_555
N8 C60 1_555 1_555
N10 C68 1_555 1_555
C8 C9 1_555 1_555
C14 C15 1_555 1_555
C20 C21 1_555 1_555
C29 C30 1_555 1_555
C35 C36 1_555 1_555
C41 C42 1_555 1_555
C51 C52 1_555 1_555
C56 C60 1_555 1_555
C58 C59 1_555 1_555
C64 C68 1_555 1_555
C66 C67 1_555 1_555
C72A C73A 1_555 1_555

#END
