
#######################################################################
#
#                 Cambridge Crystallographic Data Centre
#                                CCDC 
#
#######################################################################
#
# If this CIF has been generated from an entry in the Cambridge 
# Structural Database, then it will include bibliographic, chemical, 
# crystal, experimental, refinement or atomic coordinate data resulting 
# from the CCDC's data processing and validation procedures.
#
#######################################################################

data_USEQIT
_chemical_compound_source        'Stephania cepharantha'
_chemical_name_common            'Cepharatine A methanol solvate'
_chemical_formula_moiety         'C18 H19 N1 O4,C1 H4 O1'
_chemical_name_systematic        
'3,13-Dihydroxy-4-methoxy-14-methyl-14-azatetracyclo-[11.3.1.0^1,10^.0^2,7^]heptadeca-2,4,6,8,10-pentaen-12-one methanol solvate'
_symmetry_cell_setting           monoclinic
_symmetry_space_group_name_H-M   'P 21'
_symmetry_Int_Tables_number      4
_space_group_name_Hall           'P 2yb'
loop_
_symmetry_equiv_pos_site_id
_symmetry_equiv_pos_as_xyz
1 x,y,z
2 -x,1/2+y,-z
_cell_length_a                   11.916(2)
_cell_length_b                   6.6730(13)
_cell_length_c                   21.319(4)
_cell_angle_alpha                90
_cell_angle_beta                 90.46(3)
_cell_angle_gamma                90
_cell_volume                     1695.14
_exptl_crystal_colour            yellow
_exptl_crystal_description       plate
_cell_formula_units_Z            4
_exptl_crystal_recrystallization_method chloroform/methanol
loop_
_atom_site_label
_atom_site_type_symbol
_atom_site_fract_x
_atom_site_fract_y
_atom_site_fract_z
N1 N 0.11692(19) 0.2949(4) 0.46427(10)
O1 O 0.05828(15) 0.2602(4) 0.65990(8)
H1 H 0.0132 0.3131 0.6836
O2 O 0.06859(19) 0.2630(4) 0.78318(8)
O3 O 0.27711(18) -0.0330(4) 0.40288(10)
O4 O 0.07747(16) -0.0517(4) 0.46068(9)
H2 H 0.0154 -0.0304 0.4756
C1 C 0.1695(2) 0.2643(4) 0.75372(11)
C2 C 0.2727(3) 0.2710(5) 0.78300(13)
H3 H 0.2781 0.2750 0.8265
C3 C 0.3687(3) 0.2717(5) 0.74660(14)
H4 H 0.4385 0.2825 0.7661
C4 C 0.3630(2) 0.2566(4) 0.68173(13)
C5 C 0.4633(2) 0.2560(5) 0.64584(16)
H5 H 0.5309 0.2830 0.6662
C6 C 0.4651(2) 0.2185(5) 0.58427(16)
H6 H 0.5333 0.2171 0.5634
C7 C 0.3621(2) 0.1799(4) 0.54966(14)
C8 C 0.3654(2) 0.0999(5) 0.49110(14)
H7 H 0.4355 0.0804 0.4732
C9 C 0.2690(2) 0.0436(5) 0.45510(13)
C10 C 0.1541(2) 0.0904(5) 0.48382(11)
C11 C 0.1622(2) 0.0849(4) 0.55456(11)
H8 H 0.1822 -0.0493 0.5680
H9 H 0.0897 0.1174 0.5722
C12 C 0.1953(3) 0.4510(5) 0.48448(14)
H10 H 0.1652 0.5810 0.4729
H11 H 0.2659 0.4334 0.4628
C13 C 0.2168(2) 0.4465(4) 0.55492(13)
H12 H 0.1494 0.4896 0.5763
H13 H 0.2761 0.5409 0.5652
C14 C 0.2508(2) 0.2349(4) 0.57930(12)
C15 C 0.2569(2) 0.2450(4) 0.65093(12)
C16 C 0.1617(2) 0.2570(4) 0.68777(11)
C17 C 0.0948(3) 0.3082(7) 0.39667(13)
H14 H 0.0711 0.4417 0.3863
H15 H 0.0367 0.2150 0.3853
H16 H 0.1620 0.2766 0.3742
C18 C 0.0686(4) 0.2578(8) 0.85001(13)
H17 H -0.0073 0.2582 0.8647
H18 H 0.1074 0.3734 0.8661
H19 H 0.1059 0.1385 0.8643
N2 N 0.62381(17) 0.7537(4) 0.97202(10)
O5 O 0.31247(16) 0.7684(4) 0.87615(8)
H20 H 0.2458 0.7424 0.8808
O6 O 0.14365(17) 0.7591(4) 0.79651(10)
O7 O 0.80635(17) 1.0902(4) 0.93773(10)
O8 O 0.60236(16) 1.1031(4) 0.98910(9)
H21 H 0.5430 1.0818 1.0072
C19 C 0.2476(2) 0.7646(4) 0.77003(12)
C20 C 0.2699(3) 0.7584(5) 0.70664(13)
H22 H 0.2117 0.7514 0.6774
C21 C 0.3801(3) 0.7628(5) 0.68744(12)
H23 H 0.3957 0.7550 0.6448
C22 C 0.4681(3) 0.7783(5) 0.72991(11)
C23 C 0.5811(3) 0.7860(6) 0.70774(13)
H24 H 0.5943 0.7636 0.6654
C24 C 0.6690(3) 0.8242(6) 0.74580(15)
H25 H 0.7410 0.8270 0.7293
C25 C 0.6537(3) 0.8611(5) 0.81171(13)
C26 C 0.7381(2) 0.9435(5) 0.84576(13)
H26 H 0.8070 0.9616 0.8263
C27 C 0.7280(2) 1.0054(5) 0.91074(13)
C28 C 0.6181(2) 0.9574(4) 0.94246(11)
C29 C 0.5229(2) 0.9574(4) 0.89496(11)
H27 H 0.5153 1.0902 0.8770
H28 H 0.4533 0.9247 0.9159
C30 C 0.6457(2) 0.5949(5) 0.92607(14)
H29 H 0.6446 0.4659 0.9470
H30 H 0.7199 0.6138 0.9086
C31 C 0.5592(2) 0.5952(4) 0.87340(13)
H31 H 0.4877 0.5515 0.8899
H32 H 0.5818 0.4995 0.8417
C32 C 0.5439(2) 0.8045(4) 0.84217(11)
C33 C 0.4467(2) 0.7902(4) 0.79485(11)
C34 C 0.3362(2) 0.7744(4) 0.81416(11)
C35 C 0.7064(2) 0.7443(6) 1.02328(14)
H33 H 0.7072 0.6118 1.0408
H34 H 0.6866 0.8391 1.0552
H35 H 0.7794 0.7760 1.0074
C36 C 0.0490(3) 0.7578(6) 0.75577(18)
H36 H -0.0183 0.7540 0.7801
H37 H 0.0521 0.6417 0.7292
H38 H 0.0494 0.8766 0.7304
O9 O 0.1337(2) 0.7058(8) 0.94324(12)
H39 H 0.1559 0.6461 0.9746
C37 C 0.0226(3) 0.7472(10) 0.9490(2)
H40 H 0.0101 0.8163 0.9878
H41 H -0.0194 0.6243 0.9486
H42 H -0.0015 0.8301 0.9146
O10 O 0.8580(3) 0.3575(13) 0.69597(14)
H43 H 0.8278 0.4201 0.6674
C38 C 0.7927(5) 0.3458(11) 0.7412(3)
H44 H 0.8133 0.4436 0.7722
H45 H 0.7972 0.2141 0.7592
H46 H 0.7174 0.3707 0.7269
loop_
_geom_bond_atom_site_label_1
_geom_bond_atom_site_label_2
_geom_bond_site_symmetry_1
_geom_bond_site_symmetry_2
N1 C10 1_555 1_555
O1 H1 1_555 1_555
O2 C1 1_555 1_555
O3 C9 1_555 1_555
O4 H2 1_555 1_555
C1 C2 1_555 1_555
C2 H3 1_555 1_555
C3 C2 1_555 1_555
H4 C3 1_555 1_555
C4 C3 1_555 1_555
C5 C4 1_555 1_555
H5 C5 1_555 1_555
C6 C5 1_555 1_555
H6 C6 1_555 1_555
C7 C6 1_555 1_555
C8 C7 1_555 1_555
H7 C8 1_555 1_555
C9 C8 1_555 1_555
C10 O4 1_555 1_555
C11 C10 1_555 1_555
H8 C11 1_555 1_555
H9 C11 1_555 1_555
C12 N1 1_555 1_555
H10 C12 1_555 1_555
H11 C12 1_555 1_555
C13 C12 1_555 1_555
H12 C13 1_555 1_555
H13 C13 1_555 1_555
C14 C7 1_555 1_555
C15 C4 1_555 1_555
C16 O1 1_555 1_555
C17 N1 1_555 1_555
H14 C17 1_555 1_555
H15 C17 1_555 1_555
H16 C17 1_555 1_555
C18 O2 1_555 1_555
H17 C18 1_555 1_555
H18 C18 1_555 1_555
H19 C18 1_555 1_555
N2 C28 1_555 1_555
O5 H20 1_555 1_555
O6 C19 1_555 1_555
O7 C27 1_555 1_555
O8 H21 1_555 1_555
C19 C20 1_555 1_555
C20 H22 1_555 1_555
C21 C20 1_555 1_555
H23 C21 1_555 1_555
C22 C21 1_555 1_555
C23 C22 1_555 1_555
H24 C23 1_555 1_555
C24 C23 1_555 1_555
H25 C24 1_555 1_555
C25 C24 1_555 1_555
C26 C25 1_555 1_555
H26 C26 1_555 1_555
C27 C26 1_555 1_555
C28 O8 1_555 1_555
C29 C28 1_555 1_555
H27 C29 1_555 1_555
H28 C29 1_555 1_555
C30 N2 1_555 1_555
H29 C30 1_555 1_555
H30 C30 1_555 1_555
C31 C30 1_555 1_555
H31 C31 1_555 1_555
H32 C31 1_555 1_555
C32 C25 1_555 1_555
C33 C22 1_555 1_555
C34 O5 1_555 1_555
C35 N2 1_555 1_555
H33 C35 1_555 1_555
H34 C35 1_555 1_555
H35 C35 1_555 1_555
C36 O6 1_555 1_555
H36 C36 1_555 1_555
H37 C36 1_555 1_555
H38 C36 1_555 1_555
O9 H39 1_555 1_555
C37 O9 1_555 1_555
H40 C37 1_555 1_555
H41 C37 1_555 1_555
H42 C37 1_555 1_555
O10 H43 1_555 1_555
C38 O10 1_555 1_555
H44 C38 1_555 1_555
H45 C38 1_555 1_555
H46 C38 1_555 1_555
C1 C16 1_555 1_555
C9 C10 1_555 1_555
C11 C14 1_555 1_555
C13 C14 1_555 1_555
C14 C15 1_555 1_555
C15 C16 1_555 1_555
C19 C34 1_555 1_555
C27 C28 1_555 1_555
C29 C32 1_555 1_555
C31 C32 1_555 1_555
C32 C33 1_555 1_555
C33 C34 1_555 1_555

#END
