
#######################################################################
#
#                 Cambridge Crystallographic Data Centre
#                                CCDC 
#
#######################################################################
#
# If this CIF has been generated from an entry in the Cambridge 
# Structural Database, then it will include bibliographic, chemical, 
# crystal, experimental, refinement or atomic coordinate data resulting 
# from the CCDC's data processing and validation procedures.
#
#######################################################################

data_USEWAS
_chemical_formula_moiety         'C2 N8 O2 2-,2(H4 N1 1+)'
_chemical_name_systematic        
"diammonium 1H,1'H-5,5'-bitetrazole-1,1'-diolate"
_symmetry_cell_setting           monoclinic
_symmetry_space_group_name_H-M   'P 21/c'
_symmetry_Int_Tables_number      14
_space_group_name_Hall           '-P 2ybc'
loop_
_symmetry_equiv_pos_site_id
_symmetry_equiv_pos_as_xyz
1 x,y,z
2 -x,1/2+y,1/2-z
3 -x,-y,-z
4 x,1/2-y,1/2+z
_cell_length_a                   3.6786(9)
_cell_length_b                   14.506(3)
_cell_length_c                   7.3456(16)
_cell_angle_alpha                90
_cell_angle_beta                 101.373(5)
_cell_angle_gamma                90
_cell_volume                     384.278
_exptl_crystal_colour            yellow
_exptl_crystal_description       block
_chemical_melting_point          '287 deg.C'
_cell_formula_units_Z            2
_exptl_crystal_recrystallization_method water
loop_
_atom_site_label
_atom_site_type_symbol
_atom_site_fract_x
_atom_site_fract_y
_atom_site_fract_z
O1 O 0.3745(3) 0.32338(6) 0.03432(12)
N1 N 0.4798(3) 0.37988(7) -0.08491(13)
C1 C 0.5304(3) 0.47153(8) -0.07593(15)
N2 N 0.5608(3) 0.34961(8) -0.24408(15)
N3 N 0.6577(3) 0.42198(7) -0.32939(15)
N4 N 0.6426(3) 0.49879(7) -0.22963(14)
O1B O 0.6255(3) 0.67662(6) -0.03432(12)
N1B N 0.5202(3) 0.62012(7) 0.08491(13)
C1B C 0.4696(3) 0.52847(8) 0.07593(15)
N2B N 0.4392(3) 0.65039(8) 0.24408(15)
N3B N 0.3423(3) 0.57802(7) 0.32939(15)
N4B N 0.3574(3) 0.50121(7) 0.22963(14)
N5 N -0.0213(3) 0.16424(7) -0.14406(16)
H1 H 0.098(4) 0.2107(9) -0.093(2)
H2 H -0.196(4) 0.1800(10) -0.2320(17)
H3 H -0.104(4) 0.1352(10) -0.0595(18)
H4 H 0.119(4) 0.1267(10) -0.186(2)
loop_
_geom_bond_atom_site_label_1
_geom_bond_atom_site_label_2
_geom_bond_site_symmetry_1
_geom_bond_site_symmetry_2
O1 N1 1_555 1_555
N1 C1 1_555 1_555
C1 N4 1_555 1_555
N2 N1 1_555 1_555
N3 N2 1_555 1_555
N4 N3 1_555 1_555
N5 H1 1_555 1_555
H2 N5 1_555 1_555
H3 N5 1_555 1_555
H4 N5 1_555 1_555
O1B N1B 1_555 1_555
N1B C1B 1_555 1_555
C1B C1 1_555 1_555
N2B N1B 1_555 1_555
N3B N2B 1_555 1_555
N4B C1B 1_555 1_555
N3B N4B 1_555 1_555

#END
