
#######################################################################
#
#                 Cambridge Crystallographic Data Centre
#                                CCDC 
#
#######################################################################
#
# If this CIF has been generated from an entry in the Cambridge 
# Structural Database, then it will include bibliographic, chemical, 
# crystal, experimental, refinement or atomic coordinate data resulting 
# from the CCDC's data processing and validation procedures.
#
#######################################################################

data_USEWOG
_chemical_formula_moiety         'C22 H20 N2 O4 S2'
_chemical_name_systematic        
"dimethyl 2,2'-diphenyl-4,4'-bi-1,3-thiazole-4,4'(5H,5'H)-dicarboxylate"
_symmetry_cell_setting           monoclinic
_symmetry_space_group_name_H-M   'P 21/c'
_symmetry_Int_Tables_number      14
_space_group_name_Hall           '-P 2ybc'
loop_
_symmetry_equiv_pos_site_id
_symmetry_equiv_pos_as_xyz
1 x,y,z
2 -x,1/2+y,1/2-z
3 -x,-y,-z
4 x,1/2-y,1/2+z
_cell_length_a                   9.621(3)
_cell_length_b                   14.256(5)
_cell_length_c                   8.097(3)
_cell_angle_alpha                90
_cell_angle_beta                 111.224(5)
_cell_angle_gamma                90
_cell_volume                     1035.23
_exptl_crystal_colour            colorless
_exptl_crystal_description       block
_cell_formula_units_Z            2
loop_
_atom_site_label
_atom_site_type_symbol
_atom_site_fract_x
_atom_site_fract_y
_atom_site_fract_z
C1 C 0.90730(17) 0.90506(11) 0.3196(2)
C2 C 1.05662(19) 0.92352(13) 0.3527(2)
H1 H 1.0836 0.9744 0.2990
C3 C 1.1657(2) 0.86571(16) 0.4665(3)
H2 H 1.2658 0.8776 0.4880
C4 C 1.1262(2) 0.79125(15) 0.5471(3)
H3 H 1.1996 0.7536 0.6253
C5 C 0.9786(2) 0.77218(14) 0.5128(3)
H4 H 0.9524 0.7211 0.5669
C6 C 0.86880(19) 0.82824(12) 0.3987(2)
H5 H 0.7689 0.8145 0.3748
C7 C 0.78976(16) 0.96679(10) 0.20280(19)
C8 C 0.64967(17) 1.09417(11) -0.0085(2)
H6 H 0.6599 1.1571 0.0399
H7 H 0.6004 1.0978 -0.1362
C9 C 0.55915(16) 1.03163(10) 0.0730(2)
C10 C 0.47443(17) 1.09608(11) 0.1564(2)
C11 C 0.3718(2) 1.11410(14) 0.3778(3)
H8 H 0.4213 1.1732 0.4139
H9 H 0.3671 1.0817 0.4795
H10 H 0.2725 1.1247 0.2947
N1 N 0.65880(14) 0.96915(8) 0.20642(16)
O1 O 0.45398(13) 1.05771(8) 0.29480(14)
O2 O 0.43356(17) 1.17306(9) 0.10266(17)
S1 S 0.82952(5) 1.03925(3) 0.04871(6)
C1B C 0.09270(17) 1.09494(11) -0.3196(2)
C2B C -0.05662(19) 1.07648(13) -0.3527(2)
H1B H -0.0836 1.0256 -0.2990
C3B C -0.1657(2) 1.13429(16) -0.4665(3)
H2B H -0.2658 1.1224 -0.4880
C4B C -0.1262(2) 1.20875(15) -0.5471(3)
H3B H -0.1996 1.2464 -0.6253
C5B C 0.0214(2) 1.22782(14) -0.5128(3)
H4B H 0.0476 1.2789 -0.5669
C6B C 0.13120(19) 1.17176(12) -0.3987(2)
H5B H 0.2311 1.1855 -0.3748
C7B C 0.21024(16) 1.03321(10) -0.20280(19)
C8B C 0.35033(17) 0.90583(11) 0.0085(2)
H6B H 0.3401 0.8429 -0.0399
H7B H 0.3996 0.9022 0.1362
C9B C 0.44085(16) 0.96837(10) -0.0730(2)
C10B C 0.52557(17) 0.90392(11) -0.1564(2)
C11B C 0.6282(2) 0.88590(14) -0.3778(3)
H8B H 0.5787 0.8268 -0.4139
H9B H 0.6329 0.9183 -0.4795
H10B H 0.7275 0.8753 -0.2947
N1B N 0.34120(14) 1.03085(8) -0.20642(16)
O1B O 0.54602(13) 0.94229(8) -0.29480(14)
O2B O 0.56644(17) 0.82694(9) -0.10266(17)
S1B S 0.17048(5) 0.96075(3) -0.04871(6)
loop_
_geom_bond_atom_site_label_1
_geom_bond_atom_site_label_2
_geom_bond_site_symmetry_1
_geom_bond_site_symmetry_2
C1 C2 1_555 1_555
C2 H1 1_555 1_555
C3 C2 1_555 1_555
H2 C3 1_555 1_555
C4 C3 1_555 1_555
H3 C4 1_555 1_555
C5 C4 1_555 1_555
H4 C5 1_555 1_555
C6 C1 1_555 1_555
H5 C6 1_555 1_555
C7 C1 1_555 1_555
C8 H6 1_555 1_555
H7 C8 1_555 1_555
C9 C8 1_555 1_555
C10 C9 1_555 1_555
C11 H8 1_555 1_555
H9 C11 1_555 1_555
H10 C11 1_555 1_555
N1 C7 1_555 1_555
O1 C10 1_555 1_555
O2 C10 1_555 1_555
S1 C7 1_555 1_555
C1B C2B 1_555 1_555
C2B H1B 1_555 1_555
C3B C2B 1_555 1_555
H2B C3B 1_555 1_555
C4B C3B 1_555 1_555
H3B C4B 1_555 1_555
C5B C4B 1_555 1_555
H4B C5B 1_555 1_555
C6B C1B 1_555 1_555
H5B C6B 1_555 1_555
C7B C1B 1_555 1_555
C8B H6B 1_555 1_555
H7B C8B 1_555 1_555
C9B C9 1_555 1_555
C10B C9B 1_555 1_555
C11B H8B 1_555 1_555
H9B C11B 1_555 1_555
H10B C11B 1_555 1_555
N1B C7B 1_555 1_555
O1B C10B 1_555 1_555
O2B C10B 1_555 1_555
S1B C7B 1_555 1_555
C5 C6 1_555 1_555
C8 S1 1_555 1_555
C9 N1 1_555 1_555
C11 O1 1_555 1_555
C5B C6B 1_555 1_555
C8B C9B 1_555 1_555
C8B S1B 1_555 1_555
C9B N1B 1_555 1_555
C11B O1B 1_555 1_555

#END
