
#######################################################################
#
#                 Cambridge Crystallographic Data Centre
#                                CCDC 
#
#######################################################################
#
# If this CIF has been generated from an entry in the Cambridge 
# Structural Database, then it will include bibliographic, chemical, 
# crystal, experimental, refinement or atomic coordinate data resulting 
# from the CCDC's data processing and validation procedures.
#
#######################################################################

data_USICUW
_chemical_formula_moiety         'C23 H26 F2 N2 O2'
_chemical_name_systematic        
3-(3-benzyl-1-methyl-2-oxo-2,3-dihydro-1H-indol-3-yl)-N,N-diethyl-2,2-difluoropropanamide
_symmetry_cell_setting           orthorhombic
_symmetry_space_group_name_H-M   'P b c a'
_symmetry_Int_Tables_number      61
_space_group_name_Hall           '-P 2ac 2ab'
loop_
_symmetry_equiv_pos_site_id
_symmetry_equiv_pos_as_xyz
1 x,y,z
2 1/2-x,-y,1/2+z
3 1/2+x,1/2-y,-z
4 -x,1/2+y,1/2-z
5 -x,-y,-z
6 1/2+x,y,1/2-z
7 1/2-x,1/2+y,z
8 x,1/2-y,1/2+z
_cell_length_a                   14.3541(8)
_cell_length_b                   12.9841(9)
_cell_length_c                   23.2417(13)
_cell_angle_alpha                90
_cell_angle_beta                 90
_cell_angle_gamma                90
_cell_volume                     4331.67
_exptl_crystal_colour            colorless
_exptl_crystal_description       block
_cell_formula_units_Z            8
loop_
_atom_site_label
_atom_site_type_symbol
_atom_site_fract_x
_atom_site_fract_y
_atom_site_fract_z
F1 F 0.10497(17) 0.1818(2) 0.18470(11)
F2 F 0.10394(17) 0.1488(2) 0.09282(13)
O1 O -0.0808(3) 0.1726(3) 0.01848(16)
O2 O 0.1376(3) 0.3999(3) 0.12035(16)
N1 N -0.0954(3) 0.0305(4) 0.07569(19)
N2 N 0.2559(3) 0.2856(3) 0.12422(16)
C1 C -0.0848(3) 0.1315(4) 0.0657(2)
C2 C -0.0855(3) 0.1892(4) 0.1242(2)
C3 C -0.0864(3) 0.0988(4) 0.1665(2)
C4 C -0.0848(4) 0.0985(5) 0.2240(3)
H1 H -0.0771 0.1588 0.2451
C5 C -0.0954(4) 0.0006(6) 0.2514(3)
H2 H -0.0956 -0.0025 0.2913
C6 C -0.1052(4) -0.0862(6) 0.2216(3)
H3 H -0.1120 -0.1485 0.2409
C7 C -0.1053(4) -0.0843(5) 0.1610(3)
H4 H -0.1114 -0.1445 0.1397
C8 C -0.0959(3) 0.0097(4) 0.1345(2)
C9 C -0.1108(4) -0.0468(5) 0.0312(2)
H5 H -0.0656 -0.1008 0.0351
H6 H -0.1047 -0.0154 -0.0060
H7 H -0.1723 -0.0750 0.0353
C10 C -0.1787(3) 0.2497(4) 0.1267(2)
H8 H -0.1822 0.2855 0.1633
H9 H -0.1784 0.3013 0.0966
C11 C -0.2644(4) 0.1848(4) 0.1200(3)
C12 C -0.3081(4) 0.1407(5) 0.1674(3)
H10 H -0.2853 0.1529 0.2042
C13 C -0.3859(6) 0.0785(7) 0.1596(5)
H11 H -0.4144 0.0476 0.1911
C14 C -0.4211(6) 0.0625(7) 0.1047(6)
H12 H -0.4735 0.0213 0.0998
C15 C -0.3802(5) 0.1061(6) 0.0584(5)
H13 H -0.4048 0.0954 0.0219
C16 C -0.3030(4) 0.1658(5) 0.0653(3)
H14 H -0.2750 0.1948 0.0331
C17 C -0.0067(3) 0.2683(4) 0.1274(2)
H15 H -0.0104 0.3117 0.0935
H16 H -0.0179 0.3120 0.1606
C18 C 0.0900(3) 0.2277(4) 0.13163(19)
C19 C 0.1656(4) 0.3107(4) 0.12414(18)
C20 C 0.2957(4) 0.1810(4) 0.1260(2)
H17 H 0.2500 0.1343 0.1422
H18 H 0.3495 0.1811 0.1512
C21 C 0.3248(4) 0.1417(4) 0.0676(3)
H19 H 0.2725 0.1439 0.0419
H20 H 0.3464 0.0720 0.0711
H21 H 0.3740 0.1841 0.0528
C22 C 0.3251(4) 0.3700(4) 0.1221(3)
H22 H 0.3008 0.4262 0.0991
H23 H 0.3817 0.3454 0.1040
C23 C 0.3471(4) 0.4083(5) 0.1817(3)
H24 H 0.3930 0.4619 0.1794
H25 H 0.3707 0.3525 0.2045
H26 H 0.2914 0.4349 0.1991
loop_
_geom_bond_atom_site_label_1
_geom_bond_atom_site_label_2
_geom_bond_site_symmetry_1
_geom_bond_site_symmetry_2
F1 C18 1_555 1_555
F2 C18 1_555 1_555
O1 C1 1_555 1_555
O2 C19 1_555 1_555
N1 C1 1_555 1_555
N2 C19 1_555 1_555
C1 C2 1_555 1_555
C2 C3 1_555 1_555
C3 C4 1_555 1_555
C4 H1 1_555 1_555
C5 C4 1_555 1_555
H2 C5 1_555 1_555
C6 C5 1_555 1_555
H3 C6 1_555 1_555
C7 C6 1_555 1_555
H4 C7 1_555 1_555
C8 N1 1_555 1_555
C9 N1 1_555 1_555
H5 C9 1_555 1_555
H6 C9 1_555 1_555
H7 C9 1_555 1_555
C10 C2 1_555 1_555
H8 C10 1_555 1_555
H9 C10 1_555 1_555
C11 C10 1_555 1_555
C12 C11 1_555 1_555
H10 C12 1_555 1_555
C13 C12 1_555 1_555
H11 C13 1_555 1_555
C14 C13 1_555 1_555
H12 C14 1_555 1_555
C15 C14 1_555 1_555
H13 C15 1_555 1_555
C16 C11 1_555 1_555
H14 C16 1_555 1_555
C17 C2 1_555 1_555
H15 C17 1_555 1_555
H16 C17 1_555 1_555
C18 C17 1_555 1_555
C19 C18 1_555 1_555
C20 N2 1_555 1_555
H17 C20 1_555 1_555
H18 C20 1_555 1_555
C21 C20 1_555 1_555
H19 C21 1_555 1_555
H20 C21 1_555 1_555
H21 C21 1_555 1_555
C22 N2 1_555 1_555
H22 C22 1_555 1_555
H23 C22 1_555 1_555
C23 C22 1_555 1_555
H24 C23 1_555 1_555
H25 C23 1_555 1_555
H26 C23 1_555 1_555
C3 C8 1_555 1_555
C7 C8 1_555 1_555
C15 C16 1_555 1_555

#END
