
#######################################################################
#
#                 Cambridge Crystallographic Data Centre
#                                CCDC 
#
#######################################################################
#
# If this CIF has been generated from an entry in the Cambridge 
# Structural Database, then it will include bibliographic, chemical, 
# crystal, experimental, refinement or atomic coordinate data resulting 
# from the CCDC's data processing and validation procedures.
#
#######################################################################

data_USICAC
_chemical_formula_moiety         'C27 H22 Br1 N3 O4'
_chemical_name_systematic        
'ethyl 2-(1-(3-bromophenyl)-2-(methoxycarbonyl)prop-2-en-1-yl)-2,3-dicyano-4-phenylpyridine-1(2H)-carboxylate'
_symmetry_cell_setting           orthorhombic
_symmetry_space_group_name_H-M   'P 21 21 21'
_symmetry_Int_Tables_number      19
_space_group_name_Hall           'P 2ac 2ab'
loop_
_symmetry_equiv_pos_site_id
_symmetry_equiv_pos_as_xyz
1 x,y,z
2 1/2-x,-y,1/2+z
3 -x,1/2+y,1/2-z
4 1/2+x,1/2-y,-z
_cell_length_a                   11.3822(9)
_cell_length_b                   13.3519(10)
_cell_length_c                   16.9247(13)
_cell_angle_alpha                90
_cell_angle_beta                 90
_cell_angle_gamma                90
_cell_volume                     2572.11
_exptl_crystal_description       block
_chemical_melting_point          '51-53 deg.C'
_cell_formula_units_Z            4
loop_
_atom_site_label
_atom_site_type_symbol
_atom_site_fract_x
_atom_site_fract_y
_atom_site_fract_z
Br1 Br 0.12599(3) 0.35077(3) 1.14581(2)
C1 C 0.33953(19) 0.54353(14) 1.02071(12)
C2 C 0.2915(2) 0.46072(16) 1.05605(13)
H1 H 0.3272 0.3987 1.0489
C3 C 0.1915(2) 0.46702(19) 1.10193(14)
C4 C 0.1365(2) 0.55692(19) 1.11443(13)
H2 H 0.0691 0.5605 1.1454
C5 C 0.1829(2) 0.64208(19) 1.08037(13)
H3 H 0.1474 0.7038 1.0891
C6 C 0.2812(2) 0.63594(17) 1.03368(12)
H4 H 0.3103 0.6937 1.0100
C7 C 0.17244(12) 0.35611(10) 0.83412(8)
C8 C 0.13931(17) 0.31674(14) 0.76143(8)
H5 H 0.1880 0.3245 0.7177
C9 C 0.0334(2) 0.26573(18) 0.75405(13)
H6 H 0.0113 0.2394 0.7054
C10 C -0.03934(17) 0.2541(2) 0.81936(17)
H7 H -0.1102 0.2200 0.8144
C11 C -0.00622(17) 0.2935(2) 0.89206(14)
H8 H -0.0549 0.2857 0.9358
C12 C 0.09967(16) 0.34447(15) 0.89944(9)
H9 H 0.1218 0.3708 0.9481
C13 C 0.44479(19) 0.53217(15) 0.96752(11)
H10 H 0.4630 0.4605 0.9690
C14 C 0.5561(2) 0.58293(16) 0.99650(13)
C15 C 0.5603(3) 0.66408(18) 1.04041(15)
H11 H 0.6323 0.6884 1.0579
H12 H 0.4913 0.6972 1.0539
C16 C 0.6672(2) 0.5320(2) 0.97596(15)
C17 C 0.8729(3) 0.5434(4) 0.9772(3)
H13 H 0.8751 0.4800 1.0039
H14 H 0.9338 0.5859 0.9974
H15 H 0.8846 0.5332 0.9216
C18 C 0.41331(18) 0.55407(14) 0.87796(11)
C19 C 0.40557(19) 0.66380(15) 0.86502(12)
C20 C 0.29469(19) 0.50652(15) 0.85919(13)
C21 C 0.1915(2) 0.56709(16) 0.86313(14)
C22 C 0.2860(2) 0.40847(16) 0.84036(13)
C23 C 0.3931(2) 0.35494(16) 0.82562(14)
H16 H 0.3928 0.2853 0.8247
C24 C 0.4937(3) 0.40459(16) 0.81316(15)
H17 H 0.5599 0.3697 0.7966
C25 C 0.5965(2) 0.56058(17) 0.79804(15)
C26 C 0.7615(3) 0.5511(3) 0.7126(3)
H18 H 0.7458 0.5726 0.6589
H19 H 0.7829 0.6097 0.7432
C27 C 0.8489(4) 0.4876(4) 0.7125(4)
H20 H 0.8808 0.4825 0.7649
H21 H 0.9088 0.5107 0.6769
H22 H 0.8214 0.4231 0.6957
N1 N 0.3868(2) 0.74688(13) 0.85775(13)
N2 N 0.1097(2) 0.61602(16) 0.86647(14)
N3 N 0.50056(17) 0.50778(13) 0.82460(10)
O1 O 0.67366(17) 0.44797(15) 0.95170(14)
O2 O 0.76164(17) 0.58945(18) 0.98989(13)
O3 O 0.61893(16) 0.64447(12) 0.81664(10)
O4 O 0.6561(2) 0.50659(14) 0.74572(12)
loop_
_geom_bond_atom_site_label_1
_geom_bond_atom_site_label_2
_geom_bond_site_symmetry_1
_geom_bond_site_symmetry_2
Br1 C3 1_555 1_555
C1 C2 1_555 1_555
C2 H1 1_555 1_555
C3 C2 1_555 1_555
C4 C3 1_555 1_555
H2 C4 1_555 1_555
C5 C4 1_555 1_555
H3 C5 1_555 1_555
C6 C1 1_555 1_555
H4 C6 1_555 1_555
C7 C8 1_555 1_555
C8 H5 1_555 1_555
C9 C8 1_555 1_555
H6 C9 1_555 1_555
C10 C9 1_555 1_555
H7 C10 1_555 1_555
C11 C10 1_555 1_555
H8 C11 1_555 1_555
C12 C7 1_555 1_555
H9 C12 1_555 1_555
C13 C1 1_555 1_555
H10 C13 1_555 1_555
C14 C13 1_555 1_555
C15 C14 1_555 1_555
H11 C15 1_555 1_555
H12 C15 1_555 1_555
C16 C14 1_555 1_555
C17 H13 1_555 1_555
H14 C17 1_555 1_555
H15 C17 1_555 1_555
C18 C13 1_555 1_555
C19 C18 1_555 1_555
C20 C18 1_555 1_555
C21 C20 1_555 1_555
C22 C7 1_555 1_555
C23 C22 1_555 1_555
H16 C23 1_555 1_555
C24 C23 1_555 1_555
H17 C24 1_555 1_555
C25 N3 1_555 1_555
C26 H18 1_555 1_555
H19 C26 1_555 1_555
C27 C26 1_555 1_555
H20 C27 1_555 1_555
H21 C27 1_555 1_555
H22 C27 1_555 1_555
N1 C19 1_555 1_555
N2 C21 1_555 1_555
N3 C18 1_555 1_555
O1 C16 1_555 1_555
O2 C16 1_555 1_555
O3 C25 1_555 1_555
O4 C25 1_555 1_555
C5 C6 1_555 1_555
C11 C12 1_555 1_555
C17 O2 1_555 1_555
C20 C22 1_555 1_555
C24 N3 1_555 1_555
C26 O4 1_555 1_555

#END
