
#######################################################################
#
#                 Cambridge Crystallographic Data Centre
#                                CCDC 
#
#######################################################################
#
# If this CIF has been generated from an entry in the Cambridge 
# Structural Database, then it will include bibliographic, chemical, 
# crystal, experimental, refinement or atomic coordinate data resulting 
# from the CCDC's data processing and validation procedures.
#
#######################################################################

data_USIFOT
_chemical_formula_moiety         'C20 H22 N2 O1'
_chemical_name_systematic        N-1-anthryl-3-methylvalinamide
_symmetry_cell_setting           orthorhombic
_symmetry_space_group_name_H-M   'P 21 21 21'
_symmetry_Int_Tables_number      19
_space_group_name_Hall           'P 2ac 2ab'
loop_
_symmetry_equiv_pos_site_id
_symmetry_equiv_pos_as_xyz
1 x,y,z
2 1/2+x,1/2-y,-z
3 -x,1/2+y,1/2-z
4 1/2-x,-y,1/2+z
_cell_length_a                   6.8825(14)
_cell_length_b                   14.838(3)
_cell_length_c                   16.201(4)
_cell_angle_alpha                90
_cell_angle_beta                 90
_cell_angle_gamma                90
_cell_volume                     1654.49
_exptl_crystal_colour            colorless
_exptl_crystal_description       platelet
_cell_formula_units_Z            4
_exptl_crystal_recrystallization_method tetrahydrofuran/hexane
loop_
_atom_site_label
_atom_site_type_symbol
_atom_site_fract_x
_atom_site_fract_y
_atom_site_fract_z
O1 O 0.7979(3) 0.17239(12) 0.39892(13)
N1 N 0.6205(3) 0.30116(13) 0.38113(13)
N2 N 0.2918(3) 0.21815(14) 0.41028(14)
C1 C 0.8993(4) 0.51141(17) 0.43101(16)
C2 C 0.9406(4) 0.35128(18) 0.34029(17)
C3 C 0.5734(4) 0.46576(17) 0.47291(15)
C4 C 0.7715(4) 0.36557(16) 0.38223(15)
C5 C 0.7084(4) 0.60871(16) 0.52108(16)
C6 C 0.4495(4) 0.15850(16) 0.38464(15)
C7 C 0.5185(5) 0.70302(19) 0.61249(18)
C8 C 0.3795(5) 0.56401(18) 0.56334(16)
C9 C 0.6414(4) 0.21004(16) 0.38894(14)
C10 C 1.0745(4) 0.49268(18) 0.38679(17)
C11 C 1.0929(4) 0.41538(19) 0.34281(18)
C12 C 0.8777(4) 0.59016(17) 0.47785(17)
C13 C 0.7434(4) 0.44732(16) 0.42902(15)
C14 C 0.3636(5) 0.64091(19) 0.60904(18)
C15 C 0.5517(4) 0.54527(17) 0.51821(16)
C16 C 0.6856(5) 0.68837(18) 0.57012(18)
C17 C 0.2147(5) 0.0720(2) 0.2948(2)
C18 C 0.5653(5) 0.0483(3) 0.2767(2)
C19 C 0.4145(6) 0.1928(2) 0.23186(18)
C20 C 0.4122(4) 0.11907(16) 0.29664(15)
H1 H 0.50149 0.32172 0.37481
H2 H 0.31721 0.27405 0.42488
H3 H 0.17145 0.19819 0.41112
H4 H 0.95631 0.29764 0.30899
H5 H 0.47006 0.4233 0.47196
H6 H 0.45621 0.10717 0.42453
H7 H 0.50564 0.75596 0.645
H8 H 0.27426 0.5226 0.56168
H9 H 1.17863 0.53466 0.38822
H10 H 1.20961 0.40407 0.31328
H11 H 0.98194 0.63205 0.48005
H12 H 0.24739 0.65269 0.63876
H13 H 0.78802 0.73117 0.57298
H14 H 0.21269 0.02374 0.33609
H15 H 0.1926 0.04632 0.23988
H16 H 0.1122 0.11578 0.30729
H17 H 0.56196 0.00074 0.31873
H18 H 0.69404 0.07642 0.27624
H19 H 0.53831 0.02202 0.22241
H20 H 0.5412 0.22301 0.2324
H21 H 0.31221 0.23679 0.24402
H22 H 0.3918 0.16636 0.17729
loop_
_geom_bond_atom_site_label_1
_geom_bond_atom_site_label_2
_geom_bond_site_symmetry_1
_geom_bond_site_symmetry_2
O1 C9 1_555 1_555
N1 C4 1_555 1_555
N2 C6 1_555 1_555
C1 C10 1_555 1_555
C2 C4 1_555 1_555
C3 C13 1_555 1_555
C4 C13 1_555 1_555
C5 C12 1_555 1_555
C6 C9 1_555 1_555
C7 C14 1_555 1_555
C8 C14 1_555 1_555
C9 N1 1_555 1_555
C10 C11 1_555 1_555
C11 C2 1_555 1_555
C12 C1 1_555 1_555
C13 C1 1_555 1_555
C14 H12 1_555 1_555
C15 C3 1_555 1_555
C16 C5 1_555 1_555
C17 C20 1_555 1_555
C18 C20 1_555 1_555
C19 C20 1_555 1_555
C20 C6 1_555 1_555
H1 N1 1_555 1_555
H2 N2 1_555 1_555
H3 N2 1_555 1_555
H4 C2 1_555 1_555
H5 C3 1_555 1_555
H6 C6 1_555 1_555
H7 C7 1_555 1_555
H8 C8 1_555 1_555
H9 C10 1_555 1_555
H10 C11 1_555 1_555
H11 C12 1_555 1_555
H13 C16 1_555 1_555
H14 C17 1_555 1_555
H15 C17 1_555 1_555
H16 C17 1_555 1_555
H17 C18 1_555 1_555
H18 C18 1_555 1_555
H19 C18 1_555 1_555
H20 C19 1_555 1_555
H21 C19 1_555 1_555
H22 C19 1_555 1_555
C5 C15 1_555 1_555
C7 C16 1_555 1_555
C8 C15 1_555 1_555

#END
