
#######################################################################
#
#                 Cambridge Crystallographic Data Centre
#                                CCDC 
#
#######################################################################
#
# If this CIF has been generated from an entry in the Cambridge 
# Structural Database, then it will include bibliographic, chemical, 
# crystal, experimental, refinement or atomic coordinate data resulting 
# from the CCDC's data processing and validation procedures.
#
#######################################################################

data_USIFIN
_chemical_formula_moiety         'C32 H30 N2'
_chemical_name_systematic        
1,2,6-triphenyl-2,3,3a,3b,4,5,6,11b-octahydro-1H-dipyrrolo[1,2-a:3',2'-c]quinoline
_symmetry_cell_setting           monoclinic
_symmetry_space_group_name_H-M   'P 21/c'
_symmetry_Int_Tables_number      14
_space_group_name_Hall           '-P 2ybc'
loop_
_symmetry_equiv_pos_site_id
_symmetry_equiv_pos_as_xyz
1 x,y,z
2 -x,1/2+y,1/2-z
3 -x,-y,-z
4 x,1/2-y,1/2+z
_cell_length_a                   8.716(6)
_cell_length_b                   5.348(4)
_cell_length_c                   48.75(3)
_cell_angle_alpha                90
_cell_angle_beta                 89.954(7)
_cell_angle_gamma                90
_cell_volume                     2272.39
_exptl_crystal_colour            colorless
_exptl_crystal_description       prism
_cell_formula_units_Z            4
_exptl_crystal_recrystallization_method dichloromethane
loop_
_atom_site_label
_atom_site_type_symbol
_atom_site_fract_x
_atom_site_fract_y
_atom_site_fract_z
N1 N 0.54250(13) 0.5202(2) 0.34014(2)
N2 N 0.30509(14) 0.4895(2) 0.41403(2)
C1 C 0.43382(15) 0.3252(3) 0.33157(3)
H1 H 0.4809 0.1571 0.3347
C2 C 0.29622(16) 0.3607(3) 0.35151(3)
H2 H 0.1980 0.3636 0.3413
H3 H 0.2928 0.2245 0.3652
C3 C 0.32651(15) 0.6132(3) 0.36533(3)
H4 H 0.2965 0.7495 0.3524
C4 C 0.50129(15) 0.6090(3) 0.36765(3)
H5 H 0.5432 0.7801 0.3712
C5 C 0.54815(16) 0.4261(3) 0.39034(3)
C6 C 0.44397(16) 0.3666(3) 0.41180(3)
C7 C 0.24995(16) 0.6610(3) 0.39267(3)
H6 H 0.2731 0.8363 0.3985
C8 C 0.07659(17) 0.6233(4) 0.39332(3)
H7 H 0.0219 0.7745 0.3869
H8 H 0.0455 0.4786 0.3819
C9 C 0.04608(17) 0.5747(3) 0.42361(3)
H9 H -0.0530 0.4874 0.4262
H10 H 0.0446 0.7331 0.4341
C10 C 0.18132(17) 0.4081(3) 0.43252(3)
H11 H 0.1557 0.2295 0.4285
C11 C 0.69070(15) 0.5375(3) 0.32930(3)
C12 C 0.74544(15) 0.3633(3) 0.31031(3)
H12 H 0.6832 0.2248 0.3053
C13 C 0.89016(16) 0.3905(3) 0.29867(3)
H13 H 0.9257 0.2693 0.2859
C14 C 0.98345(16) 0.5913(3) 0.30534(3)
H14 H 1.0815 0.6102 0.2971
C15 C 0.93035(16) 0.7644(3) 0.32440(3)
H15 H 0.9936 0.9018 0.3294
C16 C 0.78637(16) 0.7395(3) 0.33630(3)
H16 H 0.7522 0.8598 0.3493
C17 C 0.38268(14) 0.3445(3) 0.30183(3)
C18 C 0.29027(15) 0.1529(3) 0.29146(3)
H17 H 0.2666 0.0131 0.3027
C19 C 0.23257(16) 0.1639(3) 0.26495(3)
H18 H 0.1688 0.0333 0.2583
C20 C 0.26806(16) 0.3655(3) 0.24817(3)
H19 H 0.2290 0.3734 0.2300
C21 C 0.36088(16) 0.5552(3) 0.25814(3)
H20 H 0.3864 0.6927 0.2467
C22 C 0.41712(15) 0.5456(3) 0.28491(3)
H21 H 0.4795 0.6778 0.2916
C23 C 0.68692(16) 0.2986(3) 0.38919(3)
H22 H 0.7577 0.3392 0.3751
C24 C 0.72603(17) 0.1133(3) 0.40806(3)
H23 H 0.8223 0.0307 0.4069
C25 C 0.62205(18) 0.0519(3) 0.42841(3)
H24 H 0.6459 -0.0772 0.4411
C26 C 0.48360(17) 0.1769(3) 0.43042(3)
H25 H 0.4140 0.1337 0.4447
C27 C 0.21551(17) 0.4355(3) 0.46284(3)
C28 C 0.3051(2) 0.6284(3) 0.47278(4)
H26 H 0.3515 0.7418 0.4603
C29 C 0.3284(2) 0.6591(3) 0.50065(4)
H27 H 0.3899 0.7934 0.5071
C30 C 0.26257(19) 0.4953(3) 0.51912(3)
H28 H 0.2778 0.5166 0.5383
C31 C 0.1747(2) 0.3009(4) 0.50944(3)
H29 H 0.1300 0.1861 0.5220
C32 C 0.1509(2) 0.2713(3) 0.48151(3)
H30 H 0.0895 0.1366 0.4751
loop_
_geom_bond_atom_site_label_1
_geom_bond_atom_site_label_2
_geom_bond_site_symmetry_1
_geom_bond_site_symmetry_2
N1 C1 1_555 1_555
N2 C6 1_555 1_555
C1 H1 1_555 1_555
C2 C1 1_555 1_555
H2 C2 1_555 1_555
H3 C2 1_555 1_555
C3 C2 1_555 1_555
H4 C3 1_555 1_555
C4 N1 1_555 1_555
H5 C4 1_555 1_555
C5 C4 1_555 1_555
C6 C5 1_555 1_555
C7 N2 1_555 1_555
H6 C7 1_555 1_555
C8 C7 1_555 1_555
H7 C8 1_555 1_555
H8 C8 1_555 1_555
C9 C8 1_555 1_555
H9 C9 1_555 1_555
H10 C9 1_555 1_555
C10 N2 1_555 1_555
H11 C10 1_555 1_555
C11 N1 1_555 1_555
C12 C11 1_555 1_555
H12 C12 1_555 1_555
C13 C12 1_555 1_555
H13 C13 1_555 1_555
C14 C13 1_555 1_555
H14 C14 1_555 1_555
C15 C14 1_555 1_555
H15 C15 1_555 1_555
C16 C11 1_555 1_555
H16 C16 1_555 1_555
C17 C1 1_555 1_555
C18 C17 1_555 1_555
H17 C18 1_555 1_555
C19 C18 1_555 1_555
H18 C19 1_555 1_555
C20 C19 1_555 1_555
H19 C20 1_555 1_555
C21 C20 1_555 1_555
H20 C21 1_555 1_555
C22 C17 1_555 1_555
H21 C22 1_555 1_555
C23 C5 1_555 1_555
H22 C23 1_555 1_555
C24 C23 1_555 1_555
H23 C24 1_555 1_555
C25 C24 1_555 1_555
H24 C25 1_555 1_555
C26 C6 1_555 1_555
H25 C26 1_555 1_555
C27 C10 1_555 1_555
C28 C27 1_555 1_555
H26 C28 1_555 1_555
C29 C28 1_555 1_555
H27 C29 1_555 1_555
C30 C29 1_555 1_555
H28 C30 1_555 1_555
C31 C30 1_555 1_555
H29 C31 1_555 1_555
C32 C27 1_555 1_555
H30 C32 1_555 1_555
C3 C4 1_555 1_555
C3 C7 1_555 1_555
C9 C10 1_555 1_555
C15 C16 1_555 1_555
C21 C22 1_555 1_555
C25 C26 1_555 1_555
C31 C32 1_555 1_555

#END
