
#######################################################################
#
#                 Cambridge Crystallographic Data Centre
#                                CCDC 
#
#######################################################################
#
# If this CIF has been generated from an entry in the Cambridge 
# Structural Database, then it will include bibliographic, chemical, 
# crystal, experimental, refinement or atomic coordinate data resulting 
# from the CCDC's data processing and validation procedures.
#
#######################################################################

data_USILUE
_chemical_formula_moiety         'C25 H21 B1 F2 N4 O7 S1'
_chemical_name_systematic        
"4-(5,5-Difluoro-1,3,7,9-tetramethyl-5H-4\l^5^,5\l^5^-dipyrrolo[1,2-c:2',1'-f][1,3,2]diazaborinin-10-yl)phenyl 2,4-dinitrobenzenesulfonate"
_symmetry_cell_setting           monoclinic
_symmetry_space_group_name_H-M   'P 21/n'
_symmetry_Int_Tables_number      14
_space_group_name_Hall           '-P 2yn'
loop_
_symmetry_equiv_pos_site_id
_symmetry_equiv_pos_as_xyz
1 x,y,z
2 1/2-x,1/2+y,1/2-z
3 -x,-y,-z
4 1/2+x,1/2-y,1/2+z
_cell_length_a                   16.6953(6)
_cell_length_b                   17.6555(7)
_cell_length_c                   17.3203(6)
_cell_angle_alpha                90
_cell_angle_beta                 96.247(2)
_cell_angle_gamma                90
_cell_volume                     5075.08
_exptl_crystal_colour            'dark red'
_exptl_crystal_description       plate
_cell_formula_units_Z            8
_chemical_properties_physical    light-sensitive
loop_
_atom_site_label
_atom_site_type_symbol
_atom_site_fract_x
_atom_site_fract_y
_atom_site_fract_z
S1 S 0.15676(4) 0.09939(4) 0.95118(5)
F2 F 0.24147(10) 0.68480(11) 0.96348(11)
N1 N 0.14051(13) 0.59416(14) 0.99158(13)
O1 O 0.19997(11) 0.12005(13) 1.02313(12)
O2 O 0.17137(12) 0.02993(12) 0.91400(13)
O3 O 0.16804(11) 0.16065(11) 0.88669(12)
C1 C 0.16265(15) 0.23970(17) 0.90178(17)
N2 N 0.19002(13) 0.59920(14) 0.86242(14)
F4 F 0.11311(10) 0.70235(10) 0.90829(11)
C2 C 0.13228(15) 0.51589(17) 0.98363(17)
C3 C 0.15602(15) 0.39484(17) 0.91440(17)
C4 C 0.15679(15) 0.47922(17) 0.91896(17)
C5 C 0.21541(15) 0.35324(18) 0.95804(18)
H1 H 0.2531 0.3784 0.9923
C7 C 0.18591(16) 0.52036(18) 0.85889(18)
C8 C 0.05205(16) 0.10334(17) 0.96056(18)
C9 C 0.10098(15) 0.27818(18) 0.85841(17)
H2 H 0.0624 0.2522 0.8259
C11 C 0.09828(16) 0.35632(18) 0.86474(17)
H3 H 0.0577 0.3833 0.8357
C12 C 0.21966(15) 0.27581(18) 0.95173(18)
H4 H 0.2602 0.2486 0.9806
C13 C 0.22191(17) 0.6245(2) 0.79861(19)
C17 C 0.11563(16) 0.61442(19) 1.06061(18)
C23 C 0.02064(16) 0.13399(18) 1.02449(18)
O6 O -0.23909(14) 0.05174(17) 0.93766(17)
C26 C 0.09853(15) 0.48789(18) 1.04992(17)
N7 N -0.19797(16) 0.09542(19) 0.9805(2)
O7 O 0.09361(14) 0.23350(16) 1.08069(17)
C28 C -0.06167(18) 0.13208(18) 1.0312(2)
H9 H -0.0828 0.1532 1.0738
C32 C 0.23973(18) 0.5629(2) 0.7537(2)
H14 H 0.2625 0.5655 0.7071
C35 C 0.21814(16) 0.49694(19) 0.78921(18)
C37 C -0.00062(17) 0.06958(19) 0.9021(2)
H19 H 0.0195 0.0491 0.8586
C38 C 0.07366(18) 0.40833(19) 1.0667(2)
H20 H 0.0526 0.4069 1.1161
H21 H 0.1195 0.3754 1.0679
H22 H 0.0329 0.3919 1.0269
O12 O -0.22211(14) 0.13475(16) 1.0302(2)
C40 C 0.2353(2) 0.7065(2) 0.7831(2)
H24 H 0.2174 0.7363 0.8243
H25 H 0.2055 0.7205 0.7347
H26 H 0.2917 0.7153 0.7804
C41 C 0.08981(17) 0.54920(19) 1.09681(19)
H27 H 0.0700 0.5477 1.1449
C42 C 0.1163(2) 0.6935(2) 1.0883(2)
H28 H 0.1379 0.7258 1.0511
H29 H 0.1493 0.6971 1.1372
H30 H 0.0624 0.7090 1.0948
B2 B 0.1720(2) 0.6482(2) 0.9318(2)
C46 C 0.22909(19) 0.4191(2) 0.7578(2)
H36 H 0.2520 0.4226 0.7094
H37 H 0.1778 0.3941 0.7496
H38 H 0.2646 0.3906 0.7943
C47 C -0.11030(17) 0.09800(19) 0.9726(2)
C49 C -0.08263(18) 0.0664(2) 0.9085(2)
H39 H -0.1178 0.0434 0.8703
O14 O 0.08598(15) 0.12997(19) 1.14699(16)
N8 N 0.07118(16) 0.1682(2) 1.0893(2)
S2 S 0.00043(5) 0.09851(5) 1.33760(5)
F1 F 0.09753(9) 0.68083(10) 1.40545(11)
F3 F 0.03077(10) 0.68433(11) 1.28459(11)
N3 N 0.00008(12) 0.58286(14) 1.36955(14)
O4 O 0.06761(12) 0.14873(12) 1.30742(12)
N4 N 0.13099(12) 0.58704(15) 1.31351(14)
C6 C 0.06251(15) 0.38397(18) 1.32465(17)
O5 O 0.02557(17) 0.02304(13) 1.32622(14)
C10 C 0.00261(15) 0.50381(18) 1.36497(17)
N5 N 0.13854(15) 0.04882(17) 1.47090(18)
C14 C 0.06397(16) 0.46749(18) 1.33148(17)
C15 C 0.19946(16) 0.61224(19) 1.28678(19)
C16 C -0.06532(16) 0.60304(18) 1.40374(18)
C18 C 0.06285(16) 0.22873(18) 1.31409(18)
C19 C 0.01350(16) 0.34774(18) 1.26639(17)
H5 H -0.0197 0.3763 1.2309
C20 C 0.11168(15) 0.26266(19) 1.37347(18)
H6 H 0.1443 0.2338 1.4092
C21 C 0.06417(17) 0.09825(18) 1.5734(2)
H7 H 0.1055 0.0809 1.6094
C22 C 0.12747(15) 0.50809(18) 1.30424(17)
C24 C 0.00648(16) 0.11689(17) 1.43932(18)
N6 N -0.0090(2) 0.13986(17) 1.68048(18)
C25 C 0.11082(16) 0.34054(19) 1.37845(18)
H8 H 0.1430 0.3645 1.4184
C27 C -0.00246(18) 0.13339(18) 1.59660(19)
B1 B 0.06534(18) 0.6369(2) 1.3441(2)
C29 C -0.08938(18) 0.39474(18) 1.4142(2)
H10 H -0.1375 0.3941 1.4399
H11 H -0.0468 0.3694 1.4460
H12 H -0.0992 0.3692 1.3652
C30 C -0.06523(16) 0.47529(18) 1.40107(18)
C31 C 0.01340(17) 0.2702(2) 1.26033(18)
H13 H -0.0192 0.2460 1.2209
C33 C -0.05815(17) 0.15348(18) 1.4669(2)
H15 H -0.0987 0.1735 1.4317
O8 O 0.17325(14) 0.07501(15) 1.41882(15)
C34 C 0.06766(16) 0.08944(16) 1.49342(19)
C36 C -0.08782(17) 0.68360(18) 1.4148(2)
H16 H -0.0486 0.7161 1.3951
H17 H -0.0894 0.6935 1.4691
H18 H -0.1399 0.6932 1.3873
O9 O 0.15835(14) -0.00785(15) 1.50818(18)
O10 O -0.07544(16) 0.14734(15) 1.70144(16)
O11 O -0.07630(13) 0.12429(15) 1.30531(14)
C39 C -0.06332(17) 0.16062(18) 1.5452(2)
H23 H -0.1079 0.1838 1.5629
C43 C -0.10493(17) 0.53769(19) 1.42376(19)
H31 H -0.1514 0.5367 1.4488
C44 C 0.24049(17) 0.5507(2) 1.25965(19)
H32 H 0.2893 0.5533 1.2385
O13 O 0.05376(18) 0.13733(17) 1.72417(16)
C45 C 0.22368(18) 0.6929(2) 1.2903(2)
H33 H 0.1831 0.7222 1.3119
H34 H 0.2297 0.7108 1.2389
H35 H 0.2740 0.6981 1.3225
C48 C 0.19719(17) 0.4854(2) 1.26908(18)
C50 C 0.22211(18) 0.4078(2) 1.2459(2)
H40 H 0.2721 0.4110 1.2235
H41 H 0.1814 0.3870 1.2085
H42 H 0.2288 0.3757 1.2909
loop_
_geom_bond_atom_site_label_1
_geom_bond_atom_site_label_2
_geom_bond_site_symmetry_1
_geom_bond_site_symmetry_2
S1 O1 1_555 1_555
S2 O4 1_555 1_555
F1 B1 1_555 1_555
F2 B2 1_555 1_555
N1 C2 1_555 1_555
O2 S1 1_555 1_555
F3 B1 1_555 1_555
O3 S1 1_555 1_555
C1 O3 1_555 1_555
N2 C7 1_555 1_555
F4 B2 1_555 1_555
N3 C10 1_555 1_555
O4 C18 1_555 1_555
C2 C4 1_555 1_555
C3 C4 1_555 1_555
C4 C7 1_555 1_555
N4 C15 1_555 1_555
C5 C3 1_555 1_555
H1 C5 1_555 1_555
C6 C14 1_555 1_555
C7 C35 1_555 1_555
C8 S1 1_555 1_555
C9 C1 1_555 1_555
H2 C9 1_555 1_555
O5 S2 1_555 1_555
C10 C14 1_555 1_555
C11 C3 1_555 1_555
H3 C11 1_555 1_555
C12 C1 1_555 1_555
H4 C12 1_555 1_555
N5 O8 1_555 1_555
C13 N2 1_555 1_555
C14 C22 1_555 1_555
C15 C44 1_555 1_555
C16 N3 1_555 1_555
C17 N1 1_555 1_555
C18 C20 1_555 1_555
C19 C6 1_555 1_555
H5 C19 1_555 1_555
C20 H6 1_555 1_555
C21 H7 1_555 1_555
C22 N4 1_555 1_555
C23 C8 1_555 1_555
C24 S2 1_555 1_555
O6 N7 1_555 1_555
N6 C27 1_555 1_555
C25 C6 1_555 1_555
H8 C25 1_555 1_555
C26 C2 1_555 1_555
C27 C21 1_555 1_555
N7 O12 1_555 1_555
B1 N3 1_555 1_555
O7 N8 1_555 1_555
C28 C23 1_555 1_555
H9 C28 1_555 1_555
C29 H10 1_555 1_555
H11 C29 1_555 1_555
H12 C29 1_555 1_555
C30 C10 1_555 1_555
C31 C18 1_555 1_555
H13 C31 1_555 1_555
C32 C13 1_555 1_555
H14 C32 1_555 1_555
C33 C24 1_555 1_555
H15 C33 1_555 1_555
C34 N5 1_555 1_555
C35 C32 1_555 1_555
C36 C16 1_555 1_555
H16 C36 1_555 1_555
H17 C36 1_555 1_555
H18 C36 1_555 1_555
O9 N5 1_555 1_555
C37 C8 1_555 1_555
H19 C37 1_555 1_555
O10 N6 1_555 1_555
O11 S2 1_555 1_555
C38 C26 1_555 1_555
H20 C38 1_555 1_555
H21 C38 1_555 1_555
H22 C38 1_555 1_555
C39 C27 1_555 1_555
H23 C39 1_555 1_555
C40 C13 1_555 1_555
H24 C40 1_555 1_555
H25 C40 1_555 1_555
H26 C40 1_555 1_555
C41 C17 1_555 1_555
H27 C41 1_555 1_555
C42 C17 1_555 1_555
H28 C42 1_555 1_555
H29 C42 1_555 1_555
H30 C42 1_555 1_555
C43 C16 1_555 1_555
H31 C43 1_555 1_555
C44 H32 1_555 1_555
B2 N1 1_555 1_555
O13 N6 1_555 1_555
C45 C15 1_555 1_555
H33 C45 1_555 1_555
H34 C45 1_555 1_555
H35 C45 1_555 1_555
C46 C35 1_555 1_555
H36 C46 1_555 1_555
H37 C46 1_555 1_555
H38 C46 1_555 1_555
C47 N7 1_555 1_555
C48 C22 1_555 1_555
C49 C37 1_555 1_555
H39 C49 1_555 1_555
C50 C48 1_555 1_555
H40 C50 1_555 1_555
H41 C50 1_555 1_555
H42 C50 1_555 1_555
O14 N8 1_555 1_555
N8 C23 1_555 1_555
N2 B2 1_555 1_555
N4 B1 1_555 1_555
C5 C12 1_555 1_555
C9 C11 1_555 1_555
C19 C31 1_555 1_555
C20 C25 1_555 1_555
C21 C34 1_555 1_555
C24 C34 1_555 1_555
C26 C41 1_555 1_555
C28 C47 1_555 1_555
C29 C30 1_555 1_555
C30 C43 1_555 1_555
C33 C39 1_555 1_555
C44 C48 1_555 1_555
C47 C49 1_555 1_555

#END
