
#######################################################################
#
#                 Cambridge Crystallographic Data Centre
#                                CCDC 
#
#######################################################################
#
# If this CIF has been generated from an entry in the Cambridge 
# Structural Database, then it will include bibliographic, chemical, 
# crystal, experimental, refinement or atomic coordinate data resulting 
# from the CCDC's data processing and validation procedures.
#
#######################################################################

data_USILOY
_chemical_formula_moiety         'C19 H19 B1 F2 N2 O1'
_chemical_name_systematic        
2-(5,5-Difluoro-1,3,7,9-tetramethyl-5H-4\l^5^,5\l^5^-dipyrrolo[1,2-c:2',1'-f][1,3,2]diazaborinin-10-yl)phenol
_symmetry_cell_setting           monoclinic
_symmetry_space_group_name_H-M   'P 21/n'
_symmetry_Int_Tables_number      14
_space_group_name_Hall           '-P 2yn'
loop_
_symmetry_equiv_pos_site_id
_symmetry_equiv_pos_as_xyz
1 x,y,z
2 1/2-x,1/2+y,1/2-z
3 -x,-y,-z
4 1/2+x,1/2-y,1/2+z
_cell_length_a                   10.834(10)
_cell_length_b                   12.591(12)
_cell_length_c                   13.097(12)
_cell_angle_alpha                90
_cell_angle_beta                 105.513(12)
_cell_angle_gamma                90
_cell_volume                     1721.49
_exptl_crystal_colour            'dark red'
_exptl_crystal_description       plate
_cell_formula_units_Z            4
_chemical_properties_physical    light-sensitive
_exptl_crystal_recrystallization_method sublimation
loop_
_atom_site_label
_atom_site_type_symbol
_atom_site_fract_x
_atom_site_fract_y
_atom_site_fract_z
N1 N 0.5985(3) 0.6703(3) -0.0384(3)
N2 N 0.4161(3) 0.5732(2) -0.1547(3)
F1 F 0.3905(2) 0.75135(18) -0.0962(2)
F2 F 0.4179(2) 0.6188(2) 0.0240(2)
O1 O 0.7612(3) 0.3609(3) -0.1416(3)
H1 H 0.7110 0.3887 -0.1126
C1 C 0.6198(5) 0.7864(4) 0.1198(4)
H2 H 0.5290 0.7752 0.1038
H3 H 0.6371 0.8609 0.1169
H4 H 0.6598 0.7599 0.1896
C2 C 0.6719(5) 0.7289(3) 0.0410(4)
C3 C 0.7977(4) 0.7237(4) 0.0348(4)
H5 H 0.8668 0.7574 0.0809
C4 C 0.8048(4) 0.6619(3) -0.0489(4)
C5 C 0.9253(4) 0.6358(4) -0.0789(4)
H6 H 0.9965 0.6710 -0.0313
H7 H 0.9178 0.6591 -0.1501
H8 H 0.9390 0.5604 -0.0745
C6 C 0.6779(4) 0.6280(3) -0.0963(4)
C7 C 0.6278(4) 0.5634(3) -0.1833(4)
C8 C 0.4981(4) 0.5353(3) -0.2129(3)
C9 C 0.4257(4) 0.4634(3) -0.2905(4)
C10 C 0.4685(5) 0.4018(4) -0.3724(4)
H9 H 0.3983 0.3604 -0.4135
H10 H 0.5375 0.3555 -0.3382
H11 H 0.4972 0.4500 -0.4180
C11 C 0.3051(4) 0.4602(3) -0.2754(4)
H12 H 0.2373 0.4193 -0.3143
C12 C 0.3004(4) 0.5279(3) -0.1929(4)
C13 C 0.1889(4) 0.5494(4) -0.1490(4)
H13 H 0.2135 0.5996 -0.0920
H14 H 0.1620 0.4845 -0.1231
H15 H 0.1195 0.5781 -0.2038
C14 C 0.7145(4) 0.5209(3) -0.2467(4)
C15 C 0.7769(4) 0.4255(4) -0.2217(4)
C16 C 0.8594(4) 0.3891(4) -0.2776(4)
H16 H 0.9005 0.3241 -0.2604
C17 C 0.8805(4) 0.4487(4) -0.3584(4)
H17 H 0.9376 0.4247 -0.3952
C18 C 0.8178(4) 0.5442(4) -0.3860(4)
H18 H 0.8307 0.5838 -0.4422
C19 C 0.7355(4) 0.5800(4) -0.3291(4)
H19 H 0.6939 0.6447 -0.3466
B1 B 0.4531(5) 0.6556(4) -0.0653(5)
loop_
_geom_bond_atom_site_label_1
_geom_bond_atom_site_label_2
_geom_bond_site_symmetry_1
_geom_bond_site_symmetry_2
N1 C2 1_555 1_555
N2 C8 1_555 1_555
F1 B1 1_555 1_555
F2 B1 1_555 1_555
O1 H1 1_555 1_555
C1 H2 1_555 1_555
H3 C1 1_555 1_555
H4 C1 1_555 1_555
C2 C1 1_555 1_555
C3 C2 1_555 1_555
H5 C3 1_555 1_555
C4 C3 1_555 1_555
C5 C4 1_555 1_555
H6 C5 1_555 1_555
H7 C5 1_555 1_555
H8 C5 1_555 1_555
C6 N1 1_555 1_555
C7 C6 1_555 1_555
C8 C7 1_555 1_555
C9 C8 1_555 1_555
C10 C9 1_555 1_555
H9 C10 1_555 1_555
H10 C10 1_555 1_555
H11 C10 1_555 1_555
C11 C9 1_555 1_555
H12 C11 1_555 1_555
C12 N2 1_555 1_555
C13 C12 1_555 1_555
H13 C13 1_555 1_555
H14 C13 1_555 1_555
H15 C13 1_555 1_555
C14 C7 1_555 1_555
C15 O1 1_555 1_555
C16 C15 1_555 1_555
H16 C16 1_555 1_555
C17 C16 1_555 1_555
H17 C17 1_555 1_555
C18 C17 1_555 1_555
H18 C18 1_555 1_555
C19 C14 1_555 1_555
H19 C19 1_555 1_555
B1 N1 1_555 1_555
N2 B1 1_555 1_555
C4 C6 1_555 1_555
C11 C12 1_555 1_555
C14 C15 1_555 1_555
C18 C19 1_555 1_555

#END
