
#######################################################################
#
#                 Cambridge Crystallographic Data Centre
#                                CCDC 
#
#######################################################################
#
# If this CIF has been generated from an entry in the Cambridge 
# Structural Database, then it will include bibliographic, chemical, 
# crystal, experimental, refinement or atomic coordinate data resulting 
# from the CCDC's data processing and validation procedures.
#
#######################################################################

data_USIMIT
_chemical_formula_moiety         'C16 H16 N2 O5'
_chemical_name_systematic        
"Methyl 2,2',4'-trimethyl-1,3-dioxo-2,3-dihydro-1H,4'H-spiro[isoquinoline-4,5'-[1,3]oxazole]-4'-carboxylate"
_symmetry_cell_setting           monoclinic
_symmetry_space_group_name_H-M   'P 21/c'
_symmetry_Int_Tables_number      14
_space_group_name_Hall           '-P 2ybc'
loop_
_symmetry_equiv_pos_site_id
_symmetry_equiv_pos_as_xyz
1 x,y,z
2 -x,1/2+y,1/2-z
3 -x,-y,-z
4 x,1/2-y,1/2+z
_cell_length_a                   9.2295(5)
_cell_length_b                   11.0370(7)
_cell_length_c                   17.1487(8)
_cell_angle_alpha                90
_cell_angle_beta                 121.994(3)
_cell_angle_gamma                90
_cell_volume                     1481.53
_exptl_crystal_colour            colorless
_exptl_crystal_description       block
_cell_formula_units_Z            4
loop_
_atom_site_label
_atom_site_type_symbol
_atom_site_fract_x
_atom_site_fract_y
_atom_site_fract_z
O1 O 0.62184(7) 0.75555(5) 0.86824(4)
O2 O 0.51645(7) 0.82880(5) 1.09420(4)
O3 O 0.35431(6) 0.60414(4) 0.77889(3)
O4 O 0.11202(7) 0.87216(5) 0.86921(4)
O5 O -0.04861(6) 0.73325(4) 0.76177(3)
N1 N 0.57459(6) 0.79429(5) 0.98322(3)
N2 N 0.14234(7) 0.73545(5) 0.68782(3)
C1 C 0.53215(7) 0.74398(5) 0.89978(4)
C2 C 0.48718(8) 0.76968(5) 1.02736(4)
C3 C 0.37008(7) 0.66450(5) 0.99287(4)
C4 C 0.32329(9) 0.61117(6) 1.05014(5)
C5 C 0.22064(9) 0.50860(7) 1.02056(5)
C6 C 0.16412(9) 0.45992(6) 0.93400(5)
C7 C 0.20834(8) 0.51466(6) 0.87620(4)
C8 C 0.31179(7) 0.61752(5) 0.90557(4)
C9 C 0.35632(7) 0.68478(5) 0.84467(4)
C10 C 0.21824(7) 0.78681(5) 0.77991(4)
C11 C 0.22595(7) 0.64123(5) 0.69338(4)
C12 C 0.08828(7) 0.80343(5) 0.80851(4)
C13 C -0.16666(8) 0.73839(6) 0.79342(5)
C14 C 0.29349(8) 0.91094(5) 0.78117(5)
C15 C 0.20035(9) 0.56380(6) 0.61632(5)
C16 C 0.72046(9) 0.87786(7) 1.02922(5)
H1 H 0.3691(16) 0.6469(12) 1.1123(8)
H2 H 0.1926(16) 0.4702(12) 1.0620(8)
H3 H 0.0914(18) 0.3873(13) 0.9120(9)
H4 H 0.1653(15) 0.4809(11) 0.8134(8)
H5 H -0.2127(17) 0.8200(12) 0.7847(9)
H6 H -0.2529(16) 0.6833(11) 0.7552(8)
H7 H -0.1062(16) 0.7198(12) 0.8587(8)
H8 H 0.3778(15) 0.9026(11) 0.7630(8)
H9 H 0.1966(17) 0.9626(12) 0.7320(9)
H10 H 0.3409(16) 0.9500(11) 0.8389(8)
H11 H 0.1370(17) 0.6054(12) 0.5592(9)
H12 H 0.146(2) 0.4850(14) 0.6153(10)
H13 H 0.303(2) 0.5454(14) 0.6223(10)
H14 H 0.7914(18) 0.8602(13) 1.0038(9)
H15 H 0.6805(18) 0.9625(13) 1.0176(9)
H16 H 0.7896(18) 0.8617(13) 1.0964(9)
loop_
_geom_bond_atom_site_label_1
_geom_bond_atom_site_label_2
_geom_bond_site_symmetry_1
_geom_bond_site_symmetry_2
O1 C1 1_555 1_555
O2 C2 1_555 1_555
O3 C9 1_555 1_555
O4 C12 1_555 1_555
O5 C12 1_555 1_555
N1 C1 1_555 1_555
N2 C10 1_555 1_555
C1 C9 1_555 1_555
C2 N1 1_555 1_555
C3 C2 1_555 1_555
C4 C3 1_555 1_555
C5 C4 1_555 1_555
C6 C5 1_555 1_555
C7 C6 1_555 1_555
C8 C3 1_555 1_555
C9 C8 1_555 1_555
C10 C9 1_555 1_555
C11 O3 1_555 1_555
C12 C10 1_555 1_555
C13 O5 1_555 1_555
C14 C10 1_555 1_555
C15 C11 1_555 1_555
C16 N1 1_555 1_555
H1 C4 1_555 1_555
H2 C5 1_555 1_555
H3 C6 1_555 1_555
H4 C7 1_555 1_555
H5 C13 1_555 1_555
H6 C13 1_555 1_555
H7 C13 1_555 1_555
H8 C14 1_555 1_555
H9 C14 1_555 1_555
H10 C14 1_555 1_555
H11 C15 1_555 1_555
H12 C15 1_555 1_555
H13 C15 1_555 1_555
H14 C16 1_555 1_555
H15 C16 1_555 1_555
H16 C16 1_555 1_555
N2 C11 1_555 1_555
C7 C8 1_555 1_555

#END
