
#######################################################################
#
#                 Cambridge Crystallographic Data Centre
#                                CCDC 
#
#######################################################################
#
# If this CIF has been generated from an entry in the Cambridge 
# Structural Database, then it will include bibliographic, chemical, 
# crystal, experimental, refinement or atomic coordinate data resulting 
# from the CCDC's data processing and validation procedures.
#
#######################################################################

data_USIWID02
_chemical_formula_moiety         'C15 H12 O3'
_chemical_name_systematic        '2-oxo-2-phenylethyl benzoate'
_symmetry_cell_setting           monoclinic
_symmetry_space_group_name_H-M   'P 21/c'
_symmetry_Int_Tables_number      14
_space_group_name_Hall           '-P 2ybc'
loop_
_symmetry_equiv_pos_site_id
_symmetry_equiv_pos_as_xyz
1 x,y,z
2 -x,1/2+y,1/2-z
3 -x,-y,-z
4 x,1/2-y,1/2+z
_cell_length_a                   9.0669(3)
_cell_length_b                   14.1271(5)
_cell_length_c                   9.6077(3)
_cell_angle_alpha                90
_cell_angle_beta                 90.775(2)
_cell_angle_gamma                90
_cell_volume                     1230.53
_exptl_crystal_colour            colorless
_exptl_crystal_description       Lamellar
_cell_formula_units_Z            4
loop_
_atom_site_label
_atom_site_type_symbol
_atom_site_fract_x
_atom_site_fract_y
_atom_site_fract_z
C1 C 0.35748(17) 0.25819(12) 0.39955(18)
C2 C 0.4510(2) 0.21769(14) 0.3039(2)
H1 H 0.5073 0.2560 0.2466
C3 C 0.4610(2) 0.12062(14) 0.2934(2)
H2 H 0.5236 0.0938 0.2284
C4 C 0.3796(2) 0.06354(14) 0.3776(2)
H3 H 0.3874 -0.0019 0.3705
C5 C 0.2857(3) 0.10308(15) 0.4733(3)
H4 H 0.2303 0.0642 0.5307
C6 C 0.2739(2) 0.20077(14) 0.4841(2)
H5 H 0.2099 0.2275 0.5480
C7 C 0.35300(17) 0.36267(12) 0.40961(19)
C8 C 0.23775(19) 0.49635(13) 0.5072(2)
H6 H 0.3368 0.5220 0.5144
H7 H 0.1865 0.5123 0.5920
C9 C 0.15953(18) 0.54058(13) 0.3863(2)
C10 C 0.15031(17) 0.64538(12) 0.38103(18)
C11 C 0.0528(2) 0.68664(14) 0.2858(2)
H8 H -0.0043 0.6484 0.2277
C12 C 0.0402(2) 0.78347(15) 0.2770(3)
H9 H -0.0256 0.8104 0.2133
C13 C 0.1246(2) 0.84055(14) 0.3621(2)
H10 H 0.1156 0.9060 0.3565
C14 C 0.2223(3) 0.80080(14) 0.4555(3)
H11 H 0.2804 0.8397 0.5120
C15 C 0.2352(2) 0.70385(13) 0.4665(2)
H12 H 0.3007 0.6776 0.5310
O1 O 0.43769(15) 0.41525(9) 0.35250(17)
O2 O 0.24606(14) 0.39487(9) 0.49434(15)
O3 O 0.10297(18) 0.49124(10) 0.2979(2)
loop_
_geom_bond_atom_site_label_1
_geom_bond_atom_site_label_2
_geom_bond_site_symmetry_1
_geom_bond_site_symmetry_2
C1 C2 1_555 1_555
C2 H1 1_555 1_555
C3 C2 1_555 1_555
H2 C3 1_555 1_555
C4 C3 1_555 1_555
H3 C4 1_555 1_555
C5 C4 1_555 1_555
H4 C5 1_555 1_555
C6 C1 1_555 1_555
H5 C6 1_555 1_555
C7 C1 1_555 1_555
C8 H6 1_555 1_555
H7 C8 1_555 1_555
C9 C8 1_555 1_555
C10 C9 1_555 1_555
C11 C10 1_555 1_555
H8 C11 1_555 1_555
C12 C11 1_555 1_555
H9 C12 1_555 1_555
C13 C12 1_555 1_555
H10 C13 1_555 1_555
C14 C13 1_555 1_555
H11 C14 1_555 1_555
C15 C10 1_555 1_555
H12 C15 1_555 1_555
O1 C7 1_555 1_555
O2 C7 1_555 1_555
O3 C9 1_555 1_555
C5 C6 1_555 1_555
C8 O2 1_555 1_555
C14 C15 1_555 1_555

#END
