
#######################################################################
#
#                 Cambridge Crystallographic Data Centre
#                                CCDC 
#
#######################################################################
#
# If this CIF has been generated from an entry in the Cambridge 
# Structural Database, then it will include bibliographic, chemical, 
# crystal, experimental, refinement or atomic coordinate data resulting 
# from the CCDC's data processing and validation procedures.
#
#######################################################################

data_USIXUQ
_chemical_formula_moiety         'C10 H8 N6,2(H2 O1)'
_chemical_name_systematic        
'5-[4-(1H-Imidazol-1-yl)phenyl]-2H-tetrazole dihydrate'
_symmetry_cell_setting           triclinic
_symmetry_space_group_name_H-M   'P -1'
_symmetry_Int_Tables_number      2
_space_group_name_Hall           '-P 1'
loop_
_symmetry_equiv_pos_site_id
_symmetry_equiv_pos_as_xyz
1 x,y,z
2 -x,-y,-z
_cell_length_a                   7.4300(7)
_cell_length_b                   8.2285(9)
_cell_length_c                   10.2047(11)
_cell_angle_alpha                97.0110(10)
_cell_angle_beta                 90.8130(10)
_cell_angle_gamma                113.449(2)
_cell_volume                     566.737
_exptl_crystal_colour            colorless
_exptl_crystal_description       block
_cell_formula_units_Z            2
loop_
_atom_site_label
_atom_site_type_symbol
_atom_site_fract_x
_atom_site_fract_y
_atom_site_fract_z
N1 N 0.2591(5) 0.1994(4) 0.1928(3)
N2 N 0.2495(6) 0.0363(4) 0.1481(3)
H1 H 0.2561 -0.0008 0.0665
N3 N 0.2288(6) -0.0589(5) 0.2440(3)
N4 N 0.2239(6) 0.0414(4) 0.3577(3)
N5 N 0.2568(4) 0.7806(4) 0.6934(3)
N6 N 0.2612(5) 0.9372(4) 0.8813(3)
C1 C 0.2426(5) 0.1985(5) 0.3235(3)
C2 C 0.2436(5) 0.3498(5) 0.4159(3)
C3 C 0.3121(6) 0.5229(5) 0.3835(3)
H6 H 0.3556 0.5438 0.2997
C4 C 0.3163(6) 0.6638(5) 0.4737(4)
H7 H 0.3632 0.7788 0.4508
C5 C 0.2507(5) 0.6338(5) 0.5985(3)
C6 C 0.1766(6) 0.4619(5) 0.6316(3)
H8 H 0.1290 0.4413 0.7144
C7 C 0.1736(6) 0.3217(5) 0.5418(3)
H9 H 0.1245 0.2067 0.5648
C8 C 0.2597(6) 0.7830(6) 0.8248(4)
H10 H 0.2604 0.6911 0.8692
C9 C 0.2610(6) 1.0379(5) 0.7849(4)
H11 H 0.2632 1.1526 0.7977
C10 C 0.2571(6) 0.9415(5) 0.6680(4)
H12 H 0.2550 0.9768 0.5850
O1 O 0.2945(8) 0.4108(6) -0.0073(4)
H2 H 0.2650 0.3229 0.0363
H3 H 0.4182 0.4705 -0.0013
O2 O 0.1048(12) 0.6070(9) 0.0820(6)
H4 H 0.2078 0.5941 0.0576
H5 H 0.1533 0.7067 0.1322
H13? H -0.0111 0.5894 0.0548
loop_
_geom_bond_atom_site_label_1
_geom_bond_atom_site_label_2
_geom_bond_site_symmetry_1
_geom_bond_site_symmetry_2
N1 N2 1_555 1_555
N2 H1 1_555 1_555
N3 N2 1_555 1_555
N4 N3 1_555 1_555
N5 C5 1_555 1_555
N6 C8 1_555 1_555
O1 H2 1_555 1_555
H3 O1 1_555 1_555
O2 H4 1_555 1_555
H5 O2 1_555 1_555
C1 N1 1_555 1_555
C2 C1 1_555 1_555
C3 C2 1_555 1_555
H6 C3 1_555 1_555
C4 C3 1_555 1_555
H7 C4 1_555 1_555
C5 C4 1_555 1_555
C6 C5 1_555 1_555
H8 C6 1_555 1_555
C7 C2 1_555 1_555
H9 C7 1_555 1_555
C8 N5 1_555 1_555
H10 C8 1_555 1_555
C9 N6 1_555 1_555
H11 C9 1_555 1_555
C10 N5 1_555 1_555
H12 C10 1_555 1_555
N4 C1 1_555 1_555
C6 C7 1_555 1_555
C9 C10 1_555 1_555

#END
