
#######################################################################
#
#                 Cambridge Crystallographic Data Centre
#                                CCDC 
#
#######################################################################
#
# If this CIF has been generated from an entry in the Cambridge 
# Structural Database, then it will include bibliographic, chemical, 
# crystal, experimental, refinement or atomic coordinate data resulting 
# from the CCDC's data processing and validation procedures.
#
#######################################################################

data_USOBUA
_chemical_formula_moiety         'C12 H13 N3 O2'
_chemical_name_systematic        
N-(1,5-Dimethyl-3-oxo-2-phenyl-2,3-dihydro-1H-pyrazol-4-yl)formamide
_symmetry_cell_setting           orthorhombic
_symmetry_space_group_name_H-M   'P 21 21 21'
_symmetry_Int_Tables_number      19
_space_group_name_Hall           'P 2ac 2ab'
loop_
_symmetry_equiv_pos_site_id
_symmetry_equiv_pos_as_xyz
1 x,y,z
2 1/2-x,-y,1/2+z
3 -x,1/2+y,1/2-z
4 1/2+x,1/2-y,-z
_cell_length_a                   8.4220(17)
_cell_length_b                   9.2950(19)
_cell_length_c                   14.501(3)
_cell_angle_alpha                90
_cell_angle_beta                 90
_cell_angle_gamma                90
_cell_volume                     1135.17
_exptl_crystal_colour            colorless
_exptl_crystal_description       block
_cell_formula_units_Z            4
loop_
_atom_site_label
_atom_site_type_symbol
_atom_site_fract_x
_atom_site_fract_y
_atom_site_fract_z
O1 O 0.0661(4) 0.6540(3) 0.6577(2)
N1 N -0.0044(4) 0.7935(4) 0.5315(2)
C1 C -0.0412(6) 0.5576(5) 0.4655(3)
H1 H -0.1048 0.5335 0.5157
O2 O 0.2871(5) 0.8913(4) 0.8637(2)
N2 N -0.0004(5) 0.9417(4) 0.5102(2)
C2 C -0.0105(8) 0.4577(5) 0.3988(3)
H2 H -0.0536 0.3659 0.4031
N3 N 0.1224(5) 0.9449(4) 0.7471(2)
H3 H 0.0730 1.0081 0.7796
C3 C 0.0846(8) 0.4939(6) 0.3253(4)
H4 H 0.1059 0.4252 0.2803
C4 C 0.1490(6) 0.6293(6) 0.3167(3)
H5 H 0.2137 0.6524 0.2669
C5 C 0.1153(6) 0.7298(5) 0.3838(3)
H6 H 0.1556 0.8226 0.3787
C6 C 0.0215(5) 0.6931(5) 0.4588(3)
C7 C 0.0387(5) 1.0119(4) 0.5892(3)
C8 C 0.0694(5) 0.9167(4) 0.6560(3)
C9 C 0.0471(5) 0.7744(5) 0.6213(3)
C10 C -0.1189(6) 0.9958(5) 0.4451(3)
H7 H -0.1081 1.0982 0.4393
H8 H -0.2234 0.9731 0.4673
H9 H -0.1030 0.9515 0.3860
C11 C 0.0424(7) 1.1725(5) 0.5918(3)
H10 H 0.0750 1.2039 0.6519
H11 H -0.0615 1.2095 0.5785
H12 H 0.1163 1.2073 0.5465
C12 C 0.2435(6) 0.8781(5) 0.7834(3)
H13 H 0.3008 0.8160 0.7457
loop_
_geom_bond_atom_site_label_1
_geom_bond_atom_site_label_2
_geom_bond_site_symmetry_1
_geom_bond_site_symmetry_2
O1 C9 1_555 1_555
N1 N2 1_555 1_555
C1 H1 1_555 1_555
O2 C12 1_555 1_555
N2 C7 1_555 1_555
C2 C1 1_555 1_555
H2 C2 1_555 1_555
N3 H3 1_555 1_555
C3 C2 1_555 1_555
H4 C3 1_555 1_555
C4 C3 1_555 1_555
H5 C4 1_555 1_555
C5 C4 1_555 1_555
H6 C5 1_555 1_555
C6 N1 1_555 1_555
C7 C8 1_555 1_555
C8 N3 1_555 1_555
C9 N1 1_555 1_555
C10 N2 1_555 1_555
H7 C10 1_555 1_555
H8 C10 1_555 1_555
H9 C10 1_555 1_555
C11 C7 1_555 1_555
H10 C11 1_555 1_555
H11 C11 1_555 1_555
H12 C11 1_555 1_555
C12 N3 1_555 1_555
H13 C12 1_555 1_555
C1 C6 1_555 1_555
C5 C6 1_555 1_555
C8 C9 1_555 1_555

#END
