
#######################################################################
#
#                 Cambridge Crystallographic Data Centre
#                                CCDC 
#
#######################################################################
#
# If this CIF has been generated from an entry in the Cambridge 
# Structural Database, then it will include bibliographic, chemical, 
# crystal, experimental, refinement or atomic coordinate data resulting 
# from the CCDC's data processing and validation procedures.
#
#######################################################################

data_USODUC
_chemical_formula_moiety         'C34 H40 N2 O4,2(C3 H7 N1 O1)'
_chemical_name_systematic        
"2,2',2'',2'''-(ethane-1,2-diylbis(nitrilobis(methylene)))tetrakis(4-methylphenol) N,N-dimethylformamide solvate"
_symmetry_cell_setting           monoclinic
_symmetry_space_group_name_H-M   'P 21/c'
_symmetry_Int_Tables_number      14
_space_group_name_Hall           '-P 2ybc'
loop_
_symmetry_equiv_pos_site_id
_symmetry_equiv_pos_as_xyz
1 x,y,z
2 -x,1/2+y,1/2-z
3 -x,-y,-z
4 x,1/2-y,1/2+z
_cell_length_a                   11.574(2)
_cell_length_b                   6.3557(12)
_cell_length_c                   26.343(5)
_cell_angle_alpha                90
_cell_angle_beta                 94.939(3)
_cell_angle_gamma                90
_cell_volume                     1930.62
_exptl_crystal_colour            colorless
_exptl_crystal_description       block
_cell_formula_units_Z            2
loop_
_atom_site_label
_atom_site_type_symbol
_atom_site_fract_x
_atom_site_fract_y
_atom_site_fract_z
C1 C 0.81761(16) 0.6724(3) 0.50272(8)
C2 C 0.80450(15) 0.4662(3) 0.48545(7)
C3 C 0.86027(16) 0.4078(3) 0.44304(7)
H1 H 0.8508 0.2709 0.4309
C4 C 0.92929(17) 0.5440(4) 0.41797(8)
C5 C 0.94148(18) 0.7469(4) 0.43666(9)
H2 H 0.9880 0.8417 0.4209
C6 C 0.88609(17) 0.8110(4) 0.47813(9)
H3 H 0.8948 0.9487 0.4897
C7 C 0.9908(2) 0.4688(5) 0.37314(10)
H4 H 1.0649 0.4111 0.3851
H5 H 1.0018 0.5849 0.3508
H6 H 0.9450 0.3624 0.3551
C8 C 0.74176(15) 0.3055(3) 0.51447(7)
H7 H 0.7213 0.1869 0.4923
H8 H 0.7933 0.2546 0.5428
C9 C 0.59865(17) 0.2520(3) 0.57452(7)
H9 H 0.6064 0.1064 0.5642
H10 H 0.5174 0.2778 0.5787
C10 C 0.66842(16) 0.2860(3) 0.62476(7)
C11 C 0.74762(17) 0.1400(4) 0.64530(8)
H11 H 0.7593 0.0176 0.6271
C12 C 0.81018(19) 0.1691(4) 0.69194(8)
C13 C 0.7899(2) 0.3509(5) 0.71814(8)
H12 H 0.8299 0.3731 0.7498
C14 C 0.71194(19) 0.5012(4) 0.69888(8)
H13 H 0.7001 0.6229 0.7174
C15 C 0.65167(18) 0.4696(4) 0.65193(8)
C16 C 0.8989(2) 0.0118(5) 0.71276(11)
H14 H 0.9725 0.0439 0.7004
H15 H 0.8751 -0.1269 0.7019
H16 H 0.9057 0.0181 0.7493
C17 C 0.54400(16) 0.4187(3) 0.49300(7)
H17 H 0.5051 0.2856 0.4858
H18 H 0.5782 0.4636 0.4624
N1 N 0.63564(12) 0.3898(3) 0.53418(5)
O1 O 0.76581(13) 0.7432(3) 0.54411(6)
H19 H 0.7179 0.6567 0.5520
O2 O 0.57293(15) 0.6113(3) 0.63071(6)
H20 H 0.5563 0.6957 0.6525
C1B C 0.18239(16) 0.3276(3) 0.49728(8)
C2B C 0.19550(15) 0.5338(3) 0.51455(7)
C3B C 0.13973(16) 0.5922(3) 0.55696(7)
H1B H 0.1492 0.7291 0.5691
C4B C 0.07071(17) 0.4560(4) 0.58203(8)
C5B C 0.05852(18) 0.2531(4) 0.56334(9)
H2B H 0.0120 0.1583 0.5791
C6B C 0.11391(17) 0.1890(4) 0.52187(9)
H3B H 0.1052 0.0513 0.5103
C7B C 0.0092(2) 0.5312(5) 0.62686(10)
H4B H -0.0649 0.5889 0.6149
H5B H -0.0018 0.4151 0.6492
H6B H 0.0550 0.6376 0.6449
C8B C 0.25824(15) 0.6945(3) 0.48553(7)
H7B H 0.2787 0.8131 0.5077
H8B H 0.2067 0.7454 0.4572
C9B C 0.40135(17) 0.7480(3) 0.42548(7)
H9B H 0.3936 0.8936 0.4358
H10B H 0.4826 0.7222 0.4213
C10B C 0.33158(16) 0.7140(3) 0.37524(7)
C11B C 0.25238(17) 0.8600(4) 0.35470(8)
H11B H 0.2407 0.9824 0.3729
C12B C 0.18982(19) 0.8309(4) 0.30806(8)
C13B C 0.2101(2) 0.6491(5) 0.28186(8)
H12B H 0.1701 0.6269 0.2502
C14B C 0.28806(19) 0.4988(4) 0.30112(8)
H13B H 0.2999 0.3771 0.2826
C15B C 0.34833(18) 0.5304(4) 0.34807(8)
C16B C 0.1011(2) 0.9882(5) 0.28724(11)
H14B H 0.0275 0.9561 0.2996
H15B H 0.1249 1.1269 0.2981
H16B H 0.0943 0.9819 0.2507
C17B C 0.45600(16) 0.5813(3) 0.50700(7)
H17B H 0.4949 0.7144 0.5142
H18B H 0.4218 0.5364 0.5376
N1B N 0.36436(12) 0.6102(3) 0.46582(5)
O1B O 0.23419(13) 0.2568(3) 0.45589(6)
H19B H 0.2821 0.3433 0.4480
O2B O 0.42707(15) 0.3887(3) 0.36929(6)
H20B H 0.4437 0.3043 0.3475
C18 C 0.4736(2) 1.0737(4) 0.69918(8)
H21 H 0.5089 1.1710 0.7219
C19 C 0.3253(3) 0.9941(6) 0.63369(15)
H22 H 0.3785 0.8864 0.6252
H23 H 0.2982 1.0695 0.6034
H24 H 0.2606 0.9307 0.6484
C20 C 0.3383(3) 1.3486(5) 0.67385(12)
H25 H 0.3860 1.4260 0.6990
H26 H 0.2604 1.3422 0.6837
H27 H 0.3385 1.4176 0.6414
N2 N 0.38342(17) 1.1383(3) 0.67004(7)
O3 O 0.51586(16) 0.8979(3) 0.69941(6)
loop_
_geom_bond_atom_site_label_1
_geom_bond_atom_site_label_2
_geom_bond_site_symmetry_1
_geom_bond_site_symmetry_2
C1 C2 1_555 1_555
C2 C3 1_555 1_555
C3 H1 1_555 1_555
C4 C3 1_555 1_555
C5 C4 1_555 1_555
H2 C5 1_555 1_555
C6 C1 1_555 1_555
H3 C6 1_555 1_555
C7 C4 1_555 1_555
H4 C7 1_555 1_555
H5 C7 1_555 1_555
H6 C7 1_555 1_555
C8 C2 1_555 1_555
H7 C8 1_555 1_555
H8 C8 1_555 1_555
C9 H9 1_555 1_555
H10 C9 1_555 1_555
C10 C9 1_555 1_555
C11 C10 1_555 1_555
H11 C11 1_555 1_555
C12 C11 1_555 1_555
C13 C12 1_555 1_555
H12 C13 1_555 1_555
C14 C13 1_555 1_555
H13 C14 1_555 1_555
C15 C10 1_555 1_555
C16 C12 1_555 1_555
H14 C16 1_555 1_555
H15 C16 1_555 1_555
H16 C16 1_555 1_555
C17 H17 1_555 1_555
H18 C17 1_555 1_555
N1 C8 1_555 1_555
O1 C1 1_555 1_555
H19 O1 1_555 1_555
O2 C15 1_555 1_555
H20 O2 1_555 1_555
C18 H21 1_555 1_555
C19 H22 1_555 1_555
H23 C19 1_555 1_555
H24 C19 1_555 1_555
C20 H25 1_555 1_555
H26 C20 1_555 1_555
H27 C20 1_555 1_555
N2 C18 1_555 1_555
O3 C18 1_555 1_555
C1B C2B 1_555 1_555
C2B C3B 1_555 1_555
C3B H1B 1_555 1_555
C4B C3B 1_555 1_555
C5B C4B 1_555 1_555
H2B C5B 1_555 1_555
C6B C1B 1_555 1_555
H3B C6B 1_555 1_555
C7B C4B 1_555 1_555
H4B C7B 1_555 1_555
H5B C7B 1_555 1_555
H6B C7B 1_555 1_555
C8B C2B 1_555 1_555
H7B C8B 1_555 1_555
H8B C8B 1_555 1_555
C9B H9B 1_555 1_555
H10B C9B 1_555 1_555
C10B C9B 1_555 1_555
C11B C10B 1_555 1_555
H11B C11B 1_555 1_555
C12B C11B 1_555 1_555
C13B C12B 1_555 1_555
H12B C13B 1_555 1_555
C14B C13B 1_555 1_555
H13B C14B 1_555 1_555
C15B C10B 1_555 1_555
C16B C12B 1_555 1_555
H14B C16B 1_555 1_555
H15B C16B 1_555 1_555
H16B C16B 1_555 1_555
C17B C17 1_555 1_555
H17B C17B 1_555 1_555
H18B C17B 1_555 1_555
N1B C8B 1_555 1_555
O1B C1B 1_555 1_555
H19B O1B 1_555 1_555
O2B C15B 1_555 1_555
H20B O2B 1_555 1_555
C5 C6 1_555 1_555
C9 N1 1_555 1_555
C14 C15 1_555 1_555
C17 N1 1_555 1_555
C19 N2 1_555 1_555
C20 N2 1_555 1_555
C5B C6B 1_555 1_555
C9B N1B 1_555 1_555
C14B C15B 1_555 1_555
C17B N1B 1_555 1_555

#END
