
#######################################################################
#
#                 Cambridge Crystallographic Data Centre
#                                CCDC 
#
#######################################################################
#
# If this CIF has been generated from an entry in the Cambridge 
# Structural Database, then it will include bibliographic, chemical, 
# crystal, experimental, refinement or atomic coordinate data resulting 
# from the CCDC's data processing and validation procedures.
#
#######################################################################

data_USOFOY
_chemical_formula_moiety         'C22 H20 N1 1+,Cl1 1-'
_chemical_name_systematic        '9-Anthryl-N-benzylmethanaminium chloride'
_symmetry_cell_setting           triclinic
_symmetry_space_group_name_H-M   'P -1'
_symmetry_Int_Tables_number      2
_space_group_name_Hall           '-P 1'
loop_
_symmetry_equiv_pos_site_id
_symmetry_equiv_pos_as_xyz
1 x,y,z
2 -x,-y,-z
_cell_length_a                   6.7457(13)
_cell_length_b                   10.761(2)
_cell_length_c                   13.033(3)
_cell_angle_alpha                94.45(3)
_cell_angle_beta                 104.84(3)
_cell_angle_gamma                104.48(3)
_cell_volume                     875.269
_exptl_crystal_colour            yellow
_exptl_crystal_description       block
_cell_formula_units_Z            2
loop_
_atom_site_label
_atom_site_type_symbol
_atom_site_fract_x
_atom_site_fract_y
_atom_site_fract_z
Cl1 Cl 0.17351(5) 0.42040(4) 0.40032(3)
N1 N 0.38238(18) 0.52936(11) 0.64009(9)
C1 C 0.1631(2) 0.21072(14) 0.67206(11)
C2 C -0.0472(2) 0.21057(16) 0.61273(12)
H1 H -0.0774 0.2890 0.6018
C3 C -0.2034(3) 0.09727(16) 0.57217(13)
H2 H -0.3391 0.0995 0.5340
C4 C -0.1629(3) -0.02440(17) 0.58713(13)
H3 H -0.2721 -0.1009 0.5597
C5 C 0.0344(3) -0.02903(16) 0.64127(12)
H4 H 0.0595 -0.1091 0.6505
C6 C 0.2045(3) 0.08678(15) 0.68441(12)
C7 C 0.4101(3) 0.08322(16) 0.73768(12)
H5 H 0.4365 0.0029 0.7438
C8 C 0.5764(2) 0.19449(15) 0.78173(11)
C9 C 0.7883(3) 0.18991(18) 0.83401(12)
H6 H 0.8163 0.1098 0.8382
C10 C 0.9485(3) 0.29980(18) 0.87736(12)
H7 H 1.0853 0.2948 0.9103
C11 C 0.9084(2) 0.42185(17) 0.87262(11)
H8 H 1.0193 0.4969 0.9030
C12 C 0.7099(2) 0.43137(16) 0.82427(11)
H9 H 0.6871 0.5130 0.8231
C13 C 0.5357(2) 0.31906(15) 0.77525(11)
C14 C 0.3287(2) 0.32511(14) 0.72005(11)
C15 C 0.2884(2) 0.45631(14) 0.71774(11)
H10 H 0.1356 0.4454 0.6977
H11 H 0.3499 0.5065 0.7891
C16 C 0.3787(2) 0.66897(14) 0.64641(11)
H12 H 0.2322 0.6725 0.6209
H13 H 0.4571 0.7116 0.6000
C17 C 0.4765(2) 0.74042(14) 0.75999(11)
C18 C 0.3455(2) 0.75556(14) 0.82421(12)
H14 H 0.1978 0.7247 0.7963
C19 C 0.4352(3) 0.81680(15) 0.93001(12)
H15 H 0.3472 0.8261 0.9729
C20 C 0.6531(3) 0.86365(16) 0.97157(13)
H16 H 0.7122 0.9046 1.0424
C21 C 0.7851(3) 0.84988(15) 0.90801(12)
H17 H 0.9326 0.8817 0.9360
C22 C 0.6962(2) 0.78841(14) 0.80265(11)
H18 H 0.7848 0.7793 0.7601
H19 H 0.5219(14) 0.5298(15) 0.6487(11)
H20 H 0.3065(17) 0.4908(14) 0.5707(8)
loop_
_geom_bond_atom_site_label_1
_geom_bond_atom_site_label_2
_geom_bond_site_symmetry_1
_geom_bond_site_symmetry_2
N1 C15 1_555 1_555
C1 C2 1_555 1_555
C2 H1 1_555 1_555
C3 C2 1_555 1_555
H2 C3 1_555 1_555
C4 C3 1_555 1_555
H3 C4 1_555 1_555
C5 C4 1_555 1_555
H4 C5 1_555 1_555
C6 C1 1_555 1_555
C7 C6 1_555 1_555
H5 C7 1_555 1_555
C8 C7 1_555 1_555
C9 C8 1_555 1_555
H6 C9 1_555 1_555
C10 C9 1_555 1_555
H7 C10 1_555 1_555
C11 C10 1_555 1_555
H8 C11 1_555 1_555
C12 C11 1_555 1_555
H9 C12 1_555 1_555
C13 C8 1_555 1_555
C14 C1 1_555 1_555
C15 C14 1_555 1_555
H10 C15 1_555 1_555
H11 C15 1_555 1_555
C16 N1 1_555 1_555
H12 C16 1_555 1_555
H13 C16 1_555 1_555
C17 C16 1_555 1_555
C18 C17 1_555 1_555
H14 C18 1_555 1_555
C19 C18 1_555 1_555
H15 C19 1_555 1_555
C20 C19 1_555 1_555
H16 C20 1_555 1_555
C21 C20 1_555 1_555
H17 C21 1_555 1_555
C22 C17 1_555 1_555
H18 C22 1_555 1_555
H19 N1 1_555 1_555
H20 N1 1_555 1_555
C5 C6 1_555 1_555
C12 C13 1_555 1_555
C13 C14 1_555 1_555
C21 C22 1_555 1_555

#END
