
#######################################################################
#
#                 Cambridge Crystallographic Data Centre
#                                CCDC 
#
#######################################################################
#
# If this CIF has been generated from an entry in the Cambridge 
# Structural Database, then it will include bibliographic, chemical, 
# crystal, experimental, refinement or atomic coordinate data resulting 
# from the CCDC's data processing and validation procedures.
#
#######################################################################

data_USOGIT
_chemical_formula_moiety         'C20 H24 N2 O6'
_chemical_name_systematic        
(E,E)-1,2-bis(2,4,5-trimethoxybenzylidene)hydrazine
_symmetry_cell_setting           monoclinic
_symmetry_space_group_name_H-M   'P 21/c'
_symmetry_Int_Tables_number      14
_space_group_name_Hall           '-P 2ybc'
loop_
_symmetry_equiv_pos_site_id
_symmetry_equiv_pos_as_xyz
1 x,y,z
2 -x,1/2+y,1/2-z
3 -x,-y,-z
4 x,1/2-y,1/2+z
_cell_length_a                   7.50560(10)
_cell_length_b                   7.25230(10)
_cell_length_c                   17.4489(2)
_cell_angle_alpha                90
_cell_angle_beta                 90.6000(10)
_cell_angle_gamma                90
_cell_volume                     949.742
_exptl_crystal_colour            colorless
_exptl_crystal_description       needle
_cell_formula_units_Z            2
loop_
_atom_site_label
_atom_site_type_symbol
_atom_site_fract_x
_atom_site_fract_y
_atom_site_fract_z
O1 O 0.26607(9) 0.49751(9) 0.57223(4)
O2 O 0.36459(9) 0.78767(10) 0.32476(4)
O3 O 0.19145(9) 0.52720(10) 0.25671(4)
N1 N 0.03148(10) 0.06200(11) 0.47211(4)
C1 C 0.16786(11) 0.35906(12) 0.45749(5)
C2 C 0.25348(11) 0.50724(13) 0.49415(5)
C3 C 0.32155(11) 0.65346(13) 0.45116(5)
H1 H 0.3849(17) 0.7563(18) 0.4767(7)
C4 C 0.30093(11) 0.65370(13) 0.37186(5)
C5 C 0.21005(12) 0.50854(13) 0.33441(5)
C6 C 0.14716(11) 0.36283(12) 0.37708(5)
H2 H 0.0847(18) 0.261(2) 0.3529(8)
C7 C 0.09679(11) 0.20862(13) 0.50302(5)
H3 H 0.0952(17) 0.2209(18) 0.5580(8)
C8 C 0.33469(13) 0.65505(14) 0.61202(6)
H4 H 0.3252(17) 0.6258(19) 0.6634(8)
H5 H 0.2642(17) 0.767(2) 0.5997(8)
H6 H 0.4583(18) 0.6749(19) 0.5978(7)
C9 C 0.45348(15) 0.94046(15) 0.35983(6)
H7 H 0.3707(19) 1.004(2) 0.3925(8)
H8 H 0.5579(18) 0.897(2) 0.3891(8)
H9 H 0.4852(18) 1.010(2) 0.3165(8)
C10 C 0.08467(16) 0.39153(16) 0.21898(6)
H10 H -0.0319(16) 0.3831(18) 0.2454(7)
H11 H 0.1449(19) 0.274(2) 0.2202(8)
H12 H 0.0681(19) 0.439(2) 0.1671(9)
O1B O -0.26607(9) -0.49751(9) 0.42777(4)
O2B O -0.36459(9) -0.78767(10) 0.67524(4)
O3B O -0.19145(9) -0.52720(10) 0.74329(4)
N1B N -0.03148(10) -0.06200(11) 0.52789(4)
C1B C -0.16786(11) -0.35906(12) 0.54251(5)
C2B C -0.25348(11) -0.50724(13) 0.50585(5)
C3B C -0.32155(11) -0.65346(13) 0.54884(5)
H1B H -0.3849(17) -0.7563(18) 0.5233(7)
C4B C -0.30093(11) -0.65370(13) 0.62814(5)
C5B C -0.21005(12) -0.50854(13) 0.66559(5)
C6B C -0.14716(11) -0.36283(12) 0.62292(5)
H2B H -0.0847(18) -0.261(2) 0.6471(8)
C7B C -0.09679(11) -0.20862(13) 0.49698(5)
H3B H -0.0952(17) -0.2209(18) 0.4420(8)
C8B C -0.33469(13) -0.65505(14) 0.38798(6)
H4B H -0.3252(17) -0.6258(19) 0.3366(8)
H5B H -0.2642(17) -0.767(2) 0.4003(8)
H6B H -0.4583(18) -0.6749(19) 0.4022(7)
C9B C -0.45348(15) -0.94046(15) 0.64017(6)
H7B H -0.3707(19) -1.004(2) 0.6075(8)
H8B H -0.5579(18) -0.897(2) 0.6109(8)
H9B H -0.4852(18) -1.010(2) 0.6835(8)
C10B C -0.08467(16) -0.39153(16) 0.78102(6)
H10B H 0.0319(16) -0.3831(18) 0.7546(7)
H11B H -0.1449(19) -0.274(2) 0.7798(8)
H12B H -0.0681(19) -0.439(2) 0.8329(9)
loop_
_geom_bond_atom_site_label_1
_geom_bond_atom_site_label_2
_geom_bond_site_symmetry_1
_geom_bond_site_symmetry_2
O1 C2 1_555 1_555
O2 C4 1_555 1_555
O3 C5 1_555 1_555
N1 C7 1_555 1_555
C1 C2 1_555 1_555
C2 C3 1_555 1_555
C3 H1 1_555 1_555
C4 C3 1_555 1_555
C5 C4 1_555 1_555
C6 C1 1_555 1_555
H2 C6 1_555 1_555
C7 C1 1_555 1_555
H3 C7 1_555 1_555
C8 O1 1_555 1_555
H4 C8 1_555 1_555
H5 C8 1_555 1_555
H6 C8 1_555 1_555
C9 O2 1_555 1_555
H7 C9 1_555 1_555
H8 C9 1_555 1_555
H9 C9 1_555 1_555
C10 O3 1_555 1_555
H10 C10 1_555 1_555
H11 C10 1_555 1_555
H12 C10 1_555 1_555
O1B C2B 1_555 1_555
O2B C4B 1_555 1_555
O3B C5B 1_555 1_555
N1B N1 1_555 1_555
C1B C2B 1_555 1_555
C2B C3B 1_555 1_555
C3B H1B 1_555 1_555
C4B C3B 1_555 1_555
C5B C4B 1_555 1_555
C6B C1B 1_555 1_555
H2B C6B 1_555 1_555
C7B N1B 1_555 1_555
H3B C7B 1_555 1_555
C8B O1B 1_555 1_555
H4B C8B 1_555 1_555
H5B C8B 1_555 1_555
H6B C8B 1_555 1_555
C9B O2B 1_555 1_555
H7B C9B 1_555 1_555
H8B C9B 1_555 1_555
H9B C9B 1_555 1_555
C10B O3B 1_555 1_555
H10B C10B 1_555 1_555
H11B C10B 1_555 1_555
H12B C10B 1_555 1_555
C5 C6 1_555 1_555
C1B C7B 1_555 1_555
C5B C6B 1_555 1_555

#END
