
#######################################################################
#
#                 Cambridge Crystallographic Data Centre
#                                CCDC 
#
#######################################################################
#
# If this CIF has been generated from an entry in the Cambridge 
# Structural Database, then it will include bibliographic, chemical, 
# crystal, experimental, refinement or atomic coordinate data resulting 
# from the CCDC's data processing and validation procedures.
#
#######################################################################

data_USOGEP
_chemical_formula_moiety         'C19 H22 N2 O5'
_chemical_name_systematic        
"Methyl 4'-isobutyl-2,2'-dimethyl-1,3-dioxo-2,3-dihydro-1H,4'H-spiro[isoquinoline-4,5'-[1,3]oxazole]-4'-carboxylate"
_symmetry_cell_setting           triclinic
_symmetry_space_group_name_H-M   'P -1'
_symmetry_Int_Tables_number      2
_space_group_name_Hall           '-P 1'
loop_
_symmetry_equiv_pos_site_id
_symmetry_equiv_pos_as_xyz
1 x,y,z
2 -x,-y,-z
_cell_length_a                   8.67640(10)
_cell_length_b                   8.93660(10)
_cell_length_c                   12.0684(2)
_cell_angle_alpha                93.4950(10)
_cell_angle_beta                 109.8920(10)
_cell_angle_gamma                98.4260(10)
_cell_volume                     864.225
_exptl_crystal_colour            colorless
_exptl_crystal_description       block
_cell_formula_units_Z            2
loop_
_atom_site_label
_atom_site_type_symbol
_atom_site_fract_x
_atom_site_fract_y
_atom_site_fract_z
O1 O 0.56369(10) -0.13923(8) 0.36689(7)
O2 O 0.61673(8) 0.30662(7) 0.21139(6)
O3 O 0.70178(7) 0.17637(7) 0.03819(5)
O4 O 1.13223(8) 0.01941(7) 0.19476(6)
O5 O 1.02241(8) 0.00373(7) 0.33903(6)
N1 N 0.60176(9) 0.08767(8) 0.29574(6)
N2 N 0.98015(8) 0.26379(8) 0.11623(6)
C1 C 0.71382(9) -0.05589(9) 0.12763(7)
C2 C 0.75196(10) -0.12948(9) 0.03755(7)
H1 H 0.7913 -0.0729 -0.0126
C3 C 0.73110(11) -0.28759(10) 0.02283(8)
H2 H 0.7556 -0.3364 -0.0378
C4 C 0.67396(11) -0.37359(10) 0.09800(8)
H3 H 0.6621 -0.4792 0.0884
C5 C 0.63485(10) -0.30090(9) 0.18736(7)
H4 H 0.5961 -0.3578 0.2376
C6 C 0.65376(10) -0.14210(9) 0.20173(7)
C7 C 0.60524(10) -0.06867(10) 0.29540(7)
C8 C 0.64684(9) 0.17845(9) 0.21858(7)
C9 C 0.74719(9) 0.11548(9) 0.15004(7)
C10 C 0.94372(9) 0.18962(9) 0.21130(7)
C11 C 0.84438(10) 0.25402(9) 0.02944(7)
C12 C 0.81958(11) 0.31809(10) -0.08488(7)
H5 H 0.9226 0.3774 -0.0823
H6 H 0.7366 0.3818 -0.0976
H7 H 0.7834 0.2365 -0.1486
C13 C 0.98781(9) 0.30600(9) 0.32243(7)
H8 H 0.9391 0.3950 0.2979
H9 H 0.9362 0.2612 0.3753
C14 C 1.17540(9) 0.35881(9) 0.39278(7)
H10 H 1.2278 0.2682 0.4053
C15 C 1.19883(11) 0.43954(11) 0.51412(8)
H11 H 1.3156 0.4677 0.5597
H12 H 1.1464 0.3723 0.5551
H13 H 1.1492 0.5293 0.5039
C16 C 1.26352(11) 0.46363(11) 0.32908(8)
H14 H 1.3776 0.4980 0.3794
H15 H 1.2091 0.5499 0.3110
H16 H 1.2593 0.4089 0.2568
C17 C 1.04488(9) 0.06210(9) 0.24456(7)
C18 C 1.10003(13) -0.12653(12) 0.37361(10)
H17 H 1.0943 -0.1492 0.4490
H18 H 1.2145 -0.1044 0.3798
H19 H 1.0429 -0.2127 0.3151
C19 C 0.52591(11) 0.15905(10) 0.37250(8)
H20 H 0.6016 0.2477 0.4198
H21 H 0.5024 0.0878 0.4235
H22 H 0.4243 0.1883 0.3243
loop_
_geom_bond_atom_site_label_1
_geom_bond_atom_site_label_2
_geom_bond_site_symmetry_1
_geom_bond_site_symmetry_2
O1 C7 1_555 1_555
O2 C8 1_555 1_555
O3 C9 1_555 1_555
O4 C17 1_555 1_555
O5 C17 1_555 1_555
N1 C7 1_555 1_555
N2 C10 1_555 1_555
C1 C2 1_555 1_555
C2 H1 1_555 1_555
C3 C2 1_555 1_555
H2 C3 1_555 1_555
C4 C3 1_555 1_555
H3 C4 1_555 1_555
C5 C4 1_555 1_555
H4 C5 1_555 1_555
C6 C1 1_555 1_555
C7 C6 1_555 1_555
C8 N1 1_555 1_555
C9 C1 1_555 1_555
C10 C9 1_555 1_555
C11 O3 1_555 1_555
C12 C11 1_555 1_555
H5 C12 1_555 1_555
H6 C12 1_555 1_555
H7 C12 1_555 1_555
C13 C10 1_555 1_555
H8 C13 1_555 1_555
H9 C13 1_555 1_555
C14 C13 1_555 1_555
H10 C14 1_555 1_555
C15 C14 1_555 1_555
H11 C15 1_555 1_555
H12 C15 1_555 1_555
H13 C15 1_555 1_555
C16 C14 1_555 1_555
H14 C16 1_555 1_555
H15 C16 1_555 1_555
H16 C16 1_555 1_555
C17 C10 1_555 1_555
C18 O5 1_555 1_555
H17 C18 1_555 1_555
H18 C18 1_555 1_555
H19 C18 1_555 1_555
C19 N1 1_555 1_555
H20 C19 1_555 1_555
H21 C19 1_555 1_555
H22 C19 1_555 1_555
N2 C11 1_555 1_555
C5 C6 1_555 1_555
C8 C9 1_555 1_555

#END
