
#######################################################################
#
#                 Cambridge Crystallographic Data Centre
#                                CCDC 
#
#######################################################################
#
# If this CIF has been generated from an entry in the Cambridge 
# Structural Database, then it will include bibliographic, chemical, 
# crystal, experimental, refinement or atomic coordinate data resulting 
# from the CCDC's data processing and validation procedures.
#
#######################################################################

data_USOPUO
_chemical_formula_moiety         'C30 H24 Cl4 N6 O4'
_chemical_name_systematic        
1,4,15,20-Tetrachloro-31,31,32,32-tetramethoxy-6,8,13,22,27,29-hexaazanonacyclo[18.10.1.1^4,15^.0^2,19^.0^3,16^.0^5,14^.0^7,12^.0^21,30^.0^23,28^]dotriaconta-5(14),6,8,10,12,17,21(30),22,24,26,28-undecaene
_symmetry_cell_setting           monoclinic
_symmetry_space_group_name_H-M   'P 21/n'
_symmetry_Int_Tables_number      14
_space_group_name_Hall           '-P 2yn'
loop_
_symmetry_equiv_pos_site_id
_symmetry_equiv_pos_as_xyz
1 x,y,z
2 1/2-x,1/2+y,1/2-z
3 -x,-y,-z
4 1/2+x,1/2-y,1/2+z
_cell_length_a                   13.5230(10)
_cell_length_b                   15.6055(12)
_cell_length_c                   15.0180(12)
_cell_angle_alpha                90
_cell_angle_beta                 113.2470(10)
_cell_angle_gamma                90
_cell_volume                     2911.99
_exptl_crystal_colour            yellow
_exptl_crystal_description       cubic
_cell_formula_units_Z            4
loop_
_atom_site_label
_atom_site_type_symbol
_atom_site_fract_x
_atom_site_fract_y
_atom_site_fract_z
C1 C 0.00996(11) 0.64226(9) 0.67880(10)
C2 C 0.04890(11) 0.54688(9) 0.69970(10)
C3 C 0.08317(11) 0.54484(9) 0.80782(10)
C4 C 0.11908(11) 0.50401(9) 0.96017(11)
C5 C 0.11840(13) 0.44213(12) 1.02753(12)
H1 H 0.0970 0.3862 1.0082
C6 C 0.14982(15) 0.46590(14) 1.12195(13)
H2 H 0.1502 0.4262 1.1683
C7 C 0.18137(16) 0.55022(14) 1.14857(13)
H3 H 0.2003 0.5652 1.2132
C8 C 0.15693(12) 0.58739(10) 0.99435(11)
C9 C 0.12772(11) 0.62752(9) 0.84256(10)
C10 C 0.12030(11) 0.67740(8) 0.75440(10)
C11 C 0.20041(10) 0.63963(8) 0.71320(9)
H4 H 0.1898 0.6716 0.6539
C12 C 0.31877(10) 0.64982(8) 0.78106(9)
H5 H 0.3226 0.6945 0.8281
C13 C 0.39234(11) 0.67846(9) 0.72863(10)
C14 C 0.39236(11) 0.60870(9) 0.65927(10)
C15 C 0.36202(12) 0.53028(11) 0.52590(11)
C16 C 0.33270(17) 0.45244(17) 0.38883(14)
H6 H 0.3032 0.4482 0.3216
C17 C 0.38812(17) 0.38302(15) 0.44055(15)
H7 H 0.3941 0.3337 0.4083
C18 C 0.43449(16) 0.38641(12) 0.53930(14)
H8 H 0.4728 0.3401 0.5755
C19 C 0.42243(13) 0.46223(10) 0.58434(11)
C20 C 0.45379(11) 0.53970(9) 0.71790(10)
C21 C 0.48611(11) 0.56766(10) 0.82133(9)
C22 C 0.50729(11) 0.66481(10) 0.81159(10)
C23 C 0.37911(11) 0.56959(9) 0.83962(9)
H9 H 0.3967 0.5789 0.9087
C24 C 0.32124(12) 0.48635(10) 0.80918(11)
H10 H 0.3547 0.4377 0.8437
C25 C 0.22671(12) 0.47616(9) 0.73740(11)
H11 H 0.2025 0.4204 0.7201
C26 C 0.15533(11) 0.54766(9) 0.68159(10)
H12 H 0.1382 0.5401 0.6123
C27 C -0.10349(16) 0.65283(15) 0.50789(14)
H13 H -0.1603 0.6892 0.5088
H14 H -0.1215 0.5941 0.5131
H15 H -0.0944 0.6610 0.4482
C28 C -0.12251(16) 0.73698(14) 0.69558(18)
H16 H -0.1045 0.7700 0.6501
H17 H -0.0929 0.7641 0.7580
H18 H -0.1994 0.7336 0.6739
C29 C 0.61411(16) 0.71257(16) 0.97383(14)
H19 H 0.6691 0.6873 0.9570
H20 H 0.6038 0.6783 1.0226
H21 H 0.6355 0.7694 0.9984
C30 C 0.62817(17) 0.75760(14) 0.77336(18)
H22 H 0.6154 0.7954 0.8181
H23 H 0.5882 0.7771 0.7083
H24 H 0.7036 0.7572 0.7863
Cl1 Cl 0.13320(3) 0.78898(2) 0.77080(3)
Cl2 Cl 0.36288(3) 0.78140(2) 0.67781(3)
Cl3 Cl -0.04284(3) 0.46614(3) 0.63692(3)
Cl4 Cl 0.58854(3) 0.50546(3) 0.90599(3)
N1 N 0.07984(10) 0.48262(8) 0.86352(9)
N2 N 0.16351(10) 0.65090(8) 0.93275(9)
N3 N 0.18630(13) 0.61050(11) 1.08854(10)
N4 N 0.47046(11) 0.46733(8) 0.68428(9)
N5 N 0.34611(10) 0.60627(9) 0.56527(9)
N6 N 0.31797(12) 0.52521(12) 0.42749(10)
O1 O -0.07859(8) 0.65184(8) 0.70260(9)
O2 O -0.00513(8) 0.67412(8) 0.58796(8)
O3 O 0.51470(9) 0.71664(8) 0.88892(8)
O4 O 0.59411(8) 0.67220(8) 0.78436(9)
loop_
_geom_bond_atom_site_label_1
_geom_bond_atom_site_label_2
_geom_bond_site_symmetry_1
_geom_bond_site_symmetry_2
C1 C2 1_555 1_555
C2 C3 1_555 1_555
C3 C9 1_555 1_555
C4 C5 1_555 1_555
C5 H1 1_555 1_555
C6 C5 1_555 1_555
H2 C6 1_555 1_555
C7 C6 1_555 1_555
H3 C7 1_555 1_555
C8 C4 1_555 1_555
C9 C10 1_555 1_555
C10 C1 1_555 1_555
C11 C10 1_555 1_555
H4 C11 1_555 1_555
C12 C11 1_555 1_555
H5 C12 1_555 1_555
C13 C12 1_555 1_555
C14 C13 1_555 1_555
C15 C19 1_555 1_555
C16 H6 1_555 1_555
C17 C16 1_555 1_555
H7 C17 1_555 1_555
C18 C17 1_555 1_555
H8 C18 1_555 1_555
C19 C18 1_555 1_555
C20 C14 1_555 1_555
C21 C20 1_555 1_555
C22 C13 1_555 1_555
C23 C12 1_555 1_555
H9 C23 1_555 1_555
C24 C23 1_555 1_555
H10 C24 1_555 1_555
C25 C24 1_555 1_555
H11 C25 1_555 1_555
C26 C2 1_555 1_555
H12 C26 1_555 1_555
C27 H13 1_555 1_555
H14 C27 1_555 1_555
H15 C27 1_555 1_555
C28 H16 1_555 1_555
H17 C28 1_555 1_555
H18 C28 1_555 1_555
C29 H19 1_555 1_555
H20 C29 1_555 1_555
H21 C29 1_555 1_555
C30 H22 1_555 1_555
H23 C30 1_555 1_555
H24 C30 1_555 1_555
Cl1 C10 1_555 1_555
Cl2 C13 1_555 1_555
Cl3 C2 1_555 1_555
Cl4 C21 1_555 1_555
N1 C3 1_555 1_555
N2 C8 1_555 1_555
N3 C7 1_555 1_555
N4 C19 1_555 1_555
N5 C14 1_555 1_555
N6 C15 1_555 1_555
O1 C1 1_555 1_555
O2 C1 1_555 1_555
O3 C22 1_555 1_555
O4 C22 1_555 1_555
C4 N1 1_555 1_555
C8 N3 1_555 1_555
C9 N2 1_555 1_555
C11 C26 1_555 1_555
C15 N5 1_555 1_555
C16 N6 1_555 1_555
C20 N4 1_555 1_555
C21 C22 1_555 1_555
C21 C23 1_555 1_555
C25 C26 1_555 1_555
C27 O2 1_555 1_555
C28 O1 1_555 1_555
C29 O3 1_555 1_555
C30 O4 1_555 1_555

#END
