
#######################################################################
#
#                 Cambridge Crystallographic Data Centre
#                                CCDC 
#
#######################################################################
#
# If this CIF has been generated from an entry in the Cambridge 
# Structural Database, then it will include bibliographic, chemical, 
# crystal, experimental, refinement or atomic coordinate data resulting 
# from the CCDC's data processing and validation procedures.
#
#######################################################################

data_USOQID
_chemical_formula_moiety         'C34 H32 Cl4 N4 O4,C1 H2 Cl2'
_chemical_name_systematic        
'1,6,17,22-Tetrachloro-33,33,34,34-tetramethoxy-8,15,24,31-tetraazanonacyclo[20.10.1.1^6,17^.0^2,21^.0^5,18^.0^7,16^.0^9,14^.0^23,32^.0^25,30^]tetratriaconta-7(16),8,10,12,14,23(32),24,26,28,30-decaene dichloromethane solvate'
_symmetry_cell_setting           monoclinic
_symmetry_space_group_name_H-M   'P 21/c'
_symmetry_Int_Tables_number      14
_space_group_name_Hall           '-P 2ybc'
loop_
_symmetry_equiv_pos_site_id
_symmetry_equiv_pos_as_xyz
1 x,y,z
2 -x,1/2+y,1/2-z
3 -x,-y,-z
4 x,1/2-y,1/2+z
_cell_length_a                   11.8176(5)
_cell_length_b                   12.8470(6)
_cell_length_c                   23.9534(11)
_cell_angle_alpha                90
_cell_angle_beta                 102.6280(10)
_cell_angle_gamma                90
_cell_volume                     3548.65
_cell_formula_units_Z            4
_exptl_crystal_recrystallization_method dichloromethane/ethanol
loop_
_atom_site_label
_atom_site_type_symbol
_atom_site_fract_x
_atom_site_fract_y
_atom_site_fract_z
C1 C 0.97885(13) 0.85618(12) 0.32960(6)
C2 C 0.95770(13) 0.90139(12) 0.38707(6)
C3 C 0.89556(12) 0.79920(11) 0.40027(6)
C4 C 0.98855(12) 0.72092(12) 0.39571(6)
C5 C 1.04037(12) 0.75694(12) 0.35068(7)
C6 C 1.15657(14) 0.61690(14) 0.36223(8)
C7 C 1.24859(16) 0.55993(16) 0.34812(10)
H1 H 1.2822 0.5823 0.3186
C8 C 1.28797(19) 0.47225(18) 0.37790(12)
H2 H 1.3500 0.4360 0.3691
C9 C 1.2366(2) 0.43587(17) 0.42142(12)
H3 H 1.2640 0.3749 0.4407
C10 C 1.14616(18) 0.48869(15) 0.43637(10)
H4 H 1.1123 0.4636 0.4653
C11 C 1.10559(14) 0.58143(13) 0.40712(8)
C12 C 0.85318(12) 0.82809(11) 0.29720(6)
H5 H 0.8139 0.8926 0.2822
C13 C 0.85314(13) 0.75519(12) 0.24689(6)
H6 H 0.8763 0.6862 0.2616
H7 H 0.9104 0.7794 0.2264
C14 C 0.73484(13) 0.74749(11) 0.20477(6)
H8 H 0.6795 0.7909 0.2185
H9 H 0.7422 0.7744 0.1679
C15 C 0.68825(11) 0.63708(10) 0.19710(6)
H10 H 0.7517 0.5921 0.1914
C16 C 0.63829(11) 0.58864(10) 0.24730(6)
H11 H 0.6862 0.5284 0.2624
C17 C 0.63061(12) 0.65992(12) 0.29759(6)
H12 H 0.5747 0.6308 0.3175
H13 H 0.6016 0.7273 0.2826
C18 C 0.74666(13) 0.67609(12) 0.34112(6)
H14 H 0.7365 0.6542 0.3785
H15 H 0.8041 0.6305 0.3307
C19 C 0.79537(12) 0.78696(11) 0.34645(6)
H16 H 0.7328 0.8349 0.3501
C20 C 0.58662(11) 0.62358(10) 0.14422(6)
C21 C 0.54164(11) 0.51214(11) 0.15608(6)
C22 C 0.51777(11) 0.54808(10) 0.21534(6)
C23 C 0.43910(11) 0.63919(11) 0.19488(6)
C24 C 0.48434(11) 0.68790(11) 0.15108(6)
C25 C 0.29036(13) 0.75216(13) 0.17889(6)
C26 C 0.18306(15) 0.78587(17) 0.18934(8)
H17 H 0.1526 0.7548 0.2179
C27 C 0.12420(17) 0.86493(18) 0.15684(9)
H18 H 0.0526 0.8859 0.1630
C28 C 0.16946(17) 0.91409(17) 0.11493(9)
H19 H 0.1280 0.9675 0.0935
C29 C 0.27445(17) 0.88472(15) 0.10480(8)
H20 H 0.3050 0.9192 0.0773
C30 C 0.33619(13) 0.80182(12) 0.13624(7)
C31 C 0.86481(18) 1.04895(15) 0.42054(8)
H21 H 0.7889 1.0308 0.4256
H22 H 0.8671 1.1219 0.4122
H23 H 0.9212 1.0336 0.4549
C32 C 1.13991(16) 0.98908(16) 0.42319(8)
H24 H 1.1851 0.9607 0.3980
H25 H 1.1899 1.0055 0.4594
H26 H 1.1015 1.0512 0.4066
C33 C 0.61370(16) 0.33697(12) 0.17179(8)
H27 H 0.6099 0.3332 0.2114
H28 H 0.6769 0.2949 0.1655
H29 H 0.5423 0.3119 0.1484
C34 C 0.43408(15) 0.45746(15) 0.06339(7)
H30 H 0.4166 0.5199 0.0412
H31 H 0.3758 0.4060 0.0496
H32 H 0.5085 0.4315 0.0600
Cl1 Cl 0.62964(3) 0.64364(3) 0.078721(15)
Cl2 Cl 0.45555(3) 0.45597(3) 0.254577(17)
Cl3 Cl 0.85166(4) 0.79394(3) 0.466202(16)
Cl4 Cl 1.04933(4) 0.93754(4) 0.288249(18)
N1 N 1.12191(11) 0.70730(11) 0.33246(6)
N2 N 1.01722(11) 0.63509(10) 0.42433(6)
N3 N 0.34484(10) 0.66867(10) 0.21050(5)
N4 N 0.43782(11) 0.76955(10) 0.12204(5)
O1 O 0.89057(10) 0.99022(9) 0.37411(5)
O2 O 1.05495(9) 0.91408(9) 0.43149(5)
O3 O 0.63174(8) 0.44326(7) 0.15692(5)
O4 O 0.43620(9) 0.47986(8) 0.12231(4)
C35 C 0.5667(2) 0.15623(18) 0.01053(10)
H33 H 0.5286 0.1618 -0.0296
H34 H 0.6102 0.0916 0.0156
Cl5 Cl 0.66306(6) 0.26049(6) 0.02859(3)
Cl6 Cl 0.46157(7) 0.15156(7) 0.05133(3)
loop_
_geom_bond_atom_site_label_1
_geom_bond_atom_site_label_2
_geom_bond_site_symmetry_1
_geom_bond_site_symmetry_2
C1 C2 1_555 1_555
C2 C3 1_555 1_555
C3 C4 1_555 1_555
C4 C5 1_555 1_555
C5 C1 1_555 1_555
C6 C7 1_555 1_555
C7 H1 1_555 1_555
C8 C7 1_555 1_555
H2 C8 1_555 1_555
C9 C8 1_555 1_555
H3 C9 1_555 1_555
C10 C9 1_555 1_555
H4 C10 1_555 1_555
C11 C6 1_555 1_555
C12 C1 1_555 1_555
H5 C12 1_555 1_555
C13 C12 1_555 1_555
H6 C13 1_555 1_555
H7 C13 1_555 1_555
C14 C13 1_555 1_555
H8 C14 1_555 1_555
H9 C14 1_555 1_555
C15 C14 1_555 1_555
H10 C15 1_555 1_555
C16 C15 1_555 1_555
H11 C16 1_555 1_555
C17 C16 1_555 1_555
H12 C17 1_555 1_555
H13 C17 1_555 1_555
C18 C17 1_555 1_555
H14 C18 1_555 1_555
H15 C18 1_555 1_555
C19 C3 1_555 1_555
H16 C19 1_555 1_555
C20 C15 1_555 1_555
C21 C20 1_555 1_555
C22 C16 1_555 1_555
C23 C22 1_555 1_555
C24 C20 1_555 1_555
C25 C26 1_555 1_555
C26 H17 1_555 1_555
C27 C26 1_555 1_555
H18 C27 1_555 1_555
C28 C27 1_555 1_555
H19 C28 1_555 1_555
C29 C28 1_555 1_555
H20 C29 1_555 1_555
C30 C25 1_555 1_555
C31 H21 1_555 1_555
H22 C31 1_555 1_555
H23 C31 1_555 1_555
C32 H24 1_555 1_555
H25 C32 1_555 1_555
H26 C32 1_555 1_555
C33 H27 1_555 1_555
H28 C33 1_555 1_555
H29 C33 1_555 1_555
C34 H30 1_555 1_555
H31 C34 1_555 1_555
H32 C34 1_555 1_555
Cl1 C20 1_555 1_555
Cl2 C22 1_555 1_555
Cl3 C3 1_555 1_555
Cl4 C1 1_555 1_555
N1 C5 1_555 1_555
N2 C4 1_555 1_555
N3 C23 1_555 1_555
N4 C24 1_555 1_555
O1 C2 1_555 1_555
O2 C2 1_555 1_555
O3 C21 1_555 1_555
O4 C21 1_555 1_555
C35 H33 1_555 1_555
H34 C35 1_555 1_555
Cl5 C35 1_555 1_555
Cl6 C35 1_555 1_555
C6 N1 1_555 1_555
C10 C11 1_555 1_555
C11 N2 1_555 1_555
C12 C19 1_555 1_555
C18 C19 1_555 1_555
C21 C22 1_555 1_555
C23 C24 1_555 1_555
C25 N3 1_555 1_555
C29 C30 1_555 1_555
C30 N4 1_555 1_555
C31 O1 1_555 1_555
C32 O2 1_555 1_555
C33 O3 1_555 1_555
C34 O4 1_555 1_555

#END
