
#######################################################################
#
#                 Cambridge Crystallographic Data Centre
#                                CCDC 
#
#######################################################################
#
# If this CIF has been generated from an entry in the Cambridge 
# Structural Database, then it will include bibliographic, chemical, 
# crystal, experimental, refinement or atomic coordinate data resulting 
# from the CCDC's data processing and validation procedures.
#
#######################################################################

data_USOQAV
_chemical_formula_moiety         'C40 H30 Cl4 N4 O4,2(C1 H1 Cl3)'
_chemical_name_systematic        
'1,4,19,24-Tetrachloro-39,39,40,40-tetramethoxy-6,17,26,37-tetraazaundecacyclo[22.14.1.1^4,19^.0^2,23^.0^3,20^.0^5,18^.0^7,16^.0^9,14^.0^25,38^.0^27,36^.0^29,34^]tetraconta-5(18),6,8,10,12,14,16,21,25(38),26,28,30,32,34,36-pentadecaene chloroform solvate'
_symmetry_cell_setting           monoclinic
_symmetry_space_group_name_H-M   'C 2/c'
_symmetry_Int_Tables_number      15
_space_group_name_Hall           '-C 2yn'
loop_
_symmetry_equiv_pos_site_id
_symmetry_equiv_pos_as_xyz
1 x,y,z
2 -x,y,1/2-z
3 1/2+x,1/2+y,z
4 1/2-x,1/2+y,1/2-z
5 -x,-y,-z
6 x,-y,1/2+z
7 1/2-x,1/2-y,-z
8 1/2+x,1/2-y,1/2+z
_cell_length_a                   23.6348(19)
_cell_length_b                   8.1528(6)
_cell_length_c                   23.8433(19)
_cell_angle_alpha                90
_cell_angle_beta                 107.666(2)
_cell_angle_gamma                90
_cell_volume                     4377.7
_exptl_crystal_colour            yellow
_exptl_crystal_description       plane
_cell_formula_units_Z            4
loop_
_atom_site_label
_atom_site_type_symbol
_atom_site_fract_x
_atom_site_fract_y
_atom_site_fract_z
C1 C 0.4748(3) 0.6873(6) 0.2580(2)
H1 H 0.4602 0.5868 0.2658
C2 C 0.4415(2) 0.8377(6) 0.2638(2)
H2 H 0.4372 0.8407 0.3034
C3 C 0.4682(2) 1.0025(6) 0.2517(2)
H3 H 0.4674 1.0775 0.2836
C4 C 0.4207(2) 1.0636(6) 0.1954(2)
C5 C 0.4179(2) 0.9438(6) 0.1462(2)
C6 C 0.3881(2) 0.7982(6) 0.1591(2)
C7 C 0.3782(2) 0.8354(7) 0.2175(2)
C8 C 0.3625(2) 1.0207(7) 0.2096(3)
C9 C 0.4282(3) 0.8166(8) 0.0666(2)
C10 C 0.4482(3) 0.8127(10) 0.0172(3)
H4 H 0.4683 0.9034 0.0093
C11 C 0.4392(4) 0.6796(12) -0.0203(3)
C12 C 0.4616(4) 0.6709(15) -0.0700(3)
H5 H 0.4830 0.7576 -0.0788
C13 C 0.4510(5) 0.5341(19) -0.1035(4)
H6 H 0.4651 0.5290 -0.1358
C14 C 0.4189(5) 0.3966(19) -0.0914(4)
H7 H 0.4117 0.3046 -0.1156
C15 C 0.4009(4) 0.4039(14) -0.0477(3)
H8 H 0.3812 0.3125 -0.0396
C16 C 0.4081(3) 0.5427(10) -0.0081(3)
C17 C 0.3883(3) 0.5402(9) 0.0422(3)
H9 H 0.3691 0.4483 0.0507
C18 C 0.3979(2) 0.6753(7) 0.0784(2)
C19 C 0.2570(3) 1.0199(12) 0.1643(5)
H10 H 0.2572 0.9092 0.1781
H11 H 0.2289 1.0295 0.1258
H12 H 0.2460 1.0930 0.1908
C20 C 0.3443(3) 1.2502(10) 0.2657(4)
H13 H 0.3804 1.3130 0.2759
H14 H 0.3242 1.2677 0.2946
H15 H 0.3192 1.2842 0.2278
Cl1 Cl 0.43007(7) 1.26841(17) 0.17633(7)
Cl2 Cl 0.32946(7) 0.7006(2) 0.23756(8)
N1 N 0.4378(2) 0.9551(6) 0.10183(19)
N2 N 0.3777(2) 0.6696(6) 0.1277(2)
O1 O 0.31493(17) 1.0616(6) 0.1619(2)
O2 O 0.35836(18) 1.0770(5) 0.26386(18)
C1A C 0.5252(3) 0.6873(6) 0.2420(2)
H1A H 0.5398 0.5868 0.2342
C2A C 0.5585(2) 0.8377(6) 0.2362(2)
H2A H 0.5628 0.8407 0.1966
C3A C 0.5318(2) 1.0025(6) 0.2483(2)
H3A H 0.5326 1.0775 0.2164
C4A C 0.5793(2) 1.0636(6) 0.3046(2)
C5A C 0.5821(2) 0.9438(6) 0.3538(2)
C6A C 0.6119(2) 0.7982(6) 0.3409(2)
C7A C 0.6218(2) 0.8354(7) 0.2825(2)
C8A C 0.6375(2) 1.0207(7) 0.2904(3)
C9A C 0.5718(3) 0.8166(8) 0.4334(2)
C10A C 0.5518(3) 0.8127(10) 0.4828(3)
H4A H 0.5317 0.9034 0.4907
C11A C 0.5608(4) 0.6796(12) 0.5203(3)
C12A C 0.5384(4) 0.6709(15) 0.5700(3)
H5A H 0.5170 0.7576 0.5788
C13A C 0.5490(5) 0.5341(19) 0.6035(4)
H6A H 0.5349 0.5290 0.6358
C14A C 0.5811(5) 0.3966(19) 0.5914(4)
H7A H 0.5883 0.3046 0.6156
C15A C 0.5991(4) 0.4039(14) 0.5477(3)
H8A H 0.6188 0.3125 0.5396
C16A C 0.5919(3) 0.5427(10) 0.5081(3)
C17A C 0.6117(3) 0.5402(9) 0.4578(3)
H9A H 0.6309 0.4483 0.4493
C18A C 0.6021(2) 0.6753(7) 0.4216(2)
C19A C 0.7430(3) 1.0199(12) 0.3357(5)
H10A H 0.7428 0.9092 0.3219
H11A H 0.7711 1.0295 0.3742
H12A H 0.7540 1.0930 0.3092
C20A C 0.6557(3) 1.2502(10) 0.2343(4)
H13A H 0.6196 1.3130 0.2241
H14A H 0.6758 1.2677 0.2054
H15A H 0.6808 1.2842 0.2722
Cl1A Cl 0.56993(7) 1.26841(17) 0.32367(7)
Cl2A Cl 0.67054(7) 0.7006(2) 0.26244(8)
N1A N 0.5622(2) 0.9551(6) 0.39817(19)
N2A N 0.6223(2) 0.6696(6) 0.3723(2)
O1A O 0.68507(17) 1.0616(6) 0.3381(2)
O2A O 0.64164(18) 1.0770(5) 0.23614(18)
C21 C 0.2396(5) 0.5218(13) 0.0869(7)
H16 H 0.2806 0.5338 0.1123
Cl3 Cl 0.2189(2) 0.7079(7) 0.0571(3)
Cl4 Cl 0.1960(2) 0.4775(6) 0.1350(2)
Cl5 Cl 0.2391(5) 0.3681(9) 0.0472(6)
loop_
_geom_bond_atom_site_label_1
_geom_bond_atom_site_label_2
_geom_bond_site_symmetry_1
_geom_bond_site_symmetry_2
C1 H1 1_555 1_555
C2 C1 1_555 1_555
H2 C2 1_555 1_555
C3 C2 1_555 1_555
H3 C3 1_555 1_555
C4 C3 1_555 1_555
C5 C4 1_555 1_555
C6 C5 1_555 1_555
C7 C2 1_555 1_555
C8 C4 1_555 1_555
C9 C10 1_555 1_555
C10 H4 1_555 1_555
C11 C10 1_555 1_555
C12 C11 1_555 1_555
H5 C12 1_555 1_555
C13 C12 1_555 1_555
H6 C13 1_555 1_555
C14 C13 1_555 1_555
H7 C14 1_555 1_555
C15 C14 1_555 1_555
H8 C15 1_555 1_555
C16 C11 1_555 1_555
C17 C16 1_555 1_555
H9 C17 1_555 1_555
C18 C9 1_555 1_555
C19 H10 1_555 1_555
H11 C19 1_555 1_555
H12 C19 1_555 1_555
C20 H13 1_555 1_555
H14 C20 1_555 1_555
H15 C20 1_555 1_555
C21 H16 1_555 1_555
Cl1 C4 1_555 1_555
Cl2 C7 1_555 1_555
Cl3 C21 1_555 1_555
Cl4 C21 1_555 1_555
Cl5 C21 1_555 1_555
N1 C5 1_555 1_555
N2 C6 1_555 1_555
O1 C8 1_555 1_555
O2 C8 1_555 1_555
C1A C1 1_555 1_555
H1A C1A 1_555 1_555
C2A C1A 1_555 1_555
H2A C2A 1_555 1_555
C3A C3 1_555 1_555
H3A C3A 1_555 1_555
C4A C3A 1_555 1_555
C5A C4A 1_555 1_555
C6A C5A 1_555 1_555
C7A C2A 1_555 1_555
C8A C4A 1_555 1_555
C9A C10A 1_555 1_555
C10A H4A 1_555 1_555
C11A C10A 1_555 1_555
C12A C11A 1_555 1_555
H5A C12A 1_555 1_555
C13A C12A 1_555 1_555
H6A C13A 1_555 1_555
C14A C13A 1_555 1_555
H7A C14A 1_555 1_555
C15A C14A 1_555 1_555
H8A C15A 1_555 1_555
C16A C11A 1_555 1_555
C17A C16A 1_555 1_555
H9A C17A 1_555 1_555
C18A C9A 1_555 1_555
C19A H10A 1_555 1_555
H11A C19A 1_555 1_555
H12A C19A 1_555 1_555
C20A H13A 1_555 1_555
H14A C20A 1_555 1_555
H15A C20A 1_555 1_555
Cl1A C4A 1_555 1_555
Cl2A C7A 1_555 1_555
N1A C5A 1_555 1_555
N2A C6A 1_555 1_555
O1A C8A 1_555 1_555
O2A C8A 1_555 1_555
C6 C7 1_555 1_555
C7 C8 1_555 1_555
C9 N1 1_555 1_555
C15 C16 1_555 1_555
C17 C18 1_555 1_555
C18 N2 1_555 1_555
C19 O1 1_555 1_555
C20 O2 1_555 1_555
C2A C3A 1_555 1_555
C6A C7A 1_555 1_555
C7A C8A 1_555 1_555
C9A N1A 1_555 1_555
C15A C16A 1_555 1_555
C17A C18A 1_555 1_555
C18A N2A 1_555 1_555
C19A O1A 1_555 1_555
C20A O2A 1_555 1_555

#END
