
#######################################################################
#
#                 Cambridge Crystallographic Data Centre
#                                CCDC 
#
#######################################################################
#
# If this CIF has been generated from an entry in the Cambridge 
# Structural Database, then it will include bibliographic, chemical, 
# crystal, experimental, refinement or atomic coordinate data resulting 
# from the CCDC's data processing and validation procedures.
#
#######################################################################

data_USOSOL
_chemical_formula_moiety         'C24 H25 N1 O3'
_chemical_name_systematic        
1,1'-(5-Benzoyl-1-methyl-6-(4-methylphenyl)-1,2,3,4-tetrahydropyridine-3,3-diyl)diethanone
_symmetry_cell_setting           monoclinic
_symmetry_space_group_name_H-M   'P 21/n'
_symmetry_Int_Tables_number      14
_space_group_name_Hall           '-P 2yn'
loop_
_symmetry_equiv_pos_site_id
_symmetry_equiv_pos_as_xyz
1 x,y,z
2 1/2-x,1/2+y,1/2-z
3 -x,-y,-z
4 1/2+x,1/2-y,1/2+z
_cell_length_a                   6.1835(12)
_cell_length_b                   26.950(5)
_cell_length_c                   12.243(2)
_cell_angle_alpha                90
_cell_angle_beta                 103.52(3)
_cell_angle_gamma                90
_cell_volume                     1983.7
_exptl_crystal_colour            colorless
_exptl_crystal_description       block
_cell_formula_units_Z            4
loop_
_atom_site_label
_atom_site_type_symbol
_atom_site_fract_x
_atom_site_fract_y
_atom_site_fract_z
C1 C 0.5423(3) 0.11500(8) 0.32607(18)
C2 C 0.4900(4) 0.09632(7) 0.20871(18)
C3 C 0.6352(4) 0.10226(9) 0.1389(2)
H1 H 0.7739 0.1166 0.1669
C4 C 0.5758(5) 0.08704(10) 0.0279(2)
H2 H 0.6742 0.0920 -0.0180
C5 C 0.3730(5) 0.06460(9) -0.0161(2)
C6 C 0.2311(5) 0.05773(9) 0.0545(2)
H3 H 0.0944 0.0424 0.0272
C7 C 0.2888(4) 0.07327(8) 0.1654(2)
H4 H 0.1906 0.0681 0.2114
C8 C 0.3073(7) 0.04858(13) -0.1376(2)
H5 H 0.2075 0.0208 -0.1449
H6 H 0.4378 0.0391 -0.1623
H7 H 0.2347 0.0756 -0.1829
C9 C 0.4071(4) 0.14843(8) 0.36283(18)
C10 C 0.4233(4) 0.15789(8) 0.48657(19)
H8 H 0.2812 0.1504 0.5035
H9 H 0.4542 0.1928 0.5024
C11 C 0.6042(4) 0.12686(8) 0.56277(18)
C12 C 0.7989(4) 0.12177(9) 0.50567(19)
H10 H 0.8545 0.1544 0.4928
H11 H 0.9189 0.1033 0.5539
C13 C 0.8629(4) 0.05670(9) 0.3739(2)
H12 H 0.7827 0.0385 0.3097
H13 H 0.9034 0.0348 0.4372
H14 H 0.9948 0.0707 0.3578
C14 C 0.2334(4) 0.17635(8) 0.2859(2)
C15 C 0.2685(4) 0.19469(8) 0.17556(19)
C16 C 0.4691(4) 0.21556(9) 0.1683(2)
H15 H 0.5874 0.2163 0.2312
C17 C 0.4942(5) 0.23539(9) 0.0675(2)
H16 H 0.6278 0.2504 0.0640
C18 C 0.3251(5) 0.23310(9) -0.0266(2)
H17 H 0.3445 0.2458 -0.0943
C19 C 0.1255(5) 0.21187(10) -0.0207(2)
H18 H 0.0104 0.2097 -0.0848
C20 C 0.0965(4) 0.19388(9) 0.0805(2)
H19 H -0.0409 0.1810 0.0848
C21 C 0.6849(5) 0.15086(10) 0.6796(2)
C22 C 0.5196(4) 0.07503(9) 0.5850(2)
C23 C 0.5207(6) 0.17565(11) 0.7331(2)
H20 H 0.5717 0.1739 0.8133
H21 H 0.3795 0.1593 0.7103
H22 H 0.5050 0.2098 0.7101
C24 C 0.6828(5) 0.03626(11) 0.6386(3)
H23 H 0.6073 0.0109 0.6705
H24 H 0.7957 0.0511 0.6967
H25 H 0.7502 0.0218 0.5830
N1 N 0.7241(3) 0.09604(7) 0.39951(16)
O1 O 0.0623(3) 0.18917(8) 0.31405(16)
O2 O 0.8796(4) 0.14865(11) 0.7263(2)
O3 O 0.3234(3) 0.06580(7) 0.5632(2)
loop_
_geom_bond_atom_site_label_1
_geom_bond_atom_site_label_2
_geom_bond_site_symmetry_1
_geom_bond_site_symmetry_2
C1 C2 1_555 1_555
C2 C3 1_555 1_555
C3 H1 1_555 1_555
C4 C3 1_555 1_555
H2 C4 1_555 1_555
C5 C4 1_555 1_555
C6 C5 1_555 1_555
H3 C6 1_555 1_555
C7 C2 1_555 1_555
H4 C7 1_555 1_555
C8 C5 1_555 1_555
H5 C8 1_555 1_555
H6 C8 1_555 1_555
H7 C8 1_555 1_555
C9 C1 1_555 1_555
C10 C9 1_555 1_555
H8 C10 1_555 1_555
H9 C10 1_555 1_555
C11 C10 1_555 1_555
C12 C11 1_555 1_555
H10 C12 1_555 1_555
H11 C12 1_555 1_555
C13 H12 1_555 1_555
H13 C13 1_555 1_555
H14 C13 1_555 1_555
C14 C9 1_555 1_555
C15 C14 1_555 1_555
C16 C15 1_555 1_555
H15 C16 1_555 1_555
C17 C16 1_555 1_555
H16 C17 1_555 1_555
C18 C17 1_555 1_555
H17 C18 1_555 1_555
C19 C18 1_555 1_555
H18 C19 1_555 1_555
C20 C15 1_555 1_555
H19 C20 1_555 1_555
C21 C11 1_555 1_555
C22 C11 1_555 1_555
C23 C21 1_555 1_555
H20 C23 1_555 1_555
H21 C23 1_555 1_555
H22 C23 1_555 1_555
C24 C22 1_555 1_555
H23 C24 1_555 1_555
H24 C24 1_555 1_555
H25 C24 1_555 1_555
N1 C1 1_555 1_555
O1 C14 1_555 1_555
O2 C21 1_555 1_555
O3 C22 1_555 1_555
C6 C7 1_555 1_555
C12 N1 1_555 1_555
C13 N1 1_555 1_555
C19 C20 1_555 1_555

#END
