
#######################################################################
#
#                 Cambridge Crystallographic Data Centre
#                                CCDC 
#
#######################################################################
#
# If this CIF has been generated from an entry in the Cambridge 
# Structural Database, then it will include bibliographic, chemical, 
# crystal, experimental, refinement or atomic coordinate data resulting 
# from the CCDC's data processing and validation procedures.
#
#######################################################################

data_USOTAY
_chemical_formula_moiety         'C21 H35 N3 O5'
_chemical_name_systematic        
N-((1-(Cyclohexylcarbamoyl)cyclopropyl)methoxy)-1-((((2,2-dimethylpropanoyl)amino)oxy)methyl)cyclopropanecarboxamide
_symmetry_cell_setting           monoclinic
_symmetry_space_group_name_H-M   'P 21/c'
_symmetry_Int_Tables_number      14
_space_group_name_Hall           '-P 2ybc'
loop_
_symmetry_equiv_pos_site_id
_symmetry_equiv_pos_as_xyz
1 x,y,z
2 -x,1/2+y,1/2-z
3 -x,-y,-z
4 x,1/2-y,1/2+z
_cell_length_a                   11.395(10)
_cell_length_b                   19.923(16)
_cell_length_c                   10.806(9)
_cell_angle_alpha                90
_cell_angle_beta                 112.230(14)
_cell_angle_gamma                90
_cell_volume                     2270.87
_cell_formula_units_Z            4
loop_
_atom_site_label
_atom_site_type_symbol
_atom_site_fract_x
_atom_site_fract_y
_atom_site_fract_z
N1 N 0.5805(3) 0.7138(2) 0.5589(3)
H1 H 0.6007 0.6744 0.5409
N2 N 0.3767(4) 0.8597(2) 0.5874(4)
H2 H 0.4293 0.8409 0.5583
N3 N 0.2419(3) 0.9891(2) 0.7720(3)
H3 H 0.2467 0.9520 0.7335
O1 O 0.6025(3) 0.8246(1) 0.5524(3)
O2 O 0.4827(2) 0.7230(1) 0.6041(2)
O3 O 0.2102(3) 0.8480(2) 0.6482(3)
O4 O 0.3863(3) 0.9299(2) 0.6200(4)
O5 O 0.3413(3) 1.0821(1) 0.8730(3)
C1 C 0.7527(6) 0.6943(2) 0.4322(6)
H4 H 0.7389 0.6558 0.4785
H5 H 0.8302 0.6886 0.4178
H6 H 0.6833 0.6989 0.3476
C2 C 0.8716(4) 0.7497(4) 0.6492(5)
H7 H 0.8770 0.7890 0.7025
H8 H 0.9490 0.7445 0.6343
H9 H 0.8583 0.7109 0.6950
C3 C 0.7825(5) 0.8170(2) 0.4414(5)
H10 H 0.7885 0.8569 0.4933
H11 H 0.7127 0.8212 0.3571
H12 H 0.8597 0.8111 0.4264
C4 C 0.7616(3) 0.7571(2) 0.5160(4)
C5 C 0.6424(3) 0.7686(2) 0.5442(4)
C6 C 0.3645(3) 0.7295(2) 0.4931(4)
H13 H 0.3381 0.6865 0.4497
H14 H 0.3728 0.7609 0.4283
C7 C 0.2697(3) 0.7546(2) 0.5466(4)
C8 C 0.2078(4) 0.7048(2) 0.6072(5)
H15 H 0.2345 0.6583 0.6122
H16 H 0.1862 0.7197 0.6814
C9 C 0.1339(4) 0.7329(2) 0.4729(5)
H17 H 0.0676 0.7650 0.4655
H18 H 0.1160 0.7036 0.3963
C10 C 0.2839(4) 0.8243(2) 0.6036(4)
C11 C 0.4655(4) 0.9330(3) 0.7517(5)
H19 H 0.5515 0.9209 0.7636
H20 H 0.4366 0.9037 0.8062
C12 C 0.4565(4) 1.0097(2) 0.7875(4)
C13 C 0.5799(4) 1.0405(2) 0.8745(5)
H21 H 0.5797 1.0703 0.9453
H22 H 0.6559 1.0134 0.8961
C14 C 0.5179(4) 1.0639(2) 0.7363(5)
H23 H 0.5556 1.0512 0.6729
H24 H 0.4794 1.1081 0.7221
C15 C 0.3426(4) 1.0297(2) 0.8134(4)
C16 C 0.1247(3) 1.0048(2) 0.7892(4)
H25 H 0.1467 1.0259 0.8770
C17 C 0.0502(5) 0.9417(2) 0.7875(6)
H26 H 0.1002 0.9126 0.8604
H27 H 0.0334 0.9178 0.7043
C18 C -0.0747(5) 0.9581(3) 0.8013(7)
H28 H -0.1223 0.9170 0.7947
H29 H -0.0575 0.9774 0.8889
C19 C -0.1518(5) 1.0056(4) 0.6975(7)
H30 H -0.2290 1.0162 0.7113
H31 H -0.1750 0.9852 0.6100
C20 C -0.0783(5) 1.0686(3) 0.7035(7)
H32 H -0.0597 1.0904 0.7891
H33 H -0.1290 1.0991 0.6339
C21 C 0.0448(4) 1.0536(3) 0.6854(5)
H34 H 0.0261 1.0349 0.5971
H35 H 0.0918 1.0949 0.6921
loop_
_geom_bond_atom_site_label_1
_geom_bond_atom_site_label_2
_geom_bond_site_symmetry_1
_geom_bond_site_symmetry_2
N1 H1 1_555 1_555
N2 H2 1_555 1_555
N3 H3 1_555 1_555
O1 C5 1_555 1_555
O2 N1 1_555 1_555
O3 C10 1_555 1_555
O4 N2 1_555 1_555
O5 C15 1_555 1_555
C1 H4 1_555 1_555
H5 C1 1_555 1_555
H6 C1 1_555 1_555
C2 H7 1_555 1_555
H8 C2 1_555 1_555
H9 C2 1_555 1_555
C3 H10 1_555 1_555
H11 C3 1_555 1_555
H12 C3 1_555 1_555
C4 C1 1_555 1_555
C5 N1 1_555 1_555
C6 O2 1_555 1_555
H13 C6 1_555 1_555
H14 C6 1_555 1_555
C7 C6 1_555 1_555
C8 C7 1_555 1_555
H15 C8 1_555 1_555
H16 C8 1_555 1_555
C9 C7 1_555 1_555
H17 C9 1_555 1_555
H18 C9 1_555 1_555
C10 N2 1_555 1_555
C11 O4 1_555 1_555
H19 C11 1_555 1_555
H20 C11 1_555 1_555
C12 C11 1_555 1_555
C13 C12 1_555 1_555
H21 C13 1_555 1_555
H22 C13 1_555 1_555
C14 C12 1_555 1_555
H23 C14 1_555 1_555
H24 C14 1_555 1_555
C15 N3 1_555 1_555
C16 N3 1_555 1_555
H25 C16 1_555 1_555
C17 C16 1_555 1_555
H26 C17 1_555 1_555
H27 C17 1_555 1_555
C18 C17 1_555 1_555
H28 C18 1_555 1_555
H29 C18 1_555 1_555
C19 C18 1_555 1_555
H30 C19 1_555 1_555
H31 C19 1_555 1_555
C20 C19 1_555 1_555
H32 C20 1_555 1_555
H33 C20 1_555 1_555
C21 C16 1_555 1_555
H34 C21 1_555 1_555
H35 C21 1_555 1_555
C2 C4 1_555 1_555
C3 C4 1_555 1_555
C4 C5 1_555 1_555
C7 C10 1_555 1_555
C8 C9 1_555 1_555
C12 C15 1_555 1_555
C13 C14 1_555 1_555
C20 C21 1_555 1_555

#END
