
#######################################################################
#
#                 Cambridge Crystallographic Data Centre
#                                CCDC 
#
#######################################################################
#
# If this CIF has been generated from an entry in the Cambridge 
# Structural Database, then it will include bibliographic, chemical, 
# crystal, experimental, refinement or atomic coordinate data resulting 
# from the CCDC's data processing and validation procedures.
#
#######################################################################

data_USOWUV
_chemical_formula_moiety         'C36 H60 Li6'
_chemical_name_systematic        
tris(\m~4~-4,5-diethylocta-3,5-diene)-hexa-lithium
_symmetry_cell_setting           triclinic
_symmetry_space_group_name_H-M   'P -1'
_symmetry_Int_Tables_number      2
_space_group_name_Hall           '-P 1'
loop_
_symmetry_equiv_pos_site_id
_symmetry_equiv_pos_as_xyz
1 x,y,z
2 -x,-y,-z
_cell_length_a                   13.029(3)
_cell_length_b                   16.830(3)
_cell_length_c                   17.572(4)
_cell_angle_alpha                81.10(3)
_cell_angle_beta                 80.64(3)
_cell_angle_gamma                72.05(3)
_cell_volume                     3594.28
_cell_formula_units_Z            4
loop_
_atom_site_label
_atom_site_type_symbol
_atom_site_fract_x
_atom_site_fract_y
_atom_site_fract_z
C1 C 0.8150(3) 0.89943(19) 0.35735(18)
C2 C 0.9104(3) 0.90457(19) 0.37718(18)
C3 C 1.0085(2) 0.90614(19) 0.31756(19)
C4 C 1.0192(2) 0.8827(2) 0.24437(19)
C5 C 0.7232(3) 0.8971(3) 0.4239(2)
H1 H 0.7495 0.8468 0.4610
H2 H 0.7086 0.9471 0.4516
C6 C 0.6183(3) 0.8950(3) 0.4015(2)
H3 H 0.5888 0.9459 0.3671
H4 H 0.5664 0.8923 0.4483
H5 H 0.6310 0.8454 0.3746
C7 C 0.9253(3) 0.9051(2) 0.46183(19)
H6 H 0.9680 0.9439 0.4643
H7 H 0.8533 0.9256 0.4923
C8 C 0.9830(3) 0.8183(2) 0.4967(2)
H8 H 0.9419 0.7794 0.4927
H9 H 0.9885 0.8196 0.5514
H10 H 1.0560 0.7993 0.4686
C9 C 1.0948(3) 0.9380(2) 0.3425(2)
H11 H 1.1071 0.9140 0.3965
H12 H 1.1642 0.9186 0.3087
C10 C 1.0605(3) 1.0332(2) 0.3376(3)
H13 H 1.0450 1.0571 0.2848
H14 H 1.1192 1.0516 0.3507
H15 H 0.9950 1.0523 0.3742
C11 C 1.1211(3) 0.8901(2) 0.1895(2)
H16 H 1.1199 0.9499 0.1810
H17 H 1.1858 0.8584 0.2157
C12 C 1.1347(3) 0.8592(3) 0.1115(2)
H18 H 1.1458 0.7984 0.1184
H19 H 1.1979 0.8718 0.0793
H20 H 1.0693 0.8873 0.0860
C13 C 0.8970(2) 0.78965(19) 0.07689(18)
C14 C 0.9543(2) 0.7065(2) 0.08663(18)
C15 C 0.9756(2) 0.65846(19) 0.16759(18)
C16 C 0.9502(2) 0.69944(19) 0.23209(18)
C17 C 0.8048(4) 0.9146(3) -0.0173(2)
H21 H 0.7318 0.9128 0.0059
H22 H 0.8043 0.9336 -0.0729
H23 H 0.8271 0.9536 0.0078
C18 C 0.8822(3) 0.8296(2) -0.0065(2)
H24 H 0.9542 0.8322 -0.0335
H25 H 0.8585 0.7916 -0.0329
C19 C 1.0076(3) 0.6558(2) 0.0173(2)
H26 H 1.0061 0.5969 0.0316
H27 H 0.9654 0.6797 -0.0271
C20 C 1.1239(4) 0.6575(3) -0.0065(2)
H28 H 1.1254 0.7157 -0.0218
H29 H 1.1557 0.6245 -0.0504
H30 H 1.1660 0.6333 0.0373
C21 C 1.0237(3) 0.56389(19) 0.1690(2)
H31 H 1.0601 0.5416 0.2163
H32 H 1.0795 0.5514 0.1235
C22 C 0.9385(3) 0.5195(2) 0.1676(3)
H33 H 0.8912 0.5223 0.2172
H34 H 0.9747 0.4605 0.1596
H35 H 0.8949 0.5469 0.1253
C23 C 0.9727(3) 0.6492(2) 0.3108(2)
H36 H 1.0283 0.5950 0.3023
H37 H 1.0031 0.6805 0.3402
C24 C 0.8745(4) 0.6323(3) 0.3583(3)
H38 H 0.8169 0.6854 0.3636
H39 H 0.8928 0.6051 0.4098
H40 H 0.8493 0.5952 0.3327
C25 C 0.7156(3) 1.0079(2) 0.1824(2)
C26 C 0.6139(3) 1.01071(19) 0.16974(19)
C27 C 0.5769(2) 0.9310(2) 0.1824(2)
C28 C 0.6484(2) 0.85334(19) 0.19433(18)
C29 C 0.7489(3) 1.0888(2) 0.1684(3)
H41 H 0.6865 1.1352 0.1510
H42 H 0.7622 1.1008 0.2187
C30 C 0.8403(5) 1.0907(3) 0.1147(3)
H43 H 0.9041 1.0470 0.1320
H44 H 0.8527 1.1459 0.1107
H45 H 0.8283 1.0807 0.0639
C31 C 0.5317(3) 1.0917(2) 0.1401(2)
H46 H 0.5489 1.1405 0.1542
H47 H 0.4580 1.0924 0.1657
C32 C 0.5328(4) 1.1000(3) 0.0517(3)
H48 H 0.6057 1.0994 0.0262
H49 H 0.4802 1.1530 0.0348
H50 H 0.5131 1.0529 0.0378
C33 C 0.4542(3) 0.9462(3) 0.1822(3)
H51 H 0.4273 0.9935 0.1424
H52 H 0.4420 0.8955 0.1679
C34 C 0.3908(3) 0.9660(3) 0.2596(3)
H53 H 0.4178 0.9197 0.2993
H54 H 0.3137 0.9733 0.2574
H55 H 0.3994 1.0179 0.2727
C35 C 0.6062(3) 0.7771(2) 0.2071(2)
H56 H 0.5300 0.7930 0.2320
H57 H 0.6499 0.7330 0.2428
C36 C 0.6114(3) 0.7420(2) 0.1316(2)
H58 H 0.5605 0.7827 0.0989
H59 H 0.5917 0.6893 0.1427
H60 H 0.6854 0.7313 0.1043
Li1 Li 0.8558(4) 0.9604(4) 0.2464(3)
Li2 Li 0.9818(4) 0.8066(4) 0.1640(3)
Li3 Li 0.8036(4) 0.7606(3) 0.1831(3)
Li4 Li 0.7047(4) 0.9099(4) 0.2711(3)
Li5 Li 0.7670(4) 0.8998(3) 0.1230(3)
Li6 Li 0.9273(5) 0.8012(3) 0.2975(3)
C37 C 0.5510(3) 0.23324(19) 0.33515(18)
C38 C 0.6541(2) 0.23025(19) 0.34260(18)
C39 C 0.6968(2) 0.3063(2) 0.32044(19)
C40 C 0.6299(3) 0.3858(2) 0.30433(19)
C41 C 0.5185(3) 0.1524(2) 0.3632(2)
H61 H 0.5614 0.1092 0.3290
H62 H 0.5395 0.1321 0.4161
C42 C 0.4010(3) 0.1590(2) 0.3657(2)
H63 H 0.3566 0.2050 0.3955
H64 H 0.3878 0.1061 0.3904
H65 H 0.3814 0.1702 0.3127
C43 C 0.7329(3) 0.1513(2) 0.3778(2)
H66 H 0.8070 0.1464 0.3506
H67 H 0.7125 0.1016 0.3696
C44 C 0.7341(3) 0.1515(3) 0.4645(2)
H68 H 0.7539 0.2008 0.4731
H69 H 0.7875 0.1003 0.4841
H70 H 0.6618 0.1535 0.4921
C45 C 0.8203(3) 0.2886(2) 0.3139(2)
H71 H 0.8375 0.3409 0.3184
H72 H 0.8487 0.2464 0.3571
C46 C 0.8759(3) 0.2561(3) 0.2369(3)
H73 H 0.8575 0.2051 0.2317
H74 H 0.9548 0.2433 0.2352
H75 H 0.8509 0.2991 0.1941
C47 C 0.6847(3) 0.4557(2) 0.2807(3)
H76 H 0.7300 0.4531 0.3217
H77 H 0.7349 0.4421 0.2327
C48 C 0.6210(4) 0.5388(3) 0.2676(4)
H78 H 0.5916 0.5473 0.2181
H79 H 0.6656 0.5767 0.2659
H80 H 0.5609 0.5508 0.3097
C49 C 0.2395(2) 0.36550(19) 0.27538(18)
C50 C 0.2478(2) 0.33555(19) 0.20549(18)
C51 C 0.3453(3) 0.33333(19) 0.14402(18)
C52 C 0.4419(3) 0.3368(2) 0.16173(19)
C53 C 0.1394(2) 0.3615(2) 0.33390(18)
H81 H 0.0732 0.3920 0.3089
H82 H 0.1398 0.3020 0.3465
C54 C 0.1326(3) 0.3979(3) 0.4089(2)
H83 H 0.1979 0.3685 0.4341
H84 H 0.0682 0.3909 0.4436
H85 H 0.1272 0.4578 0.3976
C55 C 0.2021(3) 0.2008(2) 0.2003(2)
H86 H 0.2708 0.1799 0.1673
H87 H 0.1470 0.1784 0.1870
H88 H 0.2130 0.1826 0.2549
C56 C 0.1641(3) 0.2967(2) 0.1873(2)
H89 H 0.0948 0.3175 0.2208
H90 H 0.1504 0.3148 0.1327
C57 C 0.2545(3) 0.4132(2) 0.0258(2)
H91 H 0.1830 0.4281 0.0567
H92 H 0.2457 0.4085 -0.0275
H93 H 0.2898 0.4570 0.0255
C58 C 0.3255(3) 0.3281(2) 0.06149(19)
H94 H 0.2890 0.2843 0.0628
H95 H 0.3962 0.3117 0.0285
C59 C 0.5373(3) 0.3346(3) 0.0964(2)
H96 H 0.6023 0.2911 0.1138
H97 H 0.5195 0.3161 0.0507
C60 C 0.5638(6) 0.4050(4) 0.0736(4)
H98 H 0.5218 0.4372 0.0317
H99 H 0.6416 0.3917 0.0548
H100 H 0.5478 0.4384 0.1174
C61 C 0.3855(2) 0.4602(2) 0.42538(18)
C62 C 0.3271(2) 0.54247(19) 0.41628(17)
C63 C 0.2998(2) 0.58933(18) 0.33669(18)
C64 C 0.3189(2) 0.54756(18) 0.27232(18)
C65 C 0.4016(3) 0.4203(2) 0.5092(2)
H101 H 0.4590 0.4389 0.5255
H102 H 0.3334 0.4440 0.5429
C66 C 0.4300(4) 0.3304(3) 0.5250(2)
H103 H 0.3789 0.3097 0.5042
H104 H 0.4265 0.3144 0.5812
H105 H 0.5039 0.3057 0.5005
C67 C 0.2757(3) 0.5931(2) 0.48520(19)
H106 H 0.3193 0.5698 0.5290
H107 H 0.2764 0.6522 0.4703
C68 C 0.1595(3) 0.5908(2) 0.5111(2)
H108 H 0.1169 0.6118 0.4672
H109 H 0.1274 0.6263 0.5532
H110 H 0.1591 0.5329 0.5296
C69 C 0.2527(3) 0.68453(19) 0.3339(2)
H111 H 0.1963 0.6983 0.3788
H112 H 0.2176 0.7067 0.2860
C70 C 0.3413(3) 0.7273(2) 0.3356(2)
H113 H 0.3810 0.7016 0.3802
H114 H 0.3073 0.7874 0.3398
H115 H 0.3920 0.7201 0.2876
C71 C 0.2858(3) 0.5974(2) 0.19436(18)
H116 H 0.2727 0.5589 0.1622
H117 H 0.2164 0.6417 0.2047
C72 C 0.3690(3) 0.6383(2) 0.1482(2)
H118 H 0.3797 0.6788 0.1783
H119 H 0.3427 0.6673 0.0992
H120 H 0.4381 0.5950 0.1374
Li7 Li 0.5101(5) 0.3481(3) 0.3850(3)
Li8 Li 0.4026(4) 0.2869(3) 0.2765(3)
Li9 Li 0.3325(4) 0.4432(3) 0.2139(3)
Li10 Li 0.4705(4) 0.4818(3) 0.3136(3)
Li11 Li 0.2863(4) 0.4447(3) 0.3478(3)
Li12 Li 0.5624(5) 0.3240(4) 0.2376(3)
loop_
_geom_bond_atom_site_label_1
_geom_bond_atom_site_label_2
_geom_bond_site_symmetry_1
_geom_bond_site_symmetry_2
C1 C2 1_555 1_555
C2 C3 1_555 1_555
C3 C4 1_555 1_555
C4 C11 1_555 1_555
C5 C1 1_555 1_555
H1 C5 1_555 1_555
H2 C5 1_555 1_555
C6 C5 1_555 1_555
H3 C6 1_555 1_555
H4 C6 1_555 1_555
H5 C6 1_555 1_555
C7 C2 1_555 1_555
H6 C7 1_555 1_555
H7 C7 1_555 1_555
C8 C7 1_555 1_555
H8 C8 1_555 1_555
H9 C8 1_555 1_555
H10 C8 1_555 1_555
C9 C3 1_555 1_555
H11 C9 1_555 1_555
H12 C9 1_555 1_555
C10 C9 1_555 1_555
H13 C10 1_555 1_555
H14 C10 1_555 1_555
H15 C10 1_555 1_555
C11 H16 1_555 1_555
H17 C11 1_555 1_555
C12 C11 1_555 1_555
H18 C12 1_555 1_555
H19 C12 1_555 1_555
H20 C12 1_555 1_555
C13 C14 1_555 1_555
C14 C15 1_555 1_555
C15 C16 1_555 1_555
C16 C23 1_555 1_555
C17 H21 1_555 1_555
H22 C17 1_555 1_555
H23 C17 1_555 1_555
C18 C13 1_555 1_555
H24 C18 1_555 1_555
H25 C18 1_555 1_555
C19 C14 1_555 1_555
H26 C19 1_555 1_555
H27 C19 1_555 1_555
C20 C19 1_555 1_555
H28 C20 1_555 1_555
H29 C20 1_555 1_555
H30 C20 1_555 1_555
C21 C15 1_555 1_555
H31 C21 1_555 1_555
H32 C21 1_555 1_555
C22 C21 1_555 1_555
H33 C22 1_555 1_555
H34 C22 1_555 1_555
H35 C22 1_555 1_555
C23 H36 1_555 1_555
H37 C23 1_555 1_555
C24 C23 1_555 1_555
H38 C24 1_555 1_555
H39 C24 1_555 1_555
H40 C24 1_555 1_555
C25 C26 1_555 1_555
C26 C27 1_555 1_555
C27 C28 1_555 1_555
C28 C35 1_555 1_555
C29 C25 1_555 1_555
H41 C29 1_555 1_555
H42 C29 1_555 1_555
C30 C29 1_555 1_555
H43 C30 1_555 1_555
H44 C30 1_555 1_555
H45 C30 1_555 1_555
C31 C26 1_555 1_555
H46 C31 1_555 1_555
H47 C31 1_555 1_555
C32 C31 1_555 1_555
H48 C32 1_555 1_555
H49 C32 1_555 1_555
H50 C32 1_555 1_555
C33 C27 1_555 1_555
H51 C33 1_555 1_555
H52 C33 1_555 1_555
C34 C33 1_555 1_555
H53 C34 1_555 1_555
H54 C34 1_555 1_555
H55 C34 1_555 1_555
C35 H56 1_555 1_555
H57 C35 1_555 1_555
C36 C35 1_555 1_555
H58 C36 1_555 1_555
H59 C36 1_555 1_555
H60 C36 1_555 1_555
C37 C38 1_555 1_555
C38 C39 1_555 1_555
C39 C40 1_555 1_555
C40 C47 1_555 1_555
C41 C37 1_555 1_555
H61 C41 1_555 1_555
H62 C41 1_555 1_555
C42 C41 1_555 1_555
H63 C42 1_555 1_555
H64 C42 1_555 1_555
H65 C42 1_555 1_555
C43 C38 1_555 1_555
H66 C43 1_555 1_555
H67 C43 1_555 1_555
C44 C43 1_555 1_555
H68 C44 1_555 1_555
H69 C44 1_555 1_555
H70 C44 1_555 1_555
C45 C39 1_555 1_555
H71 C45 1_555 1_555
H72 C45 1_555 1_555
C46 C45 1_555 1_555
H73 C46 1_555 1_555
H74 C46 1_555 1_555
H75 C46 1_555 1_555
C47 H76 1_555 1_555
H77 C47 1_555 1_555
C48 C47 1_555 1_555
H78 C48 1_555 1_555
H79 C48 1_555 1_555
H80 C48 1_555 1_555
C49 C50 1_555 1_555
C50 C51 1_555 1_555
C51 C52 1_555 1_555
C52 C59 1_555 1_555
C53 C49 1_555 1_555
H81 C53 1_555 1_555
H82 C53 1_555 1_555
C54 C53 1_555 1_555
H83 C54 1_555 1_555
H84 C54 1_555 1_555
H85 C54 1_555 1_555
C55 H86 1_555 1_555
H87 C55 1_555 1_555
H88 C55 1_555 1_555
C56 C50 1_555 1_555
H89 C56 1_555 1_555
H90 C56 1_555 1_555
C57 H91 1_555 1_555
H92 C57 1_555 1_555
H93 C57 1_555 1_555
C58 C51 1_555 1_555
H94 C58 1_555 1_555
H95 C58 1_555 1_555
C59 H96 1_555 1_555
H97 C59 1_555 1_555
C60 C59 1_555 1_555
H98 C60 1_555 1_555
H99 C60 1_555 1_555
H100 C60 1_555 1_555
C61 C62 1_555 1_555
C62 C63 1_555 1_555
C63 C64 1_555 1_555
C64 C71 1_555 1_555
C65 C61 1_555 1_555
H101 C65 1_555 1_555
H102 C65 1_555 1_555
C66 C65 1_555 1_555
H103 C66 1_555 1_555
H104 C66 1_555 1_555
H105 C66 1_555 1_555
C67 C62 1_555 1_555
H106 C67 1_555 1_555
H107 C67 1_555 1_555
C68 C67 1_555 1_555
H108 C68 1_555 1_555
H109 C68 1_555 1_555
H110 C68 1_555 1_555
C69 C63 1_555 1_555
H111 C69 1_555 1_555
H112 C69 1_555 1_555
C70 C69 1_555 1_555
H113 C70 1_555 1_555
H114 C70 1_555 1_555
H115 C70 1_555 1_555
C71 H116 1_555 1_555
H117 C71 1_555 1_555
C72 C71 1_555 1_555
H118 C72 1_555 1_555
H119 C72 1_555 1_555
H120 C72 1_555 1_555
Li1 C1 1_555 1_555
Li2 C4 1_555 1_555
Li3 C13 1_555 1_555
Li4 C1 1_555 1_555
Li5 C13 1_555 1_555
Li6 C1 1_555 1_555
Li7 C37 1_555 1_555
Li8 C37 1_555 1_555
Li9 C49 1_555 1_555
Li10 C40 1_555 1_555
Li11 C49 1_555 1_555
Li12 C37 1_555 1_555
C4 Li1 1_555 1_555
C4 Li6 1_555 1_555
C13 Li2 1_555 1_555
C16 Li2 1_555 1_555
C16 Li3 1_555 1_555
C16 Li6 1_555 1_555
C17 C18 1_555 1_555
C25 Li1 1_555 1_555
C25 Li4 1_555 1_555
C25 Li5 1_555 1_555
C28 Li3 1_555 1_555
C28 Li4 1_555 1_555
C28 Li5 1_555 1_555
C40 Li7 1_555 1_555
C40 Li12 1_555 1_555
C49 Li8 1_555 1_555
C52 Li8 1_555 1_555
C52 Li9 1_555 1_555
C52 Li12 1_555 1_555
C55 C56 1_555 1_555
C57 C58 1_555 1_555
C61 Li7 1_555 1_555
C61 Li10 1_555 1_555
C61 Li11 1_555 1_555
C64 Li9 1_555 1_555
C64 Li10 1_555 1_555
C64 Li11 1_555 1_555
Li1 Li4 1_555 1_555
Li1 Li6 1_555 1_555
Li2 Li3 1_555 1_555
Li2 Li6 1_555 1_555
Li3 Li5 1_555 1_555
Li4 Li5 1_555 1_555
Li7 Li10 1_555 1_555
Li7 Li12 1_555 1_555
Li8 Li9 1_555 1_555
Li8 Li12 1_555 1_555
Li9 Li11 1_555 1_555
Li10 Li11 1_555 1_555

#END
