
#######################################################################
#
#                 Cambridge Crystallographic Data Centre
#                                CCDC 
#
#######################################################################
#
# If this CIF has been generated from an entry in the Cambridge 
# Structural Database, then it will include bibliographic, chemical, 
# crystal, experimental, refinement or atomic coordinate data resulting 
# from the CCDC's data processing and validation procedures.
#
#######################################################################

data_USOXAC
_chemical_formula_moiety         'C54 H72 Li4 O2 Si2'
_chemical_name_systematic        
(\m~4~-(2-[1,2-diphenylethenyl]hex-1-en-1-yl)(trimethyl)silane)-(\m~3~-(2-[1,2-diphenylethenyl]hex-1-en-1-yl)(trimethyl)silane)-bis(tetrahydrofuran)-tetra-lithium
_symmetry_cell_setting           monoclinic
_symmetry_space_group_name_H-M   'C c'
_symmetry_Int_Tables_number      9
_space_group_name_Hall           'C -2yc'
loop_
_symmetry_equiv_pos_site_id
_symmetry_equiv_pos_as_xyz
1 x,y,z
2 x,-y,1/2+z
3 1/2+x,1/2+y,z
4 1/2+x,1/2-y,1/2+z
_cell_length_a                   26.694(5)
_cell_length_b                   11.166(2)
_cell_length_c                   20.498(4)
_cell_angle_alpha                90
_cell_angle_beta                 121.30(3)
_cell_angle_gamma                90
_cell_volume                     5220.52
_exptl_crystal_colour            orange
_exptl_crystal_description       prism
_cell_formula_units_Z            4
loop_
_atom_site_label
_atom_site_type_symbol
_atom_site_fract_x
_atom_site_fract_y
_atom_site_fract_z
C1 C 0.0633(3) 0.2831(8) 0.0805(4)
C2 C 0.0316(3) 0.3239(8) 0.0067(5)
C3 C 0.0493(3) 0.4375(8) -0.0188(4)
C4 C 0.1048(4) 0.4815(8) 0.0197(5)
C5 C -0.0301(4) 0.1522(9) 0.1034(6)
H1 H -0.0362 0.2305 0.1197
H2 H -0.0324 0.0893 0.1351
H3 H -0.0603 0.1386 0.0498
C6 C 0.0489(5) 0.0059(9) 0.0734(5)
H4 H 0.0131 -0.0078 0.0239
H5 H 0.0544 -0.0598 0.1082
H6 H 0.0826 0.0094 0.0667
C7 C 0.0991(4) 0.1384(8) 0.2210(5)
H7 H 0.1385 0.1312 0.2289
H8 H 0.0907 0.0681 0.2423
H9 H 0.0970 0.2108 0.2464
C8 C -0.0182(4) 0.2523(8) -0.0598(5)
H10 H -0.0512 0.3065 -0.0926
H11 H -0.0326 0.1897 -0.0394
C9 C 0.0058(4) 0.1921(10) -0.1085(5)
H12 H 0.0231 0.2549 -0.1250
H13 H 0.0374 0.1348 -0.0758
C10 C -0.0424(5) 0.1259(10) -0.1793(5)
H14 H -0.0701 0.1847 -0.2168
H15 H -0.0645 0.0730 -0.1642
C11 C -0.0147(5) 0.0491(12) -0.2168(6)
H16 H 0.0011 0.1024 -0.2398
H17 H -0.0450 -0.0025 -0.2564
H18 H 0.0169 -0.0006 -0.1777
C12 C -0.0027(3) 0.5033(8) -0.0878(4)
C13 C -0.0044(4) 0.5311(10) -0.1536(5)
H19 H 0.0259 0.5032 -0.1610
C14 C -0.0493(5) 0.5992(12) -0.2098(6)
H20 H -0.0475 0.6259 -0.2526
C15 C -0.0967(5) 0.6282(11) -0.2033(7)
H21 H -0.1303 0.6656 -0.2444
C16 C -0.0951(5) 0.6028(11) -0.1377(7)
H22 H -0.1255 0.6319 -0.1309
C17 C -0.0505(4) 0.5359(9) -0.0805(5)
H23 H -0.0521 0.5123 -0.0370
C18 C 0.1156(4) 0.5936(9) -0.0116(5)
C19 C 0.0985(4) 0.7067(10) -0.0014(6)
H24 H 0.0776 0.7136 0.0244
C20 C 0.1113(5) 0.8094(10) -0.0282(6)
H25 H 0.1009 0.8855 -0.0180
C21 C 0.1392(5) 0.8023(10) -0.0699(5)
H26 H 0.1455 0.8713 -0.0918
C22 C 0.1574(4) 0.6882(9) -0.0777(5)
H27 H 0.1775 0.6788 -0.1043
C23 C 0.1465(4) 0.5925(9) -0.0477(5)
H28 H 0.1616 0.5177 -0.0518
C24 C 0.2184(3) 0.2865(8) 0.1683(4)
C25 C 0.2480(4) 0.3204(8) 0.2420(4)
C26 C 0.2336(4) 0.4386(8) 0.2675(5)
C27 C 0.1780(3) 0.4823(8) 0.2300(4)
C28 C 0.1862(5) 0.1376(9) 0.0303(6)
H29 H 0.1467 0.1211 0.0201
H30 H 0.1986 0.0723 0.0099
H31 H 0.1860 0.2130 0.0057
C29 C 0.2332(5) -0.0005(9) 0.1765(6)
H32 H 0.2547 0.0053 0.2323
H33 H 0.2507 -0.0635 0.1612
H34 H 0.1921 -0.0200 0.1575
C30 C 0.3127(4) 0.1593(9) 0.1446(6)
H35 H 0.3104 0.2113 0.1046
H36 H 0.3253 0.0790 0.1397
H37 H 0.3412 0.1924 0.1948
C31 C 0.2963(4) 0.2502(9) 0.3091(5)
H38 H 0.3123 0.1898 0.2894
H39 H 0.3285 0.3057 0.3425
C32 C 0.2760(4) 0.1887(10) 0.3552(5)
H40 H 0.2578 0.2496 0.3715
H41 H 0.2447 0.1319 0.3212
C33 C 0.3183(4) 0.1232(11) 0.4224(6)
H42 H 0.3469 0.1815 0.4595
H43 H 0.3401 0.0690 0.4076
C34 C 0.2956(5) 0.0517(11) 0.4614(6)
H44 H 0.2627 0.0938 0.4595
H45 H 0.3268 0.0397 0.5148
H46 H 0.2823 -0.0262 0.4361
C35 C 0.2822(4) 0.4991(8) 0.3315(4)
C36 C 0.3303(4) 0.5378(9) 0.3277(5)
H47 H 0.3303 0.5233 0.2820
C37 C 0.3783(5) 0.5964(10) 0.3871(6)
H48 H 0.4118 0.6150 0.3840
C38 C 0.3759(6) 0.6269(12) 0.4507(6)
H49 H 0.4059 0.6750 0.4897
C39 C 0.3302(5) 0.5879(12) 0.4579(5)
H50 H 0.3315 0.6004 0.5045
C40 C 0.2828(4) 0.5310(9) 0.3987(5)
H51 H 0.2498 0.5128 0.4029
C41 C 0.1647(3) 0.5931(8) 0.2574(4)
C42 C 0.1831(4) 0.7063(9) 0.2487(5)
H52 H 0.2028 0.7141 0.2214
C43 C 0.1726(5) 0.8080(10) 0.2797(6)
H53 H 0.1866 0.8838 0.2749
C44 C 0.1433(5) 0.7999(10) 0.3160(6)
H54 H 0.1361 0.8710 0.3352
C45 C 0.1235(4) 0.6941(9) 0.3265(5)
H55 H 0.1031 0.6912 0.3531
C46 C 0.1338(3) 0.5858(8) 0.2966(4)
H56 H 0.1201 0.5108 0.3030
C47 C -0.0141(4) 0.4950(10) 0.1361(7)
H57 H 0.0086 0.4369 0.1778
H58 H -0.0454 0.4515 0.0912
C48 C -0.0414(5) 0.5971(10) 0.1629(7)
H59 H -0.0828 0.5798 0.1462
H60 H -0.0185 0.6075 0.2191
C49 C -0.0369(6) 0.6955(12) 0.1261(7)
H61 H -0.0326 0.7685 0.1560
H62 H -0.0732 0.7036 0.0754
C50 C 0.0142(4) 0.6848(10) 0.1163(5)
H63 H 0.0055 0.7209 0.0674
H64 H 0.0491 0.7245 0.1587
C51 C 0.2644(4) 0.6897(8) 0.1337(5)
H65 H 0.2831 0.7195 0.1867
H66 H 0.2260 0.7301 0.1023
C52 C 0.3036(5) 0.7128(10) 0.1014(6)
H67 H 0.2809 0.7156 0.0449
H68 H 0.3265 0.7876 0.1218
C53 C 0.3411(3) 0.6055(9) 0.1306(5)
H69 H 0.3695 0.6115 0.1862
H70 H 0.3625 0.5919 0.1038
C54 C 0.2967(4) 0.5090(10) 0.1127(6)
H71 H 0.2763 0.4865 0.0581
H72 H 0.3154 0.4368 0.1443
Li1 Li 0.0858(6) 0.4738(13) 0.1154(8)
Li2 Li 0.1350(7) 0.3080(15) 0.0609(9)
Li3 Li 0.1945(6) 0.4708(13) 0.1305(7)
Li4 Li 0.1461(6) 0.3064(14) 0.1901(7)
O1 O 0.0234(2) 0.5574(5) 0.1166(3)
O2 O 0.2570(3) 0.5630(6) 0.1314(3)
Si1 Si 0.04266(9) 0.1486(2) 0.11391(12)
Si2 Si 0.23764(9) 0.1497(2) 0.13425(12)
loop_
_geom_bond_atom_site_label_1
_geom_bond_atom_site_label_2
_geom_bond_site_symmetry_1
_geom_bond_site_symmetry_2
C1 C2 1_555 1_555
C2 C3 1_555 1_555
C3 C4 1_555 1_555
C4 C18 1_555 1_555
C5 H1 1_555 1_555
H2 C5 1_555 1_555
H3 C5 1_555 1_555
C6 H4 1_555 1_555
H5 C6 1_555 1_555
H6 C6 1_555 1_555
C7 H7 1_555 1_555
H8 C7 1_555 1_555
H9 C7 1_555 1_555
C8 C2 1_555 1_555
H10 C8 1_555 1_555
H11 C8 1_555 1_555
C9 C8 1_555 1_555
H12 C9 1_555 1_555
H13 C9 1_555 1_555
C10 C9 1_555 1_555
H14 C10 1_555 1_555
H15 C10 1_555 1_555
C11 C10 1_555 1_555
H16 C11 1_555 1_555
H17 C11 1_555 1_555
H18 C11 1_555 1_555
C12 C3 1_555 1_555
C13 C12 1_555 1_555
H19 C13 1_555 1_555
C14 C13 1_555 1_555
H20 C14 1_555 1_555
C15 C14 1_555 1_555
H21 C15 1_555 1_555
C16 C15 1_555 1_555
H22 C16 1_555 1_555
C17 C12 1_555 1_555
H23 C17 1_555 1_555
C18 C19 1_555 1_555
C19 H24 1_555 1_555
C20 C19 1_555 1_555
H25 C20 1_555 1_555
C21 C20 1_555 1_555
H26 C21 1_555 1_555
C22 C21 1_555 1_555
H27 C22 1_555 1_555
C23 C18 1_555 1_555
H28 C23 1_555 1_555
C24 C25 1_555 1_555
C25 C26 1_555 1_555
C26 C27 1_555 1_555
C27 C41 1_555 1_555
C28 H29 1_555 1_555
H30 C28 1_555 1_555
H31 C28 1_555 1_555
C29 H32 1_555 1_555
H33 C29 1_555 1_555
H34 C29 1_555 1_555
C30 H35 1_555 1_555
H36 C30 1_555 1_555
H37 C30 1_555 1_555
C31 C25 1_555 1_555
H38 C31 1_555 1_555
H39 C31 1_555 1_555
C32 C31 1_555 1_555
H40 C32 1_555 1_555
H41 C32 1_555 1_555
C33 C32 1_555 1_555
H42 C33 1_555 1_555
H43 C33 1_555 1_555
C34 C33 1_555 1_555
H44 C34 1_555 1_555
H45 C34 1_555 1_555
H46 C34 1_555 1_555
C35 C26 1_555 1_555
C36 C35 1_555 1_555
H47 C36 1_555 1_555
C37 C36 1_555 1_555
H48 C37 1_555 1_555
C38 C37 1_555 1_555
H49 C38 1_555 1_555
C39 C38 1_555 1_555
H50 C39 1_555 1_555
C40 C35 1_555 1_555
H51 C40 1_555 1_555
C41 C42 1_555 1_555
C42 H52 1_555 1_555
C43 C42 1_555 1_555
H53 C43 1_555 1_555
C44 C43 1_555 1_555
H54 C44 1_555 1_555
C45 C44 1_555 1_555
H55 C45 1_555 1_555
C46 C41 1_555 1_555
H56 C46 1_555 1_555
C47 H57 1_555 1_555
H58 C47 1_555 1_555
C48 C47 1_555 1_555
H59 C48 1_555 1_555
H60 C48 1_555 1_555
C49 C48 1_555 1_555
H61 C49 1_555 1_555
H62 C49 1_555 1_555
C50 C49 1_555 1_555
H63 C50 1_555 1_555
H64 C50 1_555 1_555
C51 H65 1_555 1_555
H66 C51 1_555 1_555
C52 C51 1_555 1_555
H67 C52 1_555 1_555
H68 C52 1_555 1_555
C53 C52 1_555 1_555
H69 C53 1_555 1_555
H70 C53 1_555 1_555
C54 C53 1_555 1_555
H71 C54 1_555 1_555
H72 C54 1_555 1_555
Li1 C1 1_555 1_555
Li2 C1 1_555 1_555
Li3 C4 1_555 1_555
Li4 C1 1_555 1_555
O1 C47 1_555 1_555
O2 C51 1_555 1_555
Si1 C1 1_555 1_555
Si2 C24 1_555 1_555
C4 Li1 1_555 1_555
C4 Li2 1_555 1_555
C5 Si1 1_555 1_555
C6 Si1 1_555 1_555
C7 Si1 1_555 1_555
C16 C17 1_555 1_555
C22 C23 1_555 1_555
C24 Li2 1_555 1_555
C24 Li3 1_555 1_555
C24 Li4 1_555 1_555
C25 Li4 1_555 1_555
C27 Li3 1_555 1_555
C27 Li4 1_555 1_555
C28 Si2 1_555 1_555
C29 Si2 1_555 1_555
C30 Si2 1_555 1_555
C39 C40 1_555 1_555
C45 C46 1_555 1_555
C50 O1 1_555 1_555
C54 O2 1_555 1_555
Li1 Li2 1_555 1_555
Li1 Li3 1_555 1_555
Li1 Li4 1_555 1_555
Li1 O1 1_555 1_555
Li2 Li3 1_555 1_555
Li2 Li4 1_555 1_555
Li3 Li4 1_555 1_555
Li3 O2 1_555 1_555

#END
