
#######################################################################
#
#                 Cambridge Crystallographic Data Centre
#                                CCDC 
#
#######################################################################
#
# If this CIF has been generated from an entry in the Cambridge 
# Structural Database, then it will include bibliographic, chemical, 
# crystal, experimental, refinement or atomic coordinate data resulting 
# from the CCDC's data processing and validation procedures.
#
#######################################################################

data_USUHAS
_chemical_formula_moiety         'C10 H9 F3 O3 S1'
_chemical_name_systematic        
'Methyl 2-hydroxy-6-(methylsulfanyl)-4-(trifluoromethyl)benzoate'
_symmetry_cell_setting           monoclinic
_symmetry_space_group_name_H-M   'P 21/n'
_symmetry_Int_Tables_number      14
_space_group_name_Hall           '-P 2yn'
loop_
_symmetry_equiv_pos_site_id
_symmetry_equiv_pos_as_xyz
1 x,y,z
2 1/2-x,1/2+y,1/2-z
3 -x,-y,-z
4 1/2+x,1/2-y,1/2+z
_cell_length_a                   7.1074(2)
_cell_length_b                   11.7647(4)
_cell_length_c                   26.2080(7)
_cell_angle_alpha                90
_cell_angle_beta                 97.112(2)
_cell_angle_gamma                90
_cell_volume                     2174.56
_exptl_crystal_colour            colorless
_exptl_crystal_description       block
_cell_formula_units_Z            8
loop_
_atom_site_label
_atom_site_type_symbol
_atom_site_fract_x
_atom_site_fract_y
_atom_site_fract_z
S1 S 0.32642(6) 0.38703(3) 0.103614(14)
O1 O 0.5831(2) 0.47360(11) 0.25989(5)
O2 O 0.41162(17) 0.51994(9) 0.18624(4)
O3 O 0.5961(2) 0.26910(12) 0.28963(5)
F1 F 0.2461(4) -0.05602(19) 0.14156(19)
F2 F 0.5404(7) -0.0781(4) 0.15878(17)
F3 F 0.3663(6) -0.09019(17) 0.21787(11)
C1 C 0.3874(2) 0.28827(12) 0.15363(6)
C2 C 0.4636(2) 0.32500(12) 0.20374(6)
C3 C 0.5175(2) 0.24226(14) 0.24187(6)
C4 C 0.4916(3) 0.12717(14) 0.23169(7)
H1 H 0.5264 0.0722 0.2577
C5 C 0.4147(2) 0.09436(13) 0.18339(7)
C6 C 0.3644(2) 0.17217(13) 0.14426(6)
H2 H 0.3142 0.1462 0.1110
C7 C 0.2737(2) 0.29877(15) 0.04797(6)
H3 H 0.3828 0.2498 0.0442
H4 H 0.2468 0.3467 0.0173
H5 H 0.1629 0.2515 0.0519
C8 C 0.4925(2) 0.44484(12) 0.21936(6)
C9 C 0.4385(3) 0.63859(13) 0.20080(6)
H6 H 0.3926 0.6513 0.2341
H7 H 0.3673 0.6868 0.1747
H8 H 0.5736 0.6576 0.2034
C10 C 0.3879(3) -0.03026(15) 0.17259(8)
H9 H 0.608(4) 0.340(3) 0.2905(10)
S2 S 0.27399(7) 0.61007(3) 0.999309(15)
O4 O 0.1295(2) 0.53876(11) 0.83474(4)
O5 O 0.14495(17) 0.48681(9) 0.91666(4)
O6 O 0.0782(2) 0.74586(12) 0.81147(5)
F4 F 0.1901(7) 1.1032(3) 0.89746(14)
F5 F 0.3481(10) 1.0622(3) 0.9678(3)
F6 F 0.0447(8) 1.0659(2) 0.9575(2)
C11 C 0.2219(2) 0.71375(12) 0.95108(6)
C12 C 0.1681(2) 0.68242(12) 0.89900(5)
C13 C 0.1293(2) 0.76817(14) 0.86153(6)
C14 C 0.1398(2) 0.88276(14) 0.87496(7)
H10 H 0.1117 0.9401 0.8497
C15 C 0.1916(2) 0.91086(13) 0.92544(8)
C16 C 0.2333(2) 0.82923(13) 0.96352(7)
H11 H 0.2698 0.8520 0.9981
C17 C 0.3646(4) 0.69214(18) 1.05468(7)
H12 H 0.4703 0.7393 1.0464
H13 H 0.4091 0.6409 1.0831
H14 H 0.2639 0.7410 1.0648
C18 C 0.1474(2) 0.56420(13) 0.88035(6)
C19 C 0.1108(3) 0.37138(14) 0.89886(7)
H15 H -0.0085 0.3682 0.8757
H16 H 0.1023 0.3214 0.9284
H17 H 0.2153 0.3464 0.8804
C20 C 0.2049(3) 1.03402(17) 0.94053(10)
H18 H 0.087(4) 0.672(3) 0.8085(10)
F7? F 0.2331(8) -0.0685(3) 0.1858(3)
F8? F 0.5254(10) -0.0910(5) 0.1856(4)
F9? F 0.3543(15) -0.0500(3) 0.11789(17)
F10? F 0.3875(11) 1.0654(6) 0.9469(3)
F11? F 0.1932(11) 1.0466(3) 0.9965(2)
F12? F 0.1125(15) 1.1004(4) 0.9193(5)
loop_
_geom_bond_atom_site_label_1
_geom_bond_atom_site_label_2
_geom_bond_site_symmetry_1
_geom_bond_site_symmetry_2
S1 C1 1_555 1_555
O1 C8 1_555 1_555
O2 C8 1_555 1_555
O3 C3 1_555 1_555
F1 C10 1_555 1_555
F2 C10 1_555 1_555
F3 C10 1_555 1_555
C1 C2 1_555 1_555
C2 C3 1_555 1_555
C3 C4 1_555 1_555
C4 H1 1_555 1_555
C5 C4 1_555 1_555
C6 C1 1_555 1_555
H2 C6 1_555 1_555
C7 S1 1_555 1_555
H3 C7 1_555 1_555
H4 C7 1_555 1_555
H5 C7 1_555 1_555
C8 C2 1_555 1_555
C9 O2 1_555 1_555
H6 C9 1_555 1_555
H7 C9 1_555 1_555
H8 C9 1_555 1_555
C10 C5 1_555 1_555
H9 O3 1_555 1_555
S2 C11 1_555 1_555
O4 C18 1_555 1_555
O5 C18 1_555 1_555
O6 C13 1_555 1_555
F4 C20 1_555 1_555
F5 C20 1_555 1_555
F6 C20 1_555 1_555
C11 C12 1_555 1_555
C12 C13 1_555 1_555
C13 C14 1_555 1_555
C14 H10 1_555 1_555
C15 C14 1_555 1_555
C16 C11 1_555 1_555
H11 C16 1_555 1_555
C17 S2 1_555 1_555
H12 C17 1_555 1_555
H13 C17 1_555 1_555
H14 C17 1_555 1_555
C18 C12 1_555 1_555
C19 O5 1_555 1_555
H15 C19 1_555 1_555
H16 C19 1_555 1_555
H17 C19 1_555 1_555
C20 C15 1_555 1_555
H18 O6 1_555 1_555
C5 C6 1_555 1_555
C15 C16 1_555 1_555

#END
