
#######################################################################
#
#                 Cambridge Crystallographic Data Centre
#                                CCDC 
#
#######################################################################
#
# If this CIF has been generated from an entry in the Cambridge 
# Structural Database, then it will include bibliographic, chemical, 
# crystal, experimental, refinement or atomic coordinate data resulting 
# from the CCDC's data processing and validation procedures.
#
#######################################################################

data_USUHAT
_chemical_formula_moiety         'C28 H17 F2 N1 O4 S1'
_chemical_name_systematic        
"7',8'-bis(4-fluorophenyl)spiro[1,2-benzothiazole-3,6'-indeno[4,5-d][1,3]dioxole] 1,1-dioxide"
_symmetry_cell_setting           monoclinic
_symmetry_space_group_name_H-M   'P 21/n'
_symmetry_Int_Tables_number      14
_space_group_name_Hall           '-P 2yn'
loop_
_symmetry_equiv_pos_site_id
_symmetry_equiv_pos_as_xyz
1 x,y,z
2 1/2-x,1/2+y,1/2-z
3 -x,-y,-z
4 1/2+x,1/2-y,1/2+z
_cell_length_a                   10.1326(6)
_cell_length_b                   10.4668(6)
_cell_length_c                   21.8586(12)
_cell_angle_alpha                90
_cell_angle_beta                 95.792(2)
_cell_angle_gamma                90
_cell_volume                     2306.4
_exptl_crystal_description       block
_cell_formula_units_Z            4
loop_
_atom_site_label
_atom_site_type_symbol
_atom_site_fract_x
_atom_site_fract_y
_atom_site_fract_z
S1 S 0.59124(5) 0.79791(4) 0.13291(2)
F1 F 0.01426(13) -0.02211(12) 0.07752(6)
F2 F -0.06418(14) 0.66039(14) 0.22765(8)
N1 N 0.50274(16) 0.68497(14) 0.09495(8)
H1 H 0.4529 0.6993 0.0603
O1 O 0.71729(15) 0.81411(13) 0.10920(7)
O2 O 0.51332(17) 0.91107(13) 0.13706(8)
O3 O 0.54901(13) 0.14169(12) 0.02717(6)
O4 O 0.76315(13) 0.17217(12) 0.00162(6)
C1 C 0.51492(18) 0.55772(16) 0.12453(9)
C2 C 0.56671(18) 0.58595(17) 0.19110(9)
C3 C 0.60615(19) 0.71080(18) 0.20191(9)
C4 C 0.6549(2) 0.7564(2) 0.25974(10)
H2 H 0.6810 0.8430 0.2659
C5 C 0.6636(2) 0.6695(2) 0.30788(10)
H3 H 0.6959 0.6968 0.3481
C6 C 0.6255(2) 0.5423(2) 0.29797(10)
H4 H 0.6336 0.4842 0.3315
C7 C 0.5761(2) 0.49928(19) 0.24011(9)
H5 H 0.5492 0.4129 0.2339
C8 C 0.60453(19) 0.46575(16) 0.09329(8)
C9 C 0.53265(18) 0.35256(17) 0.07915(8)
C10 C 0.59631(18) 0.25751(16) 0.04947(8)
C11 C 0.72484(19) 0.27704(17) 0.03397(8)
C12 C 0.79541(19) 0.38780(18) 0.04754(9)
H6 H 0.8828 0.3986 0.0362
C13 C 0.73257(19) 0.48456(18) 0.07900(9)
H7 H 0.7780 0.5618 0.0902
C14 C 0.66393(19) 0.07597(18) 0.00884(10)
H8 H 0.6972 0.0132 0.0406
H9 H 0.6412 0.0300 -0.0304
C15 C 0.39710(18) 0.36590(17) 0.09775(8)
C16 C 0.29658(18) 0.26214(17) 0.09119(9)
C17 C 0.3149(2) 0.15182(18) 0.12671(10)
H10 H 0.3936 0.1420 0.1538
C18 C 0.2194(2) 0.05602(19) 0.12293(11)
H11 H 0.2308 -0.0186 0.1477
C19 C 0.1078(2) 0.07246(18) 0.08222(10)
C20 C 0.0873(2) 0.1776(2) 0.04507(11)
H12 H 0.0105 0.1845 0.0165
C21 C 0.1826(2) 0.27393(19) 0.05046(11)
H13 H 0.1695 0.3487 0.0260
C22 C 0.38299(18) 0.48383(17) 0.12138(9)
C23 C 0.26504(19) 0.53332(17) 0.14919(9)
C24 C 0.2115(2) 0.46194(18) 0.19484(9)
H14 H 0.2514 0.3830 0.2077
C25 C 0.1008(2) 0.5046(2) 0.22171(10)
H15 H 0.0655 0.4567 0.2532
C26 C 0.0444(2) 0.6178(2) 0.20145(11)
C27 C 0.0926(2) 0.6909(2) 0.15639(12)
H16 H 0.0502 0.7685 0.1431
C28 C 0.2046(2) 0.64861(19) 0.13066(10)
H17 H 0.2405 0.6988 0.1001
loop_
_geom_bond_atom_site_label_1
_geom_bond_atom_site_label_2
_geom_bond_site_symmetry_1
_geom_bond_site_symmetry_2
S1 N1 1_555 1_555
F1 C19 1_555 1_555
F2 C26 1_555 1_555
N1 H1 1_555 1_555
O1 S1 1_555 1_555
O2 S1 1_555 1_555
O3 C10 1_555 1_555
O4 C11 1_555 1_555
C1 N1 1_555 1_555
C2 C1 1_555 1_555
C3 S1 1_555 1_555
C4 C3 1_555 1_555
H2 C4 1_555 1_555
C5 C4 1_555 1_555
H3 C5 1_555 1_555
C6 C5 1_555 1_555
H4 C6 1_555 1_555
C7 C2 1_555 1_555
H5 C7 1_555 1_555
C8 C1 1_555 1_555
C9 C8 1_555 1_555
C10 C9 1_555 1_555
C11 C10 1_555 1_555
C12 C11 1_555 1_555
H6 C12 1_555 1_555
C13 C8 1_555 1_555
H7 C13 1_555 1_555
C14 O3 1_555 1_555
H8 C14 1_555 1_555
H9 C14 1_555 1_555
C15 C9 1_555 1_555
C16 C15 1_555 1_555
C17 C16 1_555 1_555
H10 C17 1_555 1_555
C18 C17 1_555 1_555
H11 C18 1_555 1_555
C19 C18 1_555 1_555
C20 C19 1_555 1_555
H12 C20 1_555 1_555
C21 C16 1_555 1_555
H13 C21 1_555 1_555
C22 C1 1_555 1_555
C23 C22 1_555 1_555
C24 C23 1_555 1_555
H14 C24 1_555 1_555
C25 C24 1_555 1_555
H15 C25 1_555 1_555
C26 C25 1_555 1_555
C27 C26 1_555 1_555
H16 C27 1_555 1_555
C28 C23 1_555 1_555
H17 C28 1_555 1_555
O4 C14 1_555 1_555
C2 C3 1_555 1_555
C6 C7 1_555 1_555
C12 C13 1_555 1_555
C15 C22 1_555 1_555
C20 C21 1_555 1_555
C27 C28 1_555 1_555

#END
