
#######################################################################
#
#                 Cambridge Crystallographic Data Centre
#                                CCDC 
#
#######################################################################
#
# If this CIF has been generated from an entry in the Cambridge 
# Structural Database, then it will include bibliographic, chemical, 
# crystal, experimental, refinement or atomic coordinate data resulting 
# from the CCDC's data processing and validation procedures.
#
#######################################################################

data_USUMEB
_chemical_formula_moiety         'C23 H23 N3 O4'
_chemical_name_systematic        
2-(6-Hydroxy-6-(4-methylphenyl)-8-nitro-1,2,3,4-tetrahydropyrrolo[1,2-a]pyrimidin-7(6H)-ylidene)-1-(4-methylphenyl)ethanone
_symmetry_cell_setting           triclinic
_symmetry_space_group_name_H-M   'P -1'
_symmetry_Int_Tables_number      2
_space_group_name_Hall           '-P 1'
loop_
_symmetry_equiv_pos_site_id
_symmetry_equiv_pos_as_xyz
1 x,y,z
2 -x,-y,-z
_cell_length_a                   5.9788(4)
_cell_length_b                   10.8688(7)
_cell_length_c                   17.1088(12)
_cell_angle_alpha                77.991(1)
_cell_angle_beta                 88.607(1)
_cell_angle_gamma                78.278(1)
_cell_volume                     1064.57
_exptl_crystal_colour            yellow
_exptl_crystal_description       needle
_chemical_melting_point          '120-124 deg.C (dec.)'
_cell_formula_units_Z            2
loop_
_atom_site_label
_atom_site_type_symbol
_atom_site_fract_x
_atom_site_fract_y
_atom_site_fract_z
N1 N 0.6431(3) 0.26862(18) 0.44865(11)
N2 N 0.3295(3) 0.35405(19) 0.51586(11)
H1 H 0.2212 0.4185 0.5185
N3 N 0.2762(4) 0.56783(19) 0.37083(13)
O1 O 0.1315(3) 0.58211(18) 0.42454(12)
O2 O 0.2685(4) 0.65124(17) 0.30808(12)
O3 O 1.0693(3) 0.3897(2) 0.24972(12)
O4 O 0.9920(3) 0.29992(17) 0.39989(10)
H2 H 1.0704 0.3160 0.3605
C1 C 0.4611(4) 0.3609(2) 0.45367(13)
C2 C 0.4453(4) 0.4600(2) 0.38285(13)
C3 C 0.6373(4) 0.4311(2) 0.33374(13)
C4 C 0.7725(4) 0.2970(2) 0.37536(13)
C5 C 0.3591(5) 0.2414(3) 0.58082(16)
H3 H 0.2106 0.2252 0.5988
H4 H 0.4381 0.2571 0.6255
C6 C 0.4929(5) 0.1272(3) 0.55380(18)
H5 H 0.3985 0.1001 0.5179
H6 H 0.5336 0.0572 0.5997
C7 C 0.7078(5) 0.1544(2) 0.51153(15)
H7 H 0.8143 0.1687 0.5490
H8 H 0.7808 0.0821 0.4888
C8 C 0.6959(4) 0.5038(2) 0.26526(14)
H9 H 0.5920 0.5787 0.2438
C9 C 0.9052(5) 0.4760(2) 0.22213(15)
C10 C 0.9270(5) 0.5564(2) 0.14108(15)
C11 C 0.7447(5) 0.6413(3) 0.09905(16)
H10 H 0.6003 0.6500 0.1213
C12 C 0.7750(6) 0.7135(3) 0.02423(18)
H11 H 0.6500 0.7702 -0.0030
C13 C 0.9845(7) 0.7035(3) -0.01060(18)
C14 C 1.1670(7) 0.6174(4) 0.0314(2)
H12 H 1.3107 0.6082 0.0086
C15 C 1.1396(6) 0.5451(3) 0.10632(19)
H13 H 1.2647 0.4886 0.1335
C16 C 1.0177(8) 0.7832(5) -0.0923(2)
H14 H 0.9479 0.7525 -0.1324
H15 H 1.1780 0.7760 -0.1022
H16 H 0.9481 0.8715 -0.0940
C17 C 0.7703(4) 0.1939(2) 0.32696(13)
C18 C 0.9574(5) 0.0947(2) 0.32795(15)
H17 H 1.0897 0.0934 0.3559
C19 C 0.9496(6) -0.0027(3) 0.28778(17)
H18 H 1.0772 -0.0684 0.2895
C20 C 0.7601(6) -0.0046(2) 0.24589(16)
C21 C 0.5709(5) 0.0945(3) 0.24475(16)
H19 H 0.4389 0.0949 0.2170
C22 C 0.5773(4) 0.1931(2) 0.28486(15)
H20 H 0.4499 0.2590 0.2832
C23 C 0.7505(9) -0.1104(3) 0.2010(2)
H21 H 0.7313 -0.0743 0.1448
H22 H 0.6242 -0.1501 0.2195
H23 H 0.8902 -0.1735 0.2104
loop_
_geom_bond_atom_site_label_1
_geom_bond_atom_site_label_2
_geom_bond_site_symmetry_1
_geom_bond_site_symmetry_2
N1 C1 1_555 1_555
N2 H1 1_555 1_555
N3 O1 1_555 1_555
O2 N3 1_555 1_555
O3 C9 1_555 1_555
O4 H2 1_555 1_555
C1 N2 1_555 1_555
C2 N3 1_555 1_555
C3 C2 1_555 1_555
C4 N1 1_555 1_555
C5 N2 1_555 1_555
H3 C5 1_555 1_555
H4 C5 1_555 1_555
C6 C5 1_555 1_555
H5 C6 1_555 1_555
H6 C6 1_555 1_555
C7 N1 1_555 1_555
H7 C7 1_555 1_555
H8 C7 1_555 1_555
C8 C3 1_555 1_555
H9 C8 1_555 1_555
C9 C8 1_555 1_555
C10 C9 1_555 1_555
C11 C10 1_555 1_555
H10 C11 1_555 1_555
C12 C11 1_555 1_555
H11 C12 1_555 1_555
C13 C12 1_555 1_555
C14 C13 1_555 1_555
H12 C14 1_555 1_555
C15 C10 1_555 1_555
H13 C15 1_555 1_555
C16 C13 1_555 1_555
H14 C16 1_555 1_555
H15 C16 1_555 1_555
H16 C16 1_555 1_555
C17 C4 1_555 1_555
C18 C17 1_555 1_555
H17 C18 1_555 1_555
C19 C18 1_555 1_555
H18 C19 1_555 1_555
C20 C19 1_555 1_555
C21 C20 1_555 1_555
H19 C21 1_555 1_555
C22 C17 1_555 1_555
H20 C22 1_555 1_555
C23 C20 1_555 1_555
H21 C23 1_555 1_555
H22 C23 1_555 1_555
H23 C23 1_555 1_555
O4 C4 1_555 1_555
C1 C2 1_555 1_555
C3 C4 1_555 1_555
C6 C7 1_555 1_555
C14 C15 1_555 1_555
C21 C22 1_555 1_555

#END
