
#######################################################################
#
#                 Cambridge Crystallographic Data Centre
#                                CCDC 
#
#######################################################################
#
# If this CIF has been generated from an entry in the Cambridge 
# Structural Database, then it will include bibliographic, chemical, 
# crystal, experimental, refinement or atomic coordinate data resulting 
# from the CCDC's data processing and validation procedures.
#
#######################################################################

data_USUMAX
_chemical_formula_moiety         'C24 H21 N3 O4'
_chemical_name_systematic        
2-(7-Hydroxy-7-(4-methylphenyl)-9-nitro-3H-pyrrolo[1,2-a][1,3]diazepin-8(7H)-ylidene)-1-(4-methylphenyl)ethanone
_symmetry_cell_setting           triclinic
_symmetry_space_group_name_H-M   'P -1'
_symmetry_Int_Tables_number      2
_space_group_name_Hall           '-P 1'
loop_
_symmetry_equiv_pos_site_id
_symmetry_equiv_pos_as_xyz
1 x,y,z
2 -x,-y,-z
_cell_length_a                   6.4600(3)
_cell_length_b                   10.4517(4)
_cell_length_c                   15.7074(7)
_cell_angle_alpha                90.055(1)
_cell_angle_beta                 95.165(1)
_cell_angle_gamma                90.993(1)
_cell_volume                     1056.06
_exptl_crystal_colour            yellow
_chemical_melting_point          '200-205 deg.C (dec.)'
_cell_formula_units_Z            2
loop_
_atom_site_label
_atom_site_type_symbol
_atom_site_fract_x
_atom_site_fract_y
_atom_site_fract_z
O1 O -0.4673(3) 0.96095(18) 0.73713(13)
O2 O 0.1438(3) 0.78177(17) 0.58546(12)
O3 O 0.3489(3) 0.92069(19) 0.53344(12)
O4 O -0.3108(3) 1.15817(17) 0.66865(11)
H1 H -0.3945 1.1155 0.6935
N1 N 0.1984(3) 0.89440(19) 0.57477(11)
N2 N 0.2929(3) 1.1688(2) 0.55242(13)
N3 N 0.0283(3) 1.19549(18) 0.64422(12)
C1 C -0.4290(4) 0.7425(2) 0.76105(15)
C2 C -0.3063(4) 0.6363(3) 0.76909(18)
H2 H -0.1796 0.6365 0.7453
C3 C -0.3688(5) 0.5294(3) 0.8121(2)
H3 H -0.2821 0.4592 0.8172
C4 C -0.5534(5) 0.5239(3) 0.8471(2)
C5 C -0.6783(5) 0.6287(3) 0.8369(2)
H4 H -0.8073 0.6269 0.8589
C6 C -0.6173(4) 0.7364(3) 0.79498(19)
H5 H -0.7049 0.8061 0.7895
C7 C -0.6209(7) 0.4090(4) 0.8959(3)
H6 H -0.6533 0.3391 0.8571
H7 H -0.7418 0.4295 0.9242
H8 H -0.5106 0.3852 0.9377
C8 C -0.3612(3) 0.8666(2) 0.72514(14)
C9 C -0.1794(3) 0.8720(2) 0.67987(14)
H9 H -0.1281 0.7943 0.6628
C10 C -0.0739(3) 0.9794(2) 0.65928(13)
C11 C 0.0964(3) 0.9928(2) 0.60985(13)
C12 C 0.1488(3) 1.1254(2) 0.59940(13)
C13 C 0.3536(6) 1.2982(3) 0.5341(2)
H10 H 0.3983 1.3181 0.4810
C14 C 0.3457(11) 1.3953(6) 0.5965(6)
H11 H 0.4017 1.4739 0.5742
H12 H 0.4354 1.3718 0.6466
C15 C 0.1342(9) 1.4213(4) 0.6234(4)
H13 H 0.0864 1.5048 0.6211
C16 C 0.0148(8) 1.3310(3) 0.6501(4)
H14 H -0.0977 1.3596 0.6774
C17 C -0.1126(3) 1.1152(2) 0.69099(14)
C18 C -0.0484(3) 1.1255(2) 0.78648(13)
C19 C 0.1443(4) 1.0862(2) 0.81825(15)
H15 H 0.2337 1.0515 0.7815
C20 C 0.2070(4) 1.0975(2) 0.90411(16)
H16 H 0.3381 1.0697 0.9246
C21 C 0.0797(5) 1.1490(2) 0.95991(16)
C22 C -0.1120(5) 1.1858(3) 0.92770(17)
H17 H -0.2015 1.2202 0.9645
C23 C -0.1783(4) 1.1740(2) 0.84199(16)
H18 H -0.3113 1.1989 0.8220
C24 C 0.1553(7) 1.1658(3) 1.05246(18)
H19 H 0.2601 1.1040 1.0681
H20 H 0.0411 1.1536 1.0869
H21 H 0.2129 1.2505 1.0616
C25? C 0.2335(18) 1.4027(10) 0.5366(8)
H22? H 0.1228 1.3965 0.4907
H23? H 0.3173 1.4780 0.5261
loop_
_geom_bond_atom_site_label_1
_geom_bond_atom_site_label_2
_geom_bond_site_symmetry_1
_geom_bond_site_symmetry_2
O1 C8 1_555 1_555
O2 N1 1_555 1_555
O3 N1 1_555 1_555
O4 H1 1_555 1_555
N1 C11 1_555 1_555
N2 C12 1_555 1_555
N3 C12 1_555 1_555
C1 C2 1_555 1_555
C2 H2 1_555 1_555
C3 C2 1_555 1_555
H3 C3 1_555 1_555
C4 C3 1_555 1_555
C5 C4 1_555 1_555
H4 C5 1_555 1_555
C6 C1 1_555 1_555
H5 C6 1_555 1_555
C7 C4 1_555 1_555
H6 C7 1_555 1_555
H7 C7 1_555 1_555
H8 C7 1_555 1_555
C8 C1 1_555 1_555
C9 C8 1_555 1_555
H9 C9 1_555 1_555
C10 C9 1_555 1_555
C11 C10 1_555 1_555
C12 C11 1_555 1_555
C13 N2 1_555 1_555
H10 C13 1_555 1_555
C14 C13 1_555 1_555
H11 C14 1_555 1_555
H12 C14 1_555 1_555
C15 C14 1_555 1_555
H13 C15 1_555 1_555
C16 N3 1_555 1_555
H14 C16 1_555 1_555
C17 O4 1_555 1_555
C18 C17 1_555 1_555
C19 C18 1_555 1_555
H15 C19 1_555 1_555
C20 C19 1_555 1_555
H16 C20 1_555 1_555
C21 C20 1_555 1_555
C22 C21 1_555 1_555
H17 C22 1_555 1_555
C23 C18 1_555 1_555
H18 C23 1_555 1_555
C24 C21 1_555 1_555
H19 C24 1_555 1_555
H20 C24 1_555 1_555
H21 C24 1_555 1_555
N3 C17 1_555 1_555
C5 C6 1_555 1_555
C10 C17 1_555 1_555
C15 C16 1_555 1_555
C22 C23 1_555 1_555

#END
