
#######################################################################
#
#                 Cambridge Crystallographic Data Centre
#                                CCDC 
#
#######################################################################
#
# If this CIF has been generated from an entry in the Cambridge 
# Structural Database, then it will include bibliographic, chemical, 
# crystal, experimental, refinement or atomic coordinate data resulting 
# from the CCDC's data processing and validation procedures.
#
#######################################################################

data_USUPAA
_chemical_formula_moiety         'C29 H32 O3'
_chemical_name_systematic        
(2R,3R)-2-((R)-1-((1R,2R)-2-Hydroxy-1,2-diphenylethoxy)-2-phenylethyl)-3-methylcyclohexanone
_symmetry_cell_setting           orthorhombic
_symmetry_space_group_name_H-M   'P 21 21 21'
_symmetry_Int_Tables_number      19
_space_group_name_Hall           'P 2ac 2ab'
loop_
_symmetry_equiv_pos_site_id
_symmetry_equiv_pos_as_xyz
1 x,y,z
2 1/2-x,-y,1/2+z
3 -x,1/2+y,1/2-z
4 1/2+x,1/2-y,-z
_cell_length_a                   6.0160(3)
_cell_length_b                   16.9531(8)
_cell_length_c                   22.4464(11)
_cell_angle_alpha                90
_cell_angle_beta                 90
_cell_angle_gamma                90
_cell_volume                     2289.3
_exptl_crystal_colour            colorless
_exptl_crystal_description       needle
_chemical_melting_point          '415-417 K'
_cell_formula_units_Z            4
_exptl_crystal_recrystallization_method dichloromethane/hexane
loop_
_atom_site_label
_atom_site_type_symbol
_atom_site_fract_x
_atom_site_fract_y
_atom_site_fract_z
O1 O 0.0778(3) 0.49099(8) -0.04665(6)
C1 C 0.1775(3) 0.55190(11) -0.03741(8)
C2 C 0.3417(3) 0.56117(10) 0.01409(7)
H1 H 0.2710 0.5987 0.0427
C3 C 0.5602(3) 0.60099(10) -0.00664(8)
H2 H 0.6402 0.5635 -0.0336
C4 C 0.5089(3) 0.67625(11) -0.04195(8)
H3 H 0.4353 0.7147 -0.0153
H4 H 0.6503 0.6999 -0.0557
C5 C 0.3604(4) 0.66120(12) -0.09553(8)
H5 H 0.4369 0.6254 -0.1237
H6 H 0.3309 0.7116 -0.1164
C6 C 0.1410(4) 0.62431(13) -0.07583(8)
H7 H 0.0540 0.6637 -0.0531
H8 H 0.0536 0.6094 -0.1115
C7 C 0.7119(4) 0.62003(12) 0.04575(8)
H9 H 0.8484 0.6449 0.0311
H10 H 0.7494 0.5713 0.0669
H11 H 0.6356 0.6562 0.0730
O2 O 0.4447(2) 0.49316(7) 0.10778(5)
C8 C 0.3656(3) 0.48235(10) 0.04770(7)
H12 H 0.2159 0.4568 0.0496
C9 C 0.5266(4) 0.42457(11) 0.01828(7)
H13 H 0.4791 0.4151 -0.0233
H14 H 0.6770 0.4483 0.0173
C10 C 0.2840(3) 0.52133(10) 0.15007(7)
H15 H 0.1348 0.5248 0.1306
C11 C 0.2779(3) 0.45836(10) 0.19978(7)
H16 H 0.4302 0.4539 0.2173
O3 O 0.2186(3) 0.38400(7) 0.17531(6)
H17 H 0.3154 0.3700 0.1505
C12 C 0.5365(3) 0.34689(10) 0.05101(8)
C13 C 0.3690(4) 0.29102(11) 0.04399(8)
H18 H 0.2496 0.3011 0.0174
C14 C 0.3749(4) 0.22056(12) 0.07561(9)
H19 H 0.2607 0.1825 0.0702
C15 C 0.5469(4) 0.20578(12) 0.11494(9)
H20 H 0.5496 0.1579 0.1369
C16 C 0.7140(4) 0.26027(13) 0.12227(9)
H21 H 0.8323 0.2499 0.1492
C17 C 0.7099(4) 0.33048(12) 0.09029(8)
H22 H 0.8266 0.3677 0.0953
C18 C 0.3512(3) 0.60193(10) 0.17280(7)
C19 C 0.5608(3) 0.61380(11) 0.19720(8)
H23 H 0.6653 0.5718 0.1971
C20 C 0.6202(4) 0.68587(12) 0.22175(8)
H24 H 0.7632 0.6929 0.2389
C21 C 0.4684(4) 0.74785(12) 0.22105(9)
H25 H 0.5074 0.7974 0.2378
C22 C 0.2611(4) 0.73720(12) 0.19590(9)
H26 H 0.1582 0.7797 0.1950
C23 C 0.2024(4) 0.66439(11) 0.17177(8)
H27 H 0.0595 0.6575 0.1545
C24 C 0.1157(3) 0.47756(10) 0.24956(7)
C25 C -0.0885(3) 0.44015(11) 0.25337(7)
H28 H -0.1281 0.4016 0.2245
C26 C -0.2360(3) 0.45853(12) 0.29904(8)
H29 H -0.3750 0.4321 0.3013
C27 C -0.1817(4) 0.51500(11) 0.34120(8)
H30 H -0.2835 0.5280 0.3720
C28 C 0.0217(4) 0.55215(11) 0.33788(8)
H31 H 0.0600 0.5911 0.3665
C29 C 0.1712(4) 0.53311(11) 0.29295(8)
H32 H 0.3124 0.5581 0.2918
loop_
_geom_bond_atom_site_label_1
_geom_bond_atom_site_label_2
_geom_bond_site_symmetry_1
_geom_bond_site_symmetry_2
O1 C1 1_555 1_555
C1 C2 1_555 1_555
C2 H1 1_555 1_555
C3 C2 1_555 1_555
H2 C3 1_555 1_555
C4 C3 1_555 1_555
H3 C4 1_555 1_555
H4 C4 1_555 1_555
C5 C4 1_555 1_555
H5 C5 1_555 1_555
H6 C5 1_555 1_555
C6 C1 1_555 1_555
H7 C6 1_555 1_555
H8 C6 1_555 1_555
C7 C3 1_555 1_555
H9 C7 1_555 1_555
H10 C7 1_555 1_555
H11 C7 1_555 1_555
O2 C8 1_555 1_555
C8 C2 1_555 1_555
H12 C8 1_555 1_555
C9 C8 1_555 1_555
H13 C9 1_555 1_555
H14 C9 1_555 1_555
C10 O2 1_555 1_555
H15 C10 1_555 1_555
C11 C10 1_555 1_555
H16 C11 1_555 1_555
O3 C11 1_555 1_555
H17 O3 1_555 1_555
C12 C9 1_555 1_555
C13 C12 1_555 1_555
H18 C13 1_555 1_555
C14 C13 1_555 1_555
H19 C14 1_555 1_555
C15 C14 1_555 1_555
H20 C15 1_555 1_555
C16 C15 1_555 1_555
H21 C16 1_555 1_555
C17 C12 1_555 1_555
H22 C17 1_555 1_555
C18 C10 1_555 1_555
C19 C18 1_555 1_555
H23 C19 1_555 1_555
C20 C19 1_555 1_555
H24 C20 1_555 1_555
C21 C20 1_555 1_555
H25 C21 1_555 1_555
C22 C21 1_555 1_555
H26 C22 1_555 1_555
C23 C18 1_555 1_555
H27 C23 1_555 1_555
C24 C11 1_555 1_555
C25 C24 1_555 1_555
H28 C25 1_555 1_555
C26 C25 1_555 1_555
H29 C26 1_555 1_555
C27 C26 1_555 1_555
H30 C27 1_555 1_555
C28 C27 1_555 1_555
H31 C28 1_555 1_555
C29 C24 1_555 1_555
H32 C29 1_555 1_555
C5 C6 1_555 1_555
C16 C17 1_555 1_555
C22 C23 1_555 1_555
C28 C29 1_555 1_555

#END
