
#######################################################################
#
#                 Cambridge Crystallographic Data Centre
#                                CCDC 
#
#######################################################################
#
# If this CIF has been generated from an entry in the Cambridge 
# Structural Database, then it will include bibliographic, chemical, 
# crystal, experimental, refinement or atomic coordinate data resulting 
# from the CCDC's data processing and validation procedures.
#
#######################################################################

data_USURAD
_chemical_formula_moiety         'C32 H23 N1 O1'
_chemical_name_systematic        
3-(diphenylmethylene)-2-(4-methylphenyl)-2,3-dihydro-1H-benzo[e]isoindol-1-one
_symmetry_cell_setting           monoclinic
_symmetry_space_group_name_H-M   'P 21/n'
_symmetry_Int_Tables_number      14
_space_group_name_Hall           '-P 2yn'
loop_
_symmetry_equiv_pos_site_id
_symmetry_equiv_pos_as_xyz
1 x,y,z
2 1/2-x,1/2+y,1/2-z
3 -x,-y,-z
4 1/2+x,1/2-y,1/2+z
_cell_length_a                   13.2048(6)
_cell_length_b                   9.7962(4)
_cell_length_c                   36.300(2)
_cell_angle_alpha                90
_cell_angle_beta                 90.681(5)
_cell_angle_gamma                90
_cell_volume                     4695.32
_exptl_crystal_colour            yellow
_exptl_crystal_description       block
_cell_formula_units_Z            8
loop_
_atom_site_label
_atom_site_type_symbol
_atom_site_fract_x
_atom_site_fract_y
_atom_site_fract_z
O1 O 0.13363(9) 0.73338(12) 0.06881(3)
N1 N 0.29488(10) 0.79465(14) 0.08879(4)
C1 C -0.02506(13) 0.83738(18) 0.12552(5)
H1 H -0.0247 0.7839 0.1037
C2 C -0.11459(14) 0.8686(2) 0.14197(6)
H2 H -0.1763 0.8386 0.1310
C3 C -0.11732(15) 0.9442(2) 0.17473(6)
H3 H -0.1804 0.9641 0.1859
C4 C -0.02945(14) 0.9890(2) 0.19058(5)
H4 H -0.0317 1.0393 0.2129
C5 C 0.06506(13) 0.96200(17) 0.17425(5)
C6 C 0.06731(13) 0.88494(17) 0.14108(5)
C7 C 0.16409(12) 0.86430(16) 0.12523(4)
C8 C 0.25181(12) 0.91992(16) 0.13986(4)
C9 C 0.24877(13) 0.99164(17) 0.17363(5)
H5 H 0.3091 1.0258 0.1847
C10 C 0.15783(13) 1.01059(18) 0.18984(5)
H6 H 0.1559 1.0584 0.2126
C11 C 0.18924(13) 0.78890(17) 0.09155(5)
C12 C 0.33750(12) 0.87846(17) 0.11705(4)
C13 C 0.34097(12) 0.77744(18) 0.05358(5)
C14 C 0.36285(13) 0.64999(19) 0.04005(5)
H7 H 0.3478 0.5710 0.0542
C15 C 0.40680(14) 0.6369(2) 0.00586(5)
H8 H 0.4200 0.5484 -0.0036
C16 C 0.43197(14) 0.7507(2) -0.01490(5)
C17 C 0.40674(15) 0.8781(2) -0.00111(5)
H9 H 0.4211 0.9573 -0.0152
C18 C 0.36130(14) 0.89217(19) 0.03266(5)
H10 H 0.3440 0.9802 0.0415
C19 C 0.48487(19) 0.7378(3) -0.05137(6)
H11 H 0.5237 0.6526 -0.0518
H12 H 0.5308 0.8153 -0.0546
H13 H 0.4344 0.7371 -0.0714
C20 C 0.43852(12) 0.90293(17) 0.12165(4)
C21 C 0.51806(13) 0.8157(2) 0.10495(5)
C22 C 0.51474(15) 0.6742(2) 0.10801(5)
H14 H 0.4586 0.6324 0.1196
C23 C 0.59148(17) 0.5935(3) 0.09449(6)
H15 H 0.5889 0.4972 0.0976
C24 C 0.67133(18) 0.6517(3) 0.07660(6)
H16 H 0.7231 0.5958 0.0667
C25 C 0.67639(17) 0.7912(3) 0.07306(6)
H17 H 0.7317 0.8316 0.0606
C26 C 0.60099(15) 0.8735(2) 0.08761(5)
H18 H 0.6062 0.9700 0.0857
C27 C 0.47548(12) 1.02090(18) 0.14350(4)
C28 C 0.55784(14) 1.0079(2) 0.16783(5)
H19 H 0.5881 0.9209 0.1716
C29 C 0.59546(16) 1.1196(2) 0.18638(6)
H20 H 0.6507 1.1091 0.2032
C30 C 0.55341(17) 1.2468(2) 0.18075(6)
H21 H 0.5802 1.3238 0.1934
C31 C 0.47214(15) 1.2624(2) 0.15667(6)
H22 H 0.4430 1.3500 0.1528
C32 C 0.43358(13) 1.14975(18) 0.13832(5)
H23 H 0.3776 1.1606 0.1219
O2 O 0.29749(9) 0.47480(13) 0.12774(3)
N2 N 0.12421(10) 0.43620(14) 0.12512(4)
C33 C 0.35019(14) 0.65189(19) 0.19645(5)
H24 H 0.3852 0.6064 0.1773
C34 C 0.40253(16) 0.7334(2) 0.22075(6)
H25 H 0.4736 0.7444 0.2181
C35 C 0.35284(17) 0.8007(2) 0.24939(6)
H26 H 0.3900 0.8579 0.2658
C36 C 0.25119(16) 0.78416(19) 0.25374(5)
H27 H 0.2183 0.8287 0.2735
C37 C 0.19396(15) 0.70140(17) 0.22917(5)
C38 C 0.24465(14) 0.63538(17) 0.19979(5)
C39 C 0.18305(13) 0.55831(17) 0.17482(4)
C40 C 0.07947(13) 0.54480(17) 0.17882(4)
C41 C 0.03019(14) 0.61329(18) 0.20788(5)
H28 H -0.0412 0.6074 0.2104
C42 C 0.08714(15) 0.68787(18) 0.23210(5)
H29 H 0.0541 0.7327 0.2518
C43 C 0.21311(13) 0.48842(18) 0.14082(5)
C44 C 0.03892(13) 0.46533(17) 0.14731(4)
C45 C 0.12867(12) 0.34332(17) 0.09457(4)
C46 C 0.16780(13) 0.38748(19) 0.06164(5)
H30 H 0.1920 0.4783 0.0593
C47 C 0.17165(14) 0.2989(2) 0.03199(5)
H31 H 0.2009 0.3291 0.0096
C48 C 0.13371(13) 0.16688(19) 0.03423(5)
C49 C 0.09482(14) 0.12527(18) 0.06759(5)
H32 H 0.0683 0.0355 0.0698
C50 C 0.09353(14) 0.21086(18) 0.09795(5)
H33 H 0.0688 0.1790 0.1209
C51 C 0.13308(17) 0.0732(2) 0.00124(6)
H34 H 0.1064 -0.0162 0.0083
H35 H 0.2023 0.0627 -0.0078
H36 H 0.0902 0.1124 -0.0183
C52 C -0.05959(13) 0.43438(17) 0.13968(5)
C53 C -0.09895(12) 0.38961(18) 0.10304(5)
C54 C -0.07052(13) 0.45510(19) 0.07093(5)
H37 H -0.0268 0.5320 0.0722
C55 C -0.10570(14) 0.4087(2) 0.03693(5)
H38 H -0.0858 0.4540 0.0150
C56 C -0.16924(15) 0.2973(2) 0.03481(6)
H39 H -0.1916 0.2644 0.0115
C57 C -0.20016(16) 0.2341(2) 0.06646(6)
H40 H -0.2448 0.1583 0.0650
C58 C -0.16652(14) 0.2805(2) 0.10053(5)
H41 H -0.1897 0.2377 0.1223
C59 C -0.13601(13) 0.44609(18) 0.16932(5)
C60 C -0.21663(14) 0.5366(2) 0.16588(5)
H42 H -0.2256 0.5865 0.1436
C61 C -0.28402(15) 0.5552(2) 0.19431(6)
H43 H -0.3376 0.6194 0.1918
C62 C -0.27365(17) 0.4809(3) 0.22621(6)
H44 H -0.3193 0.4948 0.2459
C63 C -0.19722(18) 0.3863(2) 0.22962(6)
H45 H -0.1915 0.3329 0.2514
C64 C -0.12842(15) 0.3685(2) 0.20144(5)
H46 H -0.0757 0.3031 0.2041
loop_
_geom_bond_atom_site_label_1
_geom_bond_atom_site_label_2
_geom_bond_site_symmetry_1
_geom_bond_site_symmetry_2
O1 C11 1_555 1_555
N1 C11 1_555 1_555
C1 H1 1_555 1_555
C2 C1 1_555 1_555
H2 C2 1_555 1_555
C3 C2 1_555 1_555
H3 C3 1_555 1_555
C4 C3 1_555 1_555
H4 C4 1_555 1_555
C5 C4 1_555 1_555
C6 C1 1_555 1_555
C7 C6 1_555 1_555
C8 C7 1_555 1_555
C9 C8 1_555 1_555
H5 C9 1_555 1_555
C10 C5 1_555 1_555
H6 C10 1_555 1_555
C11 C7 1_555 1_555
C12 N1 1_555 1_555
C13 N1 1_555 1_555
C14 C13 1_555 1_555
H7 C14 1_555 1_555
C15 C14 1_555 1_555
H8 C15 1_555 1_555
C16 C15 1_555 1_555
C17 C16 1_555 1_555
H9 C17 1_555 1_555
C18 C13 1_555 1_555
H10 C18 1_555 1_555
C19 C16 1_555 1_555
H11 C19 1_555 1_555
H12 C19 1_555 1_555
H13 C19 1_555 1_555
C20 C12 1_555 1_555
C21 C20 1_555 1_555
C22 C21 1_555 1_555
H14 C22 1_555 1_555
C23 C22 1_555 1_555
H15 C23 1_555 1_555
C24 C23 1_555 1_555
H16 C24 1_555 1_555
C25 C24 1_555 1_555
H17 C25 1_555 1_555
C26 C21 1_555 1_555
H18 C26 1_555 1_555
C27 C20 1_555 1_555
C28 C27 1_555 1_555
H19 C28 1_555 1_555
C29 C28 1_555 1_555
H20 C29 1_555 1_555
C30 C29 1_555 1_555
H21 C30 1_555 1_555
C31 C30 1_555 1_555
H22 C31 1_555 1_555
C32 C27 1_555 1_555
H23 C32 1_555 1_555
O2 C43 1_555 1_555
N2 C43 1_555 1_555
C33 H24 1_555 1_555
C34 C33 1_555 1_555
H25 C34 1_555 1_555
C35 C34 1_555 1_555
H26 C35 1_555 1_555
C36 C35 1_555 1_555
H27 C36 1_555 1_555
C37 C36 1_555 1_555
C38 C33 1_555 1_555
C39 C38 1_555 1_555
C40 C39 1_555 1_555
C41 C40 1_555 1_555
H28 C41 1_555 1_555
C42 C37 1_555 1_555
H29 C42 1_555 1_555
C43 C39 1_555 1_555
C44 N2 1_555 1_555
C45 N2 1_555 1_555
C46 C45 1_555 1_555
H30 C46 1_555 1_555
C47 C46 1_555 1_555
H31 C47 1_555 1_555
C48 C47 1_555 1_555
C49 C48 1_555 1_555
H32 C49 1_555 1_555
C50 C45 1_555 1_555
H33 C50 1_555 1_555
C51 C48 1_555 1_555
H34 C51 1_555 1_555
H35 C51 1_555 1_555
H36 C51 1_555 1_555
C52 C44 1_555 1_555
C53 C52 1_555 1_555
C54 C53 1_555 1_555
H37 C54 1_555 1_555
C55 C54 1_555 1_555
H38 C55 1_555 1_555
C56 C55 1_555 1_555
H39 C56 1_555 1_555
C57 C56 1_555 1_555
H40 C57 1_555 1_555
C58 C53 1_555 1_555
H41 C58 1_555 1_555
C59 C52 1_555 1_555
C60 C59 1_555 1_555
H42 C60 1_555 1_555
C61 C60 1_555 1_555
H43 C61 1_555 1_555
C62 C61 1_555 1_555
H44 C62 1_555 1_555
C63 C62 1_555 1_555
H45 C63 1_555 1_555
C64 C59 1_555 1_555
H46 C64 1_555 1_555
C5 C6 1_555 1_555
C8 C12 1_555 1_555
C9 C10 1_555 1_555
C17 C18 1_555 1_555
C25 C26 1_555 1_555
C31 C32 1_555 1_555
C37 C38 1_555 1_555
C40 C44 1_555 1_555
C41 C42 1_555 1_555
C49 C50 1_555 1_555
C57 C58 1_555 1_555
C63 C64 1_555 1_555

#END
