
#######################################################################
#
#                 Cambridge Crystallographic Data Centre
#                                CCDC 
#
#######################################################################
#
# If this CIF has been generated from an entry in the Cambridge 
# Structural Database, then it will include bibliographic, chemical, 
# crystal, experimental, refinement or atomic coordinate data resulting 
# from the CCDC's data processing and validation procedures.
#
#######################################################################

data_USUSOR
_chemical_name_common            
"N'-(Diphenylphosphino)-N,N',P,P-tetraphenylphosphinous hydrazide"
_chemical_formula_moiety         'C36 H30 N2 P2'
_chemical_name_systematic        
1,2-bis(Diphenylphosphino)-1,2-diphenylhydrazine
_symmetry_cell_setting           monoclinic
_symmetry_space_group_name_H-M   'P 21/n'
_symmetry_Int_Tables_number      14
_space_group_name_Hall           '-P 2yn'
loop_
_symmetry_equiv_pos_site_id
_symmetry_equiv_pos_as_xyz
1 x,y,z
2 1/2-x,1/2+y,1/2-z
3 -x,-y,-z
4 1/2+x,1/2-y,1/2+z
_cell_length_a                   12.5395(6)
_cell_length_b                   12.1391(3)
_cell_length_c                   19.5058(8)
_cell_angle_alpha                90
_cell_angle_beta                 106.893(3)
_cell_angle_gamma                90
_cell_volume                     2841.02
_exptl_crystal_colour            colorless
_exptl_crystal_description       prism
_cell_formula_units_Z            4
loop_
_atom_site_label
_atom_site_type_symbol
_atom_site_fract_x
_atom_site_fract_y
_atom_site_fract_z
C1 C 0.65056(15) 0.09745(16) 0.15780(9)
C2 C 0.62495(19) 0.0677(2) 0.08549(10)
H1 H 0.5631 0.0210 0.0651
C3 C 0.6886(2) 0.1057(2) 0.04381(13)
H2 H 0.6707 0.0843 -0.0051
C4 C 0.7780(2) 0.1742(2) 0.07196(14)
H3 H 0.8216 0.2002 0.0428
C5 C 0.8034(2) 0.20457(19) 0.14279(14)
H4 H 0.8650 0.2520 0.1625
C6 C 0.74044(16) 0.16695(17) 0.18570(11)
H5 H 0.7589 0.1889 0.2345
C7 C 0.51664(13) -0.08023(16) 0.18497(9)
C8 C 0.58085(15) -0.15825(17) 0.16319(10)
H6 H 0.6537 -0.1391 0.1618
C9 C 0.54090(16) -0.26353(18) 0.14343(10)
H7 H 0.5865 -0.3160 0.1292
C10 C 0.43521(17) -0.29213(18) 0.14439(10)
H8 H 0.4075 -0.3640 0.1304
C11 C 0.36931(17) -0.21574(19) 0.16589(11)
H9 H 0.2964 -0.2353 0.1670
C12 C 0.40990(15) -0.11121(18) 0.18576(10)
H10 H 0.3641 -0.0592 0.2003
C13 C 0.73054(13) 0.01133(15) 0.33556(9)
C14 C 0.79827(14) -0.04002(15) 0.30012(9)
H11 H 0.7777 -0.0397 0.2492
C15 C 0.89565(15) -0.09174(17) 0.33872(10)
H12 H 0.9418 -0.1258 0.3139
C16 C 0.92679(15) -0.09462(18) 0.41261(10)
H13 H 0.9934 -0.1308 0.4387
C17 C 0.85913(15) -0.04380(17) 0.44796(10)
H14 H 0.8794 -0.0453 0.4988
C18 C 0.76296(14) 0.00886(16) 0.41029(9)
H15 H 0.7180 0.0440 0.4354
C19 C 0.50505(13) 0.07683(16) 0.37055(8)
C20 C 0.49759(14) -0.03779(15) 0.36842(9)
H16 H 0.5411 -0.0789 0.3449
C21 C 0.42765(15) -0.09187(18) 0.40014(10)
H17 H 0.4247 -0.1701 0.3993
C22 C 0.36177(16) -0.0336(2) 0.43314(10)
H18 H 0.3134 -0.0713 0.4548
C23 C 0.36693(14) 0.07973(19) 0.43437(9)
H19 H 0.3213 0.1204 0.4566
C24 C 0.43800(14) 0.13495(17) 0.40358(9)
H20 H 0.4410 0.2131 0.4050
C25 C 0.66391(14) 0.29900(15) 0.44700(9)
C26 C 0.77192(15) 0.27482(17) 0.48844(10)
H21 H 0.8209 0.2374 0.4672
C27 C 0.80916(17) 0.30424(19) 0.55973(11)
H22 H 0.8828 0.2859 0.5874
C28 C 0.73958(18) 0.36030(19) 0.59098(10)
H23 H 0.7650 0.3803 0.6401
C29 C 0.63310(18) 0.38714(18) 0.55066(10)
H24 H 0.5854 0.4266 0.5719
C30 C 0.59556(15) 0.35665(17) 0.47924(9)
H25 H 0.5220 0.3754 0.4519
C31 C 0.50657(14) 0.35019(16) 0.31279(9)
C32 C 0.51854(16) 0.46381(16) 0.32073(10)
H26 H 0.5863 0.4940 0.3502
C33 C 0.43197(18) 0.53324(18) 0.28585(10)
H27 H 0.4405 0.6107 0.2918
C34 C 0.33413(18) 0.4907(2) 0.24286(11)
H28 H 0.2748 0.5385 0.2193
C35 C 0.32216(16) 0.3784(2) 0.23399(11)
H29 H 0.2544 0.3490 0.2040
C36 C 0.40744(15) 0.30806(17) 0.26811(9)
H30 H 0.3985 0.2308 0.2611
N1 N 0.63126(11) 0.06709(13) 0.29748(7)
N2 N 0.58011(11) 0.13195(13) 0.34025(7)
P1 P 0.55283(4) 0.06424(4) 0.20868(2)
P2 P 0.62960(3) 0.26495(4) 0.35095(2)
loop_
_geom_bond_atom_site_label_1
_geom_bond_atom_site_label_2
_geom_bond_site_symmetry_1
_geom_bond_site_symmetry_2
C1 C2 1_555 1_555
C2 H1 1_555 1_555
C3 C2 1_555 1_555
H2 C3 1_555 1_555
C4 C3 1_555 1_555
H3 C4 1_555 1_555
C5 C4 1_555 1_555
H4 C5 1_555 1_555
C6 C1 1_555 1_555
H5 C6 1_555 1_555
C7 C8 1_555 1_555
C8 H6 1_555 1_555
C9 C8 1_555 1_555
H7 C9 1_555 1_555
C10 C9 1_555 1_555
H8 C10 1_555 1_555
C11 C10 1_555 1_555
H9 C11 1_555 1_555
C12 C7 1_555 1_555
H10 C12 1_555 1_555
C13 C14 1_555 1_555
C14 H11 1_555 1_555
C15 C14 1_555 1_555
H12 C15 1_555 1_555
C16 C15 1_555 1_555
H13 C16 1_555 1_555
C17 C16 1_555 1_555
H14 C17 1_555 1_555
C18 C13 1_555 1_555
H15 C18 1_555 1_555
C19 C20 1_555 1_555
C20 H16 1_555 1_555
C21 C20 1_555 1_555
H17 C21 1_555 1_555
C22 C21 1_555 1_555
H18 C22 1_555 1_555
C23 C22 1_555 1_555
H19 C23 1_555 1_555
C24 C19 1_555 1_555
H20 C24 1_555 1_555
C25 C26 1_555 1_555
C26 H21 1_555 1_555
C27 C26 1_555 1_555
H22 C27 1_555 1_555
C28 C27 1_555 1_555
H23 C28 1_555 1_555
C29 C28 1_555 1_555
H24 C29 1_555 1_555
C30 C25 1_555 1_555
H25 C30 1_555 1_555
C31 C32 1_555 1_555
C32 H26 1_555 1_555
C33 C32 1_555 1_555
H27 C33 1_555 1_555
C34 C33 1_555 1_555
H28 C34 1_555 1_555
C35 C34 1_555 1_555
H29 C35 1_555 1_555
C36 C31 1_555 1_555
H30 C36 1_555 1_555
N1 C13 1_555 1_555
N2 C19 1_555 1_555
P1 C1 1_555 1_555
P2 C25 1_555 1_555
C5 C6 1_555 1_555
C7 P1 1_555 1_555
C11 C12 1_555 1_555
C17 C18 1_555 1_555
C23 C24 1_555 1_555
C29 C30 1_555 1_555
C31 P2 1_555 1_555
C35 C36 1_555 1_555
N1 N2 1_555 1_555
N1 P1 1_555 1_555
N2 P2 1_555 1_555

#END
