
#######################################################################
#
#                 Cambridge Crystallographic Data Centre
#                                CCDC 
#
#######################################################################
#
# If this CIF has been generated from an entry in the Cambridge 
# Structural Database, then it will include bibliographic, chemical, 
# crystal, experimental, refinement or atomic coordinate data resulting 
# from the CCDC's data processing and validation procedures.
#
#######################################################################

data_USUTAF
_chemical_formula_moiety         'C44 H31 N1 O1'
_chemical_name_systematic        
'3-(bis(biphenyl-4-yl)methylene)-2-(4-methylphenyl)-2,3-dihydro-1H-benzo[e]isoindol-1-one unknown solvate'
_symmetry_cell_setting           monoclinic
_symmetry_space_group_name_H-M   'P 21/n'
_symmetry_Int_Tables_number      14
_space_group_name_Hall           '-P 2yn'
loop_
_symmetry_equiv_pos_site_id
_symmetry_equiv_pos_as_xyz
1 x,y,z
2 1/2-x,1/2+y,1/2-z
3 -x,-y,-z
4 1/2+x,1/2-y,1/2+z
_cell_length_a                   9.7155(5)
_cell_length_b                   11.1424(6)
_cell_length_c                   33.670(2)
_cell_angle_alpha                90
_cell_angle_beta                 94.871(6)
_cell_angle_gamma                90
_cell_volume                     3631.75
_exptl_crystal_colour            yellow
_exptl_crystal_description       block
_cell_formula_units_Z            4
loop_
_atom_site_label
_atom_site_type_symbol
_atom_site_fract_x
_atom_site_fract_y
_atom_site_fract_z
O1 O 0.3621(2) 0.60694(16) 0.13294(6)
N1 N 0.45878(19) 0.77444(16) 0.16531(5)
C1 C 0.3642(2) 0.3952(2) 0.19181(9)
H1 H 0.3512 0.4076 0.1644
C2 C 0.3421(3) 0.2850(2) 0.20715(12)
H2 H 0.3130 0.2226 0.1901
C3 C 0.3624(3) 0.2638(3) 0.24805(13)
H3 H 0.3452 0.1880 0.2580
C4 C 0.4070(3) 0.3530(3) 0.27340(10)
H4 H 0.4227 0.3373 0.3005
C5 C 0.4298(2) 0.4703(2) 0.25876(8)
C6 C 0.4072(2) 0.4916(2) 0.21756(8)
C7 C 0.4299(2) 0.6100(2) 0.20407(7)
C8 C 0.4779(2) 0.7015(2) 0.22929(7)
C9 C 0.5056(2) 0.6778(2) 0.27045(7)
H5 H 0.5412 0.7372 0.2878
C10 C 0.4786(2) 0.5653(2) 0.28414(8)
H6 H 0.4931 0.5505 0.3114
C11 C 0.4115(2) 0.6553(2) 0.16314(7)
C12 C 0.5031(2) 0.8077(2) 0.20520(7)
C13 C 0.4116(2) 0.8571(2) 0.13451(7)
C14 C 0.3266(3) 0.9501(2) 0.14250(9)
H7 H 0.3031 0.9631 0.1684
C15 C 0.2756(4) 1.0249(3) 0.11175(13)
H8 H 0.2180 1.0880 0.1175
C16 C 0.3069(5) 1.0090(3) 0.07350(12)
C17 C 0.3930(4) 0.9153(4) 0.06610(10)
H9 H 0.4167 0.9027 0.0402
C18 C 0.4456(3) 0.8389(3) 0.09619(8)
H10 H 0.5034 0.7758 0.0905
C19 C 0.2454(7) 1.0890(5) 0.04010(16)
H11 H 0.3026 1.0865 0.0182
H12 H 0.2402 1.1700 0.0496
H13 H 0.1543 1.0612 0.0313
C20 C 0.5741(2) 0.9099(2) 0.21530(7)
C21 C 0.5835(2) 0.9564(2) 0.25666(7)
C22 C 0.4669(2) 0.96373(19) 0.27806(7)
H14 H 0.3837 0.9320 0.2670
C23 C 0.4717(2) 1.0166(2) 0.31500(7)
H15 H 0.3922 1.0186 0.3285
C24 C 0.5929(2) 1.0670(2) 0.33259(7)
C25 C 0.7090(2) 1.0579(2) 0.31170(7)
H16 H 0.7923 1.0891 0.3229
C26 C 0.7047(2) 1.0039(2) 0.27468(8)
H17 H 0.7850 0.9993 0.2616
C27 C 0.5952(2) 1.1307(2) 0.37123(7)
C28 C 0.4798(3) 1.1909(2) 0.38234(8)
H18 H 0.3994 1.1910 0.3653
C29 C 0.4816(3) 1.2509(3) 0.41828(9)
H19 H 0.4028 1.2905 0.4252
C30 C 0.5983(4) 1.2523(3) 0.44366(9)
H20 H 0.5993 1.2932 0.4678
C31 C 0.7132(4) 1.1940(3) 0.43378(9)
H21 H 0.7926 1.1945 0.4513
C32 C 0.7128(3) 1.1338(3) 0.39770(8)
H22 H 0.7925 1.0949 0.3912
C33 C 0.6417(2) 0.9822(2) 0.18578(7)
C34 C 0.6381(2) 1.1066(2) 0.18587(7)
H23 H 0.5930 1.1464 0.2053
C35 C 0.7000(3) 1.1723(2) 0.15770(8)
H24 H 0.6960 1.2557 0.1585
C36 C 0.7681(3) 1.1166(2) 0.12821(7)
C37 C 0.7764(3) 0.9923(2) 0.12896(8)
H25 H 0.8245 0.9529 0.1101
C38 C 0.7151(2) 0.9263(2) 0.15698(8)
H26 H 0.7225 0.8431 0.1568
C39 C 0.8305(4) 1.1864(3) 0.09704(9)
C40 C 0.9084(5) 1.2888(3) 0.10618(12)
H27 H 0.9239 1.3131 0.1326
C41 C 0.9632(6) 1.3553(4) 0.07666(15)
H28 H 1.0157 1.4233 0.0832
C42 C 0.9393(7) 1.3199(5) 0.03726(16)
H29 H 0.9721 1.3665 0.0172
C43 C 0.8677(7) 1.2169(6) 0.02780(15)
H30 H 0.8556 1.1912 0.0015
C44 C 0.8132(5) 1.1507(4) 0.05764(12)
H31 H 0.7641 1.0809 0.0510
loop_
_geom_bond_atom_site_label_1
_geom_bond_atom_site_label_2
_geom_bond_site_symmetry_1
_geom_bond_site_symmetry_2
O1 C11 1_555 1_555
N1 C11 1_555 1_555
C1 H1 1_555 1_555
C2 C1 1_555 1_555
H2 C2 1_555 1_555
C3 C2 1_555 1_555
H3 C3 1_555 1_555
C4 C3 1_555 1_555
H4 C4 1_555 1_555
C5 C4 1_555 1_555
C6 C1 1_555 1_555
C7 C6 1_555 1_555
C8 C7 1_555 1_555
C9 C8 1_555 1_555
H5 C9 1_555 1_555
C10 C5 1_555 1_555
H6 C10 1_555 1_555
C11 C7 1_555 1_555
C12 N1 1_555 1_555
C13 N1 1_555 1_555
C14 C13 1_555 1_555
H7 C14 1_555 1_555
C15 C14 1_555 1_555
H8 C15 1_555 1_555
C16 C15 1_555 1_555
C17 C16 1_555 1_555
H9 C17 1_555 1_555
C18 C13 1_555 1_555
H10 C18 1_555 1_555
C19 C16 1_555 1_555
H11 C19 1_555 1_555
H12 C19 1_555 1_555
H13 C19 1_555 1_555
C20 C12 1_555 1_555
C21 C20 1_555 1_555
C22 C21 1_555 1_555
H14 C22 1_555 1_555
C23 C22 1_555 1_555
H15 C23 1_555 1_555
C24 C23 1_555 1_555
C25 C24 1_555 1_555
H16 C25 1_555 1_555
C26 C21 1_555 1_555
H17 C26 1_555 1_555
C27 C24 1_555 1_555
C28 C27 1_555 1_555
H18 C28 1_555 1_555
C29 C28 1_555 1_555
H19 C29 1_555 1_555
C30 C29 1_555 1_555
H20 C30 1_555 1_555
C31 C30 1_555 1_555
H21 C31 1_555 1_555
C32 C27 1_555 1_555
H22 C32 1_555 1_555
C33 C20 1_555 1_555
C34 C33 1_555 1_555
H23 C34 1_555 1_555
C35 C34 1_555 1_555
H24 C35 1_555 1_555
C36 C35 1_555 1_555
C37 C36 1_555 1_555
H25 C37 1_555 1_555
C38 C33 1_555 1_555
H26 C38 1_555 1_555
C39 C36 1_555 1_555
C40 C39 1_555 1_555
H27 C40 1_555 1_555
C41 C40 1_555 1_555
H28 C41 1_555 1_555
C42 C41 1_555 1_555
H29 C42 1_555 1_555
C43 C42 1_555 1_555
H30 C43 1_555 1_555
C44 C39 1_555 1_555
H31 C44 1_555 1_555
C5 C6 1_555 1_555
C8 C12 1_555 1_555
C9 C10 1_555 1_555
C17 C18 1_555 1_555
C25 C26 1_555 1_555
C31 C32 1_555 1_555
C37 C38 1_555 1_555
C43 C44 1_555 1_555

#END
