
#######################################################################
#
#                 Cambridge Crystallographic Data Centre
#                                CCDC 
#
#######################################################################
#
# If this CIF has been generated from an entry in the Cambridge 
# Structural Database, then it will include bibliographic, chemical, 
# crystal, experimental, refinement or atomic coordinate data resulting 
# from the CCDC's data processing and validation procedures.
#
#######################################################################

data_UTABUN
_chemical_formula_moiety         'C20 H16 N4 O4'
_chemical_name_systematic        
'Methyl 6-(((6-(benzoylamino)pyridin-2-yl)carbonyl)amino)pyridine-2-carboxylate'
_symmetry_cell_setting           monoclinic
_symmetry_space_group_name_H-M   'C 2/c'
_symmetry_Int_Tables_number      15
_space_group_name_Hall           '-C 2yn'
loop_
_symmetry_equiv_pos_site_id
_symmetry_equiv_pos_as_xyz
1 x,y,z
2 -x,y,1/2-z
3 1/2+x,1/2+y,z
4 1/2-x,1/2+y,1/2-z
5 -x,-y,-z
6 x,-y,1/2+z
7 1/2-x,1/2-y,-z
8 1/2+x,1/2-y,1/2+z
_cell_length_a                   34.441(2)
_cell_length_b                   5.2810(3)
_cell_length_c                   19.1556(12)
_cell_angle_alpha                90
_cell_angle_beta                 90.6040(10)
_cell_angle_gamma                90
_cell_volume                     3483.88
_exptl_crystal_colour            colorless
_exptl_crystal_description       rod
_cell_formula_units_Z            8
loop_
_atom_site_label
_atom_site_type_symbol
_atom_site_fract_x
_atom_site_fract_y
_atom_site_fract_z
O1 O 0.72714(3) -0.3561(2) 0.40232(6)
O2 O 0.55991(3) 0.3624(3) 0.51785(6)
O3 O 0.60244(4) 1.0753(3) 0.22126(7)
O4 O 0.55514(3) 1.3554(2) 0.24011(6)
N1 N 0.71285(4) 0.0598(3) 0.41813(7)
H1 H 0.7162(5) 0.207(4) 0.4028(9)
N2 N 0.59318(4) 0.5154(3) 0.42429(7)
H2 H 0.6144(5) 0.499(4) 0.4020(9)
N3 N 0.65184(4) 0.1938(2) 0.45065(7)
N4 N 0.58200(4) 0.8304(2) 0.34461(7)
C1 C 0.77891(5) -0.2151(3) 0.29340(8)
H3 H 0.7652 -0.3665 0.2855
C2 C 0.80976(5) -0.1530(4) 0.25130(9)
H4 H 0.8168 -0.2615 0.2147
C3 C 0.83034(5) 0.0683(3) 0.26278(9)
H5 H 0.8511 0.1119 0.2336
C4 C 0.82017(5) 0.2251(3) 0.31748(9)
H6 H 0.8346 0.3730 0.3263
C5 C 0.78890(4) 0.1661(3) 0.35952(9)
H7 H 0.7819 0.2752 0.3960
C6 C 0.76800(4) -0.0551(3) 0.34743(8)
C7 C 0.73464(4) -0.1333(3) 0.39127(8)
C8 C 0.68011(4) 0.0258(3) 0.46050(8)
C9 C 0.67862(5) -0.1655(3) 0.51089(8)
H8 H 0.6989 -0.2840 0.5154
C10 C 0.64699(5) -0.1760(3) 0.55338(9)
H9 H 0.6454 -0.3004 0.5883
C11 C 0.61728(5) -0.0021(3) 0.54459(8)
H10 H 0.5953 -0.0055 0.5733
C12 C 0.62085(4) 0.1766(3) 0.49249(8)
C13 C 0.58816(4) 0.3604(3) 0.48010(8)
C14 C 0.56830(4) 0.7056(3) 0.39939(8)
C15 C 0.53216(5) 0.7560(3) 0.42931(9)
H11 H 0.5231 0.6604 0.4672
C16 C 0.51049(5) 0.9495(4) 0.40147(9)
H12 H 0.4862 0.9896 0.4206
C17 C 0.52427(5) 1.0859(3) 0.34530(9)
H13 H 0.5099 1.2205 0.3260
C18 C 0.56000(4) 1.0176(3) 0.31840(8)
C19 C 0.57581(4) 1.1482(3) 0.25521(9)
C20 C 0.56585(5) 1.4919(4) 0.17789(10)
H14 H 0.5921 1.5554 0.1831
H15 H 0.5482 1.6328 0.1708
H16 H 0.5644 1.3792 0.1380
loop_
_geom_bond_atom_site_label_1
_geom_bond_atom_site_label_2
_geom_bond_site_symmetry_1
_geom_bond_site_symmetry_2
O1 C7 1_555 1_555
O2 C13 1_555 1_555
O3 C19 1_555 1_555
O4 C19 1_555 1_555
N1 H1 1_555 1_555
N2 H2 1_555 1_555
N3 C8 1_555 1_555
N4 C14 1_555 1_555
C1 H3 1_555 1_555
C2 C1 1_555 1_555
H4 C2 1_555 1_555
C3 C2 1_555 1_555
H5 C3 1_555 1_555
C4 C3 1_555 1_555
H6 C4 1_555 1_555
C5 C4 1_555 1_555
H7 C5 1_555 1_555
C6 C1 1_555 1_555
C7 N1 1_555 1_555
C8 N1 1_555 1_555
C9 C8 1_555 1_555
H8 C9 1_555 1_555
C10 C9 1_555 1_555
H9 C10 1_555 1_555
C11 C10 1_555 1_555
H10 C11 1_555 1_555
C12 N3 1_555 1_555
C13 N2 1_555 1_555
C14 N2 1_555 1_555
C15 C14 1_555 1_555
H11 C15 1_555 1_555
C16 C15 1_555 1_555
H12 C16 1_555 1_555
C17 C16 1_555 1_555
H13 C17 1_555 1_555
C18 N4 1_555 1_555
C19 C18 1_555 1_555
C20 O4 1_555 1_555
H14 C20 1_555 1_555
H15 C20 1_555 1_555
H16 C20 1_555 1_555
C5 C6 1_555 1_555
C6 C7 1_555 1_555
C11 C12 1_555 1_555
C12 C13 1_555 1_555
C17 C18 1_555 1_555

#END
