
#######################################################################
#
#                 Cambridge Crystallographic Data Centre
#                                CCDC 
#
#######################################################################
#
# If this CIF has been generated from an entry in the Cambridge 
# Structural Database, then it will include bibliographic, chemical, 
# crystal, experimental, refinement or atomic coordinate data resulting 
# from the CCDC's data processing and validation procedures.
#
#######################################################################

data_UTACAU
_chemical_formula_moiety         'C28 H24 N6 O7,0.5(C3 H6 O1)'
_chemical_name_systematic        
'Methyl 6-(((6-(((6-((((4-methoxybenzyl)oxy)carbonyl)amino)pyridin-2-yl)carbonyl)amino)pyridin-2-yl)carbonyl)amino)pyridine-2-carboxylate acetone solvate'
_symmetry_cell_setting           monoclinic
_symmetry_space_group_name_H-M   'P 21/n'
_symmetry_Int_Tables_number      14
_space_group_name_Hall           '-P 2yn'
loop_
_symmetry_equiv_pos_site_id
_symmetry_equiv_pos_as_xyz
1 x,y,z
2 1/2-x,1/2+y,1/2-z
3 -x,-y,-z
4 1/2+x,1/2-y,1/2+z
_cell_length_a                   11.0265(11)
_cell_length_b                   7.7675(8)
_cell_length_c                   32.872(3)
_cell_angle_alpha                90
_cell_angle_beta                 96.551(3)
_cell_angle_gamma                90
_cell_volume                     2797.05
_exptl_crystal_colour            colorless
_exptl_crystal_description       block
_cell_formula_units_Z            4
loop_
_atom_site_label
_atom_site_type_symbol
_atom_site_fract_x
_atom_site_fract_y
_atom_site_fract_z
O1 O 0.3832(4) 0.5465(5) 0.13308(12)
O2 O 0.5323(4) 0.5765(6) 0.18489(13)
O3 O 0.6669(4) 0.8687(6) -0.02602(13)
O4 O 0.0460(4) 0.5418(6) -0.12218(13)
O5 O -0.0704(4) 0.0699(6) 0.07051(12)
O6 O 0.1204(4) 0.1188(6) 0.10096(12)
O7 O 0.4834(4) 0.0670(6) 0.26074(14)
N1 N 0.5143(4) 0.6966(7) 0.08063(15)
N2 N 0.5246(5) 0.7616(7) 0.01367(16)
H1 H 0.457(4) 0.698(7) 0.011(2)
N3 N 0.3731(4) 0.6843(6) -0.04960(14)
N4 N 0.1915(5) 0.5536(7) -0.06652(14)
H2 H 0.209(6) 0.508(8) -0.0416(10)
N5 N 0.0669(4) 0.3453(6) -0.02431(14)
N6 N 0.0727(4) 0.2082(7) 0.03709(15)
H3 H 0.153(2) 0.230(8) 0.0381(19)
C1 C 0.3186(6) 0.4427(9) 0.1597(2)
H4 H 0.3668 0.3397 0.1678
H5 H 0.2397 0.4082 0.1452
H6 H 0.3053 0.5092 0.1841
C2 C 0.4920(5) 0.6000(8) 0.14974(19)
C3 C 0.5622(5) 0.6930(7) 0.11986(18)
C4 C 0.6725(5) 0.7641(8) 0.13399(19)
H7 H 0.7028 0.7585 0.1622
C5 C 0.7398(5) 0.8454(8) 0.10568(19)
H8 H 0.8158 0.8984 0.1146
C6 C 0.6945(5) 0.8476(8) 0.06519(19)
H9 H 0.7387 0.9000 0.0453
C7 C 0.5815(5) 0.7705(8) 0.05397(18)
C8 C 0.5658(5) 0.8053(8) -0.02242(18)
C9 C 0.4733(5) 0.7678(8) -0.05834(18)
C10 C 0.4916(6) 0.8188(8) -0.09747(18)
H10 H 0.5644 0.8753 -0.1030
C11 C 0.3982(6) 0.7831(8) -0.12838(18)
H11 H 0.4063 0.8174 -0.1557
C12 C 0.2941(6) 0.6990(8) -0.12002(18)
H12 H 0.2301 0.6745 -0.1411
C13 C 0.2856(5) 0.6510(8) -0.07975(18)
C14 C 0.0844(5) 0.5024(8) -0.08729(17)
C15 C 0.0095(5) 0.3909(7) -0.06112(17)
C16 C -0.1073(6) 0.3443(9) -0.07482(19)
H13 H -0.1435 0.3783 -0.1012
C17 C -0.1715(6) 0.2469(8) -0.04961(18)
H14 H -0.2535 0.2148 -0.0583
C18 C -0.1166(5) 0.1958(8) -0.01172(19)
H15 H -0.1590 0.1276 0.0061
C19 C 0.0045(5) 0.2489(7) -0.00050(18)
C20 C 0.0312(5) 0.1262(8) 0.06951(17)
C21 C 0.0796(5) 0.0439(9) 0.13804(18)
H16 H 0.0534 -0.0769 0.1329
H17 H 0.0096 0.1100 0.1463
C22 C 0.1855(5) 0.0512(8) 0.17122(17)
C23 C 0.2933(6) -0.0406(8) 0.16801(19)
H18 H 0.2999 -0.1103 0.1446
C24 C 0.3888(6) -0.0311(8) 0.19806(19)
H19 H 0.4612 -0.0941 0.1953
C25 C 0.3819(6) 0.0700(8) 0.23294(18)
C26 C 0.2749(6) 0.1590(8) 0.23671(17)
H20 H 0.2679 0.2264 0.2604
C27 C 0.1780(6) 0.1499(8) 0.20591(18)
H21 H 0.1054 0.2124 0.2087
C28 C 0.4815(7) 0.1798(11) 0.2954(2)
H22 H 0.4662 0.2980 0.2857
H23 H 0.5605 0.1744 0.3123
H24 H 0.4167 0.1437 0.3116
O8 O 0.6510(9) 0.5317(16) 0.3043(3)
C29 C 0.6998(11) 0.5627(19) 0.2743(4)
C30 C 0.7378(13) 0.4148(19) 0.2474(4)
H25 H 0.7125 0.3048 0.2584
H26 H 0.8266 0.4157 0.2474
H27 H 0.6985 0.4295 0.2194
C31 C 0.7303(14) 0.739(2) 0.2627(4)
H28 H 0.7011 0.8210 0.2821
H29 H 0.6910 0.7640 0.2351
H30 H 0.8190 0.7502 0.2632
loop_
_geom_bond_atom_site_label_1
_geom_bond_atom_site_label_2
_geom_bond_site_symmetry_1
_geom_bond_site_symmetry_2
O1 C1 1_555 1_555
O2 C2 1_555 1_555
O3 C8 1_555 1_555
O4 C14 1_555 1_555
O5 C20 1_555 1_555
O6 C20 1_555 1_555
O7 C25 1_555 1_555
N1 C3 1_555 1_555
N2 H1 1_555 1_555
N3 C9 1_555 1_555
N4 H2 1_555 1_555
N5 C15 1_555 1_555
N6 H3 1_555 1_555
C1 H4 1_555 1_555
H5 C1 1_555 1_555
H6 C1 1_555 1_555
C2 O1 1_555 1_555
C3 C2 1_555 1_555
C4 C3 1_555 1_555
H7 C4 1_555 1_555
C5 C4 1_555 1_555
H8 C5 1_555 1_555
C6 C5 1_555 1_555
H9 C6 1_555 1_555
C7 N1 1_555 1_555
C8 N2 1_555 1_555
C9 C8 1_555 1_555
C10 C9 1_555 1_555
H10 C10 1_555 1_555
C11 C10 1_555 1_555
H11 C11 1_555 1_555
C12 C11 1_555 1_555
H12 C12 1_555 1_555
C13 N3 1_555 1_555
C14 N4 1_555 1_555
C15 C14 1_555 1_555
C16 C15 1_555 1_555
H13 C16 1_555 1_555
C17 C16 1_555 1_555
H14 C17 1_555 1_555
C18 C17 1_555 1_555
H15 C18 1_555 1_555
C19 N5 1_555 1_555
C20 N6 1_555 1_555
C21 O6 1_555 1_555
H16 C21 1_555 1_555
H17 C21 1_555 1_555
C22 C21 1_555 1_555
C23 C22 1_555 1_555
H18 C23 1_555 1_555
C24 C23 1_555 1_555
H19 C24 1_555 1_555
C25 C24 1_555 1_555
C26 C25 1_555 1_555
H20 C26 1_555 1_555
C27 C22 1_555 1_555
H21 C27 1_555 1_555
C28 O7 1_555 1_555
H22 C28 1_555 1_555
H23 C28 1_555 1_555
H24 C28 1_555 1_555
O8 C29 1_555 1_555
C29 C30 1_555 1_555
C30 H25 1_555 1_555
H26 C30 1_555 1_555
H27 C30 1_555 1_555
C31 C29 1_555 1_555
H28 C31 1_555 1_555
H29 C31 1_555 1_555
H30 C31 1_555 1_555
N2 C7 1_555 1_555
N4 C13 1_555 1_555
N6 C19 1_555 1_555
C6 C7 1_555 1_555
C12 C13 1_555 1_555
C18 C19 1_555 1_555
C26 C27 1_555 1_555

#END
