
#######################################################################
#
#                 Cambridge Crystallographic Data Centre
#                                CCDC 
#
#######################################################################
#
# If this CIF has been generated from an entry in the Cambridge 
# Structural Database, then it will include bibliographic, chemical, 
# crystal, experimental, refinement or atomic coordinate data resulting 
# from the CCDC's data processing and validation procedures.
#
#######################################################################

data_UTAJUW
_chemical_formula_moiety         'C32 H23 F2 N3 O2,C1 H4 O1'
_chemical_name_systematic        
'4-(3-fluorophenyl)-3-(3-(3-fluorophenyl)-1H-indol-2-yl)-1-phenyl-1,4,6,7-tetrahydropyrano[4,3-c]pyrazol-7-ol methanol solvate'
_symmetry_cell_setting           monoclinic
_symmetry_space_group_name_H-M   'P 21'
_symmetry_Int_Tables_number      4
_space_group_name_Hall           'P 2yb'
loop_
_symmetry_equiv_pos_site_id
_symmetry_equiv_pos_as_xyz
1 x,y,z
2 -x,1/2+y,-z
_cell_length_a                   9.67934(18)
_cell_length_b                   10.0086(2)
_cell_length_c                   14.0679(3)
_cell_angle_alpha                90
_cell_angle_beta                 97.4965(17)
_cell_angle_gamma                90
_cell_volume                     1351.2
_cell_formula_units_Z            2
loop_
_atom_site_label
_atom_site_type_symbol
_atom_site_fract_x
_atom_site_fract_y
_atom_site_fract_z
F1 F 0.2395(4) 0.3449(4) 0.0387(3)
F2 F 0.2301(2) 0.75681(16) 0.31329(17)
O1 O -0.4046(2) 0.1094(2) 0.06551(12)
H1 H -0.474(4) 0.083(4) 0.050(3)
O2 O -0.29339(16) 0.36652(17) 0.14029(11)
N1 N 0.19946(19) 0.06138(18) 0.33577(13)
H2 H 0.176(3) -0.019(3) 0.3146(19)
N2 N -0.07611(18) 0.00852(18) 0.29955(13)
N3 N -0.20671(18) -0.00041(19) 0.25226(13)
C1 C 0.10773(19) 0.1683(2) 0.32794(13)
C2 C -0.0379(2) 0.1359(2) 0.29017(14)
C3 C -0.1466(2) 0.2102(2) 0.23574(14)
C4 C -0.2517(2) 0.1186(2) 0.21368(14)
C5 C -0.3942(2) 0.1508(3) 0.16265(16)
H3 H -0.465(3) 0.106(3) 0.194(2)
C6 C -0.4110(2) 0.2989(3) 0.17027(18)
H4 H -0.4954 0.3267 0.1304
H5 H -0.4196 0.3226 0.2361
C7 C 0.1790(2) 0.2826(2) 0.35640(14)
C8 C -0.1679(2) 0.3538(2) 0.20755(14)
H6 H -0.1800 0.4054 0.2651
C9 C -0.0562(2) 0.4204(2) 0.15857(15)
C10 C 0.0415(3) 0.3491(3) 0.11691(18)
H7 H 0.0429 0.2563 0.1194
C11 C 0.1377(3) 0.4184(5) 0.0713(2)
C12 C 0.1377(4) 0.5537(4) 0.0641(2)
H8 H 0.2025 0.5980 0.0323
C13 C 0.0388(4) 0.6223(4) 0.1056(2)
H9 H 0.085(5) 0.709(3) 0.086(3)
C14 C -0.0570(3) 0.5594(3) 0.15324(19)
H10 H -0.1219 0.6087 0.1817
C15 C 0.1291(2) 0.4195(2) 0.36834(14)
C16 C 0.2010(2) 0.5273(2) 0.33422(18)
H11 H 0.2767 0.5115 0.3013
C17 C 0.1605(3) 0.6540(2) 0.3490(2)
C18 C 0.0512(3) 0.6846(3) 0.3977(2)
H12 H 0.0259 0.7729 0.4067
C19 C -0.0205(3) 0.5803(3) 0.43295(19)
H13 H -0.0945 0.5979 0.4671
C20 C 0.0181(3) 0.4480(3) 0.41748(16)
H14 H -0.0318 0.3783 0.4406
C21 C 0.3313(2) 0.1066(2) 0.36770(13)
C22 C 0.3234(2) 0.2450(2) 0.38092(13)
C23 C 0.4444(2) 0.3154(2) 0.41702(15)
H15 H 0.4414 0.4070 0.4274
C24 C 0.5673(2) 0.2463(3) 0.43669(16)
H16 H 0.6477 0.2920 0.4611
C25 C 0.5742(2) 0.1092(3) 0.42087(16)
H17 H 0.6594 0.0657 0.4337
C26 C 0.4570(2) 0.0369(2) 0.38660(16)
H18 H 0.4614 -0.0547 0.3764
C27 C -0.2834(2) -0.1228(2) 0.25507(17)
C28 C -0.2821(2) -0.1893(2) 0.34158(19)
H19 H -0.2297 -0.1566 0.3968
C29 C -0.3597(3) -0.3050(3) 0.3449(2)
H20 H -0.3599 -0.3501 0.4026
C30 C -0.4364(3) -0.3532(3) 0.2630(3)
H21 H -0.4883 -0.4310 0.2656
C31 C -0.4366(3) -0.2871(3) 0.1775(3)
H22 H -0.4890 -0.3201 0.1224
C32 C -0.3593(3) -0.1714(3) 0.1728(2)
H23 H -0.3586 -0.1271 0.1147
O3 O 0.6630(3) 0.5140(4) 0.97282(19)
H24 H 0.678(7) 0.483(8) 1.025(5)
C33 C 0.7477(4) 0.4859(6) 0.9078(3)
H25 H 0.7431 0.5566 0.8614
H26 H 0.7193 0.4035 0.8763
H27 H 0.8415 0.4775 0.9391
F3? F 0.0331(7) 0.7600(8) 0.1122(5)
loop_
_geom_bond_atom_site_label_1
_geom_bond_atom_site_label_2
_geom_bond_site_symmetry_1
_geom_bond_site_symmetry_2
F1 C11 1_555 1_555
F2 C17 1_555 1_555
O1 H1 1_555 1_555
O2 C6 1_555 1_555
N1 H2 1_555 1_555
N2 N3 1_555 1_555
N3 C4 1_555 1_555
C1 N1 1_555 1_555
C2 N2 1_555 1_555
C3 C2 1_555 1_555
C4 C3 1_555 1_555
C5 O1 1_555 1_555
H3 C5 1_555 1_555
C6 C5 1_555 1_555
H4 C6 1_555 1_555
H5 C6 1_555 1_555
C7 C1 1_555 1_555
C8 O2 1_555 1_555
H6 C8 1_555 1_555
C9 C8 1_555 1_555
C10 C9 1_555 1_555
H7 C10 1_555 1_555
C11 C10 1_555 1_555
C12 C11 1_555 1_555
H8 C12 1_555 1_555
C13 C12 1_555 1_555
H9 C13 1_555 1_555
C14 C9 1_555 1_555
H10 C14 1_555 1_555
C15 C7 1_555 1_555
C16 C15 1_555 1_555
H11 C16 1_555 1_555
C17 C16 1_555 1_555
C18 C17 1_555 1_555
H12 C18 1_555 1_555
C19 C18 1_555 1_555
H13 C19 1_555 1_555
C20 C15 1_555 1_555
H14 C20 1_555 1_555
C21 N1 1_555 1_555
C22 C7 1_555 1_555
C23 C22 1_555 1_555
H15 C23 1_555 1_555
C24 C23 1_555 1_555
H16 C24 1_555 1_555
C25 C24 1_555 1_555
H17 C25 1_555 1_555
C26 C21 1_555 1_555
H18 C26 1_555 1_555
C27 N3 1_555 1_555
C28 C27 1_555 1_555
H19 C28 1_555 1_555
C29 C28 1_555 1_555
H20 C29 1_555 1_555
C30 C29 1_555 1_555
H21 C30 1_555 1_555
C31 C30 1_555 1_555
H22 C31 1_555 1_555
C32 C27 1_555 1_555
H23 C32 1_555 1_555
O3 H24 1_555 1_555
C33 O3 1_555 1_555
H25 C33 1_555 1_555
H26 C33 1_555 1_555
H27 C33 1_555 1_555
C1 C2 1_555 1_555
C3 C8 1_555 1_555
C4 C5 1_555 1_555
C13 C14 1_555 1_555
C19 C20 1_555 1_555
C21 C22 1_555 1_555
C25 C26 1_555 1_555
C31 C32 1_555 1_555

#END
