
#######################################################################
#
#                 Cambridge Crystallographic Data Centre
#                                CCDC 
#
#######################################################################
#
# If this CIF has been generated from an entry in the Cambridge 
# Structural Database, then it will include bibliographic, chemical, 
# crystal, experimental, refinement or atomic coordinate data resulting 
# from the CCDC's data processing and validation procedures.
#
#######################################################################

data_UTAQUD
_chemical_formula_moiety         'C27 H19 N1 O2'
_chemical_name_systematic        
1-methyl-3-(1-phenylnaphtho[2,1-b]furan-2-yl)-1,3-dihydro-2H-indol-2-one
_symmetry_cell_setting           monoclinic
_symmetry_space_group_name_H-M   'P 21/c'
_symmetry_Int_Tables_number      14
_space_group_name_Hall           '-P 2ybc'
loop_
_symmetry_equiv_pos_site_id
_symmetry_equiv_pos_as_xyz
1 x,y,z
2 -x,1/2+y,1/2-z
3 -x,-y,-z
4 x,1/2-y,1/2+z
_cell_length_a                   9.0893(4)
_cell_length_b                   16.7885(7)
_cell_length_c                   13.7520(7)
_cell_angle_alpha                90
_cell_angle_beta                 108.950(3)
_cell_angle_gamma                90
_cell_volume                     1984.76
_exptl_crystal_colour            colorless
_exptl_crystal_description       block
_cell_formula_units_Z            4
loop_
_atom_site_label
_atom_site_type_symbol
_atom_site_fract_x
_atom_site_fract_y
_atom_site_fract_z
N1 N 0.2456(2) -0.09486(11) 0.09818(14)
O1 O 0.16964(19) -0.14566(10) 0.22983(13)
O2 O 0.31627(17) 0.03952(9) 0.32291(11)
C1 C 0.1769(3) -0.09097(14) 0.17321(17)
C2 C 0.1114(3) -0.00608(13) 0.17178(17)
H1 H -0.0024 -0.0094 0.1458
C3 C 0.1647(2) 0.03474(13) 0.09074(16)
C4 C 0.1460(3) 0.11156(14) 0.05598(18)
H2 H 0.0934 0.1485 0.0828
C5 C 0.2081(3) 0.13333(15) -0.02109(18)
H3 H 0.1979 0.1854 -0.0454
C6 C 0.2840(3) 0.07797(14) -0.06079(19)
H4 H 0.3246 0.0934 -0.1119
C7 C 0.3021(3) -0.00112(14) -0.02672(17)
H5 H 0.3525 -0.0385 -0.0545
C8 C 0.2417(2) -0.02097(13) 0.05010(17)
C9 C 0.3031(3) -0.16804(14) 0.06724(19)
H6 H 0.2900 -0.2112 0.1095
H7 H 0.4115 -0.1622 0.0752
H8 H 0.2460 -0.1792 -0.0034
C10 C 0.1573(2) 0.03371(13) 0.27360(17)
C11 C 0.0755(2) 0.06956(12) 0.32715(16)
C12 C 0.1899(2) 0.10000(12) 0.42049(16)
C13 C 0.1825(3) 0.13845(12) 0.51101(16)
C14 C 0.0424(3) 0.15581(13) 0.53031(17)
H9 H -0.0523 0.1448 0.4802
C15 C 0.0445(3) 0.18861(13) 0.62192(18)
H10 H -0.0487 0.1986 0.6341
C16 C 0.1858(3) 0.20725(14) 0.69736(18)
H11 H 0.1862 0.2298 0.7592
C17 C 0.3236(3) 0.19228(13) 0.68031(17)
H12 H 0.4167 0.2058 0.7305
C18 C 0.3268(3) 0.15660(12) 0.58791(17)
C19 C 0.4705(3) 0.13680(14) 0.57248(18)
H13 H 0.5633 0.1503 0.6230
C20 C 0.4762(3) 0.09891(14) 0.48638(18)
H14 H 0.5702 0.0859 0.4770
C21 C 0.3331(3) 0.08056(13) 0.41252(16)
C22 C -0.0964(2) 0.08043(12) 0.29330(16)
C23 C -0.1964(3) 0.02063(13) 0.30208(17)
H15 H -0.1562 -0.0285 0.3293
C24 C -0.3557(3) 0.03325(14) 0.27078(18)
H16 H -0.4216 -0.0073 0.2773
C25 C -0.4166(3) 0.10587(14) 0.22992(18)
H17 H -0.5234 0.1144 0.2088
C26 C -0.3178(3) 0.16570(14) 0.22064(18)
H18 H -0.3586 0.2145 0.1925
C27 C -0.1590(3) 0.15367(13) 0.25281(18)
H19 H -0.0934 0.1947 0.2474
loop_
_geom_bond_atom_site_label_1
_geom_bond_atom_site_label_2
_geom_bond_site_symmetry_1
_geom_bond_site_symmetry_2
N1 C1 1_555 1_555
O1 C1 1_555 1_555
O2 C10 1_555 1_555
C1 C2 1_555 1_555
C2 H1 1_555 1_555
C3 C2 1_555 1_555
C4 C3 1_555 1_555
H2 C4 1_555 1_555
C5 C4 1_555 1_555
H3 C5 1_555 1_555
C6 C5 1_555 1_555
H4 C6 1_555 1_555
C7 C6 1_555 1_555
H5 C7 1_555 1_555
C8 N1 1_555 1_555
C9 N1 1_555 1_555
H6 C9 1_555 1_555
H7 C9 1_555 1_555
H8 C9 1_555 1_555
C10 C2 1_555 1_555
C11 C10 1_555 1_555
C12 C11 1_555 1_555
C13 C12 1_555 1_555
C14 C13 1_555 1_555
H9 C14 1_555 1_555
C15 C14 1_555 1_555
H10 C15 1_555 1_555
C16 C15 1_555 1_555
H11 C16 1_555 1_555
C17 C16 1_555 1_555
H12 C17 1_555 1_555
C18 C13 1_555 1_555
C19 C18 1_555 1_555
H13 C19 1_555 1_555
C20 C19 1_555 1_555
H14 C20 1_555 1_555
C21 O2 1_555 1_555
C22 C11 1_555 1_555
C23 C22 1_555 1_555
H15 C23 1_555 1_555
C24 C23 1_555 1_555
H16 C24 1_555 1_555
C25 C24 1_555 1_555
H17 C25 1_555 1_555
C26 C25 1_555 1_555
H18 C26 1_555 1_555
C27 C22 1_555 1_555
H19 C27 1_555 1_555
C3 C8 1_555 1_555
C7 C8 1_555 1_555
C12 C21 1_555 1_555
C17 C18 1_555 1_555
C20 C21 1_555 1_555
C26 C27 1_555 1_555

#END
