
#######################################################################
#
#                 Cambridge Crystallographic Data Centre
#                                CCDC 
#
#######################################################################
#
# If this CIF has been generated from an entry in the Cambridge 
# Structural Database, then it will include bibliographic, chemical, 
# crystal, experimental, refinement or atomic coordinate data resulting 
# from the CCDC's data processing and validation procedures.
#
#######################################################################

data_UTEKUA
_chemical_formula_moiety         'C23 H21 N5 O2'
_chemical_name_systematic        
8-(1-Benzyl-1H-indol-3-yl)-1,3,7-trimethyl-3,7-dihydro-1H-purine-2,6-dione
_symmetry_cell_setting           triclinic
_symmetry_space_group_name_H-M   'P -1'
_symmetry_Int_Tables_number      2
_space_group_name_Hall           '-P 1'
loop_
_symmetry_equiv_pos_site_id
_symmetry_equiv_pos_as_xyz
1 x,y,z
2 -x,-y,-z
_cell_length_a                   11.7988(5)
_cell_length_b                   12.3036(5)
_cell_length_c                   15.3359(5)
_cell_angle_alpha                80.377(3)
_cell_angle_beta                 70.093(3)
_cell_angle_gamma                67.866(4)
_cell_volume                     1937.06
_exptl_crystal_colour            colorless
_exptl_crystal_description       block
_cell_formula_units_Z            4
loop_
_atom_site_label
_atom_site_type_symbol
_atom_site_fract_x
_atom_site_fract_y
_atom_site_fract_z
O1 O 1.37110(12) 0.73442(12) -0.05384(9)
O2 O 1.37275(14) 1.10558(13) -0.05190(10)
N1 N 1.36795(14) 0.92172(14) -0.05395(10)
N2 N 1.19257(15) 1.06842(13) 0.03698(10)
N3 N 1.00742(13) 1.01095(12) 0.12116(9)
N4 N 1.09137(13) 0.82597(12) 0.07377(9)
N5 N 0.71048(14) 0.81890(13) 0.25716(9)
C1 C 1.31079(16) 0.83431(17) -0.02702(11)
C2 C 1.31412(18) 1.03678(18) -0.02456(13)
C3 C 1.12761(16) 0.98991(15) 0.06346(11)
C4 C 1.18349(16) 0.87870(14) 0.03234(11)
C5 C 1.49733(19) 0.8885(2) -0.12003(15)
H1 H 1.5592 0.8503 -0.0871
H2 H 1.5125 0.9576 -0.1532
H3 H 1.5052 0.8359 -0.1631
C6 C 1.1335(2) 1.18503(17) 0.07499(16)
H4 H 1.0461 1.1966 0.1117
H5 H 1.1353 1.2436 0.0251
H6 H 1.1802 1.1915 0.1132
C7 C 0.98693(15) 0.90914(14) 0.12619(10)
C8 C 1.10877(18) 0.70617(16) 0.05906(14)
H7 H 1.0952 0.6632 0.1177
H8 H 1.1945 0.6690 0.0199
H9 H 1.0481 0.7073 0.0298
C9 C 0.86731(15) 0.89368(14) 0.18312(11)
C10 C 0.76112(16) 0.98158(14) 0.24220(11)
C11 C 0.73685(19) 1.09656(16) 0.26140(13)
H10 H 0.7966 1.1334 0.2316
C12 C 0.6229(2) 1.15418(18) 0.32519(15)
H11 H 0.6062 1.2308 0.3384
C13 C 0.53124(19) 1.10083(18) 0.37083(14)
H12 H 0.4555 1.1423 0.4141
C14 C 0.55121(17) 0.98868(16) 0.35287(12)
H13 H 0.4905 0.9528 0.3828
C15 C 0.66635(16) 0.93087(14) 0.28794(11)
C16 C 0.82996(17) 0.79759(15) 0.19569(11)
H14 H 0.8798 0.7274 0.1661
C17 C 0.64525(18) 0.73381(16) 0.29326(12)
H15 H 0.6811 0.6719 0.2497
H16 H 0.5551 0.7723 0.2978
C18 C 0.65605(16) 0.67971(14) 0.38684(12)
C19 C 0.76229(19) 0.66310(18) 0.41315(15)
H17 H 0.8287 0.6869 0.3728
C20 C 0.7709(2) 0.6116(2) 0.49859(17)
H18 H 0.8428 0.6015 0.5157
C21 C 0.6750(2) 0.57531(18) 0.55834(15)
H19 H 0.6813 0.5405 0.6160
C22 C 0.5693(2) 0.59043(18) 0.53301(14)
H20 H 0.5040 0.5651 0.5732
C23 C 0.55947(18) 0.64335(16) 0.44766(13)
H21 H 0.4868 0.6544 0.4312
O3 O 0.06982(16) 1.21882(12) 0.33022(11)
O4 O -0.28195(13) 1.14755(13) 0.54019(10)
N6 N -0.10584(16) 1.18134(13) 0.43496(11)
N7 N -0.13439(13) 0.99891(13) 0.44890(10)
N8 N 0.04198(13) 0.84957(12) 0.35185(9)
N9 N 0.16951(13) 0.95623(12) 0.28642(9)
N10 N 0.42592(13) 0.61663(13) 0.15297(9)
C24 C 0.01457(19) 1.14822(16) 0.36549(13)
C25 C -0.18062(18) 1.11123(16) 0.47892(13)
C26 C -0.01574(15) 0.95859(15) 0.38374(11)
C27 C 0.05733(16) 1.02813(15) 0.34559(12)
C28 C -0.1568(2) 1.30150(17) 0.46785(16)
H22 H -0.2443 1.3383 0.4676
H23 H -0.1062 1.3461 0.4275
H24 H -0.1529 1.2982 0.5298
C29 C -0.21089(18) 0.92325(18) 0.48849(14)
H25 H -0.2854 0.9516 0.4675
H26 H -0.2373 0.9237 0.5550
H27 H -0.1604 0.8446 0.4691
C30 C 0.15630(15) 0.84977(14) 0.29307(11)
C31 C 0.28455(18) 0.98605(18) 0.24011(14)
H28 H 0.3514 0.9381 0.2666
H29 H 0.2662 1.0673 0.2480
H30 H 0.3121 0.9723 0.1751
C32 C 0.25046(15) 0.74593(15) 0.24477(11)
C33 C 0.22695(16) 0.63798(15) 0.24941(11)
C34 C 0.12224(17) 0.60057(16) 0.29612(13)
H31 H 0.0477 0.6502 0.3352
C35 C 0.1316(2) 0.48939(18) 0.28314(14)
H32 H 0.0623 0.4642 0.3136
C36 C 0.2428(2) 0.41358(19) 0.22524(15)
H33 H 0.2462 0.3388 0.2179
C37 C 0.3473(2) 0.44678(17) 0.17894(13)
H34 H 0.4217 0.3958 0.1407
C38 C 0.33776(16) 0.55955(16) 0.19135(11)
C39 C 0.37295(16) 0.72702(16) 0.18499(11)
H35 H 0.4139 0.7822 0.1687
C40 C 0.55275(17) 0.56919(18) 0.08542(12)
H36 H 0.5669 0.6305 0.0388
H37 H 0.5534 0.5064 0.0543
C41 C 0.66235(15) 0.52247(14) 0.12649(11)
C42 C 0.65657(19) 0.45026(18) 0.20593(14)
H38 H 0.5822 0.4326 0.2363
C43 C 0.7590(2) 0.4039(2) 0.24102(16)
H39 H 0.7529 0.3559 0.2949
C44 C 0.8690(2) 0.42795(19) 0.19748(17)
H40 H 0.9380 0.3962 0.2214
C45 C 0.87781(19) 0.49895(19) 0.11850(16)
H41 H 0.9528 0.5157 0.0886
C46 C 0.77388(18) 0.54631(16) 0.08288(13)
H42 H 0.7802 0.5945 0.0291
loop_
_geom_bond_atom_site_label_1
_geom_bond_atom_site_label_2
_geom_bond_site_symmetry_1
_geom_bond_site_symmetry_2
O1 C1 1_555 1_555
O2 C2 1_555 1_555
O3 C24 1_555 1_555
O4 C25 1_555 1_555
N1 C1 1_555 1_555
N2 C2 1_555 1_555
N3 C3 1_555 1_555
N4 C4 1_555 1_555
N5 C15 1_555 1_555
N6 C24 1_555 1_555
N7 C25 1_555 1_555
N8 C26 1_555 1_555
N9 C27 1_555 1_555
N10 C38 1_555 1_555
C1 C4 1_555 1_555
C2 N1 1_555 1_555
C3 N2 1_555 1_555
C4 C3 1_555 1_555
C5 N1 1_555 1_555
H1 C5 1_555 1_555
H2 C5 1_555 1_555
H3 C5 1_555 1_555
C6 N2 1_555 1_555
H4 C6 1_555 1_555
H5 C6 1_555 1_555
H6 C6 1_555 1_555
C7 N3 1_555 1_555
C8 N4 1_555 1_555
H7 C8 1_555 1_555
H8 C8 1_555 1_555
H9 C8 1_555 1_555
C9 C7 1_555 1_555
C10 C9 1_555 1_555
C11 C10 1_555 1_555
H10 C11 1_555 1_555
C12 C11 1_555 1_555
H11 C12 1_555 1_555
C13 C12 1_555 1_555
H12 C13 1_555 1_555
C14 C13 1_555 1_555
H13 C14 1_555 1_555
C15 C10 1_555 1_555
C16 N5 1_555 1_555
H14 C16 1_555 1_555
C17 N5 1_555 1_555
H15 C17 1_555 1_555
H16 C17 1_555 1_555
C18 C17 1_555 1_555
C19 C18 1_555 1_555
H17 C19 1_555 1_555
C20 C19 1_555 1_555
H18 C20 1_555 1_555
C21 C20 1_555 1_555
H19 C21 1_555 1_555
C22 C21 1_555 1_555
H20 C22 1_555 1_555
C23 C18 1_555 1_555
H21 C23 1_555 1_555
C24 C27 1_555 1_555
C25 N6 1_555 1_555
C26 N7 1_555 1_555
C27 C26 1_555 1_555
C28 N6 1_555 1_555
H22 C28 1_555 1_555
H23 C28 1_555 1_555
H24 C28 1_555 1_555
C29 N7 1_555 1_555
H25 C29 1_555 1_555
H26 C29 1_555 1_555
H27 C29 1_555 1_555
C30 N8 1_555 1_555
C31 N9 1_555 1_555
H28 C31 1_555 1_555
H29 C31 1_555 1_555
H30 C31 1_555 1_555
C32 C30 1_555 1_555
C33 C32 1_555 1_555
C34 C33 1_555 1_555
H31 C34 1_555 1_555
C35 C34 1_555 1_555
H32 C35 1_555 1_555
C36 C35 1_555 1_555
H33 C36 1_555 1_555
C37 C36 1_555 1_555
H34 C37 1_555 1_555
C38 C33 1_555 1_555
C39 N10 1_555 1_555
H35 C39 1_555 1_555
C40 N10 1_555 1_555
H36 C40 1_555 1_555
H37 C40 1_555 1_555
C41 C40 1_555 1_555
C42 C41 1_555 1_555
H38 C42 1_555 1_555
C43 C42 1_555 1_555
H39 C43 1_555 1_555
C44 C43 1_555 1_555
H40 C44 1_555 1_555
C45 C44 1_555 1_555
H41 C45 1_555 1_555
C46 C41 1_555 1_555
H42 C46 1_555 1_555
N4 C7 1_555 1_555
N9 C30 1_555 1_555
C9 C16 1_555 1_555
C14 C15 1_555 1_555
C22 C23 1_555 1_555
C32 C39 1_555 1_555
C37 C38 1_555 1_555
C45 C46 1_555 1_555

#END
