
#######################################################################
#
#                 Cambridge Crystallographic Data Centre
#                                CCDC 
#
#######################################################################
#
# If this CIF has been generated from an entry in the Cambridge 
# Structural Database, then it will include bibliographic, chemical, 
# crystal, experimental, refinement or atomic coordinate data resulting 
# from the CCDC's data processing and validation procedures.
#
#######################################################################

data_UTELAH
_chemical_formula_moiety         'C19 H19 N5 O2'
_chemical_name_systematic        
'8-(1-benzyl-1H-pyrrol-3-yl)-1,3,7-trimethyl-3,7-dihydro-1H-purine-2,6-dione unknown solvate'
_symmetry_cell_setting           monoclinic
_symmetry_space_group_name_H-M   'P 21/c'
_symmetry_Int_Tables_number      14
_space_group_name_Hall           '-P 2ybc'
loop_
_symmetry_equiv_pos_site_id
_symmetry_equiv_pos_as_xyz
1 x,y,z
2 -x,1/2+y,1/2-z
3 -x,-y,-z
4 x,1/2-y,1/2+z
_cell_length_a                   11.7711(3)
_cell_length_b                   21.0947(7)
_cell_length_c                   7.6345(2)
_cell_angle_alpha                90
_cell_angle_beta                 102.256(3)
_cell_angle_gamma                90
_cell_volume                     1852.5
_exptl_crystal_colour            yellow
_exptl_crystal_description       block
_cell_formula_units_Z            4
loop_
_atom_site_label
_atom_site_type_symbol
_atom_site_fract_x
_atom_site_fract_y
_atom_site_fract_z
O1 O -0.31896(12) 0.30468(8) -0.3798(2)
O2 O -0.11412(12) 0.12703(7) -0.1659(2)
N1 N -0.14179(12) 0.32001(8) -0.19978(19)
N2 N -0.21581(12) 0.21699(8) -0.2695(2)
N3 N 0.04955(12) 0.32291(7) -0.00521(18)
N4 N 0.07905(11) 0.21892(7) 0.02478(18)
N5 N 0.38713(13) 0.34981(8) 0.31290(18)
C1 C -0.23050(16) 0.28203(10) -0.2884(2)
C2 C -0.11730(15) 0.18502(10) -0.1710(2)
C3 C -0.03057(14) 0.22824(9) -0.0848(2)
C4 C -0.04346(14) 0.29225(9) -0.0988(2)
C5 C 0.13395(19) 0.15737(10) 0.0706(3)
C6 C 0.12356(14) 0.27734(8) 0.0693(2)
C7 C 0.23646(14) 0.29162(9) 0.1807(2)
C8 C 0.32082(17) 0.25153(11) 0.2881(3)
H5 H 0.3174(18) 0.2047(12) 0.290(3)
C9 C 0.41101(18) 0.28926(11) 0.3677(3)
H6 H 0.485(2) 0.2812(11) 0.444(3)
C10 C 0.28073(16) 0.35167(10) 0.2010(2)
H7 H 0.2448(16) 0.3930(10) 0.151(2)
C11 C 0.45578(19) 0.40535(12) 0.3875(3)
H8 H 0.5380(19) 0.3939(10) 0.416(3)
H9 H 0.4484(19) 0.4387(12) 0.296(3)
C12 C 0.41705(15) 0.43099(9) 0.5485(2)
C13 C 0.4693(2) 0.41013(12) 0.7179(3)
C14 C 0.4319(3) 0.43057(15) 0.8657(3)
H10 H 0.468(2) 0.4093(14) 0.989(4)
C15 C 0.3415(3) 0.47173(15) 0.8484(4)
H11 H 0.316(2) 0.4882(15) 0.961(4)
C16 C 0.2886(3) 0.49336(14) 0.6815(5)
H12 H 0.230(3) 0.5211(16) 0.663(4)
C17 C 0.3263(2) 0.47283(11) 0.5316(4)
H13 H 0.290(2) 0.4867(15) 0.406(4)
C18 C -0.1523(2) 0.38860(11) -0.2166(4)
C19 C -0.31538(19) 0.17817(13) -0.3572(3)
H17 H -0.3601 0.1653 -0.2686
H18 H -0.2873 0.1404 -0.4095
H19 H -0.3651 0.2029 -0.4520
H20 H 0.532(2) 0.3838(14) 0.728(3)
H1? H 0.0598 0.3642 0.0052
H2? H 0.1656 0.1554 0.2000
H3? H 0.1970 0.1517 0.0063
H4? H 0.0761 0.1237 0.0362
H14? H -0.1169 0.4084 -0.1019
H15? H -0.2347 0.4002 -0.2497
H16? H -0.1125 0.4033 -0.3095
H21? H -0.301(3) 0.131(2) -0.309(5)
H22? H -0.394(3) 0.1972(18) -0.331(5)
H23? H -0.333(3) 0.1842(17) -0.505(5)
H24? H -0.186(5) 0.403(2) -0.122(7)
H25? H -0.209(5) 0.395(2) -0.327(6)
H26? H 0.098(3) 0.1302(18) -0.031(5)
H27? H 0.127(3) 0.1447(16) 0.194(4)
H28? H 0.223(3) 0.1589(17) 0.073(4)
H29? H -0.079(3) 0.4045(19) -0.215(6)
loop_
_geom_bond_atom_site_label_1
_geom_bond_atom_site_label_2
_geom_bond_site_symmetry_1
_geom_bond_site_symmetry_2
O1 C1 1_555 1_555
O2 C2 1_555 1_555
N1 C1 1_555 1_555
N2 C1 1_555 1_555
N3 C4 1_555 1_555
N4 C3 1_555 1_555
N5 C9 1_555 1_555
C2 N2 1_555 1_555
C3 C2 1_555 1_555
C4 N1 1_555 1_555
C5 N4 1_555 1_555
C6 N3 1_555 1_555
C7 C6 1_555 1_555
C8 C7 1_555 1_555
H5 C8 1_555 1_555
C9 C8 1_555 1_555
H6 C9 1_555 1_555
C10 N5 1_555 1_555
H7 C10 1_555 1_555
C11 N5 1_555 1_555
H8 C11 1_555 1_555
H9 C11 1_555 1_555
C12 C11 1_555 1_555
C13 C12 1_555 1_555
C14 C13 1_555 1_555
H10 C14 1_555 1_555
C15 C14 1_555 1_555
H11 C15 1_555 1_555
C16 C15 1_555 1_555
H12 C16 1_555 1_555
C17 C12 1_555 1_555
H13 C17 1_555 1_555
C18 N1 1_555 1_555
C19 N2 1_555 1_555
H17 C19 1_555 1_555
H18 C19 1_555 1_555
H19 C19 1_555 1_555
H20 C13 1_555 1_555
N4 C6 1_555 1_555
C3 C4 1_555 1_555
C7 C10 1_555 1_555
C16 C17 1_555 1_555

#END
