
#######################################################################
#
#                 Cambridge Crystallographic Data Centre
#                                CCDC 
#
#######################################################################
#
# If this CIF has been generated from an entry in the Cambridge 
# Structural Database, then it will include bibliographic, chemical, 
# crystal, experimental, refinement or atomic coordinate data resulting 
# from the CCDC's data processing and validation procedures.
#
#######################################################################

data_UTEPOZ
_chemical_formula_moiety         'C19 H20 N1 O1 S1 1+,Cl1 1-'
_chemical_name_systematic        
'(+)-(1S,2S)-N-Methyl (2-(1-naphthyloxy)-2-(thien-2-yl)cyclopropyl)methanaminium chloride'
_symmetry_cell_setting           monoclinic
_symmetry_space_group_name_H-M   'P 21'
_symmetry_Int_Tables_number      4
_space_group_name_Hall           'P 2yb'
loop_
_symmetry_equiv_pos_site_id
_symmetry_equiv_pos_as_xyz
1 x,y,z
2 -x,1/2+y,-z
_cell_length_a                   9.2407(6)
_cell_length_b                   6.7846(4)
_cell_length_c                   14.9432(10)
_cell_angle_alpha                90
_cell_angle_beta                 104.3170(10)
_cell_angle_gamma                90
_cell_volume                     907.759
_cell_formula_units_Z            2
loop_
_atom_site_label
_atom_site_type_symbol
_atom_site_fract_x
_atom_site_fract_y
_atom_site_fract_z
Cl1 Cl 0.4042(1) 0.5633(1) 0.5554(1)
S1 S 1.0398(1) 0.4110(1) 0.6708(1)
O1 O 0.6701(1) 0.4485(2) 0.7641(1)
N1 N 0.4674(2) 0.1315(3) 0.6157(1)
C1 C 1.0525(2) 0.6179(4) 0.6081(2)
C2 C 0.9323(3) 0.7301(4) 0.5980(2)
C3 C 0.8222(2) 0.6496(3) 0.6392(1)
C4 C 0.8656(2) 0.4753(3) 0.6824(1)
C5 C 0.7816(2) 0.3478(3) 0.7321(1)
C6 C 0.8495(2) 0.1685(3) 0.7865(1)
C7 C 0.7331(2) 0.1435(3) 0.6963(1)
C8 C 0.5822(2) 0.0675(3) 0.6981(1)
C9 C 0.3163(2) 0.0592(4) 0.6151(2)
C10 C 0.7139(2) 0.5777(3) 0.8367(1)
C11 C 0.8587(2) 0.6071(3) 0.8848(1)
C12 C 0.8913(2) 0.7457(3) 0.9582(1)
C13 C 0.7806(2) 0.8488(3) 0.9816(1)
C14 C 0.6289(2) 0.8230(3) 0.9321(1)
C15 C 0.5941(2) 0.6833(2) 0.8586(1)
C16 C 0.4427(2) 0.6566(3) 0.8101(1)
C17 C 0.3328(2) 0.7643(3) 0.8329(1)
C18 C 0.3671(2) 0.9031(3) 0.9054(1)
C19 C 0.5105(2) 0.9304(3) 0.9532(1)
H1 H 0.4670(20) 0.2600(40) 0.6134(15)
H2 H 0.4990(20) 0.0940(30) 0.5710(15)
H3 H 1.1370(30) 0.6410(40) 0.5869(16)
H4 H 0.9190(30) 0.8400(40) 0.5709(18)
H5 H 0.7410(30) 0.6930(40) 0.6344(16)
H6 H 0.9570(30) 0.1360(40) 0.7878(15)
H7 H 0.8230(30) 0.1420(40) 0.8402(17)
H8 H 0.7680(20) 0.1100(30) 0.6465(14)
H9 H 0.5520(20) 0.1070(30) 0.7515(14)
H10 H 0.5850(20) -0.0790(40) 0.6992(12)
H11 H 0.2880(30) 0.1050(40) 0.6703(17)
H12 H 0.3140(30) -0.0740(50) 0.6105(17)
H13 H 0.2510(30) 0.1070(40) 0.5578(16)
H14 H 0.9360(20) 0.5380(30) 0.8684(12)
H15 H 0.9870(30) 0.7640(40) 0.9924(17)
H16 H 0.8010(20) 0.9370(30) 1.0319(14)
H17 H 0.4210(20) 0.5620(30) 0.7614(13)
H18 H 0.2330(20) 0.7510(30) 0.8000(14)
H19 H 0.2900(20) 0.9770(30) 0.9155(14)
H20 H 0.5330(20) 1.0280(30) 1.0012(15)
loop_
_geom_bond_atom_site_label_1
_geom_bond_atom_site_label_2
_geom_bond_site_symmetry_1
_geom_bond_site_symmetry_2
S1 C1 1_555 1_555
O1 C5 1_555 1_555
N1 C8 1_555 1_555
C1 C2 1_555 1_555
C2 C3 1_555 1_555
C3 C4 1_555 1_555
C4 S1 1_555 1_555
C5 C4 1_555 1_555
C6 C5 1_555 1_555
C7 C5 1_555 1_555
C8 C7 1_555 1_555
C9 N1 1_555 1_555
C10 O1 1_555 1_555
C11 C10 1_555 1_555
C12 C11 1_555 1_555
C13 C12 1_555 1_555
C14 C13 1_555 1_555
C15 C10 1_555 1_555
C16 C15 1_555 1_555
C17 C16 1_555 1_555
C18 C17 1_555 1_555
C19 C14 1_555 1_555
H1 N1 1_555 1_555
H2 N1 1_555 1_555
H3 C1 1_555 1_555
H4 C2 1_555 1_555
H5 C3 1_555 1_555
H6 C6 1_555 1_555
H7 C6 1_555 1_555
H8 C7 1_555 1_555
H9 C8 1_555 1_555
H10 C8 1_555 1_555
H11 C9 1_555 1_555
H12 C9 1_555 1_555
H13 C9 1_555 1_555
H14 C11 1_555 1_555
H15 C12 1_555 1_555
H16 C13 1_555 1_555
H17 C16 1_555 1_555
H18 C17 1_555 1_555
H19 C18 1_555 1_555
H20 C19 1_555 1_555
C6 C7 1_555 1_555
C14 C15 1_555 1_555
C18 C19 1_555 1_555

#END
