
#######################################################################
#
#                 Cambridge Crystallographic Data Centre
#                                CCDC 
#
#######################################################################
#
# If this CIF has been generated from an entry in the Cambridge 
# Structural Database, then it will include bibliographic, chemical, 
# crystal, experimental, refinement or atomic coordinate data resulting 
# from the CCDC's data processing and validation procedures.
#
#######################################################################

data_UTEQUG
_chemical_name_common            
5-Carboethoxy-6-methyl-4-(2-chloro)phenyl-3,4-dihydropyridin-2-one
_chemical_formula_moiety         'C15 H16 Cl1 N1 O3'
_chemical_name_systematic        
'Ethyl 4-(2-chlorophenyl)-2-methyl-6-oxo-1,4,5,6-tetrahydropyridine-3-carboxylate'
_symmetry_cell_setting           triclinic
_symmetry_space_group_name_H-M   'P -1'
_symmetry_Int_Tables_number      2
_space_group_name_Hall           '-P 1'
loop_
_symmetry_equiv_pos_site_id
_symmetry_equiv_pos_as_xyz
1 x,y,z
2 -x,-y,-z
_cell_length_a                   7.685(5)
_cell_length_b                   8.232(5)
_cell_length_c                   11.846(5)
_cell_angle_alpha                92.800(5)
_cell_angle_beta                 100.190(5)
_cell_angle_gamma                108.560(5)
_cell_volume                     694.775
_exptl_crystal_colour            colorless
_chemical_melting_point          154-155deg.C
_cell_formula_units_Z            2
loop_
_atom_site_label
_atom_site_type_symbol
_atom_site_fract_x
_atom_site_fract_y
_atom_site_fract_z
C1 C 0.4455(5) 0.2457(5) 0.9303(3)
C2 C 0.3983(4) 0.0802(4) 0.8902(3)
C3 C 0.2135(5) -0.0334(5) 0.8283(3)
C4 C 0.0651(5) 0.0435(5) 0.8519(3)
C5 C 0.1133(5) 0.2083(5) 0.8940(3)
C6 C -0.0161(5) 0.3045(5) 0.9154(4)
C7 C -0.1314(5) -0.0686(5) 0.8266(3)
C8 C -0.3419(7) -0.3471(7) 0.7512(5)
C9 C -0.3509(9) -0.4853(8) 0.6763(6)
C10 C 0.2126(5) -0.0595(5) 0.7011(3)
C11 C 0.2338(6) 0.0801(6) 0.6358(4)
C12 C 0.2435(8) 0.0651(9) 0.5214(4)
C13 C 0.2312(8) -0.0917(10) 0.4673(5)
C14 C 0.2076(7) -0.2321(8) 0.5287(5)
C15 C 0.1985(5) -0.2163(5) 0.6429(4)
N1 N 0.2997(4) 0.3102(4) 0.9231(4)
O1 O -0.2661(4) -0.0297(4) 0.8406(3)
O2 O -0.1503(4) -0.2272(4) 0.7835(3)
O3 O 0.6055(4) 0.3376(4) 0.9741(3)
Cl1 Cl 0.1723(2) -0.3986(2) 0.7139(1)
loop_
_geom_bond_atom_site_label_1
_geom_bond_atom_site_label_2
_geom_bond_site_symmetry_1
_geom_bond_site_symmetry_2
C1 C2 1_555 1_555
C2 C3 1_555 1_555
C3 C4 1_555 1_555
C4 C5 1_555 1_555
C5 C6 1_555 1_555
C7 C4 1_555 1_555
C8 C9 1_555 1_555
C10 C3 1_555 1_555
C11 C10 1_555 1_555
C12 C11 1_555 1_555
C13 C12 1_555 1_555
C14 C13 1_555 1_555
C15 C10 1_555 1_555
N1 C1 1_555 1_555
O1 C7 1_555 1_555
O2 C7 1_555 1_555
O3 C1 1_555 1_555
Cl1 C15 1_555 1_555
C5 N1 1_555 1_555
C8 O2 1_555 1_555
C14 C15 1_555 1_555

#END
