
#######################################################################
#
#                 Cambridge Crystallographic Data Centre
#                                CCDC 
#
#######################################################################
#
# If this CIF has been generated from an entry in the Cambridge 
# Structural Database, then it will include bibliographic, chemical, 
# crystal, experimental, refinement or atomic coordinate data resulting 
# from the CCDC's data processing and validation procedures.
#
#######################################################################

data_UTETOE
_chemical_compound_source        'roots of Sophora flavescens'
_chemical_name_common            'flavesine D'
_chemical_formula_moiety         'C30 H44 N4 O2'
_chemical_name_systematic        
13-(15-oxo-13,14-didehydromatridin-14-yl)matridin-15-one
_chemical_properties_biological  'inhibitory activity against hepatitis B virus'
_symmetry_cell_setting           monoclinic
_symmetry_space_group_name_H-M   'P 21'
_symmetry_Int_Tables_number      4
_space_group_name_Hall           'P 2yb'
loop_
_symmetry_equiv_pos_site_id
_symmetry_equiv_pos_as_xyz
1 x,y,z
2 -x,1/2+y,-z
_cell_length_a                   12.7119(2)
_cell_length_b                   8.40898(14)
_cell_length_c                   15.2657(3)
_cell_angle_alpha                90
_cell_angle_beta                 98.5861(17)
_cell_angle_gamma                90
_cell_volume                     1613.53
_exptl_crystal_colour            colorless
_exptl_crystal_description       block
_cell_formula_units_Z            2
loop_
_atom_site_label
_atom_site_type_symbol
_atom_site_fract_x
_atom_site_fract_y
_atom_site_fract_z
C1 C 0.6086(4) 0.5001(6) 0.4566(3)
H1 H 0.6702 0.4826 0.5013
H2 H 0.5464 0.4616 0.4799
C2 C 1.2334(4) 0.1856(6) 0.3487(3)
H3 H 1.2203 0.1640 0.4085
H4 H 1.3084 0.2098 0.3512
C3 C 0.5965(4) 0.6765(6) 0.4381(3)
H5 H 0.6606 0.7171 0.4188
H6 H 0.5864 0.7319 0.4919
C4 C 1.2066(4) 0.0402(5) 0.2923(3)
H7 H 1.1342 0.0077 0.2961
H8 H 1.2537 -0.0461 0.3148
C5 C 0.5011(4) 0.7072(6) 0.3664(3)
H9 H 0.4987 0.8190 0.3504
H10 H 0.4359 0.6811 0.3890
C6 C 1.2177(4) 0.0719(6) 0.1957(3)
H11 H 1.2922 0.0861 0.1905
H12 H 1.1915 -0.0193 0.1600
C7 C 0.5098(4) 0.6064(6) 0.2843(3)
H13 H 0.4416 0.6141 0.2449
C8 C 1.1559(4) 0.2189(6) 0.1608(3)
H14 H 1.1767 0.2454 0.1033
C9 C 0.5293(4) 0.4320(6) 0.3065(3)
H15 H 0.4663 0.3912 0.3290
C10 C 1.1856(4) 0.3608(6) 0.2233(3)
H16 H 1.2614 0.3833 0.2239
C11 C 0.5414(4) 0.3377(5) 0.2231(3)
H17 H 0.4731 0.3446 0.1840
C12 C 1.1228(4) 0.5065(5) 0.1849(3)
H18 H 1.1478 0.5321 0.1289
C13 C 0.5598(4) 0.1603(6) 0.2461(3)
H19 H 0.4965 0.1161 0.2652
H20 H 0.5732 0.1027 0.1939
C14 C 1.1511(4) 0.6491(6) 0.2471(4)
H21 H 1.2244 0.6796 0.2459
H22 H 1.1062 0.7388 0.2263
C15 C 0.6532(4) 0.1410(6) 0.3189(4)
H23 H 0.7180 0.1731 0.2972
H24 H 0.6604 0.0300 0.3360
C16 C 1.1362(4) 0.6094(6) 0.3422(4)
H25 H 1.1600 0.6979 0.3809
H26 H 1.0615 0.5910 0.3451
C17 C 0.6382(4) 0.2413(6) 0.3991(3)
H27 H 0.5776 0.2015 0.4242
H28 H 0.7007 0.2309 0.4438
C18 C 1.2004(4) 0.4611(6) 0.3724(4)
H29 H 1.2755 0.4832 0.3736
H30 H 1.1893 0.4341 0.4321
C19 C 0.6262(4) 0.4091(6) 0.1714(3)
H31 H 0.6956 0.4009 0.2089
C20 C 1.0026(4) 0.4826(6) 0.1641(3)
H32 H 0.9731 0.4797 0.2198
C21 C 0.6316(4) 0.3155(6) 0.0869(3)
H33 H 0.5600 0.2879 0.0598
H34 H 0.6702 0.2173 0.1018
C22 C 0.9531(4) 0.6195(6) 0.1090(4)
H35 H 0.9570 0.7141 0.1456
H36 H 0.9940 0.6393 0.0613
C23 C 0.6862(3) 0.4081(5) 0.0197(3)
H37 H 0.6839 0.3438 -0.0340
C24 C 0.8400(4) 0.5909(6) 0.0702(3)
H38 H 0.7952 0.6776 0.0563
C25 C 0.6190(4) 0.5569(6) -0.0027(3)
H39 H 0.6526 0.6227 -0.0428
H40 H 0.5496 0.5257 -0.0334
C26 C 0.8019(4) 0.4462(6) 0.0552(3)
C27 C 0.6042(3) 0.6542(6) 0.0781(3)
C28 C 0.8759(4) 0.3074(6) 0.0714(3)
C29 C 0.5955(4) 0.6718(6) 0.2343(3)
H41 H 0.5793 0.7816 0.2180
H42 H 0.6636 0.6697 0.2726
C30 C 1.0374(4) 0.1904(5) 0.1466(3)
H43 H 1.0209 0.1055 0.1038
H44 H 1.0162 0.1555 0.2020
N1 N 0.6213(3) 0.4095(5) 0.3766(3)
N2 N 1.1698(3) 0.3249(5) 0.3134(3)
N3 N 0.6028(3) 0.5795(5) 0.1549(2)
N4 N 0.9753(3) 0.3310(5) 0.1153(3)
O1 O 0.5955(3) 0.8019(4) 0.0710(2)
O2 O 0.8450(2) 0.1737(4) 0.0418(2)
loop_
_geom_bond_atom_site_label_1
_geom_bond_atom_site_label_2
_geom_bond_site_symmetry_1
_geom_bond_site_symmetry_2
C1 H1 1_555 1_555
H2 C1 1_555 1_555
C2 H3 1_555 1_555
H4 C2 1_555 1_555
C3 C1 1_555 1_555
H5 C3 1_555 1_555
H6 C3 1_555 1_555
C4 C2 1_555 1_555
H7 C4 1_555 1_555
H8 C4 1_555 1_555
C5 C3 1_555 1_555
H9 C5 1_555 1_555
H10 C5 1_555 1_555
C6 C4 1_555 1_555
H11 C6 1_555 1_555
H12 C6 1_555 1_555
C7 C5 1_555 1_555
H13 C7 1_555 1_555
C8 C6 1_555 1_555
H14 C8 1_555 1_555
C9 C7 1_555 1_555
H15 C9 1_555 1_555
C10 C8 1_555 1_555
H16 C10 1_555 1_555
C11 C9 1_555 1_555
H17 C11 1_555 1_555
C12 C10 1_555 1_555
H18 C12 1_555 1_555
C13 C11 1_555 1_555
H19 C13 1_555 1_555
H20 C13 1_555 1_555
C14 C12 1_555 1_555
H21 C14 1_555 1_555
H22 C14 1_555 1_555
C15 C13 1_555 1_555
H23 C15 1_555 1_555
H24 C15 1_555 1_555
C16 C14 1_555 1_555
H25 C16 1_555 1_555
H26 C16 1_555 1_555
C17 C15 1_555 1_555
H27 C17 1_555 1_555
H28 C17 1_555 1_555
C18 C16 1_555 1_555
H29 C18 1_555 1_555
H30 C18 1_555 1_555
C19 C11 1_555 1_555
H31 C19 1_555 1_555
C20 C12 1_555 1_555
H32 C20 1_555 1_555
C21 C19 1_555 1_555
H33 C21 1_555 1_555
H34 C21 1_555 1_555
C22 C20 1_555 1_555
H35 C22 1_555 1_555
H36 C22 1_555 1_555
C23 C21 1_555 1_555
H37 C23 1_555 1_555
C24 C22 1_555 1_555
H38 C24 1_555 1_555
C25 C23 1_555 1_555
H39 C25 1_555 1_555
H40 C25 1_555 1_555
C26 C23 1_555 1_555
C27 C25 1_555 1_555
C28 C26 1_555 1_555
C29 C7 1_555 1_555
H41 C29 1_555 1_555
H42 C29 1_555 1_555
C30 C8 1_555 1_555
H43 C30 1_555 1_555
H44 C30 1_555 1_555
N1 C1 1_555 1_555
N2 C2 1_555 1_555
N3 C19 1_555 1_555
N4 C20 1_555 1_555
O1 C27 1_555 1_555
O2 C28 1_555 1_555
C9 N1 1_555 1_555
C10 N2 1_555 1_555
C17 N1 1_555 1_555
C18 N2 1_555 1_555
C24 C26 1_555 1_555
C27 N3 1_555 1_555
C28 N4 1_555 1_555
C29 N3 1_555 1_555
C30 N4 1_555 1_555

#END
