
#######################################################################
#
#                 Cambridge Crystallographic Data Centre
#                                CCDC 
#
#######################################################################
#
# If this CIF has been generated from an entry in the Cambridge 
# Structural Database, then it will include bibliographic, chemical, 
# crystal, experimental, refinement or atomic coordinate data resulting 
# from the CCDC's data processing and validation procedures.
#
#######################################################################

data_UTEVAR
_chemical_formula_moiety         'C72 H84 N12,C48 H48 N12,7(C1 H1 Cl3)'
_chemical_name_systematic        
'3,6,10,13,17,20,24,27,30,33,36,39-Dodecaaza-1,8,15,22(1,3,5)-tetrabenzenatricyclo[13.13.6.6^8,22^]tetracontaphane-2,6,9,13,16,20,23,27,29,33,35,39-dodecaene 3,5,9,11,15,17,21,23,26,28,31,33-dodecaaza-1,7,13,19(1,3,5)-tetrabenzena-4,10,16,22,27,32(1,3,5)-hexacyclohexano-bicyclo[17.11.5]tetratriacontaphane-2,5,8,11,14,17,20,23,25,28,30,33-dodecaene chloroform solvate'
_symmetry_cell_setting           cubic
_symmetry_space_group_name_H-M   'P 2 3'
_symmetry_Int_Tables_number      195
_space_group_name_Hall           'P 2 2 3'
loop_
_symmetry_equiv_pos_site_id
_symmetry_equiv_pos_as_xyz
1 x,y,z
2 -x,-y,z
3 x,-y,-z
4 -x,y,-z
5 z,x,y
6 -z,-x,y
7 z,-x,-y
8 -z,x,-y
9 y,z,x
10 y,-z,-x
11 -y,z,-x
12 -y,-z,x
_cell_length_a                   24.274(4)
_cell_length_b                   24.274(4)
_cell_length_c                   24.274(4)
_cell_angle_alpha                90
_cell_angle_beta                 90
_cell_angle_gamma                90
_cell_volume                     14302.9
_exptl_crystal_colour            colorless
_exptl_crystal_description       prism
_cell_formula_units_Z            4
loop_
_atom_site_label
_atom_site_type_symbol
_atom_site_fract_x
_atom_site_fract_y
_atom_site_fract_z
N5 N 0.96313(8) 0.95061(7) 0.22984(7)
C25 C 0.97099(10) 0.98771(9) 0.27705(8)
C26 C 0.92078(9) 0.95911(9) 0.20133(9)
C27 C 0.90691(9) 0.92455(8) 0.15314(8)
C28 C 0.86074(8) 0.93803(9) 0.12152(9)
H29 H 0.94350 1.01780 0.27540
H30 H 0.96500 0.96700 0.31170
H31 H 0.89700 0.98860 0.21100
H32 H 0.83860 0.96870 0.13160
N5A N 1.03687(8) 1.04939(7) 0.22984(7)
N5G N 0.77016(7) 0.96313(8) 0.04939(7)
N5I N 0.95061(7) 0.77016(7) 0.03687(8)
N5E N 0.77016(7) 1.03687(8) -0.04939(7)
N5F N 1.22984(7) 1.03687(8) 0.04939(7)
N5J N 1.04939(7) 1.22984(7) 0.03687(8)
N5K N 1.04939(7) 0.77016(7) -0.03687(8)
N5B N 0.96313(8) 1.04939(7) -0.22984(7)
N5C N 1.03687(8) 0.95061(7) -0.22984(7)
N5D N 1.22984(7) 0.96313(8) -0.04939(7)
N5H N 0.95061(7) 1.22984(7) -0.03687(8)
C25A C 1.02901(10) 1.01229(9) 0.27705(8)
C25G C 0.72295(8) 0.97099(10) 0.01229(9)
C25I C 0.98771(9) 0.72295(8) 0.02901(10)
C25E C 0.72295(8) 1.02901(10) -0.01229(9)
C25F C 1.27705(8) 1.02901(10) 0.01229(9)
C25J C 1.01229(9) 1.27705(8) 0.02901(10)
C25K C 1.01229(9) 0.72295(8) -0.02901(10)
C25B C 0.97099(10) 1.01229(9) -0.27705(8)
C25C C 1.02901(10) 0.98771(9) -0.27705(8)
C25D C 1.27705(8) 0.97099(10) -0.01229(9)
C25H C 0.98771(9) 1.27705(8) -0.02901(10)
C26A C 1.07922(9) 1.04089(9) 0.20133(9)
C26G C 0.79867(9) 0.92078(9) 0.04089(9)
C26I C 0.95911(9) 0.79867(9) 0.07922(9)
C26E C 0.79867(9) 1.07922(9) -0.04089(9)
C26F C 1.20133(9) 1.07922(9) 0.04089(9)
C26J C 1.04089(9) 1.20133(9) 0.07922(9)
C26K C 1.04089(9) 0.79867(9) -0.07922(9)
C26B C 0.92078(9) 1.04089(9) -0.20133(9)
C26C C 1.07922(9) 0.95911(9) -0.20133(9)
C26D C 1.20133(9) 0.92078(9) -0.04089(9)
C26H C 0.95911(9) 1.20133(9) -0.07922(9)
C27A C 1.09309(9) 1.07545(8) 0.15314(8)
C27G C 0.84686(8) 0.90691(9) 0.07545(8)
C27I C 0.92455(8) 0.84686(8) 0.09309(9)
C27E C 0.84686(8) 1.09309(9) -0.07545(8)
C27F C 1.15314(8) 1.09309(9) 0.07545(8)
C27J C 1.07545(8) 1.15314(8) 0.09309(9)
C27K C 1.07545(8) 0.84686(8) -0.09309(9)
C27B C 0.90691(9) 1.07545(8) -0.15314(8)
C27C C 1.09309(9) 0.92455(8) -0.15314(8)
C27D C 1.15314(8) 0.90691(9) -0.07545(8)
C27H C 0.92455(8) 1.15314(8) -0.09309(9)
C28A C 1.13926(8) 1.06197(9) 0.12152(9)
C28G C 0.87848(9) 0.86074(8) 0.06197(9)
C28I C 0.93803(9) 0.87848(9) 0.13926(8)
C28E C 0.87848(9) 1.13926(8) -0.06197(9)
C28F C 1.12152(9) 1.13926(8) 0.06197(9)
C28J C 1.06197(9) 1.12152(9) 0.13926(8)
C28K C 1.06197(9) 0.87848(9) -0.13926(8)
C28B C 0.86074(8) 1.06197(9) -0.12152(9)
C28C C 1.13926(8) 0.93803(9) -0.12152(9)
C28D C 1.12152(9) 0.86074(8) -0.06197(9)
C28H C 0.93803(9) 1.12152(9) -0.13926(8)
H29A H 1.05650 0.98220 0.27540
H29G H 0.72460 0.94350 -0.01780
H29I H 1.01780 0.72460 0.05650
H29E H 0.72460 1.05650 0.01780
H29F H 1.27540 1.05650 -0.01780
H29J H 0.98220 1.27540 0.05650
H29K H 0.98220 0.72460 -0.05650
H29B H 0.94350 0.98220 -0.27540
H29C H 1.05650 1.01780 -0.27540
H29D H 1.27540 0.94350 0.01780
H29H H 1.01780 1.27540 -0.05650
H30A H 1.03500 1.03300 0.31170
H30G H 0.68830 0.96500 0.03300
H30I H 0.96700 0.68830 0.03500
H30E H 0.68830 1.03500 -0.03300
H30F H 1.31170 1.03500 0.03300
H30J H 1.03300 1.31170 0.03500
H30K H 1.03300 0.68830 -0.03500
H30B H 0.96500 1.03300 -0.31170
H30C H 1.03500 0.96700 -0.31170
H30D H 1.31170 0.96500 -0.03300
H30H H 0.96700 1.31170 -0.03500
H31A H 1.10300 1.01140 0.21100
H31G H 0.78900 0.89700 0.01140
H31I H 0.98860 0.78900 0.10300
H31E H 0.78900 1.10300 -0.01140
H31F H 1.21100 1.10300 0.01140
H31J H 1.01140 1.21100 0.10300
H31K H 1.01140 0.78900 -0.10300
H31B H 0.89700 1.01140 -0.21100
H31C H 1.10300 0.98860 -0.21100
H31D H 1.21100 0.89700 -0.01140
H31H H 0.98860 1.21100 -0.10300
H32A H 1.16140 1.03130 0.13160
H32G H 0.86840 0.83860 0.03130
H32I H 0.96870 0.86840 0.16140
H32E H 0.86840 1.16140 -0.03130
H32F H 1.13160 1.16140 0.03130
H32J H 1.03130 1.13160 0.16140
H32K H 1.03130 0.86840 -0.16140
H32B H 0.83860 1.03130 -0.13160
H32C H 1.16140 0.96870 -0.13160
H32D H 1.13160 0.83860 -0.03130
H32H H 0.96870 1.13160 -0.16140
N6 N 0.55220(12) 0.28579(10) 0.96767(12)
N7 N 0.74448(13) 0.46950(11) 0.94797(16)
N8 N 0.54273(19) 0.45783(13) 0.77052(13)
C29 C 0.51530(15) 0.24003(12) 0.97288(14)
C30 C 0.54277(14) 0.31863(13) 0.92680(13)
C31 C 0.57820(14) 0.36556(12) 0.91169(14)
C32 C 0.62697(13) 0.37750(12) 0.94181(17)
C33 C 0.66095(13) 0.42040(13) 0.92661(17)
C34 C 0.71101(15) 0.43151(13) 0.9598(2)
C35 C 0.79175(16) 0.47263(16) 0.9840(2)
C36 C 0.64694(15) 0.45083(13) 0.87975(16)
C37 C 0.59896(15) 0.44049(13) 0.85015(14)
C38 C 0.58373(19) 0.47212(15) 0.80049(15)
C39 C 0.5304(2) 0.4921(2) 0.72341(16)
C40 C 0.56505(16) 0.39797(13) 0.86713(15)
H33 H 0.53650 0.20540 0.96950
H34 H 0.48830 0.24110 0.94230
H35 H 0.51090 0.31210 0.90510
H36 H 0.63630 0.35560 0.97290
H37 H 0.71820 0.40920 0.99110
H38 H 0.79100 0.44140 1.01020
H39 H 0.82590 0.46980 0.96190
H40 H 0.67090 0.47940 0.86780
H41 H 0.60470 0.50360 0.79060
H42 H 0.53920 0.47190 0.68910
H43 H 0.55330 0.52580 0.72460
H44 H 0.53190 0.39100 0.84750
N6A N 0.44780(12) 0.71421(10) 0.96767(12)
N6B N 0.55220(12) 0.71421(10) 1.03233(12)
N6C N 0.44780(12) 0.28579(10) 1.03233(12)
N7A N 0.25552(13) 0.53050(11) 0.94797(16)
N7B N 0.74448(13) 0.53050(11) 1.05203(16)
N7C N 0.25552(13) 0.46950(11) 1.05203(16)
N8A N 0.45727(19) 0.54217(13) 0.77052(13)
N8B N 0.54273(19) 0.54217(13) 1.22948(13)
N8C N 0.45727(19) 0.45783(13) 1.22948(13)
C29A C 0.48470(15) 0.75997(12) 0.97288(14)
C29B C 0.51530(15) 0.75997(12) 1.02712(14)
C29C C 0.48470(15) 0.24003(12) 1.02712(14)
C30A C 0.45723(14) 0.68137(13) 0.92680(13)
C30B C 0.54277(14) 0.68137(13) 1.07320(13)
C30C C 0.45723(14) 0.31863(13) 1.07320(13)
C31A C 0.42180(14) 0.63444(12) 0.91169(14)
C31B C 0.57820(14) 0.63444(12) 1.08831(14)
C31C C 0.42180(14) 0.36556(12) 1.08831(14)
C32A C 0.37303(13) 0.62250(12) 0.94181(17)
C32B C 0.62697(13) 0.62250(12) 1.05819(17)
C32C C 0.37303(13) 0.37750(12) 1.05819(17)
C33A C 0.33905(13) 0.57960(13) 0.92661(17)
C33B C 0.66095(13) 0.57960(13) 1.07339(17)
C33C C 0.33905(13) 0.42040(13) 1.07339(17)
C34A C 0.28899(15) 0.56849(13) 0.9598(2)
C34B C 0.71101(15) 0.56849(13) 1.0402(2)
C34C C 0.28899(15) 0.43151(13) 1.0402(2)
C35A C 0.20825(16) 0.52737(16) 0.9840(2)
C35B C 0.79175(16) 0.52737(16) 1.0160(2)
C35C C 0.20825(16) 0.47263(16) 1.0160(2)
C36A C 0.35306(15) 0.54917(13) 0.87975(16)
C36B C 0.64694(15) 0.54917(13) 1.12025(16)
C36C C 0.35306(15) 0.45083(13) 1.12025(16)
C37A C 0.40104(15) 0.55951(13) 0.85015(14)
C37B C 0.59896(15) 0.55951(13) 1.14985(14)
C37C C 0.40104(15) 0.44049(13) 1.14985(14)
C38A C 0.41627(19) 0.52788(15) 0.80049(15)
C38B C 0.58373(19) 0.52788(15) 1.19951(15)
C38C C 0.41627(19) 0.47212(15) 1.19951(15)
C39A C 0.4696(2) 0.5079(2) 0.72341(16)
C39B C 0.5304(2) 0.5079(2) 1.27659(16)
C39C C 0.4696(2) 0.4921(2) 1.27659(16)
C40A C 0.43495(16) 0.60203(13) 0.86713(15)
C40B C 0.56505(16) 0.60203(13) 1.13287(15)
C40C C 0.43495(16) 0.39797(13) 1.13287(15)
H33A H 0.46350 0.79460 0.96950
H33B H 0.53650 0.79460 1.03050
H33C H 0.46350 0.20540 1.03050
H34A H 0.51170 0.75890 0.94230
H34B H 0.48830 0.75890 1.05770
H34C H 0.51170 0.24110 1.05770
H35A H 0.48910 0.68790 0.90510
H35B H 0.51090 0.68790 1.09490
H35C H 0.48910 0.31210 1.09490
H36A H 0.36370 0.64440 0.97290
H36B H 0.63630 0.64440 1.02710
H36C H 0.36370 0.35560 1.02710
H37A H 0.28180 0.59080 0.99110
H37B H 0.71820 0.59080 1.00890
H37C H 0.28180 0.40920 1.00890
H38A H 0.20900 0.55860 1.01020
H38B H 0.79100 0.55860 0.98980
H38C H 0.20900 0.44140 0.98980
H39A H 0.17410 0.53020 0.96190
H39B H 0.82590 0.53020 1.03810
H39C H 0.17410 0.46980 1.03810
H40A H 0.32910 0.52060 0.86780
H40B H 0.67090 0.52060 1.13220
H40C H 0.32910 0.47940 1.13220
H41A H 0.39530 0.49640 0.79060
H41B H 0.60470 0.49640 1.20940
H41C H 0.39530 0.50360 1.20940
H42A H 0.46080 0.52810 0.68910
H42B H 0.53920 0.52810 1.31090
H42C H 0.46080 0.47190 1.31090
H43A H 0.44670 0.47420 0.72460
H43B H 0.55330 0.47420 1.27540
H43C H 0.44670 0.52580 1.27540
H44A H 0.46810 0.60900 0.84750
H44B H 0.53190 0.60900 1.15250
H44C H 0.46810 0.39100 1.15250
N1 N 0.77533(8) 0.98385(7) 0.72771(9)
N2 N 0.68928(9) 0.96980(8) 0.80961(9)
N3 N 0.76990(9) 0.81581(9) 0.51952(8)
N4 N 0.70531(9) 0.71577(9) 0.52470(8)
C1 C 0.73763(9) 1.02800(8) 0.74348(9)
C2 C 0.72064(9) 1.02018(8) 0.80375(9)
C3 C 0.70534(12) 0.93700(10) 0.84744(10)
C4 C 0.67434(13) 0.88581(10) 0.85909(11)
C5 C 0.62643(13) 0.87306(11) 0.83074(12)
C6 C 0.68506(11) 1.06843(9) 0.82376(9)
C7 C 0.71487(11) 1.12284(9) 0.81691(10)
C8 C 0.73131(10) 1.13121(8) 0.75646(10)
C9 C 0.76620(10) 1.08330(9) 0.73534(10)
C10 C 0.76545(9) 0.95651(9) 0.68409(11)
C11 C 0.80197(10) 0.91184(10) 0.66457(12)
C12 C 0.84990(10) 0.89988(10) 0.69418(12)
C13 C 0.78944(10) 0.88289(11) 0.61789(12)
C14 C 0.82477(11) 0.84233(12) 0.59750(12)
C15 C 0.81214(10) 0.80931(11) 0.54792(11)
C16 C 0.76237(10) 0.77888(10) 0.47230(9)
C17 C 0.70552(10) 0.75245(9) 0.47696(9)
C18 C 0.66791(11) 0.72407(11) 0.55936(11)
C19 C 0.66105(12) 0.68853(12) 0.60837(11)
C20 C 0.69653(13) 0.64398(12) 0.61756(13)
C21 C 0.69133(12) 0.71987(12) 0.42527(10)
C22 C 0.69591(12) 0.75569(13) 0.37392(10)
C23 C 0.75311(12) 0.77640(13) 0.36896(10)
C24 C 0.76818(13) 0.81197(12) 0.41940(11)
H1 H 0.70410 1.02640 0.71960
H2 H 0.75450 1.01780 0.82710
H3 H 0.73740 0.94550 0.86830
H4 H 0.61320 0.89740 0.80310
H5 H 0.65020 1.06930 0.80250
H6 H 0.67570 1.06300 0.86310
H7 H 0.69060 1.15340 0.82890
H8 H 0.74820 1.12320 0.84040
H9 H 0.69770 1.13450 0.73360
H10 H 0.75240 1.16590 0.75290
H11 H 0.80190 1.08300 0.75500
H12 H 0.77380 1.08870 0.69560
H13 H 0.73340 0.96510 0.66330
H14 H 0.85810 0.91910 0.72730
H15 H 0.75600 0.89050 0.59900
H16 H 0.83760 0.78160 0.53710
H17 H 0.79120 0.74950 0.47320
H18 H 0.67730 0.78200 0.48250
H19 H 0.64330 0.75400 0.55400
H20 H 0.72670 0.63820 0.59330
H21 H 0.65330 0.70540 0.42840
H22 H 0.71670 0.68810 0.42190
H23 H 0.68620 0.73380 0.34090
H24 H 0.67000 0.78710 0.37660
H25 H 0.75670 0.79870 0.33500
H26 H 0.77890 0.74490 0.36630
H27 H 0.74370 0.84450 0.42090
H28 H 0.80660 0.82520 0.41580
N1D N 0.72771(9) 0.77533(8) 0.98385(7)
N1H N 0.98385(7) 0.72771(9) 0.77533(8)
N2D N 0.80961(9) 0.68928(9) 0.96980(8)
N2H N 0.96980(8) 0.80961(9) 0.68928(9)
N3D N 0.51952(8) 0.76990(9) 0.81581(9)
N3H N 0.81581(9) 0.51952(8) 0.76990(9)
N4D N 0.52470(8) 0.70531(9) 0.71577(9)
N4H N 0.71577(9) 0.52470(8) 0.70531(9)
C1D C 0.74348(9) 0.73763(9) 1.02800(8)
C1H C 1.02800(8) 0.74348(9) 0.73763(9)
C2D C 0.80375(9) 0.72064(9) 1.02018(8)
C2H C 1.02018(8) 0.80375(9) 0.72064(9)
C3D C 0.84744(10) 0.70534(12) 0.93700(10)
C3H C 0.93700(10) 0.84744(10) 0.70534(12)
C4D C 0.85909(11) 0.67434(13) 0.88581(10)
C4H C 0.88581(10) 0.85909(11) 0.67434(13)
C5D C 0.83074(12) 0.62643(13) 0.87306(11)
C5H C 0.87306(11) 0.83074(12) 0.62643(13)
C6D C 0.82376(9) 0.68506(11) 1.06843(9)
C6H C 1.06843(9) 0.82376(9) 0.68506(11)
C7D C 0.81691(10) 0.71487(11) 1.12284(9)
C7H C 1.12284(9) 0.81691(10) 0.71487(11)
C8D C 0.75646(10) 0.73131(10) 1.13121(8)
C8H C 1.13121(8) 0.75646(10) 0.73131(10)
C9D C 0.73534(10) 0.76620(10) 1.08330(9)
C9H C 1.08330(9) 0.73534(10) 0.76620(10)
C10D C 0.68409(11) 0.76545(9) 0.95651(9)
C10H C 0.95651(9) 0.68409(11) 0.76545(9)
C11D C 0.66457(12) 0.80197(10) 0.91184(10)
C11H C 0.91184(10) 0.66457(12) 0.80197(10)
C12D C 0.69418(12) 0.84990(10) 0.89988(10)
C12H C 0.89988(10) 0.69418(12) 0.84990(10)
C13D C 0.61789(12) 0.78944(10) 0.88289(11)
C13H C 0.88289(11) 0.61789(12) 0.78944(10)
C14D C 0.59750(12) 0.82477(11) 0.84233(12)
C14H C 0.84233(12) 0.59750(12) 0.82477(11)
C15D C 0.54792(11) 0.81214(10) 0.80931(11)
C15H C 0.80931(11) 0.54792(11) 0.81214(10)
C16D C 0.47230(9) 0.76237(10) 0.77888(10)
C16H C 0.77888(10) 0.47230(9) 0.76237(10)
C17D C 0.47696(9) 0.70552(10) 0.75245(9)
C17H C 0.75245(9) 0.47696(9) 0.70552(10)
C18D C 0.55936(11) 0.66791(11) 0.72407(11)
C18H C 0.72407(11) 0.55936(11) 0.66791(11)
C19D C 0.60837(11) 0.66105(12) 0.68853(12)
C19H C 0.68853(12) 0.60837(11) 0.66105(12)
C20D C 0.61756(13) 0.69653(13) 0.64398(12)
C20H C 0.64398(12) 0.61756(13) 0.69653(13)
C21D C 0.42527(10) 0.69133(12) 0.71987(12)
C21H C 0.71987(12) 0.42527(10) 0.69133(12)
C22D C 0.37392(10) 0.69591(12) 0.75569(13)
C22H C 0.75569(13) 0.37392(10) 0.69591(12)
C23D C 0.36896(10) 0.75311(12) 0.77640(13)
C23H C 0.77640(13) 0.36896(10) 0.75311(12)
C24D C 0.41940(11) 0.76818(13) 0.81197(12)
C24H C 0.81197(12) 0.41940(11) 0.76818(13)
H1D H 0.71960 0.70410 1.02640
H1H H 1.02640 0.71960 0.70410
H2D H 0.82710 0.75450 1.01780
H2H H 1.01780 0.82710 0.75450
H3D H 0.86830 0.73740 0.94550
H3H H 0.94550 0.86830 0.73740
H4D H 0.80310 0.61320 0.89740
H4H H 0.89740 0.80310 0.61320
H5D H 0.80250 0.65020 1.06930
H5H H 1.06930 0.80250 0.65020
H6D H 0.86310 0.67570 1.06300
H6H H 1.06300 0.86310 0.67570
H7D H 0.82890 0.69060 1.15340
H7H H 1.15340 0.82890 0.69060
H8D H 0.84040 0.74820 1.12320
H8H H 1.12320 0.84040 0.74820
H9D H 0.73360 0.69770 1.13450
H9H H 1.13450 0.73360 0.69770
H10D H 0.75290 0.75240 1.16590
H10H H 1.16590 0.75290 0.75240
H11D H 0.75500 0.80190 1.08300
H11H H 1.08300 0.75500 0.80190
H12D H 0.69560 0.77380 1.08870
H12H H 1.08870 0.69560 0.77380
H13D H 0.66330 0.73340 0.96510
H13H H 0.96510 0.66330 0.73340
H14D H 0.72730 0.85810 0.91910
H14H H 0.91910 0.72730 0.85810
H15D H 0.59900 0.75600 0.89050
H15H H 0.89050 0.59900 0.75600
H16D H 0.53710 0.83760 0.78160
H16H H 0.78160 0.53710 0.83760
H17D H 0.47320 0.79120 0.74950
H17H H 0.74950 0.47320 0.79120
H18D H 0.48250 0.67730 0.78200
H18H H 0.78200 0.48250 0.67730
H19D H 0.55400 0.64330 0.75400
H19H H 0.75400 0.55400 0.64330
H20D H 0.59330 0.72670 0.63820
H20H H 0.63820 0.59330 0.72670
H21D H 0.42840 0.65330 0.70540
H21H H 0.70540 0.42840 0.65330
H22D H 0.42190 0.71670 0.68810
H22H H 0.68810 0.42190 0.71670
H23D H 0.34090 0.68620 0.73380
H23H H 0.73380 0.34090 0.68620
H24D H 0.37660 0.67000 0.78710
H24H H 0.78710 0.37660 0.67000
H25D H 0.33500 0.75670 0.79870
H25H H 0.79870 0.33500 0.75670
H26D H 0.36630 0.77890 0.74490
H26H H 0.74490 0.36630 0.77890
H27D H 0.42090 0.74370 0.84450
H27H H 0.84450 0.42090 0.74370
H28D H 0.41580 0.80660 0.82520
H28H H 0.82520 0.41580 0.80660
loop_
_geom_bond_atom_site_label_1
_geom_bond_atom_site_label_2
_geom_bond_site_symmetry_1
_geom_bond_site_symmetry_2
N1 C1 1_555 1_555
N2 C2 1_555 1_555
N3 C15 1_555 1_555
N4 C17 1_555 1_555
C1 C2 1_555 1_555
C2 C6 1_555 1_555
C3 N2 1_555 1_555
C4 C3 1_555 1_555
C5 C4 1_555 1_555
C6 C7 1_555 1_555
C7 C8 1_555 1_555
C8 C9 1_555 1_555
C9 C1 1_555 1_555
C10 N1 1_555 1_555
C11 C10 1_555 1_555
C12 C11 1_555 1_555
C13 C11 1_555 1_555
C14 C13 1_555 1_555
C15 C14 1_555 1_555
C16 N3 1_555 1_555
C17 C16 1_555 1_555
C18 N4 1_555 1_555
C19 C18 1_555 1_555
C20 C19 1_555 1_555
C21 C17 1_555 1_555
C22 C21 1_555 1_555
C23 C22 1_555 1_555
C24 C16 1_555 1_555
N5 C25 1_555 1_555
C25 H29 1_555 1_555
C26 N5 1_555 1_555
C27 C26 1_555 1_555
C28 C27 1_555 1_555
N6 C29 1_555 1_555
N7 C34 1_555 1_555
N8 C38 1_555 1_555
C29 H33 1_555 1_555
C30 N6 1_555 1_555
C31 C30 1_555 1_555
C32 C31 1_555 1_555
C33 C32 1_555 1_555
C34 C33 1_555 1_555
C35 N7 1_555 1_555
C36 C33 1_555 1_555
C37 C36 1_555 1_555
C38 C37 1_555 1_555
C39 N8 1_555 1_555
C40 C31 1_555 1_555
H1 C1 1_555 1_555
H2 C2 1_555 1_555
H3 C3 1_555 1_555
H4 C5 1_555 1_555
H5 C6 1_555 1_555
H6 C6 1_555 1_555
H7 C7 1_555 1_555
H8 C7 1_555 1_555
H9 C8 1_555 1_555
H10 C8 1_555 1_555
H11 C9 1_555 1_555
H12 C9 1_555 1_555
H13 C10 1_555 1_555
H14 C12 1_555 1_555
H15 C13 1_555 1_555
H16 C15 1_555 1_555
H17 C16 1_555 1_555
H18 C17 1_555 1_555
H19 C18 1_555 1_555
H20 C20 1_555 1_555
H21 C21 1_555 1_555
H22 C21 1_555 1_555
H23 C22 1_555 1_555
H24 C22 1_555 1_555
H25 C23 1_555 1_555
H26 C23 1_555 1_555
H27 C24 1_555 1_555
H28 C24 1_555 1_555
H30 C25 1_555 1_555
H31 C26 1_555 1_555
H32 C28 1_555 1_555
H34 C29 1_555 1_555
H35 C30 1_555 1_555
H36 C32 1_555 1_555
H37 C34 1_555 1_555
H38 C35 1_555 1_555
H39 C35 1_555 1_555
H40 C36 1_555 1_555
H41 C38 1_555 1_555
H42 C39 1_555 1_555
H43 C39 1_555 1_555
H44 C40 1_555 1_555
N1D C1D 1_555 1_555
N1H C1H 1_555 1_555
N2D C2D 1_555 1_555
N2H C2H 1_555 1_555
N3D C15D 1_555 1_555
N3H C15H 1_555 1_555
N4D C17D 1_555 1_555
N4H C17H 1_555 1_555
C1D C2D 1_555 1_555
C1H C2H 1_555 1_555
C2D C6D 1_555 1_555
C2H C6H 1_555 1_555
C3D N2D 1_555 1_555
C3H N2H 1_555 1_555
C4D C3D 1_555 1_555
C4H C12 1_555 1_555
C5D C4D 1_555 1_555
C5H C14 1_555 1_555
C6D C7D 1_555 1_555
C6H C7H 1_555 1_555
C7D C8D 1_555 1_555
C7H C8H 1_555 1_555
C8D C9D 1_555 1_555
C8H C9H 1_555 1_555
C9D C1D 1_555 1_555
C9H C1H 1_555 1_555
C10D N1D 1_555 1_555
C10H N1H 1_555 1_555
C11D C10D 1_555 1_555
C11H C10H 1_555 1_555
C12D C4 1_555 1_555
C12H C4D 1_555 1_555
C13D C11D 1_555 1_555
C13H C11H 1_555 1_555
C14D C5 1_555 1_555
C14H C5D 1_555 1_555
C15D C14D 1_555 1_555
C15H C14H 1_555 1_555
C16D N3D 1_555 1_555
C16H N3H 1_555 1_555
C17D C16D 1_555 1_555
C17H C16H 1_555 1_555
C18D N4D 1_555 1_555
C18H N4H 1_555 1_555
C19D C18D 1_555 1_555
C19H C20 1_555 1_555
C20D C19 1_555 1_555
C20H C19D 1_555 1_555
C21D C17D 1_555 1_555
C21H C17H 1_555 1_555
C22D C21D 1_555 1_555
C22H C21H 1_555 1_555
C23D C22D 1_555 1_555
C23H C22H 1_555 1_555
C24D C16D 1_555 1_555
C24H C16H 1_555 1_555
N5A C25A 1_555 1_555
N5G C25G 1_555 1_555
N5I C25I 1_555 1_555
N5E C25E 1_555 1_555
N5F C25F 1_555 1_555
N5J C25J 1_555 1_555
N5K C25K 1_555 1_555
N5B C25B 1_555 1_555
N5C C25C 1_555 1_555
N5D C25D 1_555 1_555
N5H C25H 1_555 1_555
C25A C25 1_555 1_555
C25G C25E 1_555 1_555
C25I C25K 1_555 1_555
C25E H29E 1_555 1_555
C25F C25D 1_555 1_555
C25J C25H 1_555 1_555
C25K H29K 1_555 1_555
C25B C25C 1_555 1_555
C25C H29C 1_555 1_555
C25D H29D 1_555 1_555
C25H H29H 1_555 1_555
C26A N5A 1_555 1_555
C26G N5G 1_555 1_555
C26I N5I 1_555 1_555
C26E N5E 1_555 1_555
C26F N5F 1_555 1_555
C26J N5J 1_555 1_555
C26K N5K 1_555 1_555
C26B N5B 1_555 1_555
C26C N5C 1_555 1_555
C26D N5D 1_555 1_555
C26H N5H 1_555 1_555
C27A C26A 1_555 1_555
C27G C28 1_555 1_555
C27I C26I 1_555 1_555
C27E C26E 1_555 1_555
C27F C26F 1_555 1_555
C27J C26J 1_555 1_555
C27K C26K 1_555 1_555
C27B C26B 1_555 1_555
C27C C26C 1_555 1_555
C27D C26D 1_555 1_555
C27H C26H 1_555 1_555
C28A C27A 1_555 1_555
C28G C27G 1_555 1_555
C28I C27 1_555 1_555
C28E C27E 1_555 1_555
C28F C27F 1_555 1_555
C28J C27A 1_555 1_555
C28K C27K 1_555 1_555
C28B C27E 1_555 1_555
C28C C27C 1_555 1_555
C28D C27K 1_555 1_555
C28H C27B 1_555 1_555
N6A C29A 1_555 1_555
N6B C29B 1_555 1_555
N6C C29C 1_555 1_555
N7A C34A 1_555 1_555
N7B C34B 1_555 1_555
N7C C34C 1_555 1_555
N8A C38A 1_555 1_555
N8B C38B 1_555 1_555
N8C C38C 1_555 1_555
C29A C29B 1_555 1_555
C29B H33B 1_555 1_555
C29C C29 1_555 1_555
C30A N6A 1_555 1_555
C30B N6B 1_555 1_555
C30C N6C 1_555 1_555
C31A C30A 1_555 1_555
C31B C30B 1_555 1_555
C31C C30C 1_555 1_555
C32A C31A 1_555 1_555
C32B C31B 1_555 1_555
C32C C31C 1_555 1_555
C33A C32A 1_555 1_555
C33B C32B 1_555 1_555
C33C C32C 1_555 1_555
C34A C33A 1_555 1_555
C34B C33B 1_555 1_555
C34C C33C 1_555 1_555
C35A N7A 1_555 1_555
C35B C35 1_555 1_555
C35C N7C 1_555 1_555
C36A C33A 1_555 1_555
C36B C33B 1_555 1_555
C36C C33C 1_555 1_555
C37A C36A 1_555 1_555
C37B C36B 1_555 1_555
C37C C36C 1_555 1_555
C38A C37A 1_555 1_555
C38B C37B 1_555 1_555
C38C C37C 1_555 1_555
C39A C39 1_555 1_555
C39B N8B 1_555 1_555
C39C N8C 1_555 1_555
C40A C31A 1_555 1_555
C40B C31B 1_555 1_555
C40C C31C 1_555 1_555
H1D C1D 1_555 1_555
H1H C1H 1_555 1_555
H2D C2D 1_555 1_555
H2H C2H 1_555 1_555
H3D C3D 1_555 1_555
H3H C3H 1_555 1_555
H4D C5D 1_555 1_555
H4H C5H 1_555 1_555
H5D C6D 1_555 1_555
H5H C6H 1_555 1_555
H6D C6D 1_555 1_555
H6H C6H 1_555 1_555
H7D C7D 1_555 1_555
H7H C7H 1_555 1_555
H8D C7D 1_555 1_555
H8H C7H 1_555 1_555
H9D C8D 1_555 1_555
H9H C8H 1_555 1_555
H10D C8D 1_555 1_555
H10H C8H 1_555 1_555
H11D C9D 1_555 1_555
H11H C9H 1_555 1_555
H12D C9D 1_555 1_555
H12H C9H 1_555 1_555
H13D C10D 1_555 1_555
H13H C10H 1_555 1_555
H14D C12D 1_555 1_555
H14H C12H 1_555 1_555
H15D C13D 1_555 1_555
H15H C13H 1_555 1_555
H16D C15D 1_555 1_555
H16H C15H 1_555 1_555
H17D C16D 1_555 1_555
H17H C16H 1_555 1_555
H18D C17D 1_555 1_555
H18H C17H 1_555 1_555
H19D C18D 1_555 1_555
H19H C18H 1_555 1_555
H20D C20D 1_555 1_555
H20H C20H 1_555 1_555
H21D C21D 1_555 1_555
H21H C21H 1_555 1_555
H22D C21D 1_555 1_555
H22H C21H 1_555 1_555
H23D C22D 1_555 1_555
H23H C22H 1_555 1_555
H24D C22D 1_555 1_555
H24H C22H 1_555 1_555
H25D C23D 1_555 1_555
H25H C23H 1_555 1_555
H26D C23D 1_555 1_555
H26H C23H 1_555 1_555
H27D C24D 1_555 1_555
H27H C24H 1_555 1_555
H28D C24D 1_555 1_555
H28H C24H 1_555 1_555
H29A C25A 1_555 1_555
H29G C25G 1_555 1_555
H29I C25I 1_555 1_555
H29F C25F 1_555 1_555
H29J C25J 1_555 1_555
H29B C25B 1_555 1_555
H30A C25A 1_555 1_555
H30G C25G 1_555 1_555
H30I C25I 1_555 1_555
H30E C25E 1_555 1_555
H30F C25F 1_555 1_555
H30J C25J 1_555 1_555
H30K C25K 1_555 1_555
H30B C25B 1_555 1_555
H30C C25C 1_555 1_555
H30D C25D 1_555 1_555
H30H C25H 1_555 1_555
H31A C26A 1_555 1_555
H31G C26G 1_555 1_555
H31I C26I 1_555 1_555
H31E C26E 1_555 1_555
H31F C26F 1_555 1_555
H31J C26J 1_555 1_555
H31K C26K 1_555 1_555
H31B C26B 1_555 1_555
H31C C26C 1_555 1_555
H31D C26D 1_555 1_555
H31H C26H 1_555 1_555
H32A C28A 1_555 1_555
H32G C28G 1_555 1_555
H32I C28I 1_555 1_555
H32E C28E 1_555 1_555
H32F C28F 1_555 1_555
H32J C28J 1_555 1_555
H32K C28K 1_555 1_555
H32B C28B 1_555 1_555
H32C C28C 1_555 1_555
H32D C28D 1_555 1_555
H32H C28H 1_555 1_555
H33A C29A 1_555 1_555
H33C C29C 1_555 1_555
H34A C29A 1_555 1_555
H34B C29B 1_555 1_555
H34C C29C 1_555 1_555
H35A C30A 1_555 1_555
H35B C30B 1_555 1_555
H35C C30C 1_555 1_555
H36A C32A 1_555 1_555
H36B C32B 1_555 1_555
H36C C32C 1_555 1_555
H37A C34A 1_555 1_555
H37B C34B 1_555 1_555
H37C C34C 1_555 1_555
H38A C35A 1_555 1_555
H38B C35B 1_555 1_555
H38C C35C 1_555 1_555
H39A C35A 1_555 1_555
H39B C35B 1_555 1_555
H39C C35C 1_555 1_555
H40A C36A 1_555 1_555
H40B C36B 1_555 1_555
H40C C36C 1_555 1_555
H41A C38A 1_555 1_555
H41B C38B 1_555 1_555
H41C C38C 1_555 1_555
H42A C39A 1_555 1_555
H42B C39B 1_555 1_555
H42C C39C 1_555 1_555
H43A C39A 1_555 1_555
H43B C39B 1_555 1_555
H43C C39C 1_555 1_555
H44A C40A 1_555 1_555
H44B C40B 1_555 1_555
H44C C40C 1_555 1_555
C23 C24 1_555 1_555
C37 C40 1_555 1_555
C3H C4H 1_555 1_555
C4H C5H 1_555 1_555
C11D C12D 1_555 1_555
C11H C12H 1_555 1_555
C13D C14D 1_555 1_555
C13H C14H 1_555 1_555
C18H C19H 1_555 1_555
C19D C20D 1_555 1_555
C19H C20H 1_555 1_555
C23D C24D 1_555 1_555
C23H C24H 1_555 1_555
C26G C27G 1_555 1_555
C27I C28G 1_555 1_555
C27I C28I 1_555 1_555
C27F C28A 1_555 1_555
C27J C28F 1_555 1_555
C27J C28J 1_555 1_555
C27B C28B 1_555 1_555
C27C C28K 1_555 1_555
C27D C28C 1_555 1_555
C27D C28D 1_555 1_555
C27H C28E 1_555 1_555
C27H C28H 1_555 1_555
N7B C35B 1_555 1_555
N8A C39A 1_555 1_555
C35A C35C 1_555 1_555
C37A C40A 1_555 1_555
C37B C40B 1_555 1_555
C37C C40C 1_555 1_555
C39B C39C 1_555 1_555

#END
