
#######################################################################
#
#                 Cambridge Crystallographic Data Centre
#                                CCDC 
#
#######################################################################
#
# If this CIF has been generated from an entry in the Cambridge 
# Structural Database, then it will include bibliographic, chemical, 
# crystal, experimental, refinement or atomic coordinate data resulting 
# from the CCDC's data processing and validation procedures.
#
#######################################################################

data_UTEVEW
_chemical_formula_moiety         'C17 H15 B1 Br2 F2 N2 S1'
_chemical_name_systematic        
(2-((4,5-dibromo-3-(2-thienyl)-2H-pyrrol-2-ylidene)methyl)-4-ethyl-3,5-dimethyl-1H-pyrrolato)(difluoro)boron
_symmetry_cell_setting           triclinic
_symmetry_space_group_name_H-M   'P -1'
_symmetry_Int_Tables_number      2
_space_group_name_Hall           '-P 1'
loop_
_symmetry_equiv_pos_site_id
_symmetry_equiv_pos_as_xyz
1 x,y,z
2 -x,-y,-z
_cell_length_a                   8.0900(3)
_cell_length_b                   9.7183(4)
_cell_length_c                   12.1016(4)
_cell_angle_alpha                77.095(2)
_cell_angle_beta                 88.672(2)
_cell_angle_gamma                80.609(2)
_cell_volume                     914.892
_exptl_crystal_colour            colorless
_exptl_crystal_description       block
_cell_formula_units_Z            2
loop_
_atom_site_label
_atom_site_type_symbol
_atom_site_fract_x
_atom_site_fract_y
_atom_site_fract_z
B1 B 0.1281(8) 0.6985(6) 0.5853(5)
Br1 Br 0.33866(9) 0.29596(8) 0.97026(5)
Br2 Br 0.14157(11) 0.65374(8) 0.86537(5)
C1 C 0.0742(6) 0.7666(5) 0.3671(4)
C2 C 0.1150(6) 0.7057(5) 0.2710(4)
C3 C 0.2043(7) 0.5712(5) 0.3104(4)
C4 C 0.2142(6) 0.5491(5) 0.4315(4)
C5 C 0.2800(7) 0.4323(5) 0.5115(4)
H1 H 0.3278 0.3499 0.4883
C6 C 0.2787(6) 0.4309(5) 0.6279(4)
C7 C 0.3378(6) 0.3223(6) 0.7229(4)
C8 C 0.2965(6) 0.3818(6) 0.8167(4)
C9 C 0.2179(7) 0.5214(6) 0.7773(4)
C10 C -0.0181(8) 0.9113(6) 0.3661(5)
H2 H -0.0707 0.9116 0.4380
H3 H -0.1021 0.9374 0.3071
H4 H 0.0586 0.9788 0.3527
C11 C 0.0714(7) 0.7799(6) 0.1497(4)
H5 H 0.0689 0.7079 0.1059
H6 H -0.0403 0.8351 0.1469
C12 C 0.1890(9) 0.8770(9) 0.0951(6)
H7 H 0.1978 0.9454 0.1402
H8 H 0.1476 0.9264 0.0207
H9 H 0.2974 0.8219 0.0893
C13 C 0.2822(8) 0.4657(6) 0.2437(5)
H10 H 0.2293 0.3821 0.2621
H11 H 0.3996 0.4393 0.2620
H12 H 0.2677 0.5079 0.1642
C14 C 0.4217(6) 0.1790(5) 0.7193(4)
C15 C 0.5345(5) 0.1410(5) 0.6243(4)
H13 H 0.5670 0.2022 0.5599
C16 C 0.5799(9) -0.0162(8) 0.6588(6)
H14 H 0.6514 -0.0680 0.6160
C17 C 0.5134(9) -0.0793(7) 0.7538(6)
H15 H 0.5313 -0.1780 0.7809
F1 F 0.2261(5) 0.8007(3) 0.5911(3)
F2 F -0.0340(4) 0.7416(3) 0.6136(3)
N1 N 0.1338(5) 0.6736(4) 0.4614(3)
N2 N 0.2045(5) 0.5528(4) 0.6635(3)
S1 S 0.3956(2) 0.0321(2) 0.82073(16)
loop_
_geom_bond_atom_site_label_1
_geom_bond_atom_site_label_2
_geom_bond_site_symmetry_1
_geom_bond_site_symmetry_2
B1 F1 1_555 1_555
Br1 C8 1_555 1_555
Br2 C9 1_555 1_555
C1 C2 1_555 1_555
C2 C3 1_555 1_555
C3 C4 1_555 1_555
C4 C5 1_555 1_555
C5 H1 1_555 1_555
C6 C5 1_555 1_555
C7 C6 1_555 1_555
C8 C7 1_555 1_555
C9 C8 1_555 1_555
C10 C1 1_555 1_555
H2 C10 1_555 1_555
H3 C10 1_555 1_555
H4 C10 1_555 1_555
C11 C2 1_555 1_555
H5 C11 1_555 1_555
H6 C11 1_555 1_555
C12 C11 1_555 1_555
H7 C12 1_555 1_555
H8 C12 1_555 1_555
H9 C12 1_555 1_555
C13 C3 1_555 1_555
H10 C13 1_555 1_555
H11 C13 1_555 1_555
H12 C13 1_555 1_555
C14 C7 1_555 1_555
C15 C14 1_555 1_555
H13 C15 1_555 1_555
C16 C15 1_555 1_555
H14 C16 1_555 1_555
C17 C16 1_555 1_555
H15 C17 1_555 1_555
F2 B1 1_555 1_555
N1 B1 1_555 1_555
N2 B1 1_555 1_555
S1 C14 1_555 1_555
C1 N1 1_555 1_555
C4 N1 1_555 1_555
C6 N2 1_555 1_555
C9 N2 1_555 1_555
C17 S1 1_555 1_555

#END
