
#######################################################################
#
#                 Cambridge Crystallographic Data Centre
#                                CCDC 
#
#######################################################################
#
# If this CIF has been generated from an entry in the Cambridge 
# Structural Database, then it will include bibliographic, chemical, 
# crystal, experimental, refinement or atomic coordinate data resulting 
# from the CCDC's data processing and validation procedures.
#
#######################################################################

data_UTEVOF
_chemical_formula_moiety         'C114 H108 N16,6(C1 H2 Cl2)'
_chemical_name_systematic        
'3,5,8,11,13,16,19,21,24,27,29,32,35,37,42,44-Hexadecaaza-1,7,9,15,17,23,25,31,33,39,40,46(1,4)-dodecabenzena-4,12,20,28,36,43(1,2)-hexacyclopentatricyclo[15.15.7.7^16,32^]tetracontaphane-2,5,10,13,18,21,26,29,34,37,41,44-dodecaene dichloromethane solvate'
_symmetry_cell_setting           cubic
_symmetry_space_group_name_H-M   'F 41 3 2'
_symmetry_Int_Tables_number      210
_space_group_name_Hall           'F 4d 2 3'
loop_
_symmetry_equiv_pos_site_id
_symmetry_equiv_pos_as_xyz
1 x,y,z
2 1/4-y,1/4+x,1/4+z
3 -x,-y,z
4 1/4+y,1/4-x,1/4+z
5 1/4+x,1/4-z,1/4+y
6 x,-y,-z
7 1/4+x,1/4+z,1/4-y
8 1/4+z,1/4+y,1/4-x
9 -x,y,-z
10 1/4-z,1/4+y,1/4+x
11 z,x,y
12 y,z,x
13 -y,-z,x
14 z,-x,-y
15 -y,z,-x
16 -z,-x,y
17 -z,x,-y
18 y,-z,-x
19 1/4+y,1/4+x,1/4-z
20 1/4-y,1/4-x,1/4-z
21 1/4-x,1/4+z,1/4+y
22 1/4-x,1/4-z,1/4-y
23 1/4+z,1/4-y,1/4+x
24 1/4-z,1/4-y,1/4-x
25 x,1/2+y,1/2+z
26 1/4-y,3/4+x,3/4+z
27 -x,1/2-y,1/2+z
28 1/4+y,3/4-x,3/4+z
29 1/4+x,3/4-z,3/4+y
30 x,1/2-y,1/2-z
31 1/4+x,3/4+z,3/4-y
32 1/4+z,3/4+y,3/4-x
33 -x,1/2+y,1/2-z
34 1/4-z,3/4+y,3/4+x
35 z,1/2+x,1/2+y
36 y,1/2+z,1/2+x
37 -y,1/2-z,1/2+x
38 z,1/2-x,1/2-y
39 -y,1/2+z,1/2-x
40 -z,1/2-x,1/2+y
41 -z,1/2+x,1/2-y
42 y,1/2-z,1/2-x
43 1/4+y,3/4+x,3/4-z
44 1/4-y,3/4-x,3/4-z
45 1/4-x,3/4+z,3/4+y
46 1/4-x,3/4-z,3/4-y
47 1/4+z,3/4-y,3/4+x
48 1/4-z,3/4-y,3/4-x
49 1/2+x,y,1/2+z
50 3/4-y,1/4+x,3/4+z
51 1/2-x,-y,1/2+z
52 3/4+y,1/4-x,3/4+z
53 3/4+x,1/4-z,3/4+y
54 1/2+x,-y,1/2-z
55 3/4+x,1/4+z,3/4-y
56 3/4+z,1/4+y,3/4-x
57 1/2-x,y,1/2-z
58 3/4-z,1/4+y,3/4+x
59 1/2+z,x,1/2+y
60 1/2+y,z,1/2+x
61 1/2-y,-z,1/2+x
62 1/2+z,-x,1/2-y
63 1/2-y,z,1/2-x
64 1/2-z,-x,1/2+y
65 1/2-z,x,1/2-y
66 1/2+y,-z,1/2-x
67 3/4+y,1/4+x,3/4-z
68 3/4-y,1/4-x,3/4-z
69 3/4-x,1/4+z,3/4+y
70 3/4-x,1/4-z,3/4-y
71 3/4+z,1/4-y,3/4+x
72 3/4-z,1/4-y,3/4-x
73 1/2+x,1/2+y,z
74 3/4-y,3/4+x,1/4+z
75 1/2-x,1/2-y,z
76 3/4+y,3/4-x,1/4+z
77 3/4+x,3/4-z,1/4+y
78 1/2+x,1/2-y,-z
79 3/4+x,3/4+z,1/4-y
80 3/4+z,3/4+y,1/4-x
81 1/2-x,1/2+y,-z
82 3/4-z,3/4+y,1/4+x
83 1/2+z,1/2+x,y
84 1/2+y,1/2+z,x
85 1/2-y,1/2-z,x
86 1/2+z,1/2-x,-y
87 1/2-y,1/2+z,-x
88 1/2-z,1/2-x,y
89 1/2-z,1/2+x,-y
90 1/2+y,1/2-z,-x
91 3/4+y,3/4+x,1/4-z
92 3/4-y,3/4-x,1/4-z
93 3/4-x,3/4+z,1/4+y
94 3/4-x,3/4-z,1/4-y
95 3/4+z,3/4-y,1/4+x
96 3/4-z,3/4-y,1/4-x
_cell_length_a                   30.115(2)
_cell_length_b                   30.115(2)
_cell_length_c                   30.115(2)
_cell_angle_alpha                90
_cell_angle_beta                 90
_cell_angle_gamma                90
_cell_volume                     27311.7
_exptl_crystal_colour            yellow
_exptl_crystal_description       prism
_cell_formula_units_Z            8
loop_
_atom_site_label
_atom_site_type_symbol
_atom_site_fract_x
_atom_site_fract_y
_atom_site_fract_z
N1 N -0.12917(11) 0.12917(11) 0.12917(11)
N2 N -0.30079(9) 0.03533(9) 0.04015(10)
C1 C -0.26897(12) 0.02054(12) 0.06177(12)
H1 H -0.2678 -0.0105 0.0673
C2 C -0.23286(11) 0.04865(11) 0.07941(11)
C3 C -0.16303(11) 0.10140(12) 0.11302(11)
C4 C -0.16028(12) 0.05528(13) 0.11314(13)
H2 H -0.1345 0.0413 0.1247
C5 C -0.20161(12) 0.12047(12) 0.09613(12)
H3 H -0.2044 0.1519 0.0960
C6 C -0.23581(11) 0.09495(11) 0.07963(11)
H4 H -0.2617 0.1090 0.0683
C7 C -0.33399(12) 0.00323(12) 0.02571(14)
H5 H -0.3285 -0.0259 0.0406
C8 C -0.19441(14) 0.02964(12) 0.09682(14)
H6 H -0.1917 -0.0018 0.0974
C9 C -0.38096(14) 0.01847(16) 0.03522(16)
H7 H -0.3938 0.0011 0.0600
H8 H -0.3811 0.0503 0.0436
C10 C -0.4074(2) 0.0115(2) -0.00609(11)
N1E N -0.12917(11) -0.12917(11) -0.12917(11)
N1H N 0.12917(11) 0.12917(11) -0.12917(11)
N1B N 0.12917(11) -0.12917(11) 0.12917(11)
N2E N -0.30079(9) -0.03533(9) -0.04015(10)
N2L N -0.03533(9) -0.04015(10) -0.30079(9)
N2K N 0.03533(9) 0.04015(10) -0.30079(9)
N2M N 0.04015(10) 0.30079(9) -0.03533(9)
N2O N -0.04015(10) 0.30079(9) 0.03533(9)
N2N N -0.03533(9) 0.04015(10) 0.30079(9)
N2Q N 0.03533(9) -0.04015(10) 0.30079(9)
N2J N 0.04015(10) -0.30079(9) 0.03533(9)
N2P N -0.04015(10) -0.30079(9) -0.03533(9)
N2B N 0.30079(9) -0.03533(9) 0.04015(10)
N2H N 0.30079(9) 0.03533(9) -0.04015(10)
C1E C -0.26897(12) -0.02054(12) -0.06177(12)
C1L C -0.02054(12) -0.06177(12) -0.26897(12)
C1K C 0.02054(12) 0.06177(12) -0.26897(12)
C1M C 0.06177(12) 0.26897(12) -0.02054(12)
C1O C -0.06177(12) 0.26897(12) 0.02054(12)
C1N C -0.02054(12) 0.06177(12) 0.26897(12)
C1Q C 0.02054(12) -0.06177(12) 0.26897(12)
C1J C 0.06177(12) -0.26897(12) 0.02054(12)
C1P C -0.06177(12) -0.26897(12) -0.02054(12)
C1B C 0.26897(12) -0.02054(12) 0.06177(12)
C1H C 0.26897(12) 0.02054(12) -0.06177(12)
H1E H -0.2678 0.0105 -0.0673
H1K H -0.0105 0.0673 -0.2678
H1O H -0.0673 0.2678 -0.0105
H1Q H -0.0105 -0.0673 0.2678
H1P H -0.0673 -0.2678 0.0105
H1J H 0.0673 -0.2678 -0.0105
H1H H 0.2678 -0.0105 -0.0673
H1B H 0.2678 0.0105 0.0673
H1N H 0.0105 0.0673 0.2678
H1M H 0.0673 0.2678 0.0105
H1L H 0.0105 -0.0673 -0.2678
C2E C -0.23286(11) -0.04865(11) -0.07941(11)
C2L C -0.04865(11) -0.07941(11) -0.23286(11)
C2K C 0.04865(11) 0.07941(11) -0.23286(11)
C2M C 0.07941(11) 0.23286(11) -0.04865(11)
C2O C -0.07941(11) 0.23286(11) 0.04865(11)
C2N C -0.04865(11) 0.07941(11) 0.23286(11)
C2Q C 0.04865(11) -0.07941(11) 0.23286(11)
C2J C 0.07941(11) -0.23286(11) 0.04865(11)
C2P C -0.07941(11) -0.23286(11) -0.04865(11)
C2B C 0.23286(11) -0.04865(11) 0.07941(11)
C2H C 0.23286(11) 0.04865(11) -0.07941(11)
C3E C -0.16303(11) -0.10140(12) -0.11302(11)
C3L C -0.10140(12) -0.11302(11) -0.16303(11)
C3K C 0.10140(12) 0.11302(11) -0.16303(11)
C3M C 0.11302(11) 0.16303(11) -0.10140(12)
C3O C -0.11302(11) 0.16303(11) 0.10140(12)
C3N C -0.10140(12) 0.11302(11) 0.16303(11)
C3Q C 0.10140(12) -0.11302(11) 0.16303(11)
C3J C 0.11302(11) -0.16303(11) 0.10140(12)
C3P C -0.11302(11) -0.16303(11) -0.10140(12)
C3B C 0.16303(11) -0.10140(12) 0.11302(11)
C3H C 0.16303(11) 0.10140(12) -0.11302(11)
C4L C -0.05528(13) -0.11314(13) -0.16028(12)
C4M C 0.11314(13) 0.16028(12) -0.05528(13)
C4N C -0.05528(13) 0.11314(13) 0.16028(12)
C4J C 0.11314(13) -0.16028(12) 0.05528(13)
C4P C -0.11314(13) -0.16028(12) -0.05528(13)
C4B C 0.16028(12) -0.05528(13) 0.11314(13)
C4H C 0.16028(12) 0.05528(13) -0.11314(13)
C4Q C 0.05528(13) -0.11314(13) 0.16028(12)
C4O C -0.11314(13) 0.16028(12) 0.05528(13)
C4K C 0.05528(13) 0.11314(13) -0.16028(12)
C4E C -0.16028(12) -0.05528(13) -0.11314(13)
H2L H -0.0413 -0.1247 -0.1345
H2M H 0.1247 0.1345 -0.0413
H2N H -0.0413 0.1247 0.1345
H2J H 0.1247 -0.1345 0.0413
H2P H -0.1247 -0.1345 -0.0413
H2B H 0.1345 -0.0413 0.1247
H2H H 0.1345 0.0413 -0.1247
H2Q H 0.0413 -0.1247 0.1345
H2O H -0.1247 0.1345 0.0413
H2K H 0.0413 0.1247 -0.1345
H2E H -0.1345 -0.0413 -0.1247
C5E C -0.20161(12) -0.12047(12) -0.09613(12)
C5K C 0.12047(12) 0.09613(12) -0.20161(12)
C5O C -0.09613(12) 0.20161(12) 0.12047(12)
C5Q C 0.12047(12) -0.09613(12) 0.20161(12)
C5P C -0.09613(12) -0.20161(12) -0.12047(12)
C5J C 0.09613(12) -0.20161(12) 0.12047(12)
C5H C 0.20161(12) 0.12047(12) -0.09613(12)
C5B C 0.20161(12) -0.12047(12) 0.09613(12)
C5N C -0.12047(12) 0.09613(12) 0.20161(12)
C5M C 0.09613(12) 0.20161(12) -0.12047(12)
C5L C -0.12047(12) -0.09613(12) -0.20161(12)
H3P H -0.0960 -0.2044 -0.1519
H3J H 0.0960 -0.2044 0.1519
H3H H 0.2044 0.1519 -0.0960
H3B H 0.2044 -0.1519 0.0960
H3Q H 0.1519 -0.0960 0.2044
H3N H -0.1519 0.0960 0.2044
H3O H -0.0960 0.2044 0.1519
H3M H 0.0960 0.2044 -0.1519
H3K H 0.1519 0.0960 -0.2044
H3L H -0.1519 -0.0960 -0.2044
H3E H -0.2044 -0.1519 -0.0960
C6E C -0.23581(11) -0.09495(11) -0.07963(11)
C6K C 0.09495(11) 0.07963(11) -0.23581(11)
C6O C -0.07963(11) 0.23581(11) 0.09495(11)
C6Q C 0.09495(11) -0.07963(11) 0.23581(11)
C6P C -0.07963(11) -0.23581(11) -0.09495(11)
C6J C 0.07963(11) -0.23581(11) 0.09495(11)
C6H C 0.23581(11) 0.09495(11) -0.07963(11)
C6B C 0.23581(11) -0.09495(11) 0.07963(11)
C6N C -0.09495(11) 0.07963(11) 0.23581(11)
C6M C 0.07963(11) 0.23581(11) -0.09495(11)
C6L C -0.09495(11) -0.07963(11) -0.23581(11)
H4P H -0.0683 -0.2617 -0.1090
H4J H 0.0683 -0.2617 0.1090
H4H H 0.2617 0.1090 -0.0683
H4B H 0.2617 -0.1090 0.0683
H4Q H 0.1090 -0.0683 0.2617
H4N H -0.1090 0.0683 0.2617
H4O H -0.0683 0.2617 0.1090
H4M H 0.0683 0.2617 -0.1090
H4K H 0.1090 0.0683 -0.2617
H4L H -0.1090 -0.0683 -0.2617
H4E H -0.2617 -0.1090 -0.0683
C7E C -0.33399(12) -0.00323(12) -0.02571(14)
C7L C -0.00323(12) -0.02571(14) -0.33399(12)
C7K C 0.00323(12) 0.02571(14) -0.33399(12)
C7M C 0.02571(14) 0.33399(12) -0.00323(12)
C7O C -0.02571(14) 0.33399(12) 0.00323(12)
C7N C -0.00323(12) 0.02571(14) 0.33399(12)
C7Q C 0.00323(12) -0.02571(14) 0.33399(12)
C7J C 0.02571(14) -0.33399(12) 0.00323(12)
C7P C -0.02571(14) -0.33399(12) -0.00323(12)
C7B C 0.33399(12) -0.00323(12) 0.02571(14)
C7H C 0.33399(12) 0.00323(12) -0.02571(14)
H5P H -0.0406 -0.3285 0.0259
H5J H 0.0406 -0.3285 -0.0259
H5H H 0.3285 -0.0259 -0.0406
H5B H 0.3285 0.0259 0.0406
H5Q H -0.0259 -0.0406 0.3285
H5N H 0.0259 0.0406 0.3285
H5O H -0.0406 0.3285 -0.0259
H5M H 0.0406 0.3285 0.0259
H5K H -0.0259 0.0406 -0.3285
H5L H 0.0259 -0.0406 -0.3285
H5E H -0.3285 0.0259 -0.0406
C8L C -0.02964(12) -0.09682(14) -0.19441(14)
C8M C 0.09682(14) 0.19441(14) -0.02964(12)
C8N C -0.02964(12) 0.09682(14) 0.19441(14)
C8J C 0.09682(14) -0.19441(14) 0.02964(12)
C8P C -0.09682(14) -0.19441(14) -0.02964(12)
C8B C 0.19441(14) -0.02964(12) 0.09682(14)
C8H C 0.19441(14) 0.02964(12) -0.09682(14)
C8Q C 0.02964(12) -0.09682(14) 0.19441(14)
C8O C -0.09682(14) 0.19441(14) 0.02964(12)
C8K C 0.02964(12) 0.09682(14) -0.19441(14)
C8E C -0.19441(14) -0.02964(12) -0.09682(14)
H6P H -0.0974 -0.1917 0.0018
H6J H 0.0974 -0.1917 -0.0018
H6H H 0.1917 -0.0018 -0.0974
H6B H 0.1917 0.0018 0.0974
H6Q H -0.0018 -0.0974 0.1917
H6N H 0.0018 0.0974 0.1917
H6O H -0.0974 0.1917 -0.0018
H6M H 0.0974 0.1917 0.0018
H6K H -0.0018 0.0974 -0.1917
H6L H 0.0018 -0.0974 -0.1917
H6E H -0.1917 0.0018 -0.0974
C9P C -0.03522(16) -0.38096(14) -0.01847(16)
C9J C 0.03522(16) -0.38096(14) 0.01847(16)
C9H C 0.38096(14) 0.01847(16) -0.03522(16)
C9B C 0.38096(14) -0.01847(16) 0.03522(16)
C9Q C 0.01847(16) -0.03522(16) 0.38096(14)
C9N C -0.01847(16) 0.03522(16) 0.38096(14)
C9O C -0.03522(16) 0.38096(14) 0.01847(16)
C9M C 0.03522(16) 0.38096(14) -0.01847(16)
C9K C 0.01847(16) 0.03522(16) -0.38096(14)
C9L C -0.01847(16) -0.03522(16) -0.38096(14)
C9E C -0.38096(14) -0.01847(16) -0.03522(16)
H7P H -0.0600 -0.3938 -0.0011
H7J H 0.0600 -0.3938 0.0011
H7H H 0.3938 0.0011 -0.0600
H7B H 0.3938 -0.0011 0.0600
H7Q H 0.0011 -0.0600 0.3938
H7N H -0.0011 0.0600 0.3938
H7O H -0.0600 0.3938 0.0011
H7M H 0.0600 0.3938 -0.0011
H7K H 0.0011 0.0600 -0.3938
H7L H -0.0011 -0.0600 -0.3938
H7E H -0.3938 -0.0011 -0.0600
H8P H -0.0436 -0.3811 -0.0503
H8J H 0.0436 -0.3811 0.0503
H8H H 0.3811 0.0503 -0.0436
H8B H 0.3811 -0.0503 0.0436
H8Q H 0.0503 -0.0436 0.3811
H8N H -0.0503 0.0436 0.3811
H8O H -0.0436 0.3811 0.0503
H8M H 0.0436 0.3811 -0.0503
H8K H 0.0503 0.0436 -0.3811
H8L H -0.0503 -0.0436 -0.3811
H8E H -0.3811 -0.0503 -0.0436
C10P C 0.00609(11) -0.4074(2) -0.0115(2)
C10J C -0.00609(11) -0.4074(2) 0.0115(2)
C10H C 0.4074(2) 0.0115(2) 0.00609(11)
C10B C 0.4074(2) -0.0115(2) -0.00609(11)
C10Q C 0.0115(2) 0.00609(11) 0.4074(2)
C10N C -0.0115(2) -0.00609(11) 0.4074(2)
C10O C 0.00609(11) 0.4074(2) 0.0115(2)
C10M C -0.00609(11) 0.4074(2) -0.0115(2)
C10K C 0.0115(2) -0.00609(11) -0.4074(2)
C10L C -0.0115(2) 0.00609(11) -0.4074(2)
C10E C -0.4074(2) -0.0115(2) 0.00609(11)
Cl1 Cl -0.2762 -0.3327 0.0534
C11 C -0.2399 -0.2985 0.0856
H11 H -0.2160 -0.3173 0.0981
H12 H -0.2258 -0.2764 0.0658
Cl2 Cl -0.2669 -0.2699 0.1299
Cl1VB Cl -0.2238 -0.1673 0.0534
C11VB C -0.2601 -0.2015 0.0856
H11VB H -0.2840 -0.1827 0.0981
H12VB H -0.2742 -0.2236 0.0658
Cl2VB Cl -0.2331 -0.2301 0.1299
H9? H -0.4364 -0.0022 0.0011
H10? H -0.4129 0.0402 -0.0212
Cl3? Cl -0.2611 -0.2998 0.0885
C12? C -0.3021 -0.3421 0.0835
H13? H -0.3303 -0.3285 0.0736
H14? H -0.3072 -0.3555 0.1131
Cl4? Cl -0.2867 -0.3847 0.0454
loop_
_geom_bond_atom_site_label_1
_geom_bond_atom_site_label_2
_geom_bond_site_symmetry_1
_geom_bond_site_symmetry_2
N1 C3 1_555 1_555
N2 C1 1_555 1_555
C1 H1 1_555 1_555
C2 C1 1_555 1_555
C3 C4 1_555 1_555
C4 H2 1_555 1_555
C5 C3 1_555 1_555
H3 C5 1_555 1_555
C6 C2 1_555 1_555
H4 C6 1_555 1_555
C7 N2 1_555 1_555
H5 C7 1_555 1_555
C8 C2 1_555 1_555
H6 C8 1_555 1_555
C9 C7 1_555 1_555
H7 C9 1_555 1_555
H8 C9 1_555 1_555
C10 C9 1_555 1_555
Cl1 C11 1_555 1_555
C11 H11 1_555 1_555
H12 C11 1_555 1_555
Cl2 C11 1_555 1_555
N1E C3E 1_555 1_555
N1H C3K 1_555 1_555
N1B C3Q 1_555 1_555
N2E C1E 1_555 1_555
N2L C1L 1_555 1_555
N2K C1K 1_555 1_555
N2M C1M 1_555 1_555
N2O C1O 1_555 1_555
N2N C1N 1_555 1_555
N2Q C1Q 1_555 1_555
N2J C1J 1_555 1_555
N2P C1P 1_555 1_555
N2B C1B 1_555 1_555
N2H C1H 1_555 1_555
C1E H1E 1_555 1_555
C1L H1L 1_555 1_555
C1K H1K 1_555 1_555
C1M H1M 1_555 1_555
C1O H1O 1_555 1_555
C1N H1N 1_555 1_555
C1Q H1Q 1_555 1_555
C1J H1J 1_555 1_555
C1P H1P 1_555 1_555
C1B H1B 1_555 1_555
C1H H1H 1_555 1_555
C2E C1E 1_555 1_555
C2L C1L 1_555 1_555
C2K C1K 1_555 1_555
C2M C1M 1_555 1_555
C2O C1O 1_555 1_555
C2N C1N 1_555 1_555
C2Q C1Q 1_555 1_555
C2J C1J 1_555 1_555
C2P C1P 1_555 1_555
C2B C1B 1_555 1_555
C2H C1H 1_555 1_555
C3E C4E 1_555 1_555
C3L N1E 1_555 1_555
C3K C4K 1_555 1_555
C3M N1H 1_555 1_555
C3O N1 1_555 1_555
C3N N1 1_555 1_555
C3Q C4Q 1_555 1_555
C3J N1B 1_555 1_555
C3P N1E 1_555 1_555
C3B N1B 1_555 1_555
C3H N1H 1_555 1_555
C4L C3L 1_555 1_555
C4M C3M 1_555 1_555
C4N C3N 1_555 1_555
C4J C3J 1_555 1_555
C4P C3P 1_555 1_555
C4B C3B 1_555 1_555
C4H C3H 1_555 1_555
C4Q H2Q 1_555 1_555
C4O C3O 1_555 1_555
C4K H2K 1_555 1_555
C4E H2E 1_555 1_555
H2L C4L 1_555 1_555
H2M C4M 1_555 1_555
H2N C4N 1_555 1_555
H2J C4J 1_555 1_555
H2P C4P 1_555 1_555
H2B C4B 1_555 1_555
H2H C4H 1_555 1_555
H2O C4O 1_555 1_555
C5E C3E 1_555 1_555
C5K C3K 1_555 1_555
C5O C3O 1_555 1_555
C5Q C3Q 1_555 1_555
C5P C3P 1_555 1_555
C5J C3J 1_555 1_555
C5H C3H 1_555 1_555
C5B C3B 1_555 1_555
C5N C3N 1_555 1_555
C5M C3M 1_555 1_555
C5L C3L 1_555 1_555
H3P C5P 1_555 1_555
H3J C5J 1_555 1_555
H3H C5H 1_555 1_555
H3B C5B 1_555 1_555
H3Q C5Q 1_555 1_555
H3N C5N 1_555 1_555
H3O C5O 1_555 1_555
H3M C5M 1_555 1_555
H3K C5K 1_555 1_555
H3L C5L 1_555 1_555
H3E C5E 1_555 1_555
C6E C2E 1_555 1_555
C6K C2K 1_555 1_555
C6O C2O 1_555 1_555
C6Q C2Q 1_555 1_555
C6P C2P 1_555 1_555
C6J C2J 1_555 1_555
C6H C2H 1_555 1_555
C6B C2B 1_555 1_555
C6N C2N 1_555 1_555
C6M C2M 1_555 1_555
C6L C2L 1_555 1_555
H4P C6P 1_555 1_555
H4J C6J 1_555 1_555
H4H C6H 1_555 1_555
H4B C6B 1_555 1_555
H4Q C6Q 1_555 1_555
H4N C6N 1_555 1_555
H4O C6O 1_555 1_555
H4M C6M 1_555 1_555
H4K C6K 1_555 1_555
H4L C6L 1_555 1_555
H4E C6E 1_555 1_555
C7E C7 1_555 1_555
C7L N2L 1_555 1_555
C7K N2K 1_555 1_555
C7M N2M 1_555 1_555
C7O N2O 1_555 1_555
C7N N2N 1_555 1_555
C7Q N2Q 1_555 1_555
C7J N2J 1_555 1_555
C7P N2P 1_555 1_555
C7B N2B 1_555 1_555
C7H N2H 1_555 1_555
H5P C7P 1_555 1_555
H5J C7J 1_555 1_555
H5H C7H 1_555 1_555
H5B C7B 1_555 1_555
H5Q C7Q 1_555 1_555
H5N C7N 1_555 1_555
H5O C7O 1_555 1_555
H5M C7M 1_555 1_555
H5K C7K 1_555 1_555
H5L C7L 1_555 1_555
H5E C7E 1_555 1_555
C8L C2L 1_555 1_555
C8M C2M 1_555 1_555
C8N C2N 1_555 1_555
C8J C2J 1_555 1_555
C8P C2P 1_555 1_555
C8B C2B 1_555 1_555
C8H C2H 1_555 1_555
C8Q C2Q 1_555 1_555
C8O C2O 1_555 1_555
C8K C2K 1_555 1_555
C8E C2E 1_555 1_555
H6P C8P 1_555 1_555
H6J C8J 1_555 1_555
H6H C8H 1_555 1_555
H6B C8B 1_555 1_555
H6Q C8Q 1_555 1_555
H6N C8N 1_555 1_555
H6O C8O 1_555 1_555
H6M C8M 1_555 1_555
H6K C8K 1_555 1_555
H6L C8L 1_555 1_555
H6E C8E 1_555 1_555
C9P C7P 1_555 1_555
C9J C7J 1_555 1_555
C9H C7H 1_555 1_555
C9B C7B 1_555 1_555
C9Q C7Q 1_555 1_555
C9N C7N 1_555 1_555
C9O C7O 1_555 1_555
C9M C7M 1_555 1_555
C9K C7K 1_555 1_555
C9L C7L 1_555 1_555
C9E C10 1_555 1_555
H7P C9P 1_555 1_555
H7J C9J 1_555 1_555
H7H C9H 1_555 1_555
H7B C9B 1_555 1_555
H7Q C9Q 1_555 1_555
H7N C9N 1_555 1_555
H7O C9O 1_555 1_555
H7M C9M 1_555 1_555
H7K C9K 1_555 1_555
H7L C9L 1_555 1_555
H7E C9E 1_555 1_555
H8P C9P 1_555 1_555
H8J C9J 1_555 1_555
H8H C9H 1_555 1_555
H8B C9B 1_555 1_555
H8Q C9Q 1_555 1_555
H8N C9N 1_555 1_555
H8O C9O 1_555 1_555
H8M C9M 1_555 1_555
H8K C9K 1_555 1_555
H8L C9L 1_555 1_555
H8E C9E 1_555 1_555
C10P C9P 1_555 1_555
C10J C9P 1_555 1_555
C10H C9H 1_555 1_555
C10B C9H 1_555 1_555
C10Q C9Q 1_555 1_555
C10N C9Q 1_555 1_555
C10O C9O 1_555 1_555
C10M C9O 1_555 1_555
C10K C9K 1_555 1_555
C10L C9K 1_555 1_555
C10E C9 1_555 1_555
Cl1VB C11VB 1_555 1_555
C11VB H11VB 1_555 1_555
H12VB C11VB 1_555 1_555
Cl2VB Cl2 1_555 1_555
C4 C8 1_555 1_555
C5 C6 1_555 1_555
C10 C10E 1_555 1_555
N2E C7E 1_555 1_555
C4L C8L 1_555 1_555
C4M C8M 1_555 1_555
C4N C8N 1_555 1_555
C4J C8J 1_555 1_555
C4P C8P 1_555 1_555
C4B C8B 1_555 1_555
C4H C8H 1_555 1_555
C4Q C8Q 1_555 1_555
C4O C8O 1_555 1_555
C4K C8K 1_555 1_555
C4E C8E 1_555 1_555
C5E C6E 1_555 1_555
C5K C6K 1_555 1_555
C5O C6O 1_555 1_555
C5Q C6Q 1_555 1_555
C5P C6P 1_555 1_555
C5J C6J 1_555 1_555
C5H C6H 1_555 1_555
C5B C6B 1_555 1_555
C5N C6N 1_555 1_555
C5M C6M 1_555 1_555
C5L C6L 1_555 1_555
C7E C9E 1_555 1_555
C7L C7K 1_555 1_555
C7M C7O 1_555 1_555
C7N C7Q 1_555 1_555
C7J C7P 1_555 1_555
C7B C7H 1_555 1_555
C9J C10P 1_555 1_555
C9J C10J 1_555 1_555
C9B C10H 1_555 1_555
C9B C10B 1_555 1_555
C9N C10Q 1_555 1_555
C9N C10N 1_555 1_555
C9M C10O 1_555 1_555
C9M C10M 1_555 1_555
C9L C10K 1_555 1_555
C9L C10L 1_555 1_555
C9E C10E 1_555 1_555
C10P C10J 1_555 1_555
C10H C10B 1_555 1_555
C10Q C10N 1_555 1_555
C10O C10M 1_555 1_555
C10K C10L 1_555 1_555
C11VB Cl2VB 1_555 1_555

#END
