
#######################################################################
#
#                 Cambridge Crystallographic Data Centre
#                                CCDC 
#
#######################################################################
#
# If this CIF has been generated from an entry in the Cambridge 
# Structural Database, then it will include bibliographic, chemical, 
# crystal, experimental, refinement or atomic coordinate data resulting 
# from the CCDC's data processing and validation procedures.
#
#######################################################################

data_UTEWAT
_chemical_compound_source        'roots of Sophora flavescens'
_chemical_name_common            'flavesine A dihydrate'
_chemical_formula_moiety         'C30 H48 N4 O2,2(H2 O1)'
_chemical_name_systematic        
'9-(3-(8-oxododecahydro-1H-pyrido[2,1-f][1,6]naphthyridin-5-yl)propyl)matridin-15-one dihydrate'
_chemical_properties_biological  
'tested for inhibitory activity against hepatitis B virus'
_symmetry_cell_setting           monoclinic
_symmetry_space_group_name_H-M   'P 21'
_symmetry_Int_Tables_number      4
_space_group_name_Hall           'P 2yb'
loop_
_symmetry_equiv_pos_site_id
_symmetry_equiv_pos_as_xyz
1 x,y,z
2 -x,1/2+y,-z
_cell_length_a                   8.6676(2)
_cell_length_b                   19.3296(4)
_cell_length_c                   9.4016(3)
_cell_angle_alpha                90
_cell_angle_beta                 111.219(3)
_cell_angle_gamma                90
_cell_volume                     1468.37
_exptl_crystal_colour            colorless
_cell_formula_units_Z            2
loop_
_atom_site_label
_atom_site_type_symbol
_atom_site_fract_x
_atom_site_fract_y
_atom_site_fract_z
N1 N -0.33268(17) -0.00890(8) -0.02036(16)
N2 N -0.03378(17) 0.19088(8) -0.79123(16)
N3 N -0.69450(17) -0.09532(8) -0.29080(16)
O1 O -0.92993(15) -0.15477(7) -0.32430(15)
O2 O -0.31374(15) 0.19447(8) -0.88882(15)
C1 C 0.1324(2) 0.20739(9) -0.79351(19)
H1 H 0.1782 0.2472 -0.7227
N4 N 0.33857(17) 0.17580(8) -0.45915(17)
H2 H 0.341(2) 0.1615(11) -0.362(2)
C2 C 0.2527(2) 0.12273(9) -0.5729(2)
H3 H 0.3171 0.0787 -0.5446
C3 C -0.3941(2) -0.09113(9) -0.23688(19)
H4 H -0.3924 -0.1420 -0.2557
C4 C -0.3614(2) -0.08224(9) -0.06601(19)
H5 H -0.2589 -0.1087 -0.0075
C5 C -0.1916(2) 0.01856(10) -0.0539(2)
H6 H -0.0913 -0.0082 0.0044
H7 H -0.1725 0.0672 -0.0191
C6 C -0.2177(2) 0.01550(9) -0.2226(2)
H8 H -0.3164 0.0443 -0.2804
C7 C -0.0343(2) 0.17110(9) -0.64107(19)
H9 H -0.1488 0.1596 -0.6502
H10 H 0.0029 0.2109 -0.5706
C8 C 0.0776(2) 0.10932(9) -0.5739(2)
H11 H 0.0314 0.0688 -0.6424
C9 C -0.5044(2) -0.11245(10) -0.0269(2)
H12 H -0.5075 -0.1634 -0.0459
C10 C -0.8598(2) -0.13901(10) -0.5455(2)
H13 H -0.9804 -0.1392 -0.6044
H14 H -0.8148 -0.1842 -0.5617
C11 C -0.5666(2) -0.06461(9) -0.34118(19)
H15 H -0.5689 -0.0133 -0.3280
C12 C -0.1793(2) 0.20673(10) -0.9027(2)
C13 C -0.2524(2) -0.05937(9) -0.2765(2)
H16 H -0.1509 -0.0872 -0.2284
H17 H -0.2812 -0.0611 -0.3884
C14 C -0.2974(2) -0.00086(11) 0.1443(2)
H18 H -0.2764 0.0486 0.1724
H19 H -0.1961 -0.0272 0.2023
C15 C 0.0785(2) 0.09052(10) -0.4159(2)
H20 H 0.0991 0.1332 -0.3536
H21 H 0.1725 0.0588 -0.3669
C16 C 0.5099(2) 0.18696(10) -0.4499(2)
H22 H 0.5738 0.1436 -0.4172
H23 H 0.5624 0.2230 -0.3727
C17 C -0.0788(2) 0.05653(10) -0.4111(2)
H24 H -0.1754 0.0863 -0.4647
H25 H -0.0958 0.0114 -0.4644
C18 C -0.8308(2) -0.13080(9) -0.3782(2)
C19 C -0.0659(2) 0.04561(10) -0.2467(2)
H26 H -0.0401 0.0907 -0.1935
H27 H 0.0291 0.0145 -0.1965
C20 C 0.1261(2) 0.22846(11) -0.9512(2)
H28 H 0.2309 0.2518 -0.9423
H29 H 0.1152 0.1866 -1.0148
C21 C -0.5968(2) -0.07921(10) -0.5083(2)
H30 H -0.5432 -0.0427 -0.5481
H31 H -0.5450 -0.1240 -0.5165
C22 C -0.6687(2) -0.08231(10) -0.1309(2)
H32 H -0.7600 -0.1034 -0.1062
H33 H -0.6698 -0.0318 -0.1134
C23 C 0.2466(2) 0.14460(9) -0.7319(2)
H34 H 0.1997 0.1050 -0.8028
C24 C -0.1776(2) 0.23838(11) -1.0480(2)
H35 H -0.2716 0.2710 -1.0877
H36 H -0.1938 0.2014 -1.1248
C25 C -0.4392(3) -0.02626(12) 0.1881(2)
H37 H -0.5386 0.0023 0.1366
H38 H -0.4098 -0.0215 0.2996
C26 C -0.7798(2) -0.08186(11) -0.6052(2)
H39 H -0.8324 -0.0369 -0.6001
H40 H -0.7946 -0.0910 -0.7130
C27 C 0.4239(2) 0.15676(10) -0.7261(2)
H41 H 0.4854 0.1124 -0.7048
H42 H 0.4205 0.1738 -0.8265
C28 C -0.4772(3) -0.10154(11) 0.1422(2)
H43 H -0.5777 -0.1159 0.1611
H44 H -0.3841 -0.1309 0.2057
C29 C 0.5138(2) 0.20924(10) -0.6031(2)
H45 H 0.6302 0.2135 -0.5962
H46 H 0.4604 0.2551 -0.6307
C30 C -0.0181(3) 0.27672(11) -1.0283(2)
H47 H -0.0175 0.2913 -1.1291
H48 H -0.0091 0.3186 -0.9651
O3 O -1.25389(18) -0.17954(8) -0.53702(17)
H49 H -1.1595 -0.1683 -0.4731
H50 H -1.2629 -0.2234 -0.5403
O4 O -0.54553(18) 0.11604(9) -1.12879(16)
H51 H -0.5014 0.0764 -1.1047
H52 H -0.4963 0.1449 -1.0588
loop_
_geom_bond_atom_site_label_1
_geom_bond_atom_site_label_2
_geom_bond_site_symmetry_1
_geom_bond_site_symmetry_2
N1 C4 1_555 1_555
N2 C1 1_555 1_555
N3 C11 1_555 1_555
O1 C18 1_555 1_555
O2 C12 1_555 1_555
C1 H1 1_555 1_555
N4 H2 1_555 1_555
C2 N4 1_555 1_555
H3 C2 1_555 1_555
C3 H4 1_555 1_555
C4 C3 1_555 1_555
H5 C4 1_555 1_555
C5 N1 1_555 1_555
H6 C5 1_555 1_555
H7 C5 1_555 1_555
C6 C5 1_555 1_555
H8 C6 1_555 1_555
C7 N2 1_555 1_555
H9 C7 1_555 1_555
H10 C7 1_555 1_555
C8 C2 1_555 1_555
H11 C8 1_555 1_555
C9 C4 1_555 1_555
H12 C9 1_555 1_555
C10 H13 1_555 1_555
H14 C10 1_555 1_555
C11 C3 1_555 1_555
H15 C11 1_555 1_555
C12 N2 1_555 1_555
C13 C3 1_555 1_555
H16 C13 1_555 1_555
H17 C13 1_555 1_555
C14 N1 1_555 1_555
H18 C14 1_555 1_555
H19 C14 1_555 1_555
C15 C8 1_555 1_555
H20 C15 1_555 1_555
H21 C15 1_555 1_555
C16 N4 1_555 1_555
H22 C16 1_555 1_555
H23 C16 1_555 1_555
C17 C15 1_555 1_555
H24 C17 1_555 1_555
H25 C17 1_555 1_555
C18 N3 1_555 1_555
C19 C6 1_555 1_555
H26 C19 1_555 1_555
H27 C19 1_555 1_555
C20 C1 1_555 1_555
H28 C20 1_555 1_555
H29 C20 1_555 1_555
C21 C11 1_555 1_555
H30 C21 1_555 1_555
H31 C21 1_555 1_555
C22 N3 1_555 1_555
H32 C22 1_555 1_555
H33 C22 1_555 1_555
C23 C1 1_555 1_555
H34 C23 1_555 1_555
C24 C12 1_555 1_555
H35 C24 1_555 1_555
H36 C24 1_555 1_555
C25 C14 1_555 1_555
H37 C25 1_555 1_555
H38 C25 1_555 1_555
C26 C10 1_555 1_555
H39 C26 1_555 1_555
H40 C26 1_555 1_555
C27 C23 1_555 1_555
H41 C27 1_555 1_555
H42 C27 1_555 1_555
C28 C9 1_555 1_555
H43 C28 1_555 1_555
H44 C28 1_555 1_555
C29 C16 1_555 1_555
H45 C29 1_555 1_555
H46 C29 1_555 1_555
C30 C20 1_555 1_555
H47 C30 1_555 1_555
H48 C30 1_555 1_555
O3 H49 1_555 1_555
H50 O3 1_555 1_555
O4 H51 1_555 1_555
H52 O4 1_555 1_555
C2 C23 1_555 1_555
C6 C13 1_555 1_555
C7 C8 1_555 1_555
C9 C22 1_555 1_555
C10 C18 1_555 1_555
C17 C19 1_555 1_555
C21 C26 1_555 1_555
C24 C30 1_555 1_555
C25 C28 1_555 1_555
C27 C29 1_555 1_555

#END
