
#######################################################################
#
#                 Cambridge Crystallographic Data Centre
#                                CCDC 
#
#######################################################################
#
# If this CIF has been generated from an entry in the Cambridge 
# Structural Database, then it will include bibliographic, chemical, 
# crystal, experimental, refinement or atomic coordinate data resulting 
# from the CCDC's data processing and validation procedures.
#
#######################################################################

data_UTEXAU
_chemical_formula_moiety         'C27 H25 N2 O1 S1 1+,I1 1-'
_chemical_name_systematic        
'2-(2-(4-methoxyphenyl)-1-(3-methyl-1,3-benzothiazol-2(3H)-ylidene)ethyl)-1-methylquinolinium iodide'
_symmetry_cell_setting           triclinic
_symmetry_space_group_name_H-M   'P -1'
_symmetry_Int_Tables_number      2
_space_group_name_Hall           '-P 1'
loop_
_symmetry_equiv_pos_site_id
_symmetry_equiv_pos_as_xyz
1 x,y,z
2 -x,-y,-z
_cell_length_a                   10.4816(19)
_cell_length_b                   10.7583(19)
_cell_length_c                   11.772(2)
_cell_angle_alpha                76.108(3)
_cell_angle_beta                 80.965(3)
_cell_angle_gamma                79.204(3)
_cell_volume                     1257.05
_exptl_crystal_colour            purple
_exptl_crystal_description       block
_cell_formula_units_Z            2
loop_
_atom_site_label
_atom_site_type_symbol
_atom_site_fract_x
_atom_site_fract_y
_atom_site_fract_z
I1 I 0.35046(4) 0.32526(4) 0.83614(4)
S1 S 0.6501(2) 0.75017(18) 0.78522(17)
N1 N 0.6215(4) 0.9961(5) 0.7251(4)
N2 N 0.7702(3) 1.0807(4) 0.9076(3)
O1 O 1.1557(5) 0.6513(5) 0.3774(4)
C1 C 0.5120(7) 0.8298(8) 0.7205(6)
C2 C 0.4078(9) 0.7823(11) 0.6944(8)
H1 H 0.4067 0.6934 0.7132
C3 C 0.3119(11) 0.8600(16) 0.6443(10)
H2 H 0.2459 0.8256 0.6239
C4 C 0.3068(7) 0.9943(15) 0.6206(8)
H3 H 0.2352 1.0483 0.5884
C5 C 0.4093(6) 1.0490(9) 0.6452(6)
H4 H 0.4082 1.1381 0.6286
C6 C 0.5090(5) 0.9647(7) 0.6942(5)
C7 C 0.7056(5) 0.8961(5) 0.7762(4)
C8 C 0.8269(5) 0.8966(5) 0.8123(4)
C9 C 0.8584(4) 1.0028(5) 0.8485(4)
C10 C 0.9922(4) 1.0310(6) 0.8286(4)
H5 H 1.0582 0.9734 0.7978
C11 C 1.0212(5) 1.1262(7) 0.8505(5)
H6 H 1.1085 1.1377 0.8367
C12 C 0.9260(5) 1.2217(5) 0.8968(4)
C13 C 0.9542(6) 1.3376(6) 0.9148(5)
H7 H 1.0387 1.3574 0.8944
C14 C 0.8588(7) 1.4209(6) 0.9620(5)
H8 H 0.8795 1.4956 0.9766
C15 C 0.7314(7) 1.3968(6) 0.9886(5)
H9 H 0.6668 1.4558 1.0194
C16 C 0.7001(6) 1.2851(5) 0.9695(5)
H10 H 0.6142 1.2692 0.9861
C17 C 0.7983(5) 1.1958(5) 0.9251(4)
C18 C 0.6456(5) 1.0387(6) 0.9671(5)
H11 H 0.5748 1.0897 0.9258
H12 H 0.6326 1.0502 1.0467
H13 H 0.6485 0.9489 0.9675
C19 C 0.6516(5) 1.1272(6) 0.6783(5)
H14 H 0.6111 1.1814 0.7321
H15 H 0.6188 1.1615 0.6035
H16 H 0.7446 1.1250 0.6686
C20 C 0.9248(6) 0.7757(5) 0.8159(4)
H17 H 0.8828 0.7034 0.8615
H18 H 0.9948 0.7822 0.8581
C21 C 0.9857(5) 0.7438(4) 0.6978(4)
C22 C 1.0713(6) 0.6276(5) 0.6978(5)
H19 H 1.0885 0.5715 0.7691
C23 C 1.1313(7) 0.5945(6) 0.5932(6)
H20 H 1.1908 0.5184 0.5947
C24 C 1.1028(6) 0.6741(5) 0.4873(5)
C25 C 1.0228(6) 0.7897(6) 0.4867(5)
H21 H 1.0065 0.8462 0.4153
C26 C 0.9660(5) 0.8231(5) 0.5906(4)
H22 H 0.9123 0.9028 0.5879
C27 C 1.2347(11) 0.5306(8) 0.3726(8)
H23 H 1.3150 0.5261 0.4040
H24 H 1.2535 0.5215 0.2922
H25 H 1.1892 0.4620 0.4182
loop_
_geom_bond_atom_site_label_1
_geom_bond_atom_site_label_2
_geom_bond_site_symmetry_1
_geom_bond_site_symmetry_2
S1 C1 1_555 1_555
N1 C6 1_555 1_555
N2 C9 1_555 1_555
O1 C24 1_555 1_555
C1 C2 1_555 1_555
C2 H1 1_555 1_555
C3 C2 1_555 1_555
H2 C3 1_555 1_555
C4 C3 1_555 1_555
H3 C4 1_555 1_555
C5 C4 1_555 1_555
H4 C5 1_555 1_555
C6 C1 1_555 1_555
C7 S1 1_555 1_555
C8 C7 1_555 1_555
C9 C8 1_555 1_555
C10 C9 1_555 1_555
H5 C10 1_555 1_555
C11 C10 1_555 1_555
H6 C11 1_555 1_555
C12 C11 1_555 1_555
C13 C12 1_555 1_555
H7 C13 1_555 1_555
C14 C13 1_555 1_555
H8 C14 1_555 1_555
C15 C14 1_555 1_555
H9 C15 1_555 1_555
C16 C15 1_555 1_555
H10 C16 1_555 1_555
C17 N2 1_555 1_555
C18 N2 1_555 1_555
H11 C18 1_555 1_555
H12 C18 1_555 1_555
H13 C18 1_555 1_555
C19 N1 1_555 1_555
H14 C19 1_555 1_555
H15 C19 1_555 1_555
H16 C19 1_555 1_555
C20 C8 1_555 1_555
H17 C20 1_555 1_555
H18 C20 1_555 1_555
C21 C20 1_555 1_555
C22 C21 1_555 1_555
H19 C22 1_555 1_555
C23 C22 1_555 1_555
H20 C23 1_555 1_555
C24 C23 1_555 1_555
C25 C24 1_555 1_555
H21 C25 1_555 1_555
C26 C21 1_555 1_555
H22 C26 1_555 1_555
C27 O1 1_555 1_555
H23 C27 1_555 1_555
H24 C27 1_555 1_555
H25 C27 1_555 1_555
N1 C7 1_555 1_555
C5 C6 1_555 1_555
C12 C17 1_555 1_555
C16 C17 1_555 1_555
C25 C26 1_555 1_555

#END
