
#######################################################################
#
#                 Cambridge Crystallographic Data Centre
#                                CCDC 
#
#######################################################################
#
# If this CIF has been generated from an entry in the Cambridge 
# Structural Database, then it will include bibliographic, chemical, 
# crystal, experimental, refinement or atomic coordinate data resulting 
# from the CCDC's data processing and validation procedures.
#
#######################################################################

data_UTEXIC
_chemical_formula_moiety         'C27 H25 N2 S1 1+,I1 1-,C1 H2 Cl2'
_chemical_name_systematic        
'3-methyl-2-(2-(4-methylphenyl)-1-(1-methylquinolin-4(1H)-ylidene)ethyl)-1,3-benzothiazol-3-ium iodide dichloromethane solvate'
_symmetry_cell_setting           monoclinic
_symmetry_space_group_name_H-M   'P 21/n'
_symmetry_Int_Tables_number      14
_space_group_name_Hall           '-P 2yn'
loop_
_symmetry_equiv_pos_site_id
_symmetry_equiv_pos_as_xyz
1 x,y,z
2 1/2-x,1/2+y,1/2-z
3 -x,-y,-z
4 1/2+x,1/2-y,1/2+z
_cell_length_a                   13.461(3)
_cell_length_b                   12.271(3)
_cell_length_c                   17.054(4)
_cell_angle_alpha                90
_cell_angle_beta                 100.338(4)
_cell_angle_gamma                90
_cell_volume                     2771.25
_exptl_crystal_colour            colorless
_exptl_crystal_description       block
_cell_formula_units_Z            4
loop_
_atom_site_label
_atom_site_type_symbol
_atom_site_fract_x
_atom_site_fract_y
_atom_site_fract_z
C1 C 0.1806(9) 0.5531(10) -0.0231(7)
H1 H 0.1603 0.5666 -0.0791
H2 H 0.2506 0.5715 -0.0070
H3 H 0.1406 0.5968 0.0061
C2 C 0.2201(8) 0.3529(11) -0.0331(6)
H4 H 0.2671 0.3713 -0.0648
C3 C 0.1654(8) 0.4344(9) -0.0062(6)
C4 C 0.1004(8) 0.4033(10) 0.0415(6)
H5 H 0.0623 0.4563 0.0615
C5 C 0.0888(7) 0.2961(10) 0.0614(5)
H6 H 0.0433 0.2786 0.0945
C6 C 0.1428(7) 0.2142(9) 0.0334(5)
C7 C 0.2085(7) 0.2442(10) -0.0151(5)
H7 H 0.2457 0.1913 -0.0361
C8 C 0.1646(6) 0.0816(8) 0.1442(5)
C9 C 0.2657(7) 0.1089(7) 0.1764(5)
C10 C 0.3424(7) 0.0928(8) 0.1317(5)
H8 H 0.3247 0.0662 0.0800
C11 C 0.4376(8) 0.1134(8) 0.1593(5)
H9 H 0.4844 0.1012 0.1262
C12 C 0.4039(7) 0.1869(8) 0.2859(6)
C13 C 0.3010(7) 0.1656(7) 0.2536(5)
C14 C 0.2317(7) 0.2151(8) 0.3009(6)
H10 H 0.1626 0.2101 0.2820
C15 C 0.2645(9) 0.2686(8) 0.3718(5)
H11 H 0.2168 0.2967 0.3995
C16 C 0.3621(9) 0.2813(9) 0.4020(6)
H12 H 0.3824 0.3164 0.4505
C17 C 0.4320(8) 0.2417(9) 0.3599(5)
H13 H 0.5003 0.2509 0.3806
C18 C 0.5821(7) 0.1606(9) 0.2709(6)
H14 H 0.5977 0.2329 0.2910
H15 H 0.6209 0.1448 0.2303
H16 H 0.5985 0.1090 0.3136
C19 C 0.0946(7) 0.0416(7) 0.1870(5)
C20 C 0.2092(7) -0.0485(8) 0.3048(6)
H17 H 0.2556 -0.0533 0.2683
H18 H 0.2015 -0.1191 0.3272
H19 H 0.2349 0.0018 0.3467
C21 C 0.0251(8) -0.0439(8) 0.2929(7)
C22 C 0.0211(10) -0.0960(9) 0.3664(6)
H20 H 0.0806 -0.1116 0.4016
C23 C -0.0673(12) -0.1227(13) 0.3852(9)
H21 H -0.0711 -0.1530 0.4346
C24 C -0.1511(13) -0.1048(10) 0.3311(9)
H22 H -0.2118 -0.1295 0.3435
C25 C -0.1559(8) -0.0497(9) 0.2540(8)
H23 H -0.2163 -0.0358 0.2194
C26 C -0.0614(8) -0.0200(8) 0.2372(6)
C27 C 0.1311(7) 0.0970(8) 0.0561(5)
H24 H 0.0609 0.0755 0.0410
H25 H 0.1712 0.0510 0.0275
N1 N 0.1115(6) -0.0104(6) 0.2626(5)
N2 N 0.4725(5) 0.1532(7) 0.2367(5)
S1 S -0.03459(18) 0.0446(2) 0.15151(15)
C28 C 0.9674(12) 0.3368(13) 0.3799(9)
H26 H 1.0262 0.3704 0.4120
H27 H 0.9070 0.3674 0.3948
Cl1 Cl 0.9675(3) 0.3580(4) 0.2668(3)
Cl2 Cl 0.9703(4) 0.1984(4) 0.3917(3)
I1 I 0.68419(5) 0.08766(6) 0.06022(4)
loop_
_geom_bond_atom_site_label_1
_geom_bond_atom_site_label_2
_geom_bond_site_symmetry_1
_geom_bond_site_symmetry_2
C1 H1 1_555 1_555
H2 C1 1_555 1_555
H3 C1 1_555 1_555
C2 H4 1_555 1_555
C3 C1 1_555 1_555
C4 C3 1_555 1_555
H5 C4 1_555 1_555
C5 C4 1_555 1_555
H6 C5 1_555 1_555
C6 C5 1_555 1_555
C7 C2 1_555 1_555
H7 C7 1_555 1_555
C8 C9 1_555 1_555
C9 C10 1_555 1_555
C10 H8 1_555 1_555
C11 C10 1_555 1_555
H9 C11 1_555 1_555
C12 C13 1_555 1_555
C13 C9 1_555 1_555
C14 C13 1_555 1_555
H10 C14 1_555 1_555
C15 C14 1_555 1_555
H11 C15 1_555 1_555
C16 C15 1_555 1_555
H12 C16 1_555 1_555
C17 C12 1_555 1_555
H13 C17 1_555 1_555
C18 H14 1_555 1_555
H15 C18 1_555 1_555
H16 C18 1_555 1_555
C19 C8 1_555 1_555
C20 H17 1_555 1_555
H18 C20 1_555 1_555
H19 C20 1_555 1_555
C21 C22 1_555 1_555
C22 H20 1_555 1_555
C23 C22 1_555 1_555
H21 C23 1_555 1_555
C24 C23 1_555 1_555
H22 C24 1_555 1_555
C25 C24 1_555 1_555
H23 C25 1_555 1_555
C26 C21 1_555 1_555
C27 C6 1_555 1_555
H24 C27 1_555 1_555
H25 C27 1_555 1_555
N1 C19 1_555 1_555
N2 C11 1_555 1_555
S1 C19 1_555 1_555
C28 H26 1_555 1_555
H27 C28 1_555 1_555
Cl1 C28 1_555 1_555
Cl2 C28 1_555 1_555
C2 C3 1_555 1_555
C6 C7 1_555 1_555
C8 C27 1_555 1_555
C12 N2 1_555 1_555
C16 C17 1_555 1_555
C18 N2 1_555 1_555
C20 N1 1_555 1_555
C21 N1 1_555 1_555
C25 C26 1_555 1_555
C26 S1 1_555 1_555

#END
