
#######################################################################
#
#                 Cambridge Crystallographic Data Centre
#                                CCDC 
#
#######################################################################
#
# If this CIF has been generated from an entry in the Cambridge 
# Structural Database, then it will include bibliographic, chemical, 
# crystal, experimental, refinement or atomic coordinate data resulting 
# from the CCDC's data processing and validation procedures.
#
#######################################################################

data_UTIGOU
_chemical_formula_moiety         'C29 H25 N1 O5,C1 H2 Cl2'
_chemical_name_systematic        
'3-(Cyclohexylimino)-7-methyl-1-((6-methyl-4-oxo-4H-chromen-3-yl)methylene)-1,3-dihydro-9H-furo[3,4-b]chromen-9-one dichloromethane solvate'
_symmetry_cell_setting           triclinic
_symmetry_space_group_name_H-M   'P -1'
_symmetry_Int_Tables_number      2
_space_group_name_Hall           '-P 1'
loop_
_symmetry_equiv_pos_site_id
_symmetry_equiv_pos_as_xyz
1 x,y,z
2 -x,-y,-z
_cell_length_a                   8.9449(4)
_cell_length_b                   11.8775(6)
_cell_length_c                   13.9083(8)
_cell_angle_alpha                112.523(5)
_cell_angle_beta                 101.640(4)
_cell_angle_gamma                98.105(4)
_cell_volume                     1297.39
_exptl_crystal_colour            black
_exptl_crystal_description       needle
_cell_formula_units_Z            2
_exptl_crystal_recrystallization_method dichloromethane
loop_
_atom_site_label
_atom_site_type_symbol
_atom_site_fract_x
_atom_site_fract_y
_atom_site_fract_z
C1 C 0.4505(2) 0.77991(17) 0.44079(14)
H1 H 0.3678 0.8210 0.4267
H2 H 0.4813 0.7428 0.3747
Cl1 Cl 0.61341(5) 0.89224(4) 0.54421(4)
Cl2 Cl 0.37819(6) 0.66054(4) 0.47739(4)
C2 C 0.2719(2) 0.10612(16) 0.15625(13)
C3 C 0.3645(2) 0.12937(15) 0.09435(13)
H3 H 0.3763 0.0620 0.0364
C4 C 0.44125(19) 0.25142(15) 0.11620(12)
C5 C 0.53885(19) 0.27286(15) 0.04807(12)
C6 C 0.59867(18) 0.40550(14) 0.07909(12)
C7 C 0.69155(19) 0.47182(14) 0.03414(12)
O1 O 0.71594(13) 0.60113(10) 0.09646(8)
C8 C 0.64283(19) 0.61957(15) 0.17963(12)
C9 C 0.57129(19) 0.49393(14) 0.16560(12)
O2 O 0.49061(13) 0.47601(10) 0.23113(8)
C10 C 0.42205(19) 0.35075(14) 0.20357(12)
C11 C 0.3328(2) 0.33061(15) 0.26840(12)
H4 H 0.3231 0.3979 0.3274
C12 C 0.2585(2) 0.20981(15) 0.24447(13)
H5 H 0.1978 0.1962 0.2877
C13 C 0.1862(3) -0.02564(16) 0.12999(17)
H6 H 0.0752 -0.0360 0.1027
H7 H 0.2062 -0.0397 0.1944
H8 H 0.2225 -0.0850 0.0761
N1 N 0.63781(17) 0.72313(12) 0.24949(11)
C14 C 0.7122(2) 0.84141(15) 0.24883(13)
H9 H 0.7199 0.8258 0.1757
C15 C 0.8762(2) 0.89217(17) 0.32782(15)
H10 H 0.9423 0.8359 0.3015
H11 H 0.8702 0.8959 0.3978
C16 C 0.9491(2) 1.02270(17) 0.34058(17)
H12 H 1.0499 1.0556 0.3953
H13 H 0.9675 1.0167 0.2726
C17 C 0.8446(2) 1.11288(16) 0.37303(15)
H14 H 0.8334 1.1251 0.4441
H15 H 0.8928 1.1937 0.3772
C18 C 0.6839(2) 1.06132(15) 0.29105(14)
H16 H 0.6942 1.0545 0.2211
H17 H 0.6172 1.1184 0.3137
C19 C 0.6084(2) 0.93258(15) 0.28101(13)
H18 H 0.5911 0.9406 0.3498
H19 H 0.5070 0.8998 0.2269
C20 C 0.84270(18) 0.49272(14) -0.09551(12)
C21 C 0.8969(2) 0.61838(15) -0.05279(13)
H20 H 0.8703 0.6658 0.0092
O3 O 0.98647(14) 0.68142(10) -0.09225(9)
C22 C 1.02897(19) 0.61360(14) -0.18293(12)
C23 C 1.1224(2) 0.68131(15) -0.22020(13)
H21 H 1.1503 0.7686 -0.1863
C24 C 1.1733(2) 0.61709(16) -0.30843(13)
H22 H 1.2372 0.6622 -0.3331
C25 C 1.13119(19) 0.48537(16) -0.36209(12)
C26 C 1.03557(19) 0.42079(15) -0.32432(12)
H23 H 1.0049 0.3336 -0.3596
C27 C 0.98338(18) 0.48345(14) -0.23400(12)
C28 C 0.88469(19) 0.41339(15) -0.19281(12)
C29 C 1.1903(2) 0.41731(17) -0.45723(13)
H24 H 1.1335 0.4249 -0.5200
H25 H 1.1747 0.3302 -0.4713
H26 H 1.3004 0.4535 -0.4411
C30 C 0.74815(19) 0.42592(15) -0.05098(12)
H27 H 0.7238 0.3388 -0.0871
O4 O 0.56543(16) 0.18746(11) -0.02531(9)
O5 O 0.84189(15) 0.29864(10) -0.23511(9)
loop_
_geom_bond_atom_site_label_1
_geom_bond_atom_site_label_2
_geom_bond_site_symmetry_1
_geom_bond_site_symmetry_2
C1 H1 1_555 1_555
H2 C1 1_555 1_555
Cl1 C1 1_555 1_555
Cl2 C1 1_555 1_555
C2 C3 1_555 1_555
C3 H3 1_555 1_555
C4 C3 1_555 1_555
C5 C4 1_555 1_555
C6 C5 1_555 1_555
C7 C6 1_555 1_555
O1 C7 1_555 1_555
C8 O1 1_555 1_555
C9 C6 1_555 1_555
O2 C9 1_555 1_555
C10 C4 1_555 1_555
C11 C10 1_555 1_555
H4 C11 1_555 1_555
C12 C2 1_555 1_555
H5 C12 1_555 1_555
C13 C2 1_555 1_555
H6 C13 1_555 1_555
H7 C13 1_555 1_555
H8 C13 1_555 1_555
N1 C8 1_555 1_555
C14 N1 1_555 1_555
H9 C14 1_555 1_555
C15 C14 1_555 1_555
H10 C15 1_555 1_555
H11 C15 1_555 1_555
C16 C15 1_555 1_555
H12 C16 1_555 1_555
H13 C16 1_555 1_555
C17 C16 1_555 1_555
H14 C17 1_555 1_555
H15 C17 1_555 1_555
C18 C17 1_555 1_555
H16 C18 1_555 1_555
H17 C18 1_555 1_555
C19 C14 1_555 1_555
H18 C19 1_555 1_555
H19 C19 1_555 1_555
C20 C21 1_555 1_555
C21 H20 1_555 1_555
O3 C21 1_555 1_555
C22 O3 1_555 1_555
C23 C22 1_555 1_555
H21 C23 1_555 1_555
C24 C23 1_555 1_555
H22 C24 1_555 1_555
C25 C24 1_555 1_555
C26 C25 1_555 1_555
H23 C26 1_555 1_555
C27 C22 1_555 1_555
C28 C20 1_555 1_555
C29 C25 1_555 1_555
H24 C29 1_555 1_555
H25 C29 1_555 1_555
H26 C29 1_555 1_555
C30 C7 1_555 1_555
H27 C30 1_555 1_555
O4 C5 1_555 1_555
O5 C28 1_555 1_555
C8 C9 1_555 1_555
O2 C10 1_555 1_555
C11 C12 1_555 1_555
C18 C19 1_555 1_555
C20 C30 1_555 1_555
C26 C27 1_555 1_555
C27 C28 1_555 1_555

#END
