
#######################################################################
#
#                 Cambridge Crystallographic Data Centre
#                                CCDC 
#
#######################################################################
#
# If this CIF has been generated from an entry in the Cambridge 
# Structural Database, then it will include bibliographic, chemical, 
# crystal, experimental, refinement or atomic coordinate data resulting 
# from the CCDC's data processing and validation procedures.
#
#######################################################################

data_UTIGUA
_chemical_formula_moiety         'C30 H34 Cl2 N4 O4'
_chemical_name_systematic        
'bis(Cyclohexylmethyl) 3,6-bis(4-chlorophenyl)-1,2,4,5-tetrazine-1,2-dicarboxylate'
_symmetry_cell_setting           monoclinic
_symmetry_space_group_name_H-M   'P 2/n'
_symmetry_Int_Tables_number      13
_space_group_name_Hall           '-P 2yac'
loop_
_symmetry_equiv_pos_site_id
_symmetry_equiv_pos_as_xyz
1 x,y,z
2 1/2-x,y,1/2-z
3 -x,-y,-z
4 1/2+x,-y,1/2+z
_cell_length_a                   8.4130(18)
_cell_length_b                   14.814(3)
_cell_length_c                   24.181(4)
_cell_angle_alpha                90
_cell_angle_beta                 93.860(16)
_cell_angle_gamma                90
_cell_volume                     3006.85
_exptl_crystal_colour            colorless
_exptl_crystal_description       prismatic
_chemical_melting_point          '155-156 deg.C'
_cell_formula_units_Z            4
_exptl_crystal_recrystallization_method ethanol
loop_
_atom_site_label
_atom_site_type_symbol
_atom_site_fract_x
_atom_site_fract_y
_atom_site_fract_z
Cl1 Cl 0.8425(2) -0.09673(9) 0.92011(9)
Cl2 Cl 0.9994(3) 0.83435(10) 0.74566(8)
O1 O 0.5713(4) 0.4380(2) 0.87227(15)
O2 O 0.5544(3) 0.29047(19) 0.84966(16)
O3 O 0.9932(4) 0.3923(2) 0.94946(14)
O4 O 1.1099(3) 0.49410(19) 0.89699(11)
N1 N 0.7929(4) 0.3504(2) 0.86265(15)
N2 N 0.8889(4) 0.4278(2) 0.86211(15)
N3 N 0.9390(4) 0.3856(2) 0.77250(15)
N4 N 0.9429(4) 0.2969(2) 0.79190(16)
C1 C 0.8649(5) 0.1141(3) 0.8197(2)
H1 H 0.8763 0.1241 0.7822
C2 C 0.8607(6) 0.0276(3) 0.8394(3)
H2 H 0.8690 -0.0210 0.8154
C3 C 0.8443(6) 0.0129(3) 0.8947(3)
C4 C 0.8319(6) 0.0840(3) 0.9308(2)
H3 H 0.8219 0.0737 0.9683
C5 C 0.8347(5) 0.1706(3) 0.9103(2)
H4 H 0.8245 0.2190 0.9343
C6 C 0.8523(4) 0.1871(3) 0.8551(2)
C7 C 0.8613(5) 0.2788(3) 0.8336(2)
C8 C 0.9259(5) 0.4493(3) 0.80747(18)
C9 C 0.9397(5) 0.5441(3) 0.79187(18)
C10 C 1.0296(6) 0.5677(3) 0.74833(19)
H5 H 1.0779 0.5233 0.7281
C11 C 1.0473(7) 0.6574(3) 0.7350(2)
H6 H 1.1089 0.6734 0.7061
C12 C 0.9752(7) 0.7228(3) 0.7640(2)
C13 C 0.8849(6) 0.7003(3) 0.8069(2)
H7 H 0.8354 0.7453 0.8264
C14 C 0.8673(5) 0.6116(3) 0.82111(19)
H8 H 0.8066 0.5964 0.8505
C15 C 0.6270(5) 0.3669(3) 0.8615(2)
C16 C 0.3801(5) 0.2922(3) 0.8421(3)
H9 H 0.3466 0.3085 0.8043
H10 H 0.3370 0.3360 0.8669
C17 C 0.3227(5) 0.1999(3) 0.85491(19)
H11 H 0.2071 0.1995 0.8465
C18 C 0.3507(8) 0.1755(7) 0.9133(3)
H12 H 0.2909 0.2170 0.9350
H13 H 0.4627 0.1849 0.9239
C19 C 0.3071(15) 0.0785(10) 0.9299(4)
H14 H 0.3697 0.0599 0.9631
H15 H 0.1949 0.0743 0.9366
C20 C 0.3457(14) 0.0206(7) 0.8805(6)
H16 H 0.4569 0.0043 0.8875
H17 H 0.2860 -0.0347 0.8846
C21 C 0.3285(10) 0.0408(5) 0.8229(6)
H18 H 0.2175 0.0380 0.8093
H19 H 0.3891 -0.0013 0.8019
C22 C 0.3909(6) 0.1327(4) 0.8186(3)
H20 H 0.3722 0.1527 0.7805
H21 H 0.5053 0.1310 0.8269
C23 C 1.0017(5) 0.4344(3) 0.90792(19)
C24 C 1.2353(5) 0.5135(3) 0.94013(18)
H22 H 1.3132 0.4651 0.9425
H23 H 1.1905 0.5197 0.9759
C25 C 1.3115(5) 0.6003(3) 0.92389(18)
H24 H 1.3370 0.5951 0.8851
C26 C 1.4672(5) 0.6162(3) 0.9589(2)
H25 H 1.4456 0.6189 0.9978
H26 H 1.5393 0.5662 0.9539
C27 C 1.5446(6) 0.7033(3) 0.9423(2)
H27 H 1.6406 0.7133 0.9660
H28 H 1.5751 0.6982 0.9045
C28 C 1.4347(6) 0.7830(3) 0.9467(3)
H29 H 1.4135 0.7923 0.9852
H30 H 1.4863 0.8369 0.9338
C29 C 1.2796(6) 0.7688(3) 0.9130(2)
H31 H 1.2991 0.7677 0.8739
H32 H 1.2082 0.8186 0.9192
C30 C 1.2014(5) 0.6806(3) 0.9286(2)
H33 H 1.1700 0.6848 0.9664
H34 H 1.1058 0.6712 0.9046
loop_
_geom_bond_atom_site_label_1
_geom_bond_atom_site_label_2
_geom_bond_site_symmetry_1
_geom_bond_site_symmetry_2
Cl1 C3 1_555 1_555
Cl2 C12 1_555 1_555
O1 C15 1_555 1_555
O2 C15 1_555 1_555
O3 C23 1_555 1_555
O4 C23 1_555 1_555
N1 N2 1_555 1_555
N2 C8 1_555 1_555
N3 N4 1_555 1_555
N4 C7 1_555 1_555
C1 H1 1_555 1_555
C2 C1 1_555 1_555
H2 C2 1_555 1_555
C3 C2 1_555 1_555
C4 C3 1_555 1_555
H3 C4 1_555 1_555
C5 C4 1_555 1_555
H4 C5 1_555 1_555
C6 C1 1_555 1_555
C7 N1 1_555 1_555
C8 N3 1_555 1_555
C9 C8 1_555 1_555
C10 C9 1_555 1_555
H5 C10 1_555 1_555
C11 C10 1_555 1_555
H6 C11 1_555 1_555
C12 C11 1_555 1_555
C13 C12 1_555 1_555
H7 C13 1_555 1_555
C14 C9 1_555 1_555
H8 C14 1_555 1_555
C15 N1 1_555 1_555
C16 O2 1_555 1_555
H9 C16 1_555 1_555
H10 C16 1_555 1_555
C17 C16 1_555 1_555
H11 C17 1_555 1_555
C18 C17 1_555 1_555
H12 C18 1_555 1_555
H13 C18 1_555 1_555
C19 C18 1_555 1_555
H14 C19 1_555 1_555
H15 C19 1_555 1_555
C20 C19 1_555 1_555
H16 C20 1_555 1_555
H17 C20 1_555 1_555
C21 C20 1_555 1_555
H18 C21 1_555 1_555
H19 C21 1_555 1_555
C22 C17 1_555 1_555
H20 C22 1_555 1_555
H21 C22 1_555 1_555
C23 N2 1_555 1_555
C24 O4 1_555 1_555
H22 C24 1_555 1_555
H23 C24 1_555 1_555
C25 C24 1_555 1_555
H24 C25 1_555 1_555
C26 C25 1_555 1_555
H25 C26 1_555 1_555
H26 C26 1_555 1_555
C27 C26 1_555 1_555
H27 C27 1_555 1_555
H28 C27 1_555 1_555
C28 C27 1_555 1_555
H29 C28 1_555 1_555
H30 C28 1_555 1_555
C29 C28 1_555 1_555
H31 C29 1_555 1_555
H32 C29 1_555 1_555
C30 C25 1_555 1_555
H33 C30 1_555 1_555
H34 C30 1_555 1_555
C5 C6 1_555 1_555
C6 C7 1_555 1_555
C13 C14 1_555 1_555
C21 C22 1_555 1_555
C29 C30 1_555 1_555

#END
