
#######################################################################
#
#                 Cambridge Crystallographic Data Centre
#                                CCDC 
#
#######################################################################
#
# If this CIF has been generated from an entry in the Cambridge 
# Structural Database, then it will include bibliographic, chemical, 
# crystal, experimental, refinement or atomic coordinate data resulting 
# from the CCDC's data processing and validation procedures.
#
#######################################################################

data_UTIKIT
_chemical_formula_moiety         'C27 H21 N1 O2'
_chemical_name_systematic        
(2,4-dimethyl-6-phenylpyridine-3,5-diyl)bis(phenylmethanone)
_symmetry_cell_setting           triclinic
_symmetry_space_group_name_H-M   'P -1'
_symmetry_Int_Tables_number      2
_space_group_name_Hall           '-P 1'
loop_
_symmetry_equiv_pos_site_id
_symmetry_equiv_pos_as_xyz
1 x,y,z
2 -x,-y,-z
_cell_length_a                   8.3659(17)
_cell_length_b                   11.415(2)
_cell_length_c                   12.415(3)
_cell_angle_alpha                110.78(3)
_cell_angle_beta                 90.62(3)
_cell_angle_gamma                106.74(3)
_cell_volume                     1053
_exptl_crystal_colour            colorless
_exptl_crystal_description       platelet
_cell_formula_units_Z            2
loop_
_atom_site_label
_atom_site_type_symbol
_atom_site_fract_x
_atom_site_fract_y
_atom_site_fract_z
N1 N 0.3054(2) 0.56581(18) 0.56476(16)
O1 O 0.3011(3) 0.6749(3) 0.94895(19)
O2 O 0.3936(2) 0.99543(16) 0.62273(18)
C1 C 0.6288(4) 0.6894(3) 1.0236(2)
H1 H 0.5432 0.6503 1.0589
C2 C 0.7946(4) 0.7154(4) 1.0631(3)
H2 H 0.8205 0.6914 1.1237
C3 C 0.9198(4) 0.7754(4) 1.0145(3)
H3 H 1.0313 0.7936 1.0427
C4 C 0.8838(4) 0.8098(4) 0.9239(3)
H4 H 0.9705 0.8519 0.8913
C5 C 0.7182(3) 0.7816(3) 0.8815(3)
H5 H 0.6934 0.8031 0.8190
C6 C 0.5898(3) 0.7218(2) 0.9312(2)
C7 C -0.0416(3) 0.8138(3) 0.6073(2)
H6 H -0.0324 0.7308 0.5945
C8 C -0.1995(3) 0.8315(3) 0.6081(2)
H7 H -0.2961 0.7601 0.5942
C9 C -0.2120(4) 0.9552(4) 0.6296(3)
H8 H -0.3173 0.9674 0.6314
C10 C -0.0702(4) 1.0606(3) 0.6483(3)
H9 H -0.0798 1.1439 0.6629
C11 C 0.0856(3) 1.0435(2) 0.6456(2)
H10 H 0.1812 1.1150 0.6573
C12 C 0.1010(3) 0.9194(2) 0.62533(19)
C13 C 0.1165(3) 0.5460(2) 0.3535(2)
H11 H 0.0498 0.4872 0.3834
C14 C 0.0849(3) 0.5255(3) 0.2381(2)
H12 H -0.0041 0.4539 0.1910
C15 C 0.1837(3) 0.6100(3) 0.1919(2)
H13 H 0.1629 0.5953 0.1137
C16 C 0.3134(3) 0.7166(2) 0.2624(2)
H14 H 0.3812 0.7737 0.2314
C17 C 0.3440(3) 0.7396(2) 0.3786(2)
H15 H 0.4303 0.8135 0.4259
C18 C 0.2469(2) 0.6535(2) 0.42564(18)
C19 C 0.4114(3) 0.6947(3) 0.8892(2)
C20 C 0.2725(3) 0.9072(2) 0.62614(19)
C21 C 0.3474(3) 0.5764(2) 0.6733(2)
C22 C 0.3672(3) 0.6911(2) 0.7695(2)
C23 C 0.3416(3) 0.8003(2) 0.75516(19)
C24 C 0.2990(2) 0.78860(19) 0.64151(18)
C25 C 0.2851(2) 0.67208(19) 0.54908(18)
C26 C 0.3695(5) 0.4545(3) 0.6842(3)
H16 H 0.3507 0.3863 0.6085
H17 H 0.2901 0.4252 0.7317
H18 H 0.4818 0.4745 0.7194
C27 C 0.3610(4) 0.9263(3) 0.8562(2)
H19 H 0.3902 0.9165 0.9269
H20 H 0.2569 0.9464 0.8596
H21 H 0.4482 0.9967 0.8469
loop_
_geom_bond_atom_site_label_1
_geom_bond_atom_site_label_2
_geom_bond_site_symmetry_1
_geom_bond_site_symmetry_2
N1 C21 1_555 1_555
O1 C19 1_555 1_555
O2 C20 1_555 1_555
C1 H1 1_555 1_555
C2 C1 1_555 1_555
H2 C2 1_555 1_555
C3 C2 1_555 1_555
H3 C3 1_555 1_555
C4 C3 1_555 1_555
H4 C4 1_555 1_555
C5 C4 1_555 1_555
H5 C5 1_555 1_555
C6 C1 1_555 1_555
C7 H6 1_555 1_555
C8 C7 1_555 1_555
H7 C8 1_555 1_555
C9 C8 1_555 1_555
H8 C9 1_555 1_555
C10 C9 1_555 1_555
H9 C10 1_555 1_555
C11 C10 1_555 1_555
H10 C11 1_555 1_555
C12 C7 1_555 1_555
C13 H11 1_555 1_555
C14 C13 1_555 1_555
H12 C14 1_555 1_555
C15 C14 1_555 1_555
H13 C15 1_555 1_555
C16 C15 1_555 1_555
H14 C16 1_555 1_555
C17 C16 1_555 1_555
H15 C17 1_555 1_555
C18 C13 1_555 1_555
C19 C6 1_555 1_555
C20 C12 1_555 1_555
C21 C22 1_555 1_555
C22 C19 1_555 1_555
C23 C22 1_555 1_555
C24 C20 1_555 1_555
C25 N1 1_555 1_555
C26 C21 1_555 1_555
H16 C26 1_555 1_555
H17 C26 1_555 1_555
H18 C26 1_555 1_555
C27 C23 1_555 1_555
H19 C27 1_555 1_555
H20 C27 1_555 1_555
H21 C27 1_555 1_555
C5 C6 1_555 1_555
C11 C12 1_555 1_555
C17 C18 1_555 1_555
C18 C25 1_555 1_555
C23 C24 1_555 1_555
C24 C25 1_555 1_555

#END
