
#######################################################################
#
#                 Cambridge Crystallographic Data Centre
#                                CCDC 
#
#######################################################################
#
# If this CIF has been generated from an entry in the Cambridge 
# Structural Database, then it will include bibliographic, chemical, 
# crystal, experimental, refinement or atomic coordinate data resulting 
# from the CCDC's data processing and validation procedures.
#
#######################################################################

data_UTITAT
_chemical_formula_moiety         'C16 H12 N2'
_chemical_name_systematic        6-Methylindolo[1,2-c]quinazoline
_symmetry_cell_setting           monoclinic
_symmetry_space_group_name_H-M   'C c'
_symmetry_Int_Tables_number      9
_space_group_name_Hall           'C -2yc'
loop_
_symmetry_equiv_pos_site_id
_symmetry_equiv_pos_as_xyz
1 x,y,z
2 x,-y,1/2+z
3 1/2+x,1/2+y,z
4 1/2+x,1/2-y,1/2+z
_cell_length_a                   26.953(5)
_cell_length_b                   4.874(1)
_cell_length_c                   19.186(4)
_cell_angle_alpha                90
_cell_angle_beta                 111.59(3)
_cell_angle_gamma                90
_cell_volume                     2343.61
_exptl_crystal_colour            'pale yellow'
_chemical_melting_point          '113-115 deg.C'
_cell_formula_units_Z            8
loop_
_atom_site_label
_atom_site_type_symbol
_atom_site_fract_x
_atom_site_fract_y
_atom_site_fract_z
C1 C 0.1113(2) 0.5328(12) 0.5110(3)
N1 N 0.15602(18) 0.6880(11) 0.5137(3)
N2 N 0.10421(16) 0.8975(9) 0.3990(2)
C2 C 0.1176(3) 0.3564(13) 0.5699(4)
H1 H 0.1504 0.3456 0.6094
C3 C 0.0757(3) 0.1959(13) 0.5707(4)
H2 H 0.0802 0.0784 0.6108
C4 C 0.0264(3) 0.2096(13) 0.5113(4)
H3 H -0.0018 0.1000 0.5115
C5 C 0.0198(2) 0.3857(12) 0.4526(3)
H4 H -0.0131 0.3952 0.4132
C6 C 0.0630(2) 0.5545(12) 0.4517(3)
C7 C 0.0582(2) 0.7375(11) 0.3918(3)
C8 C 0.0196(2) 0.8020(11) 0.3261(3)
H5 H -0.0145 0.7265 0.3080
C9 C 0.0385(2) 1.0024(10) 0.2884(3)
C10 C 0.0164(2) 1.1356(12) 0.2198(3)
H6 H -0.0183 1.0957 0.1880
C11 C 0.0461(3) 1.3274(14) 0.1992(4)
H7 H 0.0316 1.4143 0.1529
C12 C 0.0979(3) 1.3914(13) 0.2476(4)
H8 H 0.1169 1.5266 0.2338
C13 C 0.1214(2) 1.2591(13) 0.3148(4)
H9 H 0.1562 1.3001 0.3457
C14 C 0.0926(2) 1.0645(12) 0.3361(3)
C15 C 0.1513(2) 0.8597(12) 0.4592(3)
C16 C 0.1995(2) 1.0095(15) 0.4627(4)
H10 H 0.2287 0.9591 0.5076
H11 H 0.1932 1.2033 0.4631
H12 H 0.2081 0.9640 0.4198
N3 N 0.25904(19) 0.7314(11) 0.3118(3)
N4 N 0.31044(16) 0.9269(10) 0.2483(2)
C17 C 0.3018(2) 0.5682(13) 0.3527(3)
C18 C 0.2958(3) 0.3869(14) 0.4052(3)
H13 H 0.2634 0.3802 0.4118
C19 C 0.3368(3) 0.2166(15) 0.4479(4)
H14 H 0.3324 0.1001 0.4836
C20 C 0.3845(3) 0.2237(13) 0.4362(3)
H15 H 0.4120 0.1062 0.4634
C21 C 0.3922(3) 0.3999(13) 0.3853(3)
H16 H 0.4248 0.4031 0.3791
C22 C 0.3511(2) 0.5747(12) 0.3429(3)
C23 C 0.3554(2) 0.7587(11) 0.2877(3)
C24 C 0.3946(2) 0.8120(12) 0.2609(3)
H17 H 0.4280 0.7299 0.2770
C25 C 0.3757(2) 1.0132(12) 0.2045(3)
C26 C 0.3976(3) 1.1421(13) 0.1568(3)
H18 H 0.4317 1.0953 0.1596
C27 C 0.3692(3) 1.3350(14) 0.1064(4)
H19 H 0.3842 1.4183 0.0753
C28 C 0.3183(3) 1.4088(15) 0.1009(4)
H20 H 0.2998 1.5421 0.0665
C29 C 0.2945(3) 1.2879(13) 0.1456(3)
H21 H 0.2603 1.3388 0.1414
C30 C 0.3224(2) 1.0875(12) 0.1975(3)
C31 C 0.2632(2) 0.9004(12) 0.2631(3)
C32 C 0.2165(2) 1.0679(14) 0.2189(4)
H22 H 0.1874 1.0299 0.2349
H23 H 0.2062 1.0238 0.1667
H24 H 0.2256 1.2589 0.2264
loop_
_geom_bond_atom_site_label_1
_geom_bond_atom_site_label_2
_geom_bond_site_symmetry_1
_geom_bond_site_symmetry_2
C1 N1 1_555 1_555
N1 C15 1_555 1_555
N2 C7 1_555 1_555
C2 C1 1_555 1_555
H1 C2 1_555 1_555
N3 C17 1_555 1_555
C3 C2 1_555 1_555
H2 C3 1_555 1_555
N4 C23 1_555 1_555
C4 C3 1_555 1_555
H3 C4 1_555 1_555
C5 C4 1_555 1_555
H4 C5 1_555 1_555
C6 C1 1_555 1_555
C7 C6 1_555 1_555
C8 C7 1_555 1_555
H5 C8 1_555 1_555
C9 C8 1_555 1_555
C10 C9 1_555 1_555
H6 C10 1_555 1_555
C11 C10 1_555 1_555
H7 C11 1_555 1_555
C12 C11 1_555 1_555
H8 C12 1_555 1_555
C13 C12 1_555 1_555
H9 C13 1_555 1_555
C14 N2 1_555 1_555
C15 N2 1_555 1_555
C16 C15 1_555 1_555
H10 C16 1_555 1_555
H11 C16 1_555 1_555
H12 C16 1_555 1_555
C17 C18 1_555 1_555
C18 H13 1_555 1_555
C19 C18 1_555 1_555
H14 C19 1_555 1_555
C20 C19 1_555 1_555
H15 C20 1_555 1_555
C21 C20 1_555 1_555
H16 C21 1_555 1_555
C22 C17 1_555 1_555
C23 C22 1_555 1_555
C24 C23 1_555 1_555
H17 C24 1_555 1_555
C25 C24 1_555 1_555
C26 C25 1_555 1_555
H18 C26 1_555 1_555
C27 C26 1_555 1_555
H19 C27 1_555 1_555
C28 C27 1_555 1_555
H20 C28 1_555 1_555
C29 C28 1_555 1_555
H21 C29 1_555 1_555
C30 N4 1_555 1_555
C31 N3 1_555 1_555
C32 C31 1_555 1_555
H22 C32 1_555 1_555
H23 C32 1_555 1_555
H24 C32 1_555 1_555
N4 C31 1_555 1_555
C5 C6 1_555 1_555
C9 C14 1_555 1_555
C13 C14 1_555 1_555
C21 C22 1_555 1_555
C25 C30 1_555 1_555
C29 C30 1_555 1_555

#END
