
#######################################################################
#
#                 Cambridge Crystallographic Data Centre
#                                CCDC 
#
#######################################################################
#
# If this CIF has been generated from an entry in the Cambridge 
# Structural Database, then it will include bibliographic, chemical, 
# crystal, experimental, refinement or atomic coordinate data resulting 
# from the CCDC's data processing and validation procedures.
#
#######################################################################

data_UTOBEL
_chemical_compound_source        'from the bark of Chisocheton ceramicus'
_chemical_name_common            'Ceramicine B'
_chemical_formula_moiety         'C26 H32 O4'
_chemical_name_systematic        
17-(3-Furyl)-7-hydroxy-4,8,10-trimethyl-6,19-epoxy-4,9-cyclo-9,10-secoandrosta-1,14-dien-3-one
_symmetry_cell_setting           orthorhombic
_symmetry_space_group_name_H-M   'P 21 21 21'
_symmetry_Int_Tables_number      19
_space_group_name_Hall           'P 2ac 2ab'
loop_
_symmetry_equiv_pos_site_id
_symmetry_equiv_pos_as_xyz
1 x,y,z
2 1/2+x,1/2-y,-z
3 -x,1/2+y,1/2-z
4 1/2-x,-y,1/2+z
_cell_length_a                   7.30805(17)
_cell_length_b                   13.4328(3)
_cell_length_c                   21.6929(15)
_cell_angle_alpha                90
_cell_angle_beta                 90
_cell_angle_gamma                90
_cell_volume                     2129.54
_exptl_crystal_colour            colorless
_exptl_crystal_description       platelet
_cell_formula_units_Z            4
loop_
_atom_site_label
_atom_site_type_symbol
_atom_site_fract_x
_atom_site_fract_y
_atom_site_fract_z
O1 O 0.51452(19) 0.73127(12) 0.68024(7)
O2 O -0.1565(2) 0.75555(10) 0.53827(6)
O3 O 0.0341(2) 0.57547(10) 0.52530(6)
O4 O 0.5948(2) 0.10047(11) 0.64126(7)
C1 C 0.3737(2) 0.76258(15) 0.65694(9)
C2 C 0.3771(3) 0.86072(15) 0.62491(10)
C3 C 0.2359(3) 0.90401(16) 0.59681(11)
C4 C 0.0511(2) 0.85617(15) 0.59583(9)
C5 C 0.0821(2) 0.74557(13) 0.60674(8)
C6 C -0.0994(2) 0.69982(14) 0.59222(9)
C7 C -0.0746(2) 0.58967(15) 0.57879(9)
C8 C 0.0215(2) 0.53942(14) 0.63457(9)
C9 C 0.2069(2) 0.59305(14) 0.65063(8)
C10 C 0.1892(2) 0.70806(15) 0.66210(8)
C11 C 0.3132(3) 0.53533(16) 0.70003(9)
C12 C 0.3392(3) 0.42668(17) 0.68797(12)
C13 C 0.2521(2) 0.38539(14) 0.62912(9)
C14 C 0.0641(2) 0.43081(14) 0.61966(8)
C15 C -0.0539(3) 0.36243(16) 0.60087(11)
C16 C 0.0306(3) 0.26024(17) 0.59632(11)
C17 C 0.2024(2) 0.27308(14) 0.63586(9)
C18 C 0.3761(3) 0.40169(18) 0.57323(12)
C19 C 0.1112(3) 0.73734(16) 0.72623(8)
C20 C 0.3544(2) 0.20067(13) 0.62410(8)
C21 C 0.4665(3) 0.16224(16) 0.66668(10)
C22 C 0.4166(3) 0.15936(15) 0.56683(9)
C23 C 0.5592(3) 0.10071(16) 0.58000(10)
C24 C -0.0467(3) 0.84578(15) 0.53344(10)
C25 C -0.0736(3) 0.91075(16) 0.64162(10)
C26 C -0.1145(3) 0.53819(17) 0.68916(10)
H1 H 0.0043 0.6174 0.4984
H2 H 0.4902 0.8956 0.6245
H3 H 0.2529 0.9664 0.5770
H4 H 0.1600 0.7253 0.5710
H5 H -0.1872 0.7100 0.6270
H6 H -0.1973 0.5583 0.5724
H7 H 0.2828 0.5870 0.6125
H8 H 0.4353 0.5664 0.7047
H9 H 0.2484 0.5430 0.7398
H10 H 0.2889 0.3893 0.7235
H11 H 0.4722 0.4130 0.6864
H12 H -0.1782 0.3762 0.5913
H13 H 0.0618 0.2432 0.5532
H14 H -0.0515 0.2085 0.6134
H15 H 0.1636 0.2631 0.6796
H16 H 0.4919 0.3663 0.5794
H17 H 0.4003 0.4730 0.5683
H18 H 0.3156 0.3762 0.5361
H19 H -0.0228 0.7350 0.7250
H20 H 0.1511 0.8049 0.7367
H21 H 0.1561 0.6906 0.7574
H22 H 0.4581 0.1762 0.7095
H23 H 0.3662 0.1714 0.5272
H24 H 0.6268 0.0640 0.5503
H25 H -0.1255 0.9043 0.5255
H26 H 0.0434 0.8398 0.4995
H27 H -0.1906 0.8754 0.6449
H28 H -0.0954 0.9788 0.6271
H29 H -0.0146 0.9129 0.6822
H30 H -0.0552 0.5086 0.7253
H31 H -0.2223 0.4987 0.6780
H32 H -0.1521 0.6065 0.6988
loop_
_geom_bond_atom_site_label_1
_geom_bond_atom_site_label_2
_geom_bond_site_symmetry_1
_geom_bond_site_symmetry_2
O1 C1 1_555 1_555
O2 C6 1_555 1_555
O3 C7 1_555 1_555
O4 C21 1_555 1_555
C1 C2 1_555 1_555
C2 C3 1_555 1_555
C3 C4 1_555 1_555
C4 C5 1_555 1_555
C5 C6 1_555 1_555
C6 C7 1_555 1_555
C7 C8 1_555 1_555
C8 C9 1_555 1_555
C9 C10 1_555 1_555
C10 C1 1_555 1_555
C11 C9 1_555 1_555
C12 C11 1_555 1_555
C13 C12 1_555 1_555
C14 C8 1_555 1_555
C15 C14 1_555 1_555
C16 C15 1_555 1_555
C17 C13 1_555 1_555
C18 C13 1_555 1_555
C19 C10 1_555 1_555
C20 C17 1_555 1_555
C21 C20 1_555 1_555
C22 C20 1_555 1_555
C23 O4 1_555 1_555
C24 O2 1_555 1_555
C25 C4 1_555 1_555
C26 C8 1_555 1_555
H1 O3 1_555 1_555
H2 C2 1_555 1_555
H3 C3 1_555 1_555
H4 C5 1_555 1_555
H5 C6 1_555 1_555
H6 C7 1_555 1_555
H7 C9 1_555 1_555
H8 C11 1_555 1_555
H9 C11 1_555 1_555
H10 C12 1_555 1_555
H11 C12 1_555 1_555
H12 C15 1_555 1_555
H13 C16 1_555 1_555
H14 C16 1_555 1_555
H15 C17 1_555 1_555
H16 C18 1_555 1_555
H17 C18 1_555 1_555
H18 C18 1_555 1_555
H19 C19 1_555 1_555
H20 C19 1_555 1_555
H21 C19 1_555 1_555
H22 C21 1_555 1_555
H23 C22 1_555 1_555
H24 C23 1_555 1_555
H25 C24 1_555 1_555
H26 C24 1_555 1_555
H27 C25 1_555 1_555
H28 C25 1_555 1_555
H29 C25 1_555 1_555
H30 C26 1_555 1_555
H31 C26 1_555 1_555
H32 C26 1_555 1_555
C4 C24 1_555 1_555
C5 C10 1_555 1_555
C13 C14 1_555 1_555
C16 C17 1_555 1_555
C22 C23 1_555 1_555

#END
