
#######################################################################
#
#                 Cambridge Crystallographic Data Centre
#                                CCDC 
#
#######################################################################
#
# If this CIF has been generated from an entry in the Cambridge 
# Structural Database, then it will include bibliographic, chemical, 
# crystal, experimental, refinement or atomic coordinate data resulting 
# from the CCDC's data processing and validation procedures.
#
#######################################################################

data_UTOCOX
_chemical_formula_moiety         'C41 H48 Br1 N3 O5 Si1'
_chemical_name_systematic        
'ethyl anilino(4-(4-bromophenyl)-6-(2-(diphenyl((trimethylsilyl)oxy)methyl)pyrrolidin-1-yl)-5-methyl-2-oxido-5,6-dihydro-4H-1,2-oxazin-3-yl)acetate'
_symmetry_cell_setting           orthorhombic
_symmetry_space_group_name_H-M   'P 21 21 21'
_symmetry_Int_Tables_number      19
_space_group_name_Hall           'P 2ac 2ab'
loop_
_symmetry_equiv_pos_site_id
_symmetry_equiv_pos_as_xyz
1 x,y,z
2 1/2-x,-y,1/2+z
3 -x,1/2+y,1/2-z
4 1/2+x,1/2-y,-z
_cell_length_a                   8.4227(2)
_cell_length_b                   17.4852(4)
_cell_length_c                   27.2670(6)
_cell_angle_alpha                90
_cell_angle_beta                 90
_cell_angle_gamma                90
_cell_volume                     4015.68
_exptl_crystal_colour            colorless
_exptl_crystal_description       prism
_cell_formula_units_Z            4
loop_
_atom_site_label
_atom_site_type_symbol
_atom_site_fract_x
_atom_site_fract_y
_atom_site_fract_z
C1 C 0.1445(3) 0.67628(15) 0.94205(10)
C2 C 0.2349(3) 0.61334(15) 0.92861(10)
H1 H 0.2722 0.5783 0.9527
C3 C 0.2697(3) 0.60257(14) 0.87962(10)
H2 H 0.3299 0.5591 0.8700
C4 C 0.2184(3) 0.65394(14) 0.84406(10)
C5 C 0.1273(3) 0.71542(14) 0.85901(10)
H3 H 0.0900 0.7508 0.8352
C6 C 0.0890(4) 0.72657(15) 0.90794(10)
H4 H 0.0250 0.7687 0.9176
C7 C 0.2561(3) 0.64308(14) 0.79026(9)
H5 H 0.2131 0.6893 0.7732
C8 C 0.4318(3) 0.64308(13) 0.78050(9)
C9 C 0.5350(3) 0.70804(14) 0.79967(9)
H6 H 0.6373 0.7070 0.7810
C10 C 0.5746(3) 0.70159(17) 0.85383(10)
C11 C 0.6957(4) 0.62550(18) 0.91482(11)
H7 H 0.6009 0.6201 0.9360
H8 H 0.7578 0.6701 0.9262
C12 C 0.7944(5) 0.55474(18) 0.91714(13)
H9 H 0.8286 0.5460 0.9510
H10 H 0.8878 0.5608 0.8961
H11 H 0.7315 0.5110 0.9058
C13 C 0.4509(3) 0.81412(15) 0.74524(10)
C14 C 0.3749(4) 0.88504(15) 0.74073(11)
H12 H 0.3298 0.9087 0.7688
C15 C 0.3653(4) 0.92063(19) 0.69572(13)
H13 H 0.3154 0.9692 0.6930
C16 C 0.4273(5) 0.8864(2) 0.65485(13)
H14 H 0.4195 0.9110 0.6239
C17 C 0.5010(4) 0.8161(2) 0.65850(12)
H15 H 0.5430 0.7922 0.6300
C18 C 0.5137(4) 0.78033(17) 0.70379(11)
H16 H 0.5659 0.7323 0.7063
C19 C 0.1698(3) 0.57436(14) 0.76755(10)
H17 H 0.1926 0.5279 0.7877
C20 C -0.0101(3) 0.58731(18) 0.76618(11)
H18 H -0.0500 0.5935 0.7997
H19 H -0.0618 0.5432 0.7508
H20 H -0.0335 0.6335 0.7472
C21 C 0.2389(3) 0.56332(14) 0.71745(9)
H21 H 0.2364 0.6132 0.6995
C22 C 0.1550(3) 0.42916(14) 0.70909(10)
H22 H 0.0593 0.4252 0.7300
H23 H 0.2497 0.4157 0.7288
C23 C 0.1413(3) 0.37856(14) 0.66418(9)
H24 H 0.0310 0.3777 0.6516
H25 H 0.1753 0.3256 0.6715
C24 C 0.2533(3) 0.41661(14) 0.62774(10)
H26 H 0.2233 0.4037 0.5936
H27 H 0.3643 0.4003 0.6335
C25 C 0.2341(3) 0.50240(14) 0.63729(9)
H28 H 0.3416 0.5267 0.6369
C26 C 0.1255(3) 0.54530(13) 0.59970(9)
C27 C -0.0338(3) 0.50485(14) 0.59615(9)
C28 C -0.1525(3) 0.51871(15) 0.63050(10)
H29 H -0.1373 0.5572 0.6547
C29 C -0.2931(3) 0.47698(16) 0.62992(10)
H30 H -0.3728 0.4871 0.6537
C30 C -0.3177(4) 0.42117(16) 0.59517(11)
H31 H -0.4138 0.3927 0.5949
C31 C -0.2008(3) 0.40688(15) 0.56052(10)
H32 H -0.2173 0.3687 0.5363
C32 C -0.0612(3) 0.44767(14) 0.56111(9)
H33 H 0.0182 0.4369 0.5373
C33 C 0.2080(3) 0.55537(13) 0.54978(10)
C34 C 0.1201(4) 0.57389(14) 0.50837(11)
H34 H 0.0077 0.5763 0.5106
C35 C 0.1926(5) 0.58889(17) 0.46389(12)
H35 H 0.1294 0.6017 0.4362
C36 C 0.3556(5) 0.58541(17) 0.45919(12)
H36 H 0.4053 0.5951 0.4285
C37 C 0.4430(4) 0.56779(16) 0.49933(12)
H37 H 0.5554 0.5655 0.4967
C38 C 0.3714(4) 0.55293(15) 0.54430(11)
H38 H 0.4359 0.5409 0.5718
C39 C 0.0216(5) 0.75920(16) 0.66104(12)
H39 H -0.0524 0.7334 0.6833
H40 H -0.0175 0.8108 0.6539
H41 H 0.1264 0.7626 0.6765
C40 C 0.1797(5) 0.75194(17) 0.56126(12)
H42 H 0.1865 0.7232 0.5305
H43 H 0.2846 0.7539 0.5767
H44 H 0.1429 0.8041 0.5545
C41 C -0.1621(4) 0.6972(2) 0.57429(13)
H45 H -0.2353 0.6714 0.5968
H46 H -0.1544 0.6680 0.5437
H47 H -0.2017 0.7487 0.5672
N1 N 0.5001(3) 0.59612(12) 0.75010(8)
N2 N 0.4617(3) 0.78126(12) 0.79124(8)
H48 H 0.4221 0.8062 0.8165
N3 N 0.1702(2) 0.50661(11) 0.68776(7)
O1 O 0.4097(2) 0.54004(9) 0.72535(6)
O2 O 0.6446(2) 0.59348(10) 0.73819(7)
O3 O 0.5483(2) 0.75097(11) 0.88349(7)
O4 O 0.6478(2) 0.63605(11) 0.86354(7)
O5 O 0.1042(2) 0.62014(8) 0.62152(6)
Br1 Br 0.09801(4) 0.694261(19) 1.009371(11)
Si1 Si 0.03745(11) 0.70393(5) 0.60312(3)
loop_
_geom_bond_atom_site_label_1
_geom_bond_atom_site_label_2
_geom_bond_site_symmetry_1
_geom_bond_site_symmetry_2
C1 C2 1_555 1_555
C2 H1 1_555 1_555
C3 C2 1_555 1_555
H2 C3 1_555 1_555
C4 C3 1_555 1_555
C5 C4 1_555 1_555
H3 C5 1_555 1_555
C6 C1 1_555 1_555
H4 C6 1_555 1_555
C7 C4 1_555 1_555
H5 C7 1_555 1_555
C8 C7 1_555 1_555
C9 C8 1_555 1_555
H6 C9 1_555 1_555
C10 C9 1_555 1_555
C11 H7 1_555 1_555
H8 C11 1_555 1_555
C12 C11 1_555 1_555
H9 C12 1_555 1_555
H10 C12 1_555 1_555
H11 C12 1_555 1_555
C13 C14 1_555 1_555
C14 H12 1_555 1_555
C15 C14 1_555 1_555
H13 C15 1_555 1_555
C16 C15 1_555 1_555
H14 C16 1_555 1_555
C17 C16 1_555 1_555
H15 C17 1_555 1_555
C18 C13 1_555 1_555
H16 C18 1_555 1_555
C19 C7 1_555 1_555
H17 C19 1_555 1_555
C20 C19 1_555 1_555
H18 C20 1_555 1_555
H19 C20 1_555 1_555
H20 C20 1_555 1_555
C21 C19 1_555 1_555
H21 C21 1_555 1_555
C22 H22 1_555 1_555
H23 C22 1_555 1_555
C23 C22 1_555 1_555
H24 C23 1_555 1_555
H25 C23 1_555 1_555
C24 C23 1_555 1_555
H26 C24 1_555 1_555
H27 C24 1_555 1_555
C25 C24 1_555 1_555
H28 C25 1_555 1_555
C26 C25 1_555 1_555
C27 C26 1_555 1_555
C28 C27 1_555 1_555
H29 C28 1_555 1_555
C29 C28 1_555 1_555
H30 C29 1_555 1_555
C30 C29 1_555 1_555
H31 C30 1_555 1_555
C31 C30 1_555 1_555
H32 C31 1_555 1_555
C32 C27 1_555 1_555
H33 C32 1_555 1_555
C33 C26 1_555 1_555
C34 C33 1_555 1_555
H34 C34 1_555 1_555
C35 C34 1_555 1_555
H35 C35 1_555 1_555
C36 C35 1_555 1_555
H36 C36 1_555 1_555
C37 C36 1_555 1_555
H37 C37 1_555 1_555
C38 C33 1_555 1_555
H38 C38 1_555 1_555
C39 H39 1_555 1_555
H40 C39 1_555 1_555
H41 C39 1_555 1_555
C40 H42 1_555 1_555
H43 C40 1_555 1_555
H44 C40 1_555 1_555
C41 H45 1_555 1_555
H46 C41 1_555 1_555
H47 C41 1_555 1_555
N1 C8 1_555 1_555
N2 C9 1_555 1_555
H48 N2 1_555 1_555
N3 C21 1_555 1_555
O1 C21 1_555 1_555
O2 N1 1_555 1_555
O3 C10 1_555 1_555
O4 C10 1_555 1_555
O5 C26 1_555 1_555
Br1 C1 1_555 1_555
Si1 C39 1_555 1_555
C5 C6 1_555 1_555
C11 O4 1_555 1_555
C13 N2 1_555 1_555
C17 C18 1_555 1_555
C22 N3 1_555 1_555
C25 N3 1_555 1_555
C31 C32 1_555 1_555
C37 C38 1_555 1_555
C40 Si1 1_555 1_555
C41 Si1 1_555 1_555
N1 O1 1_555 1_555
O5 Si1 1_555 1_555

#END
