
#######################################################################
#
#                 Cambridge Crystallographic Data Centre
#                                CCDC 
#
#######################################################################
#
# If this CIF has been generated from an entry in the Cambridge 
# Structural Database, then it will include bibliographic, chemical, 
# crystal, experimental, refinement or atomic coordinate data resulting 
# from the CCDC's data processing and validation procedures.
#
#######################################################################

data_UTOGOB
_chemical_formula_moiety         'C13 H10 F3 N1 O4 S3'
_chemical_name_systematic        
N-(phenylsulfonyl)-N-((trifluoromethyl)sulfanyl)benzenesulfonamide
_symmetry_cell_setting           monoclinic
_symmetry_space_group_name_H-M   'P 21/n'
_symmetry_Int_Tables_number      14
_space_group_name_Hall           '-P 2yn'
loop_
_symmetry_equiv_pos_site_id
_symmetry_equiv_pos_as_xyz
1 x,y,z
2 1/2-x,1/2+y,1/2-z
3 -x,-y,-z
4 1/2+x,1/2-y,1/2+z
_cell_length_a                   19.9936(16)
_cell_length_b                   7.5823(6)
_cell_length_c                   20.3944(18)
_cell_angle_alpha                90
_cell_angle_beta                 91.360(2)
_cell_angle_gamma                90
_cell_volume                     3090.87
_exptl_crystal_colour            colorless
_exptl_crystal_description       plate
_cell_formula_units_Z            8
loop_
_atom_site_label
_atom_site_type_symbol
_atom_site_fract_x
_atom_site_fract_y
_atom_site_fract_z
S1 S 1.06673(3) 0.04686(8) 0.84308(3)
S2 S 1.04617(3) 0.35609(8) 0.75385(3)
S3 S 1.01659(3) 0.37671(9) 0.89365(3)
F1 F 1.11174(8) 0.6145(2) 0.89117(8)
F2 F 1.06834(9) 0.5659(3) 0.98325(9)
F3 F 1.13889(8) 0.3853(2) 0.94287(10)
O1 O 1.09655(8) -0.0088(2) 0.78397(9)
O2 O 1.10123(9) 0.0325(3) 0.90461(10)
O3 O 1.00121(8) 0.2496(2) 0.71611(8)
O4 O 1.03156(8) 0.5368(2) 0.76507(9)
N1 N 1.05338(9) 0.2685(3) 0.83198(9)
C1 C 0.98719(11) -0.0460(3) 0.84981(13)
C2 C 0.95867(14) -0.0555(4) 0.91079(15)
H1 H 0.9822 -0.0133 0.9486
C3 C 0.89545(14) -0.1271(4) 0.91611(16)
H2 H 0.8749 -0.1329 0.9576
C4 C 0.86276(13) -0.1895(4) 0.86121(17)
H3 H 0.8194 -0.2395 0.8649
C5 C 0.89142(13) -0.1811(4) 0.80108(16)
H4 H 0.8680 -0.2262 0.7636
C6 C 0.95409(12) -0.1078(3) 0.79416(14)
H5 H 0.9739 -0.1001 0.7524
C7 C 1.12716(11) 0.3369(3) 0.72400(11)
C8 C 1.13523(12) 0.2480(3) 0.66542(12)
H6 H 1.0982 0.1919 0.6441
C9 C 1.19801(12) 0.2423(3) 0.63850(12)
H7 H 1.2045 0.1816 0.5984
C10 C 1.25121(12) 0.3248(3) 0.66986(13)
H8 H 1.2942 0.3215 0.6510
C11 C 1.24268(12) 0.4126(3) 0.72867(13)
H9 H 1.2797 0.4684 0.7500
C12 C 1.18035(11) 0.4187(3) 0.75613(12)
H10 H 1.1740 0.4783 0.7965
C13 C 1.08850(12) 0.4898(4) 0.92924(13)
S4 S 0.64345(3) 1.49295(8) 0.93110(3)
S5 S 0.74602(3) 1.21128(8) 0.95215(3)
S6 S 0.60498(3) 1.15087(8) 0.98175(3)
F4 F 0.51827(8) 0.9476(3) 0.93030(9)
F5 F 0.61548(7) 0.90574(19) 0.89166(8)
F6 F 0.55933(8) 1.1274(2) 0.85986(8)
O5 O 0.69758(8) 1.5569(2) 0.89391(8)
O6 O 0.57722(8) 1.4913(2) 0.90491(9)
O7 O 0.77965(8) 1.3330(2) 0.99465(8)
O8 O 0.74241(8) 1.0299(2) 0.96871(8)
N2 N 0.66303(9) 1.2750(2) 0.94477(9)
C14 C 0.64405(12) 1.5927(3) 1.00833(11)
C15 C 0.70221(12) 1.6758(3) 1.03096(13)
H11 H 0.7409 1.6795 1.0048
C16 C 0.70238(15) 1.7529(3) 1.09249(14)
H12 H 0.7415 1.8107 1.1088
C17 C 0.64620(15) 1.7462(4) 1.13011(14)
H13 H 0.6472 1.7982 1.1725
C18 C 0.58834(13) 1.6648(4) 1.10704(13)
H14 H 0.5497 1.6620 1.1332
C19 C 0.58711(12) 1.5875(3) 1.04555(12)
H15 H 0.5477 1.5315 1.0291
C20 C 0.77637(10) 1.2322(3) 0.87257(11)
C21 C 0.74849(11) 1.1312(3) 0.82217(12)
H16 H 0.7104 1.0596 0.8294
C22 C 0.77724(12) 1.1367(3) 0.76128(12)
H17 H 0.7586 1.0696 0.7260
C23 C 0.83315(11) 1.2397(3) 0.75161(12)
H18 H 0.8534 1.2406 0.7099
C24 C 0.85989(11) 1.3415(3) 0.80204(12)
H19 H 0.8979 1.4133 0.7947
C25 C 0.83147(11) 1.3392(3) 0.86302(12)
H20 H 0.8493 1.4096 0.8978
C26 C 0.57321(12) 1.0281(3) 0.91164(13)
loop_
_geom_bond_atom_site_label_1
_geom_bond_atom_site_label_2
_geom_bond_site_symmetry_1
_geom_bond_site_symmetry_2
S1 O1 1_555 1_555
S2 O3 1_555 1_555
S3 N1 1_555 1_555
F1 C13 1_555 1_555
F2 C13 1_555 1_555
F3 C13 1_555 1_555
O2 S1 1_555 1_555
O4 S2 1_555 1_555
N1 S1 1_555 1_555
C1 S1 1_555 1_555
C2 C1 1_555 1_555
H1 C2 1_555 1_555
C3 C2 1_555 1_555
H2 C3 1_555 1_555
C4 C3 1_555 1_555
H3 C4 1_555 1_555
C5 C4 1_555 1_555
H4 C5 1_555 1_555
C6 C1 1_555 1_555
H5 C6 1_555 1_555
C7 S2 1_555 1_555
C8 C7 1_555 1_555
H6 C8 1_555 1_555
C9 C8 1_555 1_555
H7 C9 1_555 1_555
C10 C9 1_555 1_555
H8 C10 1_555 1_555
C11 C10 1_555 1_555
H9 C11 1_555 1_555
C12 C7 1_555 1_555
H10 C12 1_555 1_555
C13 S3 1_555 1_555
S4 O5 1_555 1_555
S5 O7 1_555 1_555
S6 N2 1_555 1_555
F4 C26 1_555 1_555
F5 C26 1_555 1_555
F6 C26 1_555 1_555
O6 S4 1_555 1_555
O8 S5 1_555 1_555
N2 S4 1_555 1_555
C14 S4 1_555 1_555
C15 C14 1_555 1_555
H11 C15 1_555 1_555
C16 C15 1_555 1_555
H12 C16 1_555 1_555
C17 C16 1_555 1_555
H13 C17 1_555 1_555
C18 C17 1_555 1_555
H14 C18 1_555 1_555
C19 C14 1_555 1_555
H15 C19 1_555 1_555
C20 S5 1_555 1_555
C21 C20 1_555 1_555
H16 C21 1_555 1_555
C22 C21 1_555 1_555
H17 C22 1_555 1_555
C23 C22 1_555 1_555
H18 C23 1_555 1_555
C24 C23 1_555 1_555
H19 C24 1_555 1_555
C25 C20 1_555 1_555
H20 C25 1_555 1_555
C26 S6 1_555 1_555
S2 N1 1_555 1_555
C5 C6 1_555 1_555
C11 C12 1_555 1_555
S5 N2 1_555 1_555
C18 C19 1_555 1_555
C24 C25 1_555 1_555

#END
