
#######################################################################
#
#                 Cambridge Crystallographic Data Centre
#                                CCDC 
#
#######################################################################
#
# If this CIF has been generated from an entry in the Cambridge 
# Structural Database, then it will include bibliographic, chemical, 
# crystal, experimental, refinement or atomic coordinate data resulting 
# from the CCDC's data processing and validation procedures.
#
#######################################################################

data_UTOHIV
_chemical_formula_moiety         'C17 H28 N2 O6'
_chemical_name_systematic        
'bis(N-\a-Amido-L-valine methyl ester)-1,1-cyclopropanedicarboxylate'
_symmetry_cell_setting           monoclinic
_symmetry_space_group_name_H-M   'P 21'
_symmetry_Int_Tables_number      4
_space_group_name_Hall           'P 2yb'
loop_
_symmetry_equiv_pos_site_id
_symmetry_equiv_pos_as_xyz
1 x,y,z
2 -x,1/2+y,-z
_cell_length_a                   9.1627(7)
_cell_length_b                   9.0925(7)
_cell_length_c                   12.0991(9)
_cell_angle_alpha                90
_cell_angle_beta                 107.045(7)
_cell_angle_gamma                90
_cell_volume                     963.722
_exptl_crystal_colour            white
_exptl_crystal_description       needle
_cell_formula_units_Z            2
loop_
_atom_site_label
_atom_site_type_symbol
_atom_site_fract_x
_atom_site_fract_y
_atom_site_fract_z
O1 O 0.77185(16) 0.01460(14) 0.21923(9)
O2 O 1.18149(16) -0.15169(13) 0.43337(8)
N1 N 1.02368(19) -0.14117(16) 0.25191(10)
H1 H 0.9402 -0.1068 0.2063
N2 N 0.73945(18) 0.16125(16) 0.35942(9)
H2 H 0.7741 0.1929 0.4292
C1 C 0.9750(2) 0.02003(16) 0.39816(11)
C2 C 0.8226(2) 0.06428(16) 0.31862(11)
C3 C 0.5927(2) 0.21281(18) 0.28740(11)
H3 H 0.5371 0.1309 0.2412
O3 O 1.38086(18) -0.28313(14) 0.25453(10)
C4 C 1.0676(2) -0.09944(16) 0.36271(11)
O4 O 0.50831(17) 0.33273(16) 0.10543(9)
O5 O 1.29717(18) -0.05380(14) 0.20306(10)
C5 C 1.1142(2) -0.24366(17) 0.20674(11)
H4 H 1.1235 -0.3370 0.2488
C6 C 1.0065(2) 0.03953(18) 0.52828(11)
H5 H 0.9238 0.0755 0.5558
H6 H 1.0726 -0.0318 0.5785
C7 C 1.2725(2) -0.17976(18) 0.22226(11)
C8 C 1.0314(2) -0.27044(19) 0.07742(12)
H7 H 1.0116 -0.1745 0.0390
O6 O 0.7188(2) 0.42140(18) 0.23309(11)
C9 C 0.6172(2) 0.3337(2) 0.20703(11)
C10 C 1.0777(2) 0.1446(2) 0.46558(14)
H8 H 1.1868 0.1367 0.4774
H9 H 1.0379 0.2441 0.4547
C11 C 1.1305(3) -0.3597(2) 0.01962(15)
H10 H 1.2205 -0.3045 0.0215
H11 H 1.0738 -0.3797 -0.0592
H12 H 1.1593 -0.4508 0.0603
C12 C 0.8794(3) -0.3453(3) 0.06210(17)
H13 H 0.8151 -0.2831 0.0919
H14 H 0.8953 -0.4370 0.1032
H15 H 0.8313 -0.3633 -0.0186
C13 C 0.3434(3) 0.3279(2) 0.29580(16)
H16 H 0.3550 0.4065 0.2461
H17 H 0.2887 0.3629 0.3472
H18 H 0.2875 0.2488 0.2498
C14 C 0.4999(2) 0.27309(19) 0.36589(13)
H19 H 0.5562 0.3559 0.4104
C15 C 0.5149(3) 0.4555(3) 0.02970(14)
H20 H 0.5253 0.5458 0.0724
H21 H 0.4228 0.4581 -0.0337
H22 H 0.6009 0.4433 0.0005
C16 C 1.5338(3) -0.2345(2) 0.26560(16)
H23 H 1.6029 -0.3158 0.2883
H24 H 1.5616 -0.1586 0.3232
H25 H 1.5389 -0.1966 0.1928
C17 C 0.4846(3) 0.1535(3) 0.45091(14)
H26 H 0.5842 0.1256 0.4987
H27 H 0.4343 0.0693 0.4087
H28 H 0.4256 0.1905 0.4987
loop_
_geom_bond_atom_site_label_1
_geom_bond_atom_site_label_2
_geom_bond_site_symmetry_1
_geom_bond_site_symmetry_2
O1 C2 1_555 1_555
O2 C4 1_555 1_555
N1 H1 1_555 1_555
N2 H2 1_555 1_555
C1 C2 1_555 1_555
C2 N2 1_555 1_555
C3 N2 1_555 1_555
H3 C3 1_555 1_555
O3 C7 1_555 1_555
C4 N1 1_555 1_555
O4 C9 1_555 1_555
O5 C7 1_555 1_555
C5 N1 1_555 1_555
H4 C5 1_555 1_555
C6 C1 1_555 1_555
H5 C6 1_555 1_555
H6 C6 1_555 1_555
C7 C5 1_555 1_555
C8 C5 1_555 1_555
H7 C8 1_555 1_555
O6 C9 1_555 1_555
C9 C3 1_555 1_555
C10 C1 1_555 1_555
H8 C10 1_555 1_555
H9 C10 1_555 1_555
C11 C8 1_555 1_555
H10 C11 1_555 1_555
H11 C11 1_555 1_555
H12 C11 1_555 1_555
C12 C8 1_555 1_555
H13 C12 1_555 1_555
H14 C12 1_555 1_555
H15 C12 1_555 1_555
C13 H16 1_555 1_555
H17 C13 1_555 1_555
H18 C13 1_555 1_555
C14 C3 1_555 1_555
H19 C14 1_555 1_555
C15 O4 1_555 1_555
H20 C15 1_555 1_555
H21 C15 1_555 1_555
H22 C15 1_555 1_555
C16 O3 1_555 1_555
H23 C16 1_555 1_555
H24 C16 1_555 1_555
H25 C16 1_555 1_555
C17 C14 1_555 1_555
H26 C17 1_555 1_555
H27 C17 1_555 1_555
H28 C17 1_555 1_555
C1 C4 1_555 1_555
C6 C10 1_555 1_555
C13 C14 1_555 1_555

#END
