
#######################################################################
#
#                 Cambridge Crystallographic Data Centre
#                                CCDC 
#
#######################################################################
#
# If this CIF has been generated from an entry in the Cambridge 
# Structural Database, then it will include bibliographic, chemical, 
# crystal, experimental, refinement or atomic coordinate data resulting 
# from the CCDC's data processing and validation procedures.
#
#######################################################################

data_UTOHOB
_chemical_formula_moiety         'C16 H16 O5,H2 O1'
_chemical_name_systematic        
'1-(3,4-Dihydroxyphenyl)-2-(3,4-dimethoxyphenyl)ethanone monohydrate'
_symmetry_cell_setting           triclinic
_symmetry_space_group_name_H-M   'P -1'
_symmetry_Int_Tables_number      2
_space_group_name_Hall           '-P 1'
loop_
_symmetry_equiv_pos_site_id
_symmetry_equiv_pos_as_xyz
1 x,y,z
2 -x,-y,-z
_cell_length_a                   5.1451(2)
_cell_length_b                   10.4583(4)
_cell_length_c                   14.8267(5)
_cell_angle_alpha                70.900(2)
_cell_angle_beta                 82.478(2)
_cell_angle_gamma                81.359(2)
_cell_volume                     742.474
_exptl_crystal_colour            colorless
_exptl_crystal_description       block
_cell_formula_units_Z            2
_exptl_crystal_recrystallization_method methanol/water
loop_
_atom_site_label
_atom_site_type_symbol
_atom_site_fract_x
_atom_site_fract_y
_atom_site_fract_z
C1 C 0.3752(3) 0.69540(16) 0.42679(10)
C2 C 0.2375(3) 0.61297(16) 0.39695(11)
H1 H 0.0998 0.5707 0.4373
C3 C 0.3015(3) 0.59321(16) 0.30931(11)
C4 C 0.5077(3) 0.65636(16) 0.24828(10)
C5 C 0.6434(3) 0.73847(18) 0.27691(11)
H2 H 0.7799 0.7814 0.2362
C6 C 0.5791(3) 0.75774(17) 0.36538(11)
H3 H 0.6732 0.8129 0.3838
C7 C 0.2945(3) 0.71348(17) 0.52172(11)
C8 C 0.4289(3) 0.81112(19) 0.55065(12)
H4 H 0.4265 0.8966 0.4987
H5 H 0.6121 0.7743 0.5585
C9 C 0.3099(3) 0.84063(17) 0.64149(11)
C10 C 0.4253(3) 0.77363(17) 0.72682(11)
H6 H 0.5723 0.7097 0.7278
C11 C 0.3226(3) 0.80159(17) 0.81012(11)
C12 C 0.1014(3) 0.89685(17) 0.80925(11)
C13 C -0.0148(4) 0.96201(19) 0.72545(12)
H7 H -0.1640 1.0247 0.7246
C14 C 0.0915(4) 0.93395(19) 0.64208(12)
H8 H 0.0133 0.9793 0.5853
C15 C 0.6422(4) 0.63954(19) 0.90255(13)
H9 H 0.5936 0.5662 0.8851
H10 H 0.6943 0.6056 0.9668
H11 H 0.7867 0.6780 0.8593
C16 C -0.2225(4) 1.0023(2) 0.90214(14)
H12 H -0.2044 1.0923 0.8589
H13 H -0.2610 1.0059 0.9664
H14 H -0.3637 0.9666 0.8852
O1 O 0.1709(2) 0.51595(12) 0.27556(8)
H15 H 0.0697 0.4738 0.3188
O2 O 0.5578(2) 0.63518(14) 0.16180(8)
H16 H 0.7021 0.6592 0.1373
O3 O 0.1209(3) 0.65255(14) 0.57495(9)
O4 O 0.4228(3) 0.74156(13) 0.89722(8)
O5 O 0.0168(2) 0.91641(13) 0.89611(8)
O6 O 0.0260(3) 0.6984(2) 0.07768(12)
H17 H 0.066(5) 0.742(3) 0.0246(19)
H18 H 0.154(6) 0.668(3) 0.106(2)
loop_
_geom_bond_atom_site_label_1
_geom_bond_atom_site_label_2
_geom_bond_site_symmetry_1
_geom_bond_site_symmetry_2
C1 C2 1_555 1_555
C2 H1 1_555 1_555
C3 C2 1_555 1_555
C4 C3 1_555 1_555
C5 C4 1_555 1_555
H2 C5 1_555 1_555
C6 C1 1_555 1_555
H3 C6 1_555 1_555
C7 C1 1_555 1_555
C8 C7 1_555 1_555
H4 C8 1_555 1_555
H5 C8 1_555 1_555
C9 C8 1_555 1_555
C10 C9 1_555 1_555
H6 C10 1_555 1_555
C11 C10 1_555 1_555
C12 C11 1_555 1_555
C13 C12 1_555 1_555
H7 C13 1_555 1_555
C14 C9 1_555 1_555
H8 C14 1_555 1_555
C15 H9 1_555 1_555
H10 C15 1_555 1_555
H11 C15 1_555 1_555
C16 H12 1_555 1_555
H13 C16 1_555 1_555
H14 C16 1_555 1_555
O1 C3 1_555 1_555
H15 O1 1_555 1_555
O2 C4 1_555 1_555
H16 O2 1_555 1_555
O3 C7 1_555 1_555
O4 C11 1_555 1_555
O5 C12 1_555 1_555
O6 H17 1_555 1_555
H18 O6 1_555 1_555
C5 C6 1_555 1_555
C13 C14 1_555 1_555
C15 O4 1_555 1_555
C16 O5 1_555 1_555

#END
