
#######################################################################
#
#                 Cambridge Crystallographic Data Centre
#                                CCDC 
#
#######################################################################
#
# If this CIF has been generated from an entry in the Cambridge 
# Structural Database, then it will include bibliographic, chemical, 
# crystal, experimental, refinement or atomic coordinate data resulting 
# from the CCDC's data processing and validation procedures.
#
#######################################################################

data_UTOJOD
_chemical_formula_moiety         'C20 H46 N4 2+,2(Cl1 O4 1-)'
_chemical_name_systematic        
'5,7,12,14-tetraethyl-7,14-dimethyl-1,4,8,11-tetraazacyclotetradecane diperchlorate'
_symmetry_cell_setting           monoclinic
_symmetry_space_group_name_H-M   'P 21/c'
_symmetry_Int_Tables_number      14
_space_group_name_Hall           '-P 2ybc'
loop_
_symmetry_equiv_pos_site_id
_symmetry_equiv_pos_as_xyz
1 x,y,z
2 -x,1/2+y,1/2-z
3 -x,-y,-z
4 x,1/2-y,1/2+z
_cell_length_a                   14.6346(8)
_cell_length_b                   11.7652(7)
_cell_length_c                   16.0691(9)
_cell_angle_alpha                90
_cell_angle_beta                 90.0
_cell_angle_gamma                90
_cell_volume                     2766.76
_exptl_crystal_colour            colorless
_cell_formula_units_Z            4
loop_
_atom_site_label
_atom_site_type_symbol
_atom_site_fract_x
_atom_site_fract_y
_atom_site_fract_z
N1 N 0.3827(1) 0.0186(2) 0.5649(1)
C1 C 0.3248(3) 0.0744(5) 0.3395(2)
O1 O 0.3227(7) 0.1662(6) 0.6918(6)

#END
