
#######################################################################
#
#                 Cambridge Crystallographic Data Centre
#                                CCDC 
#
#######################################################################
#
# If this CIF has been generated from an entry in the Cambridge 
# Structural Database, then it will include bibliographic, chemical, 
# crystal, experimental, refinement or atomic coordinate data resulting 
# from the CCDC's data processing and validation procedures.
#
#######################################################################

data_UTOPEA
_chemical_formula_moiety         'C56 H36 O4 Si2'
_chemical_name_systematic        
12,12,24,24-tetraphenyl-4,16,31,38-tetraoxa-12,24-disilaundecacyclo[12.10.7.7^2,13^.0^1,14^.0^2,13^.0^3,11^.0^5,10^.0^15,23^.0^17,22^.0^25,30^.0^32,37^]octatriaconta-3(11),5,7,9,15(23),17,19,21,25,27,29,32,34,36-tetradecaene
_symmetry_cell_setting           triclinic
_symmetry_space_group_name_H-M   'P -1'
_symmetry_Int_Tables_number      2
_space_group_name_Hall           '-P 1'
loop_
_symmetry_equiv_pos_site_id
_symmetry_equiv_pos_as_xyz
1 x,y,z
2 -x,-y,-z
_cell_length_a                   9.838(3)
_cell_length_b                   10.725(3)
_cell_length_c                   10.786(3)
_cell_angle_alpha                97.131(7)
_cell_angle_beta                 106.276(7)
_cell_angle_gamma                99.722(7)
_cell_volume                     1058.93
_exptl_crystal_colour            colorless
_exptl_crystal_description       block
_cell_formula_units_Z            1
loop_
_atom_site_label
_atom_site_type_symbol
_atom_site_fract_x
_atom_site_fract_y
_atom_site_fract_z
Si1 Si 0.38547(8) 0.33571(7) 0.63689(6)
O1 O 0.3090(2) 0.58204(17) 0.41199(16)
O2 O 0.1999(2) 0.31452(18) 0.25829(15)
C1 C 0.3873(3) 0.4805(2) 0.4351(2)
C2 C 0.4609(3) 0.4949(2) 0.5884(2)
C3 C 0.4132(3) 0.6116(2) 0.6391(2)
C4 C 0.3252(3) 0.6543(3) 0.5334(3)
C5 C 0.2571(4) 0.7548(3) 0.5487(3)
C6 C 0.2794(4) 0.8165(3) 0.6763(3)
C7 C 0.3670(4) 0.7777(3) 0.7834(3)
C8 C 0.4334(4) 0.6755(3) 0.7655(3)
C9 C 0.2885(3) 0.3529(3) 0.3858(2)
C10 C 0.2743(3) 0.2655(3) 0.4648(2)
C11 C 0.1643(3) 0.1579(3) 0.3790(2)
C12 C 0.1216(3) 0.1934(3) 0.2557(2)
C13 C 0.0158(3) 0.1178(3) 0.1482(2)
C14 C -0.0501(4) -0.0006(3) 0.1661(3)
C15 C -0.0095(4) -0.0400(3) 0.2867(3)
C16 C 0.0975(3) 0.0371(3) 0.3945(3)
C17 C 0.5053(4) 0.1136(3) 0.6580(3)
C18 C 0.5182(3) 0.2418(3) 0.7138(2)
C19 C 0.6280(4) 0.2937(3) 0.8326(3)
C20 C 0.7218(4) 0.2205(3) 0.8938(3)
C21 C 0.7062(4) 0.0933(3) 0.8367(3)
C22 C 0.5987(4) 0.0402(3) 0.7196(3)
C23 C 0.2668(3) 0.3625(3) 0.7419(2)
C24 C 0.1414(4) 0.4081(3) 0.6946(3)
C25 C 0.0496(4) 0.4245(4) 0.7710(4)
C26 C 0.0860(5) 0.3968(4) 0.8964(4)
C27 C 0.2088(4) 0.3534(4) 0.9459(3)
C28 C 0.2995(4) 0.3350(3) 0.8704(3)
H1 H 0.1975 0.781 0.47515
H2 H 0.23395 0.88604 0.69048
H3 H 0.38156 0.82166 0.86967
H4 H 0.49249 0.64925 0.83933
H5 H -0.01083 0.14531 0.06601
H6 H -0.12427 -0.05576 0.09467
H7 H -0.05633 -0.12197 0.2956
H8 H 0.12471 0.00897 0.4763
H9 H 0.43206 0.07636 0.57719
H10 H 0.63869 0.38046 0.87207
H11 H 0.79606 0.25725 0.97409
H12 H 0.76959 0.04273 0.87834
H13 H 0.58846 -0.04682 0.68092
H14 H 0.11751 0.42847 0.6089
H15 H -0.03662 0.45436 0.73709
H16 H 0.02436 0.40832 0.94882
H17 H 0.23256 0.33548 1.0326
H18 H 0.38434 0.30363 0.9054
Si1A Si 0.61453(8) 0.66429(7) 0.36311(6)
O1A O 0.6910(2) 0.41796(17) 0.58801(16)
O2A O 0.8001(2) 0.68548(18) 0.74171(15)
C1A C 0.6127(3) 0.5195(2) 0.5649(2)
C2A C 0.5391(3) 0.5051(2) 0.4116(2)
C3A C 0.5868(3) 0.3884(2) 0.3609(2)
C4A C 0.6748(3) 0.3457(3) 0.4666(3)
C5A C 0.7429(4) 0.2452(3) 0.4513(3)
C6A C 0.7206(4) 0.1835(3) 0.3237(3)
C7A C 0.6330(4) 0.2223(3) 0.2166(3)
C8A C 0.5666(4) 0.3245(3) 0.2345(3)
C9A C 0.7115(3) 0.6471(3) 0.6142(2)
C10A C 0.7257(3) 0.7345(3) 0.5352(2)
C11A C 0.8357(3) 0.8421(3) 0.6210(2)
C12A C 0.8784(3) 0.8066(3) 0.7443(2)
C13A C 0.9842(3) 0.8822(3) 0.8518(2)
C14A C 1.0501(4) 1.0006(3) 0.8339(3)
C15A C 1.0095(4) 1.0400(3) 0.7133(3)
C16A C 0.9025(3) 0.9629(3) 0.6055(3)
C17A C 0.4947(4) 0.8864(3) 0.3420(3)
C18A C 0.4818(3) 0.7582(3) 0.2862(2)
C19A C 0.3720(4) 0.7063(3) 0.1674(3)
C20A C 0.2782(4) 0.7795(3) 0.1062(3)
C21A C 0.2938(4) 0.9067(3) 0.1633(3)
C22A C 0.4013(4) 0.9598(3) 0.2804(3)
C23A C 0.7332(3) 0.6375(3) 0.2581(2)
C24A C 0.8586(4) 0.5919(3) 0.3054(3)
C25A C 0.9504(4) 0.5755(4) 0.2290(4)
C26A C 0.9140(5) 0.6032(4) 0.1036(4)
C27A C 0.7912(4) 0.6466(4) 0.0541(3)
C28A C 0.7005(4) 0.6650(3) 0.1296(3)
H1A H 0.8025 0.219 0.52485
H2A H 0.76605 0.11396 0.30952
H3A H 0.61844 0.17834 0.13033
H4A H 0.50751 0.35075 0.16067
H5A H 1.01083 0.85469 0.93399
H6A H 1.12427 1.05576 0.90533
H7A H 1.05633 1.12197 0.7044
H8A H 0.87529 0.99103 0.5237
H9A H 0.56794 0.92364 0.42281
H10A H 0.36131 0.61954 0.12793
H11A H 0.20394 0.74275 0.02591
H12A H 0.23041 0.95727 0.12166
H13A H 0.41154 1.04682 0.31908
H14A H 0.88249 0.57153 0.3911
H15A H 1.03662 0.54564 0.26291
H16A H 0.97564 0.59168 0.05118
H17A H 0.76744 0.66452 -0.0326
H18A H 0.61566 0.69637 0.0946
loop_
_geom_bond_atom_site_label_1
_geom_bond_atom_site_label_2
_geom_bond_site_symmetry_1
_geom_bond_site_symmetry_2
Si1 C2 1_555 1_555
O1 C1 1_555 1_555
O2 C9 1_555 1_555
C1 C2 1_555 1_555
C2 C3 1_555 1_555
C3 C4 1_555 1_555
C4 O1 1_555 1_555
C5 C4 1_555 1_555
C6 C5 1_555 1_555
C7 C6 1_555 1_555
C8 C3 1_555 1_555
C9 C1 1_555 1_555
C10 Si1 1_555 1_555
C11 C10 1_555 1_555
C12 O2 1_555 1_555
C13 C12 1_555 1_555
C14 C13 1_555 1_555
C15 C14 1_555 1_555
C16 C11 1_555 1_555
C17 C18 1_555 1_555
C18 Si1 1_555 1_555
C19 C18 1_555 1_555
C20 C19 1_555 1_555
C21 C20 1_555 1_555
C22 C17 1_555 1_555
C23 Si1 1_555 1_555
C24 C23 1_555 1_555
C25 C24 1_555 1_555
C26 C25 1_555 1_555
C27 C26 1_555 1_555
C28 C23 1_555 1_555
H1 C5 1_555 1_555
H2 C6 1_555 1_555
H3 C7 1_555 1_555
H4 C8 1_555 1_555
H5 C13 1_555 1_555
H6 C14 1_555 1_555
H7 C15 1_555 1_555
H8 C16 1_555 1_555
H9 C17 1_555 1_555
H10 C19 1_555 1_555
H11 C20 1_555 1_555
H12 C21 1_555 1_555
H13 C22 1_555 1_555
H14 C24 1_555 1_555
H15 C25 1_555 1_555
H16 C26 1_555 1_555
H17 C27 1_555 1_555
H18 C28 1_555 1_555
Si1A C2A 1_555 1_555
O1A C1A 1_555 1_555
O2A C9A 1_555 1_555
C1A C2 1_555 1_555
C2A C1 1_555 1_555
C3A C2A 1_555 1_555
C4A O1A 1_555 1_555
C5A C4A 1_555 1_555
C6A C5A 1_555 1_555
C7A C6A 1_555 1_555
C8A C3A 1_555 1_555
C9A C1A 1_555 1_555
C10A Si1A 1_555 1_555
C11A C10A 1_555 1_555
C12A O2A 1_555 1_555
C13A C12A 1_555 1_555
C14A C13A 1_555 1_555
C15A C14A 1_555 1_555
C16A C11A 1_555 1_555
C17A C18A 1_555 1_555
C18A Si1A 1_555 1_555
C19A C18A 1_555 1_555
C20A C19A 1_555 1_555
C21A C20A 1_555 1_555
C22A C17A 1_555 1_555
C23A Si1A 1_555 1_555
C24A C23A 1_555 1_555
C25A C24A 1_555 1_555
C26A C25A 1_555 1_555
C27A C26A 1_555 1_555
C28A C23A 1_555 1_555
H1A C5A 1_555 1_555
H2A C6A 1_555 1_555
H3A C7A 1_555 1_555
H4A C8A 1_555 1_555
H5A C13A 1_555 1_555
H6A C14A 1_555 1_555
H7A C15A 1_555 1_555
H8A C16A 1_555 1_555
H9A C17A 1_555 1_555
H10A C19A 1_555 1_555
H11A C20A 1_555 1_555
H12A C21A 1_555 1_555
H13A C22A 1_555 1_555
H14A C24A 1_555 1_555
H15A C25A 1_555 1_555
H16A C26A 1_555 1_555
H17A C27A 1_555 1_555
H18A C28A 1_555 1_555
C7 C8 1_555 1_555
C9 C10 1_555 1_555
C11 C12 1_555 1_555
C15 C16 1_555 1_555
C21 C22 1_555 1_555
C27 C28 1_555 1_555
C1A C2A 1_555 1_555
C3A C4A 1_555 1_555
C7A C8A 1_555 1_555
C9A C10A 1_555 1_555
C11A C12A 1_555 1_555
C15A C16A 1_555 1_555
C21A C22A 1_555 1_555
C27A C28A 1_555 1_555

#END
