
#######################################################################
#
#                 Cambridge Crystallographic Data Centre
#                                CCDC 
#
#######################################################################
#
# If this CIF has been generated from an entry in the Cambridge 
# Structural Database, then it will include bibliographic, chemical, 
# crystal, experimental, refinement or atomic coordinate data resulting 
# from the CCDC's data processing and validation procedures.
#
#######################################################################

data_UTORUR
_chemical_formula_moiety         'C26 H28 N2 O6'
_chemical_name_systematic        
(E,E)-2,5-bis(2-(2,4,6-Trimethoxyphenyl)vinyl)pyrazine
_symmetry_cell_setting           monoclinic
_symmetry_space_group_name_H-M   'P 21/c'
_symmetry_Int_Tables_number      14
_space_group_name_Hall           '-P 2ybc'
loop_
_symmetry_equiv_pos_site_id
_symmetry_equiv_pos_as_xyz
1 x,y,z
2 -x,1/2+y,1/2-z
3 -x,-y,-z
4 x,1/2-y,1/2+z
_cell_length_a                   4.389(4)
_cell_length_b                   15.4880(10)
_cell_length_c                   17.215(4)
_cell_angle_alpha                90
_cell_angle_beta                 103.90(3)
_cell_angle_gamma                90
_cell_volume                     1135.95
_exptl_crystal_colour            orange
_exptl_crystal_description       prism
_cell_formula_units_Z            2
_exptl_crystal_recrystallization_method dichloromethane
loop_
_atom_site_label
_atom_site_type_symbol
_atom_site_fract_x
_atom_site_fract_y
_atom_site_fract_z
C1 C 0.7021(4) -0.12364(11) 0.21241(9)
C2 C 0.8202(4) -0.19824(11) 0.18360(9)
C3 C 0.7394(4) -0.22231(12) 0.10325(9)
H1 H 0.8241 -0.2717 0.0859
C4 C 0.5301(4) -0.17090(12) 0.05001(9)
C5 C 0.4024(4) -0.09767(12) 0.07536(9)
H2 H 0.2610 -0.0640 0.0388
C6 C 0.4858(4) -0.07458(11) 0.15523(9)
C7 C 0.8170(4) -0.10005(12) 0.29630(9)
H3 H 0.9852 -0.1328 0.3244
C8 C 0.7188(4) -0.03889(12) 0.33915(9)
H4 H 0.5454 -0.0061 0.3142
C9 C 0.8669(4) -0.02047(11) 0.42255(9)
C10 C 0.7702(5) 0.04873(12) 0.46170(10)
H5 H 0.6063 0.0825 0.4330
C11 C 0.1527(5) 0.04973(13) 0.12851(10)
H6 H 0.2439 0.0690 0.0861
H7 H 0.0961 0.0988 0.1561
H8 H -0.0313 0.0160 0.1064
C12 C 0.5774(5) -0.25665(13) -0.06226(11)
H9 H 0.8011 -0.2491 -0.0487
H10 H 0.5016 -0.2577 -0.1194
H11 H 0.5258 -0.3101 -0.0402
C13 C 1.1552(5) -0.32181(14) 0.21563(12)
H12 H 0.9931 -0.3622 0.1923
H13 H 1.2952 -0.3478 0.2611
H14 H 1.2702 -0.3062 0.1768
N1 N 1.1050(4) -0.07024(10) 0.46272(8)
O1 O 0.3745(3) -0.00175(8) 0.18326(6)
O2 O 0.4342(3) -0.18668(8) -0.03016(7)
O3 O 1.0183(3) -0.24688(8) 0.24026(7)
C1B C 1.2979(4) 0.12364(11) 0.78759(9)
C2B C 1.1798(4) 0.19824(11) 0.81640(9)
C3B C 1.2606(4) 0.22231(12) 0.89675(9)
H1B H 1.1759 0.2717 0.9141
C4B C 1.4699(4) 0.17090(12) 0.94999(9)
C5B C 1.5976(4) 0.09767(12) 0.92464(9)
H2B H 1.7390 0.0640 0.9612
C6B C 1.5142(4) 0.07458(11) 0.84477(9)
C7B C 1.1830(4) 0.10005(12) 0.70370(9)
H3B H 1.0148 0.1328 0.6756
C8B C 1.2812(4) 0.03889(12) 0.66085(9)
H4B H 1.4546 0.0061 0.6858
C9B C 1.1331(4) 0.02047(11) 0.57745(9)
C10B C 1.2298(5) -0.04873(12) 0.53830(10)
H5B H 1.3937 -0.0825 0.5670
C11B C 1.8473(5) -0.04973(13) 0.87149(10)
H6B H 1.7561 -0.0690 0.9139
H7B H 1.9039 -0.0988 0.8439
H8B H 2.0313 -0.0160 0.8936
C12B C 1.4226(5) 0.25665(13) 1.06226(11)
H9B H 1.1989 0.2491 1.0487
H10B H 1.4984 0.2577 1.1194
H11B H 1.4742 0.3101 1.0402
C13B C 0.8448(5) 0.32181(14) 0.78437(12)
H12B H 1.0069 0.3622 0.8077
H13B H 0.7048 0.3478 0.7389
H14B H 0.7298 0.3062 0.8232
N1B N 0.8950(4) 0.07024(10) 0.53728(8)
O1B O 1.6255(3) 0.00175(8) 0.81674(6)
O2B O 1.5658(3) 0.18668(8) 1.03016(7)
O3B O 0.9817(3) 0.24688(8) 0.75974(7)
loop_
_geom_bond_atom_site_label_1
_geom_bond_atom_site_label_2
_geom_bond_site_symmetry_1
_geom_bond_site_symmetry_2
C1 C2 1_555 1_555
C2 C3 1_555 1_555
C3 H1 1_555 1_555
C4 C3 1_555 1_555
C5 C4 1_555 1_555
H2 C5 1_555 1_555
C6 C1 1_555 1_555
C7 C1 1_555 1_555
H3 C7 1_555 1_555
C8 C7 1_555 1_555
H4 C8 1_555 1_555
C9 C8 1_555 1_555
C10 C9 1_555 1_555
H5 C10 1_555 1_555
C11 H6 1_555 1_555
H7 C11 1_555 1_555
H8 C11 1_555 1_555
C12 H9 1_555 1_555
H10 C12 1_555 1_555
H11 C12 1_555 1_555
C13 H12 1_555 1_555
H13 C13 1_555 1_555
H14 C13 1_555 1_555
N1 C9 1_555 1_555
O1 C6 1_555 1_555
O2 C4 1_555 1_555
O3 C2 1_555 1_555
C1B C2B 1_555 1_555
C2B C3B 1_555 1_555
C3B H1B 1_555 1_555
C4B C3B 1_555 1_555
C5B C4B 1_555 1_555
H2B C5B 1_555 1_555
C6B C1B 1_555 1_555
C7B C1B 1_555 1_555
H3B C7B 1_555 1_555
C8B C7B 1_555 1_555
H4B C8B 1_555 1_555
C9B C8B 1_555 1_555
C10B N1 1_555 1_555
H5B C10B 1_555 1_555
C11B H6B 1_555 1_555
H7B C11B 1_555 1_555
H8B C11B 1_555 1_555
C12B H9B 1_555 1_555
H10B C12B 1_555 1_555
H11B C12B 1_555 1_555
C13B H12B 1_555 1_555
H13B C13B 1_555 1_555
H14B C13B 1_555 1_555
N1B C10 1_555 1_555
O1B C6B 1_555 1_555
O2B C4B 1_555 1_555
O3B C2B 1_555 1_555
C5 C6 1_555 1_555
C11 O1 1_555 1_555
C12 O2 1_555 1_555
C13 O3 1_555 1_555
C5B C6B 1_555 1_555
C9B C10B 1_555 1_555
C9B N1B 1_555 1_555
C11B O1B 1_555 1_555
C12B O2B 1_555 1_555
C13B O3B 1_555 1_555

#END
