
#######################################################################
#
#                 Cambridge Crystallographic Data Centre
#                                CCDC 
#
#######################################################################
#
# If this CIF has been generated from an entry in the Cambridge 
# Structural Database, then it will include bibliographic, chemical, 
# crystal, experimental, refinement or atomic coordinate data resulting 
# from the CCDC's data processing and validation procedures.
#
#######################################################################

data_UTORIF01
_chemical_formula_moiety         'C26 H28 N2 O6'
_chemical_name_systematic        
(E,E)-2,5-bis(2-(3,4,5-Trimethoxyphenyl)vinyl)pyrazine
_symmetry_cell_setting           monoclinic
_symmetry_space_group_name_H-M   'P 21/c'
_symmetry_Int_Tables_number      14
_space_group_name_Hall           '-P 2ybc'
loop_
_symmetry_equiv_pos_site_id
_symmetry_equiv_pos_as_xyz
1 x,y,z
2 -x,1/2+y,1/2-z
3 -x,-y,-z
4 x,1/2-y,1/2+z
_cell_length_a                   8.040(2)
_cell_length_b                   10.806(4)
_cell_length_c                   15.268(5)
_cell_angle_alpha                90
_cell_angle_beta                 117.533(19)
_cell_angle_gamma                90
_cell_volume                     1176.26
_exptl_crystal_colour            yellow
_exptl_crystal_description       block
_chemical_melting_point          '490 K'
_cell_formula_units_Z            2
_exptl_crystal_recrystallization_method chloroform
loop_
_atom_site_label
_atom_site_type_symbol
_atom_site_fract_x
_atom_site_fract_y
_atom_site_fract_z
C1 C 0.0400(7) 0.3537(5) 0.1276(4)
C2 C -0.1029(7) 0.2790(5) 0.0602(4)
H1 H -0.1212 0.2725 -0.0044
C3 C -0.2180(7) 0.2142(5) 0.0893(4)
C4 C -0.1914(7) 0.2224(5) 0.1856(4)
C5 C -0.0547(7) 0.3010(5) 0.2502(4)
C6 C 0.0587(7) 0.3659(5) 0.2224(4)
H2 H 0.1493 0.4188 0.2672
C7 C 0.1813(8) 0.4143(6) 0.1060(5)
H3 H 0.2693 0.4628 0.1565
C8 C 0.1997(8) 0.4088(6) 0.0232(5)
H4 H 0.1053 0.3697 -0.0315
C9 C 0.3545(8) 0.4589(5) 0.0132(5)
C10 C 0.3636(9) 0.4451(6) -0.0756(5)
H5 H 0.2643 0.4059 -0.1279
C11 C -0.3991(8) 0.1248(7) -0.0719(5)
H6 H -0.4326 0.2044 -0.1031
H7 H -0.5010 0.0680 -0.1054
H8 H -0.2896 0.0947 -0.0749
C12 C -0.4724(8) 0.1967(6) 0.1978(5)
H9 H -0.4569 0.2774 0.2268
H10 H -0.5296 0.1426 0.2261
H11 H -0.5511 0.2024 0.1278
C13 C 0.0848(9) 0.3958(7) 0.4090(5)
H12 H 0.2087 0.3776 0.4181
H13 H 0.0835 0.3911 0.4715
H14 H 0.0496 0.4777 0.3824
N1 N 0.4949(7) 0.5152(5) 0.0893(4)
O1 O -0.3606(5) 0.1356(4) 0.0291(3)
O2 O -0.2927(5) 0.1483(4) 0.2169(3)
O3 O -0.0439(5) 0.3089(4) 0.3428(3)
C1B C 0.9600(7) 0.6463(5) -0.1276(4)
C2B C 1.1029(7) 0.7210(5) -0.0602(4)
H1B H 1.1212 0.7275 0.0044
C3B C 1.2180(7) 0.7858(5) -0.0893(4)
C4B C 1.1914(7) 0.7776(5) -0.1856(4)
C5B C 1.0547(7) 0.6990(5) -0.2502(4)
C6B C 0.9413(7) 0.6341(5) -0.2224(4)
H2B H 0.8507 0.5812 -0.2672
C7B C 0.8187(8) 0.5857(6) -0.1060(5)
H3B H 0.7307 0.5372 -0.1565
C8B C 0.8003(8) 0.5912(6) -0.0232(5)
H4B H 0.8947 0.6303 0.0315
C9B C 0.6455(8) 0.5411(5) -0.0132(5)
C10B C 0.6364(9) 0.5549(6) 0.0756(5)
H5B H 0.7357 0.5941 0.1279
C11B C 1.3991(8) 0.8752(7) 0.0719(5)
H6B H 1.4326 0.7956 0.1031
H7B H 1.5010 0.9320 0.1054
H8B H 1.2896 0.9053 0.0749
C12B C 1.4724(8) 0.8033(6) -0.1978(5)
H9B H 1.4569 0.7226 -0.2268
H10B H 1.5296 0.8574 -0.2261
H11B H 1.5511 0.7976 -0.1278
C13B C 0.9152(9) 0.6042(7) -0.4090(5)
H12B H 0.7913 0.6224 -0.4181
H13B H 0.9165 0.6089 -0.4715
H14B H 0.9504 0.5223 -0.3824
N1B N 0.5051(7) 0.4848(5) -0.0893(4)
O1B O 1.3606(5) 0.8644(4) -0.0291(3)
O2B O 1.2927(5) 0.8517(4) -0.2169(3)
O3B O 1.0439(5) 0.6911(4) -0.3428(3)
loop_
_geom_bond_atom_site_label_1
_geom_bond_atom_site_label_2
_geom_bond_site_symmetry_1
_geom_bond_site_symmetry_2
C1 C2 1_555 1_555
C2 H1 1_555 1_555
C3 C2 1_555 1_555
C4 C3 1_555 1_555
C5 C4 1_555 1_555
C6 C1 1_555 1_555
H2 C6 1_555 1_555
C7 C1 1_555 1_555
H3 C7 1_555 1_555
C8 C7 1_555 1_555
H4 C8 1_555 1_555
C9 C8 1_555 1_555
C10 C9 1_555 1_555
H5 C10 1_555 1_555
C11 H6 1_555 1_555
H7 C11 1_555 1_555
H8 C11 1_555 1_555
C12 H9 1_555 1_555
H10 C12 1_555 1_555
H11 C12 1_555 1_555
C13 H12 1_555 1_555
H13 C13 1_555 1_555
H14 C13 1_555 1_555
N1 C9 1_555 1_555
O1 C3 1_555 1_555
O2 C4 1_555 1_555
O3 C5 1_555 1_555
C1B C2B 1_555 1_555
C2B H1B 1_555 1_555
C3B C2B 1_555 1_555
C4B C3B 1_555 1_555
C5B C4B 1_555 1_555
C6B C1B 1_555 1_555
H2B C6B 1_555 1_555
C7B C1B 1_555 1_555
H3B C7B 1_555 1_555
C8B C7B 1_555 1_555
H4B C8B 1_555 1_555
C9B C8B 1_555 1_555
C10B N1 1_555 1_555
H5B C10B 1_555 1_555
C11B H6B 1_555 1_555
H7B C11B 1_555 1_555
H8B C11B 1_555 1_555
C12B H9B 1_555 1_555
H10B C12B 1_555 1_555
H11B C12B 1_555 1_555
C13B H12B 1_555 1_555
H13B C13B 1_555 1_555
H14B C13B 1_555 1_555
N1B C10 1_555 1_555
O1B C3B 1_555 1_555
O2B C4B 1_555 1_555
O3B C5B 1_555 1_555
C5 C6 1_555 1_555
C11 O1 1_555 1_555
C12 O2 1_555 1_555
C13 O3 1_555 1_555
C5B C6B 1_555 1_555
C9B C10B 1_555 1_555
C9B N1B 1_555 1_555
C11B O1B 1_555 1_555
C12B O2B 1_555 1_555
C13B O3B 1_555 1_555

#END
