
#######################################################################
#
#                 Cambridge Crystallographic Data Centre
#                                CCDC 
#
#######################################################################
#
# If this CIF has been generated from an entry in the Cambridge 
# Structural Database, then it will include bibliographic, chemical, 
# crystal, experimental, refinement or atomic coordinate data resulting 
# from the CCDC's data processing and validation procedures.
#
#######################################################################

data_UTOYUY
_chemical_formula_moiety         'C30 H28 B2'
_chemical_name_systematic        
5,5'-(3,3-Dimethylbutane-1,1-diyl)bis(5H-dibenzo[b,d]borole)
_symmetry_cell_setting           triclinic
_symmetry_space_group_name_H-M   'P -1'
_symmetry_Int_Tables_number      2
_space_group_name_Hall           '-P 1'
loop_
_symmetry_equiv_pos_site_id
_symmetry_equiv_pos_as_xyz
1 x,y,z
2 -x,-y,-z
_cell_length_a                   9.0283(9)
_cell_length_b                   11.5995(11)
_cell_length_c                   12.0150(12)
_cell_angle_alpha                77.043(8)
_cell_angle_beta                 68.701(8)
_cell_angle_gamma                85.064(8)
_cell_volume                     1142.45
_exptl_crystal_colour            yellow
_exptl_crystal_description       block
_cell_formula_units_Z            2
_exptl_crystal_recrystallization_method benzene
loop_
_atom_site_label
_atom_site_type_symbol
_atom_site_fract_x
_atom_site_fract_y
_atom_site_fract_z
B1 B 0.7808(2) 0.21365(14) 0.30725(16)
B2 B 0.8100(2) 0.43620(14) 0.26442(15)
C1 C 0.7237(3) 0.32547(17) 0.3679(2)
H1 H 0.7628 0.3171 0.4373
C2 C 0.5408(2) 0.34294(15) 0.41653(17)
H2 H 0.5178 0.4264 0.4242
H3 H 0.4991 0.3292 0.3549
C3 C 0.4495(4) 0.26291(19) 0.5401(2)
C4 C 0.2713(3) 0.2835(2) 0.5669(2)
H4 H 0.2437 0.2666 0.5005
H5 H 0.2449 0.3660 0.5734
H6 H 0.2112 0.2311 0.6439
C5 C 0.4917(3) 0.2907(2) 0.6436(3)
H7 H 0.4690 0.3742 0.6471
H8 H 0.6050 0.2748 0.6285
H9 H 0.4283 0.2410 0.7213
C6 C 0.4890(2) 0.13299(12) 0.53898(15)
H10 H 0.4659 0.1117 0.4725
H11 H 0.4245 0.0844 0.6172
H12 H 0.6019 0.1192 0.5266
C7 C 0.9297(2) 0.13795(12) 0.31796(13)
C8 C 0.95356(19) 0.04839(12) 0.25005(13)
C9 C 1.0790(2) -0.03102(14) 0.24145(16)
H13 H 1.0935 -0.0915 0.1966
C10 C 1.1834(2) -0.02053(16) 0.29975(18)
H14 H 1.2707 -0.0737 0.2934
C11 C 1.1623(2) 0.06582(15) 0.36666(17)
H15 H 1.2348 0.0716 0.4060
C12 C 1.0350(2) 0.14464(14) 0.37660(15)
H16 H 1.0200 0.2033 0.4237
C13 C 0.72412(19) 0.15216(12) 0.22441(14)
C14 C 0.83007(19) 0.05636(13) 0.19447(13)
C15 C 0.8108(2) -0.01574(15) 0.12257(15)
H17 H 0.8825 -0.0793 0.1030
C16 C 0.6862(2) 0.00640(17) 0.08021(16)
H18 H 0.6720 -0.0424 0.0311
C17 C 0.5810(2) 0.09924(16) 0.10857(16)
H19 H 0.4956 0.1135 0.0787
C18 C 0.6002(2) 0.17155(14) 0.18060(15)
H20 H 0.5276 0.2347 0.1997
C19 C 0.96381(19) 0.49360(12) 0.25980(13)
C20 C 1.00604(18) 0.58937(12) 0.15759(13)
C21 C 1.1368(2) 0.65893(13) 0.13026(15)
H21 H 1.1650 0.7223 0.0609
C22 C 1.2262(2) 0.63488(15) 0.20540(18)
H22 H 1.3163 0.6820 0.1871
C23 C 1.1856(2) 0.54296(15) 0.30677(18)
H23 H 1.2473 0.5276 0.3579
C24 C 1.0542(2) 0.47292(14) 0.33372(16)
H24 H 1.0264 0.4102 0.4037
C25 C 0.77131(18) 0.51453(12) 0.15337(14)
C26 C 0.89148(17) 0.60213(12) 0.09398(13)
C27 C 0.88828(19) 0.68638(13) -0.00676(14)
H25 H 0.9695 0.7443 -0.0461
C28 C 0.7656(2) 0.68545(14) -0.04959(15)
H26 H 0.7633 0.7425 -0.1194
C29 C 0.6457(2) 0.60183(15) 0.00848(16)
H27 H 0.5606 0.6029 -0.0205
C30 C 0.6503(2) 0.51643(14) 0.10923(16)
H28 H 0.5687 0.4588 0.1479
C31? C 0.6828(9) 0.3319(6) 0.3406(6)
C32? C 0.6414(7) 0.3276(5) 0.4793(5)
C33? C 0.4845(9) 0.2614(7) 0.5653(8)
C34? C 0.3429(11) 0.3236(8) 0.5375(8)
C35? C 0.4655(10) 0.2655(7) 0.6961(8)
H29? H 0.5860 0.3425 0.3174
H30? H 0.7303 0.2887 0.5034
H31? H 0.6331 0.4097 0.4919
H32? H 0.3616 0.3328 0.4504
H33? H 0.3288 0.4018 0.5585
H34? H 0.2469 0.2765 0.5858
H35? H 0.3723 0.2193 0.7534
H36? H 0.4514 0.3477 0.7061
H37? H 0.5607 0.2321 0.7126
H38? H 0.4579 0.1375 0.4680
H39? H 0.4149 0.0816 0.6104
H40? H 0.5969 0.1004 0.5223
loop_
_geom_bond_atom_site_label_1
_geom_bond_atom_site_label_2
_geom_bond_site_symmetry_1
_geom_bond_site_symmetry_2
B1 C1 1_555 1_555
B2 C1 1_555 1_555
C1 H1 1_555 1_555
C2 C1 1_555 1_555
H2 C2 1_555 1_555
H3 C2 1_555 1_555
C3 C2 1_555 1_555
C4 C3 1_555 1_555
H4 C4 1_555 1_555
H5 C4 1_555 1_555
H6 C4 1_555 1_555
C5 C3 1_555 1_555
H7 C5 1_555 1_555
H8 C5 1_555 1_555
H9 C5 1_555 1_555
C6 C3 1_555 1_555
H10 C6 1_555 1_555
H11 C6 1_555 1_555
H12 C6 1_555 1_555
C7 B1 1_555 1_555
C8 C7 1_555 1_555
C9 C8 1_555 1_555
H13 C9 1_555 1_555
C10 C9 1_555 1_555
H14 C10 1_555 1_555
C11 C10 1_555 1_555
H15 C11 1_555 1_555
C12 C7 1_555 1_555
H16 C12 1_555 1_555
C13 B1 1_555 1_555
C14 C8 1_555 1_555
C15 C14 1_555 1_555
H17 C15 1_555 1_555
C16 C15 1_555 1_555
H18 C16 1_555 1_555
C17 C16 1_555 1_555
H19 C17 1_555 1_555
C18 C13 1_555 1_555
H20 C18 1_555 1_555
C19 B2 1_555 1_555
C20 C19 1_555 1_555
C21 C20 1_555 1_555
H21 C21 1_555 1_555
C22 C21 1_555 1_555
H22 C22 1_555 1_555
C23 C22 1_555 1_555
H23 C23 1_555 1_555
C24 C19 1_555 1_555
H24 C24 1_555 1_555
C25 B2 1_555 1_555
C26 C20 1_555 1_555
C27 C26 1_555 1_555
H25 C27 1_555 1_555
C28 C27 1_555 1_555
H26 C28 1_555 1_555
C29 C28 1_555 1_555
H27 C29 1_555 1_555
C30 C25 1_555 1_555
H28 C30 1_555 1_555
C11 C12 1_555 1_555
C13 C14 1_555 1_555
C17 C18 1_555 1_555
C23 C24 1_555 1_555
C25 C26 1_555 1_555
C29 C30 1_555 1_555

#END
