
#######################################################################
#
#                 Cambridge Crystallographic Data Centre
#                                CCDC 
#
#######################################################################
#
# If this CIF has been generated from an entry in the Cambridge 
# Structural Database, then it will include bibliographic, chemical, 
# crystal, experimental, refinement or atomic coordinate data resulting 
# from the CCDC's data processing and validation procedures.
#
#######################################################################

data_UTOZAF
_chemical_formula_moiety         'C18 H19 B1'
_chemical_name_systematic        
5-(3,3-Dimethylbut-1-en-1-yl)-5H-dibenzo[b,d]borole
_symmetry_cell_setting           monoclinic
_symmetry_space_group_name_H-M   'P 21/n'
_symmetry_Int_Tables_number      14
_space_group_name_Hall           '-P 2yn'
loop_
_symmetry_equiv_pos_site_id
_symmetry_equiv_pos_as_xyz
1 x,y,z
2 1/2-x,1/2+y,1/2-z
3 -x,-y,-z
4 1/2+x,1/2-y,1/2+z
_cell_length_a                   14.8385(16)
_cell_length_b                   5.8312(6)
_cell_length_c                   17.7349(17)
_cell_angle_alpha                90
_cell_angle_beta                 106.659(8)
_cell_angle_gamma                90
_cell_volume                     1470.13
_exptl_crystal_colour            yellow-green
_exptl_crystal_description       needle
_cell_formula_units_Z            4
loop_
_atom_site_label
_atom_site_type_symbol
_atom_site_fract_x
_atom_site_fract_y
_atom_site_fract_z
B1 B 0.7394(3) 0.6284(7) 0.5771(2)
C1 C 0.7196(3) 0.8303(6) 0.5187(2)
H1 H 0.6694 0.9325 0.5175
C2 C 0.7720(3) 0.8645(6) 0.4695(2)
H2 H 0.8253 0.7675 0.4770
C3 C 0.7572(3) 1.0375(6) 0.4036(2)
C4 C 0.7333(4) 0.9032(7) 0.3258(3)
H3 H 0.7229 1.0108 0.2817
H4 H 0.6762 0.8124 0.3204
H5 H 0.7856 0.8007 0.3257
C5 C 0.6784(4) 1.2082(7) 0.4016(3)
H6 H 0.6718 1.3150 0.3577
H7 H 0.6937 1.2939 0.4512
H8 H 0.6192 1.1250 0.3947
C6 C 0.8491(4) 1.1655(8) 0.4139(3)
H9 H 0.8412 1.2790 0.3718
H10 H 0.8986 1.0565 0.4116
H11 H 0.8668 1.2435 0.4650
C7 C 0.8340(3) 0.4958(6) 0.6130(2)
C8 C 0.8135(3) 0.2968(6) 0.6516(2)
C9 C 0.8829(3) 0.1411(7) 0.6882(2)
H12 H 0.8676 0.0100 0.7139
C10 C 0.9748(3) 0.1786(8) 0.6871(3)
H13 H 1.0226 0.0711 0.7109
C11 C 0.9966(3) 0.3746(8) 0.6510(3)
H14 H 1.0599 0.4020 0.6515
C12 C 0.9273(3) 0.5304(7) 0.6143(2)
H15 H 0.9436 0.6625 0.5898
C13 C 0.6658(3) 0.4895(6) 0.6070(2)
C14 C 0.7117(3) 0.2935(6) 0.6472(2)
C15 C 0.6631(3) 0.1300(7) 0.6764(2)
H16 H 0.6947 -0.0009 0.7035
C16 C 0.5667(3) 0.1607(7) 0.6654(2)
H17 H 0.5327 0.0499 0.6855
C17 C 0.5202(3) 0.3499(7) 0.6257(2)
H18 H 0.4545 0.3673 0.6182
C18 C 0.5696(3) 0.5162(7) 0.5965(2)
H19 H 0.5376 0.6468 0.5697
loop_
_geom_bond_atom_site_label_1
_geom_bond_atom_site_label_2
_geom_bond_site_symmetry_1
_geom_bond_site_symmetry_2
B1 C1 1_555 1_555
C1 H1 1_555 1_555
C2 C1 1_555 1_555
H2 C2 1_555 1_555
C3 C2 1_555 1_555
C4 C3 1_555 1_555
H3 C4 1_555 1_555
H4 C4 1_555 1_555
H5 C4 1_555 1_555
C5 C3 1_555 1_555
H6 C5 1_555 1_555
H7 C5 1_555 1_555
H8 C5 1_555 1_555
C6 C3 1_555 1_555
H9 C6 1_555 1_555
H10 C6 1_555 1_555
H11 C6 1_555 1_555
C7 B1 1_555 1_555
C8 C7 1_555 1_555
C9 C8 1_555 1_555
H12 C9 1_555 1_555
C10 C9 1_555 1_555
H13 C10 1_555 1_555
C11 C10 1_555 1_555
H14 C11 1_555 1_555
C12 C7 1_555 1_555
H15 C12 1_555 1_555
C13 B1 1_555 1_555
C14 C8 1_555 1_555
C15 C14 1_555 1_555
H16 C15 1_555 1_555
C16 C15 1_555 1_555
H17 C16 1_555 1_555
C17 C16 1_555 1_555
H18 C17 1_555 1_555
C18 C13 1_555 1_555
H19 C18 1_555 1_555
C11 C12 1_555 1_555
C13 C14 1_555 1_555
C17 C18 1_555 1_555

#END
