
#######################################################################
#
#                 Cambridge Crystallographic Data Centre
#                                CCDC 
#
#######################################################################
#
# If this CIF has been generated from an entry in the Cambridge 
# Structural Database, then it will include bibliographic, chemical, 
# crystal, experimental, refinement or atomic coordinate data resulting 
# from the CCDC's data processing and validation procedures.
#
#######################################################################

data_UTUBUH
_chemical_formula_moiety         
'2(C42 H24 O18 S6 6-),11(C1 H6 N3 1+),2(N1 O3 1-),3(Na1 1+),8.5(C6 H11 N1 O1)'
_chemical_name_systematic        
'undecakis(Guanidinium) bis(hexakis(4-sulfonatophenyl)benzene) tri-sodium dinitrate piperidine-1-carbaldehyde clathrate'
_symmetry_cell_setting           cubic
_symmetry_space_group_name_H-M   'I -4 3 m'
_symmetry_Int_Tables_number      217
_space_group_name_Hall           'I -4 2 3'
loop_
_symmetry_equiv_pos_site_id
_symmetry_equiv_pos_as_xyz
1 x,y,z
2 -x,-y,z
3 -x,y,-z
4 x,-y,-z
5 z,x,y
6 z,-x,-y
7 -z,-x,y
8 -z,x,-y
9 y,z,x
10 -y,z,-x
11 y,-z,-x
12 -y,-z,x
13 y,x,z
14 -y,-x,z
15 y,-x,-z
16 -y,x,-z
17 x,z,y
18 -x,z,-y
19 -x,-z,y
20 x,-z,-y
21 z,y,x
22 z,-y,-x
23 -z,y,-x
24 -z,-y,x
25 1/2+x,1/2+y,1/2+z
26 1/2-x,1/2-y,1/2+z
27 1/2-x,1/2+y,1/2-z
28 1/2+x,1/2-y,1/2-z
29 1/2+z,1/2+x,1/2+y
30 1/2+z,1/2-x,1/2-y
31 1/2-z,1/2-x,1/2+y
32 1/2-z,1/2+x,1/2-y
33 1/2+y,1/2+z,1/2+x
34 1/2-y,1/2+z,1/2-x
35 1/2+y,1/2-z,1/2-x
36 1/2-y,1/2-z,1/2+x
37 1/2+y,1/2+x,1/2+z
38 1/2-y,1/2-x,1/2+z
39 1/2+y,1/2-x,1/2-z
40 1/2-y,1/2+x,1/2-z
41 1/2+x,1/2+z,1/2+y
42 1/2-x,1/2+z,1/2-y
43 1/2-x,1/2-z,1/2+y
44 1/2+x,1/2-z,1/2-y
45 1/2+z,1/2+y,1/2+x
46 1/2+z,1/2-y,1/2-x
47 1/2-z,1/2+y,1/2-x
48 1/2-z,1/2-y,1/2+x
_cell_length_a                   26.9526(14)
_cell_length_b                   26.9526(14)
_cell_length_c                   26.9526(14)
_cell_angle_alpha                90
_cell_angle_beta                 90
_cell_angle_gamma                90
_cell_volume                     19579.5
_exptl_crystal_colour            colorless
_exptl_crystal_description       block
_cell_formula_units_Z            4
loop_
_atom_site_label
_atom_site_type_symbol
_atom_site_fract_x
_atom_site_fract_y
_atom_site_fract_z
S1 S 0.50814(16) 0.7024(2) 0.88134(15)
O1 O 0.4867(3) 0.7232(4) 0.9246(3)
O2 O 0.5459(4) 0.7350(4) 0.8566(4)
O3 O 0.5261(4) 0.6521(5) 0.8894(4)
C1 C 0.3468(3) 0.6897(3) 0.7257(3)
C2 C 0.3856(5) 0.6920(4) 0.7649(5)
C3 C 0.4293(5) 0.6678(5) 0.7589(5)
H1 H 0.4345 0.6481 0.7302
C4 C 0.4664(4) 0.6718(5) 0.7944(5)
H2 H 0.4970 0.6551 0.7889
C5 C 0.4607(4) 0.6988(4) 0.8369(4)
C6 C 0.4152(5) 0.7201(5) 0.8414(5)
H3 H 0.4097 0.7390 0.8707
C7 C 0.3779(4) 0.7175(5) 0.8097(5)
H4 H 0.3469 0.7325 0.8169
S1P S 0.50814(16) 0.88134(15) 0.7024(2)
S1I S 0.2976(2) 0.88134(15) 0.49186(16)
S1V S 0.11866(15) 0.7024(2) 0.49186(16)
S1F S 0.11866(15) 0.49186(16) 0.7024(2)
S1M S 0.2976(2) 0.49186(16) 0.88134(15)
O1P O 0.4867(3) 0.9246(3) 0.7232(4)
O1I O 0.2768(4) 0.9246(3) 0.5133(3)
O1V O 0.0754(3) 0.7232(4) 0.5133(3)
O1F O 0.0754(3) 0.5133(3) 0.7232(4)
O1M O 0.2768(4) 0.5133(3) 0.9246(3)
O2P O 0.5459(4) 0.8566(4) 0.7350(4)
O2I O 0.2650(4) 0.8566(4) 0.4541(4)
O2V O 0.1434(4) 0.7350(4) 0.4541(4)
O2F O 0.1434(4) 0.4541(4) 0.7350(4)
O2M O 0.2650(4) 0.4541(4) 0.8566(4)
O3P O 0.5261(4) 0.8894(4) 0.6521(5)
O3I O 0.3479(5) 0.8894(4) 0.4739(4)
O3V O 0.1106(4) 0.6521(5) 0.4739(4)
O3F O 0.1106(4) 0.4739(4) 0.6521(5)
O3M O 0.3479(5) 0.4739(4) 0.8894(4)
C1M C 0.3103(3) 0.6532(3) 0.7257(3)
C1F C 0.2743(3) 0.6532(3) 0.6897(3)
C1V C 0.2743(3) 0.6897(3) 0.6532(3)
C1I C 0.3103(3) 0.7257(3) 0.6532(3)
C1P C 0.3468(3) 0.7257(3) 0.6897(3)
C2P C 0.3856(5) 0.7649(5) 0.6920(4)
C2I C 0.3080(4) 0.7649(5) 0.6144(5)
C2V C 0.2351(5) 0.6920(4) 0.6144(5)
C2F C 0.2351(5) 0.6144(5) 0.6920(4)
C2M C 0.3080(4) 0.6144(5) 0.7649(5)
C3P C 0.4293(5) 0.7589(5) 0.6678(5)
C3I C 0.3322(5) 0.7589(5) 0.5707(5)
C3V C 0.2411(5) 0.6678(5) 0.5707(5)
C3F C 0.2411(5) 0.5707(5) 0.6678(5)
C3M C 0.3322(5) 0.5707(5) 0.7589(5)
H1P H 0.4345 0.7302 0.6481
H1I H 0.3519 0.7302 0.5655
H1V H 0.2698 0.6481 0.5655
H1F H 0.2698 0.5655 0.6481
H1M H 0.3519 0.5655 0.7302
C4P C 0.4664(4) 0.7944(5) 0.6718(5)
C4I C 0.3282(5) 0.7944(5) 0.5336(4)
C4V C 0.2056(5) 0.6718(5) 0.5336(4)
C4F C 0.2056(5) 0.5336(4) 0.6718(5)
C4M C 0.3282(5) 0.5336(4) 0.7944(5)
H2P H 0.4970 0.7889 0.6551
H2I H 0.3449 0.7889 0.5030
H2V H 0.2111 0.6551 0.5030
H2F H 0.2111 0.5030 0.6551
H2M H 0.3449 0.5030 0.7889
C5P C 0.4607(4) 0.8369(4) 0.6988(4)
C5I C 0.3012(4) 0.8369(4) 0.5393(4)
C5V C 0.1631(4) 0.6988(4) 0.5393(4)
C5F C 0.1631(4) 0.5393(4) 0.6988(4)
C5M C 0.3012(4) 0.5393(4) 0.8369(4)
C6P C 0.4152(5) 0.8414(5) 0.7201(5)
C6I C 0.2799(5) 0.8414(5) 0.5848(5)
C6V C 0.1586(5) 0.7201(5) 0.5848(5)
C6F C 0.1586(5) 0.5848(5) 0.7201(5)
C6M C 0.2799(5) 0.5848(5) 0.8414(5)
H3P H 0.4097 0.8707 0.7390
H3I H 0.2610 0.8707 0.5903
H3V H 0.1293 0.7390 0.5903
H3F H 0.1293 0.5903 0.7390
H3M H 0.2610 0.5903 0.8707
C7P C 0.3779(4) 0.8097(5) 0.7175(5)
C7I C 0.2825(5) 0.8097(5) 0.6221(4)
C7V C 0.1903(5) 0.7175(5) 0.6221(4)
C7F C 0.1903(5) 0.6221(4) 0.7175(5)
C7M C 0.2825(5) 0.6221(4) 0.8097(5)
H4P H 0.3469 0.8169 0.7325
H4I H 0.2675 0.8169 0.6531
H4V H 0.1831 0.7325 0.6531
H4F H 0.1831 0.6531 0.7325
H4M H 0.2675 0.6531 0.8169
N1 N 0.2302(5) 0.7698(5) 0.7698(5)
O4 O 0.2488(4) 0.7512(4) 0.8069(5)
O4F O 0.1931(5) 0.7512(4) 0.7512(4)
O4I O 0.2488(4) 0.8069(5) 0.7512(4)
C8 C 0.1446(7) 0.6760(8) 0.8554(7)
N2 N 0.1888(4) 0.6935(4) 0.8729(3)
H5 H 0.2006 0.6825 0.9013
H6 H 0.2055 0.7158 0.8558
N3 N 0.1194(4) 0.6427(6) 0.8806(4)
H7 H 0.1310 0.6316 0.9090
N2V N 0.1271(3) 0.6935(4) 0.8112(4)
H5V H 0.0987 0.6825 0.7994
H6V H 0.1442 0.7158 0.7945
H7V H 0.0910 0.6316 0.8690
Na1 Na 0.5000 0.7500 1.0000
loop_
_geom_bond_atom_site_label_1
_geom_bond_atom_site_label_2
_geom_bond_site_symmetry_1
_geom_bond_site_symmetry_2
S1 O1 1_555 1_555
O2 S1 1_555 1_555
O3 S1 1_555 1_555
C1 C2 1_555 1_555
C2 C3 1_555 1_555
C3 H1 1_555 1_555
C4 C3 1_555 1_555
H2 C4 1_555 1_555
C5 S1 1_555 1_555
C6 C5 1_555 1_555
H3 C6 1_555 1_555
C7 C2 1_555 1_555
H4 C7 1_555 1_555
N1 O4 1_555 1_555
C8 N2 1_555 1_555
N2 H5 1_555 1_555
H6 N2 1_555 1_555
N3 C8 1_555 1_555
H7 N3 1_555 1_555
S1P O1P 1_555 1_555
S1I O1I 1_555 1_555
S1V O1V 1_555 1_555
S1F O1F 1_555 1_555
S1M O1M 1_555 1_555
O2P S1P 1_555 1_555
O2I S1I 1_555 1_555
O2V S1V 1_555 1_555
O2F S1F 1_555 1_555
O2M S1M 1_555 1_555
O3P S1P 1_555 1_555
O3I S1I 1_555 1_555
O3V S1V 1_555 1_555
O3F S1F 1_555 1_555
O3M S1M 1_555 1_555
C1M C1 1_555 1_555
C1F C1M 1_555 1_555
C1V C1F 1_555 1_555
C1I C1V 1_555 1_555
C1P C1 1_555 1_555
C2P C1P 1_555 1_555
C2I C1I 1_555 1_555
C2V C1V 1_555 1_555
C2F C1F 1_555 1_555
C2M C1M 1_555 1_555
C3P C2P 1_555 1_555
C3I C2I 1_555 1_555
C3V C2V 1_555 1_555
C3F C2F 1_555 1_555
C3M C2M 1_555 1_555
H1P C3P 1_555 1_555
H1I C3I 1_555 1_555
H1V C3V 1_555 1_555
H1F C3F 1_555 1_555
H1M C3M 1_555 1_555
C4P C3P 1_555 1_555
C4I C3I 1_555 1_555
C4V C3V 1_555 1_555
C4F C3F 1_555 1_555
C4M C3M 1_555 1_555
H2P C4P 1_555 1_555
H2I C4I 1_555 1_555
H2V C4V 1_555 1_555
H2F C4F 1_555 1_555
H2M C4M 1_555 1_555
C5P S1P 1_555 1_555
C5I S1I 1_555 1_555
C5V S1V 1_555 1_555
C5F S1F 1_555 1_555
C5M S1M 1_555 1_555
C6P C5P 1_555 1_555
C6I C5I 1_555 1_555
C6V C5V 1_555 1_555
C6F C5F 1_555 1_555
C6M C5M 1_555 1_555
H3P C6P 1_555 1_555
H3I C6I 1_555 1_555
H3V C6V 1_555 1_555
H3F C6F 1_555 1_555
H3M C6M 1_555 1_555
C7P C2P 1_555 1_555
C7I C2I 1_555 1_555
C7V C2V 1_555 1_555
C7F C2F 1_555 1_555
C7M C2M 1_555 1_555
H4P C7P 1_555 1_555
H4I C7I 1_555 1_555
H4V C7V 1_555 1_555
H4F C7F 1_555 1_555
H4M C7M 1_555 1_555
O4F N1 1_555 1_555
O4I N1 1_555 1_555
N2V C8 1_555 1_555
H5V N2V 1_555 1_555
H6V N2V 1_555 1_555
H7V N3 1_555 1_555
C4 C5 1_555 1_555
C6 C7 1_555 1_555
C1I C1P 1_555 1_555
C4P C5P 1_555 1_555
C4I C5I 1_555 1_555
C4V C5V 1_555 1_555
C4F C5F 1_555 1_555
C4M C5M 1_555 1_555
C6P C7P 1_555 1_555
C6I C7I 1_555 1_555
C6V C7V 1_555 1_555
C6F C7F 1_555 1_555
C6M C7M 1_555 1_555

#END
