
#######################################################################
#
#                 Cambridge Crystallographic Data Centre
#                                CCDC 
#
#######################################################################
#
# If this CIF has been generated from an entry in the Cambridge 
# Structural Database, then it will include bibliographic, chemical, 
# crystal, experimental, refinement or atomic coordinate data resulting 
# from the CCDC's data processing and validation procedures.
#
#######################################################################

data_UTUCOC
_chemical_formula_moiety         
'2(C42 H24 O18 S6 6-),11(C1 H6 N3 1+),2(N1 O3 1-),3(Na1 1+),0.5(C9 H16 N1 O2)'
_chemical_name_systematic        
'undecakis(Guanidinium) tri-sodium bis(hexakis(4-sulfonatophenyl)benzene) dinitrate hemikis(2,2,6,6-tetramethylpiperidine-4-oxo-1-oxyl) clathrate'
_symmetry_cell_setting           cubic
_symmetry_space_group_name_H-M   'I -4 3 m'
_symmetry_Int_Tables_number      217
_space_group_name_Hall           'I -4 2 3'
loop_
_symmetry_equiv_pos_site_id
_symmetry_equiv_pos_as_xyz
1 x,y,z
2 -x,-y,z
3 -x,y,-z
4 x,-y,-z
5 z,x,y
6 z,-x,-y
7 -z,-x,y
8 -z,x,-y
9 y,z,x
10 -y,z,-x
11 y,-z,-x
12 -y,-z,x
13 y,x,z
14 -y,-x,z
15 y,-x,-z
16 -y,x,-z
17 x,z,y
18 -x,z,-y
19 -x,-z,y
20 x,-z,-y
21 z,y,x
22 z,-y,-x
23 -z,y,-x
24 -z,-y,x
25 1/2+x,1/2+y,1/2+z
26 1/2-x,1/2-y,1/2+z
27 1/2-x,1/2+y,1/2-z
28 1/2+x,1/2-y,1/2-z
29 1/2+z,1/2+x,1/2+y
30 1/2+z,1/2-x,1/2-y
31 1/2-z,1/2-x,1/2+y
32 1/2-z,1/2+x,1/2-y
33 1/2+y,1/2+z,1/2+x
34 1/2-y,1/2+z,1/2-x
35 1/2+y,1/2-z,1/2-x
36 1/2-y,1/2-z,1/2+x
37 1/2+y,1/2+x,1/2+z
38 1/2-y,1/2-x,1/2+z
39 1/2+y,1/2-x,1/2-z
40 1/2-y,1/2+x,1/2-z
41 1/2+x,1/2+z,1/2+y
42 1/2-x,1/2+z,1/2-y
43 1/2-x,1/2-z,1/2+y
44 1/2+x,1/2-z,1/2-y
45 1/2+z,1/2+y,1/2+x
46 1/2+z,1/2-y,1/2-x
47 1/2-z,1/2+y,1/2-x
48 1/2-z,1/2-y,1/2+x
_cell_length_a                   26.7654(12)
_cell_length_b                   26.7654(12)
_cell_length_c                   26.7654(12)
_cell_angle_alpha                90
_cell_angle_beta                 90
_cell_angle_gamma                90
_cell_volume                     19174.4
_exptl_crystal_colour            colorless
_exptl_crystal_description       block
_cell_formula_units_Z            4
loop_
_atom_site_label
_atom_site_type_symbol
_atom_site_fract_x
_atom_site_fract_y
_atom_site_fract_z
S1 S 0.1100(3) 0.6883(4) 0.4939(3)
O1 O 0.0719(7) 0.7253(7) 0.5147(7)
O2 O 0.1308(7) 0.7241(8) 0.4641(8)
O3 O 0.1068(6) 0.6358(8) 0.4809(6)
C1 C 0.2725(6) 0.6915(5) 0.6542(6)
C2 C 0.2339(5) 0.6936(5) 0.6141(5)
C3 C 0.2406(5) 0.6664(5) 0.5703(6)
H1 H 0.2709 0.6489 0.5648
C4 C 0.2028(6) 0.6649(5) 0.5347(4)
H2 H 0.2074 0.6463 0.5048
C5 C 0.1584(5) 0.6906(6) 0.5428(5)
C6 C 0.1518(4) 0.7178(5) 0.5865(6)
H3 H 0.1214 0.7354 0.5921
C7 C 0.1895(5) 0.7193(4) 0.6222(4)
H4 H 0.1850 0.7379 0.6521
S1P S 0.1100(3) 0.4939(3) 0.6883(4)
S1I S 0.3117(4) 0.4939(3) 0.8900(3)
S1V S 0.5061(3) 0.6883(4) 0.8900(3)
S1F S 0.5061(3) 0.8900(3) 0.6883(4)
S1M S 0.3117(4) 0.8900(3) 0.4939(3)
O1P O 0.0719(7) 0.5147(7) 0.7253(7)
O1I O 0.2747(7) 0.5147(7) 0.9281(7)
O1V O 0.4853(7) 0.7253(7) 0.9281(7)
O1F O 0.4853(7) 0.9281(7) 0.7253(7)
O1M O 0.2747(7) 0.9281(7) 0.5147(7)
O2P O 0.1308(7) 0.4641(8) 0.7241(8)
O2I O 0.2759(8) 0.4641(8) 0.8692(7)
O2V O 0.5359(8) 0.7241(8) 0.8692(7)
O2F O 0.5359(8) 0.8692(7) 0.7241(8)
O2M O 0.2759(8) 0.8692(7) 0.4641(8)
O3P O 0.1068(6) 0.4809(6) 0.6358(8)
O3I O 0.3642(8) 0.4809(6) 0.8932(6)
O3V O 0.5191(6) 0.6358(8) 0.8932(6)
O3F O 0.5191(6) 0.8932(6) 0.6358(8)
O3M O 0.3642(8) 0.8932(6) 0.4809(6)
C1M C 0.3085(5) 0.7275(6) 0.6542(6)
C1F C 0.3458(6) 0.7275(6) 0.6915(5)
C1V C 0.3458(6) 0.6915(5) 0.7275(6)
C1I C 0.3085(5) 0.6542(6) 0.7275(6)
C1P C 0.2725(6) 0.6542(6) 0.6915(5)
C2P C 0.2339(5) 0.6141(5) 0.6936(5)
C2I C 0.3064(5) 0.6141(5) 0.7661(5)
C2V C 0.3859(5) 0.6936(5) 0.7661(5)
C2F C 0.3859(5) 0.7661(5) 0.6936(5)
C2M C 0.3064(5) 0.7661(5) 0.6141(5)
C3P C 0.2406(5) 0.5703(6) 0.6664(5)
C3I C 0.3336(5) 0.5703(6) 0.7594(5)
C3V C 0.4297(6) 0.6664(5) 0.7594(5)
C3F C 0.4297(6) 0.7594(5) 0.6664(5)
C3M C 0.3336(5) 0.7594(5) 0.5703(6)
H1P H 0.2709 0.5648 0.6489
H1I H 0.3511 0.5648 0.7291
H1V H 0.4352 0.6489 0.7291
H1F H 0.4352 0.7291 0.6489
H1M H 0.3511 0.7291 0.5648
C4P C 0.2028(6) 0.5347(4) 0.6649(5)
C4I C 0.3351(5) 0.5347(4) 0.7972(6)
C4V C 0.4653(4) 0.6649(5) 0.7972(6)
C4F C 0.4653(4) 0.7972(6) 0.6649(5)
C4M C 0.3351(5) 0.7972(6) 0.5347(4)
H2P H 0.2074 0.5048 0.6463
H2I H 0.3537 0.5048 0.7926
H2V H 0.4952 0.6463 0.7926
H2F H 0.4952 0.7926 0.6463
H2M H 0.3537 0.7926 0.5048
C5P C 0.1584(5) 0.5428(5) 0.6906(6)
C5I C 0.3094(6) 0.5428(5) 0.8416(5)
C5V C 0.4572(5) 0.6906(6) 0.8416(5)
C5F C 0.4572(5) 0.8416(5) 0.6906(6)
C5M C 0.3094(6) 0.8416(5) 0.5428(5)
C6P C 0.1518(4) 0.5865(6) 0.7178(5)
C6I C 0.2822(5) 0.5865(6) 0.8482(4)
C6V C 0.4135(6) 0.7178(5) 0.8482(4)
C6F C 0.4135(6) 0.8482(4) 0.7178(5)
C6M C 0.2822(5) 0.8482(4) 0.5865(6)
H3P H 0.1214 0.5921 0.7354
H3I H 0.2646 0.5921 0.8786
H3V H 0.4079 0.7354 0.8786
H3F H 0.4079 0.8786 0.7354
H3M H 0.2646 0.8786 0.5921
C7P C 0.1895(5) 0.6222(4) 0.7193(4)
C7I C 0.2807(4) 0.6222(4) 0.8105(5)
C7V C 0.3778(4) 0.7193(4) 0.8105(5)
C7F C 0.3778(4) 0.8105(5) 0.7193(4)
C7M C 0.2807(4) 0.8105(5) 0.6222(4)
H4P H 0.1850 0.6521 0.7379
H4I H 0.2621 0.6521 0.8150
H4V H 0.3479 0.7379 0.8150
H4F H 0.3479 0.8150 0.7379
H4M H 0.2621 0.8150 0.6521
N1 N 0.2251(9) 0.7749(9) 0.7749(9)
O4 O 0.2456(5) 0.8117(7) 0.7544(5)
O4F O 0.2456(5) 0.7544(5) 0.8117(7)
O4I O 0.1883(7) 0.7544(5) 0.7544(5)
C8 C 0.1414(11) 0.6682(14) 0.8586(11)
N2 N 0.1237(5) 0.6900(8) 0.8145(7)
H5 H 0.0939 0.6821 0.8031
H6 H 0.1424 0.7116 0.7983
N3 N 0.1168(8) 0.6375(11) 0.8832(8)
H7 H 0.0868 0.6285 0.8731
H8 H 0.1293 0.6247 0.9108
N2V N 0.1855(7) 0.6900(8) 0.8763(5)
H5V H 0.1969 0.6821 0.9061
H6V H 0.2017 0.7116 0.8576
Na1 Na 0.0000 0.7613(12) 0.5000
Na1SA Na 0.0000 0.7387(12) 0.5000
loop_
_geom_bond_atom_site_label_1
_geom_bond_atom_site_label_2
_geom_bond_site_symmetry_1
_geom_bond_site_symmetry_2
Na1 Na1SA 1_555 1_555
S1 O1 1_555 1_555
O2 S1 1_555 1_555
O3 S1 1_555 1_555
C1 C2 1_555 1_555
C2 C3 1_555 1_555
C3 H1 1_555 1_555
C4 C3 1_555 1_555
H2 C4 1_555 1_555
C5 S1 1_555 1_555
C6 C5 1_555 1_555
H3 C6 1_555 1_555
C7 C2 1_555 1_555
H4 C7 1_555 1_555
N1 O4 1_555 1_555
C8 N2 1_555 1_555
N2 H5 1_555 1_555
H6 N2 1_555 1_555
N3 C8 1_555 1_555
H7 N3 1_555 1_555
H8 N3 1_555 1_555
S1P O1P 1_555 1_555
S1I O1I 1_555 1_555
S1V O1V 1_555 1_555
S1F O1F 1_555 1_555
S1M O1M 1_555 1_555
O2P S1P 1_555 1_555
O2I S1I 1_555 1_555
O2V S1V 1_555 1_555
O2F S1F 1_555 1_555
O2M S1M 1_555 1_555
O3P S1P 1_555 1_555
O3I S1I 1_555 1_555
O3V S1V 1_555 1_555
O3F S1F 1_555 1_555
O3M S1M 1_555 1_555
C1M C1 1_555 1_555
C1F C1M 1_555 1_555
C1V C1F 1_555 1_555
C1I C1V 1_555 1_555
C1P C1 1_555 1_555
C2P C1P 1_555 1_555
C2I C1I 1_555 1_555
C2V C1V 1_555 1_555
C2F C1F 1_555 1_555
C2M C1M 1_555 1_555
C3P C2P 1_555 1_555
C3I C2I 1_555 1_555
C3V C2V 1_555 1_555
C3F C2F 1_555 1_555
C3M C2M 1_555 1_555
H1P C3P 1_555 1_555
H1I C3I 1_555 1_555
H1V C3V 1_555 1_555
H1F C3F 1_555 1_555
H1M C3M 1_555 1_555
C4P C3P 1_555 1_555
C4I C3I 1_555 1_555
C4V C3V 1_555 1_555
C4F C3F 1_555 1_555
C4M C3M 1_555 1_555
H2P C4P 1_555 1_555
H2I C4I 1_555 1_555
H2V C4V 1_555 1_555
H2F C4F 1_555 1_555
H2M C4M 1_555 1_555
C5P S1P 1_555 1_555
C5I S1I 1_555 1_555
C5V S1V 1_555 1_555
C5F S1F 1_555 1_555
C5M S1M 1_555 1_555
C6P C5P 1_555 1_555
C6I C5I 1_555 1_555
C6V C5V 1_555 1_555
C6F C5F 1_555 1_555
C6M C5M 1_555 1_555
H3P C6P 1_555 1_555
H3I C6I 1_555 1_555
H3V C6V 1_555 1_555
H3F C6F 1_555 1_555
H3M C6M 1_555 1_555
C7P C2P 1_555 1_555
C7I C2I 1_555 1_555
C7V C2V 1_555 1_555
C7F C2F 1_555 1_555
C7M C2M 1_555 1_555
H4P C7P 1_555 1_555
H4I C7I 1_555 1_555
H4V C7V 1_555 1_555
H4F C7F 1_555 1_555
H4M C7M 1_555 1_555
O4F N1 1_555 1_555
O4I N1 1_555 1_555
N2V C8 1_555 1_555
H5V N2V 1_555 1_555
H6V N2V 1_555 1_555
C4 C5 1_555 1_555
C6 C7 1_555 1_555
C1I C1P 1_555 1_555
C4P C5P 1_555 1_555
C4I C5I 1_555 1_555
C4V C5V 1_555 1_555
C4F C5F 1_555 1_555
C4M C5M 1_555 1_555
C6P C7P 1_555 1_555
C6I C7I 1_555 1_555
C6V C7V 1_555 1_555
C6F C7F 1_555 1_555
C6M C7M 1_555 1_555

#END
