
#######################################################################
#
#                 Cambridge Crystallographic Data Centre
#                                CCDC 
#
#######################################################################
#
# If this CIF has been generated from an entry in the Cambridge 
# Structural Database, then it will include bibliographic, chemical, 
# crystal, experimental, refinement or atomic coordinate data resulting 
# from the CCDC's data processing and validation procedures.
#
#######################################################################

data_UTUCES
_chemical_formula_moiety         
'2(C42 H24 O18 S6 6-),11(C1 H6 N3 1+),2(N1 O3 1-),3(Na1 1+),3.5(C7 H7 N1 O1)'
_chemical_name_systematic        
'undecakis(Guanidinium) bis(hexakis(4-sulfonatophenyl)benzene) tri-sodium dinitrate benzamide clathrate'
_symmetry_cell_setting           cubic
_symmetry_space_group_name_H-M   'I -4 3 m'
_symmetry_Int_Tables_number      217
_space_group_name_Hall           'I -4 2 3'
loop_
_symmetry_equiv_pos_site_id
_symmetry_equiv_pos_as_xyz
1 x,y,z
2 -x,-y,z
3 -x,y,-z
4 x,-y,-z
5 z,x,y
6 z,-x,-y
7 -z,-x,y
8 -z,x,-y
9 y,z,x
10 -y,z,-x
11 y,-z,-x
12 -y,-z,x
13 y,x,z
14 -y,-x,z
15 y,-x,-z
16 -y,x,-z
17 x,z,y
18 -x,z,-y
19 -x,-z,y
20 x,-z,-y
21 z,y,x
22 z,-y,-x
23 -z,y,-x
24 -z,-y,x
25 1/2+x,1/2+y,1/2+z
26 1/2-x,1/2-y,1/2+z
27 1/2-x,1/2+y,1/2-z
28 1/2+x,1/2-y,1/2-z
29 1/2+z,1/2+x,1/2+y
30 1/2+z,1/2-x,1/2-y
31 1/2-z,1/2-x,1/2+y
32 1/2-z,1/2+x,1/2-y
33 1/2+y,1/2+z,1/2+x
34 1/2-y,1/2+z,1/2-x
35 1/2+y,1/2-z,1/2-x
36 1/2-y,1/2-z,1/2+x
37 1/2+y,1/2+x,1/2+z
38 1/2-y,1/2-x,1/2+z
39 1/2+y,1/2-x,1/2-z
40 1/2-y,1/2+x,1/2-z
41 1/2+x,1/2+z,1/2+y
42 1/2-x,1/2+z,1/2-y
43 1/2-x,1/2-z,1/2+y
44 1/2+x,1/2-z,1/2-y
45 1/2+z,1/2+y,1/2+x
46 1/2+z,1/2-y,1/2-x
47 1/2-z,1/2+y,1/2-x
48 1/2-z,1/2-y,1/2+x
_cell_length_a                   26.980(3)
_cell_length_b                   26.980(3)
_cell_length_c                   26.980(3)
_cell_angle_alpha                90
_cell_angle_beta                 90
_cell_angle_gamma                90
_cell_volume                     19639.3
_exptl_crystal_colour            colorless
_exptl_crystal_description       block
_cell_formula_units_Z            4
loop_
_atom_site_label
_atom_site_type_symbol
_atom_site_fract_x
_atom_site_fract_y
_atom_site_fract_z
S1 S 0.88364(11) 0.29891(17) 0.50490(12)
O1 O 0.9259(3) 0.2738(4) 0.4812(3)
O2 O 0.8625(3) 0.2678(3) 0.5420(3)
O3 O 0.8915(3) 0.3525(4) 0.5211(2)
C1 C 0.7285(3) 0.3112(3) 0.3470(3)
C2 C 0.7659(3) 0.3090(3) 0.3848(3)
C3 C 0.7590(4) 0.3328(4) 0.4298(4)
H1 H 0.7301 0.3520 0.4356
C4 C 0.7949(5) 0.3281(4) 0.4662(4)
H2 H 0.7897 0.3420 0.4981
C5 C 0.8376(4) 0.3036(4) 0.4560(4)
C6 C 0.8465(4) 0.2812(3) 0.4125(4)
H3 H 0.8775 0.2661 0.4052
C7 C 0.8070(4) 0.2815(4) 0.3782(3)
H4 H 0.8095 0.2615 0.3493
S1P S 0.88364(11) 0.50490(12) 0.29891(17)
S1I S 0.70109(17) 0.50490(12) 0.11636(11)
S1V S 0.49510(12) 0.29891(17) 0.11636(11)
S1F S 0.49510(12) 0.11636(11) 0.29891(17)
S1M S 0.70109(17) 0.11636(11) 0.50490(12)
O1P O 0.9259(3) 0.4812(3) 0.2738(4)
O1I O 0.7262(4) 0.4812(3) 0.0741(3)
O1V O 0.5188(3) 0.2738(4) 0.0741(3)
O1F O 0.5188(3) 0.0741(3) 0.2738(4)
O1M O 0.7262(4) 0.0741(3) 0.4812(3)
O2P O 0.8625(3) 0.5420(3) 0.2678(3)
O2I O 0.7322(3) 0.5420(3) 0.1375(3)
O2V O 0.4580(3) 0.2678(3) 0.1375(3)
O2F O 0.4580(3) 0.1375(3) 0.2678(3)
O2M O 0.7322(3) 0.1375(3) 0.5420(3)
O3P O 0.8915(3) 0.5211(2) 0.3525(4)
O3I O 0.6475(4) 0.5211(2) 0.1085(3)
O3V O 0.4789(2) 0.3525(4) 0.1085(3)
O3F O 0.4789(2) 0.1085(3) 0.3525(4)
O3M O 0.6475(4) 0.1085(3) 0.5211(2)
C1M C 0.6888(3) 0.2715(3) 0.3470(3)
C1F C 0.6530(3) 0.2715(3) 0.3112(3)
C1V C 0.6530(3) 0.3112(3) 0.2715(3)
C1I C 0.6888(3) 0.3470(3) 0.2715(3)
C1P C 0.7285(3) 0.3470(3) 0.3112(3)
C2P C 0.7659(3) 0.3848(3) 0.3090(3)
C2I C 0.6910(3) 0.3848(3) 0.2341(3)
C2V C 0.6152(3) 0.3090(3) 0.2341(3)
C2F C 0.6152(3) 0.2341(3) 0.3090(3)
C2M C 0.6910(3) 0.2341(3) 0.3848(3)
C3P C 0.7590(4) 0.4298(4) 0.3328(4)
C3I C 0.6672(4) 0.4298(4) 0.2410(4)
C3V C 0.5702(4) 0.3328(4) 0.2410(4)
C3F C 0.5702(4) 0.2410(4) 0.3328(4)
C3M C 0.6672(4) 0.2410(4) 0.4298(4)
H1P H 0.7301 0.4356 0.3520
H1I H 0.6480 0.4356 0.2699
H1V H 0.5644 0.3520 0.2699
H1F H 0.5644 0.2699 0.3520
H1M H 0.6480 0.2699 0.4356
C4P C 0.7949(5) 0.4662(4) 0.3281(4)
C4I C 0.6719(4) 0.4662(4) 0.2051(5)
C4V C 0.5338(4) 0.3281(4) 0.2051(5)
C4F C 0.5338(4) 0.2051(5) 0.3281(4)
C4M C 0.6719(4) 0.2051(5) 0.4662(4)
H2P H 0.7897 0.4981 0.3420
H2I H 0.6580 0.4981 0.2103
H2V H 0.5019 0.3420 0.2103
H2F H 0.5019 0.2103 0.3420
H2M H 0.6580 0.2103 0.4981
C5P C 0.8376(4) 0.4560(4) 0.3036(4)
C5I C 0.6964(4) 0.4560(4) 0.1624(4)
C5V C 0.5440(4) 0.3036(4) 0.1624(4)
C5F C 0.5440(4) 0.1624(4) 0.3036(4)
C5M C 0.6964(4) 0.1624(4) 0.4560(4)
C6P C 0.8465(4) 0.4125(4) 0.2812(3)
C6I C 0.7188(3) 0.4125(4) 0.1535(4)
C6V C 0.5875(4) 0.2812(3) 0.1535(4)
C6F C 0.5875(4) 0.1535(4) 0.2812(3)
C6M C 0.7188(3) 0.1535(4) 0.4125(4)
H3P H 0.8775 0.4052 0.2661
H3I H 0.7339 0.4052 0.1225
H3V H 0.5948 0.2661 0.1225
H3F H 0.5948 0.1225 0.2661
H3M H 0.7339 0.1225 0.4052
C7P C 0.8070(4) 0.3782(3) 0.2815(4)
C7I C 0.7185(4) 0.3782(3) 0.1930(4)
C7V C 0.6218(3) 0.2815(4) 0.1930(4)
C7F C 0.6218(3) 0.1930(4) 0.2815(4)
C7M C 0.7185(4) 0.1930(4) 0.3782(3)
H4P H 0.8095 0.3493 0.2615
H4I H 0.7385 0.3493 0.1905
H4V H 0.6507 0.2615 0.1905
H4F H 0.6507 0.1905 0.2615
H4M H 0.7385 0.1905 0.3493
N1 N 0.7756(5) 0.2244(5) 0.2244(5)
O4 O 0.7566(3) 0.1875(4) 0.2434(3)
O4F O 0.7566(3) 0.2434(3) 0.1875(4)
O4I O 0.8125(4) 0.2434(3) 0.2434(3)
C8 C 0.8595(3) 0.3309(7) 0.1405(3)
N2 N 0.8745(3) 0.3114(3) 0.1851(3)
H5 H 0.9017 0.3223 0.1994
H6 H 0.8569 0.2879 0.1995
N3 N 0.8810(3) 0.3624(4) 0.1190(3)
H7 H 0.8686 0.3748 0.0915
H8 H 0.9095 0.3734 0.1305
N2V N 0.8149(3) 0.3114(3) 0.1255(3)
H5V H 0.8006 0.3223 0.0983
H6V H 0.8005 0.2879 0.1431
C9 C 0.6423(3) 0.3577(4) 0.0226(3)
N4 N 0.6753(3) 0.3247(4) 0.0245(3)
H9 H 0.7067 0.3328 0.0208
N5 N 0.5977(4) 0.3422(3) 0.0151(3)
H11 H 0.5919 0.3103 0.0117
H12 H 0.5731 0.3635 0.0134
H9M H 0.6672 0.2933 0.0208
N5M N 0.6578(3) 0.4023(4) 0.0151(3)
H11M H 0.6897 0.4081 0.0117
H12M H 0.6365 0.4269 0.0134
Na1 Na 1.0000 0.5000 0.2288(4)
Na1LA Na 1.0000 0.5000 0.2712(4)
H10? H 0.6670 0.2936 0.0295
loop_
_geom_bond_atom_site_label_1
_geom_bond_atom_site_label_2
_geom_bond_site_symmetry_1
_geom_bond_site_symmetry_2
Na1 Na1LA 1_555 1_555
S1 O1 1_555 1_555
O2 S1 1_555 1_555
O3 S1 1_555 1_555
C1 C2 1_555 1_555
C2 C3 1_555 1_555
C3 H1 1_555 1_555
C4 C3 1_555 1_555
H2 C4 1_555 1_555
C5 S1 1_555 1_555
C6 C5 1_555 1_555
H3 C6 1_555 1_555
C7 C2 1_555 1_555
H4 C7 1_555 1_555
N1 O4 1_555 1_555
C8 N2 1_555 1_555
N2 H5 1_555 1_555
H6 N2 1_555 1_555
N3 C8 1_555 1_555
H7 N3 1_555 1_555
H8 N3 1_555 1_555
C9 N4 1_555 1_555
N4 H9 1_555 1_555
N5 C9 1_555 1_555
H11 N5 1_555 1_555
H12 N5 1_555 1_555
S1P O1P 1_555 1_555
S1I O1I 1_555 1_555
S1V O1V 1_555 1_555
S1F O1F 1_555 1_555
S1M O1M 1_555 1_555
O2P S1P 1_555 1_555
O2I S1I 1_555 1_555
O2V S1V 1_555 1_555
O2F S1F 1_555 1_555
O2M S1M 1_555 1_555
O3P S1P 1_555 1_555
O3I S1I 1_555 1_555
O3V S1V 1_555 1_555
O3F S1F 1_555 1_555
O3M S1M 1_555 1_555
C1M C1 1_555 1_555
C1F C1M 1_555 1_555
C1V C1F 1_555 1_555
C1I C1V 1_555 1_555
C1P C1 1_555 1_555
C2P C1P 1_555 1_555
C2I C1I 1_555 1_555
C2V C1V 1_555 1_555
C2F C1F 1_555 1_555
C2M C1M 1_555 1_555
C3P C2P 1_555 1_555
C3I C2I 1_555 1_555
C3V C2V 1_555 1_555
C3F C2F 1_555 1_555
C3M C2M 1_555 1_555
H1P C3P 1_555 1_555
H1I C3I 1_555 1_555
H1V C3V 1_555 1_555
H1F C3F 1_555 1_555
H1M C3M 1_555 1_555
C4P C3P 1_555 1_555
C4I C3I 1_555 1_555
C4V C3V 1_555 1_555
C4F C3F 1_555 1_555
C4M C3M 1_555 1_555
H2P C4P 1_555 1_555
H2I C4I 1_555 1_555
H2V C4V 1_555 1_555
H2F C4F 1_555 1_555
H2M C4M 1_555 1_555
C5P S1P 1_555 1_555
C5I S1I 1_555 1_555
C5V S1V 1_555 1_555
C5F S1F 1_555 1_555
C5M S1M 1_555 1_555
C6P C5P 1_555 1_555
C6I C5I 1_555 1_555
C6V C5V 1_555 1_555
C6F C5F 1_555 1_555
C6M C5M 1_555 1_555
H3P C6P 1_555 1_555
H3I C6I 1_555 1_555
H3V C6V 1_555 1_555
H3F C6F 1_555 1_555
H3M C6M 1_555 1_555
C7P C2P 1_555 1_555
C7I C2I 1_555 1_555
C7V C2V 1_555 1_555
C7F C2F 1_555 1_555
C7M C2M 1_555 1_555
H4P C7P 1_555 1_555
H4I C7I 1_555 1_555
H4V C7V 1_555 1_555
H4F C7F 1_555 1_555
H4M C7M 1_555 1_555
O4F N1 1_555 1_555
O4I N1 1_555 1_555
N2V C8 1_555 1_555
H5V N2V 1_555 1_555
H6V N2V 1_555 1_555
H9M N4 1_555 1_555
N5M C9 1_555 1_555
H11M N5M 1_555 1_555
H12M N5M 1_555 1_555
C4 C5 1_555 1_555
C6 C7 1_555 1_555
C1I C1P 1_555 1_555
C4P C5P 1_555 1_555
C4I C5I 1_555 1_555
C4V C5V 1_555 1_555
C4F C5F 1_555 1_555
C4M C5M 1_555 1_555
C6P C7P 1_555 1_555
C6I C7I 1_555 1_555
C6V C7V 1_555 1_555
C6F C7F 1_555 1_555
C6M C7M 1_555 1_555

#END
