
#######################################################################
#
#                 Cambridge Crystallographic Data Centre
#                                CCDC 
#
#######################################################################
#
# If this CIF has been generated from an entry in the Cambridge 
# Structural Database, then it will include bibliographic, chemical, 
# crystal, experimental, refinement or atomic coordinate data resulting 
# from the CCDC's data processing and validation procedures.
#
#######################################################################

data_UTUCIW
_chemical_name_common            
'undecakis(Guanidinium) tri-sodium bis(hexakis(4-sulfonatophenyl)benzene) dinitrate aspirin clathrate'
_chemical_formula_moiety         
'11(C1 H6 N3 1+),3(Na1 1+),2(C42 H24 O18 S6 6-),2(N1 O3 1-),3.5(C9 H8 O4)'
_chemical_name_systematic        
'undecakis(Guanidinium) tri-sodium bis(hexakis(4-sulfonatophenyl)benzene) dinitrate 2-acetatobenzoic acid clathrate'
_symmetry_cell_setting           cubic
_symmetry_space_group_name_H-M   'I -4 3 m'
_symmetry_Int_Tables_number      217
_space_group_name_Hall           'I -4 2 3'
loop_
_symmetry_equiv_pos_site_id
_symmetry_equiv_pos_as_xyz
1 x,y,z
2 -x,-y,z
3 -x,y,-z
4 x,-y,-z
5 z,x,y
6 z,-x,-y
7 -z,-x,y
8 -z,x,-y
9 y,z,x
10 -y,z,-x
11 y,-z,-x
12 -y,-z,x
13 y,x,z
14 -y,-x,z
15 y,-x,-z
16 -y,x,-z
17 x,z,y
18 -x,z,-y
19 -x,-z,y
20 x,-z,-y
21 z,y,x
22 z,-y,-x
23 -z,y,-x
24 -z,-y,x
25 1/2+x,1/2+y,1/2+z
26 1/2-x,1/2-y,1/2+z
27 1/2-x,1/2+y,1/2-z
28 1/2+x,1/2-y,1/2-z
29 1/2+z,1/2+x,1/2+y
30 1/2+z,1/2-x,1/2-y
31 1/2-z,1/2-x,1/2+y
32 1/2-z,1/2+x,1/2-y
33 1/2+y,1/2+z,1/2+x
34 1/2-y,1/2+z,1/2-x
35 1/2+y,1/2-z,1/2-x
36 1/2-y,1/2-z,1/2+x
37 1/2+y,1/2+x,1/2+z
38 1/2-y,1/2-x,1/2+z
39 1/2+y,1/2-x,1/2-z
40 1/2-y,1/2+x,1/2-z
41 1/2+x,1/2+z,1/2+y
42 1/2-x,1/2+z,1/2-y
43 1/2-x,1/2-z,1/2+y
44 1/2+x,1/2-z,1/2-y
45 1/2+z,1/2+y,1/2+x
46 1/2+z,1/2-y,1/2-x
47 1/2-z,1/2+y,1/2-x
48 1/2-z,1/2-y,1/2+x
_cell_length_a                   26.8888(13)
_cell_length_b                   26.8888(13)
_cell_length_c                   26.8888(13)
_cell_angle_alpha                90
_cell_angle_beta                 90
_cell_angle_gamma                90
_cell_volume                     19440.8
_exptl_crystal_colour            colorless
_exptl_crystal_description       block
_cell_formula_units_Z            4
loop_
_atom_site_label
_atom_site_type_symbol
_atom_site_fract_x
_atom_site_fract_y
_atom_site_fract_z
N1 N 0.7770(11) 0.2230(11) 0.2230(11)
O4 O 0.7551(4) 0.2449(4) 0.1888(6)
O4F O 0.8112(6) 0.2449(4) 0.2449(4)
O4I O 0.7551(4) 0.1888(6) 0.2449(4)
C8 C 0.8575(7) 0.3272(10) 0.1425(7)
N2 N 0.8157(6) 0.3113(6) 0.1232(5)
H5 H 0.8052 0.3235 0.0948
H6 H 0.7982 0.2884 0.1387
N3 N 0.8815(6) 0.3606(9) 0.1185(6)
H7 H 0.8698 0.3720 0.0901
N2V N 0.8768(5) 0.3113(6) 0.1843(6)
H5V H 0.9052 0.3235 0.1948
H6V H 0.8613 0.2884 0.2018
H7V H 0.9099 0.3720 0.1302
Na1 Na 0.5000 0.2500 0.0000
S1 S 0.4945(3) 0.3046(3) 0.1136(3)
O1 O 0.5160(5) 0.2735(5) 0.0724(5)
O2 O 0.4591(7) 0.2705(6) 0.1362(6)
O3 O 0.4812(5) 0.3542(6) 0.1066(5)
C1 C 0.6551(3) 0.3087(3) 0.2721(3)
C2 C 0.6152(5) 0.3061(6) 0.2335(5)
C3 C 0.5707(7) 0.3314(7) 0.2409(7)
H1 H 0.5650 0.3490 0.2710
C4 C 0.5337(7) 0.3306(7) 0.2027(7)
H2 H 0.5030 0.3476 0.2066
C5 C 0.5441(6) 0.3045(7) 0.1604(7)
C6 C 0.5864(6) 0.2809(6) 0.1545(6)
H3 H 0.5918 0.2628 0.1246
C7 C 0.6222(6) 0.2812(6) 0.1890(6)
H4 H 0.6526 0.2642 0.1829
S1P S 0.4945(3) 0.1136(3) 0.3046(3)
S1I S 0.6954(3) 0.1136(3) 0.5055(3)
S1V S 0.8864(3) 0.3046(3) 0.5055(3)
S1F S 0.8864(3) 0.5055(3) 0.3046(3)
S1M S 0.6954(3) 0.5055(3) 0.1136(3)
O1P O 0.5160(5) 0.0724(5) 0.2735(5)
O1I O 0.7265(5) 0.0724(5) 0.4840(5)
O1V O 0.9276(5) 0.2735(5) 0.4840(5)
O1F O 0.9276(5) 0.4840(5) 0.2735(5)
O1M O 0.7265(5) 0.4840(5) 0.0724(5)
O2P O 0.4591(7) 0.1362(6) 0.2705(6)
O2I O 0.7295(6) 0.1362(6) 0.5409(7)
O2V O 0.8638(6) 0.2705(6) 0.5409(7)
O2F O 0.8638(6) 0.5409(7) 0.2705(6)
O2M O 0.7295(6) 0.5409(7) 0.1362(6)
O3P O 0.4812(5) 0.1066(5) 0.3542(6)
O3I O 0.6458(6) 0.1066(5) 0.5188(5)
O3V O 0.8934(5) 0.3542(6) 0.5188(5)
O3F O 0.8934(5) 0.5188(5) 0.3542(6)
O3M O 0.6458(6) 0.5188(5) 0.1066(5)
C1M C 0.6913(3) 0.3449(3) 0.2721(3)
C1F C 0.7279(3) 0.3449(3) 0.3087(3)
C1V C 0.7279(3) 0.3087(3) 0.3449(3)
C1I C 0.6913(3) 0.2721(3) 0.3449(3)
C1P C 0.6551(3) 0.2721(3) 0.3087(3)
C2P C 0.6152(5) 0.2335(5) 0.3061(6)
C2I C 0.6939(6) 0.2335(5) 0.3848(5)
C2V C 0.7665(5) 0.3061(6) 0.3848(5)
C2F C 0.7665(5) 0.3848(5) 0.3061(6)
C2M C 0.6939(6) 0.3848(5) 0.2335(5)
C3P C 0.5707(7) 0.2409(7) 0.3314(7)
C3I C 0.6686(7) 0.2409(7) 0.4293(7)
C3V C 0.7591(7) 0.3314(7) 0.4293(7)
C3F C 0.7591(7) 0.4293(7) 0.3314(7)
C3M C 0.6686(7) 0.4293(7) 0.2409(7)
H1P H 0.5650 0.2710 0.3490
H1I H 0.6510 0.2710 0.4350
H1V H 0.7290 0.3490 0.4350
H1F H 0.7290 0.4350 0.3490
H1M H 0.6510 0.4350 0.2710
C4P C 0.5337(7) 0.2027(7) 0.3306(7)
C4I C 0.6694(7) 0.2027(7) 0.4663(7)
C4V C 0.7973(7) 0.3306(7) 0.4663(7)
C4F C 0.7973(7) 0.4663(7) 0.3306(7)
C4M C 0.6694(7) 0.4663(7) 0.2027(7)
H2P H 0.5030 0.2066 0.3476
H2I H 0.6524 0.2066 0.4970
H2V H 0.7934 0.3476 0.4970
H2F H 0.7934 0.4970 0.3476
H2M H 0.6524 0.4970 0.2066
C5P C 0.5441(6) 0.1604(7) 0.3045(7)
C5I C 0.6955(7) 0.1604(7) 0.4559(6)
C5V C 0.8396(7) 0.3045(7) 0.4559(6)
C5F C 0.8396(7) 0.4559(6) 0.3045(7)
C5M C 0.6955(7) 0.4559(6) 0.1604(7)
C6P C 0.5864(6) 0.1545(6) 0.2809(6)
C6I C 0.7191(6) 0.1545(6) 0.4136(6)
C6V C 0.8455(6) 0.2809(6) 0.4136(6)
C6F C 0.8455(6) 0.4136(6) 0.2809(6)
C6M C 0.7191(6) 0.4136(6) 0.1545(6)
H3P H 0.5918 0.1246 0.2628
H3I H 0.7372 0.1246 0.4082
H3V H 0.8754 0.2628 0.4082
H3F H 0.8754 0.4082 0.2628
H3M H 0.7372 0.4082 0.1246
C7P C 0.6222(6) 0.1890(6) 0.2812(6)
C7I C 0.7188(6) 0.1890(6) 0.3778(6)
C7V C 0.8110(6) 0.2812(6) 0.3778(6)
C7F C 0.8110(6) 0.3778(6) 0.2812(6)
C7M C 0.7188(6) 0.3778(6) 0.1890(6)
H4P H 0.6526 0.1829 0.2642
H4I H 0.7358 0.1829 0.3474
H4V H 0.8171 0.2642 0.3474
H4F H 0.8171 0.3474 0.2642
H4M H 0.7358 0.3474 0.1829
loop_
_geom_bond_atom_site_label_1
_geom_bond_atom_site_label_2
_geom_bond_site_symmetry_1
_geom_bond_site_symmetry_2
S1 O1 1_555 1_555
O2 S1 1_555 1_555
O3 S1 1_555 1_555
C1 C2 1_555 1_555
C2 C3 1_555 1_555
C3 H1 1_555 1_555
C4 C3 1_555 1_555
H2 C4 1_555 1_555
C5 S1 1_555 1_555
C6 C5 1_555 1_555
H3 C6 1_555 1_555
C7 C2 1_555 1_555
H4 C7 1_555 1_555
N1 O4 1_555 1_555
C8 N2 1_555 1_555
N2 H5 1_555 1_555
H6 N2 1_555 1_555
N3 C8 1_555 1_555
H7 N3 1_555 1_555
S1P O1P 1_555 1_555
S1I O1I 1_555 1_555
S1V O1V 1_555 1_555
S1F O1F 1_555 1_555
S1M O1M 1_555 1_555
O2P S1P 1_555 1_555
O2I S1I 1_555 1_555
O2V S1V 1_555 1_555
O2F S1F 1_555 1_555
O2M S1M 1_555 1_555
O3P S1P 1_555 1_555
O3I S1I 1_555 1_555
O3V S1V 1_555 1_555
O3F S1F 1_555 1_555
O3M S1M 1_555 1_555
C1M C1 1_555 1_555
C1F C1M 1_555 1_555
C1V C1F 1_555 1_555
C1I C1V 1_555 1_555
C1P C1 1_555 1_555
C2P C1P 1_555 1_555
C2I C1I 1_555 1_555
C2V C1V 1_555 1_555
C2F C1F 1_555 1_555
C2M C1M 1_555 1_555
C3P C2P 1_555 1_555
C3I C2I 1_555 1_555
C3V C2V 1_555 1_555
C3F C2F 1_555 1_555
C3M C2M 1_555 1_555
H1P C3P 1_555 1_555
H1I C3I 1_555 1_555
H1V C3V 1_555 1_555
H1F C3F 1_555 1_555
H1M C3M 1_555 1_555
C4P C3P 1_555 1_555
C4I C3I 1_555 1_555
C4V C3V 1_555 1_555
C4F C3F 1_555 1_555
C4M C3M 1_555 1_555
H2P C4P 1_555 1_555
H2I C4I 1_555 1_555
H2V C4V 1_555 1_555
H2F C4F 1_555 1_555
H2M C4M 1_555 1_555
C5P S1P 1_555 1_555
C5I S1I 1_555 1_555
C5V S1V 1_555 1_555
C5F S1F 1_555 1_555
C5M S1M 1_555 1_555
C6P C5P 1_555 1_555
C6I C5I 1_555 1_555
C6V C5V 1_555 1_555
C6F C5F 1_555 1_555
C6M C5M 1_555 1_555
H3P C6P 1_555 1_555
H3I C6I 1_555 1_555
H3V C6V 1_555 1_555
H3F C6F 1_555 1_555
H3M C6M 1_555 1_555
C7P C2P 1_555 1_555
C7I C2I 1_555 1_555
C7V C2V 1_555 1_555
C7F C2F 1_555 1_555
C7M C2M 1_555 1_555
H4P C7P 1_555 1_555
H4I C7I 1_555 1_555
H4V C7V 1_555 1_555
H4F C7F 1_555 1_555
H4M C7M 1_555 1_555
O4F N1 1_555 1_555
O4I N1 1_555 1_555
N2V C8 1_555 1_555
H5V N2V 1_555 1_555
H6V N2V 1_555 1_555
H7V N3 1_555 1_555
C4 C5 1_555 1_555
C6 C7 1_555 1_555
C1I C1P 1_555 1_555
C4P C5P 1_555 1_555
C4I C5I 1_555 1_555
C4V C5V 1_555 1_555
C4F C5F 1_555 1_555
C4M C5M 1_555 1_555
C6P C7P 1_555 1_555
C6I C7I 1_555 1_555
C6V C7V 1_555 1_555
C6F C7F 1_555 1_555
C6M C7M 1_555 1_555

#END
