
#######################################################################
#
#                 Cambridge Crystallographic Data Centre
#                                CCDC 
#
#######################################################################
#
# If this CIF has been generated from an entry in the Cambridge 
# Structural Database, then it will include bibliographic, chemical, 
# crystal, experimental, refinement or atomic coordinate data resulting 
# from the CCDC's data processing and validation procedures.
#
#######################################################################

data_UTUJEZ
_chemical_formula_moiety         'C22 H13 N1 O2'
_chemical_name_systematic        
6-Phenylbenzo[f]pyrido[2,1-a]isoindole-7,12-dione
_symmetry_cell_setting           monoclinic
_symmetry_space_group_name_H-M   'P 21/c'
_symmetry_Int_Tables_number      14
_space_group_name_Hall           '-P 2ybc'
loop_
_symmetry_equiv_pos_site_id
_symmetry_equiv_pos_as_xyz
1 x,y,z
2 -x,1/2+y,1/2-z
3 -x,-y,-z
4 x,1/2-y,1/2+z
_cell_length_a                   6.2870(12)
_cell_length_b                   23.752(5)
_cell_length_c                   10.3659(19)
_cell_angle_alpha                90
_cell_angle_beta                 100.270(3)
_cell_angle_gamma                90
_cell_volume                     1523.13
_exptl_crystal_colour            orange
_chemical_melting_point          '284-285 deg.C'
_cell_formula_units_Z            4
loop_
_atom_site_label
_atom_site_type_symbol
_atom_site_fract_x
_atom_site_fract_y
_atom_site_fract_z
C1 C -0.0108(3) 0.40115(8) 0.15951(19)
C2 C 0.0803(3) 0.34836(8) 0.20214(19)
C3 C -0.0658(3) 0.30631(8) 0.15655(19)
C4 C -0.4353(3) 0.30874(9) 0.0203(2)
H1 H -0.4512 0.2698 0.0176
C5 C -0.5947(3) 0.34211(9) -0.0406(2)
H2 H -0.7222 0.3260 -0.0842
C6 C -0.5718(3) 0.40139(9) -0.0394(2)
H3 H -0.6846 0.4240 -0.0804
C7 C -0.3845(3) 0.42505(9) 0.02184(19)
H4 H -0.3675 0.4639 0.0204
C8 C -0.2158(3) 0.39115(8) 0.08746(19)
C9 C 0.0949(3) 0.45411(8) 0.19350(19)
C10 C 0.3190(3) 0.44979(8) 0.27186(19)
C11 C 0.4390(3) 0.49859(9) 0.3001(2)
H5 H 0.3781 0.5332 0.2722
C12 C 0.6474(4) 0.49643(10) 0.3691(2)
H6 H 0.7277 0.5294 0.3856
C13 C 0.7368(4) 0.44573(11) 0.4135(2)
H7 H 0.8771 0.4445 0.4609
C14 C 0.6196(3) 0.39642(10) 0.3882(2)
H8 H 0.6808 0.3623 0.4191
C15 C 0.4107(3) 0.39783(8) 0.31668(19)
C16 C 0.2921(3) 0.34367(9) 0.2868(2)
C17 C -0.0534(3) 0.24446(8) 0.16802(18)
C18 C -0.1894(3) 0.21494(9) 0.2351(2)
H9 H -0.2930 0.2341 0.2719
C19 C -0.1714(4) 0.15723(9) 0.2475(2)
H10 H -0.2643 0.1377 0.2920
C20 C -0.0193(3) 0.12826(9) 0.1952(2)
H11 H -0.0066 0.0894 0.2054
C21 C 0.1152(3) 0.15736(9) 0.1271(2)
H12 H 0.2179 0.1380 0.0900
C22 C 0.0980(3) 0.21478(9) 0.1140(2)
H13 H 0.1897 0.2340 0.0680
N1 N -0.2478(2) 0.33282(6) 0.08682(15)
O1 O 0.0128(2) 0.50032(6) 0.16217(15)
O2 O 0.3695(2) 0.29886(6) 0.33158(16)
loop_
_geom_bond_atom_site_label_1
_geom_bond_atom_site_label_2
_geom_bond_site_symmetry_1
_geom_bond_site_symmetry_2
C1 C2 1_555 1_555
C2 C3 1_555 1_555
C3 C17 1_555 1_555
C4 H1 1_555 1_555
C5 C4 1_555 1_555
H2 C5 1_555 1_555
C6 C5 1_555 1_555
H3 C6 1_555 1_555
C7 C6 1_555 1_555
H4 C7 1_555 1_555
C8 C1 1_555 1_555
C9 C1 1_555 1_555
C10 C9 1_555 1_555
C11 C10 1_555 1_555
H5 C11 1_555 1_555
C12 C11 1_555 1_555
H6 C12 1_555 1_555
C13 C12 1_555 1_555
H7 C13 1_555 1_555
C14 C13 1_555 1_555
H8 C14 1_555 1_555
C15 C10 1_555 1_555
C16 C2 1_555 1_555
C17 C18 1_555 1_555
C18 H9 1_555 1_555
C19 C18 1_555 1_555
H10 C19 1_555 1_555
C20 C19 1_555 1_555
H11 C20 1_555 1_555
C21 C20 1_555 1_555
H12 C21 1_555 1_555
C22 C17 1_555 1_555
H13 C22 1_555 1_555
N1 C3 1_555 1_555
O1 C9 1_555 1_555
O2 C16 1_555 1_555
C4 N1 1_555 1_555
C7 C8 1_555 1_555
C8 N1 1_555 1_555
C14 C15 1_555 1_555
C15 C16 1_555 1_555
C21 C22 1_555 1_555

#END
