
#######################################################################
#
#                 Cambridge Crystallographic Data Centre
#                                CCDC 
#
#######################################################################
#
# If this CIF has been generated from an entry in the Cambridge 
# Structural Database, then it will include bibliographic, chemical, 
# crystal, experimental, refinement or atomic coordinate data resulting 
# from the CCDC's data processing and validation procedures.
#
#######################################################################

data_UTUQOR
_chemical_formula_moiety         'C19 H20 N1 O2 Se1 1+,I1 1-,0.5(C6 H6 O2)'
_chemical_name_systematic        
'2-(2-(3,4-dimethoxyphenyl)vinyl)-3-ethyl-1,3-benzoselenazol-3-ium iodide hydroquinone solvate'
_symmetry_cell_setting           triclinic
_symmetry_space_group_name_H-M   'P -1'
_symmetry_Int_Tables_number      2
_space_group_name_Hall           '-P 1'
loop_
_symmetry_equiv_pos_site_id
_symmetry_equiv_pos_as_xyz
1 x,y,z
2 -x,-y,-z
_cell_length_a                   11.8766(3)
_cell_length_b                   12.7576(4)
_cell_length_c                   15.3353(4)
_cell_angle_alpha                105.4770(10)
_cell_angle_beta                 97.1060(10)
_cell_angle_gamma                105.1850(10)
_cell_volume                     2113.78
_exptl_crystal_colour            red
_exptl_crystal_description       block
_cell_formula_units_Z            4
loop_
_atom_site_label
_atom_site_type_symbol
_atom_site_fract_x
_atom_site_fract_y
_atom_site_fract_z
I1 I 0.277449(14) 0.695704(13) 0.449367(10)
I2 I -0.224581(14) 0.186874(14) 0.087740(11)
Se1 Se 0.191530(19) 0.092862(19) -0.158732(15)
O1 O 0.21664(14) 0.09790(14) 0.40734(10)
O2 O 0.05185(14) 0.17475(14) 0.35485(10)
N1 N 0.00880(15) 0.17864(14) -0.15011(11)
C1 C 0.08063(18) 0.14450(16) -0.09712(14)
C2 C 0.07539(18) 0.14687(17) -0.00402(14)
H1 H 0.0240 0.1803 0.0258
C3 C 0.14460(18) 0.10082(17) 0.04075(14)
H2 H 0.1921 0.0669 0.0063
C4 C 0.15546(18) 0.09668(16) 0.13493(14)
C5 C 0.24225(18) 0.05133(17) 0.16496(14)
H3 H 0.2857 0.0218 0.1236
C6 C 0.26502(18) 0.04936(18) 0.25526(14)
H4 H 0.3236 0.0194 0.2744
C7 C 0.19992(18) 0.09229(17) 0.31678(14)
C8 C 0.10936(18) 0.13615(17) 0.28740(14)
C9 C 0.08709(18) 0.13794(17) 0.19745(14)
H5 H 0.0272 0.1662 0.1779
C10 C 0.3088(2) 0.0568(2) 0.44118(16)
H6 H 0.2902 -0.0233 0.4094
H7 H 0.3146 0.0688 0.5063
H8 H 0.3835 0.0975 0.4305
C11 C -0.0394(2) 0.2215(3) 0.33121(17)
H9 H -0.0991 0.1657 0.2802
H10 H -0.0057 0.2882 0.3140
H11 H -0.0752 0.2421 0.3834
C12 C 0.12099(18) 0.12536(18) -0.26073(14)
C13 C 0.02840(18) 0.16923(17) -0.24037(14)
C14 C -0.03748(19) 0.19847(18) -0.30718(15)
H12 H -0.0987 0.2291 -0.2941
C15 C -0.0082(2) 0.18015(19) -0.39346(15)
H13 H -0.0515 0.1981 -0.4391
C16 C 0.0841(2) 0.1358(2) -0.41392(16)
H14 H 0.1016 0.1246 -0.4725
C17 C 0.1499(2) 0.1081(2) -0.34718(16)
H15 H 0.2120 0.0787 -0.3601
C18 C -0.08572(19) 0.22436(18) -0.11759(14)
H16 H -0.1151 0.1899 -0.0723
H17 H -0.1517 0.2041 -0.1693
C19 C -0.0404(2) 0.3530(2) -0.07467(19)
H18 H -0.0125 0.3874 -0.1197
H19 H 0.0239 0.3732 -0.0227
H20 H -0.1040 0.3800 -0.0544
Se2 Se 0.43135(2) 0.34355(2) 0.665673(15)
O3 O 0.40000(15) 0.30393(14) 0.08970(11)
O4 O 0.25867(17) 0.40494(15) 0.16191(11)
N2 N 0.28260(16) 0.46929(15) 0.66893(12)
C20 C 0.34042(19) 0.41753(18) 0.61079(15)
C21 C 0.33439(19) 0.41533(18) 0.51692(15)
H21 H 0.2814 0.4462 0.4906
C22 C 0.40410(19) 0.36936(18) 0.46534(15)
H22 H 0.4576 0.3420 0.4953
C23 C 0.40538(19) 0.35765(17) 0.36907(14)
C24 C 0.48521(19) 0.30700(18) 0.32910(15)
H23 H 0.5373 0.2845 0.3652
C25 C 0.48807(19) 0.28971(19) 0.23588(15)
H24 H 0.5422 0.2566 0.2100
C26 C 0.4096(2) 0.32223(18) 0.18218(14)
C27 C 0.3298(2) 0.37556(18) 0.22216(15)
C28 C 0.3281(2) 0.39339(18) 0.31422(15)
H25 H 0.2760 0.4291 0.3405
C29 C 0.4696(2) 0.2393(2) 0.04496(16)
H26 H 0.4529 0.2291 -0.0202
H27 H 0.4501 0.1660 0.0547
H28 H 0.5528 0.2794 0.0701
C30 C 0.1691(3) 0.4500(3) 0.19680(18)
H29 H 0.1241 0.4668 0.1487
H30 H 0.2064 0.5189 0.2477
H31 H 0.1167 0.3948 0.2174
C31 C 0.3737(2) 0.39519(18) 0.77235(15)
C32 C 0.29739(19) 0.45764(18) 0.75777(15)
C33 C 0.2450(2) 0.5043(2) 0.82859(16)
H32 H 0.1935 0.5459 0.8195
C34 C 0.2721(2) 0.4868(2) 0.91322(17)
H33 H 0.2382 0.5177 0.9614
C35 C 0.3481(2) 0.4246(2) 0.92787(17)
H34 H 0.3641 0.4139 0.9852
C36 C 0.4003(2) 0.3783(2) 0.85756(16)
H35 H 0.4519 0.3368 0.8670
C37 C 0.2106(2) 0.54012(19) 0.64401(16)
H36 H 0.2410 0.5709 0.5972
H37 H 0.2182 0.6039 0.6981
C38 C 0.0802(2) 0.4711(2) 0.6077(2)
H38 H 0.0719 0.4108 0.5519
H39 H 0.0355 0.5199 0.5950
H40 H 0.0505 0.4387 0.6533
C39 C 0.4138(2) -0.0310(2) -0.25726(17)
C40 C 0.4840(2) 0.0421(2) -0.17284(16)
H41 H 0.4741 0.0235 -0.1190
C41 C 0.5693(2) 0.1430(2) -0.16819(16)
H42 H 0.6165 0.1917 -0.1114
C42 C 0.5838(2) 0.1707(2) -0.24853(17)
C43 C 0.5139(2) 0.0976(2) -0.33335(16)
H43 H 0.5239 0.1159 -0.3873
C44 C 0.4287(2) -0.0032(2) -0.33735(16)
H44 H 0.3817 -0.0520 -0.3941
O5 O 0.3287(3) -0.1342(2) -0.2698(2)
H45 H 0.3160 -0.1391 -0.2194
O6 O 0.6704(3) 0.2689(2) -0.2402(2)
H46 H 0.6818 0.2703 -0.2915
H47? H 0.3569 -0.0984 -0.2601
H48? H 0.6403 0.2383 -0.2456
O7? O 0.464(2) 0.015(2) -0.0997(17)
O8? O 0.520(2) 0.1067(19) -0.4194(16)
H49? H 0.5205 0.0566 -0.0561
H50? H 0.5015 0.0385 -0.4560
loop_
_geom_bond_atom_site_label_1
_geom_bond_atom_site_label_2
_geom_bond_site_symmetry_1
_geom_bond_site_symmetry_2
Se1 C1 1_555 1_555
O1 C7 1_555 1_555
O2 C8 1_555 1_555
N1 C1 1_555 1_555
C1 C2 1_555 1_555
C2 H1 1_555 1_555
C3 C2 1_555 1_555
H2 C3 1_555 1_555
C4 C3 1_555 1_555
C5 C4 1_555 1_555
H3 C5 1_555 1_555
C6 C5 1_555 1_555
H4 C6 1_555 1_555
C7 C6 1_555 1_555
C8 C7 1_555 1_555
C9 C4 1_555 1_555
H5 C9 1_555 1_555
C10 O1 1_555 1_555
H6 C10 1_555 1_555
H7 C10 1_555 1_555
H8 C10 1_555 1_555
C11 O2 1_555 1_555
H9 C11 1_555 1_555
H10 C11 1_555 1_555
H11 C11 1_555 1_555
C12 Se1 1_555 1_555
C13 N1 1_555 1_555
C14 C13 1_555 1_555
H12 C14 1_555 1_555
C15 C14 1_555 1_555
H13 C15 1_555 1_555
C16 C15 1_555 1_555
H14 C16 1_555 1_555
C17 C12 1_555 1_555
H15 C17 1_555 1_555
C18 N1 1_555 1_555
H16 C18 1_555 1_555
H17 C18 1_555 1_555
C19 C18 1_555 1_555
H18 C19 1_555 1_555
H19 C19 1_555 1_555
H20 C19 1_555 1_555
Se2 C20 1_555 1_555
O3 C26 1_555 1_555
O4 C27 1_555 1_555
N2 C20 1_555 1_555
C20 C21 1_555 1_555
C21 H21 1_555 1_555
C22 C21 1_555 1_555
H22 C22 1_555 1_555
C23 C22 1_555 1_555
C24 C23 1_555 1_555
H23 C24 1_555 1_555
C25 C24 1_555 1_555
H24 C25 1_555 1_555
C26 C25 1_555 1_555
C27 C26 1_555 1_555
C28 C23 1_555 1_555
H25 C28 1_555 1_555
C29 O3 1_555 1_555
H26 C29 1_555 1_555
H27 C29 1_555 1_555
H28 C29 1_555 1_555
C30 O4 1_555 1_555
H29 C30 1_555 1_555
H30 C30 1_555 1_555
H31 C30 1_555 1_555
C31 Se2 1_555 1_555
C32 N2 1_555 1_555
C33 C32 1_555 1_555
H32 C33 1_555 1_555
C34 C33 1_555 1_555
H33 C34 1_555 1_555
C35 C34 1_555 1_555
H34 C35 1_555 1_555
C36 C31 1_555 1_555
H35 C36 1_555 1_555
C37 N2 1_555 1_555
H36 C37 1_555 1_555
H37 C37 1_555 1_555
C38 C37 1_555 1_555
H38 C38 1_555 1_555
H39 C38 1_555 1_555
H40 C38 1_555 1_555
C39 C40 1_555 1_555
C40 H41 1_555 1_555
C41 C40 1_555 1_555
H42 C41 1_555 1_555
C42 C41 1_555 1_555
C43 C42 1_555 1_555
H43 C43 1_555 1_555
C44 C39 1_555 1_555
H44 C44 1_555 1_555
O5 C39 1_555 1_555
H45 O5 1_555 1_555
O6 C42 1_555 1_555
H46 O6 1_555 1_555
C8 C9 1_555 1_555
C12 C13 1_555 1_555
C16 C17 1_555 1_555
C27 C28 1_555 1_555
C31 C32 1_555 1_555
C35 C36 1_555 1_555
C43 C44 1_555 1_555

#END
