
#######################################################################
#
#                 Cambridge Crystallographic Data Centre
#                                CCDC 
#
#######################################################################
#
# If this CIF has been generated from an entry in the Cambridge 
# Structural Database, then it will include bibliographic, chemical, 
# crystal, experimental, refinement or atomic coordinate data resulting 
# from the CCDC's data processing and validation procedures.
#
#######################################################################

data_UTUQIL
_chemical_formula_moiety         'C19 H20 N1 O2 Se1 1+,I1 1-,0.5(C6 H6)'
_chemical_name_systematic        
'2-(2-(3,4-dimethoxyphenyl)vinyl)-3-ethyl-1,3-benzoselenazol-3-ium iodide benzene solvate'
_symmetry_cell_setting           triclinic
_symmetry_space_group_name_H-M   'P -1'
_symmetry_Int_Tables_number      2
_space_group_name_Hall           '-P 1'
loop_
_symmetry_equiv_pos_site_id
_symmetry_equiv_pos_as_xyz
1 x,y,z
2 -x,-y,-z
_cell_length_a                   11.6009(7)
_cell_length_b                   13.0363(8)
_cell_length_c                   15.2941(9)
_cell_angle_alpha                106.333(2)
_cell_angle_beta                 96.656(2)
_cell_angle_gamma                106.040(2)
_cell_volume                     2085.68
_exptl_crystal_colour            'dark red'
_exptl_crystal_description       needle
_cell_formula_units_Z            4
loop_
_atom_site_label
_atom_site_type_symbol
_atom_site_fract_x
_atom_site_fract_y
_atom_site_fract_z
I1 I 0.22672(3) 0.81505(2) 1.402655(18)
I2 I 0.28519(3) 0.70403(2) 0.960551(19)
Se1 Se 0.19061(4) 0.08878(4) 0.33923(3)
O1 O 0.0557(3) 0.1740(3) 0.8580(2)
O2 O 0.2170(3) 0.0913(3) 0.90745(19)
N1 N 0.0119(3) 0.1815(3) 0.3556(2)
C1 C 0.0835(3) 0.1441(3) 0.4060(3)
C2 C 0.0798(4) 0.1468(3) 0.4992(3)
H1 H 0.0299 0.1834 0.5321
C3 C 0.1475(3) 0.0972(3) 0.5414(3)
H2 H 0.1932 0.0597 0.5040
C4 C 0.1592(4) 0.0940(3) 0.6361(3)
C5 C 0.0915(4) 0.1373(3) 0.7003(3)
H3 H 0.0317 0.1684 0.6817
C6 C 0.1128(4) 0.1340(3) 0.7892(3)
C7 C 0.2003(4) 0.0862(3) 0.8168(3)
C8 C 0.2641(4) 0.0407(3) 0.7548(3)
H4 H 0.3219 0.0076 0.7735
C9 C 0.2428(4) 0.0439(3) 0.6633(3)
H5 H 0.2856 0.0118 0.6197
C10 C -0.0320(5) 0.2242(5) 0.8356(3)
H6 H -0.0958 0.1700 0.7822
H7 H 0.0082 0.2913 0.8198
H8 H -0.0693 0.2462 0.8892
C11 C 0.3084(4) 0.0480(5) 0.9398(3)
H9 H 0.2859 -0.0328 0.9054
H10 H 0.3137 0.0592 1.0065
H11 H 0.3880 0.0881 0.9298
C12 C 0.1189(3) 0.1249(3) 0.2402(3)
C13 C 0.0290(3) 0.1726(3) 0.2648(3)
C14 C -0.0366(4) 0.2043(4) 0.2004(3)
H12 H -0.0985 0.2367 0.2161
C15 C -0.0088(4) 0.1873(4) 0.1128(3)
H13 H -0.0510 0.2102 0.0687
C16 C 0.0788(4) 0.1378(4) 0.0881(3)
H14 H 0.0944 0.1255 0.0270
C17 C 0.1449(4) 0.1059(4) 0.1520(3)
H15 H 0.2056 0.0722 0.1356
C18 C -0.0818(4) 0.2273(4) 0.3929(3)
H16 H -0.1112 0.1920 0.4392
H17 H -0.1526 0.2082 0.3416
C19 C -0.0307(5) 0.3543(4) 0.4387(3)
H18 H -0.0023 0.3894 0.3929
H19 H 0.0382 0.3733 0.4904
H20 H -0.0949 0.3824 0.4624
Se2 Se 0.42104(4) 0.33960(4) 1.16162(3)
O3 O 0.2696(3) 0.4251(3) 0.6656(2)
O4 O 0.4029(3) 0.3135(3) 0.5887(2)
N2 N 0.2813(3) 0.4732(3) 1.1714(2)
C20 C 0.3363(4) 0.4194(3) 1.1113(3)
C21 C 0.3312(4) 0.4186(3) 1.0170(3)
H21 H 0.2801 0.4537 0.9921
C22 C 0.3975(4) 0.3689(3) 0.9632(3)
H22 H 0.4486 0.3368 0.9920
C23 C 0.4005(4) 0.3585(3) 0.8671(3)
C24 C 0.3304(4) 0.4023(4) 0.8156(3)
H23 H 0.2801 0.4423 0.8442
C25 C 0.3346(4) 0.3871(3) 0.7234(3)
C26 C 0.4097(4) 0.3285(3) 0.6808(3)
C27 C 0.4809(4) 0.2876(4) 0.7325(3)
H24 H 0.5327 0.2492 0.7045
C28 C 0.4761(4) 0.3031(4) 0.8251(3)
H25 H 0.5253 0.2753 0.8605
C29 C 0.1822(5) 0.4745(5) 0.7033(3)
H26 H 0.1444 0.5021 0.6578
H27 H 0.2240 0.5377 0.7608
H28 H 0.1186 0.4175 0.7169
C30 C 0.4665(4) 0.2436(4) 0.5420(3)
H29 H 0.4483 0.2325 0.4751
H30 H 0.4401 0.1703 0.5518
H31 H 0.5549 0.2798 0.5666
C31 C 0.3671(4) 0.3932(3) 1.2706(3)
C32 C 0.2954(4) 0.4610(3) 1.2599(3)
C33 C 0.2471(4) 0.5105(4) 1.3335(3)
H32 H 0.1976 0.5560 1.3267
C34 C 0.2735(4) 0.4913(4) 1.4165(3)
H33 H 0.2423 0.5254 1.4677
C35 C 0.3440(4) 0.4239(4) 1.4279(3)
H34 H 0.3587 0.4114 1.4859
C36 C 0.3925(4) 0.3753(4) 1.3558(3)
H35 H 0.4423 0.3303 1.3635
C37 C 0.2108(4) 0.5454(4) 1.1493(3)
H36 H 0.2435 0.5769 1.1020
H37 H 0.2206 0.6092 1.2062
C38 C 0.0763(4) 0.4778(4) 1.1127(4)
H38 H 0.0659 0.4190 1.0532
H39 H 0.0304 0.5281 1.1033
H40 H 0.0453 0.4426 1.1578
C39 C 0.4963(5) 0.0553(5) 1.3358(3)
H41 H 0.4899 0.0368 1.3913
C40 C 0.4221(4) -0.0192(4) 1.2511(4)
H42 H 0.3646 -0.0883 1.2487
C41 C 0.4320(4) 0.0075(4) 1.1705(3)
H43 H 0.3819 -0.0437 1.1126
C42 C 0.5146(4) 0.1085(4) 1.1739(3)
H44 H 0.5217 0.1268 1.1184
C43 C 0.5866(4) 0.1824(4) 1.2581(3)
H45 H 0.6422 0.2526 1.2607
C44 C 0.5787(4) 0.1557(5) 1.3392(3)
H46 H 0.6301 0.2065 1.3968
loop_
_geom_bond_atom_site_label_1
_geom_bond_atom_site_label_2
_geom_bond_site_symmetry_1
_geom_bond_site_symmetry_2
Se1 C1 1_555 1_555
O1 C6 1_555 1_555
O2 C7 1_555 1_555
N1 C1 1_555 1_555
C1 C2 1_555 1_555
C2 H1 1_555 1_555
C3 C2 1_555 1_555
H2 C3 1_555 1_555
C4 C3 1_555 1_555
C5 C4 1_555 1_555
H3 C5 1_555 1_555
C6 C5 1_555 1_555
C7 C6 1_555 1_555
C8 C7 1_555 1_555
H4 C8 1_555 1_555
C9 C4 1_555 1_555
H5 C9 1_555 1_555
C10 O1 1_555 1_555
H6 C10 1_555 1_555
H7 C10 1_555 1_555
H8 C10 1_555 1_555
C11 O2 1_555 1_555
H9 C11 1_555 1_555
H10 C11 1_555 1_555
H11 C11 1_555 1_555
C12 Se1 1_555 1_555
C13 N1 1_555 1_555
C14 C13 1_555 1_555
H12 C14 1_555 1_555
C15 C14 1_555 1_555
H13 C15 1_555 1_555
C16 C15 1_555 1_555
H14 C16 1_555 1_555
C17 C12 1_555 1_555
H15 C17 1_555 1_555
C18 N1 1_555 1_555
H16 C18 1_555 1_555
H17 C18 1_555 1_555
C19 C18 1_555 1_555
H18 C19 1_555 1_555
H19 C19 1_555 1_555
H20 C19 1_555 1_555
Se2 C20 1_555 1_555
O3 C25 1_555 1_555
O4 C26 1_555 1_555
N2 C20 1_555 1_555
C20 C21 1_555 1_555
C21 H21 1_555 1_555
C22 C21 1_555 1_555
H22 C22 1_555 1_555
C23 C22 1_555 1_555
C24 C23 1_555 1_555
H23 C24 1_555 1_555
C25 C24 1_555 1_555
C26 C25 1_555 1_555
C27 C26 1_555 1_555
H24 C27 1_555 1_555
C28 C23 1_555 1_555
H25 C28 1_555 1_555
C29 O3 1_555 1_555
H26 C29 1_555 1_555
H27 C29 1_555 1_555
H28 C29 1_555 1_555
C30 O4 1_555 1_555
H29 C30 1_555 1_555
H30 C30 1_555 1_555
H31 C30 1_555 1_555
C31 Se2 1_555 1_555
C32 N2 1_555 1_555
C33 C32 1_555 1_555
H32 C33 1_555 1_555
C34 C33 1_555 1_555
H33 C34 1_555 1_555
C35 C34 1_555 1_555
H34 C35 1_555 1_555
C36 C31 1_555 1_555
H35 C36 1_555 1_555
C37 N2 1_555 1_555
H36 C37 1_555 1_555
H37 C37 1_555 1_555
C38 C37 1_555 1_555
H38 C38 1_555 1_555
H39 C38 1_555 1_555
H40 C38 1_555 1_555
C39 H41 1_555 1_555
C40 C39 1_555 1_555
H42 C40 1_555 1_555
C41 C40 1_555 1_555
H43 C41 1_555 1_555
C42 C41 1_555 1_555
H44 C42 1_555 1_555
C43 C42 1_555 1_555
H45 C43 1_555 1_555
C44 C39 1_555 1_555
H46 C44 1_555 1_555
C8 C9 1_555 1_555
C12 C13 1_555 1_555
C16 C17 1_555 1_555
C27 C28 1_555 1_555
C31 C32 1_555 1_555
C35 C36 1_555 1_555
C43 C44 1_555 1_555

#END
