
#######################################################################
#
#                 Cambridge Crystallographic Data Centre
#                                CCDC 
#
#######################################################################
#
# If this CIF has been generated from an entry in the Cambridge 
# Structural Database, then it will include bibliographic, chemical, 
# crystal, experimental, refinement or atomic coordinate data resulting 
# from the CCDC's data processing and validation procedures.
#
#######################################################################

data_UTUQUX
_chemical_formula_moiety         
'C19 H20 N1 O2 Se1 1+,I1 1-,0.5(C4 H8 O2),0.3(H2 O1)'
_chemical_name_systematic        
'2-(2-(3,4-dimethoxyphenyl)vinyl)-3-ethyl-1,3-benzoselenazol-3-ium iodide ethyl acetate solvate hydrate'
_symmetry_cell_setting           triclinic
_symmetry_space_group_name_H-M   'P -1'
_symmetry_Int_Tables_number      2
_space_group_name_Hall           '-P 1'
loop_
_symmetry_equiv_pos_site_id
_symmetry_equiv_pos_as_xyz
1 x,y,z
2 -x,-y,-z
_cell_length_a                   7.3704(4)
_cell_length_b                   10.8423(5)
_cell_length_c                   14.5069(7)
_cell_angle_alpha                107.977(2)
_cell_angle_beta                 100.703(2)
_cell_angle_gamma                93.136(2)
_cell_volume                     1075.69
_exptl_crystal_colour            red
_exptl_crystal_description       prism
_cell_formula_units_Z            2
loop_
_atom_site_label
_atom_site_type_symbol
_atom_site_fract_x
_atom_site_fract_y
_atom_site_fract_z
Se1 Se 0.05333(3) 0.41236(2) 0.301790(17)
O1 O 0.5984(3) 0.60419(17) 0.87373(12)
O2 O 0.5753(2) 0.37162(17) 0.88042(12)
N1 N 0.1802(3) 0.66725(18) 0.37513(14)
C1 C 0.1820(3) 0.5609(2) 0.40327(17)
C2 C 0.2686(3) 0.5587(2) 0.49893(17)
H1 H 0.3283(3) 0.6379(2) 0.54801(17)
C3 C 0.2682(3) 0.4469(2) 0.52175(17)
H2 H 0.2078(3) 0.3701(2) 0.47013(17)
C4 C 0.3486(3) 0.4300(2) 0.61523(17)
C5 C 0.4393(3) 0.5344(2) 0.70042(17)
H3 H 0.4508(3) 0.6209(2) 0.69764(17)
C6 C 0.5109(3) 0.5112(2) 0.78720(17)
C7 C 0.4970(3) 0.3830(2) 0.79190(17)
C8 C 0.4076(3) 0.2810(2) 0.70937(18)
H4 H 0.3966(3) 0.1947(2) 0.71226(18)
C9 C 0.3335(3) 0.3047(2) 0.62166(18)
H5 H 0.2714(3) 0.2340(2) 0.56526(18)
C10 C 0.6017(4) 0.7364(3) 0.87606(19)
H6 H 0.6679(4) 0.7939(3) 0.94164(19)
H7 H 0.6655(4) 0.7487(3) 0.82542(19)
H8 H 0.4740(4) 0.7577(3) 0.86272(19)
C11 C 0.5576(4) 0.2438(3) 0.8896(2)
H9 H 0.6195(4) 0.2480(3) 0.9566(2)
H10 H 0.4256(4) 0.2118(3) 0.8777(2)
H11 H 0.6156(4) 0.1843(3) 0.8409(2)
C12 C 0.0004(3) 0.5235(2) 0.22596(17)
C13 C 0.0804(3) 0.6505(2) 0.27881(17)
C14 C 0.0577(3) 0.7487(2) 0.23592(19)
H12 H 0.1119(3) 0.8360(2) 0.27153(19)
C15 C -0.0451(3) 0.7159(3) 0.14066(19)
H13 H -0.0616(3) 0.7820(3) 0.11051(19)
C16 C -0.1257(3) 0.5887(3) 0.08710(18)
H14 H -0.1960(3) 0.5689(3) 0.02133(18)
C17 C -0.1035(3) 0.4911(2) 0.12965(17)
H15 H -0.1581(3) 0.4039(2) 0.09389(17)
C18 C 0.2738(3) 0.7970(2) 0.44150(18)
H16 H 0.3844(3) 0.7854(2) 0.48712(18)
H17 H 0.3168(3) 0.8470(2) 0.40127(18)
C19 C 0.1459(4) 0.8730(3) 0.5012(2)
H18 H 0.2121(4) 0.9581(3) 0.5442(2)
H19 H 0.0374(4) 0.8860(3) 0.4562(2)
H20 H 0.1050(4) 0.8245(3) 0.5420(2)
I1 I 0.67725(3) 0.895320(16) 0.671965(13)
O3? O 0.219(3) -0.0453(13) 0.7763(11)
H21? H -0.0156(10) -0.0976(8) 0.9996(6)
H22? H 0.1522(10) 0.0070(8) 1.0746(6)
H23? H -0.1364(13) 0.0816(9) 1.1000(7)
H24? H -0.0245(13) 0.1791(9) 1.0611(7)
H25? H -0.1916(13) 0.0750(9) 0.9864(7)
O4? O 0.1436(6) -0.2011(4) 0.8786(3)
O5? O 0.1137(6) 0.0100(4) 0.9338(3)
C20? C 0.1520(7) -0.0962(5) 0.8686(4)
C21? C 0.215(2) -0.0836(13) 0.7729(10)
H26? H 0.216(2) 0.0071(13) 0.7737(10)
H27? H 0.340(2) -0.1097(13) 0.7725(10)
H28? H 0.128(2) -0.1406(13) 0.7134(10)
C22? C 0.0471(10) -0.0077(8) 1.0175(6)
C23? C -0.0883(13) 0.0906(9) 1.0435(7)
loop_
_geom_bond_atom_site_label_1
_geom_bond_atom_site_label_2
_geom_bond_site_symmetry_1
_geom_bond_site_symmetry_2
Se1 C1 1_555 1_555
O1 C6 1_555 1_555
O2 C7 1_555 1_555
N1 C1 1_555 1_555
C1 C2 1_555 1_555
C2 H1 1_555 1_555
C3 C2 1_555 1_555
H2 C3 1_555 1_555
C4 C3 1_555 1_555
C5 C4 1_555 1_555
H3 C5 1_555 1_555
C6 C5 1_555 1_555
C7 C6 1_555 1_555
C8 C7 1_555 1_555
H4 C8 1_555 1_555
C9 C4 1_555 1_555
H5 C9 1_555 1_555
C10 O1 1_555 1_555
H6 C10 1_555 1_555
H7 C10 1_555 1_555
H8 C10 1_555 1_555
C11 O2 1_555 1_555
H9 C11 1_555 1_555
H10 C11 1_555 1_555
H11 C11 1_555 1_555
C12 Se1 1_555 1_555
C13 N1 1_555 1_555
C14 C13 1_555 1_555
H12 C14 1_555 1_555
C15 C14 1_555 1_555
H13 C15 1_555 1_555
C16 C15 1_555 1_555
H14 C16 1_555 1_555
C17 C12 1_555 1_555
H15 C17 1_555 1_555
C18 N1 1_555 1_555
H16 C18 1_555 1_555
H17 C18 1_555 1_555
C19 C18 1_555 1_555
H18 C19 1_555 1_555
H19 C19 1_555 1_555
H20 C19 1_555 1_555
C8 C9 1_555 1_555
C12 C13 1_555 1_555
C16 C17 1_555 1_555

#END
