
#######################################################################
#
#                 Cambridge Crystallographic Data Centre
#                                CCDC 
#
#######################################################################
#
# If this CIF has been generated from an entry in the Cambridge 
# Structural Database, then it will include bibliographic, chemical, 
# crystal, experimental, refinement or atomic coordinate data resulting 
# from the CCDC's data processing and validation procedures.
#
#######################################################################

data_UTUROS01
_chemical_formula_moiety         
'C19 H20 N1 O2 Se1 1+,C7 H7 O3 S1 1-,0.5(C6 H6 O2),H2 O1'
_chemical_name_systematic        
'2-(2-(3,4-dimethoxyphenyl)vinyl)-3-ethyl-3H-1,3-benzoselenazol-1-ium 4-methylbenzenesulfonate hydroquinone solvate monohydrate'
_symmetry_cell_setting           triclinic
_symmetry_space_group_name_H-M   'P -1'
_symmetry_Int_Tables_number      2
_space_group_name_Hall           '-P 1'
loop_
_symmetry_equiv_pos_site_id
_symmetry_equiv_pos_as_xyz
1 x,y,z
2 -x,-y,-z
_cell_length_a                   7.2613(3)
_cell_length_b                   12.9355(7)
_cell_length_c                   15.3053(9)
_cell_angle_alpha                109.055(5)
_cell_angle_beta                 92.175(4)
_cell_angle_gamma                96.618(4)
_cell_volume                     1345.4
_exptl_crystal_colour            orange
_exptl_crystal_description       block
_cell_formula_units_Z            2
loop_
_atom_site_label
_atom_site_type_symbol
_atom_site_fract_x
_atom_site_fract_y
_atom_site_fract_z
Se1 Se 0.17355(3) 1.206436(19) 0.505078(17)
O1 O 0.4092(3) 0.66666(15) 0.70452(13)
O2 O 0.3872(3) 0.61599(14) 0.52883(12)
N1 N 0.2033(3) 1.05518(17) 0.33826(14)
C1 C 0.1345(3) 1.2378(2) 0.39452(17)
C2 C 0.0894(3) 1.3357(2) 0.38525(19)
H1 H 0.0715 1.3963 0.4380
C3 C 0.0715(4) 1.3420(2) 0.29708(19)
H2 H 0.0423 1.4083 0.2891
C4 C 0.0958(4) 1.2526(2) 0.2195(2)
H3 H 0.0834 1.2592 0.1596
C5 C 0.1376(4) 1.1543(2) 0.22797(19)
H4 H 0.1519 1.0931 0.1750
C6 C 0.1581(3) 1.1487(2) 0.31762(18)
C7 C 0.2151(3) 1.06693(19) 0.42884(17)
C8 C 0.2545(3) 0.9803(2) 0.46260(17)
H5 H 0.2690 0.9107 0.4189
C9 C 0.2720(3) 0.9926(2) 0.55326(17)
H6 H 0.2585 1.0632 0.5957
C10 C 0.3093(3) 0.9084(2) 0.59217(17)
C11 C 0.3212(3) 0.9346(2) 0.68849(18)
H7 H 0.3063 1.0069 0.7269
C12 C 0.3547(4) 0.8557(2) 0.72879(18)
H8 H 0.3622 0.8744 0.7943
C13 C 0.3770(3) 0.7505(2) 0.67368(18)
C14 C 0.3644(3) 0.7224(2) 0.57570(18)
C15 C 0.3324(3) 0.8004(2) 0.53591(17)
H9 H 0.3257 0.7817 0.4704
C16 C 0.4135(4) 0.6875(3) 0.80229(19)
H10 H 0.4280 0.6193 0.8151
H11 H 0.2971 0.7133 0.8252
H12 H 0.5184 0.7441 0.8336
C17 C 0.3686(4) 0.5824(2) 0.42896(17)
H13 H 0.3930 0.5058 0.4027
H14 H 0.4581 0.6304 0.4082
H15 H 0.2421 0.5882 0.4081
C18 C 0.2343(4) 0.9545(2) 0.26522(18)
H16 H 0.3263 0.9176 0.2893
H17 H 0.2861 0.9738 0.2128
C19 C 0.0560(4) 0.8763(2) 0.2311(2)
H18 H 0.0815 0.8091 0.1831
H19 H -0.0336 0.9117 0.2052
H20 H 0.0044 0.8572 0.2830
S1 S 0.46199(9) 0.29037(5) 0.76580(4)
O3 O 0.5347(3) 0.22365(15) 0.68151(13)
O4 O 0.3017(2) 0.34057(16) 0.74830(14)
O5 O 0.4294(3) 0.23182(16) 0.83165(14)
C20 C 0.6405(3) 0.4015(2) 0.82216(17)
C21 C 0.8218(4) 0.3994(2) 0.79681(17)
H21 H 0.8511 0.3410 0.7450
C22 C 0.9608(4) 0.4835(2) 0.84777(17)
H22 H 1.0847 0.4820 0.8301
C23 C 0.9214(4) 0.5696(2) 0.92400(17)
C24 C 0.7375(4) 0.5718(2) 0.94692(18)
H23 H 0.7073 0.6315 0.9974
C25 C 0.5983(4) 0.4884(2) 0.89723(18)
H24 H 0.4741 0.4905 0.9143
C26 C 1.0726(4) 0.6584(2) 0.98102(19)
H25 H 1.1836 0.6565 0.9464
H26 H 1.1029 0.6457 1.0393
H27 H 1.0296 0.7306 0.9944
O6 O 0.2575(3) 0.11278(19) 0.93392(16)
H28 H 0.312(5) 0.149(3) 0.909(3)
C27 C 0.3091(4) -0.0261(2) 0.99785(18)
H29 H 0.1783 -0.0447 0.9962
C28 C 0.3806(4) 0.0584(2) 0.96623(18)
C29 C 0.5724(4) 0.0839(2) 0.96805(18)
H30 H 0.6227 0.1409 0.9459
O6A O 0.7425(3) -0.11278(19) 1.06608(16)
H28A H 0.688(5) -0.149(3) 1.091(3)
C27A C 0.6909(4) 0.0261(2) 1.00215(18)
H29A H 0.8217 0.0447 1.0038
C28A C 0.6194(4) -0.0584(2) 1.03377(18)
C29A C 0.4276(4) -0.0839(2) 1.03195(18)
H30A H 0.3773 -0.1409 1.0541
O7 O 0.1638(3) 0.43908(19) 0.61854(17)
H31 H 0.201(6) 0.419(4) 0.659(3)
H32 H 0.230(5) 0.495(3) 0.621(3)
loop_
_geom_bond_atom_site_label_1
_geom_bond_atom_site_label_2
_geom_bond_site_symmetry_1
_geom_bond_site_symmetry_2
Se1 C1 1_555 1_555
O1 C13 1_555 1_555
O2 C14 1_555 1_555
N1 C6 1_555 1_555
C1 C2 1_555 1_555
C2 H1 1_555 1_555
C3 C2 1_555 1_555
H2 C3 1_555 1_555
C4 C3 1_555 1_555
H3 C4 1_555 1_555
C5 C4 1_555 1_555
H4 C5 1_555 1_555
C6 C1 1_555 1_555
C7 Se1 1_555 1_555
C8 C7 1_555 1_555
H5 C8 1_555 1_555
C9 C8 1_555 1_555
H6 C9 1_555 1_555
C10 C9 1_555 1_555
C11 C10 1_555 1_555
H7 C11 1_555 1_555
C12 C11 1_555 1_555
H8 C12 1_555 1_555
C13 C12 1_555 1_555
C14 C13 1_555 1_555
C15 C10 1_555 1_555
H9 C15 1_555 1_555
C16 O1 1_555 1_555
H10 C16 1_555 1_555
H11 C16 1_555 1_555
H12 C16 1_555 1_555
C17 O2 1_555 1_555
H13 C17 1_555 1_555
H14 C17 1_555 1_555
H15 C17 1_555 1_555
C18 N1 1_555 1_555
H16 C18 1_555 1_555
H17 C18 1_555 1_555
C19 C18 1_555 1_555
H18 C19 1_555 1_555
H19 C19 1_555 1_555
H20 C19 1_555 1_555
S1 O3 1_555 1_555
O4 S1 1_555 1_555
O5 S1 1_555 1_555
C20 S1 1_555 1_555
C21 C20 1_555 1_555
H21 C21 1_555 1_555
C22 C21 1_555 1_555
H22 C22 1_555 1_555
C23 C22 1_555 1_555
C24 C23 1_555 1_555
H23 C24 1_555 1_555
C25 C20 1_555 1_555
H24 C25 1_555 1_555
C26 C23 1_555 1_555
H25 C26 1_555 1_555
H26 C26 1_555 1_555
H27 C26 1_555 1_555
O6 H28 1_555 1_555
C27 H29 1_555 1_555
C28 O6 1_555 1_555
C29 C28 1_555 1_555
H30 C29 1_555 1_555
O7 H31 1_555 1_555
H32 O7 1_555 1_555
O6A H28A 1_555 1_555
C27A C29 1_555 1_555
H29A C27A 1_555 1_555
C28A O6A 1_555 1_555
C29A C27 1_555 1_555
H30A C29A 1_555 1_555
N1 C7 1_555 1_555
C5 C6 1_555 1_555
C14 C15 1_555 1_555
C24 C25 1_555 1_555
C27 C28 1_555 1_555
C27A C28A 1_555 1_555
C28A C29A 1_555 1_555

#END
