
#######################################################################
#
#                 Cambridge Crystallographic Data Centre
#                                CCDC 
#
#######################################################################
#
# If this CIF has been generated from an entry in the Cambridge 
# Structural Database, then it will include bibliographic, chemical, 
# crystal, experimental, refinement or atomic coordinate data resulting 
# from the CCDC's data processing and validation procedures.
#
#######################################################################

data_UTUVOW
_chemical_formula_moiety         'C23 H21 N5 O2'
_chemical_name_systematic        
't-butyl 5-cyano-3-phenyl[1,2,4]triazepino[3,4-a]phthalazine-1(12bH)-carboxylate'
_symmetry_cell_setting           monoclinic
_symmetry_space_group_name_H-M   'P 21/n'
_symmetry_Int_Tables_number      14
_space_group_name_Hall           '-P 2yn'
loop_
_symmetry_equiv_pos_site_id
_symmetry_equiv_pos_as_xyz
1 x,y,z
2 1/2-x,1/2+y,1/2-z
3 -x,-y,-z
4 1/2+x,1/2-y,1/2+z
_cell_length_a                   5.458(2)
_cell_length_b                   17.775(7)
_cell_length_c                   20.714(8)
_cell_angle_alpha                90
_cell_angle_beta                 94.070(7)
_cell_angle_gamma                90
_cell_volume                     2004.52
_exptl_crystal_colour            yellow
_exptl_crystal_description       rod
_cell_formula_units_Z            4
loop_
_atom_site_label
_atom_site_type_symbol
_atom_site_fract_x
_atom_site_fract_y
_atom_site_fract_z
O1 O -0.0036(3) 0.44777(10) 0.34579(9)
O2 O 0.1564(3) 0.34002(9) 0.30666(8)
N1 N -0.0951(4) 0.61116(12) 0.24253(11)
N2 N 0.0922(4) 0.56435(12) 0.22588(10)
N3 N 0.2718(4) 0.45123(12) 0.26913(10)
N4 N 0.4232(4) 0.41082(12) 0.22975(10)
N5 N -0.2318(5) 0.60020(16) 0.08091(12)
C1 C 0.1188(5) 0.62088(15) 0.34957(13)
C2 C 0.1263(5) 0.65234(16) 0.41141(14)
H1 H 0.0064 0.6866 0.4218
C3 C 0.3113(5) 0.63267(17) 0.45709(14)
H2 H 0.3140 0.6529 0.4985
C4 C 0.4937(5) 0.58275(17) 0.44147(14)
H3 H 0.6193 0.5704 0.4724
C5 C 0.4904(5) 0.55135(16) 0.38064(13)
H4 H 0.6138 0.5183 0.3703
C6 C 0.3013(5) 0.56931(14) 0.33484(13)
C7 C 0.2897(4) 0.53381(14) 0.26890(12)
H5 H 0.4438 0.5464 0.2499
C8 C -0.0765(5) 0.63738(15) 0.30061(13)
H6 H -0.1996 0.6699 0.3122
C9 C 0.1300(4) 0.41431(14) 0.31140(12)
C10 C 0.0412(5) 0.28906(14) 0.35207(13)
C11 C -0.2367(5) 0.29599(17) 0.34607(15)
H7 H -0.2831 0.3453 0.3596
H8 H -0.3067 0.2589 0.3730
H9 H -0.2959 0.2881 0.3018
C12 C 0.1459(5) 0.30514(18) 0.42039(14)
H10 H 0.3220 0.3033 0.4219
H11 H 0.0873 0.2681 0.4493
H12 H 0.0947 0.3542 0.4333
C13 C 0.1213(5) 0.21283(15) 0.32894(15)
H13 H 0.0575 0.2052 0.2850
H14 H 0.0599 0.1743 0.3560
H15 H 0.2975 0.2106 0.3311
C14 C 0.4120(4) 0.43312(14) 0.16992(12)
C15 C 0.2347(5) 0.48625(15) 0.13939(13)
H16 H 0.2227 0.4838 0.0944
C16 C 0.0844(5) 0.53830(14) 0.16358(12)
C17 C 0.5891(5) 0.39499(14) 0.12884(13)
C18 C 0.5813(5) 0.40355(16) 0.06213(13)
H17 H 0.4602 0.4334 0.0413
C19 C 0.7527(6) 0.36791(17) 0.02635(14)
H18 H 0.7442 0.3739 -0.0184
C20 C 0.9342(5) 0.32410(16) 0.05585(14)
H19 H 1.0499 0.3011 0.0315
C21 C 0.9438(5) 0.31441(16) 0.12227(14)
H20 H 1.0646 0.2840 0.1426
C22 C 0.7737(5) 0.34990(15) 0.15856(14)
H21 H 0.7828 0.3436 0.2032
C23 C -0.0954(5) 0.57436(16) 0.11869(13)
loop_
_geom_bond_atom_site_label_1
_geom_bond_atom_site_label_2
_geom_bond_site_symmetry_1
_geom_bond_site_symmetry_2
O1 C9 1_555 1_555
O2 C9 1_555 1_555
N1 N2 1_555 1_555
N2 C7 1_555 1_555
N3 N4 1_555 1_555
N4 C14 1_555 1_555
N5 C23 1_555 1_555
C1 C2 1_555 1_555
C2 H1 1_555 1_555
C3 C2 1_555 1_555
H2 C3 1_555 1_555
C4 C3 1_555 1_555
H3 C4 1_555 1_555
C5 C4 1_555 1_555
H4 C5 1_555 1_555
C6 C1 1_555 1_555
C7 N3 1_555 1_555
H5 C7 1_555 1_555
C8 N1 1_555 1_555
H6 C8 1_555 1_555
C9 N3 1_555 1_555
C10 O2 1_555 1_555
C11 C10 1_555 1_555
H7 C11 1_555 1_555
H8 C11 1_555 1_555
H9 C11 1_555 1_555
C12 C10 1_555 1_555
H10 C12 1_555 1_555
H11 C12 1_555 1_555
H12 C12 1_555 1_555
C13 C10 1_555 1_555
H13 C13 1_555 1_555
H14 C13 1_555 1_555
H15 C13 1_555 1_555
C14 C15 1_555 1_555
C15 H16 1_555 1_555
C16 N2 1_555 1_555
C17 C14 1_555 1_555
C18 C17 1_555 1_555
H17 C18 1_555 1_555
C19 C18 1_555 1_555
H18 C19 1_555 1_555
C20 C19 1_555 1_555
H19 C20 1_555 1_555
C21 C20 1_555 1_555
H20 C21 1_555 1_555
C22 C17 1_555 1_555
H21 C22 1_555 1_555
C23 C16 1_555 1_555
C1 C8 1_555 1_555
C5 C6 1_555 1_555
C6 C7 1_555 1_555
C15 C16 1_555 1_555
C21 C22 1_555 1_555

#END
