
#######################################################################
#
#                 Cambridge Crystallographic Data Centre
#                                CCDC 
#
#######################################################################
#
# If this CIF has been generated from an entry in the Cambridge 
# Structural Database, then it will include bibliographic, chemical, 
# crystal, experimental, refinement or atomic coordinate data resulting 
# from the CCDC's data processing and validation procedures.
#
#######################################################################

data_UTUVAH
_chemical_formula_moiety         'C22 H19 N1 S2'
_chemical_name_systematic        
3-Benzyl-4,5-diphenyl-1,3-thiazolidine-2-thione
_symmetry_cell_setting           monoclinic
_symmetry_space_group_name_H-M   'P 21/c'
_symmetry_Int_Tables_number      14
_space_group_name_Hall           '-P 2ybc'
loop_
_symmetry_equiv_pos_site_id
_symmetry_equiv_pos_as_xyz
1 x,y,z
2 -x,1/2+y,1/2-z
3 -x,-y,-z
4 x,1/2-y,1/2+z
_cell_length_a                   7.0769(7)
_cell_length_b                   16.2587(17)
_cell_length_c                   16.7757(17)
_cell_angle_alpha                90
_cell_angle_beta                 97.076(4)
_cell_angle_gamma                90
_cell_volume                     1915.53
_exptl_crystal_colour            colorless
_exptl_crystal_description       prism
_cell_formula_units_Z            4
loop_
_atom_site_label
_atom_site_type_symbol
_atom_site_fract_x
_atom_site_fract_y
_atom_site_fract_z
C1 C 0.3256(10) 0.3255(4) 0.1716(4)
C2 C 0.6579(11) 0.2870(4) 0.2115(4)
H1 H 0.7681 0.3116 0.1918
H2 H 0.6233 0.2381 0.1799
C3 C 0.7077(10) 0.2633(4) 0.2994(4)
C4 C 0.5843(11) 0.2130(5) 0.3349(5)
H3 H 0.4768 0.1923 0.3039
C5 C 0.6173(13) 0.1932(5) 0.4150(5)
H4 H 0.5322 0.1598 0.4380
C6 C 0.7780(13) 0.2233(5) 0.4611(5)
H5 H 0.8012 0.2102 0.5154
C7 C 0.9021(12) 0.2720(5) 0.4268(5)
H6 H 1.0099 0.2925 0.4577
C8 C 0.8669(11) 0.2910(4) 0.3452(5)
H7 H 0.9537 0.3231 0.3218
C9 C 0.5451(9) 0.4282(4) 0.2292(4)
H8 H 0.6189 0.4257 0.2825
C10 C 0.6590(8) 0.4744(4) 0.1737(4)
C11 C 0.6504(10) 0.4565(4) 0.0932(4)
H9 H 0.5757 0.4127 0.0721
C12 C 0.7508(10) 0.5024(5) 0.0427(5)
H10 H 0.7454 0.4885 -0.0113
C13 C 0.8572(11) 0.5677(5) 0.0724(5)
H11 H 0.9233 0.5989 0.0384
C14 C 0.8671(11) 0.5880(5) 0.1524(6)
H12 H 0.9395 0.6328 0.1725
C15 C 0.7676(10) 0.5407(4) 0.2039(5)
H13 H 0.7749 0.5541 0.2581
C16 C 0.3455(10) 0.4715(4) 0.2371(4)
H14 H 0.3476 0.5267 0.2139
C17 C 0.2994(9) 0.4792(5) 0.3209(4)
C18 C 0.2313(12) 0.5538(6) 0.3457(6)
H15 H 0.2108 0.5972 0.3096
C19 C 0.194(2) 0.5636(10) 0.4235(10)
H16 H 0.1424 0.6127 0.4391
C20 C 0.2317(18) 0.5040(13) 0.4765(8)
H17 H 0.2133 0.5135 0.5296
C21 C 0.2979(14) 0.4271(9) 0.4555(6)
H18 H 0.3205 0.3851 0.4931
C22 C 0.3289(13) 0.4158(6) 0.3750(5)
H19 H 0.3698 0.3650 0.3584
N1 N 0.5000(8) 0.3451(3) 0.2023(3)
S1 S 0.1709(3) 0.41052(14) 0.17482(12)
S2 S 0.2385(4) 0.23827(17) 0.13391(15)
loop_
_geom_bond_atom_site_label_1
_geom_bond_atom_site_label_2
_geom_bond_site_symmetry_1
_geom_bond_site_symmetry_2
C1 N1 1_555 1_555
C2 H1 1_555 1_555
H2 C2 1_555 1_555
C3 C2 1_555 1_555
C4 C3 1_555 1_555
H3 C4 1_555 1_555
C5 C4 1_555 1_555
H4 C5 1_555 1_555
C6 C5 1_555 1_555
H5 C6 1_555 1_555
C7 C6 1_555 1_555
H6 C7 1_555 1_555
C8 C3 1_555 1_555
H7 C8 1_555 1_555
C9 H8 1_555 1_555
C10 C9 1_555 1_555
C11 C10 1_555 1_555
H9 C11 1_555 1_555
C12 C11 1_555 1_555
H10 C12 1_555 1_555
C13 C12 1_555 1_555
H11 C13 1_555 1_555
C14 C13 1_555 1_555
H12 C14 1_555 1_555
C15 C10 1_555 1_555
H13 C15 1_555 1_555
C16 C9 1_555 1_555
H14 C16 1_555 1_555
C17 C16 1_555 1_555
C18 C17 1_555 1_555
H15 C18 1_555 1_555
C19 C18 1_555 1_555
H16 C19 1_555 1_555
C20 C19 1_555 1_555
H17 C20 1_555 1_555
C21 C20 1_555 1_555
H18 C21 1_555 1_555
C22 C17 1_555 1_555
H19 C22 1_555 1_555
N1 C2 1_555 1_555
S1 C1 1_555 1_555
S2 C1 1_555 1_555
C7 C8 1_555 1_555
C9 N1 1_555 1_555
C14 C15 1_555 1_555
C16 S1 1_555 1_555
C21 C22 1_555 1_555

#END
