
#######################################################################
#
#                 Cambridge Crystallographic Data Centre
#                                CCDC 
#
#######################################################################
#
# If this CIF has been generated from an entry in the Cambridge 
# Structural Database, then it will include bibliographic, chemical, 
# crystal, experimental, refinement or atomic coordinate data resulting 
# from the CCDC's data processing and validation procedures.
#
#######################################################################

data_UTUXUE
_chemical_formula_moiety         'C29 H40 N2 O1 2+,2(Cl1 1-),0.5(C1 H1 Cl3)'
_chemical_name_systematic        
'N-((1S,2S)-1-(3,5-di-t-butylphenyl)-2-(quinolin-2-yl)butyl)acetamide dichloride chloroform solvate'
_symmetry_cell_setting           monoclinic
_symmetry_space_group_name_H-M   'C 2'
_symmetry_Int_Tables_number      5
_space_group_name_Hall           'C 2y'
loop_
_symmetry_equiv_pos_site_id
_symmetry_equiv_pos_as_xyz
1 x,y,z
2 -x,y,-z
3 1/2+x,1/2+y,z
4 1/2-x,1/2+y,-z
_cell_length_a                   22.9952(5)
_cell_length_b                   10.2761(2)
_cell_length_c                   15.4325(3)
_cell_angle_alpha                90
_cell_angle_beta                 121.3980(10)
_cell_angle_gamma                90
_cell_volume                     3112.72
_exptl_crystal_colour            colorless
_exptl_crystal_description       plate
_cell_formula_units_Z            4
loop_
_atom_site_label
_atom_site_type_symbol
_atom_site_fract_x
_atom_site_fract_y
_atom_site_fract_z
Cl2 Cl 0.66869(7) 1.06939(12) 0.96411(7)
Cl3 Cl 0.5075(6) 0.3489(3) 0.4942(11)
O1 O 0.66201(16) 0.8241(3) 0.8768(2)
H1 H 0.6633 0.8992 0.8993
N1 N 0.61215(14) 0.7222(3) 0.7272(2)
H2 H 0.5792 0.7218 0.6629
N2 N 0.63419(15) 0.2839(3) 0.6867(2)
H3 H 0.5957 0.3051 0.6312
C1 C 0.69778(17) 0.6038(3) 0.7084(3)
C2 C 0.76817(17) 0.6000(3) 0.7640(3)
H4 H 0.7916 0.6014 0.8361
C3 C 0.61473(19) 0.8193(4) 0.7811(3)
C4 C 0.80550(17) 0.5941(3) 0.7159(3)
C5 C 0.90870(19) 0.7086(5) 0.8533(3)
H5 H 0.8940 0.7891 0.8135
H6 H 0.9586 0.7068 0.8953
H7 H 0.8896 0.7047 0.8971
C6 C 0.66262(17) 0.6014(3) 0.6018(3)
H8 H 0.6142 0.6036 0.5636
C7 C 0.76923(19) 0.5928(4) 0.6103(3)
H9 H 0.7938 0.5897 0.5764
C8 C 0.65963(17) 0.6112(3) 0.7636(3)
H10 H 0.6935 0.6242 0.8375
C9 C 0.88389(18) 0.5925(4) 0.7821(3)
C10 C 0.7256(2) 0.1328(4) 0.7768(4)
C11 C 0.69844(18) 0.5959(4) 0.5523(3)
C12 C 0.9168(2) 0.5977(5) 0.7179(4)
H11 H 0.9040 0.5201 0.6749
H12 H 0.9665 0.6008 0.7627
H13 H 0.9012 0.6757 0.6751
C13 C 0.6637(2) 0.1676(4) 0.6870(3)
C14 C 0.65911(18) 0.3661(4) 0.7633(3)
C15 C 0.7209(2) 0.3363(4) 0.8520(3)
H14 H 0.7405 0.3957 0.9072
C16 C 0.61816(19) 0.4860(4) 0.7515(3)
H15 H 0.5768 0.4857 0.6816
C17 C 0.7529(2) 0.2209(5) 0.8587(4)
H16 H 0.7943 0.2001 0.9196
C18 C 0.6616(2) 0.5890(4) 0.4360(3)
C19 C 0.6933(2) 0.6839(5) 0.3956(3)
H17 H 0.6898 0.7728 0.4153
H18 H 0.6690 0.6778 0.3214
H19 H 0.7414 0.6617 0.4242
C20 C 0.7548(2) 0.0113(5) 0.7778(4)
H20 H 0.7961 -0.0154 0.8365
C21 C 0.5626(2) 0.9246(4) 0.7359(3)
H21 H 0.5315 0.9172 0.7612
H22 H 0.5368 0.9163 0.6618
H23 H 0.5853 1.0095 0.7551
C22 C 0.7237(3) -0.0679(4) 0.6945(5)
H24 H 0.7442 -0.1489 0.6961
C23 C 0.6322(2) 0.0861(4) 0.6019(4)
H25 H 0.5910 0.1114 0.5422
C24 C 0.5946(3) 0.4854(5) 0.8285(4)
H26 H 0.6351 0.4846 0.8981
H27 H 0.5688 0.5663 0.8204
C25 C 0.6626(3) -0.0325(5) 0.6071(5)
H28 H 0.6417 -0.0902 0.5508
C26 C 0.6681(3) 0.4500(5) 0.4073(4)
H29 H 0.7163 0.4292 0.4358
H30 H 0.6436 0.4420 0.3332
H31 H 0.6485 0.3896 0.4345
C27 C 0.5851(2) 0.6238(7) 0.3836(3)
H32 H 0.5610 0.5541 0.3955
H33 H 0.5659 0.6338 0.3104
H34 H 0.5799 0.7055 0.4116
C28 C 0.9059(2) 0.4669(5) 0.8449(5)
H35 H 0.8864 0.4646 0.8882
H36 H 0.9557 0.4641 0.8874
H37 H 0.8897 0.3916 0.7992
C29 C 0.5499(3) 0.3689(6) 0.8151(6)
H38 H 0.5277 0.3828 0.8541
H39 H 0.5780 0.2902 0.8397
H40 H 0.5151 0.3585 0.7431
Cl1 Cl 0.5000 0.77411(13) 0.5000
C30? C 0.4992(13) 0.6892(15) 0.0070(17)
H41? H 0.5164 0.7677 -0.0110
Cl4? Cl 0.44396(19) 0.7346(4) 0.0485(3)
Cl5? Cl 0.5662(3) 0.5971(4) 0.0984(5)
Cl6? Cl 0.4507(4) 0.5880(11) -0.1013(6)
loop_
_geom_bond_atom_site_label_1
_geom_bond_atom_site_label_2
_geom_bond_site_symmetry_1
_geom_bond_site_symmetry_2
O1 H1 1_555 1_555
N1 H2 1_555 1_555
N2 H3 1_555 1_555
C1 C2 1_555 1_555
C2 H4 1_555 1_555
C3 O1 1_555 1_555
C4 C2 1_555 1_555
C5 H5 1_555 1_555
H6 C5 1_555 1_555
H7 C5 1_555 1_555
C6 C1 1_555 1_555
H8 C6 1_555 1_555
C7 C4 1_555 1_555
H9 C7 1_555 1_555
C8 N1 1_555 1_555
H10 C8 1_555 1_555
C9 C4 1_555 1_555
C10 C13 1_555 1_555
C11 C6 1_555 1_555
C12 C9 1_555 1_555
H11 C12 1_555 1_555
H12 C12 1_555 1_555
H13 C12 1_555 1_555
C13 N2 1_555 1_555
C14 N2 1_555 1_555
C15 C14 1_555 1_555
H14 C15 1_555 1_555
C16 C8 1_555 1_555
H15 C16 1_555 1_555
C17 C10 1_555 1_555
H16 C17 1_555 1_555
C18 C11 1_555 1_555
C19 C18 1_555 1_555
H17 C19 1_555 1_555
H18 C19 1_555 1_555
H19 C19 1_555 1_555
C20 C10 1_555 1_555
H20 C20 1_555 1_555
C21 C3 1_555 1_555
H21 C21 1_555 1_555
H22 C21 1_555 1_555
H23 C21 1_555 1_555
C22 C20 1_555 1_555
H24 C22 1_555 1_555
C23 C13 1_555 1_555
H25 C23 1_555 1_555
C24 C16 1_555 1_555
H26 C24 1_555 1_555
H27 C24 1_555 1_555
C25 C22 1_555 1_555
H28 C25 1_555 1_555
C26 C18 1_555 1_555
H29 C26 1_555 1_555
H30 C26 1_555 1_555
H31 C26 1_555 1_555
C27 C18 1_555 1_555
H32 C27 1_555 1_555
H33 C27 1_555 1_555
H34 C27 1_555 1_555
C28 C9 1_555 1_555
H35 C28 1_555 1_555
H36 C28 1_555 1_555
H37 C28 1_555 1_555
C29 C24 1_555 1_555
H38 C29 1_555 1_555
H39 C29 1_555 1_555
H40 C29 1_555 1_555
N1 C3 1_555 1_555
C1 C8 1_555 1_555
C5 C9 1_555 1_555
C7 C11 1_555 1_555
C14 C16 1_555 1_555
C15 C17 1_555 1_555
C23 C25 1_555 1_555

#END
