
#######################################################################
#
#                 Cambridge Crystallographic Data Centre
#                                CCDC 
#
#######################################################################
#
# If this CIF has been generated from an entry in the Cambridge 
# Structural Database, then it will include bibliographic, chemical, 
# crystal, experimental, refinement or atomic coordinate data resulting 
# from the CCDC's data processing and validation procedures.
#
#######################################################################

data_UTUYAL
_chemical_formula_moiety         'C27 H37 N2 1+,Cl1 1-'
_chemical_name_systematic        
'(1R,2S)-1-(3,5-di-t-butylphenyl)-2-(quinolin-2-yl)butan-1-amine chloride'
_symmetry_cell_setting           orthorhombic
_symmetry_space_group_name_H-M   'P 21 21 21'
_symmetry_Int_Tables_number      19
_space_group_name_Hall           'P 2ac 2ab'
loop_
_symmetry_equiv_pos_site_id
_symmetry_equiv_pos_as_xyz
1 x,y,z
2 1/2+x,1/2-y,-z
3 -x,1/2+y,1/2-z
4 1/2-x,-y,1/2+z
_cell_length_a                   5.7481(2)
_cell_length_b                   13.5568(4)
_cell_length_c                   31.1363(10)
_cell_angle_alpha                90
_cell_angle_beta                 90
_cell_angle_gamma                90
_cell_volume                     2426.32
_exptl_crystal_colour            colorless
_exptl_crystal_description       needle
_cell_formula_units_Z            4
loop_
_atom_site_label
_atom_site_type_symbol
_atom_site_fract_x
_atom_site_fract_y
_atom_site_fract_z
Cl1 Cl 1.28769(16) 1.24237(6) 0.94373(3)
N1 N 0.8747(6) 0.9905(2) 1.04958(10)
N2 N 0.7949(7) 1.1543(2) 0.96618(10)
C1 C 0.8107(8) 1.0449(2) 0.95823(11)
H1 H 0.6759 1.0123 0.9728
C2 C 1.0379(8) 1.0054(3) 0.97874(12)
H2 H 1.1734 1.0387 0.9648
C3 C 1.0557(9) 0.8933(3) 0.97055(13)
H3 H 0.9101 0.8614 0.9803
H4 H 1.0701 0.8818 0.9393
C4 C 1.2607(9) 0.8447(3) 0.99323(13)
H5 H 1.4036 0.8811 0.9866
H6 H 1.2762 0.7764 0.9834
H7 H 1.2342 0.8454 1.0243
C5 C 1.0454(7) 1.0259(3) 1.02616(13)
C6 C 1.2380(7) 1.0791(3) 1.04421(12)
H8 H 1.3581 1.1038 1.0262
C7 C 1.2466(7) 1.0936(3) 1.08740(12)
H9 H 1.3732 1.1285 1.0998
C8 C 1.0654(8) 1.0564(3) 1.11377(13)
C9 C 1.0630(9) 1.0665(3) 1.15874(14)
H10 H 1.1860 1.1003 1.1728
C10 C 0.8824(9) 1.0275(3) 1.18235(14)
H11 H 0.8815 1.0349 1.2127
C11 C 0.6980(9) 0.9763(3) 1.16187(13)
H12 H 0.5740 0.9499 1.1785
C12 C 0.6988(9) 0.9649(3) 1.11809(13)
H13 H 0.5756 0.9301 1.1045
C13 C 0.8813(7) 1.0044(3) 1.09299(12)
C14 C 0.7958(8) 1.0235(2) 0.91075(12)
C15 C 0.9170(7) 1.0801(3) 0.88051(12)
H14 H 1.0046 1.1356 0.8897
C16 C 0.9107(7) 1.0560(3) 0.83736(12)
C17 C 0.7876(7) 0.9711(2) 0.82506(11)
H15 H 0.7818 0.9539 0.7955
C18 C 0.6747(6) 0.9115(2) 0.85441(12)
C19 C 0.6733(7) 0.9407(3) 0.89710(12)
H16 H 0.5871 0.9034 0.9174
C20 C 1.0321(7) 1.1191(3) 0.80317(12)
C21 C 0.8440(8) 1.1669(3) 0.77502(13)
H17 H 0.7447 1.2091 0.7928
H18 H 0.7491 1.1153 0.7616
H19 H 0.9180 1.2068 0.7526
C22 C 1.1889(9) 1.0546(3) 0.77472(13)
H20 H 1.2611 1.0955 0.7525
H21 H 1.0952 1.0028 0.7612
H22 H 1.3105 1.0243 0.7924
C23 C 1.1844(9) 1.1999(3) 0.82291(13)
H23 H 1.0863 1.2461 0.8390
H24 H 1.2662 1.2354 0.8000
H25 H 1.2981 1.1699 0.8424
C24 C 0.5589(7) 0.8134(3) 0.84164(13)
C25 C 0.5827(10) 0.7921(3) 0.79368(14)
H26 H 0.5067 0.7293 0.7869
H27 H 0.7479 0.7882 0.7861
H28 H 0.5089 0.8452 0.7772
C26 C 0.3022(8) 0.8156(3) 0.85272(15)
H29 H 0.2286 0.7543 0.8430
H30 H 0.2284 0.8719 0.8384
H31 H 0.2836 0.8220 0.8839
C27 C 0.6746(8) 0.7291(3) 0.86649(15)
H32 H 0.6470 0.7379 0.8973
H33 H 0.8424 0.7295 0.8609
H34 H 0.6086 0.6660 0.8572
H35 H 0.651(10) 1.182(4) 0.9529(17)
H36 H 0.936(10) 1.181(4) 0.9539(16)
H37 H 0.790(10) 1.164(4) 0.9957(17)
loop_
_geom_bond_atom_site_label_1
_geom_bond_atom_site_label_2
_geom_bond_site_symmetry_1
_geom_bond_site_symmetry_2
N1 C5 1_555 1_555
N2 C1 1_555 1_555
C1 H1 1_555 1_555
C2 C1 1_555 1_555
H2 C2 1_555 1_555
C3 C2 1_555 1_555
H3 C3 1_555 1_555
H4 C3 1_555 1_555
C4 C3 1_555 1_555
H5 C4 1_555 1_555
H6 C4 1_555 1_555
H7 C4 1_555 1_555
C5 C2 1_555 1_555
C6 C5 1_555 1_555
H8 C6 1_555 1_555
C7 C6 1_555 1_555
H9 C7 1_555 1_555
C8 C7 1_555 1_555
C9 C8 1_555 1_555
H10 C9 1_555 1_555
C10 C9 1_555 1_555
H11 C10 1_555 1_555
C11 C10 1_555 1_555
H12 C11 1_555 1_555
C12 C11 1_555 1_555
H13 C12 1_555 1_555
C13 N1 1_555 1_555
C14 C1 1_555 1_555
C15 C14 1_555 1_555
H14 C15 1_555 1_555
C16 C15 1_555 1_555
C17 C16 1_555 1_555
H15 C17 1_555 1_555
C18 C17 1_555 1_555
C19 C14 1_555 1_555
H16 C19 1_555 1_555
C20 C16 1_555 1_555
C21 C20 1_555 1_555
H17 C21 1_555 1_555
H18 C21 1_555 1_555
H19 C21 1_555 1_555
C22 C20 1_555 1_555
H20 C22 1_555 1_555
H21 C22 1_555 1_555
H22 C22 1_555 1_555
C23 C20 1_555 1_555
H23 C23 1_555 1_555
H24 C23 1_555 1_555
H25 C23 1_555 1_555
C24 C18 1_555 1_555
C25 C24 1_555 1_555
H26 C25 1_555 1_555
H27 C25 1_555 1_555
H28 C25 1_555 1_555
C26 C24 1_555 1_555
H29 C26 1_555 1_555
H30 C26 1_555 1_555
H31 C26 1_555 1_555
C27 C24 1_555 1_555
H32 C27 1_555 1_555
H33 C27 1_555 1_555
H34 C27 1_555 1_555
H35 N2 1_555 1_555
H36 N2 1_555 1_555
H37 N2 1_555 1_555
C8 C13 1_555 1_555
C12 C13 1_555 1_555
C18 C19 1_555 1_555

#END
