
#######################################################################
#
#                 Cambridge Crystallographic Data Centre
#                                CCDC 
#
#######################################################################
#
# If this CIF has been generated from an entry in the Cambridge 
# Structural Database, then it will include bibliographic, chemical, 
# crystal, experimental, refinement or atomic coordinate data resulting 
# from the CCDC's data processing and validation procedures.
#
#######################################################################

data_UVABID
_chemical_formula_moiety         'C20 H30 O4'
_chemical_name_systematic        8-Hydroxy-9,20:13,14-diepoxyabietan-20-one
_symmetry_cell_setting           monoclinic
_symmetry_space_group_name_H-M   'P 21'
_symmetry_Int_Tables_number      4
_space_group_name_Hall           'P 2yb'
loop_
_symmetry_equiv_pos_site_id
_symmetry_equiv_pos_as_xyz
1 x,y,z
2 -x,1/2+y,-z
_cell_length_a                   6.301(3)
_cell_length_b                   11.371(8)
_cell_length_c                   13.236(8)
_cell_angle_alpha                90
_cell_angle_beta                 95.602(16)
_cell_angle_gamma                90
_cell_volume                     943.813
_exptl_crystal_colour            colorless
_exptl_crystal_description       plate
_cell_formula_units_Z            2
loop_
_atom_site_label
_atom_site_type_symbol
_atom_site_fract_x
_atom_site_fract_y
_atom_site_fract_z
O1 O -0.00390(18) 0.83315(12) 0.94766(10)
O2 O -0.2282(2) 0.90911(18) 0.82066(13)
O3 O 0.5572(2) 0.72327(14) 1.10776(10)
O4 O 0.50258(19) 0.68287(11) 0.90657(9)
H1 H 0.5508 0.6169 0.9192
C1 C 0.2506(3) 0.94905(17) 0.76138(14)
H2 H 0.2261 1.0195 0.7998
H3 H 0.4034 0.9380 0.7624
C2 C 0.1552(4) 0.9651(2) 0.65264(17)
H4 H 0.0045 0.9830 0.6517
H5 H 0.2240 1.0308 0.6223
C3 C 0.1837(4) 0.8552(2) 0.59151(16)
H6 H 0.3350 0.8403 0.5902
H7 H 0.1235 0.8685 0.5222
C4 C 0.0784(4) 0.7455(2) 0.63324(17)
C5 C 0.1619(3) 0.73046(17) 0.74716(14)
H8 H 0.3132 0.7101 0.7480
C6 C 0.0583(4) 0.62880(19) 0.79931(17)
H9 H 0.0716 0.5581 0.7594
H10 H -0.0926 0.6454 0.7997
C7 C 0.1520(3) 0.60449(17) 0.90833(16)
H11 H 0.0360 0.5986 0.9511
H12 H 0.2242 0.5291 0.9102
C8 C 0.3074(3) 0.69700(14) 0.95222(13)
C9 C 0.2251(2) 0.82074(14) 0.92638(12)
C10 C 0.1541(2) 0.84365(14) 0.81161(13)
C11 C 0.3503(3) 0.91402(14) 0.98705(13)
H13 H 0.2999 0.9911 0.9644
H14 H 0.4997 0.9079 0.9758
C12 C 0.3265(3) 0.90049(16) 1.09935(14)
H15 H 0.4265 0.9529 1.1371
H16 H 0.1838 0.9247 1.1120
C13 C 0.3641(3) 0.77695(16) 1.13866(14)
C14 C 0.3526(3) 0.67917(16) 1.06594(13)
H17 H 0.3102 0.6029 1.0920
C15 C 0.3251(4) 0.7523(2) 1.24750(15)
H18 H 0.3619 0.6696 1.2607
C16 C 0.0911(4) 0.7661(3) 1.26298(18)
H19 H 0.0066 0.7192 1.2139
H20 H 0.0508 0.8472 1.2547
H21 H 0.0677 0.7406 1.3301
C17 C 0.4664(5) 0.8245(4) 1.3222(2)
H22 H 0.6128 0.8134 1.3099
H23 H 0.4468 0.7999 1.3900
H24 H 0.4297 0.9061 1.3141
C18 C 0.1526(7) 0.6375(3) 0.5749(2)
H25 H 0.1033 0.6448 0.5042
H26 H 0.0949 0.5672 0.6017
H27 H 0.3055 0.6335 0.5826
C19 C -0.1631(5) 0.7551(4) 0.6147(2)
H28 H -0.2038 0.7642 0.5434
H29 H -0.2107 0.8220 0.6505
H30 H -0.2271 0.6851 0.6387
C20 C -0.0598(3) 0.86806(18) 0.85101(15)
loop_
_geom_bond_atom_site_label_1
_geom_bond_atom_site_label_2
_geom_bond_site_symmetry_1
_geom_bond_site_symmetry_2
O1 C9 1_555 1_555
O2 C20 1_555 1_555
O3 C13 1_555 1_555
O4 H1 1_555 1_555
C1 H2 1_555 1_555
H3 C1 1_555 1_555
C2 C1 1_555 1_555
H4 C2 1_555 1_555
H5 C2 1_555 1_555
C3 C2 1_555 1_555
H6 C3 1_555 1_555
H7 C3 1_555 1_555
C4 C3 1_555 1_555
C5 C4 1_555 1_555
H8 C5 1_555 1_555
C6 C5 1_555 1_555
H9 C6 1_555 1_555
H10 C6 1_555 1_555
C7 C6 1_555 1_555
H11 C7 1_555 1_555
H12 C7 1_555 1_555
C8 O4 1_555 1_555
C9 C8 1_555 1_555
C10 C1 1_555 1_555
C11 C9 1_555 1_555
H13 C11 1_555 1_555
H14 C11 1_555 1_555
C12 C11 1_555 1_555
H15 C12 1_555 1_555
H16 C12 1_555 1_555
C13 C12 1_555 1_555
C14 O3 1_555 1_555
H17 C14 1_555 1_555
C15 C13 1_555 1_555
H18 C15 1_555 1_555
C16 C15 1_555 1_555
H19 C16 1_555 1_555
H20 C16 1_555 1_555
H21 C16 1_555 1_555
C17 C15 1_555 1_555
H22 C17 1_555 1_555
H23 C17 1_555 1_555
H24 C17 1_555 1_555
C18 C4 1_555 1_555
H25 C18 1_555 1_555
H26 C18 1_555 1_555
H27 C18 1_555 1_555
C19 C4 1_555 1_555
H28 C19 1_555 1_555
H29 C19 1_555 1_555
H30 C19 1_555 1_555
C20 O1 1_555 1_555
C5 C10 1_555 1_555
C7 C8 1_555 1_555
C8 C14 1_555 1_555
C9 C10 1_555 1_555
C10 C20 1_555 1_555
C13 C14 1_555 1_555

#END
