
#######################################################################
#
#                 Cambridge Crystallographic Data Centre
#                                CCDC 
#
#######################################################################
#
# If this CIF has been generated from an entry in the Cambridge 
# Structural Database, then it will include bibliographic, chemical, 
# crystal, experimental, refinement or atomic coordinate data resulting 
# from the CCDC's data processing and validation procedures.
#
#######################################################################

data_UVABOJ
_chemical_formula_moiety         'C18 H14 N2 O4 S3'
_chemical_name_systematic        
2,7-Dipropylpyrrolo[3''',4''':4'',5'']thieno[2'',3'':4',5']thieno[2',3':4,5]thieno[2,3-c]pyrrole-1,3,6,8(2H,7H)-tetrone
_symmetry_cell_setting           monoclinic
_symmetry_space_group_name_H-M   'P 21/c'
_symmetry_Int_Tables_number      14
_space_group_name_Hall           '-P 2ybc'
loop_
_symmetry_equiv_pos_site_id
_symmetry_equiv_pos_as_xyz
1 x,y,z
2 -x,1/2+y,1/2-z
3 -x,-y,-z
4 x,1/2-y,1/2+z
_cell_length_a                   18.363(4)
_cell_length_b                   5.9771(12)
_cell_length_c                   16.314(3)
_cell_angle_alpha                90
_cell_angle_beta                 94.61(3)
_cell_angle_gamma                90
_cell_volume                     1784.79
_cell_formula_units_Z            4
loop_
_atom_site_label
_atom_site_type_symbol
_atom_site_fract_x
_atom_site_fract_y
_atom_site_fract_z
S1 S 0.56785(3) -0.31856(10) 0.46346(4)
S2 S 0.36558(3) -0.32683(10) 0.37526(4)
S3 S 0.49195(3) 0.23641(10) 0.32171(4)
O1 O 0.69474(10) 0.3817(3) 0.38828(12)
O2 O 0.74825(11) -0.2457(3) 0.54344(12)
O3 O 0.18481(10) -0.2706(4) 0.29332(13)
O4 O 0.29840(11) 0.3724(3) 0.21889(11)
N1 N 0.74024(12) 0.0873(4) 0.46938(14)
N2 N 0.22443(12) 0.0753(4) 0.25002(14)
C1 C 0.68661(14) 0.2014(5) 0.41925(16)
C2 C 0.71445(15) -0.1175(5) 0.49767(16)
C3 C 0.63789(14) -0.1300(4) 0.46174(15)
C4 C 0.51220(14) -0.1407(4) 0.40328(14)
C5 C 0.43785(14) -0.1424(4) 0.37159(14)
C6 C 0.31059(14) -0.1423(4) 0.31920(15)
C7 C 0.23276(14) -0.1342(5) 0.28847(16)
C8 C 0.28973(14) 0.1927(4) 0.25029(16)
C9 C 0.34497(14) 0.0490(4) 0.29753(14)
C10 C 0.41921(13) 0.0527(4) 0.32701(14)
C11 C 0.54802(13) 0.0548(4) 0.38134(15)
C12 C 0.62090(14) 0.0567(4) 0.41633(15)
C13 C 0.80984(15) 0.1871(5) 0.49826(18)
H1 H 0.8229 0.1379 0.5555
H2 H 0.8044 0.3519 0.4988
C14 C 0.87132(16) 0.1269(6) 0.4463(2)
H3 H 0.8572 0.1638 0.3880
H4 H 0.8809 -0.0359 0.4501
C15 C 0.94052(19) 0.2558(8) 0.4756(3)
H5 H 0.9799 0.2165 0.4412
H6 H 0.9550 0.2165 0.5330
H7 H 0.9309 0.4168 0.4716
C16 C 0.15483(15) 0.1515(6) 0.2091(2)
C17 C 0.0929(3) 0.1858(14) 0.2574(4)
C18 C 0.0983(4) 0.2615(14) 0.3373(4)
C19? C 0.1069(3) 0.3139(13) 0.2431(6)
C20? C 0.1119(3) 0.2305(14) 0.2891(4)
C21? C 0.0261(3) 0.2874(15) 0.2204(6)
C22? C 0.0444(3) 0.3631(13) 0.2562(6)
loop_
_geom_bond_atom_site_label_1
_geom_bond_atom_site_label_2
_geom_bond_site_symmetry_1
_geom_bond_site_symmetry_2
S1 C3 1_555 1_555
S2 C5 1_555 1_555
S3 C10 1_555 1_555
O1 C1 1_555 1_555
O2 C2 1_555 1_555
O3 C7 1_555 1_555
O4 C8 1_555 1_555
N1 C1 1_555 1_555
N2 C7 1_555 1_555
C1 C12 1_555 1_555
C2 N1 1_555 1_555
C3 C2 1_555 1_555
C4 S1 1_555 1_555
C5 C4 1_555 1_555
C6 S2 1_555 1_555
C7 C6 1_555 1_555
C8 N2 1_555 1_555
C9 C6 1_555 1_555
C10 C5 1_555 1_555
C11 S3 1_555 1_555
C12 C3 1_555 1_555
C13 N1 1_555 1_555
H1 C13 1_555 1_555
H2 C13 1_555 1_555
C14 C13 1_555 1_555
H3 C14 1_555 1_555
H4 C14 1_555 1_555
C15 C14 1_555 1_555
H5 C15 1_555 1_555
H6 C15 1_555 1_555
H7 C15 1_555 1_555
C16 N2 1_555 1_555
C17 C16 1_555 1_555
C18 C17 1_555 1_555
C4 C11 1_555 1_555
C8 C9 1_555 1_555
C9 C10 1_555 1_555
C11 C12 1_555 1_555

#END
