
#######################################################################
#
#                 Cambridge Crystallographic Data Centre
#                                CCDC 
#
#######################################################################
#
# If this CIF has been generated from an entry in the Cambridge 
# Structural Database, then it will include bibliographic, chemical, 
# crystal, experimental, refinement or atomic coordinate data resulting 
# from the CCDC's data processing and validation procedures.
#
#######################################################################

data_UVADIF
_chemical_formula_moiety         'C23 H25 N1 O6'
_chemical_name_systematic        
'Diethyl ((11-oxo-2,3,6,7-tetrahydro-1H,5H,11H-pyrano[2,3-f]pyrido[3,2,1-ij]quinolin-10-yl)methylene)malonate'
_symmetry_cell_setting           monoclinic
_symmetry_space_group_name_H-M   'P 21/c'
_symmetry_Int_Tables_number      14
_space_group_name_Hall           '-P 2ybc'
loop_
_symmetry_equiv_pos_site_id
_symmetry_equiv_pos_as_xyz
1 x,y,z
2 -x,1/2+y,1/2-z
3 -x,-y,-z
4 x,1/2-y,1/2+z
_cell_length_a                   17.248(5)
_cell_length_b                   8.517(3)
_cell_length_c                   13.924(4)
_cell_angle_alpha                90
_cell_angle_beta                 101.350(6)
_cell_angle_gamma                90
_cell_volume                     2005.45
_exptl_crystal_colour            red
_exptl_crystal_description       plate
_cell_formula_units_Z            4
loop_
_atom_site_label
_atom_site_type_symbol
_atom_site_fract_x
_atom_site_fract_y
_atom_site_fract_z
C1 C 0.3863(3) 0.6607(5) 0.0774(3)
C2 C 0.3301(2) 0.5332(5) 0.0469(3)
C3 C 0.3585(2) 0.3802(5) 0.0552(3)
H1 H 0.3229 0.2958 0.0356
C4 C 0.4387(2) 0.3472(4) 0.0918(3)
C5 C 0.4707(2) 0.1938(4) 0.1014(3)
H2 H 0.4370 0.1067 0.0809
C6 C 0.5482(2) 0.1685(4) 0.1391(3)
C7 C 0.5823(2) 0.0047(4) 0.1522(3)
H3 H 0.5825 -0.0324 0.2196
H4 H 0.5491 -0.0679 0.1059
C8 C 0.6654(2) 0.0053(4) 0.1336(3)
H5 H 0.6645 0.0348 0.0646
H6 H 0.6882 -0.1014 0.1443
C9 C 0.7172(2) 0.1212(5) 0.2015(3)
H7 H 0.7294 0.0775 0.2687
H8 H 0.7678 0.1361 0.1792
C10 C 0.7327(2) 0.3968(5) 0.2482(3)
H9 H 0.7667 0.4283 0.2019
H10 H 0.7673 0.3540 0.3077
C11 C 0.6895(2) 0.5401(5) 0.2758(3)
H11 H 0.7273 0.6279 0.2924
H12 H 0.6672 0.5160 0.3344
C12 C 0.6232(2) 0.5895(4) 0.1924(3)
H13 H 0.5925 0.6757 0.2147
H14 H 0.6461 0.6290 0.1371
C13 C 0.5690(2) 0.4529(4) 0.1581(3)
C14 C 0.6002(2) 0.2991(4) 0.1674(3)
C15 C 0.4914(2) 0.4715(4) 0.1207(3)
C16 C 0.2497(2) 0.5826(5) 0.0092(3)
H15 H 0.2414 0.6926 0.0125
C17 C 0.1837(2) 0.4996(5) -0.0301(3)
C18 C 0.1110(3) 0.5869(7) -0.0660(3)
C19 C -0.0286(7) 0.5567(16) -0.1296(14)
C20 C -0.0790(6) 0.4454(14) -0.1953(10)
C21 C 0.1795(2) 0.3231(5) -0.0462(4)
C22 C 0.1413(3) 0.0835(5) 0.0154(4)
H16 H 0.1924 0.0268 0.0260
H17 H 0.1115 0.0589 -0.0512
C23 C 0.0950(3) 0.0369(6) 0.0906(4)
H18 H 0.1238 0.0678 0.1557
H19 H 0.0872 -0.0771 0.0886
H20 H 0.0434 0.0895 0.0769
N1 N 0.6774(2) 0.2740(4) 0.2030(2)
O1 O 0.36908(17) 0.8003(3) 0.07421(19)
O2 O 0.46357(16) 0.6238(3) 0.11257(17)
O3 O 0.1028(2) 0.7284(4) -0.0604(3)
O4 O 0.05319(17) 0.4921(4) -0.1097(2)
O5 O 0.19639(18) 0.2597(4) -0.1162(2)
O6 O 0.15445(17) 0.2520(3) 0.0267(2)
C24? C -0.0150(5) 0.5843(10) -0.1624(9)
C25? C -0.0712(8) 0.490(2) -0.2335(17)
loop_
_geom_bond_atom_site_label_1
_geom_bond_atom_site_label_2
_geom_bond_site_symmetry_1
_geom_bond_site_symmetry_2
C1 C2 1_555 1_555
C2 C3 1_555 1_555
C3 H1 1_555 1_555
C4 C3 1_555 1_555
C5 C4 1_555 1_555
H2 C5 1_555 1_555
C6 C5 1_555 1_555
C7 C6 1_555 1_555
H3 C7 1_555 1_555
H4 C7 1_555 1_555
C8 C7 1_555 1_555
H5 C8 1_555 1_555
H6 C8 1_555 1_555
C9 C8 1_555 1_555
H7 C9 1_555 1_555
H8 C9 1_555 1_555
C10 H9 1_555 1_555
H10 C10 1_555 1_555
C11 C10 1_555 1_555
H11 C11 1_555 1_555
H12 C11 1_555 1_555
C12 C11 1_555 1_555
H13 C12 1_555 1_555
H14 C12 1_555 1_555
C13 C12 1_555 1_555
C14 C6 1_555 1_555
C15 C4 1_555 1_555
C16 C2 1_555 1_555
H15 C16 1_555 1_555
C17 C16 1_555 1_555
C18 C17 1_555 1_555
C19 C20 1_555 1_555
C21 C17 1_555 1_555
C22 H16 1_555 1_555
H17 C22 1_555 1_555
C23 C22 1_555 1_555
H18 C23 1_555 1_555
H19 C23 1_555 1_555
H20 C23 1_555 1_555
N1 C9 1_555 1_555
O1 C1 1_555 1_555
O2 C1 1_555 1_555
O3 C18 1_555 1_555
O4 C18 1_555 1_555
O5 C21 1_555 1_555
O6 C21 1_555 1_555
C10 N1 1_555 1_555
C13 C14 1_555 1_555
C13 C15 1_555 1_555
C14 N1 1_555 1_555
C15 O2 1_555 1_555
C19 O4 1_555 1_555
C22 O6 1_555 1_555

#END
