
#######################################################################
#
#                 Cambridge Crystallographic Data Centre
#                                CCDC 
#
#######################################################################
#
# If this CIF has been generated from an entry in the Cambridge 
# Structural Database, then it will include bibliographic, chemical, 
# crystal, experimental, refinement or atomic coordinate data resulting 
# from the CCDC's data processing and validation procedures.
#
#######################################################################

data_UVAGUU
_chemical_formula_moiety         'C26 H16 S2'
_chemical_name_systematic        
2,7-Diphenylthieno[2',3':6,7]naphtho[2,3-b]thiophene
_symmetry_cell_setting           monoclinic
_symmetry_space_group_name_H-M   'P 21/n'
_symmetry_Int_Tables_number      14
_space_group_name_Hall           '-P 2yn'
loop_
_symmetry_equiv_pos_site_id
_symmetry_equiv_pos_as_xyz
1 x,y,z
2 1/2-x,1/2+y,1/2-z
3 -x,-y,-z
4 1/2+x,1/2-y,1/2+z
_cell_length_a                   5.922(10)
_cell_length_b                   7.595(12)
_cell_length_c                   40.63(7)
_cell_angle_alpha                90
_cell_angle_beta                 93.753(6)
_cell_angle_gamma                90
_cell_volume                     1823.52
_exptl_crystal_colour            yellow
_exptl_crystal_description       platelet
_cell_formula_units_Z            4
loop_
_atom_site_label
_atom_site_type_symbol
_atom_site_fract_x
_atom_site_fract_y
_atom_site_fract_z
S1 S 0.3769(2) 0.15805(16) 0.14561(3)
S2 S 0.6245(2) -0.01317(16) 0.35163(3)
C1 C 0.6333(7) 0.0657(4) 0.13445(10)
C2 C 0.8017(7) -0.0123(4) 0.16172(8)
C3 C 0.6642(6) 0.0290(4) 0.19306(10)
C4 C 0.7427(6) -0.0099(4) 0.22508(11)
C5 C 0.6111(6) 0.0327(4) 0.25189(10)
C6 C 0.6888(7) -0.0066(4) 0.28514(10)
C7 C 0.5560(7) 0.0344(4) 0.31041(10)
C8 C 0.3684(7) 0.0775(4) 0.36270(10)
C9 C 0.2001(7) 0.1584(4) 0.33530(8)
C10 C 0.3409(7) 0.1206(4) 0.30447(10)
C11 C 0.2622(6) 0.1614(4) 0.27236(11)
C12 C 0.3941(6) 0.1190(4) 0.24546(10)
C13 C 0.3152(6) 0.1591(4) 0.21230(10)
C14 C 0.4480(7) 0.1152(4) 0.18699(10)
C15 C 0.6822(7) 0.0635(4) 0.09981(11)
C16 C 0.5349(8) 0.1396(5) 0.07535(12)
C17 C 0.5823(10) 0.1374(6) 0.04259(13)
C18 C 0.7764(10) 0.0570(6) 0.03311(13)
C19 C 0.9264(9) -0.0200(6) 0.05695(13)
C20 C 0.8813(8) -0.0169(5) 0.08968(12)
C21 C 0.3153(7) 0.0727(4) 0.39697(10)
C22 C 0.4569(8) -0.0147(5) 0.42127(12)
C23 C 0.4044(10) -0.0179(6) 0.45373(12)
C24 C 0.2105(9) 0.0652(6) 0.46367(12)
C25 C 0.0697(9) 0.1485(6) 0.44055(13)
C26 C 0.1169(8) 0.1523(5) 0.40761(12)
H1 H 0.9444 -0.0689 0.1600
H2 H 0.8874 -0.0649 0.2292
H3 H 0.8331 -0.0613 0.2891
H4 H 0.0574 0.2165 0.3371
H5 H 0.1207 0.2215 0.2685
H6 H 0.1717 0.2169 0.2083
H7 H 0.3996 0.1969 0.0819
H8 H 0.4813 0.1946 0.0265
H9 H 0.8034 0.0502 0.0101
H10 H 1.0632 -0.0751 0.0509
H11 H 0.9836 -0.0702 0.1055
H12 H 0.5915 -0.0725 0.4151
H13 H 0.4985 -0.0854 0.4696
H14 H 0.1750 0.0642 0.4869
H15 H -0.0670 0.2061 0.4466
H16 H 0.0150 0.2107 0.3920
loop_
_geom_bond_atom_site_label_1
_geom_bond_atom_site_label_2
_geom_bond_site_symmetry_1
_geom_bond_site_symmetry_2
S1 C1 1_555 1_555
S2 C7 1_555 1_555
C1 C2 1_555 1_555
C2 C3 1_555 1_555
C3 C4 1_555 1_555
C4 C5 1_555 1_555
C5 C6 1_555 1_555
C6 C7 1_555 1_555
C7 C10 1_555 1_555
C8 S2 1_555 1_555
C9 C8 1_555 1_555
C10 C9 1_555 1_555
C11 C10 1_555 1_555
C12 C5 1_555 1_555
C13 C12 1_555 1_555
C14 S1 1_555 1_555
C15 C1 1_555 1_555
C16 C15 1_555 1_555
C17 C16 1_555 1_555
C18 C17 1_555 1_555
C19 C18 1_555 1_555
C20 C15 1_555 1_555
C21 C8 1_555 1_555
C22 C21 1_555 1_555
C23 C22 1_555 1_555
C24 C23 1_555 1_555
C25 C24 1_555 1_555
C26 C21 1_555 1_555
H1 C2 1_555 1_555
H2 C4 1_555 1_555
H3 C6 1_555 1_555
H4 C9 1_555 1_555
H5 C11 1_555 1_555
H6 C13 1_555 1_555
H7 C16 1_555 1_555
H8 C17 1_555 1_555
H9 C18 1_555 1_555
H10 C19 1_555 1_555
H11 C20 1_555 1_555
H12 C22 1_555 1_555
H13 C23 1_555 1_555
H14 C24 1_555 1_555
H15 C25 1_555 1_555
H16 C26 1_555 1_555
C3 C14 1_555 1_555
C11 C12 1_555 1_555
C13 C14 1_555 1_555
C19 C20 1_555 1_555
C25 C26 1_555 1_555

#END
