
#######################################################################
#
#                 Cambridge Crystallographic Data Centre
#                                CCDC 
#
#######################################################################
#
# If this CIF has been generated from an entry in the Cambridge 
# Structural Database, then it will include bibliographic, chemical, 
# crystal, experimental, refinement or atomic coordinate data resulting 
# from the CCDC's data processing and validation procedures.
#
#######################################################################

data_UVAHEF
_chemical_formula_moiety         'C26 H16 S2'
_chemical_name_systematic        
2,7-Diphenyl[1]benzothieno[3,2-b][1]benzothiophene
_symmetry_cell_setting           monoclinic
_symmetry_space_group_name_H-M   'P 21/a'
_symmetry_Int_Tables_number      14
_space_group_name_Hall           '-P 2yab'
loop_
_symmetry_equiv_pos_site_id
_symmetry_equiv_pos_as_xyz
1 x,y,z
2 1/2-x,1/2+y,-z
3 -x,-y,-z
4 1/2+x,1/2-y,z
_cell_length_a                   6.334(2)
_cell_length_b                   7.462(5)
_cell_length_c                   19.516(2)
_cell_angle_alpha                90
_cell_angle_beta                 93.06(3)
_cell_angle_gamma                90
_cell_volume                     921.095
_exptl_crystal_colour            colorless
_exptl_crystal_description       platelet
_cell_formula_units_Z            2
loop_
_atom_site_label
_atom_site_type_symbol
_atom_site_fract_x
_atom_site_fract_y
_atom_site_fract_z
S1 S 0.2095(3) 0.40762(10) 0.95623(4)
C1 C 0.4121(10) 0.4703(3) 1.01501(15)
C2 C 0.3718(10) 0.4630(4) 0.88881(15)
C3 C 0.5704(10) 0.5287(3) 0.91070(15)
C4 C 0.7111(14) 0.5786(5) 0.86184(17)
C5 C 0.6471(11) 0.5663(4) 0.79208(16)
C6 C 0.4469(10) 0.5056(4) 0.77031(15)
C7 C 0.3077(12) 0.4508(4) 0.81891(16)
C8 C 0.3805(9) 0.5017(4) 0.69591(14)
C9 C 0.4731(11) 0.6194(4) 0.64937(16)
C10 C 0.4057(11) 0.6148(4) 0.57973(17)
H1 H 0.4650 0.6937 0.5493
C11 C 0.2534(10) 0.4958(5) 0.55568(17)
C12 C 0.1594(11) 0.3797(5) 0.60120(18)
H2 H 0.0528 0.3019 0.5855
C13 C 0.2269(11) 0.3814(4) 0.67064(17)
H3 H 0.830(11) 0.617(5) 0.873(2)
H4 H 0.764(11) 0.608(5) 0.765(2)
H5 H 0.157(13) 0.422(6) 0.805(2)
H6 H 0.585(10) 0.704(6) 0.667(2)
H7 H 0.224(13) 0.495(7) 0.511(3)
H8 H 0.162(7) 0.299(5) 0.6993(17)
S1B S 0.7905(3) 0.59238(10) 1.04377(4)
C1B C 0.5879(10) 0.5297(3) 0.98499(15)
C2B C 0.6282(10) 0.5370(4) 1.11119(15)
C3B C 0.4296(10) 0.4713(3) 1.08930(15)
C4B C 0.2889(14) 0.4214(5) 1.13816(17)
C5B C 0.3529(11) 0.4337(4) 1.20792(16)
C6B C 0.5531(10) 0.4944(4) 1.22969(15)
C7B C 0.6923(12) 0.5492(4) 1.18109(16)
C8B C 0.6195(9) 0.4983(4) 1.30409(14)
C9B C 0.5269(11) 0.3806(4) 1.35063(16)
C10B C 0.5943(11) 0.3852(4) 1.42027(17)
H1B H 0.5350 0.3063 1.4507
C11B C 0.7466(10) 0.5042(5) 1.44432(17)
C12B C 0.8406(11) 0.6203(5) 1.39880(18)
H2B H 0.9472 0.6981 1.4145
C13B C 0.7731(11) 0.6186(4) 1.32936(17)
H3B H 0.170(11) 0.383(5) 1.127(2)
H4B H 0.236(11) 0.392(5) 1.235(2)
H5B H 0.843(13) 0.578(6) 1.195(2)
H6B H 0.415(10) 0.296(6) 1.333(2)
H7B H 0.776(13) 0.505(7) 1.489(3)
H8B H 0.838(7) 0.701(5) 1.3007(17)
loop_
_geom_bond_atom_site_label_1
_geom_bond_atom_site_label_2
_geom_bond_site_symmetry_1
_geom_bond_site_symmetry_2
S1 C1 1_555 1_555
C1 C1B 1_555 1_555
C2 S1 1_555 1_555
C3 C2 1_555 1_555
C4 C3 1_555 1_555
C5 C4 1_555 1_555
C6 C5 1_555 1_555
C7 C2 1_555 1_555
C8 C6 1_555 1_555
C9 C8 1_555 1_555
C10 C9 1_555 1_555
H1 C10 1_555 1_555
C11 C10 1_555 1_555
C12 C11 1_555 1_555
H2 C12 1_555 1_555
C13 C8 1_555 1_555
H3 C4 1_555 1_555
H4 C5 1_555 1_555
H5 C7 1_555 1_555
H6 C9 1_555 1_555
H7 C11 1_555 1_555
H8 C13 1_555 1_555
S1B C1B 1_555 1_555
C1B C3 1_555 1_555
C2B S1B 1_555 1_555
C3B C1 1_555 1_555
C4B C3B 1_555 1_555
C5B C4B 1_555 1_555
C6B C5B 1_555 1_555
C7B C2B 1_555 1_555
C8B C6B 1_555 1_555
C9B C8B 1_555 1_555
C10B C9B 1_555 1_555
H1B C10B 1_555 1_555
C11B C10B 1_555 1_555
C12B C11B 1_555 1_555
H2B C12B 1_555 1_555
C13B C8B 1_555 1_555
H3B C4B 1_555 1_555
H4B C5B 1_555 1_555
H5B C7B 1_555 1_555
H6B C9B 1_555 1_555
H7B C11B 1_555 1_555
H8B C13B 1_555 1_555
C6 C7 1_555 1_555
C12 C13 1_555 1_555
C2B C3B 1_555 1_555
C6B C7B 1_555 1_555
C12B C13B 1_555 1_555

#END
