
#######################################################################
#
#                 Cambridge Crystallographic Data Centre
#                                CCDC 
#
#######################################################################
#
# If this CIF has been generated from an entry in the Cambridge 
# Structural Database, then it will include bibliographic, chemical, 
# crystal, experimental, refinement or atomic coordinate data resulting 
# from the CCDC's data processing and validation procedures.
#
#######################################################################

data_UVALUA
_chemical_formula_moiety         'C18 H11 F10 N1 O2'
_chemical_name_systematic        
'(R)-N-(2,3,5,6-tetrafluoro-4-(trifluoromethyl)phenyl)-3-(4-(trifluoromethoxy)phenyl) butanamide'
_symmetry_cell_setting           orthorhombic
_symmetry_space_group_name_H-M   'P 21 21 21'
_symmetry_Int_Tables_number      19
_space_group_name_Hall           'P 2ac 2ab'
loop_
_symmetry_equiv_pos_site_id
_symmetry_equiv_pos_as_xyz
1 x,y,z
2 1/2+x,1/2-y,-z
3 -x,1/2+y,1/2-z
4 1/2-x,-y,1/2+z
_cell_length_a                   4.72720(10)
_cell_length_b                   9.8724(4)
_cell_length_c                   38.2424(11)
_cell_angle_alpha                90
_cell_angle_beta                 90
_cell_angle_gamma                90
_cell_volume                     1784.73
_exptl_crystal_colour            colorless
_exptl_crystal_description       needle
_cell_formula_units_Z            4
loop_
_atom_site_label
_atom_site_type_symbol
_atom_site_fract_x
_atom_site_fract_y
_atom_site_fract_z
F1 F 0.0865(6) 0.9278(2) 0.45362(6)
F2 F -0.2558(6) 1.0492(3) 0.43390(6)
F3 F 0.1036(6) 1.1426(3) 0.45798(6)
F4 F 0.5835(4) 0.75318(19) 0.73227(5)
F5 F 0.6999(4) 0.7339(2) 0.79952(5)
F6 F -0.1084(4) 1.08418(18) 0.75685(5)
F7 F 0.0011(4) 1.0653(2) 0.82416(5)
F8 F 0.2852(6) 0.9595(2) 0.87391(5)
F9 F 0.3034(5) 0.7486(2) 0.86221(5)
F10 F 0.6818(5) 0.8667(3) 0.86040(6)
O1 O -0.2140(6) 1.0308(3) 0.48962(6)
O2 O 0.5935(5) 0.9653(2) 0.68569(6)
N1 N 0.1543(5) 0.9283(3) 0.70708(6)
C1 C -0.0725(9) 1.0366(4) 0.45963(9)
C2 C 0.2383(9) 1.0682(4) 0.56721(9)
H1 H 0.3416 1.1369 0.5790
C3 C 0.0929(10) 1.1009(4) 0.53687(9)
H2 H 0.0946 1.1907 0.5280
C4 C -0.0548(8) 0.9992(4) 0.51991(8)
C5 C -0.0619(8) 0.8698(4) 0.53216(9)
H3 H -0.1642 0.8017 0.5200
C6 C 0.0838(8) 0.8391(4) 0.56291(9)
H4 H 0.0783 0.7492 0.5718
C7 C 0.2368(7) 0.9374(4) 0.58079(8)
C8 C 0.3874(7) 0.9089(3) 0.61530(8)
H5 H 0.5698 0.9602 0.6152
C9 C 0.4563(9) 0.7611(4) 0.62131(9)
H6 H 0.2803 0.7093 0.6234
H7 H 0.5665 0.7517 0.6429
H8 H 0.5667 0.7265 0.6015
C10 C 0.2052(7) 0.9655(4) 0.64505(8)
H9 H 0.1662 1.0624 0.6404
H10 H 0.0218 0.9172 0.6453
C11 C 0.3413(6) 0.9526(3) 0.68064(8)
C12 C 0.2307(6) 0.9199(3) 0.74230(8)
C13 C 0.0907(6) 0.9963(3) 0.76741(8)
C14 C 0.1480(7) 0.9860(3) 0.80244(8)
C15 C 0.3531(7) 0.8964(3) 0.81473(8)
C16 C 0.4981(7) 0.8218(3) 0.78967(8)
C17 C 0.4409(6) 0.8328(3) 0.75467(8)
C18 C 0.4079(8) 0.8692(4) 0.85297(9)
H11 H -0.021(11) 0.945(5) 0.7028(12)
loop_
_geom_bond_atom_site_label_1
_geom_bond_atom_site_label_2
_geom_bond_site_symmetry_1
_geom_bond_site_symmetry_2
F1 C1 1_555 1_555
F2 C1 1_555 1_555
F3 C1 1_555 1_555
F4 C17 1_555 1_555
F5 C16 1_555 1_555
F6 C13 1_555 1_555
F7 C14 1_555 1_555
F8 C18 1_555 1_555
F9 C18 1_555 1_555
F10 C18 1_555 1_555
O1 C1 1_555 1_555
O2 C11 1_555 1_555
N1 C11 1_555 1_555
C2 H1 1_555 1_555
C3 C2 1_555 1_555
H2 C3 1_555 1_555
C4 O1 1_555 1_555
C5 C4 1_555 1_555
H3 C5 1_555 1_555
C6 C5 1_555 1_555
H4 C6 1_555 1_555
C7 C2 1_555 1_555
C8 C7 1_555 1_555
H5 C8 1_555 1_555
C9 C8 1_555 1_555
H6 C9 1_555 1_555
H7 C9 1_555 1_555
H8 C9 1_555 1_555
C10 C8 1_555 1_555
H9 C10 1_555 1_555
H10 C10 1_555 1_555
C11 C10 1_555 1_555
C12 N1 1_555 1_555
C13 C12 1_555 1_555
C14 C13 1_555 1_555
C15 C14 1_555 1_555
C16 C15 1_555 1_555
C17 C12 1_555 1_555
C18 C15 1_555 1_555
H11 N1 1_555 1_555
C3 C4 1_555 1_555
C6 C7 1_555 1_555
C16 C17 1_555 1_555

#END
