
#######################################################################
#
#                 Cambridge Crystallographic Data Centre
#                                CCDC 
#
#######################################################################
#
# If this CIF has been generated from an entry in the Cambridge 
# Structural Database, then it will include bibliographic, chemical, 
# crystal, experimental, refinement or atomic coordinate data resulting 
# from the CCDC's data processing and validation procedures.
#
#######################################################################

data_UVANAI
_chemical_compound_source        'isolated from the roots of Caragana pruinosa'
_chemical_name_common            'pruinosanone A'
_chemical_formula_moiety         'C22 H20 O7'
_chemical_name_systematic        
4,5-dimethoxy-8'-(prop-1-en-2-yl)-8',9'-dihydro-4'H-spiro[1,3-benzodioxole-2,3'-furo[2,3-h]chromen]-4'-one
_chemical_properties_biological  
'Inhibits nitric oxide (NO) production in LPS-induced RAW 264.7 macrophages. Inhibits inducible nitric oxide synthase (iNOS) protein expression, which accounts for the potent inhibition of NO production by this spirochromone.'
_symmetry_cell_setting           monoclinic
_symmetry_space_group_name_H-M   'P 21'
_symmetry_Int_Tables_number      4
_space_group_name_Hall           'P 2yb'
loop_
_symmetry_equiv_pos_site_id
_symmetry_equiv_pos_as_xyz
1 x,y,z
2 -x,1/2+y,-z
_cell_length_a                   9.58860(10)
_cell_length_b                   9.43910(10)
_cell_length_c                   10.7943(2)
_cell_angle_alpha                90
_cell_angle_beta                 109.7170(10)
_cell_angle_gamma                90
_cell_volume                     919.689
_exptl_crystal_colour            colorless
_exptl_crystal_description       block
_cell_formula_units_Z            2
_exptl_crystal_recrystallization_method methanol
loop_
_atom_site_label
_atom_site_type_symbol
_atom_site_fract_x
_atom_site_fract_y
_atom_site_fract_z
O1 O 0.30041(18) 0.63805(19) 0.68053(15)
O2 O 0.9440(2) 0.7816(2) 0.39335(17)
O3 O 0.73585(17) 0.59550(19) 0.32007(14)
O4 O 0.6198(2) 0.3413(2) 0.69151(19)
O5 O 0.22298(19) 0.4530(2) 1.04872(16)
O6 O 0.55327(19) 0.5483(2) 0.50223(16)
O7 O 0.6019(2) 0.6743(2) 0.69683(17)
C1 C 0.3494(3) 0.6153(3) 0.5699(2)
H1 H 0.3389 0.7043 0.5191
H2 H 0.2861 0.5425 0.5113
C2 C 0.5089(3) 0.5674(3) 0.6145(2)
C3 C 0.5316(2) 0.4316(3) 0.6968(2)
C4 C 0.4721(2) 0.3272(3) 0.8846(2)
H3 H 0.5430 0.2553 0.8894
C5 C 0.4001(2) 0.3268(3) 0.9754(2)
H4 H 0.4177 0.2558 1.0412
C6 C 0.2997(2) 0.4372(3) 0.9650(2)
C7 C 0.2685(2) 0.5405(3) 0.8691(2)
C8 C 0.3380(2) 0.5364(2) 0.7756(2)
C9 C 0.4446(2) 0.4299(3) 0.7851(2)
C10 C 0.1527(2) 0.5943(3) 1.0247(2)
H5 H 0.2164 0.6620 1.0911
C11 C 0.1529(3) 0.6385(3) 0.8870(2)
H6 H 0.0550 0.6227 0.8187
H7 H 0.1816 0.7391 0.8854
C12 C 0.0053(3) 0.5826(3) 1.0451(2)
C13 C -0.0096(3) 0.6400(4) 1.1513(3)
H8 H -0.1005 0.6311 1.1677
H9 H 0.0707 0.6903 1.2116
C14 C -0.1149(3) 0.5019(4) 0.9452(3)
H10 H -0.2005 0.4932 0.9749
H11 H -0.0786 0.4072 0.9343
H12 H -0.1443 0.5522 0.8608
C15 C 0.6691(2) 0.6418(3) 0.5173(2)
C16 C 0.7508(2) 0.6632(2) 0.43506(19)
C17 C 0.8665(2) 0.7643(2) 0.4780(2)
C18 C 0.8956(2) 0.8368(3) 0.5962(2)
H13 H 0.9745 0.9033 0.6225
C19 C 0.8104(2) 0.8132(3) 0.6773(2)
H14 H 0.8293 0.8622 0.7582
C20 C 0.6994(2) 0.7166(3) 0.6341(2)
C21 C 1.0475(3) 0.8946(3) 0.4216(3)
H15 H 0.9966 0.9839 0.4245
H16 H 1.0929 0.8999 0.3529
H17 H 1.1246 0.8780 0.5070
C22 C 0.6109(3) 0.5048(3) 0.2651(2)
H18 H 0.6214 0.4205 0.3206
H19 H 0.6053 0.4760 0.1763
H20 H 0.5201 0.5555 0.2607
loop_
_geom_bond_atom_site_label_1
_geom_bond_atom_site_label_2
_geom_bond_site_symmetry_1
_geom_bond_site_symmetry_2
O1 C1 1_555 1_555
O2 C17 1_555 1_555
O3 C16 1_555 1_555
O4 C3 1_555 1_555
O5 C6 1_555 1_555
O6 C2 1_555 1_555
O7 C2 1_555 1_555
C1 H1 1_555 1_555
H2 C1 1_555 1_555
C2 C1 1_555 1_555
C3 C2 1_555 1_555
C4 H3 1_555 1_555
C5 C4 1_555 1_555
H4 C5 1_555 1_555
C6 C5 1_555 1_555
C7 C6 1_555 1_555
C8 O1 1_555 1_555
C9 C3 1_555 1_555
C10 O5 1_555 1_555
H5 C10 1_555 1_555
C11 C7 1_555 1_555
H6 C11 1_555 1_555
H7 C11 1_555 1_555
C12 C10 1_555 1_555
C13 C12 1_555 1_555
H8 C13 1_555 1_555
H9 C13 1_555 1_555
C14 C12 1_555 1_555
H10 C14 1_555 1_555
H11 C14 1_555 1_555
H12 C14 1_555 1_555
C15 O6 1_555 1_555
C16 C15 1_555 1_555
C17 C16 1_555 1_555
C18 C17 1_555 1_555
H13 C18 1_555 1_555
C19 C18 1_555 1_555
H14 C19 1_555 1_555
C20 O7 1_555 1_555
C21 O2 1_555 1_555
H15 C21 1_555 1_555
H16 C21 1_555 1_555
H17 C21 1_555 1_555
C22 O3 1_555 1_555
H18 C22 1_555 1_555
H19 C22 1_555 1_555
H20 C22 1_555 1_555
C4 C9 1_555 1_555
C7 C8 1_555 1_555
C8 C9 1_555 1_555
C10 C11 1_555 1_555
C15 C20 1_555 1_555
C19 C20 1_555 1_555

#END
