
#######################################################################
#
#                 Cambridge Crystallographic Data Centre
#                                CCDC 
#
#######################################################################
#
# If this CIF has been generated from an entry in the Cambridge 
# Structural Database, then it will include bibliographic, chemical, 
# crystal, experimental, refinement or atomic coordinate data resulting 
# from the CCDC's data processing and validation procedures.
#
#######################################################################

data_UVAQOZ
_chemical_compound_source        fungi
_chemical_name_common            'flavichalasine B'
_chemical_formula_moiety         'C24 H37 N1 O4'
_chemical_name_systematic        
2,5-dihydroxy-9-isobutyl-5,7,8-trimethyl-2,3,4,5,5a,5b,8,8a,9,10,13,13a-dodecahydro-1H-cyclohepta[3,4]benzo[1,2-d]isoindole-11,12-dione
_symmetry_cell_setting           monoclinic
_symmetry_space_group_name_H-M   'P 21'
_symmetry_Int_Tables_number      4
_space_group_name_Hall           'P 2yb'
loop_
_symmetry_equiv_pos_site_id
_symmetry_equiv_pos_as_xyz
1 x,y,z
2 -x,1/2+y,-z
_cell_length_a                   15.2860(2)
_cell_length_b                   7.86750(10)
_cell_length_c                   18.8029(3)
_cell_angle_alpha                90
_cell_angle_beta                 92.76
_cell_angle_gamma                90
_cell_volume                     2258.66
_exptl_crystal_colour            colorless
_exptl_crystal_description       prism
_cell_formula_units_Z            4
_exptl_crystal_recrystallization_method 'Vapour deposition'
loop_
_atom_site_label
_atom_site_type_symbol
_atom_site_fract_x
_atom_site_fract_y
_atom_site_fract_z
O1 O 0.13274(9) -0.0512(2) 0.04002(7)
H1 H 0.1194 -0.1437 0.0590
O2 O 0.23693(10) 0.0901(2) 0.33510(8)
O3 O 0.10829(9) 0.5453(2) 0.34458(7)
O4 O 0.08188(9) 0.6710(2) 0.11845(7)
H2 H 0.0305 0.6601 0.1317
N1 N 0.24099(11) 0.5590(3) 0.40485(9)
H3 H 0.2236 0.6225 0.4400
C1 C 0.09582(12) 0.0865(3) 0.07805(10)
H4 H 0.0335 0.0580 0.0866
C2 C 0.14440(13) 0.1123(3) 0.15018(10)
H5 H 0.2049 0.1505 0.1424
H6 H 0.1480 0.0023 0.1757
C3 C 0.09911(12) 0.2438(3) 0.19672(10)
H7 H 0.0356 0.2429 0.1812
C4 C 0.13073(12) 0.4290(3) 0.18981(9)
H8 H 0.0911 0.4989 0.2189
C5 C 0.22339(12) 0.4520(3) 0.22448(10)
H9 H 0.2634 0.3821 0.1957
C6 C 0.23508(12) 0.3852(3) 0.30322(10)
C7 C 0.33236(12) 0.3992(3) 0.33054(10)
H10 H 0.3561 0.2832 0.3415
C8 C 0.33167(13) 0.5060(3) 0.40033(10)
H11 H 0.3690 0.6091 0.3949
C9 C 0.36455(13) 0.4082(3) 0.46639(10)
H12 H 0.4250 0.3691 0.4590
H13 H 0.3276 0.3059 0.4711
C10 C 0.36472(13) 0.5077(3) 0.53629(10)
H14 H 0.3033 0.5442 0.5443
C11 C 0.42190(16) 0.6661(4) 0.53439(12)
H15 H 0.4229 0.7224 0.5809
H16 H 0.3980 0.7440 0.4977
H17 H 0.4816 0.6336 0.5233
C12 C 0.09677(13) 0.2390(3) 0.02906(10)
H18 H 0.0619 0.2113 -0.0152
H19 H 0.1578 0.2592 0.0159
C13 C 0.06118(12) 0.4035(3) 0.05961(10)
H20 H 0.0070 0.3756 0.0840
H21 H 0.0443 0.4794 0.0193
C14 C 0.12168(12) 0.5042(3) 0.11210(10)
C15 C 0.10466(13) 0.1901(3) 0.27612(10)
H22 H 0.0646 0.2619 0.3031
H23 H 0.0854 0.0705 0.2802
C16 C 0.19604(13) 0.2076(3) 0.30798(9)
C17 C 0.18581(13) 0.5057(3) 0.35261(10)
C18 C 0.38978(13) 0.4878(3) 0.27549(11)
H24 H 0.3901 0.4114 0.2330
C19 C 0.48520(14) 0.5066(4) 0.30308(13)
H25 H 0.5189 0.5638 0.2670
H26 H 0.5102 0.3939 0.3129
H27 H 0.4876 0.5742 0.3469
C20 C 0.34334(13) 0.6499(3) 0.25136(10)
C21 C 0.38694(16) 0.8210(4) 0.25825(13)
H28 H 0.3459 0.9094 0.2413
H29 H 0.4389 0.8228 0.2297
H30 H 0.4044 0.8421 0.3083
C22 C 0.26076(13) 0.6294(3) 0.22643(10)
H31 H 0.2265 0.7239 0.2104
C23 C 0.39556(15) 0.3936(4) 0.59810(12)
H32 H 0.4569 0.3619 0.5927
H33 H 0.3594 0.2908 0.5982
H34 H 0.3902 0.4547 0.6431
C24 C 0.20801(13) 0.5389(3) 0.07658(10)
H35 H 0.1957 0.5710 0.0268
H36 H 0.2443 0.4361 0.0787
H37 H 0.2392 0.6317 0.1016
O5 O 0.76246(10) 0.3979(2) 0.53871(7)
H38 H 0.7720 0.4534 0.5764
O6 O 0.99708(9) 0.8232(2) 0.36569(7)
H39 H 1.0387 0.7548 0.3617
O7 O 0.92115(9) 0.5016(2) 0.17341(7)
O8 O 0.68085(9) 0.3353(2) 0.24762(8)
N2 N 0.79810(10) 0.5298(3) 0.10020(8)
H40 H 0.8208 0.4905 0.0613
C25 C 0.58261(17) 0.2717(4) -0.02237(14)
H41 H 0.5229 0.3124 -0.0161
H42 H 0.5950 0.1750 0.0094
H43 H 0.5883 0.2360 -0.0719
C26 C 0.64747(13) 0.4142(3) -0.00462(11)
H44 H 0.7079 0.3683 -0.0094
C27 C 0.63956(13) 0.4726(3) 0.07293(11)
H45 H 0.5813 0.5252 0.0774
H46 H 0.6424 0.3711 0.1041
C28 C 0.70960(12) 0.5992(3) 0.10003(10)
H47 H 0.7065 0.7030 0.0693
C29 C 0.69961(12) 0.6528(3) 0.17919(10)
H48 H 0.6437 0.6044 0.1959
C30 C 0.77709(12) 0.5675(3) 0.22114(10)
C31 C 0.81846(12) 0.6889(3) 0.27974(10)
H49 H 0.7696 0.7278 0.3093
C32 C 0.88816(12) 0.6073(3) 0.33124(10)
H50 H 0.9396 0.5829 0.3020
C33 C 0.85822(13) 0.4336(3) 0.35934(10)
H51 H 0.9112 0.3789 0.3828
C34 C 0.78842(13) 0.4417(3) 0.41596(10)
H52 H 0.7551 0.5492 0.4106
H53 H 0.7467 0.3462 0.4086
C35 C 0.83089(13) 0.4316(3) 0.49054(10)
H54 H 0.8717 0.3322 0.4922
C36 C 0.88314(13) 0.5885(3) 0.51308(10)
H55 H 0.9124 0.5661 0.5603
H56 H 0.8417 0.6836 0.5189
C37 C 0.95310(13) 0.6460(3) 0.46188(10)
H57 H 0.9877 0.5447 0.4496
H58 H 0.9934 0.7248 0.4883
C38 C 0.92246(12) 0.7340(3) 0.39139(10)
C39 C 0.84248(12) 0.5297(3) 0.16319(10)
C40 C 0.63402(16) 0.5590(4) -0.05737(11)
H59 H 0.5748 0.6053 -0.0540
H60 H 0.6414 0.5167 -0.1057
H61 H 0.6771 0.6486 -0.0464
C41 C 0.69899(13) 0.8473(3) 0.19102(10)
H62 H 0.6785 0.8637 0.2403
C42 C 0.79229(14) 0.9164(3) 0.19297(10)
C43 C 0.84871(13) 0.8424(3) 0.23937(10)
H63 H 0.9066 0.8850 0.2469
C44 C 0.81789(16) 1.0552(3) 0.14340(11)
H64 H 0.8780 1.0914 0.1558
H65 H 0.7781 1.1520 0.1477
H66 H 0.8142 1.0129 0.0943
C45 C 0.63220(16) 0.9408(4) 0.14202(12)
H67 H 0.6254 1.0576 0.1589
H68 H 0.5757 0.8821 0.1423
H69 H 0.6527 0.9425 0.0935
C46 C 0.75346(13) 0.3975(3) 0.25432(10)
C47 C 0.82787(14) 0.3170(3) 0.29720(10)
H70 H 0.8773 0.2960 0.2662
H71 H 0.8088 0.2063 0.3161
C48 C 0.85898(13) 0.8772(3) 0.40807(10)
H72 H 0.8836 0.9449 0.4479
H73 H 0.8029 0.8284 0.4209
H74 H 0.8498 0.9500 0.3661
loop_
_geom_bond_atom_site_label_1
_geom_bond_atom_site_label_2
_geom_bond_site_symmetry_1
_geom_bond_site_symmetry_2
O1 H1 1_555 1_555
O2 C16 1_555 1_555
O3 C17 1_555 1_555
O4 H2 1_555 1_555
N1 H3 1_555 1_555
C1 O1 1_555 1_555
H4 C1 1_555 1_555
C2 C1 1_555 1_555
H5 C2 1_555 1_555
H6 C2 1_555 1_555
C3 C2 1_555 1_555
H7 C3 1_555 1_555
C4 C3 1_555 1_555
H8 C4 1_555 1_555
C5 C4 1_555 1_555
H9 C5 1_555 1_555
C6 C5 1_555 1_555
C7 C6 1_555 1_555
H10 C7 1_555 1_555
C8 N1 1_555 1_555
H11 C8 1_555 1_555
C9 C8 1_555 1_555
H12 C9 1_555 1_555
H13 C9 1_555 1_555
C10 C9 1_555 1_555
H14 C10 1_555 1_555
C11 C10 1_555 1_555
H15 C11 1_555 1_555
H16 C11 1_555 1_555
H17 C11 1_555 1_555
C12 C1 1_555 1_555
H18 C12 1_555 1_555
H19 C12 1_555 1_555
C13 C12 1_555 1_555
H20 C13 1_555 1_555
H21 C13 1_555 1_555
C14 O4 1_555 1_555
C15 C3 1_555 1_555
H22 C15 1_555 1_555
H23 C15 1_555 1_555
C16 C6 1_555 1_555
C17 N1 1_555 1_555
C18 C7 1_555 1_555
H24 C18 1_555 1_555
C19 C18 1_555 1_555
H25 C19 1_555 1_555
H26 C19 1_555 1_555
H27 C19 1_555 1_555
C20 C18 1_555 1_555
C21 C20 1_555 1_555
H28 C21 1_555 1_555
H29 C21 1_555 1_555
H30 C21 1_555 1_555
C22 C5 1_555 1_555
H31 C22 1_555 1_555
C23 C10 1_555 1_555
H32 C23 1_555 1_555
H33 C23 1_555 1_555
H34 C23 1_555 1_555
C24 C14 1_555 1_555
H35 C24 1_555 1_555
H36 C24 1_555 1_555
H37 C24 1_555 1_555
O5 H38 1_555 1_555
O6 H39 1_555 1_555
O7 C39 1_555 1_555
O8 C46 1_555 1_555
N2 H40 1_555 1_555
C25 H41 1_555 1_555
H42 C25 1_555 1_555
H43 C25 1_555 1_555
C26 C25 1_555 1_555
H44 C26 1_555 1_555
C27 C26 1_555 1_555
H45 C27 1_555 1_555
H46 C27 1_555 1_555
C28 N2 1_555 1_555
H47 C28 1_555 1_555
C29 C28 1_555 1_555
H48 C29 1_555 1_555
C30 C29 1_555 1_555
C31 C30 1_555 1_555
H49 C31 1_555 1_555
C32 C31 1_555 1_555
H50 C32 1_555 1_555
C33 C32 1_555 1_555
H51 C33 1_555 1_555
C34 C33 1_555 1_555
H52 C34 1_555 1_555
H53 C34 1_555 1_555
C35 O5 1_555 1_555
H54 C35 1_555 1_555
C36 C35 1_555 1_555
H55 C36 1_555 1_555
H56 C36 1_555 1_555
C37 C36 1_555 1_555
H57 C37 1_555 1_555
H58 C37 1_555 1_555
C38 O6 1_555 1_555
C39 N2 1_555 1_555
C40 C26 1_555 1_555
H59 C40 1_555 1_555
H60 C40 1_555 1_555
H61 C40 1_555 1_555
C41 C29 1_555 1_555
H62 C41 1_555 1_555
C42 C41 1_555 1_555
C43 C31 1_555 1_555
H63 C43 1_555 1_555
C44 C42 1_555 1_555
H64 C44 1_555 1_555
H65 C44 1_555 1_555
H66 C44 1_555 1_555
C45 C41 1_555 1_555
H67 C45 1_555 1_555
H68 C45 1_555 1_555
H69 C45 1_555 1_555
C46 C30 1_555 1_555
C47 C33 1_555 1_555
H70 C47 1_555 1_555
H71 C47 1_555 1_555
C48 C38 1_555 1_555
H72 C48 1_555 1_555
H73 C48 1_555 1_555
H74 C48 1_555 1_555
C4 C14 1_555 1_555
C6 C17 1_555 1_555
C7 C8 1_555 1_555
C13 C14 1_555 1_555
C15 C16 1_555 1_555
C20 C22 1_555 1_555
C27 C28 1_555 1_555
C30 C39 1_555 1_555
C32 C38 1_555 1_555
C34 C35 1_555 1_555
C37 C38 1_555 1_555
C42 C43 1_555 1_555
C46 C47 1_555 1_555

#END
