
#######################################################################
#
#                 Cambridge Crystallographic Data Centre
#                                CCDC 
#
#######################################################################
#
# If this CIF has been generated from an entry in the Cambridge 
# Structural Database, then it will include bibliographic, chemical, 
# crystal, experimental, refinement or atomic coordinate data resulting 
# from the CCDC's data processing and validation procedures.
#
#######################################################################

data_UVASEQ
_chemical_formula_moiety         'C29 H43 N3 O6'
_chemical_name_systematic        
'Prop-2-yn-1-yl 3-(2-azidoacetoxy)-7,12-dihydroxycholan-24-oate'
_symmetry_cell_setting           orthorhombic
_symmetry_space_group_name_H-M   'P 21 21 21'
_symmetry_Int_Tables_number      19
_space_group_name_Hall           'P 2ac 2ab'
loop_
_symmetry_equiv_pos_site_id
_symmetry_equiv_pos_as_xyz
1 x,y,z
2 1/2-x,-y,1/2+z
3 -x,1/2+y,1/2-z
4 1/2+x,1/2-y,-z
_cell_length_a                   7.567(3)
_cell_length_b                   10.377(3)
_cell_length_c                   35.890(13)
_cell_angle_alpha                90
_cell_angle_beta                 90
_cell_angle_gamma                90
_cell_volume                     2818.18
_exptl_crystal_colour            colorless
_exptl_crystal_description       plate
_cell_formula_units_Z            4
loop_
_atom_site_label
_atom_site_type_symbol
_atom_site_fract_x
_atom_site_fract_y
_atom_site_fract_z
O1 O 0.1391(5) 0.6750(3) 0.69270(8)
O2 O 0.3548(5) 0.7067(4) 0.65066(9)
O3 O 0.1021(4) 0.3435(3) 0.49434(8)
H1 H 0.0417 0.3142 0.4774
O4 O 0.6496(5) 0.3241(3) 0.43152(8)
H2 H 0.6098 0.3012 0.4517
O5 O 0.2652(4) 0.1369(3) 0.33374(7)
O6 O 0.0791(5) 0.1474(3) 0.28499(9)
N1 N 0.0799(7) -0.1210(5) 0.27712(13)
N2 N 0.1336(8) -0.1055(5) 0.24515(14)
N3 N 0.1688(11) -0.1012(6) 0.21474(14)
C1 C -0.1025(13) 0.8807(8) 0.74308(18)
H3 H -0.2023 0.9108 0.7554
C2 C 0.0214(11) 0.8433(6) 0.72776(14)
C3 C 0.1756(9) 0.8020(5) 0.70764(13)
H4 H 0.2770 0.7987 0.7242
H5 H 0.2014 0.8617 0.6876
C4 C 0.2469(7) 0.6384(5) 0.66450(11)
C5 C 0.2103(7) 0.4987(4) 0.65469(11)
H6 H 0.0835 0.4859 0.6534
H7 H 0.2555 0.4443 0.6745
C6 C 0.2924(7) 0.4561(4) 0.61790(10)
H8 H 0.2695 0.3648 0.6148
H9 H 0.4194 0.4669 0.6198
C7 C 0.2293(6) 0.5260(4) 0.58246(11)
H10 H 0.2598 0.6175 0.5847
C8 C 0.0256(6) 0.5148(6) 0.57813(12)
H11 H -0.0107 0.5578 0.5557
H12 H -0.0311 0.5540 0.5992
H13 H -0.0071 0.4255 0.5768
C9 C 0.3287(5) 0.4703(4) 0.54890(10)
H14 H 0.3038 0.3777 0.5481
C10 C 0.5326(5) 0.4863(5) 0.55279(11)
H15 H 0.5602 0.5650 0.5662
H16 H 0.5825 0.4140 0.5663
C11 C 0.6091(5) 0.4918(4) 0.51269(10)
H17 H 0.6613 0.5754 0.5077
H18 H 0.6982 0.4258 0.5091
C12 C 0.4505(5) 0.4682(4) 0.48747(10)
H19 H 0.4323 0.3747 0.4870
C13 C 0.2914(5) 0.5258(4) 0.50904(10)
C14 C 0.1218(5) 0.4803(4) 0.48948(11)
H20 H 0.0207 0.5233 0.5012
C15 C 0.1249(5) 0.5167(5) 0.44766(11)
H21 H 0.0213 0.4801 0.4358
H22 H 0.1165 0.6096 0.4455
C16 C 0.2898(5) 0.4714(4) 0.42633(10)
H23 H 0.2872 0.3770 0.4261
C17 C 0.4610(5) 0.5120(4) 0.44658(10)
H24 H 0.4671 0.6063 0.4463
C18 C 0.6261(6) 0.4605(4) 0.42729(11)
H25 H 0.7289 0.5034 0.4384
C19 C 0.6254(6) 0.4908(5) 0.38546(11)
H26 H 0.6474 0.5822 0.3822
H27 H 0.7222 0.4446 0.3738
C20 C 0.4549(6) 0.4562(4) 0.36528(12)
H28 H 0.4629 0.4973 0.3408
C21 C 0.2907(5) 0.5171(4) 0.38458(11)
C22 C 0.1239(6) 0.4722(4) 0.36334(12)
H29 H 0.0203 0.5032 0.3765
H30 H 0.1240 0.5114 0.3388
C23 C 0.1089(6) 0.3253(4) 0.35879(12)
H31 H 0.1033 0.2845 0.3831
H32 H 0.0017 0.3040 0.3453
C24 C 0.2690(6) 0.2765(4) 0.33756(11)
H33 H 0.2706 0.3157 0.3127
C25 C 0.4366(6) 0.3108(5) 0.35765(12)
H34 H 0.5366 0.2824 0.3429
H35 H 0.4401 0.2648 0.3812
C26 C 0.1692(6) 0.0862(5) 0.30603(12)
C27 C 0.1927(8) -0.0589(4) 0.30518(13)
H36 H 0.3154 -0.0788 0.2998
H37 H 0.1648 -0.0939 0.3295
C28 C 0.2955(6) 0.6754(4) 0.51003(12)
H38 H 0.2724 0.7085 0.4855
H39 H 0.4098 0.7039 0.5182
H40 H 0.2069 0.7062 0.5270
C29 C 0.2969(7) 0.6659(4) 0.38121(12)
H41 H 0.2969 0.6899 0.3554
H42 H 0.4023 0.6977 0.3929
H43 H 0.1952 0.7024 0.3933
loop_
_geom_bond_atom_site_label_1
_geom_bond_atom_site_label_2
_geom_bond_site_symmetry_1
_geom_bond_site_symmetry_2
O1 C3 1_555 1_555
O2 C4 1_555 1_555
O3 H1 1_555 1_555
O4 H2 1_555 1_555
O5 C24 1_555 1_555
O6 C26 1_555 1_555
N1 N2 1_555 1_555
N2 N3 1_555 1_555
C1 H3 1_555 1_555
C2 C1 1_555 1_555
C3 C2 1_555 1_555
H4 C3 1_555 1_555
H5 C3 1_555 1_555
C4 O1 1_555 1_555
C5 C4 1_555 1_555
H6 C5 1_555 1_555
H7 C5 1_555 1_555
C6 C5 1_555 1_555
H8 C6 1_555 1_555
H9 C6 1_555 1_555
C7 C6 1_555 1_555
H10 C7 1_555 1_555
C8 C7 1_555 1_555
H11 C8 1_555 1_555
H12 C8 1_555 1_555
H13 C8 1_555 1_555
C9 C7 1_555 1_555
H14 C9 1_555 1_555
C10 C9 1_555 1_555
H15 C10 1_555 1_555
H16 C10 1_555 1_555
C11 C10 1_555 1_555
H17 C11 1_555 1_555
H18 C11 1_555 1_555
C12 C11 1_555 1_555
H19 C12 1_555 1_555
C13 C9 1_555 1_555
C14 O3 1_555 1_555
H20 C14 1_555 1_555
C15 C14 1_555 1_555
H21 C15 1_555 1_555
H22 C15 1_555 1_555
C16 C15 1_555 1_555
H23 C16 1_555 1_555
C17 C12 1_555 1_555
H24 C17 1_555 1_555
C18 O4 1_555 1_555
H25 C18 1_555 1_555
C19 C18 1_555 1_555
H26 C19 1_555 1_555
H27 C19 1_555 1_555
C20 C19 1_555 1_555
H28 C20 1_555 1_555
C21 C16 1_555 1_555
C22 C21 1_555 1_555
H29 C22 1_555 1_555
H30 C22 1_555 1_555
C23 C22 1_555 1_555
H31 C23 1_555 1_555
H32 C23 1_555 1_555
C24 C23 1_555 1_555
H33 C24 1_555 1_555
C25 C20 1_555 1_555
H34 C25 1_555 1_555
H35 C25 1_555 1_555
C26 O5 1_555 1_555
C27 N1 1_555 1_555
H36 C27 1_555 1_555
H37 C27 1_555 1_555
C28 C13 1_555 1_555
H38 C28 1_555 1_555
H39 C28 1_555 1_555
H40 C28 1_555 1_555
C29 C21 1_555 1_555
H41 C29 1_555 1_555
H42 C29 1_555 1_555
H43 C29 1_555 1_555
C12 C13 1_555 1_555
C13 C14 1_555 1_555
C16 C17 1_555 1_555
C17 C18 1_555 1_555
C20 C21 1_555 1_555
C24 C25 1_555 1_555
C26 C27 1_555 1_555

#END
