
#######################################################################
#
#                 Cambridge Crystallographic Data Centre
#                                CCDC 
#
#######################################################################
#
# If this CIF has been generated from an entry in the Cambridge 
# Structural Database, then it will include bibliographic, chemical, 
# crystal, experimental, refinement or atomic coordinate data resulting 
# from the CCDC's data processing and validation procedures.
#
#######################################################################

data_UVAVET
_chemical_formula_moiety         'C21 H16 Br1 N1 O2'
_chemical_name_systematic        
(4-Bromo-11-methyldibenzo[b,f][1,4]oxazepin-10(11H)-yl)(phenyl)methanone
_symmetry_cell_setting           tetragonal
_symmetry_space_group_name_H-M   'P 43 21 2'
_symmetry_Int_Tables_number      96
_space_group_name_Hall           'P 4nw 2abw'
loop_
_symmetry_equiv_pos_site_id
_symmetry_equiv_pos_as_xyz
1 x,y,z
2 -x,-y,1/2+z
3 1/2-y,1/2+x,3/4+z
4 1/2+y,1/2-x,1/4+z
5 1/2-x,1/2+y,3/4-z
6 1/2+x,1/2-y,1/4-z
7 y,x,-z
8 -y,-x,1/2-z
_cell_length_a                   8.0493(5)
_cell_length_b                   8.0493(5)
_cell_length_c                   54.900(5)
_cell_angle_alpha                90
_cell_angle_beta                 90
_cell_angle_gamma                90
_cell_volume                     3557.04
_exptl_crystal_colour            colorless
_exptl_crystal_description       prismatic
_cell_formula_units_Z            8
loop_
_atom_site_label
_atom_site_type_symbol
_atom_site_fract_x
_atom_site_fract_y
_atom_site_fract_z
Br1 Br 0.44635(7) 0.27140(7) 0.107738(9)
N1 N 0.2417(4) 0.6564(4) 0.18683(5)
O1 O 0.3429(3) 0.4147(3) 0.15458(5)
O2 O 0.0274(4) 0.7922(4) 0.20445(5)
C1 C 0.3277(4) 0.5351(5) 0.13725(7)
C2 C 0.3560(5) 0.4851(6) 0.11341(7)
C3 C 0.3323(5) 0.5884(8) 0.09396(8)
H1 H 0.3504 0.5513 0.0781
C4 C 0.2814(6) 0.7474(8) 0.09835(8)
H2 H 0.2631 0.8193 0.0854
C5 C 0.2567(5) 0.8027(6) 0.12189(8)
H3 H 0.2239 0.9121 0.1244
C6 C 0.2794(4) 0.6999(5) 0.14204(7)
C7 C 0.2467(5) 0.7759(5) 0.16689(7)
H4 H 0.1359 0.8259 0.1661
C8 C 0.3678(6) 0.9184(6) 0.17262(9)
H5 H 0.3423 0.9638 0.1883
H6 H 0.3570 1.0035 0.1605
H7 H 0.4795 0.8767 0.1726
C9 C 0.1194(5) 0.6721(6) 0.20398(7)
C10 C 0.0964(4) 0.5300(6) 0.22121(7)
C11 C 0.0420(5) 0.5651(7) 0.24452(8)
H8 H 0.0252 0.6744 0.2494
C12 C 0.0130(6) 0.4353(9) 0.26051(9)
H9 H -0.0246 0.4581 0.2762
C13 C 0.0385(7) 0.2754(8) 0.25368(11)
H10 H 0.0233 0.1900 0.2649
C14 C 0.0864(6) 0.2396(7) 0.23035(11)
H11 H 0.0990 0.1297 0.2255
C15 C 0.1160(5) 0.3669(6) 0.21407(8)
H12 H 0.1493 0.3426 0.1982
C16 C 0.3887(4) 0.5634(5) 0.19157(7)
C17 C 0.4393(4) 0.4467(5) 0.17485(7)
C18 C 0.5769(5) 0.3488(5) 0.17861(9)
H13 H 0.6086 0.2691 0.1673
C19 C 0.6664(5) 0.3723(6) 0.19971(10)
H14 H 0.7595 0.3070 0.2027
C20 C 0.6206(5) 0.4900(6) 0.21629(9)
H15 H 0.6833 0.5054 0.2303
C21 C 0.4806(5) 0.5867(5) 0.21222(7)
H16 H 0.4494 0.6670 0.2235
loop_
_geom_bond_atom_site_label_1
_geom_bond_atom_site_label_2
_geom_bond_site_symmetry_1
_geom_bond_site_symmetry_2
Br1 C2 1_555 1_555
N1 C7 1_555 1_555
O1 C1 1_555 1_555
O2 C9 1_555 1_555
C1 C2 1_555 1_555
C2 C3 1_555 1_555
C3 H1 1_555 1_555
C4 C3 1_555 1_555
H2 C4 1_555 1_555
C5 C4 1_555 1_555
H3 C5 1_555 1_555
C6 C1 1_555 1_555
C7 C6 1_555 1_555
H4 C7 1_555 1_555
C8 C7 1_555 1_555
H5 C8 1_555 1_555
H6 C8 1_555 1_555
H7 C8 1_555 1_555
C9 N1 1_555 1_555
C10 C9 1_555 1_555
C11 C10 1_555 1_555
H8 C11 1_555 1_555
C12 C11 1_555 1_555
H9 C12 1_555 1_555
C13 C12 1_555 1_555
H10 C13 1_555 1_555
C14 C13 1_555 1_555
H11 C14 1_555 1_555
C15 C10 1_555 1_555
H12 C15 1_555 1_555
C16 N1 1_555 1_555
C17 O1 1_555 1_555
C18 C17 1_555 1_555
H13 C18 1_555 1_555
C19 C18 1_555 1_555
H14 C19 1_555 1_555
C20 C19 1_555 1_555
H15 C20 1_555 1_555
C21 C16 1_555 1_555
H16 C21 1_555 1_555
C5 C6 1_555 1_555
C14 C15 1_555 1_555
C16 C17 1_555 1_555
C20 C21 1_555 1_555

#END
