
#######################################################################
#
#                 Cambridge Crystallographic Data Centre
#                                CCDC 
#
#######################################################################
#
# If this CIF has been generated from an entry in the Cambridge 
# Structural Database, then it will include bibliographic, chemical, 
# crystal, experimental, refinement or atomic coordinate data resulting 
# from the CCDC's data processing and validation procedures.
#
#######################################################################

data_UVAWUK
_chemical_formula_moiety         'C29 H33 O3 P1'
_chemical_name_systematic        
'Methyl 7-t-butyl-2-(diphenylphosphoryl)-3-methyl-1,2,3,4-tetrahydronaphthalene-1-carboxylate'
_symmetry_cell_setting           monoclinic
_symmetry_space_group_name_H-M   'P 21/n'
_symmetry_Int_Tables_number      14
_space_group_name_Hall           '-P 2yn'
loop_
_symmetry_equiv_pos_site_id
_symmetry_equiv_pos_as_xyz
1 x,y,z
2 1/2-x,1/2+y,1/2-z
3 -x,-y,-z
4 1/2+x,1/2-y,1/2+z
_cell_length_a                   12.3944(14)
_cell_length_b                   15.6919(19)
_cell_length_c                   13.1793(16)
_cell_angle_alpha                90
_cell_angle_beta                 94.749(3)
_cell_angle_gamma                90
_cell_volume                     2554.46
_exptl_crystal_colour            colorless
_exptl_crystal_description       block
_cell_formula_units_Z            4
loop_
_atom_site_label
_atom_site_type_symbol
_atom_site_fract_x
_atom_site_fract_y
_atom_site_fract_z
P1 P 0.84071(3) 0.18467(3) 0.36255(3)
O1 O 0.84999(11) -0.02186(8) 0.52855(10)
O2 O 0.68295(11) 0.02559(9) 0.54900(10)
O3 O 0.77727(9) 0.26497(7) 0.36366(10)
C1 C 0.90681(12) 0.15363(10) 0.48625(12)
H1 H 0.9503 0.1022 0.4743
C2 C 0.82492(12) 0.12769(10) 0.56284(12)
H2 H 0.7608 0.1654 0.5539
C3 C 0.87241(12) 0.13160(10) 0.67441(12)
C4 C 0.80495(13) 0.11027(11) 0.75039(13)
H3 H 0.7326 0.0954 0.7314
C5 C 0.84119(14) 0.11023(12) 0.85297(13)
C6 C 0.94953(14) 0.13314(12) 0.87748(13)
H4 H 0.9772 0.1332 0.9461
C7 C 1.01627(14) 0.15549(12) 0.80366(13)
H5 H 1.0882 0.1712 0.8229
C8 C 0.97940(13) 0.15532(11) 0.70050(12)
C9 C 1.05248(13) 0.18371(12) 0.62121(13)
H6 H 1.0937 0.1348 0.5992
H7 H 1.1041 0.2259 0.6510
C10 C 0.98720(13) 0.22267(11) 0.52907(13)
H8 H 1.0378 0.2349 0.4766
C11 C 0.93414(17) 0.30669(11) 0.55652(16)
H9 H 0.8876 0.2970 0.6110
H10 H 0.8914 0.3287 0.4973
H11 H 0.9898 0.3477 0.5786
C12 C 0.78957(14) 0.03540(11) 0.54349(12)
C13 C 0.6458(2) -0.06181(16) 0.5349(2)
H12 H 0.6663 -0.0830 0.4701
H13 H 0.5677 -0.0637 0.5358
H14 H 0.6788 -0.0970 0.5895
C14 C 0.76883(15) 0.08765(15) 0.93786(14)
C15 C 0.6534(12) 0.063(2) 0.9022(16)
H15 H 0.6130 0.0524 0.9609
H16 H 0.6538 0.0123 0.8606
H17 H 0.6195 0.1095 0.8625
C16 C 0.7573(14) 0.1572(10) 1.0175(12)
H18 H 0.7118 0.1366 1.0687
H19 H 0.7247 0.2073 0.9848
H20 H 0.8282 0.1716 1.0495
C17 C 0.8089(18) 0.0076(11) 0.9965(15)
H21 H 0.8834 0.0158 1.0233
H22 H 0.8044 -0.0411 0.9510
H23 H 0.7641 -0.0025 1.0522
C18 C 0.94970(13) 0.19053(10) 0.27912(13)
C19 C 0.94606(16) 0.25506(11) 0.20725(14)
H24 H 0.8888 0.2945 0.2038
C20 C 1.02635(19) 0.26181(14) 0.14031(16)
H25 H 1.0237 0.3062 0.0923
C21 C 1.10959(18) 0.20388(15) 0.14405(18)
H26 H 1.1632 0.2080 0.0979
C22 C 1.11437(17) 0.14003(16) 0.21526(17)
H27 H 1.1720 0.1010 0.2184
C23 C 1.03491(16) 0.13267(14) 0.28253(15)
H28 H 1.0385 0.0884 0.3307
C24 C 0.75465(13) 0.09770(10) 0.31573(11)
C25 C 0.64401(14) 0.11326(12) 0.30454(14)
H29 H 0.6169 0.1661 0.3245
C26 C 0.57355(16) 0.05136(13) 0.26424(17)
H30 H 0.4987 0.0622 0.2565
C27 C 0.61302(17) -0.02625(12) 0.23543(15)
H31 H 0.5650 -0.0680 0.2074
C28 C 0.72243(16) -0.04301(12) 0.24743(14)
H32 H 0.7488 -0.0963 0.2285
C29 C 0.79339(14) 0.01877(11) 0.28744(13)
H33 H 0.8681 0.0073 0.2955
C30? C 0.6607(14) 0.055(2) 0.8901(18)
C31? C 0.7561(15) 0.1738(9) 0.9899(17)
C32? C 0.8323(17) 0.0260(13) 1.0095(13)
H34? H 0.6143 0.0408 0.9434
H35? H 0.6725 0.0046 0.8499
H36? H 0.6264 0.0988 0.8467
H37? H 0.7139 0.1666 1.0480
H38? H 0.7194 0.2132 0.9420
H39? H 0.8270 0.1961 1.0125
H40? H 0.8939 0.0552 1.0437
H41? H 0.8575 -0.0215 0.9707
H42? H 0.7858 0.0049 1.0597
loop_
_geom_bond_atom_site_label_1
_geom_bond_atom_site_label_2
_geom_bond_site_symmetry_1
_geom_bond_site_symmetry_2
P1 O3 1_555 1_555
O1 C12 1_555 1_555
O2 C12 1_555 1_555
C1 P1 1_555 1_555
H1 C1 1_555 1_555
C2 C1 1_555 1_555
H2 C2 1_555 1_555
C3 C2 1_555 1_555
C4 C3 1_555 1_555
H3 C4 1_555 1_555
C5 C4 1_555 1_555
C6 C5 1_555 1_555
H4 C6 1_555 1_555
C7 C6 1_555 1_555
H5 C7 1_555 1_555
C8 C3 1_555 1_555
C9 C8 1_555 1_555
H6 C9 1_555 1_555
H7 C9 1_555 1_555
C10 C1 1_555 1_555
H8 C10 1_555 1_555
C11 C10 1_555 1_555
H9 C11 1_555 1_555
H10 C11 1_555 1_555
H11 C11 1_555 1_555
C12 C2 1_555 1_555
C13 O2 1_555 1_555
H12 C13 1_555 1_555
H13 C13 1_555 1_555
H14 C13 1_555 1_555
C14 C5 1_555 1_555
C15 C14 1_555 1_555
H15 C15 1_555 1_555
H16 C15 1_555 1_555
H17 C15 1_555 1_555
C16 C14 1_555 1_555
H18 C16 1_555 1_555
H19 C16 1_555 1_555
H20 C16 1_555 1_555
C17 C14 1_555 1_555
H21 C17 1_555 1_555
H22 C17 1_555 1_555
H23 C17 1_555 1_555
C18 P1 1_555 1_555
C19 C18 1_555 1_555
H24 C19 1_555 1_555
C20 C19 1_555 1_555
H25 C20 1_555 1_555
C21 C20 1_555 1_555
H26 C21 1_555 1_555
C22 C21 1_555 1_555
H27 C22 1_555 1_555
C23 C18 1_555 1_555
H28 C23 1_555 1_555
C24 P1 1_555 1_555
C25 C24 1_555 1_555
H29 C25 1_555 1_555
C26 C25 1_555 1_555
H30 C26 1_555 1_555
C27 C26 1_555 1_555
H31 C27 1_555 1_555
C28 C27 1_555 1_555
H32 C28 1_555 1_555
C29 C24 1_555 1_555
H33 C29 1_555 1_555
C7 C8 1_555 1_555
C9 C10 1_555 1_555
C22 C23 1_555 1_555
C28 C29 1_555 1_555

#END
