
#######################################################################
#
#                 Cambridge Crystallographic Data Centre
#                                CCDC 
#
#######################################################################
#
# If this CIF has been generated from an entry in the Cambridge 
# Structural Database, then it will include bibliographic, chemical, 
# crystal, experimental, refinement or atomic coordinate data resulting 
# from the CCDC's data processing and validation procedures.
#
#######################################################################

data_UVAXEV
_chemical_formula_moiety         'C20 H22 N4 O4'
_chemical_name_systematic        
1'-Benzyl-1,7'-dimethyltetrahydro-1'H,2H,5H-spiro[pyrrolidine-3,5'-pyrrolo[3',4':3,4]pyrrolo[1,2-a]imidazole]-2,5,6',8'(5a'H,7'H)-tetrone
_symmetry_cell_setting           monoclinic
_symmetry_space_group_name_H-M   'P 21/c'
_symmetry_Int_Tables_number      14
_space_group_name_Hall           '-P 2ybc'
loop_
_symmetry_equiv_pos_site_id
_symmetry_equiv_pos_as_xyz
1 x,y,z
2 -x,1/2+y,1/2-z
3 -x,-y,-z
4 x,1/2-y,1/2+z
_cell_length_a                   6.561(3)
_cell_length_b                   9.171(4)
_cell_length_c                   32.072(13)
_cell_angle_alpha                90
_cell_angle_beta                 94.608(6)
_cell_angle_gamma                90
_cell_volume                     1923.56
_exptl_crystal_colour            colorless
_exptl_crystal_description       plate
_cell_formula_units_Z            4
loop_
_atom_site_label
_atom_site_type_symbol
_atom_site_fract_x
_atom_site_fract_y
_atom_site_fract_z
C1 C 0.0941(13) 0.6779(9) 0.6005(3)
H1 H -0.0480 0.7181 0.5979
N1 N 0.1702(11) 0.6732(8) 0.6440(3)
C2 C 0.2966(15) 0.8026(11) 0.6508(3)
H2 H 0.3962 0.7909 0.6754
H3 H 0.2121 0.8903 0.6546
C3 C 0.4044(15) 0.8113(10) 0.6102(3)
H4 H 0.4588 0.9102 0.6056
H5 H 0.5166 0.7392 0.6098
N2 N 0.2310(10) 0.7749(7) 0.5790(2)
C4 C 0.2769(13) 0.7093(9) 0.5396(3)
C5 C 0.1077(17) 0.7561(9) 0.5079(3)
O1 O -0.0734(10) 0.7292(6) 0.50869(19)
N3 N 0.1878(12) 0.8383(7) 0.4774(2)
C6 C 0.0676(14) 0.9058(10) 0.4433(3)
H6 H 0.0816 0.8501 0.4176
H7 H 0.1156 1.0058 0.4396
H8 H -0.0764 0.9075 0.4494
C7 C 0.4001(16) 0.8394(9) 0.4824(3)
O2 O 0.5018(9) 0.9011(7) 0.4577(2)
C8 C 0.4703(13) 0.7640(9) 0.5213(3)
H9 H 0.5461 0.8318 0.5410
H10 H 0.5610 0.6814 0.5155
C9 C 0.2554(12) 0.5408(9) 0.5468(3)
H11 H 0.2080 0.4910 0.5200
C10 C 0.4401(15) 0.4673(9) 0.5667(3)
O3 O 0.6126(10) 0.4622(6) 0.5554(2)
N4 N 0.3876(12) 0.3945(8) 0.6020(3)
C11 C 0.5234(15) 0.3020(10) 0.6276(3)
H12 H 0.4728 0.2923 0.6554
H13 H 0.6605 0.3452 0.6303
H14 H 0.5294 0.2056 0.6146
C12 C 0.1818(15) 0.4126(10) 0.6081(3)
O4 O 0.0964(10) 0.3449(7) 0.6338(2)
C13 C 0.0975(12) 0.5259(10) 0.5781(3)
H15 H -0.0397 0.4983 0.5646
C14 C 0.0192(15) 0.6572(11) 0.6735(3)
H16 H -0.0765 0.5784 0.6639
H17 H -0.0603 0.7487 0.6744
C15 C 0.1093(17) 0.6221(11) 0.7170(3)
C16 C 0.2839(19) 0.5360(12) 0.7229(4)
H18 H 0.3458 0.4999 0.6992
C17 C 0.368(2) 0.5026(12) 0.7618(5)
H19 H 0.4908 0.4475 0.7649
C18 C 0.278(2) 0.5470(14) 0.7967(4)
H20 H 0.3345 0.5198 0.8238
C19 C 0.107(3) 0.6311(14) 0.7917(4)
H21 H 0.0428 0.6628 0.8157
C20 C 0.024(2) 0.6713(13) 0.7520(4)
H22 H -0.0924 0.7333 0.7491
loop_
_geom_bond_atom_site_label_1
_geom_bond_atom_site_label_2
_geom_bond_site_symmetry_1
_geom_bond_site_symmetry_2
C1 H1 1_555 1_555
N1 C1 1_555 1_555
C2 N1 1_555 1_555
H2 C2 1_555 1_555
H3 C2 1_555 1_555
C3 C2 1_555 1_555
H4 C3 1_555 1_555
H5 C3 1_555 1_555
N2 C1 1_555 1_555
C4 N2 1_555 1_555
C5 C4 1_555 1_555
O1 C5 1_555 1_555
N3 C5 1_555 1_555
C6 N3 1_555 1_555
H6 C6 1_555 1_555
H7 C6 1_555 1_555
H8 C6 1_555 1_555
C7 N3 1_555 1_555
O2 C7 1_555 1_555
C8 C4 1_555 1_555
H9 C8 1_555 1_555
H10 C8 1_555 1_555
C9 C4 1_555 1_555
H11 C9 1_555 1_555
C10 C9 1_555 1_555
O3 C10 1_555 1_555
N4 C10 1_555 1_555
C11 N4 1_555 1_555
H12 C11 1_555 1_555
H13 C11 1_555 1_555
H14 C11 1_555 1_555
C12 N4 1_555 1_555
O4 C12 1_555 1_555
C13 C1 1_555 1_555
H15 C13 1_555 1_555
C14 N1 1_555 1_555
H16 C14 1_555 1_555
H17 C14 1_555 1_555
C15 C14 1_555 1_555
C16 C15 1_555 1_555
H18 C16 1_555 1_555
C17 C16 1_555 1_555
H19 C17 1_555 1_555
C18 C17 1_555 1_555
H20 C18 1_555 1_555
C19 C18 1_555 1_555
H21 C19 1_555 1_555
C20 C15 1_555 1_555
H22 C20 1_555 1_555
C3 N2 1_555 1_555
C7 C8 1_555 1_555
C9 C13 1_555 1_555
C12 C13 1_555 1_555
C19 C20 1_555 1_555

#END
