
#######################################################################
#
#                 Cambridge Crystallographic Data Centre
#                                CCDC 
#
#######################################################################
#
# If this CIF has been generated from an entry in the Cambridge 
# Structural Database, then it will include bibliographic, chemical, 
# crystal, experimental, refinement or atomic coordinate data resulting 
# from the CCDC's data processing and validation procedures.
#
#######################################################################

data_UVAZUN
_chemical_formula_moiety         'C44 H26 N6 O1'
_chemical_name_systematic        
27,32-Diphenyl-9,12,15,36,37,38-hexa-azanonacyclo-[31.2.1.1^23,26^.1^28,31^.0^2,11^.0^3,8^.0^10,14^.0^13,22^.0^16,21^]-octatriaconta-1,3,5,7,10(14),11,13(22),16,18,20,23,25,27,29,31(37),32,34-heptadecaen-9-oxide
_symmetry_cell_setting           monoclinic
_symmetry_space_group_name_H-M   'P 21/c'
_symmetry_Int_Tables_number      14
_space_group_name_Hall           '-P 2ybc'
loop_
_symmetry_equiv_pos_site_id
_symmetry_equiv_pos_as_xyz
1 x,y,z
2 -x,1/2+y,1/2-z
3 -x,-y,-z
4 x,1/2-y,1/2+z
_cell_length_a                   25.595(6)
_cell_length_b                   9.572(2)
_cell_length_c                   25.369(6)
_cell_angle_alpha                90
_cell_angle_beta                 97.710(4)
_cell_angle_gamma                90
_cell_volume                     6159.1
_exptl_crystal_colour            black
_exptl_crystal_description       plate
_cell_formula_units_Z            8
loop_
_atom_site_label
_atom_site_type_symbol
_atom_site_fract_x
_atom_site_fract_y
_atom_site_fract_z
C1 C 0.10325(11) 0.2322(3) 0.49284(11)
C2 C 0.04821(11) 0.2202(4) 0.49671(11)
H1 H 0.0293 0.2704 0.5204
C3 C 0.02779(11) 0.1234(3) 0.46027(11)
H2 H -0.0080 0.0945 0.4540
C4 C 0.06920(10) 0.0729(3) 0.43310(10)
C5 C 0.06455(11) -0.0288(3) 0.39380(11)
C6 C 0.10738(11) -0.0904(3) 0.37158(11)
C7 C 0.10142(12) -0.1837(4) 0.32691(12)
H3 H 0.0691 -0.2160 0.3080
C8 C 0.15022(12) -0.2168(4) 0.31672(12)
H4 H 0.1590 -0.2761 0.2892
C9 C 0.18650(11) -0.1451(3) 0.35570(11)
C10 C 0.24162(11) -0.1589(3) 0.36025(11)
C11 C 0.27745(10) -0.1100(3) 0.40276(11)
C12 C 0.33337(10) -0.1239(3) 0.41046(11)
H5 H 0.3541 -0.1636 0.3859
C13 C 0.35193(11) -0.0708(3) 0.45896(11)
H6 H 0.3878 -0.0681 0.4746
C14 C 0.30806(10) -0.0199(3) 0.48210(11)
C15 C 0.30777(10) 0.0518(3) 0.53162(11)
C16 C 0.26794(10) 0.1440(3) 0.54118(10)
C17 C 0.27408(10) 0.2274(3) 0.58904(10)
C18 C 0.22683(10) 0.3100(3) 0.58538(11)
C19 C 0.19459(10) 0.2652(3) 0.53730(10)
C20 C 0.14197(11) 0.3084(3) 0.52721(10)
C21 C 0.01017(11) -0.0767(3) 0.37325(11)
C22 C -0.02797(11) 0.0197(4) 0.35228(11)
H7 H -0.0192 0.1161 0.3515
C23 C -0.07878(12) -0.0241(4) 0.33242(12)
H8 H -0.1044 0.0420 0.3178
C24 C -0.09162(12) -0.1635(4) 0.33417(13)
H9 H -0.1263 -0.1936 0.3212
C25 C -0.05430(12) -0.2592(4) 0.35462(12)
H10 H -0.0634 -0.3554 0.3555
C26 C -0.00348(12) -0.2169(4) 0.37408(11)
H11 H 0.0220 -0.2841 0.3880
C27 C 0.26335(10) -0.2361(3) 0.31691(11)
C28 C 0.25520(11) -0.1826(3) 0.26511(11)
H12 H 0.2363 -0.0977 0.2582
C29 C 0.27430(12) -0.2520(3) 0.22406(13)
H13 H 0.2691 -0.2142 0.1891
C30 C 0.30093(13) -0.3759(4) 0.23378(15)
H14 H 0.3138 -0.4241 0.2054
C31 C 0.30922(12) -0.4313(4) 0.28465(15)
H15 H 0.3277 -0.5170 0.2911
C32 C 0.29044(11) -0.3610(3) 0.32618(13)
H16 H 0.2962 -0.3987 0.3611
C33 C 0.34781(10) 0.0277(3) 0.57708(11)
C34 C 0.38242(11) -0.0889(3) 0.58066(12)
H17 H 0.3810 -0.1519 0.5516
C35 C 0.41817(11) -0.1123(3) 0.62557(12)
H18 H 0.4404 -0.1922 0.6274
C36 C 0.42183(11) -0.0190(4) 0.66847(13)
H19 H 0.4479 -0.0327 0.6984
C37 C 0.38812(11) 0.0913(3) 0.66720(12)
H20 H 0.3904 0.1535 0.6966
C38 C 0.34998(11) 0.1140(3) 0.62271(11)
C39 C 0.12688(11) 0.4200(3) 0.56077(11)
C40 C 0.16099(11) 0.4619(3) 0.60661(11)
C41 C 0.14624(12) 0.5641(3) 0.64151(12)
H21 H 0.1695 0.5886 0.6725
C42 C 0.09843(13) 0.6278(4) 0.63075(13)
H22 H 0.0877 0.6941 0.6550
C43 C 0.06546(14) 0.5956(4) 0.58440(13)
H23 H 0.0327 0.6429 0.5764
C44 C 0.07965(12) 0.4963(4) 0.55003(12)
H24 H 0.0569 0.4785 0.5180
N1 N 0.11456(9) 0.1415(3) 0.45458(9)
H25 H 0.1460 0.1285 0.4450
N2 N 0.15934(9) -0.0676(3) 0.38886(9)
N3 N 0.26419(8) -0.0420(2) 0.44724(8)
H26 H 0.2321 -0.0171 0.4521
N4 N 0.22035(9) 0.1691(2) 0.51075(9)
N5 N 0.31326(9) 0.2188(3) 0.62779(10)
N6 N 0.21107(9) 0.4003(2) 0.61966(9)
O1 O 0.23859(10) 0.4376(3) 0.66256(10)
C45 C 0.36761(11) 0.1756(3) 0.33999(10)
C46 C 0.39483(10) 0.2031(3) 0.39096(10)
C47 C 0.44790(10) 0.1585(3) 0.40883(10)
H27 H 0.4702 0.1076 0.3887
C48 C 0.45990(10) 0.2022(3) 0.45932(10)
H28 H 0.4921 0.1874 0.4819
C49 C 0.41411(10) 0.2764(3) 0.47245(10)
C50 C 0.41255(10) 0.3486(3) 0.52065(10)
C51 C 0.37142(10) 0.4302(3) 0.53423(11)
C52 C 0.36787(11) 0.4892(3) 0.58501(11)
H29 H 0.3935 0.4800 0.6156
C53 C 0.32169(11) 0.5611(3) 0.58254(12)
H30 H 0.3094 0.6098 0.6111
C54 C 0.29500(11) 0.5508(3) 0.52971(12)
C55 C 0.39797(11) 0.1164(3) 0.29882(10)
C56 C 0.38441(12) -0.0121(3) 0.27511(11)
H31 H 0.3561 -0.0643 0.2860
C57 C 0.41166(12) -0.0646(4) 0.23598(12)
H32 H 0.4023 -0.1527 0.2203
C58 C 0.45273(13) 0.0114(4) 0.21959(12)
H33 H 0.4714 -0.0246 0.1926
C59 C 0.46652(12) 0.1404(4) 0.24275(12)
H34 H 0.4943 0.1934 0.2312
C60 C 0.43989(11) 0.1912(3) 0.28243(11)
H35 H 0.4501 0.2780 0.2988
C61 C 0.46106(10) 0.3431(3) 0.56113(10)
C62 C 0.47718(10) 0.2190(3) 0.58769(10)
H36 H 0.4572 0.1360 0.5803
C63 C 0.52215(11) 0.2170(3) 0.62464(11)
H37 H 0.5322 0.1331 0.6433
C64 C 0.55256(11) 0.3359(3) 0.63459(11)
H38 H 0.5836 0.3333 0.6597
C65 C 0.53768(11) 0.4581(3) 0.60803(11)
H39 H 0.5587 0.5398 0.6145
C66 C 0.49149(11) 0.4617(3) 0.57140(11)
H40 H 0.4810 0.5464 0.5535
O2 O 0.08962(14) 0.7150(5) 0.46321(14)
C67 C 0.2279(6) 0.271(3) 0.3351(8)
C68 C 0.2331(7) 0.229(3) 0.2822(8)
H41 H 0.2052 0.2279 0.2535
C69 C 0.2837(7) 0.193(3) 0.2788(6)
H42 H 0.2970 0.1621 0.2476
C70 C 0.3134(4) 0.209(3) 0.3300(5)
N7 N 0.2775(7) 0.260(3) 0.3616(8)
H43 H 0.2860 0.2832 0.3953
C71 C 0.2465(6) 0.6196(18) 0.5109(8)
C72 C 0.2179(6) 0.5595(18) 0.4661(6)
C73 C 0.1630(6) 0.596(2) 0.4509(9)
C74 C 0.1445(4) 0.5094(11) 0.4067(6)
C75 C 0.1899(5) 0.4230(16) 0.3995(5)
C76 C 0.1838(4) 0.3285(13) 0.3574(4)
N8 N 0.2343(6) 0.4582(18) 0.4335(6)
C77 C 0.2217(4) 0.7299(12) 0.5382(5)
C78 C 0.2461(4) 0.8087(14) 0.5814(5)
H44 H 0.2816 0.7885 0.5954
C79 C 0.2202(4) 0.9142(12) 0.6044(4)
H45 H 0.2379 0.9659 0.6333
C80 C 0.1683(4) 0.9447(14) 0.5851(4)
H46 H 0.1505 1.0165 0.6015
C81 C 0.1425(4) 0.8739(12) 0.5432(5)
H47 H 0.1072 0.8977 0.5296
C82 C 0.1684(4) 0.7648(12) 0.5201(5)
N9 N 0.1383(5) 0.6918(13) 0.4773(4)
N10 N 0.0974(4) 0.5021(9) 0.3810(4)
C83 C 0.1301(3) 0.3100(9) 0.3297(4)
C84 C 0.0896(3) 0.4006(9) 0.3422(4)
C85 C 0.0382(3) 0.3866(9) 0.3159(3)
H48 H 0.0118 0.4516 0.3225
C86 C 0.0259(3) 0.2809(10) 0.2809(3)
H49 H -0.0086 0.2753 0.2619
C87 C 0.0634(3) 0.1799(8) 0.2721(3)
H50 H 0.0535 0.1019 0.2498
C88 C 0.1150(3) 0.1949(10) 0.2964(4)
H51 H 0.1406 0.1267 0.2906
N11 N 0.37445(8) 0.2751(2) 0.43030(8)
N12 N 0.32560(9) 0.4682(2) 0.50211(9)
H52 H 0.3173 0.4429 0.4687
O3? O 0.0544(2) 0.5065(6) 0.3788(2)
C89? C 0.2316(6) 0.243(3) 0.3247(10)
C90? C 0.2344(7) 0.204(4) 0.2714(9)
H53? H 0.2056 0.1994 0.2436
C91? C 0.2855(8) 0.174(3) 0.2668(6)
H54? H 0.2989 0.1449 0.2353
C92? C 0.3153(5) 0.193(3) 0.3178(6)
N13? N 0.2807(8) 0.236(4) 0.3523(9)
H55? H 0.2892 0.2564 0.3863
C93? C 0.2427(6) 0.585(2) 0.5026(9)
C94? C 0.2161(6) 0.528(2) 0.4551(7)
C95? C 0.1607(7) 0.558(3) 0.4400(10)
C96? C 0.1427(5) 0.4604(12) 0.3991(6)
C97? C 0.1893(6) 0.3865(17) 0.3869(6)
C98? C 0.1867(4) 0.2954(14) 0.3441(4)
N14? N 0.2319(7) 0.429(2) 0.4223(7)
C99? C 0.2125(4) 0.6963(13) 0.5249(6)
C100? C 0.2345(5) 0.7882(15) 0.5648(5)
H56? H 0.2709 0.7791 0.5776
C101? C 0.2064(4) 0.8907(13) 0.5865(5)
H57? H 0.2230 0.9452 0.6152
C102? C 0.1540(5) 0.9152(15) 0.5668(5)
H58? H 0.1347 0.9874 0.5812
C103? C 0.1307(5) 0.8330(14) 0.5261(5)
H59? H 0.0947 0.8481 0.5124
C104? C 0.1590(4) 0.7265(14) 0.5043(6)
N15? N 0.1326(6) 0.6508(14) 0.4619(5)
N16? N 0.0952(5) 0.4403(11) 0.3706(5)
C105? C 0.1337(4) 0.2538(10) 0.3214(5)
C106? C 0.0896(4) 0.3345(9) 0.3321(4)
C107? C 0.0390(3) 0.3082(11) 0.3065(4)
H60? H 0.0104 0.3664 0.3127
C108? C 0.0308(3) 0.1978(10) 0.2722(3)
H61? H -0.0035 0.1799 0.2542
C109? C 0.0728(3) 0.1107(9) 0.2633(3)
H62? H 0.0666 0.0316 0.2407
C110? C 0.1234(4) 0.1404(12) 0.2874(5)
H63? H 0.1518 0.0819 0.2806
O4? O 0.3238(3) 0.2900(10) 0.6661(3)
loop_
_geom_bond_atom_site_label_1
_geom_bond_atom_site_label_2
_geom_bond_site_symmetry_1
_geom_bond_site_symmetry_2
C1 C2 1_555 1_555
C2 H1 1_555 1_555
C3 C2 1_555 1_555
H2 C3 1_555 1_555
C4 C3 1_555 1_555
C5 C4 1_555 1_555
C6 C5 1_555 1_555
C7 C6 1_555 1_555
H3 C7 1_555 1_555
C8 C7 1_555 1_555
H4 C8 1_555 1_555
C9 C8 1_555 1_555
C10 C9 1_555 1_555
C11 C10 1_555 1_555
C12 C11 1_555 1_555
H5 C12 1_555 1_555
C13 C12 1_555 1_555
H6 C13 1_555 1_555
C14 C13 1_555 1_555
C15 C14 1_555 1_555
C16 C15 1_555 1_555
C17 C16 1_555 1_555
C18 C17 1_555 1_555
C19 C18 1_555 1_555
C20 C1 1_555 1_555
C21 C5 1_555 1_555
C22 C21 1_555 1_555
H7 C22 1_555 1_555
C23 C22 1_555 1_555
H8 C23 1_555 1_555
C24 C23 1_555 1_555
H9 C24 1_555 1_555
C25 C24 1_555 1_555
H10 C25 1_555 1_555
C26 C21 1_555 1_555
H11 C26 1_555 1_555
C27 C10 1_555 1_555
C28 C27 1_555 1_555
H12 C28 1_555 1_555
C29 C28 1_555 1_555
H13 C29 1_555 1_555
C30 C29 1_555 1_555
H14 C30 1_555 1_555
C31 C30 1_555 1_555
H15 C31 1_555 1_555
C32 C27 1_555 1_555
H16 C32 1_555 1_555
C33 C15 1_555 1_555
C34 C33 1_555 1_555
H17 C34 1_555 1_555
C35 C34 1_555 1_555
H18 C35 1_555 1_555
C36 C35 1_555 1_555
H19 C36 1_555 1_555
C37 C36 1_555 1_555
H20 C37 1_555 1_555
C38 C33 1_555 1_555
C39 C20 1_555 1_555
C40 C39 1_555 1_555
C41 C40 1_555 1_555
H21 C41 1_555 1_555
C42 C41 1_555 1_555
H22 C42 1_555 1_555
C43 C42 1_555 1_555
H23 C43 1_555 1_555
C44 C39 1_555 1_555
H24 C44 1_555 1_555
N1 C1 1_555 1_555
H25 N1 1_555 1_555
N2 C6 1_555 1_555
N3 C11 1_555 1_555
H26 N3 1_555 1_555
N4 C16 1_555 1_555
N5 C17 1_555 1_555
N6 C18 1_555 1_555
O1 N6 1_555 1_555
C45 C46 1_555 1_555
C46 C47 1_555 1_555
C47 H27 1_555 1_555
C48 C47 1_555 1_555
H28 C48 1_555 1_555
C49 C48 1_555 1_555
C50 C49 1_555 1_555
C51 C50 1_555 1_555
C52 C51 1_555 1_555
H29 C52 1_555 1_555
C53 C52 1_555 1_555
H30 C53 1_555 1_555
C54 C53 1_555 1_555
C55 C45 1_555 1_555
C56 C55 1_555 1_555
H31 C56 1_555 1_555
C57 C56 1_555 1_555
H32 C57 1_555 1_555
C58 C57 1_555 1_555
H33 C58 1_555 1_555
C59 C58 1_555 1_555
H34 C59 1_555 1_555
C60 C55 1_555 1_555
H35 C60 1_555 1_555
C61 C50 1_555 1_555
C62 C61 1_555 1_555
H36 C62 1_555 1_555
C63 C62 1_555 1_555
H37 C63 1_555 1_555
C64 C63 1_555 1_555
H38 C64 1_555 1_555
C65 C64 1_555 1_555
H39 C65 1_555 1_555
C66 C61 1_555 1_555
H40 C66 1_555 1_555
O2 N9 1_555 1_555
C67 C68 1_555 1_555
C68 H41 1_555 1_555
C69 C68 1_555 1_555
H42 C69 1_555 1_555
C70 C45 1_555 1_555
N7 C67 1_555 1_555
H43 N7 1_555 1_555
C71 C54 1_555 1_555
C72 C71 1_555 1_555
C73 C72 1_555 1_555
C74 C73 1_555 1_555
C75 C74 1_555 1_555
C76 C67 1_555 1_555
N8 C72 1_555 1_555
C77 C71 1_555 1_555
C78 C77 1_555 1_555
H44 C78 1_555 1_555
C79 C78 1_555 1_555
H45 C79 1_555 1_555
C80 C79 1_555 1_555
H46 C80 1_555 1_555
C81 C80 1_555 1_555
H47 C81 1_555 1_555
C82 C77 1_555 1_555
N9 C73 1_555 1_555
N10 C74 1_555 1_555
C83 C76 1_555 1_555
C84 N10 1_555 1_555
C85 C84 1_555 1_555
H48 C85 1_555 1_555
C86 C85 1_555 1_555
H49 C86 1_555 1_555
C87 C86 1_555 1_555
H50 C87 1_555 1_555
C88 C83 1_555 1_555
H51 C88 1_555 1_555
N11 C46 1_555 1_555
N12 C51 1_555 1_555
H52 N12 1_555 1_555
C4 N1 1_555 1_555
C9 N2 1_555 1_555
C14 N3 1_555 1_555
C19 C20 1_555 1_555
C19 N4 1_555 1_555
C25 C26 1_555 1_555
C31 C32 1_555 1_555
C37 C38 1_555 1_555
C38 N5 1_555 1_555
C40 N6 1_555 1_555
C43 C44 1_555 1_555
C49 N11 1_555 1_555
C54 N12 1_555 1_555
C59 C60 1_555 1_555
C65 C66 1_555 1_555
C69 C70 1_555 1_555
C70 N7 1_555 1_555
C75 C76 1_555 1_555
C75 N8 1_555 1_555
C81 C82 1_555 1_555
C82 N9 1_555 1_555
C83 C84 1_555 1_555
C87 C88 1_555 1_555

#END
