
#######################################################################
#
#                 Cambridge Crystallographic Data Centre
#                                CCDC 
#
#######################################################################
#
# If this CIF has been generated from an entry in the Cambridge 
# Structural Database, then it will include bibliographic, chemical, 
# crystal, experimental, refinement or atomic coordinate data resulting 
# from the CCDC's data processing and validation procedures.
#
#######################################################################

data_UVEJOV
_chemical_compound_source        'Pteris semipinnata (Pteridaceae)'
_chemical_name_common            'Ptersolic acid D monohydrate'
_chemical_formula_moiety         'C20 H30 O5,H2 O1'
_chemical_name_systematic        
'ent-6\a,9\a-Dihydroxy-15-oxo-16\b(H)-kauran-19-oic acid monohydrate'
_symmetry_cell_setting           orthorhombic
_symmetry_space_group_name_H-M   'P 21 21 21'
_symmetry_Int_Tables_number      19
_space_group_name_Hall           'P 2ac 2ab'
loop_
_symmetry_equiv_pos_site_id
_symmetry_equiv_pos_as_xyz
1 x,y,z
2 1/2+x,1/2-y,-z
3 -x,1/2+y,1/2-z
4 1/2-x,-y,1/2+z
_cell_length_a                   7.2995(8)
_cell_length_b                   12.8722(14)
_cell_length_c                   19.627(2)
_cell_angle_alpha                90
_cell_angle_beta                 90
_cell_angle_gamma                90
_cell_volume                     1844.17
_exptl_crystal_colour            colorless
_exptl_crystal_description       prism
_cell_formula_units_Z            4
loop_
_atom_site_label
_atom_site_type_symbol
_atom_site_fract_x
_atom_site_fract_y
_atom_site_fract_z
O1 O 0.59952(15) 0.41799(9) 0.77009(6)
H1 H 0.492(3) 0.4468(14) 0.7670(8)
H2 H 0.656(4) 0.428(2) 0.8097(15)
O2 O 0.99149(15) 0.85435(7) 0.77733(6)
O3 O 1.23358(13) 0.75182(7) 0.77714(6)
H3 H 1.2869 0.8077 0.7738
O4 O 1.03267(17) 0.27737(7) 0.96122(5)
O5 O 0.79907(11) 0.43529(7) 0.90660(4)
H4 H 0.8249 0.3758 0.9181
O6 O 1.25564(11) 0.50847(7) 0.76602(4)
H5 H 1.1910 0.4632 0.7491
C1 C 1.05509(16) 0.76762(9) 0.77659(6)
C2 C 0.94275(14) 0.66810(8) 0.77016(5)
C3 C 0.98204(13) 0.58204(8) 0.82502(5)
H6 H 0.9090 0.5223 0.8103
C4 C 0.90574(14) 0.60945(8) 0.89791(5)
C5 C 0.91470(14) 0.50813(8) 0.94326(5)
C6 C 1.11179(15) 0.46056(9) 0.94789(5)
C7 C 1.08895(17) 0.35674(9) 0.98651(6)
C8 C 1.14215(18) 0.37055(10) 1.06057(6)
H7 H 1.2674 0.3440 1.0652
C9 C 1.0252(3) 0.30976(14) 1.11031(7)
H8 H 0.9017 0.3353 1.1088
H9 H 1.0732 0.3179 1.1555
H10 H 1.0265 0.2376 1.0981
C10 C 0.73711(16) 0.69443(9) 0.77132(6)
H11 H 0.7145 0.7505 0.7394
H12 H 0.6689 0.6343 0.7557
C11 C 0.66498(17) 0.72614(10) 0.84059(7)
H13 H 0.5343 0.7390 0.8376
H14 H 0.7241 0.7900 0.8549
C12 C 0.70121(16) 0.64152(10) 0.89292(6)
H15 H 0.6291 0.5808 0.8812
H16 H 0.6605 0.6656 0.9372
C13 C 1.00710(18) 0.70286(8) 0.92951(6)
H17 H 0.9681 0.7657 0.9075
H18 H 1.1367 0.6943 0.9235
H19 H 0.9795 0.7068 0.9773
C14 C 1.17994(14) 0.53968(8) 0.83054(5)
H20 H 1.2580 0.5941 0.8500
C15 C 1.18828(16) 0.44405(9) 0.87701(5)
H21 H 1.1211 0.3879 0.8555
H22 H 1.3150 0.4222 0.8810
C16 C 1.23674(17) 0.51903(10) 0.99828(6)
H23 H 1.3628 0.4958 0.9946
H24 H 1.2319 0.5935 0.9908
C17 C 1.1540(2) 0.48975(11) 1.06736(6)
H25 H 1.2360 0.5096 1.1047
C18 C 0.9682(2) 0.54336(12) 1.07434(6)
H26 H 0.9869 0.6180 1.0751
H27 H 0.9136 0.5235 1.1175
C19 C 0.83442(18) 0.51662(11) 1.01664(6)
H28 H 0.7390 0.5691 1.0161
H29 H 0.7765 0.4509 1.0277
C20 C 0.98207(19) 0.62885(10) 0.69676(6)
H30 H 0.9339 0.6776 0.6644
H31 H 0.9247 0.5625 0.6902
H32 H 1.1119 0.6222 0.6903
loop_
_geom_bond_atom_site_label_1
_geom_bond_atom_site_label_2
_geom_bond_site_symmetry_1
_geom_bond_site_symmetry_2
O1 H1 1_555 1_555
H2 O1 1_555 1_555
O2 C1 1_555 1_555
O3 H3 1_555 1_555
O4 C7 1_555 1_555
O5 H4 1_555 1_555
O6 H5 1_555 1_555
C1 O3 1_555 1_555
C2 C1 1_555 1_555
C3 C2 1_555 1_555
H6 C3 1_555 1_555
C4 C3 1_555 1_555
C5 O5 1_555 1_555
C6 C5 1_555 1_555
C7 C6 1_555 1_555
C8 C7 1_555 1_555
H7 C8 1_555 1_555
C9 C8 1_555 1_555
H8 C9 1_555 1_555
H9 C9 1_555 1_555
H10 C9 1_555 1_555
C10 C2 1_555 1_555
H11 C10 1_555 1_555
H12 C10 1_555 1_555
C11 C10 1_555 1_555
H13 C11 1_555 1_555
H14 C11 1_555 1_555
C12 C4 1_555 1_555
H15 C12 1_555 1_555
H16 C12 1_555 1_555
C13 C4 1_555 1_555
H17 C13 1_555 1_555
H18 C13 1_555 1_555
H19 C13 1_555 1_555
C14 O6 1_555 1_555
H20 C14 1_555 1_555
C15 C6 1_555 1_555
H21 C15 1_555 1_555
H22 C15 1_555 1_555
C16 C6 1_555 1_555
H23 C16 1_555 1_555
H24 C16 1_555 1_555
C17 C8 1_555 1_555
H25 C17 1_555 1_555
C18 C17 1_555 1_555
H26 C18 1_555 1_555
H27 C18 1_555 1_555
C19 C5 1_555 1_555
H28 C19 1_555 1_555
H29 C19 1_555 1_555
C20 C2 1_555 1_555
H30 C20 1_555 1_555
H31 C20 1_555 1_555
H32 C20 1_555 1_555
C3 C14 1_555 1_555
C4 C5 1_555 1_555
C11 C12 1_555 1_555
C14 C15 1_555 1_555
C16 C17 1_555 1_555
C18 C19 1_555 1_555

#END
