
#######################################################################
#
#                 Cambridge Crystallographic Data Centre
#                                CCDC 
#
#######################################################################
#
# If this CIF has been generated from an entry in the Cambridge 
# Structural Database, then it will include bibliographic, chemical, 
# crystal, experimental, refinement or atomic coordinate data resulting 
# from the CCDC's data processing and validation procedures.
#
#######################################################################

data_UVEJEL
_chemical_compound_source        'Penicillium citrinum'
_chemical_name_common            'Penicitrinol C'
_chemical_formula_moiety         'C15 H20 O4'
_chemical_name_systematic        
1-(6,8-Dihydroxy-3,4,5-trimethyl-3,4-dihydro-1H-isochromen-1-yl)acetone
_chemical_properties_biological  'tested for cytotoxic activity'
_symmetry_cell_setting           tetragonal
_symmetry_space_group_name_H-M   'P 43'
_symmetry_Int_Tables_number      78
_space_group_name_Hall           'P 4cw'
loop_
_symmetry_equiv_pos_site_id
_symmetry_equiv_pos_as_xyz
1 x,y,z
2 -y,x,3/4+z
3 -x,-y,1/2+z
4 y,-x,1/4+z
_cell_length_a                   7.9954(11)
_cell_length_b                   7.9954(11)
_cell_length_c                   22.341(5)
_cell_angle_alpha                90
_cell_angle_beta                 90
_cell_angle_gamma                90
_cell_volume                     1428.18
_exptl_crystal_colour            colorless
_exptl_crystal_description       block
_cell_formula_units_Z            4
loop_
_atom_site_label
_atom_site_type_symbol
_atom_site_fract_x
_atom_site_fract_y
_atom_site_fract_z
O1 O 0.5591(3) 0.2467(3) 0.09800(10)
H1 H 0.6061 0.2438 0.0644
O2 O 0.2497(3) -0.2141(3) 0.01463(11)
H2 H 0.3393 -0.2321 -0.0039
O3 O 0.2365(3) 0.2623(3) 0.24500(10)
C1 C 0.1931(4) 0.0226(4) 0.15278(14)
C2 C 0.4318(4) 0.1331(4) 0.09925(14)
C3 C 0.3256(4) 0.1386(4) 0.14945(14)
C4 C 0.4065(4) 0.0174(4) 0.05399(14)
H3 H 0.4782 0.0162 0.0201
C5 C 0.0814(4) 0.0269(4) 0.20772(14)
H4 H 0.0477 -0.0904 0.2175
C6 C 0.1678(4) -0.0960(4) 0.10773(15)
C7 C 0.0289(5) -0.2247(5) 0.11062(17)
H5 H 0.0273 -0.2761 0.1504
H6 H 0.0483 -0.3111 0.0803
H7 H -0.0787 -0.1700 0.1030
C8 C 0.3619(4) 0.2638(4) 0.19828(14)
H8 H 0.4725 0.2355 0.2166
C9 C 0.1761(4) 0.0985(4) 0.26125(15)
H9 H 0.0937 0.1135 0.2945
C10 C 0.2765(4) -0.0964(4) 0.05831(14)
C11 C 0.3686(4) 0.4447(4) 0.17595(15)
H10 H 0.3229 0.4483 0.1348
H11 H 0.2947 0.5137 0.2016
C12 C -0.0776(5) 0.1285(6) 0.19498(16)
H12 H -0.1485 0.1297 0.2308
H13 H -0.1389 0.0772 0.1617
H14 H -0.0469 0.2433 0.1843
C13 C 0.3159(5) -0.0136(5) 0.28465(16)
H15 H 0.3956 -0.0363 0.2523
H16 H 0.2683 -0.1192 0.2990
H17 H 0.3736 0.0428 0.3177
O4 O 0.6445(3) 0.4809(3) 0.21240(12)
C14 C 0.5390(5) 0.5222(5) 0.17546(17)
C15 C 0.5683(5) 0.6619(7) 0.1321(2)
H18 H 0.6807 0.7078 0.1382
H19 H 0.4850 0.7500 0.1386
H20 H 0.5584 0.6194 0.0911
loop_
_geom_bond_atom_site_label_1
_geom_bond_atom_site_label_2
_geom_bond_site_symmetry_1
_geom_bond_site_symmetry_2
O1 H1 1_555 1_555
O2 H2 1_555 1_555
O3 C8 1_555 1_555
C1 C3 1_555 1_555
C2 O1 1_555 1_555
C3 C2 1_555 1_555
C4 C2 1_555 1_555
H3 C4 1_555 1_555
C5 C1 1_555 1_555
H4 C5 1_555 1_555
C6 C1 1_555 1_555
C7 C6 1_555 1_555
H5 C7 1_555 1_555
H6 C7 1_555 1_555
H7 C7 1_555 1_555
C8 C3 1_555 1_555
H8 C8 1_555 1_555
C9 O3 1_555 1_555
H9 C9 1_555 1_555
C10 O2 1_555 1_555
C11 C8 1_555 1_555
H10 C11 1_555 1_555
H11 C11 1_555 1_555
C12 C5 1_555 1_555
H12 C12 1_555 1_555
H13 C12 1_555 1_555
H14 C12 1_555 1_555
C13 C9 1_555 1_555
H15 C13 1_555 1_555
H16 C13 1_555 1_555
H17 C13 1_555 1_555
O4 C14 1_555 1_555
C14 C11 1_555 1_555
C15 C14 1_555 1_555
H18 C15 1_555 1_555
H19 C15 1_555 1_555
H20 C15 1_555 1_555
C4 C10 1_555 1_555
C5 C9 1_555 1_555
C6 C10 1_555 1_555

#END
