
#######################################################################
#
#                 Cambridge Crystallographic Data Centre
#                                CCDC 
#
#######################################################################
#
# If this CIF has been generated from an entry in the Cambridge 
# Structural Database, then it will include bibliographic, chemical, 
# crystal, experimental, refinement or atomic coordinate data resulting 
# from the CCDC's data processing and validation procedures.
#
#######################################################################

data_UVELIS
_chemical_formula_moiety         'C18 H17 Cl2 N1 O4 S1'
_chemical_name_systematic        
5,6-dichloro-2-methoxy-4-(((4-methylphenyl)sulfonyl)methyl)-3,4-dihydroisoquinolin-1(2H)-one
_symmetry_cell_setting           monoclinic
_symmetry_space_group_name_H-M   'P 21/c'
_symmetry_Int_Tables_number      14
_space_group_name_Hall           '-P 2ybc'
loop_
_symmetry_equiv_pos_site_id
_symmetry_equiv_pos_as_xyz
1 x,y,z
2 -x,1/2+y,1/2-z
3 -x,-y,-z
4 x,1/2-y,1/2+z
_cell_length_a                   13.725(3)
_cell_length_b                   7.0845(16)
_cell_length_c                   20.233(5)
_cell_angle_alpha                90
_cell_angle_beta                 108.593(7)
_cell_angle_gamma                90
_cell_volume                     1864.67
_exptl_crystal_colour            colorless
_exptl_crystal_description       block
_cell_formula_units_Z            4
loop_
_atom_site_label
_atom_site_type_symbol
_atom_site_fract_x
_atom_site_fract_y
_atom_site_fract_z
Cl1 Cl 0.38023(6) 1.22172(9) 0.46703(4)
S1 S 0.07182(5) 0.98715(10) 0.40500(3)
Cl2 Cl 0.55167(7) 1.37231(12) 0.59939(5)
C1 C 0.41135(17) 1.1001(3) 0.54486(12)
C2 C 0.35784(16) 0.9347(3) 0.54812(11)
C3 C 0.26797(17) 0.8702(3) 0.48745(11)
H1 H 0.2834 0.8976 0.4444
C4 C 0.38652(18) 0.8347(3) 0.61078(12)
C5 C 0.33111(19) 0.6593(4) 0.61937(13)
C6 C 0.48930(19) 1.1633(4) 0.60278(15)
C7 C 0.2538(2) 0.6579(3) 0.49157(13)
H2 H 0.1885 0.6207 0.4583
H3 H 0.3081 0.5925 0.4797
C8 C 0.5178(2) 1.0621(4) 0.66378(14)
H4 H 0.5710 1.1046 0.7021
C9 C 0.4672(2) 0.8975(4) 0.66772(14)
H5 H 0.4869 0.8275 0.7087
C10 C 0.1202(2) 0.4479(5) 0.57901(19)
H6 H 0.1341 0.5023 0.6245
H7 H 0.0888 0.3263 0.5779
H8 H 0.0746 0.5288 0.5449
O1 O 0.21386(16) 0.4273(3) 0.56371(11)
O2 O 0.34861(17) 0.5808(3) 0.67527(11)
N1 N 0.25638(17) 0.6054(3) 0.56138(11)
C11 C 0.11922(17) 1.1223(4) 0.34921(12)
C12 C 0.17212(17) 0.9843(3) 0.48651(12)
H9 H 0.1928 1.1134 0.4998
H10 H 0.1451 0.9325 0.5215
C13 C 0.1746(2) 1.0379(4) 0.31144(13)
H11 H 0.1851 0.9081 0.3141
C14 C 0.1017(2) 1.3147(4) 0.34400(14)
H12 H 0.0638 1.3722 0.3691
C15 C 0.2144(2) 1.1461(5) 0.26981(14)
H13 H 0.2526 1.0886 0.2448
C16 C 0.1985(2) 1.3384(5) 0.26449(14)
C17 C 0.1409(2) 1.4203(4) 0.30135(16)
H14 H 0.1282 1.5494 0.2973
C18 C 0.2431(3) 1.4564(7) 0.21867(19)
H15 H 0.2001 1.5644 0.2019
H16 H 0.2465 1.3820 0.1798
H17 H 0.3109 1.4975 0.2453
O3 O 0.05509(16) 0.7980(3) 0.37823(11)
O4 O -0.01231(14) 1.0875(4) 0.41608(11)
loop_
_geom_bond_atom_site_label_1
_geom_bond_atom_site_label_2
_geom_bond_site_symmetry_1
_geom_bond_site_symmetry_2
Cl1 C1 1_555 1_555
S1 C11 1_555 1_555
Cl2 C6 1_555 1_555
C1 C2 1_555 1_555
C2 C3 1_555 1_555
C3 H1 1_555 1_555
C4 C2 1_555 1_555
C5 C4 1_555 1_555
C6 C1 1_555 1_555
C7 C3 1_555 1_555
H2 C7 1_555 1_555
H3 C7 1_555 1_555
C8 C6 1_555 1_555
H4 C8 1_555 1_555
C9 C4 1_555 1_555
H5 C9 1_555 1_555
C10 H6 1_555 1_555
H7 C10 1_555 1_555
H8 C10 1_555 1_555
O1 C10 1_555 1_555
O2 C5 1_555 1_555
N1 C5 1_555 1_555
C11 C13 1_555 1_555
C12 S1 1_555 1_555
H9 C12 1_555 1_555
H10 C12 1_555 1_555
C13 H11 1_555 1_555
C14 C11 1_555 1_555
H12 C14 1_555 1_555
C15 C13 1_555 1_555
H13 C15 1_555 1_555
C16 C15 1_555 1_555
C17 C14 1_555 1_555
H14 C17 1_555 1_555
C18 C16 1_555 1_555
H15 C18 1_555 1_555
H16 C18 1_555 1_555
H17 C18 1_555 1_555
O3 S1 1_555 1_555
O4 S1 1_555 1_555
C3 C12 1_555 1_555
C7 N1 1_555 1_555
C8 C9 1_555 1_555
O1 N1 1_555 1_555
C16 C17 1_555 1_555

#END
