
#######################################################################
#
#                 Cambridge Crystallographic Data Centre
#                                CCDC 
#
#######################################################################
#
# If this CIF has been generated from an entry in the Cambridge 
# Structural Database, then it will include bibliographic, chemical, 
# crystal, experimental, refinement or atomic coordinate data resulting 
# from the CCDC's data processing and validation procedures.
#
#######################################################################

data_UVERUJ
_chemical_formula_moiety         'C14 H20 N4'
_chemical_name_systematic        2-Cyano-1-hexyl-3-phenylguanidine
_symmetry_cell_setting           orthorhombic
_symmetry_space_group_name_H-M   'P 21 21 21'
_symmetry_Int_Tables_number      19
_space_group_name_Hall           'P 2ac 2ab'
loop_
_symmetry_equiv_pos_site_id
_symmetry_equiv_pos_as_xyz
1 x,y,z
2 1/2-x,-y,1/2+z
3 -x,1/2+y,1/2-z
4 1/2+x,1/2-y,-z
_cell_length_a                   10.2071(2)
_cell_length_b                   11.2105(3)
_cell_length_c                   24.2602(6)
_cell_angle_alpha                90
_cell_angle_beta                 90
_cell_angle_gamma                90
_cell_volume                     2776.01
_exptl_crystal_colour            colorless
_exptl_crystal_description       plate
_cell_formula_units_Z            8
loop_
_atom_site_label
_atom_site_type_symbol
_atom_site_fract_x
_atom_site_fract_y
_atom_site_fract_z
C1 C 0.6250(3) 0.6891(3) -0.02772(12)
C2 C 0.5003(3) 0.6563(3) -0.04543(13)
H1 H 0.4621 0.5867 -0.0321
C3 C 0.4327(3) 0.7268(3) -0.08278(13)
H2 H 0.3488 0.7053 -0.0940
C4 C 0.4901(3) 0.8295(3) -0.10343(13)
H3 H 0.4456 0.8761 -0.1290
C5 C 0.6137(3) 0.8624(3) -0.08597(13)
H4 H 0.6517 0.9318 -0.0996
C6 C 0.6815(3) 0.7930(3) -0.04826(13)
H5 H 0.7646 0.8158 -0.0367
C7 C 0.6560(3) 0.5785(3) 0.05912(12)
C8 C 0.8146(3) 0.4363(3) 0.06534(12)
C9 C 0.4941(3) 0.5979(3) 0.13465(13)
H6 H 0.5335 0.5237 0.1468
H7 H 0.4008 0.5841 0.1304
C10 C 0.5142(4) 0.6902(4) 0.17825(16)
H8 H 0.4776 0.7650 0.1653
H9 H 0.4655 0.6667 0.2108
C11 C 0.6502(4) 0.7101(4) 0.19392(18)
H10 H 0.6999 0.7301 0.1611
H11 H 0.6856 0.6364 0.2086
C12 C 0.6702(4) 0.8106(4) 0.23738(17)
H12 H 0.6365 0.8850 0.2227
H13 H 0.6201 0.7915 0.2702
C13 C 0.8099(4) 0.8271(4) 0.25285(16)
H14 H 0.8589 0.8483 0.2200
H15 H 0.8438 0.7516 0.2661
C14 C 0.8342(4) 0.9212(4) 0.29633(17)
H16 H 0.9263 0.9260 0.3039
H17 H 0.7882 0.9002 0.3295
H18 H 0.8034 0.9970 0.2833
N1 N 0.6965(2) 0.6145(2) 0.00877(10)
H37 H 0.7720 0.5900 -0.0021
N2 N 0.5491(2) 0.6296(2) 0.08099(10)
H38 H 0.5105 0.6845 0.0623
N3 N 0.7165(2) 0.4936(2) 0.08830(10)
N4 N 0.9024(3) 0.3779(2) 0.05000(11)
C15 C 0.2326(3) 0.3198(3) 0.03230(12)
C16 C 0.3525(3) 0.3587(3) 0.05259(13)
H19 H 0.3855 0.4326 0.0420
C17 C 0.4230(3) 0.2872(3) 0.08875(14)
H20 H 0.5043 0.3124 0.1016
C18 C 0.3727(3) 0.1788(3) 0.10574(13)
H21 H 0.4196 0.1315 0.1303
C19 C 0.2524(4) 0.1409(3) 0.08603(14)
H22 H 0.2184 0.0681 0.0976
C20 C 0.1822(3) 0.2106(3) 0.04924(14)
H23 H 0.1018 0.1845 0.0359
C21 C 0.2051(3) 0.4305(3) -0.05437(12)
C22 C 0.0375(3) 0.5633(3) -0.06521(12)
C23 C 0.3791(3) 0.4208(3) -0.12522(12)
H24 H 0.4683 0.4467 -0.1185
H25 H 0.3312 0.4877 -0.1406
C24 C 0.3804(3) 0.3191(3) -0.16685(13)
H26 H 0.4286 0.2524 -0.1514
H27 H 0.4261 0.3451 -0.1998
C25 C 0.2426(3) 0.2770(3) -0.18279(14)
H28 H 0.1948 0.2564 -0.1496
H29 H 0.1966 0.3421 -0.2006
C26 C 0.2444(4) 0.1692(3) -0.22148(13)
H30 H 0.2896 0.1041 -0.2033
H31 H 0.1549 0.1439 -0.2280
C27 C 0.3098(3) 0.1921(3) -0.27661(13)
H32 H 0.2681 0.2601 -0.2940
H33 H 0.4010 0.2125 -0.2704
C28 C 0.3030(4) 0.0865(3) -0.31524(16)
H34 H 0.3464 0.1059 -0.3492
H35 H 0.2130 0.0674 -0.3226
H36 H 0.3454 0.0191 -0.2985
N5 N 0.1597(2) 0.3918(2) -0.00503(10)
H39 H 0.0816 0.4121 0.0044
N6 N 0.3187(2) 0.3858(2) -0.07281(10)
H40 H 0.3583 0.3338 -0.0528
N7 N 0.1426(3) 0.5109(2) -0.08504(10)
N8 N -0.0553(3) 0.6162(2) -0.05204(11)
loop_
_geom_bond_atom_site_label_1
_geom_bond_atom_site_label_2
_geom_bond_site_symmetry_1
_geom_bond_site_symmetry_2
C1 C2 1_555 1_555
C2 H1 1_555 1_555
C3 C2 1_555 1_555
H2 C3 1_555 1_555
C4 C3 1_555 1_555
H3 C4 1_555 1_555
C5 C4 1_555 1_555
H4 C5 1_555 1_555
C6 C1 1_555 1_555
H5 C6 1_555 1_555
C7 N1 1_555 1_555
C8 N3 1_555 1_555
C9 H6 1_555 1_555
H7 C9 1_555 1_555
C10 C9 1_555 1_555
H8 C10 1_555 1_555
H9 C10 1_555 1_555
C11 C10 1_555 1_555
H10 C11 1_555 1_555
H11 C11 1_555 1_555
C12 C11 1_555 1_555
H12 C12 1_555 1_555
H13 C12 1_555 1_555
C13 C12 1_555 1_555
H14 C13 1_555 1_555
H15 C13 1_555 1_555
C14 C13 1_555 1_555
H16 C14 1_555 1_555
H17 C14 1_555 1_555
H18 C14 1_555 1_555
C15 C16 1_555 1_555
C16 H19 1_555 1_555
C17 C16 1_555 1_555
H20 C17 1_555 1_555
C18 C17 1_555 1_555
H21 C18 1_555 1_555
C19 C18 1_555 1_555
H22 C19 1_555 1_555
C20 C15 1_555 1_555
H23 C20 1_555 1_555
C21 N5 1_555 1_555
C22 N7 1_555 1_555
C23 H24 1_555 1_555
H25 C23 1_555 1_555
C24 C23 1_555 1_555
H26 C24 1_555 1_555
H27 C24 1_555 1_555
C25 C24 1_555 1_555
H28 C25 1_555 1_555
H29 C25 1_555 1_555
C26 C25 1_555 1_555
H30 C26 1_555 1_555
H31 C26 1_555 1_555
C27 C26 1_555 1_555
H32 C27 1_555 1_555
H33 C27 1_555 1_555
C28 C27 1_555 1_555
H34 C28 1_555 1_555
H35 C28 1_555 1_555
H36 C28 1_555 1_555
N1 C1 1_555 1_555
H37 N1 1_555 1_555
N2 C7 1_555 1_555
H38 N2 1_555 1_555
N3 C7 1_555 1_555
N4 C8 1_555 1_555
N5 C15 1_555 1_555
H39 N5 1_555 1_555
N6 C21 1_555 1_555
H40 N6 1_555 1_555
N7 C21 1_555 1_555
N8 C22 1_555 1_555
C5 C6 1_555 1_555
C9 N2 1_555 1_555
C19 C20 1_555 1_555
C23 N6 1_555 1_555

#END
