
#######################################################################
#
#                 Cambridge Crystallographic Data Centre
#                                CCDC 
#
#######################################################################
#
# If this CIF has been generated from an entry in the Cambridge 
# Structural Database, then it will include bibliographic, chemical, 
# crystal, experimental, refinement or atomic coordinate data resulting 
# from the CCDC's data processing and validation procedures.
#
#######################################################################

data_UVESEU
_chemical_formula_moiety         'C13 H20 N2 S1'
_chemical_name_systematic        1-Hexyl-3-phenylthiourea
_symmetry_cell_setting           orthorhombic
_symmetry_space_group_name_H-M   'P 21 21 21'
_symmetry_Int_Tables_number      19
_space_group_name_Hall           'P 2ac 2ab'
loop_
_symmetry_equiv_pos_site_id
_symmetry_equiv_pos_as_xyz
1 x,y,z
2 1/2-x,-y,1/2+z
3 -x,1/2+y,1/2-z
4 1/2+x,1/2-y,-z
_cell_length_a                   8.5794(2)
_cell_length_b                   10.2955(2)
_cell_length_c                   15.2141(3)
_cell_angle_alpha                90
_cell_angle_beta                 90
_cell_angle_gamma                90
_cell_volume                     1343.85
_exptl_crystal_colour            colorless
_exptl_crystal_description       needle
_cell_formula_units_Z            4
loop_
_atom_site_label
_atom_site_type_symbol
_atom_site_fract_x
_atom_site_fract_y
_atom_site_fract_z
C1 C 0.93306(19) 0.20915(16) 1.15362(9)
C2 C 0.86297(19) 0.09576(16) 1.18371(10)
H1 H 0.8554 0.0236 1.1471
C3 C 0.8042(2) 0.09095(16) 1.26902(9)
H2 H 0.7550 0.0158 1.2886
C4 C 0.8178(2) 0.19629(17) 1.32521(10)
H3 H 0.7793 0.1916 1.3823
C5 C 0.8896(2) 0.30888(18) 1.29539(10)
H4 H 0.8999 0.3799 1.3327
C6 C 0.9462(2) 0.31544(17) 1.20961(10)
H5 H 0.9930 0.3914 1.1897
C7 C 0.95120(19) 0.17951(15) 0.98937(9)
C8 C 1.0029(2) 0.20040(17) 0.82899(9)
H6 H 0.9555 0.1153 0.8233
H7 H 1.1009 0.1989 0.7972
C9 C 0.8962(2) 0.30063(17) 0.78714(10)
H8 H 0.9423 0.3862 0.7933
H9 H 0.7970 0.3010 0.8177
C10 C 0.8685(2) 0.27241(17) 0.68961(10)
H10 H 0.9683 0.2694 0.6597
H11 H 0.8205 0.1875 0.6839
C11 C 0.7653(2) 0.37251(16) 0.64448(10)
H12 H 0.8121 0.4577 0.6510
H13 H 0.6646 0.3742 0.6734
C12 C 0.7415(2) 0.34475(18) 0.54705(10)
H14 H 0.8424 0.3398 0.5185
H15 H 0.6913 0.2609 0.5406
C13 C 0.6432(3) 0.44719(19) 0.50089(11)
H16 H 0.6311 0.4242 0.4401
H17 H 0.6940 0.5300 0.5051
H18 H 0.5426 0.4520 0.5283
N1 N 1.00146(17) 0.22265(14) 1.06918(8)
H19 H 1.0881 0.2646 1.0682
N2 N 1.03433(17) 0.22563(14) 0.92178(8)
H20 H 1.1129 0.2742 0.9340
S1 S 0.79950(5) 0.07550(4) 0.97535(2)
loop_
_geom_bond_atom_site_label_1
_geom_bond_atom_site_label_2
_geom_bond_site_symmetry_1
_geom_bond_site_symmetry_2
C1 C2 1_555 1_555
C2 H1 1_555 1_555
C3 C2 1_555 1_555
H2 C3 1_555 1_555
C4 C3 1_555 1_555
H3 C4 1_555 1_555
C5 C4 1_555 1_555
H4 C5 1_555 1_555
C6 C1 1_555 1_555
H5 C6 1_555 1_555
C7 N1 1_555 1_555
C8 H6 1_555 1_555
H7 C8 1_555 1_555
C9 C8 1_555 1_555
H8 C9 1_555 1_555
H9 C9 1_555 1_555
C10 C9 1_555 1_555
H10 C10 1_555 1_555
H11 C10 1_555 1_555
C11 C10 1_555 1_555
H12 C11 1_555 1_555
H13 C11 1_555 1_555
C12 C11 1_555 1_555
H14 C12 1_555 1_555
H15 C12 1_555 1_555
C13 C12 1_555 1_555
H16 C13 1_555 1_555
H17 C13 1_555 1_555
H18 C13 1_555 1_555
N1 C1 1_555 1_555
H19 N1 1_555 1_555
N2 C7 1_555 1_555
H20 N2 1_555 1_555
S1 C7 1_555 1_555
C5 C6 1_555 1_555
C8 N2 1_555 1_555

#END
