
#######################################################################
#
#                 Cambridge Crystallographic Data Centre
#                                CCDC 
#
#######################################################################
#
# If this CIF has been generated from an entry in the Cambridge 
# Structural Database, then it will include bibliographic, chemical, 
# crystal, experimental, refinement or atomic coordinate data resulting 
# from the CCDC's data processing and validation procedures.
#
#######################################################################

data_UVEWEY
_chemical_formula_moiety         'C18 H14 Cl3 N1 O1'
_chemical_name_systematic        
(S)-4,4,4-Trichloro-3-(1H-indol-3-yl)-1-phenylbutan-1-one
_symmetry_cell_setting           orthorhombic
_symmetry_space_group_name_H-M   'P 21 21 2'
_symmetry_Int_Tables_number      18
_space_group_name_Hall           'P 2 2ab'
loop_
_symmetry_equiv_pos_site_id
_symmetry_equiv_pos_as_xyz
1 x,y,z
2 -x,-y,z
3 1/2+x,1/2-y,-z
4 1/2-x,1/2+y,-z
_cell_length_a                   19.6727(8)
_cell_length_b                   14.1660(7)
_cell_length_c                   5.9443(2)
_cell_angle_alpha                90
_cell_angle_beta                 90
_cell_angle_gamma                90
_cell_volume                     1656.58
_exptl_crystal_colour            colorless
_exptl_crystal_description       block
_cell_formula_units_Z            4
loop_
_atom_site_label
_atom_site_type_symbol
_atom_site_fract_x
_atom_site_fract_y
_atom_site_fract_z
Cl1 Cl -0.01163(4) 0.86623(6) 0.25058(19)
Cl2 Cl 0.06601(5) 0.80593(8) 0.63251(13)
Cl3 Cl 0.12899(4) 0.81912(7) 0.19742(15)
O1 O 0.11806(11) 0.58554(19) -0.0427(3)
N1 N -0.09959(14) 0.5908(2) 0.6627(5)
C1 C -0.14114(14) 0.6216(2) 0.4927(5)
C2 C -0.09934(13) 0.6620(2) 0.3266(4)
C3 C -0.12985(15) 0.6977(2) 0.1329(5)
C4 C -0.19945(16) 0.6936(3) 0.1128(6)
C5 C -0.23942(17) 0.6541(2) 0.2802(7)
C6 C -0.21166(17) 0.6181(3) 0.4724(6)
C7 C -0.03072(14) 0.6546(2) 0.4069(4)
C8 C -0.03369(16) 0.6117(2) 0.6112(5)
C9 C 0.03360(13) 0.6841(2) 0.2885(5)
C10 C 0.05241(14) 0.7872(2) 0.3405(5)
C11 C 0.09312(16) 0.6168(3) 0.3377(6)
C12 C 0.14167(15) 0.6012(2) 0.1443(5)
C13 C 0.21619(14) 0.5976(2) 0.1846(5)
C14 C 0.24648(16) 0.6279(3) 0.3810(5)
C15 C 0.31629(18) 0.6231(3) 0.4085(6)
C16 C 0.35611(19) 0.5855(3) 0.2426(7)
C17 C 0.32721(19) 0.5551(3) 0.0464(7)
C18 C 0.25768(17) 0.5606(3) 0.0148(6)
H1 H -0.2877(13) 0.6497(19) 0.263(5)
H2 H 0.0238(10) 0.6834(18) 0.128(4)
H3 H -0.2202(13) 0.716(2) -0.015(5)
H4 H 0.0034(13) 0.5975(19) 0.706(4)
H5 H -0.1039(11) 0.7280(19) 0.031(4)
H6 H 0.1160(13) 0.634(2) 0.473(5)
H7 H -0.1104(13) 0.568(2) 0.768(5)
H8 H 0.2192(13) 0.658(2) 0.501(5)
H9 H 0.3373(17) 0.647(3) 0.538(6)
H10 H 0.3537(18) 0.531(3) -0.069(6)
H11 H -0.2364(14) 0.589(2) 0.590(5)
H12 H 0.4043(16) 0.584(2) 0.268(6)
H13 H 0.2368(14) 0.543(2) -0.127(5)
H14 H 0.0759(16) 0.556(3) 0.374(6)
loop_
_geom_bond_atom_site_label_1
_geom_bond_atom_site_label_2
_geom_bond_site_symmetry_1
_geom_bond_site_symmetry_2
Cl1 C10 1_555 1_555
Cl2 C10 1_555 1_555
Cl3 C10 1_555 1_555
O1 C12 1_555 1_555
N1 C1 1_555 1_555
C1 C2 1_555 1_555
C2 C3 1_555 1_555
C3 C4 1_555 1_555
C4 C5 1_555 1_555
C5 C6 1_555 1_555
C6 C1 1_555 1_555
C7 C2 1_555 1_555
C8 N1 1_555 1_555
C9 C7 1_555 1_555
C10 C9 1_555 1_555
C11 C9 1_555 1_555
C12 C11 1_555 1_555
C13 C12 1_555 1_555
C14 C13 1_555 1_555
C15 C14 1_555 1_555
C16 C15 1_555 1_555
C17 C16 1_555 1_555
C18 C13 1_555 1_555
H1 C5 1_555 1_555
H2 C9 1_555 1_555
H3 C4 1_555 1_555
H4 C8 1_555 1_555
H5 C3 1_555 1_555
H6 C11 1_555 1_555
H7 N1 1_555 1_555
H8 C14 1_555 1_555
H9 C15 1_555 1_555
H10 C17 1_555 1_555
H11 C6 1_555 1_555
H12 C16 1_555 1_555
H13 C18 1_555 1_555
H14 C11 1_555 1_555
C7 C8 1_555 1_555
C17 C18 1_555 1_555

#END
