
#######################################################################
#
#                 Cambridge Crystallographic Data Centre
#                                CCDC 
#
#######################################################################
#
# If this CIF has been generated from an entry in the Cambridge 
# Structural Database, then it will include bibliographic, chemical, 
# crystal, experimental, refinement or atomic coordinate data resulting 
# from the CCDC's data processing and validation procedures.
#
#######################################################################

data_UVEWUP
_chemical_formula_moiety         'C10 H14 O2'
_chemical_name_systematic        
4a-methyloctahydro-6H-cyclopropa[3,4]cyclopenta[1,2-c]pyran-6-one
_symmetry_cell_setting           orthorhombic
_symmetry_space_group_name_H-M   'P 21 21 21'
_symmetry_Int_Tables_number      19
_space_group_name_Hall           'P 2ac 2ab'
loop_
_symmetry_equiv_pos_site_id
_symmetry_equiv_pos_as_xyz
1 x,y,z
2 1/2-x,-y,1/2+z
3 -x,1/2+y,1/2-z
4 1/2+x,1/2-y,-z
_cell_length_a                   7.4084(7)
_cell_length_b                   9.3675(9)
_cell_length_c                   13.1213(13)
_cell_angle_alpha                90
_cell_angle_beta                 90
_cell_angle_gamma                90
_cell_volume                     910.594
_exptl_crystal_colour            colorless
_exptl_crystal_description       prismatic
_cell_formula_units_Z            4
loop_
_atom_site_label
_atom_site_type_symbol
_atom_site_fract_x
_atom_site_fract_y
_atom_site_fract_z
O1 O -0.1079(3) 0.2584(3) 0.13687(15)
O2 O -0.02072(19) 0.19384(18) 0.38376(11)
C1 C 0.0414(3) 0.2991(3) 0.16023(16)
C2 C 0.2064(4) 0.2873(3) 0.09984(15)
H1 H 0.2157 0.2155 0.0457
C3 C 0.3228(3) 0.4199(3) 0.09674(16)
H2 H 0.4067 0.4298 0.0404
H3 H 0.2697 0.5086 0.1202
C4 C 0.3612(3) 0.3099(2) 0.17319(17)
H4 H 0.4699 0.2516 0.1644
C5 C 0.2858(2) 0.32741(19) 0.28008(12)
C6 C 0.0880(2) 0.36931(17) 0.26088(13)
H5 H 0.0843 0.4729 0.2505
C7 C -0.0401(3) 0.3343(2) 0.34667(17)
H6 H -0.0199 0.4008 0.4022
H7 H -0.1630 0.3474 0.3230
C8 C 0.1570(3) 0.1706(3) 0.41956(17)
H8 H 0.1650 0.0766 0.4503
H9 H 0.1861 0.2408 0.4713
C9 C 0.2897(3) 0.1816(2) 0.33334(18)
H10 H 0.2633 0.1078 0.2837
H11 H 0.4102 0.1645 0.3595
C10 C 0.3873(3) 0.4392(3) 0.34126(19)
H12 H 0.3714 0.5311 0.3102
H13 H 0.5134 0.4157 0.3426
H14 H 0.3413 0.4414 0.4096
loop_
_geom_bond_atom_site_label_1
_geom_bond_atom_site_label_2
_geom_bond_site_symmetry_1
_geom_bond_site_symmetry_2
O1 C1 1_555 1_555
O2 C7 1_555 1_555
C1 C2 1_555 1_555
C2 H1 1_555 1_555
C3 C2 1_555 1_555
H2 C3 1_555 1_555
H3 C3 1_555 1_555
C4 C2 1_555 1_555
H4 C4 1_555 1_555
C5 C4 1_555 1_555
C6 C1 1_555 1_555
H5 C6 1_555 1_555
C7 C6 1_555 1_555
H6 C7 1_555 1_555
H7 C7 1_555 1_555
C8 O2 1_555 1_555
H8 C8 1_555 1_555
H9 C8 1_555 1_555
C9 C5 1_555 1_555
H10 C9 1_555 1_555
H11 C9 1_555 1_555
C10 C5 1_555 1_555
H12 C10 1_555 1_555
H13 C10 1_555 1_555
H14 C10 1_555 1_555
C3 C4 1_555 1_555
C5 C6 1_555 1_555
C8 C9 1_555 1_555

#END
