
#######################################################################
#
#                 Cambridge Crystallographic Data Centre
#                                CCDC 
#
#######################################################################
#
# If this CIF has been generated from an entry in the Cambridge 
# Structural Database, then it will include bibliographic, chemical, 
# crystal, experimental, refinement or atomic coordinate data resulting 
# from the CCDC's data processing and validation procedures.
#
#######################################################################

data_UVEXID01
_chemical_formula_moiety         'C18 H16 N2 O1'
_chemical_name_systematic        
(3-(2-(4-Hydroxyphenyl)vinyl)-5-methylcyclohex-2-en-1-ylidene)malononitrile
_symmetry_cell_setting           monoclinic
_symmetry_space_group_name_H-M   'P 21/n'
_symmetry_Int_Tables_number      14
_space_group_name_Hall           '-P 2yn'
loop_
_symmetry_equiv_pos_site_id
_symmetry_equiv_pos_as_xyz
1 x,y,z
2 1/2-x,1/2+y,1/2-z
3 -x,-y,-z
4 1/2+x,1/2-y,1/2+z
_cell_length_a                   9.222
_cell_length_b                   13.351
_cell_length_c                   12.178
_cell_angle_alpha                90
_cell_angle_beta                 94.46
_cell_angle_gamma                90
_cell_volume                     1494.85
_exptl_crystal_colour            brown
_exptl_crystal_description       block
_cell_formula_units_Z            4
loop_
_atom_site_label
_atom_site_type_symbol
_atom_site_fract_x
_atom_site_fract_y
_atom_site_fract_z
C1 C -0.7484(2) 0.2275(2) 0.8205(2)
C2 C -0.6069(3) 0.0774(2) 0.8030(3)
C3 C -0.6215(2) 0.18208(18) 0.7824(2)
C4 C -0.5196(2) 0.23816(17) 0.73324(18)
C5 C -0.3931(2) 0.19428(17) 0.69260(19)
H1 H -0.3842 0.1249 0.6932
C6 C -0.2848(2) 0.24982(17) 0.65304(18)
C7 C -0.1564(2) 0.20146(17) 0.61760(18)
H2 H -0.1544 0.1318 0.6186
C8 C -0.0400(2) 0.24863(18) 0.58342(19)
H3 H -0.0426 0.3182 0.5846
C9 C 0.0902(2) 0.20352(17) 0.54464(18)
C10 C 0.1241(2) 0.10169(18) 0.5544(2)
H4 H 0.0633 0.0596 0.5908
C11 C 0.2453(3) 0.06222(19) 0.5112(2)
H5 H 0.2661 -0.0057 0.5193
C12 C 0.3370(2) 0.12387(18) 0.45547(19)
C13 C 0.3074(2) 0.22504(18) 0.4471(2)
H6 H 0.3687 0.267 0.411
C14 C 0.1870(2) 0.26384(18) 0.4921(2)
H7 H 0.1698 0.3324 0.4874
C15 C -0.5371(3) 0.34920(18) 0.7265(2)
H8 H -0.6379 0.3641 0.7038
H9 H -0.5162 0.377 0.7996
C16 C -0.4470(3) 0.3988(2) 0.6526(4)
H10 H -0.4935 0.382 0.5799
C17 C -0.2967(3) 0.36149(17) 0.6469(2)
H11 H -0.2354 0.3904 0.7071
H12 H -0.2603 0.3841 0.5785
C18 C -0.4562(4) 0.5133(2) 0.6553(3)
H13 H -0.3953 0.541 0.6025
H14 H -0.4241 0.5369 0.7276
H15 H -0.5551 0.5338 0.6375
N1 N -0.8490(2) 0.2648(2) 0.8509(2)
N2 N -0.5969(4) -0.0059(2) 0.8218(3)
O1 O 0.4501(2) 0.08028(15) 0.40921(18)
H16 H 0.5011 0.1237 0.3842
loop_
_geom_bond_atom_site_label_1
_geom_bond_atom_site_label_2
_geom_bond_site_symmetry_1
_geom_bond_site_symmetry_2
C1 C3 1_555 1_555
C2 C3 1_555 1_555
C3 C4 1_555 1_555
C4 C5 1_555 1_555
C5 H1 1_555 1_555
C6 C5 1_555 1_555
C7 C6 1_555 1_555
H2 C7 1_555 1_555
C8 C7 1_555 1_555
H3 C8 1_555 1_555
C9 C8 1_555 1_555
C10 C9 1_555 1_555
H4 C10 1_555 1_555
C11 C10 1_555 1_555
H5 C11 1_555 1_555
C12 C11 1_555 1_555
C13 C12 1_555 1_555
H6 C13 1_555 1_555
C14 C9 1_555 1_555
H7 C14 1_555 1_555
C15 C4 1_555 1_555
H8 C15 1_555 1_555
H9 C15 1_555 1_555
C16 C15 1_555 1_555
H10 C16 1_555 1_555
C17 C6 1_555 1_555
H11 C17 1_555 1_555
H12 C17 1_555 1_555
C18 C16 1_555 1_555
H13 C18 1_555 1_555
H14 C18 1_555 1_555
H15 C18 1_555 1_555
N1 C1 1_555 1_555
N2 C2 1_555 1_555
O1 C12 1_555 1_555
H16 O1 1_555 1_555
C13 C14 1_555 1_555
C16 C17 1_555 1_555

#END
