
#######################################################################
#
#                 Cambridge Crystallographic Data Centre
#                                CCDC 
#
#######################################################################
#
# If this CIF has been generated from an entry in the Cambridge 
# Structural Database, then it will include bibliographic, chemical, 
# crystal, experimental, refinement or atomic coordinate data resulting 
# from the CCDC's data processing and validation procedures.
#
#######################################################################

data_UVEYIE
_chemical_formula_moiety         'C24 H20 Cl1 N1 O2 S2'
_chemical_name_systematic        
2-(5-(5-(1-(2-Chlorophenyl)-3-oxopentan-2-ylidene)thiophen-2(5H)-ylidene)thiophen-2(5H)-ylidene)-3-oxopentanenitrile
_symmetry_cell_setting           triclinic
_symmetry_space_group_name_H-M   'P -1'
_symmetry_Int_Tables_number      2
_space_group_name_Hall           '-P 1'
loop_
_symmetry_equiv_pos_site_id
_symmetry_equiv_pos_as_xyz
1 x,y,z
2 -x,-y,-z
_cell_length_a                   9.1985(11)
_cell_length_b                   9.5493(13)
_cell_length_c                   13.2712(16)
_cell_angle_alpha                75.930(3)
_cell_angle_beta                 75.466(3)
_cell_angle_gamma                82.159(3)
_cell_volume                     1091.04
_exptl_crystal_colour            violet
_exptl_crystal_description       block
_cell_formula_units_Z            2
loop_
_atom_site_label
_atom_site_type_symbol
_atom_site_fract_x
_atom_site_fract_y
_atom_site_fract_z
Cl1 Cl 0.89245(16) 0.27789(15) 0.27300(11)
S1 S 0.36892(14) 0.88340(12) 0.15694(10)
S2 S 0.17644(14) 1.06167(12) -0.12383(10)
O1 O 0.4629(4) 0.7761(4) 0.3307(3)
O2 O 0.0566(4) 1.1464(4) -0.2927(3)
N1 N -0.1902(5) 1.5181(5) -0.1170(4)
C1 C 0.4904(5) 0.7312(5) 0.1288(4)
C2 C 0.4912(6) 0.7160(5) 0.0226(4)
C3 C 0.4026(6) 0.8154(5) -0.0284(4)
C4 C 0.3244(5) 0.9217(5) 0.0318(4)
C5 C 0.2289(5) 1.0351(5) -0.0013(4)
C6 C 0.1547(6) 1.1470(5) 0.0540(4)
C7 C 0.0638(6) 1.2430(5) 0.0002(4)
C8 C 0.0588(5) 1.2139(5) -0.0995(4)
C9 C 0.5701(5) 0.6455(5) 0.1979(4)
C10 C 0.5563(6) 0.6815(5) 0.3033(4)
C11 C 0.6562(6) 0.6005(5) 0.3739(4)
C12 C 0.6483(7) 0.6646(6) 0.4700(4)
C13 C 0.6730(6) 0.5155(5) 0.1714(4)
C14 C 0.6139(6) 0.3724(5) 0.2343(4)
C15 C 0.4649(6) 0.3479(5) 0.2450(4)
C16 C 0.4083(7) 0.2166(6) 0.2977(5)
C17 C 0.5012(8) 0.1050(5) 0.3424(5)
C18 C 0.6494(8) 0.1250(6) 0.3338(4)
C19 C 0.7025(6) 0.2579(5) 0.2817(4)
C20 C -0.0255(5) 1.2947(5) -0.1704(4)
C21 C -0.1171(6) 1.4188(5) -0.1426(4)
C22 C -0.0202(6) 1.2559(5) -0.2722(4)
C23 C -0.1032(6) 1.3533(5) -0.3493(4)
C24 C -0.0978(7) 1.2924(7) -0.4460(5)
H1 H 0.5530 0.6417 -0.0102
H2 H 0.3898 0.8167 -0.0984
H3 H 0.1693 1.1528 0.1221
H4 H 0.0058 1.3234 0.0274
H5 H 0.6288 0.5032 0.3993
H6 H 0.7579 0.5991 0.3329
H7 H 0.7150 0.6096 0.5122
H8 H 0.6778 0.7623 0.4459
H9 H 0.5487 0.6663 0.5124
H10 H 0.6871 0.5191 0.0968
H11 H 0.7689 0.5217 0.1852
H12 H 0.3986 0.4253 0.2145
H13 H 0.3044 0.2029 0.3034
H14 H 0.4615 0.0136 0.3790
H15 H 0.7149 0.0485 0.3644
H16 H -0.2062 1.3695 -0.3131
H17 H -0.0603 1.4450 -0.3736
H18 H -0.1435 1.2009 -0.4230
H19 H -0.1529 1.3561 -0.4932
H20 H 0.0029 1.2756 -0.4832
loop_
_geom_bond_atom_site_label_1
_geom_bond_atom_site_label_2
_geom_bond_site_symmetry_1
_geom_bond_site_symmetry_2
Cl1 C19 1_555 1_555
S1 C1 1_555 1_555
S2 C5 1_555 1_555
O1 C10 1_555 1_555
O2 C22 1_555 1_555
N1 C21 1_555 1_555
C1 C2 1_555 1_555
C2 C3 1_555 1_555
C3 C4 1_555 1_555
C4 S1 1_555 1_555
C5 C4 1_555 1_555
C6 C5 1_555 1_555
C7 C6 1_555 1_555
C8 S2 1_555 1_555
C9 C1 1_555 1_555
C10 C9 1_555 1_555
C11 C10 1_555 1_555
C12 C11 1_555 1_555
C13 C9 1_555 1_555
C14 C13 1_555 1_555
C15 C14 1_555 1_555
C16 C15 1_555 1_555
C17 C16 1_555 1_555
C18 C17 1_555 1_555
C19 C14 1_555 1_555
C20 C8 1_555 1_555
C21 C20 1_555 1_555
C22 C20 1_555 1_555
C23 C22 1_555 1_555
C24 C23 1_555 1_555
H1 C2 1_555 1_555
H2 C3 1_555 1_555
H3 C6 1_555 1_555
H4 C7 1_555 1_555
H5 C11 1_555 1_555
H6 C11 1_555 1_555
H7 C12 1_555 1_555
H8 C12 1_555 1_555
H9 C12 1_555 1_555
H10 C13 1_555 1_555
H11 C13 1_555 1_555
H12 C15 1_555 1_555
H13 C16 1_555 1_555
H14 C17 1_555 1_555
H15 C18 1_555 1_555
H16 C23 1_555 1_555
H17 C23 1_555 1_555
H18 C24 1_555 1_555
H19 C24 1_555 1_555
H20 C24 1_555 1_555
C7 C8 1_555 1_555
C18 C19 1_555 1_555

#END
