
#######################################################################
#
#                 Cambridge Crystallographic Data Centre
#                                CCDC 
#
#######################################################################
#
# If this CIF has been generated from an entry in the Cambridge 
# Structural Database, then it will include bibliographic, chemical, 
# crystal, experimental, refinement or atomic coordinate data resulting 
# from the CCDC's data processing and validation procedures.
#
#######################################################################

data_UVIFIP
_chemical_formula_moiety         'C18 H24 N2 O2'
_chemical_name_systematic        
'cis-t-Butyl 2-(3-cyanophenyl)-4-methylpiperidine-1-carboxylate'
_symmetry_cell_setting           triclinic
_symmetry_space_group_name_H-M   'P -1'
_symmetry_Int_Tables_number      2
_space_group_name_Hall           '-P 1'
loop_
_symmetry_equiv_pos_site_id
_symmetry_equiv_pos_as_xyz
1 x,y,z
2 -x,-y,-z
_cell_length_a                   6.3135(4)
_cell_length_b                   10.2813(10)
_cell_length_c                   13.8719(10)
_cell_angle_alpha                76.283(7)
_cell_angle_beta                 85.876(6)
_cell_angle_gamma                77.838(7)
_cell_volume                     854.895
_exptl_crystal_colour            colorless
_exptl_crystal_description       rod
_cell_formula_units_Z            2
loop_
_atom_site_label
_atom_site_type_symbol
_atom_site_fract_x
_atom_site_fract_y
_atom_site_fract_z
O1 O 0.32659(16) 0.19231(11) 0.21095(8)
O2 O 0.66249(17) 0.24509(12) 0.18135(8)
N1 N 0.35682(19) 0.40966(13) 0.18254(9)
N2 N 0.4486(3) 0.36379(17) 0.62619(12)
C1 C 0.4665(3) 0.27901(17) 0.19136(11)
C2 C 0.4759(2) 0.52132(17) 0.15700(12)
H1 H 0.6248 0.4864 0.1344
H2 H 0.4865 0.5562 0.2168
C3 C 0.3640(3) 0.63790(18) 0.07530(13)
H3 H 0.4240 0.6230 0.0100
H4 H 0.3964 0.7249 0.0831
C4 C 0.1180(3) 0.65022(18) 0.07683(12)
H5 H 0.0858 0.5901 0.0350
C5 C 0.0438(2) 0.59523(17) 0.18287(12)
H6 H -0.1165 0.6160 0.1876
H7 H 0.0998 0.6405 0.2284
C6 C 0.1266(2) 0.44017(16) 0.21389(11)
H8 H 0.0434 0.3957 0.1769
C7 C 0.0019(3) 0.7961(2) 0.03230(14)
H9 H 0.0269 0.8569 0.0732
H10 H -0.1539 0.7990 0.0304
H11 H 0.0583 0.8260 -0.0352
C8 C 0.0922(2) 0.38404(17) 0.32423(12)
C9 C 0.2260(2) 0.39845(16) 0.39393(12)
H12 H 0.3435 0.4438 0.3729
C10 C 0.1902(2) 0.34727(17) 0.49445(12)
C11 C 0.0191(3) 0.27913(18) 0.52659(13)
H13 H -0.0052 0.2436 0.5953
C12 C -0.1136(3) 0.26446(19) 0.45686(14)
H14 H -0.2312 0.2192 0.4777
C13 C -0.0770(2) 0.31509(18) 0.35679(13)
H15 H -0.1683 0.3027 0.3096
C14 C 0.3329(3) 0.35959(18) 0.56713(13)
C15 C 0.4067(3) 0.04535(17) 0.24928(13)
C16 C 0.5227(3) 0.0237(2) 0.34581(14)
H16 H 0.6578 0.0580 0.3319
H17 H 0.5556 -0.0741 0.3773
H18 H 0.4294 0.0731 0.3905
C17 C 0.1984(3) -0.0100(2) 0.26851(16)
H19 H 0.1099 0.0297 0.3194
H20 H 0.2339 -0.1097 0.2915
H21 H 0.1173 0.0143 0.2070
C18 C 0.5475(3) -0.0182(2) 0.17284(16)
H22 H 0.4699 0.0052 0.1104
H23 H 0.5817 -0.1177 0.1969
H24 H 0.6822 0.0169 0.1616
loop_
_geom_bond_atom_site_label_1
_geom_bond_atom_site_label_2
_geom_bond_site_symmetry_1
_geom_bond_site_symmetry_2
O1 C1 1_555 1_555
O2 C1 1_555 1_555
N1 C1 1_555 1_555
N2 C14 1_555 1_555
C2 N1 1_555 1_555
H1 C2 1_555 1_555
H2 C2 1_555 1_555
C3 C2 1_555 1_555
H3 C3 1_555 1_555
H4 C3 1_555 1_555
C4 C3 1_555 1_555
H5 C4 1_555 1_555
C5 C4 1_555 1_555
H6 C5 1_555 1_555
H7 C5 1_555 1_555
C6 N1 1_555 1_555
H8 C6 1_555 1_555
C7 C4 1_555 1_555
H9 C7 1_555 1_555
H10 C7 1_555 1_555
H11 C7 1_555 1_555
C8 C6 1_555 1_555
C9 C8 1_555 1_555
H12 C9 1_555 1_555
C10 C9 1_555 1_555
C11 C10 1_555 1_555
H13 C11 1_555 1_555
C12 C11 1_555 1_555
H14 C12 1_555 1_555
C13 C8 1_555 1_555
H15 C13 1_555 1_555
C14 C10 1_555 1_555
C15 O1 1_555 1_555
C16 C15 1_555 1_555
H16 C16 1_555 1_555
H17 C16 1_555 1_555
H18 C16 1_555 1_555
C17 C15 1_555 1_555
H19 C17 1_555 1_555
H20 C17 1_555 1_555
H21 C17 1_555 1_555
C18 C15 1_555 1_555
H22 C18 1_555 1_555
H23 C18 1_555 1_555
H24 C18 1_555 1_555
C5 C6 1_555 1_555
C12 C13 1_555 1_555

#END
