
#######################################################################
#
#                 Cambridge Crystallographic Data Centre
#                                CCDC 
#
#######################################################################
#
# If this CIF has been generated from an entry in the Cambridge 
# Structural Database, then it will include bibliographic, chemical, 
# crystal, experimental, refinement or atomic coordinate data resulting 
# from the CCDC's data processing and validation procedures.
#
#######################################################################

data_UVIGUC
_chemical_formula_moiety         'C23 H26 N2 O2'
_chemical_name_systematic        
'cis-t-Butyl 2-(4-cyanophenyl)-4-phenylpiperidine-1-carboxylate'
_symmetry_cell_setting           monoclinic
_symmetry_space_group_name_H-M   'P 21/c'
_symmetry_Int_Tables_number      14
_space_group_name_Hall           '-P 2ybc'
loop_
_symmetry_equiv_pos_site_id
_symmetry_equiv_pos_as_xyz
1 x,y,z
2 -x,1/2+y,1/2-z
3 -x,-y,-z
4 x,1/2-y,1/2+z
_cell_length_a                   14.5171(9)
_cell_length_b                   11.6682(8)
_cell_length_c                   12.0141(8)
_cell_angle_alpha                90
_cell_angle_beta                 98.276(7)
_cell_angle_gamma                90
_cell_volume                     2013.86
_exptl_crystal_colour            colorless
_exptl_crystal_description       platelet
_cell_formula_units_Z            4
loop_
_atom_site_label
_atom_site_type_symbol
_atom_site_fract_x
_atom_site_fract_y
_atom_site_fract_z
O1 O 0.10161(6) 0.54097(7) 0.30886(7)
O2 O 0.00143(6) 0.64170(7) 0.39967(8)
N1 N 0.15740(7) 0.63964(8) 0.46496(9)
N2 N 0.30014(10) 0.01632(12) 0.40086(14)
C1 C 0.07955(9) 0.60951(11) 0.39087(11)
C2 C 0.02915(9) 0.47678(11) 0.23482(11)
C3 C -0.03392(10) 0.55860(11) 0.16145(12)
H1 H -0.0701 0.6038 0.2085
H2 H -0.0763 0.5149 0.1063
H3 H 0.0039 0.6100 0.1220
C4 C -0.02383(10) 0.40015(11) 0.30514(12)
H4 H 0.0203 0.3555 0.3574
H5 H -0.0638 0.3479 0.2558
H6 H -0.0623 0.4474 0.3478
C5 C 0.08743(10) 0.40620(12) 0.16585(13)
H7 H 0.1240 0.4573 0.1246
H8 H 0.0466 0.3588 0.1124
H9 H 0.1295 0.3567 0.2158
C6 C 0.15029(9) 0.75531(11) 0.51218(12)
H10 H 0.0873 0.7652 0.5334
H11 H 0.1578 0.8127 0.4535
C7 C 0.22189(9) 0.77803(11) 0.61399(12)
H12 H 0.2102 0.7272 0.6765
H13 H 0.2167 0.8584 0.6387
C8 C 0.31934(9) 0.75647(10) 0.58572(11)
H14 H 0.3276 0.8052 0.5194
C9 C 0.32275(8) 0.63163(10) 0.54980(11)
H15 H 0.3123 0.5823 0.6139
H16 H 0.3858 0.6147 0.5319
C10 C 0.25099(8) 0.60029(10) 0.44754(11)
H17 H 0.2686 0.6388 0.3793
C11 C 0.25677(8) 0.47167(11) 0.43304(11)
C12 C 0.21096(9) 0.39608(11) 0.49611(11)
H18 H 0.1716 0.4253 0.5461
C13 C 0.22221(10) 0.27929(11) 0.48679(13)
H19 H 0.1899 0.2285 0.5294
C14 C 0.28074(10) 0.23581(11) 0.41524(13)
C15 C 0.32787(10) 0.31038(12) 0.35263(12)
H20 H 0.3684 0.2813 0.3040
C16 C 0.31507(9) 0.42722(11) 0.36196(11)
H21 H 0.3469 0.4781 0.3188
C17 C 0.29228(11) 0.11342(14) 0.40682(14)
C18 C 0.39483(9) 0.78800(10) 0.68075(11)
C19 C 0.45082(9) 0.88310(11) 0.67236(12)
H22 H 0.4421 0.9276 0.6055
C20 C 0.51898(10) 0.91428(12) 0.75942(13)
H23 H 0.5559 0.9803 0.7523
C21 C 0.53360(10) 0.85006(12) 0.85650(13)
H24 H 0.5811 0.8709 0.9159
C22 C 0.47890(9) 0.75544(12) 0.86700(12)
H25 H 0.4887 0.7108 0.9338
C23 C 0.40959(9) 0.72524(11) 0.78040(11)
H26 H 0.3715 0.6606 0.7891
loop_
_geom_bond_atom_site_label_1
_geom_bond_atom_site_label_2
_geom_bond_site_symmetry_1
_geom_bond_site_symmetry_2
O1 C1 1_555 1_555
O2 C1 1_555 1_555
N1 C1 1_555 1_555
N2 C17 1_555 1_555
C2 O1 1_555 1_555
C3 C2 1_555 1_555
H1 C3 1_555 1_555
H2 C3 1_555 1_555
H3 C3 1_555 1_555
C4 C2 1_555 1_555
H4 C4 1_555 1_555
H5 C4 1_555 1_555
H6 C4 1_555 1_555
C5 C2 1_555 1_555
H7 C5 1_555 1_555
H8 C5 1_555 1_555
H9 C5 1_555 1_555
C6 N1 1_555 1_555
H10 C6 1_555 1_555
H11 C6 1_555 1_555
C7 C6 1_555 1_555
H12 C7 1_555 1_555
H13 C7 1_555 1_555
C8 C7 1_555 1_555
H14 C8 1_555 1_555
C9 C8 1_555 1_555
H15 C9 1_555 1_555
H16 C9 1_555 1_555
C10 N1 1_555 1_555
H17 C10 1_555 1_555
C11 C10 1_555 1_555
C12 C11 1_555 1_555
H18 C12 1_555 1_555
C13 C12 1_555 1_555
H19 C13 1_555 1_555
C14 C13 1_555 1_555
C15 C14 1_555 1_555
H20 C15 1_555 1_555
C16 C11 1_555 1_555
H21 C16 1_555 1_555
C17 C14 1_555 1_555
C18 C8 1_555 1_555
C19 C18 1_555 1_555
H22 C19 1_555 1_555
C20 C19 1_555 1_555
H23 C20 1_555 1_555
C21 C20 1_555 1_555
H24 C21 1_555 1_555
C22 C21 1_555 1_555
H25 C22 1_555 1_555
C23 C18 1_555 1_555
H26 C23 1_555 1_555
C9 C10 1_555 1_555
C15 C16 1_555 1_555
C22 C23 1_555 1_555

#END
