
#######################################################################
#
#                 Cambridge Crystallographic Data Centre
#                                CCDC 
#
#######################################################################
#
# If this CIF has been generated from an entry in the Cambridge 
# Structural Database, then it will include bibliographic, chemical, 
# crystal, experimental, refinement or atomic coordinate data resulting 
# from the CCDC's data processing and validation procedures.
#
#######################################################################

data_UVIGOW
_chemical_formula_moiety         'C20 H22 N2 O2 S1'
_chemical_name_systematic        
4-(trans-2-Methyl-1-((4-methylphenyl)sulfonyl)piperidin-4-yl)benzonitrile
_symmetry_cell_setting           triclinic
_symmetry_space_group_name_H-M   'P -1'
_symmetry_Int_Tables_number      2
_space_group_name_Hall           '-P 1'
loop_
_symmetry_equiv_pos_site_id
_symmetry_equiv_pos_as_xyz
1 x,y,z
2 -x,-y,-z
_cell_length_a                   7.4047(6)
_cell_length_b                   9.5212(9)
_cell_length_c                   13.7988(11)
_cell_angle_alpha                88.074(7)
_cell_angle_beta                 76.203(7)
_cell_angle_gamma                87.599(7)
_cell_volume                     943.659
_exptl_crystal_colour            colorless
_exptl_crystal_description       platelet
_cell_formula_units_Z            2
loop_
_atom_site_label
_atom_site_type_symbol
_atom_site_fract_x
_atom_site_fract_y
_atom_site_fract_z
S1 S 0.79720(13) 0.07947(15) 0.70415(9)
O1 O 0.8956(3) -0.0292(3) 0.6401(2)
O2 O 0.8689(3) 0.1226(3) 0.78612(19)
N1 N 0.5893(4) 0.0236(4) 0.7520(2)
N2 N -0.4346(5) -0.5132(4) 1.1247(3)
C1 C 0.7842(5) 0.2308(5) 0.6303(3)
C2 C 0.7195(5) 0.3549(6) 0.6738(3)
H1 H 0.6814 0.3591 0.7445
C3 C 0.7088(5) 0.4755(6) 0.6160(4)
H2 H 0.6664 0.5618 0.6478
C4 C 0.7586(6) 0.4730(7) 0.5129(5)
C5 C 0.8242(6) 0.3454(7) 0.4692(4)
H3 H 0.8627 0.3412 0.3986
C6 C 0.8349(5) 0.2236(6) 0.5268(3)
H4 H 0.8764 0.1367 0.4957
C7 C 0.7465(6) 0.6019(6) 0.4487(4)
H5 H 0.6175 0.6190 0.4439
H6 H 0.8264 0.5878 0.3819
H7 H 0.7877 0.6831 0.4786
C8 C 0.3822(6) 0.0524(6) 0.6317(3)
H8 H 0.2996 0.1159 0.6783
H9 H 0.3083 -0.0015 0.5968
H10 H 0.4719 0.1075 0.5830
C9 C 0.4876(5) -0.0496(5) 0.6901(3)
H11 H 0.5809 -0.1055 0.6403
C10 C 0.3580(5) -0.1532(5) 0.7572(3)
H12 H 0.2831 -0.1988 0.7174
H13 H 0.4336 -0.2274 0.7826
C11 C 0.2276(5) -0.0800(5) 0.8455(3)
H14 H 0.1545 -0.0046 0.8179
C12 C 0.3464(5) -0.0088(5) 0.9045(3)
H15 H 0.4249 -0.0804 0.9304
H16 H 0.2651 0.0398 0.9620
C13 C 0.4699(5) 0.0975(4) 0.8366(3)
H17 H 0.3915 0.1706 0.8120
H18 H 0.5475 0.1441 0.8745
C14 C 0.0910(5) -0.1811(5) 0.9068(3)
C15 C -0.0508(5) -0.2319(5) 0.8658(3)
H19 H -0.0546 -0.2052 0.7993
C16 C -0.1827(5) -0.3189(5) 0.9200(3)
H20 H -0.2767 -0.3517 0.8910
C17 C -0.1795(5) -0.3592(5) 1.0174(3)
C18 C -0.0394(5) -0.3125(5) 1.0594(3)
H21 H -0.0344 -0.3407 1.1254
C19 C 0.0919(5) -0.2246(5) 1.0030(3)
H22 H 0.1868 -0.1929 1.0318
C20 C -0.3206(6) -0.4470(5) 1.0764(3)
loop_
_geom_bond_atom_site_label_1
_geom_bond_atom_site_label_2
_geom_bond_site_symmetry_1
_geom_bond_site_symmetry_2
S1 O1 1_555 1_555
O2 S1 1_555 1_555
N1 S1 1_555 1_555
N2 C20 1_555 1_555
C1 S1 1_555 1_555
C2 C1 1_555 1_555
H1 C2 1_555 1_555
C3 C2 1_555 1_555
H2 C3 1_555 1_555
C4 C3 1_555 1_555
C5 C4 1_555 1_555
H3 C5 1_555 1_555
C6 C1 1_555 1_555
H4 C6 1_555 1_555
C7 C4 1_555 1_555
H5 C7 1_555 1_555
H6 C7 1_555 1_555
H7 C7 1_555 1_555
C8 H8 1_555 1_555
H9 C8 1_555 1_555
H10 C8 1_555 1_555
C9 N1 1_555 1_555
H11 C9 1_555 1_555
C10 C9 1_555 1_555
H12 C10 1_555 1_555
H13 C10 1_555 1_555
C11 C10 1_555 1_555
H14 C11 1_555 1_555
C12 C11 1_555 1_555
H15 C12 1_555 1_555
H16 C12 1_555 1_555
C13 N1 1_555 1_555
H17 C13 1_555 1_555
H18 C13 1_555 1_555
C14 C11 1_555 1_555
C15 C14 1_555 1_555
H19 C15 1_555 1_555
C16 C15 1_555 1_555
H20 C16 1_555 1_555
C17 C16 1_555 1_555
C18 C17 1_555 1_555
H21 C18 1_555 1_555
C19 C14 1_555 1_555
H22 C19 1_555 1_555
C20 C17 1_555 1_555
C5 C6 1_555 1_555
C8 C9 1_555 1_555
C12 C13 1_555 1_555
C18 C19 1_555 1_555

#END
