
#######################################################################
#
#                 Cambridge Crystallographic Data Centre
#                                CCDC 
#
#######################################################################
#
# If this CIF has been generated from an entry in the Cambridge 
# Structural Database, then it will include bibliographic, chemical, 
# crystal, experimental, refinement or atomic coordinate data resulting 
# from the CCDC's data processing and validation procedures.
#
#######################################################################

data_UVIGAI
_chemical_formula_moiety         'C23 H26 F3 N1 O2 S1'
_chemical_name_systematic        
2-((4-Methylphenyl)sulfonyl)-3-(4-(trifluoromethyl)phenyl)decahydroisoquinoline
_symmetry_cell_setting           monoclinic
_symmetry_space_group_name_H-M   'C 2/c'
_symmetry_Int_Tables_number      15
_space_group_name_Hall           '-C 2yn'
loop_
_symmetry_equiv_pos_site_id
_symmetry_equiv_pos_as_xyz
1 x,y,z
2 -x,y,1/2-z
3 1/2+x,1/2+y,z
4 1/2-x,1/2+y,1/2-z
5 -x,-y,-z
6 x,-y,1/2+z
7 1/2-x,1/2-y,-z
8 1/2+x,1/2-y,1/2+z
_cell_length_a                   31.5413(5)
_cell_length_b                   5.49050(10)
_cell_length_c                   25.8592(4)
_cell_angle_alpha                90
_cell_angle_beta                 110.7934(8)
_cell_angle_gamma                90
_cell_volume                     4186.55
_exptl_crystal_colour            colorless
_exptl_crystal_description       rod
_cell_formula_units_Z            8
loop_
_atom_site_label
_atom_site_type_symbol
_atom_site_fract_x
_atom_site_fract_y
_atom_site_fract_z
S1 S 0.873825(16) -0.05846(9) 0.54710(2)
C1 C 0.81407(7) 0.0898(4) 0.76670(9)
F1 F 0.7697(3) 0.074(3) 0.7412(5)
F2 F 0.8188(3) 0.2906(16) 0.8014(4)
F3 F 0.8284(7) -0.084(4) 0.8015(7)
O1 O 0.88892(5) -0.2372(2) 0.51698(6)
O2 O 0.84865(5) -0.1352(2) 0.58057(6)
N1 N 0.92069(5) 0.0786(3) 0.58853(6)
C2 C 0.84055(6) 0.1593(3) 0.50002(8)
C3 C 0.84412(7) 0.1904(4) 0.44836(8)
H1 H 0.8649 0.0950 0.4378
C4 C 0.81706(7) 0.3623(4) 0.41238(8)
H2 H 0.8194 0.3840 0.3771
C5 C 0.78652(6) 0.5036(4) 0.42700(8)
C6 C 0.78372(7) 0.4683(4) 0.47892(8)
H3 H 0.7630 0.5634 0.4896
C7 C 0.81033(6) 0.2981(4) 0.51522(8)
H4 H 0.8079 0.2763 0.5505
C8 C 0.75677(7) 0.6905(4) 0.38845(9)
H5 H 0.7250 0.6577 0.3832
H6 H 0.7609 0.6821 0.3527
H7 H 0.7651 0.8533 0.4043
C9 C 0.95116(6) 0.1425(4) 0.55803(8)
H8 H 0.9381 0.2810 0.5329
H9 H 0.9534 0.0020 0.5351
C10 C 0.99815(6) 0.2105(4) 0.59730(8)
H10 H 1.0102 0.0710 0.6232
C11 C 1.03042(7) 0.2537(5) 0.56605(9)
H11 H 1.0332 0.1022 0.5467
H12 H 1.0178 0.3819 0.5378
C12 C 1.07697(7) 0.3308(4) 0.60503(10)
H13 H 1.0964 0.3689 0.5833
H14 H 1.0911 0.1944 0.6303
C13 C 1.07409(8) 0.5528(5) 0.63886(11)
H15 H 1.0633 0.6944 0.6139
H16 H 1.1047 0.5918 0.6655
C14 C 1.04198(7) 0.5092(4) 0.67024(10)
H17 H 1.0392 0.6607 0.6896
H18 H 1.0547 0.3813 0.6985
C15 C 0.99495(6) 0.4308(4) 0.63130(8)
H19 H 0.9815 0.5683 0.6053
C16 C 0.96287(7) 0.3700(4) 0.66151(8)
H20 H 0.9596 0.5157 0.6823
H21 H 0.9766 0.2395 0.6887
C17 C 0.91544(6) 0.2870(3) 0.62364(8)
H22 H 0.9002 0.4253 0.5988
C18 C 0.88848(6) 0.2261(3) 0.66007(8)
C19 C 0.85466(7) 0.3842(4) 0.66179(8)
H23 H 0.8478 0.5245 0.6388
C20 C 0.83080(7) 0.3394(4) 0.69668(8)
H24 H 0.8077 0.4487 0.6975
C21 C 0.84065(6) 0.1360(4) 0.73017(8)
C22 C 0.87485(7) -0.0222(4) 0.72945(8)
H25 H 0.8819 -0.1615 0.7527
C23 C 0.89854(7) 0.0239(4) 0.69483(8)
H26 H 0.9221 -0.0838 0.6947
F4? F 0.8178(5) -0.159(4) 0.7820(11)
F5? F 0.8242(6) 0.212(7) 0.8104(8)
F6? F 0.7701(3) 0.111(3) 0.7393(5)
loop_
_geom_bond_atom_site_label_1
_geom_bond_atom_site_label_2
_geom_bond_site_symmetry_1
_geom_bond_site_symmetry_2
S1 O1 1_555 1_555
C1 F1 1_555 1_555
F2 C1 1_555 1_555
F3 C1 1_555 1_555
O2 S1 1_555 1_555
N1 S1 1_555 1_555
C2 S1 1_555 1_555
C3 C2 1_555 1_555
H1 C3 1_555 1_555
C4 C3 1_555 1_555
H2 C4 1_555 1_555
C5 C4 1_555 1_555
C6 C5 1_555 1_555
H3 C6 1_555 1_555
C7 C2 1_555 1_555
H4 C7 1_555 1_555
C8 C5 1_555 1_555
H5 C8 1_555 1_555
H6 C8 1_555 1_555
H7 C8 1_555 1_555
C9 N1 1_555 1_555
H8 C9 1_555 1_555
H9 C9 1_555 1_555
C10 C9 1_555 1_555
H10 C10 1_555 1_555
C11 C10 1_555 1_555
H11 C11 1_555 1_555
H12 C11 1_555 1_555
C12 C11 1_555 1_555
H13 C12 1_555 1_555
H14 C12 1_555 1_555
C13 C12 1_555 1_555
H15 C13 1_555 1_555
H16 C13 1_555 1_555
C14 C13 1_555 1_555
H17 C14 1_555 1_555
H18 C14 1_555 1_555
C15 C10 1_555 1_555
H19 C15 1_555 1_555
C16 C15 1_555 1_555
H20 C16 1_555 1_555
H21 C16 1_555 1_555
C17 N1 1_555 1_555
H22 C17 1_555 1_555
C18 C17 1_555 1_555
C19 C18 1_555 1_555
H23 C19 1_555 1_555
C20 C19 1_555 1_555
H24 C20 1_555 1_555
C21 C1 1_555 1_555
C22 C21 1_555 1_555
H25 C22 1_555 1_555
C23 C18 1_555 1_555
H26 C23 1_555 1_555
C6 C7 1_555 1_555
C14 C15 1_555 1_555
C16 C17 1_555 1_555
C20 C21 1_555 1_555
C22 C23 1_555 1_555

#END
