
#######################################################################
#
#                 Cambridge Crystallographic Data Centre
#                                CCDC 
#
#######################################################################
#
# If this CIF has been generated from an entry in the Cambridge 
# Structural Database, then it will include bibliographic, chemical, 
# crystal, experimental, refinement or atomic coordinate data resulting 
# from the CCDC's data processing and validation procedures.
#
#######################################################################

data_UVIGIQ
_chemical_formula_moiety         'C20 H22 N2 O2 S1'
_chemical_name_systematic        
4-(cis-5-Methyl-1-((4-methylphenyl)sulfonyl)piperidin-2-yl)benzonitrile
_symmetry_cell_setting           triclinic
_symmetry_space_group_name_H-M   'P -1'
_symmetry_Int_Tables_number      2
_space_group_name_Hall           '-P 1'
loop_
_symmetry_equiv_pos_site_id
_symmetry_equiv_pos_as_xyz
1 x,y,z
2 -x,-y,-z
_cell_length_a                   5.4884(2)
_cell_length_b                   11.8978(8)
_cell_length_c                   14.2002(7)
_cell_angle_alpha                77.357(5)
_cell_angle_beta                 86.323(4)
_cell_angle_gamma                87.651(4)
_cell_volume                     902.579
_exptl_crystal_colour            colorless
_exptl_crystal_description       rod
_cell_formula_units_Z            2
loop_
_atom_site_label
_atom_site_type_symbol
_atom_site_fract_x
_atom_site_fract_y
_atom_site_fract_z
S1 S 0.73776(7) 0.30135(4) 0.84148(3)
O1 O 0.64349(18) 0.20050(10) 0.81941(8)
O2 O 0.57165(18) 0.38589(11) 0.86835(9)
N1 N 0.8989(2) 0.36978(11) 0.74444(9)
N2 N 0.7235(3) -0.18686(15) 0.57132(12)
C1 C 1.0020(3) 0.47717(14) 0.76162(12)
H1 H 1.1348 0.4560 0.8068
H2 H 0.8728 0.5195 0.7928
C2 C 1.1018(3) 0.55616(14) 0.66936(13)
H3 H 0.9639 0.5828 0.6264
C3 C 1.2881(3) 0.49094(15) 0.61725(13)
H4 H 1.3386 0.5399 0.5538
H5 H 1.4346 0.4720 0.6555
C4 C 1.1823(3) 0.38142(14) 0.60260(12)
H6 H 1.3091 0.3389 0.5705
H7 H 1.0457 0.4014 0.5591
C5 C 1.0889(2) 0.30286(14) 0.69739(11)
H8 H 1.2279 0.2823 0.7408
C6 C 1.0009(2) 0.19408(14) 0.67430(11)
C7 C 1.1326(3) 0.09202(14) 0.70068(12)
H9 H 1.2716 0.0899 0.7377
C8 C 1.0672(3) -0.00677(15) 0.67453(12)
H10 H 1.1589 -0.0766 0.6939
C9 C 0.8646(3) -0.00346(15) 0.61927(12)
C10 C 0.7320(3) 0.09908(16) 0.59118(12)
H11 H 0.5938 0.1017 0.5537
C11 C 0.8010(3) 0.19602(15) 0.61766(12)
H12 H 0.7114 0.2662 0.5972
C12 C 1.2096(3) 0.66046(16) 0.69473(15)
H13 H 1.3444 0.6354 0.7372
H14 H 1.0832 0.7006 0.7279
H15 H 1.2708 0.7128 0.6354
C13 C 0.7888(3) -0.10627(17) 0.59256(13)
C14 C 0.9416(3) 0.25726(14) 0.93398(12)
C15 C 0.9895(3) 0.32888(16) 0.99443(13)
H16 H 0.9062 0.4014 0.9886
C16 C 1.1597(3) 0.29456(17) 1.06359(13)
H17 H 1.1939 0.3448 1.1043
C17 C 1.2807(3) 0.18884(17) 1.07466(12)
C18 C 1.2276(3) 0.11803(16) 1.01481(13)
H18 H 1.3068 0.0444 1.0223
C19 C 1.0612(3) 0.15115(15) 0.94375(12)
H19 H 1.0298 0.1014 0.9022
C20 C 1.4681(3) 0.1510(2) 1.14959(14)
H20 H 1.4500 0.0689 1.1789
H21 H 1.4432 0.1959 1.1998
H22 H 1.6325 0.1635 1.1187
loop_
_geom_bond_atom_site_label_1
_geom_bond_atom_site_label_2
_geom_bond_site_symmetry_1
_geom_bond_site_symmetry_2
S1 O1 1_555 1_555
O2 S1 1_555 1_555
N1 S1 1_555 1_555
N2 C13 1_555 1_555
C1 N1 1_555 1_555
H1 C1 1_555 1_555
H2 C1 1_555 1_555
C2 C1 1_555 1_555
H3 C2 1_555 1_555
C3 C2 1_555 1_555
H4 C3 1_555 1_555
H5 C3 1_555 1_555
C4 C3 1_555 1_555
H6 C4 1_555 1_555
H7 C4 1_555 1_555
C5 N1 1_555 1_555
H8 C5 1_555 1_555
C6 C5 1_555 1_555
C7 C6 1_555 1_555
H9 C7 1_555 1_555
C8 C7 1_555 1_555
H10 C8 1_555 1_555
C9 C8 1_555 1_555
C10 C9 1_555 1_555
H11 C10 1_555 1_555
C11 C6 1_555 1_555
H12 C11 1_555 1_555
C12 C2 1_555 1_555
H13 C12 1_555 1_555
H14 C12 1_555 1_555
H15 C12 1_555 1_555
C13 C9 1_555 1_555
C14 S1 1_555 1_555
C15 C14 1_555 1_555
H16 C15 1_555 1_555
C16 C15 1_555 1_555
H17 C16 1_555 1_555
C17 C16 1_555 1_555
C18 C17 1_555 1_555
H18 C18 1_555 1_555
C19 C14 1_555 1_555
H19 C19 1_555 1_555
C20 C17 1_555 1_555
H20 C20 1_555 1_555
H21 C20 1_555 1_555
H22 C20 1_555 1_555
C4 C5 1_555 1_555
C10 C11 1_555 1_555
C18 C19 1_555 1_555

#END
