
#######################################################################
#
#                 Cambridge Crystallographic Data Centre
#                                CCDC 
#
#######################################################################
#
# If this CIF has been generated from an entry in the Cambridge 
# Structural Database, then it will include bibliographic, chemical, 
# crystal, experimental, refinement or atomic coordinate data resulting 
# from the CCDC's data processing and validation procedures.
#
#######################################################################

data_UVIJUG
_chemical_formula_moiety         'C29 H48 Cl2 O2'
_chemical_name_systematic        '5\a,6\b-dichlorocholestan-3\b-yl acetate'
_symmetry_cell_setting           monoclinic
_symmetry_space_group_name_H-M   'P 21'
_symmetry_Int_Tables_number      4
_space_group_name_Hall           'P 2yb'
loop_
_symmetry_equiv_pos_site_id
_symmetry_equiv_pos_as_xyz
1 x,y,z
2 -x,1/2+y,-z
_cell_length_a                   10.2490(6)
_cell_length_b                   7.6979(4)
_cell_length_c                   19.7126(11)
_cell_angle_alpha                90
_cell_angle_beta                 95.778(6)
_cell_angle_gamma                90
_cell_volume                     1547.34
_cell_formula_units_Z            2
loop_
_atom_site_label
_atom_site_type_symbol
_atom_site_fract_x
_atom_site_fract_y
_atom_site_fract_z
Cl1 Cl -0.65699(9) -0.20084(17) -0.29030(5)
Cl2 Cl -0.94094(15) 0.05984(17) -0.17959(7)
C1 C -0.7853(4) -0.1933(5) -0.22998(18)
C2 C -1.1099(4) -0.4554(5) -0.4152(2)
H1 H -1.0455 -0.4615 -0.4479
H2 H -1.1715 -0.5499 -0.4248
C3 C -0.7088(4) -0.2088(6) -0.1595(2)
H3 H -0.7690 -0.1975 -0.1248
H4 H -0.6458 -0.1146 -0.1533
C4 C -0.6365(5) -0.3824(7) -0.1503(2)
H5 H -0.5633 -0.3850 -0.1787
C5 C -1.0188(3) -0.1497(5) -0.33083(19)
H6 H -1.0882 -0.1430 -0.3002
C6 C -0.9863(5) -0.3546(7) -0.1950(2)
H7 H -0.9460 -0.3274 -0.1502
H8 H -1.0239 -0.4687 -0.1949
H9 H -1.0538 -0.2712 -0.2081
C7 C -0.8817(4) -0.3486(5) -0.24635(19)
C8 C -0.7254(5) -0.5357(6) -0.1671(2)
H10 H -0.7875 -0.5450 -0.1332
H11 H -0.6736 -0.6413 -0.1653
C9 C -1.1830(3) -0.2830(5) -0.42366(19)
C10 C -1.0805(3) -0.1382(5) -0.40382(19)
H12 H -1.0093 -0.1548 -0.4329
C11 C -0.8007(5) -0.5172(6) -0.2384(2)
H13 H -0.7386 -0.5191 -0.2724
H14 H -0.8590 -0.6159 -0.2468
C12 C -0.9484(4) -0.3269(5) -0.32045(19)
H15 H -0.8779 -0.3276 -0.3506
C13 C -0.9231(4) 0.0006(5) -0.3148(2)
H16 H -0.8632 0.0053 -0.3499
H17 H -0.9722 0.1085 -0.3168
C14 C -0.8433(4) -0.0122(6) -0.2454(2)
H18 H -0.7696 0.0687 -0.2459
C15 C -0.4331(11) -0.3603(13) 0.0158(4)
H19 H -0.3951 -0.4740 0.0212
H20 H -0.5089 -0.3534 0.0406
H21 H -0.3700 -0.2749 0.0330
C16 C -0.4727(7) -0.3268(9) -0.0582(3)
C17 C -1.2296(3) -0.2252(5) -0.49783(18)
H22 H -1.1582 -0.2510 -0.5258
C18 C -1.3559(4) -0.3072(6) -0.53399(19)
H23 H -1.4295 -0.2738 -0.5086
C19 C -1.3817(4) -0.2332(6) -0.6067(2)
H24 H -1.3762 -0.1076 -0.6042
H25 H -1.3128 -0.2732 -0.6332
C20 C -1.2390(4) -0.0241(6) -0.4924(2)
H26 H -1.2091 0.0303 -0.5325
H27 H -1.3290 0.0109 -0.4889
C21 C -1.3499(5) -0.5054(7) -0.5359(2)
H28 H -1.2692 -0.5412 -0.5525
H29 H -1.4225 -0.5490 -0.5655
H30 H -1.3541 -0.5506 -0.4907
C22 C -1.2982(4) -0.2786(7) -0.3795(2)
H31 H -1.3556 -0.3750 -0.3912
H32 H -1.3458 -0.1719 -0.3874
H33 H -1.2653 -0.2862 -0.3322
O1 O -0.4144(5) -0.2379(9) -0.0935(3)
O2 O -0.5875(4) -0.4039(5) -0.07902(17)
C23 C -1.0406(5) -0.4780(5) -0.3433(3)
H34 H -0.9903 -0.5849 -0.3417
H35 H -1.1063 -0.4892 -0.3114
C24 C -1.1513(4) 0.0304(5) -0.4281(2)
H36 H -1.2036 0.0751 -0.3936
H37 H -1.0890 0.1187 -0.4387
C25 C -1.5375(4) -0.2002(8) -0.7143(2)
H38 H -1.4657 -0.2318 -0.7404
H39 H -1.5357 -0.0750 -0.7089
C26 C -1.5136(4) -0.2828(7) -0.6441(2)
H40 H -1.5179 -0.4081 -0.6489
H41 H -1.5829 -0.2473 -0.6170
C27 C -1.6671(5) -0.2509(9) -0.7558(2)
H42 H -1.7378 -0.2329 -0.7266
C28 C -1.6696(7) -0.4411(12) -0.7766(3)
H43 H -1.6053 -0.4609 -0.8080
H44 H -1.7550 -0.4702 -0.7980
H45 H -1.6499 -0.5122 -0.7369
C29 C -1.6934(7) -0.1329(13) -0.8170(3)
H46 H -1.6752 -0.0149 -0.8036
H47 H -1.7837 -0.1432 -0.8350
H48 H -1.6381 -0.1660 -0.8514
loop_
_geom_bond_atom_site_label_1
_geom_bond_atom_site_label_2
_geom_bond_site_symmetry_1
_geom_bond_site_symmetry_2
Cl1 C1 1_555 1_555
Cl2 C14 1_555 1_555
C1 C3 1_555 1_555
C2 H1 1_555 1_555
H2 C2 1_555 1_555
C3 H3 1_555 1_555
H4 C3 1_555 1_555
C4 C3 1_555 1_555
H5 C4 1_555 1_555
C5 H6 1_555 1_555
C6 H7 1_555 1_555
H8 C6 1_555 1_555
H9 C6 1_555 1_555
C7 C1 1_555 1_555
C8 C4 1_555 1_555
H10 C8 1_555 1_555
H11 C8 1_555 1_555
C9 C2 1_555 1_555
C10 C5 1_555 1_555
H12 C10 1_555 1_555
C11 C7 1_555 1_555
H13 C11 1_555 1_555
H14 C11 1_555 1_555
C12 C5 1_555 1_555
H15 C12 1_555 1_555
C13 C5 1_555 1_555
H16 C13 1_555 1_555
H17 C13 1_555 1_555
C14 C1 1_555 1_555
H18 C14 1_555 1_555
C15 H19 1_555 1_555
H20 C15 1_555 1_555
H21 C15 1_555 1_555
C16 C15 1_555 1_555
C17 C9 1_555 1_555
H22 C17 1_555 1_555
C18 C17 1_555 1_555
H23 C18 1_555 1_555
C19 C18 1_555 1_555
H24 C19 1_555 1_555
H25 C19 1_555 1_555
C20 C17 1_555 1_555
H26 C20 1_555 1_555
H27 C20 1_555 1_555
C21 C18 1_555 1_555
H28 C21 1_555 1_555
H29 C21 1_555 1_555
H30 C21 1_555 1_555
C22 C9 1_555 1_555
H31 C22 1_555 1_555
H32 C22 1_555 1_555
H33 C22 1_555 1_555
O1 C16 1_555 1_555
O2 C4 1_555 1_555
C23 C2 1_555 1_555
H34 C23 1_555 1_555
H35 C23 1_555 1_555
C24 C10 1_555 1_555
H36 C24 1_555 1_555
H37 C24 1_555 1_555
C25 H38 1_555 1_555
H39 C25 1_555 1_555
C26 C19 1_555 1_555
H40 C26 1_555 1_555
H41 C26 1_555 1_555
C27 C25 1_555 1_555
H42 C27 1_555 1_555
C28 C27 1_555 1_555
H43 C28 1_555 1_555
H44 C28 1_555 1_555
H45 C28 1_555 1_555
C29 C27 1_555 1_555
H46 C29 1_555 1_555
H47 C29 1_555 1_555
H48 C29 1_555 1_555
C6 C7 1_555 1_555
C7 C12 1_555 1_555
C8 C11 1_555 1_555
C9 C10 1_555 1_555
C12 C23 1_555 1_555
C13 C14 1_555 1_555
C16 O2 1_555 1_555
C20 C24 1_555 1_555
C25 C26 1_555 1_555

#END
