
#######################################################################
#
#                 Cambridge Crystallographic Data Centre
#                                CCDC 
#
#######################################################################
#
# If this CIF has been generated from an entry in the Cambridge 
# Structural Database, then it will include bibliographic, chemical, 
# crystal, experimental, refinement or atomic coordinate data resulting 
# from the CCDC's data processing and validation procedures.
#
#######################################################################

data_UVIRAT
_chemical_formula_moiety         'C15 H27 B11 N2'
_chemical_name_systematic        
(\m~2~-1-[di(pyridinium-1-yl)boranyl]butane-1,4-diyl)-2-carba-nido-undecaborane
_symmetry_cell_setting           orthorhombic
_symmetry_space_group_name_H-M   'P 21 21 21'
_symmetry_Int_Tables_number      19
_space_group_name_Hall           'P 2ac 2ab'
loop_
_symmetry_equiv_pos_site_id
_symmetry_equiv_pos_as_xyz
1 x,y,z
2 1/2-x,-y,1/2+z
3 -x,1/2+y,1/2-z
4 1/2+x,1/2-y,-z
_cell_length_a                   9.2420(15)
_cell_length_b                   12.376(2)
_cell_length_c                   18.093(3)
_cell_angle_alpha                90
_cell_angle_beta                 90
_cell_angle_gamma                90
_cell_volume                     2069.46
_exptl_crystal_colour            colorless
_exptl_crystal_description       block
_cell_formula_units_Z            4
loop_
_atom_site_label
_atom_site_type_symbol
_atom_site_fract_x
_atom_site_fract_y
_atom_site_fract_z
N1 N 0.5983(4) 0.6194(3) 0.47151(18)
N2 N 0.6159(4) 0.6004(3) 0.61070(16)
C1 C 0.1784(4) 0.3970(3) 0.47991(18)
C2 C 0.1219(5) 0.3747(3) 0.5578(2)
H1 H 0.0604 0.4341 0.5731
H2 H 0.0634 0.3096 0.5570
C3 C 0.2410(6) 0.3612(4) 0.6126(2)
H3 H 0.1990 0.3577 0.6616
H4 H 0.2887 0.2927 0.6033
C4 C 0.3520(5) 0.4482(4) 0.6117(2)
H5 H 0.4232 0.4317 0.6495
H6 H 0.3051 0.5152 0.6260
C5 C 0.4340(4) 0.4687(3) 0.53799(18)
H7 H 0.5138 0.4166 0.5356
C6 C 0.6993(5) 0.5564(4) 0.4418(2)
H8 H 0.7198 0.4906 0.4643
C7 C 0.7735(5) 0.5839(5) 0.3801(3)
H9 H 0.8436 0.5378 0.3611
C8 C 0.7448(7) 0.6788(6) 0.3464(3)
H10 H 0.7938 0.6980 0.3035
C9 C 0.6447(8) 0.7454(5) 0.3755(3)
H11 H 0.6248 0.8113 0.3530
C10 C 0.5715(5) 0.7154(4) 0.4390(3)
H12 H 0.5032 0.7618 0.4595
C11 C 0.6237(5) 0.6962(4) 0.6432(2)
H13 H 0.5632 0.7511 0.6264
C12 C 0.7162(5) 0.7182(4) 0.7000(2)
H14 H 0.7187 0.7866 0.7212
C13 C 0.8058(5) 0.6375(4) 0.7255(2)
H15 H 0.8696 0.6501 0.7643
C14 C 0.7987(6) 0.5384(4) 0.6925(2)
H16 H 0.8583 0.4826 0.7086
C15 C 0.7031(5) 0.5213(4) 0.6354(2)
H17 H 0.6988 0.4535 0.6134
B1 B 0.2506(5) 0.3027(4) 0.4283(3)
B2 B 0.3267(6) 0.2866(4) 0.3414(2)
H18 H 0.3717 0.2103 0.3204
B3 B 0.3317(5) 0.4469(3) 0.4682(2)
B4 B 0.0751(6) 0.3916(4) 0.4111(2)
H19 H -0.0411 0.3756 0.4185
B5 B 0.1599(6) 0.3316(4) 0.3287(3)
H20 H 0.0899 0.2850 0.2912
B6 B 0.4178(5) 0.3844(4) 0.3832(2)
H21 H 0.5362 0.3757 0.3851
B7 B 0.1692(5) 0.5120(3) 0.4351(2)
H22 H 0.1225 0.5881 0.4556
B8 B 0.3088(5) 0.4153(4) 0.3049(2)
H23 H 0.3457 0.4362 0.2489
B9 B 0.3270(5) 0.5096(4) 0.3787(2)
H24 H 0.3874 0.5850 0.3695
B10 B 0.1494(5) 0.4745(4) 0.3403(2)
H25 H 0.0816 0.5246 0.3040
B11 B 0.5033(6) 0.5852(4) 0.5419(2)
H26 H 0.399(4) 0.650(2) 0.5478(17)
H27 H 0.256(3) 0.224(3) 0.4526(18)
loop_
_geom_bond_atom_site_label_1
_geom_bond_atom_site_label_2
_geom_bond_site_symmetry_1
_geom_bond_site_symmetry_2
N1 C6 1_555 1_555
N2 C11 1_555 1_555
C1 C2 1_555 1_555
C2 H1 1_555 1_555
H2 C2 1_555 1_555
C3 C2 1_555 1_555
H3 C3 1_555 1_555
H4 C3 1_555 1_555
C4 C3 1_555 1_555
H5 C4 1_555 1_555
H6 C4 1_555 1_555
C5 C4 1_555 1_555
H7 C5 1_555 1_555
C6 H8 1_555 1_555
C7 C6 1_555 1_555
H9 C7 1_555 1_555
C8 C7 1_555 1_555
H10 C8 1_555 1_555
C9 C8 1_555 1_555
H11 C9 1_555 1_555
C10 N1 1_555 1_555
H12 C10 1_555 1_555
C11 H13 1_555 1_555
C12 C11 1_555 1_555
H14 C12 1_555 1_555
C13 C12 1_555 1_555
H15 C13 1_555 1_555
C14 C13 1_555 1_555
H16 C14 1_555 1_555
C15 N2 1_555 1_555
H17 C15 1_555 1_555
B1 C1 1_555 1_555
B2 B1 1_555 1_555
H18 B2 1_555 1_555
B3 C1 1_555 1_555
B4 C1 1_555 1_555
H19 B4 1_555 1_555
B5 B1 1_555 1_555
H20 B5 1_555 1_555
B6 B1 1_555 1_555
H21 B6 1_555 1_555
B7 C1 1_555 1_555
H22 B7 1_555 1_555
B8 B2 1_555 1_555
H23 B8 1_555 1_555
B9 B3 1_555 1_555
H24 B9 1_555 1_555
B10 B4 1_555 1_555
H25 B10 1_555 1_555
B11 N1 1_555 1_555
H26 B11 1_555 1_555
H27 B1 1_555 1_555
N2 B11 1_555 1_555
C5 B3 1_555 1_555
C5 B11 1_555 1_555
C9 C10 1_555 1_555
C14 C15 1_555 1_555
B1 B3 1_555 1_555
B1 B4 1_555 1_555
B2 B5 1_555 1_555
B2 B6 1_555 1_555
B3 B6 1_555 1_555
B3 B7 1_555 1_555
B4 B5 1_555 1_555
B4 B7 1_555 1_555
B5 B8 1_555 1_555
B5 B10 1_555 1_555
B6 B8 1_555 1_555
B6 B9 1_555 1_555
B7 B9 1_555 1_555
B7 B10 1_555 1_555
B8 B9 1_555 1_555
B8 B10 1_555 1_555
B9 B10 1_555 1_555

#END
