
#######################################################################
#
#                 Cambridge Crystallographic Data Centre
#                                CCDC 
#
#######################################################################
#
# If this CIF has been generated from an entry in the Cambridge 
# Structural Database, then it will include bibliographic, chemical, 
# crystal, experimental, refinement or atomic coordinate data resulting 
# from the CCDC's data processing and validation procedures.
#
#######################################################################

data_UVIWOM
_chemical_formula_moiety         'C78 H59 N3 O8,0.5(C1 H4 O1)'
_chemical_name_systematic        
"Tetramethyl 4,4',4'',4'''-(43,44,47-triazatridecacyclo-[32.6.2.2^7,14^.2^20,27^.1^3,32^.1^5,16^.1^18,29^.0^2,33^.0^6,15^.0^8,13^.0^19,-28^.0^21,26^.0^35,40^]nonatetraconta-2(33),3,5,8,10,12,15,17,19(28),21,23,25,29(44),30,32(43),35,37,39-octadecaene-4,17,30,31-tetrayl)tetrabenzoate methanol solvate"
_symmetry_cell_setting           triclinic
_symmetry_space_group_name_H-M   'P -1'
_symmetry_Int_Tables_number      2
_space_group_name_Hall           '-P 1'
loop_
_symmetry_equiv_pos_site_id
_symmetry_equiv_pos_as_xyz
1 x,y,z
2 -x,-y,-z
_cell_length_a                   11.322(7)
_cell_length_b                   15.835(10)
_cell_length_c                   16.581(11)
_cell_angle_alpha                96.098(11)
_cell_angle_beta                 97.325(10)
_cell_angle_gamma                96.894(11)
_cell_volume                     2904.75
_cell_formula_units_Z            2
_exptl_crystal_recrystallization_method dichloromethane/methanol
loop_
_atom_site_label
_atom_site_type_symbol
_atom_site_fract_x
_atom_site_fract_y
_atom_site_fract_z
C79 C 0.5000 1.0000 1.0000
H59 H 0.4598 0.9925 0.9523
H60 H 0.5411 1.0468 0.9938
H61 H 0.4396 1.0029 1.0253
O9 O 0.5521(4) 0.9215(3) 0.9912(3)
H63 H 0.5008 0.8768 1.0094
H59A H 0.5402 1.0075 1.0477
H60A H 0.4589 0.9532 1.0062
H61A H 0.5604 0.9971 0.9747
O9A O 0.4479(4) 1.0785(3) 1.0088(3)
H63A H 0.4992 1.1232 0.9906
C1 C 0.6350(2) -0.11720(15) 0.26269(15)
C2 C 0.5981(2) -0.20653(15) 0.26991(14)
C3 C 0.6123(2) -0.29523(15) 0.23145(14)
H1 H 0.6781 -0.2942 0.1983
C4 C 0.6304(2) -0.34952(14) 0.30039(14)
C5 C 0.5396(2) -0.35015(14) 0.35063(14)
C6 C 0.44560(19) -0.29452(14) 0.32399(14)
H2 H 0.3844 -0.2930 0.3608
C7 C 0.50721(19) -0.20777(13) 0.31894(13)
C8 C 0.49172(18) -0.11888(14) 0.33853(13)
C9 C 0.39860(18) -0.07957(14) 0.37152(13)
C10 C 0.37616(19) 0.00362(14) 0.35587(14)
C11 C 0.29116(19) 0.05534(14) 0.38614(13)
C12 C 0.20510(18) 0.04983(14) 0.44870(13)
H3 H 0.1962 -0.0060 0.4693
C13 C 0.08527(19) 0.07271(15) 0.40611(14)
C14 C 0.0988(2) 0.15012(15) 0.37615(14)
C15 C 0.2280(2) 0.19594(14) 0.38907(14)
H4 H 0.2360 0.2497 0.3646
C16 C 0.30333(19) 0.13151(14) 0.35555(13)
C17 C 0.3982(2) 0.12665(14) 0.30188(13)
C18 C 0.4450(2) 0.18959(14) 0.25538(13)
C19 C 0.5374(2) 0.18995(14) 0.20656(13)
C20 C 0.6139(2) 0.12697(15) 0.18828(14)
C21 C 0.7124(2) 0.13250(15) 0.13889(15)
C22 C 0.7739(2) 0.19530(14) 0.08968(14)
H5 H 0.7359 0.2476 0.0877
C23 C 0.7746(2) 0.14786(16) 0.00439(15)
C24 C 0.8235(2) 0.07033(15) 0.00659(15)
C25 C 0.8657(2) 0.05270(15) 0.09352(15)
H6 H 0.8975 -0.0021 0.0948
C26 C 0.7594(2) 0.05686(16) 0.13899(15)
C27 C 0.6947(2) 0.00468(16) 0.18767(15)
C28 C 0.7051(2) -0.07908(15) 0.20711(15)
C29 C 0.7205(2) -0.40048(15) 0.31317(15)
H7 H 0.7813 -0.4000 0.2803
C30 C 0.7190(2) -0.45199(15) 0.37521(15)
H8 H 0.7764 -0.4891 0.3816
C31 C 0.6351(2) -0.44961(15) 0.42733(15)
H9 H 0.6391 -0.4817 0.4712
C32 C 0.5435(2) -0.39915(14) 0.41472(14)
H10 H 0.4851 -0.3984 0.4494
C33 C -0.0269(2) 0.02625(15) 0.40173(14)
H11 H -0.0354 -0.0269 0.4211
C34 C -0.1265(2) 0.05973(15) 0.36822(15)
H12 H -0.2024 0.0286 0.3645
C35 C -0.1146(2) 0.13840(16) 0.34042(15)
H13 H -0.1825 0.1612 0.3196
C36 C -0.0012(2) 0.18396(16) 0.34340(15)
H14 H 0.0076 0.2368 0.3235
C37 C 0.7298(2) 0.17322(15) -0.07074(15)
H15 H 0.6951 0.2235 -0.0724
C38 C 0.7378(2) 0.12294(17) -0.14133(15)
H16 H 0.7094 0.1407 -0.1910
C39 C 0.7874(2) 0.04482(16) -0.14250(16)
H17 H 0.7923 0.0118 -0.1915
C40 C 0.8288(2) 0.01945(18) -0.06674(16)
H18 H 0.8603 -0.0321 -0.0652
C41 C 0.4906(2) -0.32996(16) 0.18069(15)
H19 H 0.4930 -0.3873 0.1543
H20 H 0.4727 -0.2937 0.1384
C42 C 0.3916(2) -0.33211(17) 0.23708(15)
H21 H 0.3295 -0.2993 0.2168
H22 H 0.3550 -0.3908 0.2368
C43 C 0.25234(19) 0.12419(14) 0.51623(13)
H23 H 0.1966 0.1267 0.5560
H24 H 0.3291 0.1143 0.5443
C44 C 0.2675(2) 0.20811(15) 0.48182(14)
H25 H 0.3511 0.2334 0.4937
H26 H 0.2200 0.2472 0.5079
C45 C 0.9056(2) 0.21330(16) 0.13144(17)
H27 H 0.9515 0.2532 0.1028
H28 H 0.9092 0.2389 0.1876
C46 C 0.9594(2) 0.12884(16) 0.12984(16)
H29 H 1.0252 0.1316 0.0976
H30 H 0.9915 0.1209 0.1852
C47 C 0.32231(18) -0.13417(13) 0.41749(13)
C48 C 0.3748(2) -0.16294(15) 0.48935(14)
H31 H 0.4540 -0.1420 0.5111
C49 C 0.3107(2) -0.22096(15) 0.52715(15)
H32 H 0.3471 -0.2397 0.5743
C50 C 0.1907(2) -0.25329(15) 0.49674(15)
C51 C 0.1388(2) -0.22162(16) 0.42874(15)
H33 H 0.0581 -0.2404 0.4094
C52 C 0.20024(19) -0.16397(14) 0.38840(14)
H34 H 0.1621 -0.1445 0.3422
C53 C 0.3839(2) 0.26854(14) 0.26073(13)
C54 C 0.4283(2) 0.33738(14) 0.31965(15)
H35 H 0.5020 0.3374 0.3516
C55 C 0.3662(2) 0.40521(17) 0.33189(17)
H36 H 0.3979 0.4494 0.3733
C56 C 0.2558(2) 0.41077(16) 0.28410(16)
C57 C 0.2144(2) 0.34172(15) 0.22236(15)
H37 H 0.1433 0.3433 0.1879
C58 C 0.2752(2) 0.27124(16) 0.21066(14)
H38 H 0.2440 0.2262 0.1699
C59 C 0.5694(2) 0.27034(14) 0.17038(14)
C60 C 0.6603(2) 0.33529(15) 0.21162(15)
H39 H 0.6953 0.3299 0.2644
C61 C 0.6980(2) 0.40556(15) 0.17612(15)
H40 H 0.7590 0.4469 0.2041
C62 C 0.6447(2) 0.41546(14) 0.09713(14)
C63 C 0.5565(2) 0.35586(15) 0.05790(14)
H41 H 0.5205 0.3633 0.0060
C64 C 0.5171(2) 0.28295(16) 0.09239(15)
H42 H 0.4558 0.2426 0.0634
C65 C 0.7852(2) -0.13378(15) 0.16692(16)
C66 C 0.7679(2) -0.15808(16) 0.08222(15)
H43 H 0.7105 -0.1352 0.0489
C67 C 0.8350(2) -0.21572(16) 0.04748(15)
H44 H 0.8220 -0.2330 -0.0087
C68 C 0.9233(2) -0.24775(16) 0.09871(16)
C69 C 0.9447(2) -0.22185(15) 0.18241(15)
H45 H 1.0043 -0.2429 0.2155
C70 C 0.8770(2) -0.16480(16) 0.21572(16)
H46 H 0.8921 -0.1463 0.2716
C71 C 0.1272(2) -0.31881(16) 0.54058(15)
C72 C -0.0559(2) -0.40446(16) 0.55322(16)
H47 H -0.0634 -0.4609 0.5239
H48 H -0.1344 -0.3889 0.5575
H49 H -0.0128 -0.4038 0.6071
C73 C 0.1971(2) 0.48428(17) 0.30498(17)
C74 C 0.0342(2) 0.55822(16) 0.26819(16)
H50 H -0.0093 0.5482 0.3131
H51 H -0.0209 0.5658 0.2213
H52 H 0.0918 0.6089 0.2833
C75 C 0.6937(2) 0.49178(16) 0.06117(16)
C76 C 0.6913(2) 0.56009(16) -0.06184(17)
H53 H 0.6926 0.6142 -0.0293
H54 H 0.6411 0.5588 -0.1133
H55 H 0.7715 0.5527 -0.0715
C77 C 0.9890(2) -0.31432(17) 0.06042(18)
C78 C 1.1257(2) -0.41100(17) 0.06517(17)
H56 H 1.0866 -0.4653 0.0752
H57 H 1.2100 -0.4059 0.0852
H58 H 1.1150 -0.4071 0.0074
N1 N 0.57411(17) -0.06775(12) 0.30727(11)
H62 H 0.5853 -0.0126 0.3149
N2 N 0.43805(15) 0.04941(11) 0.30446(11)
N3 N 0.60649(18) 0.04901(12) 0.21416(12)
O1 O 0.17323(16) -0.34862(11) 0.59828(11)
O2 O 0.01150(16) -0.34135(11) 0.50793(10)
O3 O 0.22106(16) 0.53753(11) 0.36493(12)
O4 O 0.09789(16) 0.48322(11) 0.24777(11)
O5 O 0.76802(16) 0.54725(11) 0.09426(11)
O6 O 0.64276(15) 0.48926(11) -0.01732(11)
O7 O 0.96546(15) -0.34240(11) -0.01328(11)
O8 O 1.07185(16) -0.33991(11) 0.10875(11)
loop_
_geom_bond_atom_site_label_1
_geom_bond_atom_site_label_2
_geom_bond_site_symmetry_1
_geom_bond_site_symmetry_2
C1 C2 1_555 1_555
C2 C3 1_555 1_555
C3 H1 1_555 1_555
C4 C3 1_555 1_555
C5 C4 1_555 1_555
C6 C5 1_555 1_555
H2 C6 1_555 1_555
C7 C2 1_555 1_555
C8 C7 1_555 1_555
C9 C8 1_555 1_555
C10 C9 1_555 1_555
C11 C10 1_555 1_555
C12 C11 1_555 1_555
H3 C12 1_555 1_555
C13 C12 1_555 1_555
C14 C13 1_555 1_555
C15 C14 1_555 1_555
H4 C15 1_555 1_555
C16 C11 1_555 1_555
C17 C16 1_555 1_555
C18 C17 1_555 1_555
C19 C18 1_555 1_555
C20 C19 1_555 1_555
C21 C20 1_555 1_555
C22 C21 1_555 1_555
H5 C22 1_555 1_555
C23 C22 1_555 1_555
C24 C23 1_555 1_555
C25 C24 1_555 1_555
H6 C25 1_555 1_555
C26 C21 1_555 1_555
C27 C26 1_555 1_555
C28 C1 1_555 1_555
C29 C4 1_555 1_555
H7 C29 1_555 1_555
C30 C29 1_555 1_555
H8 C30 1_555 1_555
C31 C30 1_555 1_555
H9 C31 1_555 1_555
C32 C5 1_555 1_555
H10 C32 1_555 1_555
C33 C13 1_555 1_555
H11 C33 1_555 1_555
C34 C33 1_555 1_555
H12 C34 1_555 1_555
C35 C34 1_555 1_555
H13 C35 1_555 1_555
C36 C14 1_555 1_555
H14 C36 1_555 1_555
C37 C23 1_555 1_555
H15 C37 1_555 1_555
C38 C37 1_555 1_555
H16 C38 1_555 1_555
C39 C38 1_555 1_555
H17 C39 1_555 1_555
C40 C24 1_555 1_555
H18 C40 1_555 1_555
C41 C3 1_555 1_555
H19 C41 1_555 1_555
H20 C41 1_555 1_555
C42 C6 1_555 1_555
H21 C42 1_555 1_555
H22 C42 1_555 1_555
C43 C12 1_555 1_555
H23 C43 1_555 1_555
H24 C43 1_555 1_555
C44 C15 1_555 1_555
H25 C44 1_555 1_555
H26 C44 1_555 1_555
C45 C22 1_555 1_555
H27 C45 1_555 1_555
H28 C45 1_555 1_555
C46 C25 1_555 1_555
H29 C46 1_555 1_555
H30 C46 1_555 1_555
C47 C9 1_555 1_555
C48 C47 1_555 1_555
H31 C48 1_555 1_555
C49 C48 1_555 1_555
H32 C49 1_555 1_555
C50 C49 1_555 1_555
C51 C50 1_555 1_555
H33 C51 1_555 1_555
C52 C47 1_555 1_555
H34 C52 1_555 1_555
C53 C18 1_555 1_555
C54 C53 1_555 1_555
H35 C54 1_555 1_555
C55 C54 1_555 1_555
H36 C55 1_555 1_555
C56 C55 1_555 1_555
C57 C56 1_555 1_555
H37 C57 1_555 1_555
C58 C53 1_555 1_555
H38 C58 1_555 1_555
C59 C19 1_555 1_555
C60 C59 1_555 1_555
H39 C60 1_555 1_555
C61 C60 1_555 1_555
H40 C61 1_555 1_555
C62 C61 1_555 1_555
C63 C62 1_555 1_555
H41 C63 1_555 1_555
C64 C59 1_555 1_555
H42 C64 1_555 1_555
C65 C28 1_555 1_555
C66 C65 1_555 1_555
H43 C66 1_555 1_555
C67 C66 1_555 1_555
H44 C67 1_555 1_555
C68 C67 1_555 1_555
C69 C68 1_555 1_555
H45 C69 1_555 1_555
C70 C65 1_555 1_555
H46 C70 1_555 1_555
C71 C50 1_555 1_555
C72 H47 1_555 1_555
H48 C72 1_555 1_555
H49 C72 1_555 1_555
C73 C56 1_555 1_555
C74 H50 1_555 1_555
H51 C74 1_555 1_555
H52 C74 1_555 1_555
C75 C62 1_555 1_555
C76 H53 1_555 1_555
H54 C76 1_555 1_555
H55 C76 1_555 1_555
C77 C68 1_555 1_555
C78 H56 1_555 1_555
H57 C78 1_555 1_555
H58 C78 1_555 1_555
C79 H59 1_555 1_555
H60 C79 1_555 1_555
H61 C79 1_555 1_555
N1 C1 1_555 1_555
H62 N1 1_555 1_555
N2 C10 1_555 1_555
N3 C20 1_555 1_555
O1 C71 1_555 1_555
O2 C71 1_555 1_555
O3 C73 1_555 1_555
O4 C73 1_555 1_555
O5 C75 1_555 1_555
O6 C75 1_555 1_555
O7 C77 1_555 1_555
O8 C77 1_555 1_555
O9 C79 1_555 1_555
H63 O9 1_555 1_555
H59A C79 1_555 1_555
H60A C79 1_555 1_555
H61A C79 1_555 1_555
O9A C79 1_555 1_555
H63A O9A 1_555 1_555
C6 C7 1_555 1_555
C8 N1 1_555 1_555
C15 C16 1_555 1_555
C17 N2 1_555 1_555
C25 C26 1_555 1_555
C27 C28 1_555 1_555
C27 N3 1_555 1_555
C31 C32 1_555 1_555
C35 C36 1_555 1_555
C39 C40 1_555 1_555
C41 C42 1_555 1_555
C43 C44 1_555 1_555
C45 C46 1_555 1_555
C51 C52 1_555 1_555
C57 C58 1_555 1_555
C63 C64 1_555 1_555
C69 C70 1_555 1_555
C72 O2 1_555 1_555
C74 O4 1_555 1_555
C76 O6 1_555 1_555
C78 O8 1_555 1_555
H60 O9A 1_555 1_555
H61 O9A 1_555 1_555
O9 H60A 1_555 1_555
O9 H61A 1_555 1_555

#END
