
#######################################################################
#
#                 Cambridge Crystallographic Data Centre
#                                CCDC 
#
#######################################################################
#
# If this CIF has been generated from an entry in the Cambridge 
# Structural Database, then it will include bibliographic, chemical, 
# crystal, experimental, refinement or atomic coordinate data resulting 
# from the CCDC's data processing and validation procedures.
#
#######################################################################

data_UVIYIJ02
_chemical_formula_moiety         'C18 H11 I1 N2 O1'
_chemical_name_systematic        
(1-iodoimidazo[1,5-a]pyridin-3-yl)(2-naphthyl)methanone
_symmetry_cell_setting           triclinic
_symmetry_space_group_name_H-M   'P -1'
_symmetry_Int_Tables_number      2
_space_group_name_Hall           '-P 1'
loop_
_symmetry_equiv_pos_site_id
_symmetry_equiv_pos_as_xyz
1 x,y,z
2 -x,-y,-z
_cell_length_a                   7.504(11)
_cell_length_b                   8.467(12)
_cell_length_c                   13.179(18)
_cell_angle_alpha                95.607(18)
_cell_angle_beta                 102.60(2)
_cell_angle_gamma                110.95(2)
_cell_volume                     748.843
_exptl_crystal_description       block
_cell_formula_units_Z            2
loop_
_atom_site_label
_atom_site_type_symbol
_atom_site_fract_x
_atom_site_fract_y
_atom_site_fract_z
C1 C 0.7614(5) 0.7023(5) 1.3320(3)
H1 H 0.7347 0.6017 1.3594
C2 C 0.7861(6) 0.8526(5) 1.3940(3)
H2 H 0.7774 0.8534 1.4633
C3 C 0.8247(5) 1.0056(5) 1.3534(3)
H3 H 0.8396 1.1063 1.3959
C4 C 0.8404(5) 1.0075(5) 1.2517(3)
H4 H 0.8671 1.1096 1.2261
C5 C 0.8161(4) 0.8536(4) 1.1851(2)
C6 C 0.7764(4) 0.6991(4) 1.2260(2)
C7 C 0.7522(4) 0.5466(4) 1.1592(2)
H5 H 0.7281 0.4456 1.1861
C8 C 0.7631(4) 0.5428(4) 1.0555(2)
C9 C 0.8063(5) 0.6998(4) 1.0159(2)
H6 H 0.8165 0.7004 0.9469
C10 C 0.8328(5) 0.8499(4) 1.0792(3)
H7 H 0.8622 0.9511 1.0525
C11 C 0.7262(4) 0.3689(4) 0.9941(2)
C12 C 0.7257(4) 0.3432(3) 0.8813(2)
C13 C 0.7565(4) 0.3817(4) 0.7262(2)
C14 C 0.7090(4) 0.2051(4) 0.7226(2)
C15 C 0.6824(5) 0.0638(4) 0.6457(3)
H8 H 0.6956 0.0791 0.5784
C16 C 0.6373(5) -0.0948(4) 0.6718(3)
H9 H 0.6207 -0.1888 0.6225
C17 C 0.6155(5) -0.1162(4) 0.7744(3)
H10 H 0.5849 -0.2251 0.7915
C18 C 0.6381(5) 0.0179(4) 0.8481(3)
H11 H 0.6198 0.0007 0.9144
I1 I 0.80613(4) 0.50135(3) 0.598621(16)
N1 N 0.7652(3) 0.4631(3) 0.82056(19)
N2 N 0.6889(3) 0.1815(3) 0.82357(18)
O1 O 0.6967(5) 0.2441(3) 1.0383(2)
loop_
_geom_bond_atom_site_label_1
_geom_bond_atom_site_label_2
_geom_bond_site_symmetry_1
_geom_bond_site_symmetry_2
C1 H1 1_555 1_555
C2 C1 1_555 1_555
H2 C2 1_555 1_555
C3 C2 1_555 1_555
H3 C3 1_555 1_555
C4 C3 1_555 1_555
H4 C4 1_555 1_555
C5 C4 1_555 1_555
C6 C1 1_555 1_555
C7 C6 1_555 1_555
H5 C7 1_555 1_555
C8 C7 1_555 1_555
C9 C8 1_555 1_555
H6 C9 1_555 1_555
C10 C5 1_555 1_555
H7 C10 1_555 1_555
C11 C8 1_555 1_555
C12 C11 1_555 1_555
C13 C14 1_555 1_555
C14 C15 1_555 1_555
C15 H8 1_555 1_555
C16 C15 1_555 1_555
H9 C16 1_555 1_555
C17 C16 1_555 1_555
H10 C17 1_555 1_555
C18 C17 1_555 1_555
H11 C18 1_555 1_555
I1 C13 1_555 1_555
N1 C12 1_555 1_555
N2 C12 1_555 1_555
O1 C11 1_555 1_555
C5 C6 1_555 1_555
C9 C10 1_555 1_555
C13 N1 1_555 1_555
C14 N2 1_555 1_555
C18 N2 1_555 1_555

#END
