
#######################################################################
#
#                 Cambridge Crystallographic Data Centre
#                                CCDC 
#
#######################################################################
#
# If this CIF has been generated from an entry in the Cambridge 
# Structural Database, then it will include bibliographic, chemical, 
# crystal, experimental, refinement or atomic coordinate data resulting 
# from the CCDC's data processing and validation procedures.
#
#######################################################################

data_UVIZEG01
_chemical_formula_moiety         'C4 H2 N6 O4,2(H2 O1)'
_chemical_name_systematic        
'3,6-dinitro-1,4-dihydropyrazolo[4,3-c]pyrazole dihydrate'
_symmetry_cell_setting           monoclinic
_symmetry_space_group_name_H-M   'P 21/c'
_symmetry_Int_Tables_number      14
_space_group_name_Hall           '-P 2ybc'
loop_
_symmetry_equiv_pos_site_id
_symmetry_equiv_pos_as_xyz
1 x,y,z
2 -x,1/2+y,1/2-z
3 -x,-y,-z
4 x,1/2-y,1/2+z
_cell_length_a                   3.480(4)
_cell_length_b                   14.134(16)
_cell_length_c                   9.027(11)
_cell_angle_alpha                90
_cell_angle_beta                 94.327(16)
_cell_angle_gamma                90
_cell_volume                     442.739
_cell_formula_units_Z            2
loop_
_atom_site_label
_atom_site_type_symbol
_atom_site_fract_x
_atom_site_fract_y
_atom_site_fract_z
N1 N 0.4041(5) 0.60453(12) 0.20890(17)
N2 N 0.6621(4) 0.64073(12) 0.45412(16)
N3 N 0.7056(4) 0.59774(11) 0.58635(16)
H1 H 0.8043 0.6230 0.6672
C1 C 0.4979(5) 0.57836(13) 0.35789(19)
C2 C 0.4303(5) 0.49185(12) 0.42717(18)
O1 O 0.2291(5) 0.54615(11) 0.12870(16)
O2 O 0.4942(6) 0.68316(12) 0.16555(17)
N1B N 0.5959(5) 0.39547(12) 0.79110(17)
N2B N 0.3379(4) 0.35927(12) 0.54588(16)
N3B N 0.2944(4) 0.40226(11) 0.41365(16)
H1B H 0.1957 0.3770 0.3328
C1B C 0.5021(5) 0.42164(13) 0.64211(19)
C2B C 0.5697(5) 0.50815(12) 0.57283(18)
O1B O 0.7709(5) 0.45385(11) 0.87130(16)
O2B O 0.5058(6) 0.31684(12) 0.83445(17)
O3 O 0.0437(7) 0.32830(15) 0.13750(19)
H2 H 0.119(11) 0.263(3) 0.100(4)
H3 H -0.017(12) 0.373(3) 0.060(4)
loop_
_geom_bond_atom_site_label_1
_geom_bond_atom_site_label_2
_geom_bond_site_symmetry_1
_geom_bond_site_symmetry_2
N1 C1 1_555 1_555
N2 N3 1_555 1_555
N3 H1 1_555 1_555
C1 N2 1_555 1_555
C2 C1 1_555 1_555
O1 N1 1_555 1_555
O2 N1 1_555 1_555
O3 H2 1_555 1_555
H3 O3 1_555 1_555
N1B C1B 1_555 1_555
N2B N3B 1_555 1_555
N3B C2 1_555 1_555
H1B N3B 1_555 1_555
C1B N2B 1_555 1_555
C2B N3 1_555 1_555
O1B N1B 1_555 1_555
O2B N1B 1_555 1_555
C2 C2B 1_555 1_555
C1B C2B 1_555 1_555

#END
