
#######################################################################
#
#                 Cambridge Crystallographic Data Centre
#                                CCDC 
#
#######################################################################
#
# If this CIF has been generated from an entry in the Cambridge 
# Structural Database, then it will include bibliographic, chemical, 
# crystal, experimental, refinement or atomic coordinate data resulting 
# from the CCDC's data processing and validation procedures.
#
#######################################################################

data_UVIZEF
_chemical_formula_moiety         '2(C15 H17 N2 O2 1+),C8 H4 O4 2-'
_chemical_name_systematic        
'bis(4-Methoxy-N-(((4-methoxyphenyl)amino)methylene)anilinium) terephthalate'
_symmetry_cell_setting           triclinic
_symmetry_space_group_name_H-M   'P -1'
_symmetry_Int_Tables_number      2
_space_group_name_Hall           '-P 1'
loop_
_symmetry_equiv_pos_site_id
_symmetry_equiv_pos_as_xyz
1 x,y,z
2 -x,-y,-z
_cell_length_a                   7.6681(6)
_cell_length_b                   11.3886(9)
_cell_length_c                   11.4154(9)
_cell_angle_alpha                117.9070(10)
_cell_angle_beta                 101.2420(10)
_cell_angle_gamma                96.198(2)
_cell_volume                     840.929
_exptl_crystal_colour            colorless
_exptl_crystal_description       block
_cell_formula_units_Z            1
loop_
_atom_site_label
_atom_site_type_symbol
_atom_site_fract_x
_atom_site_fract_y
_atom_site_fract_z
N1 N 0.53669(18) 0.25895(14) 0.39534(15)
H1 H 0.538(3) 0.275(2) 0.487(2)
N2 N 0.71976(17) 0.47127(14) 0.48996(15)
H2 H 0.695(3) 0.491(2) 0.573(2)
O3 O 0.117(13) -0.244(4) -0.0362(16)
O4 O 1.15919(17) 0.90609(12) 0.50897(13)
C5 C 0.6350(2) 0.35187(16) 0.38244(17)
H5 H 0.6448 0.3321 0.2937
C6 C 0.4201(3) 0.1326(3) 0.2881(3)
C7 C 0.3488(3) 0.1127(3) 0.1573(2)
H6 H 0.3759 0.1848 0.1389
C8 C 0.2381(3) -0.0121(2) 0.0535(2)
H7 H 0.1892 -0.0257 -0.0362
C9 C 0.1987(3) -0.1171(3) 0.0804(3)
C10 C 0.2699(4) -0.0972(3) 0.2111(3)
H8 H 0.2429 -0.1692 0.2296
C11 C 0.3807(4) 0.0277(3) 0.3150(4)
H9 H 0.4296 0.0413 0.4047
C12 C 0.0397(3) -0.3463(2) -0.0135(2)
H10 H -0.0271 -0.4272 -0.1023
H11 H -0.0445 -0.3129 0.0428
H12 H 0.1369 -0.3703 0.0349
C13 C 0.8327(2) 0.57877(16) 0.49076(16)
C14 C 0.9037(2) 0.69847(17) 0.61605(17)
H13 H 0.8778 0.7041 0.6964
C15 C 1.0120(2) 0.81038(17) 0.62636(18)
H14 H 1.0577 0.8926 0.7128
C16 C 1.0533(2) 0.80190(17) 0.51016(17)
C17 C 0.9849(2) 0.68089(17) 0.38487(18)
H15 H 1.0139 0.6743 0.3051
C18 C 0.8754(2) 0.57001(17) 0.37431(17)
H16 H 0.8294 0.4879 0.2878
C19 C 1.2109(3) 1.03644(18) 0.6322(2)
H17 H 1.2777 1.1037 0.6165
H18 H 1.2892 1.0305 0.7071
H19 H 1.1011 1.0646 0.6575
O1 O 0.55296(18) 0.30994(12) 0.65225(12)
O2 O 0.63080(16) 0.53233(12) 0.72328(12)
C1 C 0.4811(2) 0.36567(18) 0.90156(18)
H3 H 0.473(2) 0.271(2) 0.833(2)
C2 C 0.5359(2) 0.46817(16) 0.87463(16)
C3 C 0.5545(2) 0.60275(18) 0.97404(18)
H4 H 0.591(2) 0.6705(19) 0.9538(19)
C4 C 0.5758(2) 0.43346(18) 0.73918(17)
O1A O 0.44704(18) 0.69006(12) 1.34775(12)
O2A O 0.36920(16) 0.46767(12) 1.27672(12)
C1A C 0.5189(2) 0.63433(18) 1.09844(18)
H3A H 0.527(2) 0.729(2) 1.167(2)
C2A C 0.4641(2) 0.53183(16) 1.12537(16)
C3A C 0.4455(2) 0.39725(18) 1.02596(18)
H4A H 0.409(2) 0.3295(19) 1.0462(19)
C4A C 0.4242(2) 0.56654(18) 1.26082(17)
C20? C 0.2570(5) -0.0924(4) 0.2049(4)
C21? C 0.3572(5) 0.0363(4) 0.3104(4)
C22? C 0.0397(3) -0.3463(2) -0.0135(2)
C23? C 0.4376(4) 0.1292(4) 0.2788(4)
C24? C 0.4178(4) 0.0935(3) 0.1418(3)
C25? C 0.3176(4) -0.0352(3) 0.0364(3)
C26? C 0.2372(4) -0.1281(3) 0.0679(3)
H20? H 0.2021 -0.1559 0.2265
H21? H 0.3708 0.0607 0.4040
H22? H -0.0266 -0.4288 -0.1011
H23? H -0.0446 -0.3119 0.0424
H24? H 0.1379 -0.3680 0.0366
H25? H 0.4727 0.1570 0.1203
H26? H 0.3040 -0.0596 -0.0573
O5? O 0.115(15) -0.246(5) -0.0399(19)
loop_
_geom_bond_atom_site_label_1
_geom_bond_atom_site_label_2
_geom_bond_site_symmetry_1
_geom_bond_site_symmetry_2
N1 H1 1_555 1_555
N2 H2 1_555 1_555
O1 C4 1_555 1_555
O2 C4 1_555 1_555
O3 C9 1_555 1_555
O4 C16 1_555 1_555
C1 H3 1_555 1_555
C2 C1 1_555 1_555
C3 C2 1_555 1_555
H4 C3 1_555 1_555
C4 C2 1_555 1_555
C5 N1 1_555 1_555
H5 C5 1_555 1_555
C6 N1 1_555 1_555
C7 C6 1_555 1_555
H6 C7 1_555 1_555
C8 C7 1_555 1_555
H7 C8 1_555 1_555
C9 C8 1_555 1_555
C10 C9 1_555 1_555
H8 C10 1_555 1_555
C11 C6 1_555 1_555
H9 C11 1_555 1_555
C12 O3 1_555 1_555
H10 C12 1_555 1_555
H11 C12 1_555 1_555
H12 C12 1_555 1_555
C13 N2 1_555 1_555
C14 C13 1_555 1_555
H13 C14 1_555 1_555
C15 C14 1_555 1_555
H14 C15 1_555 1_555
C16 C15 1_555 1_555
C17 C16 1_555 1_555
H15 C17 1_555 1_555
C18 C13 1_555 1_555
H16 C18 1_555 1_555
C19 O4 1_555 1_555
H17 C19 1_555 1_555
H18 C19 1_555 1_555
H19 C19 1_555 1_555
O1A C4A 1_555 1_555
O2A C4A 1_555 1_555
C1A C3 1_555 1_555
H3A C1A 1_555 1_555
C2A C1A 1_555 1_555
C3A C1 1_555 1_555
H4A C3A 1_555 1_555
C4A C2A 1_555 1_555
N2 C5 1_555 1_555
C10 C11 1_555 1_555
C17 C18 1_555 1_555
C2A C3A 1_555 1_555

#END
