
#######################################################################
#
#                 Cambridge Crystallographic Data Centre
#                                CCDC 
#
#######################################################################
#
# If this CIF has been generated from an entry in the Cambridge 
# Structural Database, then it will include bibliographic, chemical, 
# crystal, experimental, refinement or atomic coordinate data resulting 
# from the CCDC's data processing and validation procedures.
#
#######################################################################

data_UVOCIT
_chemical_formula_moiety         'C11 H10 Cl4 O3'
_chemical_name_systematic        
'methyl 3,4-dichloro-4-(3,4-dichlorophenyl)-2-hydroxybutanoate'
_symmetry_cell_setting           triclinic
_symmetry_space_group_name_H-M   'P -1'
_symmetry_Int_Tables_number      2
_space_group_name_Hall           '-P 1'
loop_
_symmetry_equiv_pos_site_id
_symmetry_equiv_pos_as_xyz
1 x,y,z
2 -x,-y,-z
_cell_length_a                   6.5579(7)
_cell_length_b                   7.6349(6)
_cell_length_c                   15.6331(14)
_cell_angle_alpha                84.549(7)
_cell_angle_beta                 86.322(8)
_cell_angle_gamma                78.859(8)
_cell_volume                     763.668
_exptl_crystal_colour            colorless
_exptl_crystal_description       block
_cell_formula_units_Z            2
loop_
_atom_site_label
_atom_site_type_symbol
_atom_site_fract_x
_atom_site_fract_y
_atom_site_fract_z
Cl1 Cl 0.2314(7) 0.1368(7) 0.5737(2)
Cl2 Cl -0.2287(6) 0.3483(6) 0.5715(2)
Cl3 Cl 0.2946(7) -0.0632(5) 0.2321(3)
Cl4 Cl 0.3958(6) 0.4790(4) 0.2292(2)
O1 O 0.4185(16) 0.2516(14) 0.0724(7)
O2 O 0.667(2) -0.0773(17) 0.0700(9)
O3 O 0.7738(16) -0.0646(11) 0.1966(6)
C1 C 0.116(2) 0.2071(19) 0.4795(8)
C2 C -0.0849(19) 0.2979(16) 0.4785(8)
C3 C -0.1769(17) 0.359(2) 0.4004(9)
H1 H -0.3114 0.4253 0.3995
C4 C -0.066(2) 0.318(2) 0.3246(9)
H2 H -0.1280 0.3554 0.2726
C5 C 0.135(2) 0.224(2) 0.3243(10)
C6 C 0.227(2) 0.168(2) 0.4027(10)
H3 H 0.3628 0.1039 0.4036
C7 C 0.242(2) 0.172(2) 0.2403(11)
H4 H 0.1486 0.2267 0.1946
C8 C 0.4561(19) 0.2415(18) 0.2206(8)
H5 H 0.5503 0.1876 0.2661
C9 C 0.571(2) 0.2037(17) 0.1338(7)
C10 C 0.6652(18) 0.0057(17) 0.1276(7)
C11 C 0.873(3) -0.248(2) 0.1997(13)
H6 H 0.9719 -0.2663 0.1518
H7 H 0.7703 -0.3215 0.1967
H8 H 0.9433 -0.2809 0.2524
loop_
_geom_bond_atom_site_label_1
_geom_bond_atom_site_label_2
_geom_bond_site_symmetry_1
_geom_bond_site_symmetry_2
Cl1 C1 1_555 1_555
Cl2 C2 1_555 1_555
Cl3 C7 1_555 1_555
Cl4 C8 1_555 1_555
O1 C9 1_555 1_555
O2 C10 1_555 1_555
O3 C10 1_555 1_555
C1 C2 1_555 1_555
C2 C3 1_555 1_555
C3 H1 1_555 1_555
C4 C3 1_555 1_555
H2 C4 1_555 1_555
C5 C4 1_555 1_555
C6 C1 1_555 1_555
H3 C6 1_555 1_555
C7 C5 1_555 1_555
H4 C7 1_555 1_555
C8 C7 1_555 1_555
H5 C8 1_555 1_555
C9 C8 1_555 1_555
C10 C9 1_555 1_555
C11 O3 1_555 1_555
H6 C11 1_555 1_555
H7 C11 1_555 1_555
H8 C11 1_555 1_555
C5 C6 1_555 1_555

#END
