
#######################################################################
#
#                 Cambridge Crystallographic Data Centre
#                                CCDC 
#
#######################################################################
#
# If this CIF has been generated from an entry in the Cambridge 
# Structural Database, then it will include bibliographic, chemical, 
# crystal, experimental, refinement or atomic coordinate data resulting 
# from the CCDC's data processing and validation procedures.
#
#######################################################################

data_UVODAM
_chemical_formula_moiety         'C29 H38 P1 1+,F6 P1 1-'
_chemical_name_systematic        
'tributyl(pyren-1-ylmethyl)phosphonium hexafluorophosphate'
_symmetry_cell_setting           triclinic
_symmetry_space_group_name_H-M   'P -1'
_symmetry_Int_Tables_number      2
_space_group_name_Hall           '-P 1'
loop_
_symmetry_equiv_pos_site_id
_symmetry_equiv_pos_as_xyz
1 x,y,z
2 -x,-y,-z
_cell_length_a                   10.7112(6)
_cell_length_b                   11.0294(6)
_cell_length_c                   13.6960(5)
_cell_angle_alpha                107.945(4)
_cell_angle_beta                 96.334(4)
_cell_angle_gamma                107.336(5)
_cell_volume                     1432.52
_exptl_crystal_colour            colorless
_cell_formula_units_Z            2
loop_
_atom_site_label
_atom_site_type_symbol
_atom_site_fract_x
_atom_site_fract_y
_atom_site_fract_z
P1 P 0.72892(7) 0.13420(7) 0.27518(5)
C1 C 0.9514(3) 0.1420(3) 0.5082(2)
C2 C 0.8480(3) 0.0598(3) 0.3122(2)
H1 H 0.7987 -0.0221 0.3237
H2 H 0.8889 0.0325 0.2533
C3 C 1.0627(3) 0.2231(3) 0.5947(2)
C4 C 0.9591(3) 0.1493(3) 0.4091(2)
C5 C 0.8150(3) 0.2882(3) 0.2552(2)
H3 H 0.7512 0.3325 0.2458
H4 H 0.8828 0.3486 0.3186
C6 C 1.0594(3) 0.2166(3) 0.6968(2)
C7 C 0.6137(3) 0.0096(3) 0.1564(2)
H5 H 0.5563 0.0509 0.1296
H6 H 0.6644 -0.0162 0.1041
C8 C 1.1807(3) 0.3112(3) 0.5797(2)
C9 C 0.6331(3) 0.1707(3) 0.3733(2)
H7 H 0.5505 0.1743 0.3395
H8 H 0.6087 0.0950 0.3978
C10 C 0.9431(3) 0.1285(3) 0.7131(2)
C11 C 0.8349(3) 0.0530(3) 0.5291(2)
H9 H 0.7606 -0.0017 0.4743
C12 C 1.1720(3) 0.2940(3) 0.7821(2)
C13 C 1.0774(3) 0.2349(3) 0.3968(2)
H10 H 1.0835 0.2382 0.3304
C14 C 1.1839(3) 0.3135(3) 0.4796(3)
H11 H 1.2604 0.3700 0.4686
C15 C 0.6989(4) 0.3001(3) 0.4685(2)
H12 H 0.7339 0.3760 0.4455
H13 H 0.7736 0.2924 0.5100
C16 C 0.5991(4) 0.3279(4) 0.5370(3)
H14 H 0.6413 0.4171 0.5919
H15 H 0.5220 0.3298 0.4938
C17 C 0.8325(3) 0.0482(3) 0.6251(2)
H16 H 0.7559 -0.0096 0.6351
C18 C 0.9439(4) 0.1217(4) 0.8138(3)
H17 H 0.8677 0.0663 0.8261
C19 C 1.2919(3) 0.3898(3) 0.6674(3)
H18 H 1.3687 0.4480 0.6580
C20 C 1.2886(4) 0.3821(3) 0.7623(3)
H19 H 1.3633 0.4347 0.8172
C21 C 1.1665(5) 0.2803(4) 0.8798(3)
H20 H 1.2404 0.3303 0.9358
C22 C 0.5520(5) 0.2250(4) 0.5866(3)
H21 H 0.4977 0.1392 0.5332
H22 H 0.4998 0.2543 0.6355
H23 H 0.6280 0.2152 0.6232
C23 C 1.0551(5) 0.1954(4) 0.8943(3)
H24 H 1.0543 0.1871 0.9598
C24 C 0.8832(3) 0.2712(3) 0.1612(3)
H25 H 0.9479 0.2275 0.1697
H26 H 0.8163 0.2129 0.0969
C25 C 0.5261(4) -0.1179(3) 0.1696(3)
H27 H 0.5832 -0.1647 0.1884
H28 H 0.4842 -0.0909 0.2280
C26 C 0.3351(6) -0.3383(5) 0.0885(4)
H29 H 0.2962 -0.4094 0.0207
H30 H 0.2651 -0.3198 0.1217
H31 H 0.3889 -0.3666 0.1314
C27 C 0.4191(4) -0.2154(4) 0.0757(3)
H32 H 0.3618 -0.1687 0.0571
H33 H 0.4609 -0.2421 0.0172
C28 C 0.9547(5) 0.4091(5) 0.1522(4)
H34 H 0.9868 0.3931 0.0876
H35 H 0.8900 0.4538 0.1472
C29 C 1.0682(5) 0.5009(5) 0.2405(5)
H36 H 1.0353 0.5334 0.3022
H37 H 1.1179 0.5767 0.2233
H38 H 1.1256 0.4528 0.2537
P2 P 0.34678(8) 0.24738(9) 0.17696(6)
F1 F 0.5040(2) 0.2806(2) 0.19139(19)
F2 F 0.1903(2) 0.2109(3) 0.1630(2)
F3 F 0.3390(4) 0.1400(5) 0.2355(5)
F4 F 0.3186(5) 0.1262(5) 0.0707(4)
F5 F 0.3589(5) 0.3543(7) 0.1242(6)
F6 F 0.3756(5) 0.3596(5) 0.2878(4)
F7? F 0.3310(14) 0.1080(18) 0.1297(11)
F8? F 0.3430(14) 0.2196(15) 0.2717(15)
F9? F 0.3682(14) 0.3960(17) 0.2249(13)
F10? F 0.3423(14) 0.2613(18) 0.0721(16)
loop_
_geom_bond_atom_site_label_1
_geom_bond_atom_site_label_2
_geom_bond_site_symmetry_1
_geom_bond_site_symmetry_2
P1 C2 1_555 1_555
C1 C3 1_555 1_555
C2 H1 1_555 1_555
H2 C2 1_555 1_555
C3 C6 1_555 1_555
C4 C1 1_555 1_555
C5 P1 1_555 1_555
H3 C5 1_555 1_555
H4 C5 1_555 1_555
C6 C10 1_555 1_555
C7 P1 1_555 1_555
H5 C7 1_555 1_555
H6 C7 1_555 1_555
C8 C3 1_555 1_555
C9 P1 1_555 1_555
H7 C9 1_555 1_555
H8 C9 1_555 1_555
C10 C17 1_555 1_555
C11 C1 1_555 1_555
H9 C11 1_555 1_555
C12 C6 1_555 1_555
C13 C4 1_555 1_555
H10 C13 1_555 1_555
C14 C8 1_555 1_555
H11 C14 1_555 1_555
C15 C9 1_555 1_555
H12 C15 1_555 1_555
H13 C15 1_555 1_555
C16 C15 1_555 1_555
H14 C16 1_555 1_555
H15 C16 1_555 1_555
C17 C11 1_555 1_555
H16 C17 1_555 1_555
C18 C10 1_555 1_555
H17 C18 1_555 1_555
C19 C8 1_555 1_555
H18 C19 1_555 1_555
C20 C12 1_555 1_555
H19 C20 1_555 1_555
C21 C12 1_555 1_555
H20 C21 1_555 1_555
C22 C16 1_555 1_555
H21 C22 1_555 1_555
H22 C22 1_555 1_555
H23 C22 1_555 1_555
C23 C18 1_555 1_555
H24 C23 1_555 1_555
C24 C5 1_555 1_555
H25 C24 1_555 1_555
H26 C24 1_555 1_555
C25 C7 1_555 1_555
H27 C25 1_555 1_555
H28 C25 1_555 1_555
C26 H29 1_555 1_555
H30 C26 1_555 1_555
H31 C26 1_555 1_555
C27 C25 1_555 1_555
H32 C27 1_555 1_555
H33 C27 1_555 1_555
C28 C24 1_555 1_555
H34 C28 1_555 1_555
H35 C28 1_555 1_555
C29 C28 1_555 1_555
H36 C29 1_555 1_555
H37 C29 1_555 1_555
H38 C29 1_555 1_555
P2 F1 1_555 1_555
F2 P2 1_555 1_555
F3 P2 1_555 1_555
F4 P2 1_555 1_555
F5 P2 1_555 1_555
F6 P2 1_555 1_555
C2 C4 1_555 1_555
C13 C14 1_555 1_555
C19 C20 1_555 1_555
C21 C23 1_555 1_555
C26 C27 1_555 1_555

#END
