
#######################################################################
#
#                 Cambridge Crystallographic Data Centre
#                                CCDC 
#
#######################################################################
#
# If this CIF has been generated from an entry in the Cambridge 
# Structural Database, then it will include bibliographic, chemical, 
# crystal, experimental, refinement or atomic coordinate data resulting 
# from the CCDC's data processing and validation procedures.
#
#######################################################################

data_UVOFOC02
_chemical_formula_moiety         'C27 H20 O2 S1'
_chemical_name_systematic        
'4-methylphenyl 10-phenyl-9-phenanthryl sulfone'
_symmetry_cell_setting           monoclinic
_symmetry_space_group_name_H-M   'P 21/c'
_symmetry_Int_Tables_number      14
_space_group_name_Hall           '-P 2ybc'
loop_
_symmetry_equiv_pos_site_id
_symmetry_equiv_pos_as_xyz
1 x,y,z
2 -x,1/2+y,1/2-z
3 -x,-y,-z
4 x,1/2-y,1/2+z
_cell_length_a                   7.0521(6)
_cell_length_b                   28.030(2)
_cell_length_c                   10.4649(8)
_cell_angle_alpha                90
_cell_angle_beta                 100.0690(10)
_cell_angle_gamma                90
_cell_volume                     2036.74
_exptl_crystal_colour            white
_exptl_crystal_description       block
_cell_formula_units_Z            4
loop_
_atom_site_label
_atom_site_type_symbol
_atom_site_fract_x
_atom_site_fract_y
_atom_site_fract_z
S1 S 0.39200(16) 0.35209(4) 0.10860(9)
O1 O 0.4052(4) 0.32664(10) 0.2291(2)
O2 O 0.5668(4) 0.35588(10) 0.0549(2)
C1 C 0.3065(5) 0.41128(12) 0.1247(3)
C2 C 0.2644(5) 0.42642(13) 0.2415(3)
C3 C 0.2306(5) 0.47662(13) 0.2599(3)
C4 C 0.2009(6) 0.49395(15) 0.3821(3)
H1 H 0.2016 0.4727 0.4505
C5 C 0.1711(6) 0.54130(15) 0.4005(4)
H2 H 0.1500 0.5521 0.4809
C6 C 0.1722(6) 0.57336(15) 0.3002(4)
H3 H 0.1524 0.6056 0.3136
C7 C 0.2021(6) 0.55783(14) 0.1818(4)
H4 H 0.2033 0.5798 0.1153
C8 C 0.2310(5) 0.50930(13) 0.1585(3)
C9 C 0.2560(5) 0.49215(13) 0.0317(3)
C10 C 0.2976(5) 0.44339(13) 0.0149(3)
C11 C 0.3214(5) 0.42807(14) -0.1098(3)
H5 H 0.3472 0.3961 -0.1233
C12 C 0.3072(5) 0.45936(16) -0.2110(3)
H6 H 0.3236 0.4484 -0.2922
C13 C 0.2688(5) 0.50729(15) -0.1946(3)
H7 H 0.2594 0.5283 -0.2641
C14 C 0.2449(5) 0.52315(14) -0.0749(3)
H8 H 0.2207 0.5554 -0.0637
C15 C 0.2365(7) 0.39433(14) 0.3503(3)
C16 C 0.0551(8) 0.37533(15) 0.3515(4)
H9 H -0.0441 0.3812 0.2822
C17 C 0.0205(11) 0.34790(19) 0.4540(6)
H10 H -0.1011 0.3351 0.4547
C18 C 0.1695(15) 0.3397(3) 0.5557(7)
H11 H 0.1478 0.3207 0.6245
C19 C 0.3445(13) 0.3584(2) 0.5583(5)
H12 H 0.4424 0.3527 0.6285
C20 C 0.3794(8) 0.38658(17) 0.4549(4)
H13 H 0.5003 0.4001 0.4571
C21 C 0.2155(6) 0.32344(13) -0.0054(3)
C22 C 0.0234(6) 0.33371(14) -0.0149(3)
H14 H -0.0156 0.3571 0.0381
C23 C -0.1135(6) 0.30945(14) -0.1031(3)
H15 H -0.2433 0.3169 -0.1090
C24 C -0.0590(7) 0.27473(15) -0.1814(4)
C25 C 0.1348(8) 0.26373(15) -0.1673(4)
H16 H 0.1734 0.2393 -0.2171
C26 C 0.2729(6) 0.28797(14) -0.0814(4)
H17 H 0.4027 0.2804 -0.0751
C27 C -0.2066(7) 0.24955(17) -0.2800(4)
H18 H -0.2315 0.2680 -0.3584
H19 H -0.3238 0.2459 -0.2461
H20 H -0.1587 0.2187 -0.2984
loop_
_geom_bond_atom_site_label_1
_geom_bond_atom_site_label_2
_geom_bond_site_symmetry_1
_geom_bond_site_symmetry_2
S1 O1 1_555 1_555
O2 S1 1_555 1_555
C1 S1 1_555 1_555
C2 C1 1_555 1_555
C3 C2 1_555 1_555
C4 C3 1_555 1_555
H1 C4 1_555 1_555
C5 C4 1_555 1_555
H2 C5 1_555 1_555
C6 C5 1_555 1_555
H3 C6 1_555 1_555
C7 C6 1_555 1_555
H4 C7 1_555 1_555
C8 C3 1_555 1_555
C9 C8 1_555 1_555
C10 C1 1_555 1_555
C11 C10 1_555 1_555
H5 C11 1_555 1_555
C12 C11 1_555 1_555
H6 C12 1_555 1_555
C13 C12 1_555 1_555
H7 C13 1_555 1_555
C14 C9 1_555 1_555
H8 C14 1_555 1_555
C15 C2 1_555 1_555
C16 C15 1_555 1_555
H9 C16 1_555 1_555
C17 C16 1_555 1_555
H10 C17 1_555 1_555
C18 C17 1_555 1_555
H11 C18 1_555 1_555
C19 C18 1_555 1_555
H12 C19 1_555 1_555
C20 C15 1_555 1_555
H13 C20 1_555 1_555
C21 S1 1_555 1_555
C22 C21 1_555 1_555
H14 C22 1_555 1_555
C23 C22 1_555 1_555
H15 C23 1_555 1_555
C24 C23 1_555 1_555
C25 C24 1_555 1_555
H16 C25 1_555 1_555
C26 C21 1_555 1_555
H17 C26 1_555 1_555
C27 C24 1_555 1_555
H18 C27 1_555 1_555
H19 C27 1_555 1_555
H20 C27 1_555 1_555
C7 C8 1_555 1_555
C9 C10 1_555 1_555
C13 C14 1_555 1_555
C19 C20 1_555 1_555
C25 C26 1_555 1_555

#END
