
#######################################################################
#
#                 Cambridge Crystallographic Data Centre
#                                CCDC 
#
#######################################################################
#
# If this CIF has been generated from an entry in the Cambridge 
# Structural Database, then it will include bibliographic, chemical, 
# crystal, experimental, refinement or atomic coordinate data resulting 
# from the CCDC's data processing and validation procedures.
#
#######################################################################

data_UVOJOF
_chemical_formula_moiety         'C14 H17 N3 O2'
_chemical_name_systematic        
4,4'-(2-Aminopyrimidine-4,6-diyl)bis(2-methylbut-3-yn-2-ol)
_symmetry_cell_setting           triclinic
_symmetry_space_group_name_H-M   'P -1'
_symmetry_Int_Tables_number      2
_space_group_name_Hall           '-P 1'
loop_
_symmetry_equiv_pos_site_id
_symmetry_equiv_pos_as_xyz
1 x,y,z
2 -x,-y,-z
_cell_length_a                   7.9966(17)
_cell_length_b                   9.737(2)
_cell_length_c                   9.833(2)
_cell_angle_alpha                78.976(3)
_cell_angle_beta                 86.217(3)
_cell_angle_gamma                73.104(3)
_cell_volume                     719.015
_exptl_crystal_colour            colorless
_exptl_crystal_description       block
_cell_formula_units_Z            2
loop_
_atom_site_label
_atom_site_type_symbol
_atom_site_fract_x
_atom_site_fract_y
_atom_site_fract_z
C1 C 0.34240(19) 0.66320(16) 0.32687(15)
C2 C 0.34401(19) 0.75848(16) 0.09525(15)
C3 C 0.50003(19) 0.65441(16) 0.07843(15)
H1 H 0.5511 0.6468 -0.0086
C4 C 0.57674(19) 0.56205(15) 0.19699(15)
C5 C 0.2707(2) 0.86548(16) -0.02401(15)
C6 C 0.23337(19) 0.94368(16) -0.13373(15)
C7 C 0.1960(2) 1.03140(16) -0.27470(15)
C8 C 0.2097(3) 1.18504(19) -0.28019(19)
H2 H 0.1894 1.2388 -0.3731
H3 H 0.3244 1.1799 -0.2522
H4 H 0.1240 1.2333 -0.2188
C9 C 0.3231(2) 0.9527(2) -0.37571(17)
H5 H 0.3109 0.8565 -0.3699
H6 H 0.4405 0.9457 -0.3527
H7 H 0.2981 1.0062 -0.4682
C10 C 0.7498(2) 0.46297(16) 0.19517(15)
C11 C 0.8969(2) 0.38734(16) 0.20745(15)
C12 C 1.0798(2) 0.29629(16) 0.23353(16)
C13 C 1.1890(2) 0.39394(19) 0.2572(2)
H8 H 1.1429 0.4395 0.3354
H9 H 1.1854 0.4677 0.1763
H10 H 1.3078 0.3363 0.2748
C14 C 1.1506(2) 0.21818(18) 0.11305(18)
H11 H 1.2697 0.1614 0.1306
H12 H 1.1455 0.2888 0.0295
H13 H 1.0815 0.1551 0.1029
N1 N 0.26248(16) 0.76481(13) 0.21849(12)
N2 N 0.49961(16) 0.56418(13) 0.32144(12)
N3 N 0.26122(18) 0.65977(14) 0.44984(13)
H14 H 0.1631 0.7245 0.4595
H15 H 0.3173 0.5997 0.5208
O1 O 0.02489(13) 1.03693(11) -0.31459(11)
H16 H -0.0486 1.0899 -0.2708
O2 O 1.08389(16) 0.19577(12) 0.36028(11)
H17 H 1.0464 0.1294 0.3475
loop_
_geom_bond_atom_site_label_1
_geom_bond_atom_site_label_2
_geom_bond_site_symmetry_1
_geom_bond_site_symmetry_2
C1 N1 1_555 1_555
C2 C3 1_555 1_555
C3 H1 1_555 1_555
C4 C3 1_555 1_555
C5 C2 1_555 1_555
C6 C5 1_555 1_555
C7 C6 1_555 1_555
C8 C7 1_555 1_555
H2 C8 1_555 1_555
H3 C8 1_555 1_555
H4 C8 1_555 1_555
C9 C7 1_555 1_555
H5 C9 1_555 1_555
H6 C9 1_555 1_555
H7 C9 1_555 1_555
C10 C4 1_555 1_555
C11 C10 1_555 1_555
C12 C11 1_555 1_555
C13 C12 1_555 1_555
H8 C13 1_555 1_555
H9 C13 1_555 1_555
H10 C13 1_555 1_555
C14 C12 1_555 1_555
H11 C14 1_555 1_555
H12 C14 1_555 1_555
H13 C14 1_555 1_555
N1 C2 1_555 1_555
N2 C1 1_555 1_555
N3 C1 1_555 1_555
H14 N3 1_555 1_555
H15 N3 1_555 1_555
O1 C7 1_555 1_555
H16 O1 1_555 1_555
O2 C12 1_555 1_555
H17 O2 1_555 1_555
C4 N2 1_555 1_555

#END
