
#######################################################################
#
#                 Cambridge Crystallographic Data Centre
#                                CCDC 
#
#######################################################################
#
# If this CIF has been generated from an entry in the Cambridge 
# Structural Database, then it will include bibliographic, chemical, 
# crystal, experimental, refinement or atomic coordinate data resulting 
# from the CCDC's data processing and validation procedures.
#
#######################################################################

data_UVOMIC
_chemical_formula_moiety         'C40 H16 S4'
_chemical_name_systematic        
Dibenzo[3,4:9,10]tristhieno[2',3':7,8;3'',2'':11,12;3''',2''':5,6]coroneno[1,2-b]thiophene
_symmetry_cell_setting           triclinic
_symmetry_space_group_name_H-M   'P -1'
_symmetry_Int_Tables_number      2
_space_group_name_Hall           '-P 1'
loop_
_symmetry_equiv_pos_site_id
_symmetry_equiv_pos_as_xyz
1 x,y,z
2 -x,-y,-z
_cell_length_a                   3.8220(7)
_cell_length_b                   13.266(2)
_cell_length_c                   13.858(2)
_cell_angle_alpha                118.434(2)
_cell_angle_beta                 93.312(3)
_cell_angle_gamma                94.220(3)
_cell_volume                     612.74
_exptl_crystal_colour            yellow
_exptl_crystal_description       needle
_cell_formula_units_Z            1
loop_
_atom_site_label
_atom_site_type_symbol
_atom_site_fract_x
_atom_site_fract_y
_atom_site_fract_z
S1 S 0.71169(17) 0.53644(5) 0.40672(5)
S2 S 0.01709(16) 0.68848(5) -0.24732(5)
C1 C 0.0583(6) 0.8427(2) -0.03941(18)
H1 H 0.0437 0.9128 0.0262
C2 C 0.2112(5) 0.74113(18) -0.04437(18)
C3 C 0.3676(6) 0.72683(17) 0.04399(17)
C4 C 0.4844(6) 0.82334(18) 0.15268(17)
C5 C 0.5359(6) 0.94431(19) 0.17679(19)
H2 H 0.4652 0.9623 0.1204
C6 C 0.6754(7) 1.0285(2) 0.2730(2)
H3 H 0.6926 1.1059 0.2860
C7 C 0.7970(7) 1.0058(2) 0.3553(2)
H4 H 0.9067 1.0672 0.4234
C8 C 0.7614(6) 0.8965(2) 0.33993(18)
H5 H 0.8489 0.8827 0.3977
C9 C 0.5959(6) 0.80146(18) 0.23914(17)
C10 C 0.5760(6) 0.68472(18) 0.22053(17)
C11 C 0.6089(6) 0.65852(18) 0.30945(18)
C12 C 0.5569(6) 0.7304(2) 0.42428(18)
H6 H 0.4979 0.8071 0.4539
C13 C 0.6022(7) 0.6752(2) 0.4848(2)
H7 H 0.5766 0.7090 0.5614
C14 C 0.6832(6) 0.54846(18) 0.28769(17)
C15 C 0.7007(5) 0.45843(17) 0.17824(17)
C16 C 0.1917(6) 0.65073(18) -0.15272(17)
C17 C -0.0596(6) 0.82008(19) -0.1445(2)
H8 H -0.1745 0.8735 -0.1587
C18 C 0.6027(5) 0.47899(17) 0.08948(16)
C19 C 0.5390(5) 0.59315(17) 0.11145(17)
C20 C 0.4348(5) 0.61493(17) 0.02196(17)
S1A S 0.28831(17) 0.46356(5) -0.40672(5)
S2A S 0.98291(16) 0.31152(5) 0.24732(5)
C1A C 0.9417(6) 0.1573(2) 0.03941(18)
H1A H 0.9563 0.0872 -0.0262
C2A C 0.7888(5) 0.25887(18) 0.04437(18)
C3A C 0.6324(6) 0.27317(17) -0.04399(17)
C4A C 0.5156(6) 0.17666(18) -0.15268(17)
C5A C 0.4641(6) 0.05569(19) -0.17679(19)
H2A H 0.5348 0.0377 -0.1204
C6A C 0.3246(7) -0.0285(2) -0.2730(2)
H3A H 0.3074 -0.1059 -0.2860
C7A C 0.2030(7) -0.0058(2) -0.3553(2)
H4A H 0.0933 -0.0672 -0.4234
C8A C 0.2386(6) 0.1035(2) -0.33993(18)
H5A H 0.1511 0.1173 -0.3977
C9A C 0.4041(6) 0.19854(18) -0.23914(17)
C10A C 0.4240(6) 0.31528(18) -0.22053(17)
C11A C 0.3911(6) 0.34148(18) -0.30945(18)
C12A C 0.4431(6) 0.2696(2) -0.42428(18)
H6A H 0.5021 0.1929 -0.4539
C13A C 0.3978(7) 0.3248(2) -0.4848(2)
H7A H 0.4234 0.2910 -0.5614
C14A C 0.3168(6) 0.45154(18) -0.28769(17)
C15A C 0.2993(5) 0.54157(17) -0.17824(17)
C16A C 0.8083(6) 0.34927(18) 0.15272(17)
C17A C 1.0596(6) 0.17992(19) 0.1445(2)
H8A H 1.1745 0.1265 0.1587
C18A C 0.3973(5) 0.52101(17) -0.08948(16)
C19A C 0.4610(5) 0.40685(17) -0.11145(17)
C20A C 0.5652(5) 0.38507(17) -0.02196(17)
loop_
_geom_bond_atom_site_label_1
_geom_bond_atom_site_label_2
_geom_bond_site_symmetry_1
_geom_bond_site_symmetry_2
S1 C13 1_555 1_555
S2 C16 1_555 1_555
C1 H1 1_555 1_555
C2 C1 1_555 1_555
C3 C2 1_555 1_555
C4 C3 1_555 1_555
C5 C4 1_555 1_555
H2 C5 1_555 1_555
C6 C5 1_555 1_555
H3 C6 1_555 1_555
C7 C6 1_555 1_555
H4 C7 1_555 1_555
C8 C7 1_555 1_555
H5 C8 1_555 1_555
C9 C4 1_555 1_555
C10 C9 1_555 1_555
C11 C10 1_555 1_555
C12 C11 1_555 1_555
H6 C12 1_555 1_555
C13 C12 1_555 1_555
H7 C13 1_555 1_555
C14 S1 1_555 1_555
C15 C14 1_555 1_555
C16 C2 1_555 1_555
C17 S2 1_555 1_555
H8 C17 1_555 1_555
C18 C15 1_555 1_555
C19 C10 1_555 1_555
C20 C3 1_555 1_555
S1A C13A 1_555 1_555
S2A C16A 1_555 1_555
C1A H1A 1_555 1_555
C2A C1A 1_555 1_555
C3A C2A 1_555 1_555
C4A C3A 1_555 1_555
C5A C4A 1_555 1_555
H2A C5A 1_555 1_555
C6A C5A 1_555 1_555
H3A C6A 1_555 1_555
C7A C6A 1_555 1_555
H4A C7A 1_555 1_555
C8A C7A 1_555 1_555
H5A C8A 1_555 1_555
C9A C4A 1_555 1_555
C10A C9A 1_555 1_555
C11A C10A 1_555 1_555
C12A C11A 1_555 1_555
H6A C12A 1_555 1_555
C13A C12A 1_555 1_555
H7A C13A 1_555 1_555
C14A S1A 1_555 1_555
C15A C16 1_555 1_555
C16A C15 1_555 1_555
C17A S2A 1_555 1_555
H8A C17A 1_555 1_555
C18A C20 1_555 1_555
C19A C10A 1_555 1_555
C20A C18 1_555 1_555
C1 C17 1_555 1_555
C8 C9 1_555 1_555
C11 C14 1_555 1_555
C18 C19 1_555 1_555
C19 C20 1_555 1_555
C1A C17A 1_555 1_555
C2A C16A 1_555 1_555
C3A C20A 1_555 1_555
C8A C9A 1_555 1_555
C11A C14A 1_555 1_555
C14A C15A 1_555 1_555
C15A C18A 1_555 1_555
C18A C19A 1_555 1_555
C19A C20A 1_555 1_555

#END
