
#######################################################################
#
#                 Cambridge Crystallographic Data Centre
#                                CCDC 
#
#######################################################################
#
# If this CIF has been generated from an entry in the Cambridge 
# Structural Database, then it will include bibliographic, chemical, 
# crystal, experimental, refinement or atomic coordinate data resulting 
# from the CCDC's data processing and validation procedures.
#
#######################################################################

data_UVOMOI
_chemical_formula_moiety         'C56 H48 S4,0.33(C7 H8)'
_chemical_name_systematic        
"2,9,12,19-Tetrabutyldibenzo[3,4:9,10]tristhieno[2',3':7,8;3'',2'':11,12;3''',2''':5,6]coroneno[1,2-b]thiophene toluene clathrate"
_symmetry_cell_setting           monoclinic
_symmetry_space_group_name_H-M   'P 21/c'
_symmetry_Int_Tables_number      14
_space_group_name_Hall           '-P 2ybc'
loop_
_symmetry_equiv_pos_site_id
_symmetry_equiv_pos_as_xyz
1 x,y,z
2 -x,1/2+y,1/2-z
3 -x,-y,-z
4 x,1/2-y,1/2+z
_cell_length_a                   27.5560(11)
_cell_length_b                   16.5467(7)
_cell_length_c                   28.5253(12)
_cell_angle_alpha                90
_cell_angle_beta                 94.4150(10)
_cell_angle_gamma                90
_cell_volume                     12967.8
_exptl_crystal_colour            orange
_exptl_crystal_description       block
_cell_formula_units_Z            12
loop_
_atom_site_label
_atom_site_type_symbol
_atom_site_fract_x
_atom_site_fract_y
_atom_site_fract_z
S1 S 0.42588(3) 0.42798(4) 1.10758(2)
S2 S 0.49978(2) 0.30418(4) 1.07715(2)
S3 S 0.31186(2) 0.28020(4) 0.75486(2)
S4 S 0.23342(2) 0.39314(4) 0.79056(2)
C1 C 0.37769(8) 0.31194(14) 0.98734(8)
C2 C 0.39271(8) 0.25663(14) 0.95262(8)
C3 C 0.36595(8) 0.25292(14) 0.90731(8)
C4 C 0.32396(8) 0.30333(13) 0.89749(8)
C5 C 0.30316(8) 0.34314(13) 0.93566(8)
C6 C 0.33010(8) 0.34848(14) 0.98098(8)
C7 C 0.40794(9) 0.32740(15) 1.02861(8)
C8 C 0.45366(9) 0.28732(15) 1.03340(8)
C9 C 0.46711(9) 0.22885(15) 1.00140(9)
C10 C 0.43430(8) 0.20826(14) 0.96175(8)
C11 C 0.44013(8) 0.13843(15) 0.93177(8)
C12 C 0.41318(8) 0.13462(14) 0.88735(8)
C13 C 0.38161(8) 0.20141(14) 0.87242(8)
C14 C 0.36383(8) 0.21543(14) 0.82458(8)
C15 C 0.32523(8) 0.26939(14) 0.81485(8)
C16 C 0.30221(8) 0.31014(14) 0.85109(8)
C17 C 0.26067(8) 0.36070(14) 0.84403(8)
C18 C 0.23798(8) 0.39452(14) 0.88156(8)
C19 C 0.25739(8) 0.38023(14) 0.92881(8)
C20 C 0.23242(9) 0.40256(14) 0.96965(8)
C21 C 0.25947(9) 0.41177(14) 1.01352(8)
C22 C 0.31118(9) 0.39345(14) 1.01727(8)
C23 C 0.34427(9) 0.41779(15) 1.05595(8)
C24 C 0.39141(9) 0.38518(15) 1.06067(8)
C25 C 0.53794(10) 0.23608(18) 1.05246(10)
C26 C 0.51627(9) 0.20064(17) 1.01333(9)
H1 H 0.5318 0.1612 0.9955
C27 C 0.46772(9) 0.06956(16) 0.94688(9)
H2 H 0.4862 0.0710 0.9764
C28 C 0.46844(10) 0.00094(17) 0.92002(10)
H3 H 0.4877 -0.0440 0.9308
C29 C 0.44103(10) -0.00308(16) 0.87700(10)
H4 H 0.4412 -0.0510 0.8587
C30 C 0.41370(9) 0.06247(15) 0.86097(9)
H5 H 0.3949 0.0590 0.8317
C31 C 0.38290(9) 0.18627(15) 0.78200(8)
H6 H 0.4095 0.1497 0.7818
C32 C 0.35906(9) 0.21632(15) 0.74201(9)
C33 C 0.19259(9) 0.45405(15) 0.81778(9)
C34 C 0.19894(9) 0.44829(15) 0.86522(9)
H7 H 0.1796 0.4769 0.8858
C35 C 0.18124(9) 0.40921(15) 0.96745(9)
H8 H 0.1629 0.4004 0.9383
C36 C 0.15746(10) 0.42813(17) 1.00665(10)
H9 H 0.1230 0.4328 1.0045
C37 C 0.18405(10) 0.44041(17) 1.04940(10)
H10 H 0.1677 0.4551 1.0763
C38 C 0.23378(10) 0.43151(16) 1.05319(9)
H11 H 0.2513 0.4387 1.0829
C39 C 0.33848(10) 0.47932(16) 1.09130(9)
H12 H 0.3090 0.5083 1.0937
C40 C 0.37859(11) 0.49176(16) 1.12037(9)
C41 C 0.59016(11) 0.2244(2) 1.07118(12)
H13 H 0.5991 0.1673 1.0664
H14 H 0.6110 0.2580 1.0522
C42 C 0.60149(14) 0.2448(3) 1.12158(15)
H15 H 0.5832 0.2080 1.1411
H16 H 0.5904 0.3006 1.1273
C43 C 0.65588(15) 0.2383(3) 1.13698(19)
H17 H 0.6738 0.2765 1.1180
H18 H 0.6609 0.2556 1.1702
C44 C 0.67755(16) 0.1559(3) 1.13257(19)
H19 H 0.7116 0.1567 1.1454
H20 H 0.6760 0.1403 1.0993
H21 H 0.6593 0.1169 1.1501
C45 C 0.37063(11) 0.20185(17) 0.69228(9)
H22 H 0.3415 0.1791 0.6745
H23 H 0.3969 0.1610 0.6922
C46 C 0.38656(10) 0.27740(17) 0.66694(9)
H24 H 0.3918 0.2633 0.6340
H25 H 0.3601 0.3179 0.6663
C47 C 0.43299(11) 0.3150(2) 0.68980(11)
H26 H 0.4274 0.3311 0.7224
H27 H 0.4591 0.2739 0.6915
C48 C 0.44983(16) 0.3882(3) 0.66360(14)
H28 H 0.4795 0.4100 0.6801
H29 H 0.4243 0.4295 0.6621
H30 H 0.4566 0.3724 0.6316
C49 C 0.15808(10) 0.50776(17) 0.78874(10)
H31 H 0.1339 0.5302 0.8091
H32 H 0.1403 0.4749 0.7641
C50 C 0.18351(12) 0.57732(18) 0.76549(10)
H33 H 0.2079 0.5546 0.7454
H34 H 0.1591 0.6070 0.7448
C51 C 0.20882(15) 0.6366(2) 0.79970(13)
H35 H 0.2335 0.6074 0.8204
H36 H 0.1846 0.6599 0.8198
C52 C 0.23356(16) 0.7047(3) 0.77480(18)
H37 H 0.2470 0.7439 0.7981
H38 H 0.2097 0.7315 0.7528
H39 H 0.2599 0.6825 0.7575
C53 C 0.38631(12) 0.55450(18) 1.15822(9)
H40 H 0.3574 0.5901 1.1571
H41 H 0.4146 0.5882 1.1515
C54 C 0.3949(2) 0.5206(2) 1.20727(12)
H42 H 0.4261 0.4906 1.2101
H43 H 0.3684 0.4826 1.2135
C55 C 0.3968(3) 0.5966(5) 1.24710(17)
H44 H 0.3743 0.6414 1.2375
H45 H 0.3908 0.5777 1.2791
C56 C 0.4427(3) 0.6154(5) 1.2430(2)
H46 H 0.4532 0.6558 1.2668
H47 H 0.4463 0.6375 1.2116
H48 H 0.4628 0.5668 1.2477
S5 S 0.03198(2) 0.69613(4) 0.43831(2)
S6 S 0.06881(2) 0.70507(4) 0.54166(2)
S7 S -0.27168(2) 0.59487(4) 0.63463(2)
S8 S -0.31305(2) 0.60572(4) 0.53332(2)
C57 C -0.07905(8) 0.72042(13) 0.52362(8)
C58 C -0.08876(8) 0.72665(13) 0.57214(8)
C59 C -0.13727(8) 0.71216(13) 0.58562(8)
C60 C -0.17569(8) 0.69461(13) 0.55014(8)
C61 C -0.16798(8) 0.70835(14) 0.50138(8)
C62 C -0.11895(8) 0.71931(13) 0.48810(8)
C63 C -0.03044(8) 0.71862(14) 0.51081(8)
C64 C 0.00738(8) 0.71971(14) 0.54767(8)
C65 C -0.00184(8) 0.73259(14) 0.59481(8)
C66 C -0.05078(8) 0.74162(14) 0.60701(8)
C67 C -0.06407(9) 0.76636(14) 0.65310(8)
C68 C -0.11102(9) 0.74895(14) 0.66679(8)
C69 C -0.14619(8) 0.70999(14) 0.63340(8)
C70 C -0.18923(8) 0.67032(15) 0.64636(8)
C71 C -0.22532(8) 0.64870(14) 0.61127(8)
C72 C -0.22100(8) 0.66589(14) 0.56311(8)
C73 C -0.25789(8) 0.65174(15) 0.52648(8)
C74 C -0.25256(8) 0.67328(15) 0.47952(8)
C75 C -0.20725(9) 0.70634(15) 0.46706(8)
C76 C -0.19936(9) 0.73614(15) 0.42043(8)
C77 C -0.15138(9) 0.74460(15) 0.40698(8)
C78 C -0.11048(9) 0.72450(14) 0.44023(8)
C79 C -0.06179(9) 0.71294(14) 0.42726(8)
C80 C -0.02323(9) 0.71112(14) 0.46205(8)
C81 C 0.08268(9) 0.71356(16) 0.60166(9)
C82 C 0.04278(9) 0.72840(15) 0.62524(9)
H49 H 0.0439 0.7354 0.6584
C83 C -0.03274(9) 0.81484(15) 0.68332(8)
H50 H -0.0015 0.8289 0.6740
C84 C -0.04679(10) 0.84192(16) 0.72594(9)
H51 H -0.0254 0.8747 0.7455
C85 C -0.09223(10) 0.82126(16) 0.74032(9)
H52 H -0.1013 0.8382 0.7702
C86 C -0.12424(9) 0.77614(16) 0.71124(8)
H53 H -0.1555 0.7632 0.7211
C87 C -0.20028(9) 0.64022(16) 0.69199(9)
H54 H -0.1801 0.6489 0.7200
C88 C -0.24275(9) 0.59826(17) 0.69029(9)
C89 C -0.33006(9) 0.61289(17) 0.47424(9)
C90 C -0.29570(9) 0.64963(16) 0.44891(9)
H55 H -0.2993 0.6586 0.4159
C91 C -0.23831(10) 0.76436(16) 0.38928(9)
H56 H -0.2707 0.7612 0.3985
C92 C -0.23012(11) 0.79621(18) 0.34598(9)
H57 H -0.2568 0.8124 0.3250
C93 C -0.18258(12) 0.80473(19) 0.33292(9)
H58 H -0.1769 0.8273 0.3032
C94 C -0.14421(11) 0.78050(17) 0.36303(9)
H59 H -0.1120 0.7880 0.3542
C95 C -0.04489(9) 0.69822(15) 0.38097(9)
H60 H -0.0659 0.6958 0.3530
C96 C 0.00429(10) 0.68835(15) 0.38213(9)
C97 C 0.13453(10) 0.70352(18) 0.62116(11)
H61 H 0.1478 0.6534 0.6081
H62 H 0.1350 0.6968 0.6557
C98 C 0.16732(11) 0.7733(2) 0.61058(15)
H63 H 0.1572 0.8217 0.6277
H64 H 0.1631 0.7854 0.5765
C99 C 0.22092(12) 0.7568(3) 0.62413(19)
H65 H 0.2390 0.8086 0.6257
H66 H 0.2244 0.7316 0.6557
C100 C 0.24273(19) 0.7011(3) 0.5888(2)
H67 H 0.2783 0.7026 0.5936
H68 H 0.2326 0.7192 0.5568
H69 H 0.2313 0.6458 0.5932
C101 C -0.26321(11) 0.5521(2) 0.73003(11)
H70 H -0.2975 0.5372 0.7212
H71 H -0.2624 0.5866 0.7585
C102 C -0.23195(16) 0.4732(2) 0.74086(12)
H72 H -0.2349 0.4376 0.7129
H73 H -0.1973 0.4886 0.7465
C103 C -0.24699(19) 0.4263(2) 0.78287(14)
H74 H -0.2813 0.4093 0.7767
H75 H -0.2269 0.3768 0.7865
C104 C -0.2420(2) 0.4728(3) 0.82820(14)
H76 H -0.2437 0.4354 0.8547
H77 H -0.2685 0.5123 0.8286
H78 H -0.2107 0.5010 0.8309
C105 C -0.37775(10) 0.5772(2) 0.45549(10)
H79 H -0.3966 0.6187 0.4369
H80 H -0.3967 0.5617 0.4822
C106 C -0.37134(14) 0.5041(2) 0.42506(14)
H81 H -0.3570 0.5217 0.3960
H82 H -0.4038 0.4810 0.4159
C107 C -0.33895(16) 0.4372(2) 0.44846(15)
H83 H -0.3363 0.3928 0.4256
H84 H -0.3059 0.4594 0.4558
C108 C -0.3562(2) 0.4039(3) 0.49125(17)
H85 H -0.3381 0.3544 0.4998
H86 H -0.3909 0.3914 0.4861
H87 H -0.3511 0.4434 0.5167
C109 C 0.03362(10) 0.67203(18) 0.34080(9)
H88 H 0.0383 0.6129 0.3382
H89 H 0.0146 0.6901 0.3119
C110 C 0.08152(16) 0.7113(3) 0.34295(15)
H90 H 0.0999 0.6958 0.3728
H91 H 0.0768 0.7706 0.3436
C111 C 0.11392(16) 0.6892(3) 0.29984(14)
H92 H 0.1483 0.7052 0.3069
H93 H 0.1125 0.6306 0.2927
C112 C 0.09153(16) 0.7355(3) 0.26177(18)
H94 H 0.1084 0.7254 0.2333
H95 H 0.0936 0.7931 0.2696
H96 H 0.0573 0.7198 0.2563
S9 S 0.12756(2) 0.47782(4) 0.65418(2)
S10 S -0.03341(2) 0.45492(4) 0.31141(2)
C113 C 0.05241(9) 0.49804(13) 0.50831(8)
C114 C 0.03012(9) 0.49329(13) 0.46091(8)
C115 C -0.02197(8) 0.49616(13) 0.45284(7)
C116 C 0.09473(9) 0.49321(14) 0.60046(8)
C117 C 0.12470(9) 0.48710(14) 0.56335(8)
C118 C 0.10343(9) 0.49743(14) 0.51612(8)
C119 C 0.13282(9) 0.51171(14) 0.47705(8)
C120 C 0.11104(9) 0.50407(14) 0.43029(8)
C121 C 0.05964(9) 0.48592(14) 0.42283(8)
C122 C 0.03663(9) 0.46767(14) 0.37722(8)
C123 C -0.01368(9) 0.47569(14) 0.36956(8)
C124 C -0.04393(9) 0.49332(14) 0.40629(8)
C125 C 0.18062(9) 0.46029(15) 0.62750(9)
C126 C 0.17405(9) 0.46697(15) 0.57983(9)
H97 H 0.1994 0.4592 0.5595
C127 C 0.18112(9) 0.54034(15) 0.48345(9)
H98 H 0.1955 0.5475 0.5145
C128 C 0.20813(10) 0.55821(16) 0.44611(10)
H99 H 0.2409 0.5760 0.4515
C129 C 0.18708(10) 0.55008(16) 0.40036(9)
H100 H 0.2055 0.5620 0.3744
C130 C 0.13959(9) 0.52477(15) 0.39283(9)
H101 H 0.1254 0.5210 0.3615
C131 C 0.05767(10) 0.43845(15) 0.33545(8)
H102 H 0.0914 0.4273 0.3344
C132 C 0.02475(10) 0.42851(16) 0.29801(8)
C133 C 0.22739(10) 0.44375(17) 0.65683(9)
H103 H 0.2448 0.3987 0.6425
H104 H 0.2197 0.4266 0.6887
C134 C 0.26030(10) 0.51686(19) 0.66090(10)
H105 H 0.2415 0.5632 0.6719
H106 H 0.2703 0.5305 0.6292
C135 C 0.30595(11) 0.5062(2) 0.69409(11)
H107 H 0.2962 0.4919 0.7257
H108 H 0.3253 0.4608 0.6828
C136 C 0.33732(13) 0.5807(3) 0.69787(13)
H109 H 0.3659 0.5705 0.7197
H110 H 0.3186 0.6258 0.7095
H111 H 0.3479 0.5943 0.6668
C137 C 0.03274(11) 0.39322(17) 0.25047(9)
H112 H 0.0411 0.3353 0.2545
H113 H 0.0018 0.3965 0.2304
C138 C 0.07205(11) 0.43387(19) 0.22526(10)
H114 H 0.0789 0.4008 0.1976
H115 H 0.1022 0.4358 0.2465
C139 C 0.05934(11) 0.51900(19) 0.20883(10)
H116 H 0.0547 0.5530 0.2367
H117 H 0.0280 0.5176 0.1893
C140 C 0.09773(13) 0.5582(3) 0.18045(13)
H118 H 0.0867 0.6121 0.1702
H119 H 0.1027 0.5248 0.1529
H120 H 0.1284 0.5628 0.2001
S9B S -0.12756(2) 0.52218(4) 0.34582(2)
S10B S 0.03341(2) 0.54508(4) 0.68859(2)
C113B C -0.05241(9) 0.50196(13) 0.49169(8)
C114B C -0.03012(9) 0.50671(13) 0.53909(8)
C115B C 0.02197(8) 0.50384(13) 0.54716(7)
C116B C -0.09473(9) 0.50679(14) 0.39954(8)
C117B C -0.12470(9) 0.51290(14) 0.43665(8)
C118B C -0.10343(9) 0.50257(14) 0.48388(8)
C119B C -0.13282(9) 0.48829(14) 0.52295(8)
C120B C -0.11104(9) 0.49593(14) 0.56971(8)
C121B C -0.05964(9) 0.51408(14) 0.57717(8)
C122B C -0.03663(9) 0.53233(14) 0.62278(8)
C123B C 0.01368(9) 0.52431(14) 0.63044(8)
C124B C 0.04393(9) 0.50668(14) 0.59371(8)
C125B C -0.18062(9) 0.53971(15) 0.37250(9)
C126B C -0.17405(9) 0.53303(15) 0.42017(9)
H97B H -0.1994 0.5408 0.4405
C127B C -0.18112(9) 0.45966(15) 0.51655(9)
H98B H -0.1955 0.4525 0.4855
C128B C -0.20813(10) 0.44179(16) 0.55389(10)
H99B H -0.2409 0.4240 0.5485
C129B C -0.18708(10) 0.44992(16) 0.59964(9)
H100B H -0.2055 0.4380 0.6256
C130B C -0.13959(9) 0.47523(15) 0.60717(9)
H101B H -0.1254 0.4790 0.6385
C131B C -0.05767(10) 0.56155(15) 0.66455(8)
H102B H -0.0914 0.5727 0.6656
C132B C -0.02475(10) 0.57149(16) 0.70199(8)
C133B C -0.22739(10) 0.55625(17) 0.34317(9)
H103B H -0.2448 0.6013 0.3575
H104B H -0.2197 0.5734 0.3113
C134B C -0.26030(10) 0.48314(19) 0.33910(10)
H105B H -0.2415 0.4368 0.3281
H106B H -0.2703 0.4695 0.3708
C135B C -0.30595(11) 0.4938(2) 0.30591(11)
H107B H -0.2962 0.5081 0.2743
H108B H -0.3253 0.5392 0.3172
C136B C -0.33732(13) 0.4193(3) 0.30213(13)
H109B H -0.3659 0.4295 0.2803
H110B H -0.3186 0.3742 0.2905
H111B H -0.3479 0.4057 0.3332
C137B C -0.03274(11) 0.60678(17) 0.74953(9)
H112B H -0.0411 0.6647 0.7455
H113B H -0.0018 0.6035 0.7696
C138B C -0.07205(11) 0.56613(19) 0.77474(10)
H114B H -0.0789 0.5992 0.8024
H115B H -0.1022 0.5642 0.7535
C139B C -0.05934(11) 0.48100(19) 0.79117(10)
H116B H -0.0547 0.4470 0.7633
H117B H -0.0280 0.4824 0.8107
C140B C -0.09773(13) 0.4418(3) 0.81955(13)
H118B H -0.0867 0.3879 0.8298
H119B H -0.1027 0.4752 0.8471
H120B H -0.1284 0.4372 0.7999
S11 S 0.33487(2) 0.66463(4) 1.03145(2)
S12 S 0.58174(2) 0.25283(4) 0.90855(2)
C141 C 0.45341(8) 0.51199(13) 0.97452(8)
C142 C 0.48769(8) 0.45557(13) 0.95703(8)
C143 C 0.53401(8) 0.44350(13) 0.98294(8)
C144 C 0.38448(8) 0.61327(14) 1.01163(8)
C145 C 0.37084(8) 0.56646(14) 0.97216(8)
C146 C 0.40735(8) 0.52233(13) 0.95000(8)
C147 C 0.39960(8) 0.49253(14) 0.90232(8)
C148 C 0.43368(8) 0.43837(14) 0.88457(8)
C149 C 0.47546(8) 0.41245(14) 0.91516(8)
C150 C 0.50597(8) 0.34644(14) 0.90352(8)
C151 C 0.55138(8) 0.33660(14) 0.92828(8)
C152 C 0.56757(8) 0.38735(14) 0.96635(8)
C153 C 0.29519(8) 0.61794(15) 0.98970(9)
C154 C 0.31884(8) 0.56863(15) 0.96126(9)
H121 H 0.3027 0.5383 0.9364
C155 C 0.36185(9) 0.52302(15) 0.87057(9)
H122 H 0.3396 0.5611 0.8816
C156 C 0.35651(10) 0.49911(16) 0.82434(9)
H123 H 0.3301 0.5190 0.8042
C157 C 0.38977(10) 0.44590(16) 0.80699(9)
H124 H 0.3862 0.4292 0.7750
C158 C 0.42812(9) 0.41732(15) 0.83642(9)
H125 H 0.4514 0.3826 0.8240
C159 C 0.49649(9) 0.28205(14) 0.87014(8)
H126 H 0.4671 0.2779 0.8506
C160 C 0.53336(9) 0.22771(15) 0.86907(8)
C161 C 0.24137(9) 0.63324(17) 0.98829(10)
H127 H 0.2322 0.6429 1.0207
H128 H 0.2239 0.5844 0.9762
C162 C 0.22532(10) 0.70497(19) 0.95775(14)
H129 H 0.2336 0.6945 0.9251
H130 H 0.2436 0.7534 0.9693
C163 C 0.17073(10) 0.72242(19) 0.95741(15)
H131 H 0.1629 0.7358 0.9898
H132 H 0.1630 0.7704 0.9375
C164 C 0.13927(11) 0.6540(2) 0.93977(13)
H133 H 0.1051 0.6713 0.9373
H134 H 0.1434 0.6085 0.9617
H135 H 0.1486 0.6373 0.9087
C165 C 0.53441(9) 0.15270(16) 0.83961(9)
H136 H 0.5060 0.1186 0.8457
H137 H 0.5642 0.1216 0.8494
C166 C 0.53346(11) 0.16950(19) 0.78744(10)
H138 H 0.5648 0.1944 0.7805
H139 H 0.5073 0.2091 0.7788
C167 C 0.52505(13) 0.0943(2) 0.75695(12)
H140 H 0.5497 0.0530 0.7671
H141 H 0.4926 0.0717 0.7619
C168 C 0.5280(2) 0.1112(3) 0.70542(13)
H142 H 0.5208 0.0617 0.6874
H143 H 0.5608 0.1301 0.7000
H144 H 0.5042 0.1530 0.6954
S11B S 0.66513(2) 0.33537(4) 0.96855(2)
S12B S 0.41826(2) 0.74717(4) 1.09145(2)
C141B C 0.54659(8) 0.48801(13) 1.02548(8)
C142B C 0.51231(8) 0.54443(13) 1.04297(8)
C143B C 0.46599(8) 0.55650(13) 1.01706(8)
C144B C 0.61552(8) 0.38673(14) 0.98837(8)
C145B C 0.62916(8) 0.43354(14) 1.02784(8)
C146B C 0.59265(8) 0.47767(13) 1.05000(8)
C147B C 0.60040(8) 0.50747(14) 1.09768(8)
C148B C 0.56632(8) 0.56163(14) 1.11543(8)
C149B C 0.52454(8) 0.58755(14) 1.08484(8)
C150B C 0.49403(8) 0.65356(14) 1.09648(8)
C151B C 0.44862(8) 0.66340(14) 1.07172(8)
C152B C 0.43243(8) 0.61265(14) 1.03365(8)
C153B C 0.70481(8) 0.38206(15) 1.01030(9)
C154B C 0.68116(8) 0.43137(15) 1.03874(9)
H121B H 0.6973 0.4617 1.0636
C155B C 0.63815(9) 0.47698(15) 1.12943(9)
H122B H 0.6604 0.4389 1.1184
C156B C 0.64349(10) 0.50089(16) 1.17566(9)
H123B H 0.6699 0.4810 1.1958
C157B C 0.61023(10) 0.55410(16) 1.19301(9)
H124B H 0.6138 0.5708 1.2250
C158B C 0.57188(9) 0.58268(15) 1.16358(9)
H125B H 0.5486 0.6174 1.1760
C159B C 0.50351(9) 0.71795(14) 1.12986(8)
H126B H 0.5329 0.7221 1.1494
C160B C 0.46664(9) 0.77229(15) 1.13093(8)
C161B C 0.75863(9) 0.36676(17) 1.01171(10)
H127B H 0.7678 0.3571 0.9793
H128B H 0.7761 0.4156 1.0238
C162B C 0.77468(10) 0.29503(19) 1.04225(14)
H129B H 0.7664 0.3055 1.0749
H130B H 0.7564 0.2466 1.0307
C163B C 0.82927(10) 0.27758(19) 1.04259(15)
H131B H 0.8371 0.2642 1.0102
H132B H 0.8370 0.2296 1.0625
C164B C 0.86073(11) 0.3460(2) 1.06023(13)
H133B H 0.8949 0.3287 1.0627
H134B H 0.8566 0.3915 1.0383
H135B H 0.8514 0.3627 1.0913
C165B C 0.46559(9) 0.84730(16) 1.16039(9)
H136B H 0.4940 0.8814 1.1543
H137B H 0.4358 0.8784 1.1506
C166B C 0.46654(11) 0.83050(19) 1.21256(10)
H138B H 0.4352 0.8056 1.2195
H139B H 0.4927 0.7909 1.2212
C167B C 0.47495(13) 0.9057(2) 1.24305(12)
H140B H 0.4503 0.9470 1.2329
H141B H 0.5074 0.9283 1.2381
C168B C 0.4720(2) 0.8888(3) 1.29458(13)
H142B H 0.4792 0.9383 1.3126
H143B H 0.4392 0.8699 1.3000
H144B H 0.4958 0.8470 1.3046
C169 C 0.03131(13) 1.0512(2) 0.57900(14)
H145 H 0.0603 1.0771 0.5710
C170 C 0.00043(13) 1.0911(2) 0.60714(14)
H146 H 0.0082 1.1441 0.6180
C171 C -0.04192(13) 1.0538(2) 0.61959(13)
H147 H -0.0629 1.0808 0.6394
C172 C -0.05331(12) 0.9771(2) 0.60286(13)
H148 H -0.0823 0.9512 0.6109
C173 C -0.02230(13) 0.93836(19) 0.57444(13)
H149 H -0.0306 0.8859 0.5629
C174 C 0.02065(13) 0.9738(2) 0.56226(14)
C175 C 0.05459(17) 0.9294(2) 0.53230(18)
H150 H 0.0627 0.9640 0.5062
H151 H 0.0387 0.8800 0.5199
H152 H 0.0844 0.9151 0.5514
loop_
_geom_bond_atom_site_label_1
_geom_bond_atom_site_label_2
_geom_bond_site_symmetry_1
_geom_bond_site_symmetry_2
S1 C24 1_555 1_555
S2 C8 1_555 1_555
S3 C15 1_555 1_555
S4 C17 1_555 1_555
S5 C80 1_555 1_555
S6 C64 1_555 1_555
S7 C71 1_555 1_555
S8 C73 1_555 1_555
S9 C116 1_555 1_555
S10 C123 1_555 1_555
S11 C144 1_555 1_555
S12 C151 1_555 1_555
C1 C2 1_555 1_555
C2 C3 1_555 1_555
C3 C4 1_555 1_555
C4 C5 1_555 1_555
C5 C6 1_555 1_555
C6 C1 1_555 1_555
C7 C1 1_555 1_555
C8 C7 1_555 1_555
C9 C8 1_555 1_555
C10 C2 1_555 1_555
C11 C10 1_555 1_555
C12 C11 1_555 1_555
C13 C3 1_555 1_555
C14 C13 1_555 1_555
C15 C14 1_555 1_555
C16 C4 1_555 1_555
C17 C16 1_555 1_555
C18 C17 1_555 1_555
C19 C5 1_555 1_555
C20 C19 1_555 1_555
C21 C20 1_555 1_555
C22 C6 1_555 1_555
C23 C22 1_555 1_555
C24 C7 1_555 1_555
C25 S2 1_555 1_555
C26 C9 1_555 1_555
H1 C26 1_555 1_555
C27 C11 1_555 1_555
H2 C27 1_555 1_555
C28 C27 1_555 1_555
H3 C28 1_555 1_555
C29 C28 1_555 1_555
H4 C29 1_555 1_555
C30 C12 1_555 1_555
H5 C30 1_555 1_555
C31 C14 1_555 1_555
H6 C31 1_555 1_555
C32 S3 1_555 1_555
C33 S4 1_555 1_555
C34 C18 1_555 1_555
H7 C34 1_555 1_555
C35 C20 1_555 1_555
H8 C35 1_555 1_555
C36 C35 1_555 1_555
H9 C36 1_555 1_555
C37 C36 1_555 1_555
H10 C37 1_555 1_555
C38 C21 1_555 1_555
H11 C38 1_555 1_555
C39 C23 1_555 1_555
H12 C39 1_555 1_555
C40 S1 1_555 1_555
C41 C25 1_555 1_555
H13 C41 1_555 1_555
H14 C41 1_555 1_555
C42 C41 1_555 1_555
H15 C42 1_555 1_555
H16 C42 1_555 1_555
C43 C42 1_555 1_555
H17 C43 1_555 1_555
H18 C43 1_555 1_555
C44 C43 1_555 1_555
H19 C44 1_555 1_555
H20 C44 1_555 1_555
H21 C44 1_555 1_555
C45 C32 1_555 1_555
H22 C45 1_555 1_555
H23 C45 1_555 1_555
C46 C45 1_555 1_555
H24 C46 1_555 1_555
H25 C46 1_555 1_555
C47 C46 1_555 1_555
H26 C47 1_555 1_555
H27 C47 1_555 1_555
C48 C47 1_555 1_555
H28 C48 1_555 1_555
H29 C48 1_555 1_555
H30 C48 1_555 1_555
C49 C33 1_555 1_555
H31 C49 1_555 1_555
H32 C49 1_555 1_555
C50 C49 1_555 1_555
H33 C50 1_555 1_555
H34 C50 1_555 1_555
C51 C50 1_555 1_555
H35 C51 1_555 1_555
H36 C51 1_555 1_555
C52 C51 1_555 1_555
H37 C52 1_555 1_555
H38 C52 1_555 1_555
H39 C52 1_555 1_555
C53 C40 1_555 1_555
H40 C53 1_555 1_555
H41 C53 1_555 1_555
C54 C53 1_555 1_555
H42 C54 1_555 1_555
H43 C54 1_555 1_555
C55 C54 1_555 1_555
H44 C55 1_555 1_555
H45 C55 1_555 1_555
C56 C55 1_555 1_555
H46 C56 1_555 1_555
H47 C56 1_555 1_555
H48 C56 1_555 1_555
C57 C58 1_555 1_555
C58 C59 1_555 1_555
C59 C60 1_555 1_555
C60 C61 1_555 1_555
C61 C62 1_555 1_555
C62 C57 1_555 1_555
C63 C57 1_555 1_555
C64 C63 1_555 1_555
C65 C64 1_555 1_555
C66 C58 1_555 1_555
C67 C66 1_555 1_555
C68 C67 1_555 1_555
C69 C59 1_555 1_555
C70 C69 1_555 1_555
C71 C70 1_555 1_555
C72 C60 1_555 1_555
C73 C72 1_555 1_555
C74 C73 1_555 1_555
C75 C61 1_555 1_555
C76 C75 1_555 1_555
C77 C76 1_555 1_555
C78 C62 1_555 1_555
C79 C78 1_555 1_555
C80 C63 1_555 1_555
C81 S6 1_555 1_555
C82 C65 1_555 1_555
H49 C82 1_555 1_555
C83 C67 1_555 1_555
H50 C83 1_555 1_555
C84 C83 1_555 1_555
H51 C84 1_555 1_555
C85 C84 1_555 1_555
H52 C85 1_555 1_555
C86 C68 1_555 1_555
H53 C86 1_555 1_555
C87 C70 1_555 1_555
H54 C87 1_555 1_555
C88 S7 1_555 1_555
C89 S8 1_555 1_555
C90 C74 1_555 1_555
H55 C90 1_555 1_555
C91 C76 1_555 1_555
H56 C91 1_555 1_555
C92 C91 1_555 1_555
H57 C92 1_555 1_555
C93 C92 1_555 1_555
H58 C93 1_555 1_555
C94 C77 1_555 1_555
H59 C94 1_555 1_555
C95 C79 1_555 1_555
H60 C95 1_555 1_555
C96 S5 1_555 1_555
C97 C81 1_555 1_555
H61 C97 1_555 1_555
H62 C97 1_555 1_555
C98 C97 1_555 1_555
H63 C98 1_555 1_555
H64 C98 1_555 1_555
C99 C98 1_555 1_555
H65 C99 1_555 1_555
H66 C99 1_555 1_555
C100 C99 1_555 1_555
H67 C100 1_555 1_555
H68 C100 1_555 1_555
H69 C100 1_555 1_555
C101 C88 1_555 1_555
H70 C101 1_555 1_555
H71 C101 1_555 1_555
C102 C101 1_555 1_555
H72 C102 1_555 1_555
H73 C102 1_555 1_555
C103 C102 1_555 1_555
H74 C103 1_555 1_555
H75 C103 1_555 1_555
C104 C103 1_555 1_555
H76 C104 1_555 1_555
H77 C104 1_555 1_555
H78 C104 1_555 1_555
C105 C89 1_555 1_555
H79 C105 1_555 1_555
H80 C105 1_555 1_555
C106 C105 1_555 1_555
H81 C106 1_555 1_555
H82 C106 1_555 1_555
C107 C106 1_555 1_555
H83 C107 1_555 1_555
H84 C107 1_555 1_555
C108 C107 1_555 1_555
H85 C108 1_555 1_555
H86 C108 1_555 1_555
H87 C108 1_555 1_555
C109 C96 1_555 1_555
H88 C109 1_555 1_555
H89 C109 1_555 1_555
C110 C109 1_555 1_555
H90 C110 1_555 1_555
H91 C110 1_555 1_555
C111 C110 1_555 1_555
H92 C111 1_555 1_555
H93 C111 1_555 1_555
C112 C111 1_555 1_555
H94 C112 1_555 1_555
H95 C112 1_555 1_555
H96 C112 1_555 1_555
C113 C114 1_555 1_555
C114 C115 1_555 1_555
C115 C124 1_555 1_555
C116 C117 1_555 1_555
C117 C118 1_555 1_555
C118 C113 1_555 1_555
C119 C118 1_555 1_555
C120 C119 1_555 1_555
C121 C114 1_555 1_555
C122 C121 1_555 1_555
C123 C122 1_555 1_555
C124 C123 1_555 1_555
C125 S9 1_555 1_555
C126 C117 1_555 1_555
H97 C126 1_555 1_555
C127 C119 1_555 1_555
H98 C127 1_555 1_555
C128 C127 1_555 1_555
H99 C128 1_555 1_555
C129 C128 1_555 1_555
H100 C129 1_555 1_555
C130 C120 1_555 1_555
H101 C130 1_555 1_555
C131 C122 1_555 1_555
H102 C131 1_555 1_555
C132 S10 1_555 1_555
C133 C125 1_555 1_555
H103 C133 1_555 1_555
H104 C133 1_555 1_555
C134 C133 1_555 1_555
H105 C134 1_555 1_555
H106 C134 1_555 1_555
C135 C134 1_555 1_555
H107 C135 1_555 1_555
H108 C135 1_555 1_555
C136 C135 1_555 1_555
H109 C136 1_555 1_555
H110 C136 1_555 1_555
H111 C136 1_555 1_555
C137 C132 1_555 1_555
H112 C137 1_555 1_555
H113 C137 1_555 1_555
C138 C137 1_555 1_555
H114 C138 1_555 1_555
H115 C138 1_555 1_555
C139 C138 1_555 1_555
H116 C139 1_555 1_555
H117 C139 1_555 1_555
C140 C139 1_555 1_555
H118 C140 1_555 1_555
H119 C140 1_555 1_555
H120 C140 1_555 1_555
C141 C142 1_555 1_555
C142 C143 1_555 1_555
C143 C152 1_555 1_555
C144 C145 1_555 1_555
C145 C146 1_555 1_555
C146 C141 1_555 1_555
C147 C146 1_555 1_555
C148 C147 1_555 1_555
C149 C142 1_555 1_555
C150 C149 1_555 1_555
C151 C150 1_555 1_555
C152 C151 1_555 1_555
C153 S11 1_555 1_555
C154 C145 1_555 1_555
H121 C154 1_555 1_555
C155 C147 1_555 1_555
H122 C155 1_555 1_555
C156 C155 1_555 1_555
H123 C156 1_555 1_555
C157 C156 1_555 1_555
H124 C157 1_555 1_555
C158 C148 1_555 1_555
H125 C158 1_555 1_555
C159 C150 1_555 1_555
H126 C159 1_555 1_555
C160 S12 1_555 1_555
C161 C153 1_555 1_555
H127 C161 1_555 1_555
H128 C161 1_555 1_555
C162 C161 1_555 1_555
H129 C162 1_555 1_555
H130 C162 1_555 1_555
C163 C162 1_555 1_555
H131 C163 1_555 1_555
H132 C163 1_555 1_555
C164 C163 1_555 1_555
H133 C164 1_555 1_555
H134 C164 1_555 1_555
H135 C164 1_555 1_555
C165 C160 1_555 1_555
H136 C165 1_555 1_555
H137 C165 1_555 1_555
C166 C165 1_555 1_555
H138 C166 1_555 1_555
H139 C166 1_555 1_555
C167 C166 1_555 1_555
H140 C167 1_555 1_555
H141 C167 1_555 1_555
C168 C167 1_555 1_555
H142 C168 1_555 1_555
H143 C168 1_555 1_555
H144 C168 1_555 1_555
C169 H145 1_555 1_555
C170 C169 1_555 1_555
H146 C170 1_555 1_555
C171 C170 1_555 1_555
H147 C171 1_555 1_555
C172 C171 1_555 1_555
H148 C172 1_555 1_555
C173 C172 1_555 1_555
H149 C173 1_555 1_555
C174 C169 1_555 1_555
C175 C174 1_555 1_555
H150 C175 1_555 1_555
H151 C175 1_555 1_555
H152 C175 1_555 1_555
S9B C116B 1_555 1_555
S10B C123B 1_555 1_555
S11B C144B 1_555 1_555
S12B C151B 1_555 1_555
C113B C115 1_555 1_555
C114B C113B 1_555 1_555
C115B C113 1_555 1_555
C116B C124 1_555 1_555
C117B C116B 1_555 1_555
C118B C113B 1_555 1_555
C119B C118B 1_555 1_555
C120B C119B 1_555 1_555
C121B C114B 1_555 1_555
C122B C121B 1_555 1_555
C123B C122B 1_555 1_555
C124B C116 1_555 1_555
C125B S9B 1_555 1_555
C126B C117B 1_555 1_555
H97B C126B 1_555 1_555
C127B C119B 1_555 1_555
H98B C127B 1_555 1_555
C128B C127B 1_555 1_555
H99B C128B 1_555 1_555
C129B C128B 1_555 1_555
H100B C129B 1_555 1_555
C130B C120B 1_555 1_555
H101B C130B 1_555 1_555
C131B C122B 1_555 1_555
H102B C131B 1_555 1_555
C132B S10B 1_555 1_555
C133B C125B 1_555 1_555
H103B C133B 1_555 1_555
H104B C133B 1_555 1_555
C134B C133B 1_555 1_555
H105B C134B 1_555 1_555
H106B C134B 1_555 1_555
C135B C134B 1_555 1_555
H107B C135B 1_555 1_555
H108B C135B 1_555 1_555
C136B C135B 1_555 1_555
H109B C136B 1_555 1_555
H110B C136B 1_555 1_555
H111B C136B 1_555 1_555
C137B C132B 1_555 1_555
H112B C137B 1_555 1_555
H113B C137B 1_555 1_555
C138B C137B 1_555 1_555
H114B C138B 1_555 1_555
H115B C138B 1_555 1_555
C139B C138B 1_555 1_555
H116B C139B 1_555 1_555
H117B C139B 1_555 1_555
C140B C139B 1_555 1_555
H118B C140B 1_555 1_555
H119B C140B 1_555 1_555
H120B C140B 1_555 1_555
C141B C143 1_555 1_555
C142B C141B 1_555 1_555
C143B C141 1_555 1_555
C144B C152 1_555 1_555
C145B C144B 1_555 1_555
C146B C141B 1_555 1_555
C147B C146B 1_555 1_555
C148B C147B 1_555 1_555
C149B C142B 1_555 1_555
C150B C149B 1_555 1_555
C151B C150B 1_555 1_555
C152B C144 1_555 1_555
C153B S11B 1_555 1_555
C154B C145B 1_555 1_555
H121B C154B 1_555 1_555
C155B C147B 1_555 1_555
H122B C155B 1_555 1_555
C156B C155B 1_555 1_555
H123B C156B 1_555 1_555
C157B C156B 1_555 1_555
H124B C157B 1_555 1_555
C158B C148B 1_555 1_555
H125B C158B 1_555 1_555
C159B C150B 1_555 1_555
H126B C159B 1_555 1_555
C160B S12B 1_555 1_555
C161B C153B 1_555 1_555
H127B C161B 1_555 1_555
H128B C161B 1_555 1_555
C162B C161B 1_555 1_555
H129B C162B 1_555 1_555
H130B C162B 1_555 1_555
C163B C162B 1_555 1_555
H131B C163B 1_555 1_555
H132B C163B 1_555 1_555
C164B C163B 1_555 1_555
H133B C164B 1_555 1_555
H134B C164B 1_555 1_555
H135B C164B 1_555 1_555
C165B C160B 1_555 1_555
H136B C165B 1_555 1_555
H137B C165B 1_555 1_555
C166B C165B 1_555 1_555
H138B C166B 1_555 1_555
H139B C166B 1_555 1_555
C167B C166B 1_555 1_555
H140B C167B 1_555 1_555
H141B C167B 1_555 1_555
C168B C167B 1_555 1_555
H142B C168B 1_555 1_555
H143B C168B 1_555 1_555
H144B C168B 1_555 1_555
C9 C10 1_555 1_555
C12 C13 1_555 1_555
C15 C16 1_555 1_555
C18 C19 1_555 1_555
C21 C22 1_555 1_555
C23 C24 1_555 1_555
C25 C26 1_555 1_555
C29 C30 1_555 1_555
C31 C32 1_555 1_555
C33 C34 1_555 1_555
C37 C38 1_555 1_555
C39 C40 1_555 1_555
C65 C66 1_555 1_555
C68 C69 1_555 1_555
C71 C72 1_555 1_555
C74 C75 1_555 1_555
C77 C78 1_555 1_555
C79 C80 1_555 1_555
C81 C82 1_555 1_555
C85 C86 1_555 1_555
C87 C88 1_555 1_555
C89 C90 1_555 1_555
C93 C94 1_555 1_555
C95 C96 1_555 1_555
C120 C121 1_555 1_555
C125 C126 1_555 1_555
C129 C130 1_555 1_555
C131 C132 1_555 1_555
C148 C149 1_555 1_555
C153 C154 1_555 1_555
C157 C158 1_555 1_555
C159 C160 1_555 1_555
C173 C174 1_555 1_555
C114B C115B 1_555 1_555
C115B C124B 1_555 1_555
C117B C118B 1_555 1_555
C120B C121B 1_555 1_555
C123B C124B 1_555 1_555
C125B C126B 1_555 1_555
C129B C130B 1_555 1_555
C131B C132B 1_555 1_555
C142B C143B 1_555 1_555
C143B C152B 1_555 1_555
C145B C146B 1_555 1_555
C148B C149B 1_555 1_555
C151B C152B 1_555 1_555
C153B C154B 1_555 1_555
C157B C158B 1_555 1_555
C159B C160B 1_555 1_555

#END
