
#######################################################################
#
#                 Cambridge Crystallographic Data Centre
#                                CCDC 
#
#######################################################################
#
# If this CIF has been generated from an entry in the Cambridge 
# Structural Database, then it will include bibliographic, chemical, 
# crystal, experimental, refinement or atomic coordinate data resulting 
# from the CCDC's data processing and validation procedures.
#
#######################################################################

data_UVOMUO
_chemical_formula_moiety         'C56 H48 S4,C12 H4 N4'
_chemical_name_systematic        
"2,9,12,19-tetrabutyldibenzo[3,4:9,10]tristhieno [2',3':7,8;3'',2'':11,12;3''',2''':5,6]coroneno[1,2-b]thiophene 2,2'-cyclohexa-2,5-diene-1,4-diylidenedimalononitrile clathrate"
_symmetry_cell_setting           monoclinic
_symmetry_space_group_name_H-M   'P 21/c'
_symmetry_Int_Tables_number      14
_space_group_name_Hall           '-P 2ybc'
loop_
_symmetry_equiv_pos_site_id
_symmetry_equiv_pos_as_xyz
1 x,y,z
2 -x,1/2+y,1/2-z
3 -x,-y,-z
4 x,1/2-y,1/2+z
_cell_length_a                   13.742(2)
_cell_length_b                   21.483(4)
_cell_length_c                   17.611(3)
_cell_angle_alpha                90
_cell_angle_beta                 96.049(3)
_cell_angle_gamma                90
_cell_volume                     5170.16
_exptl_crystal_colour            black
_exptl_crystal_description       block
_cell_formula_units_Z            4
loop_
_atom_site_label
_atom_site_type_symbol
_atom_site_fract_x
_atom_site_fract_y
_atom_site_fract_z
S1 S 0.45089(6) 0.59264(4) 1.47002(4)
S2 S 0.24199(6) 0.59382(4) 1.40304(4)
S3 S 0.46909(5) 0.55316(3) 0.86461(4)
S4 S 0.67996(5) 0.55399(3) 0.93581(4)
C1 C 0.4265(2) 0.61410(12) 1.23791(14)
C2 C 0.35466(19) 0.61507(11) 1.17201(14)
C3 C 0.38681(18) 0.61042(11) 1.09679(14)
C4 C 0.48971(18) 0.60364(11) 1.08873(14)
C5 C 0.56067(18) 0.61424(12) 1.15374(14)
C6 C 0.52861(19) 0.61943(12) 1.22893(14)
C7 C 0.3960(2) 0.60951(12) 1.31231(14)
C8 C 0.2942(2) 0.60445(13) 1.31887(15)
C9 C 0.2233(2) 0.60801(13) 1.25538(15)
C10 C 0.25338(19) 0.61782(12) 1.18082(15)
C11 C 0.18606(19) 0.63256(12) 1.11366(15)
C12 C 0.21831(19) 0.62843(12) 1.03960(15)
C13 C 0.31728(18) 0.60814(11) 1.03176(14)
C14 C 0.34821(19) 0.58735(12) 0.96075(14)
C15 C 0.44815(19) 0.57944(11) 0.95447(13)
C16 C 0.52125(18) 0.58951(11) 1.01664(14)
C17 C 0.62386(18) 0.58157(12) 1.01294(14)
C18 C 0.69288(19) 0.59456(12) 1.07505(15)
C19 C 0.66059(19) 0.61665(12) 1.14436(14)
C20 C 0.72646(19) 0.64334(13) 1.20594(15)
C21 C 0.6965(2) 0.64721(13) 1.28021(15)
C22 C 0.5991(2) 0.62629(13) 1.29285(15)
C23 C 0.5696(2) 0.61468(12) 1.36728(15)
C24 C 0.4702(2) 0.60702(12) 1.37558(14)
C25 C 0.1245(2) 0.59160(14) 1.35545(17)
C26 C 0.1263(2) 0.59894(14) 1.27890(16)
H1 H 0.0689 0.5982 1.2438
C27 C 0.0910(2) 0.65678(14) 1.11914(17)
H2 H 0.0688 0.6613 1.1682
C28 C 0.0299(2) 0.67388(14) 1.05561(18)
H3 H -0.0345 0.6880 1.0611
C29 C 0.0621(2) 0.67053(14) 0.98328(17)
H4 H 0.0202 0.6829 0.9395
C30 C 0.1555(2) 0.64912(13) 0.97561(16)
H5 H 0.1780 0.6483 0.9264
C31 C 0.28973(19) 0.56785(12) 0.89163(14)
H6 H 0.2202 0.5686 0.8856
C32 C 0.34486(19) 0.54818(12) 0.83591(14)
C33 C 0.79526(19) 0.55639(12) 0.98745(15)
C34 C 0.79037(19) 0.57879(12) 1.05896(15)
H7 H 0.8462 0.5836 1.0951
C35 C 0.8151(2) 0.67211(14) 1.19092(18)
H8 H 0.8340 0.6712 1.1406
C36 C 0.8747(2) 0.70144(16) 1.2480(2)
H9 H 0.9343 0.7201 1.2371
C37 C 0.8467(2) 0.70352(16) 1.32211(19)
H10 H 0.8879 0.7230 1.3619
C38 C 0.7596(2) 0.67745(14) 1.33723(17)
H11 H 0.7411 0.6798 1.3876
C39 C 0.6284(2) 0.60528(13) 1.43958(16)
H12 H 0.6978 0.6073 1.4451
C40 C 0.5752(3) 0.59332(13) 1.49889(16)
C41 C 0.0391(2) 0.58326(17) 1.40058(18)
H13 H 0.0392 0.5400 1.4201
H14 H -0.0221 0.5893 1.3664
C42 C 0.0398(2) 0.62807(16) 1.46752(18)
H15 H 0.0356 0.6712 1.4476
H16 H 0.1029 0.6239 1.4999
C43 C -0.0433(2) 0.61737(17) 1.51661(19)
H17 H -0.1064 0.6252 1.4855
H18 H -0.0426 0.5733 1.5332
C44 C -0.0363(4) 0.6589(2) 1.5864(2)
H19 H -0.0920 0.6508 1.6155
H20 H -0.0371 0.7026 1.5704
H21 H 0.0248 0.6501 1.6185
C45 C 0.3111(2) 0.52444(13) 0.75757(15)
H22 H 0.2475 0.5030 0.7589
H23 H 0.3588 0.4935 0.7425
C46 C 0.2995(2) 0.57601(13) 0.69770(15)
H24 H 0.2441 0.6030 0.7083
H25 H 0.3594 0.6019 0.7026
C47 C 0.2814(2) 0.55225(14) 0.61588(15)
H26 H 0.2776 0.5883 0.5807
H27 H 0.3379 0.5265 0.6047
C48 C 0.1889(2) 0.51408(16) 0.59992(17)
H28 H 0.1788 0.5038 0.5454
H29 H 0.1330 0.5381 0.6141
H30 H 0.1951 0.4756 0.6299
C49 C 0.8843(2) 0.53237(14) 0.95516(16)
H31 H 0.8828 0.4863 0.9567
H32 H 0.9427 0.5461 0.9887
C50 C 0.8964(2) 0.55252(15) 0.87370(16)
H33 H 0.8942 0.5985 0.8703
H34 H 0.8418 0.5357 0.8385
C51 C 0.9935(2) 0.52916(17) 0.84972(17)
H35 H 1.0472 0.5434 0.8877
H36 H 0.9933 0.4831 0.8503
C52 C 1.0140(3) 0.5513(2) 0.7709(2)
H37 H 1.0772 0.5348 0.7592
H38 H 1.0157 0.5969 0.7701
H39 H 0.9622 0.5363 0.7327
C53 C 0.6064(3) 0.58046(16) 1.58240(18)
H40 H 0.5674 0.6070 1.6138
H41 H 0.5918 0.5365 1.5935
C54 C 0.7119(3) 0.5923(2) 1.6047(2)
H42 H 0.7278 0.6352 1.5898
H43 H 0.7510 0.5633 1.5765
C55 C 0.7412(3) 0.5841(2) 1.6915(2)
H44 H 0.7191 0.5427 1.7073
H45 H 0.8134 0.5852 1.7014
C56 C 0.6992(3) 0.63296(19) 1.73966(18)
H46 H 0.7226 0.6261 1.7935
H47 H 0.6276 0.6304 1.7329
H48 H 0.7198 0.6743 1.7240
N1 N 0.7691(2) 0.72187(15) 0.97800(18)
N2 N 0.5516(2) 0.76565(13) 1.12924(16)
N3 N 0.1022(2) 0.73256(16) 0.78642(19)
N4 N 0.3045(2) 0.72365(13) 0.61091(16)
C57 C 0.3571(2) 0.73712(12) 0.81215(16)
C58 C 0.4573(2) 0.72973(12) 0.79667(16)
H49 H 0.4720 0.7250 0.7455
C59 C 0.5309(2) 0.72950(13) 0.85432(16)
H50 H 0.5963 0.7233 0.8431
C60 C 0.5116(2) 0.73847(12) 0.93222(16)
C61 C 0.4113(2) 0.74705(13) 0.94738(16)
H51 H 0.3970 0.7539 0.9983
C62 C 0.3374(2) 0.74557(13) 0.89038(16)
H52 H 0.2718 0.7501 0.9019
C63 C 0.2809(2) 0.73487(13) 0.75386(17)
C64 C 0.1812(2) 0.73490(15) 0.77113(18)
C65 C 0.2952(2) 0.72910(13) 0.67499(17)
C66 C 0.5858(2) 0.74016(13) 0.99157(17)
C67 C 0.5661(2) 0.75387(14) 1.06825(17)
C68 C 0.6874(2) 0.72965(14) 0.98277(18)
loop_
_geom_bond_atom_site_label_1
_geom_bond_atom_site_label_2
_geom_bond_site_symmetry_1
_geom_bond_site_symmetry_2
S1 C24 1_555 1_555
S2 C8 1_555 1_555
S3 C15 1_555 1_555
S4 C17 1_555 1_555
C1 C2 1_555 1_555
C2 C3 1_555 1_555
C3 C4 1_555 1_555
C4 C5 1_555 1_555
C5 C6 1_555 1_555
C6 C1 1_555 1_555
C7 C1 1_555 1_555
C8 C7 1_555 1_555
C9 C8 1_555 1_555
C10 C2 1_555 1_555
C11 C10 1_555 1_555
C12 C11 1_555 1_555
C13 C3 1_555 1_555
C14 C13 1_555 1_555
C15 C14 1_555 1_555
C16 C4 1_555 1_555
C17 C16 1_555 1_555
C18 C17 1_555 1_555
C19 C5 1_555 1_555
C20 C19 1_555 1_555
C21 C20 1_555 1_555
C22 C6 1_555 1_555
C23 C22 1_555 1_555
C24 C7 1_555 1_555
C25 S2 1_555 1_555
C26 C9 1_555 1_555
H1 C26 1_555 1_555
C27 C11 1_555 1_555
H2 C27 1_555 1_555
C28 C27 1_555 1_555
H3 C28 1_555 1_555
C29 C28 1_555 1_555
H4 C29 1_555 1_555
C30 C12 1_555 1_555
H5 C30 1_555 1_555
C31 C14 1_555 1_555
H6 C31 1_555 1_555
C32 S3 1_555 1_555
C33 S4 1_555 1_555
C34 C18 1_555 1_555
H7 C34 1_555 1_555
C35 C20 1_555 1_555
H8 C35 1_555 1_555
C36 C35 1_555 1_555
H9 C36 1_555 1_555
C37 C36 1_555 1_555
H10 C37 1_555 1_555
C38 C21 1_555 1_555
H11 C38 1_555 1_555
C39 C23 1_555 1_555
H12 C39 1_555 1_555
C40 S1 1_555 1_555
C41 C25 1_555 1_555
H13 C41 1_555 1_555
H14 C41 1_555 1_555
C42 C41 1_555 1_555
H15 C42 1_555 1_555
H16 C42 1_555 1_555
C43 C42 1_555 1_555
H17 C43 1_555 1_555
H18 C43 1_555 1_555
C44 C43 1_555 1_555
H19 C44 1_555 1_555
H20 C44 1_555 1_555
H21 C44 1_555 1_555
C45 C32 1_555 1_555
H22 C45 1_555 1_555
H23 C45 1_555 1_555
C46 C45 1_555 1_555
H24 C46 1_555 1_555
H25 C46 1_555 1_555
C47 C46 1_555 1_555
H26 C47 1_555 1_555
H27 C47 1_555 1_555
C48 C47 1_555 1_555
H28 C48 1_555 1_555
H29 C48 1_555 1_555
H30 C48 1_555 1_555
C49 C33 1_555 1_555
H31 C49 1_555 1_555
H32 C49 1_555 1_555
C50 C49 1_555 1_555
H33 C50 1_555 1_555
H34 C50 1_555 1_555
C51 C50 1_555 1_555
H35 C51 1_555 1_555
H36 C51 1_555 1_555
C52 C51 1_555 1_555
H37 C52 1_555 1_555
H38 C52 1_555 1_555
H39 C52 1_555 1_555
C53 C40 1_555 1_555
H40 C53 1_555 1_555
H41 C53 1_555 1_555
C54 C53 1_555 1_555
H42 C54 1_555 1_555
H43 C54 1_555 1_555
C55 C54 1_555 1_555
H44 C55 1_555 1_555
H45 C55 1_555 1_555
C56 C55 1_555 1_555
H46 C56 1_555 1_555
H47 C56 1_555 1_555
H48 C56 1_555 1_555
N1 C68 1_555 1_555
N2 C67 1_555 1_555
N3 C64 1_555 1_555
N4 C65 1_555 1_555
C57 C58 1_555 1_555
C58 H49 1_555 1_555
C59 C58 1_555 1_555
H50 C59 1_555 1_555
C60 C59 1_555 1_555
C61 C60 1_555 1_555
H51 C61 1_555 1_555
C62 C57 1_555 1_555
H52 C62 1_555 1_555
C63 C57 1_555 1_555
C64 C63 1_555 1_555
C65 C63 1_555 1_555
C66 C60 1_555 1_555
C67 C66 1_555 1_555
C68 C66 1_555 1_555
C9 C10 1_555 1_555
C12 C13 1_555 1_555
C15 C16 1_555 1_555
C18 C19 1_555 1_555
C21 C22 1_555 1_555
C23 C24 1_555 1_555
C25 C26 1_555 1_555
C29 C30 1_555 1_555
C31 C32 1_555 1_555
C33 C34 1_555 1_555
C37 C38 1_555 1_555
C39 C40 1_555 1_555
C61 C62 1_555 1_555

#END
