
#######################################################################
#
#                 Cambridge Crystallographic Data Centre
#                                CCDC 
#
#######################################################################
#
# If this CIF has been generated from an entry in the Cambridge 
# Structural Database, then it will include bibliographic, chemical, 
# crystal, experimental, refinement or atomic coordinate data resulting 
# from the CCDC's data processing and validation procedures.
#
#######################################################################

data_UVOYEK
_chemical_formula_moiety         'C12 H15 N3 O3'
_chemical_name_systematic        
(3R,4S)-4-Azido-6-methoxy-2,2-dimethylchroman-3-ol
_symmetry_cell_setting           orthorhombic
_symmetry_space_group_name_H-M   'P 21 21 21'
_symmetry_Int_Tables_number      19
_space_group_name_Hall           'P 2ac 2ab'
loop_
_symmetry_equiv_pos_site_id
_symmetry_equiv_pos_as_xyz
1 x,y,z
2 1/2-x,-y,1/2+z
3 -x,1/2+y,1/2-z
4 1/2+x,1/2-y,-z
_cell_length_a                   8.9026(2)
_cell_length_b                   9.2288(2)
_cell_length_c                   14.7549(4)
_cell_angle_alpha                90
_cell_angle_beta                 90
_cell_angle_gamma                90
_cell_volume                     1212.27
_exptl_crystal_colour            colorless
_exptl_crystal_description       block
_cell_formula_units_Z            4
loop_
_atom_site_label
_atom_site_type_symbol
_atom_site_fract_x
_atom_site_fract_y
_atom_site_fract_z
O1 O 0.29384(9) 0.37798(9) 0.84706(6)
C1 C 0.27522(13) 0.58369(12) 0.99616(7)
C2 C 0.41674(12) 0.40346(12) 0.90122(7)
C3 C 0.54488(13) 0.51163(13) 1.02824(8)
C4 C 0.67294(13) 0.43515(13) 1.00632(8)
C5 C 0.54707(14) 0.32767(12) 0.87905(8)
C6 C 0.41460(12) 0.49651(11) 0.97579(7)
C7 C 0.13832(12) 0.51675(12) 0.95080(7)
C8 C 0.21424(13) 0.61581(14) 0.79614(8)
C9 C 0.67470(14) 0.34229(13) 0.93218(9)
C10 C 0.03919(13) 0.40248(14) 0.80859(8)
C11 C 0.17151(12) 0.48183(12) 0.85078(7)
O2 O 0.01625(9) 0.61529(10) 0.95771(6)
O3 O 0.80807(9) 0.44947(11) 1.05192(7)
C12 C 0.80135(13) 0.48364(14) 1.14648(8)
N1 N 0.25277(11) 0.58826(12) 1.09623(6)
N2 N 0.18325(12) 0.69550(11) 1.12365(6)
N3 N 0.12281(16) 0.78752(15) 1.15871(7)
H1 H 0.309(2) 0.6562(18) 0.8175(13)
H2 H 0.134(2) 0.689(2) 0.8043(14)
H3 H 0.762(2) 0.291(2) 0.9194(11)
H4 H 0.5461(18) 0.5791(18) 1.0792(12)
H5 H 0.763(2) 0.572(2) 1.1576(14)
H6 H 0.549(2) 0.264(2) 0.8280(12)
H7 H 0.026(2) 0.312(2) 0.8468(13)
H8 H -0.050(2) 0.463(2) 0.8081(13)
H9 H 0.231(2) 0.593(2) 0.7302(15)
H10 H 0.738(2) 0.413(2) 1.1786(14)
H11 H 0.2895(17) 0.6806(17) 0.9752(10)
H12 H 0.9069(19) 0.4791(18) 1.1697(12)
H13 H 0.1115(17) 0.4258(17) 0.9820(11)
H14 H 0.065(2) 0.375(2) 0.7493(14)
H15 H -0.062(2) 0.563(2) 0.9857(14)
loop_
_geom_bond_atom_site_label_1
_geom_bond_atom_site_label_2
_geom_bond_site_symmetry_1
_geom_bond_site_symmetry_2
O1 C2 1_555 1_555
C1 C6 1_555 1_555
C2 C5 1_555 1_555
C3 C4 1_555 1_555
C4 C9 1_555 1_555
C5 C9 1_555 1_555
C6 C2 1_555 1_555
C7 C1 1_555 1_555
C8 C11 1_555 1_555
C9 H3 1_555 1_555
C10 C11 1_555 1_555
C11 O1 1_555 1_555
O2 C7 1_555 1_555
O3 C4 1_555 1_555
C12 O3 1_555 1_555
N1 C1 1_555 1_555
N2 N1 1_555 1_555
N3 N2 1_555 1_555
H1 C8 1_555 1_555
H2 C8 1_555 1_555
H4 C3 1_555 1_555
H5 C12 1_555 1_555
H6 C5 1_555 1_555
H7 C10 1_555 1_555
H8 C10 1_555 1_555
H9 C8 1_555 1_555
H10 C12 1_555 1_555
H11 C1 1_555 1_555
H12 C12 1_555 1_555
H13 C7 1_555 1_555
H14 C10 1_555 1_555
H15 O2 1_555 1_555
C3 C6 1_555 1_555
C7 C11 1_555 1_555

#END
