
#######################################################################
#
#                 Cambridge Crystallographic Data Centre
#                                CCDC 
#
#######################################################################
#
# If this CIF has been generated from an entry in the Cambridge 
# Structural Database, then it will include bibliographic, chemical, 
# crystal, experimental, refinement or atomic coordinate data resulting 
# from the CCDC's data processing and validation procedures.
#
#######################################################################

data_UVURIN
_chemical_formula_moiety         'C12 H13 N3'
_chemical_name_systematic        
1-(Dimethylamino)-2-methyl-1H-indole-3-carbonitrile
_symmetry_cell_setting           triclinic
_symmetry_space_group_name_H-M   'P -1'
_symmetry_Int_Tables_number      2
_space_group_name_Hall           '-P 1'
loop_
_symmetry_equiv_pos_site_id
_symmetry_equiv_pos_as_xyz
1 x,y,z
2 -x,-y,-z
_cell_length_a                   8.8268(18)
_cell_length_b                   8.9764(18)
_cell_length_c                   16.501(3)
_cell_angle_alpha                99.27(3)
_cell_angle_beta                 96.72(3)
_cell_angle_gamma                118.09(3)
_cell_volume                     1110.08
_exptl_crystal_colour            colorless
_exptl_crystal_description       block
_cell_formula_units_Z            4
loop_
_atom_site_label
_atom_site_type_symbol
_atom_site_fract_x
_atom_site_fract_y
_atom_site_fract_z
C1 C 0.1519(3) -0.0803(4) 0.09392(18)
C2 C 0.0560(4) -0.2202(4) 0.1288(2)
H1 H 0.0284 -0.3328 0.1033
C3 C 0.0037(4) -0.1861(4) 0.2018(2)
H2 H -0.0598 -0.2775 0.2257
C4 C 0.0433(4) -0.0189(4) 0.2408(2)
H3 H 0.0057 -0.0007 0.2899
C5 C 0.1373(4) 0.1203(4) 0.20781(18)
H4 H 0.1639 0.2322 0.2338
C6 C 0.1914(3) 0.0879(4) 0.13418(18)
C7 C 0.3015(3) 0.1074(4) 0.01680(18)
C8 C 0.2236(4) -0.0640(4) 0.01995(18)
C9 C 0.2163(4) -0.1991(4) -0.0417(2)
C10 C 0.2355(4) 0.4390(4) 0.0984(2)
H5 H 0.1661 0.3963 0.0419
H6 H 0.2953 0.5640 0.1135
H7 H 0.1601 0.3946 0.1363
C11 C 0.5031(4) 0.4657(4) 0.1800(2)
H8 H 0.4517 0.4448 0.2281
H9 H 0.5683 0.5888 0.1848
H10 H 0.5809 0.4189 0.1776
C12 C 0.3881(4) 0.1916(4) -0.0479(2)
H11 H 0.3080 0.2100 -0.0838
H12 H 0.4208 0.1177 -0.0809
H13 H 0.4915 0.3016 -0.0207
N1 N 0.2845(3) 0.1994(3) 0.08636(14)
N2 N 0.3642(3) 0.3815(3) 0.10359(15)
N3 N 0.2110(4) -0.3083(4) -0.0908(2)
C13 C 1.1012(4) 0.3684(4) 0.43664(17)
C14 C 1.2663(4) 0.4905(4) 0.4271(2)
H14 H 1.3684 0.5170 0.4642
C15 C 1.2759(5) 0.5705(4) 0.3623(2)
H15 H 1.3848 0.6532 0.3558
C16 C 1.1229(5) 0.5282(4) 0.3063(2)
H16 H 1.1322 0.5862 0.2636
C17 C 0.9578(5) 0.4037(4) 0.31147(19)
H17 H 0.8571 0.3742 0.2724
C18 C 0.9496(4) 0.3248(4) 0.37770(17)
C19 C 0.8629(4) 0.1649(4) 0.47435(17)
C20 C 1.0431(4) 0.2676(4) 0.49700(17)
C21 C 0.7397(4) 0.0406(4) 0.51675(19)
H18 H 0.8056 0.0232 0.5612
H19 H 0.6625 -0.0688 0.4766
H20 H 0.6713 0.0869 0.5399
C22 C 1.1500(4) 0.2739(4) 0.56977(19)
C23 C 0.6034(5) -0.0050(5) 0.2778(2)
H21 H 0.6607 0.0680 0.2417
H22 H 0.4799 -0.0766 0.2527
H23 H 0.6535 -0.0778 0.2850
C24 C 0.5509(4) 0.2178(5) 0.3562(2)
H24 H 0.6117 0.3018 0.3254
H25 H 0.5624 0.2771 0.4124
H26 H 0.4286 0.1487 0.3286
N4 N 0.8065(3) 0.1981(3) 0.40189(14)
N5 N 0.6279(3) 0.1037(3) 0.35957(15)
N6 N 1.2393(4) 0.2807(4) 0.62855(18)
loop_
_geom_bond_atom_site_label_1
_geom_bond_atom_site_label_2
_geom_bond_site_symmetry_1
_geom_bond_site_symmetry_2
C1 C2 1_555 1_555
C2 H1 1_555 1_555
C3 C2 1_555 1_555
H2 C3 1_555 1_555
C4 C3 1_555 1_555
H3 C4 1_555 1_555
C5 C4 1_555 1_555
H4 C5 1_555 1_555
C6 C1 1_555 1_555
C7 C8 1_555 1_555
C8 C1 1_555 1_555
C9 C8 1_555 1_555
C10 H5 1_555 1_555
H6 C10 1_555 1_555
H7 C10 1_555 1_555
C11 H8 1_555 1_555
H9 C11 1_555 1_555
H10 C11 1_555 1_555
C12 C7 1_555 1_555
H11 C12 1_555 1_555
H12 C12 1_555 1_555
H13 C12 1_555 1_555
C13 C14 1_555 1_555
C14 H14 1_555 1_555
C15 C14 1_555 1_555
H15 C15 1_555 1_555
C16 C15 1_555 1_555
H16 C16 1_555 1_555
C17 C16 1_555 1_555
H17 C17 1_555 1_555
C18 C13 1_555 1_555
C19 C20 1_555 1_555
C20 C13 1_555 1_555
C21 C19 1_555 1_555
H18 C21 1_555 1_555
H19 C21 1_555 1_555
H20 C21 1_555 1_555
C22 C20 1_555 1_555
C23 H21 1_555 1_555
H22 C23 1_555 1_555
H23 C23 1_555 1_555
C24 H24 1_555 1_555
H25 C24 1_555 1_555
H26 C24 1_555 1_555
N1 C6 1_555 1_555
N2 C10 1_555 1_555
N3 C9 1_555 1_555
N4 C18 1_555 1_555
N5 C23 1_555 1_555
N6 C22 1_555 1_555
C5 C6 1_555 1_555
C7 N1 1_555 1_555
C11 N2 1_555 1_555
C17 C18 1_555 1_555
C19 N4 1_555 1_555
C24 N5 1_555 1_555
N1 N2 1_555 1_555
N4 N5 1_555 1_555

#END
