
#######################################################################
#
#                 Cambridge Crystallographic Data Centre
#                                CCDC 
#
#######################################################################
#
# If this CIF has been generated from an entry in the Cambridge 
# Structural Database, then it will include bibliographic, chemical, 
# crystal, experimental, refinement or atomic coordinate data resulting 
# from the CCDC's data processing and validation procedures.
#
#######################################################################

data_UVUSAG
_chemical_formula_moiety         'C16 H19 N5'
_chemical_name_systematic        
2,4-Diamino-6-(4-cyclopentylidenebutyl)pyridine-3,5-dicarbonitrile
_symmetry_cell_setting           monoclinic
_symmetry_space_group_name_H-M   'C 2/c'
_symmetry_Int_Tables_number      15
_space_group_name_Hall           '-C 2yn'
loop_
_symmetry_equiv_pos_site_id
_symmetry_equiv_pos_as_xyz
1 x,y,z
2 -x,y,1/2-z
3 1/2+x,1/2+y,z
4 1/2-x,1/2+y,1/2-z
5 -x,-y,-z
6 x,-y,1/2+z
7 1/2-x,1/2-y,-z
8 1/2+x,1/2-y,1/2+z
_cell_length_a                   9.0838(14)
_cell_length_b                   24.279(2)
_cell_length_c                   14.5751(18)
_cell_angle_alpha                90
_cell_angle_beta                 102.451(2)
_cell_angle_gamma                90
_cell_volume                     3138.87
_exptl_crystal_colour            'pale yellow'
_exptl_crystal_description       block
_cell_formula_units_Z            8
loop_
_atom_site_label
_atom_site_type_symbol
_atom_site_fract_x
_atom_site_fract_y
_atom_site_fract_z
N1 N 0.4896(3) 0.07355(11) 1.12388(17)
N2 N 0.6988(3) 0.05700(12) 1.23599(18)
H1 H 0.6444 0.0624 1.2767
H2 H 0.7928 0.0491 1.2543
N3 N 0.9971(3) 0.02303(14) 1.1251(2)
N4 N 0.7289(3) 0.05221(12) 0.91381(17)
H3 H 0.8226 0.0431 0.9278
H4 H 0.6840 0.0566 0.8560
N5 N 0.3551(4) 0.08063(15) 0.7912(2)
C1 C 0.6380(3) 0.06091(13) 1.1456(2)
C2 C 0.7215(3) 0.05283(13) 1.0766(2)
C3 C 0.6535(3) 0.05946(13) 0.9816(2)
C4 C 0.4994(3) 0.07344(13) 0.9614(2)
C5 C 0.4233(3) 0.07915(13) 1.0338(2)
C6 C 0.2590(3) 0.09180(14) 1.0138(2)
H5 H 0.2162 0.0762 1.0636
H6 H 0.2111 0.0738 0.9556
C7 C 0.2220(4) 0.15173(17) 1.0057(3)
H7 H 0.2590 0.1673 0.9536
H8 H 0.2725 0.1704 1.0627
C8 C 0.0524(4) 0.1615(2) 0.9900(4)
H9 H 0.0027 0.1384 0.9382
H10 H 0.0193 0.1494 1.0457
C9 C 0.0019(5) 0.2172(2) 0.9701(5)
H11 H 0.0465 0.2437 1.0132
C10 C -0.1006(5) 0.2350(2) 0.8977(4)
C11 C -0.1513(6) 0.2932(2) 0.8840(5)
H12 H -0.1793 0.3075 0.9400
H13 H -0.0722 0.3162 0.8692
C12 C -0.2827(7) 0.2915(3) 0.8047(6)
H14 H -0.3751 0.2911 0.8278
H15 H -0.2836 0.3238 0.7654
C13 C -0.2720(8) 0.2418(3) 0.7505(6)
H16 H -0.2179 0.2491 0.7012
H17 H -0.3715 0.2279 0.7222
C14 C -0.1878(7) 0.2016(2) 0.8202(5)
H18 H -0.2573 0.1775 0.8429
H19 H -0.1210 0.1793 0.7918
C15 C 0.8744(4) 0.03671(14) 1.1034(2)
C16 C 0.4197(3) 0.07813(15) 0.8671(2)
loop_
_geom_bond_atom_site_label_1
_geom_bond_atom_site_label_2
_geom_bond_site_symmetry_1
_geom_bond_site_symmetry_2
N1 C1 1_555 1_555
N2 H1 1_555 1_555
H2 N2 1_555 1_555
N3 C15 1_555 1_555
N4 H3 1_555 1_555
H4 N4 1_555 1_555
N5 C16 1_555 1_555
C1 N2 1_555 1_555
C2 C1 1_555 1_555
C3 N4 1_555 1_555
C4 C3 1_555 1_555
C5 N1 1_555 1_555
C6 C5 1_555 1_555
H5 C6 1_555 1_555
H6 C6 1_555 1_555
C7 C6 1_555 1_555
H7 C7 1_555 1_555
H8 C7 1_555 1_555
C8 C7 1_555 1_555
H9 C8 1_555 1_555
H10 C8 1_555 1_555
C9 C8 1_555 1_555
H11 C9 1_555 1_555
C10 C9 1_555 1_555
C11 C10 1_555 1_555
H12 C11 1_555 1_555
H13 C11 1_555 1_555
C12 C11 1_555 1_555
H14 C12 1_555 1_555
H15 C12 1_555 1_555
C13 C12 1_555 1_555
H16 C13 1_555 1_555
H17 C13 1_555 1_555
C14 C10 1_555 1_555
H18 C14 1_555 1_555
H19 C14 1_555 1_555
C15 C2 1_555 1_555
C16 C4 1_555 1_555
C2 C3 1_555 1_555
C4 C5 1_555 1_555
C13 C14 1_555 1_555

#END
