
#######################################################################
#
#                 Cambridge Crystallographic Data Centre
#                                CCDC 
#
#######################################################################
#
# If this CIF has been generated from an entry in the Cambridge 
# Structural Database, then it will include bibliographic, chemical, 
# crystal, experimental, refinement or atomic coordinate data resulting 
# from the CCDC's data processing and validation procedures.
#
#######################################################################

data_UWAHOR
_chemical_formula_moiety         'C23 H27 Br1 N2 O1'
_chemical_name_systematic        
8-bromo-1-(2,6-diisopropylbenzyl)-1,2,3,9b-tetrahydro-5H-imidazo[2,1-a]isoindol-5-one
_symmetry_cell_setting           orthorhombic
_symmetry_space_group_name_H-M   'P 21 21 21'
_symmetry_Int_Tables_number      19
_space_group_name_Hall           'P 2ac 2ab'
loop_
_symmetry_equiv_pos_site_id
_symmetry_equiv_pos_as_xyz
1 x,y,z
2 1/2-x,-y,1/2+z
3 -x,1/2+y,1/2-z
4 1/2+x,1/2-y,-z
_cell_length_a                   6.2860(7)
_cell_length_b                   10.3353(11)
_cell_length_c                   34.353(4)
_cell_angle_alpha                90
_cell_angle_beta                 90
_cell_angle_gamma                90
_cell_volume                     2231.84
_cell_formula_units_Z            4
loop_
_atom_site_label
_atom_site_type_symbol
_atom_site_fract_x
_atom_site_fract_y
_atom_site_fract_z
Br1 Br 0.7514(2) -0.3719(1) -0.6767(1)
O1 O -0.0310(9) -0.8251(6) -0.7293(2)
N1 N 0.4361(9) -0.9196(5) -0.6533(2)
N2 N 0.2903(10) -0.9175(6) -0.7129(2)
C1 C 0.4807(11) -0.8741(7) -0.6927(2)
C2 C 0.4748(12) -0.7301(7) -0.6965(2)
C3 C 0.6185(12) -0.6352(7) -0.6856(2)
C4 C 0.5629(13) -0.5051(7) -0.6903(2)
C5 C 0.3665(15) -0.4703(8) -0.7086(3)
C6 C 0.2249(16) -0.5674(8) -0.7199(2)
C7 C 0.2722(15) -0.6967(7) -0.7136(2)
C8 C 0.1565(14) -0.8175(9) -0.7200(2)
C9 C 0.2082(15) -1.0357(8) -0.6968(2)
C10 C 0.3574(15) -1.0531(8) -0.6622(2)
C11 C 0.6126(12) -0.9115(7) -0.6252(2)
C12 C 0.5405(12) -0.9295(8) -0.5819(2)
C13 C 0.4074(14) -0.8322(7) -0.5664(2)
C14 C 0.3399(16) -0.8473(9) -0.5295(3)
C15 C 0.4080(20) -0.9499(13) -0.5085(2)
C16 C 0.5356(16) -1.0452(10) -0.5234(3)
C17 C 0.6011(14) -1.0359(8) -0.5599(2)
C18 C 0.3302(15) -0.7118(8) -0.5897(3)
C19 C 0.4040(20) -0.5862(10) -0.5751(4)
C20 C 0.0951(15) -0.7080(13) -0.5969(4)
C21 C 0.7320(17) -1.1451(7) -0.5753(2)
C22 C 0.6604(19) -1.2759(9) -0.5674(4)
C23 C 0.9719(17) -1.1198(12) -0.5615(4)
H1 H 0.6110 -0.9118 -0.7035
H2 H 0.7503 -0.6577 -0.6754
H3 H 0.3335 -0.3838 -0.7129
H4 H 0.0974 -0.5450 -0.7319
H5 H 0.2197 -1.1070 -0.7151
H6 H 0.0613 -1.0265 -0.6886
H7 H 0.2818 -1.0890 -0.6400
H8 H 0.4746 -1.1100 -0.6688
H9 H 0.6811 -0.8278 -0.6278
H10 H 0.7170 -0.9774 -0.6315
H11 H 0.2470 -0.7876 -0.5185
H12 H 0.3662 -0.9561 -0.4826
H13 H 0.5756 -1.1153 -0.5081
H14 H 0.3950 -0.7207 -0.6155
H15 H 0.3550 -0.5189 -0.5922
H16 H 0.5561 -0.5855 -0.5741
H17 H 0.3474 -0.5720 -0.5495
H18 H 0.0548 -0.6227 -0.6051
H19 H 0.0208 -0.7297 -0.5734
H20 H 0.0593 -0.7692 -0.6169
H21 H 0.7321 -1.1358 -0.6037
H22 H 0.5193 -1.2873 -0.5775
H23 H 0.6594 -1.2905 -0.5398
H24 H 0.7550 -1.3364 -0.5796
H25 H 1.0654 -1.1789 -0.5746
H26 H 0.9821 -1.1327 -0.5338
H27 H 1.0117 -1.0325 -0.5677
loop_
_geom_bond_atom_site_label_1
_geom_bond_atom_site_label_2
_geom_bond_site_symmetry_1
_geom_bond_site_symmetry_2
Br1 C4 1_555 1_555
O1 C8 1_555 1_555
N1 C1 1_555 1_555
N2 C1 1_555 1_555
C1 C2 1_555 1_555
C2 C3 1_555 1_555
C3 C4 1_555 1_555
C4 C5 1_555 1_555
C5 C6 1_555 1_555
C6 C7 1_555 1_555
C7 C2 1_555 1_555
C8 N2 1_555 1_555
C9 N2 1_555 1_555
C10 N1 1_555 1_555
C11 N1 1_555 1_555
C12 C11 1_555 1_555
C13 C12 1_555 1_555
C14 C13 1_555 1_555
C15 C14 1_555 1_555
C16 C15 1_555 1_555
C17 C12 1_555 1_555
C18 C13 1_555 1_555
C19 C18 1_555 1_555
C20 C18 1_555 1_555
C21 C17 1_555 1_555
C22 C21 1_555 1_555
C23 C21 1_555 1_555
H1 C1 1_555 1_555
H2 C3 1_555 1_555
H3 C5 1_555 1_555
H4 C6 1_555 1_555
H5 C9 1_555 1_555
H6 C9 1_555 1_555
H7 C10 1_555 1_555
H8 C10 1_555 1_555
H9 C11 1_555 1_555
H10 C11 1_555 1_555
H11 C14 1_555 1_555
H12 C15 1_555 1_555
H13 C16 1_555 1_555
H14 C18 1_555 1_555
H15 C19 1_555 1_555
H16 C19 1_555 1_555
H17 C19 1_555 1_555
H18 C20 1_555 1_555
H19 C20 1_555 1_555
H20 C20 1_555 1_555
H21 C21 1_555 1_555
H22 C22 1_555 1_555
H23 C22 1_555 1_555
H24 C22 1_555 1_555
H25 C23 1_555 1_555
H26 C23 1_555 1_555
H27 C23 1_555 1_555
C7 C8 1_555 1_555
C9 C10 1_555 1_555
C16 C17 1_555 1_555

#END
