
#######################################################################
#
#                 Cambridge Crystallographic Data Centre
#                                CCDC 
#
#######################################################################
#
# If this CIF has been generated from an entry in the Cambridge 
# Structural Database, then it will include bibliographic, chemical, 
# crystal, experimental, refinement or atomic coordinate data resulting 
# from the CCDC's data processing and validation procedures.
#
#######################################################################

data_UWANIQ
_chemical_formula_moiety         'C27 H41 N3 O2'
_chemical_name_systematic        
11,15a,15c,17b-Tetramethyl-1,2,3,4,6,6a,6b,7,7a,9,10,11,12,15a,15b,15c,16,17,17a,17b-icosahydronaphtho[2''',1''':4'',5'']indeno[1'',2'':4',5']furo[3',2':4,5][1,2,3]triazolo[1,5-a]pyridin-3-ol
_symmetry_cell_setting           monoclinic
_symmetry_space_group_name_H-M   'C 2'
_symmetry_Int_Tables_number      5
_space_group_name_Hall           'C 2y'
loop_
_symmetry_equiv_pos_site_id
_symmetry_equiv_pos_as_xyz
1 x,y,z
2 -x,y,-z
3 1/2+x,1/2+y,z
4 1/2-x,1/2+y,-z
_cell_length_a                   22.065(2)
_cell_length_b                   8.2792(9)
_cell_length_c                   14.0810(13)
_cell_angle_alpha                90
_cell_angle_beta                 108.33(3)
_cell_angle_gamma                90
_cell_volume                     2441.81
_cell_formula_units_Z            4
loop_
_atom_site_label
_atom_site_type_symbol
_atom_site_fract_x
_atom_site_fract_y
_atom_site_fract_z
O1 O 0.04994(11) 0.5355(4) 0.85168(18)
O2 O -0.27053(13) 1.3076(5) 0.2258(2)
H1 H -0.2596 1.3859 0.1994
N1 N 0.16052(15) 0.4851(4) 0.9342(2)
N2 N 0.19828(14) 0.5233(5) 0.8801(2)
N3 N 0.18591(14) 0.6615(4) 0.8403(2)
C1 C 0.1421(3) 0.1893(7) 1.1254(4)
H2 H 0.1789 0.1230 1.1326
H3 H 0.1048 0.1360 1.0825
H4 H 0.1370 0.2068 1.1899
C2 C 0.15057(19) 0.3496(6) 1.0801(3)
H5 H 0.1890 0.4014 1.1246
C3 C 0.15949(18) 0.3283(5) 0.9784(3)
H6 H 0.1993 0.2721 0.9856
H7 H 0.1248 0.2643 0.9356
C4 C 0.1539(2) 0.8931(5) 0.9192(3)
H8 H 0.1863 0.8698 0.9815
H9 H 0.1191 0.9484 0.9320
H10 H 0.1716 0.9601 0.8789
C5 C 0.12999(17) 0.7361(5) 0.8642(3)
C6 C 0.10805(16) 0.5998(5) 0.9201(3)
C7 C 0.0994(2) 0.6250(6) 1.0204(3)
H11 H 0.0614 0.6890 1.0127
H12 H 0.1357 0.6842 1.0633
C8 C 0.0934(2) 0.4634(7) 1.0694(3)
H13 H 0.0546 0.4100 1.0297
H14 H 0.0896 0.4837 1.1352
C9 C 0.07658(16) 0.7507(4) 0.7626(2)
H15 H 0.0967 0.7636 0.7102
C10 C 0.04584(18) 0.5822(5) 0.7515(3)
H16 H 0.0689 0.5058 0.7223
C11 C -0.02365(19) 0.6024(5) 0.6841(3)
H17 H -0.0337 0.5273 0.6284
H18 H -0.0533 0.5858 0.7215
C12 C -0.01079(17) 0.8815(6) 0.8240(3)
H19 H -0.0187 0.7752 0.8446
H20 H -0.0503 0.9400 0.8007
H21 H 0.0181 0.9376 0.8797
C13 C 0.01872(16) 0.8686(4) 0.7397(3)
C14 C 0.03126(16) 1.0364(5) 0.7042(3)
H22 H 0.0563 1.0257 0.6590
H23 H 0.0558 1.0997 0.7613
C15 C -0.03142(18) 1.1256(5) 0.6504(3)
H24 H -0.0534 1.1489 0.6986
H25 H -0.0212 1.2279 0.6256
C16 C -0.07690(15) 1.0310(5) 0.5625(3)
H26 H -0.0538 1.0173 0.5139
C17 C -0.08968(16) 0.8582(5) 0.5934(2)
H27 H -0.1154 0.8644 0.6388
C18 C -0.02579(17) 0.7777(4) 0.6476(3)
H28 H -0.0025 0.7766 0.5987
C19 C -0.17583(19) 1.1751(6) 0.5771(3)
H29 H -0.2142 1.2309 0.5404
H30 H -0.1493 1.2458 0.6271
H31 H -0.1866 1.0816 0.6089
C20 C -0.13986(16) 1.1226(5) 0.5055(3)
C21 C -0.12327(17) 1.2747(5) 0.4548(3)
H32 H -0.1032 1.3532 0.5063
H33 H -0.0923 1.2451 0.4219
C22 C -0.18031(19) 1.3546(5) 0.3781(3)
H34 H -0.2094 1.3956 0.4117
H35 H -0.1655 1.4454 0.3478
C23 C -0.21534(18) 1.2375(5) 0.2975(3)
H36 H -0.1861 1.1993 0.2625
C24 C -0.23799(18) 1.0938(5) 0.3440(3)
H37 H -0.2576 1.0155 0.2923
H38 H -0.2701 1.1294 0.3732
C25 C -0.18312(16) 1.0131(5) 0.4249(3)
C26 C -0.17493(17) 0.8541(5) 0.4236(3)
H39 H -0.2020 0.7969 0.3702
C27 C -0.12575(18) 0.7598(5) 0.5012(3)
H40 H -0.0952 0.7161 0.4712
H41 H -0.1465 0.6695 0.5222
loop_
_geom_bond_atom_site_label_1
_geom_bond_atom_site_label_2
_geom_bond_site_symmetry_1
_geom_bond_site_symmetry_2
O1 C6 1_555 1_555
O2 H1 1_555 1_555
N1 N2 1_555 1_555
N2 N3 1_555 1_555
N3 C5 1_555 1_555
C1 H2 1_555 1_555
H3 C1 1_555 1_555
H4 C1 1_555 1_555
C2 C1 1_555 1_555
H5 C2 1_555 1_555
C3 N1 1_555 1_555
H6 C3 1_555 1_555
H7 C3 1_555 1_555
C4 H8 1_555 1_555
H9 C4 1_555 1_555
H10 C4 1_555 1_555
C5 C4 1_555 1_555
C6 N1 1_555 1_555
C7 C6 1_555 1_555
H11 C7 1_555 1_555
H12 C7 1_555 1_555
C8 C2 1_555 1_555
H13 C8 1_555 1_555
H14 C8 1_555 1_555
C9 C5 1_555 1_555
H15 C9 1_555 1_555
C10 O1 1_555 1_555
H16 C10 1_555 1_555
C11 C10 1_555 1_555
H17 C11 1_555 1_555
H18 C11 1_555 1_555
C12 H19 1_555 1_555
H20 C12 1_555 1_555
H21 C12 1_555 1_555
C13 C9 1_555 1_555
C14 C13 1_555 1_555
H22 C14 1_555 1_555
H23 C14 1_555 1_555
C15 C14 1_555 1_555
H24 C15 1_555 1_555
H25 C15 1_555 1_555
C16 C15 1_555 1_555
H26 C16 1_555 1_555
C17 C16 1_555 1_555
H27 C17 1_555 1_555
C18 C11 1_555 1_555
H28 C18 1_555 1_555
C19 H29 1_555 1_555
H30 C19 1_555 1_555
H31 C19 1_555 1_555
C20 C16 1_555 1_555
C21 C20 1_555 1_555
H32 C21 1_555 1_555
H33 C21 1_555 1_555
C22 C21 1_555 1_555
H34 C22 1_555 1_555
H35 C22 1_555 1_555
C23 O2 1_555 1_555
H36 C23 1_555 1_555
C24 C23 1_555 1_555
H37 C24 1_555 1_555
H38 C24 1_555 1_555
C25 C20 1_555 1_555
C26 C25 1_555 1_555
H39 C26 1_555 1_555
C27 C17 1_555 1_555
H40 C27 1_555 1_555
H41 C27 1_555 1_555
C2 C3 1_555 1_555
C5 C6 1_555 1_555
C7 C8 1_555 1_555
C9 C10 1_555 1_555
C12 C13 1_555 1_555
C13 C18 1_555 1_555
C17 C18 1_555 1_555
C19 C20 1_555 1_555
C22 C23 1_555 1_555
C24 C25 1_555 1_555
C26 C27 1_555 1_555

#END
