
#######################################################################
#
#                 Cambridge Crystallographic Data Centre
#                                CCDC 
#
#######################################################################
#
# If this CIF has been generated from an entry in the Cambridge 
# Structural Database, then it will include bibliographic, chemical, 
# crystal, experimental, refinement or atomic coordinate data resulting 
# from the CCDC's data processing and validation procedures.
#
#######################################################################

data_UWAPAK
_chemical_formula_moiety         'C8 H8 N14 O16,2(C3 H6 O1)'
_chemical_name_systematic        
'2,4,6,8,12-pentanitro-10-(2,2,2-trinitroethyl)-2,4,6,8,10,12-hexaazatetracyclo[5.5.0.0^3,11^.0^5,9^]dodecane acetone solvate'
_symmetry_cell_setting           triclinic
_symmetry_space_group_name_H-M   'P -1'
_symmetry_Int_Tables_number      2
_space_group_name_Hall           '-P 1'
loop_
_symmetry_equiv_pos_site_id
_symmetry_equiv_pos_as_xyz
1 x,y,z
2 -x,-y,-z
_cell_length_a                   8.008(3)
_cell_length_b                   11.839(4)
_cell_length_c                   14.309(5)
_cell_angle_alpha                94.427(3)
_cell_angle_beta                 99.918(6)
_cell_angle_gamma                101.707(4)
_cell_volume                     1299.64
_exptl_crystal_colour            colorless
_exptl_crystal_description       chunk
_cell_formula_units_Z            2
loop_
_atom_site_label
_atom_site_type_symbol
_atom_site_fract_x
_atom_site_fract_y
_atom_site_fract_z
O1 O 0.06518(15) 0.16390(11) 0.47511(8)
O2 O 0.28244(16) 0.31295(11) 0.49131(8)
O3 O -0.02443(15) 0.05181(11) 0.76469(9)
O4 O 0.11262(16) 0.20360(12) 0.86688(9)
O5 O 0.40001(17) -0.15425(11) 0.56177(9)
O6 O 0.66231(17) -0.04639(11) 0.58616(8)
O7 O 0.23227(16) -0.16847(10) 0.78712(9)
O8 O 0.39617(16) -0.05747(11) 0.91150(8)
O9 O 0.69910(16) 0.36002(10) 0.59115(8)
O10 O 0.83468(15) 0.22183(11) 0.62689(9)
O11 O 0.62818(17) 0.47427(11) 0.86112(9)
O12 O 0.86183(17) 0.40640(12) 0.86238(10)
O13 O 0.81298(15) 0.18659(10) 0.96550(8)
O14 O 0.95101(17) 0.34348(11) 1.05752(9)
O15 O 0.6093(2) 0.36948(12) 1.11566(9)
O16 O 0.72518(17) 0.52596(12) 1.05859(10)
N1 N 0.29313(17) 0.18112(12) 0.59383(9)
N2 N 0.18870(17) 0.17867(12) 0.72737(9)
N3 N 0.45412(18) 0.02413(12) 0.63842(10)
N4 N 0.34324(17) 0.01783(12) 0.77540(9)
N5 N 0.58883(18) 0.22645(12) 0.67901(10)
N6 N 0.47800(17) 0.21853(11) 0.83099(9)
N7 N 0.20516(19) 0.22413(13) 0.51536(10)
N8 N 0.08704(18) 0.14240(13) 0.79058(11)
N9 N 0.5103(2) -0.06659(13) 0.59406(10)
N10 N 0.32480(18) -0.07725(12) 0.82727(10)
N11 N 0.71590(18) 0.27189(13) 0.62703(10)
N12 N 0.73084(19) 0.41613(12) 0.89085(10)
N13 N 0.82807(18) 0.28530(12) 1.00053(10)
N14 N 0.6709(2) 0.42205(14) 1.05525(11)
C1 C 0.1908(2) 0.10054(14) 0.64394(11)
H1 H 0.0711 0.0680 0.6060
C2 C 0.2904(2) 0.00104(15) 0.67142(11)
H2 H 0.2186 -0.0785 0.6469
C3 C 0.4261(2) 0.26432(14) 0.66420(11)
H3 H 0.4420 0.3444 0.6445
C4 C 0.3593(2) 0.25953(14) 0.76089(11)
H4 H 0.3439 0.3376 0.7849
C5 C 0.5812(2) 0.11101(14) 0.70687(11)
H5 H 0.6985 0.0918 0.7160
C6 C 0.5071(2) 0.10689(13) 0.80200(11)
H6 H 0.5893 0.0827 0.8535
C7 C 0.5014(2) 0.25923(14) 0.93124(11)
H7 H 0.4928 0.1919 0.9684
H8 H 0.4074 0.2990 0.9413
C8 C 0.6786(2) 0.34352(14) 0.96795(11)
O17 O 0.61209(15) 0.88409(10) 0.77452(8)
C9 C 0.8021(2) 0.75677(17) 0.76023(14)
H9 H 0.7474 0.7461 0.6925
H10 H 0.7779 0.6826 0.7867
H11 H 0.9280 0.7845 0.7669
C10 C 0.7304(2) 0.84401(15) 0.81297(12)
C11 C 0.8134(2) 0.88053(18) 0.91542(12)
H12 H 0.7494 0.9318 0.9442
H13 H 0.9341 0.9220 0.9198
H14 H 0.8113 0.8117 0.9495
O18 O 0.82008(17) 0.57101(11) 0.32753(10)
C12 C 0.6106(3) 0.41166(17) 0.35491(15)
H15 H 0.5958 0.4109 0.4215
H16 H 0.5905 0.3317 0.3247
H17 H 0.5270 0.4512 0.3204
C13 C 0.7905(2) 0.47419(15) 0.35210(12)
C14 C 0.9304(3) 0.41156(18) 0.38256(16)
H18 H 0.9195 0.3447 0.3353
H19 H 0.9199 0.3847 0.4448
H20 H 1.0440 0.4641 0.3876
loop_
_geom_bond_atom_site_label_1
_geom_bond_atom_site_label_2
_geom_bond_site_symmetry_1
_geom_bond_site_symmetry_2
O1 N7 1_555 1_555
O2 N7 1_555 1_555
O3 N8 1_555 1_555
O4 N8 1_555 1_555
O5 N9 1_555 1_555
O6 N9 1_555 1_555
O7 N10 1_555 1_555
O8 N10 1_555 1_555
O9 N11 1_555 1_555
O10 N11 1_555 1_555
O11 N12 1_555 1_555
O12 N12 1_555 1_555
O13 N13 1_555 1_555
O14 N13 1_555 1_555
O15 N14 1_555 1_555
O16 N14 1_555 1_555
O17 C10 1_555 1_555
O18 C13 1_555 1_555
N1 N7 1_555 1_555
N2 N8 1_555 1_555
N3 N9 1_555 1_555
N4 N10 1_555 1_555
N5 N11 1_555 1_555
N6 C4 1_555 1_555
N12 C8 1_555 1_555
N13 C8 1_555 1_555
N14 C8 1_555 1_555
C1 N1 1_555 1_555
H1 C1 1_555 1_555
C2 N3 1_555 1_555
H2 C2 1_555 1_555
C3 N1 1_555 1_555
H3 C3 1_555 1_555
C4 N2 1_555 1_555
H4 C4 1_555 1_555
C5 N3 1_555 1_555
H5 C5 1_555 1_555
C6 N4 1_555 1_555
H6 C6 1_555 1_555
C7 N6 1_555 1_555
H7 C7 1_555 1_555
H8 C7 1_555 1_555
C8 C7 1_555 1_555
C9 H9 1_555 1_555
H10 C9 1_555 1_555
H11 C9 1_555 1_555
C10 C9 1_555 1_555
C11 C10 1_555 1_555
H12 C11 1_555 1_555
H13 C11 1_555 1_555
H14 C11 1_555 1_555
C12 H15 1_555 1_555
H16 C12 1_555 1_555
H17 C12 1_555 1_555
C13 C12 1_555 1_555
C14 C13 1_555 1_555
H18 C14 1_555 1_555
H19 C14 1_555 1_555
H20 C14 1_555 1_555
N2 C1 1_555 1_555
N4 C2 1_555 1_555
N5 C3 1_555 1_555
N5 C5 1_555 1_555
N6 C6 1_555 1_555
C1 C2 1_555 1_555
C3 C4 1_555 1_555
C5 C6 1_555 1_555

#END
