
#######################################################################
#
#                 Cambridge Crystallographic Data Centre
#                                CCDC 
#
#######################################################################
#
# If this CIF has been generated from an entry in the Cambridge 
# Structural Database, then it will include bibliographic, chemical, 
# crystal, experimental, refinement or atomic coordinate data resulting 
# from the CCDC's data processing and validation procedures.
#
#######################################################################

data_UWASOC
_chemical_compound_source        'branches of Eurya chinensis R. Br. (Theaceae)'
_chemical_name_common            'euryachin A methanol solvate hydrate'
_chemical_formula_moiety         'C20 H24 O4,0.75(C1 H4 O1),0.25(H2 O1)'
_chemical_name_systematic        
'(1R,2S,5R,10S,13R,17S)-1,13-dimethyl-12-oxo-11-oxapentacyclo[8.6.1.1^2,5^.0^2,8^.0^13,17^]octadeca-6,8-diene-6-carboxylic acid methanol solvate hydrate'
_symmetry_cell_setting           orthorhombic
_symmetry_space_group_name_H-M   'P 21 21 21'
_symmetry_Int_Tables_number      19
_space_group_name_Hall           'P 2ac 2ab'
loop_
_symmetry_equiv_pos_site_id
_symmetry_equiv_pos_as_xyz
1 x,y,z
2 1/2-x,-y,1/2+z
3 1/2+x,1/2-y,-z
4 -x,1/2+y,1/2-z
_cell_length_a                   6.27813(14)
_cell_length_b                   10.3446(2)
_cell_length_c                   27.8319(6)
_cell_angle_alpha                90
_cell_angle_beta                 90
_cell_angle_gamma                90
_cell_volume                     1807.54
_exptl_crystal_colour            colorless
_exptl_crystal_description       block
_cell_formula_units_Z            4
loop_
_atom_site_label
_atom_site_type_symbol
_atom_site_fract_x
_atom_site_fract_y
_atom_site_fract_z
O1 O 0.6620(2) 0.39979(13) 0.05958(5)
O2 O 0.5955(2) 0.46853(14) -0.01456(5)
C1 C 0.6483(3) 0.51208(19) 0.17903(7)
C2 C 0.4799(3) 0.61555(18) 0.17053(7)
C3 C 0.7580(3) 0.5161(2) 0.22533(7)
H1 H 0.8658 0.4543 0.2321
O3 O 0.9153(3) 0.49606(18) 0.31656(6)
H2 H 0.9753 0.5031 0.3434
C4 C 0.2136(4) 0.7189(2) 0.04790(7)
H3 H 0.0886 0.7738 0.0406
H4 H 0.3399 0.7591 0.0328
O4 O 0.7852(4) 0.6893(2) 0.33599(6)
C5 C 0.1788(3) 0.5844(2) 0.02601(7)
H5 H 0.0264 0.5618 0.0298
H6 H 0.2082 0.5900 -0.0089
C6 C 0.3649(3) 0.48660(18) 0.10029(7)
H7 H 0.2404 0.4576 0.1199
C7 C 0.5468(3) 0.39106(19) 0.10613(7)
H8 H 0.4854 0.3022 0.1092
C8 C 0.2464(3) 0.7142(2) 0.10253(7)
H9 H 0.2766 0.8024 0.1146
H10 H 0.1142 0.6833 0.1182
C9 C 0.6872(3) 0.41538(19) 0.14812(7)
H11 H 0.8073 0.3612 0.1532
C10 C 0.7086(4) 0.6063(2) 0.25852(7)
C11 C 0.6328(3) 0.67508(19) 0.09039(7)
H12 H 0.7571 0.6266 0.1018
H13 H 0.6516 0.7670 0.0977
H14 H 0.6181 0.6637 0.0556
C12 C 0.1937(4) 0.3442(2) 0.03634(8)
H15 H 0.1659 0.3368 0.0018
H16 H 0.0584 0.3429 0.0539
H17 H 0.2823 0.2714 0.0468
C13 C 0.4308(3) 0.62448(18) 0.11571(7)
C14 C 0.3118(3) 0.47309(18) 0.04664(7)
C15 C 0.8064(4) 0.6033(2) 0.30717(8)
C16 C 0.5335(3) 0.45134(18) 0.02609(7)
C17 C 0.5483(4) 0.7086(2) 0.24738(8)
H18 H 0.5672 0.7868 0.2681
C18 C 0.5603(4) 0.7420(2) 0.19385(7)
H19 H 0.7081 0.7620 0.1839
H20 H 0.4669 0.8160 0.1858
C19 C 0.2831(3) 0.5831(2) 0.20301(7)
H21 H 0.1501 0.6148 0.1880
H22 H 0.2711 0.4886 0.2078
C20 C 0.3219(4) 0.6521(2) 0.25146(8)
H23 H 0.2159 0.7216 0.2566
H24 H 0.3129 0.5900 0.2785
O5 O 0.8843(3) -0.01423(18) 0.10114(6)
H25 H 0.9617 0.0057 0.0776
C21 C 0.7161(8) 0.0628(4) 0.10234(12)
O6 O 0.4374(10) 0.0445(6) 0.0854(2)
H26? H 0.3813 0.0785 0.1111
H27? H 0.3369 0.0144 0.0670
H28? H 0.6020 0.0257 0.0827
H29? H 0.7550 0.1480 0.0896
H30? H 0.6669 0.0719 0.1356
loop_
_geom_bond_atom_site_label_1
_geom_bond_atom_site_label_2
_geom_bond_site_symmetry_1
_geom_bond_site_symmetry_2
O1 C7 1_555 1_555
O2 C16 1_555 1_555
C1 C2 1_555 1_555
C2 C13 1_555 1_555
C3 C1 1_555 1_555
H1 C3 1_555 1_555
O3 H2 1_555 1_555
C4 H3 1_555 1_555
H4 C4 1_555 1_555
O4 C15 1_555 1_555
C5 C4 1_555 1_555
H5 C5 1_555 1_555
H6 C5 1_555 1_555
C6 H7 1_555 1_555
C7 C6 1_555 1_555
H8 C7 1_555 1_555
C8 C4 1_555 1_555
H9 C8 1_555 1_555
H10 C8 1_555 1_555
C9 C1 1_555 1_555
H11 C9 1_555 1_555
C10 C3 1_555 1_555
C11 H12 1_555 1_555
H13 C11 1_555 1_555
H14 C11 1_555 1_555
C12 H15 1_555 1_555
H16 C12 1_555 1_555
H17 C12 1_555 1_555
C13 C6 1_555 1_555
C14 C5 1_555 1_555
C15 O3 1_555 1_555
C16 O1 1_555 1_555
C17 C10 1_555 1_555
H18 C17 1_555 1_555
C18 C2 1_555 1_555
H19 C18 1_555 1_555
H20 C18 1_555 1_555
C19 C2 1_555 1_555
H21 C19 1_555 1_555
H22 C19 1_555 1_555
C20 C17 1_555 1_555
H23 C20 1_555 1_555
H24 C20 1_555 1_555
O5 H25 1_555 1_555
C21 O5 1_555 1_555
C6 C14 1_555 1_555
C7 C9 1_555 1_555
C8 C13 1_555 1_555
C10 C15 1_555 1_555
C11 C13 1_555 1_555
C12 C14 1_555 1_555
C14 C16 1_555 1_555
C17 C18 1_555 1_555
C19 C20 1_555 1_555

#END
