
#######################################################################
#
#                 Cambridge Crystallographic Data Centre
#                                CCDC 
#
#######################################################################
#
# If this CIF has been generated from an entry in the Cambridge 
# Structural Database, then it will include bibliographic, chemical, 
# crystal, experimental, refinement or atomic coordinate data resulting 
# from the CCDC's data processing and validation procedures.
#
#######################################################################

data_UWEQEU
_chemical_formula_moiety         'C15 H24 O3'
_chemical_name_systematic        
'6,6-dimethyldecahydronaphtho[1,2-c]furan-9a(3H)-carboxylic acid'
_symmetry_cell_setting           monoclinic
_symmetry_space_group_name_H-M   'P 21'
_symmetry_Int_Tables_number      4
_space_group_name_Hall           'P 2yb'
loop_
_symmetry_equiv_pos_site_id
_symmetry_equiv_pos_as_xyz
1 x,y,z
2 -x,1/2+y,-z
_cell_length_a                   9.97920(10)
_cell_length_b                   6.68480(10)
_cell_length_c                   10.2099(7)
_cell_angle_alpha                90
_cell_angle_beta                 96.735(7)
_cell_angle_gamma                90
_cell_volume                     676.392
_exptl_crystal_colour            colorless
_exptl_crystal_description       prism
_cell_formula_units_Z            2
loop_
_atom_site_label
_atom_site_type_symbol
_atom_site_fract_x
_atom_site_fract_y
_atom_site_fract_z
O1 O 0.2383(3) 0.9622(4) -0.1702(2)
O2 O 0.5684(3) 0.7121(4) 0.2463(3)
H1 H 0.617(4) 0.611(5) 0.251(4)
O3 O 0.4340(3) 0.4537(4) 0.1915(3)
C1 C 0.2516(4) 0.7492(7) -0.1927(3)
H2 H 0.3298 0.7229 -0.2381
H3 H 0.1720 0.6985 -0.2461
C2 C 0.2676(4) 0.6495(5) -0.0584(3)
H4 H 0.3285 0.5344 -0.0582
C3 C 0.1321(4) 0.5850(6) -0.0155(3)
H5 H 0.0664 0.6903 -0.0376
H6 H 0.1007 0.4664 -0.0645
C4 C 0.1397(4) 0.5406(5) 0.1311(3)
H7 H 0.1980 0.4262 0.1523
H8 H 0.0504 0.5073 0.1532
C5 C 0.1945(3) 0.7214(5) 0.2128(3)
H9 H 0.1348 0.8318 0.1809
C6 C 0.1796(4) 0.7074(5) 0.3632(3)
C7 C 0.2550(5) 0.5301(6) 0.4309(4)
H10 H 0.2256 0.4088 0.3860
H11 H 0.2365 0.5229 0.5210
H12 H 0.3502 0.5470 0.4284
C8 C 0.2616(4) 1.0009(5) -0.0311(3)
H13 H 0.1769 1.0204 0.0049
H14 H 0.3168 1.1195 -0.0136
C9 C 0.3343(3) 0.8175(5) 0.0290(3)
H15 H 0.4284 0.8268 0.0108
C10 C 0.2301(4) 0.9047(6) 0.4291(4)
H16 H 0.1667 1.0101 0.3997
H17 H 0.2306 0.8913 0.5237
C11 C 0.3705(4) 0.9680(6) 0.4004(3)
H18 H 0.3936 1.0957 0.4421
H19 H 0.4364 0.8700 0.4365
C12 C 0.3741(4) 0.9856(5) 0.2524(3)
H20 H 0.4640 1.0251 0.2354
H21 H 0.3118 1.0893 0.2177
C13 C 0.3363(3) 0.7877(4) 0.1805(3)
C14 C 0.4466(3) 0.6308(5) 0.2104(3)
C15 C 0.0302(4) 0.6888(8) 0.3810(4)
H22 H 0.0191 0.7027 0.4727
H23 H -0.0026 0.5602 0.3501
H24 H -0.0199 0.7919 0.3313
loop_
_geom_bond_atom_site_label_1
_geom_bond_atom_site_label_2
_geom_bond_site_symmetry_1
_geom_bond_site_symmetry_2
O1 C1 1_555 1_555
O2 H1 1_555 1_555
O3 C14 1_555 1_555
C1 H2 1_555 1_555
H3 C1 1_555 1_555
C2 C1 1_555 1_555
H4 C2 1_555 1_555
C3 C2 1_555 1_555
H5 C3 1_555 1_555
H6 C3 1_555 1_555
C4 C3 1_555 1_555
H7 C4 1_555 1_555
H8 C4 1_555 1_555
C5 C4 1_555 1_555
H9 C5 1_555 1_555
C6 C5 1_555 1_555
C7 C6 1_555 1_555
H10 C7 1_555 1_555
H11 C7 1_555 1_555
H12 C7 1_555 1_555
C8 O1 1_555 1_555
H13 C8 1_555 1_555
H14 C8 1_555 1_555
C9 C2 1_555 1_555
H15 C9 1_555 1_555
C10 C6 1_555 1_555
H16 C10 1_555 1_555
H17 C10 1_555 1_555
C11 C10 1_555 1_555
H18 C11 1_555 1_555
H19 C11 1_555 1_555
C12 C11 1_555 1_555
H20 C12 1_555 1_555
H21 C12 1_555 1_555
C13 C5 1_555 1_555
C14 O2 1_555 1_555
C15 C6 1_555 1_555
H22 C15 1_555 1_555
H23 C15 1_555 1_555
H24 C15 1_555 1_555
C8 C9 1_555 1_555
C9 C13 1_555 1_555
C12 C13 1_555 1_555
C13 C14 1_555 1_555

#END
