
#######################################################################
#
#                 Cambridge Crystallographic Data Centre
#                                CCDC 
#
#######################################################################
#
# If this CIF has been generated from an entry in the Cambridge 
# Structural Database, then it will include bibliographic, chemical, 
# crystal, experimental, refinement or atomic coordinate data resulting 
# from the CCDC's data processing and validation procedures.
#
#######################################################################

data_UWESUL
_chemical_formula_moiety         'C20 H18 Cl1 N1 O3'
_chemical_name_systematic        
1-Acetyl-2-(1-(3-chlorophenyl)-3-oxobutyl)-1,2-dihydro-3H-indol-3-one
_symmetry_cell_setting           orthorhombic
_symmetry_space_group_name_H-M   'P 21 21 21'
_symmetry_Int_Tables_number      19
_space_group_name_Hall           'P 2ac 2ab'
loop_
_symmetry_equiv_pos_site_id
_symmetry_equiv_pos_as_xyz
1 x,y,z
2 1/2-x,-y,1/2+z
3 -x,1/2+y,1/2-z
4 1/2+x,1/2-y,-z
_cell_length_a                   8.305(3)
_cell_length_b                   12.951(5)
_cell_length_c                   16.349(6)
_cell_angle_alpha                90
_cell_angle_beta                 90
_cell_angle_gamma                90
_cell_volume                     1758.47
_exptl_crystal_colour            colorless
_exptl_crystal_description       block
_cell_formula_units_Z            4
loop_
_atom_site_label
_atom_site_type_symbol
_atom_site_fract_x
_atom_site_fract_y
_atom_site_fract_z
C1 C 0.5497(3) 0.45270(18) 0.19804(14)
C2 C 0.7042(4) 0.4762(2) 0.17257(16)
H1 H 0.7932 0.4627 0.2054
C3 C 0.7203(4) 0.5204(2) 0.09625(19)
H2 H 0.8232 0.5365 0.0778
C4 C 0.5910(4) 0.5421(2) 0.04602(18)
H3 H 0.6077 0.5725 -0.0048
C5 C 0.4378(4) 0.5185(2) 0.07139(16)
H4 H 0.3491 0.5330 0.0386
C6 C 0.4193(3) 0.47233(19) 0.14771(14)
C7 C 0.2724(4) 0.43510(19) 0.18754(14)
C8 C 0.3251(3) 0.3803(2) 0.26580(13)
H5 H 0.2669 0.4086 0.3129
C9 C 0.5896(4) 0.4038(2) 0.34244(16)
C10 C 0.5080(4) 0.3667(2) 0.41882(16)
H6 H 0.5367 0.2960 0.4287
H7 H 0.3934 0.3721 0.4124
H8 H 0.5417 0.4084 0.4643
C11 C 0.2978(3) 0.26186(19) 0.26046(14)
H9 H 0.3540 0.2310 0.3072
C12 C 0.3739(3) 0.21723(19) 0.18379(14)
C13 C 0.2930(4) 0.2105(2) 0.11007(15)
H10 H 0.1851 0.2294 0.1071
C14 C 0.3714(5) 0.1758(2) 0.04063(17)
H11 H 0.3155 0.1728 -0.0086
C15 C 0.5298(5) 0.1458(2) 0.04282(17)
H12 H 0.5818 0.1223 -0.0040
C16 C 0.6090(4) 0.1516(2) 0.11672(18)
C17 C 0.5341(4) 0.1863(2) 0.18653(15)
H13 H 0.5906 0.1890 0.2356
C18 C 0.1191(3) 0.2348(2) 0.26980(15)
H14 H 0.0570 0.2792 0.2339
H15 H 0.1030 0.1642 0.2518
C19 C 0.0544(3) 0.2454(2) 0.35550(17)
C20 C -0.1114(4) 0.2042(3) 0.3697(2)
H16 H -0.1080 0.1301 0.3708
H17 H -0.1811 0.2266 0.3264
H18 H -0.1514 0.2293 0.4210
Cl1 Cl 0.81079(11) 0.11321(7) 0.12213(5)
N1 N 0.4982(2) 0.40669(15) 0.27164(12)
O1 O 0.1339(2) 0.44008(16) 0.16313(11)
O2 O 0.7279(3) 0.43164(19) 0.34200(13)
O3 O 0.1317(3) 0.2833(2) 0.41002(12)
loop_
_geom_bond_atom_site_label_1
_geom_bond_atom_site_label_2
_geom_bond_site_symmetry_1
_geom_bond_site_symmetry_2
C1 C2 1_555 1_555
C2 H1 1_555 1_555
C3 C2 1_555 1_555
H2 C3 1_555 1_555
C4 C3 1_555 1_555
H3 C4 1_555 1_555
C5 C4 1_555 1_555
H4 C5 1_555 1_555
C6 C1 1_555 1_555
C7 C6 1_555 1_555
C8 C7 1_555 1_555
H5 C8 1_555 1_555
C9 C10 1_555 1_555
C10 H6 1_555 1_555
H7 C10 1_555 1_555
H8 C10 1_555 1_555
C11 C8 1_555 1_555
H9 C11 1_555 1_555
C12 C11 1_555 1_555
C13 C12 1_555 1_555
H10 C13 1_555 1_555
C14 C13 1_555 1_555
H11 C14 1_555 1_555
C15 C14 1_555 1_555
H12 C15 1_555 1_555
C16 C15 1_555 1_555
C17 C12 1_555 1_555
H13 C17 1_555 1_555
C18 C11 1_555 1_555
H14 C18 1_555 1_555
H15 C18 1_555 1_555
C19 C18 1_555 1_555
C20 C19 1_555 1_555
H16 C20 1_555 1_555
H17 C20 1_555 1_555
H18 C20 1_555 1_555
Cl1 C16 1_555 1_555
N1 C1 1_555 1_555
O1 C7 1_555 1_555
O2 C9 1_555 1_555
O3 C19 1_555 1_555
C5 C6 1_555 1_555
C8 N1 1_555 1_555
C9 N1 1_555 1_555
C16 C17 1_555 1_555

#END
