
#######################################################################
#
#                 Cambridge Crystallographic Data Centre
#                                CCDC 
#
#######################################################################
#
# If this CIF has been generated from an entry in the Cambridge 
# Structural Database, then it will include bibliographic, chemical, 
# crystal, experimental, refinement or atomic coordinate data resulting 
# from the CCDC's data processing and validation procedures.
#
#######################################################################

data_UWETUM
_chemical_formula_moiety         'C21 H16 N4'
_chemical_name_systematic        
2-(4-(Dimethylamino)phenyl)-4-phenylbuta-1,3-diene-1,1,4-tricarbonitrile
_symmetry_cell_setting           monoclinic
_symmetry_space_group_name_H-M   'P 21/n'
_symmetry_Int_Tables_number      14
_space_group_name_Hall           '-P 2yn'
loop_
_symmetry_equiv_pos_site_id
_symmetry_equiv_pos_as_xyz
1 x,y,z
2 1/2-x,1/2+y,1/2-z
3 -x,-y,-z
4 1/2+x,1/2-y,1/2+z
_cell_length_a                   7.5396(11)
_cell_length_b                   10.5438(12)
_cell_length_c                   22.3962(15)
_cell_angle_alpha                90
_cell_angle_beta                 98.277(11)
_cell_angle_gamma                90
_cell_volume                     1761.86
_exptl_crystal_colour            orange
_cell_formula_units_Z            4
loop_
_atom_site_label
_atom_site_type_symbol
_atom_site_fract_x
_atom_site_fract_y
_atom_site_fract_z
C1 C 0.9907(2) 0.20195(17) 0.16058(8)
C2 C 1.1050(2) 0.10211(17) 0.15765(7)
C3 C 1.1639(2) 0.05801(17) 0.10309(8)
N1 N 1.2140(2) 0.01869(16) 0.06088(7)
C4 C 1.1836(3) 0.03745(19) 0.21106(9)
N2 N 1.2499(3) -0.0137(2) 0.25368(8)
C5 C 0.9583(2) 0.24147(17) 0.22132(8)
H1 H 1.0588 0.2552 0.2507
C6 C 0.7962(2) 0.25919(16) 0.23764(7)
C7 C 0.7636(2) 0.29673(17) 0.29904(8)
C8 C 0.8861(3) 0.37032(19) 0.33590(8)
H2 H 0.9903 0.3990 0.3216
C9 C 0.8565(3) 0.4021(2) 0.39363(9)
H3 H 0.9405 0.4521 0.4183
C10 C 0.7045(3) 0.36055(19) 0.41483(9)
H4 H 0.6853 0.3809 0.4543
C11 C 0.5808(3) 0.2893(2) 0.37841(9)
H5 H 0.4762 0.2619 0.3929
C12 C 0.6083(3) 0.25739(18) 0.32066(9)
H6 H 0.5223 0.2091 0.2959
C13 C 0.6370(2) 0.23337(18) 0.19527(8)
N3 N 0.5061(2) 0.2103(2) 0.16516(8)
C14 C 0.9044(2) 0.27144(16) 0.10819(7)
C15 C 0.8465(2) 0.21443(17) 0.05200(8)
H7 H 0.8586 0.1262 0.0480
C16 C 0.7727(2) 0.28408(18) 0.00274(8)
H8 H 0.7321 0.2424 -0.0338
C17 C 0.7570(2) 0.41753(18) 0.00616(8)
C18 C 0.8135(2) 0.47435(18) 0.06287(8)
H9 H 0.8042 0.5628 0.0669
C19 C 0.8816(2) 0.40357(18) 0.11206(8)
H10 H 0.9138 0.4442 0.1494
N4 N 0.6880(2) 0.48896(16) -0.04243(7)
C20 C 0.6333(3) 0.4324(2) -0.10138(9)
H11 H 0.7385 0.4038 -0.1179
H12 H 0.5696 0.4948 -0.1282
H13 H 0.5553 0.3606 -0.0974
C21 C 0.6924(3) 0.6270(2) -0.03852(10)
H14 H 0.6195 0.6548 -0.0087
H15 H 0.6457 0.6629 -0.0775
H16 H 0.8150 0.6550 -0.0268
loop_
_geom_bond_atom_site_label_1
_geom_bond_atom_site_label_2
_geom_bond_site_symmetry_1
_geom_bond_site_symmetry_2
C1 C2 1_555 1_555
C2 C3 1_555 1_555
C3 N1 1_555 1_555
C4 C2 1_555 1_555
N2 C4 1_555 1_555
C5 C1 1_555 1_555
H1 C5 1_555 1_555
C6 C5 1_555 1_555
C7 C6 1_555 1_555
C8 C7 1_555 1_555
H2 C8 1_555 1_555
C9 C8 1_555 1_555
H3 C9 1_555 1_555
C10 C9 1_555 1_555
H4 C10 1_555 1_555
C11 C10 1_555 1_555
H5 C11 1_555 1_555
C12 C7 1_555 1_555
H6 C12 1_555 1_555
C13 C6 1_555 1_555
N3 C13 1_555 1_555
C14 C1 1_555 1_555
C15 C14 1_555 1_555
H7 C15 1_555 1_555
C16 C15 1_555 1_555
H8 C16 1_555 1_555
C17 C16 1_555 1_555
C18 C17 1_555 1_555
H9 C18 1_555 1_555
C19 C14 1_555 1_555
H10 C19 1_555 1_555
N4 C17 1_555 1_555
C20 N4 1_555 1_555
H11 C20 1_555 1_555
H12 C20 1_555 1_555
H13 C20 1_555 1_555
C21 N4 1_555 1_555
H14 C21 1_555 1_555
H15 C21 1_555 1_555
H16 C21 1_555 1_555
C11 C12 1_555 1_555
C18 C19 1_555 1_555

#END
