
#######################################################################
#
#                 Cambridge Crystallographic Data Centre
#                                CCDC 
#
#######################################################################
#
# If this CIF has been generated from an entry in the Cambridge 
# Structural Database, then it will include bibliographic, chemical, 
# crystal, experimental, refinement or atomic coordinate data resulting 
# from the CCDC's data processing and validation procedures.
#
#######################################################################

data_UWEWEZ
_chemical_formula_moiety         'C27 H20 F3 N3'
_chemical_name_systematic        
(1-(4-(Dimethylamino)phenyl)-2-phenyl-3-(4-(trifluoromethyl)phenyl)prop-2-en-1-ylidene)malononitrile
_symmetry_cell_setting           triclinic
_symmetry_space_group_name_H-M   'P -1'
_symmetry_Int_Tables_number      2
_space_group_name_Hall           '-P 1'
loop_
_symmetry_equiv_pos_site_id
_symmetry_equiv_pos_as_xyz
1 x,y,z
2 -x,-y,-z
_cell_length_a                   8.4794(3)
_cell_length_b                   10.6526(4)
_cell_length_c                   13.5062(5)
_cell_angle_alpha                87.982(2)
_cell_angle_beta                 79.5732(14)
_cell_angle_gamma                67.358(2)
_cell_volume                     1106.57
_exptl_crystal_colour            'pale yellow'
_exptl_crystal_description       plate
_cell_formula_units_Z            2
loop_
_atom_site_label
_atom_site_type_symbol
_atom_site_fract_x
_atom_site_fract_y
_atom_site_fract_z
F1 F 0.3834(5) 0.8541(3) -0.02266(15)
F2 F 0.1470(3) 0.8453(2) 0.0376(3)
F3 F 0.3763(3) 0.71608(16) 0.08732(14)
N1 N 0.1391(3) 1.7784(2) 0.42986(17)
N2 N 0.2471(3) 1.4979(2) 0.18359(16)
N3 N 0.2403(3) 1.4419(2) 0.85812(13)
C1 C 0.1841(3) 1.6650(2) 0.40756(17)
C2 C 0.2360(3) 1.5260(2) 0.37471(15)
C3 C 0.2691(2) 1.4178(2) 0.43624(15)
C4 C 0.3091(3) 1.2845(2) 0.38464(14)
C5 C 0.1843(3) 1.2652(2) 0.34767(15)
C6 C 0.2076(2) 1.1508(2) 0.28005(15)
C7 C 0.1339(3) 1.1823(2) 0.19328(16)
C8 C 0.1620(3) 1.0816(2) 0.12271(17)
C9 C 0.2598(3) 0.9475(2) 0.13990(16)
C10 C 0.3300(3) 0.9136(2) 0.22686(16)
C11 C 0.3039(3) 1.0152(2) 0.29651(16)
C12 C 0.2436(3) 1.5085(2) 0.26859(17)
C13 C 0.2872(4) 0.8399(3) 0.0643(2)
C14 C 0.2693(2) 1.4246(2) 0.54347(15)
C15 C 0.3045(3) 1.5240(2) 0.59108(15)
C16 C 0.2984(3) 1.5286(2) 0.69332(16)
C17 C 0.2524(3) 1.4346(2) 0.75596(15)
C18 C 0.2204(3) 1.3326(2) 0.70904(16)
C19 C 0.2300(3) 1.3275(2) 0.60637(15)
C20 C 0.2821(4) 1.5430(3) 0.90518(19)
C21 C 0.1924(4) 1.3442(3) 0.9218(2)
C22 C 0.4971(2) 1.18981(19) 0.36342(15)
C23 C 0.5924(3) 1.1346(2) 0.43877(16)
C24 C 0.7650(3) 1.0450(2) 0.41519(18)
C25 C 0.8444(3) 1.0119(2) 0.31660(18)
C26 C 0.7524(3) 1.0684(3) 0.24014(18)
C27 C 0.5800(3) 1.1580(2) 0.26328(16)
H1 H 0.068(3) 1.339(2) 0.3589(17)
H2 H 0.059(4) 1.288(3) 0.180(2)
H3 H 0.114(4) 1.106(3) 0.059(2)
H4 H 0.397(3) 0.818(3) 0.2379(18)
H5 H 0.359(3) 0.989(2) 0.3580(19)
H6 H 0.337(3) 1.592(2) 0.5501(17)
H7 H 0.323(3) 1.597(2) 0.7238(17)
H8 H 0.191(3) 1.261(3) 0.7471(19)
H9 H 0.207(3) 1.258(2) 0.5776(17)
H10 H 0.275(4) 1.528(3) 0.978(2)
H11 H 0.207(4) 1.634(3) 0.890(2)
H12 H 0.405(4) 1.532(3) 0.8765(19)
H13 H 0.189(4) 1.366(3) 0.996(2)
H14 H 0.277(4) 1.251(3) 0.906(2)
H15 H 0.078(4) 1.345(3) 0.914(2)
H16 H 0.532(3) 1.161(2) 0.5099(19)
H17 H 0.830(3) 1.008(2) 0.4664(19)
H18 H 0.967(4) 0.945(3) 0.299(2)
H19 H 0.802(4) 1.052(3) 0.172(2)
H20 H 0.521(3) 1.198(3) 0.212(2)
loop_
_geom_bond_atom_site_label_1
_geom_bond_atom_site_label_2
_geom_bond_site_symmetry_1
_geom_bond_site_symmetry_2
F1 C13 1_555 1_555
F2 C13 1_555 1_555
F3 C13 1_555 1_555
N1 C1 1_555 1_555
N2 C12 1_555 1_555
N3 C17 1_555 1_555
C1 C2 1_555 1_555
C2 C3 1_555 1_555
C3 C4 1_555 1_555
C4 C5 1_555 1_555
C5 C6 1_555 1_555
C6 C7 1_555 1_555
C7 C8 1_555 1_555
C8 C9 1_555 1_555
C9 C10 1_555 1_555
C10 C11 1_555 1_555
C11 C6 1_555 1_555
C12 C2 1_555 1_555
C13 C9 1_555 1_555
C14 C3 1_555 1_555
C15 C14 1_555 1_555
C16 C15 1_555 1_555
C17 C16 1_555 1_555
C18 C17 1_555 1_555
C19 C14 1_555 1_555
C20 N3 1_555 1_555
C21 N3 1_555 1_555
C22 C4 1_555 1_555
C23 C22 1_555 1_555
C24 C23 1_555 1_555
C25 C24 1_555 1_555
C26 C25 1_555 1_555
C27 C22 1_555 1_555
H1 C5 1_555 1_555
H2 C7 1_555 1_555
H3 C8 1_555 1_555
H4 C10 1_555 1_555
H5 C11 1_555 1_555
H6 C15 1_555 1_555
H7 C16 1_555 1_555
H8 C18 1_555 1_555
H9 C19 1_555 1_555
H10 C20 1_555 1_555
H11 C20 1_555 1_555
H12 C20 1_555 1_555
H13 C21 1_555 1_555
H14 C21 1_555 1_555
H15 C21 1_555 1_555
H16 C23 1_555 1_555
H17 C24 1_555 1_555
H18 C25 1_555 1_555
H19 C26 1_555 1_555
H20 C27 1_555 1_555
C18 C19 1_555 1_555
C26 C27 1_555 1_555

#END
