
#######################################################################
#
#                 Cambridge Crystallographic Data Centre
#                                CCDC 
#
#######################################################################
#
# If this CIF has been generated from an entry in the Cambridge 
# Structural Database, then it will include bibliographic, chemical, 
# crystal, experimental, refinement or atomic coordinate data resulting 
# from the CCDC's data processing and validation procedures.
#
#######################################################################

data_UWEZED
_chemical_formula_moiety         'C20 H18 N2 O1'
_chemical_name_systematic        2-((diphenylmethyl)amino)benzamide
_symmetry_cell_setting           triclinic
_symmetry_space_group_name_H-M   'P -1'
_symmetry_Int_Tables_number      2
_space_group_name_Hall           '-P 1'
loop_
_symmetry_equiv_pos_site_id
_symmetry_equiv_pos_as_xyz
1 x,y,z
2 -x,-y,-z
_cell_length_a                   9.325(4)
_cell_length_b                   13.392(5)
_cell_length_c                   14.281(6)
_cell_angle_alpha                105.05(3)
_cell_angle_beta                 105.639(6)
_cell_angle_gamma                92.655(4)
_cell_volume                     1645.46
_exptl_crystal_colour            colorless
_exptl_crystal_description       block
_cell_formula_units_Z            4
loop_
_atom_site_label
_atom_site_type_symbol
_atom_site_fract_x
_atom_site_fract_y
_atom_site_fract_z
O1 O 0.70327(13) 0.60339(10) 0.55778(10)
N1 N 0.65674(16) 0.78228(12) 0.51843(11)
H1 H 0.6148 0.7263 0.5268
N2 N 0.93768(18) 0.56766(13) 0.60804(15)
H2 H 0.9047 0.5014 0.5952
H3 H 1.0346 0.5890 0.6317
C1 C 0.56343(19) 0.83382(14) 0.45078(13)
H4 H 0.5642 0.9076 0.4900
C2 C 0.61845(19) 0.83484(14) 0.35935(13)
C3 C 0.7070(2) 0.76227(17) 0.32451(15)
H5 H 0.7411 0.7135 0.3608
C4 C 0.7463(2) 0.7604(2) 0.23721(16)
H6 H 0.8072 0.7103 0.2141
C5 C 0.6979(2) 0.83029(19) 0.18374(15)
H7 H 0.7248 0.8284 0.1238
C6 C 0.6102(2) 0.90309(16) 0.21762(15)
H8 H 0.5762 0.9515 0.1809
C7 C 0.5712(2) 0.90577(15) 0.30538(14)
H9 H 0.5117 0.9567 0.3288
C8 C 0.40350(19) 0.77897(14) 0.41777(13)
C9 C 0.3634(2) 0.68239(15) 0.34562(15)
H10 H 0.4359 0.6505 0.3163
C10 C 0.2183(2) 0.63212(17) 0.31608(16)
H11 H 0.1923 0.5661 0.2667
C11 C 0.1112(2) 0.67736(17) 0.35802(17)
H12 H 0.0116 0.6430 0.3370
C12 C 0.1500(2) 0.77271(18) 0.43062(17)
H13 H 0.0772 0.8040 0.4601
C13 C 0.2955(2) 0.82292(16) 0.46055(15)
H14 H 0.3216 0.8883 0.5110
C14 C 0.80595(19) 0.81475(14) 0.57040(12)
C15 C 0.8707(2) 0.91646(15) 0.58473(15)
H15 H 0.8120 0.9624 0.5547
C16 C 1.0181(2) 0.95091(15) 0.64160(16)
H16 H 1.0591 1.0203 0.6509
C17 C 1.1066(2) 0.88528(16) 0.68525(16)
H17 H 1.2073 0.9096 0.7257
C18 C 1.0468(2) 0.78430(15) 0.66927(14)
H18 H 1.1084 0.7390 0.6982
C19 C 0.89828(19) 0.74620(14) 0.61186(13)
C20 C 0.84092(19) 0.63557(14) 0.59158(13)
O2 O 0.74927(14) 0.42756(11) 0.31484(10)
N3 N 0.67266(18) 0.32147(12) 0.11737(11)
H19 H 0.7338 0.3715 0.1668
N4 N 0.56945(19) 0.41919(14) 0.39018(13)
H20 H 0.6115 0.4774 0.4375
H21 H 0.4864 0.3862 0.3914
C21 C 0.6748(2) 0.31301(14) 0.01413(13)
H22 H 0.5707 0.2864 -0.0315
C22 C 0.7794(2) 0.23760(14) -0.02186(13)
C23 C 0.8837(2) 0.19823(16) 0.04315(16)
H23 H 0.8905 0.2165 0.1132
C24 C 0.9794(3) 0.13161(18) 0.0063(2)
H24 H 1.0513 0.1051 0.0516
C25 C 0.9704(3) 0.10414(17) -0.0951(2)
H25 H 1.0354 0.0586 -0.1199
C26 C 0.8669(3) 0.14296(16) -0.16012(18)
H26 H 0.8602 0.1243 -0.2302
C27 C 0.7727(2) 0.20906(15) -0.12419(15)
H27 H 0.7018 0.2357 -0.1700
C28 C 0.7158(2) 0.41973(15) 0.00398(15)
C29 C 0.8478(3) 0.48192(16) 0.06679(18)
H28 H 0.9121 0.4583 0.1184
C30 C 0.8862(4) 0.57774(19) 0.0548(3)
H29 H 0.9760 0.6200 0.0987
C31 C 0.7954(5) 0.6122(2) -0.0201(3)
H30 H 0.8224 0.6780 -0.0285
C32 C 0.6649(4) 0.5511(2) -0.0833(3)
H31 H 0.6025 0.5747 -0.1357
C33 C 0.6235(3) 0.45485(19) -0.07106(19)
H32 H 0.5324 0.4137 -0.1141
C34 C 0.58099(19) 0.25605(13) 0.14223(13)
C35 C 0.5056(2) 0.16192(14) 0.07156(14)
H33 H 0.5219 0.1422 0.0067
C36 C 0.4084(2) 0.09771(15) 0.09449(15)
H34 H 0.3574 0.0353 0.0447
C37 C 0.3840(2) 0.12264(15) 0.18893(16)
H35 H 0.3174 0.0779 0.2044
C38 C 0.4586(2) 0.21386(15) 0.25987(14)
H36 H 0.4433 0.2310 0.3250
C39 C 0.55615(19) 0.28189(14) 0.23909(13)
C40 C 0.63124(19) 0.38102(14) 0.31693(13)
loop_
_geom_bond_atom_site_label_1
_geom_bond_atom_site_label_2
_geom_bond_site_symmetry_1
_geom_bond_site_symmetry_2
O1 C20 1_555 1_555
N1 H1 1_555 1_555
N2 H2 1_555 1_555
H3 N2 1_555 1_555
C1 N1 1_555 1_555
H4 C1 1_555 1_555
C2 C1 1_555 1_555
C3 C2 1_555 1_555
H5 C3 1_555 1_555
C4 C3 1_555 1_555
H6 C4 1_555 1_555
C5 C4 1_555 1_555
H7 C5 1_555 1_555
C6 C5 1_555 1_555
H8 C6 1_555 1_555
C7 C2 1_555 1_555
H9 C7 1_555 1_555
C8 C1 1_555 1_555
C9 C8 1_555 1_555
H10 C9 1_555 1_555
C10 C9 1_555 1_555
H11 C10 1_555 1_555
C11 C10 1_555 1_555
H12 C11 1_555 1_555
C12 C11 1_555 1_555
H13 C12 1_555 1_555
C13 C8 1_555 1_555
H14 C13 1_555 1_555
C14 N1 1_555 1_555
C15 C14 1_555 1_555
H15 C15 1_555 1_555
C16 C15 1_555 1_555
H16 C16 1_555 1_555
C17 C16 1_555 1_555
H17 C17 1_555 1_555
C18 C17 1_555 1_555
H18 C18 1_555 1_555
C19 C14 1_555 1_555
C20 N2 1_555 1_555
O2 C40 1_555 1_555
N3 H19 1_555 1_555
N4 H20 1_555 1_555
H21 N4 1_555 1_555
C21 N3 1_555 1_555
H22 C21 1_555 1_555
C22 C21 1_555 1_555
C23 C22 1_555 1_555
H23 C23 1_555 1_555
C24 C23 1_555 1_555
H24 C24 1_555 1_555
C25 C24 1_555 1_555
H25 C25 1_555 1_555
C26 C25 1_555 1_555
H26 C26 1_555 1_555
C27 C22 1_555 1_555
H27 C27 1_555 1_555
C28 C21 1_555 1_555
C29 C28 1_555 1_555
H28 C29 1_555 1_555
C30 C29 1_555 1_555
H29 C30 1_555 1_555
C31 C30 1_555 1_555
H30 C31 1_555 1_555
C32 C31 1_555 1_555
H31 C32 1_555 1_555
C33 C28 1_555 1_555
H32 C33 1_555 1_555
C34 N3 1_555 1_555
C35 C34 1_555 1_555
H33 C35 1_555 1_555
C36 C35 1_555 1_555
H34 C36 1_555 1_555
C37 C36 1_555 1_555
H35 C37 1_555 1_555
C38 C37 1_555 1_555
H36 C38 1_555 1_555
C39 C34 1_555 1_555
C40 N4 1_555 1_555
C6 C7 1_555 1_555
C12 C13 1_555 1_555
C18 C19 1_555 1_555
C19 C20 1_555 1_555
C26 C27 1_555 1_555
C32 C33 1_555 1_555
C38 C39 1_555 1_555
C39 C40 1_555 1_555

#END
