
#######################################################################
#
#                 Cambridge Crystallographic Data Centre
#                                CCDC 
#
#######################################################################
#
# If this CIF has been generated from an entry in the Cambridge 
# Structural Database, then it will include bibliographic, chemical, 
# crystal, experimental, refinement or atomic coordinate data resulting 
# from the CCDC's data processing and validation procedures.
#
#######################################################################

data_UWIMIY
_chemical_formula_moiety         'C48 H48 N32 O16,C26 H20 N2 O4'
_chemical_name_systematic        
"1,1'-bis(4-carboxybenzyl)-4,4'-bipyridinium cucrbit[8]uril unknown solvate"
_symmetry_cell_setting           orthorhombic
_symmetry_space_group_name_H-M   'C m c 21'
_symmetry_Int_Tables_number      36
_space_group_name_Hall           'C 2n -2'
loop_
_symmetry_equiv_pos_site_id
_symmetry_equiv_pos_as_xyz
1 x,y,z
2 -x,-y,1/2+z
3 x,-y,1/2+z
4 -x,y,z
5 1/2+x,1/2+y,z
6 1/2-x,1/2-y,1/2+z
7 1/2+x,1/2-y,1/2+z
8 1/2-x,1/2+y,z
_cell_length_a                   31.007(6)
_cell_length_b                   16.644(3)
_cell_length_c                   18.379(4)
_cell_angle_alpha                90
_cell_angle_beta                 90
_cell_angle_gamma                90
_cell_volume                     9485.04
_exptl_crystal_colour            colorless
_exptl_crystal_description       plate
_cell_formula_units_Z            4
loop_
_atom_site_label
_atom_site_type_symbol
_atom_site_fract_x
_atom_site_fract_y
_atom_site_fract_z
O11 O 0.72866(11) 0.45903(19) 0.89043(18)
O12 O 0.74322(10) 0.55074(18) 0.80548(18)
N17 N 0.61314(10) 0.2644(2) 0.60593(19)
C27 C 0.73029(13) 0.4819(3) 0.8255(2)
C28 C 0.71387(13) 0.4249(2) 0.7668(2)
C29 C 0.71718(13) 0.4435(2) 0.6941(2)
H25 H 0.7316 0.4912 0.6794
C30 C 0.69955(12) 0.3927(2) 0.6422(2)
H26 H 0.7012 0.4071 0.5923
C31 C 0.67924(13) 0.3198(2) 0.6621(2)
C32 C 0.67739(15) 0.3015(3) 0.7344(3)
H27 H 0.6650 0.2519 0.7492
C33 C 0.69341(15) 0.3541(3) 0.7870(3)
H28 H 0.6903 0.3413 0.8371
C34 C 0.66142(12) 0.2642(3) 0.6064(2)
H29 H 0.6718 0.2090 0.6163
H30 H 0.6721 0.2802 0.5577
C35 C 0.59164(13) 0.3150(2) 0.5614(2)
H31 H 0.6073 0.3494 0.5297
C36 C 0.54762(13) 0.3171(2) 0.5616(2)
H32 H 0.5329 0.3531 0.5301
C37 C 0.52411(11) 0.2671(2) 0.6074(2)
C38 C 0.54838(13) 0.2154(2) 0.6535(2)
H33 H 0.5340 0.1804 0.6864
C39 C 0.59167(14) 0.2161(2) 0.6503(2)
H34 H 0.6074 0.1808 0.6810
O11C O 0.27134(11) 0.45903(19) 0.89043(18)
O12C O 0.25678(10) 0.55074(18) 0.80548(18)
N17C N 0.38686(10) 0.2644(2) 0.60593(19)
C27C C 0.26971(13) 0.4819(3) 0.8255(2)
C28C C 0.28613(13) 0.4249(2) 0.7668(2)
C29C C 0.28282(13) 0.4435(2) 0.6941(2)
H25C H 0.2684 0.4912 0.6794
C30C C 0.30045(12) 0.3927(2) 0.6422(2)
H26C H 0.2988 0.4071 0.5923
C31C C 0.32076(13) 0.3198(2) 0.6621(2)
C32C C 0.32261(15) 0.3015(3) 0.7344(3)
H27C H 0.3350 0.2519 0.7492
C33C C 0.30659(15) 0.3541(3) 0.7870(3)
H28C H 0.3097 0.3413 0.8371
C34C C 0.33858(12) 0.2642(3) 0.6064(2)
H29C H 0.3282 0.2090 0.6163
H30C H 0.3279 0.2802 0.5577
C35C C 0.40836(13) 0.3150(2) 0.5614(2)
H31C H 0.3927 0.3494 0.5297
C36C C 0.45238(13) 0.3171(2) 0.5616(2)
H32C H 0.4671 0.3531 0.5301
C37C C 0.47589(11) 0.2671(2) 0.6074(2)
C38C C 0.45162(13) 0.2154(2) 0.6535(2)
H33C H 0.4660 0.1804 0.6864
C39C C 0.40833(14) 0.2161(2) 0.6503(2)
H34C H 0.3926 0.1808 0.6810
O1 O 0.5000 0.7211(2) 0.8746(2)
O2 O 0.5000 0.4681(3) 0.6271(2)
O3 O 0.38607(10) 0.78430(16) 0.80061(17)
O4 O 0.38401(9) 0.51739(18) 0.57291(16)
O5 O 0.32598(10) 0.93814(17) 0.68141(17)
O6 O 0.34953(11) 0.6852(2) 0.4491(2)
O7 O 0.37306(10) 1.08352(17) 0.56689(16)
O8 O 0.39458(11) 0.85164(18) 0.30863(18)
O9 O 0.5000 1.1171(3) 0.5261(2)
O10 O 0.5000 0.9299(3) 0.2417(3)
N1 N 0.46447(10) 0.61042(18) 0.82704(18)
N2 N 0.46398(10) 0.5098(2) 0.72870(19)
N3 N 0.39288(10) 0.64740(19) 0.78651(18)
N4 N 0.34104(10) 0.71152(18) 0.72482(19)
N5 N 0.39065(11) 0.53780(19) 0.69604(19)
N6 N 0.33993(11) 0.6025(2) 0.63583(19)
N7 N 0.30520(12) 0.8098(2) 0.6486(2)
N8 N 0.30007(11) 0.90648(19) 0.56642(19)
N9 N 0.31294(11) 0.70744(19) 0.55557(18)
N10 N 0.31742(11) 0.8071(2) 0.47357(19)
N11 N 0.33262(11) 1.0070(2) 0.4870(2)
N12 N 0.39045(10) 1.0691(2) 0.4447(2)
N13 N 0.34862(11) 0.90643(19) 0.39392(19)
N14 N 0.39213(11) 0.9871(2) 0.33387(19)
N15 N 0.46405(10) 1.10381(19) 0.4164(2)
N16 N 0.46425(10) 1.0331(2) 0.3010(2)
C1 C 0.5000 0.6525(3) 0.8455(3)
C2 C 0.47489(12) 0.5280(2) 0.8055(2)
H1 H 0.4627 0.4874 0.8399
C3 C 0.5000 0.4943(3) 0.6893(3)
C4 C 0.42153(12) 0.6331(2) 0.8467(2)
H2 H 0.4230 0.6825 0.8766
H3 H 0.4091 0.5901 0.8774
C5 C 0.42222(13) 0.4767(2) 0.7117(3)
H4 H 0.4249 0.4407 0.6691
H5 H 0.4121 0.4441 0.7534
C6 C 0.37443(12) 0.7212(2) 0.7727(2)
C7 C 0.36820(12) 0.5816(2) 0.7538(2)
H6 H 0.3558 0.5446 0.7914
C8 C 0.33238(12) 0.6275(2) 0.7108(2)
H7 H 0.3029 0.6118 0.7276
C9 C 0.37304(13) 0.5504(2) 0.6297(2)
C10 C 0.30701(13) 0.7726(2) 0.7192(2)
H8 H 0.2788 0.7473 0.7298
H9 H 0.3121 0.8146 0.7565
C11 C 0.30970(14) 0.6231(2) 0.5774(2)
H10 H 0.3155 0.5885 0.5347
H11 H 0.2799 0.6121 0.5940
C12 C 0.31221(12) 0.8889(2) 0.6379(2)
C13 C 0.28657(12) 0.7691(2) 0.5855(2)
H12 H 0.2567 0.7496 0.5956
C14 C 0.28698(13) 0.8356(2) 0.5269(2)
H13 H 0.2577 0.8428 0.5050
C15 C 0.32925(13) 0.7277(2) 0.4882(2)
C16 C 0.29738(13) 0.9867(2) 0.5367(2)
H14 H 0.2973 1.0258 0.5773
H15 H 0.2697 0.9924 0.5104
C17 C 0.32019(15) 0.8358(3) 0.4004(2)
H16 H 0.2910 0.8502 0.3831
H17 H 0.3313 0.7923 0.3688
C18 C 0.36587(13) 1.0553(2) 0.5061(2)
C19 C 0.33244(13) 0.9871(2) 0.4110(2)
H18 H 0.3037 0.9975 0.3880
C20 C 0.36802(13) 1.0417(2) 0.3793(2)
H19 H 0.3557 1.0875 0.3508
C21 C 0.37972(13) 0.9085(2) 0.3432(2)
C22 C 0.42272(11) 1.1314(2) 0.4441(2)
H20 H 0.4267 1.1519 0.4942
H21 H 0.4124 1.1765 0.4136
C23 C 0.42074(13) 1.0148(3) 0.2760(2)
H22 H 0.4224 0.9728 0.2379
H23 H 0.4082 1.0636 0.2536
C24 C 0.5000 1.1090(3) 0.4615(3)
C25 C 0.47493(12) 1.1051(2) 0.3398(2)
H24 H 0.4631 1.1538 0.3151
C26 C 0.5000 0.9903(4) 0.2766(3)
O3C O 0.61393(10) 0.78430(16) 0.80061(17)
O4C O 0.61599(9) 0.51739(18) 0.57291(16)
O5C O 0.67402(10) 0.93814(17) 0.68141(17)
O6C O 0.65047(11) 0.6852(2) 0.4491(2)
O7C O 0.62694(10) 1.08352(17) 0.56689(16)
O8C O 0.60542(11) 0.85164(18) 0.30863(18)
N1C N 0.53553(10) 0.61042(18) 0.82704(18)
N2C N 0.53602(10) 0.5098(2) 0.72870(19)
N3C N 0.60712(10) 0.64740(19) 0.78651(18)
N4C N 0.65896(10) 0.71152(18) 0.72482(19)
N5C N 0.60935(11) 0.53780(19) 0.69604(19)
N6C N 0.66007(11) 0.6025(2) 0.63583(19)
N7C N 0.69480(12) 0.8098(2) 0.6486(2)
N8C N 0.69993(11) 0.90648(19) 0.56642(19)
N9C N 0.68706(11) 0.70744(19) 0.55557(18)
N10C N 0.68258(11) 0.8071(2) 0.47357(19)
N11C N 0.66738(11) 1.0070(2) 0.4870(2)
N12C N 0.60955(10) 1.0691(2) 0.4447(2)
N13C N 0.65138(11) 0.90643(19) 0.39392(19)
N14C N 0.60787(11) 0.9871(2) 0.33387(19)
N15C N 0.53595(10) 1.10381(19) 0.4164(2)
N16C N 0.53575(10) 1.0331(2) 0.3010(2)
C2C C 0.52511(12) 0.5280(2) 0.8055(2)
H1C H 0.5373 0.4874 0.8399
C4C C 0.57847(12) 0.6331(2) 0.8467(2)
H2C H 0.5770 0.6825 0.8766
H3C H 0.5909 0.5901 0.8774
C5C C 0.57778(13) 0.4767(2) 0.7117(3)
H4C H 0.5751 0.4407 0.6691
H5C H 0.5879 0.4441 0.7534
C6C C 0.62557(12) 0.7212(2) 0.7727(2)
C7C C 0.63180(12) 0.5816(2) 0.7538(2)
H6C H 0.6442 0.5446 0.7914
C8C C 0.66762(12) 0.6275(2) 0.7108(2)
H7C H 0.6971 0.6118 0.7276
C9C C 0.62696(13) 0.5504(2) 0.6297(2)
C10C C 0.69299(13) 0.7726(2) 0.7192(2)
H8C H 0.7212 0.7473 0.7298
H9C H 0.6879 0.8146 0.7565
C11C C 0.69030(14) 0.6231(2) 0.5774(2)
H10C H 0.6845 0.5885 0.5347
H11C H 0.7201 0.6121 0.5940
C12C C 0.68779(12) 0.8889(2) 0.6379(2)
C13C C 0.71343(12) 0.7691(2) 0.5855(2)
H12C H 0.7433 0.7496 0.5956
C14C C 0.71302(13) 0.8356(2) 0.5269(2)
H13C H 0.7423 0.8428 0.5050
C15C C 0.67075(13) 0.7277(2) 0.4882(2)
C16C C 0.70262(13) 0.9867(2) 0.5367(2)
H14C H 0.7027 1.0258 0.5773
H15C H 0.7303 0.9924 0.5104
C17C C 0.67981(15) 0.8358(3) 0.4004(2)
H16C H 0.7090 0.8502 0.3831
H17C H 0.6687 0.7923 0.3688
C18C C 0.63413(13) 1.0553(2) 0.5061(2)
C19C C 0.66756(13) 0.9871(2) 0.4110(2)
H18C H 0.6963 0.9975 0.3880
C20C C 0.63198(13) 1.0417(2) 0.3793(2)
H19C H 0.6443 1.0875 0.3508
C21C C 0.62028(13) 0.9085(2) 0.3432(2)
C22C C 0.57728(11) 1.1314(2) 0.4441(2)
H20C H 0.5733 1.1519 0.4942
H21C H 0.5876 1.1765 0.4136
C23C C 0.57926(13) 1.0148(3) 0.2760(2)
H22C H 0.5776 0.9728 0.2379
H23C H 0.5918 1.0636 0.2536
C25C C 0.52507(12) 1.1051(2) 0.3398(2)
H24C H 0.5369 1.1538 0.3151
loop_
_geom_bond_atom_site_label_1
_geom_bond_atom_site_label_2
_geom_bond_site_symmetry_1
_geom_bond_site_symmetry_2
O1 C1 1_555 1_555
O2 C3 1_555 1_555
O3 C6 1_555 1_555
O4 C9 1_555 1_555
O5 C12 1_555 1_555
O6 C15 1_555 1_555
O7 C18 1_555 1_555
O8 C21 1_555 1_555
O9 C24 1_555 1_555
O10 C26 1_555 1_555
N1 C1 1_555 1_555
N2 C2 1_555 1_555
N3 C4 1_555 1_555
N4 C6 1_555 1_555
N5 C5 1_555 1_555
N6 C8 1_555 1_555
N7 C10 1_555 1_555
N8 C12 1_555 1_555
N9 C11 1_555 1_555
N10 C14 1_555 1_555
N11 C16 1_555 1_555
N12 C18 1_555 1_555
N13 C17 1_555 1_555
N14 C20 1_555 1_555
N15 C22 1_555 1_555
N16 C23 1_555 1_555
C1 N1C 1_555 1_555
C2 N1 1_555 1_555
H1 C2 1_555 1_555
C3 N2 1_555 1_555
C4 N1 1_555 1_555
H2 C4 1_555 1_555
H3 C4 1_555 1_555
C5 N2 1_555 1_555
H4 C5 1_555 1_555
H5 C5 1_555 1_555
C6 N3 1_555 1_555
C7 N3 1_555 1_555
H6 C7 1_555 1_555
C8 N4 1_555 1_555
H7 C8 1_555 1_555
C9 N5 1_555 1_555
C10 N4 1_555 1_555
H8 C10 1_555 1_555
H9 C10 1_555 1_555
C11 N6 1_555 1_555
H10 C11 1_555 1_555
H11 C11 1_555 1_555
C12 N7 1_555 1_555
C13 N7 1_555 1_555
H12 C13 1_555 1_555
C14 N8 1_555 1_555
H13 C14 1_555 1_555
C15 N9 1_555 1_555
C16 N8 1_555 1_555
H14 C16 1_555 1_555
H15 C16 1_555 1_555
C17 N10 1_555 1_555
H16 C17 1_555 1_555
H17 C17 1_555 1_555
C18 N11 1_555 1_555
C19 N11 1_555 1_555
H18 C19 1_555 1_555
C20 N12 1_555 1_555
H19 C20 1_555 1_555
C21 N13 1_555 1_555
C22 N12 1_555 1_555
H20 C22 1_555 1_555
H21 C22 1_555 1_555
C23 N14 1_555 1_555
H22 C23 1_555 1_555
H23 C23 1_555 1_555
C24 N15 1_555 1_555
C25 N15 1_555 1_555
H24 C25 1_555 1_555
C26 N16 1_555 1_555
O11 C27 1_555 1_555
O12 C27 1_555 1_555
N17 C34 1_555 1_555
C27 C28 1_555 1_555
C28 C29 1_555 1_555
C29 H25 1_555 1_555
C30 C29 1_555 1_555
H26 C30 1_555 1_555
C31 C30 1_555 1_555
C32 C31 1_555 1_555
H27 C32 1_555 1_555
C33 C28 1_555 1_555
H28 C33 1_555 1_555
C34 C31 1_555 1_555
H29 C34 1_555 1_555
H30 C34 1_555 1_555
C35 N17 1_555 1_555
H31 C35 1_555 1_555
C36 C35 1_555 1_555
H32 C36 1_555 1_555
C37 C36 1_555 1_555
C38 C37 1_555 1_555
H33 C38 1_555 1_555
C39 N17 1_555 1_555
H34 C39 1_555 1_555
O3C C6C 1_555 1_555
O4C C9C 1_555 1_555
O5C C12C 1_555 1_555
O6C C15C 1_555 1_555
O7C C18C 1_555 1_555
O8C C21C 1_555 1_555
N1C C2C 1_555 1_555
N2C C3 1_555 1_555
N3C C4C 1_555 1_555
N4C C6C 1_555 1_555
N5C C5C 1_555 1_555
N6C C8C 1_555 1_555
N7C C10C 1_555 1_555
N8C C12C 1_555 1_555
N9C C11C 1_555 1_555
N10C C14C 1_555 1_555
N11C C16C 1_555 1_555
N12C C18C 1_555 1_555
N13C C17C 1_555 1_555
N14C C20C 1_555 1_555
N15C C24 1_555 1_555
N16C C26 1_555 1_555
C2C C2 1_555 1_555
H1C C2C 1_555 1_555
C4C N1C 1_555 1_555
H2C C4C 1_555 1_555
H3C C4C 1_555 1_555
C5C N2C 1_555 1_555
H4C C5C 1_555 1_555
H5C C5C 1_555 1_555
C6C N3C 1_555 1_555
C7C N3C 1_555 1_555
H6C C7C 1_555 1_555
C8C N4C 1_555 1_555
H7C C8C 1_555 1_555
C9C N5C 1_555 1_555
C10C N4C 1_555 1_555
H8C C10C 1_555 1_555
H9C C10C 1_555 1_555
C11C N6C 1_555 1_555
H10C C11C 1_555 1_555
H11C C11C 1_555 1_555
C12C N7C 1_555 1_555
C13C N7C 1_555 1_555
H12C C13C 1_555 1_555
C14C N8C 1_555 1_555
H13C C14C 1_555 1_555
C15C N9C 1_555 1_555
C16C N8C 1_555 1_555
H14C C16C 1_555 1_555
H15C C16C 1_555 1_555
C17C N10C 1_555 1_555
H16C C17C 1_555 1_555
H17C C17C 1_555 1_555
C18C N11C 1_555 1_555
C19C N11C 1_555 1_555
H18C C19C 1_555 1_555
C20C N12C 1_555 1_555
H19C C20C 1_555 1_555
C21C N13C 1_555 1_555
C22C N12C 1_555 1_555
H20C C22C 1_555 1_555
H21C C22C 1_555 1_555
C23C N14C 1_555 1_555
H22C C23C 1_555 1_555
H23C C23C 1_555 1_555
C25C C25 1_555 1_555
H24C C25C 1_555 1_555
O11C C27C 1_555 1_555
O12C C27C 1_555 1_555
N17C C34C 1_555 1_555
C27C C28C 1_555 1_555
C28C C29C 1_555 1_555
C29C H25C 1_555 1_555
C30C C29C 1_555 1_555
H26C C30C 1_555 1_555
C31C C30C 1_555 1_555
C32C C31C 1_555 1_555
H27C C32C 1_555 1_555
C33C C28C 1_555 1_555
H28C C33C 1_555 1_555
C34C C31C 1_555 1_555
H29C C34C 1_555 1_555
H30C C34C 1_555 1_555
C35C N17C 1_555 1_555
H31C C35C 1_555 1_555
C36C C35C 1_555 1_555
H32C C36C 1_555 1_555
C37C C37 1_555 1_555
C38C C37C 1_555 1_555
H33C C38C 1_555 1_555
C39C N17C 1_555 1_555
H34C C39C 1_555 1_555
N5 C7 1_555 1_555
N6 C9 1_555 1_555
N9 C13 1_555 1_555
N10 C15 1_555 1_555
N13 C19 1_555 1_555
N14 C21 1_555 1_555
N16 C25 1_555 1_555
C7 C8 1_555 1_555
C13 C14 1_555 1_555
C19 C20 1_555 1_555
C32 C33 1_555 1_555
C38 C39 1_555 1_555
N2C C2C 1_555 1_555
N5C C7C 1_555 1_555
N6C C9C 1_555 1_555
N9C C13C 1_555 1_555
N10C C15C 1_555 1_555
N13C C19C 1_555 1_555
N14C C21C 1_555 1_555
N15C C22C 1_555 1_555
N15C C25C 1_555 1_555
N16C C23C 1_555 1_555
N16C C25C 1_555 1_555
C7C C8C 1_555 1_555
C13C C14C 1_555 1_555
C19C C20C 1_555 1_555
C32C C33C 1_555 1_555
C36C C37C 1_555 1_555
C38C C39C 1_555 1_555

#END
