
#######################################################################
#
#                 Cambridge Crystallographic Data Centre
#                                CCDC 
#
#######################################################################
#
# If this CIF has been generated from an entry in the Cambridge 
# Structural Database, then it will include bibliographic, chemical, 
# crystal, experimental, refinement or atomic coordinate data resulting 
# from the CCDC's data processing and validation procedures.
#
#######################################################################

data_UWIMAQ
_chemical_formula_moiety         'C39 H31 N1 O2 P2'
_chemical_name_systematic        
N-(bis(diphenylphosphoryl)methyl)-2-(phenylethynyl)aniline
_symmetry_cell_setting           monoclinic
_symmetry_space_group_name_H-M   'P 21/n'
_symmetry_Int_Tables_number      14
_space_group_name_Hall           '-P 2yn'
loop_
_symmetry_equiv_pos_site_id
_symmetry_equiv_pos_as_xyz
1 x,y,z
2 1/2-x,1/2+y,1/2-z
3 -x,-y,-z
4 1/2+x,1/2-y,1/2+z
_cell_length_a                   11.651(4)
_cell_length_b                   11.814(3)
_cell_length_c                   23.050(7)
_cell_angle_alpha                90
_cell_angle_beta                 101.391(4)
_cell_angle_gamma                90
_cell_volume                     3110.22
_exptl_crystal_colour            colorless
_exptl_crystal_description       block
_cell_formula_units_Z            4
loop_
_atom_site_label
_atom_site_type_symbol
_atom_site_fract_x
_atom_site_fract_y
_atom_site_fract_z
P1 P 0.22028(5) 0.74406(5) 0.22399(3)
P2 P 0.37503(5) 0.77124(5) 0.35214(3)
O1 O 0.23042(16) 0.61874(14) 0.22434(7)
O2 O 0.37226(15) 0.65048(14) 0.36908(8)
N1 N 0.14608(17) 0.76167(18) 0.32657(9)
C1 C 0.0790(2) 0.8341(2) 0.35474(11)
C2 C 0.0356(2) 0.9358(2) 0.32907(12)
H1 H 0.0524 0.9576 0.2929
C3 C -0.0325(2) 1.0050(2) 0.35715(13)
H2 H -0.0604 1.0732 0.3398
C4 C -0.0596(2) 0.9739(2) 0.41077(13)
H3 H -0.1054 1.0208 0.4293
C5 C -0.0181(2) 0.8731(2) 0.43637(12)
H4 H -0.0368 0.8520 0.4722
C6 C 0.0516(2) 0.8018(2) 0.40945(11)
C7 C 0.0993(2) 0.6988(2) 0.43758(11)
C8 C 0.1452(2) 0.6138(2) 0.45893(11)
C9 C 0.2050(2) 0.5132(2) 0.48385(11)
C10 C 0.1631(2) 0.4482(2) 0.52555(11)
H5 H 0.0937 0.4684 0.5370
C11 C 0.2245(3) 0.3533(2) 0.55009(12)
H6 H 0.1969 0.3111 0.5786
C12 C 0.3259(3) 0.3213(2) 0.53243(13)
H7 H 0.3670 0.2578 0.5489
C13 C 0.3666(3) 0.3844(2) 0.48997(13)
H8 H 0.4343 0.3620 0.4775
C14 C 0.3075(2) 0.4798(2) 0.46608(12)
H9 H 0.3361 0.5221 0.4380
C15 C 0.2395(2) 0.8065(2) 0.29849(10)
H10 H 0.2318 0.8889 0.2950
C16 C 0.0755(2) 0.7914(2) 0.18899(10)
C17 C -0.0193(2) 0.7211(2) 0.19167(11)
H11 H -0.0073 0.6517 0.2109
C18 C -0.1312(2) 0.7547(3) 0.16568(12)
H12 H -0.1945 0.7078 0.1675
C19 C -0.1493(2) 0.8574(3) 0.13709(13)
H13 H -0.2248 0.8794 0.1195
C20 C -0.0564(3) 0.9275(3) 0.13442(13)
H14 H -0.0691 0.9966 0.1149
C21 C 0.0563(2) 0.8954(2) 0.16089(12)
H15 H 0.1190 0.9436 0.1598
C22 C 0.3244(2) 0.8121(2) 0.18724(11)
C23 C 0.3720(2) 0.7464(2) 0.14773(11)
H16 H 0.3469 0.6722 0.1401
C24 C 0.4565(3) 0.7914(3) 0.11984(13)
H17 H 0.4862 0.7484 0.0924
C25 C 0.4963(3) 0.8998(3) 0.13280(14)
H18 H 0.5553 0.9288 0.1151
C26 C 0.4499(2) 0.9658(2) 0.17159(12)
H19 H 0.4771 1.0393 0.1798
C27 C 0.3625(2) 0.9231(2) 0.19858(11)
H20 H 0.3297 0.9683 0.2240
C28 C 0.5055(2) 0.8030(2) 0.32428(11)
C29 C 0.5544(2) 0.7152(3) 0.29732(12)
H21 H 0.5165 0.6457 0.2915
C30 C 0.6597(3) 0.7313(3) 0.27907(14)
H22 H 0.6921 0.6723 0.2610
C31 C 0.7164(3) 0.8335(3) 0.28740(14)
H23 H 0.7872 0.8436 0.2752
C32 C 0.6681(2) 0.9210(3) 0.31389(13)
H24 H 0.7063 0.9904 0.3194
C33 C 0.5626(2) 0.9064(2) 0.33246(12)
H25 H 0.5304 0.9658 0.3503
C34 C 0.3653(2) 0.8658(2) 0.41234(11)
C35 C 0.3426(2) 0.9813(2) 0.40512(11)
H26 H 0.3358 1.0142 0.3679
C36 C 0.3302(2) 1.0473(2) 0.45302(12)
H27 H 0.3156 1.1244 0.4480
C37 C 0.3394(2) 0.9989(3) 0.50821(12)
H28 H 0.3306 1.0433 0.5403
C38 C 0.3616(3) 0.8847(3) 0.51576(12)
H29 H 0.3677 0.8523 0.5530
C39 C 0.3750(2) 0.8179(2) 0.46833(11)
H30 H 0.3905 0.7410 0.4738
H31 H 0.174(2) 0.702(2) 0.3473(12)
loop_
_geom_bond_atom_site_label_1
_geom_bond_atom_site_label_2
_geom_bond_site_symmetry_1
_geom_bond_site_symmetry_2
P1 O1 1_555 1_555
P2 O2 1_555 1_555
N1 C1 1_555 1_555
C1 C2 1_555 1_555
C2 H1 1_555 1_555
C3 C2 1_555 1_555
H2 C3 1_555 1_555
C4 C3 1_555 1_555
H3 C4 1_555 1_555
C5 C4 1_555 1_555
H4 C5 1_555 1_555
C6 C1 1_555 1_555
C7 C6 1_555 1_555
C8 C7 1_555 1_555
C9 C8 1_555 1_555
C10 C9 1_555 1_555
H5 C10 1_555 1_555
C11 C10 1_555 1_555
H6 C11 1_555 1_555
C12 C11 1_555 1_555
H7 C12 1_555 1_555
C13 C12 1_555 1_555
H8 C13 1_555 1_555
C14 C9 1_555 1_555
H9 C14 1_555 1_555
C15 P1 1_555 1_555
H10 C15 1_555 1_555
C16 P1 1_555 1_555
C17 C16 1_555 1_555
H11 C17 1_555 1_555
C18 C17 1_555 1_555
H12 C18 1_555 1_555
C19 C18 1_555 1_555
H13 C19 1_555 1_555
C20 C19 1_555 1_555
H14 C20 1_555 1_555
C21 C16 1_555 1_555
H15 C21 1_555 1_555
C22 P1 1_555 1_555
C23 C22 1_555 1_555
H16 C23 1_555 1_555
C24 C23 1_555 1_555
H17 C24 1_555 1_555
C25 C24 1_555 1_555
H18 C25 1_555 1_555
C26 C25 1_555 1_555
H19 C26 1_555 1_555
C27 C22 1_555 1_555
H20 C27 1_555 1_555
C28 P2 1_555 1_555
C29 C28 1_555 1_555
H21 C29 1_555 1_555
C30 C29 1_555 1_555
H22 C30 1_555 1_555
C31 C30 1_555 1_555
H23 C31 1_555 1_555
C32 C31 1_555 1_555
H24 C32 1_555 1_555
C33 C28 1_555 1_555
H25 C33 1_555 1_555
C34 P2 1_555 1_555
C35 C34 1_555 1_555
H26 C35 1_555 1_555
C36 C35 1_555 1_555
H27 C36 1_555 1_555
C37 C36 1_555 1_555
H28 C37 1_555 1_555
C38 C37 1_555 1_555
H29 C38 1_555 1_555
C39 C34 1_555 1_555
H30 C39 1_555 1_555
H31 N1 1_555 1_555
P2 C15 1_555 1_555
N1 C15 1_555 1_555
C5 C6 1_555 1_555
C13 C14 1_555 1_555
C20 C21 1_555 1_555
C26 C27 1_555 1_555
C32 C33 1_555 1_555
C38 C39 1_555 1_555

#END
