
#######################################################################
#
#                 Cambridge Crystallographic Data Centre
#                                CCDC 
#
#######################################################################
#
# If this CIF has been generated from an entry in the Cambridge 
# Structural Database, then it will include bibliographic, chemical, 
# crystal, experimental, refinement or atomic coordinate data resulting 
# from the CCDC's data processing and validation procedures.
#
#######################################################################

data_UWIXEE
_chemical_formula_moiety         'C19 H15 F3 O2'
_chemical_name_systematic        
'Methyl 2-benzylidene-5,5,5-trifluoro-4-phenylpent-3-enoate'
_symmetry_cell_setting           orthorhombic
_symmetry_space_group_name_H-M   'P c a 21'
_symmetry_Int_Tables_number      29
_space_group_name_Hall           'P 2c -2ac'
loop_
_symmetry_equiv_pos_site_id
_symmetry_equiv_pos_as_xyz
1 x,y,z
2 -x,-y,1/2+z
3 1/2-x,y,1/2+z
4 1/2+x,-y,z
_cell_length_a                   9.870(2)
_cell_length_b                   9.2607(19)
_cell_length_c                   36.408(7)
_cell_angle_alpha                90
_cell_angle_beta                 90
_cell_angle_gamma                90
_cell_volume                     3327.8
_exptl_crystal_colour            colorless
_exptl_crystal_description       block
_cell_formula_units_Z            8
loop_
_atom_site_label
_atom_site_type_symbol
_atom_site_fract_x
_atom_site_fract_y
_atom_site_fract_z
F1 F -0.7187(11) -0.6042(8) 0.4142(2)
F2 F -0.9241(11) -0.6099(9) 0.4093(3)
F3 F -0.8078(13) -0.5211(8) 0.36811(19)
O1 O -0.7349(8) 0.0403(7) 0.4633(2)
O2 O -0.6366(5) -0.1737(7) 0.45342(18)
C1 C -0.9724(8) -0.2982(8) 0.4745(2)
H1 H -1.0214 -0.2415 0.4582
C2 C -1.0052(9) -0.2949(10) 0.5109(2)
H2 H -1.0746 -0.2352 0.5191
C3 C -0.9367(11) -0.3786(12) 0.5350(3)
H3 H -0.9599 -0.3764 0.5598
C4 C -0.8308(13) -0.4687(13) 0.5231(3)
H4 H -0.7847 -0.5265 0.5399
C5 C -0.7961(12) -0.4709(11) 0.4868(3)
H5 H -0.7254 -0.5297 0.4790
C6 C -0.8665(8) -0.3849(8) 0.4611(2)
C7 C -0.8326(8) -0.3824(8) 0.4214(2)
C8 C -0.8221(10) -0.5217(9) 0.4033(2)
C9 C -0.8169(7) -0.2620(8) 0.4013(2)
H6 H -0.8031 -0.2742 0.3763
C10 C -0.8196(7) -0.1142(9) 0.4150(2)
C11 C -0.7276(7) -0.0736(8) 0.4461(2)
C12 C -0.5552(11) -0.1523(14) 0.4866(3)
H7 H -0.4927 -0.2310 0.4893
H8 H -0.6137 -0.1484 0.5076
H9 H -0.5057 -0.0633 0.4846
C13 C -0.8914(7) -0.0070(6) 0.39987(19)
H10 H -0.8769 0.0852 0.4092
C14 C -0.9817(8) -0.0192(9) 0.3728(3)
C15 C -1.0600(8) -0.1481(9) 0.3608(2)
H11 H -1.0444 -0.2347 0.3730
C16 C -1.1553(9) -0.1479(13) 0.3324(3)
H12 H -1.1985 -0.2337 0.3263
C17 C -1.1868(11) -0.0243(11) 0.3135(2)
H13 H -1.2495 -0.0253 0.2944
C18 C -1.1242(9) 0.0972(13) 0.3233(3)
H14 H -1.1462 0.1809 0.3106
C19 C -1.0267(8) 0.1086(10) 0.3518(3)
H15 H -0.9903 0.1986 0.3574
F4 F -0.9668(10) 0.0995(9) 0.1863(2)
F5 F -1.1714(10) 0.1092(9) 0.1882(3)
F6 F -1.0674(15) 0.0166(9) 0.2325(2)
O3 O -0.9841(8) -0.5399(8) 0.1362(2)
O4 O -0.8856(6) -0.3275(7) 0.14617(17)
C20 C -1.2192(8) -0.2040(8) 0.1258(2)
H16 H -1.2681 -0.2610 0.1422
C21 C -1.2505(11) -0.2029(10) 0.0886(3)
H17 H -1.3203 -0.2618 0.0803
C22 C -1.1831(11) -0.1191(12) 0.0636(2)
H18 H -1.2056 -0.1198 0.0388
C23 C -1.0815(17) -0.0348(13) 0.0768(3)
H19 H -1.0349 0.0245 0.0606
C24 C -1.0441(12) -0.0335(12) 0.1139(3)
H20 H -0.9729 0.0242 0.1220
C25 C -1.1137(7) -0.1182(7) 0.1380(2)
C26 C -1.0796(9) -0.1204(9) 0.1781(2)
C27 C -1.0677(17) 0.0290(12) 0.1977(4)
C28 C -1.0644(8) -0.2398(8) 0.1978(2)
H21 H -1.0517 -0.2278 0.2230
C29 C -1.0655(7) -0.3893(8) 0.1840(2)
C30 C -0.9757(9) -0.4309(11) 0.1529(2)
C31 C -0.8010(12) -0.3499(14) 0.1147(3)
H22 H -0.7399 -0.2700 0.1121
H23 H -0.8564 -0.3575 0.0931
H24 H -0.7501 -0.4374 0.1178
C32 C -1.1416(11) -0.4952(12) 0.1984(3)
H25 H -1.1285 -0.5858 0.1880
C33 C -1.2496(6) -0.4900(7) 0.23012(19)
C34 C -1.3100(8) -0.3651(10) 0.2383(3)
H26 H -1.2901 -0.2820 0.2250
C35 C -1.4012(9) -0.3611(11) 0.2664(3)
H27 H -1.4409 -0.2743 0.2734
C36 C -1.4329(9) -0.4852(15) 0.2839(3)
H28 H -1.5003 -0.4836 0.3017
C37 C -1.3674(9) -0.6177(11) 0.2760(2)
H29 H -1.3857 -0.7018 0.2890
C38 C -1.2750(9) -0.6139(10) 0.2478(3)
H30 H -1.2299 -0.6978 0.2409
loop_
_geom_bond_atom_site_label_1
_geom_bond_atom_site_label_2
_geom_bond_site_symmetry_1
_geom_bond_site_symmetry_2
F1 C8 1_555 1_555
F2 C8 1_555 1_555
F3 C8 1_555 1_555
O1 C11 1_555 1_555
O2 C11 1_555 1_555
C1 H1 1_555 1_555
C2 C1 1_555 1_555
H2 C2 1_555 1_555
C3 C2 1_555 1_555
H3 C3 1_555 1_555
C4 C3 1_555 1_555
H4 C4 1_555 1_555
C5 C4 1_555 1_555
H5 C5 1_555 1_555
C6 C1 1_555 1_555
C7 C6 1_555 1_555
C8 C7 1_555 1_555
C9 C7 1_555 1_555
H6 C9 1_555 1_555
C10 C9 1_555 1_555
C11 C10 1_555 1_555
C12 O2 1_555 1_555
H7 C12 1_555 1_555
H8 C12 1_555 1_555
H9 C12 1_555 1_555
C13 C10 1_555 1_555
H10 C13 1_555 1_555
C14 C13 1_555 1_555
C15 C14 1_555 1_555
H11 C15 1_555 1_555
C16 C15 1_555 1_555
H12 C16 1_555 1_555
C17 C16 1_555 1_555
H13 C17 1_555 1_555
C18 C17 1_555 1_555
H14 C18 1_555 1_555
C19 C14 1_555 1_555
H15 C19 1_555 1_555
F4 C27 1_555 1_555
F5 C27 1_555 1_555
F6 C27 1_555 1_555
O3 C30 1_555 1_555
O4 C30 1_555 1_555
C20 H16 1_555 1_555
C21 C20 1_555 1_555
H17 C21 1_555 1_555
C22 C21 1_555 1_555
H18 C22 1_555 1_555
C23 C22 1_555 1_555
H19 C23 1_555 1_555
C24 C23 1_555 1_555
H20 C24 1_555 1_555
C25 C20 1_555 1_555
C26 C25 1_555 1_555
C27 C26 1_555 1_555
C28 C26 1_555 1_555
H21 C28 1_555 1_555
C29 C28 1_555 1_555
C30 C29 1_555 1_555
C31 O4 1_555 1_555
H22 C31 1_555 1_555
H23 C31 1_555 1_555
H24 C31 1_555 1_555
C32 C29 1_555 1_555
H25 C32 1_555 1_555
C33 C32 1_555 1_555
C34 C33 1_555 1_555
H26 C34 1_555 1_555
C35 C34 1_555 1_555
H27 C35 1_555 1_555
C36 C35 1_555 1_555
H28 C36 1_555 1_555
C37 C36 1_555 1_555
H29 C37 1_555 1_555
C38 C33 1_555 1_555
H30 C38 1_555 1_555
C5 C6 1_555 1_555
C18 C19 1_555 1_555
C24 C25 1_555 1_555
C37 C38 1_555 1_555

#END
