
#######################################################################
#
#                 Cambridge Crystallographic Data Centre
#                                CCDC 
#
#######################################################################
#
# If this CIF has been generated from an entry in the Cambridge 
# Structural Database, then it will include bibliographic, chemical, 
# crystal, experimental, refinement or atomic coordinate data resulting 
# from the CCDC's data processing and validation procedures.
#
#######################################################################

data_UWIYUV
_chemical_formula_moiety         'C20 H8 S3'
_chemical_name_systematic        
Thieno[2',3',4',5':6,7]perylo[1,12-cde][1,2]dithiine
_symmetry_cell_setting           monoclinic
_symmetry_space_group_name_H-M   'P 21/c'
_symmetry_Int_Tables_number      14
_space_group_name_Hall           '-P 2ybc'
loop_
_symmetry_equiv_pos_site_id
_symmetry_equiv_pos_as_xyz
1 x,y,z
2 -x,1/2+y,1/2-z
3 -x,-y,-z
4 x,1/2-y,1/2+z
_cell_length_a                   10.017(2)
_cell_length_b                   12.087(2)
_cell_length_c                   12.384(3)
_cell_angle_alpha                90
_cell_angle_beta                 109.61(3)
_cell_angle_gamma                90
_cell_volume                     1412.43
_exptl_crystal_colour            red
_exptl_crystal_description       plate
_cell_formula_units_Z            4
loop_
_atom_site_label
_atom_site_type_symbol
_atom_site_fract_x
_atom_site_fract_y
_atom_site_fract_z
S1 S 0.65471(11) 0.60643(9) -0.00980(9)
S2 S 1.43977(11) 0.49273(10) 0.32958(10)
S3 S 1.45881(12) 0.65198(10) 0.27977(12)
C1 C 0.7607(4) 0.5466(3) 0.1202(3)
C2 C 0.7246(4) 0.4849(3) 0.2036(4)
H1 H 0.6282 0.4716 0.1954
C3 C 0.8311(4) 0.4450(3) 0.2962(3)
H2 H 0.8064 0.4037 0.3520
C4 C 0.9778(4) 0.4622(3) 0.3133(3)
C5 C 1.0909(4) 0.4191(3) 0.4056(3)
H3 H 1.0715 0.3793 0.4647
C6 C 1.2286(4) 0.4343(3) 0.4107(3)
H4 H 1.3030 0.4024 0.4721
C7 C 1.2620(4) 0.4961(3) 0.3266(3)
C8 C 1.3128(4) 0.6569(3) 0.1500(4)
C9 C 1.3272(5) 0.7175(3) 0.0567(4)
H5 H 1.4185 0.7430 0.0606
C10 C 1.2136(5) 0.7402(3) -0.0390(4)
H6 H 1.2276 0.7777 -0.1017
C11 C 1.0766(5) 0.7085(3) -0.0452(3)
C12 C 0.9486(5) 0.7358(3) -0.1367(3)
H7 H 0.9570 0.7742 -0.2011
C13 C 0.8166(5) 0.7105(3) -0.1373(3)
H8 H 0.7351 0.7317 -0.1994
C14 C 0.8039(4) 0.6515(3) -0.0426(3)
C15 C 0.9266(4) 0.6212(3) 0.0452(3)
C16 C 0.9018(4) 0.5637(3) 0.1357(3)
C17 C 1.0138(4) 0.5247(3) 0.2298(3)
C18 C 1.1561(4) 0.5467(3) 0.2366(3)
C19 C 1.1817(4) 0.6153(3) 0.1457(3)
C20 C 1.0633(4) 0.6471(3) 0.0482(3)
loop_
_geom_bond_atom_site_label_1
_geom_bond_atom_site_label_2
_geom_bond_site_symmetry_1
_geom_bond_site_symmetry_2
S1 C1 1_555 1_555
S2 S3 1_555 1_555
S3 C8 1_555 1_555
C1 C2 1_555 1_555
C2 H1 1_555 1_555
C3 C2 1_555 1_555
H2 C3 1_555 1_555
C4 C3 1_555 1_555
C5 C4 1_555 1_555
H3 C5 1_555 1_555
C6 C5 1_555 1_555
H4 C6 1_555 1_555
C7 S2 1_555 1_555
C8 C9 1_555 1_555
C9 H5 1_555 1_555
C10 C9 1_555 1_555
H6 C10 1_555 1_555
C11 C10 1_555 1_555
C12 C11 1_555 1_555
H7 C12 1_555 1_555
C13 C12 1_555 1_555
H8 C13 1_555 1_555
C14 S1 1_555 1_555
C15 C14 1_555 1_555
C16 C1 1_555 1_555
C17 C4 1_555 1_555
C18 C7 1_555 1_555
C19 C8 1_555 1_555
C20 C11 1_555 1_555
C6 C7 1_555 1_555
C13 C14 1_555 1_555
C15 C16 1_555 1_555
C15 C20 1_555 1_555
C16 C17 1_555 1_555
C17 C18 1_555 1_555
C18 C19 1_555 1_555
C19 C20 1_555 1_555

#END
