
#######################################################################
#
#                 Cambridge Crystallographic Data Centre
#                                CCDC 
#
#######################################################################
#
# If this CIF has been generated from an entry in the Cambridge 
# Structural Database, then it will include bibliographic, chemical, 
# crystal, experimental, refinement or atomic coordinate data resulting 
# from the CCDC's data processing and validation procedures.
#
#######################################################################

data_UWIZIL
_chemical_formula_moiety         'C60 H36 B1 Cl1 N6 S6,C60'
_chemical_name_systematic        
'chloro(5,8,14,17,23,26-hexakis(phenylsulfanyl)-2,11,20,28,29,30-hexaazaheptacyclo[19.6.1.1^3,10^.1^12,19^.0^4,9^.0^13,18^.0^22,27^]triaconta-1(28),2,4,6,8,10,12,14,16,18,20,22,24,26-tetradecaenato)boron C60-fullerene'
_symmetry_cell_setting           hexagonal
_symmetry_space_group_name_H-M   'P 63/m'
_symmetry_Int_Tables_number      176
_space_group_name_Hall           '-P 6c'
loop_
_symmetry_equiv_pos_site_id
_symmetry_equiv_pos_as_xyz
1 x,y,z
2 x-y,x,1/2+z
3 -y,x-y,z
4 -x,-y,1/2+z
5 -x+y,-x,z
6 y,-x+y,1/2+z
7 -x,-y,-z
8 -x+y,-x,1/2-z
9 y,-x+y,-z
10 x,y,1/2-z
11 x-y,x,-z
12 -y,x-y,1/2-z
_cell_length_a                   25.560(7)
_cell_length_b                   25.560(7)
_cell_length_c                   39.513(5)
_cell_angle_alpha                90
_cell_angle_beta                 90
_cell_angle_gamma                120
_cell_volume                     22355.9
_cell_formula_units_Z            12
loop_
_atom_site_label
_atom_site_type_symbol
_atom_site_fract_x
_atom_site_fract_y
_atom_site_fract_z
B1 B 0.6667 0.3333 0.5665(9)
Cl1 Cl 0.6667 0.3333 0.51929(16)
N1 N 0.6776(6) 0.3909(6) 0.5809(3)
S1 S 0.56133(19) 0.4641(2) 0.62084(11)
C1 C 0.6356(9) 0.4012(7) 0.5903(4)
N2 N 0.7792(6) 0.4227(6) 0.5938(3)
S2 S 0.8433(2) 0.5576(2) 0.62191(13)
C2 C 0.5539(5) 0.5258(5) 0.6315(3)
C3 C 0.5732(5) 0.5755(6) 0.6103(3)
H1 H 0.5941 0.5781 0.5905
C4 C 0.5612(6) 0.6213(5) 0.6186(3)
H2 H 0.5741 0.6545 0.6044
C5 C 0.5299(6) 0.6174(5) 0.6481(4)
H3 H 0.5218 0.6481 0.6537
C6 C 0.5105(5) 0.5677(6) 0.6693(3)
H4 H 0.4896 0.5651 0.6891
C7 C 0.5225(5) 0.5219(5) 0.6610(3)
H5 H 0.5096 0.4887 0.6752
C8 C 0.7327(8) 0.4332(7) 0.5905(4)
C9 C 0.7430(5) 0.5710(4) 0.6351(3)
H6 H 0.7695 0.6079 0.6451
C10 C 0.7651(4) 0.5365(5) 0.6204(3)
C11 C 0.7255(5) 0.4814(5) 0.6054(2)
C12 C 0.6638(5) 0.4608(4) 0.6052(2)
C13 C 0.6417(4) 0.4953(5) 0.6199(3)
C14 C 0.6813(5) 0.5504(5) 0.6348(3)
H7 H 0.6665 0.5735 0.6447
C15 C 0.8793(6) 0.6298(6) 0.6402(4)
C16 C 0.8793(7) 0.6749(8) 0.6205(4)
H8 H 0.8561 0.6649 0.6010
C17 C 0.9142(9) 0.7351(7) 0.6301(5)
H9 H 0.9142 0.7653 0.6170
C18 C 0.9489(7) 0.7501(6) 0.6594(6)
H10 H 0.9722 0.7904 0.6658
C19 C 0.9489(7) 0.7050(10) 0.6790(4)
H11 H 0.9721 0.7151 0.6986
C20 C 0.9140(8) 0.6448(8) 0.6694(4)
H12 H 0.9140 0.6146 0.6826
N1B N 0.6091(6) 0.2867(8) 0.5809(3)
S1B S 0.5359(2) 0.09723(28) 0.62084(11)
C1B C 0.5988(7) 0.2344(11) 0.5903(4)
N2B N 0.5773(6) 0.3565(8) 0.5938(3)
S2B S 0.4424(2) 0.2857(3) 0.62191(13)
C2B C 0.4742(5) 0.0281(7) 0.6315(3)
C3B C 0.4245(6) -0.0023(8) 0.6103(3)
H1B H 0.4219 0.0160 0.5905
C4B C 0.3787(5) -0.0601(8) 0.6186(3)
H2B H 0.3455 -0.0804 0.6044
C5B C 0.3826(5) -0.0875(8) 0.6481(4)
H3B H 0.3519 -0.1263 0.6537
C6B C 0.4323(6) -0.0572(8) 0.6693(3)
H4B H 0.4349 -0.0755 0.6891
C7B C 0.4781(5) 0.0006(7) 0.6610(3)
H5B H 0.5113 0.0209 0.6752
C8B C 0.5668(7) 0.2995(11) 0.5905(4)
C9B C 0.4290(4) 0.1720(6) 0.6351(3)
H6B H 0.3921 0.1616 0.6451
C10B C 0.4635(5) 0.2286(6) 0.6204(3)
C11B C 0.5186(5) 0.2441(7) 0.6054(2)
C12B C 0.5392(4) 0.2030(6) 0.6052(2)
C13B C 0.5047(5) 0.1464(6) 0.6199(3)
C14B C 0.4496(5) 0.1309(7) 0.6348(3)
H7B H 0.4265 0.0930 0.6447
C15B C 0.3702(6) 0.2495(8) 0.6402(4)
C16B C 0.3251(8) 0.2044(11) 0.6205(4)
H8B H 0.3351 0.1912 0.6010
C17B C 0.2649(7) 0.1791(11) 0.6301(5)
H9B H 0.2347 0.1489 0.6170
C18B C 0.2499(6) 0.1988(9) 0.6594(6)
H10B H 0.2096 0.1818 0.6658
C19B C 0.2950(10) 0.2439(12) 0.6790(4)
H11B H 0.2849 0.2570 0.6986
C20B C 0.3552(8) 0.2692(11) 0.6694(4)
H12B H 0.3854 0.2994 0.6826
N1D N 0.7133(8) 0.3224(6) 0.5809(3)
S1D S 0.90277(28) 0.43867(19) 0.62084(11)
C1D C 0.7656(11) 0.3644(9) 0.5903(4)
N2D N 0.6435(8) 0.2208(6) 0.5938(3)
S2D S 0.7143(3) 0.1567(2) 0.62191(13)
C2D C 0.9719(7) 0.4461(5) 0.6315(3)
C3D C 1.0023(8) 0.4268(5) 0.6103(3)
H1D H 0.9840 0.4059 0.5905
C4D C 1.0601(8) 0.4388(6) 0.6186(3)
H2D H 1.0804 0.4259 0.6044
C5D C 1.0875(8) 0.4701(6) 0.6481(4)
H3D H 1.1263 0.4782 0.6537
C6D C 1.0572(8) 0.4895(5) 0.6693(3)
H4D H 1.0755 0.5104 0.6891
C7D C 0.9994(7) 0.4775(5) 0.6610(3)
H5D H 0.9791 0.4904 0.6752
C8D C 0.7005(11) 0.2673(8) 0.5905(4)
C9D C 0.8280(6) 0.2570(5) 0.6351(3)
H6D H 0.8384 0.2305 0.6451
C10D C 0.7714(6) 0.2349(4) 0.6204(3)
C11D C 0.7559(7) 0.2745(5) 0.6054(2)
C12D C 0.7970(6) 0.3362(5) 0.6052(2)
C13D C 0.8536(6) 0.3583(4) 0.6199(3)
C14D C 0.8691(7) 0.3187(5) 0.6348(3)
H7D H 0.9070 0.3335 0.6447
C15D C 0.7505(8) 0.1207(6) 0.6402(4)
C16D C 0.7956(11) 0.1207(7) 0.6205(4)
H8D H 0.8088 0.1439 0.6010
C17D C 0.8209(11) 0.0858(9) 0.6301(5)
H9D H 0.8511 0.0858 0.6170
C18D C 0.8012(9) 0.0511(7) 0.6594(6)
H10D H 0.8182 0.0278 0.6658
C19D C 0.7561(12) 0.0511(7) 0.6790(4)
H11D H 0.7430 0.0279 0.6986
C20D C 0.7308(11) 0.0860(8) 0.6694(4)
H12D H 0.7006 0.0860 0.6826
C21 C 0.8057(9) 0.5302(12) 0.4797(6)
C22 C 0.7491(11) 0.4772(8) 0.4853(5)
C23 C 0.7214(8) 0.4879(10) 0.5136(5)
C24 C 0.7608(13) 0.5474(11) 0.5254(4)
C25 C 0.8129(9) 0.5736(8) 0.5044(8)
C26 C 0.8634(9) 0.6604(15) 0.4629(9)
C27 C 0.8477(11) 0.6403(10) 0.4968(9)
C28 C 0.8222(11) 0.6729(15) 0.5118(5)
C29 C 0.8220(12) 0.7132(10) 0.4871(10)
C30 C 0.8475(10) 0.7055(12) 0.4569(7)
C31 C 0.7837(11) 0.5160(8) 0.4198(8)
C32 C 0.8203(11) 0.5474(13) 0.4480(6)
C33 C 0.8527(8) 0.6099(11) 0.4400(7)
C34 C 0.8360(11) 0.6172(11) 0.4068(7)
C35 C 0.7934(12) 0.5592(15) 0.3943(5)
C36 C 0.7140(11) 0.4477(10) 0.4574(5)
C37 C 0.7313(12) 0.4671(10) 0.4235(7)
C38 C 0.6790(16) 0.4569(10) 0.4055(3)
C39 C 0.6293(10) 0.4312(10) 0.4282(7)
C40 C 0.6510(11) 0.4255(8) 0.4603(5)
C41 C 0.6578(8) 0.4655(9) 0.5146(5)
C42 C 0.6232(11) 0.4360(7) 0.4853(5)
C43 C 0.5801(8) 0.4549(11) 0.4807(6)
C44 C 0.5880(10) 0.4960(11) 0.5070(7)
C45 C 0.6360(12) 0.5026(8) 0.5280(4)
C46 C 0.7392(16) 0.5768(14) 0.5381(5)
C47 C 0.6772(13) 0.5599(9) 0.5396(5)
C48 C 0.6731(14) 0.6129(16) 0.5352(5)
C49 C 0.7326(19) 0.6625(9) 0.5311(4)
C50 C 0.7734(10) 0.6402(14) 0.5329(5)
C51 C 0.5893(11) 0.4853(15) 0.4028(5)
C52 C 0.5685(11) 0.5237(11) 0.4153(9)
C53 C 0.5519(9) 0.5084(16) 0.4498(8)
C54 C 0.5626(11) 0.4607(15) 0.4585(7)
C55 C 0.5857(12) 0.4463(10) 0.4294(10)
C56 C 0.6226(13) 0.6076(18) 0.5127(5)
C57 C 0.5791(13) 0.5485(14) 0.5020(8)
C58 C 0.5608(9) 0.5527(16) 0.4687(8)
C59 C 0.5929(14) 0.6144(19) 0.4588(6)
C60 C 0.6311(13) 0.6483(11) 0.4860(10)
C61 C 0.6666(12) 0.6812(9) 0.4234(6)
C62 C 0.6096(10) 0.6287(14) 0.4290(6)
C63 C 0.6013(8) 0.5856(9) 0.4038(7)
C64 C 0.6531(13) 0.6116(13) 0.3826(4)
C65 C 0.6934(8) 0.6706(11) 0.3947(6)
C66 C 0.6969(13) 0.7105(11) 0.4519(6)
C67 C 0.7603(13) 0.7345(8) 0.4493(5)
C68 C 0.7822(11) 0.7303(9) 0.4816(8)
C69 C 0.7323(18) 0.7037(10) 0.5042(4)
C70 C 0.6797(13) 0.6915(11) 0.4859(8)
C71 C 0.6817(19) 0.5056(9) 0.3790(4)
C72 C 0.7413(14) 0.5542(19) 0.3734(5)
C73 C 0.7379(14) 0.6073(11) 0.3680(5)
C74 C 0.6764(18) 0.5917(16) 0.3703(5)
C75 C 0.6416(9) 0.5288(17) 0.3771(5)
C76 C 0.7791(12) 0.6587(8) 0.3814(4)
C77 C 0.8281(10) 0.6671(11) 0.4021(7)
C78 C 0.8365(8) 0.7096(11) 0.4277(5)
C79 C 0.7926(12) 0.7275(7) 0.4228(5)
C80 C 0.7571(8) 0.6960(10) 0.3942(5)
C81? C 0.3424(10) 0.5449(8) 0.7858(7)
C82? C 0.3709(10) 0.5518(8) 0.7531(8)
C83? C 0.3240(10) 0.5287(8) 0.7276(7)
C84? C 0.3348(10) 0.5571(9) 0.6963(6)
C85? C 0.2778(10) 0.5173(7) 0.7804(6)
C86? C 0.2442(9) 0.5353(8) 0.7998(5)
C87? C 0.4266(9) 0.6024(9) 0.7465(8)
C88? C 0.3705(10) 0.5890(9) 0.8104(6)
C89? C 0.2737(9) 0.5814(9) 0.8254(5)
C90? C 0.4559(8) 0.6486(10) 0.7722(7)
C91? C 0.1767(7) 0.5759(9) 0.7294(5)
C92? C 0.1874(8) 0.5346(8) 0.7495(5)
C93? C 0.2224(9) 0.5160(7) 0.7292(5)
C94? C 0.2667(9) 0.5075(7) 0.7443(6)
C95? C 0.2053(8) 0.5825(9) 0.6967(5)
C96? C 0.2334(9) 0.6385(10) 0.6806(5)
C97? C 0.1979(8) 0.5441(8) 0.7840(5)
C98? C 0.1776(7) 0.6251(10) 0.7446(6)
C99? C 0.2344(9) 0.6898(10) 0.6966(6)
C100? C 0.1990(8) 0.5957(9) 0.7999(5)
C101? C 0.3826(9) 0.6515(10) 0.6693(5)
C102? C 0.3179(10) 0.6240(10) 0.6640(4)
C103? C 0.2887(9) 0.5659(9) 0.6807(5)
C104? C 0.2335(9) 0.5455(8) 0.6967(5)
C105? C 0.3929(9) 0.6099(10) 0.6893(6)
C106? C 0.4379(9) 0.6321(10) 0.7139(7)
C107? C 0.2911(9) 0.6596(10) 0.6639(4)
C108? C 0.4173(9) 0.7131(10) 0.6747(5)
C109? C 0.4742(8) 0.6966(10) 0.7195(6)
C110? C 0.3275(10) 0.7242(10) 0.6696(5)
C111? C 0.4863(7) 0.7560(9) 0.7707(5)
C112? C 0.4756(7) 0.7973(8) 0.7507(5)
C113? C 0.4406(9) 0.8159(7) 0.7710(5)
C114? C 0.3963(9) 0.8243(7) 0.7558(6)
C115? C 0.4578(8) 0.7493(9) 0.8035(5)
C116? C 0.4296(9) 0.6934(10) 0.8195(5)
C117? C 0.4651(8) 0.7878(8) 0.7162(5)
C118? C 0.4854(7) 0.7068(10) 0.7555(6)
C119? C 0.4287(9) 0.6420(10) 0.8035(6)
C120? C 0.4640(8) 0.7361(9) 0.7003(5)
C121? C 0.2805(9) 0.6804(10) 0.8309(5)
C122? C 0.3451(9) 0.7079(10) 0.8362(4)
C123? C 0.3743(9) 0.7660(9) 0.8195(5)
C124? C 0.4296(9) 0.7863(8) 0.8034(5)
C125? C 0.2701(9) 0.7219(10) 0.8108(6)
C126? C 0.2251(9) 0.6997(10) 0.7862(7)
C127? C 0.3719(9) 0.6722(10) 0.8362(4)
C128? C 0.2457(9) 0.6188(10) 0.8255(5)
C129? C 0.1888(7) 0.6353(10) 0.7807(6)
C130? C 0.3355(9) 0.6077(10) 0.8305(5)
C131? C 0.3206(10) 0.7870(8) 0.7143(7)
C132? C 0.2921(10) 0.7800(8) 0.7470(7)
C133? C 0.3390(10) 0.8032(8) 0.7725(7)
C134? C 0.3282(10) 0.7747(9) 0.8038(6)
C135? C 0.3852(10) 0.8145(7) 0.7198(6)
C136? C 0.4189(9) 0.7966(8) 0.7004(5)
C137? C 0.2364(9) 0.7295(9) 0.7536(7)
C138? C 0.2925(10) 0.7429(9) 0.6897(6)
C139? C 0.3894(9) 0.7505(9) 0.6748(4)
C140? C 0.2071(8) 0.6833(10) 0.7279(7)
C141? C 0.9808(14) 0.9549(10) 0.3684(3)
C142? C 0.9499(14) 0.9894(10) 0.3708(4)
C143? C 0.8946(12) 0.9539(10) 0.3895(6)
C144? C 0.8743(10) 0.9821(10) 0.4117(8)
C145? C 0.9440(12) 0.8978(9) 0.3858(3)
C146? C 0.9716(11) 0.8723(9) 0.4047(4)
C147? C 0.9831(14) 1.0516(10) 0.3749(4)
C148? C 1.0432(14) 0.9838(10) 0.3706(4)
C149? C 1.0368(11) 0.9027(10) 0.4070(6)
C150? C 1.0484(13) 1.0819(10) 0.3773(3)
C151? C 0.8927(13) 0.8579(8) 0.4852(5)
C152? C 0.8961(11) 0.8451(8) 0.4497(5)
C153? C 0.8674(10) 0.8717(8) 0.4302(6)
C154? C 0.8909(11) 0.8975(9) 0.3988(5)
C155? C 0.8618(12) 0.8925(9) 0.4873(6)
C156? C 0.8803(15) 0.9387(10) 0.5110(6)
C157? C 0.9470(11) 0.8454(8) 0.4373(5)
C158? C 0.9406(15) 0.8711(9) 0.5066(4)
C159? C 0.9303(17) 0.9523(10) 0.5333(4)
C160? C 0.9972(12) 0.8593(9) 0.4598(6)
C161? C 0.9056(11) 1.0602(9) 0.4515(9)
C162? C 0.8691(11) 1.0032(10) 0.4689(9)
C163? C 0.8499(10) 0.9552(10) 0.4442(9)
C164? C 0.8463(10) 0.9009(9) 0.4532(7)
C165? C 0.9087(11) 1.0471(10) 0.4160(8)
C166? C 0.9620(12) 1.0811(9) 0.3980(6)
C167? C 0.8840(14) 0.9953(10) 0.5015(8)
C168? C 0.9556(12) 1.1066(9) 0.4674(7)
C169? C 1.0142(12) 1.1296(9) 0.4147(5)
C170? C 0.9366(16) 1.0439(10) 0.5181(6)
C171? C 1.1155(11) 1.1432(8) 0.4233(5)
C172? C 1.1122(11) 1.1560(8) 0.4587(4)
C173? C 1.1409(11) 1.1295(9) 0.4783(6)
C174? C 1.1174(14) 1.1036(9) 0.5096(5)
C175? C 1.1465(10) 1.1087(9) 0.4211(6)
C176? C 1.1280(11) 1.0624(10) 0.3975(6)
C177? C 1.0613(12) 1.1558(8) 0.4711(4)
C178? C 1.0677(12) 1.1301(9) 0.4018(4)
C179? C 1.0779(13) 1.0489(10) 0.3751(4)
C180? C 1.0111(11) 1.1419(8) 0.4486(6)
C181? C 1.1026(11) 0.9409(10) 0.4569(9)
C182? C 1.1391(10) 0.9980(10) 0.4396(9)
C183? C 1.1583(10) 1.0460(10) 0.4642(9)
C184? C 1.1619(10) 1.1003(10) 0.4552(7)
C185? C 1.0996(13) 0.9541(10) 0.4924(8)
C186? C 1.0462(15) 0.9200(10) 0.5104(6)
C187? C 1.1242(11) 1.0058(11) 0.4070(8)
C188? C 1.0526(11) 0.8946(9) 0.4411(8)
C189? C 0.9940(14) 0.8716(9) 0.4937(5)
C190? C 1.0717(12) 0.9573(10) 0.3904(6)
C191? C 1.0274(18) 1.0463(10) 0.5400(3)
C192? C 1.0583(18) 1.0117(10) 0.5376(4)
C193? C 1.1137(15) 1.0473(10) 0.5189(6)
C194? C 1.1339(13) 1.0190(10) 0.4967(8)
C195? C 1.0642(16) 1.1033(9) 0.5226(3)
C196? C 1.0367(14) 1.1288(9) 0.5037(4)
C197? C 1.0252(18) 0.9495(10) 0.5336(4)
C198? C 0.9651(18) 1.0174(10) 0.5378(4)
C199? C 0.9715(14) 1.0984(9) 0.5015(6)
C200? C 0.9599(17) 0.9192(9) 0.5311(3)
C201? C 0.8272(7) 0.4392(9) 0.7378(5)
C202? C 0.8140(7) 0.4005(9) 0.7085(5)
C203? C 0.8072(7) 0.3436(10) 0.7198(5)
C204? C 0.7642(9) 0.2899(10) 0.7049(5)
C205? C 0.8285(7) 0.4059(9) 0.7673(5)
C206? C 0.8055(8) 0.4120(9) 0.7980(5)
C207? C 0.7778(8) 0.4017(9) 0.6828(4)
C208? C 0.8031(8) 0.4770(7) 0.7403(5)
C209? C 0.7803(9) 0.4515(7) 0.8005(4)
C210? C 0.7524(8) 0.4412(7) 0.6854(4)
C211? C 0.6975(10) 0.2505(8) 0.8122(4)
C212? C 0.7574(9) 0.3027(9) 0.8079(4)
C213? C 0.7812(9) 0.2963(10) 0.7759(5)
C214? C 0.8160(7) 0.3468(10) 0.7560(5)
C215? C 0.6847(11) 0.2119(8) 0.7828(5)
C216? C 0.6266(10) 0.1817(6) 0.7694(5)
C217? C 0.7691(9) 0.3591(9) 0.8187(4)
C218? C 0.6520(10) 0.2572(8) 0.8269(4)
C219? C 0.5792(9) 0.1888(6) 0.7848(5)
C220? C 0.7214(10) 0.3661(8) 0.8341(4)
C221? C 0.6663(10) 0.2390(8) 0.6822(4)
C222? C 0.6676(10) 0.2059(7) 0.7117(5)
C223? C 0.7281(10) 0.2375(9) 0.7256(5)
C224? C 0.7365(10) 0.2405(9) 0.7604(5)
C225? C 0.7263(9) 0.2910(9) 0.6780(4)
C226? C 0.7329(8) 0.3458(9) 0.6671(4)
C227? C 0.6180(10) 0.1786(6) 0.7330(5)
C228? C 0.6158(9) 0.2438(8) 0.6755(4)
C229? C 0.6799(9) 0.3507(9) 0.6601(3)
C230? C 0.5650(9) 0.1838(6) 0.7260(5)
C231? C 0.6465(9) 0.4164(8) 0.6861(4)
C232? C 0.5867(9) 0.3643(10) 0.6905(5)
C233? C 0.5629(9) 0.3707(10) 0.7224(5)
C234? C 0.5281(7) 0.3202(10) 0.7423(5)
C235? C 0.6594(10) 0.4550(8) 0.7155(5)
C236? C 0.7175(10) 0.4853(6) 0.7289(5)
C237? C 0.5750(8) 0.3078(9) 0.6796(4)
C238? C 0.6920(9) 0.4098(8) 0.6714(4)
C239? C 0.7649(9) 0.4782(6) 0.7135(5)
C240? C 0.6227(8) 0.3008(9) 0.6643(4)
C241? C 0.6778(11) 0.4280(8) 0.8162(4)
C242? C 0.6764(11) 0.4611(7) 0.7866(5)
C243? C 0.6160(11) 0.4295(9) 0.7727(5)
C244? C 0.6076(10) 0.4265(9) 0.7379(5)
C245? C 0.6178(10) 0.3760(9) 0.8204(4)
C246? C 0.6112(10) 0.3212(9) 0.8312(4)
C247? C 0.7261(11) 0.4884(6) 0.7653(5)
C248? C 0.7283(10) 0.4232(8) 0.8229(4)
C249? C 0.6642(10) 0.3163(8) 0.8382(3)
C250? C 0.7790(9) 0.4832(6) 0.7723(5)
C251? C 0.5169(7) 0.2278(9) 0.7605(5)
C252? C 0.5301(7) 0.2665(9) 0.7899(5)
C253? C 0.5369(8) 0.3234(10) 0.7785(5)
C254? C 0.5799(10) 0.3771(10) 0.7935(5)
C255? C 0.5156(6) 0.2611(10) 0.7311(5)
C256? C 0.5386(7) 0.2550(9) 0.7003(5)
C257? C 0.5663(9) 0.2653(9) 0.8156(4)
C258? C 0.5410(8) 0.1900(7) 0.7580(5)
C259? C 0.5638(8) 0.2155(7) 0.6978(4)
C260? C 0.5917(9) 0.2258(7) 0.8129(4)
C261? C 0.6207(4) 0.7580(5) 0.7171(3)
C262? C 0.6598(5) 0.7823(5) 0.6878(3)
C263? C 0.6987(5) 0.8465(5) 0.6929(3)
C264? C 0.7583(6) 0.8749(4) 0.6819(2)
C265? C 0.6356(4) 0.8076(5) 0.7402(3)
C266? C 0.6350(4) 0.7984(5) 0.7749(3)
C267? C 0.6819(5) 0.7487(5) 0.6720(2)
C268? C 0.6059(3) 0.7016(5) 0.7296(3)
C269? C 0.6195(4) 0.7395(5) 0.7879(3)
C270? C 0.6664(5) 0.6898(4) 0.6851(3)
C271? C 0.7906(5) 0.9195(4) 0.7927(3)
C272? C 0.7287(5) 0.8958(4) 0.7816(3)
C273? C 0.7295(5) 0.9054(4) 0.7455(3)
C274? C 0.6839(5) 0.8622(5) 0.7252(3)
C275? C 0.8294(5) 0.9437(3) 0.7633(3)
C276? C 0.8800(4) 0.9370(3) 0.7602(3)
C277? C 0.6826(5) 0.8436(5) 0.7961(3)
C278? C 0.8037(5) 0.8896(4) 0.8176(2)
C279? C 0.8936(4) 0.9058(4) 0.7862(3)
C280? C 0.6964(5) 0.8123(5) 0.8221(2)
C281? C 0.8434(5) 0.8634(4) 0.6765(2)
C282? C 0.8581(5) 0.9128(4) 0.6998(3)
C283? C 0.8055(6) 0.9197(3) 0.7030(3)
C284? C 0.7914(6) 0.9348(3) 0.7342(3)
C285? C 0.7815(6) 0.8400(4) 0.6655(2)
C286? C 0.7441(5) 0.7782(5) 0.66058(19)
C287? C 0.8946(4) 0.9212(4) 0.7276(3)
C288? C 0.8652(4) 0.8243(5) 0.6823(3)
C289? C 0.7670(5) 0.7375(4) 0.6666(2)
C290? C 0.9173(3) 0.8802(5) 0.7337(3)
C291? C 0.7321(5) 0.6529(4) 0.7066(2)
C292? C 0.7940(5) 0.6766(4) 0.7178(3)
C293? C 0.7932(5) 0.6670(4) 0.7539(3)
C294? C 0.8388(5) 0.7102(5) 0.7742(3)
C295? C 0.6933(5) 0.6286(3) 0.7361(3)
C296? C 0.6427(4) 0.6353(3) 0.7392(3)
C297? C 0.8401(5) 0.7288(5) 0.7032(3)
C298? C 0.7189(5) 0.6827(4) 0.6818(2)
C299? C 0.6291(4) 0.6665(4) 0.7131(3)
C300? C 0.8263(5) 0.7601(5) 0.6773(2)
C301? C 0.6793(5) 0.7089(4) 0.8228(2)
C302? C 0.6645(5) 0.6595(4) 0.7995(3)
C303? C 0.7171(6) 0.6527(4) 0.7963(2)
C304? C 0.7312(6) 0.6375(3) 0.7652(3)
C305? C 0.7412(6) 0.7324(5) 0.8339(2)
C306? C 0.7785(6) 0.7942(5) 0.83875(19)
C307? C 0.6281(4) 0.6512(4) 0.7717(3)
C308? C 0.6575(5) 0.7481(5) 0.8171(3)
C309? C 0.7556(6) 0.8349(5) 0.8327(2)
C310? C 0.6053(3) 0.6922(5) 0.7657(3)
C311? C 0.9020(4) 0.8143(6) 0.7823(3)
C312? C 0.8628(5) 0.7900(5) 0.8116(3)
C313? C 0.8240(6) 0.7258(5) 0.8065(3)
C314? C 0.7644(6) 0.6975(4) 0.8174(2)
C315? C 0.8871(4) 0.7647(6) 0.7587(3)
C316? C 0.8877(4) 0.7739(6) 0.7244(3)
C317? C 0.8408(5) 0.8236(5) 0.8274(2)
C318? C 0.9168(3) 0.8707(5) 0.7698(3)
C319? C 0.9032(3) 0.8329(5) 0.7115(3)
C320? C 0.8562(5) 0.8826(4) 0.8142(3)
C321? C 0.4335(15) 0.432(3) 0.7828(3)
C322? C 0.3736(16) 0.415(3) 0.7888(9)
C323? C 0.3334(13) 0.3988(16) 0.7618(13)
C324? C 0.3532(17) 0.399(2) 0.7290(10)
C325? C 0.4132(19) 0.416(2) 0.7231(4)
C326? C 0.4533(15) 0.4321(19) 0.7500
loop_
_geom_bond_atom_site_label_1
_geom_bond_atom_site_label_2
_geom_bond_site_symmetry_1
_geom_bond_site_symmetry_2
B1 Cl1 1_555 1_555
N1 B1 1_555 1_555
S1 C2 1_555 1_555
C1 N1 1_555 1_555
N2 C8 1_555 1_555
S2 C10 1_555 1_555
C2 C3 1_555 1_555
C3 H1 1_555 1_555
C4 C3 1_555 1_555
H2 C4 1_555 1_555
C5 C4 1_555 1_555
H3 C5 1_555 1_555
C6 C5 1_555 1_555
H4 C6 1_555 1_555
C7 C2 1_555 1_555
H5 C7 1_555 1_555
C8 N1 1_555 1_555
C9 H6 1_555 1_555
C10 C9 1_555 1_555
C11 C8 1_555 1_555
C12 C1 1_555 1_555
C13 S1 1_555 1_555
C14 C9 1_555 1_555
H7 C14 1_555 1_555
C15 S2 1_555 1_555
C16 C15 1_555 1_555
H8 C16 1_555 1_555
C17 C16 1_555 1_555
H9 C17 1_555 1_555
C18 C17 1_555 1_555
H10 C18 1_555 1_555
C19 C18 1_555 1_555
H11 C19 1_555 1_555
C20 C15 1_555 1_555
H12 C20 1_555 1_555
C21 C22 1_555 1_555
C22 C23 1_555 1_555
C23 C24 1_555 1_555
C24 C25 1_555 1_555
C25 C21 1_555 1_555
C26 C27 1_555 1_555
C27 C25 1_555 1_555
C28 C27 1_555 1_555
C29 C28 1_555 1_555
C30 C26 1_555 1_555
C31 C32 1_555 1_555
C32 C21 1_555 1_555
C33 C26 1_555 1_555
C34 C33 1_555 1_555
C35 C31 1_555 1_555
C36 C22 1_555 1_555
C37 C31 1_555 1_555
C38 C37 1_555 1_555
C39 C38 1_555 1_555
C40 C36 1_555 1_555
C41 C23 1_555 1_555
C42 C40 1_555 1_555
C43 C42 1_555 1_555
C44 C43 1_555 1_555
C45 C41 1_555 1_555
C46 C24 1_555 1_555
C47 C45 1_555 1_555
C48 C47 1_555 1_555
C49 C48 1_555 1_555
C50 C28 1_555 1_555
C51 C52 1_555 1_555
C52 C53 1_555 1_555
C53 C54 1_555 1_555
C54 C43 1_555 1_555
C55 C39 1_555 1_555
C56 C48 1_555 1_555
C57 C44 1_555 1_555
C58 C53 1_555 1_555
C59 C58 1_555 1_555
C60 C56 1_555 1_555
C61 C62 1_555 1_555
C62 C59 1_555 1_555
C63 C52 1_555 1_555
C64 C63 1_555 1_555
C65 C61 1_555 1_555
C66 C61 1_555 1_555
C67 C66 1_555 1_555
C68 C29 1_555 1_555
C69 C49 1_555 1_555
C70 C60 1_555 1_555
C71 C38 1_555 1_555
C72 C35 1_555 1_555
C73 C72 1_555 1_555
C74 C64 1_555 1_555
C75 C51 1_555 1_555
C76 C73 1_555 1_555
C77 C34 1_555 1_555
C78 C30 1_555 1_555
C79 C67 1_555 1_555
C80 C65 1_555 1_555
N1B B1 1_555 1_555
S1B C2B 1_555 1_555
C1B N1B 1_555 1_555
N2B C1 1_555 1_555
S2B C10B 1_555 1_555
C2B C3B 1_555 1_555
C3B H1B 1_555 1_555
C4B C3B 1_555 1_555
H2B C4B 1_555 1_555
C5B C4B 1_555 1_555
H3B C5B 1_555 1_555
C6B C5B 1_555 1_555
H4B C6B 1_555 1_555
C7B C2B 1_555 1_555
H5B C7B 1_555 1_555
C8B N1B 1_555 1_555
C9B H6B 1_555 1_555
C10B C9B 1_555 1_555
C11B C8B 1_555 1_555
C12B C1B 1_555 1_555
C13B S1B 1_555 1_555
C14B C9B 1_555 1_555
H7B C14B 1_555 1_555
C15B S2B 1_555 1_555
C16B C15B 1_555 1_555
H8B C16B 1_555 1_555
C17B C16B 1_555 1_555
H9B C17B 1_555 1_555
C18B C17B 1_555 1_555
H10B C18B 1_555 1_555
C19B C18B 1_555 1_555
H11B C19B 1_555 1_555
C20B C15B 1_555 1_555
H12B C20B 1_555 1_555
N1D B1 1_555 1_555
S1D C2D 1_555 1_555
C1D N2 1_555 1_555
N2D C1B 1_555 1_555
S2D C10D 1_555 1_555
C2D C3D 1_555 1_555
C3D H1D 1_555 1_555
C4D C3D 1_555 1_555
H2D C4D 1_555 1_555
C5D C4D 1_555 1_555
H3D C5D 1_555 1_555
C6D C5D 1_555 1_555
H4D C6D 1_555 1_555
C7D C2D 1_555 1_555
H5D C7D 1_555 1_555
C8D N1D 1_555 1_555
C9D H6D 1_555 1_555
C10D C9D 1_555 1_555
C11D C8D 1_555 1_555
C12D C1D 1_555 1_555
C13D S1D 1_555 1_555
C14D C9D 1_555 1_555
H7D C14D 1_555 1_555
C15D S2D 1_555 1_555
C16D C15D 1_555 1_555
H8D C16D 1_555 1_555
C17D C16D 1_555 1_555
H9D C17D 1_555 1_555
C18D C17D 1_555 1_555
H10D C18D 1_555 1_555
C19D C18D 1_555 1_555
H11D C19D 1_555 1_555
C20D C15D 1_555 1_555
H12D C20D 1_555 1_555
C6 C7 1_555 1_555
C10 C11 1_555 1_555
C11 C12 1_555 1_555
C12 C13 1_555 1_555
C13 C14 1_555 1_555
C19 C20 1_555 1_555
C29 C30 1_555 1_555
C32 C33 1_555 1_555
C34 C35 1_555 1_555
C36 C37 1_555 1_555
C39 C40 1_555 1_555
C41 C42 1_555 1_555
C44 C45 1_555 1_555
C46 C47 1_555 1_555
C46 C50 1_555 1_555
C49 C50 1_555 1_555
C51 C55 1_555 1_555
C54 C55 1_555 1_555
C56 C57 1_555 1_555
C57 C58 1_555 1_555
C59 C60 1_555 1_555
C62 C63 1_555 1_555
C64 C65 1_555 1_555
C66 C70 1_555 1_555
C67 C68 1_555 1_555
C68 C69 1_555 1_555
C69 C70 1_555 1_555
C71 C72 1_555 1_555
C71 C75 1_555 1_555
C73 C74 1_555 1_555
C74 C75 1_555 1_555
C76 C77 1_555 1_555
C76 C80 1_555 1_555
C77 C78 1_555 1_555
C78 C79 1_555 1_555
C79 C80 1_555 1_555
N2B C8B 1_555 1_555
C6B C7B 1_555 1_555
C10B C11B 1_555 1_555
C11B C12B 1_555 1_555
C12B C13B 1_555 1_555
C13B C14B 1_555 1_555
C19B C20B 1_555 1_555
N1D C1D 1_555 1_555
N2D C8D 1_555 1_555
C6D C7D 1_555 1_555
C10D C11D 1_555 1_555
C11D C12D 1_555 1_555
C12D C13D 1_555 1_555
C13D C14D 1_555 1_555
C19D C20D 1_555 1_555

#END
