
#######################################################################
#
#                 Cambridge Crystallographic Data Centre
#                                CCDC 
#
#######################################################################
#
# If this CIF has been generated from an entry in the Cambridge 
# Structural Database, then it will include bibliographic, chemical, 
# crystal, experimental, refinement or atomic coordinate data resulting 
# from the CCDC's data processing and validation procedures.
#
#######################################################################

data_UWIZAC
_chemical_formula_moiety         'C20 H8 S2'
_chemical_name_systematic        
Thieno[2',3',4',5':6,7]perylo[1,12-bcd]thiophene
_symmetry_cell_setting           monoclinic
_symmetry_space_group_name_H-M   'P 21/n'
_symmetry_Int_Tables_number      14
_space_group_name_Hall           '-P 2yn'
loop_
_symmetry_equiv_pos_site_id
_symmetry_equiv_pos_as_xyz
1 x,y,z
2 1/2-x,1/2+y,1/2-z
3 -x,-y,-z
4 1/2+x,1/2-y,1/2+z
_cell_length_a                   9.6585(19)
_cell_length_b                   4.3731(9)
_cell_length_c                   15.436(3)
_cell_angle_alpha                90
_cell_angle_beta                 98.37(3)
_cell_angle_gamma                90
_cell_volume                     645.035
_exptl_crystal_colour            yellow
_exptl_crystal_description       needle
_cell_formula_units_Z            2
loop_
_atom_site_label
_atom_site_type_symbol
_atom_site_fract_x
_atom_site_fract_y
_atom_site_fract_z
S1 S 0.15440(6) 0.01938(15) 0.07164(4)
C1 C 0.2261(2) 0.1979(6) -0.01563(15)
C2 C 0.1734(3) 0.4021(6) -0.08444(17)
H1 H 0.0794 0.4719 -0.0898
C3 C 0.2597(3) 0.4997(6) -0.14397(17)
H2 H 0.2220 0.6352 -0.1895
C4 C 0.4027(3) 0.4050(6) -0.13972(15)
C5 C 0.5058(3) 0.4819(6) -0.19551(16)
H3 H 0.4793 0.6161 -0.2434
C6 C 0.5879(2) 0.0932(6) -0.05812(15)
C7 C 0.4513(2) 0.2053(6) -0.07086(14)
C8 C 0.3631(2) 0.1082(6) -0.01141(15)
C9 C 0.3145(2) -0.1688(6) 0.11149(15)
C10 C 0.3590(3) -0.3692(6) 0.18228(15)
H4 H 0.2954 -0.4265 0.2209
S1B S 0.84560(6) -0.01938(15) -0.07164(4)
C1B C 0.7739(2) -0.1979(6) 0.01563(15)
C2B C 0.8266(3) -0.4021(6) 0.08444(17)
H1B H 0.9206 -0.4719 0.0898
C3B C 0.7403(3) -0.4997(6) 0.14397(17)
H2B H 0.7780 -0.6352 0.1895
C4B C 0.5973(3) -0.4050(6) 0.13972(15)
C5B C 0.4942(3) -0.4819(6) 0.19551(16)
H3B H 0.5207 -0.6161 0.2434
C6B C 0.4121(2) -0.0932(6) 0.05812(15)
C7B C 0.5487(2) -0.2053(6) 0.07086(14)
C8B C 0.6369(2) -0.1082(6) 0.01141(15)
C9B C 0.6855(2) 0.1688(6) -0.11149(15)
C10B C 0.6410(3) 0.3692(6) -0.18228(15)
H4B H 0.7046 0.4265 -0.2209
loop_
_geom_bond_atom_site_label_1
_geom_bond_atom_site_label_2
_geom_bond_site_symmetry_1
_geom_bond_site_symmetry_2
S1 C1 1_555 1_555
C1 C2 1_555 1_555
C2 H1 1_555 1_555
C3 C2 1_555 1_555
H2 C3 1_555 1_555
C4 C3 1_555 1_555
C5 C4 1_555 1_555
H3 C5 1_555 1_555
C6 C7 1_555 1_555
C7 C4 1_555 1_555
C8 C1 1_555 1_555
C9 S1 1_555 1_555
C10 C9 1_555 1_555
H4 C10 1_555 1_555
S1B C1B 1_555 1_555
C1B C2B 1_555 1_555
C2B H1B 1_555 1_555
C3B C2B 1_555 1_555
H2B C3B 1_555 1_555
C4B C3B 1_555 1_555
C5B C10 1_555 1_555
H3B C5B 1_555 1_555
C6B C8 1_555 1_555
C7B C4B 1_555 1_555
C8B C6 1_555 1_555
C9B C6 1_555 1_555
C10B C5 1_555 1_555
H4B C10B 1_555 1_555
C7 C8 1_555 1_555
C9 C6B 1_555 1_555
S1B C9B 1_555 1_555
C1B C8B 1_555 1_555
C4B C5B 1_555 1_555
C6B C7B 1_555 1_555
C7B C8B 1_555 1_555
C9B C10B 1_555 1_555

#END
