
#######################################################################
#
#                 Cambridge Crystallographic Data Centre
#                                CCDC 
#
#######################################################################
#
# If this CIF has been generated from an entry in the Cambridge 
# Structural Database, then it will include bibliographic, chemical, 
# crystal, experimental, refinement or atomic coordinate data resulting 
# from the CCDC's data processing and validation procedures.
#
#######################################################################

data_UWOBAL
_chemical_formula_moiety         'C60,2(C6 H4 Cl2)'
_chemical_name_systematic        'C60-fullerene 1,2-dichlorobenzene solvate'
_symmetry_cell_setting           triclinic
_symmetry_space_group_name_H-M   'P -1'
_symmetry_Int_Tables_number      2
_space_group_name_Hall           '-P 1'
loop_
_symmetry_equiv_pos_site_id
_symmetry_equiv_pos_as_xyz
1 x,y,z
2 -x,-y,-z
_cell_length_a                   10.1957(9)
_cell_length_b                   10.8063(11)
_cell_length_c                   18.5286(17)
_cell_angle_alpha                93.997(5)
_cell_angle_beta                 99.768(5)
_cell_angle_gamma                102.005(6)
_cell_volume                     1956.14
_exptl_crystal_colour            black
_exptl_crystal_description       block
_cell_formula_units_Z            2
loop_
_atom_site_label
_atom_site_type_symbol
_atom_site_fract_x
_atom_site_fract_y
_atom_site_fract_z
Cl1 Cl 0.66921(11) 0.43921(10) 0.03553(6)
C1 C 0.8141(4) 0.5505(4) 0.0293(2)
C2 C 0.9342(4) 0.5562(4) 0.0786(2)
C3 C 1.0505(4) 0.6460(4) 0.0750(3)
C4 C 1.0471(5) 0.7303(5) 0.0222(3)
C5 C 0.9276(5) 0.7255(4) -0.0273(3)
C6 C 0.8109(4) 0.6345(4) -0.0240(2)
Cl2 Cl 0.66241(12) 0.62855(11) -0.08721(6)
H1 H 0.9349 0.4973 0.1142
H2 H 1.1329 0.6511 0.1090
H3 H 1.1255 0.7910 0.0205
H4 H 0.9230 0.7825 -0.0637
Cl3 Cl 1.04073(13) 0.60489(13) 0.42705(7)
C7 C 1.1352(5) 0.5362(4) 0.3721(3)
C8 C 1.0969(5) 0.5350(4) 0.2903(3)
C9 C 1.1720(5) 0.4735(5) 0.2526(3)
C10 C 1.2759(5) 0.4165(5) 0.2832(3)
C11 C 1.3097(6) 0.4241(5) 0.3592(3)
C12 C 1.2398(5) 0.4807(5) 0.4044(3)
Cl4 Cl 1.28436(16) 0.48591(15) 0.49852(8)
H5 H 1.0322 0.5703 0.2686
H6 H 1.1515 0.4684 0.2003
H7 H 1.3205 0.3748 0.2531
H8 H 1.3826 0.3907 0.3823
C13 C 0.9683(4) 0.8733(4) 0.2310(3)
C14 C 0.9502(4) 0.8245(4) 0.3003(3)
C15 C 0.9733(4) 0.9073(5) 0.3640(3)
C16 C 0.8799(5) 0.8860(5) 0.4155(2)
C17 C 0.7691(5) 0.7839(4) 0.4014(2)
C18 C 0.7457(5) 0.6966(4) 0.3350(3)
C19 C 0.8336(5) 0.7170(4) 0.2856(3)
C20 C 0.7803(5) 0.6993(4) 0.2074(3)
C21 C 0.8638(5) 0.7972(4) 0.1739(3)
C22 C 0.8025(5) 0.8532(4) 0.1153(2)
C23 C 0.8450(5) 0.9890(5) 0.1126(2)
C24 C 0.7251(5) 1.0347(5) 0.0844(2)
C25 C 0.7103(5) 1.1531(5) 0.1123(3)
C26 C 0.8151(5) 1.2310(4) 0.1702(3)
C27 C 0.9294(4) 1.1862(4) 0.1970(3)
C28 C 0.9459(5) 1.0630(4) 0.1683(3)
C29 C 1.0086(4) 1.0048(5) 0.2289(3)
C30 C 1.0324(4) 1.0906(4) 0.2950(3)
C31 C 0.9834(4) 1.2034(4) 0.2761(3)
C32 C 0.9195(4) 1.2634(4) 0.3235(3)
C33 C 0.9015(5) 1.2149(4) 0.3927(2)
C34 C 0.9480(5) 1.1068(5) 0.4109(3)
C35 C 1.0155(4) 1.0431(5) 0.3615(3)
C36 C 0.8647(5) 1.0096(5) 0.4448(2)
C37 C 0.7379(5) 1.0250(5) 0.4582(2)
C38 C 0.6898(5) 1.1373(5) 0.4388(2)
C39 C 0.7696(5) 1.2305(4) 0.4066(2)
C40 C 0.7075(5) 1.2894(4) 0.3462(3)
C41 C 0.7991(5) 1.3098(4) 0.2943(3)
C42 C 0.7484(5) 1.2933(4) 0.2193(3)
C43 C 0.6026(5) 1.2565(4) 0.1927(3)
C44 C 0.5783(5) 1.1690(4) 0.1262(2)
C45 C 0.4668(5) 1.0664(5) 0.1119(2)
C46 C 0.4826(5) 0.9423(4) 0.0827(2)
C47 C 0.6083(5) 0.9273(5) 0.0694(2)
C48 C 0.6572(5) 0.8157(5) 0.0885(2)
C49 C 0.5775(5) 0.7225(4) 0.1208(2)
C50 C 0.6400(5) 0.6628(4) 0.1811(2)
C51 C 0.5477(5) 0.6426(4) 0.2330(3)
C52 C 0.5990(5) 0.6587(4) 0.3081(3)
C53 C 0.5321(5) 0.7217(4) 0.3581(3)
C54 C 0.6372(5) 0.7995(5) 0.4158(2)
C55 C 0.6218(5) 0.9168(5) 0.4431(2)
C56 C 0.5019(5) 0.9633(5) 0.4146(2)
C57 C 0.5439(5) 1.0998(5) 0.4121(2)
C58 C 0.4839(5) 1.1551(4) 0.3538(3)
C59 C 0.5667(5) 1.2533(4) 0.3205(3)
C60 C 0.5138(5) 1.2357(4) 0.2421(3)
C61 C 0.3964(4) 1.1278(5) 0.2270(3)
C62 C 0.3787(4) 1.0788(5) 0.2964(3)
C63 C 0.3379(4) 0.9484(5) 0.2991(3)
C64 C 0.4013(5) 0.8901(5) 0.3600(3)
C65 C 0.4168(5) 0.7661(4) 0.3302(3)
C66 C 0.3640(4) 0.7497(4) 0.2516(3)
C67 C 0.3148(4) 0.8623(5) 0.2324(3)
C68 C 0.3324(4) 0.9088(4) 0.1663(3)
C69 C 0.3740(4) 1.0455(5) 0.1633(3)
C70 C 0.3987(4) 0.8463(4) 0.1165(2)
C71 C 0.4455(4) 0.7377(4) 0.1351(3)
C72 C 0.4282(4) 0.6886(4) 0.2042(3)
loop_
_geom_bond_atom_site_label_1
_geom_bond_atom_site_label_2
_geom_bond_site_symmetry_1
_geom_bond_site_symmetry_2
Cl1 C1 1_555 1_555
C1 C2 1_555 1_555
C2 C3 1_555 1_555
C3 C4 1_555 1_555
C4 C5 1_555 1_555
C5 C6 1_555 1_555
C6 C1 1_555 1_555
Cl2 C6 1_555 1_555
H1 C2 1_555 1_555
H2 C3 1_555 1_555
H3 C4 1_555 1_555
H4 C5 1_555 1_555
Cl3 C7 1_555 1_555
C7 C8 1_555 1_555
C8 C9 1_555 1_555
C9 C10 1_555 1_555
C10 C11 1_555 1_555
C11 C12 1_555 1_555
C12 C7 1_555 1_555
Cl4 C12 1_555 1_555
H5 C8 1_555 1_555
H6 C9 1_555 1_555
H7 C10 1_555 1_555
H8 C11 1_555 1_555
C13 C14 1_555 1_555
C14 C15 1_555 1_555
C15 C16 1_555 1_555
C16 C17 1_555 1_555
C17 C18 1_555 1_555
C18 C19 1_555 1_555
C19 C14 1_555 1_555
C20 C19 1_555 1_555
C21 C13 1_555 1_555
C22 C21 1_555 1_555
C23 C22 1_555 1_555
C24 C23 1_555 1_555
C25 C24 1_555 1_555
C26 C25 1_555 1_555
C27 C26 1_555 1_555
C28 C23 1_555 1_555
C29 C13 1_555 1_555
C30 C29 1_555 1_555
C31 C27 1_555 1_555
C32 C31 1_555 1_555
C33 C32 1_555 1_555
C34 C33 1_555 1_555
C35 C15 1_555 1_555
C36 C16 1_555 1_555
C37 C36 1_555 1_555
C38 C37 1_555 1_555
C39 C33 1_555 1_555
C40 C39 1_555 1_555
C41 C32 1_555 1_555
C42 C26 1_555 1_555
C43 C42 1_555 1_555
C44 C25 1_555 1_555
C45 C44 1_555 1_555
C46 C45 1_555 1_555
C47 C24 1_555 1_555
C48 C22 1_555 1_555
C49 C48 1_555 1_555
C50 C20 1_555 1_555
C51 C50 1_555 1_555
C52 C18 1_555 1_555
C53 C52 1_555 1_555
C54 C17 1_555 1_555
C55 C37 1_555 1_555
C56 C55 1_555 1_555
C57 C38 1_555 1_555
C58 C57 1_555 1_555
C59 C40 1_555 1_555
C60 C43 1_555 1_555
C61 C60 1_555 1_555
C62 C58 1_555 1_555
C63 C62 1_555 1_555
C64 C56 1_555 1_555
C65 C53 1_555 1_555
C66 C65 1_555 1_555
C67 C63 1_555 1_555
C68 C67 1_555 1_555
C69 C45 1_555 1_555
C70 C46 1_555 1_555
C71 C49 1_555 1_555
C72 C51 1_555 1_555
C20 C21 1_555 1_555
C27 C28 1_555 1_555
C28 C29 1_555 1_555
C30 C31 1_555 1_555
C30 C35 1_555 1_555
C34 C35 1_555 1_555
C34 C36 1_555 1_555
C38 C39 1_555 1_555
C40 C41 1_555 1_555
C41 C42 1_555 1_555
C43 C44 1_555 1_555
C46 C47 1_555 1_555
C47 C48 1_555 1_555
C49 C50 1_555 1_555
C51 C52 1_555 1_555
C53 C54 1_555 1_555
C54 C55 1_555 1_555
C56 C57 1_555 1_555
C58 C59 1_555 1_555
C59 C60 1_555 1_555
C61 C62 1_555 1_555
C61 C69 1_555 1_555
C63 C64 1_555 1_555
C64 C65 1_555 1_555
C66 C67 1_555 1_555
C66 C72 1_555 1_555
C68 C69 1_555 1_555
C68 C70 1_555 1_555
C70 C71 1_555 1_555
C71 C72 1_555 1_555

#END
