
#######################################################################
#
#                 Cambridge Crystallographic Data Centre
#                                CCDC 
#
#######################################################################
#
# If this CIF has been generated from an entry in the Cambridge 
# Structural Database, then it will include bibliographic, chemical, 
# crystal, experimental, refinement or atomic coordinate data resulting 
# from the CCDC's data processing and validation procedures.
#
#######################################################################

data_UWODUG
_chemical_formula_moiety         'C90 H48 B6 Cl12 N12 O12'
_chemical_name_systematic        
"N,N'-tris(B,B'-bis(5,6-dichloro-1,3,2-benzodioxaborole)-1,4-phenylene)-bis(2,4,6-tri(4-pyridyl)-1,3,5-triazine) unknown solvent"
_symmetry_cell_setting           rhombohedral
_symmetry_space_group_name_H-M   'R -3 c'
_symmetry_Int_Tables_number      167
_space_group_name_Hall           '-R 3 2"c'
loop_
_symmetry_equiv_pos_site_id
_symmetry_equiv_pos_as_xyz
1 x,y,z
2 -y,x-y,z
3 -x+y,-x,z
4 y,x,1/2-z
5 x-y,-y,1/2-z
6 -x,-x+y,1/2-z
7 2/3+x,1/3+y,1/3+z
8 2/3-y,1/3+x-y,1/3+z
9 2/3-x+y,1/3-x,1/3+z
10 2/3+y,1/3+x,5/6-z
11 2/3+x-y,1/3-y,5/6-z
12 2/3-x,1/3-x+y,5/6-z
13 1/3+x,2/3+y,2/3+z
14 1/3-y,2/3+x-y,2/3+z
15 1/3-x+y,2/3-x,2/3+z
16 1/3+y,2/3+x,1/6-z
17 1/3+x-y,2/3-y,1/6-z
18 1/3-x,2/3-x+y,1/6-z
19 -x,-y,-z
20 y,-x+y,-z
21 x-y,x,-z
22 -y,-x,1/2+z
23 -x+y,y,1/2+z
24 x,x-y,1/2+z
25 1/3-x,2/3-y,2/3-z
26 1/3+y,2/3-x+y,2/3-z
27 1/3+x-y,2/3+x,2/3-z
28 1/3-y,2/3-x,1/6+z
29 1/3-x+y,2/3+y,1/6+z
30 1/3+x,2/3+x-y,1/6+z
31 2/3-x,1/3-y,1/3-z
32 2/3+y,1/3-x+y,1/3-z
33 2/3+x-y,1/3+x,1/3-z
34 2/3-y,1/3-x,5/6+z
35 2/3-x+y,1/3+y,5/6+z
36 2/3+x,1/3+x-y,5/6+z
_cell_length_a                   13.4133(9)
_cell_length_b                   13.4133(9)
_cell_length_c                   92.656(12)
_cell_angle_alpha                90
_cell_angle_beta                 90
_cell_angle_gamma                120
_cell_volume                     14437
_exptl_crystal_colour            yellow
_exptl_crystal_description       prism
_cell_formula_units_Z            6
loop_
_atom_site_label
_atom_site_type_symbol
_atom_site_fract_x
_atom_site_fract_y
_atom_site_fract_z
B1 B 0.3527(5) 0.2159(4) 0.94894(6)
C1 C 0.2354(5) 0.1775(5) 0.92515(5)
H1 H 0.1672 0.1447 0.9308
C2 C 0.3422(4) 0.2288(4) 0.93203(5)
C3 C 0.4399(5) 0.2798(4) 0.92342(6)
H2 H 0.5137 0.3182 0.9278
C4 C 0.4366(4) 0.3054(4) 0.96977(5)
C5 C 0.3169(4) 0.2580(4) 0.97113(5)
C6 C 0.2682(4) 0.2591(4) 0.98428(5)
H3 H 0.1878 0.2299 0.9852
C7 C 0.3433(4) 0.3055(4) 0.99617(5)
C8 C 0.4610(4) 0.3500(4) 0.99484(5)
C9 C 0.5105(4) 0.3529(4) 0.98131(5)
H4 H 0.5913 0.3861 0.9802
O1 O 0.4643(3) 0.2971(3) 0.95567(3)
O2 O 0.2620(3) 0.2133(3) 0.95826(3)
Cl1 Cl 0.28322(12) 0.30533(13) 1.012745(14)
Cl2 Cl 0.55181(11) 0.40284(11) 1.009677(14)
N1 N 0.4364(3) -0.2312(3) 0.95355(4)
C10 C 0.3342(4) -0.2353(4) 0.95356(4)
C11 C 0.3364(4) -0.1232(4) 0.95281(5)
C12 C 0.2348(4) -0.1180(4) 0.95307(5)
H5 H 0.1621 -0.1864 0.9538
C13 C 0.2420(4) -0.0118(4) 0.95226(5)
H6 H 0.1731 -0.0080 0.9525
N2 N 0.3436(3) 0.0864(3) 0.95118(4)
C14 C 0.4415(4) 0.0818(4) 0.95084(5)
H7 H 0.5132 0.1511 0.9499
C15 C 0.4397(4) -0.0220(4) 0.95176(5)
H8 H 0.5098 -0.0234 0.9517
B1A B -0.2159(4) -0.8632(6) 0.94894(6)
B1B B 0.8632(6) -0.3527(5) 0.94894(6)
B1K B 0.3140(5) 0.1965(6) 0.88439(6)
B1I B 0.8826(4) -0.3140(5) 0.88439(6)
B1J B -0.1965(6) -0.8826(4) 0.88439(6)
C1A C -0.1775(5) -0.9421(7) 0.92515(5)
C1B C 0.9421(7) -0.2354(5) 0.92515(5)
C1K C 0.4313(5) 0.2754(7) 0.90818(5)
C1I C 0.8442(5) -0.4313(5) 0.90818(5)
C1J C -0.2754(7) -0.8442(5) 0.90818(5)
H1A H -0.1447 -0.9775 0.9308
H1B H 0.9775 -0.1672 0.9308
H1K H 0.4995 0.3108 0.9025
H1I H 0.8114 -0.4995 0.9025
H1J H -0.3108 -0.8114 0.9025
C2A C -0.2288(4) -0.8866(6) 0.93203(5)
C2B C 0.8866(6) -0.3422(4) 0.93203(5)
C2K C 0.3245(4) 0.2199(6) 0.90130(5)
C2I C 0.8955(4) -0.3245(4) 0.90130(5)
C2J C -0.2199(6) -0.8955(4) 0.90130(5)
C3A C -0.2798(4) -0.8399(6) 0.92342(6)
C3B C 0.8399(6) -0.4399(5) 0.92342(6)
C3K C 0.2268(5) 0.1732(6) 0.90991(6)
C3I C 0.9465(4) -0.2268(5) 0.90991(6)
C3J C -0.1732(6) -0.9465(4) 0.90991(6)
H2A H -0.3182 -0.8045 0.9278
H2B H 0.8045 -0.5137 0.9278
H2K H 0.1530 0.1378 0.9055
H2I H 0.9849 -0.1530 0.9055
H2J H -0.1378 -0.9849 0.9055
C4A C -0.3054(4) -0.8688(6) 0.96977(5)
C4B C 0.8688(6) -0.4366(4) 0.96977(5)
C4K C 0.2301(4) 0.2021(6) 0.86356(5)
C4I C 0.9721(4) -0.2301(4) 0.86356(5)
C4J C -0.2021(6) -0.9721(4) 0.86356(5)
C5A C -0.2580(4) -0.9411(6) 0.97113(5)
C5B C 0.9411(6) -0.3169(4) 0.97113(5)
C5K C 0.3498(4) 0.2744(6) 0.86220(5)
C5I C 0.9247(4) -0.3498(4) 0.86220(5)
C5J C -0.2744(6) -0.9247(4) 0.86220(5)
C6A C -0.2591(4) -0.9909(6) 0.98428(5)
C6B C 0.9909(6) -0.2682(4) 0.98428(5)
C6K C 0.3985(4) 0.3242(6) 0.84905(5)
C6I C 0.9258(4) -0.3985(4) 0.84905(5)
C6J C -0.3242(6) -0.9258(4) 0.84905(5)
H3A H -0.2299 -1.0421 0.9852
H3B H 1.0421 -0.1878 0.9852
H3K H 0.4789 0.3754 0.8481
H3I H 0.8966 -0.4789 0.8481
H3J H -0.3754 -0.8966 0.8481
C7A C -0.3055(4) -0.9622(6) 0.99617(5)
C7B C 0.9622(6) -0.3433(4) 0.99617(5)
C7K C 0.3234(4) 0.2955(6) 0.83716(5)
C7I C 0.9722(4) -0.3234(4) 0.83716(5)
C7J C -0.2955(6) -0.9722(4) 0.83716(5)
C8A C -0.3500(4) -0.8890(6) 0.99484(5)
C8B C 0.8890(6) -0.4610(4) 0.99484(5)
C8K C 0.2057(4) 0.2223(6) 0.83849(5)
C8I C 1.0167(4) -0.2057(4) 0.83849(5)
C8J C -0.2223(6) -1.0167(4) 0.83849(5)
C9A C -0.3529(4) -0.8424(6) 0.98131(5)
C9B C 0.8424(6) -0.5105(4) 0.98131(5)
C9K C 0.1562(4) 0.1757(6) 0.85202(5)
C9I C 1.0196(4) -0.1562(4) 0.85202(5)
C9J C -0.1757(6) -1.0196(4) 0.85202(5)
H4A H -0.3861 -0.7948 0.9802
H4B H 0.7948 -0.5913 0.9802
H4K H 0.0754 0.1281 0.8531
H4I H 1.0528 -0.0754 0.8531
H4J H -0.1281 -1.0528 0.8531
O1A O -0.2971(3) -0.8328(4) 0.95567(3)
O1B O 0.8328(4) -0.4643(3) 0.95567(3)
O1K O 0.2024(3) 0.1661(4) 0.87766(3)
O1I O 0.9638(3) -0.2024(3) 0.87766(3)
O1J O -0.1661(4) -0.9638(3) 0.87766(3)
O2A O -0.2133(3) -0.9513(4) 0.95826(3)
O2B O 0.9513(4) -0.2620(3) 0.95826(3)
O2K O 0.4047(3) 0.2846(4) 0.87507(3)
O2I O 0.8800(3) -0.4047(3) 0.87507(3)
O2J O -0.2846(4) -0.8800(3) 0.87507(3)
Cl1A Cl -0.30533(13) -1.02211(18) 1.012745(14)
Cl1B Cl 1.02211(18) -0.28322(12) 1.012745(14)
Cl1K Cl 0.38345(12) 0.35544(18) 0.820588(14)
Cl1I Cl 0.97200(13) -0.38345(12) 0.820588(14)
Cl1J Cl -0.35544(18) -0.97200(13) 0.820588(14)
Cl2A Cl -0.40284(11) -0.85103(16) 1.009677(14)
Cl2B Cl 0.85103(16) -0.55181(11) 1.009677(14)
Cl2K Cl 0.11486(11) 0.18436(16) 0.823656(14)
Cl2I Cl 1.06951(11) -0.11486(11) 0.823656(14)
Cl2J Cl -0.18436(16) -1.06951(11) 0.823656(14)
N1A N 0.2312(3) -0.3324(4) 0.95355(4)
N1B N 0.3324(4) -0.4364(3) 0.95355(4)
N1K N 0.2303(3) -0.3343(4) 0.87978(4)
N1I N 0.4355(3) -0.2303(3) 0.87978(4)
N1J N 0.3343(4) -0.4355(3) 0.87978(4)
C10A C 0.2353(4) -0.4305(6) 0.95356(4)
C10B C 0.4305(6) -0.3342(4) 0.95356(4)
C10K C 0.3325(4) -0.2362(6) 0.87977(4)
C10I C 0.4314(4) -0.3325(4) 0.87977(4)
C10J C 0.2362(6) -0.4314(4) 0.87977(4)
C11A C 0.1232(4) -0.5404(6) 0.95281(5)
C11B C 0.5404(6) -0.3364(4) 0.95281(5)
C11K C 0.3303(4) -0.1263(6) 0.88052(5)
C11I C 0.5435(4) -0.3303(4) 0.88052(5)
C11J C 0.1263(6) -0.5435(4) 0.88052(5)
C12A C 0.1180(4) -0.6472(6) 0.95307(5)
C12B C 0.6472(6) -0.2348(4) 0.95307(5)
C12K C 0.4319(4) -0.0195(6) 0.88026(5)
C12I C 0.5487(4) -0.4319(4) 0.88026(5)
C12J C 0.0195(6) -0.5487(4) 0.88026(5)
H5A H 0.1864 -0.6515 0.9538
H5B H 0.6515 -0.1621 0.9538
H5K H 0.5046 -0.0152 0.8795
H5I H 0.4803 -0.5046 0.8795
H5J H 0.0152 -0.4803 0.8795
C13A C 0.0118(4) -0.7462(6) 0.95226(5)
C13B C 0.7462(6) -0.2420(4) 0.95226(5)
C13K C 0.4247(4) 0.0795(6) 0.88107(5)
C13I C 0.6549(4) -0.4247(4) 0.88107(5)
C13J C -0.0795(6) -0.6549(4) 0.88107(5)
H6A H 0.0080 -0.8189 0.9525
H6B H 0.8189 -0.1731 0.9525
H6K H 0.4936 0.1522 0.8808
H6I H 0.6587 -0.4936 0.8808
H6J H -0.1522 -0.6587 0.8808
N2A N -0.0864(3) -0.7428(4) 0.95118(4)
N2B N 0.7428(4) -0.3436(3) 0.95118(4)
N2K N 0.3231(3) 0.0761(4) 0.88215(4)
N2I N 0.7531(3) -0.3231(3) 0.88215(4)
N2J N -0.0761(4) -0.7531(3) 0.88215(4)
C14A C -0.0818(4) -0.6403(6) 0.95084(5)
C14B C 0.6403(6) -0.4415(4) 0.95084(5)
C14K C 0.2252(4) -0.0264(6) 0.88249(5)
C14I C 0.7485(4) -0.2252(4) 0.88249(5)
C14J C 0.0264(6) -0.7485(4) 0.88249(5)
H7A H -0.1511 -0.6379 0.9499
H7B H 0.6379 -0.5132 0.9499
H7K H 0.1535 -0.0288 0.8834
H7I H 0.8178 -0.1535 0.8834
H7J H 0.0288 -0.8178 0.8834
C15A C 0.0220(4) -0.5383(6) 0.95176(5)
C15B C 0.5383(6) -0.4397(4) 0.95176(5)
C15K C 0.2270(4) -0.1284(6) 0.88157(5)
C15I C 0.6447(4) -0.2270(4) 0.88157(5)
C15J C 0.1284(6) -0.6447(4) 0.88157(5)
H8A H 0.0234 -0.4668 0.9517
H8B H 0.4668 -0.5098 0.9517
H8K H 0.1569 -0.1999 0.8816
H8I H 0.6433 -0.1569 0.8816
H8J H 0.1999 -0.6433 0.8816
loop_
_geom_bond_atom_site_label_1
_geom_bond_atom_site_label_2
_geom_bond_site_symmetry_1
_geom_bond_site_symmetry_2
B1 C2 1_555 1_555
C1 H1 1_555 1_555
C2 C1 1_555 1_555
C3 C2 1_555 1_555
H2 C3 1_555 1_555
C4 C5 1_555 1_555
C5 C6 1_555 1_555
C6 H3 1_555 1_555
C7 C6 1_555 1_555
C8 C7 1_555 1_555
C9 C4 1_555 1_555
H4 C9 1_555 1_555
O1 B1 1_555 1_555
O2 B1 1_555 1_555
Cl1 C7 1_555 1_555
Cl2 C8 1_555 1_555
N1 C10 1_555 1_555
C10 C11 1_555 1_555
C11 C12 1_555 1_555
C12 H5 1_555 1_555
C13 C12 1_555 1_555
H6 C13 1_555 1_555
N2 B1 1_555 1_555
C14 N2 1_555 1_555
H7 C14 1_555 1_555
C15 C11 1_555 1_555
H8 C15 1_555 1_555
B1A C2A 1_555 1_555
B1B C2B 1_555 1_555
B1K C2K 1_555 1_555
B1I C2I 1_555 1_555
B1J C2J 1_555 1_555
C1A H1A 1_555 1_555
C1B H1B 1_555 1_555
C1K C3 1_555 1_555
C1I H1I 1_555 1_555
C1J H1J 1_555 1_555
H1K C1K 1_555 1_555
C2A C1A 1_555 1_555
C2B C1B 1_555 1_555
C2K C1K 1_555 1_555
C2I C1I 1_555 1_555
C2J C1J 1_555 1_555
C3A C1J 1_555 1_555
C3B C1I 1_555 1_555
C3K C1 1_555 1_555
C3I C1B 1_555 1_555
C3J C1A 1_555 1_555
H2A C3A 1_555 1_555
H2B C3B 1_555 1_555
H2K C3K 1_555 1_555
H2I C3I 1_555 1_555
H2J C3J 1_555 1_555
C4A C5A 1_555 1_555
C4B C5B 1_555 1_555
C4K C5K 1_555 1_555
C4I C5I 1_555 1_555
C4J C5J 1_555 1_555
C5A C6A 1_555 1_555
C5B C6B 1_555 1_555
C5K C6K 1_555 1_555
C5I C6I 1_555 1_555
C5J C6J 1_555 1_555
C6A H3A 1_555 1_555
C6B H3B 1_555 1_555
C6K H3K 1_555 1_555
C6I H3I 1_555 1_555
C6J H3J 1_555 1_555
C7A C6A 1_555 1_555
C7B C6B 1_555 1_555
C7K C6K 1_555 1_555
C7I C6I 1_555 1_555
C7J C6J 1_555 1_555
C8A C7A 1_555 1_555
C8B C7B 1_555 1_555
C8K C7K 1_555 1_555
C8I C7I 1_555 1_555
C8J C7J 1_555 1_555
C9A C4A 1_555 1_555
C9B C4B 1_555 1_555
C9K C4K 1_555 1_555
C9I C4I 1_555 1_555
C9J C4J 1_555 1_555
H4A C9A 1_555 1_555
H4B C9B 1_555 1_555
H4K C9K 1_555 1_555
H4I C9I 1_555 1_555
H4J C9J 1_555 1_555
O1A B1A 1_555 1_555
O1B B1B 1_555 1_555
O1K B1K 1_555 1_555
O1I B1I 1_555 1_555
O1J B1J 1_555 1_555
O2A B1A 1_555 1_555
O2B B1B 1_555 1_555
O2K B1K 1_555 1_555
O2I B1I 1_555 1_555
O2J B1J 1_555 1_555
Cl1A C7A 1_555 1_555
Cl1B C7B 1_555 1_555
Cl1K C7K 1_555 1_555
Cl1I C7I 1_555 1_555
Cl1J C7J 1_555 1_555
Cl2A C8A 1_555 1_555
Cl2B C8B 1_555 1_555
Cl2K C8K 1_555 1_555
Cl2I C8I 1_555 1_555
Cl2J C8J 1_555 1_555
N1A C10 1_555 1_555
N1B C10A 1_555 1_555
N1K C10K 1_555 1_555
N1I C10K 1_555 1_555
N1J C10I 1_555 1_555
C10A N1A 1_555 1_555
C10B N1 1_555 1_555
C10K C11K 1_555 1_555
C10I N1I 1_555 1_555
C10J N1K 1_555 1_555
C11A C10A 1_555 1_555
C11B C10B 1_555 1_555
C11K C12K 1_555 1_555
C11I C10I 1_555 1_555
C11J C10J 1_555 1_555
C12A C11A 1_555 1_555
C12B C11B 1_555 1_555
C12K H5K 1_555 1_555
C12I C11I 1_555 1_555
C12J C11J 1_555 1_555
H5A C12A 1_555 1_555
H5B C12B 1_555 1_555
H5I C12I 1_555 1_555
H5J C12J 1_555 1_555
C13A C12A 1_555 1_555
C13B C12B 1_555 1_555
C13K C12K 1_555 1_555
C13I C12I 1_555 1_555
C13J C12J 1_555 1_555
H6A C13A 1_555 1_555
H6B C13B 1_555 1_555
H6K C13K 1_555 1_555
H6I C13I 1_555 1_555
H6J C13J 1_555 1_555
N2A B1A 1_555 1_555
N2B B1B 1_555 1_555
N2K B1K 1_555 1_555
N2I B1I 1_555 1_555
N2J B1J 1_555 1_555
C14A N2A 1_555 1_555
C14B N2B 1_555 1_555
C14K N2K 1_555 1_555
C14I N2I 1_555 1_555
C14J N2J 1_555 1_555
H7A C14A 1_555 1_555
H7B C14B 1_555 1_555
H7K C14K 1_555 1_555
H7I C14I 1_555 1_555
H7J C14J 1_555 1_555
C15A C11A 1_555 1_555
C15B C11B 1_555 1_555
C15K C11K 1_555 1_555
C15I C11I 1_555 1_555
C15J C11J 1_555 1_555
H8A C15A 1_555 1_555
H8B C15B 1_555 1_555
H8K C15K 1_555 1_555
H8I C15I 1_555 1_555
H8J C15J 1_555 1_555
C4 O1 1_555 1_555
C5 O2 1_555 1_555
C8 C9 1_555 1_555
C13 N2 1_555 1_555
C14 C15 1_555 1_555
C2A C3A 1_555 1_555
C2B C3B 1_555 1_555
C2K C3K 1_555 1_555
C2I C3I 1_555 1_555
C2J C3J 1_555 1_555
C4A O1A 1_555 1_555
C4B O1B 1_555 1_555
C4K O1K 1_555 1_555
C4I O1I 1_555 1_555
C4J O1J 1_555 1_555
C5A O2A 1_555 1_555
C5B O2B 1_555 1_555
C5K O2K 1_555 1_555
C5I O2I 1_555 1_555
C5J O2J 1_555 1_555
C8A C9A 1_555 1_555
C8B C9B 1_555 1_555
C8K C9K 1_555 1_555
C8I C9I 1_555 1_555
C8J C9J 1_555 1_555
N1B C10B 1_555 1_555
N1J C10J 1_555 1_555
C13A N2A 1_555 1_555
C13B N2B 1_555 1_555
C13K N2K 1_555 1_555
C13I N2I 1_555 1_555
C13J N2J 1_555 1_555
C14A C15A 1_555 1_555
C14B C15B 1_555 1_555
C14K C15K 1_555 1_555
C14I C15I 1_555 1_555
C14J C15J 1_555 1_555

#END
