
#######################################################################
#
#                 Cambridge Crystallographic Data Centre
#                                CCDC 
#
#######################################################################
#
# If this CIF has been generated from an entry in the Cambridge 
# Structural Database, then it will include bibliographic, chemical, 
# crystal, experimental, refinement or atomic coordinate data resulting 
# from the CCDC's data processing and validation procedures.
#
#######################################################################

data_UWOFIW
_chemical_formula_moiety         'C108 H60 B6 Cl12 N12 O12,2(C18 H12)'
_chemical_name_systematic        
"N,N'-tris(B,B'-bis(5,6-dichloro-1,3,2-benzodioxaborole)-4',4-biphenylene)-bis(2,4,6-tri(4-pyridyl)-1,3,5-triazine) bis(triphenylene) clathrate"
_symmetry_cell_setting           rhombohedral
_symmetry_space_group_name_H-M   'R -3 c'
_symmetry_Int_Tables_number      167
_space_group_name_Hall           '-R 3 2"c'
loop_
_symmetry_equiv_pos_site_id
_symmetry_equiv_pos_as_xyz
1 x,y,z
2 -y,x-y,z
3 -x+y,-x,z
4 y,x,1/2-z
5 x-y,-y,1/2-z
6 -x,-x+y,1/2-z
7 2/3+x,1/3+y,1/3+z
8 2/3-y,1/3+x-y,1/3+z
9 2/3-x+y,1/3-x,1/3+z
10 2/3+y,1/3+x,5/6-z
11 2/3+x-y,1/3-y,5/6-z
12 2/3-x,1/3-x+y,5/6-z
13 1/3+x,2/3+y,2/3+z
14 1/3-y,2/3+x-y,2/3+z
15 1/3-x+y,2/3-x,2/3+z
16 1/3+y,2/3+x,1/6-z
17 1/3+x-y,2/3-y,1/6-z
18 1/3-x,2/3-x+y,1/6-z
19 -x,-y,-z
20 y,-x+y,-z
21 x-y,x,-z
22 -y,-x,1/2+z
23 -x+y,y,1/2+z
24 x,x-y,1/2+z
25 1/3-x,2/3-y,2/3-z
26 1/3+y,2/3-x+y,2/3-z
27 1/3+x-y,2/3+x,2/3-z
28 1/3-y,2/3-x,1/6+z
29 1/3-x+y,2/3+y,1/6+z
30 1/3+x,2/3+x-y,1/6+z
31 2/3-x,1/3-y,1/3-z
32 2/3+y,1/3-x+y,1/3-z
33 2/3+x-y,1/3+x,1/3-z
34 2/3-y,1/3-x,5/6+z
35 2/3-x+y,1/3+y,5/6+z
36 2/3+x,1/3+x-y,5/6+z
_cell_length_a                   13.5417(3)
_cell_length_b                   13.5417(3)
_cell_length_c                   118.223(7)
_cell_angle_alpha                90
_cell_angle_beta                 90
_cell_angle_gamma                120
_cell_volume                     18775
_exptl_crystal_colour            yellow
_exptl_crystal_description       prism
_cell_formula_units_Z            6
loop_
_atom_site_label
_atom_site_type_symbol
_atom_site_fract_x
_atom_site_fract_y
_atom_site_fract_z
B1 B 0.3583(4) 0.2104(4) 0.96019(4)
C1 C 0.3517(4) 0.2225(3) 0.94697(3)
C2 C 0.4453(4) 0.2541(4) 0.94008(4)
H1 H 0.5155 0.2767 0.9435
C3 C 0.4393(4) 0.2535(4) 0.92849(4)
H2 H 0.5048 0.2738 0.9243
C4 C 0.3375(4) 0.2232(3) 0.92286(3)
C5 C 0.2423(4) 0.1924(4) 0.92968(4)
H3 H 0.1724 0.1715 0.9263
C6 C 0.2497(4) 0.1924(4) 0.94139(4)
H4 H 0.1845 0.1715 0.9457
C7 C 0.4381(4) 0.3009(3) 0.97635(3)
C8 C 0.3205(4) 0.2547(3) 0.97722(3)
C9 C 0.2718(4) 0.2570(4) 0.98724(4)
H5 H 0.1937 0.2287 0.9878
C10 C 0.3441(5) 0.3039(4) 0.99660(4)
C11 C 0.4602(5) 0.3470(4) 0.99573(4)
C12 C 0.5090(4) 0.3485(3) 0.98544(4)
H6 H 0.5876 0.3809 0.9847
O1 O 0.4674(2) 0.2910(2) 0.96556(2)
O2 O 0.2686(2) 0.2099(2) 0.96713(2)
Cl1 Cl 0.28259(13) 0.30382(15) 1.009458(10)
Cl2 Cl 0.54748(12) 0.40145(12) 1.007509(10)
N1 N 0.4351(2) -0.2334(2) 0.96315(2)
C13 C 0.3347(4) -0.2367(3) 0.96314(3)
C14 C 0.3383(3) -0.1257(3) 0.96292(3)
C15 C 0.2397(3) -0.1189(3) 0.96294(3)
H7 H 0.1686 -0.1847 0.9632
C16 C 0.2481(3) -0.0141(4) 0.96253(3)
H8 H 0.1816 -0.0101 0.9626
N2 N 0.3483(3) 0.0828(3) 0.96205(2)
C17 C 0.4428(4) 0.0756(3) 0.96211(3)
H9 H 0.5129 0.1426 0.9619
C18 C 0.4412(3) -0.0258(3) 0.96251(3)
H10 H 0.5091 -0.0273 0.9625
B1A B -0.2104(4) -0.8521(6) 0.96019(4)
B1B B 0.8521(6) -0.3583(4) 0.96019(4)
B1K B 0.3084(4) 0.1854(6) 0.87314(4)
B1I B 0.8771(4) -0.3084(4) 0.87314(4)
B1J B -0.1854(6) -0.8771(4) 0.87314(4)
C1A C -0.2225(3) -0.8708(5) 0.94697(3)
C1B C 0.8708(5) -0.3517(4) 0.94697(3)
C1K C 0.3150(4) 0.2041(5) 0.88636(3)
C1I C 0.8892(3) -0.3150(4) 0.88636(3)
C1J C -0.2041(5) -0.8892(3) 0.88636(3)
C2A C -0.2541(4) -0.8088(6) 0.94008(4)
C2B C 0.8088(6) -0.4453(4) 0.94008(4)
C2K C 0.2214(4) 0.1421(6) 0.89325(4)
C2I C 0.9208(4) -0.2214(4) 0.89325(4)
C2J C -0.1421(6) -0.9208(4) 0.89325(4)
H1A H -0.2767 -0.7612 0.9435
H1B H 0.7612 -0.5155 0.9435
H1K H 0.1512 0.0945 0.8898
H1I H 0.9434 -0.1512 0.8898
H1J H -0.0945 -0.9434 0.8898
C3A C -0.2535(4) -0.8142(6) 0.92849(4)
C3B C 0.8142(6) -0.4393(4) 0.92849(4)
C3K C 0.2274(4) 0.1475(6) 0.90484(4)
C3I C 0.9202(4) -0.2274(4) 0.90484(4)
C3J C -0.1475(6) -0.9202(4) 0.90484(4)
H2A H -0.2738 -0.7690 0.9243
H2B H 0.7690 -0.5048 0.9243
H2K H 0.1619 0.1023 0.9090
H2I H 0.9405 -0.1619 0.9090
H2J H -0.1023 -0.9405 0.9090
C4A C -0.2232(3) -0.8857(5) 0.92286(3)
C4B C 0.8857(5) -0.3375(4) 0.92286(3)
C4K C 0.3292(4) 0.2190(5) 0.91047(3)
C4I C 0.8899(3) -0.3292(4) 0.91047(3)
C4J C -0.2190(5) -0.8899(3) 0.91047(3)
C5A C -0.1924(4) -0.9501(6) 0.92968(4)
C5B C 0.9501(6) -0.2423(4) 0.92968(4)
C5K C 0.4244(4) 0.2834(6) 0.90365(4)
C5I C 0.8591(4) -0.4244(4) 0.90365(4)
C5J C -0.2834(6) -0.8591(4) 0.90365(4)
H3A H -0.1715 -0.9991 0.9263
H3B H 0.9991 -0.1724 0.9263
H3K H 0.4943 0.3324 0.9070
H3I H 0.8382 -0.4943 0.9070
H3J H -0.3324 -0.8382 0.9070
C6A C -0.1924(4) -0.9427(6) 0.94139(4)
C6B C 0.9427(6) -0.2497(4) 0.94139(4)
C6K C 0.4170(4) 0.2760(6) 0.89194(4)
C6I C 0.8591(4) -0.4170(4) 0.89194(4)
C6J C -0.2760(6) -0.8591(4) 0.89194(4)
H4A H -0.1715 -0.9870 0.9457
H4B H 0.9870 -0.1845 0.9457
H4K H 0.4822 0.3203 0.8876
H4I H 0.8382 -0.4822 0.8876
H4J H -0.3203 -0.8382 0.8876
C7A C -0.3009(3) -0.8628(5) 0.97635(3)
C7B C 0.8628(5) -0.4381(4) 0.97635(3)
C7K C 0.2286(4) 0.1961(5) 0.85698(3)
C7I C 0.9676(3) -0.2286(4) 0.85698(3)
C7J C -0.1961(5) -0.9676(3) 0.85698(3)
C8A C -0.2547(3) -0.9342(5) 0.97722(3)
C8B C 0.9342(5) -0.3205(4) 0.97722(3)
C8K C 0.3462(4) 0.2675(5) 0.85611(3)
C8I C 0.9214(3) -0.3462(4) 0.85611(3)
C8J C -0.2675(5) -0.9214(3) 0.85611(3)
C9A C -0.2570(4) -0.9852(6) 0.98724(4)
C9B C 0.9852(6) -0.2718(4) 0.98724(4)
C9K C 0.3949(4) 0.3185(6) 0.84609(4)
C9I C 0.9237(4) -0.3949(4) 0.84609(4)
C9J C -0.3185(6) -0.9237(4) 0.84609(4)
H5A H -0.2287 -1.0350 0.9878
H5B H 1.0350 -0.1937 0.9878
H5K H 0.4730 0.3683 0.8455
H5I H 0.8954 -0.4730 0.8455
H5J H -0.3683 -0.8954 0.8455
C10A C -0.3039(4) -0.9598(6) 0.99660(4)
C10B C 0.9598(6) -0.3441(5) 0.99660(4)
C10K C 0.3226(5) 0.2931(6) 0.83673(4)
C10I C 0.9706(4) -0.3226(5) 0.83673(4)
C10J C -0.2931(6) -0.9706(4) 0.83673(4)
C11A C -0.3470(4) -0.8868(6) 0.99573(4)
C11B C 0.8868(6) -0.4602(5) 0.99573(4)
C11K C 0.2065(5) 0.2201(6) 0.83760(4)
C11I C 1.0137(4) -0.2065(5) 0.83760(4)
C11J C -0.2201(6) -1.0137(4) 0.83760(4)
C12A C -0.3485(3) -0.8395(5) 0.98544(4)
C12B C 0.8395(5) -0.5090(4) 0.98544(4)
C12K C 0.1577(4) 0.1728(5) 0.84789(4)
C12I C 1.0152(3) -0.1577(4) 0.84789(4)
C12J C -0.1728(5) -1.0152(3) 0.84789(4)
H6A H -0.3809 -0.7933 0.9847
H6B H 0.7933 -0.5876 0.9847
H6K H 0.0791 0.1266 0.8486
H6I H 1.0476 -0.0791 0.8486
H6J H -0.1266 -1.0476 0.8486
O1A O -0.2910(2) -0.8236(3) 0.96556(2)
O1B O 0.8236(3) -0.4674(2) 0.96556(2)
O1K O 0.1993(2) 0.1569(3) 0.86777(2)
O1I O 0.9577(2) -0.1993(2) 0.86777(2)
O1J O -0.1569(3) -0.9577(2) 0.86777(2)
O2A O -0.2099(2) -0.9413(3) 0.96713(2)
O2B O 0.9413(3) -0.2686(2) 0.96713(2)
O2K O 0.3981(2) 0.2746(3) 0.86620(2)
O2I O 0.8766(2) -0.3981(2) 0.86620(2)
O2J O -0.2746(3) -0.8766(2) 0.86620(2)
Cl1A Cl -0.30382(15) -1.02123(20) 1.009458(10)
Cl1B Cl 1.02123(20) -0.28259(13) 1.009458(10)
Cl1K Cl 0.38408(13) 0.35456(20) 0.823875(10)
Cl1I Cl 0.97049(15) -0.38408(13) 0.823875(10)
Cl1J Cl -0.35456(20) -0.97049(15) 0.823875(10)
Cl2A Cl -0.40145(12) -0.85397(17) 1.007509(10)
Cl2B Cl 0.85397(17) -0.54748(12) 1.007509(10)
Cl2K Cl 0.11919(12) 0.18730(17) 0.825824(10)
Cl2I Cl 1.06812(12) -0.11919(12) 0.825824(10)
Cl2J Cl -0.18730(17) -1.06812(12) 0.825824(10)
N1A N 0.2334(2) -0.3315(3) 0.96315(2)
N1B N 0.3315(3) -0.4351(2) 0.96315(2)
N1K N 0.2316(2) -0.3352(3) 0.87018(2)
N1I N 0.4333(2) -0.2316(2) 0.87018(2)
N1J N 0.3352(3) -0.4333(2) 0.87018(2)
C13A C 0.2367(3) -0.4286(5) 0.96314(3)
C13B C 0.4286(5) -0.3347(4) 0.96314(3)
C13K C 0.3320(4) -0.2381(5) 0.87019(3)
C13I C 0.4300(3) -0.3320(4) 0.87019(3)
C13J C 0.2381(5) -0.4300(3) 0.87019(3)
C14A C 0.1257(3) -0.5360(4) 0.96292(3)
C14B C 0.5360(4) -0.3383(3) 0.96292(3)
C14K C 0.3284(3) -0.1307(4) 0.87041(3)
C14I C 0.5410(3) -0.3284(3) 0.87041(3)
C14J C 0.1307(4) -0.5410(3) 0.87041(3)
C15A C 0.1189(3) -0.6414(4) 0.96294(3)
C15B C 0.6414(4) -0.2397(3) 0.96294(3)
C15K C 0.4270(3) -0.0253(4) 0.87039(3)
C15I C 0.5478(3) -0.4270(3) 0.87039(3)
C15J C 0.0253(4) -0.5478(3) 0.87039(3)
H7A H 0.1847 -0.6467 0.9632
H7B H 0.6467 -0.1686 0.9632
H7K H 0.4981 -0.0200 0.8701
H7I H 0.4820 -0.4981 0.8701
H7J H 0.0200 -0.4820 0.8701
C16A C 0.0141(4) -0.7378(5) 0.96253(3)
C16B C 0.7378(5) -0.2481(3) 0.96253(3)
C16K C 0.4186(3) 0.0711(5) 0.87080(3)
C16I C 0.6526(4) -0.4186(3) 0.87080(3)
C16J C -0.0711(5) -0.6526(4) 0.87080(3)
H8A H 0.0101 -0.8083 0.9626
H8B H 0.8083 -0.1816 0.9626
H8K H 0.4851 0.1416 0.8707
H8I H 0.6566 -0.4851 0.8707
H8J H -0.1416 -0.6566 0.8707
N2A N -0.0828(3) -0.7345(4) 0.96205(2)
N2B N 0.7345(4) -0.3483(3) 0.96205(2)
N2K N 0.3184(3) 0.0678(4) 0.87128(2)
N2I N 0.7495(3) -0.3184(3) 0.87128(2)
N2J N -0.0678(4) -0.7495(3) 0.87128(2)
C17A C -0.0756(3) -0.6328(5) 0.96211(3)
C17B C 0.6328(5) -0.4428(4) 0.96211(3)
C17K C 0.2239(4) -0.0339(5) 0.87122(3)
C17I C 0.7423(3) -0.2239(4) 0.87122(3)
C17J C 0.0339(5) -0.7423(3) 0.87122(3)
H9A H -0.1426 -0.6297 0.9619
H9B H 0.6297 -0.5129 0.9619
H9K H 0.1538 -0.0370 0.8714
H9I H 0.8093 -0.1538 0.8714
H9J H 0.0370 -0.8093 0.8714
C18A C 0.0258(3) -0.5330(4) 0.96251(3)
C18B C 0.5330(4) -0.4412(3) 0.96251(3)
C18K C 0.2255(3) -0.1337(4) 0.87082(3)
C18I C 0.6409(3) -0.2255(3) 0.87082(3)
C18J C 0.1337(4) -0.6409(3) 0.87082(3)
H10A H 0.0273 -0.4636 0.9625
H10B H 0.4636 -0.5091 0.9625
H10K H 0.1576 -0.2031 0.8708
H10I H 0.6394 -0.1576 0.8708
H10J H 0.2031 -0.6394 0.8708
C19 C 0.9041(5) 0.4249(5) 0.06730(4)
H11 H 0.9340 0.3762 0.0672
C20 C 0.7876(4) 0.3794(4) 0.06726(3)
C21 C 0.7113(4) 0.2572(4) 0.06735(3)
C22 C 0.7500(5) 0.1797(5) 0.06745(4)
H12 H 0.8283 0.2081 0.0675
C23 C 0.6795(5) 0.0638(5) 0.06753(5)
H13 H 0.7094 0.0151 0.0677
C24 C 0.5648(6) 0.0216(5) 0.06743(5)
H14 H 0.5154 -0.0569 0.0675
C19A C 0.5751(5) 0.4792(7) 0.06730(4)
C19B C 0.5208(7) 0.0959(5) 0.06730(4)
H11A H 0.6238 0.5578 0.0672
H11B H 0.4422 0.0660 0.0672
C20A C 0.6206(4) 0.4082(6) 0.06726(3)
C20B C 0.5918(6) 0.2124(4) 0.06726(3)
C21A C 0.7428(4) 0.4541(6) 0.06735(3)
C21B C 0.5459(6) 0.2887(4) 0.06735(3)
C22A C 0.8203(5) 0.5703(7) 0.06745(4)
C22B C 0.4297(7) 0.2500(5) 0.06745(4)
H12A H 0.7919 0.6202 0.0675
H12B H 0.3798 0.1717 0.0675
C23A C 0.9362(5) 0.6157(7) 0.06753(5)
C23B C 0.3843(7) 0.3205(5) 0.06753(5)
H13A H 0.9849 0.6943 0.0677
H13B H 0.3057 0.2906 0.0677
C24A C 0.9784(5) 0.5432(8) 0.06743(5)
C24B C 0.4568(8) 0.4352(6) 0.06743(5)
H14A H 1.0569 0.5723 0.0675
H14B H 0.4277 0.4846 0.0675
loop_
_geom_bond_atom_site_label_1
_geom_bond_atom_site_label_2
_geom_bond_site_symmetry_1
_geom_bond_site_symmetry_2
B1 C1 1_555 1_555
C1 C2 1_555 1_555
C2 H1 1_555 1_555
C3 C2 1_555 1_555
H2 C3 1_555 1_555
C4 C3 1_555 1_555
C5 C4 1_555 1_555
H3 C5 1_555 1_555
C6 C1 1_555 1_555
H4 C6 1_555 1_555
C7 C8 1_555 1_555
C8 C9 1_555 1_555
C9 H5 1_555 1_555
C10 C9 1_555 1_555
C11 C10 1_555 1_555
C12 C7 1_555 1_555
H6 C12 1_555 1_555
O1 B1 1_555 1_555
O2 B1 1_555 1_555
Cl1 C10 1_555 1_555
Cl2 C11 1_555 1_555
N1 C13 1_555 1_555
C13 C14 1_555 1_555
C14 C15 1_555 1_555
C15 H7 1_555 1_555
C16 C15 1_555 1_555
H8 C16 1_555 1_555
N2 B1 1_555 1_555
C17 N2 1_555 1_555
H9 C17 1_555 1_555
C18 C14 1_555 1_555
H10 C18 1_555 1_555
C19 H11 1_555 1_555
C20 C19 1_555 1_555
C21 C20 1_555 1_555
C22 C21 1_555 1_555
H12 C22 1_555 1_555
C23 C22 1_555 1_555
H13 C23 1_555 1_555
C24 C23 1_555 1_555
H14 C24 1_555 1_555
B1A C1A 1_555 1_555
B1B C1B 1_555 1_555
B1K C1K 1_555 1_555
B1I C1I 1_555 1_555
B1J C1J 1_555 1_555
C1A C2A 1_555 1_555
C1B C2B 1_555 1_555
C1K C2K 1_555 1_555
C1I C2I 1_555 1_555
C1J C2J 1_555 1_555
C2A H1A 1_555 1_555
C2B H1B 1_555 1_555
C2K H1K 1_555 1_555
C2I H1I 1_555 1_555
C2J H1J 1_555 1_555
C3A C2A 1_555 1_555
C3B C2B 1_555 1_555
C3K C2K 1_555 1_555
C3I C2I 1_555 1_555
C3J C2J 1_555 1_555
H2A C3A 1_555 1_555
H2B C3B 1_555 1_555
H2K C3K 1_555 1_555
H2I C3I 1_555 1_555
H2J C3J 1_555 1_555
C4A C3A 1_555 1_555
C4B C3B 1_555 1_555
C4K C4 1_555 1_555
C4I C3I 1_555 1_555
C4J C3J 1_555 1_555
C5A C4A 1_555 1_555
C5B C4B 1_555 1_555
C5K C4K 1_555 1_555
C5I C4I 1_555 1_555
C5J C4J 1_555 1_555
H3A C5A 1_555 1_555
H3B C5B 1_555 1_555
H3K C5K 1_555 1_555
H3I C5I 1_555 1_555
H3J C5J 1_555 1_555
C6A C1A 1_555 1_555
C6B C1B 1_555 1_555
C6K C1K 1_555 1_555
C6I C1I 1_555 1_555
C6J C1J 1_555 1_555
H4A C6A 1_555 1_555
H4B C6B 1_555 1_555
H4K C6K 1_555 1_555
H4I C6I 1_555 1_555
H4J C6J 1_555 1_555
C7A C8A 1_555 1_555
C7B C8B 1_555 1_555
C7K C8K 1_555 1_555
C7I C8I 1_555 1_555
C7J C8J 1_555 1_555
C8A C9A 1_555 1_555
C8B C9B 1_555 1_555
C8K C9K 1_555 1_555
C8I C9I 1_555 1_555
C8J C9J 1_555 1_555
C9A H5A 1_555 1_555
C9B H5B 1_555 1_555
C9K H5K 1_555 1_555
C9I H5I 1_555 1_555
C9J H5J 1_555 1_555
C10A C9A 1_555 1_555
C10B C9B 1_555 1_555
C10K C9K 1_555 1_555
C10I C9I 1_555 1_555
C10J C9J 1_555 1_555
C11A C10A 1_555 1_555
C11B C10B 1_555 1_555
C11K C10K 1_555 1_555
C11I C10I 1_555 1_555
C11J C10J 1_555 1_555
C12A C7A 1_555 1_555
C12B C7B 1_555 1_555
C12K C7K 1_555 1_555
C12I C7I 1_555 1_555
C12J C7J 1_555 1_555
H6A C12A 1_555 1_555
H6B C12B 1_555 1_555
H6K C12K 1_555 1_555
H6I C12I 1_555 1_555
H6J C12J 1_555 1_555
O1A B1A 1_555 1_555
O1B B1B 1_555 1_555
O1K B1K 1_555 1_555
O1I B1I 1_555 1_555
O1J B1J 1_555 1_555
O2A B1A 1_555 1_555
O2B B1B 1_555 1_555
O2K B1K 1_555 1_555
O2I B1I 1_555 1_555
O2J B1J 1_555 1_555
Cl1A C10A 1_555 1_555
Cl1B C10B 1_555 1_555
Cl1K C10K 1_555 1_555
Cl1I C10I 1_555 1_555
Cl1J C10J 1_555 1_555
Cl2A C11A 1_555 1_555
Cl2B C11B 1_555 1_555
Cl2K C11K 1_555 1_555
Cl2I C11I 1_555 1_555
Cl2J C11J 1_555 1_555
N1A C13 1_555 1_555
N1B C13A 1_555 1_555
N1K C13K 1_555 1_555
N1I C13K 1_555 1_555
N1J C13I 1_555 1_555
C13A N1A 1_555 1_555
C13B N1 1_555 1_555
C13K C14K 1_555 1_555
C13I N1I 1_555 1_555
C13J N1K 1_555 1_555
C14A C13A 1_555 1_555
C14B C13B 1_555 1_555
C14K C15K 1_555 1_555
C14I C13I 1_555 1_555
C14J C13J 1_555 1_555
C15A C14A 1_555 1_555
C15B C14B 1_555 1_555
C15K H7K 1_555 1_555
C15I C14I 1_555 1_555
C15J C14J 1_555 1_555
H7A C15A 1_555 1_555
H7B C15B 1_555 1_555
H7I C15I 1_555 1_555
H7J C15J 1_555 1_555
C16A C15A 1_555 1_555
C16B C15B 1_555 1_555
C16K C15K 1_555 1_555
C16I C15I 1_555 1_555
C16J C15J 1_555 1_555
H8A C16A 1_555 1_555
H8B C16B 1_555 1_555
H8K C16K 1_555 1_555
H8I C16I 1_555 1_555
H8J C16J 1_555 1_555
N2A B1A 1_555 1_555
N2B B1B 1_555 1_555
N2K B1K 1_555 1_555
N2I B1I 1_555 1_555
N2J B1J 1_555 1_555
C17A N2A 1_555 1_555
C17B N2B 1_555 1_555
C17K N2K 1_555 1_555
C17I N2I 1_555 1_555
C17J N2J 1_555 1_555
H9A C17A 1_555 1_555
H9B C17B 1_555 1_555
H9K C17K 1_555 1_555
H9I C17I 1_555 1_555
H9J C17J 1_555 1_555
C18A C14A 1_555 1_555
C18B C14B 1_555 1_555
C18K C14K 1_555 1_555
C18I C14I 1_555 1_555
C18J C14J 1_555 1_555
H10A C18A 1_555 1_555
H10B C18B 1_555 1_555
H10K C18K 1_555 1_555
H10I C18I 1_555 1_555
H10J C18J 1_555 1_555
C19A H11A 1_555 1_555
C19B C24 1_555 1_555
H11B C19B 1_555 1_555
C20A C19A 1_555 1_555
C20B C21 1_555 1_555
C21A C20 1_555 1_555
C21B C20A 1_555 1_555
C22A C21A 1_555 1_555
C22B C21B 1_555 1_555
H12A C22A 1_555 1_555
H12B C22B 1_555 1_555
C23A C22A 1_555 1_555
C23B C22B 1_555 1_555
H13A C23A 1_555 1_555
H13B C23B 1_555 1_555
C24A C19 1_555 1_555
C24B C19A 1_555 1_555
H14A C24A 1_555 1_555
H14B C24B 1_555 1_555
C5 C6 1_555 1_555
C7 O1 1_555 1_555
C8 O2 1_555 1_555
C11 C12 1_555 1_555
C16 N2 1_555 1_555
C17 C18 1_555 1_555
C3K C4K 1_555 1_555
C4A C4J 1_555 1_555
C4B C4I 1_555 1_555
C5A C6A 1_555 1_555
C5B C6B 1_555 1_555
C5K C6K 1_555 1_555
C5I C6I 1_555 1_555
C5J C6J 1_555 1_555
C7A O1A 1_555 1_555
C7B O1B 1_555 1_555
C7K O1K 1_555 1_555
C7I O1I 1_555 1_555
C7J O1J 1_555 1_555
C8A O2A 1_555 1_555
C8B O2B 1_555 1_555
C8K O2K 1_555 1_555
C8I O2I 1_555 1_555
C8J O2J 1_555 1_555
C11A C12A 1_555 1_555
C11B C12B 1_555 1_555
C11K C12K 1_555 1_555
C11I C12I 1_555 1_555
C11J C12J 1_555 1_555
N1B C13B 1_555 1_555
N1J C13J 1_555 1_555
C16A N2A 1_555 1_555
C16B N2B 1_555 1_555
C16K N2K 1_555 1_555
C16I N2I 1_555 1_555
C16J N2J 1_555 1_555
C17A C18A 1_555 1_555
C17B C18B 1_555 1_555
C17K C18K 1_555 1_555
C17I C18I 1_555 1_555
C17J C18J 1_555 1_555
C19B C20B 1_555 1_555
C20A C21A 1_555 1_555
C20B C21B 1_555 1_555
C23A C24A 1_555 1_555
C23B C24B 1_555 1_555

#END
