
#######################################################################
#
#                 Cambridge Crystallographic Data Centre
#                                CCDC 
#
#######################################################################
#
# If this CIF has been generated from an entry in the Cambridge 
# Structural Database, then it will include bibliographic, chemical, 
# crystal, experimental, refinement or atomic coordinate data resulting 
# from the CCDC's data processing and validation procedures.
#
#######################################################################

data_UWOGET
_chemical_formula_moiety         
'C66 H78 N22 O12,2(C4 H12 N1 1+),C4 H4 O4 2-,2(C2 H3 N1),2(C1 H1 Cl3),3(H2 O1)'
_chemical_name_systematic        
'1,4,12,15,18,26,29,32,40,43,46,54,59,67,70,71,72,75,83,86,87,88-Docosaazanonacyclo[41.13.13.13^15,29^.1^6,10^.1^20,24^.1^34,38^.1^48,52^.1^61,65^.1^77,81^]octaoctaconta-6(87),7,9,20(86),21,23,34(72),35,37,48(71),49,51,61(70),62,64,77(88),78,80-octadecaene-5,11,19,25,33,39,47,53,60,66,76,82-dodecone bis(tetramethylammonium) succinate chloroform acetonitrile solvate trihydrate'
_symmetry_cell_setting           triclinic
_symmetry_space_group_name_H-M   'P -1'
_symmetry_Int_Tables_number      2
_space_group_name_Hall           '-P 1'
loop_
_symmetry_equiv_pos_site_id
_symmetry_equiv_pos_as_xyz
1 x,y,z
2 -x,-y,-z
_cell_length_a                   12.360(3)
_cell_length_b                   14.699(4)
_cell_length_c                   15.587(4)
_cell_angle_alpha                70.114(4)
_cell_angle_beta                 82.103(4)
_cell_angle_gamma                66.078(4)
_cell_volume                     2434.23
_exptl_crystal_colour            colorless
_exptl_crystal_description       irregular
_cell_formula_units_Z            1
loop_
_atom_site_label
_atom_site_type_symbol
_atom_site_fract_x
_atom_site_fract_y
_atom_site_fract_z
O1 O 0.03687(17) 0.72160(16) 0.27491(12)
O2 O 0.06840(15) 0.96301(13) -0.19613(11)
O3 O 0.91780(15) 0.54190(13) -0.17581(11)
O4 O 0.84116(14) 0.24806(12) 0.27147(10)
O5 O 0.24012(15) 0.37319(12) 0.56684(11)
O6 O 0.37044(14) -0.09795(12) 0.48004(11)
N1 N 0.42908(17) 0.45755(15) 0.34034(12)
C1 C 0.3310(2) 0.52689(18) 0.27620(16)
H1 H 0.3563 0.5190 0.2152
H2 H 0.2638 0.5041 0.2958
C2 C 0.2879(2) 0.64294(19) 0.26806(16)
H3 H 0.3565 0.6637 0.2588
H4 H 0.2480 0.6540 0.3254
N2 N 0.20635(18) 0.70768(16) 0.19239(13)
H5 H 0.2357 0.7255 0.1374
C3 C 0.0891(2) 0.74157(19) 0.20183(16)
C4 C 0.0215(2) 0.81133(17) 0.11448(15)
N3 N 0.08724(16) 0.82256(14) 0.03905(12)
C5 C -0.1005(2) 0.86419(18) 0.11407(16)
H6 H -0.1453 0.8528 0.1685
C6 C -0.1552(2) 0.93369(18) 0.03261(17)
H7 H -0.2384 0.9719 0.0304
C7 C -0.0878(2) 0.94724(17) -0.04581(16)
H8 H -0.1233 0.9952 -0.1025
C8 C 0.03330(19) 0.88859(16) -0.03905(14)
C9 C 0.11114(19) 0.90069(16) -0.12242(14)
N4 N 0.22493(16) 0.83836(14) -0.10644(12)
H9 H 0.2459 0.7952 -0.0509
C10 C 0.31608(19) 0.83789(17) -0.17584(14)
H10 H 0.3687 0.7645 -0.1708
H11 H 0.2786 0.8712 -0.2369
C11 C 0.38985(19) 0.89600(16) -0.16692(14)
H12 H 0.3938 0.8891 -0.1019
H13 H 0.3506 0.9714 -0.2009
N5 N 0.51091(15) 0.85549(13) -0.20214(11)
C12 C 0.58028(19) 0.75826(16) -0.13294(14)
H14 H 0.6031 0.7764 -0.0844
H15 H 0.5297 0.7181 -0.1048
C13 C 0.69099(19) 0.68915(16) -0.16977(14)
H16 H 0.7438 0.7274 -0.1968
H17 H 0.6699 0.6693 -0.2179
N6 N 0.75103(16) 0.59558(14) -0.09482(12)
H18 H 0.7143 0.5823 -0.0423
C14 C 0.86081(19) 0.52969(17) -0.10454(15)
C15 C 0.91348(19) 0.43759(16) -0.02129(14)
N7 N 0.84291(15) 0.42518(13) 0.05085(12)
C16 C 1.03141(19) 0.36987(17) -0.02242(15)
H19 H 1.0787 0.3803 -0.0755
C17 C 1.07761(19) 0.28721(17) 0.05563(16)
H20 H 1.1581 0.2405 0.0575
C18 C 1.00556(19) 0.27293(17) 0.13114(15)
H21 H 1.0353 0.2165 0.1856
C19 C 0.88863(19) 0.34344(16) 0.12503(14)
C20 C 0.80578(19) 0.32585(17) 0.20367(14)
N8 N 0.69564(16) 0.39820(14) 0.19186(12)
H22 H 0.6819 0.4573 0.1468
C21 C 0.59692(19) 0.38417(17) 0.24986(14)
H23 H 0.5343 0.3925 0.2111
H24 H 0.6244 0.3117 0.2926
C22 C 0.5436(2) 0.46034(17) 0.30471(15)
H25 H 0.5334 0.5322 0.2653
H26 H 0.5970 0.4402 0.3557
C23 C 0.4023(2) 0.46956(17) 0.43073(14)
H27 H 0.4275 0.5242 0.4341
H28 H 0.3157 0.4935 0.4406
C24 C 0.4636(2) 0.36799(17) 0.50599(14)
H29 H 0.4516 0.3824 0.5649
H30 H 0.5497 0.3413 0.4937
N9 N 0.41917(17) 0.28827(14) 0.51306(12)
H31 H 0.4646 0.2332 0.4962
C25 C 0.31170(19) 0.29695(16) 0.54434(13)
C26 C 0.27903(19) 0.20578(16) 0.55534(13)
N10 N 0.33565(15) 0.14354(13) 0.50396(11)
C27 C 0.1943(2) 0.18821(17) 0.62041(14)
H32 H 0.1538 0.2358 0.6538
C28 C 0.1705(2) 0.09989(18) 0.63536(15)
H33 H 0.1142 0.0851 0.6800
C29 C 0.2299(2) 0.03340(17) 0.58417(15)
H34 H 0.2163 -0.0285 0.5937
C30 C 0.30982(18) 0.05944(16) 0.51864(13)
C31 C 0.37161(18) -0.00915(16) 0.45947(14)
N11 N 0.42343(16) 0.03321(13) 0.38566(11)
H35 H 0.4281 0.0932 0.3796
C32 C 0.4729(2) -0.01502(16) 0.31423(14)
H36 H 0.5603 -0.0469 0.3190
H37 H 0.4443 -0.0713 0.3219
C33 C 0.56347(19) 0.93376(16) -0.22134(14)
H38 H 0.5382 0.9691 -0.1739
H39 H 0.6508 0.8981 -0.2187
O1A O 0.96313(17) 0.27840(16) -0.27491(12)
O2A O 0.93160(15) 0.03699(13) 0.19613(11)
O3A O 0.08220(15) 0.45810(13) 0.17581(11)
O4A O 0.15884(14) 0.75194(12) -0.27147(10)
O5A O 0.75988(15) 0.62681(12) -0.56684(11)
O6A O 0.62956(14) 1.09795(12) -0.48004(11)
N1A N 0.57092(17) 0.54245(15) -0.34034(12)
C1A C 0.6690(2) 0.47311(18) -0.27620(16)
H1A H 0.6437 0.4810 -0.2152
H2A H 0.7362 0.4959 -0.2958
C2A C 0.7121(2) 0.35706(19) -0.26806(16)
H3A H 0.6435 0.3363 -0.2588
H4A H 0.7520 0.3460 -0.3254
N2A N 0.79365(18) 0.29232(16) -0.19239(13)
H5A H 0.7643 0.2745 -0.1374
C3A C 0.9109(2) 0.25843(19) -0.20183(16)
C4A C 0.9785(2) 0.18867(17) -0.11448(15)
N3A N 0.91276(16) 0.17744(14) -0.03905(12)
C5A C 1.1005(2) 0.13581(18) -0.11407(16)
H6A H 1.1453 0.1472 -0.1685
C6A C 1.1552(2) 0.06631(18) -0.03261(17)
H7A H 1.2384 0.0281 -0.0304
C7A C 1.0878(2) 0.05276(17) 0.04581(16)
H8A H 1.1233 0.0048 0.1025
C8A C 0.96670(19) 0.11141(16) 0.03905(14)
C9A C 0.88886(19) 0.09931(16) 0.12242(14)
N4A N 0.77507(16) 0.16164(14) 0.10644(12)
H9A H 0.7541 0.2048 0.0509
C10A C 0.68392(19) 0.16211(17) 0.17584(14)
H10A H 0.6313 0.2355 0.1708
H11A H 0.7214 0.1288 0.2369
C11A C 0.61015(19) 0.10400(16) 0.16692(14)
H12A H 0.6062 0.1109 0.1019
H13A H 0.6494 0.0286 0.2009
N5A N 0.48909(15) 0.14451(13) 0.20214(11)
C12A C 0.41972(19) 0.24174(16) 0.13294(14)
H14A H 0.3969 0.2236 0.0844
H15A H 0.4703 0.2819 0.1048
C13A C 0.30901(19) 0.31085(16) 0.16977(14)
H16A H 0.2562 0.2726 0.1968
H17A H 0.3301 0.3307 0.2179
N6A N 0.24897(16) 0.40442(14) 0.09482(12)
H18A H 0.2857 0.4177 0.0423
C14A C 0.13919(19) 0.47031(17) 0.10454(15)
C15A C 0.08652(19) 0.56241(16) 0.02129(14)
N7A N 0.15709(15) 0.57482(13) -0.05085(12)
C16A C -0.03141(19) 0.63013(17) 0.02242(15)
H19A H -0.0787 0.6197 0.0755
C17A C -0.07761(19) 0.71279(17) -0.05563(16)
H20A H -0.1581 0.7595 -0.0575
C18A C -0.00556(19) 0.72707(17) -0.13114(15)
H21A H -0.0353 0.7835 -0.1856
C19A C 0.11137(19) 0.65656(16) -0.12503(14)
C20A C 0.19422(19) 0.67415(17) -0.20367(14)
N8A N 0.30436(16) 0.60180(14) -0.19186(12)
H22A H 0.3181 0.5427 -0.1468
C21A C 0.40308(19) 0.61583(17) -0.24986(14)
H23A H 0.4657 0.6075 -0.2111
H24A H 0.3756 0.6883 -0.2926
C22A C 0.4564(2) 0.53966(17) -0.30471(15)
H25A H 0.4666 0.4678 -0.2653
H26A H 0.4030 0.5598 -0.3557
C23A C 0.5977(2) 0.53044(17) -0.43073(14)
H27A H 0.5725 0.4758 -0.4341
H28A H 0.6843 0.5065 -0.4406
C24A C 0.5364(2) 0.63201(17) -0.50599(14)
H29A H 0.5484 0.6176 -0.5649
H30A H 0.4503 0.6587 -0.4937
N9A N 0.58083(17) 0.71173(14) -0.51306(12)
H31A H 0.5354 0.7668 -0.4962
C25A C 0.68830(19) 0.70305(16) -0.54434(13)
C26A C 0.72097(19) 0.79422(16) -0.55534(13)
N10A N 0.66435(15) 0.85646(13) -0.50396(11)
C27A C 0.8057(2) 0.81179(17) -0.62041(14)
H32A H 0.8462 0.7642 -0.6538
C28A C 0.8295(2) 0.90011(18) -0.63536(15)
H33A H 0.8858 0.9149 -0.6800
C29A C 0.7701(2) 0.96660(17) -0.58417(15)
H34A H 0.7837 1.0285 -0.5937
C30A C 0.69018(18) 0.94056(16) -0.51864(13)
C31A C 0.62839(18) 1.00915(16) -0.45947(14)
N11A N 0.57657(16) 0.96679(13) -0.38566(11)
H35A H 0.5719 0.9068 -0.3796
C32A C 0.5271(2) 1.01502(16) -0.31423(14)
H36A H 0.4397 1.0469 -0.3190
H37A H 0.5557 1.0713 -0.3219
C33A C 0.43653(19) 0.06624(16) 0.22134(14)
H38A H 0.4618 0.0309 0.1739
H39A H 0.3492 0.1019 0.2187
N12 N -0.03765(16) 0.39416(14) 0.39257(12)
C34 C -0.1362(2) 0.45334(18) 0.32449(16)
H40 H -0.1868 0.5197 0.3354
H41 H -0.1832 0.4114 0.3307
H42 H -0.1032 0.4677 0.2628
C35 C 0.0416(2) 0.29459(18) 0.37337(16)
H43 H 0.0769 0.3113 0.3127
H44 H -0.0048 0.2533 0.3755
H45 H 0.1045 0.2540 0.4194
C36 C 0.0303(2) 0.4605(2) 0.38537(17)
H46 H -0.0231 0.5264 0.3957
H47 H 0.0652 0.4754 0.3244
H48 H 0.0933 0.4231 0.4313
C37 C -0.0885(2) 0.36858(19) 0.48647(16)
H49 H -0.1403 0.4337 0.4991
H50 H -0.0241 0.3290 0.5313
H51 H -0.1343 0.3263 0.4905
O7 O 0.38448(13) 0.69883(12) 0.05122(10)
O8 O 0.57616(13) 0.59591(11) 0.06686(10)
C38 C 0.47132(18) 0.61780(15) 0.04645(12)
C39 C 0.44613(18) 0.54182(16) 0.01295(15)
H52 H 0.3934 0.5831 -0.0409
H53 H 0.4025 0.5065 0.0614
O7A O 0.61552(13) 0.30117(12) -0.05122(10)
O8A O 0.42384(13) 0.40409(11) -0.06686(10)
C38A C 0.52868(18) 0.38220(15) -0.04645(12)
C39A C 0.55387(18) 0.45818(16) -0.01295(15)
H52A H 0.6066 0.4169 0.0409
H53A H 0.5975 0.4935 -0.0614
Cl1 Cl 0.61661(7) 0.12797(7) -0.14853(9)
Cl2 Cl 0.39994(11) 0.27362(6) -0.24233(6)
Cl3 Cl 0.39438(14) 0.14050(10) -0.06086(6)
C40 C 0.4710(3) 0.2125(2) -0.13659(16)
H54 H 0.4720 0.2669 -0.1121
N13 N -0.16199(19) -0.07334(18) 0.67820(16)
C41 C -0.1572(3) -0.0006(3) 0.6739(2)
C42 C -0.1510(3) 0.1107(3) 0.6650(2)
H55 H -0.0935 0.0992 0.7089
H56 H -0.2292 0.1587 0.6776
H57 H -0.1266 0.1412 0.6030
O9 O 0.2327(2) 0.77363(17) -0.45080(14)
H58 H 0.213(4) 0.771(3) -0.393(3)
H59 H 0.274(4) 0.820(3) -0.474(3)
O10? O -0.0244(8) 0.0210(8) 0.5320(5)
C43? C 0.436(3) 0.233(2) -0.1378(17)
Cl4? Cl 0.4898(14) 0.2404(12) -0.2484(10)
Cl5? Cl 0.282(3) 0.285(3) -0.153(3)
Cl6? Cl 0.4717(9) 0.1087(6) -0.0573(6)
H60? H 0.4581 0.2786 -0.1143
loop_
_geom_bond_atom_site_label_1
_geom_bond_atom_site_label_2
_geom_bond_site_symmetry_1
_geom_bond_site_symmetry_2
O1 C3 1_555 1_555
O2 C9 1_555 1_555
O3 C14 1_555 1_555
O4 C20 1_555 1_555
O5 C25 1_555 1_555
O6 C31 1_555 1_555
N1 C1 1_555 1_555
C1 H1 1_555 1_555
H2 C1 1_555 1_555
C2 C1 1_555 1_555
H3 C2 1_555 1_555
H4 C2 1_555 1_555
N2 C2 1_555 1_555
H5 N2 1_555 1_555
C3 N2 1_555 1_555
C4 C3 1_555 1_555
N3 C4 1_555 1_555
C5 C4 1_555 1_555
H6 C5 1_555 1_555
C6 C5 1_555 1_555
H7 C6 1_555 1_555
C7 C6 1_555 1_555
H8 C7 1_555 1_555
C8 N3 1_555 1_555
C9 C8 1_555 1_555
N4 C9 1_555 1_555
H9 N4 1_555 1_555
C10 N4 1_555 1_555
H10 C10 1_555 1_555
H11 C10 1_555 1_555
C11 C10 1_555 1_555
H12 C11 1_555 1_555
H13 C11 1_555 1_555
N5 C11 1_555 1_555
C12 N5 1_555 1_555
H14 C12 1_555 1_555
H15 C12 1_555 1_555
C13 C12 1_555 1_555
H16 C13 1_555 1_555
H17 C13 1_555 1_555
N6 C13 1_555 1_555
H18 N6 1_555 1_555
C14 N6 1_555 1_555
C15 C14 1_555 1_555
N7 C15 1_555 1_555
C16 C15 1_555 1_555
H19 C16 1_555 1_555
C17 C16 1_555 1_555
H20 C17 1_555 1_555
C18 C17 1_555 1_555
H21 C18 1_555 1_555
C19 N7 1_555 1_555
C20 C19 1_555 1_555
N8 C20 1_555 1_555
H22 N8 1_555 1_555
C21 N8 1_555 1_555
H23 C21 1_555 1_555
H24 C21 1_555 1_555
C22 N1 1_555 1_555
H25 C22 1_555 1_555
H26 C22 1_555 1_555
C23 N1 1_555 1_555
H27 C23 1_555 1_555
H28 C23 1_555 1_555
C24 C23 1_555 1_555
H29 C24 1_555 1_555
H30 C24 1_555 1_555
N9 C24 1_555 1_555
H31 N9 1_555 1_555
C25 N9 1_555 1_555
C26 C25 1_555 1_555
N10 C26 1_555 1_555
C27 C26 1_555 1_555
H32 C27 1_555 1_555
C28 C27 1_555 1_555
H33 C28 1_555 1_555
C29 C28 1_555 1_555
H34 C29 1_555 1_555
C30 N10 1_555 1_555
C31 C30 1_555 1_555
N11 C31 1_555 1_555
H35 N11 1_555 1_555
C32 N11 1_555 1_555
H36 C32 1_555 1_555
H37 C32 1_555 1_555
C33 N5 1_555 1_555
H38 C33 1_555 1_555
H39 C33 1_555 1_555
N12 C34 1_555 1_555
C34 H40 1_555 1_555
H41 C34 1_555 1_555
H42 C34 1_555 1_555
C35 N12 1_555 1_555
H43 C35 1_555 1_555
H44 C35 1_555 1_555
H45 C35 1_555 1_555
C36 N12 1_555 1_555
H46 C36 1_555 1_555
H47 C36 1_555 1_555
H48 C36 1_555 1_555
C37 N12 1_555 1_555
H49 C37 1_555 1_555
H50 C37 1_555 1_555
H51 C37 1_555 1_555
O7 C38 1_555 1_555
O8 C38 1_555 1_555
C38 C39 1_555 1_555
C39 H52 1_555 1_555
H53 C39 1_555 1_555
Cl1 C40 1_555 1_555
Cl2 C40 1_555 1_555
Cl3 C40 1_555 1_555
C40 H54 1_555 1_555
N13 C41 1_555 1_555
C41 C42 1_555 1_555
C42 H55 1_555 1_555
H56 C42 1_555 1_555
H57 C42 1_555 1_555
O9 H58 1_555 1_555
H59 O9 1_555 1_555
O1A C3A 1_555 1_555
O2A C9A 1_555 1_555
O3A C14A 1_555 1_555
O4A C20A 1_555 1_555
O5A C25A 1_555 1_555
O6A C31A 1_555 1_555
N1A C1A 1_555 1_555
C1A H1A 1_555 1_555
H2A C1A 1_555 1_555
C2A C1A 1_555 1_555
H3A C2A 1_555 1_555
H4A C2A 1_555 1_555
N2A C2A 1_555 1_555
H5A N2A 1_555 1_555
C3A N2A 1_555 1_555
C4A C3A 1_555 1_555
N3A C4A 1_555 1_555
C5A C4A 1_555 1_555
H6A C5A 1_555 1_555
C6A C5A 1_555 1_555
H7A C6A 1_555 1_555
C7A C6A 1_555 1_555
H8A C7A 1_555 1_555
C8A N3A 1_555 1_555
C9A C8A 1_555 1_555
N4A C9A 1_555 1_555
H9A N4A 1_555 1_555
C10A N4A 1_555 1_555
H10A C10A 1_555 1_555
H11A C10A 1_555 1_555
C11A C10A 1_555 1_555
H12A C11A 1_555 1_555
H13A C11A 1_555 1_555
N5A C11A 1_555 1_555
C12A N5A 1_555 1_555
H14A C12A 1_555 1_555
H15A C12A 1_555 1_555
C13A C12A 1_555 1_555
H16A C13A 1_555 1_555
H17A C13A 1_555 1_555
N6A C13A 1_555 1_555
H18A N6A 1_555 1_555
C14A N6A 1_555 1_555
C15A C14A 1_555 1_555
N7A C15A 1_555 1_555
C16A C15A 1_555 1_555
H19A C16A 1_555 1_555
C17A C16A 1_555 1_555
H20A C17A 1_555 1_555
C18A C17A 1_555 1_555
H21A C18A 1_555 1_555
C19A N7A 1_555 1_555
C20A C19A 1_555 1_555
N8A C20A 1_555 1_555
H22A N8A 1_555 1_555
C21A N8A 1_555 1_555
H23A C21A 1_555 1_555
H24A C21A 1_555 1_555
C22A N1A 1_555 1_555
H25A C22A 1_555 1_555
H26A C22A 1_555 1_555
C23A N1A 1_555 1_555
H27A C23A 1_555 1_555
H28A C23A 1_555 1_555
C24A C23A 1_555 1_555
H29A C24A 1_555 1_555
H30A C24A 1_555 1_555
N9A C24A 1_555 1_555
H31A N9A 1_555 1_555
C25A N9A 1_555 1_555
C26A C25A 1_555 1_555
N10A C26A 1_555 1_555
C27A C26A 1_555 1_555
H32A C27A 1_555 1_555
C28A C27A 1_555 1_555
H33A C28A 1_555 1_555
C29A C28A 1_555 1_555
H34A C29A 1_555 1_555
C30A N10A 1_555 1_555
C31A C30A 1_555 1_555
N11A C31A 1_555 1_555
H35A N11A 1_555 1_555
C32A C33 1_555 1_555
H36A C32A 1_555 1_555
H37A C32A 1_555 1_555
C33A C32 1_555 1_555
H38A C33A 1_555 1_555
H39A C33A 1_555 1_555
O7A C38A 1_555 1_555
O8A C38A 1_555 1_555
C38A C39A 1_555 1_555
C39A C39 1_555 1_555
H52A C39A 1_555 1_555
H53A C39A 1_555 1_555
C7 C8 1_555 1_555
C18 C19 1_555 1_555
C21 C22 1_555 1_555
C29 C30 1_555 1_555
C7A C8A 1_555 1_555
N5A C33A 1_555 1_555
C18A C19A 1_555 1_555
C21A C22A 1_555 1_555
C29A C30A 1_555 1_555
N11A C32A 1_555 1_555

#END
