
#######################################################################
#
#                 Cambridge Crystallographic Data Centre
#                                CCDC 
#
#######################################################################
#
# If this CIF has been generated from an entry in the Cambridge 
# Structural Database, then it will include bibliographic, chemical, 
# crystal, experimental, refinement or atomic coordinate data resulting 
# from the CCDC's data processing and validation procedures.
#
#######################################################################

data_UWOGAP
_chemical_formula_moiety         
'C66 H78 N22 O12,2(C16 H36 N1 1+),C8 H4 O4 2-,4(C2 H3 N1),6(H2 O1)'
_chemical_name_systematic        
'1,4,12,15,18,26,29,32,40,43,46,54,59,67,70,71,72,75,83,86,87,88-Docosaazanonacyclo[41.13.13.13^15,29^.1^6,10^.1^20,24^.1^34,38^.1^48,52^.1^61,65^.1^77,81^]octaoctaconta-6(87),7,9,20(86),21,23,34(72),35,37,48(71),49,51,61(70),62,64,77(88),78,80-octadecaene-5,11,19,25,33,39,47,53,60,66,76,82-dodecone bis(tetra-n-butylammonium) terephthalate acetonitrile solvate hexahydrate'
_symmetry_cell_setting           triclinic
_symmetry_space_group_name_H-M   'P -1'
_symmetry_Int_Tables_number      2
_space_group_name_Hall           '-P 1'
loop_
_symmetry_equiv_pos_site_id
_symmetry_equiv_pos_as_xyz
1 x,y,z
2 -x,-y,-z
_cell_length_a                   13.477(4)
_cell_length_b                   15.019(4)
_cell_length_c                   17.319(5)
_cell_angle_alpha                98.171(5)
_cell_angle_beta                 109.671(4)
_cell_angle_gamma                102.737(5)
_cell_volume                     3129.15
_exptl_crystal_colour            colorless
_exptl_crystal_description       parallelepiped
_cell_formula_units_Z            1
loop_
_atom_site_label
_atom_site_type_symbol
_atom_site_fract_x
_atom_site_fract_y
_atom_site_fract_z
O1 O -0.11781(12) 0.04485(10) 0.05792(9)
O2 O -0.15965(12) 0.15552(10) -0.32982(9)
O3 O 0.48760(12) 0.64503(10) -0.01993(9)
O4 O 0.37110(13) 0.64890(11) 0.34638(9)
O5 O -0.00473(13) 0.18060(10) 0.46355(10)
O6 O -0.30457(12) 0.50844(10) 0.45589(9)
N1 N 0.08870(13) 0.33258(11) 0.25726(10)
C1 C 0.02247(16) 0.28419(14) 0.16846(12)
H1 H 0.0198(17) 0.3311(15) 0.1338(14)
H2 H -0.0559(19) 0.2546(15) 0.1624(14)
C2 C 0.06393(17) 0.20710(14) 0.13230(12)
H3 H 0.1386(18) 0.2317(14) 0.1399(13)
H4 H 0.0567(19) 0.1544(17) 0.1597(15)
N2 N 0.00085(14) 0.16797(12) 0.04287(10)
H5 H 0.0204(19) 0.1953(16) 0.0102(15)
C3 C -0.08219(16) 0.08921(13) 0.01324(12)
C4 C -0.13099(15) 0.05684(13) -0.08152(12)
N3 N -0.10731(13) 0.12111(11) -0.12353(10)
C5 C -0.19523(17) -0.03485(14) -0.12108(13)
H6 H -0.2099(19) -0.0782(16) -0.0897(15)
C6 C -0.23605(17) -0.06036(14) -0.20842(13)
H7 H -0.2805(18) -0.1233(16) -0.2367(14)
C7 C -0.21256(16) 0.00578(14) -0.25276(13)
H8 H -0.2392(18) -0.0059(15) -0.3101(15)
C8 C -0.14812(15) 0.09586(13) -0.20755(12)
C9 C -0.12087(15) 0.17151(13) -0.25251(12)
N4 N -0.05269(14) 0.25291(11) -0.20082(11)
H9 H -0.0209(19) 0.2568(16) -0.1497(16)
C10 C -0.01008(17) 0.33421(14) -0.22930(13)
H10 H -0.0038(17) 0.3892(15) -0.1898(14)
H11 H -0.0624(19) 0.3335(16) -0.2835(15)
C11 C 0.10338(16) 0.33671(13) -0.23045(12)
H12 H 0.1470(17) 0.3172(14) -0.1801(13)
H13 H 0.0931(17) 0.2922(15) -0.2803(14)
N5 N 0.16474(13) 0.43029(11) -0.23273(10)
C12 C 0.22286(16) 0.49273(13) -0.14771(12)
H14 H 0.2439(18) 0.5551(16) -0.1531(14)
H15 H 0.1716(17) 0.4904(14) -0.1201(13)
C13 C 0.32455(16) 0.47038(14) -0.09076(12)
H16 H 0.3051(17) 0.4064(15) -0.0901(13)
H17 H 0.3839(18) 0.4855(15) -0.1110(14)
N6 N 0.36523(14) 0.52553(11) -0.00459(10)
H18 H 0.3389(19) 0.5039(15) 0.0274(15)
C14 C 0.44378(15) 0.60683(13) 0.02381(12)
C15 C 0.47776(15) 0.65065(13) 0.11650(12)
N7 N 0.41187(12) 0.61322(11) 0.15370(10)
C16 C 0.57217(16) 0.72550(13) 0.15863(13)
H19 H 0.6180(18) 0.7474(15) 0.1328(14)
C17 C 0.59998(17) 0.76158(14) 0.24375(13)
H20 H 0.6633(19) 0.8102(15) 0.2712(14)
C18 C 0.53179(16) 0.72408(14) 0.28315(13)
H21 H 0.5470(18) 0.7479(15) 0.3394(15)
C19 C 0.43820(15) 0.65062(13) 0.23546(12)
C20 C 0.35837(16) 0.61048(14) 0.27471(12)
N8 N 0.27740(13) 0.53451(12) 0.22556(11)
H22 H 0.278(2) 0.5096(17) 0.1781(16)
C21 C 0.18665(16) 0.48923(14) 0.24728(13)
H23 H 0.1149(18) 0.4796(15) 0.1979(14)
H24 H 0.1854(18) 0.5301(15) 0.2956(14)
C22 C 0.19620(16) 0.39507(14) 0.26739(13)
H25 H 0.2286(18) 0.3645(15) 0.2315(14)
H26 H 0.2470(16) 0.4052(13) 0.3252(13)
C23 C 0.10321(17) 0.26186(14) 0.30880(12)
H27 H 0.1654(18) 0.2367(15) 0.3074(14)
H28 H 0.0304(19) 0.2089(16) 0.2881(14)
C24 C 0.12604(17) 0.30043(15) 0.40049(13)
H29 H 0.1550(18) 0.2535(15) 0.4327(14)
H30 H 0.1850(17) 0.3618(15) 0.4207(13)
N9 N 0.02830(15) 0.31209(13) 0.41441(11)
H31 H 0.005(2) 0.3612(18) 0.4027(16)
C25 C -0.02599(17) 0.25267(14) 0.44740(12)
C26 C -0.11481(16) 0.28360(13) 0.46866(11)
N10 N -0.13446(13) 0.36160(11) 0.44683(9)
C27 C -0.16859(17) 0.23339(15) 0.51148(13)
H32 H -0.1497(18) 0.1783(16) 0.5256(14)
C28 C -0.24519(18) 0.26713(16) 0.53422(14)
H33 H -0.279(2) 0.2389(18) 0.5649(17)
C29 C -0.26622(17) 0.34726(16) 0.51220(13)
H34 H -0.3151(19) 0.3709(16) 0.5261(14)
C30 C -0.20986(16) 0.39200(13) 0.46807(11)
C31 C -0.23249(16) 0.47927(13) 0.44173(11)
N11 N -0.17002(15) 0.51919(12) 0.40324(10)
H35 H -0.122(2) 0.4935(17) 0.3943(16)
C32 C -0.18462(19) 0.60180(14) 0.37109(12)
H36 H -0.1141(18) 0.6463(15) 0.3891(13)
H37 H -0.230(2) 0.6291(17) 0.3956(15)
C33 C 0.24170(17) 0.42103(14) -0.27532(12)
H38 H 0.2767(17) 0.3718(14) -0.2593(13)
H39 H 0.2981(18) 0.4792(15) -0.2588(13)
O1A O 0.11781(12) 0.95515(10) -0.05792(9)
O2A O 0.15965(12) 0.84448(10) 0.32982(9)
O3A O -0.48760(12) 0.35497(10) 0.01993(9)
O4A O -0.37110(13) 0.35110(11) -0.34638(9)
O5A O 0.00473(13) 0.81940(10) -0.46355(10)
O6A O 0.30457(12) 0.49156(10) -0.45589(9)
N1A N -0.08870(13) 0.66742(11) -0.25726(10)
C1A C -0.02247(16) 0.71581(14) -0.16846(12)
H1A H -0.0198(17) 0.6689(15) -0.1338(14)
H2A H 0.0559(19) 0.7454(15) -0.1624(14)
C2A C -0.06393(17) 0.79290(14) -0.13230(12)
H3A H -0.1386(18) 0.7683(14) -0.1399(13)
H4A H -0.0567(19) 0.8456(17) -0.1597(15)
N2A N -0.00085(14) 0.83203(12) -0.04287(10)
H5A H -0.0204(19) 0.8047(16) -0.0102(15)
C3A C 0.08219(16) 0.91079(13) -0.01324(12)
C4A C 0.13099(15) 0.94316(13) 0.08152(12)
N3A N 0.10731(13) 0.87889(11) 0.12353(10)
C5A C 0.19523(17) 1.03485(14) 0.12108(13)
H6A H 0.2099(19) 1.0782(16) 0.0897(15)
C6A C 0.23605(17) 1.06036(14) 0.20842(13)
H7A H 0.2805(18) 1.1233(16) 0.2367(14)
C7A C 0.21256(16) 0.99422(14) 0.25276(13)
H8A H 0.2392(18) 1.0059(15) 0.3101(15)
C8A C 0.14812(15) 0.90414(13) 0.20755(12)
C9A C 0.12087(15) 0.82849(13) 0.25251(12)
N4A N 0.05269(14) 0.74709(11) 0.20082(11)
H9A H 0.0209(19) 0.7432(16) 0.1497(16)
C10A C 0.01008(17) 0.66579(14) 0.22930(13)
H10A H 0.0038(17) 0.6108(15) 0.1898(14)
H11A H 0.0624(19) 0.6665(16) 0.2835(15)
C11A C -0.10338(16) 0.66329(13) 0.23045(12)
H12A H -0.1470(17) 0.6828(14) 0.1801(13)
H13A H -0.0931(17) 0.7078(15) 0.2803(14)
N5A N -0.16474(13) 0.56971(11) 0.23273(10)
C12A C -0.22286(16) 0.50727(13) 0.14771(12)
H14A H -0.2439(18) 0.4449(16) 0.1531(14)
H15A H -0.1716(17) 0.5096(14) 0.1201(13)
C13A C -0.32455(16) 0.52962(14) 0.09076(12)
H16A H -0.3051(17) 0.5936(15) 0.0901(13)
H17A H -0.3839(18) 0.5145(15) 0.1110(14)
N6A N -0.36523(14) 0.47447(11) 0.00459(10)
H18A H -0.3389(19) 0.4961(15) -0.0274(15)
C14A C -0.44378(15) 0.39317(13) -0.02381(12)
C15A C -0.47776(15) 0.34935(13) -0.11650(12)
N7A N -0.41187(12) 0.38678(11) -0.15370(10)
C16A C -0.57217(16) 0.27450(13) -0.15863(13)
H19A H -0.6180(18) 0.2526(15) -0.1328(14)
C17A C -0.59998(17) 0.23842(14) -0.24375(13)
H20A H -0.6633(19) 0.1898(15) -0.2712(14)
C18A C -0.53179(16) 0.27592(14) -0.28315(13)
H21A H -0.5470(18) 0.2521(15) -0.3394(15)
C19A C -0.43820(15) 0.34938(13) -0.23546(12)
C20A C -0.35837(16) 0.38952(14) -0.27471(12)
N8A N -0.27740(13) 0.46549(12) -0.22556(11)
H22A H -0.278(2) 0.4904(17) -0.1781(16)
C21A C -0.18665(16) 0.51077(14) -0.24728(13)
H23A H -0.1149(18) 0.5204(15) -0.1979(14)
H24A H -0.1854(18) 0.4699(15) -0.2956(14)
C22A C -0.19620(16) 0.60493(14) -0.26739(13)
H25A H -0.2286(18) 0.6355(15) -0.2315(14)
H26A H -0.2470(16) 0.5948(13) -0.3252(13)
C23A C -0.10321(17) 0.73814(14) -0.30880(12)
H27A H -0.1654(18) 0.7633(15) -0.3074(14)
H28A H -0.0304(19) 0.7911(16) -0.2881(14)
C24A C -0.12604(17) 0.69957(15) -0.40049(13)
H29A H -0.1550(18) 0.7465(15) -0.4327(14)
H30A H -0.1850(17) 0.6382(15) -0.4207(13)
N9A N -0.02830(15) 0.68791(13) -0.41441(11)
H31A H -0.005(2) 0.6388(18) -0.4027(16)
C25A C 0.02599(17) 0.74733(14) -0.44740(12)
C26A C 0.11481(16) 0.71640(13) -0.46866(11)
N10A N 0.13446(13) 0.63840(11) -0.44683(9)
C27A C 0.16859(17) 0.76661(15) -0.51148(13)
H32A H 0.1497(18) 0.8217(16) -0.5256(14)
C28A C 0.24519(18) 0.73287(16) -0.53422(14)
H33A H 0.279(2) 0.7611(18) -0.5649(17)
C29A C 0.26622(17) 0.65274(16) -0.51220(13)
H34A H 0.3151(19) 0.6291(16) -0.5261(14)
C30A C 0.20986(16) 0.60800(13) -0.46807(11)
C31A C 0.23249(16) 0.52073(13) -0.44173(11)
N11A N 0.17002(15) 0.48081(12) -0.40324(10)
H35A H 0.122(2) 0.5065(17) -0.3943(16)
C32A C 0.18462(19) 0.39820(14) -0.37109(12)
H36A H 0.1141(18) 0.3537(15) -0.3891(13)
H37A H 0.230(2) 0.3709(17) -0.3956(15)
C33A C -0.24170(17) 0.57897(14) 0.27532(12)
H38A H -0.2767(17) 0.6282(14) 0.2593(13)
H39A H -0.2981(18) 0.5208(15) 0.2588(13)
O7 O 0.10564(11) 0.29784(9) -0.02950(8)
O8 O 0.24098(11) 0.41321(9) 0.07000(8)
C34 C 0.14452(15) 0.37991(12) 0.01729(11)
C35 C 0.06925(15) 0.44212(12) 0.00802(11)
C36 C -0.04468(15) 0.40324(13) -0.02689(11)
H40 H -0.0745(16) 0.3395(14) -0.0445(12)
C37 C -0.11315(15) 0.46068(13) -0.03474(11)
H41 H -0.1884(17) 0.4347(13) -0.0567(12)
O7A O -0.10564(11) 0.70216(9) 0.02950(8)
O8A O -0.24098(11) 0.58679(9) -0.07000(8)
C34A C -0.14452(15) 0.62009(12) -0.01729(11)
C35A C -0.06925(15) 0.55788(12) -0.00802(11)
C36A C 0.04468(15) 0.59676(13) 0.02689(11)
H40A H 0.0745(16) 0.6605(14) 0.0445(12)
C37A C 0.11315(15) 0.53932(13) 0.03474(11)
H41A H 0.1884(17) 0.5653(13) 0.0567(12)
N12 N 0.62894(13) 0.11679(11) 0.20165(10)
C38 C 0.53920(17) 0.04271(14) 0.21106(13)
H42 H 0.4711(19) 0.0510(15) 0.1738(14)
H43 H 0.5437(17) -0.0154(15) 0.1845(13)
C39 C 0.5446(2) 0.04435(17) 0.30000(15)
H44 H 0.521(2) 0.0969(17) 0.3188(15)
H45 H 0.619(2) 0.0511(18) 0.3367(17)
C40 C 0.4712(2) -0.0476(2) 0.30150(19)
H46 H 0.498(2) -0.0988(19) 0.2827(17)
H47 H 0.399(2) -0.0599(17) 0.2595(16)
C41 C 0.4674(3) -0.0496(3) 0.3877(3)
H48 H 0.415(3) -0.113(3) 0.384(2)
H49 H 0.439(3) -0.002(2) 0.402(2)
H50 H 0.538(3) -0.041(2) 0.427(2)
C42 C 0.63421(17) 0.21420(14) 0.24348(13)
H51 H 0.7001(19) 0.2561(16) 0.2429(14)
H52 H 0.6459(18) 0.2130(15) 0.3013(15)
C43 C 0.53462(18) 0.24747(15) 0.20443(14)
H53 H 0.467(2) 0.2005(18) 0.1962(16)
H54 H 0.5304(19) 0.2583(16) 0.1505(16)
C44 C 0.5458(2) 0.33835(16) 0.26207(15)
H55 H 0.540(2) 0.325(2) 0.3153(19)
H56 H 0.620(2) 0.3801(17) 0.2786(15)
C45 C 0.4604(3) 0.3861(2) 0.2227(2)
H57 H 0.467(2) 0.442(2) 0.263(2)
H58 H 0.390(3) 0.344(2) 0.211(2)
H59 H 0.466(3) 0.402(3) 0.167(3)
C46 C 0.60036(15) 0.10543(13) 0.10747(12)
H60 H 0.6002(16) 0.0430(14) 0.0861(12)
H61 H 0.5287(17) 0.1122(13) 0.0848(12)
C47 C 0.67826(17) 0.17304(14) 0.08193(13)
H62 H 0.753(2) 0.1629(17) 0.1014(16)
H63 H 0.6865(18) 0.2387(16) 0.1070(14)
C48 C 0.63298(18) 0.15797(15) -0.01374(13)
H64 H 0.6230(19) 0.0942(17) -0.0372(15)
H65 H 0.562(2) 0.1670(16) -0.0326(15)
C49 C 0.7079(2) 0.22302(18) -0.04365(17)
H66 H 0.676(3) 0.212(2) -0.105(2)
H67 H 0.781(2) 0.2108(18) -0.0278(17)
H68 H 0.719(2) 0.2877(19) -0.0192(17)
C50 C 0.74167(16) 0.10322(14) 0.24467(13)
H69 H 0.7943(19) 0.1513(16) 0.2330(14)
H70 H 0.7589(18) 0.1204(15) 0.3056(15)
C51 C 0.75079(17) 0.00600(14) 0.21992(14)
H71 H 0.7176(19) -0.0174(16) 0.1604(16)
H72 H 0.7115(19) -0.0362(17) 0.2438(15)
C52 C 0.87143(17) 0.00758(15) 0.25140(14)
H73 H 0.908(2) 0.0470(17) 0.2211(16)
H74 H 0.9043(19) 0.0372(16) 0.3106(16)
C53 C 0.8848(2) -0.09007(17) 0.23845(17)
H75 H 0.960(2) -0.0887(18) 0.2573(17)
H76 H 0.848(2) -0.1239(19) 0.1812(18)
H77 H 0.854(2) -0.126(2) 0.2721(19)
O9 O -0.02826(18) 0.45657(16) 0.31802(13)
H78 H -0.003(3) 0.423(2) 0.294(2)
H79 H -0.055(2) 0.491(2) 0.2916(18)
O10 O 0.29534(15) 0.24015(11) -0.02234(12)
H80 H 0.246(3) 0.263(2) -0.017(2)
H81 H 0.353(2) 0.286(2) 0.0057(18)
O11 O -0.33670(13) -0.07172(12) 0.00260(10)
H82 H -0.274(2) -0.0322(19) 0.0191(17)
H83 H -0.325(2) -0.128(2) 0.0074(19)
N13 N -0.3789(3) 0.7945(2) -0.3941(2)
C54 C -0.4123(2) 0.7202(2) -0.43204(17)
C55 C -0.4558(2) 0.6237(2) -0.48031(18)
H84 H -0.502(2) 0.6223(19) -0.5337(19)
H85 H -0.397(3) 0.599(2) -0.484(2)
H86 H -0.501(4) 0.578(3) -0.453(3)
N14 N 0.7528(2) -0.05407(19) 0.40427(15)
C56 C 0.8179(2) -0.03112(17) 0.46957(15)
C57 C 0.9061(2) 0.0026(2) 0.55283(16)
H87 H 0.870(3) 0.022(2) 0.591(2)
H88 H 0.927(3) -0.052(3) 0.568(2)
H89 H 0.974(3) 0.059(2) 0.551(2)
loop_
_geom_bond_atom_site_label_1
_geom_bond_atom_site_label_2
_geom_bond_site_symmetry_1
_geom_bond_site_symmetry_2
O1 C3 1_555 1_555
O2 C9 1_555 1_555
O3 C14 1_555 1_555
O4 C20 1_555 1_555
O5 C25 1_555 1_555
O6 C31 1_555 1_555
N1 C1 1_555 1_555
C1 H1 1_555 1_555
H2 C1 1_555 1_555
C2 C1 1_555 1_555
H3 C2 1_555 1_555
H4 C2 1_555 1_555
N2 C2 1_555 1_555
H5 N2 1_555 1_555
C3 N2 1_555 1_555
C4 C3 1_555 1_555
N3 C4 1_555 1_555
C5 C4 1_555 1_555
H6 C5 1_555 1_555
C6 C5 1_555 1_555
H7 C6 1_555 1_555
C7 C6 1_555 1_555
H8 C7 1_555 1_555
C8 N3 1_555 1_555
C9 C8 1_555 1_555
N4 C9 1_555 1_555
H9 N4 1_555 1_555
C10 N4 1_555 1_555
H10 C10 1_555 1_555
H11 C10 1_555 1_555
C11 C10 1_555 1_555
H12 C11 1_555 1_555
H13 C11 1_555 1_555
N5 C11 1_555 1_555
C12 N5 1_555 1_555
H14 C12 1_555 1_555
H15 C12 1_555 1_555
C13 C12 1_555 1_555
H16 C13 1_555 1_555
H17 C13 1_555 1_555
N6 C13 1_555 1_555
H18 N6 1_555 1_555
C14 N6 1_555 1_555
C15 C14 1_555 1_555
N7 C15 1_555 1_555
C16 C15 1_555 1_555
H19 C16 1_555 1_555
C17 C16 1_555 1_555
H20 C17 1_555 1_555
C18 C17 1_555 1_555
H21 C18 1_555 1_555
C19 N7 1_555 1_555
C20 C19 1_555 1_555
N8 C20 1_555 1_555
H22 N8 1_555 1_555
C21 N8 1_555 1_555
H23 C21 1_555 1_555
H24 C21 1_555 1_555
C22 N1 1_555 1_555
H25 C22 1_555 1_555
H26 C22 1_555 1_555
C23 N1 1_555 1_555
H27 C23 1_555 1_555
H28 C23 1_555 1_555
C24 C23 1_555 1_555
H29 C24 1_555 1_555
H30 C24 1_555 1_555
N9 C24 1_555 1_555
H31 N9 1_555 1_555
C25 N9 1_555 1_555
C26 C25 1_555 1_555
N10 C26 1_555 1_555
C27 C26 1_555 1_555
H32 C27 1_555 1_555
C28 C27 1_555 1_555
H33 C28 1_555 1_555
C29 C28 1_555 1_555
H34 C29 1_555 1_555
C30 N10 1_555 1_555
C31 C30 1_555 1_555
N11 C31 1_555 1_555
H35 N11 1_555 1_555
C32 N11 1_555 1_555
H36 C32 1_555 1_555
H37 C32 1_555 1_555
C33 N5 1_555 1_555
H38 C33 1_555 1_555
H39 C33 1_555 1_555
O7 C34 1_555 1_555
O8 C34 1_555 1_555
C34 C35 1_555 1_555
C35 C36 1_555 1_555
C36 H40 1_555 1_555
C37 C36 1_555 1_555
H41 C37 1_555 1_555
N12 C38 1_555 1_555
C38 H42 1_555 1_555
H43 C38 1_555 1_555
C39 C38 1_555 1_555
H44 C39 1_555 1_555
H45 C39 1_555 1_555
C40 C39 1_555 1_555
H46 C40 1_555 1_555
H47 C40 1_555 1_555
C41 C40 1_555 1_555
H48 C41 1_555 1_555
H49 C41 1_555 1_555
H50 C41 1_555 1_555
C42 N12 1_555 1_555
H51 C42 1_555 1_555
H52 C42 1_555 1_555
C43 C42 1_555 1_555
H53 C43 1_555 1_555
H54 C43 1_555 1_555
C44 C43 1_555 1_555
H55 C44 1_555 1_555
H56 C44 1_555 1_555
C45 C44 1_555 1_555
H57 C45 1_555 1_555
H58 C45 1_555 1_555
H59 C45 1_555 1_555
C46 N12 1_555 1_555
H60 C46 1_555 1_555
H61 C46 1_555 1_555
C47 C46 1_555 1_555
H62 C47 1_555 1_555
H63 C47 1_555 1_555
C48 C47 1_555 1_555
H64 C48 1_555 1_555
H65 C48 1_555 1_555
C49 C48 1_555 1_555
H66 C49 1_555 1_555
H67 C49 1_555 1_555
H68 C49 1_555 1_555
C50 N12 1_555 1_555
H69 C50 1_555 1_555
H70 C50 1_555 1_555
C51 C50 1_555 1_555
H71 C51 1_555 1_555
H72 C51 1_555 1_555
C52 C51 1_555 1_555
H73 C52 1_555 1_555
H74 C52 1_555 1_555
C53 C52 1_555 1_555
H75 C53 1_555 1_555
H76 C53 1_555 1_555
H77 C53 1_555 1_555
O9 H78 1_555 1_555
H79 O9 1_555 1_555
O10 H80 1_555 1_555
H81 O10 1_555 1_555
O11 H82 1_555 1_555
H83 O11 1_555 1_555
N13 C54 1_555 1_555
C54 C55 1_555 1_555
C55 H84 1_555 1_555
H85 C55 1_555 1_555
H86 C55 1_555 1_555
N14 C56 1_555 1_555
C56 C57 1_555 1_555
C57 H87 1_555 1_555
H88 C57 1_555 1_555
H89 C57 1_555 1_555
O1A C3A 1_555 1_555
O2A C9A 1_555 1_555
O3A C14A 1_555 1_555
O4A C20A 1_555 1_555
O5A C25A 1_555 1_555
O6A C31A 1_555 1_555
N1A C1A 1_555 1_555
C1A H1A 1_555 1_555
H2A C1A 1_555 1_555
C2A C1A 1_555 1_555
H3A C2A 1_555 1_555
H4A C2A 1_555 1_555
N2A C2A 1_555 1_555
H5A N2A 1_555 1_555
C3A N2A 1_555 1_555
C4A C3A 1_555 1_555
N3A C4A 1_555 1_555
C5A C4A 1_555 1_555
H6A C5A 1_555 1_555
C6A C5A 1_555 1_555
H7A C6A 1_555 1_555
C7A C6A 1_555 1_555
H8A C7A 1_555 1_555
C8A N3A 1_555 1_555
C9A C8A 1_555 1_555
N4A C9A 1_555 1_555
H9A N4A 1_555 1_555
C10A N4A 1_555 1_555
H10A C10A 1_555 1_555
H11A C10A 1_555 1_555
C11A C10A 1_555 1_555
H12A C11A 1_555 1_555
H13A C11A 1_555 1_555
N5A C11A 1_555 1_555
C12A N5A 1_555 1_555
H14A C12A 1_555 1_555
H15A C12A 1_555 1_555
C13A C12A 1_555 1_555
H16A C13A 1_555 1_555
H17A C13A 1_555 1_555
N6A C13A 1_555 1_555
H18A N6A 1_555 1_555
C14A N6A 1_555 1_555
C15A C14A 1_555 1_555
N7A C15A 1_555 1_555
C16A C15A 1_555 1_555
H19A C16A 1_555 1_555
C17A C16A 1_555 1_555
H20A C17A 1_555 1_555
C18A C17A 1_555 1_555
H21A C18A 1_555 1_555
C19A N7A 1_555 1_555
C20A C19A 1_555 1_555
N8A C20A 1_555 1_555
H22A N8A 1_555 1_555
C21A N8A 1_555 1_555
H23A C21A 1_555 1_555
H24A C21A 1_555 1_555
C22A N1A 1_555 1_555
H25A C22A 1_555 1_555
H26A C22A 1_555 1_555
C23A N1A 1_555 1_555
H27A C23A 1_555 1_555
H28A C23A 1_555 1_555
C24A C23A 1_555 1_555
H29A C24A 1_555 1_555
H30A C24A 1_555 1_555
N9A C24A 1_555 1_555
H31A N9A 1_555 1_555
C25A N9A 1_555 1_555
C26A C25A 1_555 1_555
N10A C26A 1_555 1_555
C27A C26A 1_555 1_555
H32A C27A 1_555 1_555
C28A C27A 1_555 1_555
H33A C28A 1_555 1_555
C29A C28A 1_555 1_555
H34A C29A 1_555 1_555
C30A N10A 1_555 1_555
C31A C30A 1_555 1_555
N11A C31A 1_555 1_555
H35A N11A 1_555 1_555
C32A C33 1_555 1_555
H36A C32A 1_555 1_555
H37A C32A 1_555 1_555
C33A C32 1_555 1_555
H38A C33A 1_555 1_555
H39A C33A 1_555 1_555
O7A C34A 1_555 1_555
O8A C34A 1_555 1_555
C34A C35A 1_555 1_555
C35A C37 1_555 1_555
C36A C35A 1_555 1_555
H40A C36A 1_555 1_555
C37A C35 1_555 1_555
H41A C37A 1_555 1_555
C7 C8 1_555 1_555
C18 C19 1_555 1_555
C21 C22 1_555 1_555
C29 C30 1_555 1_555
C7A C8A 1_555 1_555
N5A C33A 1_555 1_555
C18A C19A 1_555 1_555
C21A C22A 1_555 1_555
C29A C30A 1_555 1_555
N11A C32A 1_555 1_555
C36A C37A 1_555 1_555

#END
