
#######################################################################
#
#                 Cambridge Crystallographic Data Centre
#                                CCDC 
#
#######################################################################
#
# If this CIF has been generated from an entry in the Cambridge 
# Structural Database, then it will include bibliographic, chemical, 
# crystal, experimental, refinement or atomic coordinate data resulting 
# from the CCDC's data processing and validation procedures.
#
#######################################################################

data_UWOHEU
_chemical_formula_moiety         'C16 H15 Br1 O1'
_chemical_name_systematic        3-Bromo-2-methyl-1,2-diphenylpropan-1-one
_symmetry_cell_setting           monoclinic
_symmetry_space_group_name_H-M   'P 21'
_symmetry_Int_Tables_number      4
_space_group_name_Hall           'P 2yb'
loop_
_symmetry_equiv_pos_site_id
_symmetry_equiv_pos_as_xyz
1 x,y,z
2 -x,1/2+y,-z
_cell_length_a                   12.363(5)
_cell_length_b                   6.388(3)
_cell_length_c                   17.867(8)
_cell_angle_alpha                90
_cell_angle_beta                 98.728(4)
_cell_angle_gamma                90
_cell_volume                     1394.7
_exptl_crystal_colour            colorless
_exptl_crystal_description       stick
_cell_formula_units_Z            4
loop_
_atom_site_label
_atom_site_type_symbol
_atom_site_fract_x
_atom_site_fract_y
_atom_site_fract_z
Br1 Br 0.96605(5) 0.66407(11) 0.78448(3)
C1 C 0.4671(5) 0.9116(9) 0.8629(3)
H1 H 0.4717 1.0388 0.8382
C2 C 0.3724(5) 0.8606(10) 0.8917(3)
H2 H 0.3153 0.9563 0.8889
C3 C 0.3635(5) 0.6684(13) 0.9245(3)
H3 H 0.2983 0.6303 0.9408
C4 C 0.4499(5) 0.5324(10) 0.9332(3)
H4 H 0.4447 0.4051 0.9577
C5 C 0.5455(4) 0.5850(8) 0.9054(3)
H5 H 0.6036 0.4909 0.9105
C6 C 0.5551(4) 0.7740(8) 0.8705(3)
C7 C 0.6550(4) 0.8463(7) 0.8390(3)
C8 C 0.7516(4) 0.6936(7) 0.8329(3)
C9 C 0.8030(3) 0.6359(8) 0.9132(3)
C10 C 0.8167(4) 0.7877(9) 0.9687(3)
H6 H 0.7930 0.9234 0.9566
C11 C 0.8647(5) 0.7433(10) 1.0416(3)
H7 H 0.8752 0.8499 1.0774
C12 C 0.8971(5) 0.5441(12) 1.0618(4)
H8 H 0.9261 0.5128 1.1116
C13 C 0.8860(4) 0.3899(9) 1.0069(4)
H9 H 0.9105 0.2549 1.0195
C14 C 0.8383(4) 0.4353(8) 0.9325(3)
H10 H 0.8303 0.3302 0.8960
C15 C 0.8340(4) 0.8263(9) 0.7957(3)
H11 H 0.8547 0.9489 0.8266
H12 H 0.7992 0.8737 0.7463
C16 C 0.7091(4) 0.5132(8) 0.7804(3)
H13 H 0.7698 0.4332 0.7682
H14 H 0.6680 0.5683 0.7348
H15 H 0.6629 0.4248 0.8053
O1 O 0.6608(3) 1.0248(6) 0.8190(2)
Br2 Br 0.77857(5) -0.19424(9) 0.23792(3)
C17 C 0.8957(5) -0.0524(10) 0.5289(4)
H16 H 0.9138 -0.1854 0.5137
C18 C 0.9504(5) 0.0326(13) 0.5959(4)
H17 H 1.0043 -0.0452 0.6256
C19 C 0.9260(6) 0.2279(12) 0.6184(4)
H18 H 0.9633 0.2835 0.6631
C20 C 0.8465(5) 0.3423(11) 0.5753(4)
H19 H 0.8290 0.4754 0.5909
C21 C 0.7918(4) 0.2598(8) 0.5083(3)
H20 H 0.7391 0.3401 0.4785
C22 C 0.8143(4) 0.0611(8) 0.4851(3)
C23 C 0.7537(4) -0.0442(8) 0.4171(3)
C24 C 0.6983(4) 0.0841(7) 0.3484(3)
C25 C 0.5914(4) 0.1799(9) 0.3692(3)
C26 C 0.5267(5) 0.0654(10) 0.4111(3)
H21 H 0.5484 -0.0673 0.4288
C27 C 0.4277(5) 0.1520(18) 0.4265(4)
H22 H 0.3836 0.0766 0.4546
C28 C 0.3968(6) 0.3443(16) 0.4004(5)
H23 H 0.3316 0.4009 0.4112
C29 C 0.4602(6) 0.4578(12) 0.3582(4)
H24 H 0.4377 0.5894 0.3398
C30 C 0.5571(5) 0.3746(9) 0.3437(3)
H25 H 0.6006 0.4522 0.3158
C31 C 0.6592(4) -0.0615(8) 0.2825(3)
H26 H 0.6135 0.0174 0.2434
H27 H 0.6142 -0.1704 0.2999
C32 C 0.7773(4) 0.2476(7) 0.3267(3)
H28 H 0.8462 0.1826 0.3227
H29 H 0.7879 0.3549 0.3647
H30 H 0.7477 0.3086 0.2788
O2 O 0.7469(3) -0.2352(6) 0.4158(2)
loop_
_geom_bond_atom_site_label_1
_geom_bond_atom_site_label_2
_geom_bond_site_symmetry_1
_geom_bond_site_symmetry_2
Br1 C15 1_555 1_555
Br2 C31 1_555 1_555
C1 H1 1_555 1_555
C2 C1 1_555 1_555
H2 C2 1_555 1_555
C3 C2 1_555 1_555
H3 C3 1_555 1_555
C4 C3 1_555 1_555
H4 C4 1_555 1_555
C5 C4 1_555 1_555
H5 C5 1_555 1_555
C6 C1 1_555 1_555
C7 C6 1_555 1_555
C8 C7 1_555 1_555
C9 C8 1_555 1_555
C10 C9 1_555 1_555
H6 C10 1_555 1_555
C11 C10 1_555 1_555
H7 C11 1_555 1_555
C12 C11 1_555 1_555
H8 C12 1_555 1_555
C13 C12 1_555 1_555
H9 C13 1_555 1_555
C14 C9 1_555 1_555
H10 C14 1_555 1_555
C15 C8 1_555 1_555
H11 C15 1_555 1_555
H12 C15 1_555 1_555
C16 C8 1_555 1_555
H13 C16 1_555 1_555
H14 C16 1_555 1_555
H15 C16 1_555 1_555
C17 H16 1_555 1_555
C18 C17 1_555 1_555
H17 C18 1_555 1_555
C19 C18 1_555 1_555
H18 C19 1_555 1_555
C20 C19 1_555 1_555
H19 C20 1_555 1_555
C21 C20 1_555 1_555
H20 C21 1_555 1_555
C22 C17 1_555 1_555
C23 C22 1_555 1_555
C24 C23 1_555 1_555
C25 C24 1_555 1_555
C26 C25 1_555 1_555
H21 C26 1_555 1_555
C27 C26 1_555 1_555
H22 C27 1_555 1_555
C28 C27 1_555 1_555
H23 C28 1_555 1_555
C29 C28 1_555 1_555
H24 C29 1_555 1_555
C30 C25 1_555 1_555
H25 C30 1_555 1_555
C31 C24 1_555 1_555
H26 C31 1_555 1_555
H27 C31 1_555 1_555
C32 C24 1_555 1_555
H28 C32 1_555 1_555
H29 C32 1_555 1_555
H30 C32 1_555 1_555
O1 C7 1_555 1_555
O2 C23 1_555 1_555
C5 C6 1_555 1_555
C13 C14 1_555 1_555
C21 C22 1_555 1_555
C29 C30 1_555 1_555

#END
