
#######################################################################
#
#                 Cambridge Crystallographic Data Centre
#                                CCDC 
#
#######################################################################
#
# If this CIF has been generated from an entry in the Cambridge 
# Structural Database, then it will include bibliographic, chemical, 
# crystal, experimental, refinement or atomic coordinate data resulting 
# from the CCDC's data processing and validation procedures.
#
#######################################################################

data_UWOJIB
_chemical_formula_moiety         'C22 H23 N3 O2 S1'
_chemical_name_systematic        
5-(biphenyl-4-ylmethylene)-2-(4-(2-hydroxyethyl)piperazin-1-yl)-1,3-thiazol-4(5H)-one
_symmetry_cell_setting           monoclinic
_symmetry_space_group_name_H-M   'P 21/c'
_symmetry_Int_Tables_number      14
_space_group_name_Hall           '-P 2ybc'
loop_
_symmetry_equiv_pos_site_id
_symmetry_equiv_pos_as_xyz
1 x,y,z
2 -x,1/2+y,1/2-z
3 -x,-y,-z
4 x,1/2-y,1/2+z
_cell_length_a                   17.407(13)
_cell_length_b                   10.056(8)
_cell_length_c                   11.787(9)
_cell_angle_alpha                90
_cell_angle_beta                 104.565(12)
_cell_angle_gamma                90
_cell_volume                     1996.95
_exptl_crystal_colour            yellow
_exptl_crystal_description       block
_cell_formula_units_Z            4
loop_
_atom_site_label
_atom_site_type_symbol
_atom_site_fract_x
_atom_site_fract_y
_atom_site_fract_z
S1 S 0.26763(4) 0.27169(8) 0.07251(7)
N1 N 0.32720(14) 0.1580(3) -0.0886(2)
N2 N 0.36015(15) 0.3798(3) -0.0524(2)
N3 N 0.41247(14) 0.6246(3) -0.1260(2)
O1 O 0.27478(16) -0.0511(2) -0.0949(3)
O2 O 0.44046(18) 0.9830(3) -0.1809(3)
H1 H 0.3848 1.0032 -0.2045
C1 C -0.10772(19) 0.1169(3) 0.3102(3)
H2 H -0.1260 0.0957 0.2312
C2 C -0.1616(2) 0.1343(4) 0.3772(4)
H3 H -0.2156 0.1244 0.3432
C3 C -0.1357(2) 0.1661(3) 0.4935(4)
H4 H -0.1720 0.1781 0.5385
C4 C -0.0555(2) 0.1802(3) 0.5438(3)
H5 H -0.0377 0.2009 0.6229
C5 C -0.00208(19) 0.1637(3) 0.4771(3)
H6 H 0.0518 0.1749 0.5118
C6 C -0.02650(18) 0.1307(2) 0.3588(3)
C7 C 0.03065(17) 0.1071(2) 0.2881(2)
C8 C 0.0172(2) 0.0080(3) 0.2032(3)
H7 H -0.0283 -0.0438 0.1922
C9 C 0.0686(2) -0.0154(3) 0.1357(3)
H8 H 0.0582 -0.0842 0.0813
C10 C 0.13654(17) 0.0616(3) 0.1464(3)
C11 C 0.15105(17) 0.1605(3) 0.2320(3)
H9 H 0.1961 0.2134 0.2419
C12 C 0.09978(16) 0.1810(3) 0.3018(3)
H10 H 0.1117 0.2460 0.3598
C13 C 0.18639(19) 0.0337(3) 0.0667(3)
H11 H 0.1798 -0.0509 0.0338
C14 C 0.23965(17) 0.1084(3) 0.0330(3)
C15 C 0.28110(18) 0.0625(3) -0.0558(3)
C16 C 0.32383(16) 0.2697(3) -0.0328(3)
C17 C 0.41279(18) 0.3815(4) -0.1316(3)
H12 H 0.4013 0.3057 -0.1840
H13 H 0.4675 0.3749 -0.0864
C18 C 0.4013(2) 0.5083(4) -0.2019(3)
H14 H 0.4389 0.5111 -0.2502
H15 H 0.3482 0.5098 -0.2535
C19 C 0.3528(2) 0.6216(4) -0.0583(3)
H16 H 0.3002 0.6218 -0.1114
H17 H 0.3578 0.7006 -0.0098
C20 C 0.3623(2) 0.5006(3) 0.0177(3)
H18 H 0.4125 0.5053 0.0765
H19 H 0.3201 0.4976 0.0578
C21 C 0.4091(2) 0.7491(4) -0.1917(4)
H20 H 0.3539 0.7736 -0.2235
H21 H 0.4327 0.7350 -0.2570
C22 C 0.4511(2) 0.8609(4) -0.1182(4)
H22 H 0.4311 0.8698 -0.0489
H23 H 0.5073 0.8407 -0.0929
loop_
_geom_bond_atom_site_label_1
_geom_bond_atom_site_label_2
_geom_bond_site_symmetry_1
_geom_bond_site_symmetry_2
S1 C14 1_555 1_555
N1 C15 1_555 1_555
N2 C16 1_555 1_555
N3 C18 1_555 1_555
O1 C15 1_555 1_555
O2 H1 1_555 1_555
C1 H2 1_555 1_555
C2 C1 1_555 1_555
H3 C2 1_555 1_555
C3 C2 1_555 1_555
H4 C3 1_555 1_555
C4 C3 1_555 1_555
H5 C4 1_555 1_555
C5 C4 1_555 1_555
H6 C5 1_555 1_555
C6 C1 1_555 1_555
C7 C6 1_555 1_555
C8 C7 1_555 1_555
H7 C8 1_555 1_555
C9 C8 1_555 1_555
H8 C9 1_555 1_555
C10 C9 1_555 1_555
C11 C10 1_555 1_555
H9 C11 1_555 1_555
C12 C7 1_555 1_555
H10 C12 1_555 1_555
C13 C10 1_555 1_555
H11 C13 1_555 1_555
C14 C13 1_555 1_555
C15 C14 1_555 1_555
C16 S1 1_555 1_555
C17 N2 1_555 1_555
H12 C17 1_555 1_555
H13 C17 1_555 1_555
C18 C17 1_555 1_555
H14 C18 1_555 1_555
H15 C18 1_555 1_555
C19 N3 1_555 1_555
H16 C19 1_555 1_555
H17 C19 1_555 1_555
C20 N2 1_555 1_555
H18 C20 1_555 1_555
H19 C20 1_555 1_555
C21 N3 1_555 1_555
H20 C21 1_555 1_555
H21 C21 1_555 1_555
C22 O2 1_555 1_555
H22 C22 1_555 1_555
H23 C22 1_555 1_555
N1 C16 1_555 1_555
C5 C6 1_555 1_555
C11 C12 1_555 1_555
C19 C20 1_555 1_555
C21 C22 1_555 1_555

#END
