
#######################################################################
#
#                 Cambridge Crystallographic Data Centre
#                                CCDC 
#
#######################################################################
#
# If this CIF has been generated from an entry in the Cambridge 
# Structural Database, then it will include bibliographic, chemical, 
# crystal, experimental, refinement or atomic coordinate data resulting 
# from the CCDC's data processing and validation procedures.
#
#######################################################################

data_UWOKUN
_chemical_formula_moiety         'C22 H16 Cl2'
_chemical_name_systematic        (Z,Z)-1,4-bis(2-chloro-2-phenylvinyl)benzene
_symmetry_cell_setting           orthorhombic
_symmetry_space_group_name_H-M   'P 21 21 21'
_symmetry_Int_Tables_number      19
_space_group_name_Hall           'P 2ac 2ab'
loop_
_symmetry_equiv_pos_site_id
_symmetry_equiv_pos_as_xyz
1 x,y,z
2 1/2-x,-y,1/2+z
3 1/2+x,1/2-y,-z
4 -x,1/2+y,1/2-z
_cell_length_a                   6.24573(8)
_cell_length_b                   7.28740(10)
_cell_length_c                   37.2516(5)
_cell_angle_alpha                90
_cell_angle_beta                 90
_cell_angle_gamma                90
_cell_volume                     1695.51
_exptl_crystal_description       plate
_cell_formula_units_Z            4
loop_
_atom_site_label
_atom_site_type_symbol
_atom_site_fract_x
_atom_site_fract_y
_atom_site_fract_z
Cl1 Cl 0.88127(5) 0.50421(6) 0.583266(9)
Cl2 Cl 0.87829(5) 0.51508(7) 0.400224(10)
C1 C 0.6078(2) 0.52317(19) 0.38865(4)
C2 C 0.4690(2) 0.5060(2) 0.45308(4)
C3 C 0.4712(2) 0.48661(19) 0.52913(4)
C4 C 0.4606(2) 0.4682(2) 0.56824(4)
H1 H 0.3203 0.4465 0.5771
C5 C 0.4561(2) 0.51158(19) 0.41392(4)
H2 H 0.3143 0.5059 0.4047
C6 C 0.5669(2) 0.45895(19) 0.63279(4)
C7 C 0.3060(2) 0.40738(19) 0.50892(4)
H3 H 0.1926 0.3458 0.5209
C8 C 0.4752(3) 0.5729(2) 0.27638(4)
H4 H 0.4449 0.5843 0.2515
C9 C 0.6108(2) 0.47589(18) 0.59393(4)
C10 C 0.3335(3) 0.5170(2) 0.68330(4)
H5 H 0.2044 0.5669 0.6926
C11 C 0.3773(2) 0.5306(2) 0.64697(4)
H6 H 0.2775 0.5892 0.6315
C12 C 0.6594(3) 0.4867(2) 0.28771(4)
H7 H 0.7556 0.4376 0.2704
C13 C 0.3052(2) 0.4172(2) 0.47199(4)
H8 H 0.1907 0.3625 0.4590
C14 C 0.7108(3) 0.3731(2) 0.65603(4)
H9 H 0.8411 0.3245 0.6469
C15 C 0.6301(2) 0.58311(19) 0.51027(4)
H10 H 0.7402 0.6438 0.5232
C16 C 0.4772(3) 0.4309(2) 0.70618(4)
H11 H 0.4472 0.4219 0.7311
C17 C 0.6646(3) 0.3583(2) 0.69240(4)
H12 H 0.7625 0.2978 0.7079
C18 C 0.6294(2) 0.5914(2) 0.47343(4)
H13 H 0.7402 0.6566 0.4615
C19 C 0.3340(3) 0.6431(2) 0.30174(4)
H14 H 0.2061 0.7019 0.2941
C20 C 0.5652(2) 0.53995(19) 0.34971(4)
C21 C 0.3785(3) 0.6278(2) 0.33804(4)
H15 H 0.2816 0.6773 0.3551
C22 C 0.7067(2) 0.4706(2) 0.32410(4)
H16 H 0.8354 0.4124 0.3315
loop_
_geom_bond_atom_site_label_1
_geom_bond_atom_site_label_2
_geom_bond_site_symmetry_1
_geom_bond_site_symmetry_2
Cl1 C9 1_555 1_555
Cl2 C1 1_555 1_555
C1 C5 1_555 1_555
C2 C5 1_555 1_555
C3 C4 1_555 1_555
C4 H1 1_555 1_555
C5 H2 1_555 1_555
C6 C9 1_555 1_555
C7 C3 1_555 1_555
H3 C7 1_555 1_555
C8 H4 1_555 1_555
C9 C4 1_555 1_555
C10 H5 1_555 1_555
C11 C6 1_555 1_555
H6 C11 1_555 1_555
C12 C8 1_555 1_555
H7 C12 1_555 1_555
C13 C2 1_555 1_555
H8 C13 1_555 1_555
C14 C6 1_555 1_555
H9 C14 1_555 1_555
C15 C3 1_555 1_555
H10 C15 1_555 1_555
C16 C10 1_555 1_555
H11 C16 1_555 1_555
C17 C14 1_555 1_555
H12 C17 1_555 1_555
C18 C2 1_555 1_555
H13 C18 1_555 1_555
C19 C8 1_555 1_555
H14 C19 1_555 1_555
C20 C1 1_555 1_555
C21 C19 1_555 1_555
H15 C21 1_555 1_555
C22 C12 1_555 1_555
H16 C22 1_555 1_555
C7 C13 1_555 1_555
C10 C11 1_555 1_555
C15 C18 1_555 1_555
C16 C17 1_555 1_555
C20 C21 1_555 1_555
C20 C22 1_555 1_555

#END
