
#######################################################################
#
#                 Cambridge Crystallographic Data Centre
#                                CCDC 
#
#######################################################################
#
# If this CIF has been generated from an entry in the Cambridge 
# Structural Database, then it will include bibliographic, chemical, 
# crystal, experimental, refinement or atomic coordinate data resulting 
# from the CCDC's data processing and validation procedures.
#
#######################################################################

data_UWOLAU
_chemical_formula_moiety         'C30 H21 Cl3'
_chemical_name_systematic        
(Z,Z,Z)-1,3,5-tris(2-chloro-2-phenylvinyl)benzene
_symmetry_cell_setting           rhombohedral
_symmetry_space_group_name_H-M   'R 3 c'
_symmetry_Int_Tables_number      161
_space_group_name_Hall           'R 3 -2"c'
loop_
_symmetry_equiv_pos_site_id
_symmetry_equiv_pos_as_xyz
1 x,y,z
2 -y,x-y,z
3 -x+y,-x,z
4 -x+y,y,1/2+z
5 x,x-y,1/2+z
6 -y,-x,1/2+z
7 2/3+x,1/3+y,1/3+z
8 2/3-y,1/3+x-y,1/3+z
9 2/3-x+y,1/3-x,1/3+z
10 2/3-x+y,1/3+y,5/6+z
11 2/3+x,1/3+x-y,5/6+z
12 2/3-y,1/3-x,5/6+z
13 1/3+x,2/3+y,2/3+z
14 1/3-y,2/3+x-y,2/3+z
15 1/3-x+y,2/3-x,2/3+z
16 1/3-x+y,2/3+y,1/6+z
17 1/3+x,2/3+x-y,1/6+z
18 1/3-y,2/3-x,1/6+z
_cell_length_a                   24.8014(16)
_cell_length_b                   24.8014(16)
_cell_length_c                   6.8350(9)
_cell_angle_alpha                90
_cell_angle_beta                 90
_cell_angle_gamma                120
_cell_volume                     3641.01
_exptl_crystal_colour            colorless
_exptl_crystal_description       needle
_cell_formula_units_Z            6
loop_
_atom_site_label
_atom_site_type_symbol
_atom_site_fract_x
_atom_site_fract_y
_atom_site_fract_z
Cl1 Cl 0.72361(2) 0.52440(2) 0.40764(8)
C1 C 0.65080(9) 0.48296(9) 0.2933(3)
C2 C 0.62637(9) 0.42338(9) 0.2442(3)
H1 H 0.5858 0.4059 0.1902
C3 C 0.64900(8) 0.37886(8) 0.2559(3)
C4 C 0.60426(8) 0.31611(8) 0.2553(3)
H2 H 0.5614 0.3042 0.2543
C5 C 0.61896(9) 0.51981(8) 0.2603(3)
C6 C 0.62214(10) 0.56221(10) 0.4004(4)
H3 H 0.6451 0.5683 0.5176
C7 C 0.59172(12) 0.59537(11) 0.3676(4)
H4 H 0.5939 0.6242 0.4631
C8 C 0.55838(11) 0.58701(11) 0.1981(5)
H5 H 0.5378 0.6101 0.1769
C9 C 0.55496(12) 0.54506(12) 0.0591(5)
H6 H 0.5318 0.5390 -0.0576
C10 C 0.58566(11) 0.51168(10) 0.0903(4)
H7 H 0.5837 0.4831 -0.0060
Cl1A Cl 0.47560(2) 0.19921(3) 0.40764(8)
Cl1B Cl 0.80079(3) 0.27639(2) 0.40764(8)
C1A C 0.51704(9) 0.16784(13) 0.2933(3)
C1B C 0.83216(13) 0.34920(9) 0.2933(3)
C2A C 0.57662(9) 0.20299(13) 0.2442(3)
C2B C 0.79701(13) 0.37363(9) 0.2442(3)
H1A H 0.5941 0.1799 0.1902
H1B H 0.8201 0.4142 0.1902
C3A C 0.62114(8) 0.27014(11) 0.2559(3)
C3B C 0.72986(11) 0.35100(8) 0.2559(3)
C4A C 0.68389(8) 0.28815(11) 0.2553(3)
C4B C 0.71185(11) 0.39574(8) 0.2553(3)
H2A H 0.6958 0.2572 0.2543
H2B H 0.7428 0.4386 0.2543
C5A C 0.48019(8) 0.09915(12) 0.2603(3)
C5B C 0.90085(12) 0.38104(9) 0.2603(3)
C6A C 0.43779(10) 0.05993(14) 0.4004(4)
C6B C 0.94007(14) 0.37786(10) 0.4004(4)
H3A H 0.4317 0.0768 0.5176
H3B H 0.9232 0.3549 0.5176
C7A C 0.40463(11) -0.00365(16) 0.3676(4)
C7B C 1.00365(16) 0.40828(12) 0.3676(4)
H4A H 0.3758 -0.0303 0.4631
H4B H 1.0303 0.4061 0.4631
C8A C 0.41299(11) -0.02863(16) 0.1981(5)
C8B C 1.02863(16) 0.44162(11) 0.1981(5)
H5A H 0.3899 -0.0723 0.1769
H5B H 1.0723 0.4622 0.1769
C9A C 0.45494(12) 0.00990(17) 0.0591(5)
C9B C 0.99010(17) 0.44504(12) 0.0591(5)
H6A H 0.4610 -0.0072 -0.0576
H6B H 1.0072 0.4682 -0.0576
C10A C 0.48832(10) 0.07398(15) 0.0903(4)
C10B C 0.92602(15) 0.41434(11) 0.0903(4)
H7A H 0.5169 0.1006 -0.0060
H7B H 0.8994 0.4163 -0.0060
loop_
_geom_bond_atom_site_label_1
_geom_bond_atom_site_label_2
_geom_bond_site_symmetry_1
_geom_bond_site_symmetry_2
Cl1 C1 1_555 1_555
C1 C2 1_555 1_555
C2 H1 1_555 1_555
C3 C2 1_555 1_555
C4 C3 1_555 1_555
H2 C4 1_555 1_555
C5 C1 1_555 1_555
C6 C5 1_555 1_555
H3 C6 1_555 1_555
C7 C6 1_555 1_555
H4 C7 1_555 1_555
C8 C7 1_555 1_555
H5 C8 1_555 1_555
C9 C8 1_555 1_555
H6 C9 1_555 1_555
C10 C5 1_555 1_555
H7 C10 1_555 1_555
Cl1A C1A 1_555 1_555
Cl1B C1B 1_555 1_555
C1A C2A 1_555 1_555
C1B C2B 1_555 1_555
C2A H1A 1_555 1_555
C2B H1B 1_555 1_555
C3A C4 1_555 1_555
C3B C2B 1_555 1_555
C4A C3A 1_555 1_555
C4B C3 1_555 1_555
H2A C4A 1_555 1_555
H2B C4B 1_555 1_555
C5A C1A 1_555 1_555
C5B C1B 1_555 1_555
C6A C5A 1_555 1_555
C6B C5B 1_555 1_555
H3A C6A 1_555 1_555
H3B C6B 1_555 1_555
C7A C6A 1_555 1_555
C7B C6B 1_555 1_555
H4A C7A 1_555 1_555
H4B C7B 1_555 1_555
C8A C7A 1_555 1_555
C8B C7B 1_555 1_555
H5A C8A 1_555 1_555
H5B C8B 1_555 1_555
C9A C8A 1_555 1_555
C9B C8B 1_555 1_555
H6A C9A 1_555 1_555
H6B C9B 1_555 1_555
C10A C5A 1_555 1_555
C10B C5B 1_555 1_555
H7A C10A 1_555 1_555
H7B C10B 1_555 1_555
C9 C10 1_555 1_555
C2A C3A 1_555 1_555
C3B C4A 1_555 1_555
C3B C4B 1_555 1_555
C9A C10A 1_555 1_555
C9B C10B 1_555 1_555

#END
