
#######################################################################
#
#                 Cambridge Crystallographic Data Centre
#                                CCDC 
#
#######################################################################
#
# If this CIF has been generated from an entry in the Cambridge 
# Structural Database, then it will include bibliographic, chemical, 
# crystal, experimental, refinement or atomic coordinate data resulting 
# from the CCDC's data processing and validation procedures.
#
#######################################################################

data_UWOVIM
_chemical_formula_moiety         'C23 H22 N2 O2'
_chemical_name_systematic        
2,2'-((2,4,6-Trimethyl-1,3-phenylene)bis(nitrilomethylylidene))diphenol
_symmetry_cell_setting           orthorhombic
_symmetry_space_group_name_H-M   'P 21 21 21'
_symmetry_Int_Tables_number      19
_space_group_name_Hall           'P 2ac 2ab'
loop_
_symmetry_equiv_pos_site_id
_symmetry_equiv_pos_as_xyz
1 x,y,z
2 1/2-x,-y,1/2+z
3 -x,1/2+y,1/2-z
4 1/2+x,1/2-y,-z
_cell_length_a                   7.0939(14)
_cell_length_b                   12.542(3)
_cell_length_c                   21.535(4)
_cell_angle_alpha                90
_cell_angle_beta                 90
_cell_angle_gamma                90
_cell_volume                     1916.01
_cell_formula_units_Z            4
loop_
_atom_site_label
_atom_site_type_symbol
_atom_site_fract_x
_atom_site_fract_y
_atom_site_fract_z
C1 C 0.7418(3) 0.93546(18) 0.27795(9)
C2 C 1.0414(3) 0.92668(17) 0.22891(10)
H1 H 1.0903 0.9678 0.2610
C3 C 0.7105(3) 1.04378(19) 0.28713(10)
C4 C 0.4446(3) 1.0000(2) 0.35482(9)
C5 C 0.3316(3) 0.67159(18) 0.44934(9)
C6 C 0.4390(3) 0.75633(18) 0.42033(10)
H2 H 0.5630 0.7676 0.4328
C7 C 0.5598(3) 1.07269(18) 0.32548(9)
H3 H 0.5361 1.1449 0.3315
C8 C 1.3480(3) 0.9352(2) 0.17576(11)
H4 H 1.3916 0.9781 0.2079
C9 C 0.4877(3) 0.89203(19) 0.34761(9)
C10 C 0.6695(3) 0.74163(17) 0.29580(11)
H5 H 0.7781 0.7189 0.3189
H6 H 0.6918 0.7312 0.2522
H7 H 0.5619 0.7005 0.3084
C11 C 1.1633(3) 0.89679(18) 0.17754(10)
C12 C 0.6331(3) 0.85773(17) 0.30818(9)
C13 C 0.1470(3) 0.6484(2) 0.43165(10)
C14 C 1.0999(3) 0.83238(18) 0.12897(10)
C15 C 0.3235(4) 0.5220(2) 0.51996(12)
H8 H 0.3806 0.4810 0.5506
C16 C 0.1459(4) 0.4982(2) 0.49936(13)
H9 H 0.0848 0.4384 0.5151
C17 C 0.4151(4) 0.6075(2) 0.49453(10)
H10 H 0.5367 0.6232 0.5078
C18 C 0.8202(4) 1.1302(2) 0.25437(12)
H11 H 0.7515 1.1961 0.2565
H12 H 0.8382 1.1107 0.2117
H13 H 0.9406 1.1389 0.2741
C19 C 0.2777(3) 1.0356(2) 0.39256(11)
H14 H 0.2694 1.1119 0.3916
H15 H 0.2926 1.0120 0.4347
H16 H 0.1647 1.0054 0.3754
C20 C 0.0555(4) 0.5603(2) 0.45600(12)
H17 H -0.0660 0.5434 0.4432
C21 C 1.2203(4) 0.8066(2) 0.08046(12)
H18 H 1.1790 0.7629 0.0484
C22 C 1.4007(4) 0.8460(3) 0.08010(14)
H19 H 1.4807 0.8288 0.0474
C23 C 1.4658(4) 0.9109(2) 0.12743(13)
H20 H 1.5881 0.9376 0.1264
O1 O 0.9208(2) 0.79376(15) 0.12780(8)
H21 H 0.8646 0.8132 0.1591
O2 O 0.0548(2) 0.71011(16) 0.38967(8)
H22 H 0.1242 0.7586 0.3783
N1 N 0.8684(2) 0.89784(14) 0.23112(8)
N2 N 0.3690(3) 0.81611(15) 0.37814(8)
loop_
_geom_bond_atom_site_label_1
_geom_bond_atom_site_label_2
_geom_bond_site_symmetry_1
_geom_bond_site_symmetry_2
C1 C3 1_555 1_555
C2 H1 1_555 1_555
C3 C7 1_555 1_555
C4 C7 1_555 1_555
C5 C6 1_555 1_555
C6 H2 1_555 1_555
C7 H3 1_555 1_555
C8 H4 1_555 1_555
C9 C4 1_555 1_555
C10 H5 1_555 1_555
H6 C10 1_555 1_555
H7 C10 1_555 1_555
C11 C2 1_555 1_555
C12 C1 1_555 1_555
C13 C5 1_555 1_555
C14 C11 1_555 1_555
C15 H8 1_555 1_555
C16 C15 1_555 1_555
H9 C16 1_555 1_555
C17 C5 1_555 1_555
H10 C17 1_555 1_555
C18 C3 1_555 1_555
H11 C18 1_555 1_555
H12 C18 1_555 1_555
H13 C18 1_555 1_555
C19 C4 1_555 1_555
H14 C19 1_555 1_555
H15 C19 1_555 1_555
H16 C19 1_555 1_555
C20 C13 1_555 1_555
H17 C20 1_555 1_555
C21 C14 1_555 1_555
H18 C21 1_555 1_555
C22 C21 1_555 1_555
H19 C22 1_555 1_555
C23 C8 1_555 1_555
H20 C23 1_555 1_555
O1 C14 1_555 1_555
H21 O1 1_555 1_555
O2 C13 1_555 1_555
H22 O2 1_555 1_555
N1 C1 1_555 1_555
N2 C6 1_555 1_555
C2 N1 1_555 1_555
C8 C11 1_555 1_555
C9 C12 1_555 1_555
C9 N2 1_555 1_555
C10 C12 1_555 1_555
C15 C17 1_555 1_555
C16 C20 1_555 1_555
C22 C23 1_555 1_555

#END
