
#######################################################################
#
#                 Cambridge Crystallographic Data Centre
#                                CCDC 
#
#######################################################################
#
# If this CIF has been generated from an entry in the Cambridge 
# Structural Database, then it will include bibliographic, chemical, 
# crystal, experimental, refinement or atomic coordinate data resulting 
# from the CCDC's data processing and validation procedures.
#
#######################################################################

data_UWUFOI
_chemical_formula_moiety         'C78 H88 N4 O6 S4'
_chemical_name_systematic        
5,11,17,23-Tetra-t-butyl-26,28-bis(2-(2-(((benzylsulfanyl)carbonothioyl)carbonohydrazonoyl)phenoxy)ethoxy)-25,27-dihydroxycalix(4)arene
_symmetry_cell_setting           monoclinic
_symmetry_space_group_name_H-M   'P 21/c'
_symmetry_Int_Tables_number      14
_space_group_name_Hall           '-P 2ybc'
loop_
_symmetry_equiv_pos_site_id
_symmetry_equiv_pos_as_xyz
1 x,y,z
2 -x,1/2+y,1/2-z
3 -x,-y,-z
4 x,1/2-y,1/2+z
_cell_length_a                   15.967(4)
_cell_length_b                   21.680(5)
_cell_length_c                   25.768(6)
_cell_angle_alpha                90
_cell_angle_beta                 108.05
_cell_angle_gamma                90
_cell_volume                     8480.99
_cell_formula_units_Z            4
loop_
_atom_site_label
_atom_site_type_symbol
_atom_site_fract_x
_atom_site_fract_y
_atom_site_fract_z
S1 S -0.0839(2) 0.24096(14) 0.93404(13)
S2 S 0.0268(2) 0.27275(13) 1.04726(12)
S3 S 0.4744(2) 0.66787(16) 0.82416(15)
S4 S 0.45081(19) 0.71509(12) 0.93127(13)
C1 C 0.2563(6) 0.3126(3) 0.8561(4)
C2 C 0.3138(5) 0.3094(3) 0.8260(4)
C3 C 0.2981(5) 0.2659(3) 0.7852(4)
H1 H 0.3373 0.2631 0.7651
C4 C 0.2266(6) 0.2261(3) 0.7728(4)
C5 C 0.1679(6) 0.2336(3) 0.8008(3)
H2 H 0.1180 0.2086 0.7917
C6 C 0.1787(6) 0.2778(3) 0.8435(3)
C7 C 0.1100(5) 0.2879(3) 0.8720(3)
H3 H 0.1362 0.3109 0.9054
H4 H 0.0913 0.2482 0.8819
C8 C 0.0295(5) 0.3227(3) 0.8368(3)
C9 C 0.0320(5) 0.3878(3) 0.8345(3)
C10 C -0.0382(5) 0.4205(3) 0.8010(3)
C11 C -0.1115(5) 0.3864(3) 0.7698(3)
H5 H -0.1582 0.4075 0.7456
C12 C -0.1174(5) 0.3237(3) 0.7735(3)
C13 C -0.0454(5) 0.2945(4) 0.8061(3)
H6 H -0.0473 0.2517 0.8075
C14 C -0.0371(5) 0.4890(3) 0.7972(3)
H7 H -0.0171 0.5059 0.8338
H8 H -0.0970 0.5033 0.7802
C15 C 0.0224(5) 0.5153(3) 0.7642(3)
C16 C 0.1061(5) 0.5347(3) 0.7888(3)
C17 C 0.1633(5) 0.5513(3) 0.7597(3)
C18 C 0.1304(6) 0.5528(3) 0.7035(4)
H9 H 0.1669 0.5640 0.6831
C19 C 0.0418(7) 0.5374(3) 0.6767(3)
C20 C -0.0100(5) 0.5173(3) 0.7074(4)
H10 H -0.0676 0.5049 0.6898
C21 C 0.2593(5) 0.5648(3) 0.7873(3)
H11 H 0.2692 0.5710 0.8260
H12 H 0.2754 0.6025 0.7725
C22 C 0.3173(5) 0.5125(3) 0.7794(3)
C23 C 0.3278(5) 0.4586(3) 0.8111(4)
C24 C 0.3769(5) 0.4101(4) 0.8029(4)
C25 C 0.4152(6) 0.4139(4) 0.7623(4)
H13 H 0.4477 0.3802 0.7568
C26 C 0.4082(6) 0.4667(4) 0.7277(4)
C27 C 0.3593(6) 0.5153(4) 0.7389(4)
H14 H 0.3542 0.5514 0.7186
C28 C 0.3940(5) 0.3518(3) 0.8371(4)
H15 H 0.4129 0.3631 0.8754
H16 H 0.4417 0.3291 0.8301
C29 C 0.2129(6) 0.1767(4) 0.7296(4)
C30 C 0.2590(11) 0.1182(6) 0.7596(6)
H17 H 0.3215 0.1247 0.7722
H18 H 0.2456 0.0838 0.7349
H19 H 0.2384 0.1099 0.7901
C31 C 0.2434(11) 0.1926(6) 0.6844(7)
H20 H 0.2089 0.2262 0.6645
H21 H 0.2374 0.1576 0.6608
H22 H 0.3042 0.2047 0.6978
C32 C 0.1159(8) 0.1606(5) 0.7011(5)
H23 H 0.0884 0.1490 0.7280
H24 H 0.1123 0.1270 0.6763
H25 H 0.0862 0.1959 0.6813
C33 C -0.1998(6) 0.2893(4) 0.7417(4)
C34 C -0.2315(16) 0.2577(19) 0.7752(9)
H26 H -0.2139 0.2770 0.8104
H27 H -0.2091 0.2163 0.7784
H28 H -0.2947 0.2567 0.7610
C35 C -0.1798(12) 0.2343(12) 0.7158(12)
H29 H -0.1634 0.2457 0.6842
H30 H -0.2308 0.2081 0.7048
H31 H -0.1320 0.2125 0.7411
C36 C -0.2711(14) 0.3233(7) 0.7151(15)
H32 H -0.3123 0.3230 0.7355
H33 H -0.2985 0.3061 0.6796
H34 H -0.2533 0.3650 0.7115
C37 C 0.5799(7) 0.7931(6) 0.9378(6)
C38 C 0.6510(9) 0.7702(5) 0.9235(4)
H35 H 0.6414 0.7467 0.8920
C39 C 0.7365(7) 0.7824(6) 0.9563(5)
H36 H 0.7841 0.7671 0.9467
C40 C 0.7509(8) 0.8175(5) 1.0033(5)
H37 H 0.8081 0.8257 1.0253
C41 C 0.6797(12) 0.8404(5) 1.0177(5)
H38 H 0.6894 0.8639 1.0492
C42 C 0.5942(10) 0.8282(6) 0.9849(7)
H39 H 0.5467 0.8436 0.9945
C43 C 0.0014(7) 0.5442(4) 0.6128(4)
C44 C -0.0533(9) 0.4901(6) 0.5890(4)
H40 H -0.0947 0.5012 0.5544
H41 H -0.0846 0.4764 0.6132
H42 H -0.0162 0.4574 0.5837
C45 C -0.0576(9) 0.6013(5) 0.6024(4)
H43 H -0.1023 0.5974 0.5676
H44 H -0.0227 0.6373 0.6023
H45 H -0.0848 0.6050 0.6306
C46 C 0.0706(9) 0.5520(7) 0.5850(4)
H46 H 0.1020 0.5139 0.5867
H47 H 0.1109 0.5838 0.6029
H48 H 0.0430 0.5631 0.5475
C47 C 0.4531(10) 0.4708(5) 0.6855(6)
C48 C 0.3841(15) 0.4698(15) 0.6301(9)
H49 H 0.3621 0.5108 0.6205
H50 H 0.3366 0.4433 0.6313
H51 H 0.4097 0.4547 0.6035
C49 C 0.5107(16) 0.4149(8) 0.6832(9)
H52 H 0.5702 0.4282 0.6890
H53 H 0.4887 0.3955 0.6481
H54 H 0.5092 0.3861 0.7112
C50 C 0.503(2) 0.5249(12) 0.6890(13)
H55 H 0.5231 0.5279 0.6577
H56 H 0.5524 0.5238 0.7216
H57 H 0.4668 0.5600 0.6901
C51 C 0.3270(6) 0.3261(4) 0.9513(3)
H58 H 0.3874 0.3217 0.9512
H59 H 0.3046 0.2856 0.9562
C52 C 0.3221(6) 0.3698(4) 0.9970(4)
H60 H 0.2614 0.3747 0.9964
H61 H 0.3558 0.3532 1.0322
C53 C 0.3743(5) 0.4707(4) 1.0281(4)
C54 C 0.3687(6) 0.4583(5) 1.0800(5)
H62 H 0.3502 0.4197 1.0879
C55 C 0.3905(7) 0.5029(7) 1.1193(5)
H63 H 0.3888 0.4943 1.1543
C56 C 0.4155(7) 0.5618(7) 1.1069(6)
H64 H 0.4308 0.5920 1.1338
C57 C 0.4174(6) 0.5748(5) 1.0542(5)
H65 H 0.4307 0.6142 1.0449
C58 C 0.3990(5) 0.5272(4) 1.0156(4)
C59 C 0.4056(5) 0.5403(4) 0.9615(5)
H66 H 0.3988 0.5081 0.9367
C60 C 0.4528(5) 0.6602(4) 0.8820(4)
C61 C 0.4935(7) 0.7830(4) 0.9067(5)
H67 H 0.4903 0.7771 0.8688
H68 H 0.4579 0.8186 0.9088
C62 C 0.1174(5) 0.5940(3) 0.8685(3)
H69 H 0.0541 0.5996 0.8589
H70 H 0.1415 0.6282 0.8535
C63 C 0.1568(5) 0.5928(3) 0.9288(3)
H71 H 0.2199 0.5863 0.9384
H72 H 0.1465 0.6318 0.9442
C64 C 0.1375(5) 0.5378(4) 1.0042(3)
C65 C 0.1805(6) 0.5840(4) 1.0429(4)
H73 H 0.1991 0.6208 1.0315
C66 C 0.1941(6) 0.5721(6) 1.0991(4)
H74 H 0.2210 0.6021 1.1246
C67 C 0.1701(7) 0.5202(5) 1.1160(4)
H75 H 0.1809 0.5133 1.1532
C68 C 0.1300(6) 0.4771(4) 1.0800(4)
H76 H 0.1128 0.4408 1.0931
C69 C 0.1126(5) 0.4830(4) 1.0241(4)
C70 C 0.0684(5) 0.4354(4) 0.9866(4)
H77 H 0.0518 0.4427 0.9492
C71 C -0.0197(6) 0.2871(4) 0.9803(4)
C72 C -0.0051(10) 0.1911(5) 1.0481(5)
H78 H -0.0682 0.1871 1.0407
H79 H 0.0124 0.1675 1.0212
C73 C 0.0453(9) 0.1690(4) 1.1069(5)
C74 C 0.1261(13) 0.1398(7) 1.1149(7)
H80 H 0.1507 0.1374 1.0866
C75 C 0.1730(11) 0.1124(7) 1.1697(8)
H81 H 0.2254 0.0903 1.1774
C76 C 0.1311(12) 0.1232(6) 1.2056(8)
H82 H 0.1591 0.1099 1.2410
C77 C 0.0550(14) 0.1505(7) 1.1974(7)
H83 H 0.0303 0.1541 1.2256
C78 C 0.0148(10) 0.1725(5) 1.1494(7)
H84 H -0.0391 0.1920 1.1442
N1 N 0.0518(4) 0.3839(3) 1.0039(3)
N2 N 0.0029(5) 0.3440(3) 0.9653(3)
H85 H -0.0140 0.3546 0.9315
N3 N 0.4208(4) 0.5962(3) 0.9468(4)
N4 N 0.4340(5) 0.6035(4) 0.8966(4)
H86 H 0.4304 0.5724 0.8752
O1 O 0.2729(3) 0.3538(2) 0.9006(2)
O2 O 0.3573(4) 0.4273(3) 0.9879(2)
O3 O 0.1065(3) 0.4150(2) 0.8669(2)
H87 H 0.1008 0.4526 0.8648
O4 O 0.1366(3) 0.53694(19) 0.8464(2)
O5 O 0.1177(3) 0.5442(2) 0.9500(2)
O6 O 0.2892(4) 0.4612(2) 0.8526(2)
H88 H 0.2985 0.4288 0.8699
loop_
_geom_bond_atom_site_label_1
_geom_bond_atom_site_label_2
_geom_bond_site_symmetry_1
_geom_bond_site_symmetry_2
S1 C71 1_555 1_555
S2 C71 1_555 1_555
S3 C60 1_555 1_555
S4 C60 1_555 1_555
C1 C2 1_555 1_555
C2 C3 1_555 1_555
C3 H1 1_555 1_555
C4 C3 1_555 1_555
C5 C4 1_555 1_555
H2 C5 1_555 1_555
C6 C1 1_555 1_555
C7 C6 1_555 1_555
H3 C7 1_555 1_555
H4 C7 1_555 1_555
C8 C7 1_555 1_555
C9 C8 1_555 1_555
C10 C9 1_555 1_555
C11 C10 1_555 1_555
H5 C11 1_555 1_555
C12 C11 1_555 1_555
C13 C8 1_555 1_555
H6 C13 1_555 1_555
C14 C10 1_555 1_555
H7 C14 1_555 1_555
H8 C14 1_555 1_555
C15 C14 1_555 1_555
C16 C15 1_555 1_555
C17 C16 1_555 1_555
C18 C17 1_555 1_555
H9 C18 1_555 1_555
C19 C18 1_555 1_555
C20 C15 1_555 1_555
H10 C20 1_555 1_555
C21 C17 1_555 1_555
H11 C21 1_555 1_555
H12 C21 1_555 1_555
C22 C21 1_555 1_555
C23 C22 1_555 1_555
C24 C23 1_555 1_555
C25 C24 1_555 1_555
H13 C25 1_555 1_555
C26 C25 1_555 1_555
C27 C22 1_555 1_555
H14 C27 1_555 1_555
C28 C2 1_555 1_555
H15 C28 1_555 1_555
H16 C28 1_555 1_555
C29 C4 1_555 1_555
C30 C29 1_555 1_555
H17 C30 1_555 1_555
H18 C30 1_555 1_555
H19 C30 1_555 1_555
C31 C29 1_555 1_555
H20 C31 1_555 1_555
H21 C31 1_555 1_555
H22 C31 1_555 1_555
C32 C29 1_555 1_555
H23 C32 1_555 1_555
H24 C32 1_555 1_555
H25 C32 1_555 1_555
C33 C12 1_555 1_555
C34 C33 1_555 1_555
H26 C34 1_555 1_555
H27 C34 1_555 1_555
H28 C34 1_555 1_555
C35 C33 1_555 1_555
H29 C35 1_555 1_555
H30 C35 1_555 1_555
H31 C35 1_555 1_555
C36 C33 1_555 1_555
H32 C36 1_555 1_555
H33 C36 1_555 1_555
H34 C36 1_555 1_555
C37 C38 1_555 1_555
C38 H35 1_555 1_555
C39 C38 1_555 1_555
H36 C39 1_555 1_555
C40 C39 1_555 1_555
H37 C40 1_555 1_555
C41 C40 1_555 1_555
H38 C41 1_555 1_555
C42 C37 1_555 1_555
H39 C42 1_555 1_555
C43 C19 1_555 1_555
C44 C43 1_555 1_555
H40 C44 1_555 1_555
H41 C44 1_555 1_555
H42 C44 1_555 1_555
C45 C43 1_555 1_555
H43 C45 1_555 1_555
H44 C45 1_555 1_555
H45 C45 1_555 1_555
C46 C43 1_555 1_555
H46 C46 1_555 1_555
H47 C46 1_555 1_555
H48 C46 1_555 1_555
C47 C26 1_555 1_555
C48 C47 1_555 1_555
H49 C48 1_555 1_555
H50 C48 1_555 1_555
H51 C48 1_555 1_555
C49 C47 1_555 1_555
H52 C49 1_555 1_555
H53 C49 1_555 1_555
H54 C49 1_555 1_555
C50 C47 1_555 1_555
H55 C50 1_555 1_555
H56 C50 1_555 1_555
H57 C50 1_555 1_555
C51 H58 1_555 1_555
H59 C51 1_555 1_555
C52 C51 1_555 1_555
H60 C52 1_555 1_555
H61 C52 1_555 1_555
C53 C54 1_555 1_555
C54 H62 1_555 1_555
C55 C54 1_555 1_555
H63 C55 1_555 1_555
C56 C55 1_555 1_555
H64 C56 1_555 1_555
C57 C56 1_555 1_555
H65 C57 1_555 1_555
C58 C53 1_555 1_555
C59 C58 1_555 1_555
H66 C59 1_555 1_555
C60 N4 1_555 1_555
C61 S4 1_555 1_555
H67 C61 1_555 1_555
H68 C61 1_555 1_555
C62 H69 1_555 1_555
H70 C62 1_555 1_555
C63 C62 1_555 1_555
H71 C63 1_555 1_555
H72 C63 1_555 1_555
C64 C65 1_555 1_555
C65 H73 1_555 1_555
C66 C65 1_555 1_555
H74 C66 1_555 1_555
C67 C66 1_555 1_555
H75 C67 1_555 1_555
C68 C67 1_555 1_555
H76 C68 1_555 1_555
C69 C64 1_555 1_555
C70 C69 1_555 1_555
H77 C70 1_555 1_555
C71 N2 1_555 1_555
C72 S2 1_555 1_555
H78 C72 1_555 1_555
H79 C72 1_555 1_555
C73 C72 1_555 1_555
C74 C73 1_555 1_555
H80 C74 1_555 1_555
C75 C74 1_555 1_555
H81 C75 1_555 1_555
C76 C75 1_555 1_555
H82 C76 1_555 1_555
C77 C76 1_555 1_555
H83 C77 1_555 1_555
C78 C73 1_555 1_555
H84 C78 1_555 1_555
N1 C70 1_555 1_555
N2 N1 1_555 1_555
H85 N2 1_555 1_555
N3 C59 1_555 1_555
N4 N3 1_555 1_555
H86 N4 1_555 1_555
O1 C1 1_555 1_555
O2 C52 1_555 1_555
O3 C9 1_555 1_555
H87 O3 1_555 1_555
O4 C16 1_555 1_555
O5 C63 1_555 1_555
O6 C23 1_555 1_555
H88 O6 1_555 1_555
C5 C6 1_555 1_555
C12 C13 1_555 1_555
C19 C20 1_555 1_555
C24 C28 1_555 1_555
C26 C27 1_555 1_555
C37 C61 1_555 1_555
C41 C42 1_555 1_555
C51 O1 1_555 1_555
C53 O2 1_555 1_555
C57 C58 1_555 1_555
C62 O4 1_555 1_555
C64 O5 1_555 1_555
C68 C69 1_555 1_555
C77 C78 1_555 1_555

#END
