
#######################################################################
#
#                 Cambridge Crystallographic Data Centre
#                                CCDC 
#
#######################################################################
#
# If this CIF has been generated from an entry in the Cambridge 
# Structural Database, then it will include bibliographic, chemical, 
# crystal, experimental, refinement or atomic coordinate data resulting 
# from the CCDC's data processing and validation procedures.
#
#######################################################################

data_UWUGAW
_chemical_formula_moiety         '2(C6 H6 N12 O12),C8 H10'
_chemical_name_systematic        
'2,4,6,8,10,12-hexanitro-2,4,6,8,10,12-hexaazatetracyclo[5.5.0.0^3,11^.0^5,9^]dodecane p-xylene solvate'
_symmetry_cell_setting           orthorhombic
_symmetry_space_group_name_H-M   'P b c a'
_symmetry_Int_Tables_number      61
_space_group_name_Hall           '-P 2ac 2ab'
loop_
_symmetry_equiv_pos_site_id
_symmetry_equiv_pos_as_xyz
1 x,y,z
2 1/2-x,-y,1/2+z
3 -x,1/2+y,1/2-z
4 1/2+x,1/2-y,-z
5 -x,-y,-z
6 1/2+x,y,1/2-z
7 x,1/2-y,1/2+z
8 1/2-x,1/2+y,z
_cell_length_a                   8.0704(12)
_cell_length_b                   13.410(2)
_cell_length_c                   33.082(5)
_cell_angle_alpha                90
_cell_angle_beta                 90
_cell_angle_gamma                90
_cell_volume                     3580.27
_exptl_crystal_colour            colorless
_exptl_crystal_description       Prism
_cell_formula_units_Z            4
loop_
_atom_site_label
_atom_site_type_symbol
_atom_site_fract_x
_atom_site_fract_y
_atom_site_fract_z
O1 O 0.29476(19) 0.25702(11) 0.05880(4)
O2 O 0.24123(16) 0.16202(10) 0.11095(4)
O3 O 0.83513(18) 0.32086(12) 0.06709(5)
O4 O 0.93699(16) 0.28290(10) 0.12587(5)
O5 O 0.10583(17) 0.48767(11) 0.08603(4)
O6 O 0.03088(16) 0.47906(10) 0.14904(4)
O7 O 0.66944(17) 0.57887(11) 0.10295(4)
O8 O 0.69674(17) 0.59253(10) 0.16848(4)
O9 O 0.27541(18) 0.13326(10) 0.19841(5)
O10 O 0.10748(18) 0.25839(12) 0.20810(5)
O11 O 0.82508(19) 0.35281(13) 0.22810(5)
O12 O 0.6634(2) 0.47432(11) 0.24622(4)
N1 N 0.46729(17) 0.25682(10) 0.11087(4)
N2 N 0.68544(17) 0.35550(11) 0.12293(4)
N3 N 0.27156(16) 0.40691(11) 0.12921(4)
N4 N 0.48873(16) 0.50466(10) 0.14340(4)
N5 N 0.35067(17) 0.28508(11) 0.17818(4)
N6 N 0.60301(18) 0.38687(11) 0.19124(4)
N7 N 0.32308(18) 0.22370(11) 0.09226(5)
N8 N 0.82959(18) 0.31413(11) 0.10358(5)
N9 N 0.12541(18) 0.46446(11) 0.12105(5)
N10 N 0.62917(18) 0.56189(11) 0.13772(4)
N11 N 0.23487(19) 0.22062(12) 0.19572(5)
N12 N 0.70484(19) 0.40655(12) 0.22394(4)
C1 C 0.53637(19) 0.35324(12) 0.09820(5)
H1 H 0.5638 0.3535 0.0687
C2 C 0.4859(2) 0.24456(12) 0.15490(5)
H2 H 0.5066 0.1732 0.1621
C3 C 0.6446(2) 0.31009(12) 0.16260(5)
H3 H 0.7384 0.2683 0.1727
C4 C 0.42187(19) 0.44493(12) 0.10991(5)
H4 H 0.3956 0.4872 0.0859
C5 C 0.3090(2) 0.38873(12) 0.17234(5)
H5 H 0.2138 0.4087 0.1899
C6 C 0.4666(2) 0.45257(12) 0.18193(5)
H6 H 0.4454 0.5005 0.2045
C7 C 0.3531(3) 0.55042(16) 0.00650(6)
H7 H 0.2530 0.5860 0.0110
C8 C 0.5039(3) 0.59825(16) 0.01288(6)
H8 H 0.5048 0.6656 0.0218
C9 C 0.6544(3) 0.54880(16) 0.00640(6)
C10 C 0.8178(3) 0.59969(19) 0.01355(7)
H9 H 0.8778 0.5651 0.0352
H10 H 0.7985 0.6691 0.0215
H11 H 0.8838 0.5980 -0.0113
C7D C 0.6469(3) 0.44958(16) -0.00650(6)
H7D H 0.7470 0.4140 -0.0110
C8D C 0.4961(3) 0.40175(16) -0.01288(6)
H8D H 0.4952 0.3344 -0.0218
C9D C 0.3456(3) 0.45120(16) -0.00640(6)
C10D C 0.1822(3) 0.40031(19) -0.01355(7)
H9D H 0.1222 0.4349 -0.0352
H10D H 0.2015 0.3309 -0.0215
H11D H 0.1162 0.4020 0.0113
loop_
_geom_bond_atom_site_label_1
_geom_bond_atom_site_label_2
_geom_bond_site_symmetry_1
_geom_bond_site_symmetry_2
O1 N7 1_555 1_555
O2 N7 1_555 1_555
O3 N8 1_555 1_555
O4 N8 1_555 1_555
O5 N9 1_555 1_555
O6 N9 1_555 1_555
O7 N10 1_555 1_555
O8 N10 1_555 1_555
O9 N11 1_555 1_555
O10 N11 1_555 1_555
O11 N12 1_555 1_555
O12 N12 1_555 1_555
N1 N7 1_555 1_555
N2 N8 1_555 1_555
N3 N9 1_555 1_555
N4 N10 1_555 1_555
N5 N11 1_555 1_555
N6 N12 1_555 1_555
C1 N1 1_555 1_555
H1 C1 1_555 1_555
C2 N1 1_555 1_555
H2 C2 1_555 1_555
C3 N2 1_555 1_555
H3 C3 1_555 1_555
C4 N3 1_555 1_555
H4 C4 1_555 1_555
C5 N3 1_555 1_555
H5 C5 1_555 1_555
C6 N4 1_555 1_555
H6 C6 1_555 1_555
C7 H7 1_555 1_555
C8 C7 1_555 1_555
H8 C8 1_555 1_555
C9 C8 1_555 1_555
C10 C9 1_555 1_555
H9 C10 1_555 1_555
H10 C10 1_555 1_555
H11 C10 1_555 1_555
C7D C9 1_555 1_555
H7D C7D 1_555 1_555
C8D C7D 1_555 1_555
H8D C8D 1_555 1_555
C9D C7 1_555 1_555
C10D C9D 1_555 1_555
H9D C10D 1_555 1_555
H10D C10D 1_555 1_555
H11D C10D 1_555 1_555
N2 C1 1_555 1_555
N4 C4 1_555 1_555
N5 C2 1_555 1_555
N5 C5 1_555 1_555
N6 C3 1_555 1_555
N6 C6 1_555 1_555
C1 C4 1_555 1_555
C2 C3 1_555 1_555
C5 C6 1_555 1_555
C8D C9D 1_555 1_555

#END
