
#######################################################################
#
#                 Cambridge Crystallographic Data Centre
#                                CCDC 
#
#######################################################################
#
# If this CIF has been generated from an entry in the Cambridge 
# Structural Database, then it will include bibliographic, chemical, 
# crystal, experimental, refinement or atomic coordinate data resulting 
# from the CCDC's data processing and validation procedures.
#
#######################################################################

data_UWUKOO
_chemical_formula_moiety         'C31 H28 N2 O2'
_chemical_name_systematic        
15-(2-(diphenylmethylene)hydrazino)-12-methoxytricyclo[8.2.2.2^4,7^]hexadeca-1(12),4,6,10,13,15-hexaene-5-carbaldehyde
_symmetry_cell_setting           orthorhombic
_symmetry_space_group_name_H-M   'P 21 21 21'
_symmetry_Int_Tables_number      19
_space_group_name_Hall           'P 2ac 2ab'
loop_
_symmetry_equiv_pos_site_id
_symmetry_equiv_pos_as_xyz
1 x,y,z
2 1/2-x,-y,1/2+z
3 1/2+x,1/2-y,-z
4 -x,1/2+y,1/2-z
_cell_length_a                   8.681(7)
_cell_length_b                   17.323(14)
_cell_length_c                   32.77(3)
_cell_angle_alpha                90
_cell_angle_beta                 90
_cell_angle_gamma                90
_cell_volume                     4927.98
_exptl_crystal_colour            yellow
_exptl_crystal_description       block
_cell_formula_units_Z            8
loop_
_atom_site_label
_atom_site_type_symbol
_atom_site_fract_x
_atom_site_fract_y
_atom_site_fract_z
N1 N 0.8417(3) 0.45598(16) 0.57859(8)
N2 N 0.7469(3) 0.51509(16) 0.56595(9)
O1 O 0.3861(3) 0.37362(17) 0.58631(9)
C1 C 0.8126(4) 0.41878(19) 0.61524(10)
C2 C 0.7771(4) 0.5438(2) 0.52998(11)
C3 C 0.6818(4) 0.43644(18) 0.63898(10)
H1 H 0.6209 0.4785 0.6319
O2 O 0.6191(4) 0.28462(17) 0.74456(9)
C4 C 0.8815(5) 0.32512(19) 0.66403(11)
H2 H 0.9555 0.2916 0.6744
C5 C 0.9046(4) 0.3562(2) 0.62565(10)
C6 C 0.7536(5) 0.3415(2) 0.68779(10)
C7 C 0.9046(5) 0.5126(2) 0.50378(10)
C8 C 0.6422(4) 0.3922(2) 0.67263(10)
C9 C 0.4942(5) 0.3169(2) 0.59342(13)
C10 C 0.7360(5) 0.2529(2) 0.57992(12)
C11 C 0.6790(5) 0.6068(2) 0.51480(12)
C12 C 0.4817(5) 0.2810(3) 0.63139(12)
C13 C 0.6202(5) 0.3030(2) 0.56829(11)
H3 H 0.6266 0.3278 0.5432
C14 C 0.8857(5) 0.4432(2) 0.48407(10)
H4 H 0.7916 0.4177 0.4855
C15 C 0.9985(4) 0.3123(2) 0.59416(11)
H5 H 1.0691 0.2780 0.6082
H6 H 1.0594 0.3488 0.5786
C16 C 0.8963(5) 0.2637(2) 0.56395(12)
H7 H 0.8918 0.2897 0.5378
H8 H 0.9435 0.2136 0.5598
C17 C 0.7354(6) 0.2928(2) 0.72439(12)
H9 H 0.8219 0.2656 0.7329
C18 C 0.7060(5) 0.2063(2) 0.61371(13)
H10 H 0.7708 0.1649 0.6194
C19 C 1.0439(5) 0.5502(2) 0.50127(11)
H11 H 1.0580 0.5971 0.5145
C20 C 0.4740(5) 0.3894(2) 0.68452(11)
H12 H 0.4228 0.4357 0.6749
H13 H 0.4655 0.3882 0.7140
C21 C 1.0062(6) 0.4110(3) 0.46212(11)
H14 H 0.9932 0.3636 0.4492
C22 C 0.5807(5) 0.2207(2) 0.63891(13)
H15 H 0.5634 0.1890 0.6613
C23 C 0.3914(5) 0.3164(2) 0.66613(13)
H16 H 0.3778 0.2782 0.6874
H17 H 0.2901 0.3311 0.6564
C24 C 0.6836(5) 0.6292(2) 0.47464(13)
H18 H 0.7529 0.6055 0.4570
C25 C 1.1416(6) 0.4480(3) 0.45943(13)
H19 H 1.2210 0.4262 0.4443
C26 C 0.5776(6) 0.6446(3) 0.54028(14)
H20 H 0.5735 0.6318 0.5678
C27 C 0.5874(6) 0.6861(3) 0.45996(15)
H21 H 0.5926 0.6996 0.4325
C28 C 0.3841(6) 0.4089(3) 0.54715(14)
H22 H 0.3724 0.3700 0.5266
H23 H 0.4791 0.4361 0.5429
H24 H 0.2996 0.4445 0.5456
C29 C 1.1652(5) 0.5174(3) 0.47857(13)
H25 H 1.2597 0.5424 0.4766
C30 C 0.4847(7) 0.7230(3) 0.48477(18)
H26 H 0.4194 0.7611 0.4748
C31 C 0.4820(6) 0.7015(3) 0.52493(19)
H27 H 0.4136 0.7260 0.5425
O3 O 0.9232(3) 0.43584(15) 0.28558(8)
N3 N 0.5731(3) 0.32519(16) 0.22901(10)
N4 N 0.4624(3) 0.37417(16) 0.24473(10)
C32 C 0.5625(4) 0.31157(19) 0.19018(12)
C33 C 0.8130(4) 0.4925(2) 0.29100(12)
C34 C 0.6805(4) 0.2618(2) 0.17119(11)
C35 C 0.5953(4) 0.40062(19) 0.35155(11)
C36 C 0.5789(4) 0.36920(18) 0.31266(11)
H28 H 0.6420 0.3284 0.3048
C37 C 0.4700(4) 0.3975(2) 0.28527(12)
C38 C 0.4369(4) 0.3463(2) 0.16503(11)
C39 C 0.7963(4) 0.5173(2) 0.33104(12)
C40 C 0.3763(4) 0.4601(2) 0.29599(13)
C41 C 0.7975(5) 0.2275(2) 0.19384(11)
H29 H 0.8030 0.2366 0.2218
C42 C 0.7106(4) 0.5151(2) 0.26104(11)
H30 H 0.7214 0.4959 0.2347
C43 C 0.4790(4) 0.4508(2) 0.36538(12)
C44 C 0.5916(5) 0.5663(2) 0.26981(12)
C45 C 0.7500(4) 0.3944(2) 0.37213(11)
H31 H 0.8053 0.3506 0.3609
H32 H 0.7348 0.3850 0.4010
C46 C 0.9048(5) 0.1803(2) 0.17583(13)
H33 H 0.9824 0.1581 0.1915
O4 O 0.5445(4) 0.4610(2) 0.43641(10)
C47 C 0.5966(5) 0.6039(2) 0.30647(14)
H34 H 0.5326 0.6461 0.3111
C48 C 0.3740(4) 0.4791(2) 0.33693(14)
H35 H 0.2978 0.5127 0.3460
C49 C 0.6971(5) 0.5794(2) 0.33696(13)
H36 H 0.6979 0.6051 0.3619
C50 C 0.1749(5) 0.3484(3) 0.14199(13)
H37 H 0.0788 0.3248 0.1407
C51 C 0.2922(5) 0.3136(2) 0.16309(12)
H38 H 0.2739 0.2670 0.1763
C52 C 0.4598(5) 0.4158(2) 0.14568(13)
H39 H 0.5564 0.4390 0.1462
C53 C 0.6776(5) 0.2476(2) 0.12953(12)
H40 H 0.6020 0.2705 0.1135
C54 C 0.3140(4) 0.5162(2) 0.26474(12)
H41 H 0.2406 0.5504 0.2778
H42 H 0.2599 0.4877 0.2437
C55 C 0.9458(5) 0.4055(2) 0.24554(12)
H43 H 0.9748 0.4466 0.2274
H44 H 0.8519 0.3824 0.2361
H45 H 1.0259 0.3673 0.2462
C56 C 0.1983(5) 0.4180(3) 0.12268(14)
H46 H 0.1193 0.4416 0.1081
C57 C 0.8975(5) 0.1660(2) 0.13477(14)
H47 H 0.9689 0.1332 0.1226
C58 C 0.4462(5) 0.5659(2) 0.24447(12)
H48 H 0.4691 0.5452 0.2177
H49 H 0.4103 0.6185 0.2410
C59 C 0.7853(5) 0.1999(3) 0.11164(13)
H50 H 0.7816 0.1908 0.0837
C60 C 0.8509(5) 0.4694(2) 0.36656(12)
H51 H 0.8460 0.5001 0.3913
H52 H 0.9575 0.4548 0.3622
C61 C 0.4731(6) 0.4828(3) 0.40696(16)
H53 H 0.4071 0.5244 0.4110
C62 C 0.3395(6) 0.4513(3) 0.12538(14)
H54 H 0.3557 0.4992 0.1133
loop_
_geom_bond_atom_site_label_1
_geom_bond_atom_site_label_2
_geom_bond_site_symmetry_1
_geom_bond_site_symmetry_2
N1 N2 1_555 1_555
N2 C2 1_555 1_555
O1 C9 1_555 1_555
C1 N1 1_555 1_555
C2 C7 1_555 1_555
C3 C1 1_555 1_555
H1 C3 1_555 1_555
O2 C17 1_555 1_555
C4 H2 1_555 1_555
C5 C1 1_555 1_555
C6 C4 1_555 1_555
C7 C14 1_555 1_555
C8 C3 1_555 1_555
C9 C12 1_555 1_555
C10 C13 1_555 1_555
C11 C2 1_555 1_555
C12 C22 1_555 1_555
C13 C9 1_555 1_555
H3 C13 1_555 1_555
C14 H4 1_555 1_555
C15 C5 1_555 1_555
H5 C15 1_555 1_555
H6 C15 1_555 1_555
C16 C10 1_555 1_555
H7 C16 1_555 1_555
H8 C16 1_555 1_555
C17 C6 1_555 1_555
H9 C17 1_555 1_555
C18 C10 1_555 1_555
H10 C18 1_555 1_555
C19 C7 1_555 1_555
H11 C19 1_555 1_555
C20 C8 1_555 1_555
H12 C20 1_555 1_555
H13 C20 1_555 1_555
C21 C14 1_555 1_555
H14 C21 1_555 1_555
C22 C18 1_555 1_555
H15 C22 1_555 1_555
C23 C12 1_555 1_555
H16 C23 1_555 1_555
H17 C23 1_555 1_555
C24 C11 1_555 1_555
H18 C24 1_555 1_555
C25 C21 1_555 1_555
H19 C25 1_555 1_555
C26 C11 1_555 1_555
H20 C26 1_555 1_555
C27 C24 1_555 1_555
H21 C27 1_555 1_555
C28 O1 1_555 1_555
H22 C28 1_555 1_555
H23 C28 1_555 1_555
H24 C28 1_555 1_555
C29 C19 1_555 1_555
H25 C29 1_555 1_555
C30 C27 1_555 1_555
H26 C30 1_555 1_555
C31 C26 1_555 1_555
H27 C31 1_555 1_555
O3 C33 1_555 1_555
N3 N4 1_555 1_555
N4 C37 1_555 1_555
C32 N3 1_555 1_555
C33 C39 1_555 1_555
C34 C32 1_555 1_555
C35 C36 1_555 1_555
C36 H28 1_555 1_555
C37 C36 1_555 1_555
C38 C32 1_555 1_555
C39 C49 1_555 1_555
C40 C37 1_555 1_555
C41 C34 1_555 1_555
H29 C41 1_555 1_555
C42 C33 1_555 1_555
H30 C42 1_555 1_555
C43 C35 1_555 1_555
C44 C42 1_555 1_555
C45 C35 1_555 1_555
H31 C45 1_555 1_555
H32 C45 1_555 1_555
C46 C41 1_555 1_555
H33 C46 1_555 1_555
O4 C61 1_555 1_555
C47 C44 1_555 1_555
H34 C47 1_555 1_555
C48 C40 1_555 1_555
H35 C48 1_555 1_555
C49 C47 1_555 1_555
H36 C49 1_555 1_555
C50 H37 1_555 1_555
C51 C38 1_555 1_555
H38 C51 1_555 1_555
C52 C38 1_555 1_555
H39 C52 1_555 1_555
C53 C34 1_555 1_555
H40 C53 1_555 1_555
C54 C40 1_555 1_555
H41 C54 1_555 1_555
H42 C54 1_555 1_555
C55 O3 1_555 1_555
H43 C55 1_555 1_555
H44 C55 1_555 1_555
H45 C55 1_555 1_555
C56 C50 1_555 1_555
H46 C56 1_555 1_555
C57 C46 1_555 1_555
H47 C57 1_555 1_555
C58 C44 1_555 1_555
H48 C58 1_555 1_555
H49 C58 1_555 1_555
C59 C53 1_555 1_555
H50 C59 1_555 1_555
C60 C39 1_555 1_555
H51 C60 1_555 1_555
H52 C60 1_555 1_555
C61 C43 1_555 1_555
H53 C61 1_555 1_555
C62 C52 1_555 1_555
H54 C62 1_555 1_555
C4 C5 1_555 1_555
C6 C8 1_555 1_555
C15 C16 1_555 1_555
C20 C23 1_555 1_555
C25 C29 1_555 1_555
C30 C31 1_555 1_555
C43 C48 1_555 1_555
C45 C60 1_555 1_555
C50 C51 1_555 1_555
C54 C58 1_555 1_555
C56 C62 1_555 1_555
C57 C59 1_555 1_555

#END
