
#######################################################################
#
#                 Cambridge Crystallographic Data Centre
#                                CCDC 
#
#######################################################################
#
# If this CIF has been generated from an entry in the Cambridge 
# Structural Database, then it will include bibliographic, chemical, 
# crystal, experimental, refinement or atomic coordinate data resulting 
# from the CCDC's data processing and validation procedures.
#
#######################################################################

data_UWURIP
_chemical_formula_moiety         'C30 H23 N3 O1,0.5(C1 H2 Cl2)'
_chemical_name_systematic        
'3-((2-aminophenyl)(1H-indol-2-yl)methylene)-1-benzyl-1,3-dihydro-2H-indol-2-one dichloromethane solvate'
_symmetry_cell_setting           triclinic
_symmetry_space_group_name_H-M   'P -1'
_symmetry_Int_Tables_number      2
_space_group_name_Hall           '-P 1'
loop_
_symmetry_equiv_pos_site_id
_symmetry_equiv_pos_as_xyz
1 x,y,z
2 -x,-y,-z
_cell_length_a                   12.008(6)
_cell_length_b                   12.707(7)
_cell_length_c                   17.492(9)
_cell_angle_alpha                86.700(10)
_cell_angle_beta                 88.106(9)
_cell_angle_gamma                65.559(9)
_cell_volume                     2425.7
_exptl_crystal_colour            colorless
_exptl_crystal_description       block
_cell_formula_units_Z            4
loop_
_atom_site_label
_atom_site_type_symbol
_atom_site_fract_x
_atom_site_fract_y
_atom_site_fract_z
O1 O 0.7542(3) 0.4983(3) 0.14008(19)
N1 N 0.5808(4) 0.6566(3) 0.1676(2)
N2 N 0.8342(4) 0.2768(3) 0.1839(2)
H1 H 0.8359 0.3382 0.1589
N3 N 0.6869(5) 0.3805(5) 0.4298(3)
H2 H 0.7200 0.4040 0.3918
H3 H 0.6571 0.4353 0.4616
C1 C 0.6596(4) 0.5429(4) 0.1789(3)
C2 C 0.6085(4) 0.4931(4) 0.2416(3)
C3 C 0.4968(4) 0.5883(4) 0.2674(3)
C4 C 0.4095(5) 0.6031(4) 0.3243(3)
H4 H 0.4162 0.5399 0.3584
C5 C 0.3139(5) 0.7084(4) 0.3314(3)
H5 H 0.2559 0.7179 0.3717
C6 C 0.2990(5) 0.8030(4) 0.2809(3)
H6 H 0.2299 0.8745 0.2860
C7 C 0.3842(5) 0.7923(4) 0.2237(3)
H7 H 0.3755 0.8554 0.1890
C8 C 0.4824(5) 0.6869(4) 0.2187(3)
C9 C 0.6493(4) 0.3794(4) 0.2676(3)
C10 C 0.7535(4) 0.2787(4) 0.2418(3)
C11 C 0.7806(4) 0.1654(4) 0.2672(3)
H8 H 0.7391 0.1415 0.3069
C12 C 0.8799(5) 0.0926(4) 0.2239(3)
C13 C 0.9483(5) -0.0292(4) 0.2216(3)
H9 H 0.9311 -0.0803 0.2571
C14 C 1.0377(5) -0.0713(5) 0.1685(4)
H10 H 1.0818 -0.1527 0.1660
C15 C 1.0673(5) 0.0020(5) 0.1169(4)
H11 H 1.1309 -0.0308 0.0803
C16 C 1.0063(5) 0.1200(5) 0.1182(3)
H12 H 1.0282 0.1694 0.0841
C17 C 0.9115(5) 0.1648(4) 0.1709(3)
C18 C 0.5751(4) 0.3507(4) 0.3276(3)
C19 C 0.4801(5) 0.3235(4) 0.3060(3)
H13 H 0.4684 0.3182 0.2531
C20 C 0.4034(5) 0.3042(5) 0.3582(4)
H14 H 0.3391 0.2858 0.3420
C21 C 0.4199(5) 0.3117(5) 0.4342(4)
H15 H 0.3658 0.2996 0.4709
C22 C 0.5148(5) 0.3368(5) 0.4585(3)
H16 H 0.5255 0.3412 0.5116
C23 C 0.5939(5) 0.3555(4) 0.4053(3)
C24 C 0.5986(5) 0.7372(4) 0.1111(3)
H17 H 0.6849 0.7043 0.0934
H18 H 0.5824 0.8105 0.1356
C25 C 0.5166(5) 0.7622(5) 0.0433(3)
C26 C 0.4411(6) 0.8715(6) 0.0210(3)
H19 H 0.4370 0.9349 0.0490
C27 C 0.3667(6) 0.8909(8) -0.0459(4)
H20 H 0.3131 0.9671 -0.0627
C28 C 0.3743(7) 0.7995(9) -0.0842(4)
H21 H 0.3231 0.8122 -0.1271
C29 C 0.4537(8) 0.6882(8) -0.0634(4)
H22 H 0.4597 0.6258 -0.0932
C30 C 0.5235(6) 0.6679(5) 0.0002(3)
H23 H 0.5767 0.5909 0.0157
O2 O -0.1021(3) 0.4074(3) 0.3503(2)
N4 N 0.0626(4) 0.2519(3) 0.3098(2)
N5 N -0.2024(4) 0.6267(3) 0.3025(2)
H24 H -0.1983 0.5626 0.3268
N6 N -0.0764(5) 0.5936(4) 0.0647(3)
H25 H -0.0710 0.5837 0.0158
H26 H -0.0877 0.5364 0.0876
C31 C -0.0139(5) 0.3662(4) 0.3068(3)
C32 C 0.0324(4) 0.4235(4) 0.2444(3)
C33 C 0.1391(4) 0.3289(4) 0.2113(3)
C34 C 0.2183(4) 0.3210(4) 0.1507(3)
H27 H 0.2102 0.3881 0.1202
C35 C 0.3100(5) 0.2138(4) 0.1348(3)
H28 H 0.3641 0.2078 0.0927
C36 C 0.3238(5) 0.1157(4) 0.1792(3)
H29 H 0.3891 0.0437 0.1684
C37 C 0.2451(5) 0.1208(4) 0.2380(3)
H30 H 0.2538 0.0530 0.2677
C38 C 0.1529(4) 0.2260(4) 0.2535(3)
C39 C -0.0106(4) 0.5397(4) 0.2234(3)
C40 C -0.1183(4) 0.6343(4) 0.2493(3)
C41 C -0.1571(4) 0.7499(4) 0.2240(3)
H31 H -0.1172 0.7802 0.1869
C42 C -0.2655(5) 0.8130(4) 0.2634(3)
C43 C -0.3481(5) 0.9316(5) 0.2632(3)
H32 H -0.3336 0.9875 0.2309
C44 C -0.4475(5) 0.9635(5) 0.3096(4)
H33 H -0.5018 1.0430 0.3106
C45 C -0.4727(5) 0.8824(6) 0.3564(4)
H34 H -0.5441 0.9086 0.3878
C46 C -0.3984(5) 0.7679(5) 0.3580(3)
H35 H -0.4168 0.7132 0.3890
C47 C -0.2927(4) 0.7342(5) 0.3116(3)
C48 C 0.0620(4) 0.5755(4) 0.1647(3)
C49 C 0.1678(5) 0.5843(4) 0.1879(4)
H36 H 0.1896 0.5712 0.2404
C50 C 0.2401(6) 0.6116(5) 0.1362(4)
H37 H 0.3120 0.6174 0.1524
C51 C 0.2087(6) 0.6303(5) 0.0617(4)
H38 H 0.2605 0.6477 0.0257
C52 C 0.1038(6) 0.6250(4) 0.0361(3)
H39 H 0.0835 0.6400 -0.0166
C53 C 0.0271(5) 0.5974(4) 0.0881(3)
C54 C 0.0391(5) 0.1642(4) 0.3567(3)
H40 H 0.0313 0.1083 0.3224
H41 H -0.0404 0.2024 0.3835
C55 C 0.1348(5) 0.0983(4) 0.4152(3)
C56 C 0.1362(5) -0.0040(4) 0.4470(3)
H42 H 0.0797 -0.0322 0.4301
C57 C 0.2194(5) -0.0656(5) 0.5032(3)
H43 H 0.2203 -0.1366 0.5241
C58 C 0.3003(5) -0.0262(5) 0.5291(3)
H44 H 0.3559 -0.0681 0.5687
C59 C 0.3002(5) 0.0739(4) 0.4975(3)
H45 H 0.3574 0.1011 0.5147
C60 C 0.2179(5) 0.1376(4) 0.4406(3)
H46 H 0.2189 0.2077 0.4192
Cl1 Cl 0.1372(2) 0.52403(19) 0.43138(14)
Cl2 Cl 0.0017(2) 0.7681(2) 0.40760(14)
C61 C 0.0107(8) 0.6370(8) 0.4466(5)
H47 H -0.0021 0.6435 0.5026
H48 H -0.0577 0.6230 0.4262
loop_
_geom_bond_atom_site_label_1
_geom_bond_atom_site_label_2
_geom_bond_site_symmetry_1
_geom_bond_site_symmetry_2
O1 C1 1_555 1_555
N1 C1 1_555 1_555
N2 H1 1_555 1_555
N3 H2 1_555 1_555
H3 N3 1_555 1_555
C1 C2 1_555 1_555
C2 C3 1_555 1_555
C3 C4 1_555 1_555
C4 H4 1_555 1_555
C5 C4 1_555 1_555
H5 C5 1_555 1_555
C6 C5 1_555 1_555
H6 C6 1_555 1_555
C7 C6 1_555 1_555
H7 C7 1_555 1_555
C8 N1 1_555 1_555
C9 C2 1_555 1_555
C10 N2 1_555 1_555
C11 C10 1_555 1_555
H8 C11 1_555 1_555
C12 C11 1_555 1_555
C13 C12 1_555 1_555
H9 C13 1_555 1_555
C14 C13 1_555 1_555
H10 C14 1_555 1_555
C15 C14 1_555 1_555
H11 C15 1_555 1_555
C16 C15 1_555 1_555
H12 C16 1_555 1_555
C17 N2 1_555 1_555
C18 C9 1_555 1_555
C19 C18 1_555 1_555
H13 C19 1_555 1_555
C20 C19 1_555 1_555
H14 C20 1_555 1_555
C21 C20 1_555 1_555
H15 C21 1_555 1_555
C22 C21 1_555 1_555
H16 C22 1_555 1_555
C23 N3 1_555 1_555
C24 N1 1_555 1_555
H17 C24 1_555 1_555
H18 C24 1_555 1_555
C25 C24 1_555 1_555
C26 C25 1_555 1_555
H19 C26 1_555 1_555
C27 C26 1_555 1_555
H20 C27 1_555 1_555
C28 C27 1_555 1_555
H21 C28 1_555 1_555
C29 C28 1_555 1_555
H22 C29 1_555 1_555
C30 C25 1_555 1_555
H23 C30 1_555 1_555
O2 C31 1_555 1_555
N4 C31 1_555 1_555
N5 H24 1_555 1_555
N6 H25 1_555 1_555
H26 N6 1_555 1_555
C31 C32 1_555 1_555
C32 C33 1_555 1_555
C33 C34 1_555 1_555
C34 H27 1_555 1_555
C35 C34 1_555 1_555
H28 C35 1_555 1_555
C36 C35 1_555 1_555
H29 C36 1_555 1_555
C37 C36 1_555 1_555
H30 C37 1_555 1_555
C38 N4 1_555 1_555
C39 C32 1_555 1_555
C40 N5 1_555 1_555
C41 C40 1_555 1_555
H31 C41 1_555 1_555
C42 C41 1_555 1_555
C43 C42 1_555 1_555
H32 C43 1_555 1_555
C44 C43 1_555 1_555
H33 C44 1_555 1_555
C45 C44 1_555 1_555
H34 C45 1_555 1_555
C46 C45 1_555 1_555
H35 C46 1_555 1_555
C47 N5 1_555 1_555
C48 C39 1_555 1_555
C49 C48 1_555 1_555
H36 C49 1_555 1_555
C50 C49 1_555 1_555
H37 C50 1_555 1_555
C51 C50 1_555 1_555
H38 C51 1_555 1_555
C52 C51 1_555 1_555
H39 C52 1_555 1_555
C53 N6 1_555 1_555
C54 N4 1_555 1_555
H40 C54 1_555 1_555
H41 C54 1_555 1_555
C55 C54 1_555 1_555
C56 C55 1_555 1_555
H42 C56 1_555 1_555
C57 C56 1_555 1_555
H43 C57 1_555 1_555
C58 C57 1_555 1_555
H44 C58 1_555 1_555
C59 C58 1_555 1_555
H45 C59 1_555 1_555
C60 C55 1_555 1_555
H46 C60 1_555 1_555
Cl1 C61 1_555 1_555
Cl2 C61 1_555 1_555
C61 H47 1_555 1_555
H48 C61 1_555 1_555
C3 C8 1_555 1_555
C7 C8 1_555 1_555
C9 C10 1_555 1_555
C12 C17 1_555 1_555
C16 C17 1_555 1_555
C18 C23 1_555 1_555
C22 C23 1_555 1_555
C29 C30 1_555 1_555
C33 C38 1_555 1_555
C37 C38 1_555 1_555
C39 C40 1_555 1_555
C42 C47 1_555 1_555
C46 C47 1_555 1_555
C48 C53 1_555 1_555
C52 C53 1_555 1_555
C59 C60 1_555 1_555

#END
