
#######################################################################
#
#                 Cambridge Crystallographic Data Centre
#                                CCDC 
#
#######################################################################
#
# If this CIF has been generated from an entry in the Cambridge 
# Structural Database, then it will include bibliographic, chemical, 
# crystal, experimental, refinement or atomic coordinate data resulting 
# from the CCDC's data processing and validation procedures.
#
#######################################################################

data_UWUTAJ
_chemical_formula_moiety         'C19 H13 N3'
_chemical_name_systematic        2,3-diphenylpyrido[3,4-b]pyrazine
_symmetry_cell_setting           monoclinic
_symmetry_space_group_name_H-M   'P 21/n'
_symmetry_Int_Tables_number      14
_space_group_name_Hall           '-P 2yn'
loop_
_symmetry_equiv_pos_site_id
_symmetry_equiv_pos_as_xyz
1 x,y,z
2 1/2-x,1/2+y,1/2-z
3 -x,-y,-z
4 1/2+x,1/2-y,1/2+z
_cell_length_a                   13.9951(9)
_cell_length_b                   7.1280(4)
_cell_length_c                   14.7290(9)
_cell_angle_alpha                90
_cell_angle_beta                 102.3780(10)
_cell_angle_gamma                90
_cell_volume                     1435.17
_exptl_crystal_colour            colorless
_cell_formula_units_Z            4
loop_
_atom_site_label
_atom_site_type_symbol
_atom_site_fract_x
_atom_site_fract_y
_atom_site_fract_z
N1 N 0.65717(8) 0.07969(15) 0.18255(7)
N2 N 0.39560(8) 0.05833(17) 0.17043(8)
N3 N 0.58639(7) 0.28458(15) 0.01706(7)
C1 C 0.36241(10) 0.1506(2) 0.08812(9)
H1 H 0.2937 0.1648 0.0669
C2 C 0.42170(9) 0.22332(19) 0.03486(9)
H2 H 0.3948 0.2859 -0.0218
C3 C 0.52383(9) 0.20408(18) 0.06532(8)
C4 C 0.55934(9) 0.10897(18) 0.14930(8)
C5 C 0.71724(9) 0.15061(18) 0.13359(8)
C6 C 0.82285(9) 0.10514(18) 0.16583(9)
C7 C 0.88027(10) 0.05081(19) 0.10374(9)
H3 H 0.8522 0.0454 0.0391
C8 C 0.97783(10) 0.0047(2) 0.13571(10)
H4 H 1.0161 -0.0335 0.0930
C9 C 1.01982(10) 0.01415(19) 0.22975(9)
H5 H 1.0869 -0.0167 0.2514
C10 C 0.49079(10) 0.03918(19) 0.19891(9)
H6 H 0.5148 -0.0249 0.2558
C11 C 0.96374(10) 0.0687(2) 0.29212(9)
H7 H 0.9926 0.0767 0.3565
C12 C 0.86560(10) 0.11147(19) 0.26074(9)
H8 H 0.8271 0.1454 0.3040
C13 C 0.68076(9) 0.26313(18) 0.05134(8)
C14 C 0.74729(9) 0.36558(19) 0.00233(9)
C15 C 0.73533(10) 0.3469(2) -0.09387(9)
H9 H 0.6851 0.2684 -0.1274
C16 C 0.79654(10) 0.4425(2) -0.14052(10)
H10 H 0.7889 0.4280 -0.2058
C17 C 0.86881(10) 0.5594(2) -0.09182(11)
H11 H 0.9107 0.6249 -0.1238
C18 C 0.88012(10) 0.5809(2) 0.00345(11)
H12 H 0.9293 0.6621 0.0365
C19 C 0.81981(9) 0.48411(19) 0.05077(10)
H13 H 0.8280 0.4986 0.1161
loop_
_geom_bond_atom_site_label_1
_geom_bond_atom_site_label_2
_geom_bond_site_symmetry_1
_geom_bond_site_symmetry_2
N1 C4 1_555 1_555
N2 C1 1_555 1_555
N3 C3 1_555 1_555
C1 H1 1_555 1_555
C2 C1 1_555 1_555
H2 C2 1_555 1_555
C3 C2 1_555 1_555
C4 C3 1_555 1_555
C5 N1 1_555 1_555
C6 C5 1_555 1_555
C7 C6 1_555 1_555
H3 C7 1_555 1_555
C8 C7 1_555 1_555
H4 C8 1_555 1_555
C9 C8 1_555 1_555
H5 C9 1_555 1_555
C10 N2 1_555 1_555
H6 C10 1_555 1_555
C11 C9 1_555 1_555
H7 C11 1_555 1_555
C12 C6 1_555 1_555
H8 C12 1_555 1_555
C13 N3 1_555 1_555
C14 C13 1_555 1_555
C15 C14 1_555 1_555
H9 C15 1_555 1_555
C16 C15 1_555 1_555
H10 C16 1_555 1_555
C17 C16 1_555 1_555
H11 C17 1_555 1_555
C18 C17 1_555 1_555
H12 C18 1_555 1_555
C19 C14 1_555 1_555
H13 C19 1_555 1_555
C4 C10 1_555 1_555
C5 C13 1_555 1_555
C11 C12 1_555 1_555
C18 C19 1_555 1_555

#END
