
#######################################################################
#
#                 Cambridge Crystallographic Data Centre
#                                CCDC 
#
#######################################################################
#
# If this CIF has been generated from an entry in the Cambridge 
# Structural Database, then it will include bibliographic, chemical, 
# crystal, experimental, refinement or atomic coordinate data resulting 
# from the CCDC's data processing and validation procedures.
#
#######################################################################

data_UWUTAI
_chemical_formula_moiety         'C15 H16 Br1 N3 O3'
_chemical_name_systematic        
't-Butyl (2-amino-6-bromo-3-cyano-4H-chromen-4-yl)carbamate'
_symmetry_cell_setting           orthorhombic
_symmetry_space_group_name_H-M   'P 21 21 21'
_symmetry_Int_Tables_number      19
_space_group_name_Hall           'P 2ac 2ab'
loop_
_symmetry_equiv_pos_site_id
_symmetry_equiv_pos_as_xyz
1 x,y,z
2 1/2-x,-y,1/2+z
3 -x,1/2+y,1/2-z
4 1/2+x,1/2-y,-z
_cell_length_a                   5.3714(4)
_cell_length_b                   16.8874(11)
_cell_length_c                   17.4864(12)
_cell_angle_alpha                90
_cell_angle_beta                 90
_cell_angle_gamma                90
_cell_volume                     1586.17
_exptl_crystal_colour            colorless
_exptl_crystal_description       rod
_cell_formula_units_Z            4
loop_
_atom_site_label
_atom_site_type_symbol
_atom_site_fract_x
_atom_site_fract_y
_atom_site_fract_z
Br1 Br 0.16004(9) 0.28791(2) 0.30179(2)
O1 O -0.4676(5) 0.55669(13) 0.18432(13)
O2 O 0.3742(6) 0.44528(17) 0.01534(16)
O3 O 0.0942(5) 0.38624(16) -0.06475(15)
N1 N -0.5508(7) 0.66437(18) 0.11637(19)
H1 H -0.514(9) 0.6997(19) 0.0806(17)
H2 H -0.660(7) 0.672(2) 0.1534(19)
N2 N -0.0692(8) 0.6879(2) -0.0210(2)
N3 N -0.0441(6) 0.46313(19) 0.02711(18)
H3 H -0.191(5) 0.445(2) 0.012(2)
C1 C -0.3148(7) 0.49478(18) 0.2076(2)
C2 C -0.3851(8) 0.4579(2) 0.2742(2)
H4 H -0.5284 0.4744 0.3006
C3 C -0.2423(7) 0.3960(2) 0.3019(2)
H5 H -0.2878 0.3697 0.3472
C4 C -0.0329(8) 0.3737(2) 0.2623(2)
C5 C 0.0376(7) 0.40992(19) 0.1954(2)
H6 H 0.1798 0.3925 0.1690
C6 C -0.1039(7) 0.47309(19) 0.16671(19)
C7 C -0.0286(7) 0.51470(19) 0.0937(2)
H7 H 0.1472 0.5313 0.0994
C8 C -0.1839(8) 0.58858(18) 0.08422(19)
C9 C -0.3914(7) 0.60370(19) 0.1259(2)
C10 C -0.1181(8) 0.6434(2) 0.0253(2)
C11 C 0.1604(8) 0.4326(2) -0.0057(2)
C12 C 0.2826(8) 0.3440(2) -0.1115(2)
C13 C 0.4447(9) 0.2908(3) -0.0629(2)
H8 H 0.5579 0.3230 -0.0329
H9 H 0.5397 0.2557 -0.0958
H10 H 0.3407 0.2597 -0.0290
C14 C 0.4419(9) 0.4034(3) -0.1556(3)
H11 H 0.3356 0.4358 -0.1877
H12 H 0.5606 0.3751 -0.1873
H13 H 0.5307 0.4370 -0.1198
C15 C 0.1191(9) 0.2966(3) -0.1647(3)
H14 H 0.0178 0.2602 -0.1351
H15 H 0.2224 0.2670 -0.2000
H16 H 0.0118 0.3323 -0.1931
loop_
_geom_bond_atom_site_label_1
_geom_bond_atom_site_label_2
_geom_bond_site_symmetry_1
_geom_bond_site_symmetry_2
Br1 C4 1_555 1_555
O1 C1 1_555 1_555
O2 C11 1_555 1_555
O3 C11 1_555 1_555
N1 H1 1_555 1_555
H2 N1 1_555 1_555
N2 C10 1_555 1_555
N3 H3 1_555 1_555
C1 C2 1_555 1_555
C2 H4 1_555 1_555
C3 C2 1_555 1_555
H5 C3 1_555 1_555
C4 C3 1_555 1_555
C5 C4 1_555 1_555
H6 C5 1_555 1_555
C6 C1 1_555 1_555
C7 N3 1_555 1_555
H7 C7 1_555 1_555
C8 C7 1_555 1_555
C9 O1 1_555 1_555
C10 C8 1_555 1_555
C11 N3 1_555 1_555
C12 O3 1_555 1_555
C13 C12 1_555 1_555
H8 C13 1_555 1_555
H9 C13 1_555 1_555
H10 C13 1_555 1_555
C14 C12 1_555 1_555
H11 C14 1_555 1_555
H12 C14 1_555 1_555
H13 C14 1_555 1_555
C15 C12 1_555 1_555
H14 C15 1_555 1_555
H15 C15 1_555 1_555
H16 C15 1_555 1_555
N1 C9 1_555 1_555
C5 C6 1_555 1_555
C6 C7 1_555 1_555
C8 C9 1_555 1_555

#END
