
#######################################################################
#
#                 Cambridge Crystallographic Data Centre
#                                CCDC 
#
#######################################################################
#
# If this CIF has been generated from an entry in the Cambridge 
# Structural Database, then it will include bibliographic, chemical, 
# crystal, experimental, refinement or atomic coordinate data resulting 
# from the CCDC's data processing and validation procedures.
#
#######################################################################

data_UXAFEG
_chemical_formula_moiety         'C22 H22 N2 O6'
_chemical_name_systematic        
3a-hydroxy-7a-methyl-4,6-dinitro-5,7-diphenyloctahydro-1H-inden-1-one
_symmetry_cell_setting           monoclinic
_symmetry_space_group_name_H-M   'P 21/c'
_symmetry_Int_Tables_number      14
_space_group_name_Hall           '-P 2ybc'
loop_
_symmetry_equiv_pos_site_id
_symmetry_equiv_pos_as_xyz
1 x,y,z
2 -x,1/2+y,1/2-z
3 -x,-y,-z
4 x,1/2-y,1/2+z
_cell_length_a                   11.4563(7)
_cell_length_b                   6.7710(4)
_cell_length_c                   25.4114(15)
_cell_angle_alpha                90
_cell_angle_beta                 93.8075(14)
_cell_angle_gamma                90
_cell_volume                     1966.83
_exptl_crystal_colour            colorless
_exptl_crystal_description       plate
_cell_formula_units_Z            4
loop_
_atom_site_label
_atom_site_type_symbol
_atom_site_fract_x
_atom_site_fract_y
_atom_site_fract_z
O1 O 0.54065(13) -0.0499(2) 0.12294(6)
O2 O 0.42600(12) 0.61284(18) 0.08705(5)
H1 H 0.4578 0.7186 0.0977
O3 O 0.13121(14) -0.0623(2) 0.11933(6)
O4 O 0.06561(13) 0.2366(2) 0.11876(6)
O5 O 0.48775(15) 0.6198(2) 0.23931(6)
O6 O 0.35752(14) 0.7671(2) 0.18804(7)
N1 N 0.14411(15) 0.1158(3) 0.12407(6)
N2 N 0.41631(14) 0.6239(2) 0.20144(6)
C1 C 0.54335(17) 0.1270(3) 0.12081(8)
C2 C 0.63837(18) 0.2558(3) 0.14644(9)
H2 H 0.7146 0.2265 0.1319
H3 H 0.6456 0.2341 0.1850
C3 C 0.60081(17) 0.4683(3) 0.13375(8)
H4 H 0.6429 0.5208 0.1040
H5 H 0.6168 0.5548 0.1648
C4 C 0.46866(16) 0.4558(3) 0.11892(7)
C5 C 0.45410(17) 0.2570(3) 0.08902(7)
C6 C 0.33056(16) 0.1649(3) 0.08307(7)
H6 H 0.3436 0.0198 0.0791
C7 C 0.26837(16) 0.1873(3) 0.13485(7)
H7 H 0.3076 0.0954 0.1613
C8 C 0.27051(16) 0.3919(3) 0.15928(7)
H8 H 0.2344 0.4890 0.1334
C9 C 0.40131(16) 0.4372(2) 0.16954(7)
H9 H 0.4373 0.3267 0.1911
C10 C 0.25320(17) 0.2254(3) 0.03452(7)
C11 C 0.2068(2) 0.0750(3) 0.00241(9)
H10 H 0.2277 -0.0581 0.0101
C12 C 0.1304(2) 0.1163(4) -0.04070(10)
H11 H 0.0985 0.0115 -0.0619
C13 C 0.1007(2) 0.3071(4) -0.05288(9)
H12 H 0.0490 0.3352 -0.0827
C14 C 0.1462(2) 0.4585(4) -0.02164(9)
H13 H 0.1257 0.5913 -0.0300
C15 C 0.22164(19) 0.4183(3) 0.02188(8)
H14 H 0.2521 0.5238 0.0433
C16 C 0.20872(16) 0.4019(3) 0.21055(7)
C17 C 0.13456(18) 0.5583(3) 0.21912(8)
H15 H 0.1187 0.6532 0.1921
C18 C 0.0832(2) 0.5782(4) 0.26664(9)
H16 H 0.0333 0.6872 0.2723
C19 C 0.10467(18) 0.4392(4) 0.30566(8)
H17 H 0.0696 0.4523 0.3383
C20 C 0.1766(2) 0.2821(4) 0.29738(9)
H18 H 0.1903 0.1856 0.3242
C21 C 0.22964(18) 0.2628(3) 0.25016(8)
H19 H 0.2803 0.1545 0.2449
C22 C 0.5048(2) 0.2700(3) 0.03452(8)
H20 H 0.5866 0.3132 0.0388
H21 H 0.4594 0.3651 0.0125
H22 H 0.5008 0.1398 0.0176
loop_
_geom_bond_atom_site_label_1
_geom_bond_atom_site_label_2
_geom_bond_site_symmetry_1
_geom_bond_site_symmetry_2
O1 C1 1_555 1_555
O2 H1 1_555 1_555
O3 N1 1_555 1_555
O4 N1 1_555 1_555
O5 N2 1_555 1_555
O6 N2 1_555 1_555
N1 C7 1_555 1_555
N2 C9 1_555 1_555
C1 C2 1_555 1_555
C2 H2 1_555 1_555
H3 C2 1_555 1_555
C3 C2 1_555 1_555
H4 C3 1_555 1_555
H5 C3 1_555 1_555
C4 O2 1_555 1_555
C5 C1 1_555 1_555
C6 C5 1_555 1_555
H6 C6 1_555 1_555
C7 C6 1_555 1_555
H7 C7 1_555 1_555
C8 C7 1_555 1_555
H8 C8 1_555 1_555
C9 C4 1_555 1_555
H9 C9 1_555 1_555
C10 C6 1_555 1_555
C11 C10 1_555 1_555
H10 C11 1_555 1_555
C12 C11 1_555 1_555
H11 C12 1_555 1_555
C13 C12 1_555 1_555
H12 C13 1_555 1_555
C14 C13 1_555 1_555
H13 C14 1_555 1_555
C15 C10 1_555 1_555
H14 C15 1_555 1_555
C16 C8 1_555 1_555
C17 C16 1_555 1_555
H15 C17 1_555 1_555
C18 C17 1_555 1_555
H16 C18 1_555 1_555
C19 C18 1_555 1_555
H17 C19 1_555 1_555
C20 C19 1_555 1_555
H18 C20 1_555 1_555
C21 C16 1_555 1_555
H19 C21 1_555 1_555
C22 C5 1_555 1_555
H20 C22 1_555 1_555
H21 C22 1_555 1_555
H22 C22 1_555 1_555
C3 C4 1_555 1_555
C4 C5 1_555 1_555
C8 C9 1_555 1_555
C14 C15 1_555 1_555
C20 C21 1_555 1_555

#END
