
#######################################################################
#
#                 Cambridge Crystallographic Data Centre
#                                CCDC 
#
#######################################################################
#
# If this CIF has been generated from an entry in the Cambridge 
# Structural Database, then it will include bibliographic, chemical, 
# crystal, experimental, refinement or atomic coordinate data resulting 
# from the CCDC's data processing and validation procedures.
#
#######################################################################

data_UXASUI
_chemical_formula_moiety         'C17 H15 N3 O2'
_chemical_name_systematic        2-(2-Aminophenoxy)-N-(quinolin-8-yl)acetamide
_symmetry_cell_setting           monoclinic
_symmetry_space_group_name_H-M   'P 21/c'
_symmetry_Int_Tables_number      14
_space_group_name_Hall           '-P 2ybc'
loop_
_symmetry_equiv_pos_site_id
_symmetry_equiv_pos_as_xyz
1 x,y,z
2 -x,1/2+y,1/2-z
3 -x,-y,-z
4 x,1/2-y,1/2+z
_cell_length_a                   15.022(6)
_cell_length_b                   5.256(2)
_cell_length_c                   20.586(7)
_cell_angle_alpha                90
_cell_angle_beta                 117.58(2)
_cell_angle_gamma                90
_cell_volume                     1440.68
_exptl_crystal_colour            colorless
_exptl_crystal_description       block
_cell_formula_units_Z            4
loop_
_atom_site_label
_atom_site_type_symbol
_atom_site_fract_x
_atom_site_fract_y
_atom_site_fract_z
C1 C 0.2905(5) 0.2282(11) 0.3578(3)
C2 C 0.3847(5) 0.1830(14) 0.4156(3)
C3 C 0.4625(5) 0.3243(12) 0.4231(3)
C4 C 0.4490(4) 0.5165(10) 0.3705(2)
C5 C 0.5266(4) 0.6766(12) 0.3745(3)
C6 C 0.5066(4) 0.8563(13) 0.3219(3)
C7 C 0.4095(4) 0.8914(12) 0.2665(3)
C8 C 0.3332(4) 0.7393(9) 0.2599(2)
C9 C 0.3511(3) 0.5460(9) 0.3145(2)
C10 C 0.1881(4) 0.9155(11) 0.1488(2)
C11 C 0.0798(3) 0.8584(9) 0.1018(2)
H1 H 0.0411 1.0145 0.0914
H2 H 0.0703 0.7864 0.0557
C12 C -0.0422(3) 0.5519(9) 0.1002(2)
C13 C -0.1155(4) 0.6081(12) 0.0296(3)
C14 C -0.2009(4) 0.4626(14) -0.0029(3)
C15 C -0.2140(4) 0.2644(14) 0.0331(4)
C16 C -0.1414(4) 0.2058(12) 0.1052(3)
C17 C -0.0565(4) 0.3513(10) 0.1383(2)
N1 N 0.2715(3) 0.4017(8) 0.30611(18)
N2 N 0.2340(3) 0.7542(9) 0.2062(2)
O1 O 0.2297(3) 1.0893(7) 0.13497(16)
O2 O 0.0452(2) 0.6839(6) 0.13783(14)
N3 N 0.0170(3) 0.3009(7) 0.21070(18)
H3 H 0.0088 0.1771 0.2347
H4 H 0.0700 0.3939 0.2308
H5 H 0.236(3) 0.124(7) 0.3449(18)
H6 H 0.533(4) 0.287(9) 0.460(3)
H7 H 0.393(3) 0.043(10) 0.447(3)
H8 H 0.596(3) 0.652(9) 0.408(2)
H9 H 0.564(3) 0.972(8) 0.329(2)
H10 H 0.387(3) 1.008(8) 0.230(2)
H11 H 0.194(3) 0.628(8) 0.205(2)
H12 H -0.274(3) 0.151(8) 0.014(2)
H13 H -0.249(4) 0.506(9) -0.052(3)
H14 H -0.106(2) 0.755(7) 0.0095(19)
H15 H -0.152(4) 0.060(11) 0.129(3)
loop_
_geom_bond_atom_site_label_1
_geom_bond_atom_site_label_2
_geom_bond_site_symmetry_1
_geom_bond_site_symmetry_2
C1 C2 1_555 1_555
C2 C3 1_555 1_555
C3 C4 1_555 1_555
C4 C5 1_555 1_555
C5 C6 1_555 1_555
C6 C7 1_555 1_555
C7 C8 1_555 1_555
C8 C9 1_555 1_555
C9 C4 1_555 1_555
C10 C11 1_555 1_555
C11 H1 1_555 1_555
H2 C11 1_555 1_555
C12 C13 1_555 1_555
C13 C14 1_555 1_555
C14 C15 1_555 1_555
C15 C16 1_555 1_555
C16 C17 1_555 1_555
C17 C12 1_555 1_555
N1 C1 1_555 1_555
N2 C8 1_555 1_555
O1 C10 1_555 1_555
O2 C11 1_555 1_555
N3 C17 1_555 1_555
H3 N3 1_555 1_555
H4 N3 1_555 1_555
H5 C1 1_555 1_555
H6 C3 1_555 1_555
H7 C2 1_555 1_555
H8 C5 1_555 1_555
H9 C6 1_555 1_555
H10 C7 1_555 1_555
H11 N2 1_555 1_555
H12 C15 1_555 1_555
H13 C14 1_555 1_555
H14 C13 1_555 1_555
H15 C16 1_555 1_555
C9 N1 1_555 1_555
C10 N2 1_555 1_555
C12 O2 1_555 1_555

#END
