
#######################################################################
#
#                 Cambridge Crystallographic Data Centre
#                                CCDC 
#
#######################################################################
#
# If this CIF has been generated from an entry in the Cambridge 
# Structural Database, then it will include bibliographic, chemical, 
# crystal, experimental, refinement or atomic coordinate data resulting 
# from the CCDC's data processing and validation procedures.
#
#######################################################################

data_UXATAP
_chemical_formula_moiety         'C35 H35 N2 P1'
_chemical_name_systematic        
N-(2-(N-Mesityl-P,P-diphenylphosphorimidoyl)phenyl)-2,6-dimethylaniline
_symmetry_cell_setting           monoclinic
_symmetry_space_group_name_H-M   'P 21/a'
_symmetry_Int_Tables_number      14
_space_group_name_Hall           '-P 2yab'
loop_
_symmetry_equiv_pos_site_id
_symmetry_equiv_pos_as_xyz
1 x,y,z
2 1/2-x,1/2+y,-z
3 -x,-y,-z
4 1/2+x,1/2-y,z
_cell_length_a                   13.4638(2)
_cell_length_b                   16.6891(3)
_cell_length_c                   14.0599(3)
_cell_angle_alpha                90
_cell_angle_beta                 115.171(1)
_cell_angle_gamma                90
_cell_volume                     2859.25
_exptl_crystal_colour            'pale yellow'
_exptl_crystal_description       prism
_cell_formula_units_Z            4
loop_
_atom_site_label
_atom_site_type_symbol
_atom_site_fract_x
_atom_site_fract_y
_atom_site_fract_z
C1 C 0.32261(19) 0.12852(15) 0.96658(19)
C2 C 0.4137(2) 0.09897(16) 1.0531(2)
H1 H 0.4198 0.0432 1.0679
C3 C 0.4946(2) 0.15052(16) 1.1172(2)
H2 H 0.5561 0.1300 1.1759
C4 C 0.4867(2) 0.23154(17) 1.0964(2)
H3 H 0.5425 0.2667 1.1410
C5 C 0.3976(2) 0.26183(16) 1.0106(2)
H4 H 0.3928 0.3176 0.9958
C6 C 0.3155(2) 0.21065(16) 0.9464(2)
H5 H 0.2539 0.2316 0.8882
C7 C 0.1004(2) 0.11713(16) 0.7987(2)
C8 C 0.0122(2) 0.13137(19) 0.8229(2)
H6 H 0.0122 0.1097 0.8854
C9 C -0.0760(3) 0.1772(2) 0.7561(3)
H7 H -0.1356 0.1875 0.7735
C10 C -0.0771(3) 0.2076(2) 0.6644(3)
H8 H -0.1376 0.2391 0.6190
C11 C 0.0088(3) 0.19273(19) 0.6382(3)
H9 H 0.0073 0.2133 0.5746
C12 C 0.0977(2) 0.14755(17) 0.7051(2)
H10 H 0.1570 0.1373 0.6871
C13 C 0.26356(19) 0.01063(15) 0.79931(19)
C14 C 0.3500(2) 0.04362(17) 0.7818(2)
H11 H 0.3924 0.0858 0.8256
C15 C 0.3747(2) 0.01553(18) 0.7015(2)
H12 H 0.4344 0.0374 0.6910
C16 C 0.3111(2) -0.04469(18) 0.6369(2)
H13 H 0.3259 -0.0627 0.5801
C17 C 0.2266(2) -0.07935(17) 0.6533(2)
H14 H 0.1847 -0.1212 0.6083
C18 C 0.20189(19) -0.05362(15) 0.73535(19)
C19 C 0.0411(2) -0.14464(16) 0.68558(19)
C20 C -0.0624(2) -0.11464(17) 0.6189(2)
C21 C -0.0848(3) -0.02617(19) 0.6103(3)
H15 H -0.1611 -0.0165 0.5605
H16 H -0.0354 0.0006 0.5854
H17 H -0.0724 -0.0048 0.6794
C22 C -0.1436(2) -0.16918(19) 0.5597(2)
H18 H -0.2149 -0.1503 0.5151
C23 C -0.1219(3) -0.2500(2) 0.5650(2)
H19 H -0.1786 -0.2865 0.5256
C24 C -0.0179(2) -0.27822(19) 0.6274(2)
H20 H -0.0031 -0.3339 0.6284
C25 C 0.0657(2) -0.22605(17) 0.6889(2)
C26 C 0.1775(2) -0.25869(18) 0.7571(2)
H21 H 0.2262 -0.2146 0.7954
H22 H 0.2074 -0.2856 0.7130
H23 H 0.1719 -0.2971 0.8073
C27 C 0.23083(19) -0.02283(14) 1.05912(19)
C28 C 0.3080(2) -0.08574(15) 1.0909(2)
C29 C 0.3402(2) -0.12657(18) 1.0130(2)
H24 H 0.2975 -0.1042 0.9429
H25 H 0.3256 -0.1841 1.0123
H26 H 0.4186 -0.1180 1.0331
C30 C 0.3580(2) -0.10801(16) 1.1960(2)
H27 H 0.4086 -0.1513 1.2160
C31 C 0.3369(2) -0.06943(18) 1.2725(2)
C32 C 0.3952(3) -0.0926(2) 1.3873(3)
H28 H 0.3690 -0.0586 1.4288
H29 H 0.4744 -0.0852 1.4116
H30 H 0.3798 -0.1488 1.3957
C33 C 0.2604(2) -0.00815(18) 1.2404(2)
H31 H 0.2448 0.0191 1.2918
C34 C 0.2055(2) 0.01504(16) 1.1357(2)
C35 C 0.1201(3) 0.08000(18) 1.1058(2)
H32 H 0.0896 0.0892 1.0298
H33 H 0.1538 0.1295 1.1429
H34 H 0.0613 0.0636 1.1251
N1 N 0.12010(17) -0.08930(13) 0.75473(16)
H35 H 0.1161 -0.0772 0.8139
N2 N 0.17563(16) 0.00106(13) 0.95290(16)
P1 P 0.21612(5) 0.05852(4) 0.88862(5)
loop_
_geom_bond_atom_site_label_1
_geom_bond_atom_site_label_2
_geom_bond_site_symmetry_1
_geom_bond_site_symmetry_2
C1 C2 1_555 1_555
C2 H1 1_555 1_555
C3 C2 1_555 1_555
H2 C3 1_555 1_555
C4 C3 1_555 1_555
H3 C4 1_555 1_555
C5 C4 1_555 1_555
H4 C5 1_555 1_555
C6 C1 1_555 1_555
H5 C6 1_555 1_555
C7 C8 1_555 1_555
C8 H6 1_555 1_555
C9 C8 1_555 1_555
H7 C9 1_555 1_555
C10 C9 1_555 1_555
H8 C10 1_555 1_555
C11 C10 1_555 1_555
H9 C11 1_555 1_555
C12 C7 1_555 1_555
H10 C12 1_555 1_555
C13 C14 1_555 1_555
C14 H11 1_555 1_555
C15 C14 1_555 1_555
H12 C15 1_555 1_555
C16 C15 1_555 1_555
H13 C16 1_555 1_555
C17 C16 1_555 1_555
H14 C17 1_555 1_555
C18 C13 1_555 1_555
C19 C20 1_555 1_555
C20 C21 1_555 1_555
C21 H15 1_555 1_555
H16 C21 1_555 1_555
H17 C21 1_555 1_555
C22 C20 1_555 1_555
H18 C22 1_555 1_555
C23 C22 1_555 1_555
H19 C23 1_555 1_555
C24 C23 1_555 1_555
H20 C24 1_555 1_555
C25 C19 1_555 1_555
C26 C25 1_555 1_555
H21 C26 1_555 1_555
H22 C26 1_555 1_555
H23 C26 1_555 1_555
C27 C28 1_555 1_555
C28 C29 1_555 1_555
C29 H24 1_555 1_555
H25 C29 1_555 1_555
H26 C29 1_555 1_555
C30 C28 1_555 1_555
H27 C30 1_555 1_555
C31 C30 1_555 1_555
C32 C31 1_555 1_555
H28 C32 1_555 1_555
H29 C32 1_555 1_555
H30 C32 1_555 1_555
C33 C31 1_555 1_555
H31 C33 1_555 1_555
C34 C27 1_555 1_555
C35 C34 1_555 1_555
H32 C35 1_555 1_555
H33 C35 1_555 1_555
H34 C35 1_555 1_555
N1 C18 1_555 1_555
H35 N1 1_555 1_555
N2 C27 1_555 1_555
P1 C1 1_555 1_555
C5 C6 1_555 1_555
C7 P1 1_555 1_555
C11 C12 1_555 1_555
C13 P1 1_555 1_555
C17 C18 1_555 1_555
C19 N1 1_555 1_555
C24 C25 1_555 1_555
C33 C34 1_555 1_555
N2 P1 1_555 1_555

#END
