
#######################################################################
#
#                 Cambridge Crystallographic Data Centre
#                                CCDC 
#
#######################################################################
#
# If this CIF has been generated from an entry in the Cambridge 
# Structural Database, then it will include bibliographic, chemical, 
# crystal, experimental, refinement or atomic coordinate data resulting 
# from the CCDC's data processing and validation procedures.
#
#######################################################################

data_UXEFUA
_chemical_formula_moiety         'C22 H30 O6'
_chemical_name_systematic        
'7,14-dihydroxy-15-oxo-7,20-epoxykaur-16-en-1-yl acetate'
_symmetry_cell_setting           monoclinic
_symmetry_space_group_name_H-M   'P 21'
_symmetry_Int_Tables_number      4
_space_group_name_Hall           'P 2yb'
loop_
_symmetry_equiv_pos_site_id
_symmetry_equiv_pos_as_xyz
1 x,y,z
2 -x,1/2+y,-z
_cell_length_a                   11.1339(16)
_cell_length_b                   6.1262(9)
_cell_length_c                   14.771(2)
_cell_angle_alpha                90
_cell_angle_beta                 103.567(5)
_cell_angle_gamma                90
_cell_volume                     979.395
_exptl_crystal_colour            colorless
_exptl_crystal_description       Block
_cell_formula_units_Z            2
loop_
_atom_site_label
_atom_site_type_symbol
_atom_site_fract_x
_atom_site_fract_y
_atom_site_fract_z
H1 H 0.681(2) -0.002(5) 0.8658(15)
H2 H 1.023(2) 0.494(4) 0.6636(15)
H3 H 0.7159(16) 0.103(4) 0.7086(13)
H4 H 0.524(2) 0.087(5) 0.7013(16)
H5 H 0.8601(19) 0.637(4) 0.7455(16)
C1 C 0.64931(19) 0.1376(4) 0.88054(15)
C2 C 0.5335(2) 0.1103(5) 0.91718(17)
H6 H 0.5138 0.2483 0.9425
H7 H 0.5493 0.0041 0.9673
C3 C 0.4238(2) 0.0359(5) 0.84190(18)
H8 H 0.3529 0.0172 0.8688
H9 H 0.4425 -0.1046 0.8182
C4 C 0.39092(18) 0.1992(4) 0.76080(16)
C5 C 0.50934(17) 0.2335(4) 0.72359(14)
C6 C 0.49179(18) 0.4008(4) 0.64329(15)
H10 H 0.4815 0.3244 0.5845
H11 H 0.4178 0.4860 0.6412
C7 C 0.60265(18) 0.5519(4) 0.65697(14)
C8 C 0.72397(16) 0.4299(4) 0.66275(14)
C9 C 0.73640(16) 0.2468(4) 0.74068(14)
C10 C 0.63299(17) 0.2880(4) 0.79518(14)
C11 C 0.86840(17) 0.2321(5) 0.80178(15)
H12 H 0.8819 0.3528 0.8455
H13 H 0.8766 0.0977 0.8374
C12 C 0.96806(17) 0.2377(5) 0.74568(16)
H14 H 0.9737 0.0951 0.7184
H15 H 1.0474 0.2700 0.7872
C13 C 0.93926(17) 0.4115(5) 0.66721(16)
C14 C 0.84205(18) 0.5748(4) 0.68369(16)
C15 C 0.73804(18) 0.3206(4) 0.57289(15)
C16 C 0.87304(19) 0.3098(4) 0.57614(16)
C17 C 0.9169(2) 0.2282(6) 0.50844(18)
H16 H 0.8632 0.1737 0.4553
H17 H 1.0017 0.2249 0.5135
C18 C 0.3362(2) 0.4078(5) 0.79217(18)
H18 H 0.3163 0.5085 0.7411
H19 H 0.3955 0.4731 0.8427
H20 H 0.2627 0.3723 0.8124
C19 C 0.2924(2) 0.0970(6) 0.6814(2)
H21 H 0.3243 -0.0347 0.6608
H22 H 0.2714 0.1981 0.6305
H23 H 0.2199 0.0638 0.7035
C20 C 0.8220(2) 0.1062(6) 1.01419(18)
C21 C 0.9078(3) 0.2376(8) 1.0856(2)
H24 H 0.8891 0.3898 1.0750
H25 H 0.9913 0.2106 1.0814
H26 H 0.8986 0.1975 1.1464
C22 C 0.63971(18) 0.5281(4) 0.82340(14)
H27 H 0.5813 0.5559 0.8615
H28 H 0.7219 0.5607 0.8604
O1 O 0.74278(14) 0.2354(3) 0.95583(10)
O2 O 0.8217(2) -0.0885(5) 1.00842(15)
O3 O 0.61229(14) 0.6688(3) 0.74325(10)
O4 O 0.58883(14) 0.7132(3) 0.58824(11)
H29 H 0.5141(16) 0.722(6) 0.5609(17)
O5 O 0.83603(16) 0.7470(3) 0.61875(13)
H30 H 0.7621(18) 0.783(6) 0.5980(19)
O6 O 0.65672(14) 0.2489(4) 0.51043(11)
loop_
_geom_bond_atom_site_label_1
_geom_bond_atom_site_label_2
_geom_bond_site_symmetry_1
_geom_bond_site_symmetry_2
H1 C1 1_555 1_555
H2 C13 1_555 1_555
H3 C9 1_555 1_555
H4 C5 1_555 1_555
H5 C14 1_555 1_555
C1 C2 1_555 1_555
C2 H6 1_555 1_555
H7 C2 1_555 1_555
C3 C2 1_555 1_555
H8 C3 1_555 1_555
H9 C3 1_555 1_555
C4 C3 1_555 1_555
C5 C4 1_555 1_555
C6 C5 1_555 1_555
H10 C6 1_555 1_555
H11 C6 1_555 1_555
C7 C6 1_555 1_555
C8 C7 1_555 1_555
C9 C8 1_555 1_555
C10 C1 1_555 1_555
C11 C9 1_555 1_555
H12 C11 1_555 1_555
H13 C11 1_555 1_555
C12 C11 1_555 1_555
H14 C12 1_555 1_555
H15 C12 1_555 1_555
C13 C12 1_555 1_555
C14 C8 1_555 1_555
C15 C8 1_555 1_555
C16 C13 1_555 1_555
C17 C16 1_555 1_555
H16 C17 1_555 1_555
H17 C17 1_555 1_555
C18 C4 1_555 1_555
H18 C18 1_555 1_555
H19 C18 1_555 1_555
H20 C18 1_555 1_555
C19 C4 1_555 1_555
H21 C19 1_555 1_555
H22 C19 1_555 1_555
H23 C19 1_555 1_555
C20 C21 1_555 1_555
C21 H24 1_555 1_555
H25 C21 1_555 1_555
H26 C21 1_555 1_555
C22 C10 1_555 1_555
H27 C22 1_555 1_555
H28 C22 1_555 1_555
O1 C1 1_555 1_555
O2 C20 1_555 1_555
O3 C7 1_555 1_555
O4 C7 1_555 1_555
H29 O4 1_555 1_555
O5 C14 1_555 1_555
H30 O5 1_555 1_555
O6 C15 1_555 1_555
C5 C10 1_555 1_555
C9 C10 1_555 1_555
C13 C14 1_555 1_555
C15 C16 1_555 1_555
C20 O1 1_555 1_555
C22 O3 1_555 1_555

#END
