
#######################################################################
#
#                 Cambridge Crystallographic Data Centre
#                                CCDC 
#
#######################################################################
#
# If this CIF has been generated from an entry in the Cambridge 
# Structural Database, then it will include bibliographic, chemical, 
# crystal, experimental, refinement or atomic coordinate data resulting 
# from the CCDC's data processing and validation procedures.
#
#######################################################################

data_UXEQOF
_chemical_formula_moiety         'C18 H16 O1 S1'
_chemical_name_systematic        
2-(4-methylphenyl)-3-(methylsulfanyl)-5-phenylfuran
_symmetry_cell_setting           orthorhombic
_symmetry_space_group_name_H-M   'P b c a'
_symmetry_Int_Tables_number      61
_space_group_name_Hall           '-P 2ac 2ab'
loop_
_symmetry_equiv_pos_site_id
_symmetry_equiv_pos_as_xyz
1 x,y,z
2 1/2-x,-y,1/2+z
3 1/2+x,1/2-y,-z
4 -x,1/2+y,1/2-z
5 -x,-y,-z
6 1/2+x,y,1/2-z
7 1/2-x,1/2+y,z
8 x,1/2-y,1/2+z
_cell_length_a                   11.1348(9)
_cell_length_b                   10.8734(10)
_cell_length_c                   24.741(2)
_cell_angle_alpha                90
_cell_angle_beta                 90
_cell_angle_gamma                90
_cell_volume                     2995.47
_exptl_crystal_colour            colorless
_exptl_crystal_description       block
_cell_formula_units_Z            8
loop_
_atom_site_label
_atom_site_type_symbol
_atom_site_fract_x
_atom_site_fract_y
_atom_site_fract_z
S1 S 0.33111(11) 0.05459(14) 0.34597(6)
O1 O -0.0034(3) -0.0121(3) 0.38708(12)
C1 C -0.0918(4) -0.1777(4) 0.33634(19)
C2 C 0.0110(5) -0.1009(4) 0.34812(19)
C3 C 0.1037(4) 0.0518(4) 0.39169(18)
C4 C 0.1057(4) 0.1485(4) 0.43175(19)
C5 C 0.1835(4) 0.0030(4) 0.35504(18)
C6 C -0.0861(5) -0.2694(5) 0.2979(2)
H1 H -0.0144 -0.2815 0.2794
C7 C 0.1100(5) 0.3376(5) 0.5101(2)
C8 C 0.1969(4) 0.3287(5) 0.4711(2)
H2 H 0.2589 0.3859 0.4704
C9 C 0.1228(5) -0.0931(4) 0.32808(19)
H3 H 0.1548 -0.1427 0.3010
C10 C -0.2966(5) -0.2380(5) 0.3516(3)
H4 H -0.3686 -0.2265 0.3701
C11 C 0.1134(5) 0.4396(4) 0.5517(2)
H5 H 0.1567 0.4121 0.5831
H6 H 0.0329 0.4612 0.5619
H7 H 0.1529 0.5102 0.5367
C12 C -0.1990(5) -0.1636(4) 0.3636(2)
H8 H -0.2059 -0.1036 0.3902
C13 C -0.1824(6) -0.3432(5) 0.2861(2)
H9 H -0.1758 -0.4038 0.2597
C14 C 0.0187(5) 0.1581(5) 0.4712(2)
H10 H -0.0431 0.1006 0.4724
C15 C 0.1941(4) 0.2364(5) 0.4326(2)
H11 H 0.2541 0.2337 0.4065
C16 C 0.0215(5) 0.2503(5) 0.5086(2)
H12 H -0.0394 0.2540 0.5343
C17 C 0.3985(5) -0.0715(5) 0.3142(3)
H13 H 0.3608 -0.0853 0.2798
H14 H 0.3891 -0.1432 0.3364
H15 H 0.4824 -0.0552 0.3089
C18 C -0.2886(6) -0.3274(5) 0.3134(3)
H16 H -0.3544 -0.3772 0.3058
loop_
_geom_bond_atom_site_label_1
_geom_bond_atom_site_label_2
_geom_bond_site_symmetry_1
_geom_bond_site_symmetry_2
S1 C5 1_555 1_555
O1 C2 1_555 1_555
C1 C2 1_555 1_555
C2 C9 1_555 1_555
C3 O1 1_555 1_555
C4 C3 1_555 1_555
C5 C3 1_555 1_555
C6 C1 1_555 1_555
H1 C6 1_555 1_555
C7 C8 1_555 1_555
C8 H2 1_555 1_555
C9 C5 1_555 1_555
H3 C9 1_555 1_555
C10 H4 1_555 1_555
C11 C7 1_555 1_555
H5 C11 1_555 1_555
H6 C11 1_555 1_555
H7 C11 1_555 1_555
C12 C1 1_555 1_555
H8 C12 1_555 1_555
C13 C6 1_555 1_555
H9 C13 1_555 1_555
C14 C4 1_555 1_555
H10 C14 1_555 1_555
C15 C4 1_555 1_555
H11 C15 1_555 1_555
C16 C7 1_555 1_555
H12 C16 1_555 1_555
C17 S1 1_555 1_555
H13 C17 1_555 1_555
H14 C17 1_555 1_555
H15 C17 1_555 1_555
C18 C10 1_555 1_555
H16 C18 1_555 1_555
C8 C15 1_555 1_555
C10 C12 1_555 1_555
C13 C18 1_555 1_555
C14 C16 1_555 1_555

#END
