
#######################################################################
#
#                 Cambridge Crystallographic Data Centre
#                                CCDC 
#
#######################################################################
#
# If this CIF has been generated from an entry in the Cambridge 
# Structural Database, then it will include bibliographic, chemical, 
# crystal, experimental, refinement or atomic coordinate data resulting 
# from the CCDC's data processing and validation procedures.
#
#######################################################################

data_UXEVEZ
_chemical_formula_moiety         'C23 H22 N2 O2 S1'
_chemical_name_systematic        
N-(1H-Indol-3-yl(4-methylphenyl)methyl)-4-methylbenzenesulfonamide
_symmetry_cell_setting           monoclinic
_symmetry_space_group_name_H-M   'P 21'
_symmetry_Int_Tables_number      4
_space_group_name_Hall           'P 2yb'
loop_
_symmetry_equiv_pos_site_id
_symmetry_equiv_pos_as_xyz
1 x,y,z
2 -x,1/2+y,-z
_cell_length_a                   9.59280(18)
_cell_length_b                   9.33221(17)
_cell_length_c                   11.7332(3)
_cell_angle_alpha                90
_cell_angle_beta                 97.7632(19)
_cell_angle_gamma                90
_cell_volume                     1040.75
_exptl_crystal_colour            colorless
_exptl_crystal_description       platelet
_cell_formula_units_Z            2
loop_
_atom_site_label
_atom_site_type_symbol
_atom_site_fract_x
_atom_site_fract_y
_atom_site_fract_z
S1 S 0.42411(5) 0.64531(5) 0.98608(4)
O1 O 0.35784(17) 0.76489(18) 1.03358(15)
O2 O 0.45383(17) 0.52111(17) 1.05670(14)
N1 N 1.0373(2) 0.7311(3) 0.98071(19)
H1 H 1.1135 0.7741 0.9692
N2 N 0.56723(19) 0.70650(19) 0.94852(16)
H2 H 0.5858 0.7960 0.9596
C1 C 0.8292(3) 0.5332(3) 1.1533(2)
H3 H 0.7374 0.4989 1.1459
C2 C 0.9196(3) 0.5106(3) 1.2524(2)
H4 H 0.8883 0.4605 1.3126
C3 C 1.0586(3) 0.5615(3) 1.2650(2)
H5 H 1.1174 0.5439 1.3333
C4 C 1.1095(2) 0.6359(4) 1.1796(2)
H6 H 1.2016 0.6695 1.1882
C5 C 1.0179(2) 0.6593(3) 1.07918(19)
C6 C 0.8776(2) 0.6087(2) 1.06378(19)
C7 C 0.8163(2) 0.6506(3) 0.95053(18)
C8 C 0.9185(2) 0.7241(3) 0.9042(2)
H7 H 0.9080 0.7636 0.8307
C9 C 0.6693(2) 0.6177(2) 0.89578(19)
H8 H 0.6504 0.5175 0.9133
C10 C 0.6515(2) 0.6317(3) 0.7658(2)
C11 C 0.6479(3) 0.7650(3) 0.7124(3)
H9 H 0.6543 0.8480 0.7567
C12 C 0.6349(3) 0.7747(4) 0.5936(3)
H10 H 0.6334 0.8646 0.5592
C13 C 0.6240(3) 0.6541(6) 0.5253(2)
C14 C 0.6270(4) 0.5227(5) 0.5791(3)
H11 H 0.6192 0.4399 0.5346
C15 C 0.6413(3) 0.5108(3) 0.6979(3)
H12 H 0.6439 0.4206 0.7319
C16 C 0.6073(5) 0.6688(8) 0.3944(3)
H13 H 0.5266 0.7270 0.3690
H14 H 0.5950 0.5756 0.3598
H15 H 0.6899 0.7130 0.3722
C17 C 0.3142(2) 0.5893(3) 0.8611(2)
C18 C 0.3016(3) 0.6730(3) 0.7628(2)
H16 H 0.3572 0.7542 0.7598
C19 C 0.2059(3) 0.6346(4) 0.6696(2)
H17 H 0.1968 0.6915 0.6039
C20 C 0.1231(3) 0.5134(4) 0.6713(2)
C21 C 0.1394(3) 0.4315(4) 0.7689(3)
H18 H 0.0864 0.3484 0.7712
C22 C 0.2329(3) 0.4695(3) 0.8638(2)
H19 H 0.2406 0.4134 0.9299
C23 C 0.0193(4) 0.4693(6) 0.5689(3)
H20 H -0.0144 0.5529 0.5261
H21 H -0.0585 0.4203 0.5951
H22 H 0.0647 0.4065 0.5206
loop_
_geom_bond_atom_site_label_1
_geom_bond_atom_site_label_2
_geom_bond_site_symmetry_1
_geom_bond_site_symmetry_2
S1 O1 1_555 1_555
O2 S1 1_555 1_555
N1 H1 1_555 1_555
N2 S1 1_555 1_555
H2 N2 1_555 1_555
C1 H3 1_555 1_555
C2 C1 1_555 1_555
H4 C2 1_555 1_555
C3 C2 1_555 1_555
H5 C3 1_555 1_555
C4 C3 1_555 1_555
H6 C4 1_555 1_555
C5 N1 1_555 1_555
C6 C1 1_555 1_555
C7 C6 1_555 1_555
C8 N1 1_555 1_555
H7 C8 1_555 1_555
C9 N2 1_555 1_555
H8 C9 1_555 1_555
C10 C9 1_555 1_555
C11 C10 1_555 1_555
H9 C11 1_555 1_555
C12 C11 1_555 1_555
H10 C12 1_555 1_555
C13 C12 1_555 1_555
C14 C13 1_555 1_555
H11 C14 1_555 1_555
C15 C10 1_555 1_555
H12 C15 1_555 1_555
C16 C13 1_555 1_555
H13 C16 1_555 1_555
H14 C16 1_555 1_555
H15 C16 1_555 1_555
C17 S1 1_555 1_555
C18 C17 1_555 1_555
H16 C18 1_555 1_555
C19 C18 1_555 1_555
H17 C19 1_555 1_555
C20 C19 1_555 1_555
C21 C20 1_555 1_555
H18 C21 1_555 1_555
C22 C17 1_555 1_555
H19 C22 1_555 1_555
C23 C20 1_555 1_555
H20 C23 1_555 1_555
H21 C23 1_555 1_555
H22 C23 1_555 1_555
C4 C5 1_555 1_555
C5 C6 1_555 1_555
C7 C8 1_555 1_555
C7 C9 1_555 1_555
C14 C15 1_555 1_555
C21 C22 1_555 1_555

#END
