
#######################################################################
#
#                 Cambridge Crystallographic Data Centre
#                                CCDC 
#
#######################################################################
#
# If this CIF has been generated from an entry in the Cambridge 
# Structural Database, then it will include bibliographic, chemical, 
# crystal, experimental, refinement or atomic coordinate data resulting 
# from the CCDC's data processing and validation procedures.
#
#######################################################################

data_UXEWEA
_chemical_formula_moiety         'C24 H16 Br1 N1 O4'
_chemical_name_systematic        
1-(4-Bromophenyl)-3-(2-oxo-3-phenyl-2,3-dihydro-1-benzofuran-3-yl)pyrrolidine-2,5-dione
_symmetry_cell_setting           orthorhombic
_symmetry_space_group_name_H-M   'P 21 21 21'
_symmetry_Int_Tables_number      19
_space_group_name_Hall           'P 2ac 2ab'
loop_
_symmetry_equiv_pos_site_id
_symmetry_equiv_pos_as_xyz
1 x,y,z
2 1/2-x,-y,1/2+z
3 -x,1/2+y,1/2-z
4 1/2+x,1/2-y,-z
_cell_length_a                   6.2963(9)
_cell_length_b                   14.3075(19)
_cell_length_c                   21.551(3)
_cell_angle_alpha                90
_cell_angle_beta                 90
_cell_angle_gamma                90
_cell_volume                     1941.41
_exptl_crystal_colour            colorless
_exptl_crystal_description       block
_cell_formula_units_Z            4
loop_
_atom_site_label
_atom_site_type_symbol
_atom_site_fract_x
_atom_site_fract_y
_atom_site_fract_z
Br1 Br 0.73018(5) 0.785402(19) 0.216978(11)
O1 O 0.7537(3) 1.09585(11) 0.56742(7)
O2 O 0.7612(3) 0.94091(11) 0.57843(8)
O3 O 0.4425(3) 0.73212(11) 0.51462(8)
O4 O 0.3630(3) 1.03837(12) 0.46245(8)
N1 N 0.4008(3) 0.87951(13) 0.47403(9)
C1 C 0.4331(4) 1.02603(16) 0.60399(11)
C2 C 0.4066(4) 1.13002(16) 0.59325(10)
C3 C 0.2384(4) 1.19070(15) 0.60154(10)
H1 H 0.1043 1.1683 0.6152
C4 C 0.2692(4) 1.28583(16) 0.58936(10)
H2 H 0.1550 1.3285 0.5946
C5 C 0.4647(5) 1.31809(18) 0.56980(12)
H3 H 0.4824 1.3830 0.5620
C6 C 0.6354(4) 1.25868(18) 0.56119(11)
H4 H 0.7698 1.2809 0.5477
C7 C 0.5997(4) 1.16539(17) 0.57333(11)
C8 C 0.6645(4) 1.01189(17) 0.58324(11)
C9 C 0.4014(4) 0.99943(16) 0.67267(11)
C10 C 0.2019(4) 1.01084(17) 0.69878(12)
H5 H 0.0889 1.0346 0.6742
C11 C 0.1655(5) 0.98798(19) 0.76041(13)
H6 H 0.0281 0.9964 0.7777
C12 C 0.3272(5) 0.95315(19) 0.79662(12)
H7 H 0.3028 0.9385 0.8390
C13 C 0.5244(5) 0.9399(2) 0.77081(13)
H8 H 0.6358 0.9146 0.7953
C14 C 0.5627(4) 0.96315(18) 0.70875(13)
H9 H 0.6999 0.9540 0.6914
C15 C 0.2872(4) 0.96342(15) 0.56227(10)
H10 H 0.1370 0.9852 0.5665
C16 C 0.2976(4) 0.85846(15) 0.57760(10)
H11 H 0.3899 0.8474 0.6141
H12 H 0.1540 0.8339 0.5868
C17 C 0.3879(4) 0.81200(16) 0.52113(11)
C18 C 0.3514(4) 0.96890(16) 0.49434(11)
C19 C 0.4772(4) 0.85861(16) 0.41309(11)
C20 C 0.6768(4) 0.88782(17) 0.39495(11)
H13 H 0.7620 0.9237 0.4225
C21 C 0.7524(5) 0.86488(16) 0.33676(11)
H14 H 0.8897 0.8846 0.3239
C22 C 0.6261(4) 0.81311(17) 0.29759(11)
C23 C 0.4274(4) 0.78253(19) 0.31491(11)
H15 H 0.3437 0.7463 0.2872
C24 C 0.3511(4) 0.80545(16) 0.37338(11)
H16 H 0.2143 0.7851 0.3862
loop_
_geom_bond_atom_site_label_1
_geom_bond_atom_site_label_2
_geom_bond_site_symmetry_1
_geom_bond_site_symmetry_2
Br1 C22 1_555 1_555
O1 C7 1_555 1_555
O2 C8 1_555 1_555
O3 C17 1_555 1_555
O4 C18 1_555 1_555
N1 C17 1_555 1_555
C1 C2 1_555 1_555
C2 C3 1_555 1_555
C3 H1 1_555 1_555
C4 C3 1_555 1_555
H2 C4 1_555 1_555
C5 C4 1_555 1_555
H3 C5 1_555 1_555
C6 C5 1_555 1_555
H4 C6 1_555 1_555
C7 C2 1_555 1_555
C8 O1 1_555 1_555
C9 C1 1_555 1_555
C10 C9 1_555 1_555
H5 C10 1_555 1_555
C11 C10 1_555 1_555
H6 C11 1_555 1_555
C12 C11 1_555 1_555
H7 C12 1_555 1_555
C13 C12 1_555 1_555
H8 C13 1_555 1_555
C14 C9 1_555 1_555
H9 C14 1_555 1_555
C15 C1 1_555 1_555
H10 C15 1_555 1_555
C16 C15 1_555 1_555
H11 C16 1_555 1_555
H12 C16 1_555 1_555
C17 C16 1_555 1_555
C18 N1 1_555 1_555
C19 N1 1_555 1_555
C20 C19 1_555 1_555
H13 C20 1_555 1_555
C21 C20 1_555 1_555
H14 C21 1_555 1_555
C22 C21 1_555 1_555
C23 C22 1_555 1_555
H15 C23 1_555 1_555
C24 C19 1_555 1_555
H16 C24 1_555 1_555
C1 C8 1_555 1_555
C6 C7 1_555 1_555
C13 C14 1_555 1_555
C15 C18 1_555 1_555
C23 C24 1_555 1_555

#END
