
#######################################################################
#
#                 Cambridge Crystallographic Data Centre
#                                CCDC 
#
#######################################################################
#
# If this CIF has been generated from an entry in the Cambridge 
# Structural Database, then it will include bibliographic, chemical, 
# crystal, experimental, refinement or atomic coordinate data resulting 
# from the CCDC's data processing and validation procedures.
#
#######################################################################

data_UXIBIN
_chemical_formula_moiety         'C36 H50 N6 O2'
_chemical_name_systematic        
2,3-bis((4-(diethylamino)-2-(pentoxy)benzylidene)amino)but-2-enedinitrile
_symmetry_cell_setting           monoclinic
_symmetry_space_group_name_H-M   'P 21/a'
_symmetry_Int_Tables_number      14
_space_group_name_Hall           '-P 2yab'
loop_
_symmetry_equiv_pos_site_id
_symmetry_equiv_pos_as_xyz
1 x,y,z
2 1/2-x,1/2+y,-z
3 -x,-y,-z
4 1/2+x,1/2-y,z
_cell_length_a                   8.2480(3)
_cell_length_b                   23.4817(7)
_cell_length_c                   9.0521(3)
_cell_angle_alpha                90
_cell_angle_beta                 94.5510(16)
_cell_angle_gamma                90
_cell_volume                     1747.66
_exptl_crystal_colour            purple
_exptl_crystal_description       block
_cell_formula_units_Z            2
loop_
_atom_site_label
_atom_site_type_symbol
_atom_site_fract_x
_atom_site_fract_y
_atom_site_fract_z
O1 O 0.78590(17) -0.05213(6) -0.01237(14)
N1 N 0.6063(3) -0.11884(10) 0.4382(2)
N2 N 0.5641(2) 0.02099(7) 0.31924(18)
N3 N 0.8453(2) 0.12736(7) -0.2614(2)
C1 C 0.5698(2) -0.07219(11) 0.4441(2)
C2 C 0.5316(2) -0.01198(9) 0.4400(2)
C3 C 0.6295(2) -0.00215(9) 0.2082(2)
C4 C 0.6755(2) 0.03040(8) 0.0843(2)
C5 C 0.6398(2) 0.08825(9) 0.0678(2)
C6 C 0.6896(2) 0.12021(9) -0.0464(2)
C7 C 0.7847(2) 0.09535(9) -0.1518(2)
C8 C 0.8171(2) 0.03683(9) -0.1393(2)
C9 C 0.7615(2) 0.00481(8) -0.0263(2)
C10 C 0.8505(2) -0.08242(8) -0.1313(2)
C11 C 0.8478(2) -0.14475(9) -0.0977(2)
C12 C 0.9127(2) -0.17970(9) -0.2226(2)
C13 C 0.9076(3) -0.24303(10) -0.2008(2)
C14 C 0.9545(4) -0.27566(12) -0.3364(3)
C15 C 0.9736(2) 0.10546(11) -0.3504(2)
C16 C 0.9094(3) 0.07602(13) -0.4890(3)
C17 C 0.7829(3) 0.18367(10) -0.3004(2)
C18 C 0.8736(4) 0.23183(12) -0.2243(3)
H1 H 0.6485 -0.0420 0.2097
H2 H 0.5790 0.1061 0.1397
H3 H 0.6593 0.1591 -0.0561
H4 H 0.8788 0.0189 -0.2104
H5 H 0.7871 -0.0751 -0.2215
H6 H 0.9594 -0.0706 -0.1403
H7 H 0.9129 -0.1518 -0.0083
H8 H 0.7388 -0.1560 -0.0861
H9 H 0.8505 -0.1705 -0.3122
H10 H 1.0229 -0.1691 -0.2303
H11 H 0.9800 -0.2534 -0.1182
H12 H 0.7998 -0.2535 -0.1822
H13 H 0.8606 -0.2821 -0.4020
H14 H 1.0035 -0.3111 -0.3088
H15 H 1.0297 -0.2529 -0.3844
H16 H 1.0410 0.1361 -0.3761
H17 H 1.0367 0.0786 -0.2922
H18 H 0.8918 0.0368 -0.4698
H19 H 0.9822 0.0796 -0.5647
H20 H 0.8088 0.0936 -0.5202
H21 H 0.7860 0.1891 -0.4041
H22 H 0.6734 0.1854 -0.2751
H23 H 0.8286 0.2395 -0.1329
H24 H 0.8686 0.2652 -0.2837
H25 H 0.9837 0.2203 -0.2057
O1B O 0.21410(17) 0.05213(6) 1.01237(14)
N1B N 0.3937(3) 0.11884(10) 0.5618(2)
N2B N 0.4359(2) -0.02099(7) 0.68076(18)
N3B N 0.1547(2) -0.12736(7) 1.2614(2)
C1B C 0.4302(2) 0.07219(11) 0.5559(2)
C2B C 0.4684(2) 0.01198(9) 0.5600(2)
C3B C 0.3705(2) 0.00215(9) 0.7918(2)
C4B C 0.3245(2) -0.03040(8) 0.9157(2)
C5B C 0.3602(2) -0.08825(9) 0.9322(2)
C6B C 0.3104(2) -0.12021(9) 1.0464(2)
C7B C 0.2153(2) -0.09535(9) 1.1518(2)
C8B C 0.1829(2) -0.03683(9) 1.1393(2)
C9B C 0.2385(2) -0.00481(8) 1.0263(2)
C10B C 0.1495(2) 0.08242(8) 1.1313(2)
C11B C 0.1522(2) 0.14475(9) 1.0977(2)
C12B C 0.0873(2) 0.17970(9) 1.2226(2)
C13B C 0.0924(3) 0.24303(10) 1.2008(2)
C14B C 0.0455(4) 0.27566(12) 1.3364(3)
C15B C 0.0264(2) -0.10546(11) 1.3504(2)
C16B C 0.0906(3) -0.07602(13) 1.4890(3)
C17B C 0.2171(3) -0.18367(10) 1.3004(2)
C18B C 0.1264(4) -0.23183(12) 1.2243(3)
H1B H 0.3515 0.0420 0.7903
H2B H 0.4210 -0.1061 0.8603
H3B H 0.3407 -0.1591 1.0561
H4B H 0.1212 -0.0189 1.2104
H5B H 0.2129 0.0751 1.2215
H6B H 0.0406 0.0706 1.1403
H7B H 0.0871 0.1518 1.0083
H8B H 0.2612 0.1560 1.0861
H9B H 0.1495 0.1705 1.3122
H10B H -0.0229 0.1691 1.2303
H11B H 0.0200 0.2534 1.1182
H12B H 0.2002 0.2535 1.1822
H13B H 0.1394 0.2821 1.4020
H14B H -0.0035 0.3111 1.3088
H15B H -0.0297 0.2529 1.3844
H16B H -0.0410 -0.1361 1.3761
H17B H -0.0367 -0.0786 1.2922
H18B H 0.1082 -0.0368 1.4698
H19B H 0.0178 -0.0796 1.5647
H20B H 0.1912 -0.0936 1.5202
H21B H 0.2140 -0.1891 1.4041
H22B H 0.3266 -0.1854 1.2751
H23B H 0.1714 -0.2395 1.1329
H24B H 0.1314 -0.2652 1.2837
H25B H 0.0163 -0.2203 1.2057
loop_
_geom_bond_atom_site_label_1
_geom_bond_atom_site_label_2
_geom_bond_site_symmetry_1
_geom_bond_site_symmetry_2
O1 C9 1_555 1_555
N1 C1 1_555 1_555
N2 C2 1_555 1_555
N3 C7 1_555 1_555
C1 C2 1_555 1_555
C2 C2B 1_555 1_555
C3 N2 1_555 1_555
C4 C3 1_555 1_555
C5 C4 1_555 1_555
C6 C5 1_555 1_555
C7 C6 1_555 1_555
C8 C7 1_555 1_555
C9 C4 1_555 1_555
C10 O1 1_555 1_555
C11 C10 1_555 1_555
C12 C11 1_555 1_555
C13 C12 1_555 1_555
C14 C13 1_555 1_555
C15 N3 1_555 1_555
C16 C15 1_555 1_555
C17 N3 1_555 1_555
C18 C17 1_555 1_555
H1 C3 1_555 1_555
H2 C5 1_555 1_555
H3 C6 1_555 1_555
H4 C8 1_555 1_555
H5 C10 1_555 1_555
H6 C10 1_555 1_555
H7 C11 1_555 1_555
H8 C11 1_555 1_555
H9 C12 1_555 1_555
H10 C12 1_555 1_555
H11 C13 1_555 1_555
H12 C13 1_555 1_555
H13 C14 1_555 1_555
H14 C14 1_555 1_555
H15 C14 1_555 1_555
H16 C15 1_555 1_555
H17 C15 1_555 1_555
H18 C16 1_555 1_555
H19 C16 1_555 1_555
H20 C16 1_555 1_555
H21 C17 1_555 1_555
H22 C17 1_555 1_555
H23 C18 1_555 1_555
H24 C18 1_555 1_555
H25 C18 1_555 1_555
O1B C9B 1_555 1_555
N1B C1B 1_555 1_555
N2B C2B 1_555 1_555
N3B C7B 1_555 1_555
C1B C2B 1_555 1_555
C3B N2B 1_555 1_555
C4B C3B 1_555 1_555
C5B C4B 1_555 1_555
C6B C5B 1_555 1_555
C7B C6B 1_555 1_555
C8B C7B 1_555 1_555
C9B C4B 1_555 1_555
C10B O1B 1_555 1_555
C11B C10B 1_555 1_555
C12B C11B 1_555 1_555
C13B C12B 1_555 1_555
C14B C13B 1_555 1_555
C15B N3B 1_555 1_555
C16B C15B 1_555 1_555
C17B N3B 1_555 1_555
C18B C17B 1_555 1_555
H1B C3B 1_555 1_555
H2B C5B 1_555 1_555
H3B C6B 1_555 1_555
H4B C8B 1_555 1_555
H5B C10B 1_555 1_555
H6B C10B 1_555 1_555
H7B C11B 1_555 1_555
H8B C11B 1_555 1_555
H9B C12B 1_555 1_555
H10B C12B 1_555 1_555
H11B C13B 1_555 1_555
H12B C13B 1_555 1_555
H13B C14B 1_555 1_555
H14B C14B 1_555 1_555
H15B C14B 1_555 1_555
H16B C15B 1_555 1_555
H17B C15B 1_555 1_555
H18B C16B 1_555 1_555
H19B C16B 1_555 1_555
H20B C16B 1_555 1_555
H21B C17B 1_555 1_555
H22B C17B 1_555 1_555
H23B C18B 1_555 1_555
H24B C18B 1_555 1_555
H25B C18B 1_555 1_555
C8 C9 1_555 1_555
C8B C9B 1_555 1_555

#END
