
#######################################################################
#
#                 Cambridge Crystallographic Data Centre
#                                CCDC 
#
#######################################################################
#
# If this CIF has been generated from an entry in the Cambridge 
# Structural Database, then it will include bibliographic, chemical, 
# crystal, experimental, refinement or atomic coordinate data resulting 
# from the CCDC's data processing and validation procedures.
#
#######################################################################

data_UXIBOU
_chemical_formula_moiety         'C19 H17 I1 O7'
_chemical_name_systematic        
3-iodo-5-methoxy-7-(methoxymethoxy)-4-(3-methoxyphenoxy)-2H-chromen-2-one
_symmetry_cell_setting           triclinic
_symmetry_space_group_name_H-M   'P -1'
_symmetry_Int_Tables_number      2
_space_group_name_Hall           '-P 1'
loop_
_symmetry_equiv_pos_site_id
_symmetry_equiv_pos_as_xyz
1 x,y,z
2 -x,-y,-z
_cell_length_a                   9.2343(19)
_cell_length_b                   10.218(2)
_cell_length_c                   10.4199(18)
_cell_angle_alpha                72.629(8)
_cell_angle_beta                 74.494(7)
_cell_angle_gamma                86.610(9)
_cell_volume                     903.958
_exptl_crystal_colour            colorless
_exptl_crystal_description       Prism
_cell_formula_units_Z            2
loop_
_atom_site_label
_atom_site_type_symbol
_atom_site_fract_x
_atom_site_fract_y
_atom_site_fract_z
I1 I 0.994478(16) 0.621705(15) 0.160644(16)
O1 O 0.75322(16) 0.50393(16) 0.59339(16)
O2 O 0.93405(18) 0.65567(17) 0.46857(18)
O3 O 0.73768(16) 0.39320(15) 0.24681(15)
O4 O 1.10064(17) 0.04934(16) 0.32909(19)
O5 O 0.50277(17) 0.23168(18) 0.41323(17)
O6 O 0.36212(18) 0.19195(18) 0.89666(17)
C1 C 0.8497(2) 0.5691(2) 0.4681(2)
C2 C 0.8417(2) 0.5269(2) 0.3495(2)
C3 C 0.7416(2) 0.4282(2) 0.3629(2)
C4 C 0.6372(2) 0.3645(2) 0.4957(2)
C5 C 0.6510(2) 0.4036(2) 0.6098(2)
C6 C 0.5653(2) 0.3496(2) 0.7449(2)
H1 H 0.5814 0.3777 0.8191
C7 C 0.4555(2) 0.2532(2) 0.7679(2)
C8 C 0.4302(2) 0.2127(2) 0.6586(2)
H2 H 0.3520 0.1482 0.6763
C9 C 0.5198(2) 0.2669(2) 0.5242(2)
C10 C 0.8051(2) 0.2702(2) 0.2323(2)
C11 C 0.7531(2) 0.2109(2) 0.1485(2)
H3 H 0.6753 0.2514 0.1065
C12 C 0.8189(2) 0.0906(2) 0.1285(2)
H4 H 0.7848 0.0481 0.0720
C13 C 0.9337(2) 0.0300(2) 0.1888(2)
H5 H 0.9763 -0.0532 0.1748
C14 C 0.9843(2) 0.0939(2) 0.2697(2)
C15 C 0.9188(2) 0.2148(2) 0.2933(2)
H6 H 0.9521 0.2576 0.3501
C16 C 1.1656(3) -0.0781(2) 0.3154(3)
H7 H 1.0875 -0.1506 0.3549
H8 H 1.2441 -0.1013 0.3653
H9 H 1.2096 -0.0698 0.2166
C17 C 0.3784(3) 0.1432(3) 0.4336(3)
H10 H 0.3861 0.0556 0.5027
H11 H 0.3801 0.1270 0.3451
H12 H 0.2840 0.1866 0.4667
C18 C 0.4217(4) 0.1785(3) 1.0151(4)
H13 H 0.3534 0.1170 1.0989
H14 H 0.5203 0.1340 0.9995
O7 O 0.4398(5) 0.2996(5) 1.0416(7)
C19 C 0.2993(4) 0.3662(4) 1.0852(4)
H15 H 0.2511 0.3951 1.0083
H16 H 0.3198 0.4466 1.1109
H17 H 0.2324 0.3017 1.1656
C20? C 0.3060(9) 0.2734(9) 0.9922(9)
H18? H 0.2889 0.3687 0.9400
H19? H 0.2099 0.2337 1.0588
O8? O 0.4131(13) 0.2717(15) 1.0617(18)
C21? C 0.3754(12) 0.3713(10) 1.1400(10)
H20? H 0.3704 0.4628 1.0758
H21? H 0.4527 0.3718 1.1885
H22? H 0.2777 0.3463 1.2082
loop_
_geom_bond_atom_site_label_1
_geom_bond_atom_site_label_2
_geom_bond_site_symmetry_1
_geom_bond_site_symmetry_2
I1 C2 1_555 1_555
O1 C1 1_555 1_555
O2 C1 1_555 1_555
O3 C3 1_555 1_555
O4 C14 1_555 1_555
O5 C9 1_555 1_555
O6 C7 1_555 1_555
C1 C2 1_555 1_555
C2 C3 1_555 1_555
C3 C4 1_555 1_555
C4 C5 1_555 1_555
C5 O1 1_555 1_555
C6 C5 1_555 1_555
H1 C6 1_555 1_555
C7 C6 1_555 1_555
C8 C7 1_555 1_555
H2 C8 1_555 1_555
C9 C4 1_555 1_555
C10 O3 1_555 1_555
C11 C10 1_555 1_555
H3 C11 1_555 1_555
C12 C11 1_555 1_555
H4 C12 1_555 1_555
C13 C12 1_555 1_555
H5 C13 1_555 1_555
C14 C13 1_555 1_555
C15 C10 1_555 1_555
H6 C15 1_555 1_555
C16 O4 1_555 1_555
H7 C16 1_555 1_555
H8 C16 1_555 1_555
H9 C16 1_555 1_555
C17 O5 1_555 1_555
H10 C17 1_555 1_555
H11 C17 1_555 1_555
H12 C17 1_555 1_555
C18 O6 1_555 1_555
H13 C18 1_555 1_555
H14 C18 1_555 1_555
O7 C18 1_555 1_555
C19 O7 1_555 1_555
H15 C19 1_555 1_555
H16 C19 1_555 1_555
H17 C19 1_555 1_555
C8 C9 1_555 1_555
C14 C15 1_555 1_555

#END
