
#######################################################################
#
#                 Cambridge Crystallographic Data Centre
#                                CCDC 
#
#######################################################################
#
# If this CIF has been generated from an entry in the Cambridge 
# Structural Database, then it will include bibliographic, chemical, 
# crystal, experimental, refinement or atomic coordinate data resulting 
# from the CCDC's data processing and validation procedures.
#
#######################################################################

data_UXICAG
_chemical_formula_moiety         'C46 H70 N6 O2'
_chemical_name_systematic        
2,3-bis((2-(decyloxy)-4-(diethylamino)benzylidene)amino)but-2-enedinitrile
_symmetry_cell_setting           triclinic
_symmetry_space_group_name_H-M   'P -1'
_symmetry_Int_Tables_number      2
_space_group_name_Hall           '-P 1'
loop_
_symmetry_equiv_pos_site_id
_symmetry_equiv_pos_as_xyz
1 x,y,z
2 -x,-y,-z
_cell_length_a                   8.1175(3)
_cell_length_b                   12.4218(4)
_cell_length_c                   13.0984(4)
_cell_angle_alpha                62.6097(16)
_cell_angle_beta                 86.3048(19)
_cell_angle_gamma                76.9618(18)
_cell_volume                     1141.28
_exptl_crystal_colour            'reddish purple'
_exptl_crystal_description       needle
_cell_formula_units_Z            1
loop_
_atom_site_label
_atom_site_type_symbol
_atom_site_fract_x
_atom_site_fract_y
_atom_site_fract_z
O1 O 1.08325(15) 0.98953(12) 0.20474(11)
N1 N 0.6663(2) 0.76913(17) 0.20500(16)
N2 N 0.66482(17) 1.07503(14) 0.00749(13)
N3 N 1.2185(2) 1.38796(16) -0.03428(15)
C1 C 0.6210(2) 0.86338(18) 0.12731(16)
C2 C 0.5724(2) 0.98624(16) 0.03202(15)
C3 C 0.8028(2) 1.04688(17) 0.06778(15)
C4 C 0.9047(2) 1.13523(17) 0.04438(15)
C5 C 0.8670(2) 1.25439(17) -0.04866(16)
C6 C 0.9664(2) 1.33887(18) -0.07566(17)
C7 C 1.1160(2) 1.30642(18) -0.00888(16)
C8 C 1.1558(2) 1.18739(17) 0.08607(16)
C9 C 1.0529(2) 1.10442(17) 0.11249(15)
C10 C 1.2324(2) 0.94908(19) 0.27699(17)
C11 C 1.2314(2) 0.82273(19) 0.37339(17)
C12 C 1.2314(2) 0.7240(2) 0.33528(18)
C13 C 1.2450(2) 0.5949(2) 0.43363(19)
C14 C 1.2393(3) 0.4965(2) 0.3989(2)
C15 C 1.2580(3) 0.3673(2) 0.4977(2)
C16 C 1.2483(3) 0.2671(2) 0.4643(2)
C17 C 1.2688(3) 0.1378(2) 0.5651(2)
C18 C 1.2487(3) 0.0396(2) 0.5342(2)
C19 C 1.2725(4) -0.0869(2) 0.6344(3)
C20 C 1.3885(2) 1.3482(2) 0.0199(2)
C21 C 1.3883(3) 1.3604(2) 0.1297(2)
C22 C 1.1707(3) 1.5176(2) -0.1236(2)
C23 C 1.2269(4) 1.5350(2) -0.2404(2)
H1 H 0.8372 0.9652 0.1290
H2 H 0.7675 1.2779 -0.0952
H3 H 0.9363 1.4189 -0.1398
H4 H 1.2553 1.1640 0.1325
H5 H 1.3299 0.9438 0.2339
H6 H 1.2338 1.0066 0.3056
H7 H 1.3277 0.7952 0.4238
H8 H 1.1315 0.8297 0.4139
H9 H 1.1295 0.7465 0.2914
H10 H 1.3253 0.7223 0.2885
H11 H 1.3490 0.5713 0.4758
H12 H 1.1534 0.5976 0.4820
H13 H 1.1340 0.5184 0.3588
H14 H 1.3289 0.4953 0.3488
H15 H 1.3645 0.3450 0.5367
H16 H 1.1699 0.3695 0.5486
H17 H 1.1416 0.2886 0.4259
H18 H 1.3359 0.2649 0.4132
H19 H 1.3782 0.1140 0.6007
H20 H 1.1854 0.1413 0.6185
H21 H 1.1384 0.0623 0.5000
H22 H 1.3307 0.0371 0.4797
H23 H 1.3886 -0.1279 0.6444
H24 H 1.2064 -0.1349 0.6231
H25 H 1.2378 -0.0772 0.7009
H26 H 1.4319 1.2633 0.0386
H27 H 1.4600 1.3973 -0.0325
H28 H 1.4028 1.4410 0.1113
H29 H 1.4756 1.2995 0.1835
H30 H 1.2814 1.3504 0.1623
H31 H 1.0508 1.5431 -0.1278
H32 H 1.2188 1.5680 -0.1026
H33 H 1.3366 1.5524 -0.2502
H34 H 1.1509 1.6015 -0.2992
H35 H 1.2314 1.4602 -0.2448
O1A O -0.08325(15) 1.01047(12) -0.20474(11)
N1A N 0.3337(2) 1.23087(17) -0.20500(16)
N2A N 0.33518(17) 0.92497(14) -0.00749(13)
N3A N -0.2185(2) 0.61204(16) 0.03428(15)
C1A C 0.3790(2) 1.13662(18) -0.12731(16)
C2A C 0.4276(2) 1.01376(16) -0.03202(15)
C3A C 0.1972(2) 0.95312(17) -0.06778(15)
C4A C 0.0953(2) 0.86477(17) -0.04438(15)
C5A C 0.1330(2) 0.74561(17) 0.04866(16)
C6A C 0.0336(2) 0.66113(18) 0.07566(17)
C7A C -0.1160(2) 0.69358(18) 0.00888(16)
C8A C -0.1558(2) 0.81261(17) -0.08607(16)
C9A C -0.0529(2) 0.89558(17) -0.11249(15)
C10A C -0.2324(2) 1.05092(19) -0.27699(17)
C11A C -0.2314(2) 1.17727(19) -0.37339(17)
C12A C -0.2314(2) 1.2760(2) -0.33528(18)
C13A C -0.2450(2) 1.4051(2) -0.43363(19)
C14A C -0.2393(3) 1.5035(2) -0.3989(2)
C15A C -0.2580(3) 1.6327(2) -0.4977(2)
C16A C -0.2483(3) 1.7329(2) -0.4643(2)
C17A C -0.2688(3) 1.8622(2) -0.5651(2)
C18A C -0.2487(3) 1.9604(2) -0.5342(2)
C19A C -0.2725(4) 2.0869(2) -0.6344(3)
C20A C -0.3885(2) 0.6518(2) -0.0199(2)
C21A C -0.3883(3) 0.6396(2) -0.1297(2)
C22A C -0.1707(3) 0.4824(2) 0.1236(2)
C23A C -0.2269(4) 0.4650(2) 0.2404(2)
H1A H 0.1628 1.0348 -0.1290
H2A H 0.2325 0.7221 0.0952
H3A H 0.0637 0.5811 0.1398
H4A H -0.2553 0.8360 -0.1325
H5A H -0.3299 1.0562 -0.2339
H6A H -0.2338 0.9934 -0.3056
H7A H -0.3277 1.2048 -0.4238
H8A H -0.1315 1.1703 -0.4139
H9A H -0.1295 1.2535 -0.2914
H10A H -0.3253 1.2777 -0.2885
H11A H -0.3490 1.4287 -0.4758
H12A H -0.1534 1.4024 -0.4820
H13A H -0.1340 1.4816 -0.3588
H14A H -0.3289 1.5047 -0.3488
H15A H -0.3645 1.6550 -0.5367
H16A H -0.1699 1.6305 -0.5486
H17A H -0.1416 1.7114 -0.4259
H18A H -0.3359 1.7351 -0.4132
H19A H -0.3782 1.8860 -0.6007
H20A H -0.1854 1.8587 -0.6185
H21A H -0.1384 1.9377 -0.5000
H22A H -0.3307 1.9629 -0.4797
H23A H -0.3886 2.1279 -0.6444
H24A H -0.2064 2.1349 -0.6231
H25A H -0.2378 2.0772 -0.7009
H26A H -0.4319 0.7367 -0.0386
H27A H -0.4600 0.6027 0.0325
H28A H -0.4028 0.5590 -0.1113
H29A H -0.4756 0.7005 -0.1835
H30A H -0.2814 0.6496 -0.1623
H31A H -0.0508 0.4569 0.1278
H32A H -0.2188 0.4320 0.1026
H33A H -0.3366 0.4476 0.2502
H34A H -0.1509 0.3985 0.2992
H35A H -0.2314 0.5398 0.2448
loop_
_geom_bond_atom_site_label_1
_geom_bond_atom_site_label_2
_geom_bond_site_symmetry_1
_geom_bond_site_symmetry_2
O1 C9 1_555 1_555
N1 C1 1_555 1_555
N2 C2 1_555 1_555
N3 C7 1_555 1_555
C1 C2 1_555 1_555
C2 C2A 1_555 1_555
C3 N2 1_555 1_555
C4 C3 1_555 1_555
C5 C4 1_555 1_555
C6 C5 1_555 1_555
C7 C6 1_555 1_555
C8 C7 1_555 1_555
C9 C4 1_555 1_555
C10 O1 1_555 1_555
C11 C10 1_555 1_555
C12 C11 1_555 1_555
C13 C12 1_555 1_555
C14 C13 1_555 1_555
C15 C14 1_555 1_555
C16 C15 1_555 1_555
C17 C16 1_555 1_555
C18 C17 1_555 1_555
C19 C18 1_555 1_555
C20 N3 1_555 1_555
C21 C20 1_555 1_555
C22 N3 1_555 1_555
C23 C22 1_555 1_555
H1 C3 1_555 1_555
H2 C5 1_555 1_555
H3 C6 1_555 1_555
H4 C8 1_555 1_555
H5 C10 1_555 1_555
H6 C10 1_555 1_555
H7 C11 1_555 1_555
H8 C11 1_555 1_555
H9 C12 1_555 1_555
H10 C12 1_555 1_555
H11 C13 1_555 1_555
H12 C13 1_555 1_555
H13 C14 1_555 1_555
H14 C14 1_555 1_555
H15 C15 1_555 1_555
H16 C15 1_555 1_555
H17 C16 1_555 1_555
H18 C16 1_555 1_555
H19 C17 1_555 1_555
H20 C17 1_555 1_555
H21 C18 1_555 1_555
H22 C18 1_555 1_555
H23 C19 1_555 1_555
H24 C19 1_555 1_555
H25 C19 1_555 1_555
H26 C20 1_555 1_555
H27 C20 1_555 1_555
H28 C21 1_555 1_555
H29 C21 1_555 1_555
H30 C21 1_555 1_555
H31 C22 1_555 1_555
H32 C22 1_555 1_555
H33 C23 1_555 1_555
H34 C23 1_555 1_555
H35 C23 1_555 1_555
O1A C9A 1_555 1_555
N1A C1A 1_555 1_555
N2A C2A 1_555 1_555
N3A C7A 1_555 1_555
C1A C2A 1_555 1_555
C3A N2A 1_555 1_555
C4A C3A 1_555 1_555
C5A C4A 1_555 1_555
C6A C5A 1_555 1_555
C7A C6A 1_555 1_555
C8A C7A 1_555 1_555
C9A C4A 1_555 1_555
C10A O1A 1_555 1_555
C11A C10A 1_555 1_555
C12A C11A 1_555 1_555
C13A C12A 1_555 1_555
C14A C13A 1_555 1_555
C15A C14A 1_555 1_555
C16A C15A 1_555 1_555
C17A C16A 1_555 1_555
C18A C17A 1_555 1_555
C19A C18A 1_555 1_555
C20A N3A 1_555 1_555
C21A C20A 1_555 1_555
C22A N3A 1_555 1_555
C23A C22A 1_555 1_555
H1A C3A 1_555 1_555
H2A C5A 1_555 1_555
H3A C6A 1_555 1_555
H4A C8A 1_555 1_555
H5A C10A 1_555 1_555
H6A C10A 1_555 1_555
H7A C11A 1_555 1_555
H8A C11A 1_555 1_555
H9A C12A 1_555 1_555
H10A C12A 1_555 1_555
H11A C13A 1_555 1_555
H12A C13A 1_555 1_555
H13A C14A 1_555 1_555
H14A C14A 1_555 1_555
H15A C15A 1_555 1_555
H16A C15A 1_555 1_555
H17A C16A 1_555 1_555
H18A C16A 1_555 1_555
H19A C17A 1_555 1_555
H20A C17A 1_555 1_555
H21A C18A 1_555 1_555
H22A C18A 1_555 1_555
H23A C19A 1_555 1_555
H24A C19A 1_555 1_555
H25A C19A 1_555 1_555
H26A C20A 1_555 1_555
H27A C20A 1_555 1_555
H28A C21A 1_555 1_555
H29A C21A 1_555 1_555
H30A C21A 1_555 1_555
H31A C22A 1_555 1_555
H32A C22A 1_555 1_555
H33A C23A 1_555 1_555
H34A C23A 1_555 1_555
H35A C23A 1_555 1_555
C8 C9 1_555 1_555
C8A C9A 1_555 1_555

#END
