
#######################################################################
#
#                 Cambridge Crystallographic Data Centre
#                                CCDC 
#
#######################################################################
#
# If this CIF has been generated from an entry in the Cambridge 
# Structural Database, then it will include bibliographic, chemical, 
# crystal, experimental, refinement or atomic coordinate data resulting 
# from the CCDC's data processing and validation procedures.
#
#######################################################################

data_UXIMUL
_chemical_formula_moiety         'C30 H23 N3 O2'
_chemical_name_systematic        
"ethyl 4'-(2,2':6',2''-terpyridin-4'-yl)biphenyl-4-carboxylate unknown solvate"
_symmetry_cell_setting           monoclinic
_symmetry_space_group_name_H-M   'P 21/c'
_symmetry_Int_Tables_number      14
_space_group_name_Hall           '-P 2ybc'
loop_
_symmetry_equiv_pos_site_id
_symmetry_equiv_pos_as_xyz
1 x,y,z
2 -x,1/2+y,1/2-z
3 -x,-y,-z
4 x,1/2-y,1/2+z
_cell_length_a                   14.190(3)
_cell_length_b                   8.0680(16)
_cell_length_c                   22.427(5)
_cell_angle_alpha                90
_cell_angle_beta                 100.06(3)
_cell_angle_gamma                90
_cell_volume                     2528.08
_exptl_crystal_colour            colorless
_exptl_crystal_description       Cubic
_cell_formula_units_Z            4
loop_
_atom_site_label
_atom_site_type_symbol
_atom_site_fract_x
_atom_site_fract_y
_atom_site_fract_z
N1 N 0.76459(7) -0.09425(11) 0.60068(4)
N2 N 0.56380(6) 0.15785(10) 0.53318(4)
N3 N 0.40746(6) 0.41588(11) 0.42706(5)
O1 O 1.12332(5) 0.10379(11) 0.10115(4)
O2 O 0.99502(5) 0.22068(9) 0.04327(3)
C1 C 0.62538(8) -0.01511(14) 0.64105(6)
H1 H 0.5664 0.0432 0.6360
C2 C 0.65790(10) -0.10124(16) 0.69375(6)
H2 H 0.6216 -0.1032 0.7256
C3 C 0.74385(10) -0.18441(16) 0.69950(6)
H3 H 0.7677 -0.2454 0.7352
C4 C 0.79452(9) -0.17720(14) 0.65232(6)
H4 H 0.8539 -0.2342 0.6567
C5 C 0.68012(7) -0.01476(12) 0.59539(5)
C6 C 0.64581(7) 0.07260(11) 0.53714(5)
C7 C 0.69717(7) 0.06271(12) 0.48985(5)
H5 H 0.7559 0.0034 0.4948
C8 C 0.66163(7) 0.14070(12) 0.43525(5)
C9 C 0.57531(7) 0.22668(12) 0.43071(5)
H6 H 0.5482 0.2795 0.3938
C10 C 0.52930(7) 0.23450(12) 0.48049(5)
C11 C 0.43820(7) 0.32820(12) 0.47782(5)
C12 C 0.32495(8) 0.49916(13) 0.42368(6)
H7 H 0.3023 0.5604 0.3879
C13 C 0.27089(8) 0.50115(14) 0.46926(7)
H8 H 0.2128 0.5620 0.4648
C14 C 0.30345(8) 0.41243(14) 0.52142(7)
H9 H 0.2682 0.4114 0.5537
C15 C 0.38846(8) 0.32485(13) 0.52591(6)
H10 H 0.4124 0.2633 0.5615
C16 C 0.71491(7) 0.13711(13) 0.38394(5)
C17 C 0.76800(7) -0.00202(12) 0.37230(5)
H11 H 0.7683 -0.0981 0.3968
C18 C 0.81999(8) -0.00128(12) 0.32559(5)
H12 H 0.8555 -0.0969 0.3185
C19 C 0.82118(7) 0.13839(12) 0.28859(5)
C20 C 0.76713(8) 0.27616(13) 0.29999(5)
H13 H 0.7662 0.3718 0.2752
C21 C 0.71511(8) 0.27585(12) 0.34668(5)
H14 H 0.6791 0.3711 0.3535
C22 C 0.87732(7) 0.14130(12) 0.23855(5)
C23 C 0.96169(8) 0.04976(13) 0.24139(5)
H15 H 0.9835 -0.0172 0.2759
C24 C 1.01384(8) 0.05503(13) 0.19491(5)
H16 H 1.0712 -0.0075 0.1978
C25 C 0.98283(7) 0.15174(12) 0.14360(5)
C26 C 0.89904(7) 0.24388(12) 0.13994(5)
H17 H 0.8773 0.3101 0.1052
C27 C 0.84733(7) 0.23890(13) 0.18695(5)
H18 H 0.7905 0.3028 0.1842
C28 C 1.04197(7) 0.15488(12) 0.09506(5)
C29 C 1.04830(8) 0.22775(14) -0.00664(5)
H19 H 1.0675 0.1149 -0.0171
H20 H 1.1067 0.2959 0.0047
C30 C 0.98300(9) 0.30434(16) -0.05967(5)
H21 H 0.9256 0.2356 -0.0705
H22 H 1.0165 0.3115 -0.0943
H23 H 0.9645 0.4158 -0.0487
loop_
_geom_bond_atom_site_label_1
_geom_bond_atom_site_label_2
_geom_bond_site_symmetry_1
_geom_bond_site_symmetry_2
N1 C4 1_555 1_555
N2 C6 1_555 1_555
N3 C11 1_555 1_555
O1 C28 1_555 1_555
O2 C28 1_555 1_555
C1 H1 1_555 1_555
C2 C1 1_555 1_555
H2 C2 1_555 1_555
C3 C2 1_555 1_555
H3 C3 1_555 1_555
C4 C3 1_555 1_555
H4 C4 1_555 1_555
C5 N1 1_555 1_555
C6 C5 1_555 1_555
C7 C6 1_555 1_555
H5 C7 1_555 1_555
C8 C7 1_555 1_555
C9 C8 1_555 1_555
H6 C9 1_555 1_555
C10 N2 1_555 1_555
C11 C10 1_555 1_555
C12 N3 1_555 1_555
H7 C12 1_555 1_555
C13 C12 1_555 1_555
H8 C13 1_555 1_555
C14 C13 1_555 1_555
H9 C14 1_555 1_555
C15 C11 1_555 1_555
H10 C15 1_555 1_555
C16 C8 1_555 1_555
C17 C16 1_555 1_555
H11 C17 1_555 1_555
C18 C17 1_555 1_555
H12 C18 1_555 1_555
C19 C18 1_555 1_555
C20 C19 1_555 1_555
H13 C20 1_555 1_555
C21 C16 1_555 1_555
H14 C21 1_555 1_555
C22 C19 1_555 1_555
C23 C22 1_555 1_555
H15 C23 1_555 1_555
C24 C23 1_555 1_555
H16 C24 1_555 1_555
C25 C24 1_555 1_555
C26 C25 1_555 1_555
H17 C26 1_555 1_555
C27 C22 1_555 1_555
H18 C27 1_555 1_555
C28 C25 1_555 1_555
C29 O2 1_555 1_555
H19 C29 1_555 1_555
H20 C29 1_555 1_555
C30 C29 1_555 1_555
H21 C30 1_555 1_555
H22 C30 1_555 1_555
H23 C30 1_555 1_555
C1 C5 1_555 1_555
C9 C10 1_555 1_555
C14 C15 1_555 1_555
C20 C21 1_555 1_555
C26 C27 1_555 1_555

#END
