
#######################################################################
#
#                 Cambridge Crystallographic Data Centre
#                                CCDC 
#
#######################################################################
#
# If this CIF has been generated from an entry in the Cambridge 
# Structural Database, then it will include bibliographic, chemical, 
# crystal, experimental, refinement or atomic coordinate data resulting 
# from the CCDC's data processing and validation procedures.
#
#######################################################################

data_UXINAS
_chemical_formula_moiety         'C36 H27 N3 O2'
_chemical_name_systematic        
"ethyl 4''-(2,2':6',2''-terpyridin-4'-yl)-1,1':4',1''-terphenyl-4-carboxylate"
_symmetry_cell_setting           monoclinic
_symmetry_space_group_name_H-M   'P 21/c'
_symmetry_Int_Tables_number      14
_space_group_name_Hall           '-P 2ybc'
loop_
_symmetry_equiv_pos_site_id
_symmetry_equiv_pos_as_xyz
1 x,y,z
2 -x,1/2+y,1/2-z
3 -x,-y,-z
4 x,1/2-y,1/2+z
_cell_length_a                   22.883(5)
_cell_length_b                   8.3520(17)
_cell_length_c                   14.445(3)
_cell_angle_alpha                90
_cell_angle_beta                 106.61(3)
_cell_angle_gamma                90
_cell_volume                     2645.51
_exptl_crystal_colour            colorless
_exptl_crystal_description       needle
_cell_formula_units_Z            4
loop_
_atom_site_label
_atom_site_type_symbol
_atom_site_fract_x
_atom_site_fract_y
_atom_site_fract_z
N1 N 0.48954(4) 0.37543(10) 0.15410(6)
N2 N 0.41635(4) 0.11853(9) -0.04649(5)
N3 N 0.30144(4) -0.12997(10) -0.20511(6)
O1 O -0.12787(3) 0.31809(9) 0.62321(5)
O2 O -0.17830(3) 0.11598(8) 0.53169(5)
C1 C 0.52682(4) 0.28765(12) 0.02300(7)
H1 H 0.5210 0.2250 -0.0338
C2 C 0.57935(4) 0.37848(12) 0.05837(7)
H2 H 0.6101 0.3788 0.0260
C3 C 0.58636(4) 0.46852(12) 0.14139(7)
H3 H 0.6216 0.5328 0.1666
C4 C 0.54040(5) 0.46211(13) 0.18663(7)
H4 H 0.5454 0.5228 0.2440
C5 C 0.48270(4) 0.29036(11) 0.07274(6)
C6 C 0.42432(4) 0.20087(11) 0.03615(6)
C7 C 0.38022(4) 0.20836(11) 0.08601(6)
H5 H 0.3883 0.2661 0.1450
C8 C 0.32425(4) 0.13075(11) 0.04883(6)
C9 C 0.31618(4) 0.04608(11) -0.03747(6)
H6 H 0.2789 -0.0084 -0.0659
C10 C 0.36302(4) 0.04178(11) -0.08165(6)
C11 C 0.35436(4) -0.05007(11) -0.17295(6)
C12 C 0.29206(5) -0.21322(13) -0.28674(7)
H7 H 0.2547 -0.2698 -0.3100
C13 C 0.33413(5) -0.22184(13) -0.33998(7)
H8 H 0.3258 -0.2833 -0.3976
C14 C 0.38843(5) -0.13807(12) -0.30632(7)
H9 H 0.4180 -0.1408 -0.3409
C15 C 0.39901(4) -0.05025(11) -0.22166(6)
H10 H 0.4358 0.0084 -0.1974
C16 C 0.27518(4) 0.13920(11) 0.09739(6)
C17 C 0.28107(5) 0.23696(13) 0.17785(7)
H11 H 0.3172 0.2985 0.2019
C18 C 0.23550(5) 0.24642(13) 0.22355(7)
H12 H 0.2410 0.3145 0.2781
C19 C 0.18163(4) 0.15803(11) 0.19125(6)
C20 C 0.17544(4) 0.06126(11) 0.11006(7)
H13 H 0.1393 0.0000 0.0858
C21 C 0.22106(4) 0.05270(12) 0.06396(7)
H14 H 0.2152 -0.0134 0.0086
C22 C 0.13387(4) 0.16549(11) 0.24229(6)
C23 C 0.12928(4) 0.29872(11) 0.29898(6)
H15 H 0.1561 0.3869 0.3026
C24 C 0.08623(4) 0.30384(11) 0.34997(6)
H16 H 0.0843 0.3950 0.3883
C25 C 0.04556(4) 0.17699(11) 0.34586(6)
C26 C 0.04950(4) 0.04464(11) 0.28824(6)
H17 H 0.0222 -0.0425 0.2837
C27 C 0.09287(4) 0.03903(11) 0.23758(6)
H18 H 0.0947 -0.0521 0.1992
C28 C -0.00015(4) 0.18394(11) 0.40066(6)
C29 C 0.01271(4) 0.26580(12) 0.48892(7)
H19 H 0.0515 0.3144 0.5146
C30 C -0.03060(4) 0.27663(12) 0.53921(7)
H20 H -0.0216 0.3345 0.5982
C31 C -0.08714(4) 0.20287(11) 0.50335(6)
C32 C -0.10028(4) 0.11839(12) 0.41648(7)
H21 H -0.1385 0.0661 0.3923
C33 C -0.05725(4) 0.11088(12) 0.36528(7)
H22 H -0.0668 0.0553 0.3054
C34 C -0.13212(4) 0.22001(11) 0.55952(6)
C35 C -0.22259(4) 0.12038(12) 0.58655(7)
H23 H -0.2475 0.2189 0.5715
H24 H -0.2017 0.1181 0.6568
C36 C -0.26205(5) -0.02555(13) 0.55709(7)
H25 H -0.2838 -0.0193 0.4881
H26 H -0.2916 -0.0307 0.5944
H27 H -0.2365 -0.1217 0.5696
loop_
_geom_bond_atom_site_label_1
_geom_bond_atom_site_label_2
_geom_bond_site_symmetry_1
_geom_bond_site_symmetry_2
N1 C4 1_555 1_555
N2 C6 1_555 1_555
N3 C11 1_555 1_555
O1 C34 1_555 1_555
O2 C34 1_555 1_555
C1 H1 1_555 1_555
C2 C1 1_555 1_555
H2 C2 1_555 1_555
C3 C2 1_555 1_555
H3 C3 1_555 1_555
C4 C3 1_555 1_555
H4 C4 1_555 1_555
C5 N1 1_555 1_555
C6 C5 1_555 1_555
C7 C6 1_555 1_555
H5 C7 1_555 1_555
C8 C7 1_555 1_555
C9 C8 1_555 1_555
H6 C9 1_555 1_555
C10 N2 1_555 1_555
C11 C10 1_555 1_555
C12 N3 1_555 1_555
H7 C12 1_555 1_555
C13 C12 1_555 1_555
H8 C13 1_555 1_555
C14 C13 1_555 1_555
H9 C14 1_555 1_555
C15 C11 1_555 1_555
H10 C15 1_555 1_555
C16 C8 1_555 1_555
C17 C16 1_555 1_555
H11 C17 1_555 1_555
C18 C17 1_555 1_555
H12 C18 1_555 1_555
C19 C18 1_555 1_555
C20 C19 1_555 1_555
H13 C20 1_555 1_555
C21 C16 1_555 1_555
H14 C21 1_555 1_555
C22 C19 1_555 1_555
C23 C22 1_555 1_555
H15 C23 1_555 1_555
C24 C23 1_555 1_555
H16 C24 1_555 1_555
C25 C24 1_555 1_555
C26 C25 1_555 1_555
H17 C26 1_555 1_555
C27 C22 1_555 1_555
H18 C27 1_555 1_555
C28 C25 1_555 1_555
C29 C28 1_555 1_555
H19 C29 1_555 1_555
C30 C29 1_555 1_555
H20 C30 1_555 1_555
C31 C30 1_555 1_555
C32 C31 1_555 1_555
H21 C32 1_555 1_555
C33 C28 1_555 1_555
H22 C33 1_555 1_555
C34 C31 1_555 1_555
C35 O2 1_555 1_555
H23 C35 1_555 1_555
H24 C35 1_555 1_555
C36 C35 1_555 1_555
H25 C36 1_555 1_555
H26 C36 1_555 1_555
H27 C36 1_555 1_555
C1 C5 1_555 1_555
C9 C10 1_555 1_555
C14 C15 1_555 1_555
C20 C21 1_555 1_555
C26 C27 1_555 1_555
C32 C33 1_555 1_555

#END
