
#######################################################################
#
#                 Cambridge Crystallographic Data Centre
#                                CCDC 
#
#######################################################################
#
# If this CIF has been generated from an entry in the Cambridge 
# Structural Database, then it will include bibliographic, chemical, 
# crystal, experimental, refinement or atomic coordinate data resulting 
# from the CCDC's data processing and validation procedures.
#
#######################################################################

data_UXINEW
_chemical_formula_moiety         'C22 H17 N3 O1'
_chemical_name_systematic        4'-(benzyloxy)-2,2':6',2''-terpyridine
_symmetry_cell_setting           monoclinic
_symmetry_space_group_name_H-M   'P 21/n'
_symmetry_Int_Tables_number      14
_space_group_name_Hall           '-P 2yn'
loop_
_symmetry_equiv_pos_site_id
_symmetry_equiv_pos_as_xyz
1 x,y,z
2 1/2-x,1/2+y,1/2-z
3 -x,-y,-z
4 1/2+x,1/2-y,1/2+z
_cell_length_a                   5.7140(11)
_cell_length_b                   16.831(3)
_cell_length_c                   17.555(4)
_cell_angle_alpha                90
_cell_angle_beta                 92.54(3)
_cell_angle_gamma                90
_cell_volume                     1686.65
_exptl_crystal_colour            colorless
_exptl_crystal_description       Plate
_cell_formula_units_Z            4
loop_
_atom_site_label
_atom_site_type_symbol
_atom_site_fract_x
_atom_site_fract_y
_atom_site_fract_z
N1 N 0.82032(14) 0.60465(5) 0.02128(4)
N2 N 0.64679(13) 0.77887(4) 0.12465(4)
N3 N 0.64868(14) 0.93385(5) 0.26658(4)
O1 O 1.24885(12) 0.71300(4) 0.24991(4)
C1 C 0.46739(15) 0.68207(6) 0.00513(5)
H1 H 0.3736 0.7248 0.0217
C2 C 0.39141(16) 0.63444(6) -0.05586(5)
H2 H 0.2447 0.6442 -0.0817
C3 C 0.53272(17) 0.57257(6) -0.07835(5)
H3 H 0.4868 0.5399 -0.1205
C4 C 0.74355(17) 0.55956(6) -0.03759(5)
H4 H 0.8384 0.5163 -0.0523
C5 C 0.68472(15) 0.66575(5) 0.04146(5)
C6 C 0.77750(15) 0.71578(5) 0.10619(5)
C7 C 0.98598(15) 0.69524(5) 0.14535(5)
H5 H 1.0782 0.6521 0.1287
C8 C 1.05624(15) 0.73943(5) 0.20952(5)
C9 C 0.92444(15) 0.80521(5) 0.22947(5)
H6 H 0.9702 0.8373 0.2721
C10 C 0.72263(15) 0.82250(5) 0.18467(5)
C11 C 0.57530(15) 0.89171(5) 0.20499(5)
C12 C 0.51439(18) 0.99448(6) 0.28763(5)
H7 H 0.5651 1.0247 0.3310
C13 C 0.30494(16) 1.01585(6) 0.24971(5)
H8 H 0.2143 1.0590 0.2671
C14 C 0.23194(16) 0.97245(6) 0.18572(5)
H9 H 0.0903 0.9856 0.1582
C15 C 0.36935(16) 0.90956(5) 0.16263(5)
H10 H 0.3240 0.8792 0.1188
C16 C 1.29094(17) 0.74465(5) 0.32556(5)
H11 H 1.1406 0.7523 0.3505
H12 H 1.3709 0.7967 0.3230
C17 C 1.44217(14) 0.68655(5) 0.37030(5)
C18 C 1.64515(16) 0.65531(6) 0.34092(5)
H13 H 1.6886 0.6699 0.2912
C19 C 1.78457(16) 0.60281(6) 0.38418(6)
H14 H 1.9227 0.5816 0.3639
C20 C 1.72237(18) 0.58138(6) 0.45689(6)
H15 H 1.8187 0.5461 0.4865
C21 C 1.51916(18) 0.61165(6) 0.48620(5)
H16 H 1.4757 0.5968 0.5358
C22 C 1.37887(15) 0.66386(6) 0.44281(5)
H17 H 1.2391 0.6841 0.4628
loop_
_geom_bond_atom_site_label_1
_geom_bond_atom_site_label_2
_geom_bond_site_symmetry_1
_geom_bond_site_symmetry_2
N1 C4 1_555 1_555
N2 C6 1_555 1_555
N3 C11 1_555 1_555
O1 C8 1_555 1_555
C1 H1 1_555 1_555
C2 C1 1_555 1_555
H2 C2 1_555 1_555
C3 C2 1_555 1_555
H3 C3 1_555 1_555
C4 C3 1_555 1_555
H4 C4 1_555 1_555
C5 N1 1_555 1_555
C6 C5 1_555 1_555
C7 C6 1_555 1_555
H5 C7 1_555 1_555
C8 C7 1_555 1_555
C9 C8 1_555 1_555
H6 C9 1_555 1_555
C10 N2 1_555 1_555
C11 C10 1_555 1_555
C12 N3 1_555 1_555
H7 C12 1_555 1_555
C13 C12 1_555 1_555
H8 C13 1_555 1_555
C14 C13 1_555 1_555
H9 C14 1_555 1_555
C15 C11 1_555 1_555
H10 C15 1_555 1_555
C16 O1 1_555 1_555
H11 C16 1_555 1_555
H12 C16 1_555 1_555
C17 C16 1_555 1_555
C18 C17 1_555 1_555
H13 C18 1_555 1_555
C19 C18 1_555 1_555
H14 C19 1_555 1_555
C20 C19 1_555 1_555
H15 C20 1_555 1_555
C21 C20 1_555 1_555
H16 C21 1_555 1_555
C22 C17 1_555 1_555
H17 C22 1_555 1_555
C1 C5 1_555 1_555
C9 C10 1_555 1_555
C14 C15 1_555 1_555
C21 C22 1_555 1_555

#END
