
#######################################################################
#
#                 Cambridge Crystallographic Data Centre
#                                CCDC 
#
#######################################################################
#
# If this CIF has been generated from an entry in the Cambridge 
# Structural Database, then it will include bibliographic, chemical, 
# crystal, experimental, refinement or atomic coordinate data resulting 
# from the CCDC's data processing and validation procedures.
#
#######################################################################

data_UXIPEX
_chemical_formula_moiety         'C14 H10 Cl1 N1 O3'
_chemical_name_systematic        
(4-((5-Chloro-2-hydroxybenzylidene)amino)phenyl)methanediol
_symmetry_cell_setting           monoclinic
_symmetry_space_group_name_H-M   'C 2'
_symmetry_Int_Tables_number      5
_space_group_name_Hall           'C 2y'
loop_
_symmetry_equiv_pos_site_id
_symmetry_equiv_pos_as_xyz
1 x,y,z
2 -x,y,-z
3 1/2+x,1/2+y,z
4 1/2-x,1/2+y,-z
_cell_length_a                   6.177(2)
_cell_length_b                   7.001(3)
_cell_length_c                   28.415(10)
_cell_angle_alpha                90
_cell_angle_beta                 94.40(3)
_cell_angle_gamma                90
_cell_volume                     1225.19
_exptl_crystal_colour            yellow
_exptl_crystal_description       plate
_cell_formula_units_Z            4
loop_
_atom_site_label
_atom_site_type_symbol
_atom_site_fract_x
_atom_site_fract_y
_atom_site_fract_z
Cl1 Cl 0.2011(4) -0.0734(4) 0.04136(7)
O1 O 0.7911(9) 0.0760(11) 0.2097(2)
H1 H 0.7458 0.0000 0.2287
O2 O -0.0560(10) -0.0808(11) 0.44465(18)
O3 O 0.2422(9) -0.0690(11) 0.4743(2)
H2 H 0.2108 0.0166 0.4987
N1 N 0.4739(9) 0.0000 0.26102(17)
C1 C 0.4377(11) 0.0000 0.1761(2)
C2 C 0.6520(12) 0.037(3) 0.1715(2)
C3 C 0.7209(13) 0.0710(14) 0.1265(2)
H3 H 0.8651 0.1184 0.1236
C4 C 0.5859(13) 0.0430(12) 0.0871(3)
H4 H 0.6347 0.0682 0.0565
C5 C 0.3750(13) -0.037(2) 0.0918(2)
C6 C 0.3025(13) -0.0657(12) 0.1353(2)
H5 H 0.1583 -0.1131 0.1383
C7 C 0.3605(13) 0.0000 0.2227(3)
H6 H 0.2107 0.0000 0.2244
C8 C 0.3814(11) 0.0000 0.3050(2)
C9 C 0.5064(13) -0.0744(12) 0.3448(3)
H7 H 0.6442 -0.1328 0.3405
C10 C 0.4264(12) -0.0634(13) 0.3885(2)
H8 H 0.5151 -0.1006 0.4162
C11 C 0.2167(10) 0.0000 0.3933(2)
C12 C 0.0997(13) 0.0731(12) 0.3542(2)
H9 H -0.0379 0.1319 0.3585
C13 C 0.1725(12) 0.0643(12) 0.3097(2)
H10 H 0.0817 0.1001 0.2822
C14 C 0.1285(13) 0.0000 0.4407(2)
loop_
_geom_bond_atom_site_label_1
_geom_bond_atom_site_label_2
_geom_bond_site_symmetry_1
_geom_bond_site_symmetry_2
Cl1 C5 1_555 1_555
O1 H1 1_555 1_555
O2 C14 1_555 1_555
O3 H2 1_555 1_555
N1 C7 1_555 1_555
C1 C2 1_555 1_555
C2 O1 1_555 1_555
C3 C2 1_555 1_555
H3 C3 1_555 1_555
C4 C3 1_555 1_555
H4 C4 1_555 1_555
C5 C4 1_555 1_555
C6 C1 1_555 1_555
H5 C6 1_555 1_555
C7 C1 1_555 1_555
H6 C7 1_555 1_555
C8 N1 1_555 1_555
C9 C8 1_555 1_555
H7 C9 1_555 1_555
C10 C9 1_555 1_555
H8 C10 1_555 1_555
C11 C10 1_555 1_555
C12 C11 1_555 1_555
H9 C12 1_555 1_555
C13 C8 1_555 1_555
H10 C13 1_555 1_555
C14 O3 1_555 1_555
C5 C6 1_555 1_555
C11 C14 1_555 1_555
C12 C13 1_555 1_555

#END
