
#######################################################################
#
#                 Cambridge Crystallographic Data Centre
#                                CCDC 
#
#######################################################################
#
# If this CIF has been generated from an entry in the Cambridge 
# Structural Database, then it will include bibliographic, chemical, 
# crystal, experimental, refinement or atomic coordinate data resulting 
# from the CCDC's data processing and validation procedures.
#
#######################################################################

data_UXISUQ
_chemical_formula_moiety         'C21 H24 F3 O3 S1 1+,B1 F4 1-,C1 H2 Cl2'
_chemical_name_systematic        
'8,12-Dimethyl-2-oxo-9-phenyl-12-(2,2,2-trifluoroacetoxy)-9-thioniatricyclo[6.2.2.0^1,6^]dodecane tetrafluoroborate dichloromethane solvate'
_symmetry_cell_setting           monoclinic
_symmetry_space_group_name_H-M   'P 21/c'
_symmetry_Int_Tables_number      14
_space_group_name_Hall           '-P 2ybc'
loop_
_symmetry_equiv_pos_site_id
_symmetry_equiv_pos_as_xyz
1 x,y,z
2 -x,1/2+y,1/2-z
3 -x,-y,-z
4 x,1/2-y,1/2+z
_cell_length_a                   26.4514(19)
_cell_length_b                   9.6762(7)
_cell_length_c                   19.9287(14)
_cell_angle_alpha                90
_cell_angle_beta                 95.3800(10)
_cell_angle_gamma                90
_cell_volume                     5078.26
_exptl_crystal_colour            colorless
_exptl_crystal_description       block
_cell_formula_units_Z            8
loop_
_atom_site_label
_atom_site_type_symbol
_atom_site_fract_x
_atom_site_fract_y
_atom_site_fract_z
S1 S 0.03182(3) 0.21480(7) 0.12091(4)
F1 F 0.22406(10) 0.3738(3) -0.04341(12)
F2 F 0.28963(8) 0.3630(3) 0.02912(17)
F3 F 0.23307(9) 0.5162(2) 0.03778(14)
O1 O 0.23157(9) 0.1839(3) 0.08857(13)
O2 O 0.16410(7) 0.3287(2) 0.06435(10)
O3 O 0.15979(9) 0.1779(3) 0.29909(12)
C1 C 0.24029(12) 0.3861(4) 0.0216(2)
C2 C 0.12874(14) 0.5314(4) 0.30676(17)
H1 H 0.1174 0.6002 0.3389
H2 H 0.1654 0.5464 0.3028
C3 C -0.10263(13) 0.4155(4) 0.12587(18)
H3 H -0.1185 0.4808 0.1526
C4 C 0.12049(13) 0.3849(4) 0.33347(16)
H4 H 0.1422 0.3714 0.3762
H5 H 0.0846 0.3746 0.3431
C5 C -0.13014(12) 0.3562(4) 0.07113(18)
H6 H -0.1648 0.3801 0.0608
C6 C 0.05645(12) 0.3477(3) 0.00583(14)
H7 H 0.0827 0.3897 -0.0191
H8 H 0.0268 0.4088 0.0039
H9 H 0.0465 0.2583 -0.0144
C7 C 0.21206(12) 0.2849(4) 0.06374(16)
C8 C -0.10745(12) 0.2619(4) 0.03116(17)
H10 H -0.1262 0.2239 -0.0075
C9 C 0.12296(12) 0.1054(3) 0.04411(16)
H11 H 0.1538 0.0504 0.0544
H12 H 0.1202 0.1326 -0.0035
H13 H 0.0932 0.0503 0.0530
C10 C 0.09915(13) 0.5514(3) 0.23825(16)
H14 H 0.1052 0.6459 0.2217
H15 H 0.0624 0.5421 0.2430
C11 C -0.05203(12) 0.3813(3) 0.14256(16)
H16 H -0.0329 0.4234 0.1798
C12 C 0.13722(11) 0.1995(3) 0.16405(15)
H17 H 0.1270 0.1028 0.1717
H18 H 0.1743 0.2063 0.1761
C13 C -0.05728(11) 0.2227(3) 0.04749(15)
H19 H -0.0417 0.1559 0.0212
C14 C 0.13289(11) 0.2764(3) 0.28392(15)
C15 C 0.12544(11) 0.2349(3) 0.08840(14)
C16 C 0.08429(11) 0.4630(3) 0.11744(14)
H20 H 0.0505 0.5025 0.1237
H21 H 0.1023 0.5291 0.0901
C17 C 0.05319(11) 0.2528(3) 0.20833(14)
H22 H 0.0329 0.3292 0.2252
H23 H 0.0493 0.1704 0.2368
C18 C 0.10992(11) 0.2949(3) 0.21049(14)
C19 C -0.03036(11) 0.2834(3) 0.10302(14)
C20 C 0.11454(11) 0.4466(3) 0.18704(14)
H24 H 0.1511 0.4635 0.1808
C21 C 0.07713(11) 0.3266(3) 0.07901(14)
S2 S 0.45900(3) 0.82135(8) 0.37301(4)
F4 F 0.28252(18) 0.4975(9) 0.5050(4)
F5 F 0.2621(2) 0.4475(4) 0.4119(5)
F6 F 0.21290(10) 0.5549(4) 0.45984(18)
O4 O 0.26216(9) 0.7807(3) 0.42471(14)
O5 O 0.33295(8) 0.6464(2) 0.41982(11)
O6 O 0.32198(9) 0.9192(2) 0.21087(11)
C22 C 0.26010(16) 0.5440(6) 0.4526(3)
C23 C 0.54322(12) 0.6907(4) 0.32638(18)
H25 H 0.5237 0.6726 0.2848
C24 C 0.36150(16) 0.5951(4) 0.15685(18)
H26 H 0.3255 0.5692 0.1594
H27 H 0.3733 0.5503 0.1165
C25 C 0.59981(12) 0.7411(4) 0.44904(19)
H28 H 0.6191 0.7555 0.4911
C26 C 0.59384(13) 0.6508(4) 0.3369(2)
H29 H 0.6094 0.6061 0.3016
C27 C 0.62176(13) 0.6751(4) 0.3975(2)
H30 H 0.6562 0.6464 0.4040
C28 C 0.37023(13) 0.8621(4) 0.46552(16)
H31 H 0.3384 0.9142 0.4639
H32 H 0.3986 0.9262 0.4625
H33 H 0.3751 0.8109 0.5081
C29 C 0.36551(14) 0.7521(4) 0.14989(16)
H34 H 0.4006 0.7768 0.1412
H35 H 0.3424 0.7832 0.1109
C30 C 0.55002(12) 0.7863(4) 0.43983(16)
H36 H 0.5352 0.8356 0.4743
C31 C 0.39319(14) 0.5430(4) 0.21957(17)
H37 H 0.4295 0.5611 0.2150
H38 H 0.3886 0.4419 0.2235
C32 C 0.41164(11) 0.5675(3) 0.34646(16)
H39 H 0.3966 0.4841 0.3654
H40 H 0.4455 0.5419 0.3331
C33 C 0.44240(12) 0.6198(4) 0.46747(16)
H41 H 0.4176 0.5623 0.4882
H42 H 0.4534 0.6956 0.4981
H43 H 0.4719 0.5634 0.4587
C34 C 0.35209(11) 0.8249(3) 0.21220(15)
C35 C 0.43409(11) 0.8257(3) 0.28445(14)
H44 H 0.4352 0.9212 0.2668
H45 H 0.4547 0.7657 0.2574
C36 C 0.35176(11) 0.8320(3) 0.33861(14)
H46 H 0.3146 0.8214 0.3283
H47 H 0.3592 0.9321 0.3427
C37 C 0.36798(11) 0.7611(3) 0.40683(15)
C38 C 0.37791(11) 0.6137(3) 0.28359(15)
H48 H 0.3423 0.5848 0.2897
C39 C 0.28478(12) 0.6746(4) 0.43000(16)
C40 C 0.52222(11) 0.7573(3) 0.37826(15)
C41 C 0.37858(11) 0.7732(3) 0.28001(14)
C42 C 0.41809(11) 0.6790(3) 0.40125(14)
F7 F -0.00314(8) 0.22479(19) 0.34685(10)
F8 F -0.01672(9) 0.4401(2) 0.30514(10)
F9 F 0.00192(8) 0.4108(2) 0.41696(10)
F10 F -0.07446(8) 0.3428(3) 0.36837(14)
B1 B -0.02342(14) 0.3532(4) 0.35940(19)
F11 F 0.48062(8) 0.6251(2) 0.07280(11)
F12 F 0.55995(9) 0.7021(4) 0.09898(13)
F13 F 0.51646(12) 0.6023(3) 0.17847(11)
F14 F 0.49482(10) 0.8125(2) 0.14081(14)
B2 B 0.51357(15) 0.6880(5) 0.1221(2)
C43 C 0.19973(17) 0.8611(4) 0.1876(2)
H49 H 0.1639 0.8882 0.1759
H50 H 0.2214 0.9389 0.1754
Cl3 Cl 0.21324(5) 0.71616(14) 0.14030(8)
Cl4 Cl 0.20967(5) 0.83232(16) 0.27427(7)
Cl1 Cl 0.33623(4) 0.22591(11) 0.32536(7)
Cl2 Cl 0.26006(4) 0.37639(13) 0.23802(7)
C44 C 0.27855(16) 0.2143(5) 0.2739(3)
H51 H 0.2517 0.1802 0.3011
H52 H 0.2823 0.1467 0.2374
loop_
_geom_bond_atom_site_label_1
_geom_bond_atom_site_label_2
_geom_bond_site_symmetry_1
_geom_bond_site_symmetry_2
S1 C17 1_555 1_555
F1 C1 1_555 1_555
F2 C1 1_555 1_555
F3 C1 1_555 1_555
O1 C7 1_555 1_555
O2 C7 1_555 1_555
O3 C14 1_555 1_555
C1 C7 1_555 1_555
C2 H1 1_555 1_555
H2 C2 1_555 1_555
C3 H3 1_555 1_555
C4 C2 1_555 1_555
H4 C4 1_555 1_555
H5 C4 1_555 1_555
C5 C3 1_555 1_555
H6 C5 1_555 1_555
C6 H7 1_555 1_555
H8 C6 1_555 1_555
H9 C6 1_555 1_555
C8 C5 1_555 1_555
H10 C8 1_555 1_555
C9 H11 1_555 1_555
H12 C9 1_555 1_555
H13 C9 1_555 1_555
C10 C2 1_555 1_555
H14 C10 1_555 1_555
H15 C10 1_555 1_555
C11 C3 1_555 1_555
H16 C11 1_555 1_555
C12 H17 1_555 1_555
H18 C12 1_555 1_555
C13 C8 1_555 1_555
H19 C13 1_555 1_555
C14 C4 1_555 1_555
C15 O2 1_555 1_555
C16 H20 1_555 1_555
H21 C16 1_555 1_555
C17 H22 1_555 1_555
H23 C17 1_555 1_555
C18 C12 1_555 1_555
C19 S1 1_555 1_555
C20 C10 1_555 1_555
H24 C20 1_555 1_555
C21 S1 1_555 1_555
S2 C35 1_555 1_555
F4 C22 1_555 1_555
F5 C22 1_555 1_555
F6 C22 1_555 1_555
O4 C39 1_555 1_555
O5 C37 1_555 1_555
O6 C34 1_555 1_555
C22 C39 1_555 1_555
C23 H25 1_555 1_555
C24 H26 1_555 1_555
H27 C24 1_555 1_555
C25 H28 1_555 1_555
C26 C23 1_555 1_555
H29 C26 1_555 1_555
C27 C25 1_555 1_555
H30 C27 1_555 1_555
C28 H31 1_555 1_555
H32 C28 1_555 1_555
H33 C28 1_555 1_555
C29 C24 1_555 1_555
H34 C29 1_555 1_555
H35 C29 1_555 1_555
C30 C25 1_555 1_555
H36 C30 1_555 1_555
C31 C24 1_555 1_555
H37 C31 1_555 1_555
H38 C31 1_555 1_555
C32 H39 1_555 1_555
H40 C32 1_555 1_555
C33 H41 1_555 1_555
H42 C33 1_555 1_555
H43 C33 1_555 1_555
C34 C29 1_555 1_555
C35 H44 1_555 1_555
H45 C35 1_555 1_555
C36 H46 1_555 1_555
H47 C36 1_555 1_555
C37 C28 1_555 1_555
C38 C31 1_555 1_555
H48 C38 1_555 1_555
C39 O5 1_555 1_555
C40 S2 1_555 1_555
C41 C34 1_555 1_555
C42 S2 1_555 1_555
F7 B1 1_555 1_555
F8 B1 1_555 1_555
F9 B1 1_555 1_555
F10 B1 1_555 1_555
F11 B2 1_555 1_555
F12 B2 1_555 1_555
F13 B2 1_555 1_555
F14 B2 1_555 1_555
C43 H49 1_555 1_555
H50 C43 1_555 1_555
Cl1 C44 1_555 1_555
Cl2 C44 1_555 1_555
C44 H51 1_555 1_555
H52 C44 1_555 1_555
Cl3 C43 1_555 1_555
Cl4 C43 1_555 1_555
C6 C21 1_555 1_555
C9 C15 1_555 1_555
C11 C19 1_555 1_555
C12 C15 1_555 1_555
C13 C19 1_555 1_555
C14 C18 1_555 1_555
C15 C21 1_555 1_555
C16 C20 1_555 1_555
C16 C21 1_555 1_555
C17 C18 1_555 1_555
C18 C20 1_555 1_555
C23 C40 1_555 1_555
C26 C27 1_555 1_555
C30 C40 1_555 1_555
C32 C38 1_555 1_555
C32 C42 1_555 1_555
C33 C42 1_555 1_555
C35 C41 1_555 1_555
C36 C37 1_555 1_555
C36 C41 1_555 1_555
C37 C42 1_555 1_555
C38 C41 1_555 1_555

#END
