
#######################################################################
#
#                 Cambridge Crystallographic Data Centre
#                                CCDC 
#
#######################################################################
#
# If this CIF has been generated from an entry in the Cambridge 
# Structural Database, then it will include bibliographic, chemical, 
# crystal, experimental, refinement or atomic coordinate data resulting 
# from the CCDC's data processing and validation procedures.
#
#######################################################################

data_UXOBUF
_chemical_formula_moiety         'C19 H20 F3 N1 O3'
_chemical_name_systematic        
N-(2-Methoxy-1-phenylethyl)-\a-(trifluoromethyl)phenylalanine
_symmetry_cell_setting           monoclinic
_symmetry_space_group_name_H-M   'P 21'
_symmetry_Int_Tables_number      4
_space_group_name_Hall           'P 2yb'
loop_
_symmetry_equiv_pos_site_id
_symmetry_equiv_pos_as_xyz
1 x,y,z
2 -x,1/2+y,-z
_cell_length_a                   6.161(4)
_cell_length_b                   17.813(10)
_cell_length_c                   8.920(5)
_cell_angle_alpha                90
_cell_angle_beta                 101.978(11)
_cell_angle_gamma                90
_cell_volume                     957.619
_exptl_crystal_colour            colorless
_exptl_crystal_description       prismatic
_cell_formula_units_Z            2
loop_
_atom_site_label
_atom_site_type_symbol
_atom_site_fract_x
_atom_site_fract_y
_atom_site_fract_z
F1 F 0.2698(5) 0.99611(15) 0.1158(3)
F2 F 0.0211(6) 1.01339(17) 0.2502(4)
F3 F 0.3651(7) 1.01771(19) 0.3576(3)
O1 O 0.6015(5) 0.8904(3) 0.3096(4)
O2 O 0.4159(8) 0.7888(3) 0.2186(5)
O3 O 0.090(3) 0.7308(9) 0.0244(16)
N1 N 0.0200(5) 0.8623(2) 0.1751(3)
C1 C 0.2179(8) 0.9812(3) 0.2525(5)
C2 C 0.2037(6) 0.8961(2) 0.2799(4)
C3 C 0.4250(7) 0.8586(3) 0.2689(5)
C4 C 0.1668(6) 0.8855(2) 0.4463(4)
H1 H 0.2719 0.9170 0.5145
H2 H 0.0190 0.9031 0.4500
C5 C 0.1908(7) 0.8064(2) 0.5065(4)
C6 C 0.3907(8) 0.7798(3) 0.5914(5)
H3 H 0.5130 0.8116 0.6117
C7 C 0.4115(10) 0.7083(4) 0.6453(7)
H4 H 0.5475 0.6922 0.7021
C8 C 0.2340(10) 0.6589(3) 0.6176(7)
H5 H 0.2497 0.6098 0.6537
C9 C 0.0356(10) 0.6844(3) 0.5358(7)
H6 H -0.0862 0.6523 0.5173
C10 C 0.0126(8) 0.7567(3) 0.4801(6)
H7 H -0.1241 0.7726 0.4240
C11 C 0.0073(9) 0.8586(3) 0.0094(4)
H8 H 0.1588 0.8613 -0.0085
C12 C -0.0852(14) 0.7821(3) -0.0416(7)
H9 H -0.2188 0.7719 -0.0036
H10 H -0.1193 0.7785 -0.1525
C13 C 0.026(6) 0.6560(11) 0.007(3)
H11 H -0.0388 0.6410 0.0912
H12 H 0.1529 0.6252 0.0041
H13 H -0.0815 0.6501 -0.0874
C14 C -0.1309(8) 0.9191(3) -0.0881(4)
C15 C -0.3099(8) 0.9530(4) -0.0502(6)
H14 H -0.3482 0.9412 0.0425
C16 C -0.4363(11) 1.0047(5) -0.1472(8)
H15 H -0.5606 1.0263 -0.1207
C17 C -0.3778(11) 1.0238(4) -0.2819(6)
H16 H -0.4619 1.0585 -0.3473
C18 C -0.1985(13) 0.9923(4) -0.3193(6)
H17 H -0.1593 1.0055 -0.4110
C19 C -0.0705(11) 0.9405(3) -0.2235(5)
H18 H 0.0554 0.9201 -0.2500
H19 H -0.099(5) 0.866(3) 0.209(5)
H20 H 0.297(11) 0.767(6) 0.185(12)
C20? C -0.105(5) 0.6571(11) 0.045(3)
H21? H -0.2437 0.7823 -0.0455
H22? H -0.0633 0.7727 -0.1445
H23? H -0.2446 0.6658 0.0740
H24? H -0.0212 0.6208 0.1128
H25? H -0.1310 0.6386 -0.0582
O4? O 0.012(4) 0.7233(9) 0.054(2)
loop_
_geom_bond_atom_site_label_1
_geom_bond_atom_site_label_2
_geom_bond_site_symmetry_1
_geom_bond_site_symmetry_2
F1 C1 1_555 1_555
F2 C1 1_555 1_555
F3 C1 1_555 1_555
O1 C3 1_555 1_555
O2 C3 1_555 1_555
O3 C12 1_555 1_555
N1 C2 1_555 1_555
C1 C2 1_555 1_555
C2 C3 1_555 1_555
C4 C2 1_555 1_555
H1 C4 1_555 1_555
H2 C4 1_555 1_555
C5 C4 1_555 1_555
C6 C5 1_555 1_555
H3 C6 1_555 1_555
C7 C6 1_555 1_555
H4 C7 1_555 1_555
C8 C7 1_555 1_555
H5 C8 1_555 1_555
C9 C8 1_555 1_555
H6 C9 1_555 1_555
C10 C5 1_555 1_555
H7 C10 1_555 1_555
C11 N1 1_555 1_555
H8 C11 1_555 1_555
C12 C11 1_555 1_555
H9 C12 1_555 1_555
H10 C12 1_555 1_555
C13 O3 1_555 1_555
H11 C13 1_555 1_555
H12 C13 1_555 1_555
H13 C13 1_555 1_555
C14 C11 1_555 1_555
C15 C14 1_555 1_555
H14 C15 1_555 1_555
C16 C15 1_555 1_555
H15 C16 1_555 1_555
C17 C16 1_555 1_555
H16 C17 1_555 1_555
C18 C17 1_555 1_555
H17 C18 1_555 1_555
C19 C14 1_555 1_555
H18 C19 1_555 1_555
H19 N1 1_555 1_555
H20 O2 1_555 1_555
C9 C10 1_555 1_555
C18 C19 1_555 1_555

#END
