
#######################################################################
#
#                 Cambridge Crystallographic Data Centre
#                                CCDC 
#
#######################################################################
#
# If this CIF has been generated from an entry in the Cambridge 
# Structural Database, then it will include bibliographic, chemical, 
# crystal, experimental, refinement or atomic coordinate data resulting 
# from the CCDC's data processing and validation procedures.
#
#######################################################################

data_UXOFAP
_chemical_formula_moiety         'C28 H38 O3 Si2'
_chemical_name_systematic        
8a-Hydroxy-7a-methyl-4,13-bis(trimethylsilyl)-7,7a,8,8a,9,9a,10,11-octahydro-5H-benzo[fg]tetracene-5,12(6H)-dione
_symmetry_cell_setting           monoclinic
_symmetry_space_group_name_H-M   'P 21/c'
_symmetry_Int_Tables_number      14
_space_group_name_Hall           '-P 2ybc'
loop_
_symmetry_equiv_pos_site_id
_symmetry_equiv_pos_as_xyz
1 x,y,z
2 -x,1/2+y,1/2-z
3 -x,-y,-z
4 x,1/2-y,1/2+z
_cell_length_a                   22.3365(7)
_cell_length_b                   13.2652(4)
_cell_length_c                   18.3540(5)
_cell_angle_alpha                90
_cell_angle_beta                 99.730(2)
_cell_angle_gamma                90
_cell_volume                     5360.03
_exptl_crystal_colour            colorless
_exptl_crystal_description       prism
_cell_formula_units_Z            8
loop_
_atom_site_label
_atom_site_type_symbol
_atom_site_fract_x
_atom_site_fract_y
_atom_site_fract_z
Si1 Si 0.41581(6) 0.40439(9) 0.21305(6)
Si2 Si 0.30014(7) 0.84456(10) 0.40437(7)
C1 C 0.38347(18) 0.5385(3) 0.43622(19)
C2 C 0.41854(17) 0.4961(3) 0.3878(2)
C3 C 0.46058(19) 0.5575(3) 0.3600(2)
H1 H 0.4848 0.5297 0.3271
C4 C 0.4673(2) 0.6579(3) 0.3798(2)
H2 H 0.4970 0.6980 0.3620
C5 C 0.4309(2) 0.6999(3) 0.4253(2)
H3 H 0.4348 0.7694 0.4376
C6 C 0.38839(19) 0.6412(3) 0.4535(2)
C7 C 0.35047(19) 0.6823(3) 0.5052(2)
C8 C 0.3169(2) 0.7677(3) 0.4924(2)
C9 C 0.2883(2) 0.8095(4) 0.5531(2)
O1 O 0.2685(2) 0.8949(3) 0.54983(18)
C10 C 0.2861(2) 0.7464(4) 0.6207(3)
H4 H 0.2457 0.7546 0.6354
H5 H 0.3169 0.7720 0.6617
C11 C 0.2974(2) 0.6357(4) 0.6099(2)
H6 H 0.2619 0.6060 0.5774
H7 H 0.3020 0.6009 0.6583
C12 C 0.35469(19) 0.6183(3) 0.5755(2)
C13 C 0.3626(2) 0.5046(3) 0.5597(2)
H8 H 0.4057 0.4859 0.5758
H9 H 0.3379 0.4649 0.5894
C14 C 0.34373(17) 0.4762(3) 0.4778(2)
O2 O 0.28193(12) 0.5082(2) 0.45416(15)
H10 H 0.2589 0.4753 0.4771
C15 C 0.3489(2) 0.3634(3) 0.4643(2)
H11 H 0.3149 0.3433 0.4252
H12 H 0.3436 0.3274 0.5101
C16 C 0.4082(2) 0.3275(3) 0.4417(2)
H13 H 0.4426 0.3421 0.4827
C17 C 0.4045(3) 0.2151(3) 0.4283(3)
H14 H 0.4115 0.1793 0.4764
H15 H 0.3634 0.1973 0.4023
C18 C 0.4512(3) 0.1815(4) 0.3826(3)
H16 H 0.4925 0.1941 0.4105
H17 H 0.4470 0.1082 0.3731
C19 C 0.4435(2) 0.2373(3) 0.3098(3)
O3 O 0.4575(2) 0.1965(2) 0.2553(2)
C20 C 0.42466(19) 0.3442(3) 0.3083(2)
C21 C 0.41735(18) 0.3867(3) 0.3737(2)
C22 C 0.3115(3) 0.7732(5) 0.3202(3)
H18 H 0.2862 0.8027 0.2766
H19 H 0.2999 0.7026 0.3252
H20 H 0.3543 0.7768 0.3146
C23 C 0.3482(3) 0.9599(4) 0.4151(4)
H21 H 0.3444 0.9948 0.3674
H22 H 0.3907 0.9409 0.4318
H23 H 0.3348 1.0047 0.4516
C24 C 0.2185(3) 0.8802(6) 0.3845(3)
H24 H 0.2087 0.9220 0.4249
H25 H 0.1935 0.8191 0.3801
H26 H 0.2103 0.9182 0.3381
C25 C 0.3756(3) 0.5278(4) 0.2074(3)
H27 H 0.3567 0.5407 0.1560
H28 H 0.4048 0.5815 0.2243
H29 H 0.3442 0.5261 0.2387
C26 C 0.3673(3) 0.3189(5) 0.1457(3)
H30 H 0.3600 0.3505 0.0967
H31 H 0.3284 0.3072 0.1623
H32 H 0.3882 0.2544 0.1429
C27 C 0.4911(3) 0.4213(4) 0.1832(3)
H33 H 0.5159 0.3607 0.1957
H34 H 0.5119 0.4797 0.2087
H35 H 0.4851 0.4323 0.1297
C28 C 0.4109(2) 0.6529(4) 0.6300(3)
H36 H 0.4474 0.6421 0.6079
H37 H 0.4140 0.6139 0.6758
H38 H 0.4070 0.7247 0.6409
Si3 Si 0.08191(6) 0.60832(10) 0.40117(7)
Si4 Si 0.18900(8) 0.15402(13) 0.19056(8)
C29 C 0.12591(19) 0.4820(3) 0.1820(2)
C30 C 0.1677(2) 0.4062(4) 0.1775(3)
C31 C 0.2190(3) 0.3975(5) 0.2325(3)
H39 H 0.2479 0.3461 0.2290
C32 C 0.2280(3) 0.4633(6) 0.2919(3)
H40 H 0.2628 0.4564 0.3293
C33 C 0.1867(2) 0.5383(5) 0.2968(3)
H41 H 0.1933 0.5838 0.3374
C34 C 0.1353(2) 0.5483(4) 0.2430(3)
C35 C 0.0918(2) 0.6340(3) 0.2444(3)
C36 C 0.0739(2) 0.6681(3) 0.3063(2)
C37 C 0.0437(2) 0.7686(4) 0.3025(3)
O4 O 0.0393(2) 0.8139(3) 0.3595(2)
C38 C 0.0191(3) 0.8153(4) 0.2297(3)
H42 H 0.0443 0.8746 0.2223
H43 H -0.0226 0.8396 0.2308
C39 C 0.0176(3) 0.7444(5) 0.1650(3)
H44 H 0.0096 0.7832 0.1183
H45 H -0.0156 0.6950 0.1645
C40 C 0.0786(3) 0.6885(4) 0.1704(3)
C41 C 0.0830(3) 0.6208(5) 0.1051(3)
H46 H 0.1233 0.6298 0.0905
H47 H 0.0518 0.6414 0.0628
C42 C 0.0741(3) 0.5098(4) 0.1218(3)
O5 O 0.01658(18) 0.5046(3) 0.1462(2)
H48 H 0.001(3) 0.448(6) 0.147(4)
C43 C 0.0740(2) 0.4421(4) 0.0545(3)
H49 H 0.0560 0.4806 0.0100
H50 H 0.0468 0.3842 0.0588
C44 C 0.1289(2) 0.7701(4) 0.1801(3)
H51 H 0.1687 0.7376 0.1840
H52 H 0.1272 0.8089 0.2252
H53 H 0.1226 0.8154 0.1373
C45 C 0.1372(3) 0.3993(5) 0.0414(3)
H54 H 0.1667 0.4601 0.0346
C46 C 0.1311(3) 0.3364(6) -0.0257(3)
H55 H 0.1257 0.3805 -0.0699
H56 H 0.0946 0.2934 -0.0287
C47 C 0.1871(3) 0.2692(5) -0.0258(3)
H57 H 0.1808 0.2257 -0.0703
H58 H 0.2232 0.3119 -0.0275
C48 C 0.1981(2) 0.2047(4) 0.0423(3)
O6 O 0.22327(17) 0.1216(3) 0.04279(19)
C49 C 0.1823(2) 0.2459(4) 0.1113(2)
C50 C 0.1624(2) 0.3421(4) 0.1106(2)
C51 C 0.0958(4) 0.4684(4) 0.3994(3)
H59 H 0.1396 0.4556 0.4047
H60 H 0.0753 0.4404 0.3524
H61 H 0.0799 0.4362 0.4403
C52 C 0.1436(3) 0.6646(4) 0.4690(3)
H62 H 0.1399 0.7382 0.4675
H63 H 0.1830 0.6449 0.4567
H64 H 0.1406 0.6404 0.5187
C53 C 0.0087(3) 0.6248(7) 0.4356(4)
H65 H 0.0121 0.5957 0.4852
H66 H -0.0238 0.5905 0.4021
H67 H -0.0008 0.6968 0.4375
C54 C 0.1392(4) 0.1926(7) 0.2580(4)
H68 H 0.1254 0.1325 0.2814
H69 H 0.1039 0.2295 0.2319
H70 H 0.1621 0.2361 0.2959
C55 C 0.2684(3) 0.1290(6) 0.2364(4)
H71 H 0.2946 0.1230 0.1988
H72 H 0.2698 0.0661 0.2646
H73 H 0.2826 0.1848 0.2699
C56 C 0.1566(3) 0.0301(6) 0.1541(5)
H74 H 0.1201 0.0418 0.1172
H75 H 0.1459 -0.0101 0.1949
H76 H 0.1867 -0.0063 0.1312
C57? C 0.0484 0.6014 0.1269
C58? C 0.0813 0.4933 0.1104
C59? C 0.1125 0.5036 0.0585
C60? C 0.1317 0.7406 0.1422
H77? H 0.0313 0.6282 0.0794
H78? H 0.0147 0.5835 0.1505
H79? H 0.1451 0.5503 0.0735
H80? H 0.0872 0.5300 0.0152
H81? H 0.1779 0.4280 0.0337
H82? H 0.1665 0.6970 0.1494
H83? H 0.1203 0.7555 0.0905
H84? H 0.1415 0.8022 0.1691
H85? H 0.0215 0.3698 0.1128
O7? O 0.0519 0.3975 0.0989
loop_
_geom_bond_atom_site_label_1
_geom_bond_atom_site_label_2
_geom_bond_site_symmetry_1
_geom_bond_site_symmetry_2
Si1 C20 1_555 1_555
Si2 C8 1_555 1_555
C1 C2 1_555 1_555
C2 C3 1_555 1_555
C3 H1 1_555 1_555
C4 C3 1_555 1_555
H2 C4 1_555 1_555
C5 C4 1_555 1_555
H3 C5 1_555 1_555
C6 C1 1_555 1_555
C7 C6 1_555 1_555
C8 C7 1_555 1_555
C9 C8 1_555 1_555
O1 C9 1_555 1_555
C10 C9 1_555 1_555
H4 C10 1_555 1_555
H5 C10 1_555 1_555
C11 C10 1_555 1_555
H6 C11 1_555 1_555
H7 C11 1_555 1_555
C12 C7 1_555 1_555
C13 C12 1_555 1_555
H8 C13 1_555 1_555
H9 C13 1_555 1_555
C14 C1 1_555 1_555
O2 C14 1_555 1_555
H10 O2 1_555 1_555
C15 C14 1_555 1_555
H11 C15 1_555 1_555
H12 C15 1_555 1_555
C16 C15 1_555 1_555
H13 C16 1_555 1_555
C17 C16 1_555 1_555
H14 C17 1_555 1_555
H15 C17 1_555 1_555
C18 C17 1_555 1_555
H16 C18 1_555 1_555
H17 C18 1_555 1_555
C19 C18 1_555 1_555
O3 C19 1_555 1_555
C20 C19 1_555 1_555
C21 C2 1_555 1_555
C22 Si2 1_555 1_555
H18 C22 1_555 1_555
H19 C22 1_555 1_555
H20 C22 1_555 1_555
C23 Si2 1_555 1_555
H21 C23 1_555 1_555
H22 C23 1_555 1_555
H23 C23 1_555 1_555
C24 Si2 1_555 1_555
H24 C24 1_555 1_555
H25 C24 1_555 1_555
H26 C24 1_555 1_555
C25 Si1 1_555 1_555
H27 C25 1_555 1_555
H28 C25 1_555 1_555
H29 C25 1_555 1_555
C26 Si1 1_555 1_555
H30 C26 1_555 1_555
H31 C26 1_555 1_555
H32 C26 1_555 1_555
C27 Si1 1_555 1_555
H33 C27 1_555 1_555
H34 C27 1_555 1_555
H35 C27 1_555 1_555
C28 C12 1_555 1_555
H36 C28 1_555 1_555
H37 C28 1_555 1_555
H38 C28 1_555 1_555
Si3 C36 1_555 1_555
Si4 C49 1_555 1_555
C29 C30 1_555 1_555
C30 C31 1_555 1_555
C31 H39 1_555 1_555
C32 C31 1_555 1_555
H40 C32 1_555 1_555
C33 C32 1_555 1_555
H41 C33 1_555 1_555
C34 C29 1_555 1_555
C35 C34 1_555 1_555
C36 C35 1_555 1_555
C37 C36 1_555 1_555
O4 C37 1_555 1_555
C38 C37 1_555 1_555
H42 C38 1_555 1_555
H43 C38 1_555 1_555
C39 C38 1_555 1_555
H44 C39 1_555 1_555
H45 C39 1_555 1_555
C40 C35 1_555 1_555
C41 C40 1_555 1_555
H46 C41 1_555 1_555
H47 C41 1_555 1_555
C42 C29 1_555 1_555
O5 C42 1_555 1_555
H48 O5 1_555 1_555
C43 C42 1_555 1_555
H49 C43 1_555 1_555
H50 C43 1_555 1_555
C44 C40 1_555 1_555
H51 C44 1_555 1_555
H52 C44 1_555 1_555
H53 C44 1_555 1_555
C45 C43 1_555 1_555
H54 C45 1_555 1_555
C46 C45 1_555 1_555
H55 C46 1_555 1_555
H56 C46 1_555 1_555
C47 C46 1_555 1_555
H57 C47 1_555 1_555
H58 C47 1_555 1_555
C48 C47 1_555 1_555
O6 C48 1_555 1_555
C49 C48 1_555 1_555
C50 C30 1_555 1_555
C51 Si3 1_555 1_555
H59 C51 1_555 1_555
H60 C51 1_555 1_555
H61 C51 1_555 1_555
C52 Si3 1_555 1_555
H62 C52 1_555 1_555
H63 C52 1_555 1_555
H64 C52 1_555 1_555
C53 Si3 1_555 1_555
H65 C53 1_555 1_555
H66 C53 1_555 1_555
H67 C53 1_555 1_555
C54 Si4 1_555 1_555
H68 C54 1_555 1_555
H69 C54 1_555 1_555
H70 C54 1_555 1_555
C55 Si4 1_555 1_555
H71 C55 1_555 1_555
H72 C55 1_555 1_555
H73 C55 1_555 1_555
C56 Si4 1_555 1_555
H74 C56 1_555 1_555
H75 C56 1_555 1_555
H76 C56 1_555 1_555
C5 C6 1_555 1_555
C11 C12 1_555 1_555
C13 C14 1_555 1_555
C16 C21 1_555 1_555
C20 C21 1_555 1_555
C33 C34 1_555 1_555
C39 C40 1_555 1_555
C41 C42 1_555 1_555
C45 C50 1_555 1_555
C49 C50 1_555 1_555

#END
