
#######################################################################
#
#                 Cambridge Crystallographic Data Centre
#                                CCDC 
#
#######################################################################
#
# If this CIF has been generated from an entry in the Cambridge 
# Structural Database, then it will include bibliographic, chemical, 
# crystal, experimental, refinement or atomic coordinate data resulting 
# from the CCDC's data processing and validation procedures.
#
#######################################################################

data_UXOJOI
_chemical_formula_moiety         'C19 H16 O4'
_chemical_name_systematic        
'allyl 3-benzyl-2-oxo-2,3-dihydro-1-benzofuran-3-carboxylate'
_symmetry_cell_setting           monoclinic
_symmetry_space_group_name_H-M   'C 2'
_symmetry_Int_Tables_number      5
_space_group_name_Hall           'C 2y'
loop_
_symmetry_equiv_pos_site_id
_symmetry_equiv_pos_as_xyz
1 x,y,z
2 -x,y,-z
3 1/2+x,1/2+y,z
4 1/2-x,1/2+y,-z
_cell_length_a                   15.9902(5)
_cell_length_b                   6.7069(2)
_cell_length_c                   15.5970(5)
_cell_angle_alpha                90
_cell_angle_beta                 107.569(2)
_cell_angle_gamma                90
_cell_volume                     1594.67
_exptl_crystal_colour            colorless
_exptl_crystal_description       block
_cell_formula_units_Z            4
loop_
_atom_site_label
_atom_site_type_symbol
_atom_site_fract_x
_atom_site_fract_y
_atom_site_fract_z
O1 O 0.62071(12) 0.3163(3) 0.25934(13)
C1 C 0.65554(16) 0.4981(5) 0.24204(16)
O2 O 0.49041(14) 0.2142(3) 0.26885(15)
C2 C 0.59594(15) 0.6522(4) 0.23026(16)
O3 O 0.36606(13) 0.6683(4) 0.15781(14)
C3 C 0.61940(19) 0.8403(4) 0.21062(18)
H1 H 0.5793 0.9484 0.2018
C4 C 0.76228(18) 0.7112(5) 0.21722(19)
H2 H 0.8194 0.7341 0.2127
O4 O 0.44980(13) 0.5030(4) 0.08974(13)
C5 C 0.7038(2) 0.8677(5) 0.2040(2)
H3 H 0.7212 0.9962 0.1903
C6 C 0.53584(17) 0.3487(4) 0.25861(17)
C7 C 0.73925(18) 0.5207(5) 0.23693(19)
H4 H 0.7792 0.4121 0.2463
C8 C 0.51312(16) 0.5707(4) 0.24404(18)
C9 C 0.48988(17) 0.6584(5) 0.32592(17)
H5 H 0.4727 0.7997 0.3134
H6 H 0.4386 0.5858 0.3333
C10 C 0.56402(17) 0.6466(5) 0.41308(17)
C11 C 0.6125(2) 0.8136(6) 0.4487(2)
H7 H 0.6000 0.9369 0.4175
C12 C 0.6793(2) 0.8038(7) 0.5298(2)
H8 H 0.7120 0.9201 0.5536
C13 C 0.6983(2) 0.6272(7) 0.5757(2)
H9 H 0.7443 0.6207 0.6309
C14 C 0.6506(2) 0.4596(6) 0.5416(2)
H10 H 0.6636 0.3369 0.5733
C15 C 0.5833(2) 0.4686(6) 0.46070(19)
H11 H 0.5502 0.3523 0.4378
C16 C 0.43330(16) 0.5894(4) 0.15968(18)
C17 C 0.3796(2) 0.4962(6) 0.00523(19)
H12 H 0.4015 0.5470 -0.0436
H13 H 0.3310 0.5836 0.0091
C18 C 0.3468(2) 0.2918(6) -0.0160(2)
H14 H 0.2984 0.2752 -0.0687
C19 C 0.3768(3) 0.1313(7) 0.0296(3)
H15 H 0.4252 0.1394 0.0829
H16 H 0.3505 0.0059 0.0096
loop_
_geom_bond_atom_site_label_1
_geom_bond_atom_site_label_2
_geom_bond_site_symmetry_1
_geom_bond_site_symmetry_2
O1 C1 1_555 1_555
C1 C2 1_555 1_555
O2 C6 1_555 1_555
C2 C3 1_555 1_555
O3 C16 1_555 1_555
C3 H1 1_555 1_555
C4 H2 1_555 1_555
O4 C16 1_555 1_555
C5 C3 1_555 1_555
H3 C5 1_555 1_555
C6 O1 1_555 1_555
C7 C1 1_555 1_555
H4 C7 1_555 1_555
C8 C2 1_555 1_555
C9 C8 1_555 1_555
H5 C9 1_555 1_555
H6 C9 1_555 1_555
C10 C9 1_555 1_555
C11 C10 1_555 1_555
H7 C11 1_555 1_555
C12 C11 1_555 1_555
H8 C12 1_555 1_555
C13 C12 1_555 1_555
H9 C13 1_555 1_555
C14 C13 1_555 1_555
H10 C14 1_555 1_555
C15 C10 1_555 1_555
H11 C15 1_555 1_555
C16 C8 1_555 1_555
C17 O4 1_555 1_555
H12 C17 1_555 1_555
H13 C17 1_555 1_555
C18 C17 1_555 1_555
H14 C18 1_555 1_555
C19 C18 1_555 1_555
H15 C19 1_555 1_555
H16 C19 1_555 1_555
C4 C5 1_555 1_555
C4 C7 1_555 1_555
C6 C8 1_555 1_555
C14 C15 1_555 1_555

#END
