
#######################################################################
#
#                 Cambridge Crystallographic Data Centre
#                                CCDC 
#
#######################################################################
#
# If this CIF has been generated from an entry in the Cambridge 
# Structural Database, then it will include bibliographic, chemical, 
# crystal, experimental, refinement or atomic coordinate data resulting 
# from the CCDC's data processing and validation procedures.
#
#######################################################################

data_UXUHOL
_chemical_formula_moiety         'C17 H18 O5'
_chemical_name_systematic        
4,5',7'-Trimethoxy-2',3'-dihydro-2H,5H-spiro[cyclohex-3-ene-1,1'-indene]-2,5-dione
_symmetry_cell_setting           orthorhombic
_symmetry_space_group_name_H-M   'P b c a'
_symmetry_Int_Tables_number      61
_space_group_name_Hall           '-P 2ac 2ab'
loop_
_symmetry_equiv_pos_site_id
_symmetry_equiv_pos_as_xyz
1 x,y,z
2 1/2-x,-y,1/2+z
3 -x,1/2+y,1/2-z
4 1/2+x,1/2-y,-z
5 -x,-y,-z
6 1/2+x,y,1/2-z
7 x,1/2-y,1/2+z
8 1/2-x,1/2+y,z
_cell_length_a                   15.95(2)
_cell_length_b                   10.446(15)
_cell_length_c                   18.77(3)
_cell_angle_alpha                90
_cell_angle_beta                 90
_cell_angle_gamma                90
_cell_volume                     3127.34
_exptl_crystal_colour            orange
_exptl_crystal_description       block
_cell_formula_units_Z            8
loop_
_atom_site_label
_atom_site_type_symbol
_atom_site_fract_x
_atom_site_fract_y
_atom_site_fract_z
O1 O 0.88438(6) 0.61398(9) 0.53411(5)
O2 O 0.58906(6) 0.71638(9) 0.56615(5)
C1 C 0.73297(8) 0.66523(12) 0.55015(7)
H1 H 0.7160 0.6050 0.5151
C2 C 0.78137(8) 0.84776(12) 0.65442(6)
C3 C 0.81885(8) 0.68142(12) 0.56673(6)
C4 C 0.67197(8) 0.74098(12) 0.58699(6)
C5 C 0.84305(8) 0.77255(12) 0.62004(6)
C6 C 0.69435(8) 0.83406(12) 0.63911(7)
H2 H 0.6532 0.8846 0.6625
C7 C 0.86231(9) 0.52189(13) 0.47858(7)
H3 H 0.8351 0.5667 0.4390
H4 H 0.8238 0.4578 0.4982
H5 H 0.9132 0.4795 0.4614
C8 C 0.52376(9) 0.77581(16) 0.60914(9)
H6 H 0.5285 0.8692 0.6058
H7 H 0.5302 0.7493 0.6589
H8 H 0.4686 0.7490 0.5916
O3 O 1.20419(6) 0.81521(10) 0.63402(5)
O4 O 1.10948(7) 1.01147(10) 0.58590(6)
O5 O 0.94909(7) 0.59057(10) 0.69408(6)
C9 C 1.07201(8) 0.91130(12) 0.60185(7)
C10 C 1.11937(8) 0.79831(12) 0.63623(6)
C11 C 0.98385(8) 0.68727(13) 0.66809(7)
C12 C 1.07729(8) 0.69459(12) 0.66448(7)
H9 H 1.1091 0.6248 0.6824
C13 C 0.93233(8) 0.80732(12) 0.64477(6)
C14 C 0.97918(8) 0.88754(12) 0.58600(7)
H10 H 0.9745 0.8420 0.5399
H11 H 0.9507 0.9712 0.5808
C15 C 1.25641(9) 0.70858(15) 0.66020(8)
H12 H 1.2431 0.6307 0.6334
H13 H 1.2451 0.6944 0.7109
H14 H 1.3158 0.7298 0.6537
C16 C 0.82256(8) 0.94408(13) 0.70620(7)
H15 H 0.7929 0.9457 0.7525
H16 H 0.8230 1.0315 0.6858
C17 C 0.91423(9) 0.89065(14) 0.71481(7)
H17 H 0.9186 0.8367 0.7580
H18 H 0.9549 0.9618 0.7187
loop_
_geom_bond_atom_site_label_1
_geom_bond_atom_site_label_2
_geom_bond_site_symmetry_1
_geom_bond_site_symmetry_2
O1 C3 1_555 1_555
O2 C4 1_555 1_555
C1 H1 1_555 1_555
C2 C5 1_555 1_555
C3 C1 1_555 1_555
C4 C1 1_555 1_555
C5 C3 1_555 1_555
C6 C2 1_555 1_555
H2 C6 1_555 1_555
C7 O1 1_555 1_555
H3 C7 1_555 1_555
H4 C7 1_555 1_555
H5 C7 1_555 1_555
C8 O2 1_555 1_555
H6 C8 1_555 1_555
H7 C8 1_555 1_555
H8 C8 1_555 1_555
O3 C10 1_555 1_555
O4 C9 1_555 1_555
O5 C11 1_555 1_555
C9 C10 1_555 1_555
C10 C12 1_555 1_555
C11 C12 1_555 1_555
C12 H9 1_555 1_555
C13 C5 1_555 1_555
C14 C9 1_555 1_555
H10 C14 1_555 1_555
H11 C14 1_555 1_555
C15 O3 1_555 1_555
H12 C15 1_555 1_555
H13 C15 1_555 1_555
H14 C15 1_555 1_555
C16 C2 1_555 1_555
H15 C16 1_555 1_555
H16 C16 1_555 1_555
C17 C13 1_555 1_555
H17 C17 1_555 1_555
H18 C17 1_555 1_555
C4 C6 1_555 1_555
C11 C13 1_555 1_555
C13 C14 1_555 1_555
C16 C17 1_555 1_555

#END
