
#######################################################################
#
#                 Cambridge Crystallographic Data Centre
#                                CCDC 
#
#######################################################################
#
# If this CIF has been generated from an entry in the Cambridge 
# Structural Database, then it will include bibliographic, chemical, 
# crystal, experimental, refinement or atomic coordinate data resulting 
# from the CCDC's data processing and validation procedures.
#
#######################################################################

data_UXUKEE
_chemical_formula_moiety         'C13 H14 N2 O2'
_chemical_name_systematic        
5-(4-Methoxyphenyl)-7-methyl-5,6-diazaspiro[2.4]hept-6-en-4-one
_symmetry_cell_setting           orthorhombic
_symmetry_space_group_name_H-M   'P b c a'
_symmetry_Int_Tables_number      61
_space_group_name_Hall           '-P 2ac 2ab'
loop_
_symmetry_equiv_pos_site_id
_symmetry_equiv_pos_as_xyz
1 x,y,z
2 1/2-x,-y,1/2+z
3 1/2+x,1/2-y,-z
4 -x,1/2+y,1/2-z
5 -x,-y,-z
6 1/2+x,y,1/2-z
7 1/2-x,1/2+y,z
8 x,1/2-y,1/2+z
_cell_length_a                   8.4987(7)
_cell_length_b                   12.3021(10)
_cell_length_c                   22.5908(17)
_cell_angle_alpha                90
_cell_angle_beta                 90
_cell_angle_gamma                90
_cell_volume                     2361.91
_exptl_crystal_colour            colorless
_exptl_crystal_description       block
_cell_formula_units_Z            8
loop_
_atom_site_label
_atom_site_type_symbol
_atom_site_fract_x
_atom_site_fract_y
_atom_site_fract_z
O1 O 1.00568(17) 0.05233(11) 0.66431(6)
N1 N 0.88831(17) 0.21960(12) 0.68318(6)
N2 N 0.8378(2) 0.27910(12) 0.73309(6)
O2 O 0.8224(2) 0.41860(13) 0.46304(6)
C1 C 0.9415(2) 0.11816(14) 0.76334(7)
C2 C 0.9537(2) 0.12101(15) 0.69829(8)
C3 C 0.8697(2) 0.22156(15) 0.77909(8)
C4 C 0.8651(2) 0.26646(14) 0.62632(7)
C5 C 0.7651(2) 0.35452(15) 0.62062(8)
H1 H 0.7089 0.3788 0.6534
C6 C 0.7475(2) 0.40684(16) 0.56691(8)
H2 H 0.6808 0.4665 0.5638
C7 C 0.9018(2) 0.01131(16) 0.79458(9)
H3 H 0.8315 0.0145 0.8284
H4 H 0.8909 -0.0533 0.7703
C8 C 0.8286(3) 0.37083(16) 0.51783(8)
C9 C 1.0593(2) 0.05693(18) 0.80158(9)
H5 H 1.1455 0.0203 0.7817
H6 H 1.0861 0.0881 0.8397
C10 C 0.9439(2) 0.22833(16) 0.57651(8)
H7 H 1.0093 0.1679 0.5794
C11 C 0.9248(3) 0.28028(17) 0.52288(8)
H8 H 0.9772 0.2542 0.4896
C12 C 0.8360(3) 0.26156(18) 0.83985(9)
H9 H 0.7885 0.3323 0.8377
H10 H 0.9323 0.2660 0.8619
H11 H 0.7652 0.2122 0.8593
C13 C 0.7490(4) 0.5218(2) 0.45885(10)
H12 H 0.7511 0.5461 0.4185
H13 H 0.8043 0.5730 0.4833
H14 H 0.6418 0.5163 0.4720
loop_
_geom_bond_atom_site_label_1
_geom_bond_atom_site_label_2
_geom_bond_site_symmetry_1
_geom_bond_site_symmetry_2
O1 C2 1_555 1_555
N1 N2 1_555 1_555
N2 C3 1_555 1_555
O2 C8 1_555 1_555
C1 C2 1_555 1_555
C2 N1 1_555 1_555
C3 C1 1_555 1_555
C4 N1 1_555 1_555
C5 C4 1_555 1_555
H1 C5 1_555 1_555
C6 C5 1_555 1_555
H2 C6 1_555 1_555
C7 C1 1_555 1_555
H3 C7 1_555 1_555
H4 C7 1_555 1_555
C8 C6 1_555 1_555
C9 C1 1_555 1_555
H5 C9 1_555 1_555
H6 C9 1_555 1_555
C10 C4 1_555 1_555
H7 C10 1_555 1_555
C11 C8 1_555 1_555
H8 C11 1_555 1_555
C12 C3 1_555 1_555
H9 C12 1_555 1_555
H10 C12 1_555 1_555
H11 C12 1_555 1_555
C13 O2 1_555 1_555
H12 C13 1_555 1_555
H13 C13 1_555 1_555
H14 C13 1_555 1_555
C7 C9 1_555 1_555
C10 C11 1_555 1_555

#END
