
#######################################################################
#
#                 Cambridge Crystallographic Data Centre
#                                CCDC 
#
#######################################################################
#
# If this CIF has been generated from an entry in the Cambridge 
# Structural Database, then it will include bibliographic, chemical, 
# crystal, experimental, refinement or atomic coordinate data resulting 
# from the CCDC's data processing and validation procedures.
#
#######################################################################

data_UXULUV
_chemical_formula_moiety         'C20 H18 N2 O3,C1 H1 Cl3'
_chemical_name_systematic        
'18-Methoxy-14-methyl-12-oxa-4,14-diazapentacyclo[11.7.1.0^2,11^.0^5,10^.0^15,20^]henicosa-2(11),3,5(10),6,8,15,17,19-octaen-3-ol chloroform solvate'
_symmetry_cell_setting           monoclinic
_symmetry_space_group_name_H-M   'P 21/c'
_symmetry_Int_Tables_number      14
_space_group_name_Hall           '-P 2ybc'
loop_
_symmetry_equiv_pos_site_id
_symmetry_equiv_pos_as_xyz
1 x,y,z
2 -x,1/2+y,1/2-z
3 -x,-y,-z
4 x,1/2-y,1/2+z
_cell_length_a                   9.8546(10)
_cell_length_b                   17.6925(16)
_cell_length_c                   11.8651(11)
_cell_angle_alpha                90
_cell_angle_beta                 90.986(5)
_cell_angle_gamma                90
_cell_volume                     2068.4
_exptl_crystal_colour            white
_exptl_crystal_description       rhombohedral
_chemical_melting_point          '171 deg.C'
_cell_formula_units_Z            4
loop_
_atom_site_label
_atom_site_type_symbol
_atom_site_fract_x
_atom_site_fract_y
_atom_site_fract_z
C1 C -0.2162(2) 0.03323(12) 0.68311(18)
C2 C 0.0383(2) 0.07507(12) 0.76977(17)
C3 C -0.2055(2) 0.05726(12) 0.79522(18)
C4 C -0.0722(2) 0.07880(12) 0.83646(17)
C5 C 0.1776(2) 0.09701(12) 0.81466(18)
H1 H 0.2469 0.0646 0.7814
C6 C 0.0260(2) 0.04883(12) 0.65477(18)
C7 C 0.2089(2) 0.17885(12) 0.79134(19)
C8 C 0.1766(2) 0.08599(15) 0.94245(19)
H2 H 0.1614 0.0333 0.9608
H3 H 0.2626 0.1016 0.9759
C9 C 0.1514(2) 0.23310(13) 0.8625(2)
C10 C -0.3436(2) 0.01397(15) 0.6373(2)
H4 H -0.3514 -0.0025 0.5631
C11 C 0.0628(2) 0.13419(15) 0.9858(2)
H5 H 0.0651 0.1315 1.0683
C12 C 0.2931(2) 0.20056(14) 0.7048(2)
H6 H 0.3324 0.1639 0.6597
C13 C 0.1775(3) 0.30947(15) 0.8389(2)
H7 H 0.1387 0.3467 0.8834
C14 C -0.3223(2) 0.06175(15) 0.8604(2)
H8 H -0.3157 0.0778 0.9350
C15 C -0.4569(3) 0.01963(16) 0.7027(3)
H9 H -0.5417 0.0080 0.6717
C16 C 0.3195(2) 0.27613(15) 0.6847(2)
C17 C 0.2591(3) 0.33039(15) 0.7516(3)
H10 H 0.2739 0.3814 0.7373
C18 C -0.4466(3) 0.04255(17) 0.8146(3)
H11 H -0.5238 0.0449 0.8584
C19 C -0.0029(3) 0.26536(19) 1.0187(3)
H12 H 0.0579 0.3021 1.0510
H13 H -0.0500 0.2398 1.0778
H14 H -0.0674 0.2902 0.9698
C20 C 0.4647(4) 0.2516(2) 0.5306(3)
H15 H 0.5248 0.2195 0.5734
H16 H 0.5152 0.2782 0.4747
H17 H 0.3958 0.2215 0.4943
N1 N -0.10162(19) 0.02832(11) 0.61813(16)
N2 N 0.0741(2) 0.21065(12) 0.95439(19)
O1 O -0.06856(16) 0.10165(10) 0.94520(13)
O2 O 0.12306(17) 0.04384(10) 0.59123(14)
H18 H 0.1514 0.0003 0.5914
O3 O 0.4036(2) 0.30396(13) 0.60320(19)
C21 C 0.6728(3) 0.16446(16) 0.2693(2)
H19 H 0.5772 0.1622 0.2454
Cl1 Cl 0.68602(12) 0.12691(6) 0.40545(8)
Cl2 Cl 0.72210(14) 0.25860(5) 0.26950(9)
Cl3 Cl 0.76505(15) 0.11133(7) 0.17568(12)
loop_
_geom_bond_atom_site_label_1
_geom_bond_atom_site_label_2
_geom_bond_site_symmetry_1
_geom_bond_site_symmetry_2
C1 C3 1_555 1_555
C2 C4 1_555 1_555
C3 C4 1_555 1_555
C4 O1 1_555 1_555
C5 C2 1_555 1_555
H1 C5 1_555 1_555
C6 C2 1_555 1_555
C7 C5 1_555 1_555
C8 C5 1_555 1_555
H2 C8 1_555 1_555
H3 C8 1_555 1_555
C9 C7 1_555 1_555
C10 C1 1_555 1_555
H4 C10 1_555 1_555
C11 C8 1_555 1_555
H5 C11 1_555 1_555
C12 C7 1_555 1_555
H6 C12 1_555 1_555
C13 C9 1_555 1_555
H7 C13 1_555 1_555
C14 C3 1_555 1_555
H8 C14 1_555 1_555
C15 C10 1_555 1_555
H9 C15 1_555 1_555
C16 C12 1_555 1_555
C17 C13 1_555 1_555
H10 C17 1_555 1_555
C18 C14 1_555 1_555
H11 C18 1_555 1_555
C19 H12 1_555 1_555
H13 C19 1_555 1_555
H14 C19 1_555 1_555
C20 H15 1_555 1_555
H16 C20 1_555 1_555
H17 C20 1_555 1_555
N1 C1 1_555 1_555
N2 C9 1_555 1_555
O1 C11 1_555 1_555
O2 C6 1_555 1_555
H18 O2 1_555 1_555
O3 C16 1_555 1_555
C21 H19 1_555 1_555
Cl1 C21 1_555 1_555
Cl2 C21 1_555 1_555
Cl3 C21 1_555 1_555
C6 N1 1_555 1_555
C11 N2 1_555 1_555
C15 C18 1_555 1_555
C16 C17 1_555 1_555
C19 N2 1_555 1_555
C20 O3 1_555 1_555

#END
