
#######################################################################
#
#                 Cambridge Crystallographic Data Centre
#                                CCDC 
#
#######################################################################
#
# If this CIF has been generated from an entry in the Cambridge 
# Structural Database, then it will include bibliographic, chemical, 
# crystal, experimental, refinement or atomic coordinate data resulting 
# from the CCDC's data processing and validation procedures.
#
#######################################################################

data_UXULUW
_chemical_formula_moiety         'C14 H5 O7 1-,C10 H9 N6 1+,H2 O1'
_chemical_name_systematic        
'5-(4-(1H-tetrazol-5-yl)phenyl)-1H-imidazol-3-ium 7-carboxy-1,3-dioxo-1H,3H-benzo[de]isochromene-6-carboxylate monohydrate'
_symmetry_cell_setting           monoclinic
_symmetry_space_group_name_H-M   'P 21/c'
_symmetry_Int_Tables_number      14
_space_group_name_Hall           '-P 2ybc'
loop_
_symmetry_equiv_pos_site_id
_symmetry_equiv_pos_as_xyz
1 x,y,z
2 -x,1/2+y,1/2-z
3 -x,-y,-z
4 x,1/2-y,1/2+z
_cell_length_a                   8.9705(10)
_cell_length_b                   25.494(3)
_cell_length_c                   10.2372(12)
_cell_angle_alpha                90
_cell_angle_beta                 112.888(2)
_cell_angle_gamma                90
_cell_volume                     2156.86
_exptl_crystal_colour            colorless
_exptl_crystal_description       needle
_cell_formula_units_Z            4
loop_
_atom_site_label
_atom_site_type_symbol
_atom_site_fract_x
_atom_site_fract_y
_atom_site_fract_z
C1 C 0.9775(2) 0.15983(7) 0.2801(2)
H1 H 1.0570 0.1361 0.2821
C2 C 0.8689(2) 0.14650(7) 0.3411(2)
H2 H 0.8772 0.1141 0.3851
C3 C 0.7479(2) 0.18123(7) 0.3366(2)
C4 C 0.7401(3) 0.22992(8) 0.2734(3)
H3 H 0.6599 0.2536 0.2704
C5 C 0.8491(3) 0.24358(8) 0.2153(3)
H4 H 0.8434 0.2766 0.1748
C6 C 0.9682(2) 0.20826(7) 0.2166(2)
C7 C 1.0816(2) 0.22242(7) 0.1513(2)
C8 C 0.6309(2) 0.16930(7) 0.3999(2)
C9 C 0.5171(2) 0.20060(8) 0.4160(2)
H5 H 0.4950 0.2352 0.3861
C10 C 0.5037(3) 0.12486(8) 0.5098(2)
H6 H 0.4721 0.0979 0.5547
N1 N 0.6202(2) 0.12192(6) 0.46113(18)
N2 N 0.4403(2) 0.17174(7) 0.4847(2)
N3 N 1.1208(2) 0.27091(7) 0.12953(19)
N4 N 1.2454(3) 0.21945(7) 0.0464(2)
N5 N 1.1583(2) 0.18932(7) 0.1001(2)
N6 N 1.2228(2) 0.26830(7) 0.0636(2)
H7 H 0.675(3) 0.0905(9) 0.469(2)
H8 H 1.097(3) 0.3038(10) 0.153(3)
H9 H 0.352(3) 0.1853(10) 0.507(3)
C11 C 0.8313(2) 0.09323(7) -0.0673(2)
C12 C 0.8035(2) 0.06284(6) 0.04371(18)
C13 C 0.65633(19) 0.06859(6) 0.06306(17)
C14 C 0.5385(2) 0.10438(6) -0.02162(18)
C15 C 0.5733(2) 0.13782(7) -0.1231(2)
C16 C 0.9214(2) 0.03010(7) 0.12865(19)
H10 H 1.0153 0.0251 0.1122
C17 C 0.9010(2) 0.00396(7) 0.24069(19)
H11 H 0.9842 -0.0171 0.3004
C18 C 0.7610(2) 0.00868(6) 0.26482(18)
C19 C 0.62954(19) 0.03924(6) 0.17086(17)
C20 C 0.47420(19) 0.04475(6) 0.17915(18)
C21 C 0.3635(2) 0.07996(7) 0.0946(2)
H12 H 0.2649 0.0837 0.1038
C22 C 0.3951(2) 0.11045(7) -0.0055(2)
H13 H 0.3192 0.1347 -0.0606
C23 C 0.4196(2) 0.00940(7) 0.26943(19)
C24 C 0.7664(2) -0.01363(7) 0.40364(19)
O1 O 0.44522(17) -0.03725(5) 0.27658(15)
O2 O 0.33379(16) 0.03381(5) 0.32937(15)
O3 O 0.81588(19) -0.05878(5) 0.43785(16)
O4 O 0.72694(15) 0.01845(5) 0.48173(13)
O5 O 0.48534(19) 0.17133(6) -0.19473(16)
O6 O 0.72044(16) 0.13194(5) -0.13537(15)
O7 O 0.94400(17) 0.08775(6) -0.10082(16)
H14 H 0.313(3) 0.0106(9) 0.391(3)
O8 O 0.0431(2) 0.36853(6) 0.1834(2)
H15 H 0.100(4) 0.3920(13) 0.150(4)
H16 H 0.017(3) 0.3791(11) 0.250(3)
loop_
_geom_bond_atom_site_label_1
_geom_bond_atom_site_label_2
_geom_bond_site_symmetry_1
_geom_bond_site_symmetry_2
C1 H1 1_555 1_555
C2 C1 1_555 1_555
H2 C2 1_555 1_555
C3 C2 1_555 1_555
C4 C3 1_555 1_555
H3 C4 1_555 1_555
C5 C4 1_555 1_555
H4 C5 1_555 1_555
C6 C1 1_555 1_555
C7 C6 1_555 1_555
C8 C3 1_555 1_555
C9 C8 1_555 1_555
H5 C9 1_555 1_555
C10 H6 1_555 1_555
N1 C8 1_555 1_555
N2 C9 1_555 1_555
N3 C7 1_555 1_555
N4 N5 1_555 1_555
N5 C7 1_555 1_555
N6 N3 1_555 1_555
H7 N1 1_555 1_555
H8 N3 1_555 1_555
H9 N2 1_555 1_555
C11 C12 1_555 1_555
C12 C13 1_555 1_555
C13 C14 1_555 1_555
C14 C15 1_555 1_555
C15 O5 1_555 1_555
C16 C12 1_555 1_555
H10 C16 1_555 1_555
C17 C16 1_555 1_555
H11 C17 1_555 1_555
C18 C17 1_555 1_555
C19 C13 1_555 1_555
C20 C19 1_555 1_555
C21 C20 1_555 1_555
H12 C21 1_555 1_555
C22 C14 1_555 1_555
H13 C22 1_555 1_555
C23 C20 1_555 1_555
C24 C18 1_555 1_555
O1 C23 1_555 1_555
O2 C23 1_555 1_555
O3 C24 1_555 1_555
O4 C24 1_555 1_555
O6 C11 1_555 1_555
O7 C11 1_555 1_555
H14 O2 1_555 1_555
O8 H15 1_555 1_555
H16 O8 1_555 1_555
C5 C6 1_555 1_555
C10 N1 1_555 1_555
C10 N2 1_555 1_555
N4 N6 1_555 1_555
C15 O6 1_555 1_555
C18 C19 1_555 1_555
C21 C22 1_555 1_555

#END
