
#######################################################################
#
#                 Cambridge Crystallographic Data Centre
#                                CCDC 
#
#######################################################################
#
# If this CIF has been generated from an entry in the Cambridge 
# Structural Database, then it will include bibliographic, chemical, 
# crystal, experimental, refinement or atomic coordinate data resulting 
# from the CCDC's data processing and validation procedures.
#
#######################################################################

data_UXUNEI
_chemical_formula_moiety         'C17 H16 Cl2 N2 O2'
_chemical_name_systematic        
2,4-dichloro-6-(((4-(N-ethoxyethanimidoyl)phenyl)imino)methyl)phenol
_symmetry_cell_setting           monoclinic
_symmetry_space_group_name_H-M   'P 21/c'
_symmetry_Int_Tables_number      14
_space_group_name_Hall           '-P 2ybc'
loop_
_symmetry_equiv_pos_site_id
_symmetry_equiv_pos_as_xyz
1 x,y,z
2 -x,1/2+y,1/2-z
3 -x,-y,-z
4 x,1/2-y,1/2+z
_cell_length_a                   9.1238(4)
_cell_length_b                   13.0575(4)
_cell_length_c                   14.3740(5)
_cell_angle_alpha                90
_cell_angle_beta                 104.616(4)
_cell_angle_gamma                90
_cell_volume                     1657.02
_exptl_crystal_colour            'light orange'
_exptl_crystal_description       block
_cell_formula_units_Z            4
loop_
_atom_site_label
_atom_site_type_symbol
_atom_site_fract_x
_atom_site_fract_y
_atom_site_fract_z
Cl1 Cl 0.67356(9) 1.17732(5) 0.06238(5)
Cl2 Cl 0.67331(8) 0.78706(5) 0.18033(5)
O1 O 0.9414(2) 0.84690(12) 0.32597(12)
H1 H 1.0102 0.8683 0.3700
O2 O 1.7720(2) 0.94665(13) 0.88606(12)
N1 N 1.1301(2) 0.97613(15) 0.42158(13)
N2 N 1.6472(2) 0.93650(16) 0.80591(14)
C1 C 0.8820(3) 1.10028(18) 0.21426(17)
H2 H 0.9248 1.1654 0.2205
C2 C 0.7557(3) 1.08055(19) 0.14210(16)
C3 C 0.6892(3) 0.98502(19) 0.13113(16)
H3 H 0.6020 0.9729 0.0826
C4 C 0.7542(3) 0.90786(18) 0.19333(16)
C5 C 0.8827(3) 0.92437(17) 0.26794(16)
C6 C 0.9470(3) 1.02282(17) 0.27871(16)
C7 C 1.0755(3) 1.04473(19) 0.35885(17)
H4 H 1.1190 1.1096 0.3647
C8 C 1.2518(3) 0.99340(17) 0.50345(16)
C9 C 1.4524(3) 1.09077(19) 0.60495(18)
H5 H 1.5072 1.1515 0.6169
C10 C 1.3353(3) 1.08257(19) 0.52277(18)
H6 H 1.3126 1.1374 0.4803
C11 C 1.4900(3) 1.01102(17) 0.66973(16)
C12 C 1.4046(3) 0.92197(18) 0.64997(17)
H7 H 1.4270 0.8672 0.6926
C13 C 1.2878(3) 0.91325(17) 0.56873(16)
H8 H 1.2320 0.8529 0.5573
C14 C 1.6184(3) 1.01900(19) 0.75661(17)
C15 C 1.7056(3) 1.1162(2) 0.78211(19)
H9 H 1.7827 1.1067 0.8408
H10 H 1.6383 1.1699 0.7906
H11 H 1.7519 1.1344 0.7314
C16 C 1.7931(3) 0.8503(2) 0.93561(18)
H12 H 1.7931 0.7950 0.8906
H13 H 1.7116 0.8385 0.9666
C17 C 1.9421(3) 0.8542(2) 1.0093(2)
H14 H 2.0226 0.8604 0.9776
H15 H 1.9555 0.7926 1.0469
H16 H 1.9436 0.9122 1.0506
loop_
_geom_bond_atom_site_label_1
_geom_bond_atom_site_label_2
_geom_bond_site_symmetry_1
_geom_bond_site_symmetry_2
Cl1 C2 1_555 1_555
Cl2 C4 1_555 1_555
O1 H1 1_555 1_555
O2 N2 1_555 1_555
N1 C7 1_555 1_555
N2 C14 1_555 1_555
C1 H2 1_555 1_555
C2 C1 1_555 1_555
C3 C2 1_555 1_555
H3 C3 1_555 1_555
C4 C3 1_555 1_555
C5 O1 1_555 1_555
C6 C1 1_555 1_555
C7 C6 1_555 1_555
H4 C7 1_555 1_555
C8 N1 1_555 1_555
C9 H5 1_555 1_555
C10 C8 1_555 1_555
H6 C10 1_555 1_555
C11 C9 1_555 1_555
C12 C11 1_555 1_555
H7 C12 1_555 1_555
C13 C8 1_555 1_555
H8 C13 1_555 1_555
C14 C11 1_555 1_555
C15 C14 1_555 1_555
H9 C15 1_555 1_555
H10 C15 1_555 1_555
H11 C15 1_555 1_555
C16 O2 1_555 1_555
H12 C16 1_555 1_555
H13 C16 1_555 1_555
C17 C16 1_555 1_555
H14 C17 1_555 1_555
H15 C17 1_555 1_555
H16 C17 1_555 1_555
C4 C5 1_555 1_555
C5 C6 1_555 1_555
C9 C10 1_555 1_555
C12 C13 1_555 1_555

#END
