
#######################################################################
#
#                 Cambridge Crystallographic Data Centre
#                                CCDC 
#
#######################################################################
#
# If this CIF has been generated from an entry in the Cambridge 
# Structural Database, then it will include bibliographic, chemical, 
# crystal, experimental, refinement or atomic coordinate data resulting 
# from the CCDC's data processing and validation procedures.
#
#######################################################################

data_UXUROW
_chemical_formula_moiety         'C21 H17 N3 O4 S1'
_chemical_name_systematic        
N-(5-((3,5-dimethyl-1,2-oxazol-4-yl)sulfonyl)quinolin-8-yl)benzamide
_symmetry_cell_setting           triclinic
_symmetry_space_group_name_H-M   'P -1'
_symmetry_Int_Tables_number      2
_space_group_name_Hall           '-P 1'
loop_
_symmetry_equiv_pos_site_id
_symmetry_equiv_pos_as_xyz
1 x,y,z
2 -x,-y,-z
_cell_length_a                   10.0424(5)
_cell_length_b                   10.4142(4)
_cell_length_c                   18.7420(10)
_cell_angle_alpha                91.746(4)
_cell_angle_beta                 90.169(4)
_cell_angle_gamma                100.878(4)
_cell_volume                     1923.92
_exptl_crystal_colour            colorless
_exptl_crystal_description       Block
_cell_formula_units_Z            4
loop_
_atom_site_label
_atom_site_type_symbol
_atom_site_fract_x
_atom_site_fract_y
_atom_site_fract_z
S1 S 0.66013(6) 0.31117(7) 0.19793(4)
C1 C 0.7002(2) 0.1265(2) 0.09191(12)
N1 N 0.7400(2) -0.02481(19) -0.00423(11)
N2 N 0.94117(19) 0.13877(19) -0.05679(11)
H1 H 0.9075 0.0597 -0.0705
O1 O 1.10377(18) 0.31174(17) -0.08315(10)
O2 O 0.28534(18) 0.30289(19) 0.14072(11)
O3 O 0.63560(19) 0.2121(2) 0.24991(10)
C2 C 0.7420(2) 0.2549(2) 0.12300(13)
C3 C 1.0813(2) 0.1225(2) -0.15968(13)
C4 C 1.0462(2) 0.2004(2) -0.09669(13)
C5 C 0.8808(2) 0.1853(2) 0.00276(13)
O4 O 0.73535(18) 0.43833(19) 0.21847(10)
C6 C 0.5034(2) 0.3301(2) 0.16489(13)
C7 C 1.0361(2) -0.0114(2) -0.16950(14)
H2 H 0.9816 -0.0578 -0.1353
C8 C 0.4798(3) 0.4251(2) 0.11688(14)
C9 C 0.7700(2) 0.0938(2) 0.03066(13)
C10 C 0.3783(3) 0.2572(3) 0.17838(15)
C11 C 0.5974(2) 0.0276(2) 0.11694(14)
H3 H 0.5491 0.0430 0.1576
N3 N 0.3511(2) 0.4104(2) 0.10112(12)
C12 C 0.9181(3) 0.3065(3) 0.03500(15)
H4 H 0.9909 0.3659 0.0176
C13 C 0.8461(2) 0.3405(3) 0.09439(15)
H5 H 0.8701 0.4242 0.1149
C14 C 1.1625(3) 0.1883(3) -0.21138(15)
H6 H 1.1939 0.2779 -0.2057
C15 C 0.5687(3) -0.0903(3) 0.08175(16)
H7 H 0.5006 -0.1559 0.0980
C16 C 0.3261(3) 0.1462(3) 0.22421(18)
H8 H 0.2446 0.1608 0.2471
H9 H 0.3930 0.1389 0.2598
H10 H 0.3068 0.0669 0.1955
C17 C 0.6419(3) -0.1120(3) 0.02122(15)
H11 H 0.6201 -0.1930 -0.0025
C18 C 1.1525(3) -0.0089(3) -0.28030(16)
H12 H 1.1766 -0.0528 -0.3208
C19 C 1.0719(3) -0.0763(3) -0.22995(17)
H13 H 1.0410 -0.1659 -0.2363
C20 C 0.5767(3) 0.5339(3) 0.08490(16)
H14 H 0.5272 0.5882 0.0591
H15 H 0.6359 0.4984 0.0529
H16 H 0.6295 0.5852 0.1221
C21 C 1.1976(3) 0.1228(3) -0.27126(16)
H17 H 1.2521 0.1684 -0.3057
S2 S 0.20429(8) 0.43571(7) 0.33721(4)
N4 N -0.0778(2) 0.7903(2) 0.51076(11)
H18 H -0.0308 0.8249 0.5472
C22 C 0.1870(3) 0.6078(2) 0.45395(14)
O5 O 0.4769(2) 0.6768(2) 0.23621(12)
C23 C -0.0189(2) 0.7031(2) 0.46975(13)
C24 C -0.2283(2) 0.9286(2) 0.55588(13)
C25 C 0.1141(2) 0.6911(2) 0.49211(13)
C26 C 0.3035(2) 0.5449(2) 0.28174(13)
C27 C 0.1226(3) 0.5363(2) 0.39316(14)
N5 N 0.1648(2) 0.7635(2) 0.55103(11)
C28 C -0.0781(3) 0.6301(3) 0.41218(14)
H19 H -0.1659 0.6352 0.3982
O6 O -0.2767(2) 0.7866(2) 0.45369(11)
C29 C 0.4403(3) 0.5925(3) 0.28755(14)
C30 C -0.1364(3) 0.9934(3) 0.60588(15)
H20 H -0.0487 0.9765 0.6070
C31 C -0.0060(3) 0.5474(3) 0.37427(15)
H21 H -0.0472 0.4986 0.3351
C32 C -0.1982(3) 0.8294(3) 0.50217(14)
O7 O 0.2943(2) 0.37312(19) 0.37874(13)
O8 O 0.1022(2) 0.3571(2) 0.29334(13)
C33 C 0.2612(3) 0.6063(3) 0.22230(15)
N6 N 0.3611(3) 0.6853(2) 0.19421(13)
C34 C -0.3010(4) 1.1083(3) 0.65313(18)
H22 H -0.3259 1.1677 0.6862
C35 C 0.3174(3) 0.6028(3) 0.48095(16)
H23 H 0.3692 0.5485 0.4585
C36 C 0.2869(3) 0.7549(3) 0.57283(16)
H24 H 0.3220 0.8041 0.6132
C37 C 0.3673(3) 0.6762(3) 0.53897(17)
H25 H 0.4539 0.6744 0.5561
C38 C -0.3927(3) 1.0465(3) 0.60329(19)
H26 H -0.4798 1.0648 0.6021
C39 C -0.3570(3) 0.9575(3) 0.55495(17)
H27 H -0.4202 0.9162 0.5212
C40 C -0.1730(3) 1.0825(3) 0.65408(17)
H28 H -0.1100 1.1253 0.6875
C41 C 0.5502(3) 0.5697(4) 0.33553(17)
H29 H 0.6316 0.5711 0.3086
H30 H 0.5242 0.4860 0.3568
H31 H 0.5661 0.6370 0.3723
C42 C 0.1249(3) 0.5902(4) 0.1879(2)
H32 H 0.0660 0.6301 0.2180
H33 H 0.0877 0.4987 0.1809
H34 H 0.1331 0.6313 0.1426
loop_
_geom_bond_atom_site_label_1
_geom_bond_atom_site_label_2
_geom_bond_site_symmetry_1
_geom_bond_site_symmetry_2
S1 O3 1_555 1_555
C1 C2 1_555 1_555
N1 C9 1_555 1_555
N2 H1 1_555 1_555
O1 C4 1_555 1_555
O2 C10 1_555 1_555
C2 S1 1_555 1_555
C3 C4 1_555 1_555
C4 N2 1_555 1_555
C5 N2 1_555 1_555
O4 S1 1_555 1_555
C6 S1 1_555 1_555
C7 C3 1_555 1_555
H2 C7 1_555 1_555
C8 C6 1_555 1_555
C9 C1 1_555 1_555
C10 C6 1_555 1_555
C11 C1 1_555 1_555
H3 C11 1_555 1_555
N3 O2 1_555 1_555
C12 C5 1_555 1_555
H4 C12 1_555 1_555
C13 C2 1_555 1_555
H5 C13 1_555 1_555
C14 C3 1_555 1_555
H6 C14 1_555 1_555
C15 C11 1_555 1_555
H7 C15 1_555 1_555
C16 C10 1_555 1_555
H8 C16 1_555 1_555
H9 C16 1_555 1_555
H10 C16 1_555 1_555
C17 N1 1_555 1_555
H11 C17 1_555 1_555
C18 H12 1_555 1_555
C19 C7 1_555 1_555
H13 C19 1_555 1_555
C20 C8 1_555 1_555
H14 C20 1_555 1_555
H15 C20 1_555 1_555
H16 C20 1_555 1_555
C21 C14 1_555 1_555
H17 C21 1_555 1_555
S2 C26 1_555 1_555
N4 H18 1_555 1_555
C22 C25 1_555 1_555
O5 C29 1_555 1_555
C23 N4 1_555 1_555
C24 C30 1_555 1_555
C25 C23 1_555 1_555
C26 C29 1_555 1_555
C27 S2 1_555 1_555
N5 C25 1_555 1_555
C28 C23 1_555 1_555
H19 C28 1_555 1_555
O6 C32 1_555 1_555
C29 C41 1_555 1_555
C30 H20 1_555 1_555
C31 C27 1_555 1_555
H21 C31 1_555 1_555
C32 N4 1_555 1_555
O7 S2 1_555 1_555
O8 S2 1_555 1_555
C33 C26 1_555 1_555
N6 O5 1_555 1_555
C34 H22 1_555 1_555
C35 C22 1_555 1_555
H23 C35 1_555 1_555
C36 N5 1_555 1_555
H24 C36 1_555 1_555
C37 C35 1_555 1_555
H25 C37 1_555 1_555
C38 C34 1_555 1_555
H26 C38 1_555 1_555
C39 C24 1_555 1_555
H27 C39 1_555 1_555
C40 C30 1_555 1_555
H28 C40 1_555 1_555
C41 H29 1_555 1_555
H30 C41 1_555 1_555
H31 C41 1_555 1_555
C42 C33 1_555 1_555
H32 C42 1_555 1_555
H33 C42 1_555 1_555
H34 C42 1_555 1_555
C5 C9 1_555 1_555
C8 N3 1_555 1_555
C12 C13 1_555 1_555
C15 C17 1_555 1_555
C18 C19 1_555 1_555
C18 C21 1_555 1_555
C22 C27 1_555 1_555
C24 C32 1_555 1_555
C28 C31 1_555 1_555
C33 N6 1_555 1_555
C34 C40 1_555 1_555
C36 C37 1_555 1_555
C38 C39 1_555 1_555

#END
