
#######################################################################
#
#                 Cambridge Crystallographic Data Centre
#                                CCDC 
#
#######################################################################
#
# If this CIF has been generated from an entry in the Cambridge 
# Structural Database, then it will include bibliographic, chemical, 
# crystal, experimental, refinement or atomic coordinate data resulting 
# from the CCDC's data processing and validation procedures.
#
#######################################################################

data_UXUSUD
_chemical_formula_moiety         'C13 H15 Br1 O4'
_chemical_name_systematic        
'2-(2-bromophenyl)-5-ethyl-1,3-dioxane-5-carboxylic acid'
_symmetry_cell_setting           orthorhombic
_symmetry_space_group_name_H-M   'P b c a'
_symmetry_Int_Tables_number      61
_space_group_name_Hall           '-P 2ac 2ab'
loop_
_symmetry_equiv_pos_site_id
_symmetry_equiv_pos_as_xyz
1 x,y,z
2 1/2-x,-y,1/2+z
3 1/2+x,1/2-y,-z
4 -x,1/2+y,1/2-z
5 -x,-y,-z
6 1/2+x,y,1/2-z
7 1/2-x,1/2+y,z
8 x,1/2-y,1/2+z
_cell_length_a                   15.894(3)
_cell_length_b                   7.6064(16)
_cell_length_c                   21.571(4)
_cell_angle_alpha                90
_cell_angle_beta                 90
_cell_angle_gamma                90
_cell_volume                     2607.85
_exptl_crystal_colour            colorless
_exptl_crystal_description       block
_cell_formula_units_Z            8
loop_
_atom_site_label
_atom_site_type_symbol
_atom_site_fract_x
_atom_site_fract_y
_atom_site_fract_z
Br1 Br 0.073583(17) 0.12760(3) 0.338058(11)
O1 O 0.14606(9) 0.13521(17) 0.19368(6)
O2 O 0.07651(9) -0.08743(18) 0.14157(7)
C1 C 0.11771(12) -0.1296(2) 0.24636(9)
C2 C 0.11829(12) -0.0887(3) 0.30924(9)
O3 O -0.00822(9) 0.29548(19) 0.02122(7)
C3 C 0.17919(15) -0.3666(3) 0.33388(11)
H1 H 0.2000 -0.4455 0.3630
C4 C 0.05808(13) 0.3237(3) 0.04761(9)
O4 O 0.09792(10) 0.4740(2) 0.04454(8)
H2 H 0.0703 0.5437 0.0240
C5 C 0.14818(13) -0.2935(3) 0.22891(10)
H3 H 0.1482 -0.3243 0.1872
C6 C 0.11744(14) 0.2674(3) 0.15200(9)
H4 H 0.1591 0.3601 0.1491
H5 H 0.0656 0.3184 0.1675
C7 C 0.10215(12) 0.1879(3) 0.08747(9)
C8 C 0.18663(14) 0.1361(3) 0.05808(10)
H6 H 0.2233 0.2381 0.0586
H7 H 0.2126 0.0466 0.0838
C9 C 0.04309(13) 0.0299(3) 0.09604(9)
H8 H -0.0120 0.0707 0.1091
H9 H 0.0367 -0.0315 0.0569
C10 C 0.08622(12) -0.0016(3) 0.19868(9)
H10 H 0.0320 0.0469 0.2120
C11 C 0.17844(14) -0.4120(3) 0.27221(11)
H11 H 0.1981 -0.5215 0.2597
C12 C 0.14935(14) -0.2051(3) 0.35289(10)
H12 H 0.1501 -0.1747 0.3947
C13 C 0.18201(18) 0.0676(4) -0.00749(12)
H13 H 0.1600 0.1576 -0.0342
H14 H 0.1457 -0.0333 -0.0088
H15 H 0.2373 0.0348 -0.0212
loop_
_geom_bond_atom_site_label_1
_geom_bond_atom_site_label_2
_geom_bond_site_symmetry_1
_geom_bond_site_symmetry_2
Br1 C2 1_555 1_555
O1 C6 1_555 1_555
O2 C9 1_555 1_555
C1 C2 1_555 1_555
C2 C12 1_555 1_555
O3 C4 1_555 1_555
C3 H1 1_555 1_555
C4 O4 1_555 1_555
O4 H2 1_555 1_555
C5 C1 1_555 1_555
H3 C5 1_555 1_555
C6 H4 1_555 1_555
H5 C6 1_555 1_555
C7 C4 1_555 1_555
C8 C7 1_555 1_555
H6 C8 1_555 1_555
H7 C8 1_555 1_555
C9 C7 1_555 1_555
H8 C9 1_555 1_555
H9 C9 1_555 1_555
C10 O1 1_555 1_555
H10 C10 1_555 1_555
C11 C3 1_555 1_555
H11 C11 1_555 1_555
C12 C3 1_555 1_555
H12 C12 1_555 1_555
C13 C8 1_555 1_555
H13 C13 1_555 1_555
H14 C13 1_555 1_555
H15 C13 1_555 1_555
O2 C10 1_555 1_555
C1 C10 1_555 1_555
C5 C11 1_555 1_555
C6 C7 1_555 1_555

#END
