
#######################################################################
#
#                 Cambridge Crystallographic Data Centre
#                                CCDC 
#
#######################################################################
#
# If this CIF has been generated from an entry in the Cambridge 
# Structural Database, then it will include bibliographic, chemical, 
# crystal, experimental, refinement or atomic coordinate data resulting 
# from the CCDC's data processing and validation procedures.
#
#######################################################################

data_UXUSIR
_chemical_formula_moiety         'C26 H30 Br1 N3 O2'
_chemical_name_systematic        
4-(4-((3-bromophenyl)amino)-6-t-butyl-3-(2-hydroxypropan-2-yl)cinnolin-8-yl)-2-methylbut-3-yn-2-ol
_symmetry_cell_setting           triclinic
_symmetry_space_group_name_H-M   'P -1'
_symmetry_Int_Tables_number      2
_space_group_name_Hall           '-P 1'
loop_
_symmetry_equiv_pos_site_id
_symmetry_equiv_pos_as_xyz
1 x,y,z
2 -x,-y,-z
_cell_length_a                   12.257(3)
_cell_length_b                   12.451(3)
_cell_length_c                   17.325(3)
_cell_angle_alpha                92.05(3)
_cell_angle_beta                 107.04(3)
_cell_angle_gamma                93.96(3)
_cell_volume                     2517.54
_exptl_crystal_colour            orange
_exptl_crystal_description       plate
_cell_formula_units_Z            4
loop_
_atom_site_label
_atom_site_type_symbol
_atom_site_fract_x
_atom_site_fract_y
_atom_site_fract_z
Br1 Br 0.69755(5) 0.09543(4) 0.61078(3)
O1 O 0.1623(2) 0.0960(3) 0.29907(18)
H1 H 0.1992 0.0462 0.3228
N1 N 0.3822(3) 0.1812(3) 0.3446(2)
H2 H 0.3119 0.1977 0.3396
N2 N 0.3052(3) -0.0094(3) 0.17515(18)
N3 N 0.4085(3) -0.0388(3) 0.17496(18)
C1 C 0.4702(3) 0.2205(4) 0.4159(2)
C2 C 0.5318(4) 0.1506(4) 0.4679(2)
H3 H 0.5185 0.0750 0.4555
C3 C 0.6141(4) 0.1913(4) 0.5391(3)
C4 C 0.6343(4) 0.3012(4) 0.5569(3)
H4 H 0.6902 0.3288 0.6054
C5 C 0.5742(4) 0.3690(4) 0.5052(3)
H5 H 0.5908 0.4446 0.5169
C6 C 0.4880(4) 0.3316(4) 0.4349(3)
H6 H 0.4427 0.3803 0.4010
C7 C 0.3996(3) 0.1226(3) 0.2865(2)
C8 C 0.2986(3) 0.0680(3) 0.2255(2)
C9 C 0.5093(3) 0.0182(3) 0.2173(2)
C10 C 0.5091(3) 0.1025(3) 0.2728(2)
C11 C 0.6118(3) 0.1654(3) 0.3107(2)
H7 H 0.6105 0.2257 0.3455
C12 C 0.7149(3) 0.1425(3) 0.2991(2)
C13 C 0.7132(3) 0.0546(3) 0.2454(2)
H8 H 0.7836 0.0360 0.2381
C14 C 0.6140(3) -0.0059(3) 0.2028(2)
C15 C 0.1784(3) 0.0993(3) 0.2204(2)
C16 C 0.1637(4) 0.2129(4) 0.1914(3)
H9 H 0.0858 0.2314 0.1869
H10 H 0.1769 0.2161 0.1384
H11 H 0.2190 0.2641 0.2301
C17 C 0.0854(3) 0.0207(4) 0.1662(3)
H12 H 0.0957 -0.0521 0.1854
H13 H 0.0898 0.0217 0.1107
H14 H 0.0103 0.0418 0.1676
C18 C 0.6116(3) -0.0879(3) 0.1419(2)
C19 C 0.6044(3) -0.1525(3) 0.0882(2)
C20 C 0.5946(3) -0.2313(3) 0.0200(2)
C21 C 0.5671(4) -0.1764(4) -0.0597(2)
H15 H 0.5573 -0.2305 -0.1042
H16 H 0.6300 -0.1228 -0.0587
H17 H 0.4962 -0.1406 -0.0676
C22 C 0.7053(3) -0.2878(3) 0.0334(2)
H18 H 0.7236 -0.3205 0.0858
H19 H 0.7681 -0.2349 0.0327
H20 H 0.6951 -0.3440 -0.0098
C23 C 0.8273(3) 0.2081(4) 0.3455(3)
C24 C 0.8062(5) 0.3222(5) 0.3711(4)
H21 H 0.7597 0.3565 0.3239
H22 H 0.8797 0.3650 0.3936
H23 H 0.7656 0.3181 0.4121
C25 C 0.9073(4) 0.2212(4) 0.2929(3)
H24 H 0.9322 0.1508 0.2818
H25 H 0.9742 0.2702 0.3214
H26 H 0.8667 0.2512 0.2419
C26 C 0.8840(5) 0.1492(6) 0.4194(3)
H27 H 0.8318 0.1397 0.4525
H28 H 0.9545 0.1911 0.4511
H29 H 0.9024 0.0783 0.4026
O2 O 0.5014(2) -0.3088(2) 0.02006(16)
H30 H 0.4803 -0.3513 -0.0213
Br2 Br 0.83683(5) 0.57930(5) 0.54202(3)
O3 O 0.6703(2) 0.2274(2) -0.06517(15)
H31 H 0.6207 0.2607 -0.0518
N4 N 0.5305(3) 0.6930(3) 0.28265(19)
H32 H 0.4674 0.7267 0.2684
N5 N 0.4546(3) 0.4683(3) 0.13016(19)
N6 N 0.5547(3) 0.4443(3) 0.12276(19)
C27 C 0.6112(3) 0.7262(3) 0.3583(2)
C28 C 0.6723(3) 0.6504(3) 0.4058(2)
H33 H 0.6589 0.5760 0.3888
C29 C 0.7533(4) 0.6849(4) 0.4785(3)
C30 C 0.7732(4) 0.7920(4) 0.5052(3)
H34 H 0.8298 0.8147 0.5547
C31 C 0.7088(4) 0.8650(4) 0.4583(3)
H35 H 0.7199 0.9389 0.4766
C32 C 0.6280(4) 0.8336(4) 0.3847(3)
H36 H 0.5848 0.8855 0.3530
C33 C 0.5421(3) 0.6131(3) 0.2296(2)
C34 C 0.4460(3) 0.5480(3) 0.1821(2)
C35 C 0.6508(3) 0.5047(3) 0.1661(2)
C36 C 0.6492(3) 0.5941(3) 0.2181(2)
C37 C 0.7521(3) 0.6609(3) 0.2534(2)
H37 H 0.7494 0.7254 0.2835
C38 C 0.8547(3) 0.6349(3) 0.2453(2)
C39 C 0.8566(3) 0.5393(3) 0.1989(2)
H38 H 0.9283 0.5177 0.1962
C40 C 0.7590(3) 0.4771(3) 0.1581(2)
C41 C 0.3254(3) 0.5563(3) 0.1897(2)
C42 C 0.3189(4) 0.5050(4) 0.2671(3)
H39 H 0.3759 0.5430 0.3137
H40 H 0.3345 0.4290 0.2644
H41 H 0.2422 0.5100 0.2728
C43 C 0.2330(3) 0.5038(3) 0.1164(3)
H42 H 0.1573 0.5170 0.1214
H43 H 0.2401 0.4259 0.1136
H44 H 0.2420 0.5346 0.0672
C44 C 0.7635(3) 0.3847(3) 0.1068(2)
C45 C 0.7702(3) 0.3106(3) 0.0636(2)
C46 C 0.7683(3) 0.2194(3) 0.0056(2)
C47 C 0.8747(3) 0.2284(4) -0.0232(3)
H45 H 0.8679 0.1716 -0.0654
H46 H 0.9426 0.2202 0.0225
H47 H 0.8819 0.2992 -0.0450
C48 C 0.7555(4) 0.1117(3) 0.0419(3)
H48 H 0.6825 0.1048 0.0544
H49 H 0.8187 0.1078 0.0915
H50 H 0.7571 0.0531 0.0030
C49 C 0.9663(3) 0.7045(3) 0.2855(2)
C50 C 0.9444(4) 0.8161(4) 0.3155(4)
H51 H 0.8935 0.8512 0.2706
H52 H 1.0172 0.8604 0.3362
H53 H 0.9083 0.8081 0.3587
C51 C 1.0364(4) 0.7203(4) 0.2263(3)
H54 H 1.0588 0.6504 0.2112
H55 H 1.1052 0.7685 0.2520
H56 H 0.9902 0.7521 0.1778
C52 C 1.0349(5) 0.6445(5) 0.3571(3)
H57 H 0.9886 0.6299 0.3936
H58 H 1.1050 0.6890 0.3863
H59 H 1.0551 0.5763 0.3372
O4 O 0.3055(2) 0.6683(2) 0.19970(16)
H60 H 0.3059 0.6994 0.1575
loop_
_geom_bond_atom_site_label_1
_geom_bond_atom_site_label_2
_geom_bond_site_symmetry_1
_geom_bond_site_symmetry_2
Br1 C3 1_555 1_555
O1 H1 1_555 1_555
N1 H2 1_555 1_555
N2 N3 1_555 1_555
N3 C9 1_555 1_555
C1 N1 1_555 1_555
C2 C1 1_555 1_555
H3 C2 1_555 1_555
C3 C2 1_555 1_555
C4 C3 1_555 1_555
H4 C4 1_555 1_555
C5 C4 1_555 1_555
H5 C5 1_555 1_555
C6 C1 1_555 1_555
H6 C6 1_555 1_555
C7 N1 1_555 1_555
C8 N2 1_555 1_555
C9 C10 1_555 1_555
C10 C7 1_555 1_555
C11 C10 1_555 1_555
H7 C11 1_555 1_555
C12 C11 1_555 1_555
C13 C12 1_555 1_555
H8 C13 1_555 1_555
C14 C9 1_555 1_555
C15 O1 1_555 1_555
C16 C15 1_555 1_555
H9 C16 1_555 1_555
H10 C16 1_555 1_555
H11 C16 1_555 1_555
C17 C15 1_555 1_555
H12 C17 1_555 1_555
H13 C17 1_555 1_555
H14 C17 1_555 1_555
C18 C14 1_555 1_555
C19 C18 1_555 1_555
C20 C19 1_555 1_555
C21 C20 1_555 1_555
H15 C21 1_555 1_555
H16 C21 1_555 1_555
H17 C21 1_555 1_555
C22 C20 1_555 1_555
H18 C22 1_555 1_555
H19 C22 1_555 1_555
H20 C22 1_555 1_555
C23 C12 1_555 1_555
C24 C23 1_555 1_555
H21 C24 1_555 1_555
H22 C24 1_555 1_555
H23 C24 1_555 1_555
C25 C23 1_555 1_555
H24 C25 1_555 1_555
H25 C25 1_555 1_555
H26 C25 1_555 1_555
C26 C23 1_555 1_555
H27 C26 1_555 1_555
H28 C26 1_555 1_555
H29 C26 1_555 1_555
O2 C20 1_555 1_555
H30 O2 1_555 1_555
Br2 C29 1_555 1_555
O3 H31 1_555 1_555
N4 H32 1_555 1_555
N5 N6 1_555 1_555
N6 C35 1_555 1_555
C27 N4 1_555 1_555
C28 C27 1_555 1_555
H33 C28 1_555 1_555
C29 C28 1_555 1_555
C30 C29 1_555 1_555
H34 C30 1_555 1_555
C31 C30 1_555 1_555
H35 C31 1_555 1_555
C32 C27 1_555 1_555
H36 C32 1_555 1_555
C33 N4 1_555 1_555
C34 N5 1_555 1_555
C35 C36 1_555 1_555
C36 C33 1_555 1_555
C37 C36 1_555 1_555
H37 C37 1_555 1_555
C38 C37 1_555 1_555
C39 C38 1_555 1_555
H38 C39 1_555 1_555
C40 C35 1_555 1_555
C41 C34 1_555 1_555
C42 C41 1_555 1_555
H39 C42 1_555 1_555
H40 C42 1_555 1_555
H41 C42 1_555 1_555
C43 C41 1_555 1_555
H42 C43 1_555 1_555
H43 C43 1_555 1_555
H44 C43 1_555 1_555
C44 C40 1_555 1_555
C45 C44 1_555 1_555
C46 O3 1_555 1_555
C47 C46 1_555 1_555
H45 C47 1_555 1_555
H46 C47 1_555 1_555
H47 C47 1_555 1_555
C48 C46 1_555 1_555
H48 C48 1_555 1_555
H49 C48 1_555 1_555
H50 C48 1_555 1_555
C49 C38 1_555 1_555
C50 C49 1_555 1_555
H51 C50 1_555 1_555
H52 C50 1_555 1_555
H53 C50 1_555 1_555
C51 C49 1_555 1_555
H54 C51 1_555 1_555
H55 C51 1_555 1_555
H56 C51 1_555 1_555
C52 C49 1_555 1_555
H57 C52 1_555 1_555
H58 C52 1_555 1_555
H59 C52 1_555 1_555
O4 C41 1_555 1_555
H60 O4 1_555 1_555
C5 C6 1_555 1_555
C7 C8 1_555 1_555
C8 C15 1_555 1_555
C13 C14 1_555 1_555
C31 C32 1_555 1_555
C33 C34 1_555 1_555
C39 C40 1_555 1_555
C45 C46 1_555 1_555

#END
