
#######################################################################
#
#                 Cambridge Crystallographic Data Centre
#                                CCDC 
#
#######################################################################
#
# If this CIF has been generated from an entry in the Cambridge 
# Structural Database, then it will include bibliographic, chemical, 
# crystal, experimental, refinement or atomic coordinate data resulting 
# from the CCDC's data processing and validation procedures.
#
#######################################################################

data_UXUTOY
_chemical_formula_moiety         'C10 H19 N1 O1'
_chemical_name_systematic        8-isopropyl-8-azabicyclo[3.2.1]octan-3-ol
_symmetry_cell_setting           monoclinic
_symmetry_space_group_name_H-M   'P 21/n'
_symmetry_Int_Tables_number      14
_space_group_name_Hall           '-P 2yn'
loop_
_symmetry_equiv_pos_site_id
_symmetry_equiv_pos_as_xyz
1 x,y,z
2 1/2-x,1/2+y,1/2-z
3 -x,-y,-z
4 1/2+x,1/2-y,1/2+z
_cell_length_a                   6.2427(16)
_cell_length_b                   9.553(2)
_cell_length_c                   16.932(4)
_cell_angle_alpha                90
_cell_angle_beta                 100.094(7)
_cell_angle_gamma                90
_cell_volume                     994.136
_exptl_crystal_colour            colorless
_exptl_crystal_description       block
_cell_formula_units_Z            4
loop_
_atom_site_label
_atom_site_type_symbol
_atom_site_fract_x
_atom_site_fract_y
_atom_site_fract_z
C1 C -0.0607(3) 0.6121(2) 0.30990(12)
H1 H -0.1830 0.6708 0.3188
C2 C -0.0811(4) 0.4647(2) 0.34465(14)
H2 H -0.1626 0.4673 0.3884
H3 H -0.1524 0.4011 0.3037
C3 C 0.1556(3) 0.4204(2) 0.37460(14)
H4 H 0.1901 0.3352 0.3483
H5 H 0.1824 0.4056 0.4322
C4 C 0.2893(3) 0.5443(2) 0.35190(13)
H6 H 0.4242 0.5541 0.3910
C5 C 0.3398(3) 0.5354(2) 0.26742(13)
H7 H 0.4186 0.6190 0.2570
H8 H 0.4344 0.4558 0.2644
C6 C 0.1397(4) 0.5210(2) 0.20244(13)
H9 H 0.1766 0.5524 0.1514
C7 C -0.0448(3) 0.6102(2) 0.22151(12)
H10 H -0.1807 0.5754 0.1913
H11 H -0.0255 0.7053 0.2040
C8 C 0.1260(4) 0.7108(2) 0.43824(14)
H12 H 0.0630 0.6323 0.4636
C9 C -0.0242(4) 0.8355(3) 0.43603(15)
H13 H 0.0351 0.9131 0.4109
H14 H -0.0384 0.8607 0.4898
H15 H -0.1646 0.8120 0.4060
C10 C 0.3445(4) 0.7468(3) 0.48856(14)
H16 H 0.4336 0.6643 0.4964
H17 H 0.3232 0.7822 0.5397
H18 H 0.4152 0.8167 0.4615
N1 N 0.1473(3) 0.66905(16) 0.35503(10)
O1 O 0.0651(3) 0.37937(16) 0.19364(10)
H19 H 0.175(3) 0.330(2) 0.1836(13)
loop_
_geom_bond_atom_site_label_1
_geom_bond_atom_site_label_2
_geom_bond_site_symmetry_1
_geom_bond_site_symmetry_2
C1 H1 1_555 1_555
C2 C1 1_555 1_555
H2 C2 1_555 1_555
H3 C2 1_555 1_555
C3 C2 1_555 1_555
H4 C3 1_555 1_555
H5 C3 1_555 1_555
C4 C3 1_555 1_555
H6 C4 1_555 1_555
C5 C4 1_555 1_555
H7 C5 1_555 1_555
H8 C5 1_555 1_555
C6 C5 1_555 1_555
H9 C6 1_555 1_555
C7 C1 1_555 1_555
H10 C7 1_555 1_555
H11 C7 1_555 1_555
C8 H12 1_555 1_555
C9 C8 1_555 1_555
H13 C9 1_555 1_555
H14 C9 1_555 1_555
H15 C9 1_555 1_555
C10 C8 1_555 1_555
H16 C10 1_555 1_555
H17 C10 1_555 1_555
H18 C10 1_555 1_555
N1 C1 1_555 1_555
O1 C6 1_555 1_555
H19 O1 1_555 1_555
C4 N1 1_555 1_555
C6 C7 1_555 1_555
C8 N1 1_555 1_555

#END
