
#######################################################################
#
#                 Cambridge Crystallographic Data Centre
#                                CCDC 
#
#######################################################################
#
# If this CIF has been generated from an entry in the Cambridge 
# Structural Database, then it will include bibliographic, chemical, 
# crystal, experimental, refinement or atomic coordinate data resulting 
# from the CCDC's data processing and validation procedures.
#
#######################################################################

data_UXUWER
_chemical_name_common            
2-(bromomethyl)-4-(4-chlorophenyl)-1-tosylpyrrolidine
_chemical_formula_moiety         'C18 H19 Br1 Cl1 N1 O2 S1'
_chemical_name_systematic        
2-(bromomethyl)-4-(4-chlorophenyl)-1-((4-methylphenyl)sulfonyl)pyrrolidine
_symmetry_cell_setting           monoclinic
_symmetry_space_group_name_H-M   'P 21/c'
_symmetry_Int_Tables_number      14
_space_group_name_Hall           '-P 2ybc'
loop_
_symmetry_equiv_pos_site_id
_symmetry_equiv_pos_as_xyz
1 x,y,z
2 -x,1/2+y,1/2-z
3 -x,-y,-z
4 x,1/2-y,1/2+z
_cell_length_a                   21.324(6)
_cell_length_b                   5.8597(16)
_cell_length_c                   14.966(4)
_cell_angle_alpha                90
_cell_angle_beta                 95.558(5)
_cell_angle_gamma                90
_cell_volume                     1861.24
_exptl_crystal_colour            colorless
_exptl_crystal_description       block
_cell_formula_units_Z            4
loop_
_atom_site_label
_atom_site_type_symbol
_atom_site_fract_x
_atom_site_fract_y
_atom_site_fract_z
Br1 Br 0.29445(3) 0.60745(12) 0.44266(4)
Cl1 Cl 0.55481(7) 0.1519(3) 0.93250(10)
S1 S 0.16851(6) 0.6687(2) 0.63876(10)
N1 N 0.23440(16) 0.5427(7) 0.6284(2)
O1 O 0.18312(17) 0.8940(5) 0.6708(3)
O2 O 0.13075(16) 0.6354(7) 0.5553(2)
C1 C 0.0315(3) 0.2131(12) 0.9264(4)
H1 H 0.0465 0.2733 0.9842
H2 H 0.0380 0.0510 0.9260
H3 H -0.0126 0.2454 0.9142
C2 C 0.0672(2) 0.3227(9) 0.8550(3)
C3 C 0.1022(2) 0.5152(11) 0.8729(3)
H4 H 0.1048 0.5764 0.9304
C4 C 0.1337(2) 0.6219(9) 0.8084(4)
H5 H 0.1570 0.7535 0.8223
C5 C 0.13026(19) 0.5312(7) 0.7232(3)
C6 C 0.0962(2) 0.3362(8) 0.7041(3)
H6 H 0.0940 0.2730 0.6469
C7 C 0.0650(2) 0.2336(8) 0.7700(3)
H7 H 0.0419 0.1012 0.7566
C8 C 0.2836(2) 0.5450(8) 0.7046(3)
H8 H 0.2666 0.5954 0.7591
H9 H 0.3181 0.6449 0.6925
C9 C 0.3054(2) 0.2989(7) 0.7128(3)
H10 H 0.2740 0.2137 0.7431
C10 C 0.2997(2) 0.2250(8) 0.6152(3)
H11 H 0.3354 0.2783 0.5856
H12 H 0.2974 0.0601 0.6104
C11 C 0.2393(2) 0.3334(8) 0.5739(3)
H13 H 0.2044 0.2325 0.5856
C12 C 0.2351(3) 0.3768(9) 0.4738(3)
H14 H 0.1927 0.4257 0.4532
H15 H 0.2433 0.2357 0.4432
C13 C 0.3686(2) 0.2659(8) 0.7663(3)
C14 C 0.4063(2) 0.0825(8) 0.7529(4)
H16 H 0.3934 -0.0204 0.7075
C15 C 0.4627(2) 0.0444(9) 0.8044(4)
H17 H 0.4869 -0.0832 0.7943
C16 C 0.4821(2) 0.1958(10) 0.8698(3)
C17 C 0.4470(3) 0.3828(11) 0.8847(4)
H18 H 0.4608 0.4870 0.9292
C18 C 0.3907(3) 0.4164(10) 0.8331(4)
H19 H 0.3667 0.5444 0.8437
loop_
_geom_bond_atom_site_label_1
_geom_bond_atom_site_label_2
_geom_bond_site_symmetry_1
_geom_bond_site_symmetry_2
Br1 C12 1_555 1_555
Cl1 C16 1_555 1_555
S1 N1 1_555 1_555
N1 C8 1_555 1_555
O1 S1 1_555 1_555
O2 S1 1_555 1_555
C1 H1 1_555 1_555
H2 C1 1_555 1_555
H3 C1 1_555 1_555
C2 C1 1_555 1_555
C3 C2 1_555 1_555
H4 C3 1_555 1_555
C4 C3 1_555 1_555
H5 C4 1_555 1_555
C5 S1 1_555 1_555
C6 C5 1_555 1_555
H6 C6 1_555 1_555
C7 C2 1_555 1_555
H7 C7 1_555 1_555
C8 H8 1_555 1_555
H9 C8 1_555 1_555
C9 C8 1_555 1_555
H10 C9 1_555 1_555
C10 C9 1_555 1_555
H11 C10 1_555 1_555
H12 C10 1_555 1_555
C11 N1 1_555 1_555
H13 C11 1_555 1_555
C12 C11 1_555 1_555
H14 C12 1_555 1_555
H15 C12 1_555 1_555
C13 C9 1_555 1_555
C14 C13 1_555 1_555
H16 C14 1_555 1_555
C15 C14 1_555 1_555
H17 C15 1_555 1_555
C16 C15 1_555 1_555
C17 C16 1_555 1_555
H18 C17 1_555 1_555
C18 C13 1_555 1_555
H19 C18 1_555 1_555
C4 C5 1_555 1_555
C6 C7 1_555 1_555
C10 C11 1_555 1_555
C17 C18 1_555 1_555

#END
