
#######################################################################
#
#                 Cambridge Crystallographic Data Centre
#                                CCDC 
#
#######################################################################
#
# If this CIF has been generated from an entry in the Cambridge 
# Structural Database, then it will include bibliographic, chemical, 
# crystal, experimental, refinement or atomic coordinate data resulting 
# from the CCDC's data processing and validation procedures.
#
#######################################################################

data_UYALUD
_chemical_formula_moiety         'C25 H21 N1 O2'
_chemical_name_systematic        2-(4,6-diphenylpyridin-2-yl)-6-ethoxyphenol
_symmetry_cell_setting           monoclinic
_symmetry_space_group_name_H-M   'C 2/c'
_symmetry_Int_Tables_number      15
_space_group_name_Hall           '-C 2yn'
loop_
_symmetry_equiv_pos_site_id
_symmetry_equiv_pos_as_xyz
1 x,y,z
2 -x,y,1/2-z
3 1/2+x,1/2+y,z
4 1/2-x,1/2+y,1/2-z
5 -x,-y,-z
6 x,-y,1/2+z
7 1/2-x,1/2-y,-z
8 1/2+x,1/2-y,1/2+z
_cell_length_a                   21.5950(12)
_cell_length_b                   11.9233(6)
_cell_length_c                   18.1759(9)
_cell_angle_alpha                90
_cell_angle_beta                 125.106(2)
_cell_angle_gamma                90
_cell_volume                     3828.66
_exptl_crystal_colour            yellow
_exptl_crystal_description       block
_cell_formula_units_Z            8
loop_
_atom_site_label
_atom_site_type_symbol
_atom_site_fract_x
_atom_site_fract_y
_atom_site_fract_z
N1 N 0.11513(7) 0.82188(9) 0.41036(8)
O1 O 0.07649(7) 0.72468(8) 0.50293(8)
H1 H 0.0791 0.7763 0.4734
O2 O 0.08094(6) 0.55418(8) 0.59407(7)
C1 C 0.17814(8) 0.72444(12) 0.35658(9)
H2 H 0.2018 0.6580 0.3554
C2 C 0.15139(8) 0.63115(11) 0.46059(9)
C3 C 0.13853(8) 0.91343(12) 0.31210(9)
H3 H 0.1340 0.9786 0.2793
C4 C 0.11533(8) 0.63430(11) 0.50507(9)
C5 C 0.14835(8) 0.72768(11) 0.40765(9)
C6 C 0.11818(8) 0.54104(12) 0.55412(9)
C7 C 0.07599(8) 1.01473(12) 0.37487(9)
C8 C 0.17329(8) 0.81729(12) 0.30792(9)
C9 C 0.11054(8) 0.91346(11) 0.36439(9)
C10 C 0.15656(9) 0.44595(13) 0.55945(11)
H4 H 0.1583 0.3827 0.5924
C11 C 0.27064(9) 0.75724(14) 0.28282(10)
H5 H 0.2945 0.7146 0.3367
C12 C 0.19057(9) 0.53292(12) 0.46817(10)
H6 H 0.2159 0.5290 0.4394
C13 C 0.19294(10) 0.44297(13) 0.51618(11)
H7 H 0.2197 0.3774 0.5202
C14 C 0.02656(8) 1.00512(13) 0.40056(10)
H8 H 0.0132 0.9328 0.4091
C15 C 0.20500(8) 0.81606(12) 0.25370(9)
C16 C 0.09359(9) 1.12190(12) 0.36220(11)
H9 H 0.1269 1.1308 0.3444
C17 C -0.00325(9) 1.09916(13) 0.41376(11)
H10 H -0.0368 1.0908 0.4313
C18 C 0.06349(10) 1.21543(13) 0.37506(12)
H11 H 0.0760 1.2879 0.3655
C19 C 0.01529(10) 1.20517(13) 0.40176(11)
H12 H -0.0047 1.2699 0.4116
C20 C 0.26756(10) 0.81915(14) 0.15571(11)
H13 H 0.2892 0.8207 0.1227
C21 C 0.30183(10) 0.75988(15) 0.23427(11)
H14 H 0.3474 0.7202 0.2557
C22 C 0.17081(10) 0.87538(15) 0.17389(11)
H15 H 0.1255 0.9159 0.1524
C23 C 0.04562(11) 0.49977(17) 0.69061(13)
H16 H 0.0706 0.5659 0.7286
H17 H 0.0470 0.4383 0.7273
H18 H -0.0071 0.5180 0.6429
C24 C 0.08605(11) 0.46470(15) 0.64931(12)
H19 H 0.1398 0.4482 0.6970
H20 H 0.0624 0.3962 0.6127
C25 C 0.20173(10) 0.87647(16) 0.12480(12)
H21 H 0.1773 0.9169 0.0698
loop_
_geom_bond_atom_site_label_1
_geom_bond_atom_site_label_2
_geom_bond_site_symmetry_1
_geom_bond_site_symmetry_2
N1 C5 1_555 1_555
O1 H1 1_555 1_555
O2 C6 1_555 1_555
C1 H2 1_555 1_555
C2 C4 1_555 1_555
C3 H3 1_555 1_555
C4 O1 1_555 1_555
C5 C1 1_555 1_555
C6 C4 1_555 1_555
C7 C9 1_555 1_555
C8 C1 1_555 1_555
C9 N1 1_555 1_555
C10 C6 1_555 1_555
H4 C10 1_555 1_555
C11 H5 1_555 1_555
C12 C2 1_555 1_555
H6 C12 1_555 1_555
C13 C10 1_555 1_555
H7 C13 1_555 1_555
C14 C7 1_555 1_555
H8 C14 1_555 1_555
C15 C8 1_555 1_555
C16 C7 1_555 1_555
H9 C16 1_555 1_555
C17 C14 1_555 1_555
H10 C17 1_555 1_555
C18 C16 1_555 1_555
H11 C18 1_555 1_555
C19 C17 1_555 1_555
H12 C19 1_555 1_555
C20 H13 1_555 1_555
C21 C11 1_555 1_555
H14 C21 1_555 1_555
C22 C15 1_555 1_555
H15 C22 1_555 1_555
C23 H16 1_555 1_555
H17 C23 1_555 1_555
H18 C23 1_555 1_555
C24 O2 1_555 1_555
H19 C24 1_555 1_555
H20 C24 1_555 1_555
C25 C20 1_555 1_555
H21 C25 1_555 1_555
C2 C5 1_555 1_555
C3 C8 1_555 1_555
C3 C9 1_555 1_555
C11 C15 1_555 1_555
C12 C13 1_555 1_555
C18 C19 1_555 1_555
C20 C21 1_555 1_555
C22 C25 1_555 1_555
C23 C24 1_555 1_555

#END
