
#######################################################################
#
#                 Cambridge Crystallographic Data Centre
#                                CCDC 
#
#######################################################################
#
# If this CIF has been generated from an entry in the Cambridge 
# Structural Database, then it will include bibliographic, chemical, 
# crystal, experimental, refinement or atomic coordinate data resulting 
# from the CCDC's data processing and validation procedures.
#
#######################################################################

data_UYARAO
_chemical_formula_moiety         'C54 H74 B1 N4 P2 1+,H7 B2 1-,2(C4 H8 O1)'
_chemical_name_systematic        
'1,2-Bis(1,3-bis(2,6-diisopropylphenyl)imidazol-2-ylidene)-1,2,3-diphosphaboriran-3-ium heptahydrodiborate tetrahydrofuran solvate'
_symmetry_cell_setting           triclinic
_symmetry_space_group_name_H-M   'P -1'
_symmetry_Int_Tables_number      2
_space_group_name_Hall           '-P 1'
loop_
_symmetry_equiv_pos_site_id
_symmetry_equiv_pos_as_xyz
1 x,y,z
2 -x,-y,-z
_cell_length_a                   14.459(3)
_cell_length_b                   15.275(3)
_cell_length_c                   16.847(4)
_cell_angle_alpha                63.054(3)
_cell_angle_beta                 79.702(3)
_cell_angle_gamma                66.638(3)
_cell_volume                     3044.96
_exptl_crystal_colour            colorless
_exptl_crystal_description       plate
_cell_formula_units_Z            2
loop_
_atom_site_label
_atom_site_type_symbol
_atom_site_fract_x
_atom_site_fract_y
_atom_site_fract_z
P1 P 0.17977(6) 0.83685(7) 0.32522(6)
P2 P 0.33172(6) 0.83592(7) 0.32773(6)
B1 B 0.2547(4) 0.7783(4) 0.4358(2)
H1 H 0.216(2) 0.832(2) 0.473(2)
H2 H 0.273(3) 0.6910(16) 0.474(3)
N1 N 0.14947(18) 0.6597(2) 0.34884(17)
N2 N 0.28804(19) 0.6584(2) 0.27638(18)
N3 N 0.22566(19) 1.0588(2) 0.29447(17)
N4 N 0.36623(19) 0.9762(2) 0.36758(17)
C1 C 0.2124(2) 0.7141(2) 0.3145(2)
C2 C 0.1841(2) 0.5712(3) 0.3331(2)
H3 H 0.1533 0.5222 0.3499
C3 C 0.2718(2) 0.5698(3) 0.2883(2)
H4 H 0.3135 0.5187 0.2691
C4 C 0.3679(2) 0.6896(3) 0.2201(2)
C5 C 0.4629(2) 0.6477(3) 0.2573(2)
C6 C 0.5383(3) 0.6747(3) 0.1999(3)
H5 H 0.6035 0.6463 0.2215
C7 C 0.5191(3) 0.7416(3) 0.1127(3)
H6 H 0.5707 0.7608 0.0763
C8 C 0.4247(3) 0.7816(3) 0.0774(3)
H7 H 0.4135 0.8270 0.0173
C9 C 0.3460(3) 0.7551(3) 0.1301(2)
C10 C 0.2429(3) 0.7969(3) 0.0896(3)
H8 H 0.2040 0.7557 0.1327
C11 C 0.1855(3) 0.9121(3) 0.0723(3)
H9 H 0.1186 0.9339 0.0521
H10 H 0.2199 0.9550 0.0275
H11 H 0.1818 0.9199 0.1263
C12 C 0.2504(4) 0.7830(4) 0.0046(3)
H12 H 0.1840 0.8042 -0.0162
H13 H 0.2869 0.7104 0.0164
H14 H 0.2851 0.8256 -0.0401
C13 C 0.4870(2) 0.5720(3) 0.3540(2)
H15 H 0.4233 0.5800 0.3870
C14 C 0.5559(3) 0.5934(3) 0.3962(3)
H16 H 0.5687 0.5427 0.4571
H17 H 0.5239 0.6629 0.3938
H18 H 0.6184 0.5880 0.3642
C15 C 0.5329(3) 0.4584(3) 0.3643(3)
H19 H 0.4876 0.4448 0.3399
H20 H 0.5439 0.4111 0.4262
H21 H 0.5959 0.4479 0.3331
C16 C 0.0542(2) 0.6958(2) 0.3909(2)
C17 C 0.0499(2) 0.6524(2) 0.4836(2)
C18 C -0.0429(2) 0.6901(3) 0.5211(2)
H22 H -0.0497 0.6630 0.5827
C19 C -0.1254(2) 0.7677(3) 0.4677(3)
H23 H -0.1863 0.7929 0.4940
C20 C -0.1183(2) 0.8070(3) 0.3778(2)
H24 H -0.1749 0.8582 0.3437
C21 C -0.0281(2) 0.7728(2) 0.3346(2)
C22 C -0.0221(3) 0.8141(3) 0.2338(2)
H25 H 0.0478 0.8081 0.2170
C23 C -0.0464(3) 0.7464(3) 0.2028(3)
H26 H -0.0033 0.6742 0.2330
H27 H -0.0357 0.7696 0.1397
H28 H -0.1155 0.7524 0.2161
C24 C -0.0873(3) 0.9290(3) 0.1864(3)
H29 H -0.0794 0.9514 0.1232
H30 H -0.0671 0.9706 0.2040
H31 H -0.1566 0.9381 0.2021
C25 C 0.1377(2) 0.5647(3) 0.5429(2)
H32 H 0.1990 0.5606 0.5066
C26 C 0.1526(3) 0.5836(3) 0.6196(3)
H33 H 0.2102 0.5272 0.6539
H34 H 0.0938 0.5868 0.6568
H35 H 0.1633 0.6490 0.5968
C27 C 0.1233(3) 0.4592(3) 0.5784(3)
H36 H 0.1797 0.4041 0.6151
H37 H 0.1185 0.4455 0.5293
H38 H 0.0626 0.4620 0.6130
C28 C 0.3017(2) 0.9639(2) 0.3278(2)
C29 C 0.2440(2) 1.1302(3) 0.3133(2)
H39 H 0.2037 1.2006 0.2969
C30 C 0.3303(2) 1.0788(2) 0.3596(2)
H40 H 0.3604 1.1066 0.3820
C31 C 0.4568(2) 0.8952(2) 0.4156(2)
C32 C 0.4539(2) 0.8507(2) 0.5075(2)
C33 C 0.5429(2) 0.7743(3) 0.5531(2)
H41 H 0.5436 0.7431 0.6150
C34 C 0.6299(2) 0.7448(3) 0.5067(3)
H42 H 0.6885 0.6936 0.5377
C35 C 0.6304(2) 0.7905(3) 0.4154(3)
H43 H 0.6898 0.7695 0.3857
C36 C 0.5447(2) 0.8672(3) 0.3655(2)
C37 C 0.5445(3) 0.9172(3) 0.2643(2)
H44 H 0.4813 0.9230 0.2452
C38 C 0.5473(3) 1.0272(3) 0.2241(3)
H45 H 0.5451 1.0555 0.1604
H46 H 0.6082 1.0245 0.2419
H47 H 0.4903 1.0713 0.2446
C39 C 0.6309(3) 0.8495(3) 0.2257(3)
H48 H 0.6262 0.8828 0.1619
H49 H 0.6263 0.7813 0.2476
H50 H 0.6941 0.8418 0.2434
C40 C 0.3593(2) 0.8840(3) 0.5593(2)
H51 H 0.3021 0.9254 0.5180
C41 C 0.3379(3) 0.7897(3) 0.6337(2)
H52 H 0.2786 0.8139 0.6655
H53 H 0.3941 0.7467 0.6739
H54 H 0.3274 0.7491 0.6087
C42 C 0.3692(3) 0.9540(3) 0.5971(3)
H55 H 0.3094 0.9747 0.6298
H56 H 0.3779 1.0155 0.5492
H57 H 0.4265 0.9157 0.6361
C43 C 0.1533(2) 1.0935(2) 0.2277(2)
C44 C 0.0536(2) 1.1020(2) 0.2534(2)
C45 C -0.0138(3) 1.1457(3) 0.1844(3)
H58 H -0.0813 1.1546 0.1976
C46 C 0.0169(3) 1.1762(3) 0.0967(3)
H59 H -0.0297 1.2039 0.0522
C47 C 0.1147(3) 1.1662(3) 0.0746(3)
H60 H 0.1340 1.1871 0.0151
C48 C 0.1864(3) 1.1253(3) 0.1399(2)
C49 C 0.2928(3) 1.1236(3) 0.1156(2)
H61 H 0.3324 1.0823 0.1707
C50 C 0.3432(3) 1.0716(4) 0.0526(3)
H62 H 0.3414 1.0019 0.0783
H63 H 0.4119 1.0677 0.0432
H64 H 0.3080 1.1124 -0.0033
C51 C 0.2936(3) 1.2351(3) 0.0770(3)
H65 H 0.3619 1.2327 0.0667
H66 H 0.2622 1.2658 0.1182
H67 H 0.2572 1.2770 0.0217
C52 C 0.0212(2) 1.0731(3) 0.3500(2)
H68 H 0.0814 1.0270 0.3876
C53 C -0.0270(3) 1.1735(3) 0.3663(3)
H69 H 0.0180 1.2117 0.3461
H70 H -0.0395 1.1544 0.4288
H71 H -0.0894 1.2169 0.3342
C54 C -0.0520(3) 1.0155(3) 0.3775(3)
H72 H -0.0211 0.9517 0.3693
H73 H -0.1117 1.0595 0.3416
H74 H -0.0696 0.9987 0.4390
O1 O 0.4446(2) 0.4006(2) 0.2166(2)
C55 C 0.4978(5) 0.4621(4) 0.1498(3)
H75 H 0.5346 0.4835 0.1760
H76 H 0.4516 0.5244 0.1053
C56 C 0.5686(5) 0.3903(4) 0.1094(4)
H77 H 0.5864 0.4298 0.0490
H78 H 0.6295 0.3438 0.1446
C57 C 0.4289(4) 0.3377(5) 0.1823(4)
H79 H 0.3616 0.3702 0.1576
H80 H 0.4363 0.2683 0.2294
C58 C 0.5058(5) 0.3294(5) 0.1116(4)
H81 H 0.5476 0.2564 0.1259
H82 H 0.4737 0.3600 0.0544
O2 O 0.7764(2) 0.5781(2) 0.1446(2)
C59 C 0.7495(5) 0.5091(4) 0.1280(4)
H83 H 0.7050 0.4819 0.1746
H84 H 0.7138 0.5468 0.0718
C60 C 0.8381(9) 0.4229(6) 0.1248(8)
H85 H 0.8339 0.4069 0.0763
H86 H 0.8473 0.3603 0.1803
C61 C 0.9187(5) 0.4613(12) 0.1105(8)
H87 H 0.9418 0.4795 0.0493
H88 H 0.9750 0.4069 0.1493
C62 C 0.8823(4) 0.5563(6) 0.1295(5)
H89 H 0.9154 0.5417 0.1817
H90 H 0.8947 0.6152 0.0792
B2 B 0.1418(4) 0.4164(4) 0.2477(4)
H91 H 0.167(4) 0.458(3) 0.180(2)
H92 H 0.222(3) 0.371(3) 0.294(2)
H93 H 0.126(3) 0.363(3) 0.231(3)
H94 H 0.075(3) 0.470(3) 0.276(3)
B3 B 0.1660(6) 0.5432(6) 0.1105(5)
H95 H 0.2332 0.5829 0.1087
H96 H 0.2195 0.4937 0.0619
H97 H 0.0775 0.5694 0.0896
loop_
_geom_bond_atom_site_label_1
_geom_bond_atom_site_label_2
_geom_bond_site_symmetry_1
_geom_bond_site_symmetry_2
P1 P2 1_555 1_555
P2 B1 1_555 1_555
B1 P1 1_555 1_555
H1 B1 1_555 1_555
H2 B1 1_555 1_555
N1 C1 1_555 1_555
N2 C1 1_555 1_555
N3 C28 1_555 1_555
N4 C28 1_555 1_555
C1 P1 1_555 1_555
C2 N1 1_555 1_555
H3 C2 1_555 1_555
C3 N2 1_555 1_555
H4 C3 1_555 1_555
C4 N2 1_555 1_555
C5 C4 1_555 1_555
C6 C5 1_555 1_555
H5 C6 1_555 1_555
C7 C6 1_555 1_555
H6 C7 1_555 1_555
C8 C7 1_555 1_555
H7 C8 1_555 1_555
C9 C4 1_555 1_555
C10 C9 1_555 1_555
H8 C10 1_555 1_555
C11 C10 1_555 1_555
H9 C11 1_555 1_555
H10 C11 1_555 1_555
H11 C11 1_555 1_555
C12 C10 1_555 1_555
H12 C12 1_555 1_555
H13 C12 1_555 1_555
H14 C12 1_555 1_555
C13 C5 1_555 1_555
H15 C13 1_555 1_555
C14 C13 1_555 1_555
H16 C14 1_555 1_555
H17 C14 1_555 1_555
H18 C14 1_555 1_555
C15 C13 1_555 1_555
H19 C15 1_555 1_555
H20 C15 1_555 1_555
H21 C15 1_555 1_555
C16 N1 1_555 1_555
C17 C16 1_555 1_555
C18 C17 1_555 1_555
H22 C18 1_555 1_555
C19 C18 1_555 1_555
H23 C19 1_555 1_555
C20 C19 1_555 1_555
H24 C20 1_555 1_555
C21 C16 1_555 1_555
C22 C21 1_555 1_555
H25 C22 1_555 1_555
C23 C22 1_555 1_555
H26 C23 1_555 1_555
H27 C23 1_555 1_555
H28 C23 1_555 1_555
C24 C22 1_555 1_555
H29 C24 1_555 1_555
H30 C24 1_555 1_555
H31 C24 1_555 1_555
C25 C17 1_555 1_555
H32 C25 1_555 1_555
C26 C25 1_555 1_555
H33 C26 1_555 1_555
H34 C26 1_555 1_555
H35 C26 1_555 1_555
C27 C25 1_555 1_555
H36 C27 1_555 1_555
H37 C27 1_555 1_555
H38 C27 1_555 1_555
C28 P2 1_555 1_555
C29 N3 1_555 1_555
H39 C29 1_555 1_555
C30 N4 1_555 1_555
H40 C30 1_555 1_555
C31 N4 1_555 1_555
C32 C31 1_555 1_555
C33 C32 1_555 1_555
H41 C33 1_555 1_555
C34 C33 1_555 1_555
H42 C34 1_555 1_555
C35 C34 1_555 1_555
H43 C35 1_555 1_555
C36 C31 1_555 1_555
C37 C36 1_555 1_555
H44 C37 1_555 1_555
C38 C37 1_555 1_555
H45 C38 1_555 1_555
H46 C38 1_555 1_555
H47 C38 1_555 1_555
C39 C37 1_555 1_555
H48 C39 1_555 1_555
H49 C39 1_555 1_555
H50 C39 1_555 1_555
C40 C32 1_555 1_555
H51 C40 1_555 1_555
C41 C40 1_555 1_555
H52 C41 1_555 1_555
H53 C41 1_555 1_555
H54 C41 1_555 1_555
C42 C40 1_555 1_555
H55 C42 1_555 1_555
H56 C42 1_555 1_555
H57 C42 1_555 1_555
C43 N3 1_555 1_555
C44 C43 1_555 1_555
C45 C44 1_555 1_555
H58 C45 1_555 1_555
C46 C45 1_555 1_555
H59 C46 1_555 1_555
C47 C46 1_555 1_555
H60 C47 1_555 1_555
C48 C43 1_555 1_555
C49 C48 1_555 1_555
H61 C49 1_555 1_555
C50 C49 1_555 1_555
H62 C50 1_555 1_555
H63 C50 1_555 1_555
H64 C50 1_555 1_555
C51 C49 1_555 1_555
H65 C51 1_555 1_555
H66 C51 1_555 1_555
H67 C51 1_555 1_555
C52 C44 1_555 1_555
H68 C52 1_555 1_555
C53 C52 1_555 1_555
H69 C53 1_555 1_555
H70 C53 1_555 1_555
H71 C53 1_555 1_555
C54 C52 1_555 1_555
H72 C54 1_555 1_555
H73 C54 1_555 1_555
H74 C54 1_555 1_555
O1 C55 1_555 1_555
C55 H75 1_555 1_555
H76 C55 1_555 1_555
C56 C55 1_555 1_555
H77 C56 1_555 1_555
H78 C56 1_555 1_555
C57 O1 1_555 1_555
H79 C57 1_555 1_555
H80 C57 1_555 1_555
C58 C56 1_555 1_555
H81 C58 1_555 1_555
H82 C58 1_555 1_555
O2 C59 1_555 1_555
C59 H83 1_555 1_555
H84 C59 1_555 1_555
C60 C59 1_555 1_555
H85 C60 1_555 1_555
H86 C60 1_555 1_555
C61 C60 1_555 1_555
H87 C61 1_555 1_555
H88 C61 1_555 1_555
C62 O2 1_555 1_555
H89 C62 1_555 1_555
H90 C62 1_555 1_555
B2 H91 1_555 1_555
H91 B3 1_555 1_555
H92 B2 1_555 1_555
H93 B2 1_555 1_555
H94 B2 1_555 1_555
B3 H95 1_555 1_555
H96 B3 1_555 1_555
H97 B3 1_555 1_555
C2 C3 1_555 1_555
C8 C9 1_555 1_555
C20 C21 1_555 1_555
C29 C30 1_555 1_555
C35 C36 1_555 1_555
C47 C48 1_555 1_555
C57 C58 1_555 1_555
C61 C62 1_555 1_555

#END
