
#######################################################################
#
#                 Cambridge Crystallographic Data Centre
#                                CCDC 
#
#######################################################################
#
# If this CIF has been generated from an entry in the Cambridge 
# Structural Database, then it will include bibliographic, chemical, 
# crystal, experimental, refinement or atomic coordinate data resulting 
# from the CCDC's data processing and validation procedures.
#
#######################################################################

data_UYAVOH
_chemical_formula_moiety         'C23 H31 N1 Si2'
_chemical_name_systematic        
N-(1-phenyl-2,5-bis(trimethylsilyl)pent-2-en-4-yn-1-yl)aniline
_symmetry_cell_setting           triclinic
_symmetry_space_group_name_H-M   'P -1'
_symmetry_Int_Tables_number      2
_space_group_name_Hall           '-P 1'
loop_
_symmetry_equiv_pos_site_id
_symmetry_equiv_pos_as_xyz
1 x,y,z
2 -x,-y,-z
_cell_length_a                   11.0662(5)
_cell_length_b                   11.1661(5)
_cell_length_c                   11.2508(5)
_cell_angle_alpha                65.2268(6)
_cell_angle_beta                 67.0573(6)
_cell_angle_gamma                71.9789(6)
_cell_volume                     1144.57
_exptl_crystal_colour            'pale yellow'
_exptl_crystal_description       prism
_cell_formula_units_Z            2
loop_
_atom_site_label
_atom_site_type_symbol
_atom_site_fract_x
_atom_site_fract_y
_atom_site_fract_z
C1 C 0.74405(12) 0.65953(14) 0.53612(12)
C2 C 0.70399(11) 0.63622(13) 0.46400(11)
C3 C 0.65238(11) 0.59872(12) 0.38833(11)
H1 H 0.6319 0.5110 0.4276
C4 C 0.63021(10) 0.67573(11) 0.26706(11)
C5 C 0.56351(11) 0.62132(11) 0.20861(11)
H2 H 0.6128 0.6409 0.1086
C6 C 0.97016(16) 0.55728(17) 0.65491(18)
H3 H 0.9518 0.4662 0.6896
H4 H 1.0089 0.5657 0.7154
H5 H 1.0331 0.5754 0.5620
C7 C 0.84118(16) 0.85404(15) 0.58691(16)
H6 H 0.8996 0.8762 0.4919
H7 H 0.8832 0.8624 0.6446
H8 H 0.7557 0.9156 0.5906
C8 C 0.68621(17) 0.64354(17) 0.82272(14)
H9 H 0.6046 0.7101 0.8176
H10 H 0.7211 0.6478 0.8884
H11 H 0.6662 0.5539 0.8530
C9 C 0.84620(12) 0.84738(14) 0.15867(14)
H12 H 0.9082 0.7767 0.1239
H13 H 0.8487 0.8302 0.2506
H14 H 0.8723 0.9343 0.0969
C10 C 0.55181(13) 0.96905(14) 0.25251(15)
H15 H 0.5759 1.0584 0.2024
H16 H 0.5532 0.9393 0.3473
H17 H 0.4622 0.9725 0.2526
C11 C 0.66940(14) 0.89749(13) -0.01128(12)
H18 H 0.6802 0.9913 -0.0616
H19 H 0.5837 0.8862 -0.0083
H20 H 0.7419 0.8403 -0.0578
C12 C 0.41890(11) 0.69124(12) 0.22133(12)
C13 C 0.34076(12) 0.73615(13) 0.33064(13)
H21 H 0.3789 0.7283 0.3966
C14 C 0.20694(13) 0.79257(15) 0.34416(16)
H22 H 0.1541 0.8232 0.4191
C15 C 0.15117(13) 0.80401(15) 0.24842(17)
H23 H 0.0598 0.8422 0.2579
C16 C 0.22787(14) 0.76003(15) 0.13902(16)
H24 H 0.1893 0.7679 0.0735
C17 C 0.36149(13) 0.70431(13) 0.12505(13)
H25 H 0.4142 0.6749 0.0493
C18 C 0.67654(12) 0.38337(12) 0.24183(12)
C19 C 0.66529(14) 0.24778(13) 0.29765(14)
H26 H 0.5813 0.2219 0.3539
C20 C 0.77569(16) 0.15132(15) 0.27136(16)
H27 H 0.7666 0.0597 0.3102
C21 C 0.89939(15) 0.18612(16) 0.18919(17)
H28 H 0.9747 0.1193 0.1712
C22 C 0.91101(14) 0.31931(15) 0.13411(15)
H29 H 0.9953 0.3442 0.0775
C23 C 0.80156(12) 0.41802(14) 0.15989(13)
H30 H 0.8118 0.5093 0.1217
N1 N 0.56481(10) 0.47771(10) 0.27120(11)
Si1 Si 0.81276(3) 0.67930(4) 0.65053(3)
Si2 Si 0.67391(3) 0.84901(3) 0.16732(3)
H31 H 0.4925(16) 0.4510(16) 0.3107(16)
loop_
_geom_bond_atom_site_label_1
_geom_bond_atom_site_label_2
_geom_bond_site_symmetry_1
_geom_bond_site_symmetry_2
C1 C2 1_555 1_555
C2 C3 1_555 1_555
C3 H1 1_555 1_555
C4 C3 1_555 1_555
C5 C4 1_555 1_555
H2 C5 1_555 1_555
C6 H3 1_555 1_555
H4 C6 1_555 1_555
H5 C6 1_555 1_555
C7 H6 1_555 1_555
H7 C7 1_555 1_555
H8 C7 1_555 1_555
C8 H9 1_555 1_555
H10 C8 1_555 1_555
H11 C8 1_555 1_555
C9 H12 1_555 1_555
H13 C9 1_555 1_555
H14 C9 1_555 1_555
C10 H15 1_555 1_555
H16 C10 1_555 1_555
H17 C10 1_555 1_555
C11 H18 1_555 1_555
H19 C11 1_555 1_555
H20 C11 1_555 1_555
C12 C5 1_555 1_555
C13 C12 1_555 1_555
H21 C13 1_555 1_555
C14 C13 1_555 1_555
H22 C14 1_555 1_555
C15 C14 1_555 1_555
H23 C15 1_555 1_555
C16 C15 1_555 1_555
H24 C16 1_555 1_555
C17 C12 1_555 1_555
H25 C17 1_555 1_555
C18 C19 1_555 1_555
C19 H26 1_555 1_555
C20 C19 1_555 1_555
H27 C20 1_555 1_555
C21 C20 1_555 1_555
H28 C21 1_555 1_555
C22 C21 1_555 1_555
H29 C22 1_555 1_555
C23 C18 1_555 1_555
H30 C23 1_555 1_555
N1 C5 1_555 1_555
Si1 C1 1_555 1_555
Si2 C4 1_555 1_555
H31 N1 1_555 1_555
C6 Si1 1_555 1_555
C7 Si1 1_555 1_555
C8 Si1 1_555 1_555
C9 Si2 1_555 1_555
C10 Si2 1_555 1_555
C11 Si2 1_555 1_555
C16 C17 1_555 1_555
C18 N1 1_555 1_555
C22 C23 1_555 1_555

#END
