
#######################################################################
#
#                 Cambridge Crystallographic Data Centre
#                                CCDC 
#
#######################################################################
#
# If this CIF has been generated from an entry in the Cambridge 
# Structural Database, then it will include bibliographic, chemical, 
# crystal, experimental, refinement or atomic coordinate data resulting 
# from the CCDC's data processing and validation procedures.
#
#######################################################################

data_UYAWOH
_chemical_formula_moiety         'C31 H39 N1 O4'
_chemical_name_systematic        
3,12,28-Trioxo-13,28-epoxyoleana-1,9(11)-diene-2-carbonitrile
_symmetry_cell_setting           orthorhombic
_symmetry_space_group_name_H-M   'P 21 21 21'
_symmetry_Int_Tables_number      19
_space_group_name_Hall           'P 2ac 2ab'
loop_
_symmetry_equiv_pos_site_id
_symmetry_equiv_pos_as_xyz
1 x,y,z
2 1/2-x,-y,1/2+z
3 -x,1/2+y,1/2-z
4 1/2+x,1/2-y,-z
_cell_length_a                   8.9020(18)
_cell_length_b                   12.345(3)
_cell_length_c                   24.222(5)
_cell_angle_alpha                90
_cell_angle_beta                 90
_cell_angle_gamma                90
_cell_volume                     2661.88
_cell_formula_units_Z            4
loop_
_atom_site_label
_atom_site_type_symbol
_atom_site_fract_x
_atom_site_fract_y
_atom_site_fract_z
C1 C 1.0088(6) -0.0786(4) -0.05234(18)
H1 H 0.9053 -0.0794 -0.0472
O1 O 1.2810(7) -0.2114(5) -0.1352(3)
O2 O 0.6598(4) 0.1210(3) 0.07556(15)
O3 O 0.8857(4) 0.2317(2) 0.14122(12)
O4 O 0.8964(6) 0.3456(3) 0.21336(15)
N1 N 0.9100(7) -0.3082(4) -0.1257(2)
C2 C 1.0726(6) -0.1571(4) -0.0823(2)
C3 C 1.2348(8) -0.1580(4) -0.0947(3)
C4 C 1.3412(6) -0.0903(4) -0.0610(2)
C5 C 1.2581(5) -0.0344(4) -0.01288(18)
H2 H 1.2394 -0.0923 0.0139
C6 C 1.3496(6) 0.0485(4) 0.0181(2)
H3 H 1.3514 0.1160 -0.0023
H4 H 1.4522 0.0231 0.0220
C7 C 1.2819(5) 0.0675(4) 0.0749(2)
H5 H 1.3395 0.1233 0.0935
H6 H 1.2913 0.0015 0.0963
C8 C 1.1171(5) 0.1013(3) 0.07410(17)
C9 C 1.0248(5) 0.0518(3) 0.02695(18)
C10 C 1.1008(6) 0.0117(3) -0.02643(18)
C11 C 0.8741(6) 0.0559(4) 0.03123(18)
H7 H 0.8181 0.0294 0.0017
C12 C 0.7909(6) 0.0992(4) 0.0791(2)
C13 C 0.8775(5) 0.1126(3) 0.13337(17)
C14 C 1.0373(5) 0.0677(3) 0.13003(17)
C15 C 1.1240(5) 0.1086(4) 0.18094(18)
H8 H 1.1552 0.1828 0.1746
H9 H 1.2137 0.0650 0.1857
C16 C 1.0296(5) 0.1035(4) 0.23416(18)
H10 H 1.0235 0.0287 0.2462
H11 H 1.0810 0.1440 0.2628
C17 C 0.8712(5) 0.1479(3) 0.22810(18)
C18 C 0.7853(5) 0.0832(3) 0.18420(17)
H12 H 0.6896 0.1215 0.1796
C19 C 0.7423(5) -0.0315(3) 0.20339(19)
H13 H 0.8327 -0.0733 0.2101
H14 H 0.6852 -0.0674 0.1746
C20 C 0.6481(5) -0.0261(4) 0.2566(2)
C21 C 0.7375(6) 0.0401(4) 0.3005(2)
H15 H 0.6765 0.0466 0.3335
H16 H 0.8275 0.0002 0.3103
C22 C 0.7832(6) 0.1548(4) 0.2811(2)
H17 H 0.6939 0.1984 0.2753
H18 H 0.8437 0.1895 0.3093
C23 C 1.4574(7) -0.1688(6) -0.0380(3)
H19 H 1.4091 -0.2192 -0.0136
H20 H 1.5325 -0.1291 -0.0180
H21 H 1.5039 -0.2074 -0.0678
C24 C 1.4213(9) -0.0144(5) -0.1003(3)
H22 H 1.3514 0.0379 -0.1143
H23 H 1.4628 -0.0553 -0.1304
H24 H 1.5008 0.0222 -0.0810
C25 C 1.0974(7) 0.1068(4) -0.0689(2)
H25 H 1.1437 0.0840 -0.1028
H26 H 1.1513 0.1677 -0.0542
H27 H 0.9952 0.1274 -0.0759
C26 C 1.1192(6) 0.2265(3) 0.06348(19)
H28 H 1.1681 0.2411 0.0289
H29 H 1.1728 0.2619 0.0928
H30 H 1.0180 0.2533 0.0622
C27 C 1.0303(5) -0.0587(3) 0.13191(19)
H31 H 1.0363 -0.0827 0.1696
H32 H 1.1129 -0.0882 0.1114
H33 H 0.9374 -0.0829 0.1160
C28 C 0.8834(6) 0.2541(4) 0.19692(19)
C29 C 0.6275(7) -0.1408(4) 0.2781(2)
H34 H 0.5733 -0.1829 0.2514
H35 H 0.5721 -0.1389 0.3121
H36 H 0.7241 -0.1731 0.2844
C30 C 0.4914(6) 0.0221(5) 0.2462(3)
H37 H 0.4409 -0.0196 0.2183
H38 H 0.5014 0.0957 0.2339
H39 H 0.4342 0.0202 0.2798
C31 C 0.9836(7) -0.2403(4) -0.1068(2)
loop_
_geom_bond_atom_site_label_1
_geom_bond_atom_site_label_2
_geom_bond_site_symmetry_1
_geom_bond_site_symmetry_2
C1 H1 1_555 1_555
O1 C3 1_555 1_555
O2 C12 1_555 1_555
O3 C13 1_555 1_555
O4 C28 1_555 1_555
N1 C31 1_555 1_555
C2 C1 1_555 1_555
C3 C2 1_555 1_555
C4 C3 1_555 1_555
C5 C4 1_555 1_555
H2 C5 1_555 1_555
C6 C5 1_555 1_555
H3 C6 1_555 1_555
H4 C6 1_555 1_555
C7 C6 1_555 1_555
H5 C7 1_555 1_555
H6 C7 1_555 1_555
C8 C7 1_555 1_555
C9 C8 1_555 1_555
C10 C1 1_555 1_555
C11 C9 1_555 1_555
H7 C11 1_555 1_555
C12 C11 1_555 1_555
C13 C12 1_555 1_555
C14 C8 1_555 1_555
C15 C14 1_555 1_555
H8 C15 1_555 1_555
H9 C15 1_555 1_555
C16 C15 1_555 1_555
H10 C16 1_555 1_555
H11 C16 1_555 1_555
C17 C16 1_555 1_555
C18 C13 1_555 1_555
H12 C18 1_555 1_555
C19 C18 1_555 1_555
H13 C19 1_555 1_555
H14 C19 1_555 1_555
C20 C19 1_555 1_555
C21 C20 1_555 1_555
H15 C21 1_555 1_555
H16 C21 1_555 1_555
C22 C17 1_555 1_555
H17 C22 1_555 1_555
H18 C22 1_555 1_555
C23 C4 1_555 1_555
H19 C23 1_555 1_555
H20 C23 1_555 1_555
H21 C23 1_555 1_555
C24 C4 1_555 1_555
H22 C24 1_555 1_555
H23 C24 1_555 1_555
H24 C24 1_555 1_555
C25 C10 1_555 1_555
H25 C25 1_555 1_555
H26 C25 1_555 1_555
H27 C25 1_555 1_555
C26 C8 1_555 1_555
H28 C26 1_555 1_555
H29 C26 1_555 1_555
H30 C26 1_555 1_555
C27 C14 1_555 1_555
H31 C27 1_555 1_555
H32 C27 1_555 1_555
H33 C27 1_555 1_555
C28 O3 1_555 1_555
C29 C20 1_555 1_555
H34 C29 1_555 1_555
H35 C29 1_555 1_555
H36 C29 1_555 1_555
C30 C20 1_555 1_555
H37 C30 1_555 1_555
H38 C30 1_555 1_555
H39 C30 1_555 1_555
C31 C2 1_555 1_555
C5 C10 1_555 1_555
C9 C10 1_555 1_555
C13 C14 1_555 1_555
C17 C18 1_555 1_555
C17 C28 1_555 1_555
C21 C22 1_555 1_555

#END
