
#######################################################################
#
#                 Cambridge Crystallographic Data Centre
#                                CCDC 
#
#######################################################################
#
# If this CIF has been generated from an entry in the Cambridge 
# Structural Database, then it will include bibliographic, chemical, 
# crystal, experimental, refinement or atomic coordinate data resulting 
# from the CCDC's data processing and validation procedures.
#
#######################################################################

data_UYECUY
_chemical_formula_moiety         'C22 H19 Br1 N2 O4,C1 H2 Cl2'
_chemical_name_systematic        
"ethyl 3-(5'-bromo-1'-methyl-2'-oxo-1',2'-dihydro-1H,3'H-3,3'-biindol-3'-yl)-2-oxopropanoate dichloromethane solvate"
_symmetry_cell_setting           monoclinic
_symmetry_space_group_name_H-M   'P 21'
_symmetry_Int_Tables_number      4
_space_group_name_Hall           'P 2yb'
loop_
_symmetry_equiv_pos_site_id
_symmetry_equiv_pos_as_xyz
1 x,y,z
2 -x,1/2+y,-z
_cell_length_a                   12.5443(7)
_cell_length_b                   12.2510(7)
_cell_length_c                   15.5317(9)
_cell_angle_alpha                90
_cell_angle_beta                 96.613(2)
_cell_angle_gamma                90
_cell_volume                     2371.03
_exptl_crystal_colour            colorless
_exptl_crystal_description       block
_cell_formula_units_Z            4
loop_
_atom_site_label
_atom_site_type_symbol
_atom_site_fract_x
_atom_site_fract_y
_atom_site_fract_z
Br1 Br 0.66622(3) -0.10393(3) 0.82000(2)
O1 O 0.6358(2) 0.2450(3) 1.08353(17)
O2 O 0.4110(2) 0.1430(3) 1.16619(18)
O3 O 0.5862(2) 0.1271(3) 1.21498(19)
O4 O 0.5431(2) 0.4667(2) 0.98092(18)
N1 N 0.6685(2) 0.3723(2) 0.9119(2)
N2 N 0.2994(3) 0.2905(3) 0.7337(2)
H1 H 0.2734 0.2706 0.6824
C1 C 0.5806(3) 0.0961(3) 0.8724(2)
H2 H 0.5185 0.0561 0.8772
C2 C 0.6713(3) 0.0478(3) 0.8448(2)
C3 C 0.7654(3) 0.1050(3) 0.8379(2)
H3 H 0.8246 0.0698 0.8197
C4 C 0.7704(3) 0.2160(3) 0.8585(2)
H4 H 0.8324 0.2561 0.8541
C5 C 0.6809(3) 0.2646(3) 0.8856(2)
C6 C 0.5869(3) 0.2052(3) 0.8921(2)
C7 C 0.5053(3) 0.2803(3) 0.9249(2)
C8 C 0.5717(3) 0.3861(4) 0.9448(2)
C9 C 0.7529(3) 0.4525(3) 0.9215(3)
H5 H 0.8104 0.4268 0.9627
H6 H 0.7255 0.5198 0.9417
H7 H 0.7791 0.4642 0.8666
C10 C 0.4120(3) 0.3046(3) 0.8557(2)
C11 C 0.3954(3) 0.2562(3) 0.7763(2)
H8 H 0.4421 0.2073 0.7544
C12 C 0.2512(3) 0.3614(3) 0.7854(3)
C13 C 0.1525(3) 0.4136(4) 0.7731(3)
H9 H 0.1065 0.4024 0.7225
C14 C 0.1238(4) 0.4816(4) 0.8363(3)
H10 H 0.0576 0.5167 0.8286
C15 C 0.1938(4) 0.4994(4) 0.9133(3)
H11 H 0.1736 0.5470 0.9551
C16 C 0.2919(3) 0.4467(3) 0.9270(3)
H12 H 0.3376 0.4592 0.9776
C17 C 0.3217(3) 0.3739(3) 0.8637(2)
C18 C 0.4601(3) 0.2351(3) 1.0058(2)
H13 H 0.4079 0.2864 1.0235
H14 H 0.4228 0.1672 0.9906
C19 C 0.5438(3) 0.2149(3) 1.0809(2)
C20 C 0.5049(3) 0.1553(3) 1.1587(2)
C21 C 0.5612(4) 0.0718(5) 1.2932(3)
H15 H 0.5421 -0.0036 1.2803
H16 H 0.5008 0.1072 1.3154
C22 C 0.6570(5) 0.0767(5) 1.3591(3)
H17 H 0.7171 0.0437 1.3359
H18 H 0.6425 0.0379 1.4102
H19 H 0.6734 0.1515 1.3736
Br2 Br 0.15252(3) -0.10303(3) 0.30847(2)
O5 O 0.1424(2) 0.2475(3) 0.57696(17)
O6 O -0.0646(2) 0.1387(3) 0.67791(18)
O7 O 0.1138(2) 0.1229(3) 0.71053(17)
O8 O 0.0350(2) 0.4642(2) 0.48042(18)
N3 N 0.1528(2) 0.3728(2) 0.4033(2)
N4 N -0.2245(3) 0.2858(3) 0.2466(2)
H20 H -0.2541 0.2660 0.1963
C23 C 0.0678(3) 0.0952(3) 0.3684(2)
H21 H 0.0078 0.0539 0.3773
C24 C 0.1554(3) 0.0487(3) 0.3339(2)
C25 C 0.2448(3) 0.1094(3) 0.3184(2)
H22 H 0.3008 0.0765 0.2938
C26 C 0.2503(3) 0.2192(3) 0.3399(2)
H23 H 0.3103 0.2605 0.3312
C27 C 0.1638(3) 0.2659(3) 0.3747(2)
C28 C 0.0740(3) 0.2043(3) 0.3886(2)
C29 C -0.0053(3) 0.2771(3) 0.4273(2)
C30 C 0.0605(3) 0.3844(4) 0.4424(2)
C31 C 0.2357(3) 0.4563(3) 0.4070(3)
H24 H 0.2978 0.4321 0.4439
H25 H 0.2092 0.5226 0.4299
H26 H 0.2547 0.4695 0.3498
C32 C -0.1039(3) 0.2999(3) 0.3639(2)
C33 C -0.1274(3) 0.2510(3) 0.2847(3)
H27 H -0.0834 0.2013 0.2605
C34 C -0.1934(3) 0.3694(3) 0.3754(2)
C35 C -0.2176(4) 0.4427(3) 0.4400(3)
H28 H -0.1686 0.4550 0.4887
C36 C -0.3156(4) 0.4967(4) 0.4301(3)
H29 H -0.3324 0.5451 0.4726
C37 C -0.3903(4) 0.4790(4) 0.3560(4)
H30 H -0.4562 0.5146 0.3511
C38 C -0.3666(3) 0.4100(4) 0.2916(3)
H31 H -0.4156 0.3987 0.2428
C39 C -0.2679(3) 0.3571(4) 0.3007(3)
C40 C -0.0392(3) 0.2319(3) 0.5118(2)
H32 H -0.0899 0.2820 0.5332
H33 H -0.0758 0.1628 0.4998
C41 C 0.0527(3) 0.2146(3) 0.5811(2)
C42 C 0.0247(3) 0.1529(3) 0.6620(2)
C43 C 0.0999(4) 0.0622(4) 0.7892(3)
H34 H 0.0821 -0.0133 0.7753
H35 H 0.0425 0.0938 0.8179
C44 C 0.2043(4) 0.0690(5) 0.8466(3)
H36 H 0.2613 0.0431 0.8156
H37 H 0.2005 0.0247 0.8971
H38 H 0.2179 0.1434 0.8637
Cl1 Cl 0.5484(2) 0.7773(3) 0.4780(2)
Cl2 Cl 0.36893(12) 0.69106(14) 0.36896(13)
C45 C 0.4189(7) 0.7999(8) 0.4335(7)
H39 H 0.4162 0.8659 0.3988
H40 H 0.3739 0.8110 0.4796
Cl3 Cl 0.03673(12) 0.15300(15) 0.01478(12)
Cl4 Cl 0.02460(18) 0.3680(2) 0.09030(19)
C46 C 0.1034(6) 0.2745(7) 0.0405(7)
H41 H 0.1244 0.3068 -0.0121
H42 H 0.1682 0.2595 0.0790
loop_
_geom_bond_atom_site_label_1
_geom_bond_atom_site_label_2
_geom_bond_site_symmetry_1
_geom_bond_site_symmetry_2
Br1 C2 1_555 1_555
O1 C19 1_555 1_555
O2 C20 1_555 1_555
O3 C20 1_555 1_555
O4 C8 1_555 1_555
N1 C5 1_555 1_555
N2 H1 1_555 1_555
C1 H2 1_555 1_555
C2 C1 1_555 1_555
C3 C2 1_555 1_555
H3 C3 1_555 1_555
C4 C3 1_555 1_555
H4 C4 1_555 1_555
C5 C4 1_555 1_555
C6 C1 1_555 1_555
C7 C6 1_555 1_555
C8 N1 1_555 1_555
C9 N1 1_555 1_555
H5 C9 1_555 1_555
H6 C9 1_555 1_555
H7 C9 1_555 1_555
C10 C7 1_555 1_555
C11 N2 1_555 1_555
H8 C11 1_555 1_555
C12 N2 1_555 1_555
C13 C12 1_555 1_555
H9 C13 1_555 1_555
C14 C13 1_555 1_555
H10 C14 1_555 1_555
C15 C14 1_555 1_555
H11 C15 1_555 1_555
C16 C15 1_555 1_555
H12 C16 1_555 1_555
C17 C10 1_555 1_555
C18 C7 1_555 1_555
H13 C18 1_555 1_555
H14 C18 1_555 1_555
C19 C18 1_555 1_555
C20 C19 1_555 1_555
C21 O3 1_555 1_555
H15 C21 1_555 1_555
H16 C21 1_555 1_555
C22 C21 1_555 1_555
H17 C22 1_555 1_555
H18 C22 1_555 1_555
H19 C22 1_555 1_555
Br2 C24 1_555 1_555
O5 C41 1_555 1_555
O6 C42 1_555 1_555
O7 C42 1_555 1_555
O8 C30 1_555 1_555
N3 C27 1_555 1_555
N4 H20 1_555 1_555
C23 H21 1_555 1_555
C24 C23 1_555 1_555
C25 C24 1_555 1_555
H22 C25 1_555 1_555
C26 C25 1_555 1_555
H23 C26 1_555 1_555
C27 C26 1_555 1_555
C28 C23 1_555 1_555
C29 C28 1_555 1_555
C30 N3 1_555 1_555
C31 N3 1_555 1_555
H24 C31 1_555 1_555
H25 C31 1_555 1_555
H26 C31 1_555 1_555
C32 C29 1_555 1_555
C33 N4 1_555 1_555
H27 C33 1_555 1_555
C34 C32 1_555 1_555
C35 C34 1_555 1_555
H28 C35 1_555 1_555
C36 C35 1_555 1_555
H29 C36 1_555 1_555
C37 C36 1_555 1_555
H30 C37 1_555 1_555
C38 C37 1_555 1_555
H31 C38 1_555 1_555
C39 N4 1_555 1_555
C40 C29 1_555 1_555
H32 C40 1_555 1_555
H33 C40 1_555 1_555
C41 C40 1_555 1_555
C42 C41 1_555 1_555
C43 O7 1_555 1_555
H34 C43 1_555 1_555
H35 C43 1_555 1_555
C44 C43 1_555 1_555
H36 C44 1_555 1_555
H37 C44 1_555 1_555
H38 C44 1_555 1_555
Cl1 C45 1_555 1_555
Cl2 C45 1_555 1_555
C45 H39 1_555 1_555
H40 C45 1_555 1_555
Cl3 C46 1_555 1_555
Cl4 C46 1_555 1_555
C46 H41 1_555 1_555
H42 C46 1_555 1_555
C5 C6 1_555 1_555
C7 C8 1_555 1_555
C10 C11 1_555 1_555
C12 C17 1_555 1_555
C16 C17 1_555 1_555
C27 C28 1_555 1_555
C29 C30 1_555 1_555
C32 C33 1_555 1_555
C34 C39 1_555 1_555
C38 C39 1_555 1_555

#END
