
#######################################################################
#
#                 Cambridge Crystallographic Data Centre
#                                CCDC 
#
#######################################################################
#
# If this CIF has been generated from an entry in the Cambridge 
# Structural Database, then it will include bibliographic, chemical, 
# crystal, experimental, refinement or atomic coordinate data resulting 
# from the CCDC's data processing and validation procedures.
#
#######################################################################

data_UYEDAF
_chemical_formula_moiety         'C20 H15 N1 O5'
_chemical_name_systematic        
"ethyl 2',3-dioxo-5'-phenyl-1',2'-dihydro-3H-spiro[1-benzofuran-2,3'-pyrrole]-4'-carboxylate"
_symmetry_cell_setting           triclinic
_symmetry_space_group_name_H-M   'P -1'
_symmetry_Int_Tables_number      2
_space_group_name_Hall           '-P 1'
loop_
_symmetry_equiv_pos_site_id
_symmetry_equiv_pos_as_xyz
1 x,y,z
2 -x,-y,-z
_cell_length_a                   6.4802(4)
_cell_length_b                   9.6452(8)
_cell_length_c                   14.4285(9)
_cell_angle_alpha                72.942(6)
_cell_angle_beta                 80.914(5)
_cell_angle_gamma                80.168(6)
_cell_volume                     843.903
_exptl_crystal_colour            white
_exptl_crystal_description       plate
_chemical_melting_point          '473-474 K'
_cell_formula_units_Z            2
loop_
_atom_site_label
_atom_site_type_symbol
_atom_site_fract_x
_atom_site_fract_y
_atom_site_fract_z
O1 O 0.3477(2) 0.86760(16) 0.59126(13)
O2 O 0.7672(2) 0.59237(14) 0.67216(10)
O3 O 0.8860(2) 0.83388(14) 0.49727(10)
O4 O 0.5770(4) 0.7308(2) 0.91630(13)
O5 O 0.4093(3) 0.6540(2) 0.81958(12)
N1 N 0.8744(2) 0.93403(17) 0.62476(12)
H1 H 0.9535 1.0038 0.5959
C1 C 0.6247(3) 0.5182(2) 0.65088(14)
C2 C 0.6569(4) 0.3694(2) 0.66227(15)
H2 H 0.7813 0.3100 0.6852
C3 C 0.4984(4) 0.3115(2) 0.63852(16)
H3 H 0.5146 0.2093 0.6455
C4 C 0.3160(3) 0.3973(2) 0.60486(15)
H4 H 0.2100 0.3531 0.5897
C5 C 0.2878(3) 0.5459(2) 0.59332(15)
H5 H 0.1642 0.6056 0.5697
C6 C 0.4459(3) 0.6059(2) 0.61725(14)
C7 C 0.4635(3) 0.7545(2) 0.61559(14)
C8 C 0.6757(3) 0.7445(2) 0.65486(14)
C9 C 0.8252(3) 0.8414(2) 0.57988(14)
C10 C 0.7859(3) 0.9069(2) 0.72202(14)
C11 C 0.6674(3) 0.7970(2) 0.74328(15)
C12 C 0.8346(3) 0.9936(2) 0.78194(14)
C13 C 1.0321(3) 1.0394(2) 0.76732(16)
H6 H 1.1353 1.0157 0.7178
C14 C 1.0784(4) 1.1196(3) 0.82490(18)
H7 H 1.2139 1.1502 0.8152
C15 C 0.9290(5) 1.1552(3) 0.89613(18)
H8 H 0.9624 1.2090 0.9361
C16 C 0.7315(4) 1.1134(2) 0.90985(17)
H9 H 0.6280 1.1398 0.9584
C17 C 0.6838(4) 1.0331(2) 0.85323(15)
H10 H 0.5471 1.0045 0.8628
C18 C 0.5522(5) 0.7272(3) 0.83632(17)
C19 C 0.2723(7) 0.5802(4) 0.9015(2)
H11 H 0.1769 0.6528 0.9299
H12 H 0.3570 0.5146 0.9526
C20 C 0.1499(7) 0.4958(5) 0.8676(3)
H13 H 0.0837 0.5586 0.8105
H14 H 0.0405 0.4579 0.9197
H15 H 0.2429 0.4139 0.8498
loop_
_geom_bond_atom_site_label_1
_geom_bond_atom_site_label_2
_geom_bond_site_symmetry_1
_geom_bond_site_symmetry_2
O1 C7 1_555 1_555
O2 C1 1_555 1_555
O3 C9 1_555 1_555
O4 C18 1_555 1_555
O5 C18 1_555 1_555
N1 H1 1_555 1_555
C1 C2 1_555 1_555
C2 H2 1_555 1_555
C3 C2 1_555 1_555
H3 C3 1_555 1_555
C4 C3 1_555 1_555
H4 C4 1_555 1_555
C5 C4 1_555 1_555
H5 C5 1_555 1_555
C6 C1 1_555 1_555
C7 C6 1_555 1_555
C8 O2 1_555 1_555
C9 N1 1_555 1_555
C10 N1 1_555 1_555
C11 C8 1_555 1_555
C12 C10 1_555 1_555
C13 C12 1_555 1_555
H6 C13 1_555 1_555
C14 C13 1_555 1_555
H7 C14 1_555 1_555
C15 C14 1_555 1_555
H8 C15 1_555 1_555
C16 C15 1_555 1_555
H9 C16 1_555 1_555
C17 C12 1_555 1_555
H10 C17 1_555 1_555
C18 C11 1_555 1_555
C19 O5 1_555 1_555
H11 C19 1_555 1_555
H12 C19 1_555 1_555
C20 C19 1_555 1_555
H13 C20 1_555 1_555
H14 C20 1_555 1_555
H15 C20 1_555 1_555
C5 C6 1_555 1_555
C7 C8 1_555 1_555
C8 C9 1_555 1_555
C10 C11 1_555 1_555
C16 C17 1_555 1_555

#END
