
#######################################################################
#
#                 Cambridge Crystallographic Data Centre
#                                CCDC 
#
#######################################################################
#
# If this CIF has been generated from an entry in the Cambridge 
# Structural Database, then it will include bibliographic, chemical, 
# crystal, experimental, refinement or atomic coordinate data resulting 
# from the CCDC's data processing and validation procedures.
#
#######################################################################

data_UYEDUZ
_chemical_formula_moiety         'C35 H28 O4'
_chemical_name_systematic        
'9H-fluoren-9-yl 5-acetyl-6-benzyl-2-methyl-4-phenyl-4H-pyran-3-carboxylate'
_symmetry_cell_setting           orthorhombic
_symmetry_space_group_name_H-M   'P 21 21 21'
_symmetry_Int_Tables_number      19
_space_group_name_Hall           'P 2ac 2ab'
loop_
_symmetry_equiv_pos_site_id
_symmetry_equiv_pos_as_xyz
1 x,y,z
2 1/2-x,-y,1/2+z
3 -x,1/2+y,1/2-z
4 1/2+x,1/2-y,-z
_cell_length_a                   7.9303(2)
_cell_length_b                   11.1725(2)
_cell_length_c                   29.5680(6)
_cell_angle_alpha                90
_cell_angle_beta                 90
_cell_angle_gamma                90
_cell_volume                     2619.76
_exptl_crystal_colour            colorless
_exptl_crystal_description       block
_cell_formula_units_Z            4
loop_
_atom_site_label
_atom_site_type_symbol
_atom_site_fract_x
_atom_site_fract_y
_atom_site_fract_z
O1 O 0.35296(16) 0.58577(11) 0.45802(4)
O2 O 0.7979(2) 0.76321(14) 0.41454(5)
O3 O 0.15742(17) 0.32241(13) 0.36686(4)
O4 O 0.38555(16) 0.36123(12) 0.32466(4)
C1 C 0.5569(2) 0.48477(16) 0.39023(6)
H1 H 0.5842 0.4896 0.3573
C2 C 0.5961(2) 0.60529(16) 0.41157(6)
C3 C 0.4965(2) 0.64671(15) 0.44478(6)
C4 C 0.2815(2) 0.50195(16) 0.42946(6)
C5 C 0.3704(2) 0.45647(16) 0.39503(6)
C6 C 0.1049(2) 0.47891(18) 0.44429(6)
H2 H 0.1058 0.4400 0.4740
H3 H 0.0489 0.4267 0.4223
H4 H 0.0438 0.5550 0.4463
C7 C 0.5076(2) 0.76030(16) 0.47151(6)
H5 H 0.6277 0.7820 0.4756
H6 H 0.4579 0.7473 0.5018
C8 C 0.4160(2) 0.86302(17) 0.44828(5)
C9 C 0.2447(2) 0.85413(17) 0.43768(6)
H7 H 0.1857 0.7819 0.4438
C10 C 0.1602(2) 0.94952(18) 0.41834(6)
H8 H 0.0437 0.9425 0.4113
C11 C 0.2448(3) 1.05533(18) 0.40915(7)
H9 H 0.1863 1.1213 0.3963
C12 C 0.4157(3) 1.06441(17) 0.41882(7)
H10 H 0.4746 1.1364 0.4123
C13 C 0.5005(2) 0.96826(16) 0.43810(6)
H11 H 0.6176 0.9747 0.4444
C14 C 0.7481(2) 0.67178(16) 0.39617(6)
C15 C 0.8431(3) 0.62335(19) 0.35594(7)
H12 H 0.7692 0.6233 0.3294
H13 H 0.8802 0.5414 0.3623
H14 H 0.9417 0.6739 0.3500
C16 C 0.6603(2) 0.38349(16) 0.41083(6)
C17 C 0.6772(2) 0.37207(17) 0.45779(6)
H15 H 0.6280 0.4303 0.4771
C18 C 0.7651(3) 0.27662(18) 0.47639(7)
H16 H 0.7747 0.2696 0.5083
C19 C 0.8390(2) 0.19142(17) 0.44858(7)
H17 H 0.8989 0.1259 0.4613
C20 C 0.8244(2) 0.20313(17) 0.40203(7)
H18 H 0.8761 0.1457 0.3828
C21 C 0.7353(2) 0.29771(17) 0.38331(6)
H19 H 0.7254 0.3040 0.3514
C22 C 0.2904(2) 0.37385(16) 0.36224(6)
C23 C 0.3119(2) 0.28765(16) 0.28875(6)
H20 H 0.2618 0.2122 0.3010
C24 C 0.4509(2) 0.26209(16) 0.25520(6)
C25 C 0.5940(3) 0.19320(19) 0.26045(7)
H21 H 0.6163 0.1539 0.2883
C26 C 0.7052(3) 0.1823(2) 0.22419(7)
H22 H 0.8042 0.1351 0.2272
C27 C 0.6717(3) 0.2402(2) 0.18355(7)
H23 H 0.7488 0.2324 0.1591
C28 C 0.5275(3) 0.30930(19) 0.17800(6)
H24 H 0.5054 0.3488 0.1502
C29 C 0.4165(2) 0.31927(17) 0.21400(6)
C30 C 0.2509(2) 0.37814(17) 0.21759(6)
C31 C 0.1579(3) 0.44149(19) 0.18585(7)
H25 H 0.2019 0.4560 0.1565
C32 C -0.0009(3) 0.4833(2) 0.19792(7)
H26 H -0.0653 0.5276 0.1766
C33 C -0.0670(3) 0.4617(2) 0.24049(8)
H27 H -0.1761 0.4907 0.2480
C34 C 0.0258(3) 0.3974(2) 0.27250(7)
H28 H -0.0198 0.3812 0.3016
C35 C 0.1851(2) 0.35781(16) 0.26096(6)
loop_
_geom_bond_atom_site_label_1
_geom_bond_atom_site_label_2
_geom_bond_site_symmetry_1
_geom_bond_site_symmetry_2
O1 C3 1_555 1_555
O2 C14 1_555 1_555
O3 C22 1_555 1_555
O4 C22 1_555 1_555
C1 H1 1_555 1_555
C2 C1 1_555 1_555
C3 C2 1_555 1_555
C4 O1 1_555 1_555
C5 C1 1_555 1_555
C6 C4 1_555 1_555
H2 C6 1_555 1_555
H3 C6 1_555 1_555
H4 C6 1_555 1_555
C7 C3 1_555 1_555
H5 C7 1_555 1_555
H6 C7 1_555 1_555
C8 C7 1_555 1_555
C9 C8 1_555 1_555
H7 C9 1_555 1_555
C10 C9 1_555 1_555
H8 C10 1_555 1_555
C11 C10 1_555 1_555
H9 C11 1_555 1_555
C12 C11 1_555 1_555
H10 C12 1_555 1_555
C13 C8 1_555 1_555
H11 C13 1_555 1_555
C14 C2 1_555 1_555
C15 C14 1_555 1_555
H12 C15 1_555 1_555
H13 C15 1_555 1_555
H14 C15 1_555 1_555
C16 C1 1_555 1_555
C17 C16 1_555 1_555
H15 C17 1_555 1_555
C18 C17 1_555 1_555
H16 C18 1_555 1_555
C19 C18 1_555 1_555
H17 C19 1_555 1_555
C20 C19 1_555 1_555
H18 C20 1_555 1_555
C21 C16 1_555 1_555
H19 C21 1_555 1_555
C22 C5 1_555 1_555
C23 O4 1_555 1_555
H20 C23 1_555 1_555
C24 C23 1_555 1_555
C25 C24 1_555 1_555
H21 C25 1_555 1_555
C26 C25 1_555 1_555
H22 C26 1_555 1_555
C27 C26 1_555 1_555
H23 C27 1_555 1_555
C28 C27 1_555 1_555
H24 C28 1_555 1_555
C29 C24 1_555 1_555
C30 C29 1_555 1_555
C31 C30 1_555 1_555
H25 C31 1_555 1_555
C32 C31 1_555 1_555
H26 C32 1_555 1_555
C33 C32 1_555 1_555
H27 C33 1_555 1_555
C34 C33 1_555 1_555
H28 C34 1_555 1_555
C35 C23 1_555 1_555
C4 C5 1_555 1_555
C12 C13 1_555 1_555
C20 C21 1_555 1_555
C28 C29 1_555 1_555
C30 C35 1_555 1_555
C34 C35 1_555 1_555

#END
