
#######################################################################
#
#                 Cambridge Crystallographic Data Centre
#                                CCDC 
#
#######################################################################
#
# If this CIF has been generated from an entry in the Cambridge 
# Structural Database, then it will include bibliographic, chemical, 
# crystal, experimental, refinement or atomic coordinate data resulting 
# from the CCDC's data processing and validation procedures.
#
#######################################################################

data_UYEFUB
_chemical_formula_moiety         'C23 H23 N1 O7 S1,0.5(C6 H14)'
_chemical_name_systematic        
'methyl 8-(2-methoxy-2-oxoethyl)-2-((4-methylphenyl)sulfonyl)-1-oxo-2,3,3a,8-tetrahydroindeno[1,2-c]pyrrole-8a(1H)-carboxylate hexane solvate'
_symmetry_cell_setting           monoclinic
_symmetry_space_group_name_H-M   'P 21/n'
_symmetry_Int_Tables_number      14
_space_group_name_Hall           '-P 2yn'
loop_
_symmetry_equiv_pos_site_id
_symmetry_equiv_pos_as_xyz
1 x,y,z
2 1/2-x,1/2+y,1/2-z
3 -x,-y,-z
4 1/2+x,1/2-y,1/2+z
_cell_length_a                   8.01019(13)
_cell_length_b                   12.5362(2)
_cell_length_c                   24.3379(4)
_cell_angle_alpha                90
_cell_angle_beta                 98.3236(16)
_cell_angle_gamma                90
_cell_volume                     2418.2
_exptl_crystal_colour            colorless
_exptl_crystal_description       block
_cell_formula_units_Z            4
loop_
_atom_site_label
_atom_site_type_symbol
_atom_site_fract_x
_atom_site_fract_y
_atom_site_fract_z
S1 S 0.44150(5) 0.58737(3) 0.36429(2)
O1 O 0.40735(17) 0.36847(11) 0.41222(5)
O2 O 0.41740(19) 0.66285(11) 0.31988(6)
O3 O 0.60414(17) 0.57564(12) 0.39611(6)
O4 O 0.01848(17) 0.38662(13) 0.32994(6)
N1 N 0.38607(19) 0.47123(12) 0.33331(6)
O5 O 0.0214(2) 0.21116(14) 0.34683(8)
C1 C 0.2923(2) 0.60820(15) 0.40904(8)
C2 C 0.3642(2) 0.37941(15) 0.36308(7)
C3 C 0.0894(3) 0.29070(17) 0.33459(8)
C4 C 0.2703(2) 0.29686(15) 0.32259(7)
C5 C 0.3406(3) 0.60569(17) 0.46623(8)
H1 H 0.4523 0.5929 0.4813
C6 C 0.3553(3) 0.18596(15) 0.32415(8)
H2 H 0.2709 0.1357 0.3061
C7 C 0.4455(3) 0.29110(17) 0.25191(8)
C8 C 0.2877(2) 0.34655(16) 0.26515(7)
H3 H 0.1896 0.3301 0.2374
C9 C 0.3075(2) 0.46561(16) 0.27456(7)
H4 H 0.3800 0.4968 0.2502
H5 H 0.1991 0.5015 0.2689
C10 C 0.1261(2) 0.62850(17) 0.38599(8)
H6 H 0.0955 0.6316 0.3477
C11 C 0.0075(2) 0.64392(18) 0.42103(9)
H7 H -0.1041 0.6567 0.4059
O6 O 0.3443(8) -0.0366(7) 0.3462(3)
C12 C 0.4841(3) 0.20190(17) 0.28527(8)
C13 C 0.2196(3) 0.6225(2) 0.49994(9)
H8 H 0.2509 0.6217 0.5383
C14 C 0.0509(3) 0.64076(19) 0.47821(9)
O7 O 0.4350(7) -0.0152(4) 0.4351(2)
C15 C 0.6250(3) 0.1407(2) 0.27924(11)
H9 H 0.6503 0.0803 0.3010
C16 C 0.5471(3) 0.3209(2) 0.21243(9)
H10 H 0.5205 0.3800 0.1898
C17 C -0.1558(3) 0.3948(2) 0.33903(10)
H11 H -0.2287 0.3793 0.3051
H12 H -0.1776 0.4658 0.3509
H13 H -0.1767 0.3448 0.3671
C18 C 0.4191(3) 0.14136(16) 0.38187(9)
H14 H 0.5382 0.1573 0.3915
H15 H 0.3594 0.1756 0.4090
C19 C 0.7275(3) 0.1702(2) 0.24064(11)
H16 H 0.8224 0.1297 0.2367
C20 C 0.6897(3) 0.2593(3) 0.20800(10)
H17 H 0.7604 0.2787 0.1826
C21 C 0.3926(8) 0.0207(5) 0.3839(3)
C22 C -0.0820(3) 0.6577(3) 0.51567(11)
H18 H -0.0542 0.7199 0.5382
H19 H -0.0860 0.5965 0.5392
H20 H -0.1900 0.6676 0.4934
C23 C 0.4267(12) -0.1308(5) 0.4412(4)
H21 H 0.3109 -0.1530 0.4368
H22 H 0.4817 -0.1509 0.4774
H23 H 0.4823 -0.1646 0.4134
H24? H 0.5228 0.1775 0.3968
H25? H 0.3363 0.1559 0.4063
C24? C 0.4513(8) 0.0221(5) 0.3810(3)
O8? O 0.4204(9) -0.0349(7) 0.3419(3)
O9? O 0.5205(8) -0.0141(4) 0.4301(2)
C25? C 0.5331(13) -0.1293(5) 0.4358(4)
H26? H 0.4226 -0.1602 0.4279
H27? H 0.5818 -0.1470 0.4731
H28? H 0.6032 -0.1567 0.4103
loop_
_geom_bond_atom_site_label_1
_geom_bond_atom_site_label_2
_geom_bond_site_symmetry_1
_geom_bond_site_symmetry_2
S1 O2 1_555 1_555
O1 C2 1_555 1_555
O3 S1 1_555 1_555
O4 C3 1_555 1_555
N1 S1 1_555 1_555
O5 C3 1_555 1_555
C1 S1 1_555 1_555
C2 N1 1_555 1_555
C3 C4 1_555 1_555
C4 C2 1_555 1_555
C5 C1 1_555 1_555
H1 C5 1_555 1_555
C6 C4 1_555 1_555
H2 C6 1_555 1_555
C7 C8 1_555 1_555
C8 C4 1_555 1_555
H3 C8 1_555 1_555
C9 N1 1_555 1_555
H4 C9 1_555 1_555
H5 C9 1_555 1_555
C10 C1 1_555 1_555
H6 C10 1_555 1_555
C11 C10 1_555 1_555
H7 C11 1_555 1_555
O6 C21 1_555 1_555
C12 C6 1_555 1_555
C13 C5 1_555 1_555
H8 C13 1_555 1_555
C14 C11 1_555 1_555
O7 C21 1_555 1_555
C15 C12 1_555 1_555
H9 C15 1_555 1_555
C16 C7 1_555 1_555
H10 C16 1_555 1_555
C17 O4 1_555 1_555
H11 C17 1_555 1_555
H12 C17 1_555 1_555
H13 C17 1_555 1_555
C18 C6 1_555 1_555
H14 C18 1_555 1_555
H15 C18 1_555 1_555
C19 C15 1_555 1_555
H16 C19 1_555 1_555
C20 C16 1_555 1_555
H17 C20 1_555 1_555
C21 C18 1_555 1_555
C22 C14 1_555 1_555
H18 C22 1_555 1_555
H19 C22 1_555 1_555
H20 C22 1_555 1_555
C23 O7 1_555 1_555
H21 C23 1_555 1_555
H22 C23 1_555 1_555
H23 C23 1_555 1_555
C7 C12 1_555 1_555
C8 C9 1_555 1_555
C13 C14 1_555 1_555
C19 C20 1_555 1_555

#END
