
#######################################################################
#
#                 Cambridge Crystallographic Data Centre
#                                CCDC 
#
#######################################################################
#
# If this CIF has been generated from an entry in the Cambridge 
# Structural Database, then it will include bibliographic, chemical, 
# crystal, experimental, refinement or atomic coordinate data resulting 
# from the CCDC's data processing and validation procedures.
#
#######################################################################

data_UYEHUC
_chemical_formula_moiety         'C32 H56 B10 O2 S2'
_chemical_name_systematic        
1,2-bis(3,5-di-t-butyl-1-hydroxybenzylthio)-1,2-dicarba-closo-dodecaborane
_symmetry_cell_setting           monoclinic
_symmetry_space_group_name_H-M   'C 2/c'
_symmetry_Int_Tables_number      15
_space_group_name_Hall           '-C 2yn'
loop_
_symmetry_equiv_pos_site_id
_symmetry_equiv_pos_as_xyz
1 x,y,z
2 -x,y,1/2-z
3 1/2+x,1/2+y,z
4 1/2-x,1/2+y,1/2-z
5 -x,-y,-z
6 x,-y,1/2+z
7 1/2-x,1/2-y,-z
8 1/2+x,1/2-y,1/2+z
_cell_length_a                   29.19(3)
_cell_length_b                   15.190(16)
_cell_length_c                   22.76(2)
_cell_angle_alpha                90
_cell_angle_beta                 129.894(11)
_cell_angle_gamma                90
_cell_volume                     7742.67
_exptl_crystal_colour            yellow
_exptl_crystal_description       prism
_cell_formula_units_Z            8
loop_
_atom_site_label
_atom_site_type_symbol
_atom_site_fract_x
_atom_site_fract_y
_atom_site_fract_z
S1 S 0.11878(4) 0.54107(5) 0.73128(5)
S2 S 0.08762(4) 0.70240(6) 0.80698(5)
O1 O 0.09666(15) 0.47608(14) 0.84531(15)
H1 H 0.0922 0.5161 0.8179
O2 O 0.1572(3) 0.8882(3) 0.9190(3)
H2 H 0.1698 0.9371 0.9382
C1 C 0.16882(18) 0.8301(2) 0.97342(19)
C2 C 0.17522(17) 0.6788(2) 1.00298(19)
H3 H 0.1755 0.6202 0.9913
B1 B 0.02028(18) 0.6805(2) 0.6430(2)
H4 H -0.0126 0.6405 0.6401
B2 B 0.04184(19) 0.6560(3) 0.5868(2)
H5 H 0.0220 0.6011 0.5457
B3 B 0.1177(2) 0.6847(2) 0.6416(2)
H6 H 0.1475 0.6489 0.6361
B4 B 0.14256(18) 0.7253(2) 0.7314(2)
H7 H 0.1882 0.7138 0.7851
B5 B 0.1029(2) 0.8243(2) 0.7142(2)
H8 H 0.1233 0.8786 0.7559
B6 B 0.0262(2) 0.7962(2) 0.6584(2)
H9 H -0.0038 0.8321 0.6634
B7 B 0.0011(2) 0.7533(3) 0.5699(2)
H10 H -0.0454 0.7614 0.5171
B8 B 0.0618(2) 0.7572(3) 0.5699(2)
H11 H 0.0551 0.7692 0.5172
B9 B 0.1248(2) 0.7993(3) 0.6597(2)
H12 H 0.1596 0.8381 0.6660
B10 B 0.0522(2) 0.8420(3) 0.6141(3)
H13 H 0.0391 0.9089 0.5899
C3 C 0.09092(14) 0.64233(19) 0.68279(17)
C4 C 0.08179(15) 0.72794(19) 0.72690(17)
C5 C 0.05341(17) 0.4730(2) 0.6924(2)
H14 H 0.0253 0.5046 0.6940
H15 H 0.0335 0.4574 0.6396
C6 C 0.07551(16) 0.3914(2) 0.7415(2)
C7 C 0.09500(17) 0.3961(2) 0.8151(2)
C8 C 0.11366(17) 0.3215(2) 0.8606(2)
C9 C 0.10944(18) 0.2428(2) 0.8264(2)
H16 H 0.1208 0.1915 0.8551
C10 C 0.08971(17) 0.2351(2) 0.7531(2)
C11 C 0.07319(16) 0.3111(2) 0.7115(2)
H17 H 0.0601 0.3085 0.6620
C12 C 0.13720(18) 0.3253(2) 0.9428(2)
C13 C 0.0911(2) 0.3670(3) 0.9454(3)
H18 H 0.0802 0.4239 0.9215
H19 H 0.1078 0.3733 0.9977
H20 H 0.0563 0.3302 0.9186
C14 C 0.1951(2) 0.3776(3) 0.9917(3)
H21 H 0.2250 0.3474 0.9936
H22 H 0.2085 0.3835 1.0426
H23 H 0.1884 0.4350 0.9697
C15 C 0.1513(2) 0.2340(3) 0.9789(3)
H24 H 0.1156 0.1993 0.9503
H25 H 0.1668 0.2397 1.0308
H26 H 0.1805 0.2059 0.9784
C16 C 0.0872(2) 0.1442(2) 0.7211(2)
C17 C 0.0607(3) 0.1479(3) 0.6375(3)
H27 H 0.0609 0.0900 0.6208
H28 H 0.0842 0.1868 0.6329
H29 H 0.0204 0.1693 0.6064
C18 C 0.0496(4) 0.0832(4) 0.7259(5)
H30 H 0.0449 0.0285 0.7014
H31 H 0.0111 0.1093 0.7008
H32 H 0.0687 0.0725 0.7787
C19 C 0.1488(3) 0.1090(4) 0.7640(3)
H33 H 0.1666 0.0995 0.8165
H34 H 0.1723 0.1505 0.7616
H35 H 0.1471 0.0542 0.7416
C20 C 0.16605(19) 0.7209(3) 0.8895(2)
H36 H 0.1891 0.6683 0.9004
H37 H 0.1819 0.7687 0.8789
C21 C 0.17009(17) 0.7440(2) 0.95721(18)
C22 C 0.17443(16) 0.8549(2) 1.03648(19)
C23 C 0.18028(15) 0.7863(2) 1.08112(18)
H38 H 0.1848 0.8008 1.1243
C24 C 0.17997(16) 0.69855(19) 1.06651(18)
C25 C 0.17304(18) 0.9509(2) 1.0549(2)
C26 C 0.1913(3) 0.9608(3) 1.1346(3)
H39 H 0.1956 1.0221 1.1474
H40 H 0.2287 0.9312 1.1718
H41 H 0.1612 0.9352 1.1345
C27 C 0.1110(2) 0.9879(3) 0.9947(4)
H42 H 0.0832 0.9565 0.9960
H43 H 0.0999 0.9816 0.9450
H44 H 0.1107 1.0491 1.0049
C28 C 0.2192(2) 1.0046(3) 1.0579(3)
H45 H 0.2085 1.0046 1.0082
H46 H 0.2580 0.9787 1.0944
H47 H 0.2199 1.0640 1.0728
C29 C 0.18308(17) 0.6249(2) 1.1153(2)
C30 C 0.1918(2) 0.6614(3) 1.1838(2)
H48 H 0.1575 0.6956 1.1664
H49 H 0.2267 0.6980 1.2133
H50 H 0.1966 0.6137 1.2150
C31 C 0.2351(2) 0.5632(3) 1.1454(2)
H51 H 0.2715 0.5964 1.1740
H52 H 0.2288 0.5346 1.1032
H53 H 0.2377 0.5198 1.1781
C32 C 0.1238(2) 0.5739(3) 1.0656(3)
H54 H 0.1259 0.5258 1.0946
H55 H 0.1168 0.5515 1.0210
H56 H 0.0918 0.6125 1.0503
C33? C 0.17522(17) 0.6788(2) 1.00298(19)
C34? C 0.16882(18) 0.8301(2) 0.97342(19)
H57? H 0.2054 0.5799 0.9974
H58? H 0.1640 0.8736 0.9411
O3? O 0.1718(4) 0.5971(4) 0.9785(4)
loop_
_geom_bond_atom_site_label_1
_geom_bond_atom_site_label_2
_geom_bond_site_symmetry_1
_geom_bond_site_symmetry_2
S1 C3 1_555 1_555
S2 C4 1_555 1_555
O1 H1 1_555 1_555
O2 H2 1_555 1_555
C1 O2 1_555 1_555
C2 H3 1_555 1_555
B1 H4 1_555 1_555
B2 B1 1_555 1_555
H5 B2 1_555 1_555
B3 B2 1_555 1_555
H6 B3 1_555 1_555
B4 B3 1_555 1_555
H7 B4 1_555 1_555
B5 B4 1_555 1_555
H8 B5 1_555 1_555
B6 B1 1_555 1_555
H9 B6 1_555 1_555
B7 B1 1_555 1_555
H10 B7 1_555 1_555
B8 B2 1_555 1_555
H11 B8 1_555 1_555
B9 B3 1_555 1_555
H12 B9 1_555 1_555
B10 B5 1_555 1_555
H13 B10 1_555 1_555
C3 B1 1_555 1_555
C4 B1 1_555 1_555
C5 S1 1_555 1_555
H14 C5 1_555 1_555
H15 C5 1_555 1_555
C6 C5 1_555 1_555
C7 O1 1_555 1_555
C8 C7 1_555 1_555
C9 C8 1_555 1_555
H16 C9 1_555 1_555
C10 C9 1_555 1_555
C11 C6 1_555 1_555
H17 C11 1_555 1_555
C12 C8 1_555 1_555
C13 C12 1_555 1_555
H18 C13 1_555 1_555
H19 C13 1_555 1_555
H20 C13 1_555 1_555
C14 C12 1_555 1_555
H21 C14 1_555 1_555
H22 C14 1_555 1_555
H23 C14 1_555 1_555
C15 C12 1_555 1_555
H24 C15 1_555 1_555
H25 C15 1_555 1_555
H26 C15 1_555 1_555
C16 C10 1_555 1_555
C17 C16 1_555 1_555
H27 C17 1_555 1_555
H28 C17 1_555 1_555
H29 C17 1_555 1_555
C18 C16 1_555 1_555
H30 C18 1_555 1_555
H31 C18 1_555 1_555
H32 C18 1_555 1_555
C19 C16 1_555 1_555
H33 C19 1_555 1_555
H34 C19 1_555 1_555
H35 C19 1_555 1_555
C20 S2 1_555 1_555
H36 C20 1_555 1_555
H37 C20 1_555 1_555
C21 C1 1_555 1_555
C22 C1 1_555 1_555
C23 C22 1_555 1_555
H38 C23 1_555 1_555
C24 C2 1_555 1_555
C25 C22 1_555 1_555
C26 C25 1_555 1_555
H39 C26 1_555 1_555
H40 C26 1_555 1_555
H41 C26 1_555 1_555
C27 C25 1_555 1_555
H42 C27 1_555 1_555
H43 C27 1_555 1_555
H44 C27 1_555 1_555
C28 C25 1_555 1_555
H45 C28 1_555 1_555
H46 C28 1_555 1_555
H47 C28 1_555 1_555
C29 C24 1_555 1_555
C30 C29 1_555 1_555
H48 C30 1_555 1_555
H49 C30 1_555 1_555
H50 C30 1_555 1_555
C31 C29 1_555 1_555
H51 C31 1_555 1_555
H52 C31 1_555 1_555
H53 C31 1_555 1_555
C32 C29 1_555 1_555
H54 C32 1_555 1_555
H55 C32 1_555 1_555
H56 C32 1_555 1_555
C2 C21 1_555 1_555
B2 B7 1_555 1_555
B2 C3 1_555 1_555
B3 B8 1_555 1_555
B3 C3 1_555 1_555
B4 B9 1_555 1_555
B4 C3 1_555 1_555
B4 C4 1_555 1_555
B5 B6 1_555 1_555
B5 B9 1_555 1_555
B5 C4 1_555 1_555
B6 B7 1_555 1_555
B6 B10 1_555 1_555
B6 C4 1_555 1_555
B7 B8 1_555 1_555
B7 B10 1_555 1_555
B8 B9 1_555 1_555
B8 B10 1_555 1_555
B9 B10 1_555 1_555
C3 C4 1_555 1_555
C6 C7 1_555 1_555
C10 C11 1_555 1_555
C20 C21 1_555 1_555
C23 C24 1_555 1_555

#END
