
#######################################################################
#
#                 Cambridge Crystallographic Data Centre
#                                CCDC 
#
#######################################################################
#
# If this CIF has been generated from an entry in the Cambridge 
# Structural Database, then it will include bibliographic, chemical, 
# crystal, experimental, refinement or atomic coordinate data resulting 
# from the CCDC's data processing and validation procedures.
#
#######################################################################

data_UYENUI
_chemical_formula_moiety         'C37 H33 F5 N6 O10,3(C1 H1 Cl3)'
_chemical_name_systematic        
'(+-)-Diethyl 1-acetamido-4,11-dimethoxy-6,13-dioxo-8-((pentafluorobenzoyl)amino)-5,7,12,14-tetrahydro-5a,6a,12a,13a-tetraazabenzo[5,6]azuleno[2,1,8-ija]benzo[f]azulene-13b,13c-dicarboxylate chloroform solvate'
_symmetry_cell_setting           triclinic
_symmetry_space_group_name_H-M   'P -1'
_symmetry_Int_Tables_number      2
_space_group_name_Hall           '-P 1'
loop_
_symmetry_equiv_pos_site_id
_symmetry_equiv_pos_as_xyz
1 x,y,z
2 -x,-y,-z
_cell_length_a                   10.5648(10)
_cell_length_b                   15.5841(14)
_cell_length_c                   16.8119(15)
_cell_angle_alpha                116.766(1)
_cell_angle_beta                 97.158(2)
_cell_angle_gamma                90.808(2)
_cell_volume                     2444.41
_exptl_crystal_colour            colorless
_exptl_crystal_description       block
_chemical_melting_point          '267-268 deg.C'
_cell_formula_units_Z            2
loop_
_atom_site_label
_atom_site_type_symbol
_atom_site_fract_x
_atom_site_fract_y
_atom_site_fract_z
C1 C -0.2946(3) 1.2395(2) 0.35267(19)
H1 H -0.3770 1.2671 0.3507
H2 H -0.2776 1.1993 0.2911
H3 H -0.2265 1.2916 0.3846
C2 C -0.2987(2) 1.17872(18) 0.40129(17)
C3 C -0.2210(2) 1.02895(17) 0.40045(15)
C4 C -0.1822(2) 1.06321(18) 0.49231(15)
H4 H -0.1752 1.1306 0.5310
C5 C -0.1536(2) 1.00015(18) 0.52784(15)
H5 H -0.1315 1.0240 0.5911
C6 C -0.1572(2) 0.90146(17) 0.47096(15)
C7 C -0.1955(2) 0.86634(16) 0.37842(15)
C8 C -0.2321(2) 0.92974(16) 0.34296(15)
C9 C -0.0939(3) 0.8668(2) 0.59379(16)
H6 H -0.0233 0.9174 0.6192
H7 H -0.0691 0.8126 0.6052
H8 H -0.1697 0.8927 0.6220
C10 C -0.2820(2) 0.88940(16) 0.24371(14)
H9 H -0.3537 0.8404 0.2283
H10 H -0.3164 0.9421 0.2320
C11 C -0.1935(2) 0.75954(16) 0.31646(14)
H11 H -0.1648 0.7260 0.3526
H12 H -0.2811 0.7324 0.2851
C12 C -0.0841(2) 0.90333(17) 0.18481(14)
C13 C 0.0180(2) 0.72838(15) 0.26332(14)
C14 C -0.1461(2) 0.75099(16) 0.16831(14)
C15 C -0.2518(2) 0.67134(17) 0.10563(15)
C16 C -0.3314(10) 0.5147(7) 0.0566(10)
H13 H -0.4114 0.5480 0.0656
H14 H -0.3307 0.4764 -0.0089
C17 C -0.3261(11) 0.4506(6) 0.0998(6)
H15 H -0.2416 0.4252 0.0986
H16 H -0.3920 0.3969 0.0671
H17 H -0.3411 0.4869 0.1624
C18 C -0.0150(2) 0.74694(16) 0.13232(14)
C19 C -0.0111(2) 0.68064(18) 0.03206(16)
C20 C -0.1218(3) 0.6192(2) -0.11566(16)
H18 H -0.0430 0.6338 -0.1351
H19 H -0.1958 0.6342 -0.1482
C21 C -0.1337(3) 0.5148(2) -0.13904(18)
H20 H -0.0552 0.4980 -0.1135
H21 H -0.1472 0.4762 -0.2047
H22 H -0.2067 0.5017 -0.1143
C22 C 0.1363(2) 0.88098(18) 0.14198(15)
H23 H 0.1264 0.9410 0.1361
H24 H 0.1645 0.8324 0.0860
C23 C 0.2099(2) 0.72846(16) 0.19622(16)
H25 H 0.2333 0.7007 0.1348
H26 H 0.2469 0.6898 0.2253
C24 C 0.2400(2) 0.90089(17) 0.22097(15)
C25 C 0.2713(2) 0.83090(16) 0.24886(15)
C26 C 0.3677(2) 0.85388(18) 0.32235(16)
C27 C 0.4344(2) 0.94334(19) 0.36416(16)
H27 H 0.4991 0.9584 0.4141
C28 C 0.4081(2) 1.01171(18) 0.33418(16)
H28 H 0.4564 1.0724 0.3622
C29 C 0.3115(2) 0.99119(17) 0.26346(16)
C30 C 0.3689(3) 1.1322(2) 0.2506(2)
H29 H 0.3780 1.1756 0.3154
H30 H 0.3386 1.1673 0.2169
H31 H 0.4520 1.1081 0.2346
C31 C 0.4689(2) 0.71162(19) 0.30982(16)
C32 C 0.5079(2) 0.65063(19) 0.35609(17)
C33 C 0.5772(2) 0.6876(2) 0.44116(17)
C34 C 0.6183(3) 0.6294(2) 0.47990(18)
C35 C 0.5892(3) 0.5321(2) 0.4331(2)
C36 C 0.5209(3) 0.4927(2) 0.3488(2)
C37 C 0.4823(3) 0.5513(2) 0.31088(18)
F1 F 0.60811(14) 0.78304(11) 0.48850(10)
F2 F 0.68536(18) 0.66842(14) 0.56327(11)
F3 F 0.6284(2) 0.47560(14) 0.47062(14)
F4 F 0.4910(2) 0.39662(14) 0.30391(15)
F5 F 0.41315(17) 0.50996(13) 0.22778(11)
N1 N -0.24250(19) 1.09479(14) 0.36326(13)
H32 H -0.213(2) 1.0820(18) 0.3142(11)
N2 N -0.18555(17) 0.84494(13) 0.18382(12)
N3 N -0.10817(17) 0.74275(13) 0.25013(12)
N4 N 0.01194(17) 0.84619(13) 0.15042(12)
N5 N 0.07125(17) 0.71816(13) 0.18858(12)
N6 N 0.40047(19) 0.78536(15) 0.35513(13)
H33 H 0.386(2) 0.8008(18) 0.4078(9)
O1 O -0.35084(17) 1.20320(12) 0.46825(12)
O2 O -0.12232(16) 0.83462(12) 0.49911(10)
O3 O -0.08362(15) 0.99030(11) 0.21077(10)
O4 O 0.07552(15) 0.72350(11) 0.32852(11)
O5 O -0.35024(16) 0.68614(12) 0.07252(11)
O6 O -0.21880(17) 0.58682(12) 0.09720(14)
O7 O 0.0799(2) 0.6408(2) 0.00448(14)
O8 O -0.11675(17) 0.67999(12) -0.01779(11)
O9 O 0.27912(17) 1.05324(12) 0.22879(12)
O10 O 0.49949(16) 0.69207(14) 0.23633(12)
C38 C 0.5688(3) 0.8409(2) 0.01470(18)
H34 H 0.6294 0.8048 0.0366
Cl1 Cl 0.64878(8) 0.95009(6) 0.03769(6)
Cl2 Cl 0.43750(8) 0.86025(8) 0.07191(6)
Cl3 Cl 0.52262(11) 0.77031(7) -0.10128(5)
C39 C 0.9810(3) 0.1479(2) 0.1483(2)
H35 H 0.9695 0.0906 0.1594
Cl4 Cl 1.04402(10) 0.24719(7) 0.25060(5)
Cl5 Cl 0.83132(9) 0.17074(8) 0.10651(7)
Cl6 Cl 1.08695(9) 0.12239(6) 0.06943(6)
C40 C 1.0140(3) 0.5746(3) 0.3900(2)
H36 H 1.0347 0.6338 0.3836
Cl7 Cl 0.89046(11) 0.50548(10) 0.30485(9)
Cl8 Cl 1.15150(9) 0.51073(9) 0.37948(7)
Cl9 Cl 0.96613(12) 0.61027(8) 0.49499(7)
C41? C -0.2989(9) 0.4976(5) 0.0351(6)
C42? C -0.3797(9) 0.4768(7) 0.0934(6)
H37? H -0.2450 0.4439 0.0059
H38? H -0.3536 0.5070 -0.0121
H39? H -0.3241 0.4641 0.1375
H40? H -0.4395 0.4202 0.0556
H41? H -0.4278 0.5326 0.1250
loop_
_geom_bond_atom_site_label_1
_geom_bond_atom_site_label_2
_geom_bond_site_symmetry_1
_geom_bond_site_symmetry_2
C1 H1 1_555 1_555
H2 C1 1_555 1_555
H3 C1 1_555 1_555
C2 C1 1_555 1_555
C3 C4 1_555 1_555
C4 H4 1_555 1_555
C5 C4 1_555 1_555
H5 C5 1_555 1_555
C6 C5 1_555 1_555
C7 C6 1_555 1_555
C8 C3 1_555 1_555
C9 H6 1_555 1_555
H7 C9 1_555 1_555
H8 C9 1_555 1_555
C10 C8 1_555 1_555
H9 C10 1_555 1_555
H10 C10 1_555 1_555
C11 C7 1_555 1_555
H11 C11 1_555 1_555
H12 C11 1_555 1_555
C12 N2 1_555 1_555
C13 N3 1_555 1_555
C14 C15 1_555 1_555
C15 O5 1_555 1_555
C16 H13 1_555 1_555
H14 C16 1_555 1_555
C17 C16 1_555 1_555
H15 C17 1_555 1_555
H16 C17 1_555 1_555
H17 C17 1_555 1_555
C18 C14 1_555 1_555
C19 C18 1_555 1_555
C20 H18 1_555 1_555
H19 C20 1_555 1_555
C21 C20 1_555 1_555
H20 C21 1_555 1_555
H21 C21 1_555 1_555
H22 C21 1_555 1_555
C22 H23 1_555 1_555
H24 C22 1_555 1_555
C23 H25 1_555 1_555
H26 C23 1_555 1_555
C24 C22 1_555 1_555
C25 C23 1_555 1_555
C26 C25 1_555 1_555
C27 C26 1_555 1_555
H27 C27 1_555 1_555
C28 C27 1_555 1_555
H28 C28 1_555 1_555
C29 C24 1_555 1_555
C30 H29 1_555 1_555
H30 C30 1_555 1_555
H31 C30 1_555 1_555
C31 C32 1_555 1_555
C32 C33 1_555 1_555
C33 C34 1_555 1_555
C34 C35 1_555 1_555
C35 C36 1_555 1_555
C36 C37 1_555 1_555
C37 C32 1_555 1_555
F1 C33 1_555 1_555
F2 C34 1_555 1_555
F3 C35 1_555 1_555
F4 C36 1_555 1_555
F5 C37 1_555 1_555
N1 C2 1_555 1_555
H32 N1 1_555 1_555
N2 C10 1_555 1_555
N3 C11 1_555 1_555
N4 C12 1_555 1_555
N5 C13 1_555 1_555
N6 C26 1_555 1_555
H33 N6 1_555 1_555
O1 C2 1_555 1_555
O2 C6 1_555 1_555
O3 C12 1_555 1_555
O4 C13 1_555 1_555
O6 C15 1_555 1_555
O7 C19 1_555 1_555
O8 C19 1_555 1_555
O9 C29 1_555 1_555
O10 C31 1_555 1_555
C38 H34 1_555 1_555
Cl1 C38 1_555 1_555
Cl2 C38 1_555 1_555
Cl3 C38 1_555 1_555
C39 H35 1_555 1_555
Cl4 C39 1_555 1_555
Cl5 C39 1_555 1_555
Cl6 C39 1_555 1_555
C40 H36 1_555 1_555
Cl7 C40 1_555 1_555
Cl8 C40 1_555 1_555
Cl9 C40 1_555 1_555
C3 N1 1_555 1_555
C7 C8 1_555 1_555
C9 O2 1_555 1_555
C14 N2 1_555 1_555
C14 N3 1_555 1_555
C16 O6 1_555 1_555
C18 N4 1_555 1_555
C18 N5 1_555 1_555
C20 O8 1_555 1_555
C22 N4 1_555 1_555
C23 N5 1_555 1_555
C24 C25 1_555 1_555
C28 C29 1_555 1_555
C30 O9 1_555 1_555
C31 N6 1_555 1_555

#END
