
#######################################################################
#
#                 Cambridge Crystallographic Data Centre
#                                CCDC 
#
#######################################################################
#
# If this CIF has been generated from an entry in the Cambridge 
# Structural Database, then it will include bibliographic, chemical, 
# crystal, experimental, refinement or atomic coordinate data resulting 
# from the CCDC's data processing and validation procedures.
#
#######################################################################

data_UYEXAZ
_chemical_formula_moiety         'C24 H17 N1 O1'
_chemical_name_systematic        
10b-methyl-11-(phenylethynyl)-10b,11-dihydro-6H-isoindolo[2,1-a]indol-6-one
_symmetry_cell_setting           orthorhombic
_symmetry_space_group_name_H-M   'P n a 21'
_symmetry_Int_Tables_number      33
_space_group_name_Hall           'P 2c -2n'
loop_
_symmetry_equiv_pos_site_id
_symmetry_equiv_pos_as_xyz
1 x,y,z
2 -x,-y,1/2+z
3 1/2-x,1/2+y,1/2+z
4 1/2+x,1/2-y,z
_cell_length_a                   15.3015(18)
_cell_length_b                   12.1976(10)
_cell_length_c                   9.6252(8)
_cell_angle_alpha                90
_cell_angle_beta                 90
_cell_angle_gamma                90
_cell_volume                     1796.46
_exptl_crystal_colour            yellow
_exptl_crystal_description       plate
_cell_formula_units_Z            4
loop_
_atom_site_label
_atom_site_type_symbol
_atom_site_fract_x
_atom_site_fract_y
_atom_site_fract_z
O1 O 0.84930(15) 0.81249(17) 0.5899(2)
N1 N 0.89893(14) 0.86721(17) 0.3737(2)
C1 C 0.71028(18) 0.9949(2) 0.5398(3)
H1 H 0.6961 0.9599 0.6226
C2 C 0.6639(2) 1.0852(3) 0.4952(3)
H2 H 0.6180 1.1117 0.5488
C3 C 0.6849(2) 1.1368(3) 0.3715(3)
H3 H 0.6530 1.1977 0.3432
C4 C 0.75225(19) 1.0994(2) 0.2901(3)
H4 H 0.7658 1.1343 0.2069
C5 C 0.79984(18) 1.0087(2) 0.3337(3)
C6 C 0.77865(17) 0.9577(2) 0.4579(3)
C7 C 0.84310(18) 0.8700(2) 0.4868(3)
C8 C 0.87545(19) 0.9505(2) 0.2665(3)
C9 C 0.96284(18) 1.0158(2) 0.2449(3)
H5 H 0.9734 1.0259 0.1453
C10 C 1.03114(18) 0.9378(2) 0.3046(3)
C11 C 0.99075(17) 0.8555(2) 0.3806(3)
C12 C 1.0387(2) 0.7783(2) 0.4539(3)
H6 H 1.0114 0.7240 0.5060
C13 C 1.1292(2) 0.7854(2) 0.4462(4)
H7 H 1.1632 0.7351 0.4945
C14 C 1.1692(2) 0.8649(3) 0.3689(4)
H8 H 1.2299 0.8667 0.3637
C15 C 1.1205(2) 0.9432(2) 0.2982(3)
H9 H 1.1480 0.9981 0.2474
C16 C 0.8494(2) 0.8924(2) 0.1319(3)
H10 H 0.8017 0.8433 0.1500
H11 H 0.8984 0.8515 0.0971
H12 H 0.8319 0.9458 0.0642
C17 C 0.96286(17) 1.1226(2) 0.3142(3)
C18 C 0.95381(19) 1.2096(2) 0.3693(3)
C19 C 0.93833(17) 1.3153(2) 0.4308(3)
C20 C 0.9200(2) 1.3272(2) 0.5704(3)
H13 H 0.9191 1.2657 0.6275
C21 C 0.9032(2) 1.4285(3) 0.6261(4)
H14 H 0.8907 1.4352 0.7202
C22 C 0.9047(2) 1.5203(3) 0.5432(4)
H15 H 0.8931 1.5889 0.5812
C23 C 0.9233(2) 1.5105(2) 0.4048(3)
H16 H 0.9244 1.5725 0.3486
C24 C 0.9406(2) 1.4090(2) 0.3482(3)
H17 H 0.9538 1.4030 0.2542
loop_
_geom_bond_atom_site_label_1
_geom_bond_atom_site_label_2
_geom_bond_site_symmetry_1
_geom_bond_site_symmetry_2
O1 C7 1_555 1_555
N1 C7 1_555 1_555
C1 H1 1_555 1_555
C2 C1 1_555 1_555
H2 C2 1_555 1_555
C3 C2 1_555 1_555
H3 C3 1_555 1_555
C4 C3 1_555 1_555
H4 C4 1_555 1_555
C5 C4 1_555 1_555
C6 C1 1_555 1_555
C7 C6 1_555 1_555
C8 N1 1_555 1_555
C9 C8 1_555 1_555
H5 C9 1_555 1_555
C10 C9 1_555 1_555
C11 N1 1_555 1_555
C12 C11 1_555 1_555
H6 C12 1_555 1_555
C13 C12 1_555 1_555
H7 C13 1_555 1_555
C14 C13 1_555 1_555
H8 C14 1_555 1_555
C15 C10 1_555 1_555
H9 C15 1_555 1_555
C16 C8 1_555 1_555
H10 C16 1_555 1_555
H11 C16 1_555 1_555
H12 C16 1_555 1_555
C17 C9 1_555 1_555
C18 C17 1_555 1_555
C19 C18 1_555 1_555
C20 C19 1_555 1_555
H13 C20 1_555 1_555
C21 C20 1_555 1_555
H14 C21 1_555 1_555
C22 C21 1_555 1_555
H15 C22 1_555 1_555
C23 C22 1_555 1_555
H16 C23 1_555 1_555
C24 C19 1_555 1_555
H17 C24 1_555 1_555
C5 C6 1_555 1_555
C5 C8 1_555 1_555
C10 C11 1_555 1_555
C14 C15 1_555 1_555
C23 C24 1_555 1_555

#END
