
#######################################################################
#
#                 Cambridge Crystallographic Data Centre
#                                CCDC 
#
#######################################################################
#
# If this CIF has been generated from an entry in the Cambridge 
# Structural Database, then it will include bibliographic, chemical, 
# crystal, experimental, refinement or atomic coordinate data resulting 
# from the CCDC's data processing and validation procedures.
#
#######################################################################

data_UYEXED02
_chemical_formula_moiety         'C25 H38 N6 O7 S2,2(H2 O1)'
_chemical_name_systematic        
'12-acetamido-6,9-dimethyl-1-(((4-methylphenyl)sulfonyl)imino)-5,8,11-trioxo-1-thia-4,7,10-triazacycloheptadecane-3-carboxamide dihydrate'
_symmetry_cell_setting           monoclinic
_symmetry_space_group_name_H-M   'P 21/c'
_symmetry_Int_Tables_number      14
_space_group_name_Hall           '-P 2ybc'
loop_
_symmetry_equiv_pos_site_id
_symmetry_equiv_pos_as_xyz
1 x,y,z
2 -x,1/2+y,1/2-z
3 -x,-y,-z
4 x,1/2-y,1/2+z
_cell_length_a                   16.529(4)
_cell_length_b                   9.1486(18)
_cell_length_c                   21.563(5)
_cell_angle_alpha                90
_cell_angle_beta                 110.685(8)
_cell_angle_gamma                90
_cell_volume                     3050.5
_exptl_crystal_colour            colorless
_exptl_crystal_description       prism
_cell_formula_units_Z            4
loop_
_atom_site_label
_atom_site_type_symbol
_atom_site_fract_x
_atom_site_fract_y
_atom_site_fract_z
S1 S 0.85340(7) 0.27751(15) 0.89761(5)
S2 S 0.72168(8) 0.12164(15) 0.81239(6)
O1 O 0.6099(2) 0.6160(5) 0.93300(18)
O2 O 0.8141(2) 0.3888(4) 1.14621(17)
O3 O 0.6836(2) 0.0940(4) 0.86255(17)
O4 O 0.8510(2) 0.5216(4) 1.00039(16)
O5 O 0.7058(2) 0.0483(4) 1.03862(17)
O6 O 0.9419(2) -0.0689(4) 1.06459(17)
O7 O 0.7084(2) 0.0132(4) 0.76157(17)
N1 N 0.7870(3) 0.2251(5) 1.01521(19)
N2 N 0.9130(3) 0.1097(5) 1.1279(2)
N3 N 0.7020(3) 0.4437(5) 1.0518(2)
N4 N 0.7844(3) 0.6990(5) 1.03823(19)
N5 N 0.8246(3) 0.1417(5) 0.8448(2)
N6 N 0.6939(3) 0.7944(5) 0.9127(2)
C1 C 0.9048(3) 0.0435(6) 1.0700(2)
C2 C 0.7750(3) 0.4774(6) 1.1019(2)
C3 C 0.6633(3) 0.2982(6) 1.0457(3)
C4 C 0.6777(3) 0.2886(6) 0.7749(2)
C5 C 0.6935(3) 0.3339(7) 0.7188(2)
C6 C 0.8048(3) 0.6337(6) 0.9898(2)
C7 C 0.8331(3) 0.7726(6) 0.8969(3)
C8 C 0.8602(3) 0.5734(6) 0.8239(2)
C9 C 0.6622(3) 0.4702(6) 0.6898(2)
C10 C 0.9095(3) 0.1953(6) 0.9776(2)
C11 C 0.8114(3) 0.6316(6) 1.1044(2)
C12 C 0.7206(3) 0.1805(7) 1.0328(2)
C13 C 0.9467(3) 0.3479(7) 0.8821(3)
C14 C 0.7653(3) 0.6955(6) 0.9197(2)
C15 C 0.5473(4) 0.8550(7) 0.9012(3)
C16 C 0.8473(3) 0.1215(6) 1.0062(2)
C17 C 0.6302(3) 0.3781(7) 0.8022(3)
C18 C 0.8990(3) 0.6715(6) 0.8850(2)
C19 C 0.9195(3) 0.4467(6) 0.8207(2)
C20 C 0.5749(3) 0.2965(7) 0.9897(2)
C21 C 0.5988(3) 0.5108(7) 0.7736(3)
C22 C 0.6182(3) 0.7450(7) 0.9171(3)
C23 C 0.6145(3) 0.5570(7) 0.7166(3)
C24 C 0.5780(4) 0.7018(7) 0.6853(3)
C25 C 0.7836(4) 0.7290(7) 1.1503(3)
H1 H 0.749(2) 0.799(3) 1.031(3)
H2 H 0.6546 0.2746 1.0882
H3 H 0.7255 0.2731 0.7001
H4 H 0.8643 0.8454 0.9309
H5 H 0.8025 0.8264 0.8554
H6 H 0.8048 0.5327 0.8241
H7 H 0.8475 0.6339 0.7835
H8 H 0.6737 0.5023 0.6518
H9 H 0.9428 0.2716 1.0088
H10 H 0.9511 0.1218 0.9731
H11 H 0.8760 0.6252 1.1221
H12 H 0.9815 0.2653 0.8755
H13 H 0.9832 0.4042 0.9212
H14 H 0.7418 0.6113 0.8891
H15 H 0.5677 0.9484 0.8901
H16 H 0.5296 0.8681 0.9398
H17 H 0.4978 0.8209 0.8634
H18 H 0.8138 0.0455 0.9740
H19 H 0.625(3) 0.351(5) 0.846(2)
H20 H 0.9458 0.7311 0.8793
H21 H 0.9249 0.6089 0.9246
H22 H 0.9721 0.4874 0.8152
H23 H 0.8893 0.3866 0.7810
H24 H 0.5496 0.1985 0.9860
H25 H 0.5819 0.3223 0.9477
H26 H 0.5366 0.3675 0.9993
H27 H 0.563(3) 0.580(5) 0.790(2)
H28 H 0.5463 0.7479 0.7109
H29 H 0.5387 0.6856 0.6397
H30 H 0.6254 0.7659 0.6851
H31 H 0.794(3) 0.3388(18) 1.009(3)
H32 H 0.8015 0.6846 1.1944
H33 H 0.7206 0.7401 1.1326
H34 H 0.8109 0.8252 1.1533
H35 H 0.669(3) 0.517(6) 1.016(2)
H36 H 0.880(2) 0.200(3) 1.131(2)
H37 H 0.953(3) 0.072(7) 1.1718(19)
H38 H 0.698(5) 0.902(3) 0.903(2)
O8 O 0.5767(11) 0.0304(20) 0.6260(9)
O9 O 0.9346(3) 0.0251(5) 0.77336(19)
loop_
_geom_bond_atom_site_label_1
_geom_bond_atom_site_label_2
_geom_bond_site_symmetry_1
_geom_bond_site_symmetry_2
S1 N5 1_555 1_555
S2 O3 1_555 1_555
O1 C22 1_555 1_555
O2 C2 1_555 1_555
O4 C6 1_555 1_555
O5 C12 1_555 1_555
O6 C1 1_555 1_555
O7 S2 1_555 1_555
N1 C12 1_555 1_555
N2 C1 1_555 1_555
N3 C2 1_555 1_555
N4 C6 1_555 1_555
N5 S2 1_555 1_555
N6 C14 1_555 1_555
C1 C16 1_555 1_555
C2 C11 1_555 1_555
C3 N3 1_555 1_555
C4 S2 1_555 1_555
C5 C4 1_555 1_555
C6 C14 1_555 1_555
C7 C14 1_555 1_555
C8 C18 1_555 1_555
C9 C5 1_555 1_555
C10 S1 1_555 1_555
C11 N4 1_555 1_555
C12 C3 1_555 1_555
C13 S1 1_555 1_555
C14 H14 1_555 1_555
C15 C22 1_555 1_555
C16 N1 1_555 1_555
C17 C4 1_555 1_555
C18 C7 1_555 1_555
C19 C8 1_555 1_555
C20 C3 1_555 1_555
C21 C17 1_555 1_555
C22 N6 1_555 1_555
C23 C9 1_555 1_555
C24 C23 1_555 1_555
C25 C11 1_555 1_555
H1 N4 1_555 1_555
H2 C3 1_555 1_555
H3 C5 1_555 1_555
H4 C7 1_555 1_555
H5 C7 1_555 1_555
H6 C8 1_555 1_555
H7 C8 1_555 1_555
H8 C9 1_555 1_555
H9 C10 1_555 1_555
H10 C10 1_555 1_555
H11 C11 1_555 1_555
H12 C13 1_555 1_555
H13 C13 1_555 1_555
H15 C15 1_555 1_555
H16 C15 1_555 1_555
H17 C15 1_555 1_555
H18 C16 1_555 1_555
H19 C17 1_555 1_555
H20 C18 1_555 1_555
H21 C18 1_555 1_555
H22 C19 1_555 1_555
H23 C19 1_555 1_555
H24 C20 1_555 1_555
H25 C20 1_555 1_555
H26 C20 1_555 1_555
H27 C21 1_555 1_555
H28 C24 1_555 1_555
H29 C24 1_555 1_555
H30 C24 1_555 1_555
H31 N1 1_555 1_555
H32 C25 1_555 1_555
H33 C25 1_555 1_555
H34 C25 1_555 1_555
H35 N3 1_555 1_555
H36 N2 1_555 1_555
H37 N2 1_555 1_555
H38 N6 1_555 1_555
C10 C16 1_555 1_555
C13 C19 1_555 1_555
C21 C23 1_555 1_555

#END
