
#######################################################################
#
#                 Cambridge Crystallographic Data Centre
#                                CCDC 
#
#######################################################################
#
# If this CIF has been generated from an entry in the Cambridge 
# Structural Database, then it will include bibliographic, chemical, 
# crystal, experimental, refinement or atomic coordinate data resulting 
# from the CCDC's data processing and validation procedures.
#
#######################################################################

data_UYILOE
_chemical_formula_moiety         'C26 H23 F2 N1 O2 S1'
_chemical_name_systematic        
5-(2,2-bis(4-fluorophenyl)vinyl)-1-((4-methylphenyl)sulfonyl)-1,2,3,4-tetrahydropyridine
_symmetry_cell_setting           triclinic
_symmetry_space_group_name_H-M   'P -1'
_symmetry_Int_Tables_number      2
_space_group_name_Hall           '-P 1'
loop_
_symmetry_equiv_pos_site_id
_symmetry_equiv_pos_as_xyz
1 x,y,z
2 -x,-y,-z
_cell_length_a                   9.9560(7)
_cell_length_b                   9.9819(7)
_cell_length_c                   11.1142(8)
_cell_angle_alpha                93.6990(10)
_cell_angle_beta                 95.2750(10)
_cell_angle_gamma                92.5920(10)
_cell_volume                     1096.1
_exptl_crystal_colour            colorless
_cell_formula_units_Z            2
loop_
_atom_site_label
_atom_site_type_symbol
_atom_site_fract_x
_atom_site_fract_y
_atom_site_fract_z
C1 C 0.16773(15) 0.69911(16) 0.48142(13)
H1 H 0.0843 0.6503 0.4856
C2 C 0.16560(15) 0.81539(16) 0.42564(13)
C3 C 0.29512(15) 0.89789(16) 0.41771(15)
H2 H 0.3009 0.9758 0.4781
H3 H 0.2947 0.9326 0.3362
C4 C 0.41817(15) 0.81391(17) 0.44103(15)
H4 H 0.4248 0.7507 0.3697
H5 H 0.5009 0.8740 0.4517
C5 C 0.41017(15) 0.73479(16) 0.55297(14)
H6 H 0.4905 0.6805 0.5652
H7 H 0.4070 0.7969 0.6257
C6 C 0.03293(15) 0.84715(16) 0.37152(13)
H8 H -0.0386 0.7902 0.3935
C7 C -0.00863(15) 0.94103(15) 0.29662(13)
C8 C -0.15293(15) 0.93663(15) 0.24654(13)
C9 C -0.23249(16) 0.81607(16) 0.23556(14)
H9 H -0.1922 0.7355 0.2574
C10 C -0.36831(16) 0.81111(17) 0.19375(14)
H10 H -0.4213 0.7290 0.1884
C11 C -0.42444(16) 0.92813(18) 0.16027(14)
C12 C -0.35060(17) 1.04859(17) 0.16536(15)
H11 H -0.3914 1.1275 0.1399
C13 C -0.21463(16) 1.05204(16) 0.20881(14)
H12 H -0.1626 1.1346 0.2129
C14 C 0.08122(15) 1.05021(15) 0.25576(13)
C15 C 0.11644(16) 1.04243(16) 0.13681(14)
H13 H 0.0825 0.9683 0.0831
C16 C 0.20016(16) 1.14103(17) 0.09571(15)
H14 H 0.2248 1.1349 0.0151
C17 C 0.24634(16) 1.24802(17) 0.17541(16)
C18 C 0.21349(16) 1.26145(16) 0.29272(15)
H15 H 0.2468 1.3370 0.3451
C19 C 0.12982(16) 1.16111(16) 0.33278(14)
H16 H 0.1056 1.1684 0.4136
C20 C 0.24438(15) 0.55550(15) 0.75598(14)
C21 C 0.35271(16) 0.57296(17) 0.84485(15)
H17 H 0.4422 0.5605 0.8247
C22 C 0.32854(18) 0.60870(17) 0.96307(15)
H18 H 0.4023 0.6204 1.0240
C23 C 0.19753(19) 0.62795(17) 0.99447(15)
C24 C 0.09116(18) 0.61016(17) 0.90382(16)
H19 H 0.0017 0.6228 0.9239
C25 C 0.11275(16) 0.57437(16) 0.78472(15)
H20 H 0.0391 0.5629 0.7237
C26 C 0.1745(2) 0.6657(2) 1.12440(17)
H21 H 0.0786 0.6807 1.1298
H22 H 0.2284 0.7482 1.1528
H23 H 0.2016 0.5928 1.1749
F1 F -0.55794(10) 0.92425(11) 0.11920(10)
F2 F 0.32748(11) 1.34649(11) 0.13506(10)
N1 N 0.28609(13) 0.64618(14) 0.53360(12)
O1 O 0.15830(12) 0.43179(12) 0.54937(10)
O2 O 0.40535(12) 0.45291(12) 0.61064(11)
S1 S 0.27532(4) 0.50879(4) 0.60597(3)
loop_
_geom_bond_atom_site_label_1
_geom_bond_atom_site_label_2
_geom_bond_site_symmetry_1
_geom_bond_site_symmetry_2
C1 H1 1_555 1_555
C2 C1 1_555 1_555
C3 C2 1_555 1_555
H2 C3 1_555 1_555
H3 C3 1_555 1_555
C4 C3 1_555 1_555
H4 C4 1_555 1_555
H5 C4 1_555 1_555
C5 C4 1_555 1_555
H6 C5 1_555 1_555
H7 C5 1_555 1_555
C6 C2 1_555 1_555
H8 C6 1_555 1_555
C7 C6 1_555 1_555
C8 C7 1_555 1_555
C9 C8 1_555 1_555
H9 C9 1_555 1_555
C10 C9 1_555 1_555
H10 C10 1_555 1_555
C11 C10 1_555 1_555
C12 C11 1_555 1_555
H11 C12 1_555 1_555
C13 C8 1_555 1_555
H12 C13 1_555 1_555
C14 C7 1_555 1_555
C15 C14 1_555 1_555
H13 C15 1_555 1_555
C16 C15 1_555 1_555
H14 C16 1_555 1_555
C17 C16 1_555 1_555
C18 C17 1_555 1_555
H15 C18 1_555 1_555
C19 C14 1_555 1_555
H16 C19 1_555 1_555
C20 C21 1_555 1_555
C21 H17 1_555 1_555
C22 C21 1_555 1_555
H18 C22 1_555 1_555
C23 C22 1_555 1_555
C24 C23 1_555 1_555
H19 C24 1_555 1_555
C25 C20 1_555 1_555
H20 C25 1_555 1_555
C26 C23 1_555 1_555
H21 C26 1_555 1_555
H22 C26 1_555 1_555
H23 C26 1_555 1_555
F1 C11 1_555 1_555
F2 C17 1_555 1_555
N1 C1 1_555 1_555
O1 S1 1_555 1_555
O2 S1 1_555 1_555
S1 C20 1_555 1_555
C5 N1 1_555 1_555
C12 C13 1_555 1_555
C18 C19 1_555 1_555
C24 C25 1_555 1_555
N1 S1 1_555 1_555

#END
