
#######################################################################
#
#                 Cambridge Crystallographic Data Centre
#                                CCDC 
#
#######################################################################
#
# If this CIF has been generated from an entry in the Cambridge 
# Structural Database, then it will include bibliographic, chemical, 
# crystal, experimental, refinement or atomic coordinate data resulting 
# from the CCDC's data processing and validation procedures.
#
#######################################################################

data_UYIMOF
_chemical_formula_moiety         'C17 H19 N1 O4'
_chemical_name_systematic        
'Ethyl 4-acetyl-5-ethoxy-2-phenyl-1H-pyrrole-3-carboxylate'
_symmetry_cell_setting           monoclinic
_symmetry_space_group_name_H-M   'P 21'
_symmetry_Int_Tables_number      4
_space_group_name_Hall           'P 2yb'
loop_
_symmetry_equiv_pos_site_id
_symmetry_equiv_pos_as_xyz
1 x,y,z
2 -x,1/2+y,-z
_cell_length_a                   8.5226(3)
_cell_length_b                   14.9158(5)
_cell_length_c                   12.6267(4)
_cell_angle_alpha                90
_cell_angle_beta                 97.697(2)
_cell_angle_gamma                90
_cell_volume                     1590.66
_exptl_crystal_colour            colorless
_exptl_crystal_description       plate
_cell_formula_units_Z            4
loop_
_atom_site_label
_atom_site_type_symbol
_atom_site_fract_x
_atom_site_fract_y
_atom_site_fract_z
C1 C 0.3704(5) 0.3708(3) 0.7087(3)
H1 H 0.3160 0.3458 0.7625
C2 C 0.4456(5) 0.4525(3) 0.7257(3)
H2 H 0.4421 0.4835 0.7911
C3 C 0.5262(5) 0.4897(3) 0.6477(3)
H3 H 0.5794 0.5454 0.6602
C4 C 0.5287(5) 0.4453(3) 0.5523(3)
H4 H 0.5813 0.4713 0.4981
C5 C 0.4545(5) 0.3625(3) 0.5350(3)
H5 H 0.4588 0.3317 0.4696
C6 C 0.3739(4) 0.3247(3) 0.6130(3)
C7 C 0.2940(4) 0.2385(3) 0.5932(3)
C8 C 0.2219(4) 0.1985(3) 0.5010(3)
C9 C 0.1996(4) 0.2420(3) 0.3932(3)
C10 C 0.2467(5) 0.2272(3) 0.2133(3)
H6 H 0.2983 0.2858 0.2051
H7 H 0.1314 0.2340 0.1914
C11 C 0.3129(5) 0.1575(3) 0.1458(3)
H8 H 0.4240 0.1462 0.1737
H9 H 0.3055 0.1789 0.0719
H10 H 0.2522 0.1018 0.1477
C12 C 0.1636(4) 0.1123(3) 0.5269(3)
C13 C 0.0616(4) 0.0562(3) 0.4539(3)
C14 C 0.0104(6) -0.0361(3) 0.4865(3)
H11 H -0.0765 -0.0577 0.4341
H12 H -0.0252 -0.0326 0.5571
H13 H 0.1000 -0.0776 0.4895
C15 C 0.2063(4) 0.1028(3) 0.6371(3)
C16 C 0.1811(6) 0.0440(3) 0.8107(3)
H14 H 0.1121 0.0948 0.8248
H15 H 0.2904 0.0579 0.8438
C17 C 0.1260(7) -0.0386(4) 0.8588(4)
H16 H 0.0216 -0.0552 0.8218
H17 H 0.1186 -0.0280 0.9346
H18 H 0.2012 -0.0872 0.8520
N1 N 0.2826(4) 0.1776(2) 0.6765(2)
H37 H 0.338(5) 0.187(4) 0.738(2)
O1 O 0.1244(4) 0.3083(2) 0.3701(2)
O2 O 0.2778(3) 0.19709(19) 0.32394(19)
O3 O 0.0169(3) 0.0832(2) 0.3624(2)
O4 O 0.1779(4) 0.03279(19) 0.6971(2)
C18 C -0.0459(5) 0.4283(3) 0.8165(3)
H19 H -0.0766 0.4813 0.7773
C19 C -0.1278(5) 0.3505(4) 0.7913(3)
H20 H -0.2138 0.3501 0.7351
C20 C -0.0859(5) 0.2720(3) 0.8476(3)
H21 H -0.1406 0.2175 0.8294
C21 C 0.0375(5) 0.2753(3) 0.9308(3)
H22 H 0.0649 0.2226 0.9715
C22 C 0.1215(5) 0.3531(3) 0.9559(3)
H23 H 0.2067 0.3532 1.0128
C23 C 0.0825(4) 0.4318(3) 0.8988(3)
C24 C 0.1708(4) 0.5166(3) 0.9215(3)
C25 C 0.2650(4) 0.5510(3) 1.0102(3)
C26 C 0.3069(4) 0.5094(3) 1.1176(3)
C27 C 0.3134(6) 0.5330(3) 1.3039(3)
H24 H 0.4288 0.5215 1.3116
H25 H 0.2596 0.4779 1.3236
C28 C 0.2779(7) 0.6102(4) 1.3747(3)
H26 H 0.3318 0.6643 1.3543
H27 H 0.3155 0.5954 1.4494
H28 H 0.1634 0.6208 1.3662
C29 C 0.3123(4) 0.6405(3) 0.9851(3)
C30 C 0.4220(4) 0.6986(3) 1.0515(3)
C31 C 0.4345(6) 0.7946(3) 1.0215(3)
H29 H 0.5048 0.8259 1.0773
H30 H 0.3293 0.8223 1.0139
H31 H 0.4778 0.7989 0.9536
C32 C 0.2449(4) 0.6552(3) 0.8799(3)
C33 C 0.2530(5) 0.7199(3) 0.7070(3)
H32 H 0.1441 0.7034 0.6756
H33 H 0.3256 0.6718 0.6900
C34 C 0.2977(7) 0.8044(4) 0.6618(4)
H34 H 0.2238 0.8515 0.6773
H35 H 0.2942 0.7981 0.5843
H36 H 0.4052 0.8206 0.6935
N2 N 0.1612(4) 0.5828(2) 0.8428(2)
H38 H 0.115(5) 0.577(3) 0.7781(19)
O5 O 0.3788(4) 0.4403(2) 1.1354(2)
O6 O 0.2550(3) 0.5589(2) 1.19422(19)
O7 O 0.5035(3) 0.6682(2) 1.1317(2)
O8 O 0.2609(4) 0.7292(2) 0.8217(2)
loop_
_geom_bond_atom_site_label_1
_geom_bond_atom_site_label_2
_geom_bond_site_symmetry_1
_geom_bond_site_symmetry_2
C1 H1 1_555 1_555
C2 C1 1_555 1_555
H2 C2 1_555 1_555
C3 C2 1_555 1_555
H3 C3 1_555 1_555
C4 C3 1_555 1_555
H4 C4 1_555 1_555
C5 C4 1_555 1_555
H5 C5 1_555 1_555
C6 C1 1_555 1_555
C7 C6 1_555 1_555
C8 C7 1_555 1_555
C9 C8 1_555 1_555
C10 H6 1_555 1_555
H7 C10 1_555 1_555
C11 C10 1_555 1_555
H8 C11 1_555 1_555
H9 C11 1_555 1_555
H10 C11 1_555 1_555
C12 C8 1_555 1_555
C13 C12 1_555 1_555
C14 C13 1_555 1_555
H11 C14 1_555 1_555
H12 C14 1_555 1_555
H13 C14 1_555 1_555
C15 C12 1_555 1_555
C16 H14 1_555 1_555
H15 C16 1_555 1_555
C17 C16 1_555 1_555
H16 C17 1_555 1_555
H17 C17 1_555 1_555
H18 C17 1_555 1_555
C18 H19 1_555 1_555
C19 C18 1_555 1_555
H20 C19 1_555 1_555
C20 C19 1_555 1_555
H21 C20 1_555 1_555
C21 C20 1_555 1_555
H22 C21 1_555 1_555
C22 C21 1_555 1_555
H23 C22 1_555 1_555
C23 C18 1_555 1_555
C24 C23 1_555 1_555
C25 C24 1_555 1_555
C26 C25 1_555 1_555
C27 H24 1_555 1_555
H25 C27 1_555 1_555
C28 C27 1_555 1_555
H26 C28 1_555 1_555
H27 C28 1_555 1_555
H28 C28 1_555 1_555
C29 C25 1_555 1_555
C30 C29 1_555 1_555
C31 C30 1_555 1_555
H29 C31 1_555 1_555
H30 C31 1_555 1_555
H31 C31 1_555 1_555
C32 C29 1_555 1_555
C33 H32 1_555 1_555
H33 C33 1_555 1_555
C34 C33 1_555 1_555
H34 C34 1_555 1_555
H35 C34 1_555 1_555
H36 C34 1_555 1_555
N1 C7 1_555 1_555
H37 N1 1_555 1_555
N2 C24 1_555 1_555
H38 N2 1_555 1_555
O1 C9 1_555 1_555
O2 C9 1_555 1_555
O3 C13 1_555 1_555
O4 C15 1_555 1_555
O5 C26 1_555 1_555
O6 C26 1_555 1_555
O7 C30 1_555 1_555
O8 C32 1_555 1_555
C5 C6 1_555 1_555
C10 O2 1_555 1_555
C15 N1 1_555 1_555
C16 O4 1_555 1_555
C22 C23 1_555 1_555
C27 O6 1_555 1_555
C32 N2 1_555 1_555
C33 O8 1_555 1_555

#END
