
#######################################################################
#
#                 Cambridge Crystallographic Data Centre
#                                CCDC 
#
#######################################################################
#
# If this CIF has been generated from an entry in the Cambridge 
# Structural Database, then it will include bibliographic, chemical, 
# crystal, experimental, refinement or atomic coordinate data resulting 
# from the CCDC's data processing and validation procedures.
#
#######################################################################

data_UYIVAB
_chemical_formula_moiety         'C12 H4 N4 O2 S3'
_chemical_name_systematic        
"[1,2,5]thiadiazolo[3',4':5,6][1]benzothieno[2,3-f][2,1,3]benzothiadiazole 5,5-dioxide"
_symmetry_cell_setting           triclinic
_symmetry_space_group_name_H-M   'P -1'
_symmetry_Int_Tables_number      2
_space_group_name_Hall           '-P 1'
loop_
_symmetry_equiv_pos_site_id
_symmetry_equiv_pos_as_xyz
1 x,y,z
2 -x,-y,-z
_cell_length_a                   6.7778(7)
_cell_length_b                   9.6253(11)
_cell_length_c                   9.8490(10)
_cell_angle_alpha                91.812(9)
_cell_angle_beta                 109.511(8)
_cell_angle_gamma                93.899(9)
_cell_volume                     603.226
_exptl_crystal_colour            brown
_exptl_crystal_description       needle
_cell_formula_units_Z            2
loop_
_atom_site_label
_atom_site_type_symbol
_atom_site_fract_x
_atom_site_fract_y
_atom_site_fract_z
S1 S 0.33283(18) 0.75528(11) 0.65079(11)
C1 C 0.3290(7) 0.5722(4) 0.6658(4)
C2 C 0.3812(8) 0.5089(5) 0.7934(4)
H1 H 0.4217 0.5603 0.8838
C3 C 0.3710(7) 0.3616(5) 0.7823(4)
N1 N 0.4179(7) 0.2765(4) 0.8943(4)
S2 S 0.3831(2) 0.11955(12) 0.82398(13)
N2 N 0.3099(6) 0.1467(4) 0.6542(4)
C4 C 0.3098(7) 0.2867(4) 0.6449(5)
C5 C 0.2552(6) 0.3578(4) 0.5153(4)
H2 H 0.2131 0.3083 0.4238
C6 C 0.2654(7) 0.5000(4) 0.5271(4)
C7 C 0.2162(7) 0.5972(4) 0.4088(4)
C8 C 0.1530(8) 0.5626(5) 0.2640(5)
H3 H 0.1376 0.4684 0.2279
C9 C 0.1117(8) 0.6739(5) 0.1703(4)
N3 N 0.0475(8) 0.6605(4) 0.0240(4)
S3 S 0.0168(2) 0.81511(13) -0.03226(12)
N4 N 0.0818(6) 0.9068(4) 0.1182(4)
C10 C 0.1335(7) 0.8153(4) 0.2238(4)
C11 C 0.2019(7) 0.8509(4) 0.3740(4)
H4 H 0.2188 0.9446 0.4122
C12 C 0.2417(6) 0.7399(4) 0.4599(4)
O1 O 0.5435(5) 0.8184(4) 0.7052(4)
O2 O 0.1804(6) 0.8116(4) 0.7042(4)
loop_
_geom_bond_atom_site_label_1
_geom_bond_atom_site_label_2
_geom_bond_site_symmetry_1
_geom_bond_site_symmetry_2
S1 C1 1_555 1_555
C1 C2 1_555 1_555
C2 H1 1_555 1_555
C3 C2 1_555 1_555
N1 C3 1_555 1_555
S2 N1 1_555 1_555
N2 S2 1_555 1_555
C4 C3 1_555 1_555
C5 C4 1_555 1_555
H2 C5 1_555 1_555
C6 C1 1_555 1_555
C7 C6 1_555 1_555
C8 C7 1_555 1_555
H3 C8 1_555 1_555
C9 C8 1_555 1_555
N3 C9 1_555 1_555
S3 N3 1_555 1_555
N4 S3 1_555 1_555
C10 C9 1_555 1_555
C11 C10 1_555 1_555
H4 C11 1_555 1_555
C12 S1 1_555 1_555
O1 S1 1_555 1_555
O2 S1 1_555 1_555
N2 C4 1_555 1_555
C5 C6 1_555 1_555
C7 C12 1_555 1_555
N4 C10 1_555 1_555
C11 C12 1_555 1_555

#END
