
#######################################################################
#
#                 Cambridge Crystallographic Data Centre
#                                CCDC 
#
#######################################################################
#
# If this CIF has been generated from an entry in the Cambridge 
# Structural Database, then it will include bibliographic, chemical, 
# crystal, experimental, refinement or atomic coordinate data resulting 
# from the CCDC's data processing and validation procedures.
#
#######################################################################

data_UYIWOQ
_chemical_formula_moiety         'C66 H44 N4 O2'
_chemical_name_systematic        
2,3,6,7-tetrakis((diphenylmethylene)amino)-9,10-anthraquinone
_symmetry_cell_setting           monoclinic
_symmetry_space_group_name_H-M   'P 21/n'
_symmetry_Int_Tables_number      14
_space_group_name_Hall           '-P 2yn'
loop_
_symmetry_equiv_pos_site_id
_symmetry_equiv_pos_as_xyz
1 x,y,z
2 1/2-x,1/2+y,1/2-z
3 -x,-y,-z
4 1/2+x,1/2-y,1/2+z
_cell_length_a                   9.9809(7)
_cell_length_b                   15.5280(9)
_cell_length_c                   15.1288(11)
_cell_angle_alpha                90
_cell_angle_beta                 90.154(6)
_cell_angle_gamma                90
_cell_volume                     2344.7
_exptl_crystal_colour            'light brown'
_exptl_crystal_description       plate
_cell_formula_units_Z            2
_exptl_crystal_recrystallization_method dichloromethane
loop_
_atom_site_label
_atom_site_type_symbol
_atom_site_fract_x
_atom_site_fract_y
_atom_site_fract_z
C1 C 0.48722(19) 0.55678(11) 0.57806(11)
C2 C 0.41448(18) 0.57582(11) 0.49417(11)
C3 C 0.33566(19) 0.64922(11) 0.48870(12)
H1 H 0.3274 0.6854 0.5390
C4 C 0.26805(19) 0.67117(11) 0.41087(12)
C5 C 0.28214(18) 0.61720(11) 0.33671(11)
C6 C 0.36093(19) 0.54346(11) 0.34322(11)
H2 H 0.3689 0.5068 0.2932
C7 C 0.42807(18) 0.52196(11) 0.42048(11)
O1 O 0.47662(15) 0.60335(9) 0.64262(8)
N1 N 0.20426(16) 0.75231(10) 0.40776(10)
C8 C 0.07954(19) 0.76349(12) 0.39234(11)
C9 C -0.01889(19) 0.69197(12) 0.38201(13)
C10 C -0.0391(2) 0.63387(13) 0.45118(16)
H3 H 0.0113 0.6394 0.5042
C11 C -0.1317(3) 0.56858(15) 0.4428(2)
H4 H -0.1464 0.5298 0.4903
C12 C -0.2032(3) 0.55977(17) 0.3651(3)
H5 H -0.2669 0.5146 0.3595
C13 C -0.1833(2) 0.61539(18) 0.2957(2)
H6 H -0.2322 0.6081 0.2423
C14 C -0.0911(2) 0.68275(14) 0.30408(15)
H7 H -0.0779 0.7219 0.2567
C15 C 0.02882(19) 0.85404(12) 0.38833(11)
C16 C -0.1078(2) 0.87136(13) 0.38496(13)
H8 H -0.1699 0.8250 0.3827
C17 C -0.1547(2) 0.95556(13) 0.38484(13)
H9 H -0.2482 0.9665 0.3815
C18 C -0.0664(2) 1.02255(13) 0.38954(13)
H10 H -0.0986 1.0801 0.3912
C19 C 0.0704(2) 1.00643(13) 0.39188(12)
H11 H 0.1317 1.0532 0.3941
C20 C 0.1180(2) 0.92268(12) 0.39094(11)
H12 H 0.2117 0.9122 0.3921
N2 N 0.21085(15) 0.62789(10) 0.25691(10)
C21 C 0.23444(19) 0.68725(11) 0.20016(11)
C22 C 0.15391(19) 0.68487(11) 0.11696(11)
C23 C 0.0549(2) 0.62231(13) 0.10596(13)
H13 H 0.0367 0.5832 0.1527
C24 C -0.0169(2) 0.61657(15) 0.02811(14)
H14 H -0.0847 0.5740 0.0219
C25 C 0.0093(2) 0.67235(14) -0.04072(12)
H15 H -0.0394 0.6680 -0.0946
C26 C 0.1070(2) 0.73454(14) -0.03070(12)
H16 H 0.1247 0.7734 -0.0777
C27 C 0.1790(2) 0.74070(13) 0.04696(12)
H17 H 0.2465 0.7835 0.0527
C28 C 0.34170(19) 0.75397(12) 0.21033(11)
C29 C 0.4743(2) 0.72914(13) 0.21934(12)
H18 H 0.4965 0.6697 0.2218
C30 C 0.5749(2) 0.79071(15) 0.22475(14)
H19 H 0.6659 0.7734 0.2291
C31 C 0.5427(2) 0.87636(15) 0.22379(14)
H20 H 0.6118 0.9182 0.2281
C32 C 0.4111(2) 0.90261(13) 0.21659(13)
H21 H 0.3895 0.9622 0.2167
C33 C 0.3107(2) 0.84158(12) 0.20916(12)
H22 H 0.2201 0.8594 0.2032
C1B C 0.51278(19) 0.44322(11) 0.42194(11)
C2B C 0.58552(18) 0.42418(11) 0.50583(11)
C3B C 0.66434(19) 0.35078(11) 0.51130(12)
H1B H 0.6726 0.3146 0.4610
C4B C 0.73195(19) 0.32883(11) 0.58913(12)
C5B C 0.71786(18) 0.38280(11) 0.66329(11)
C6B C 0.63907(19) 0.45654(11) 0.65678(11)
H2B H 0.6311 0.4932 0.7068
C7B C 0.57193(18) 0.47804(11) 0.57952(11)
O1B O 0.52338(15) 0.39665(9) 0.35738(8)
N1B N 0.79574(16) 0.24769(10) 0.59224(10)
C8B C 0.92046(19) 0.23651(12) 0.60766(11)
C9B C 1.01889(19) 0.30803(12) 0.61799(13)
C10B C 1.0391(2) 0.36613(13) 0.54882(16)
H3B H 0.9887 0.3606 0.4958
C11B C 1.1317(3) 0.43142(15) 0.5572(2)
H4B H 1.1464 0.4702 0.5097
C12B C 1.2032(3) 0.44023(17) 0.6349(3)
H5B H 1.2669 0.4854 0.6405
C13B C 1.1833(2) 0.38461(18) 0.7043(2)
H6B H 1.2322 0.3919 0.7577
C14B C 1.0911(2) 0.31725(14) 0.69592(15)
H7B H 1.0779 0.2781 0.7433
C15B C 0.97118(19) 0.14596(12) 0.61167(11)
C16B C 1.1078(2) 0.12864(13) 0.61504(13)
H8B H 1.1699 0.1750 0.6173
C17B C 1.1547(2) 0.04444(13) 0.61516(13)
H9B H 1.2482 0.0335 0.6185
C18B C 1.0664(2) -0.02255(13) 0.61046(13)
H10B H 1.0986 -0.0801 0.6088
C19B C 0.9296(2) -0.00643(13) 0.60812(12)
H11B H 0.8683 -0.0532 0.6059
C20B C 0.8820(2) 0.07732(12) 0.60906(11)
H12B H 0.7883 0.0878 0.6079
N2B N 0.78915(15) 0.37211(10) 0.74309(10)
C21B C 0.76556(19) 0.31275(11) 0.79984(11)
C22B C 0.84609(19) 0.31513(11) 0.88304(11)
C23B C 0.9451(2) 0.37769(13) 0.89404(13)
H13B H 0.9633 0.4168 0.8473
C24B C 1.0169(2) 0.38343(15) 0.97189(14)
H14B H 1.0847 0.4260 0.9781
C25B C 0.9907(2) 0.32765(14) 1.04072(12)
H15B H 1.0394 0.3320 1.0946
C26B C 0.8930(2) 0.26546(14) 1.03070(12)
H16B H 0.8753 0.2266 1.0777
C27B C 0.8210(2) 0.25930(13) 0.95304(12)
H17B H 0.7535 0.2165 0.9473
C28B C 0.65830(19) 0.24603(12) 0.78967(11)
C29B C 0.5257(2) 0.27086(13) 0.78066(12)
H18B H 0.5035 0.3303 0.7782
C30B C 0.4251(2) 0.20929(15) 0.77525(14)
H19B H 0.3341 0.2266 0.7709
C31B C 0.4573(2) 0.12364(15) 0.77621(14)
H20B H 0.3882 0.0818 0.7719
C32B C 0.5889(2) 0.09739(13) 0.78341(13)
H21B H 0.6105 0.0378 0.7833
C33B C 0.6893(2) 0.15842(12) 0.79084(12)
H22B H 0.7799 0.1406 0.7968
loop_
_geom_bond_atom_site_label_1
_geom_bond_atom_site_label_2
_geom_bond_site_symmetry_1
_geom_bond_site_symmetry_2
C1 C2 1_555 1_555
C2 C3 1_555 1_555
C3 H1 1_555 1_555
C4 C3 1_555 1_555
C5 C4 1_555 1_555
C6 C5 1_555 1_555
H2 C6 1_555 1_555
C7 C2 1_555 1_555
O1 C1 1_555 1_555
N1 C4 1_555 1_555
C8 N1 1_555 1_555
C9 C8 1_555 1_555
C10 C9 1_555 1_555
H3 C10 1_555 1_555
C11 C10 1_555 1_555
H4 C11 1_555 1_555
C12 C11 1_555 1_555
H5 C12 1_555 1_555
C13 C12 1_555 1_555
H6 C13 1_555 1_555
C14 C9 1_555 1_555
H7 C14 1_555 1_555
C15 C8 1_555 1_555
C16 C15 1_555 1_555
H8 C16 1_555 1_555
C17 C16 1_555 1_555
H9 C17 1_555 1_555
C18 C17 1_555 1_555
H10 C18 1_555 1_555
C19 C18 1_555 1_555
H11 C19 1_555 1_555
C20 C15 1_555 1_555
H12 C20 1_555 1_555
N2 C5 1_555 1_555
C21 N2 1_555 1_555
C22 C21 1_555 1_555
C23 C22 1_555 1_555
H13 C23 1_555 1_555
C24 C23 1_555 1_555
H14 C24 1_555 1_555
C25 C24 1_555 1_555
H15 C25 1_555 1_555
C26 C25 1_555 1_555
H16 C26 1_555 1_555
C27 C22 1_555 1_555
H17 C27 1_555 1_555
C28 C21 1_555 1_555
C29 C28 1_555 1_555
H18 C29 1_555 1_555
C30 C29 1_555 1_555
H19 C30 1_555 1_555
C31 C30 1_555 1_555
H20 C31 1_555 1_555
C32 C31 1_555 1_555
H21 C32 1_555 1_555
C33 C28 1_555 1_555
H22 C33 1_555 1_555
C1B C7 1_555 1_555
C2B C1B 1_555 1_555
C3B C2B 1_555 1_555
H1B C3B 1_555 1_555
C4B C3B 1_555 1_555
C5B C4B 1_555 1_555
C6B C5B 1_555 1_555
H2B C6B 1_555 1_555
C7B C1 1_555 1_555
O1B C1B 1_555 1_555
N1B C4B 1_555 1_555
C8B N1B 1_555 1_555
C9B C8B 1_555 1_555
C10B C9B 1_555 1_555
H3B C10B 1_555 1_555
C11B C10B 1_555 1_555
H4B C11B 1_555 1_555
C12B C11B 1_555 1_555
H5B C12B 1_555 1_555
C13B C12B 1_555 1_555
H6B C13B 1_555 1_555
C14B C9B 1_555 1_555
H7B C14B 1_555 1_555
C15B C8B 1_555 1_555
C16B C15B 1_555 1_555
H8B C16B 1_555 1_555
C17B C16B 1_555 1_555
H9B C17B 1_555 1_555
C18B C17B 1_555 1_555
H10B C18B 1_555 1_555
C19B C18B 1_555 1_555
H11B C19B 1_555 1_555
C20B C15B 1_555 1_555
H12B C20B 1_555 1_555
N2B C5B 1_555 1_555
C21B N2B 1_555 1_555
C22B C21B 1_555 1_555
C23B C22B 1_555 1_555
H13B C23B 1_555 1_555
C24B C23B 1_555 1_555
H14B C24B 1_555 1_555
C25B C24B 1_555 1_555
H15B C25B 1_555 1_555
C26B C25B 1_555 1_555
H16B C26B 1_555 1_555
C27B C22B 1_555 1_555
H17B C27B 1_555 1_555
C28B C21B 1_555 1_555
C29B C28B 1_555 1_555
H18B C29B 1_555 1_555
C30B C29B 1_555 1_555
H19B C30B 1_555 1_555
C31B C30B 1_555 1_555
H20B C31B 1_555 1_555
C32B C31B 1_555 1_555
H21B C32B 1_555 1_555
C33B C28B 1_555 1_555
H22B C33B 1_555 1_555
C6 C7 1_555 1_555
C13 C14 1_555 1_555
C19 C20 1_555 1_555
C26 C27 1_555 1_555
C32 C33 1_555 1_555
C2B C7B 1_555 1_555
C6B C7B 1_555 1_555
C13B C14B 1_555 1_555
C19B C20B 1_555 1_555
C26B C27B 1_555 1_555
C32B C33B 1_555 1_555

#END
