
#######################################################################
#
#                 Cambridge Crystallographic Data Centre
#                                CCDC 
#
#######################################################################
#
# If this CIF has been generated from an entry in the Cambridge 
# Structural Database, then it will include bibliographic, chemical, 
# crystal, experimental, refinement or atomic coordinate data resulting 
# from the CCDC's data processing and validation procedures.
#
#######################################################################

data_UYIWUW
_chemical_formula_moiety         'C13 H10 O5'
_chemical_name_systematic        
7-hydroxy-3-(1-hydroxy-3-oxobut-1-en-1-yl)-2H-chromen-2-one
_symmetry_cell_setting           orthorhombic
_symmetry_space_group_name_H-M   'P 21 21 21'
_symmetry_Int_Tables_number      19
_space_group_name_Hall           'P 2ac 2ab'
loop_
_symmetry_equiv_pos_site_id
_symmetry_equiv_pos_as_xyz
1 x,y,z
2 1/2-x,-y,1/2+z
3 -x,1/2+y,1/2-z
4 1/2+x,1/2-y,-z
_cell_length_a                   4.781(4)
_cell_length_b                   13.132(11)
_cell_length_c                   17.693(14)
_cell_angle_alpha                90
_cell_angle_beta                 90
_cell_angle_gamma                90
_cell_volume                     1110.84
_exptl_crystal_colour            yellow
_exptl_crystal_description       rod
_cell_formula_units_Z            4
loop_
_atom_site_label
_atom_site_type_symbol
_atom_site_fract_x
_atom_site_fract_y
_atom_site_fract_z
C1 C 0.1075(6) 0.5634(2) 0.09764(15)
O1 O -0.1722(4) 0.50858(14) 0.20460(10)
O2 O -0.8329(5) 0.71997(17) 0.32228(11)
H1 H -0.8957 0.7780 0.3208
C2 C -0.2393(6) 0.6768(2) 0.15429(16)
C3 C -0.3056(6) 0.6018(2) 0.20708(16)
O3 O 0.3794(5) 0.62336(14) -0.00369(11)
H2 H 0.4737 0.6047 -0.0398
C4 C -0.5032(7) 0.6146(2) 0.26273(15)
H3 H -0.5433 0.5627 0.2968
C5 C -0.0282(6) 0.6550(2) 0.10039(15)
H4 H 0.0200 0.7049 0.0655
O4 O 0.1147(5) 0.39739(14) 0.15402(12)
C6 C -0.6418(7) 0.7079(2) 0.26662(16)
C7 C 0.3282(7) 0.5461(2) 0.03981(16)
O5 O 0.7305(5) 0.51939(16) -0.07323(11)
C8 C 0.4782(7) 0.4555(2) 0.03102(17)
H5 H 0.4466 0.4017 0.0641
C9 C 0.6758(7) 0.4447(2) -0.02700(17)
C10 C 0.0282(6) 0.4851(2) 0.15094(16)
C11 C -0.5821(7) 0.7852(2) 0.21415(17)
H6 H -0.6759 0.8471 0.2167
C12 C -0.3861(6) 0.7690(2) 0.15938(18)
H7 H -0.3490 0.8204 0.1246
C13 C 0.8266(8) 0.3484(2) -0.03906(18)
H8 H 0.9531 0.3558 -0.0808
H9 H 0.6950 0.2951 -0.0499
H10 H 0.9302 0.3314 0.0057
loop_
_geom_bond_atom_site_label_1
_geom_bond_atom_site_label_2
_geom_bond_site_symmetry_1
_geom_bond_site_symmetry_2
C1 C5 1_555 1_555
O1 C3 1_555 1_555
O2 H1 1_555 1_555
C2 C3 1_555 1_555
C3 C4 1_555 1_555
O3 H2 1_555 1_555
C4 H3 1_555 1_555
C5 C2 1_555 1_555
H4 C5 1_555 1_555
O4 C10 1_555 1_555
C6 O2 1_555 1_555
C7 C1 1_555 1_555
O5 C9 1_555 1_555
C8 C7 1_555 1_555
H5 C8 1_555 1_555
C9 C8 1_555 1_555
C10 C1 1_555 1_555
C11 C6 1_555 1_555
H6 C11 1_555 1_555
C12 C2 1_555 1_555
H7 C12 1_555 1_555
C13 C9 1_555 1_555
H8 C13 1_555 1_555
H9 C13 1_555 1_555
H10 C13 1_555 1_555
O1 C10 1_555 1_555
O3 C7 1_555 1_555
C4 C6 1_555 1_555
C11 C12 1_555 1_555

#END
