
#######################################################################
#
#                 Cambridge Crystallographic Data Centre
#                                CCDC 
#
#######################################################################
#
# If this CIF has been generated from an entry in the Cambridge 
# Structural Database, then it will include bibliographic, chemical, 
# crystal, experimental, refinement or atomic coordinate data resulting 
# from the CCDC's data processing and validation procedures.
#
#######################################################################

data_UYOCOC
_chemical_formula_moiety         'C36 H40 O8 S2'
_chemical_name_systematic        
"diethyl 2,2'-((4'',5''-dimethoxy-2,7-dimethyl-2,3-dihydrodispiro[indene-1,2'-thiirane-3',9''-thioxanthene]-5,6-diyl)bis(oxy))dipropanoate"
_symmetry_cell_setting           orthorhombic
_symmetry_space_group_name_H-M   'P 21 21 21'
_symmetry_Int_Tables_number      19
_space_group_name_Hall           'P 2ac 2ab'
loop_
_symmetry_equiv_pos_site_id
_symmetry_equiv_pos_as_xyz
1 x,y,z
2 1/2+x,1/2-y,-z
3 -x,1/2+y,1/2-z
4 1/2-x,-y,1/2+z
_cell_length_a                   8.8466(3)
_cell_length_b                   11.2925(3)
_cell_length_c                   33.4252(10)
_cell_angle_alpha                90
_cell_angle_beta                 90
_cell_angle_gamma                90
_cell_volume                     3339.19
_exptl_crystal_colour            colorless
_exptl_crystal_description       prism
_cell_formula_units_Z            4
_exptl_crystal_recrystallization_method Ethanol/Heptane
loop_
_atom_site_label
_atom_site_type_symbol
_atom_site_fract_x
_atom_site_fract_y
_atom_site_fract_z
C1 C 0.7774(2) 0.57392(16) 0.91947(5)
C2 C 0.9068(2) 0.63779(16) 0.90859(5)
C3 C 1.0474(2) 0.60036(18) 0.92187(6)
H1 H 1.1359 0.6433 0.9149
C4 C 1.0575(2) 0.49922(17) 0.94555(6)
H2 H 1.1534 0.4746 0.9552
C5 C 0.9309(2) 0.43438(16) 0.95515(5)
H3 H 0.9403 0.3652 0.9711
C6 C 0.7897(2) 0.46955(15) 0.94159(5)
C7 C 0.6442(2) 0.40782(14) 0.95271(5)
C8 C 0.53635(19) 0.49228(15) 0.97283(5)
C9 C 0.4691(2) 0.47152(16) 1.00972(5)
H4 H 0.4915 0.4010 1.0240
C10 C 0.3694(2) 0.55345(17) 1.02570(5)
H5 H 0.3241 0.5384 1.0510
C11 C 0.3347(2) 0.65681(17) 1.00546(5)
H6 H 0.2661 0.7123 1.0167
C12 C 0.4014(2) 0.67855(14) 0.96848(5)
C13 C 0.5048(2) 0.59748(15) 0.95272(5)
C14 C 1.0113(3) 0.8035(2) 0.87369(8)
H7 H 1.0603 0.8372 0.8974
H8 H 0.9791 0.8677 0.8559
H9 H 1.0827 0.7520 0.8596
C15 C 0.2833(3) 0.86742(18) 0.96253(7)
H10 H 0.1808 0.8380 0.9675
H11 H 0.2789 0.9348 0.9441
H12 H 0.3289 0.8927 0.9879
C16 C 0.5766(2) 0.31164(14) 0.92591(5)
C17 C 0.4034(2) 0.30522(15) 0.92185(5)
H13 H 0.3535 0.3602 0.9412
C18 C 0.3792(2) 0.34804(15) 0.87854(5)
H14 H 0.2853 0.3148 0.8670
H15 H 0.3753 0.4355 0.8771
C19 C 0.5176(2) 0.30005(14) 0.85769(5)
C20 C 0.6348(2) 0.27878(13) 0.88473(5)
C21 C 0.7703(2) 0.22818(13) 0.87154(5)
C22 C 0.7811(2) 0.19959(15) 0.83079(5)
C23 C 0.6636(2) 0.22089(15) 0.80403(5)
C24 C 0.5305(2) 0.27286(15) 0.81748(5)
H16 H 0.4502 0.2893 0.7995
C25 C 0.3454(2) 0.17930(17) 0.92739(6)
H17 H 0.2350 0.1786 0.9250
H18 H 0.3745 0.1503 0.9539
H19 H 0.3893 0.1279 0.9068
C26 C 0.9039(2) 0.19778(17) 0.89716(5)
H20 H 0.9908 0.2461 0.8891
H21 H 0.9286 0.1137 0.8939
H22 H 0.8798 0.2136 0.9253
C27 C 0.9980(2) 0.1742(2) 0.78583(6)
H23 H 0.9501 0.1409 0.7612
C28 C 1.1519(3) 0.1171(2) 0.79137(7)
H24 H 1.1962 0.1439 0.8167
H25 H 1.2182 0.1398 0.7692
H26 H 1.1406 0.0308 0.7919
C29 C 1.0127(2) 0.3067(2) 0.78101(6)
C30 C 0.9934(3) 0.4906(2) 0.81517(7)
H27 H 1.0467 0.5232 0.7916
H28 H 1.0389 0.5257 0.8395
C31 C 0.8294(3) 0.5224(2) 0.81312(7)
H29 H 0.7855 0.4898 0.7886
H30 H 0.8186 0.6087 0.8131
H31 H 0.7768 0.4894 0.8364
C32 C 0.5649(2) 0.18054(16) 0.73818(5)
H32 H 0.4751 0.1444 0.7517
C33 C 0.6130(3) 0.10318(18) 0.70311(6)
H33 H 0.6988 0.1400 0.6894
H34 H 0.5284 0.0948 0.6844
H35 H 0.6427 0.0249 0.7130
C34 C 0.5255(2) 0.30468(17) 0.72394(5)
C35 C 0.3505(4) 0.4119(2) 0.68463(9)
H36 H 0.3684 0.4775 0.7037
H37 H 0.2406 0.4078 0.6792
C36 C 0.4322(5) 0.4358(2) 0.64697(7)
H38 H 0.5407 0.4426 0.6525
H39 H 0.3954 0.5100 0.6353
H40 H 0.4148 0.3707 0.6281
O1 O 0.88243(16) 0.73609(12) 0.88569(4)
O2 O 0.37278(16) 0.77518(10) 0.94524(4)
O3 O 0.91036(15) 0.13824(11) 0.82000(4)
O4 O 1.0255(3) 0.3547(2) 0.74914(5)
O5 O 1.01090(17) 0.36280(13) 0.81614(4)
O6 O 0.68913(15) 0.18331(12) 0.76527(3)
O7 O 0.5952(2) 0.39244(12) 0.73110(4)
O8 O 0.4005(2) 0.30060(13) 0.70252(5)
S1 S 0.59791(5) 0.63409(4) 0.907341(12)
S2 S 0.65671(5) 0.25851(4) 0.973266(11)
loop_
_geom_bond_atom_site_label_1
_geom_bond_atom_site_label_2
_geom_bond_site_symmetry_1
_geom_bond_site_symmetry_2
C1 C2 1_555 1_555
C2 C3 1_555 1_555
C3 H1 1_555 1_555
C4 C3 1_555 1_555
H2 C4 1_555 1_555
C5 C4 1_555 1_555
H3 C5 1_555 1_555
C6 C1 1_555 1_555
C7 C6 1_555 1_555
C8 C7 1_555 1_555
C9 C8 1_555 1_555
H4 C9 1_555 1_555
C10 C9 1_555 1_555
H5 C10 1_555 1_555
C11 C10 1_555 1_555
H6 C11 1_555 1_555
C12 C11 1_555 1_555
C13 C8 1_555 1_555
C14 H7 1_555 1_555
H8 C14 1_555 1_555
H9 C14 1_555 1_555
C15 H10 1_555 1_555
H11 C15 1_555 1_555
H12 C15 1_555 1_555
C16 C7 1_555 1_555
C17 C16 1_555 1_555
H13 C17 1_555 1_555
C18 C17 1_555 1_555
H14 C18 1_555 1_555
H15 C18 1_555 1_555
C19 C18 1_555 1_555
C20 C16 1_555 1_555
C21 C20 1_555 1_555
C22 C21 1_555 1_555
C23 C22 1_555 1_555
C24 C19 1_555 1_555
H16 C24 1_555 1_555
C25 C17 1_555 1_555
H17 C25 1_555 1_555
H18 C25 1_555 1_555
H19 C25 1_555 1_555
C26 C21 1_555 1_555
H20 C26 1_555 1_555
H21 C26 1_555 1_555
H22 C26 1_555 1_555
C27 H23 1_555 1_555
C28 C27 1_555 1_555
H24 C28 1_555 1_555
H25 C28 1_555 1_555
H26 C28 1_555 1_555
C29 C27 1_555 1_555
C30 H27 1_555 1_555
H28 C30 1_555 1_555
C31 C30 1_555 1_555
H29 C31 1_555 1_555
H30 C31 1_555 1_555
H31 C31 1_555 1_555
C32 H32 1_555 1_555
C33 C32 1_555 1_555
H33 C33 1_555 1_555
H34 C33 1_555 1_555
H35 C33 1_555 1_555
C34 C32 1_555 1_555
C35 H36 1_555 1_555
H37 C35 1_555 1_555
C36 C35 1_555 1_555
H38 C36 1_555 1_555
H39 C36 1_555 1_555
H40 C36 1_555 1_555
O1 C2 1_555 1_555
O2 C12 1_555 1_555
O3 C22 1_555 1_555
O4 C29 1_555 1_555
O5 C29 1_555 1_555
O6 C23 1_555 1_555
O7 C34 1_555 1_555
O8 C34 1_555 1_555
S1 C1 1_555 1_555
S2 C7 1_555 1_555
C5 C6 1_555 1_555
C12 C13 1_555 1_555
C13 S1 1_555 1_555
C14 O1 1_555 1_555
C15 O2 1_555 1_555
C16 S2 1_555 1_555
C19 C20 1_555 1_555
C23 C24 1_555 1_555
C27 O3 1_555 1_555
C30 O5 1_555 1_555
C32 O6 1_555 1_555
C35 O8 1_555 1_555

#END
