
#######################################################################
#
#                 Cambridge Crystallographic Data Centre
#                                CCDC 
#
#######################################################################
#
# If this CIF has been generated from an entry in the Cambridge 
# Structural Database, then it will include bibliographic, chemical, 
# crystal, experimental, refinement or atomic coordinate data resulting 
# from the CCDC's data processing and validation procedures.
#
#######################################################################

data_UYOGUL
_chemical_formula_moiety         'C15 H16 Se2'
_chemical_name_systematic        
(3,4,10-Trihydro-2H,6H-naphtho(1,8-cd)(1,5)diselenacyclodecane)
_symmetry_cell_setting           monoclinic
_symmetry_space_group_name_H-M   'P 21/c'
_symmetry_Int_Tables_number      14
_space_group_name_Hall           '-P 2ybc'
loop_
_symmetry_equiv_pos_site_id
_symmetry_equiv_pos_as_xyz
1 x,y,z
2 -x,1/2+y,1/2-z
3 -x,-y,-z
4 x,1/2-y,1/2+z
_cell_length_a                   18.760(4)
_cell_length_b                   9.6590(19)
_cell_length_c                   16.073(3)
_cell_angle_alpha                90
_cell_angle_beta                 113.19(3)
_cell_angle_gamma                90
_cell_volume                     2677.16
_cell_formula_units_Z            8
loop_
_atom_site_label
_atom_site_type_symbol
_atom_site_fract_x
_atom_site_fract_y
_atom_site_fract_z
Se1 Se 0.14842(5) 0.92986(10) -0.28033(5)
Se2 Se 0.09472(5) 0.81937(9) -0.04871(4)
C1 C -0.0984(4) 0.8706(7) -0.1687(4)
H1 H -0.0882 0.8565 -0.1078
C2 C -0.1656(4) 0.9400(6) -0.2297(4)
H2 H -0.1993 0.9671 -0.2030
C3 C -0.1902(4) 0.9739(7) -0.3154(4)
H3 H -0.2364 1.0196 -0.3485
C4 C -0.1327(3) 0.9276(5) -0.3507(3)
C5 C -0.1503(4) 0.9582(6) -0.4376(4)
H4 H -0.1949 1.0080 -0.4710
C6 C -0.1013(4) 0.9147(6) -0.4761(4)
H5 H -0.1136 0.9309 -0.5372
C7 C -0.0370(4) 0.8500(5) -0.4274(4)
H6 H -0.0050 0.8230 -0.4564
C8 C -0.0140(4) 0.8203(6) -0.3411(4)
C9 C -0.0620(4) 0.8574(7) -0.2974(4)
C10 C -0.0531(3) 0.8292(6) -0.2067(4)
C11 C 0.0048(3) 0.7319(6) -0.1400(4)
H7 H 0.0227 0.6670 -0.1737
H8 H -0.0218 0.6790 -0.1096
C12 C 0.1004(4) 0.9892(6) -0.1015(4)
H9 H 0.0638 0.9901 -0.1642
H10 H 0.0867 1.0634 -0.0699
C13 C 0.1845(4) 1.0129(7) -0.0969(4)
H11 H 0.1880 1.1084 -0.1136
H12 H 0.2201 1.0023 -0.0342
C14 C 0.2124(4) 0.9261(7) -0.1514(4)
H13 H 0.2157 0.8314 -0.1302
H14 H 0.2645 0.9555 -0.1422
C15 C 0.0758(4) 0.7961(7) -0.2924(4)
H15 H 0.0880 0.7189 -0.3231
H16 H 0.0852 0.7646 -0.2317
Se3 Se 0.34586(4) 0.80410(9) 0.27491(5)
Se4 Se 0.41535(4) 0.91687(6) 0.05148(4)
C16 C 0.5171(4) 0.8887(8) 0.4228(5)
H17 H 0.4768 0.9123 0.4399
C17 C 0.5821(4) 0.8272(8) 0.4866(4)
H18 H 0.5863 0.8099 0.5453
C18 C 0.6398(3) 0.7932(6) 0.4588(3)
H19 H 0.6843 0.7501 0.4990
C19 C 0.6332(3) 0.8216(5) 0.3726(3)
C20 C 0.6927(3) 0.7902(4) 0.3403(3)
H20 H 0.7402 0.7521 0.3773
C21 C 0.6720(3) 0.8245(5) 0.2395(3)
H21 H 0.7074 0.7995 0.2148
C22 C 0.6039(4) 0.8903(7) 0.1828(4)
H22 H 0.5950 0.9115 0.1231
C23 C 0.5555(3) 0.9193(4) 0.2154(3)
C24 C 0.5641(2) 0.8861(4) 0.3117(3)
C25 C 0.5088(4) 0.9161(6) 0.3388(4)
C26 C 0.4185(4) 0.9440(6) 0.2854(4)
H23 H 0.4107 0.9722 0.2245
H24 H 0.4051 1.0230 0.3137
C27 C 0.2889(4) 0.7943(7) 0.1422(4)
H25 H 0.2369 0.7607 0.1296
H26 H 0.2840 0.8876 0.1181
C28 C 0.3221(4) 0.7097(7) 0.0946(5)
H27 H 0.2876 0.7099 0.0311
H28 H 0.3244 0.6154 0.1164
C29 C 0.4000(4) 0.7490(6) 0.1019(4)
H29 H 0.4186 0.6752 0.0747
H30 H 0.4334 0.7506 0.1657
C30 C 0.4990(3) 1.0184(6) 0.1477(3)
H31 H 0.5268 1.0753 0.1206
H32 H 0.4765 1.0790 0.1790
loop_
_geom_bond_atom_site_label_1
_geom_bond_atom_site_label_2
_geom_bond_site_symmetry_1
_geom_bond_site_symmetry_2
Se1 C14 1_555 1_555
Se2 C11 1_555 1_555
C1 H1 1_555 1_555
C2 C1 1_555 1_555
H2 C2 1_555 1_555
C3 C2 1_555 1_555
H3 C3 1_555 1_555
C4 C3 1_555 1_555
C5 C4 1_555 1_555
H4 C5 1_555 1_555
C6 C5 1_555 1_555
H5 C6 1_555 1_555
C7 C6 1_555 1_555
H6 C7 1_555 1_555
C8 C7 1_555 1_555
C9 C4 1_555 1_555
C10 C1 1_555 1_555
C11 C10 1_555 1_555
H7 C11 1_555 1_555
H8 C11 1_555 1_555
C12 Se2 1_555 1_555
H9 C12 1_555 1_555
H10 C12 1_555 1_555
C13 C12 1_555 1_555
H11 C13 1_555 1_555
H12 C13 1_555 1_555
C14 C13 1_555 1_555
H13 C14 1_555 1_555
H14 C14 1_555 1_555
C15 Se1 1_555 1_555
H15 C15 1_555 1_555
H16 C15 1_555 1_555
Se3 C26 1_555 1_555
Se4 C29 1_555 1_555
C16 H17 1_555 1_555
C17 C16 1_555 1_555
H18 C17 1_555 1_555
C18 C17 1_555 1_555
H19 C18 1_555 1_555
C19 C18 1_555 1_555
C20 C19 1_555 1_555
H20 C20 1_555 1_555
C21 C20 1_555 1_555
H21 C21 1_555 1_555
C22 C21 1_555 1_555
H22 C22 1_555 1_555
C23 C22 1_555 1_555
C24 C19 1_555 1_555
C25 C16 1_555 1_555
C26 C25 1_555 1_555
H23 C26 1_555 1_555
H24 C26 1_555 1_555
C27 Se3 1_555 1_555
H25 C27 1_555 1_555
H26 C27 1_555 1_555
C28 C27 1_555 1_555
H27 C28 1_555 1_555
H28 C28 1_555 1_555
C29 C28 1_555 1_555
H29 C29 1_555 1_555
H30 C29 1_555 1_555
C30 Se4 1_555 1_555
H31 C30 1_555 1_555
H32 C30 1_555 1_555
C8 C9 1_555 1_555
C8 C15 1_555 1_555
C9 C10 1_555 1_555
C23 C24 1_555 1_555
C23 C30 1_555 1_555
C24 C25 1_555 1_555

#END
