
#######################################################################
#
#                 Cambridge Crystallographic Data Centre
#                                CCDC 
#
#######################################################################
#
# If this CIF has been generated from an entry in the Cambridge 
# Structural Database, then it will include bibliographic, chemical, 
# crystal, experimental, refinement or atomic coordinate data resulting 
# from the CCDC's data processing and validation procedures.
#
#######################################################################

data_UYOMEB
_chemical_formula_moiety         'C48 H39 N6 P1 S1'
_chemical_name_systematic        
"N''',N'''',N'''''-tris(9-anthrylmethylene)-N,N',N''-trimethylphosphorothioic trihydrazide"
_symmetry_cell_setting           triclinic
_symmetry_space_group_name_H-M   'P -1'
_symmetry_Int_Tables_number      2
_space_group_name_Hall           '-P 1'
loop_
_symmetry_equiv_pos_site_id
_symmetry_equiv_pos_as_xyz
1 x,y,z
2 -x,-y,-z
_cell_length_a                   10.845(5)
_cell_length_b                   16.632(5)
_cell_length_c                   21.434(5)
_cell_angle_alpha                96.565(5)
_cell_angle_beta                 90.574(5)
_cell_angle_gamma                91.907(5)
_cell_volume                     3838.29
_exptl_crystal_colour            yellow
_cell_formula_units_Z            4
loop_
_atom_site_label
_atom_site_type_symbol
_atom_site_fract_x
_atom_site_fract_y
_atom_site_fract_z
C1 C 1.1017(3) 0.87616(19) 0.16504(14)
H1 H 1.0532 0.8330 0.1421
H2 H 1.1447 0.8557 0.1990
H3 H 1.1603 0.8977 0.1375
C2 C 0.7361(3) 0.90099(19) 0.30474(14)
H4 H 0.6565 0.9035 0.2852
H5 H 0.7521 0.9492 0.3331
H6 H 0.7374 0.8546 0.3276
C3 C 1.1689(3) 0.9447(2) 0.33572(15)
H7 H 1.1739 0.9327 0.3784
H8 H 1.1627 1.0020 0.3351
H9 H 1.2416 0.9267 0.3138
C4 C 0.9469(3) 0.95430(19) 0.09102(14)
H10 H 0.9953 0.9120 0.0746
C5 C 0.8679(3) 0.9970(2) 0.05009(14)
C6 C 0.7397(3) 0.8710(2) 0.02317(15)
H11 H 0.7895 0.8430 0.0482
C7 C 0.6408(3) 0.8321(2) -0.00732(16)
H12 H 0.6233 0.7779 -0.0029
C8 C 0.5641(3) 0.8738(2) -0.04592(15)
H13 H 0.4972 0.8465 -0.0673
C9 C 0.5876(3) 0.9530(2) -0.05189(15)
H14 H 0.5355 0.9797 -0.0768
C10 C 0.7113(3) 1.0786(2) -0.02369(15)
H15 H 0.6585 1.1058 -0.0478
C11 C 0.8314(4) 1.2059(2) 0.00531(16)
H16 H 0.7778 1.2338 -0.0178
C12 C 0.9283(4) 1.2458(2) 0.03477(18)
H17 H 0.9412 1.3008 0.0320
C13 C 1.0111(4) 1.2047(2) 0.07012(17)
H18 H 1.0793 1.2327 0.0897
C14 C 0.9926(3) 1.1250(2) 0.07591(15)
H19 H 1.0475 1.0993 0.0999
C15 C 0.7688(3) 0.9541(2) 0.01767(14)
C16 C 0.6903(3) 0.9962(2) -0.02093(14)
C17 C 0.8083(3) 1.1214(2) 0.00839(15)
C18 C 0.8902(3) 1.0799(2) 0.04578(14)
C19 C 0.7386(3) 0.77958(19) 0.20386(14)
H20 H 0.6767 0.7817 0.2337
C20 C 0.7359(3) 0.71554(19) 0.15039(15)
C21 C 0.9575(3) 0.68505(19) 0.16537(16)
H21 H 0.9608 0.7178 0.2036
C22 C 1.0605(3) 0.6469(2) 0.14428(17)
H22 H 1.1323 0.6528 0.1687
C23 C 1.0598(3) 0.5983(2) 0.08558(17)
H23 H 1.1318 0.5746 0.0706
C24 C 0.9533(4) 0.5863(2) 0.05102(18)
H24 H 0.9532 0.5541 0.0126
C25 C 0.7322(3) 0.6058(2) 0.03962(16)
H25 H 0.7318 0.5716 0.0021
C26 C 0.5089(3) 0.6202(2) 0.02747(17)
H26 H 0.5078 0.5840 -0.0090
C27 C 0.4030(3) 0.6542(2) 0.04791(17)
H27 H 0.3295 0.6413 0.0257
C28 C 0.4046(3) 0.7092(2) 0.10309(17)
H28 H 0.3310 0.7316 0.1172
C29 C 0.5097(3) 0.7304(2) 0.13609(16)
H29 H 0.5079 0.7684 0.1714
C30 C 0.8451(3) 0.67609(19) 0.13042(15)
C31 C 0.8422(3) 0.6224(2) 0.07280(16)
C32 C 0.6224(3) 0.6391(2) 0.06101(15)
C33 C 0.6237(3) 0.69496(19) 0.11713(15)
C34 C 1.1269(3) 0.77911(19) 0.32470(14)
H30 H 1.1965 0.8063 0.3434
C35 C 1.1139(3) 0.6909(2) 0.32496(14)
C36 C 1.3375(3) 0.6798(2) 0.29792(16)
H31 H 1.3424 0.7340 0.2910
C37 C 1.4388(4) 0.6348(2) 0.29009(17)
H32 H 1.5120 0.6583 0.2774
C38 C 1.4352(4) 0.5523(2) 0.30089(17)
H33 H 1.5060 0.5223 0.2960
C39 C 1.3291(4) 0.5175(2) 0.31820(18)
H34 H 1.3279 0.4635 0.3256
C40 C 1.1078(4) 0.5241(2) 0.33877(16)
H35 H 1.1063 0.4699 0.3457
C41 C 0.8826(4) 0.5246(2) 0.35077(16)
H36 H 0.8807 0.4692 0.3538
C42 C 0.7770(4) 0.5645(2) 0.35446(17)
H37 H 0.7024 0.5367 0.3591
C43 C 0.7793(3) 0.6492(2) 0.35134(17)
H38 H 0.7062 0.6770 0.3554
C44 C 0.8870(3) 0.6905(2) 0.34249(16)
H39 H 0.8859 0.7460 0.3404
C45 C 1.0004(3) 0.6511(2) 0.33644(14)
C46 C 1.2233(3) 0.6459(2) 0.31661(14)
C47 C 1.2189(3) 0.5611(2) 0.32541(15)
C48 C 0.9981(3) 0.5655(2) 0.34220(15)
N1 N 1.0208(2) 0.94008(15) 0.19024(11)
N2 N 0.9462(2) 0.97753(16) 0.14966(12)
N3 N 0.8310(2) 0.89430(15) 0.25649(11)
N4 N 0.8277(2) 0.83212(15) 0.20835(11)
N5 N 1.0606(2) 0.90317(15) 0.30510(11)
N6 N 1.0457(2) 0.81985(15) 0.29960(11)
P1 P 0.96200(7) 0.95091(5) 0.26247(4)
S1 S 0.93964(8) 1.06113(5) 0.29774(4)
C49 C 0.2465(3) 0.10309(19) 0.19743(14)
H40 H 0.1672 0.1012 0.2169
H41 H 0.2548 0.0555 0.1681
H42 H 0.2538 0.1503 0.1757
C50 C 0.6718(3) 0.0500(2) 0.16617(15)
H43 H 0.6772 0.0599 0.1230
H44 H 0.6594 -0.0071 0.1683
H45 H 0.7469 0.0687 0.1880
C51 C 0.6166(3) 0.12078(19) 0.33624(14)
H46 H 0.5734 0.1663 0.3556
H47 H 0.6662 0.1373 0.3028
H48 H 0.6687 0.1004 0.3669
C52 C 0.2719(3) 0.22333(18) 0.29901(14)
H49 H 0.2080 0.2234 0.2697
C53 C 0.6513(3) 0.21578(19) 0.17410(14)
H50 H 0.7144 0.1869 0.1540
C54 C 0.2836(3) 0.28650(19) 0.35350(14)
C55 C 0.5070(3) 0.3146(2) 0.33284(15)
H51 H 0.5005 0.2848 0.2934
C56 C 0.6173(3) 0.3498(2) 0.35267(16)
H52 H 0.6849 0.3449 0.3263
C57 C 0.6307(3) 0.3939(2) 0.41314(16)
H53 H 0.7080 0.4145 0.4273
C58 C 0.5318(3) 0.40608(19) 0.45026(16)
H54 H 0.5415 0.4359 0.4896
C59 C 0.3069(3) 0.39254(19) 0.46552(15)
H55 H 0.3154 0.4252 0.5036
C60 C 0.0830(3) 0.3857(2) 0.48049(16)
H56 H 0.0904 0.4219 0.5169
C61 C -0.0292(3) 0.3543(2) 0.46113(17)
H57 H -0.0984 0.3690 0.4844
C62 C -0.0427(3) 0.2992(2) 0.40598(17)
H58 H -0.1208 0.2788 0.3931
C63 C 0.0568(3) 0.2759(2) 0.37165(16)
H59 H 0.0460 0.2383 0.3363
C64 C 0.4002(3) 0.32278(19) 0.37171(15)
C65 C 0.4121(3) 0.37389(19) 0.43008(15)
C66 C 0.1909(3) 0.36347(19) 0.44515(15)
C67 C 0.1781(3) 0.30799(19) 0.38873(15)
C68 C 0.6539(3) 0.30397(19) 0.17494(14)
C69 C 0.8790(3) 0.3047(2) 0.20158(15)
H60 H 0.8735 0.2500 0.2071
C70 C 0.9903(3) 0.3458(2) 0.20899(16)
H61 H 1.0597 0.3185 0.2194
C71 C 1.0023(4) 0.4288(2) 0.20124(17)
H62 H 1.0795 0.4550 0.2048
C72 C 0.9016(3) 0.4700(2) 0.18860(17)
H63 H 0.9096 0.5251 0.1850
C73 C 0.6787(3) 0.4721(2) 0.16866(16)
H64 H 0.6866 0.5275 0.1660
C74 C 0.4566(3) 0.4786(2) 0.14864(16)
H65 H 0.4648 0.5342 0.1472
C75 C 0.3441(4) 0.4413(2) 0.13952(16)
H66 H 0.2756 0.4713 0.1322
C76 C 0.3307(3) 0.3567(2) 0.14108(17)
H67 H 0.2532 0.3314 0.1341
C77 C 0.4279(3) 0.3119(2) 0.15247(15)
H68 H 0.4160 0.2564 0.1533
C78 C 0.7711(3) 0.3451(2) 0.18539(14)
C79 C 0.7826(3) 0.4301(2) 0.18066(16)
C80 C 0.5632(3) 0.43392(19) 0.16049(15)
C81 C 0.5492(3) 0.3480(2) 0.16337(14)
C82 C 0.4541(3) 0.04393(19) 0.41022(14)
H69 H 0.5084 0.0855 0.4270
C83 C 0.3698(3) 0.0016(2) 0.45064(14)
C84 C 0.4713(3) -0.1295(2) 0.42236(15)
H70 H 0.5311 -0.1044 0.3997
C85 C 0.4749(4) -0.2101(2) 0.42530(16)
H71 H 0.5375 -0.2394 0.4051
C86 C 0.3847(4) -0.2501(2) 0.45872(17)
H72 H 0.3865 -0.3060 0.4590
C87 C 0.2959(4) -0.2081(2) 0.49023(15)
H73 H 0.2385 -0.2352 0.5129
C88 C 0.1989(3) -0.0785(2) 0.52173(14)
H74 H 0.1423 -0.1051 0.5453
C89 C 0.0957(3) 0.0490(2) 0.55202(15)
H75 H 0.0402 0.0228 0.5764
C90 C 0.0848(3) 0.1292(2) 0.54738(15)
H76 H 0.0217 0.1574 0.5681
C91 C 0.1701(3) 0.1702(2) 0.51082(16)
H77 H 0.1625 0.2253 0.5081
C92 C 0.2625(3) 0.1299(2) 0.47987(14)
H78 H 0.3165 0.1577 0.4558
C93 C 0.3773(3) -0.0819(2) 0.45334(14)
C94 C 0.2890(3) -0.1230(2) 0.48921(14)
C95 C 0.1909(3) 0.0044(2) 0.52012(14)
C96 C 0.2781(3) 0.0457(2) 0.48373(14)
N7 N 0.5677(2) 0.09335(15) 0.19548(11)
N8 N 0.5654(2) 0.17673(15) 0.20002(11)
N9 N 0.3431(2) 0.10644(15) 0.24538(11)
N10 N 0.3522(2) 0.16896(15) 0.29353(11)
N11 N 0.5279(2) 0.05741(15) 0.31099(11)
N12 N 0.4489(2) 0.02075(15) 0.35112(12)
P2 P 0.46511(7) 0.04778(5) 0.23890(3)
S2 S 0.42535(8) -0.06205(5) 0.20384(4)
loop_
_geom_bond_atom_site_label_1
_geom_bond_atom_site_label_2
_geom_bond_site_symmetry_1
_geom_bond_site_symmetry_2
C1 H1 1_555 1_555
H2 C1 1_555 1_555
H3 C1 1_555 1_555
C2 H4 1_555 1_555
H5 C2 1_555 1_555
H6 C2 1_555 1_555
C3 H7 1_555 1_555
H8 C3 1_555 1_555
H9 C3 1_555 1_555
C4 H10 1_555 1_555
C5 C4 1_555 1_555
C6 H11 1_555 1_555
C7 C6 1_555 1_555
H12 C7 1_555 1_555
C8 C7 1_555 1_555
H13 C8 1_555 1_555
C9 C8 1_555 1_555
H14 C9 1_555 1_555
C10 H15 1_555 1_555
C11 H16 1_555 1_555
C12 C11 1_555 1_555
H17 C12 1_555 1_555
C13 C12 1_555 1_555
H18 C13 1_555 1_555
C14 C13 1_555 1_555
H19 C14 1_555 1_555
C15 C5 1_555 1_555
C16 C9 1_555 1_555
C17 C10 1_555 1_555
C18 C5 1_555 1_555
C19 H20 1_555 1_555
C20 C19 1_555 1_555
C21 H21 1_555 1_555
C22 C21 1_555 1_555
H22 C22 1_555 1_555
C23 C22 1_555 1_555
H23 C23 1_555 1_555
C24 C23 1_555 1_555
H24 C24 1_555 1_555
C25 H25 1_555 1_555
C26 H26 1_555 1_555
C27 C26 1_555 1_555
H27 C27 1_555 1_555
C28 C27 1_555 1_555
H28 C28 1_555 1_555
C29 C28 1_555 1_555
H29 C29 1_555 1_555
C30 C20 1_555 1_555
C31 C24 1_555 1_555
C32 C25 1_555 1_555
C33 C20 1_555 1_555
C34 H30 1_555 1_555
C35 C34 1_555 1_555
C36 H31 1_555 1_555
C37 C36 1_555 1_555
H32 C37 1_555 1_555
C38 C37 1_555 1_555
H33 C38 1_555 1_555
C39 C38 1_555 1_555
H34 C39 1_555 1_555
C40 H35 1_555 1_555
C41 H36 1_555 1_555
C42 C41 1_555 1_555
H37 C42 1_555 1_555
C43 C42 1_555 1_555
H38 C43 1_555 1_555
C44 C43 1_555 1_555
H39 C44 1_555 1_555
C45 C35 1_555 1_555
C46 C35 1_555 1_555
C47 C39 1_555 1_555
C48 C40 1_555 1_555
C49 H40 1_555 1_555
H41 C49 1_555 1_555
H42 C49 1_555 1_555
C50 H43 1_555 1_555
H44 C50 1_555 1_555
H45 C50 1_555 1_555
C51 H46 1_555 1_555
H47 C51 1_555 1_555
H48 C51 1_555 1_555
C52 H49 1_555 1_555
C53 H50 1_555 1_555
C54 C52 1_555 1_555
C55 H51 1_555 1_555
C56 C55 1_555 1_555
H52 C56 1_555 1_555
C57 C56 1_555 1_555
H53 C57 1_555 1_555
C58 C57 1_555 1_555
H54 C58 1_555 1_555
C59 H55 1_555 1_555
C60 H56 1_555 1_555
C61 C60 1_555 1_555
H57 C61 1_555 1_555
C62 C61 1_555 1_555
H58 C62 1_555 1_555
C63 C62 1_555 1_555
H59 C63 1_555 1_555
C64 C54 1_555 1_555
C65 C58 1_555 1_555
C66 C59 1_555 1_555
C67 C54 1_555 1_555
C68 C53 1_555 1_555
C69 H60 1_555 1_555
C70 C69 1_555 1_555
H61 C70 1_555 1_555
C71 C70 1_555 1_555
H62 C71 1_555 1_555
C72 C71 1_555 1_555
H63 C72 1_555 1_555
C73 H64 1_555 1_555
C74 H65 1_555 1_555
C75 C74 1_555 1_555
H66 C75 1_555 1_555
C76 C75 1_555 1_555
H67 C76 1_555 1_555
C77 C76 1_555 1_555
H68 C77 1_555 1_555
C78 C68 1_555 1_555
C79 C72 1_555 1_555
C80 C73 1_555 1_555
C81 C68 1_555 1_555
C82 H69 1_555 1_555
C83 C82 1_555 1_555
C84 H70 1_555 1_555
C85 C84 1_555 1_555
H71 C85 1_555 1_555
C86 C85 1_555 1_555
H72 C86 1_555 1_555
C87 C86 1_555 1_555
H73 C87 1_555 1_555
C88 H74 1_555 1_555
C89 H75 1_555 1_555
C90 C89 1_555 1_555
H76 C90 1_555 1_555
C91 C90 1_555 1_555
H77 C91 1_555 1_555
C92 C91 1_555 1_555
H78 C92 1_555 1_555
C93 C83 1_555 1_555
C94 C87 1_555 1_555
C95 C88 1_555 1_555
C96 C83 1_555 1_555
N1 C1 1_555 1_555
N2 C4 1_555 1_555
N3 C2 1_555 1_555
N4 C19 1_555 1_555
N5 C3 1_555 1_555
N6 C34 1_555 1_555
N7 C50 1_555 1_555
N8 C53 1_555 1_555
N9 C49 1_555 1_555
N10 C52 1_555 1_555
N11 C51 1_555 1_555
N12 C82 1_555 1_555
P1 N1 1_555 1_555
P2 N7 1_555 1_555
S1 P1 1_555 1_555
S2 P2 1_555 1_555
C6 C15 1_555 1_555
C10 C16 1_555 1_555
C11 C17 1_555 1_555
C14 C18 1_555 1_555
C15 C16 1_555 1_555
C17 C18 1_555 1_555
C21 C30 1_555 1_555
C25 C31 1_555 1_555
C26 C32 1_555 1_555
C29 C33 1_555 1_555
C30 C31 1_555 1_555
C32 C33 1_555 1_555
C36 C46 1_555 1_555
C40 C47 1_555 1_555
C41 C48 1_555 1_555
C44 C45 1_555 1_555
C45 C48 1_555 1_555
C46 C47 1_555 1_555
C55 C64 1_555 1_555
C59 C65 1_555 1_555
C60 C66 1_555 1_555
C63 C67 1_555 1_555
C64 C65 1_555 1_555
C66 C67 1_555 1_555
C69 C78 1_555 1_555
C73 C79 1_555 1_555
C74 C80 1_555 1_555
C77 C81 1_555 1_555
C78 C79 1_555 1_555
C80 C81 1_555 1_555
C84 C93 1_555 1_555
C88 C94 1_555 1_555
C89 C95 1_555 1_555
C92 C96 1_555 1_555
C93 C94 1_555 1_555
C95 C96 1_555 1_555
N1 N2 1_555 1_555
N3 N4 1_555 1_555
N3 P1 1_555 1_555
N5 N6 1_555 1_555
N5 P1 1_555 1_555
N7 N8 1_555 1_555
N9 N10 1_555 1_555
N9 P2 1_555 1_555
N11 N12 1_555 1_555
N11 P2 1_555 1_555

#END
