
#######################################################################
#
#                 Cambridge Crystallographic Data Centre
#                                CCDC 
#
#######################################################################
#
# If this CIF has been generated from an entry in the Cambridge 
# Structural Database, then it will include bibliographic, chemical, 
# crystal, experimental, refinement or atomic coordinate data resulting 
# from the CCDC's data processing and validation procedures.
#
#######################################################################

data_UYOMAX
_chemical_formula_moiety         'C38 H31 N4 O1 P1'
_chemical_name_systematic        
"N'',N'''-bis(9-anthrylmethylene)-N,N'-dimethyl-P-phenylphosphonic dihydrazide"
_symmetry_cell_setting           triclinic
_symmetry_space_group_name_H-M   'P -1'
_symmetry_Int_Tables_number      2
_space_group_name_Hall           '-P 1'
loop_
_symmetry_equiv_pos_site_id
_symmetry_equiv_pos_as_xyz
1 x,y,z
2 -x,-y,-z
_cell_length_a                   10.847(4)
_cell_length_b                   11.951(5)
_cell_length_c                   13.148(5)
_cell_angle_alpha                77.937(7)
_cell_angle_beta                 67.022(6)
_cell_angle_gamma                69.184(6)
_cell_volume                     1461.85
_exptl_crystal_colour            yellow
_cell_formula_units_Z            2
loop_
_atom_site_label
_atom_site_type_symbol
_atom_site_fract_x
_atom_site_fract_y
_atom_site_fract_z
C1 C -0.0180(3) 0.2065(2) 0.1841(2)
C2 C -0.0874(3) 0.1768(2) 0.1298(2)
H1 H -0.1371 0.1218 0.1639
C3 C -0.0826(3) 0.2298(3) 0.0236(2)
H2 H -0.1292 0.2104 -0.0132
C4 C -0.0089(3) 0.3105(2) -0.0261(2)
H3 H -0.0067 0.3463 -0.0965
C5 C 0.0622(3) 0.3397(2) 0.0265(2)
H4 H 0.1129 0.3939 -0.0088
C6 C 0.0579(3) 0.2879(2) 0.1323(2)
H5 H 0.1053 0.3074 0.1683
C7 C 0.2240(3) 0.1161(2) 0.3552(2)
H6 H 0.2787 0.0490 0.3898
H7 H 0.1568 0.1708 0.4097
H8 H 0.2850 0.1564 0.2981
C8 C 0.3554(3) -0.0540(2) 0.1957(2)
H9 H 0.4081 -0.0351 0.2273
C9 C 0.4237(3) -0.1400(2) 0.1083(2)
C10 C 0.5449(3) -0.2928(2) 0.2283(2)
H10 H 0.5127 -0.2376 0.2805
C11 C 0.6232(3) -0.4064(2) 0.2475(2)
H11 H 0.6448 -0.4278 0.3122
C12 C 0.6731(3) -0.4936(2) 0.1703(2)
H12 H 0.7263 -0.5714 0.1848
C13 C 0.6431(3) -0.4635(2) 0.0758(2)
H13 H 0.6745 -0.5212 0.0262
C14 C 0.5339(3) -0.3122(3) -0.0457(2)
H14 H 0.5673 -0.3699 -0.0958
C15 C 0.4320(3) -0.1655(3) -0.1734(2)
H15 H 0.4689 -0.2230 -0.2241
C16 C 0.3565(3) -0.0529(3) -0.1991(2)
H16 H 0.3423 -0.0341 -0.2668
C17 C 0.2993(3) 0.0360(2) -0.1232(2)
H17 H 0.2484 0.1133 -0.1416
C18 C 0.3181(3) 0.0092(2) -0.0232(2)
H18 H 0.2785 0.0683 0.0263
C19 C 0.5110(2) -0.2561(2) 0.1299(2)
C20 C 0.5644(3) -0.3448(2) 0.0517(2)
C21 C 0.4562(3) -0.1978(2) -0.0709(2)
C22 C 0.3977(3) -0.1085(2) 0.0071(2)
C23 C -0.1525(3) 0.1801(2) 0.5290(2)
H19 H -0.0978 0.1866 0.5687
H20 H -0.1482 0.0977 0.5335
H21 H -0.2485 0.2277 0.5612
C24 C -0.1485(3) 0.4126(2) 0.4597(2)
H22 H -0.1829 0.3848 0.5337
C25 C -0.1561(3) 0.5409(2) 0.4293(2)
C26 C 0.1031(3) 0.4925(2) 0.3258(2)
H23 H 0.1158 0.4108 0.3450
C27 C 0.2169(3) 0.5315(3) 0.2632(2)
H24 H 0.3062 0.4760 0.2426
C28 C 0.2012(3) 0.6549(3) 0.2292(2)
H25 H 0.2791 0.6793 0.1837
C29 C 0.0726(3) 0.7372(3) 0.2633(2)
H26 H 0.0631 0.8181 0.2416
C30 C -0.1801(3) 0.7866(2) 0.3710(2)
H27 H -0.1880 0.8677 0.3518
C31 C -0.4350(3) 0.8406(2) 0.4748(2)
H28 H -0.4430 0.9215 0.4541
C32 C -0.5527(3) 0.8089(2) 0.5392(2)
H29 H -0.6397 0.8672 0.5615
C33 C -0.5408(3) 0.6852(2) 0.5718(2)
H30 H -0.6207 0.6631 0.6164
C34 C -0.4141(3) 0.5986(2) 0.5385(2)
H31 H -0.4092 0.5185 0.5609
C35 C -0.0351(3) 0.5759(2) 0.3620(2)
C36 C -0.0494(3) 0.7013(2) 0.3322(2)
C37 C -0.2995(3) 0.7532(2) 0.4380(2)
C38 C -0.2880(3) 0.6284(2) 0.4697(2)
N1 N 0.1505(2) 0.07367(18) 0.30686(16)
N2 N 0.2225(2) -0.00714(18) 0.22597(17)
N3 N -0.0967(2) 0.22309(17) 0.41351(17)
N4 N -0.0940(2) 0.34016(18) 0.38326(17)
O1 O -0.08737(18) 0.03148(15) 0.34576(15)
P1 P -0.01920(6) 0.12645(5) 0.31546(5)
loop_
_geom_bond_atom_site_label_1
_geom_bond_atom_site_label_2
_geom_bond_site_symmetry_1
_geom_bond_site_symmetry_2
C1 C2 1_555 1_555
C2 H1 1_555 1_555
C3 C2 1_555 1_555
H2 C3 1_555 1_555
C4 C3 1_555 1_555
H3 C4 1_555 1_555
C5 C4 1_555 1_555
H4 C5 1_555 1_555
C6 C1 1_555 1_555
H5 C6 1_555 1_555
C7 H6 1_555 1_555
H7 C7 1_555 1_555
H8 C7 1_555 1_555
C8 H9 1_555 1_555
C9 C8 1_555 1_555
C10 H10 1_555 1_555
C11 C10 1_555 1_555
H11 C11 1_555 1_555
C12 C11 1_555 1_555
H12 C12 1_555 1_555
C13 C12 1_555 1_555
H13 C13 1_555 1_555
C14 H14 1_555 1_555
C15 H15 1_555 1_555
C16 C15 1_555 1_555
H16 C16 1_555 1_555
C17 C16 1_555 1_555
H17 C17 1_555 1_555
C18 C17 1_555 1_555
H18 C18 1_555 1_555
C19 C9 1_555 1_555
C20 C13 1_555 1_555
C21 C14 1_555 1_555
C22 C9 1_555 1_555
C23 H19 1_555 1_555
H20 C23 1_555 1_555
H21 C23 1_555 1_555
C24 H22 1_555 1_555
C25 C24 1_555 1_555
C26 H23 1_555 1_555
C27 C26 1_555 1_555
H24 C27 1_555 1_555
C28 C27 1_555 1_555
H25 C28 1_555 1_555
C29 C28 1_555 1_555
H26 C29 1_555 1_555
C30 H27 1_555 1_555
C31 H28 1_555 1_555
C32 C31 1_555 1_555
H29 C32 1_555 1_555
C33 C32 1_555 1_555
H30 C33 1_555 1_555
C34 C33 1_555 1_555
H31 C34 1_555 1_555
C35 C25 1_555 1_555
C36 C29 1_555 1_555
C37 C30 1_555 1_555
C38 C25 1_555 1_555
N1 C7 1_555 1_555
N2 C8 1_555 1_555
N3 C23 1_555 1_555
N4 C24 1_555 1_555
O1 P1 1_555 1_555
P1 C1 1_555 1_555
C5 C6 1_555 1_555
C10 C19 1_555 1_555
C14 C20 1_555 1_555
C15 C21 1_555 1_555
C18 C22 1_555 1_555
C19 C20 1_555 1_555
C21 C22 1_555 1_555
C26 C35 1_555 1_555
C30 C36 1_555 1_555
C31 C37 1_555 1_555
C34 C38 1_555 1_555
C35 C36 1_555 1_555
C37 C38 1_555 1_555
N1 N2 1_555 1_555
N1 P1 1_555 1_555
N3 N4 1_555 1_555
N3 P1 1_555 1_555

#END
