
#######################################################################
#
#                 Cambridge Crystallographic Data Centre
#                                CCDC 
#
#######################################################################
#
# If this CIF has been generated from an entry in the Cambridge 
# Structural Database, then it will include bibliographic, chemical, 
# crystal, experimental, refinement or atomic coordinate data resulting 
# from the CCDC's data processing and validation procedures.
#
#######################################################################

data_UYOPII
_chemical_formula_moiety         'C29 H22 Br2 O8'
_chemical_name_systematic        
'4-Methoxy-8-oxo-12-(2-oxopropyl)-11-oxatricyclo-[7.2.1.0^2,7^]dodeca-2,4,6-triene-3,6-diyl bis(4-bromobenzoate)'
_symmetry_cell_setting           triclinic
_symmetry_space_group_name_H-M   'P 1'
_symmetry_Int_Tables_number      1
_space_group_name_Hall           'P 1'
loop_
_symmetry_equiv_pos_site_id
_symmetry_equiv_pos_as_xyz
1 x,y,z
_cell_length_a                   9.3789(8)
_cell_length_b                   12.2707(11)
_cell_length_c                   14.6566(13)
_cell_angle_alpha                100.085(3)
_cell_angle_beta                 102.659(6)
_cell_angle_gamma                107.425(6)
_cell_volume                     1516.83
_exptl_crystal_colour            colorless
_exptl_crystal_description       prism
_cell_formula_units_Z            2
loop_
_atom_site_label
_atom_site_type_symbol
_atom_site_fract_x
_atom_site_fract_y
_atom_site_fract_z
Br1 Br -0.4329(15) 0.9994(16) 0.8803(9)
Br2 Br -0.1880(15) -0.4427(16) 0.3578(9)
O1 O -0.4201(18) 0.3829(18) 0.5055(11)
O2 O -0.2890(18) 0.5130(17) 0.6913(10)
C1 C -0.332(2) -0.2206(19) 0.5351(14)
H1 H -0.4027 -0.2279 0.5738
C3 C -0.309(2) -0.324(2) 0.4835(13)
H2 H -0.3554 -0.3989 0.4962
O4 O -0.1902(18) 0.0954(17) 0.5629(11)
O5 O -0.3558(19) -0.0097(18) 0.6321(11)
C6 C -0.423(2) 0.6320(19) 0.7498(12)
C8 C -0.272(2) 0.4001(18) 0.6619(12)
C9 C -0.297(2) 0.7292(19) 0.7622(13)
H3 H -0.2081 0.7191 0.7449
C13 C -0.420(2) 0.508(2) 0.7127(12)
C14 C -0.144(2) 0.2624(19) 0.6999(13)
C17 C -0.334(2) 0.3422(19) 0.5651(12)
O10 O -0.5274(18) 0.4183(18) 0.7030(11)
C20 C -0.217(2) -0.3106(19) 0.4220(13)
C21 C -0.252(2) -0.1104(19) 0.5214(13)
C24 C -0.301(2) 0.842(2) 0.7999(13)
H10 H -0.2108 0.9113 0.8108
C25 C -0.554(2) 0.641(2) 0.7680(12)
H11 H -0.6436 0.5715 0.7551
C26 C -0.433(2) 0.8420(19) 0.8178(12)
C28 C -0.313(2) 0.2358(19) 0.5348(13)
H13 H -0.3638 0.1890 0.4693
O12 O 0.1294(18) 0.6851(17) 0.8801(11)
C31 C -0.181(2) 0.3678(19) 0.7290(13)
C34 C -0.162(2) -0.0966(19) 0.4609(13)
H16 H -0.1089 -0.0185 0.4561
C35 C -0.143(2) -0.1988(19) 0.4084(13)
H17 H -0.0847 -0.1942 0.3621
C37 C -0.107(2) 0.441(2) 0.8320(13)
H19 H -0.1163 0.5181 0.8440
C38 C -0.277(2) -0.0062(19) 0.5792(14)
O13 O -0.004(2) 0.1421(19) 0.7534(12)
C40 C -0.563(2) 0.751(2) 0.8044(12)
H20 H -0.6578 0.7552 0.8167
C42 C -0.478(2) 0.3235(19) 0.4077(12)
H21 H -0.5454 0.3591 0.3756
H22 H -0.5353 0.2417 0.3998
H23 H -0.3927 0.3299 0.3799
C46 C -0.036(2) 0.231(2) 0.7700(15)
C47 C -0.213(2) 0.1989(19) 0.6024(14)
C50 C 0.188(2) 0.664(2) 0.9541(12)
O15 O -0.1832(19) 0.3755(18) 0.8934(11)
C51 C 0.062(2) 0.4447(19) 0.8626(13)
H31 H 0.1189 0.4645 0.8173
C53 C 0.154(2) 0.533(2) 0.9607(13)
H34 H 0.2498 0.5203 0.9851
H35 H 0.0907 0.5181 1.0036
C54 C 0.291(3) 0.752(2) 1.0364(15)
H36 H 0.2755 0.7297 1.0940
H37 H 0.2728 0.8248 1.0354
H38 H 0.3966 0.7627 1.0356
C55 C 0.026(3) 0.311(2) 0.8698(13)
H39 H 0.1219 0.3061 0.9048
C56 C -0.103(3) 0.290(2) 0.9179(17)
H40 H -0.0633 0.3082 0.9871
H41 H -0.1753 0.2106 0.8936
Br3 Br 0.0877(15) 0.8838(16) 0.6888(9)
Br4 Br 0.3059(15) -0.5769(16) 0.1835(9)
O3 O 0.1116(18) 0.3457(17) 0.5043(10)
C2 C 0.098(2) 0.0822(19) 0.3350(12)
C4 C 0.136(2) 0.2415(19) 0.4627(12)
O6 O 0.1931(18) -0.0712(17) 0.3659(10)
C5 C 0.120(2) 0.748(2) 0.6250(12)
C7 C 0.181(2) 0.039(2) 0.3980(13)
C10 C 0.454(2) -0.215(2) 0.2924(13)
H4 H 0.5468 -0.1483 0.3035
C11 C 0.244(2) 0.0996(19) 0.4946(13)
C12 C 0.014(2) 0.057(2) 0.0630(13)
H5 H -0.0710 -0.0178 0.0427
H6 H -0.0129 0.1093 0.0268
O7 O 0.2847(19) 0.4524(18) 0.4381(11)
O8 O 0.4394(19) 0.0119(18) 0.3598(11)
C15 C 0.323(2) -0.1948(19) 0.3141(12)
O9 O 0.3299(18) 0.0482(17) 0.5508(10)
C16 C 0.312(2) -0.4304(19) 0.2348(13)
C18 C 0.041(2) 0.645(2) 0.6364(13)
H7 H -0.0346 0.6390 0.6714
O11 O -0.1414(19) -0.0464(18) 0.2043(11)
C19 C 0.196(2) 0.449(2) 0.4867(13)
C22 C 0.444(2) -0.333(2) 0.2552(13)
H8 H 0.5344 -0.3481 0.2439
C23 C 0.219(2) 0.2009(19) 0.5270(13)
H9 H 0.2576 0.2438 0.5940
C27 C -0.084(2) 0.156(2) 0.1931(14)
H12 H -0.1109 0.1997 0.1483
C29 C 0.333(2) -0.0733(19) 0.3493(12)
C30 C 0.227(2) 0.764(2) 0.5688(12)
H14 H 0.2820 0.8429 0.5660
C32 C 0.067(2) 0.5428(18) 0.5919(12)
H15 H 0.0196 0.4682 0.6046
C33 C 0.168(2) 0.551(2) 0.5355(12)
C36 C 0.189(2) -0.292(2) 0.2975(14)
H18 H 0.0981 -0.2814 0.3126
O14 O -0.0555(19) 0.3180(18) 0.3191(11)
C39 C 0.072(2) 0.1889(19) 0.3684(12)
C41 C -0.023(2) 0.2294(19) 0.2954(13)
C43 C 0.244(2) 0.662(2) 0.5259(12)
H24 H 0.3111 0.6646 0.4845
C44 C 0.025(2) 0.0172(19) 0.2272(12)
H25 H 0.0745 -0.0383 0.2112
C45 C 0.181(2) -0.409(2) 0.2589(14)
H26 H 0.0861 -0.4724 0.2505
C48 C 0.040(2) 0.1067(19) 0.1671(12)
H27 H 0.1388 0.1703 0.1882
C49 C 0.402(2) 0.112(2) 0.6548(14)
H28 H 0.4444 0.0645 0.6903
H29 H 0.3238 0.1299 0.6810
H30 H 0.4834 0.1839 0.6599
C52 C -0.221(2) 0.035(2) 0.1827(14)
H32 H -0.2927 0.0031 0.1188
H33 H -0.2770 0.0443 0.2292
C57 C 0.146(3) 0.035(3) 0.0376(15)
O16 O 0.2649 0.0485 0.1016
C58 C 0.135(3) -0.011(2) -0.0646(14)
H42 H 0.2281 0.0316 -0.0785
H43 H 0.0462 -0.0029 -0.1059
H44 H 0.1230 -0.0935 -0.0760
loop_
_geom_bond_atom_site_label_1
_geom_bond_atom_site_label_2
_geom_bond_site_symmetry_1
_geom_bond_site_symmetry_2
Br1 C26 1_555 1_555
Br2 C20 1_555 1_555
Br3 C5 1_555 1_555
Br4 C16 1_555 1_555
O1 C17 1_555 1_555
O2 C8 1_555 1_555
O3 C4 1_555 1_555
C1 H1 1_555 1_555
C2 C7 1_555 1_555
C3 C1 1_555 1_555
H2 C3 1_555 1_555
O4 C38 1_555 1_555
O5 C38 1_555 1_555
C4 C23 1_555 1_555
O6 C7 1_555 1_555
C5 C18 1_555 1_555
C6 C9 1_555 1_555
C7 C11 1_555 1_555
C8 C17 1_555 1_555
C9 H3 1_555 1_555
C10 H4 1_555 1_555
C11 O9 1_555 1_555
C12 H5 1_555 1_555
H6 C12 1_555 1_555
O7 C19 1_555 1_555
C13 O2 1_555 1_555
O8 C29 1_555 1_555
C14 C31 1_555 1_555
C15 C10 1_555 1_555
O9 C49 1_555 1_555
C16 C22 1_555 1_555
C17 C28 1_555 1_555
C18 H7 1_555 1_555
O10 C13 1_555 1_555
O11 C44 1_555 1_555
C19 O3 1_555 1_555
C20 C3 1_555 1_555
C21 C1 1_555 1_555
C22 C10 1_555 1_555
H8 C22 1_555 1_555
C23 C11 1_555 1_555
H9 C23 1_555 1_555
C24 C9 1_555 1_555
H10 C24 1_555 1_555
C25 C6 1_555 1_555
H11 C25 1_555 1_555
C26 C24 1_555 1_555
C27 H12 1_555 1_555
C28 H13 1_555 1_555
O12 C50 1_555 1_555
C29 O6 1_555 1_555
C30 C5 1_555 1_555
H14 C30 1_555 1_555
C31 C8 1_555 1_555
C32 C18 1_555 1_555
H15 C32 1_555 1_555
C33 C19 1_555 1_555
C34 C21 1_555 1_555
H16 C34 1_555 1_555
C35 C20 1_555 1_555
H17 C35 1_555 1_555
C36 C15 1_555 1_555
H18 C36 1_555 1_555
C37 C31 1_555 1_555
H19 C37 1_555 1_555
C38 C21 1_555 1_555
O13 C46 1_555 1_555
O14 C41 1_555 1_555
C39 C2 1_555 1_555
C40 C25 1_555 1_555
H20 C40 1_555 1_555
C41 C27 1_555 1_555
C42 O1 1_555 1_555
H21 C42 1_555 1_555
H22 C42 1_555 1_555
H23 C42 1_555 1_555
C43 C30 1_555 1_555
H24 C43 1_555 1_555
C44 C2 1_555 1_555
H25 C44 1_555 1_555
C45 C16 1_555 1_555
H26 C45 1_555 1_555
C46 C14 1_555 1_555
C47 O4 1_555 1_555
C48 C12 1_555 1_555
H27 C48 1_555 1_555
C49 H28 1_555 1_555
H29 C49 1_555 1_555
H30 C49 1_555 1_555
C50 C53 1_555 1_555
O15 C37 1_555 1_555
C51 C37 1_555 1_555
H31 C51 1_555 1_555
C52 O11 1_555 1_555
H32 C52 1_555 1_555
H33 C52 1_555 1_555
C53 C51 1_555 1_555
H34 C53 1_555 1_555
H35 C53 1_555 1_555
C54 C50 1_555 1_555
H36 C54 1_555 1_555
H37 C54 1_555 1_555
H38 C54 1_555 1_555
C55 C46 1_555 1_555
H39 C55 1_555 1_555
C56 O15 1_555 1_555
H40 C56 1_555 1_555
H41 C56 1_555 1_555
C57 C12 1_555 1_555
O16 C57 1_555 1_555
C58 C57 1_555 1_555
H42 C58 1_555 1_555
H43 C58 1_555 1_555
H44 C58 1_555 1_555
C4 C39 1_555 1_555
C6 C13 1_555 1_555
C14 C47 1_555 1_555
C15 C29 1_555 1_555
C26 C40 1_555 1_555
C27 C48 1_555 1_555
C27 C52 1_555 1_555
C28 C47 1_555 1_555
C32 C33 1_555 1_555
C33 C43 1_555 1_555
C34 C35 1_555 1_555
C36 C45 1_555 1_555
C39 C41 1_555 1_555
C44 C48 1_555 1_555
C51 C55 1_555 1_555
C55 C56 1_555 1_555

#END
