
#######################################################################
#
#                 Cambridge Crystallographic Data Centre
#                                CCDC 
#
#######################################################################
#
# If this CIF has been generated from an entry in the Cambridge 
# Structural Database, then it will include bibliographic, chemical, 
# crystal, experimental, refinement or atomic coordinate data resulting 
# from the CCDC's data processing and validation procedures.
#
#######################################################################

data_UYUFIF
_chemical_formula_moiety         'C19 H12 Cl1 N1'
_chemical_name_systematic        2-chloro-9-phenylacridine
_symmetry_cell_setting           triclinic
_symmetry_space_group_name_H-M   'P -1'
_symmetry_Int_Tables_number      2
_space_group_name_Hall           '-P 1'
loop_
_symmetry_equiv_pos_site_id
_symmetry_equiv_pos_as_xyz
1 x,y,z
2 -x,-y,-z
_cell_length_a                   7.5233(11)
_cell_length_b                   9.2661(15)
_cell_length_c                   11.5013(15)
_cell_angle_alpha                109.068(14)
_cell_angle_beta                 96.475(12)
_cell_angle_gamma                105.036(13)
_cell_volume                     714.498
_exptl_crystal_colour            yellow
_exptl_crystal_description       parallelepiped
_cell_formula_units_Z            2
loop_
_atom_site_label
_atom_site_type_symbol
_atom_site_fract_x
_atom_site_fract_y
_atom_site_fract_z
Cl1 Cl 1.1899(2) 1.51573(17) 0.41433(14)
N1 N 0.7758(6) 1.0491(5) -0.0884(4)
C1 C 0.8683(6) 1.1523(6) 0.0306(5)
C2 C 0.9868(7) 1.3068(6) 0.0464(5)
H1 H 0.9989 1.3341 -0.0239
C3 C 1.0831(7) 1.4159(6) 0.1624(5)
H2 H 1.1594 1.5174 0.1718
C4 C 1.0653(7) 1.3729(6) 0.2678(5)
C5 C 0.9590(6) 1.2278(6) 0.2594(5)
H3 H 0.9516 1.2045 0.3318
C6 C 0.8569(6) 1.1087(6) 0.1389(5)
C7 C 0.7439(6) 0.9560(6) 0.1236(4)
C8 C 0.6410(6) 0.8501(6) 0.0002(5)
C9 C 0.5181(6) 0.6921(6) -0.0266(5)
H4 H 0.5000 0.6559 0.0390
C10 C 0.4258(7) 0.5922(7) -0.1482(5)
H5 H 0.3463 0.4894 -0.1641
C11 C 0.4514(8) 0.6451(7) -0.2485(5)
H6 H 0.3892 0.5768 -0.3304
C12 C 0.5658(8) 0.7946(7) -0.2265(5)
H7 H 0.5804 0.8278 -0.2939
C13 C 0.6654(7) 0.9034(6) -0.1015(4)
C14 C 0.7345(7) 0.9006(5) 0.2312(4)
C15 C 0.8919(7) 0.8730(6) 0.2834(5)
H8 H 1.0009 0.8898 0.2518
C16 C 0.8850(9) 0.8197(7) 0.3839(5)
H9 H 0.9896 0.7997 0.4184
C17 C 0.7276(10) 0.7968(6) 0.4319(5)
H10 H 0.7234 0.7596 0.4978
C18 C 0.5746(9) 0.8293(6) 0.3819(6)
H11 H 0.4687 0.8180 0.4169
C19 C 0.5755(7) 0.8785(6) 0.2802(5)
H12 H 0.4694 0.8965 0.2455
loop_
_geom_bond_atom_site_label_1
_geom_bond_atom_site_label_2
_geom_bond_site_symmetry_1
_geom_bond_site_symmetry_2
Cl1 C4 1_555 1_555
N1 C1 1_555 1_555
C1 C2 1_555 1_555
C2 H1 1_555 1_555
C3 C2 1_555 1_555
H2 C3 1_555 1_555
C4 C3 1_555 1_555
C5 C4 1_555 1_555
H3 C5 1_555 1_555
C6 C1 1_555 1_555
C7 C6 1_555 1_555
C8 C7 1_555 1_555
C9 C8 1_555 1_555
H4 C9 1_555 1_555
C10 C9 1_555 1_555
H5 C10 1_555 1_555
C11 C10 1_555 1_555
H6 C11 1_555 1_555
C12 C11 1_555 1_555
H7 C12 1_555 1_555
C13 N1 1_555 1_555
C14 C7 1_555 1_555
C15 C14 1_555 1_555
H8 C15 1_555 1_555
C16 C15 1_555 1_555
H9 C16 1_555 1_555
C17 C16 1_555 1_555
H10 C17 1_555 1_555
C18 C17 1_555 1_555
H11 C18 1_555 1_555
C19 C14 1_555 1_555
H12 C19 1_555 1_555
C5 C6 1_555 1_555
C8 C13 1_555 1_555
C12 C13 1_555 1_555
C18 C19 1_555 1_555

#END
