
#######################################################################
#
#                 Cambridge Crystallographic Data Centre
#                                CCDC 
#
#######################################################################
#
# If this CIF has been generated from an entry in the Cambridge 
# Structural Database, then it will include bibliographic, chemical, 
# crystal, experimental, refinement or atomic coordinate data resulting 
# from the CCDC's data processing and validation procedures.
#
#######################################################################

data_UYUFUR
_chemical_formula_moiety         'C19 H15 N1 O1'
_chemical_name_systematic        9-phenyl-2,3-dihydroacridin-4(1H)-one
_symmetry_cell_setting           triclinic
_symmetry_space_group_name_H-M   'P -1'
_symmetry_Int_Tables_number      2
_space_group_name_Hall           '-P 1'
loop_
_symmetry_equiv_pos_site_id
_symmetry_equiv_pos_as_xyz
1 x,y,z
2 -x,-y,-z
_cell_length_a                   8.2767(7)
_cell_length_b                   8.6984(6)
_cell_length_c                   11.4987(9)
_cell_angle_alpha                110.318(2)
_cell_angle_beta                 90.656(3)
_cell_angle_gamma                115.299(3)
_cell_volume                     689.287
_exptl_crystal_colour            brown
_exptl_crystal_description       parallelepiped
_cell_formula_units_Z            2
loop_
_atom_site_label
_atom_site_type_symbol
_atom_site_fract_x
_atom_site_fract_y
_atom_site_fract_z
O1 O 0.1790(2) 0.49565(19) 0.26265(12)
N1 N 0.39201(18) 0.69798(18) 0.49577(12)
C1 C 0.4829(2) 0.8015(2) 0.61702(14)
C2 C 0.6069(2) 0.9913(2) 0.64990(17)
H1 H 0.6263 1.0411 0.5868
C3 C 0.6979(2) 1.1019(2) 0.77075(17)
H2 H 0.7800 1.2283 0.7914
C4 C 0.6705(2) 1.0294(2) 0.86570(16)
H3 H 0.7349 1.1075 0.9498
C5 C 0.5521(2) 0.8477(2) 0.83755(15)
H4 H 0.5349 0.8014 0.9025
C6 C 0.4548(2) 0.7279(2) 0.71263(14)
C7 C 0.33094(19) 0.5381(2) 0.67739(14)
C8 C 0.2374(2) 0.4344(2) 0.55436(14)
C9 C 0.0992(2) 0.2338(2) 0.51249(15)
H5 H 0.1632 0.1568 0.4912
H6 H 0.0378 0.2152 0.5834
C10 C -0.0422(2) 0.1702(2) 0.39980(17)
H7 H -0.1202 0.2319 0.4245
H8 H -0.1205 0.0354 0.3705
C11 C 0.0469(3) 0.2146(2) 0.29321(16)
H9 H 0.1200 0.1478 0.2659
H10 H -0.0485 0.1713 0.2203
C12 C 0.1677(2) 0.4182(2) 0.33286(15)
C13 C 0.2735(2) 0.5233(2) 0.46709(14)
C14 C 0.30141(19) 0.45389(19) 0.77366(13)
C15 C 0.1977(2) 0.4901(2) 0.86355(15)
H11 H 0.1453 0.5682 0.8635
C16 C 0.1702(2) 0.4130(2) 0.95361(16)
H12 H 0.0999 0.4390 1.0153
C17 C 0.2457(2) 0.2980(2) 0.95307(15)
H13 H 0.2259 0.2438 1.0139
C18 C 0.3493(2) 0.2620(2) 0.86457(15)
H14 H 0.4015 0.1838 0.8650
C19 C 0.3780(2) 0.3395(2) 0.77461(14)
H15 H 0.4498 0.3145 0.7139
loop_
_geom_bond_atom_site_label_1
_geom_bond_atom_site_label_2
_geom_bond_site_symmetry_1
_geom_bond_site_symmetry_2
O1 C12 1_555 1_555
N1 C1 1_555 1_555
C1 C2 1_555 1_555
C2 H1 1_555 1_555
C3 C2 1_555 1_555
H2 C3 1_555 1_555
C4 C3 1_555 1_555
H3 C4 1_555 1_555
C5 C4 1_555 1_555
H4 C5 1_555 1_555
C6 C1 1_555 1_555
C7 C6 1_555 1_555
C8 C7 1_555 1_555
C9 C8 1_555 1_555
H5 C9 1_555 1_555
H6 C9 1_555 1_555
C10 C9 1_555 1_555
H7 C10 1_555 1_555
H8 C10 1_555 1_555
C11 C10 1_555 1_555
H9 C11 1_555 1_555
H10 C11 1_555 1_555
C12 C11 1_555 1_555
C13 N1 1_555 1_555
C14 C7 1_555 1_555
C15 C14 1_555 1_555
H11 C15 1_555 1_555
C16 C15 1_555 1_555
H12 C16 1_555 1_555
C17 C16 1_555 1_555
H13 C17 1_555 1_555
C18 C17 1_555 1_555
H14 C18 1_555 1_555
C19 C14 1_555 1_555
H15 C19 1_555 1_555
C5 C6 1_555 1_555
C8 C13 1_555 1_555
C12 C13 1_555 1_555
C18 C19 1_555 1_555

#END
