
#######################################################################
#
#                 Cambridge Crystallographic Data Centre
#                                CCDC 
#
#######################################################################
#
# If this CIF has been generated from an entry in the Cambridge 
# Structural Database, then it will include bibliographic, chemical, 
# crystal, experimental, refinement or atomic coordinate data resulting 
# from the CCDC's data processing and validation procedures.
#
#######################################################################

data_UYUFOL
_chemical_formula_moiety         'C19 H17 N1'
_chemical_name_systematic        9-phenyl-1,2,3,4-tetrahydroacridine
_symmetry_cell_setting           triclinic
_symmetry_space_group_name_H-M   'P -1'
_symmetry_Int_Tables_number      2
_space_group_name_Hall           '-P 1'
loop_
_symmetry_equiv_pos_site_id
_symmetry_equiv_pos_as_xyz
1 x,y,z
2 -x,-y,-z
_cell_length_a                   9.0735(9)
_cell_length_b                   9.1093(10)
_cell_length_c                   9.1688(9)
_cell_angle_alpha                71.085(3)
_cell_angle_beta                 75.202(3)
_cell_angle_gamma                85.168(4)
_cell_volume                     693.129
_exptl_crystal_colour            yellow
_exptl_crystal_description       parallelepiped
_cell_formula_units_Z            2
loop_
_atom_site_label
_atom_site_type_symbol
_atom_site_fract_x
_atom_site_fract_y
_atom_site_fract_z
N1 N 0.2980(2) 0.6733(2) -0.0565(2)
C1 C 0.3180(3) 0.6901(3) 0.0801(3)
C2 C 0.3560(3) 0.8388(3) 0.0781(3)
H1 H 0.3677 0.9233 -0.0176
C3 C 0.3762(3) 0.8624(3) 0.2117(4)
H2 H 0.3996 0.9632 0.2089
C4 C 0.3622(3) 0.7372(3) 0.3534(3)
H3 H 0.3783 0.7535 0.4454
C5 C 0.3254(3) 0.5916(3) 0.3595(3)
H4 H 0.3169 0.5081 0.4557
C6 C 0.2999(3) 0.5642(3) 0.2237(3)
C7 C 0.2527(3) 0.4194(3) 0.2253(3)
C8 C 0.2291(3) 0.4045(3) 0.0874(3)
C9 C 0.1694(4) 0.2564(3) 0.0857(3)
H5 H 0.2225 0.1678 0.1473
H6 H 0.0596 0.2475 0.1399
C10 C 0.1884(4) 0.2440(4) -0.0769(4)
H7 H 0.2960 0.2186 -0.1182
H8 H 0.1244 0.1580 -0.0697
C11 C 0.1456(4) 0.3900(4) -0.1905(3)
H9 H 0.0367 0.4133 -0.1522
H10 H 0.1594 0.3756 -0.2956
C12 C 0.2416(3) 0.5241(3) -0.2071(3)
H11 H 0.3446 0.5138 -0.2728
H12 H 0.1964 0.6215 -0.2646
C13 C 0.2569(3) 0.5366(3) -0.0528(3)
C14 C 0.2224(3) 0.2856(3) 0.3765(3)
C15 C 0.3411(3) 0.1963(3) 0.4286(3)
H13 H 0.4431 0.2198 0.3684
C16 C 0.3119(3) 0.0719(3) 0.5691(3)
H14 H 0.3942 0.0117 0.6042
C17 C 0.1658(3) 0.0357(3) 0.6568(3)
H15 H 0.1463 -0.0501 0.7516
C18 C 0.0475(3) 0.1247(4) 0.6064(3)
H16 H -0.0543 0.1008 0.6672
C19 C 0.0757(3) 0.2496(3) 0.4671(3)
H17 H -0.0070 0.3108 0.4339
loop_
_geom_bond_atom_site_label_1
_geom_bond_atom_site_label_2
_geom_bond_site_symmetry_1
_geom_bond_site_symmetry_2
N1 C1 1_555 1_555
C1 C2 1_555 1_555
C2 H1 1_555 1_555
C3 C2 1_555 1_555
H2 C3 1_555 1_555
C4 C3 1_555 1_555
H3 C4 1_555 1_555
C5 C4 1_555 1_555
H4 C5 1_555 1_555
C6 C1 1_555 1_555
C7 C6 1_555 1_555
C8 C7 1_555 1_555
C9 C8 1_555 1_555
H5 C9 1_555 1_555
H6 C9 1_555 1_555
C10 C9 1_555 1_555
H7 C10 1_555 1_555
H8 C10 1_555 1_555
C11 C10 1_555 1_555
H9 C11 1_555 1_555
H10 C11 1_555 1_555
C12 C11 1_555 1_555
H11 C12 1_555 1_555
H12 C12 1_555 1_555
C13 N1 1_555 1_555
C14 C7 1_555 1_555
C15 C14 1_555 1_555
H13 C15 1_555 1_555
C16 C15 1_555 1_555
H14 C16 1_555 1_555
C17 C16 1_555 1_555
H15 C17 1_555 1_555
C18 C17 1_555 1_555
H16 C18 1_555 1_555
C19 C14 1_555 1_555
H17 C19 1_555 1_555
C5 C6 1_555 1_555
C8 C13 1_555 1_555
C12 C13 1_555 1_555
C18 C19 1_555 1_555

#END
