
#######################################################################
#
#                 Cambridge Crystallographic Data Centre
#                                CCDC 
#
#######################################################################
#
# If this CIF has been generated from an entry in the Cambridge 
# Structural Database, then it will include bibliographic, chemical, 
# crystal, experimental, refinement or atomic coordinate data resulting 
# from the CCDC's data processing and validation procedures.
#
#######################################################################

data_UYUGIG
_chemical_formula_moiety         
'2(C65 H65 N5),C28 H28 N6 O12 P1 1-,C16 H36 N1 1+,6(C1 H1 Cl3)'
_chemical_name_systematic        
'tetra-n-butylammonium [3]-(bis(2-{1-[3,5-bis(methoxycarbonyl)phenyl]-1H-1,2,3-triazol-4-yl}ethyl) phosphate)-bis(6,13,20,27,34-penta-t-butylhexacyclo[30.3.1.1^4,8^.1^11,15^.1^18,22^.1^25,29^]tetraconta-1(36),2,4(40),5,7,9,11(39),12,14,16,18(38),19,21,23,25(37),26,28,30,32,34-icosaene-2,9,16,23,30-pentacarbonitrile)-rotaxane chloroform solvate'
_symmetry_cell_setting           monoclinic
_symmetry_space_group_name_H-M   'C 2/c'
_symmetry_Int_Tables_number      15
_space_group_name_Hall           '-C 2yn'
loop_
_symmetry_equiv_pos_site_id
_symmetry_equiv_pos_as_xyz
1 x,y,z
2 -x,y,1/2-z
3 1/2+x,1/2+y,z
4 1/2-x,1/2+y,1/2-z
5 -x,-y,-z
6 x,-y,1/2+z
7 1/2-x,1/2-y,-z
8 1/2+x,1/2-y,1/2+z
_cell_length_a                   30.3787(16)
_cell_length_b                   19.6365(10)
_cell_length_c                   32.742(3)
_cell_angle_alpha                90
_cell_angle_beta                 109.7191(13)
_cell_angle_gamma                90
_cell_volume                     18386.3
_exptl_crystal_colour            colorless
_exptl_crystal_description       block
_cell_formula_units_Z            4
loop_
_atom_site_label
_atom_site_type_symbol
_atom_site_fract_x
_atom_site_fract_y
_atom_site_fract_z
C1 C 0.64209(17) 0.5775(3) 0.5909(2)
H1 H 0.6165 0.5532 0.5722
C2 C 0.6800(2) 0.5392(3) 0.6093(2)
C3 C 0.7222(4) 0.5724(6) 0.6383(6)
N1 N 0.7558(3) 0.5891(4) 0.6647(4)
C4 C 0.68475(18) 0.4658(3) 0.5997(2)
C5 C 0.65033(19) 0.4335(3) 0.5663(2)
H2 H 0.6231 0.4577 0.5508
C6 C 0.65496(19) 0.3664(4) 0.5550(2)
C7 C 0.6950(3) 0.3298(5) 0.5797(3)
H3 H 0.6978 0.2837 0.5731
C8 C 0.7302(4) 0.3596(7) 0.6133(5)
C9 C 0.7242(3) 0.4285(4) 0.6230(4)
H4 H 0.7477 0.4497 0.6459
C10 C 0.7759(3) 0.3227(6) 0.6375(3)
C11 C 0.8036(4) 0.3123(7) 0.6054(4)
H5 H 0.7851 0.2850 0.5810
H6 H 0.8100 0.3563 0.5952
H7 H 0.8328 0.2892 0.6203
C12 C 0.8065(3) 0.3657(5) 0.6752(3)
H8 H 0.8116 0.4100 0.6645
H9 H 0.7910 0.3713 0.6965
H10 H 0.8363 0.3432 0.6885
C13 C 0.7683(5) 0.2533(5) 0.6551(4)
H11 H 0.7489 0.2254 0.6314
H12 H 0.7983 0.2312 0.6685
H13 H 0.7530 0.2593 0.6765
C14 C 0.61779(18) 0.3390(3) 0.51741(19)
H14 H 0.5899 0.3643 0.5093
C15 C 0.6163(2) 0.2845(3) 0.4926(2)
C16 C 0.6569(9) 0.2386(16) 0.5032(14)
N2 N 0.6850(3) 0.1992(6) 0.5091(4)
C17 C 0.57696(19) 0.2671(3) 0.4525(2)
C18 C 0.54205(19) 0.3141(3) 0.4343(2)
H15 H 0.5430 0.3565 0.4479
C19 C 0.5050(2) 0.2997(3) 0.3957(2)
C20 C 0.5035(3) 0.2347(4) 0.3775(3)
H16 H 0.4787 0.2241 0.3521
C21 C 0.5368(5) 0.1860(6) 0.3954(5)
C22 C 0.5743(3) 0.2042(5) 0.4328(4)
H17 H 0.5984 0.1725 0.4448
C23 C 0.5346(4) 0.1150(5) 0.3757(4)
C24 C 0.4841(4) 0.0928(7) 0.3512(6)
H18 H 0.4666 0.0916 0.3711
H19 H 0.4696 0.1250 0.3281
H20 H 0.4842 0.0478 0.3390
C25 C 0.5595(4) 0.1157(5) 0.3428(4)
H21 H 0.5581 0.0707 0.3303
H22 H 0.5444 0.1482 0.3201
H23 H 0.5919 0.1286 0.3570
C26 C 0.5579(4) 0.0636(5) 0.4116(4)
H24 H 0.5418 0.0634 0.4326
H25 H 0.5564 0.0186 0.3991
H26 H 0.5904 0.0763 0.4259
C27 C 0.47089(18) 0.3534(3) 0.37854(19)
H27 H 0.4707 0.3875 0.3987
C28 C 0.4394(2) 0.3625(3) 0.3384(2)
C29 C 0.4333(10) 0.3084(11) 0.3063(5)
N3 N 0.4289(5) 0.2758(7) 0.2764(4)
C30 C 0.40883(19) 0.4235(3) 0.3254(2)
C31 C 0.4193(2) 0.4834(3) 0.3486(2)
H28 H 0.4467 0.4860 0.3730
C32 C 0.3904(2) 0.5400(3) 0.3370(2)
C33 C 0.3491(4) 0.5351(4) 0.3009(4)
H29 H 0.3282 0.5721 0.2939
C34 C 0.3386(4) 0.4775(7) 0.2756(4)
C35 C 0.3682(3) 0.4203(5) 0.2885(3)
H30 H 0.3607 0.3798 0.2723
C36 C 0.2957(4) 0.4742(6) 0.2341(3)
C37 C 0.3048(4) 0.5150(5) 0.1980(3)
H31 H 0.3115 0.5619 0.2072
H32 H 0.3312 0.4956 0.1919
H33 H 0.2773 0.5132 0.1721
C38 C 0.2520(6) 0.5034(9) 0.2412(7)
H34 H 0.2574 0.5507 0.2500
H35 H 0.2256 0.5003 0.2144
H36 H 0.2453 0.4775 0.2637
C39 C 0.2851(4) 0.4008(5) 0.2206(4)
H37 H 0.2795 0.3756 0.2438
H38 H 0.2576 0.3987 0.1947
H39 H 0.3115 0.3811 0.2145
C40 C 0.40506(18) 0.5994(3) 0.3643(2)
H40 H 0.4302 0.5912 0.3900
C41 C 0.3897(2) 0.6646(3) 0.3602(2)
C42 C 0.3498(8) 0.6835(7) 0.3221(8)
N4 N 0.3211(4) 0.7064(4) 0.2932(3)
C43 C 0.41008(19) 0.7188(3) 0.3929(2)
C44 C 0.4492(2) 0.7068(3) 0.4290(2)
H41 H 0.4628 0.6632 0.4330
C45 C 0.4688(2) 0.7576(3) 0.4596(2)
C46 C 0.4479(3) 0.8222(4) 0.4528(4)
H42 H 0.4610 0.8569 0.4731
C47 C 0.4087(6) 0.8364(5) 0.4175(5)
C48 C 0.3900(3) 0.7834(4) 0.3872(3)
H43 H 0.3635 0.7920 0.3628
C49 C 0.3853(5) 0.9062(6) 0.4112(5)
C50 C 0.3855(9) 0.9369(8) 0.4542(6)
H44 H 0.4174 0.9400 0.4741
H45 H 0.3717 0.9821 0.4491
H46 H 0.3674 0.9082 0.4668
C51 C 0.3349(4) 0.9024(11) 0.3814(6)
H47 H 0.3211 0.9475 0.3781
H48 H 0.3338 0.8854 0.3533
H49 H 0.3176 0.8720 0.3937
C52 C 0.4128(5) 0.9529(9) 0.3910(7)
H50 H 0.4451 0.9555 0.4101
H51 H 0.4116 0.9348 0.3631
H52 H 0.3991 0.9981 0.3871
C53 C 0.51046(19) 0.7377(3) 0.4960(2)
H53 H 0.5172 0.6908 0.4974
C54 C 0.5408(2) 0.7750(3) 0.5278(2)
C55 C 0.5342(9) 0.8483(5) 0.5271(8)
N5 N 0.5320(4) 0.9045(4) 0.5337(6)
C56 C 0.58203(19) 0.7466(3) 0.56180(19)
C57 C 0.59317(19) 0.6763(3) 0.56317(19)
H54 H 0.5733 0.6466 0.5425
C58 C 0.6327(2) 0.6506(3) 0.5943(2)
C59 C 0.6611(2) 0.6944(4) 0.6264(3)
H55 H 0.6868 0.6764 0.6486
C60 C 0.6520(5) 0.7632(5) 0.6260(5)
C61 C 0.6115(3) 0.7883(4) 0.5939(3)
H56 H 0.6040 0.8347 0.5942
C62 C 0.6824(4) 0.8141(5) 0.6589(4)
C63 C 0.6543(6) 0.8413(8) 0.6870(5)
H57 H 0.6245 0.8591 0.6683
H58 H 0.6489 0.8046 0.7046
H59 H 0.6718 0.8774 0.7058
C64 C 0.6914(4) 0.8761(5) 0.6341(4)
H60 H 0.6618 0.8945 0.6155
H61 H 0.7083 0.9106 0.6546
H62 H 0.7099 0.8622 0.6165
C65 C 0.7288(4) 0.7864(7) 0.6874(4)
H63 H 0.7458 0.8216 0.7073
H64 H 0.7236 0.7479 0.7039
H65 H 0.7468 0.7717 0.6696
N6 N 0.5000 0.5334(3) 0.2500
C66 C 0.48000(15) 0.4902(2) 0.20917(15)
H66 H 0.4653 0.5208 0.1847
H67 H 0.5061 0.4675 0.2035
C67 C 0.44451(18) 0.4363(3) 0.21003(19)
H68 H 0.4581 0.4060 0.2349
H69 H 0.4169 0.4582 0.2133
C68 C 0.4306(2) 0.3961(3) 0.1690(2)
H70 H 0.4591 0.3795 0.1647
H71 H 0.4151 0.4269 0.1449
C69 C 0.3991(3) 0.3365(4) 0.1662(3)
H72 H 0.4136 0.3056 0.1901
H73 H 0.3937 0.3131 0.1389
H74 H 0.3695 0.3523 0.1679
C70 C 0.46224(15) 0.5771(2) 0.25767(15)
H75 H 0.4384 0.5466 0.2616
H76 H 0.4763 0.6017 0.2850
C71 C 0.43807(19) 0.6280(3) 0.22322(17)
H77 H 0.4242 0.6047 0.1954
H78 H 0.4609 0.6610 0.2201
C72 C 0.40023(19) 0.6650(3) 0.2350(2)
H79 H 0.3769 0.6317 0.2366
H80 H 0.4142 0.6851 0.2638
C73 C 0.3762(3) 0.7193(5) 0.2042(3)
H81 H 0.3932 0.7618 0.2126
H82 H 0.3447 0.7249 0.2047
H83 H 0.3750 0.7070 0.1752
C66A C 0.52000(15) 0.4902(2) 0.29083(15)
H66A H 0.5347 0.5208 0.3153
H67A H 0.4939 0.4675 0.2965
C67A C 0.55549(18) 0.4363(3) 0.28997(19)
H68A H 0.5419 0.4060 0.2651
H69A H 0.5831 0.4582 0.2867
C68A C 0.5694(2) 0.3961(3) 0.3310(2)
H70A H 0.5409 0.3795 0.3353
H71A H 0.5849 0.4269 0.3551
C69A C 0.6009(3) 0.3365(4) 0.3338(3)
H72A H 0.5864 0.3056 0.3099
H73A H 0.6063 0.3131 0.3611
H74A H 0.6305 0.3523 0.3321
C70A C 0.53776(15) 0.5771(2) 0.24233(15)
H75A H 0.5616 0.5466 0.2384
H76A H 0.5237 0.6017 0.2150
C71A C 0.56193(19) 0.6280(3) 0.27678(17)
H77A H 0.5758 0.6047 0.3046
H78A H 0.5391 0.6610 0.2799
C72A C 0.59977(19) 0.6650(3) 0.2650(2)
H79A H 0.6231 0.6317 0.2634
H80A H 0.5858 0.6851 0.2362
C73A C 0.6238(3) 0.7193(5) 0.2958(3)
H81A H 0.6068 0.7618 0.2874
H82A H 0.6553 0.7249 0.2953
H83A H 0.6250 0.7070 0.3248
P1 P 0.5000 0.5000 0.5000
C74 C 0.5639(4) 0.5420(6) 0.4710(4)
H84 H 0.5374 0.5696 0.4534
H85 H 0.5872 0.5727 0.4903
C75 C 0.5816(2) 0.5111(3) 0.4466(2)
H86 H 0.5565 0.4937 0.4213
H87 H 0.5995 0.4719 0.4623
C76 C 0.61301(18) 0.5554(2) 0.43158(17)
C77 C 0.65333(18) 0.5879(2) 0.45508(17)
H88 H 0.6700 0.5833 0.4849
N7 N 0.60206(16) 0.5738(3) 0.39030(15)
N8 N 0.63347(17) 0.6183(3) 0.38710(15)
N9 N 0.66390(13) 0.62743(19) 0.42658(12)
C78 C 0.70261(15) 0.6745(2) 0.43474(15)
C79 C 0.74673(16) 0.6502(3) 0.45682(15)
H89 H 0.7514 0.6040 0.4646
C80 C 0.78452(16) 0.6954(3) 0.46751(16)
C81 C 0.77646(16) 0.7629(3) 0.45588(16)
H90 H 0.8018 0.7934 0.4628
C82 C 0.73145(16) 0.7866(2) 0.43409(15)
C83 C 0.69405(16) 0.7411(2) 0.42275(15)
H91 H 0.6636 0.7560 0.4072
C84 C 0.83338(17) 0.6716(4) 0.49303(18)
C85 C 0.8807(3) 0.5789(5) 0.5243(3)
H92 H 0.8833 0.5322 0.5158
H93 H 0.8839 0.5805 0.5547
H94 H 0.9053 0.6060 0.5195
C86 C 0.72489(18) 0.8605(3) 0.42676(17)
C87 C 0.6708(3) 0.9491(3) 0.3959(3)
H95 H 0.6903 0.9693 0.3811
H96 H 0.6767 0.9713 0.4238
H97 H 0.6381 0.9548 0.3784
O1 O 0.83608(14) 0.6057(3) 0.49875(15)
O2 O 0.86489(14) 0.7115(3) 0.50711(16)
O3 O 0.68151(13) 0.87625(18) 0.40275(15)
O4 O 0.75562(14) 0.9014(2) 0.44208(13)
O5 O 0.5477(3) 0.4923(5) 0.4976(3)
O6 O 0.5039(3) 0.4750(6) 0.5448(3)
C74D C 0.4361(4) 0.4580(6) 0.5290(4)
H84D H 0.4626 0.4304 0.5466
H85D H 0.4128 0.4273 0.5097
C75D C 0.4184(2) 0.4889(3) 0.5534(2)
H86D H 0.4435 0.5063 0.5787
H87D H 0.4005 0.5281 0.5377
C76D C 0.38699(18) 0.4446(2) 0.56842(17)
C77D C 0.34667(18) 0.4121(2) 0.54492(17)
H88D H 0.3300 0.4167 0.5151
N7D N 0.39794(16) 0.4262(3) 0.60970(15)
N8D N 0.36653(17) 0.3817(3) 0.61290(15)
N9D N 0.33610(13) 0.37257(19) 0.57342(12)
C78D C 0.29739(15) 0.3255(2) 0.56526(15)
C79D C 0.25327(16) 0.3498(3) 0.54318(15)
H89D H 0.2486 0.3960 0.5354
C80D C 0.21548(16) 0.3046(3) 0.53249(16)
C81D C 0.22354(16) 0.2371(3) 0.54412(16)
H90D H 0.1982 0.2066 0.5372
C82D C 0.26855(16) 0.2134(2) 0.56591(15)
C83D C 0.30595(16) 0.2589(2) 0.57725(15)
H91D H 0.3364 0.2440 0.5928
C84D C 0.16662(17) 0.3284(4) 0.50697(18)
C85D C 0.1193(3) 0.4211(5) 0.4757(3)
H92D H 0.1167 0.4678 0.4842
H93D H 0.1161 0.4195 0.4453
H94D H 0.0947 0.3940 0.4805
C86D C 0.27511(18) 0.1395(3) 0.57324(17)
C87D C 0.3292(3) 0.0509(3) 0.6041(3)
H95D H 0.3097 0.0307 0.6189
H96D H 0.3233 0.0287 0.5762
H97D H 0.3619 0.0452 0.6216
O1D O 0.16392(14) 0.3943(3) 0.50125(15)
O2D O 0.13511(14) 0.2885(3) 0.49289(16)
O3D O 0.31849(13) 0.12375(18) 0.59725(15)
O4D O 0.24438(14) 0.0986(2) 0.55792(13)
O5D O 0.4523(3) 0.5077(5) 0.5024(3)
O6D O 0.4961(3) 0.5250(6) 0.4552(3)
C88 C 0.7664(2) 0.0866(4) 0.5385(2)
H98 H 0.7422 0.1226 0.5316
Cl1 Cl 0.82148(15) 0.1240(2) 0.55701(14)
Cl2 Cl 0.7601(2) 0.0342(4) 0.5793(2)
Cl3 Cl 0.76206(14) 0.0417(2) 0.49148(11)
C89 C 0.5074(4) 0.7990(5) 0.3666(4)
H99 H 0.4893 0.8004 0.3867
Cl4 Cl 0.4702(2) 0.7797(4) 0.31728(19)
Cl5 Cl 0.54807(19) 0.7355(4) 0.3840(3)
Cl6 Cl 0.5277(2) 0.8794(2) 0.3638(2)
C90 C 0.8678(3) 0.5662(4) 0.7341(3)
H100 H 0.8398 0.5618 0.7078
Cl7 Cl 0.87696(14) 0.4887(2) 0.76099(17)
Cl8 Cl 0.91716(15) 0.5838(3) 0.71696(16)
Cl9 Cl 0.85826(14) 0.63037(19) 0.76462(11)
C91? C 0.6544(3) 0.5111(4) 0.5887(3)
H101? H 0.6229 0.5180 0.5718
C92? C 0.6756(3) 0.5657(4) 0.6099(3)
C93? C 0.7221(6) 0.5576(10) 0.6428(9)
N10? N 0.7605(5) 0.5640(7) 0.6636(7)
C94? C 0.6539(3) 0.6360(4) 0.6054(3)
C95? C 0.6121(3) 0.6504(4) 0.5722(3)
H102? H 0.5967 0.6153 0.5532
C96? C 0.5926(3) 0.7153(5) 0.5662(3)
C97? C 0.6158(5) 0.7664(5) 0.5961(5)
H103? H 0.6030 0.8105 0.5926
C98? C 0.6562(7) 0.7542(7) 0.6297(7)
C99? C 0.6761(4) 0.6880(6) 0.6333(5)
H104? H 0.7049 0.6794 0.6550
C100? C 0.6834(5) 0.8088(7) 0.6617(5)
C101? C 0.6503(8) 0.8594(11) 0.6734(7)
H105? H 0.6312 0.8348 0.6869
H106? H 0.6687 0.8935 0.6933
H107? H 0.6303 0.8814 0.6472
C102? C 0.7120(6) 0.8507(8) 0.6408(6)
H108? H 0.6914 0.8715 0.6144
H109? H 0.7288 0.8859 0.6607
H110? H 0.7342 0.8213 0.6338
C103? C 0.7122(6) 0.7733(9) 0.7039(5)
H111? H 0.6915 0.7478 0.7152
H112? H 0.7343 0.7424 0.6981
H113? H 0.7290 0.8071 0.7250
C104? C 0.5499(3) 0.7243(4) 0.5304(3)
H114? H 0.5364 0.6833 0.5171
C105? C 0.5256(3) 0.7800(4) 0.5124(3)
C106? C 0.5418(13) 0.8444(7) 0.5343(12)
N11? N 0.5507(6) 0.8998(6) 0.5432(9)
C107? C 0.4824(3) 0.7801(4) 0.4728(3)
C108? C 0.4665(3) 0.7220(5) 0.4489(3)
H115? H 0.4831 0.6812 0.4581
C109? C 0.4270(3) 0.7207(4) 0.4118(3)
C110? C 0.4012(5) 0.7814(6) 0.3999(4)
H116? H 0.3741 0.7817 0.3751
C111? C 0.4144(8) 0.8406(7) 0.4236(7)
C112? C 0.4558(5) 0.8393(6) 0.4602(5)
H117? H 0.4656 0.8793 0.4766
C113? C 0.3918(7) 0.9102(8) 0.4091(7)
C114? C 0.3871(14) 0.9504(12) 0.4478(8)
H118? H 0.4174 0.9534 0.4705
H119? H 0.3756 0.9958 0.4383
H120? H 0.3653 0.9272 0.4589
C115? C 0.3441(6) 0.9061(16) 0.3741(8)
H121? H 0.3318 0.9517 0.3664
H122? H 0.3470 0.8838 0.3487
H123? H 0.3230 0.8802 0.3847
C116? C 0.4257(8) 0.9508(14) 0.3921(11)
H124? H 0.4562 0.9534 0.4145
H125? H 0.4286 0.9281 0.3668
H126? H 0.4136 0.9964 0.3842
C117? C 0.4155(3) 0.6556(4) 0.3889(3)
H127? H 0.4322 0.6182 0.4045
C118? C 0.3854(3) 0.6401(4) 0.3497(3)
C119? C 0.3565(12) 0.6943(10) 0.3235(11)
N12? N 0.3297(6) 0.7294(6) 0.3005(5)
C120? C 0.3803(3) 0.5693(4) 0.3315(3)
C121? C 0.4115(3) 0.5180(4) 0.3506(3)
H128? H 0.4372 0.5282 0.3755
C122? C 0.4064(3) 0.4527(5) 0.3347(3)
C123? C 0.3678(5) 0.4369(7) 0.2975(4)
H129? H 0.3655 0.3933 0.2851
C124? C 0.3337(6) 0.4841(9) 0.2792(6)
C125? C 0.3423(6) 0.5522(7) 0.2946(6)
H130? H 0.3219 0.5868 0.2796
C126? C 0.2906(5) 0.4682(8) 0.2393(4)
C127? C 0.3021(6) 0.4809(8) 0.1984(5)
H131? H 0.3274 0.4512 0.1980
H132? H 0.2747 0.4717 0.1732
H133? H 0.3114 0.5280 0.1977
C128? C 0.2505(8) 0.5155(13) 0.2396(11)
H134? H 0.2429 0.5076 0.2658
H135? H 0.2599 0.5625 0.2389
H136? H 0.2232 0.5062 0.2144
C129? C 0.2722(6) 0.3947(7) 0.2388(6)
H137? H 0.2648 0.3866 0.2650
H138? H 0.2442 0.3888 0.2137
H139? H 0.2959 0.3627 0.2373
C130? C 0.4420(3) 0.4031(4) 0.3587(3)
H140? H 0.4607 0.4169 0.3867
C131? C 0.4521(3) 0.3415(4) 0.3469(3)
C132? C 0.4279(15) 0.3182(16) 0.3024(7)
N13? N 0.4090(7) 0.2872(11) 0.2723(6)
C133? C 0.4898(3) 0.2967(4) 0.3753(3)
C134? C 0.5206(3) 0.3190(4) 0.4150(3)
H141? H 0.5167 0.3630 0.4245
C135? C 0.5566(3) 0.2791(5) 0.4412(3)
C136? C 0.5613(5) 0.2125(7) 0.4271(5)
H142? H 0.5853 0.1844 0.4446
C137? C 0.5317(8) 0.1879(8) 0.3885(6)
C138? C 0.4954(5) 0.2303(6) 0.3629(4)
H143? H 0.4743 0.2133 0.3368
C139? C 0.5364(5) 0.1188(7) 0.3690(5)
C140? C 0.4907(6) 0.0789(11) 0.3602(9)
H144? H 0.4646 0.1066 0.3430
H145? H 0.4920 0.0374 0.3445
H146? H 0.4867 0.0674 0.3876
C141? C 0.5769(5) 0.0752(7) 0.3958(6)
H147? H 0.5769 0.0326 0.3809
H148? H 0.6060 0.0991 0.4001
H149? H 0.5736 0.0659 0.4238
C142? C 0.5441(7) 0.1349(7) 0.3255(5)
H150? H 0.5186 0.1629 0.3076
H151? H 0.5734 0.1592 0.3314
H152? H 0.5452 0.0927 0.3105
C143? C 0.5872(2) 0.3114(4) 0.4814(3)
H153? H 0.5747 0.3509 0.4895
C144? C 0.6295(3) 0.2943(5) 0.5083(3)
C145? C 0.6510(13) 0.231(2) 0.500(2)
N14? N 0.6711(5) 0.1849(9) 0.4963(6)
C146? C 0.6575(3) 0.3349(4) 0.5470(3)
C147? C 0.6438(3) 0.4000(5) 0.5535(3)
H154? H 0.6149 0.4163 0.5349
C148? C 0.6711(3) 0.4423(4) 0.5867(3)
C149? C 0.7130(4) 0.4160(7) 0.6160(6)
H155? H 0.7310 0.4427 0.6395
C150? C 0.7276(6) 0.3517(9) 0.6106(7)
C151? C 0.7002(5) 0.3109(7) 0.5754(5)
H156? H 0.7107 0.2673 0.5713
C152? C 0.7731(5) 0.3196(8) 0.6403(5)
C153? C 0.8115(5) 0.3333(10) 0.6201(6)
H157? H 0.8012 0.3167 0.5905
H158? H 0.8175 0.3818 0.6203
H159? H 0.8400 0.3099 0.6369
C154? C 0.7882(5) 0.3450(8) 0.6868(4)
H160? H 0.8171 0.3226 0.7038
H161? H 0.7931 0.3938 0.6873
H162? H 0.7641 0.3346 0.6992
C155? C 0.7656(8) 0.2422(7) 0.6386(6)
H163? H 0.7560 0.2270 0.6086
H164? H 0.7946 0.2198 0.6552
H165? H 0.7415 0.2309 0.6508
O7? O 0.5443(5) 0.5316(12) 0.4965(7)
O8? O 0.4933(10) 0.4266(8) 0.4834(10)
O9? O 0.4938(9) 0.5106(15) 0.5429(5)
O10? O 0.4607(6) 0.5375(12) 0.4650(7)
C156? C 0.7559(9) 0.0886(10) 0.5420(6)
H166? H 0.7257 0.1078 0.5419
Cl10? Cl 0.7936(5) 0.1546(7) 0.5433(5)
Cl11? Cl 0.7779(10) 0.0375(15) 0.5867(7)
Cl12? Cl 0.7463(5) 0.0414(8) 0.4955(4)
C157? C 0.5073(8) 0.7926(10) 0.3538(6)
H167? H 0.4832 0.8103 0.3652
Cl13? Cl 0.4929(5) 0.7996(9) 0.2981(4)
Cl14? Cl 0.5213(5) 0.7076(8) 0.3656(6)
Cl15? Cl 0.5583(5) 0.8389(6) 0.3693(5)
H168? H 0.5986 0.4932 0.4757
H169? H 0.5707 0.4725 0.4268
C158? C 0.5361(4) 0.5581(7) 0.4478(4)
H170? H 0.5408 0.6073 0.4459
H171? H 0.5061 0.5439 0.4267
O11? O 0.4638(3) 0.4617(6) 0.4645(3)
O12? O 0.4848(4) 0.5755(4) 0.4963(4)
loop_
_geom_bond_atom_site_label_1
_geom_bond_atom_site_label_2
_geom_bond_site_symmetry_1
_geom_bond_site_symmetry_2
C1 H1 1_555 1_555
C2 C1 1_555 1_555
C3 C2 1_555 1_555
N1 C3 1_555 1_555
C4 C2 1_555 1_555
C5 C4 1_555 1_555
H2 C5 1_555 1_555
C6 C5 1_555 1_555
C7 C6 1_555 1_555
H3 C7 1_555 1_555
C8 C7 1_555 1_555
C9 C4 1_555 1_555
H4 C9 1_555 1_555
C10 C8 1_555 1_555
C11 C10 1_555 1_555
H5 C11 1_555 1_555
H6 C11 1_555 1_555
H7 C11 1_555 1_555
C12 C10 1_555 1_555
H8 C12 1_555 1_555
H9 C12 1_555 1_555
H10 C12 1_555 1_555
C13 C10 1_555 1_555
H11 C13 1_555 1_555
H12 C13 1_555 1_555
H13 C13 1_555 1_555
C14 C6 1_555 1_555
H14 C14 1_555 1_555
C15 C14 1_555 1_555
C16 C15 1_555 1_555
N2 C16 1_555 1_555
C17 C15 1_555 1_555
C18 C17 1_555 1_555
H15 C18 1_555 1_555
C19 C18 1_555 1_555
C20 C19 1_555 1_555
H16 C20 1_555 1_555
C21 C20 1_555 1_555
C22 C17 1_555 1_555
H17 C22 1_555 1_555
C23 C21 1_555 1_555
C24 C23 1_555 1_555
H18 C24 1_555 1_555
H19 C24 1_555 1_555
H20 C24 1_555 1_555
C25 C23 1_555 1_555
H21 C25 1_555 1_555
H22 C25 1_555 1_555
H23 C25 1_555 1_555
C26 C23 1_555 1_555
H24 C26 1_555 1_555
H25 C26 1_555 1_555
H26 C26 1_555 1_555
C27 C19 1_555 1_555
H27 C27 1_555 1_555
C28 C27 1_555 1_555
C29 C28 1_555 1_555
N3 C29 1_555 1_555
C30 C28 1_555 1_555
C31 C30 1_555 1_555
H28 C31 1_555 1_555
C32 C31 1_555 1_555
C33 C32 1_555 1_555
H29 C33 1_555 1_555
C34 C33 1_555 1_555
C35 C30 1_555 1_555
H30 C35 1_555 1_555
C36 C34 1_555 1_555
C37 C36 1_555 1_555
H31 C37 1_555 1_555
H32 C37 1_555 1_555
H33 C37 1_555 1_555
C38 C36 1_555 1_555
H34 C38 1_555 1_555
H35 C38 1_555 1_555
H36 C38 1_555 1_555
C39 C36 1_555 1_555
H37 C39 1_555 1_555
H38 C39 1_555 1_555
H39 C39 1_555 1_555
C40 C32 1_555 1_555
H40 C40 1_555 1_555
C41 C40 1_555 1_555
C42 C41 1_555 1_555
N4 C42 1_555 1_555
C43 C41 1_555 1_555
C44 C43 1_555 1_555
H41 C44 1_555 1_555
C45 C44 1_555 1_555
C46 C45 1_555 1_555
H42 C46 1_555 1_555
C47 C46 1_555 1_555
C48 C43 1_555 1_555
H43 C48 1_555 1_555
C49 C47 1_555 1_555
C50 C49 1_555 1_555
H44 C50 1_555 1_555
H45 C50 1_555 1_555
H46 C50 1_555 1_555
C51 C49 1_555 1_555
H47 C51 1_555 1_555
H48 C51 1_555 1_555
H49 C51 1_555 1_555
C52 C49 1_555 1_555
H50 C52 1_555 1_555
H51 C52 1_555 1_555
H52 C52 1_555 1_555
C53 C45 1_555 1_555
H53 C53 1_555 1_555
C54 C53 1_555 1_555
C55 C54 1_555 1_555
N5 C55 1_555 1_555
C56 C54 1_555 1_555
C57 C56 1_555 1_555
H54 C57 1_555 1_555
C58 C1 1_555 1_555
C59 C58 1_555 1_555
H55 C59 1_555 1_555
C60 C59 1_555 1_555
C61 C56 1_555 1_555
H56 C61 1_555 1_555
C62 C60 1_555 1_555
C63 C62 1_555 1_555
H57 C63 1_555 1_555
H58 C63 1_555 1_555
H59 C63 1_555 1_555
C64 C62 1_555 1_555
H60 C64 1_555 1_555
H61 C64 1_555 1_555
H62 C64 1_555 1_555
C65 C62 1_555 1_555
H63 C65 1_555 1_555
H64 C65 1_555 1_555
H65 C65 1_555 1_555
N6 C66 1_555 1_555
C66 H66 1_555 1_555
H67 C66 1_555 1_555
C67 C66 1_555 1_555
H68 C67 1_555 1_555
H69 C67 1_555 1_555
C68 C67 1_555 1_555
H70 C68 1_555 1_555
H71 C68 1_555 1_555
C69 C68 1_555 1_555
H72 C69 1_555 1_555
H73 C69 1_555 1_555
H74 C69 1_555 1_555
C70 N6 1_555 1_555
H75 C70 1_555 1_555
H76 C70 1_555 1_555
C71 C70 1_555 1_555
H77 C71 1_555 1_555
H78 C71 1_555 1_555
C72 C71 1_555 1_555
H79 C72 1_555 1_555
H80 C72 1_555 1_555
C73 C72 1_555 1_555
H81 C73 1_555 1_555
H82 C73 1_555 1_555
H83 C73 1_555 1_555
P1 O5 1_555 1_555
C74 H84 1_555 1_555
H85 C74 1_555 1_555
C75 C74 1_555 1_555
H86 C75 1_555 1_555
H87 C75 1_555 1_555
C76 C75 1_555 1_555
C77 C76 1_555 1_555
H88 C77 1_555 1_555
N7 C76 1_555 1_555
N8 N7 1_555 1_555
N9 C77 1_555 1_555
C78 N9 1_555 1_555
C79 C78 1_555 1_555
H89 C79 1_555 1_555
C80 C79 1_555 1_555
C81 C80 1_555 1_555
H90 C81 1_555 1_555
C82 C81 1_555 1_555
C83 C78 1_555 1_555
H91 C83 1_555 1_555
C84 C80 1_555 1_555
C85 H92 1_555 1_555
H93 C85 1_555 1_555
H94 C85 1_555 1_555
C86 C82 1_555 1_555
C87 H95 1_555 1_555
H96 C87 1_555 1_555
H97 C87 1_555 1_555
O1 C84 1_555 1_555
O2 C84 1_555 1_555
O3 C86 1_555 1_555
O4 C86 1_555 1_555
O5 C74 1_555 1_555
O6 P1 1_555 1_555
C88 H98 1_555 1_555
Cl1 C88 1_555 1_555
Cl2 C88 1_555 1_555
Cl3 C88 1_555 1_555
C89 H99 1_555 1_555
Cl4 C89 1_555 1_555
Cl5 C89 1_555 1_555
Cl6 C89 1_555 1_555
C90 H100 1_555 1_555
Cl7 C90 1_555 1_555
Cl8 C90 1_555 1_555
Cl9 C90 1_555 1_555
C66A N6 1_555 1_555
H66A C66A 1_555 1_555
H67A C66A 1_555 1_555
C67A C66A 1_555 1_555
H68A C67A 1_555 1_555
H69A C67A 1_555 1_555
C68A C67A 1_555 1_555
H70A C68A 1_555 1_555
H71A C68A 1_555 1_555
C69A C68A 1_555 1_555
H72A C69A 1_555 1_555
H73A C69A 1_555 1_555
H74A C69A 1_555 1_555
C70A N6 1_555 1_555
H75A C70A 1_555 1_555
H76A C70A 1_555 1_555
C71A C70A 1_555 1_555
H77A C71A 1_555 1_555
H78A C71A 1_555 1_555
C72A C71A 1_555 1_555
H79A C72A 1_555 1_555
H80A C72A 1_555 1_555
C73A C72A 1_555 1_555
H81A C73A 1_555 1_555
H82A C73A 1_555 1_555
H83A C73A 1_555 1_555
C74D H84D 1_555 1_555
H85D C74D 1_555 1_555
C75D C74D 1_555 1_555
H86D C75D 1_555 1_555
H87D C75D 1_555 1_555
C76D C75D 1_555 1_555
C77D C76D 1_555 1_555
H88D C77D 1_555 1_555
N7D C76D 1_555 1_555
N8D N7D 1_555 1_555
N9D C77D 1_555 1_555
C78D N9D 1_555 1_555
C79D C78D 1_555 1_555
H89D C79D 1_555 1_555
C80D C79D 1_555 1_555
C81D C80D 1_555 1_555
H90D C81D 1_555 1_555
C82D C81D 1_555 1_555
C83D C78D 1_555 1_555
H91D C83D 1_555 1_555
C84D C80D 1_555 1_555
C85D H92D 1_555 1_555
H93D C85D 1_555 1_555
H94D C85D 1_555 1_555
C86D C82D 1_555 1_555
C87D H95D 1_555 1_555
H96D C87D 1_555 1_555
H97D C87D 1_555 1_555
O1D C84D 1_555 1_555
O2D C84D 1_555 1_555
O3D C86D 1_555 1_555
O4D C86D 1_555 1_555
O5D P1 1_555 1_555
O6D P1 1_555 1_555
C8 C9 1_555 1_555
C21 C22 1_555 1_555
C34 C35 1_555 1_555
C47 C48 1_555 1_555
C57 C58 1_555 1_555
C60 C61 1_555 1_555
N8 N9 1_555 1_555
C82 C83 1_555 1_555
C85 O1 1_555 1_555
C87 O3 1_555 1_555
C74D O5D 1_555 1_555
N8D N9D 1_555 1_555
C82D C83D 1_555 1_555
C85D O1D 1_555 1_555
C87D O3D 1_555 1_555

#END
