
#######################################################################
#
#                 Cambridge Crystallographic Data Centre
#                                CCDC 
#
#######################################################################
#
# If this CIF has been generated from an entry in the Cambridge 
# Structural Database, then it will include bibliographic, chemical, 
# crystal, experimental, refinement or atomic coordinate data resulting 
# from the CCDC's data processing and validation procedures.
#
#######################################################################

data_UYUGOM
_chemical_formula_moiety         '2(C65 H65 N5),C6 H6 O4 P1 1-,C16 H36 N1 1+'
_chemical_name_systematic        
'tetrabutylammonium [3]-(diprop-2-yn-1-yl phosphate)-bis(6,13,20,27,34-penta-t-butylhexacyclo[30.3.1.1^4,8^.1^11,15^.1^18,22^.1^25,29^]tetraconta-1(36),2,4(40),5,7,9,11(39),12,14,16,18(38),19,21,23,25(37),26,28,30,32,34-icosaene-2,9,16,23,30-pentacarbonitrile)-pseudorotaxane'
_symmetry_cell_setting           cubic
_symmetry_space_group_name_H-M   'P 43 3 2'
_symmetry_Int_Tables_number      212
_space_group_name_Hall           'P 4acd 2ab 3'
loop_
_symmetry_equiv_pos_site_id
_symmetry_equiv_pos_as_xyz
1 x,y,z
2 1/2-x,-y,1/2+z
3 -x,1/2+y,1/2-z
4 1/2+x,1/2-y,-z
5 z,x,y
6 1/2+z,1/2-x,-y
7 1/2-z,-x,1/2+y
8 -z,1/2+x,1/2-y
9 y,z,x
10 -y,1/2+z,1/2-x
11 1/2+y,1/2-z,-x
12 1/2-y,-z,1/2+x
13 1/4+y,3/4+x,3/4-z
14 1/4-y,1/4-x,1/4-z
15 3/4+y,3/4-x,1/4+z
16 3/4-y,1/4+x,3/4+z
17 1/4+x,3/4+z,3/4-y
18 3/4-x,1/4+z,3/4+y
19 1/4-x,1/4-z,1/4-y
20 3/4+x,3/4-z,1/4+y
21 1/4+z,3/4+y,3/4-x
22 3/4+z,3/4-y,1/4+x
23 3/4-z,1/4+y,3/4+x
24 1/4-z,1/4-y,1/4-x
_cell_length_a                   36.9585(19)
_cell_length_b                   36.9585(19)
_cell_length_c                   36.9585(19)
_cell_angle_alpha                90
_cell_angle_beta                 90
_cell_angle_gamma                90
_cell_volume                     50482.8
_exptl_crystal_colour            colorless
_exptl_crystal_description       block
_cell_formula_units_Z            12
loop_
_atom_site_label
_atom_site_type_symbol
_atom_site_fract_x
_atom_site_fract_y
_atom_site_fract_z
C1 C 0.5688(3) 0.7665(3) 0.4163(3)
H1 H 0.5853 0.7803 0.4027
C2 C 0.5844(4) 0.7425(5) 0.4380(6)
C3 C 0.5700(13) 0.7105(17) 0.452(3)
N1 N 0.5489(4) 0.6859(4) 0.4577(6)
C4 C 0.5304(2) 0.7759(2) 0.4092(2)
C5 C 0.5243(2) 0.8005(2) 0.3814(2)
H2 H 0.5439 0.8119 0.3700
C6 C 0.4891(2) 0.8082(3) 0.3705(3)
C7 C 0.46007(18) 0.7913(4) 0.3874(4)
H3 H 0.4363 0.7965 0.3800
C8 C 0.4662(2) 0.7667(4) 0.4152(5)
C9 C 0.5013(3) 0.7590(3) 0.4261(3)
H4 H 0.5055 0.7424 0.4449
C10 C 0.4373(7) 0.7442(6) 0.4369(6)
C11 C 0.4128(5) 0.7736(5) 0.4502(6)
H5 H 0.4253 0.7881 0.4681
H6 H 0.4057 0.7889 0.4300
H7 H 0.3914 0.7630 0.4610
C12 C 0.4452(5) 0.7201(6) 0.4687(5)
H8 H 0.4611 0.7006 0.4612
H9 H 0.4568 0.7341 0.4876
H10 H 0.4227 0.7100 0.4778
C13 C 0.4186(5) 0.7214(5) 0.4091(5)
H11 H 0.4348 0.7026 0.4008
H12 H 0.3972 0.7105 0.4197
H13 H 0.4115 0.7364 0.3887
C14 C 0.5053(3) 0.8597(3) 0.3303(3)
H14 H 0.5273 0.8591 0.3429
C15 C 0.4813(4) 0.8343(5) 0.3423(5)
C16 C 0.4457(9) 0.8277(17) 0.3318(18)
N2 N 0.4171(6) 0.8306(10) 0.3152(9)
C17 C 0.5044(2) 0.8878(2) 0.3020(2)
C18 C 0.5379(2) 0.8976(3) 0.2880(2)
H15 H 0.5592 0.8874 0.2976
C19 C 0.5400(2) 0.9224(3) 0.2599(2)
C20 C 0.5086(3) 0.9375(3) 0.2457(3)
H16 H 0.5100 0.9543 0.2267
C21 C 0.4751(2) 0.9278(4) 0.2597(3)
C22 C 0.47299(19) 0.9029(3) 0.2879(3)
H17 H 0.4503 0.8963 0.2973
C23 C 0.4370(8) 0.9420(6) 0.2449(6)
C24 C 0.4459(7) 0.9761(5) 0.2234(5)
H18 H 0.4643 0.9706 0.2055
H19 H 0.4243 0.9847 0.2113
H20 H 0.4548 0.9947 0.2397
C25 C 0.4215(7) 0.9124(6) 0.2200(6)
H21 H 0.4398 0.9049 0.2028
H22 H 0.4141 0.8918 0.2344
H23 H 0.4007 0.9219 0.2071
C26 C 0.4085(6) 0.9534(5) 0.2715(5)
H24 H 0.4015 0.9329 0.2862
H25 H 0.4181 0.9724 0.2869
H26 H 0.3876 0.9625 0.2585
C27 C 0.6061(3) 0.9288(3) 0.2611(3)
H27 H 0.6050 0.9178 0.2840
C28 C 0.5735(4) 0.9340(6) 0.2456(5)
C29 C 0.5636(9) 0.9512(13) 0.2135(7)
N3 N 0.5497(5) 0.9575(7) 0.1847(5)
C30 C 0.64308(19) 0.9369(3) 0.2489(3)
C31 C 0.6694(2) 0.9171(3) 0.2670(3)
H28 H 0.6626 0.8996 0.2842
C32 C 0.7058(2) 0.9231(3) 0.2597(3)
C33 C 0.7159(2) 0.9489(4) 0.2343(4)
H29 H 0.7405 0.9529 0.2294
C34 C 0.6896(3) 0.9687(5) 0.2162(4)
C35 C 0.6532(2) 0.9628(4) 0.2235(4)
H30 H 0.6354 0.9762 0.2112
C36 C 0.7011(5) 1.0000(6) 0.1895(5)
C37 C 0.6811(5) 1.0347(6) 0.1912(7)
H31 H 0.6810 1.0435 0.2159
H32 H 0.6929 1.0524 0.1757
H33 H 0.6565 1.0311 0.1830
C38 C 0.7408(5) 1.0106(8) 0.1972(6)
H34 H 0.7559 0.9891 0.1966
H35 H 0.7490 1.0276 0.1790
H36 H 0.7424 1.0217 0.2209
C39 C 0.7026(6) 0.9846(6) 0.1524(5)
H37 H 0.7159 0.9619 0.1529
H38 H 0.6782 0.9802 0.1437
H39 H 0.7147 1.0015 0.1364
C40 C 0.7318(3) 0.8835(3) 0.3076(3)
H40 H 0.7093 0.8859 0.3192
C41 C 0.7343(4) 0.9037(5) 0.2774(4)
C42 C 0.7643(5) 0.9086(13) 0.2545(7)
N4 N 0.7864(4) 0.9208(6) 0.2352(5)
C43 C 0.7563(2) 0.8587(2) 0.3265(2)
C44 C 0.73968(17) 0.8336(2) 0.3490(2)
H41 H 0.7143 0.8321 0.3498
C45 C 0.7606(2) 0.8107(2) 0.3702(2)
C46 C 0.7981(2) 0.8130(3) 0.3690(3)
H42 H 0.8123 0.7975 0.3834
C47 C 0.81472(17) 0.8381(4) 0.3465(4)
C48 C 0.7938(2) 0.8610(3) 0.3252(3)
H43 H 0.8050 0.8780 0.3100
C49 C 0.8551(10) 0.8403(6) 0.3417(6)
C50 C 0.8701(9) 0.8268(7) 0.3786(6)
H44 H 0.8963 0.8273 0.3780
H45 H 0.8615 0.8425 0.3978
H46 H 0.8619 0.8023 0.3829
C51 C 0.8681(6) 0.8796(6) 0.3367(6)
H47 H 0.8942 0.8799 0.3337
H48 H 0.8568 0.8899 0.3154
H49 H 0.8616 0.8938 0.3578
C52 C 0.8674(6) 0.8162(6) 0.3094(5)
H50 H 0.8935 0.8179 0.3067
H51 H 0.8607 0.7913 0.3139
H52 H 0.8558 0.8245 0.2874
C53 C 0.7070(3) 0.7856(4) 0.4055(3)
H53 H 0.6944 0.8050 0.3950
C54 C 0.7422(4) 0.7841(5) 0.3966(6)
C55 C 0.7648(8) 0.7536(8) 0.3994(10)
N5 N 0.7822(5) 0.7294(6) 0.4137(6)
C56 C 0.68460(19) 0.7619(2) 0.4288(2)
C57 C 0.6475(2) 0.7626(2) 0.4228(2)
H54 H 0.6375 0.7793 0.4065
C58 C 0.62508(18) 0.7385(2) 0.4411(2)
C59 C 0.6398(2) 0.7138(3) 0.4653(3)
H55 H 0.6247 0.6975 0.4776
C60 C 0.6770(3) 0.7131(3) 0.4712(4)
C61 C 0.69934(18) 0.7372(3) 0.4530(3)
H56 H 0.7245 0.7368 0.4570
C62 C 0.6975(5) 0.6871(6) 0.4972(6)
C63 C 0.7232(5) 0.7060(5) 0.5222(5)
H57 H 0.7104 0.7246 0.5355
H58 H 0.7335 0.6887 0.5390
H59 H 0.7425 0.7171 0.5082
C64 C 0.6668(5) 0.6718(5) 0.5193(4)
H60 H 0.6546 0.6912 0.5320
H61 H 0.6498 0.6596 0.5034
H62 H 0.6763 0.6546 0.5367
C65 C 0.7176(5) 0.6586(4) 0.4769(4)
H63 H 0.7011 0.6462 0.4607
H64 H 0.7369 0.6698 0.4630
H65 H 0.7278 0.6414 0.4939
C66? C 0.6063(3) 0.7618(3) 0.4277(3)
H66? H 0.6046 0.7840 0.4154
C67? C 0.5744(4) 0.7448(5) 0.4318(6)
C68? C 0.5668(14) 0.7112(17) 0.448(3)
N6? N 0.5703(5) 0.6823(4) 0.4636(6)
C69? C 0.64268(17) 0.7522(2) 0.4385(2)
C70? C 0.6698(2) 0.7696(2) 0.4191(2)
H67? H 0.6638 0.7871 0.4017
C71? C 0.70588(19) 0.7609(2) 0.4253(2)
C72? C 0.71481(19) 0.7349(3) 0.4510(3)
H68? H 0.7392 0.7291 0.4552
C73? C 0.6877(3) 0.7176(3) 0.4704(4)
C74? C 0.6516(2) 0.7262(3) 0.4642(3)
H69? H 0.6333 0.7145 0.4774
C75? C 0.6946(5) 0.6848(6) 0.5013(6)
C76? C 0.7346(4) 0.6889(5) 0.5072(5)
H70? H 0.7394 0.7123 0.5182
H71? H 0.7431 0.6698 0.5230
H72? H 0.7470 0.6874 0.4841
C77? C 0.6718(5) 0.6903(5) 0.5355(4)
H73? H 0.6464 0.6872 0.5297
H74? H 0.6788 0.6726 0.5536
H75? H 0.6758 0.7145 0.5449
C78? C 0.6868(5) 0.6487(4) 0.4842(4)
H76? H 0.6609 0.6462 0.4805
H77? H 0.6991 0.6471 0.4611
H78? H 0.6952 0.6295 0.5000
C79? C 0.7298(3) 0.8078(3) 0.3825(3)
H79? H 0.7056 0.8156 0.3823
C80? C 0.7354(4) 0.7791(5) 0.4033(6)
C81? C 0.7680(8) 0.7609(9) 0.4081(10)
N7? N 0.7946(5) 0.7422(6) 0.4017(6)
C82? C 0.7539(2) 0.8300(2) 0.3595(2)
C83? C 0.73751(17) 0.8534(3) 0.3351(2)
H80? H 0.7122 0.8553 0.3343
C84? C 0.7586(2) 0.8741(3) 0.3118(2)
C85? C 0.7961(2) 0.8714(4) 0.3129(4)
H81? H 0.8103 0.8853 0.2971
C86? C 0.81250(17) 0.8480(4) 0.3373(4)
C87? C 0.7914(2) 0.8273(3) 0.3606(3)
H82? H 0.8025 0.8115 0.3772
C88? C 0.8559(10) 0.8407(6) 0.3416(6)
C89? C 0.8703(9) 0.8454(7) 0.3807(6)
H83? H 0.8602 0.8267 0.3961
H84? H 0.8965 0.8436 0.3807
H85? H 0.8632 0.8690 0.3899
C90? C 0.8722(5) 0.8707(6) 0.3173(6)
H86? H 0.8633 0.8678 0.2928
H87? H 0.8651 0.8942 0.3265
H88? H 0.8983 0.8688 0.3174
C91? C 0.8636(6) 0.8022(5) 0.3258(5)
H89? H 0.8532 0.7840 0.3416
H90? H 0.8529 0.8003 0.3019
H91? H 0.8896 0.7985 0.3241
C92? C 0.7085(3) 0.9040(3) 0.2830(3)
H92? H 0.6949 0.8946 0.3023
C93? C 0.7438(3) 0.8947(5) 0.2850(5)
C94? C 0.7728(5) 0.9078(13) 0.2630(8)
N8? N 0.8005(4) 0.9143(6) 0.2486(5)
C95? C 0.6857(2) 0.9258(3) 0.2575(3)
C96? C 0.6485(2) 0.9212(3) 0.2604(3)
H93? H 0.6390 0.9044 0.2770
C97? C 0.62536(19) 0.9413(3) 0.2387(3)
C98? C 0.6394(3) 0.9662(4) 0.2142(4)
H94? H 0.6237 0.9798 0.1995
C99? C 0.6766(3) 0.9708(5) 0.2113(5)
C100? C 0.6998(2) 0.9506(4) 0.2330(4)
H95? H 0.7250 0.9537 0.2311
C101? C 0.6877(5) 0.9955(6) 0.1818(6)
C102? C 0.6641(6) 1.0281(6) 0.1807(8)
H96? H 0.6671 1.0419 0.2029
H97? H 0.6707 1.0431 0.1602
H98? H 0.6390 1.0207 0.1783
C103? C 0.7267(5) 1.0069(8) 0.1827(6)
H99? H 0.7318 1.0188 0.2055
H100? H 0.7420 0.9858 0.1802
H101? H 0.7314 1.0235 0.1629
C104? C 0.6805(5) 0.9775(6) 0.1468(5)
H102? H 0.6876 0.9933 0.1271
H103? H 0.6942 0.9551 0.1455
H104? H 0.6548 0.9721 0.1449
C105? C 0.5683(3) 0.9205(3) 0.2700(3)
H105? H 0.5833 0.9153 0.2899
C106? C 0.5861(4) 0.9339(6) 0.2411(4)
C107? C 0.5724(10) 0.9451(13) 0.2076(8)
N9? N 0.5693(5) 0.9660(7) 0.1831(6)
C108? C 0.52980(19) 0.9126(3) 0.2761(3)
C109? C 0.52361(19) 0.8840(2) 0.2996(2)
H106? H 0.5432 0.8721 0.3106
C110? C 0.4884(2) 0.8729(2) 0.3070(2)
C111? C 0.45942(18) 0.8905(3) 0.2907(3)
H107? H 0.4356 0.8830 0.2957
C112? C 0.4656(2) 0.9191(4) 0.2671(4)
C113? C 0.5008(3) 0.9302(3) 0.2598(3)
H108? H 0.5050 0.9496 0.2439
C114? C 0.4359(8) 0.9404(6) 0.2472(6)
C115? C 0.4408(7) 0.9807(5) 0.2418(5)
H109? H 0.4628 0.9851 0.2281
H110? H 0.4203 0.9903 0.2286
H111? H 0.4426 0.9925 0.2651
C116? C 0.4326(7) 0.9217(6) 0.2100(5)
H112? H 0.4550 0.9247 0.1966
H113? H 0.4279 0.8961 0.2135
H114? H 0.4128 0.9324 0.1965
C117? C 0.4016(6) 0.9361(5) 0.2685(5)
H115? H 0.3971 0.9106 0.2728
H116? H 0.4039 0.9485 0.2915
H117? H 0.3815 0.9463 0.2550
C118? C 0.5057(3) 0.8285(3) 0.3558(3)
H118? H 0.5295 0.8368 0.3522
C119? C 0.4812(4) 0.8448(5) 0.3346(5)
C120? C 0.4458(9) 0.8346(18) 0.3275(18)
N10? N 0.4168(6) 0.8197(10) 0.3310(9)
C121? C 0.5027(2) 0.8004(3) 0.3832(3)
C122? C 0.5358(2) 0.7866(2) 0.3946(2)
H119? H 0.5574 0.7958 0.3850
C123? C 0.5368(2) 0.7590(2) 0.4201(3)
C124? C 0.5048(3) 0.7452(3) 0.4343(4)
H120? H 0.5055 0.7266 0.4515
C125? C 0.4718(2) 0.7591(4) 0.4229(5)
C126? C 0.4707(2) 0.7867(4) 0.3974(4)
H121? H 0.4483 0.7961 0.3898
C127? C 0.4367(7) 0.7451(5) 0.4366(6)
C128? C 0.4016(4) 0.7607(5) 0.4233(5)
H122? H 0.3816 0.7484 0.4350
H123? H 0.4007 0.7863 0.4290
H124? H 0.3999 0.7574 0.3973
C129? C 0.4353(5) 0.7508(6) 0.4768(5)
H125? H 0.4124 0.7418 0.4861
H126? H 0.4551 0.7380 0.4882
H127? H 0.4373 0.7765 0.4821
C130? C 0.4336(5) 0.7049(4) 0.4316(6)
H128? H 0.4104 0.6967 0.4408
H129? H 0.4354 0.6991 0.4060
H130? H 0.4529 0.6929 0.4446
loop_
_geom_bond_atom_site_label_1
_geom_bond_atom_site_label_2
_geom_bond_site_symmetry_1
_geom_bond_site_symmetry_2
C1 H1 1_555 1_555
C2 C1 1_555 1_555
C3 C2 1_555 1_555
N1 C3 1_555 1_555
C4 C1 1_555 1_555
C5 C4 1_555 1_555
H2 C5 1_555 1_555
C6 C5 1_555 1_555
C7 C6 1_555 1_555
H3 C7 1_555 1_555
C8 C7 1_555 1_555
C9 C4 1_555 1_555
H4 C9 1_555 1_555
C10 C8 1_555 1_555
C11 C10 1_555 1_555
H5 C11 1_555 1_555
H6 C11 1_555 1_555
H7 C11 1_555 1_555
C12 C10 1_555 1_555
H8 C12 1_555 1_555
H9 C12 1_555 1_555
H10 C12 1_555 1_555
C13 C10 1_555 1_555
H11 C13 1_555 1_555
H12 C13 1_555 1_555
H13 C13 1_555 1_555
C14 H14 1_555 1_555
C15 C6 1_555 1_555
C16 C15 1_555 1_555
N2 C16 1_555 1_555
C17 C14 1_555 1_555
C18 C17 1_555 1_555
H15 C18 1_555 1_555
C19 C18 1_555 1_555
C20 C19 1_555 1_555
H16 C20 1_555 1_555
C21 C20 1_555 1_555
C22 C17 1_555 1_555
H17 C22 1_555 1_555
C23 C21 1_555 1_555
C24 C23 1_555 1_555
H18 C24 1_555 1_555
H19 C24 1_555 1_555
H20 C24 1_555 1_555
C25 C23 1_555 1_555
H21 C25 1_555 1_555
H22 C25 1_555 1_555
H23 C25 1_555 1_555
C26 C23 1_555 1_555
H24 C26 1_555 1_555
H25 C26 1_555 1_555
H26 C26 1_555 1_555
C27 H27 1_555 1_555
C28 C19 1_555 1_555
C29 C28 1_555 1_555
N3 C29 1_555 1_555
C30 C27 1_555 1_555
C31 C30 1_555 1_555
H28 C31 1_555 1_555
C32 C31 1_555 1_555
C33 C32 1_555 1_555
H29 C33 1_555 1_555
C34 C33 1_555 1_555
C35 C30 1_555 1_555
H30 C35 1_555 1_555
C36 C34 1_555 1_555
C37 C36 1_555 1_555
H31 C37 1_555 1_555
H32 C37 1_555 1_555
H33 C37 1_555 1_555
C38 C36 1_555 1_555
H34 C38 1_555 1_555
H35 C38 1_555 1_555
H36 C38 1_555 1_555
C39 C36 1_555 1_555
H37 C39 1_555 1_555
H38 C39 1_555 1_555
H39 C39 1_555 1_555
C40 H40 1_555 1_555
C41 C32 1_555 1_555
C42 C41 1_555 1_555
N4 C42 1_555 1_555
C43 C40 1_555 1_555
C44 C43 1_555 1_555
H41 C44 1_555 1_555
C45 C44 1_555 1_555
C46 C45 1_555 1_555
H42 C46 1_555 1_555
C47 C46 1_555 1_555
C48 C43 1_555 1_555
H43 C48 1_555 1_555
C49 C47 1_555 1_555
C50 C49 1_555 1_555
H44 C50 1_555 1_555
H45 C50 1_555 1_555
H46 C50 1_555 1_555
C51 C49 1_555 1_555
H47 C51 1_555 1_555
H48 C51 1_555 1_555
H49 C51 1_555 1_555
C52 C49 1_555 1_555
H50 C52 1_555 1_555
H51 C52 1_555 1_555
H52 C52 1_555 1_555
C53 H53 1_555 1_555
C54 C45 1_555 1_555
C55 C54 1_555 1_555
N5 C55 1_555 1_555
C56 C53 1_555 1_555
C57 C56 1_555 1_555
H54 C57 1_555 1_555
C58 C2 1_555 1_555
C59 C58 1_555 1_555
H55 C59 1_555 1_555
C60 C59 1_555 1_555
C61 C56 1_555 1_555
H56 C61 1_555 1_555
C62 C60 1_555 1_555
C63 C62 1_555 1_555
H57 C63 1_555 1_555
H58 C63 1_555 1_555
H59 C63 1_555 1_555
C64 C62 1_555 1_555
H60 C64 1_555 1_555
H61 C64 1_555 1_555
H62 C64 1_555 1_555
C65 C62 1_555 1_555
H63 C65 1_555 1_555
H64 C65 1_555 1_555
H65 C65 1_555 1_555
C8 C9 1_555 1_555
C14 C15 1_555 1_555
C21 C22 1_555 1_555
C27 C28 1_555 1_555
C34 C35 1_555 1_555
C40 C41 1_555 1_555
C47 C48 1_555 1_555
C53 C54 1_555 1_555
C57 C58 1_555 1_555
C60 C61 1_555 1_555

#END
