
#######################################################################
#
#                 Cambridge Crystallographic Data Centre
#                                CCDC 
#
#######################################################################
#
# If this CIF has been generated from an entry in the Cambridge 
# Structural Database, then it will include bibliographic, chemical, 
# crystal, experimental, refinement or atomic coordinate data resulting 
# from the CCDC's data processing and validation procedures.
#
#######################################################################

data_UYUHOM
_chemical_formula_moiety         'C70 H24 Br2 O6'
_chemical_name_systematic        
1,9-bis(t-butylperoxy)-6,12-dimethoxy-15,18-dibromo-C60fullerene
_symmetry_cell_setting           orthorhombic
_symmetry_space_group_name_H-M   'P 21 21 21'
_symmetry_Int_Tables_number      19
_space_group_name_Hall           'P 2ac 2ab'
loop_
_symmetry_equiv_pos_site_id
_symmetry_equiv_pos_as_xyz
1 x,y,z
2 1/2+x,1/2-y,-z
3 -x,1/2+y,1/2-z
4 1/2-x,-y,1/2+z
_cell_length_a                   12.0065(12)
_cell_length_b                   17.5800(18)
_cell_length_c                   20.214(2)
_cell_angle_alpha                90
_cell_angle_beta                 90
_cell_angle_gamma                90
_cell_volume                     4266.66
_exptl_crystal_colour            colorless
_exptl_crystal_description       prism
_cell_formula_units_Z            4
loop_
_atom_site_label
_atom_site_type_symbol
_atom_site_fract_x
_atom_site_fract_y
_atom_site_fract_z
Br1 Br 0.58118(2) 0.719911(13) 0.079657(12)
Br2 Br 0.75525(2) 0.859768(14) 0.228117(13)
C1 C 0.5229(2) 1.00075(13) 0.06376(11)
C2 C 0.4773(2) 0.91948(13) 0.05258(11)
C3 C 0.51542(19) 0.87483(13) 0.10207(11)
C4 C 0.5728(2) 0.92168(13) 0.15299(11)
C5 C 0.56657(19) 0.99535(13) 0.13569(11)
C6 C 0.4357(2) 1.06618(12) 0.05283(11)
C7 C 0.3184(2) 1.03654(13) 0.03681(11)
C8 C 0.2922(2) 0.96420(14) 0.01817(11)
C9 C 0.3767(2) 0.89953(13) 0.01144(11)
C10 C 0.3121(2) 0.83449(13) 0.04689(11)
C11 C 0.3580(2) 0.78683(13) 0.09314(11)
C12 C 0.4756(2) 0.79610(13) 0.11734(11)
C13 C 0.4646(2) 0.78508(13) 0.19170(11)
C14 C 0.5190(2) 0.82835(12) 0.23761(11)
C15 C 0.59582(19) 0.89356(13) 0.22014(11)
C16 C 0.56573(19) 0.95463(13) 0.27044(12)
C17 C 0.55447(19) 1.02913(13) 0.25348(11)
C18 C 0.5750(2) 1.06111(12) 0.18250(11)
C19 C 0.4719(2) 1.11026(13) 0.17312(12)
C20 C 0.4120(2) 1.11179(12) 0.11619(11)
C21 C 0.2939(2) 1.12790(13) 0.12019(12)
C22 C 0.2374(2) 1.08191(12) 0.07119(11)
C23 C 0.1309(2) 1.05457(13) 0.08408(13)
C24 C 0.1034(2) 0.97791(14) 0.06517(12)
C25 C 0.1839(2) 0.93388(13) 0.03383(12)
C26 C 0.1966(2) 0.85454(14) 0.05209(12)
C27 C 0.1298(2) 0.82308(14) 0.10057(13)
C28 C 0.1778(2) 0.77275(14) 0.14908(13)
C29 C 0.2907(2) 0.75670(13) 0.14607(12)
C30 C 0.3559(2) 0.75532(13) 0.20557(12)
C31 C 0.3069(2) 0.76787(13) 0.26648(12)
C32 C 0.3627(2) 0.81321(14) 0.31498(12)
C33 C 0.4675(2) 0.84386(13) 0.30010(11)
C34 C 0.4939(2) 0.92080(14) 0.32019(11)
C35 C 0.4152(2) 0.96465(13) 0.35329(11)
C36 C 0.4029(2) 1.04306(14) 0.33471(11)
C37 C 0.4694(2) 1.07358(13) 0.28502(11)
C38 C 0.4197(2) 1.12382(12) 0.23579(11)
C39 C 0.3074(2) 1.14191(13) 0.23962(11)
C40 C 0.2432(2) 1.14489(12) 0.17996(11)
C41 C 0.1329(2) 1.11472(13) 0.19422(12)
C42 C 0.0788(2) 1.07056(13) 0.14711(12)
C43 C 0.0187(2) 1.00212(14) 0.16749(13)
C44 C 0.03353(19) 0.94529(15) 0.11685(12)
C45 C 0.04592(19) 0.86987(15) 0.13416(12)
C46 C 0.0446(2) 0.84791(15) 0.20340(13)
C47 C 0.1257(2) 0.78714(14) 0.21281(12)
C48 C 0.1883(2) 0.78496(14) 0.27027(12)
C49 C 0.1727(2) 0.84176(14) 0.32091(12)
C50 C 0.2809(2) 0.85895(15) 0.34910(11)
C51 C 0.3067(2) 0.93373(14) 0.36765(11)
C52 C 0.2257(2) 0.99303(15) 0.35805(11)
C53 C 0.2847(2) 1.06155(14) 0.33779(12)
C54 C 0.2387(2) 1.11020(13) 0.29182(12)
C55 C 0.1298(2) 1.09312(14) 0.26362(12)
C56 C 0.0727(2) 1.02788(14) 0.28273(12)
C57 C 0.0158(2) 0.98152(15) 0.23404(13)
C58 C 0.0295(2) 0.90293(15) 0.25264(13)
C59 C 0.0949(2) 0.89987(14) 0.31240(12)
C60 C 0.1214(2) 0.97685(15) 0.33156(12)
C61 C 0.7232(2) 0.96324(15) -0.05929(14)
C62 C 0.7629(3) 0.89543(16) -0.01968(14)
H1 H 0.7636 0.9084 0.0275
H2 H 0.8383 0.8815 -0.0338
H3 H 0.7126 0.8524 -0.0270
C63 C 0.7007(2) 0.94283(18) -0.13153(14)
H4 H 0.6429 0.9035 -0.1337
H5 H 0.7693 0.9236 -0.1519
H6 H 0.6755 0.9882 -0.1554
C64 C 0.8030(3) 1.03012(19) -0.05364(16)
H7 H 0.7745 1.0729 -0.0797
H8 H 0.8764 1.0152 -0.0704
H9 H 0.8095 1.0454 -0.0072
C65 C 0.4677(2) 1.24102(14) -0.02321(13)
C66 C 0.5596(2) 1.22924(14) -0.07547(13)
H10 H 0.6064 1.1860 -0.0626
H11 H 0.6054 1.2752 -0.0784
H12 H 0.5253 1.2190 -0.1186
C67 C 0.3785(2) 1.29536(14) -0.04684(13)
H13 H 0.3452 1.2758 -0.0877
H14 H 0.4117 1.3453 -0.0553
H15 H 0.3207 1.3001 -0.0128
C68 C 0.5151(3) 1.26605(16) 0.04223(13)
H16 H 0.4546 1.2723 0.0743
H17 H 0.5541 1.3146 0.0366
H18 H 0.5676 1.2276 0.0583
C69 C 0.4523(2) 0.81721(14) -0.07075(12)
H19 H 0.5223 0.8165 -0.0458
H20 H 0.4684 0.8141 -0.1182
H21 H 0.4064 0.7737 -0.0576
C70 C 0.7732(2) 1.06992(14) 0.17966(13)
H22 H 0.7751 1.0402 0.2207
H23 H 0.8341 1.1070 0.1799
H24 H 0.7818 1.0358 0.1417
O1 O 0.62494(15) 1.01363(10) 0.02973(9)
O2 O 0.61107(15) 0.98680(10) -0.03880(9)
O3 O 0.48443(14) 1.11020(9) 0.00071(8)
O4 O 0.40364(15) 1.17062(8) -0.01492(8)
O5 O 0.39424(15) 0.88559(9) -0.05725(8)
O6 O 0.67073(14) 1.10832(9) 0.17499(9)
loop_
_geom_bond_atom_site_label_1
_geom_bond_atom_site_label_2
_geom_bond_site_symmetry_1
_geom_bond_site_symmetry_2
Br1 C12 1_555 1_555
Br2 C15 1_555 1_555
C1 C2 1_555 1_555
C2 C3 1_555 1_555
C3 C4 1_555 1_555
C4 C5 1_555 1_555
C5 C1 1_555 1_555
C6 C1 1_555 1_555
C7 C6 1_555 1_555
C8 C7 1_555 1_555
C9 C2 1_555 1_555
C10 C9 1_555 1_555
C11 C10 1_555 1_555
C12 C3 1_555 1_555
C13 C12 1_555 1_555
C14 C13 1_555 1_555
C15 C4 1_555 1_555
C16 C15 1_555 1_555
C17 C16 1_555 1_555
C18 C5 1_555 1_555
C19 C18 1_555 1_555
C20 C6 1_555 1_555
C21 C20 1_555 1_555
C22 C7 1_555 1_555
C23 C22 1_555 1_555
C24 C23 1_555 1_555
C25 C8 1_555 1_555
C26 C10 1_555 1_555
C27 C26 1_555 1_555
C28 C27 1_555 1_555
C29 C11 1_555 1_555
C30 C13 1_555 1_555
C31 C30 1_555 1_555
C32 C31 1_555 1_555
C33 C14 1_555 1_555
C34 C16 1_555 1_555
C35 C34 1_555 1_555
C36 C35 1_555 1_555
C37 C17 1_555 1_555
C38 C19 1_555 1_555
C39 C38 1_555 1_555
C40 C21 1_555 1_555
C41 C40 1_555 1_555
C42 C23 1_555 1_555
C43 C42 1_555 1_555
C44 C24 1_555 1_555
C45 C27 1_555 1_555
C46 C45 1_555 1_555
C47 C28 1_555 1_555
C48 C31 1_555 1_555
C49 C48 1_555 1_555
C50 C32 1_555 1_555
C51 C35 1_555 1_555
C52 C51 1_555 1_555
C53 C36 1_555 1_555
C54 C39 1_555 1_555
C55 C41 1_555 1_555
C56 C55 1_555 1_555
C57 C43 1_555 1_555
C58 C46 1_555 1_555
C59 C49 1_555 1_555
C60 C52 1_555 1_555
C61 C62 1_555 1_555
C62 H1 1_555 1_555
H2 C62 1_555 1_555
H3 C62 1_555 1_555
C63 C61 1_555 1_555
H4 C63 1_555 1_555
H5 C63 1_555 1_555
H6 C63 1_555 1_555
C64 C61 1_555 1_555
H7 C64 1_555 1_555
H8 C64 1_555 1_555
H9 C64 1_555 1_555
C65 C66 1_555 1_555
C66 H10 1_555 1_555
H11 C66 1_555 1_555
H12 C66 1_555 1_555
C67 C65 1_555 1_555
H13 C67 1_555 1_555
H14 C67 1_555 1_555
H15 C67 1_555 1_555
C68 C65 1_555 1_555
H16 C68 1_555 1_555
H17 C68 1_555 1_555
H18 C68 1_555 1_555
C69 H19 1_555 1_555
H20 C69 1_555 1_555
H21 C69 1_555 1_555
C70 H22 1_555 1_555
H23 C70 1_555 1_555
H24 C70 1_555 1_555
O1 C1 1_555 1_555
O2 C61 1_555 1_555
O3 C6 1_555 1_555
O4 C65 1_555 1_555
O5 C9 1_555 1_555
O6 C18 1_555 1_555
C8 C9 1_555 1_555
C11 C12 1_555 1_555
C14 C15 1_555 1_555
C17 C18 1_555 1_555
C19 C20 1_555 1_555
C21 C22 1_555 1_555
C24 C25 1_555 1_555
C25 C26 1_555 1_555
C28 C29 1_555 1_555
C29 C30 1_555 1_555
C32 C33 1_555 1_555
C33 C34 1_555 1_555
C36 C37 1_555 1_555
C37 C38 1_555 1_555
C39 C40 1_555 1_555
C41 C42 1_555 1_555
C43 C44 1_555 1_555
C44 C45 1_555 1_555
C46 C47 1_555 1_555
C47 C48 1_555 1_555
C49 C50 1_555 1_555
C50 C51 1_555 1_555
C52 C53 1_555 1_555
C53 C54 1_555 1_555
C54 C55 1_555 1_555
C56 C57 1_555 1_555
C56 C60 1_555 1_555
C57 C58 1_555 1_555
C58 C59 1_555 1_555
C59 C60 1_555 1_555
C69 O5 1_555 1_555
C70 O6 1_555 1_555
O1 O2 1_555 1_555
O3 O4 1_555 1_555

#END
