
#######################################################################
#
#                 Cambridge Crystallographic Data Centre
#                                CCDC 
#
#######################################################################
#
# If this CIF has been generated from an entry in the Cambridge 
# Structural Database, then it will include bibliographic, chemical, 
# crystal, experimental, refinement or atomic coordinate data resulting 
# from the CCDC's data processing and validation procedures.
#
#######################################################################

data_UYUXIW
_chemical_formula_moiety         'C4 H8 O1,C57 H30 Cl3 N9 O6'
_chemical_name_systematic        
'11,31,48-Trichloro-8,14,28,34,45,51-hexaoxa-10,12,30,32,47,49,58,64,70-nonaazatridecacyclo[19.19.15.2^4,7^.2^15,18^.2^24,27^.2^35,38^.2^41,44^.2^52,55^.1^3,39^.1^9,13^.1^19,23^.1^29,33^.1^46,50^]doheptaconta-1,3(61),4,6,9(70),10,12,15,17,19(67),20,22,24,26,29(64),30,32,35,37,39,41,43,46(58),47,49,52,54,56,59,62,65,68,71-tritriacontaene tetrahydrofuran solvate'
_symmetry_cell_setting           monoclinic
_symmetry_space_group_name_H-M   'P 21/c'
_symmetry_Int_Tables_number      14
_space_group_name_Hall           '-P 2ybc'
loop_
_symmetry_equiv_pos_site_id
_symmetry_equiv_pos_as_xyz
1 x,y,z
2 -x,1/2+y,1/2-z
3 -x,-y,-z
4 x,1/2-y,1/2+z
_cell_length_a                   12.2358(13)
_cell_length_b                   22.538(2)
_cell_length_c                   18.8470(19)
_cell_angle_alpha                90
_cell_angle_beta                 95.309(6)
_cell_angle_gamma                90
_cell_volume                     5175.15
_exptl_crystal_colour            colorless
_exptl_crystal_description       prism
_cell_formula_units_Z            4
loop_
_atom_site_label
_atom_site_type_symbol
_atom_site_fract_x
_atom_site_fract_y
_atom_site_fract_z
Cl1 Cl 0.01410(12) 0.34054(6) 0.16102(9)
Cl2 Cl 0.16849(13) 1.16446(6) 0.50518(8)
Cl3 Cl 1.17212(15) 0.81661(12) -0.15806(10)
O1 O 0.0191(2) 0.55118(13) 0.09715(18)
O2 O 0.2036(3) 1.07173(13) 0.27639(17)
O3 O 0.7771(3) 0.82757(18) -0.14237(19)
O4 O 0.3358(2) 0.46704(13) 0.19901(18)
O5 O 0.3160(3) 0.96669(13) 0.47759(16)
O6 O 1.0060(3) 0.83180(19) 0.06476(19)
N1 N 0.1804(3) 0.51205(15) 0.1483(2)
N2 N 0.0176(3) 0.45327(16) 0.1263(2)
N3 N 0.1847(3) 0.40922(16) 0.1776(2)
N4 N 0.2628(3) 1.01696(15) 0.37458(19)
N5 N 0.1930(3) 1.11509(16) 0.3834(2)
N6 N 0.2441(3) 1.05799(16) 0.4897(2)
N7 N 0.8862(3) 0.82720(18) -0.0363(2)
N8 N 0.9614(4) 0.8233(2) -0.1486(3)
N9 N 1.0798(4) 0.8263(2) -0.0396(2)
C1 C 0.2740(4) 0.76340(19) 0.0845(2)
C2 C 0.3579(3) 0.7662(2) 0.0394(2)
H1 H 0.3710 0.7331 0.0102
C3 C 0.4238(4) 0.8175(2) 0.0364(2)
C4 C 0.4011(4) 0.8662(2) 0.0791(2)
H2 H 0.4451 0.9009 0.0778
C5 C 0.3148(3) 0.86513(19) 0.1236(2)
C6 C 0.2534(4) 0.8121(2) 0.1266(2)
H3 H 0.1971 0.8097 0.1580
C7 C 0.2049(3) 0.70860(19) 0.0880(2)
C8 C 0.1718(4) 0.6760(2) 0.0267(3)
H4 H 0.1915 0.6895 -0.0182
C9 C 0.1105(4) 0.6240(2) 0.0298(3)
H5 H 0.0892 0.6020 -0.0121
C10 C 0.0819(3) 0.60533(19) 0.0949(3)
C11 C 0.1090(4) 0.6369(2) 0.1564(3)
H6 H 0.0858 0.6240 0.2006
C12 C 0.1712(4) 0.6882(2) 0.1526(3)
H7 H 0.1914 0.7100 0.1949
C13 C 0.2871(3) 0.91828(19) 0.1640(2)
C14 C 0.3673(4) 0.9602(2) 0.1883(3)
H8 H 0.4415 0.9537 0.1793
C15 C 0.3404(4) 1.01063(19) 0.2251(3)
H9 H 0.3957 1.0382 0.2417
C16 C 0.2318(4) 1.0202(2) 0.2374(2)
C17 C 0.1504(4) 0.9810(2) 0.2142(3)
H10 H 0.0763 0.9881 0.2230
C18 C 0.1783(4) 0.9310(2) 0.1778(3)
H11 H 0.1219 0.9040 0.1614
C19 C 0.5144(4) 0.8202(2) -0.0111(3)
C20 C 0.5679(4) 0.7700(2) -0.0313(3)
H12 H 0.5458 0.7324 -0.0150
C21 C 0.6543(4) 0.7730(3) -0.0753(3)
H13 H 0.6894 0.7376 -0.0885
C22 C 0.6878(4) 0.8259(3) -0.0989(3)
C23 C 0.6352(4) 0.8770(3) -0.0818(3)
H14 H 0.6576 0.9141 -0.0995
C24 C 0.5493(4) 0.8744(3) -0.0389(3)
H15 H 0.5130 0.9100 -0.0279
C25 C 0.5003(3) 0.70233(17) 0.2370(2)
C26 C 0.5938(3) 0.71964(18) 0.2050(2)
H16 H 0.6272 0.6928 0.1748
C27 C 0.6387(3) 0.77670(19) 0.2172(2)
C28 C 0.5885(3) 0.81600(18) 0.2609(2)
H17 H 0.6181 0.8547 0.2684
C29 C 0.4951(3) 0.79958(17) 0.2941(2)
C30 C 0.4511(3) 0.74236(17) 0.2808(2)
H18 H 0.3869 0.7309 0.3021
C31 C 0.4568(3) 0.64096(18) 0.2264(2)
C32 C 0.4574(4) 0.6124(2) 0.1599(2)
H19 H 0.4854 0.6328 0.1213
C33 C 0.4175(4) 0.5546(2) 0.1498(2)
H20 H 0.4181 0.5353 0.1050
C34 C 0.3771(3) 0.52616(19) 0.2077(3)
C35 C 0.3762(3) 0.55265(19) 0.2733(2)
H21 H 0.3486 0.5320 0.3118
C36 C 0.4163(3) 0.60988(19) 0.2825(3)
H22 H 0.4163 0.6283 0.3278
C37 C 0.4469(3) 0.84149(17) 0.3431(2)
C38 C 0.3326(3) 0.84889(18) 0.3424(2)
H23 H 0.2852 0.8257 0.3108
C39 C 0.2877(3) 0.88949(19) 0.3872(2)
H24 H 0.2104 0.8940 0.3864
C40 C 0.3576(3) 0.92298(18) 0.4327(2)
C41 C 0.4700(4) 0.91593(18) 0.4362(2)
H25 H 0.5166 0.9383 0.4693
C42 C 0.5141(3) 0.87577(18) 0.3909(2)
H26 H 0.5915 0.8715 0.3925
C43 C 0.7377(3) 0.79397(19) 0.1811(2)
C44 C 0.8235(4) 0.7535(2) 0.1764(3)
H27 H 0.8213 0.7162 0.1998
C45 C 0.9117(4) 0.7671(2) 0.1379(3)
H28 H 0.9695 0.7393 0.1347
C46 C 0.9146(3) 0.8201(2) 0.1052(3)
C47 C 0.8353(4) 0.8627(2) 0.1111(3)
H29 H 0.8411 0.9005 0.0893
C48 C 0.7456(4) 0.8492(2) 0.1498(3)
H30 H 0.6902 0.8781 0.1546
C49 C 0.0758(4) 0.50367(19) 0.1249(3)
C50 C 0.0795(4) 0.4096(2) 0.1534(3)
C51 C 0.2293(3) 0.46323(19) 0.1730(2)
C52 C 0.2212(3) 1.0671(2) 0.3475(2)
C53 C 0.2068(4) 1.1058(2) 0.4534(3)
C54 C 0.2723(3) 1.01514(19) 0.4455(2)
C55 C 0.8781(4) 0.8263(2) -0.1073(3)
C56 C 1.0572(4) 0.8216(3) -0.1097(3)
C57 C 0.9888(4) 0.8280(2) -0.0077(3)
O7 O 0.2536(7) 0.4967(3) 0.4008(5)
C58 C 0.0731(9) 0.5137(4) 0.4237(6)
H31 H 0.0288 0.4771 0.4258
H32 H 0.0234 0.5484 0.4180
C59 C 0.1574(10) 0.5202(6) 0.4921(6)
H33 H 0.1391 0.5550 0.5209
H34 H 0.1573 0.4842 0.5222
C60 C 0.1446(9) 0.5109(7) 0.3670(8)
H35 H 0.1455 0.5494 0.3418
H36 H 0.1194 0.4798 0.3322
C61 C 0.2643(12) 0.5282(8) 0.4638(7)
H37 H 0.2790 0.5706 0.4552
H38 H 0.3243 0.5119 0.4970
loop_
_geom_bond_atom_site_label_1
_geom_bond_atom_site_label_2
_geom_bond_site_symmetry_1
_geom_bond_site_symmetry_2
Cl1 C50 1_555 1_555
Cl2 C53 1_555 1_555
Cl3 C56 1_555 1_555
O1 C10 1_555 1_555
O2 C16 1_555 1_555
O3 C22 1_555 1_555
O4 C34 1_555 1_555
O5 C40 1_555 1_555
O6 C46 1_555 1_555
N1 C49 1_555 1_555
N2 C49 1_555 1_555
N3 C50 1_555 1_555
N4 C52 1_555 1_555
N5 C52 1_555 1_555
N6 C53 1_555 1_555
N7 C55 1_555 1_555
N8 C55 1_555 1_555
N9 C56 1_555 1_555
C1 C2 1_555 1_555
C2 H1 1_555 1_555
C3 C2 1_555 1_555
C4 C3 1_555 1_555
H2 C4 1_555 1_555
C5 C4 1_555 1_555
C6 C1 1_555 1_555
H3 C6 1_555 1_555
C7 C1 1_555 1_555
C8 C7 1_555 1_555
H4 C8 1_555 1_555
C9 C8 1_555 1_555
H5 C9 1_555 1_555
C10 C9 1_555 1_555
C11 C10 1_555 1_555
H6 C11 1_555 1_555
C12 C7 1_555 1_555
H7 C12 1_555 1_555
C13 C5 1_555 1_555
C14 C13 1_555 1_555
H8 C14 1_555 1_555
C15 C14 1_555 1_555
H9 C15 1_555 1_555
C16 C15 1_555 1_555
C17 C16 1_555 1_555
H10 C17 1_555 1_555
C18 C13 1_555 1_555
H11 C18 1_555 1_555
C19 C3 1_555 1_555
C20 C19 1_555 1_555
H12 C20 1_555 1_555
C21 C20 1_555 1_555
H13 C21 1_555 1_555
C22 C21 1_555 1_555
C23 C22 1_555 1_555
H14 C23 1_555 1_555
C24 C19 1_555 1_555
H15 C24 1_555 1_555
C25 C26 1_555 1_555
C26 H16 1_555 1_555
C27 C26 1_555 1_555
C28 C27 1_555 1_555
H17 C28 1_555 1_555
C29 C28 1_555 1_555
C30 C25 1_555 1_555
H18 C30 1_555 1_555
C31 C25 1_555 1_555
C32 C31 1_555 1_555
H19 C32 1_555 1_555
C33 C32 1_555 1_555
H20 C33 1_555 1_555
C34 C33 1_555 1_555
C35 C34 1_555 1_555
H21 C35 1_555 1_555
C36 C31 1_555 1_555
H22 C36 1_555 1_555
C37 C29 1_555 1_555
C38 C37 1_555 1_555
H23 C38 1_555 1_555
C39 C38 1_555 1_555
H24 C39 1_555 1_555
C40 C39 1_555 1_555
C41 C40 1_555 1_555
H25 C41 1_555 1_555
C42 C37 1_555 1_555
H26 C42 1_555 1_555
C43 C27 1_555 1_555
C44 C43 1_555 1_555
H27 C44 1_555 1_555
C45 C44 1_555 1_555
H28 C45 1_555 1_555
C46 C45 1_555 1_555
C47 C46 1_555 1_555
H29 C47 1_555 1_555
C48 C43 1_555 1_555
H30 C48 1_555 1_555
C49 O1 1_555 1_555
C50 N2 1_555 1_555
C51 O4 1_555 1_555
C52 O2 1_555 1_555
C53 N5 1_555 1_555
C54 O5 1_555 1_555
C55 O3 1_555 1_555
C56 N8 1_555 1_555
C57 O6 1_555 1_555
O7 C60 1_555 1_555
C58 H31 1_555 1_555
H32 C58 1_555 1_555
C59 C58 1_555 1_555
H33 C59 1_555 1_555
H34 C59 1_555 1_555
C60 C58 1_555 1_555
H35 C60 1_555 1_555
H36 C60 1_555 1_555
C61 O7 1_555 1_555
H37 C61 1_555 1_555
H38 C61 1_555 1_555
N1 C51 1_555 1_555
N3 C51 1_555 1_555
N4 C54 1_555 1_555
N6 C54 1_555 1_555
N7 C57 1_555 1_555
N9 C57 1_555 1_555
C5 C6 1_555 1_555
C11 C12 1_555 1_555
C17 C18 1_555 1_555
C23 C24 1_555 1_555
C29 C30 1_555 1_555
C35 C36 1_555 1_555
C41 C42 1_555 1_555
C47 C48 1_555 1_555
C59 C61 1_555 1_555

#END
