
#######################################################################
#
#                 Cambridge Crystallographic Data Centre
#                                CCDC 
#
#######################################################################
#
# If this CIF has been generated from an entry in the Cambridge 
# Structural Database, then it will include bibliographic, chemical, 
# crystal, experimental, refinement or atomic coordinate data resulting 
# from the CCDC's data processing and validation procedures.
#
#######################################################################

data_UYUXOC
_chemical_formula_moiety         'C69 H60 N12 O6'
_chemical_name_systematic        
N,N,N',N',N'',N''-Hexaethyl-8,14,28,34,45,51-hexaoxa-10,12,30,32,47,49,58,64,70-nonaazatridecacyclo[19.19.15.2^4,7^.2^15,18^.2^24,27^.2^35,38^.2^41,44^.2^52,55^.1^3,39^.1^9,13^.1^19,23^.1^29,33^.1^46,50^]doheptaconta-1,3(61),4,6,9(70),10,12,15,17,19(67),20,22,24,26,29(64),30,32,35,37,39,41,43,46(58),47,49,52,54,56,59,62,65,68,71-tritriacontaene-11,31,48-triamine
_symmetry_cell_setting           monoclinic
_symmetry_space_group_name_H-M   'P 21/m'
_symmetry_Int_Tables_number      11
_space_group_name_Hall           '-P 2yb'
loop_
_symmetry_equiv_pos_site_id
_symmetry_equiv_pos_as_xyz
1 x,y,z
2 -x,1/2+y,-z
3 -x,-y,-z
4 x,1/2-y,z
_cell_length_a                   18.845(5)
_cell_length_b                   13.192(3)
_cell_length_c                   19.392(5)
_cell_angle_alpha                90
_cell_angle_beta                 117.468(3)
_cell_angle_gamma                90
_cell_volume                     4277.45
_exptl_crystal_colour            colorless
_exptl_crystal_description       plate
_cell_formula_units_Z            2
loop_
_atom_site_label
_atom_site_type_symbol
_atom_site_fract_x
_atom_site_fract_y
_atom_site_fract_z
O1 O 0.99799(7) 0.57581(9) -0.23480(7)
O2 O 0.27296(7) 0.57633(9) -0.47172(7)
O3 O 0.74418(8) 0.57571(9) 0.23794(6)
N1 N 1.16130(11) 0.7500 -0.30682(11)
N2 N 0.99222(13) 0.7500 -0.23426(12)
N3 N 1.07936(8) 0.65895(11) -0.26977(8)
N4 N 0.06249(11) 0.7500 -0.65574(11)
N5 N 0.27582(11) 0.7500 -0.46276(11)
N6 N 0.16943(8) 0.65909(11) -0.56513(8)
N7 N 0.79237(13) 0.7500 0.45662(10)
N8 N 0.76812(8) 0.65925(10) 0.34655(7)
N9 N 0.74769(12) 0.7500 0.23262(10)
C1 C -0.02638(14) 0.61362(19) -0.64703(16)
H1 H -0.0492 0.5472 -0.6683
H2 H -0.0696 0.6611 -0.6552
H3 H 0.0095 0.6072 -0.5912
C2 C 1.12844(14) 0.60844(18) -0.40391(13)
H4 H 1.1505 0.5450 -0.4123
H5 H 1.1195 0.6561 -0.4459
H6 H 1.0776 0.5946 -0.4034
C3 C 0.88785(14) 0.61613(17) 0.53788(12)
H7 H 0.8899 0.5489 0.5602
H8 H 0.9213 0.6632 0.5792
H9 H 0.9076 0.6118 0.4992
C4 C 0.85799(12) 0.61220(16) -0.27376(11)
H10 H 0.8522 0.6418 -0.3208
C5 C 0.79319(10) 0.60708(16) -0.25809(10)
H11 H 0.7432 0.6351 -0.2939
C6 C 0.01994(12) 0.65277(16) -0.68755(11)
H12 H 0.0596 0.6009 -0.6836
H13 H -0.0175 0.6622 -0.7434
C7 C 0.49135(11) 0.61032(14) -0.35487(10)
H14 H 0.5353 0.6381 -0.3598
C8 C 0.65493(10) 0.61143(14) 0.10239(9)
H15 H 0.6172 0.6408 0.1162
C9 C 0.41459(10) 0.61536(14) -0.41736(10)
H16 H 0.4059 0.6455 -0.4651
C10 C 0.94002(11) 0.52737(15) -0.15375(11)
H17 H 0.9902 0.5001 -0.1178
C11 C 0.77992(11) 0.52824(14) 0.13950(10)
H18 H 0.8281 0.5004 0.1789
C12 C 0.35134(10) 0.57567(13) -0.40842(9)
C13 C 0.63814(10) 0.60545(14) 0.02453(9)
H19 H 0.5885 0.6306 -0.0144
C14 C 0.76259(10) 0.52296(15) 0.06189(10)
H20 H 0.7997 0.4907 0.0486
C15 C 0.80233(12) 0.65389(14) 0.49920(10)
H21 H 0.7677 0.6016 0.4625
H22 H 0.7844 0.6638 0.5393
C16 C 0.80092(10) 0.56086(13) -0.18974(9)
C17 C 0.74204(10) 0.56173(14) -0.09624(10)
H23 H 0.7949 0.5636 -0.0546
C18 C 0.87291(10) 0.52060(15) -0.13936(10)
H24 H 0.8783 0.4874 -0.0937
C19 C 0.36067(10) 0.53043(13) -0.34107(9)
H25 H 0.3161 0.5042 -0.3365
C20 C 1.18735(11) 0.65457(13) -0.32620(11)
H26 H 1.1971 0.6049 -0.2845
H27 H 1.2389 0.6662 -0.3270
C21 C 0.93131(11) 0.57366(13) -0.21997(10)
C22 C 0.43898(10) 0.52409(13) -0.27862(9)
H28 H 0.4470 0.4917 -0.2318
C23 C 0.65315(10) 0.55803(13) -0.23333(9)
H29 H 0.6447 0.5554 -0.2855
C24 C 0.13522(14) 0.7500 -0.59290(13)
C25 C 0.23847(10) 0.66655(13) -0.50100(9)
C26 C 1.10599(13) 0.7500 -0.28175(12)
C27 C 0.50413(9) 0.56392(12) -0.28410(9)
C28 C 0.59976(10) 0.56018(13) -0.14157(9)
H30 H 0.5554 0.5603 -0.1309
C29 C 1.02423(10) 0.66695(13) -0.24673(9)
C30 C 0.72526(11) 0.57518(13) 0.15807(9)
C31 C 0.77652(13) 0.7500 0.38233(12)
C32 C 0.69232(10) 0.56351(13) 0.00255(9)
C33 C 0.75374(10) 0.66604(13) 0.27373(9)
C34 C 0.73086(10) 0.56021(13) -0.17324(9)
C35 C 0.67747(10) 0.56053(13) -0.07974(9)
C36 C 0.58637(9) 0.55968(12) -0.21871(9)
O1C O 0.99799(7) 0.92419(9) -0.23480(7)
O2C O 0.27296(7) 0.92367(9) -0.47172(7)
O3C O 0.74418(8) 0.92429(9) 0.23794(6)
N3C N 1.07936(8) 0.84105(11) -0.26977(8)
N6C N 0.16943(8) 0.84091(11) -0.56513(8)
N8C N 0.76812(8) 0.84075(10) 0.34655(7)
C1C C -0.02638(14) 0.88638(19) -0.64703(16)
H1C H -0.0492 0.9528 -0.6683
H2C H -0.0696 0.8389 -0.6552
H3C H 0.0095 0.8928 -0.5912
C2C C 1.12844(14) 0.89156(18) -0.40391(13)
H4C H 1.1505 0.9550 -0.4123
H5C H 1.1195 0.8439 -0.4459
H6C H 1.0776 0.9054 -0.4034
C3C C 0.88785(14) 0.88387(17) 0.53788(12)
H7C H 0.8899 0.9511 0.5602
H8C H 0.9213 0.8368 0.5792
H9C H 0.9076 0.8882 0.4992
C4C C 0.85799(12) 0.88780(16) -0.27376(11)
H10C H 0.8522 0.8582 -0.3208
C5C C 0.79319(10) 0.89292(16) -0.25809(10)
H11C H 0.7432 0.8649 -0.2939
C6C C 0.01994(12) 0.84723(16) -0.68755(11)
H12C H 0.0596 0.8991 -0.6836
H13C H -0.0175 0.8378 -0.7434
C7C C 0.49135(11) 0.88968(14) -0.35487(10)
H14C H 0.5353 0.8619 -0.3598
C8C C 0.65493(10) 0.88857(14) 0.10239(9)
H15C H 0.6172 0.8592 0.1162
C9C C 0.41459(10) 0.88464(14) -0.41736(10)
H16C H 0.4059 0.8545 -0.4651
C10C C 0.94002(11) 0.97263(15) -0.15375(11)
H17C H 0.9902 0.9999 -0.1178
C11C C 0.77992(11) 0.97176(14) 0.13950(10)
H18C H 0.8281 0.9996 0.1789
C12C C 0.35134(10) 0.92433(13) -0.40842(9)
C13C C 0.63814(10) 0.89455(14) 0.02453(9)
H19C H 0.5885 0.8694 -0.0144
C14C C 0.76259(10) 0.97704(15) 0.06189(10)
H20C H 0.7997 1.0093 0.0486
C15C C 0.80233(12) 0.84611(14) 0.49920(10)
H21C H 0.7677 0.8984 0.4625
H22C H 0.7844 0.8362 0.5393
C16C C 0.80092(10) 0.93914(13) -0.18974(9)
C17C C 0.74204(10) 0.93827(14) -0.09624(10)
H23C H 0.7949 0.9364 -0.0546
C18C C 0.87291(10) 0.97940(15) -0.13936(10)
H24C H 0.8783 1.0126 -0.0937
C19C C 0.36067(10) 0.96957(13) -0.34107(9)
H25C H 0.3161 0.9958 -0.3365
C20C C 1.18735(11) 0.84543(13) -0.32620(11)
H26C H 1.1971 0.8951 -0.2845
H27C H 1.2389 0.8338 -0.3270
C21C C 0.93131(11) 0.92634(13) -0.21997(10)
C22C C 0.43898(10) 0.97591(13) -0.27862(9)
H28C H 0.4470 1.0083 -0.2318
C23C C 0.65315(10) 0.94197(13) -0.23333(9)
H29C H 0.6447 0.9446 -0.2855
C25C C 0.23847(10) 0.83345(13) -0.50100(9)
C27C C 0.50413(9) 0.93608(12) -0.28410(9)
C28C C 0.59976(10) 0.93982(13) -0.14157(9)
H30C H 0.5554 0.9397 -0.1309
C29C C 1.02423(10) 0.83305(13) -0.24673(9)
C30C C 0.72526(11) 0.92482(13) 0.15807(9)
C32C C 0.69232(10) 0.93649(13) 0.00255(9)
C33C C 0.75374(10) 0.83396(13) 0.27373(9)
C34C C 0.73086(10) 0.93979(13) -0.17324(9)
C35C C 0.67747(10) 0.93947(13) -0.07974(9)
C36C C 0.58637(9) 0.94032(12) -0.21871(9)
loop_
_geom_bond_atom_site_label_1
_geom_bond_atom_site_label_2
_geom_bond_site_symmetry_1
_geom_bond_site_symmetry_2
O1 C21 1_555 1_555
O2 C12 1_555 1_555
O3 C30 1_555 1_555
N1 C20 1_555 1_555
N2 C29 1_555 1_555
N3 C26 1_555 1_555
N4 C6 1_555 1_555
N5 C25 1_555 1_555
N6 C24 1_555 1_555
N7 C15 1_555 1_555
N8 C31 1_555 1_555
N9 C33 1_555 1_555
C1 H1 1_555 1_555
H2 C1 1_555 1_555
H3 C1 1_555 1_555
C2 H4 1_555 1_555
H5 C2 1_555 1_555
H6 C2 1_555 1_555
C3 H7 1_555 1_555
H8 C3 1_555 1_555
H9 C3 1_555 1_555
C4 H10 1_555 1_555
C5 C4 1_555 1_555
H11 C5 1_555 1_555
C6 C1 1_555 1_555
H12 C6 1_555 1_555
H13 C6 1_555 1_555
C7 H14 1_555 1_555
C8 H15 1_555 1_555
C9 C7 1_555 1_555
H16 C9 1_555 1_555
C10 H17 1_555 1_555
C11 H18 1_555 1_555
C12 C9 1_555 1_555
C13 C8 1_555 1_555
H19 C13 1_555 1_555
C14 C11 1_555 1_555
H20 C14 1_555 1_555
C15 C3 1_555 1_555
H21 C15 1_555 1_555
H22 C15 1_555 1_555
C16 C5 1_555 1_555
C17 H23 1_555 1_555
C18 C10 1_555 1_555
H24 C18 1_555 1_555
C19 C12 1_555 1_555
H25 C19 1_555 1_555
C20 C2 1_555 1_555
H26 C20 1_555 1_555
H27 C20 1_555 1_555
C21 C4 1_555 1_555
C22 C19 1_555 1_555
H28 C22 1_555 1_555
C23 H29 1_555 1_555
C24 N4 1_555 1_555
C25 O2 1_555 1_555
C26 N1 1_555 1_555
C27 C7 1_555 1_555
C28 H30 1_555 1_555
C29 O1 1_555 1_555
C30 C8 1_555 1_555
C31 N7 1_555 1_555
C32 C13 1_555 1_555
C33 O3 1_555 1_555
C34 C16 1_555 1_555
C35 C17 1_555 1_555
C36 C23 1_555 1_555
O1C C21C 1_555 1_555
O2C C12C 1_555 1_555
O3C C30C 1_555 1_555
N3C C26 1_555 1_555
N6C C24 1_555 1_555
N8C C31 1_555 1_555
C1C H1C 1_555 1_555
H2C C1C 1_555 1_555
H3C C1C 1_555 1_555
C2C H4C 1_555 1_555
H5C C2C 1_555 1_555
H6C C2C 1_555 1_555
C3C H7C 1_555 1_555
H8C C3C 1_555 1_555
H9C C3C 1_555 1_555
C4C H10C 1_555 1_555
C5C C4C 1_555 1_555
H11C C5C 1_555 1_555
C6C N4 1_555 1_555
H12C C6C 1_555 1_555
H13C C6C 1_555 1_555
C7C H14C 1_555 1_555
C8C H15C 1_555 1_555
C9C C7C 1_555 1_555
H16C C9C 1_555 1_555
C10C H17C 1_555 1_555
C11C H18C 1_555 1_555
C12C C9C 1_555 1_555
C13C C8C 1_555 1_555
H19C C13C 1_555 1_555
C14C C11C 1_555 1_555
H20C C14C 1_555 1_555
C15C N7 1_555 1_555
H21C C15C 1_555 1_555
H22C C15C 1_555 1_555
C16C C5C 1_555 1_555
C17C H23C 1_555 1_555
C18C C10C 1_555 1_555
H24C C18C 1_555 1_555
C19C C12C 1_555 1_555
H25C C19C 1_555 1_555
C20C N1 1_555 1_555
H26C C20C 1_555 1_555
H27C C20C 1_555 1_555
C21C C4C 1_555 1_555
C22C C19C 1_555 1_555
H28C C22C 1_555 1_555
C23C H29C 1_555 1_555
C25C N5 1_555 1_555
C27C C7C 1_555 1_555
C28C H30C 1_555 1_555
C29C N2 1_555 1_555
C30C C8C 1_555 1_555
C32C C13C 1_555 1_555
C33C N9 1_555 1_555
C34C C16C 1_555 1_555
C35C C17C 1_555 1_555
C36C C23C 1_555 1_555
N3 C29 1_555 1_555
N6 C25 1_555 1_555
N8 C33 1_555 1_555
C10 C21 1_555 1_555
C11 C30 1_555 1_555
C14 C32 1_555 1_555
C16 C18 1_555 1_555
C17 C34 1_555 1_555
C22 C27 1_555 1_555
C23 C34 1_555 1_555
C27 C36 1_555 1_555
C28 C35 1_555 1_555
C28 C36 1_555 1_555
C32 C35 1_555 1_555
O1C C29C 1_555 1_555
O2C C25C 1_555 1_555
O3C C33C 1_555 1_555
N3C C29C 1_555 1_555
N6C C25C 1_555 1_555
N8C C33C 1_555 1_555
C1C C6C 1_555 1_555
C2C C20C 1_555 1_555
C3C C15C 1_555 1_555
C10C C21C 1_555 1_555
C11C C30C 1_555 1_555
C14C C32C 1_555 1_555
C16C C18C 1_555 1_555
C17C C34C 1_555 1_555
C22C C27C 1_555 1_555
C23C C34C 1_555 1_555
C27C C36C 1_555 1_555
C28C C35C 1_555 1_555
C28C C36C 1_555 1_555
C32C C35C 1_555 1_555

#END
