
#######################################################################
#
#                 Cambridge Crystallographic Data Centre
#                                CCDC 
#
#######################################################################
#
# If this CIF has been generated from an entry in the Cambridge 
# Structural Database, then it will include bibliographic, chemical, 
# crystal, experimental, refinement or atomic coordinate data resulting 
# from the CCDC's data processing and validation procedures.
#
#######################################################################

data_UYUYAQ
_chemical_formula_moiety         'C18 H22 O7'
_chemical_name_systematic        
8,8'-oxybis(6-methyl-4,5,6,8-tetrahydro-1H,3H-pyrano[3,4-c]pyran-1-one)
_symmetry_cell_setting           monoclinic
_symmetry_space_group_name_H-M   'P 21/c'
_symmetry_Int_Tables_number      14
_space_group_name_Hall           '-P 2ybc'
loop_
_symmetry_equiv_pos_site_id
_symmetry_equiv_pos_as_xyz
1 x,y,z
2 -x,1/2+y,1/2-z
3 -x,-y,-z
4 x,1/2-y,1/2+z
_cell_length_a                   9.5350(17)
_cell_length_b                   8.4098(15)
_cell_length_c                   21.881(4)
_cell_angle_alpha                90
_cell_angle_beta                 101.266(2)
_cell_angle_gamma                90
_cell_volume                     1720.77
_exptl_crystal_colour            colorless
_exptl_crystal_description       block
_cell_formula_units_Z            4
loop_
_atom_site_label
_atom_site_type_symbol
_atom_site_fract_x
_atom_site_fract_y
_atom_site_fract_z
O1 O 0.22155(17) 0.0492(2) 0.38199(7)
O2 O 0.3536(2) 0.1975(2) 0.32246(8)
O3 O 0.29889(19) 0.1480(2) 0.48271(8)
O4 O 0.4674(2) -0.2010(3) 0.38285(10)
O5 O -0.0315(2) 0.3130(3) 0.37195(10)
O6 O -0.1606(2) 0.2405(3) 0.28141(11)
O7 O 0.3978(3) -0.3967(3) 0.43688(11)
C1 C 0.0946(3) 0.2010(3) 0.29925(12)
C2 C 0.3281(3) 0.0414(3) 0.43741(11)
H1 H 0.4204 0.0700 0.4271
C3 C 0.2303(3) 0.1929(3) 0.34801(12)
H2 H 0.2321 0.2832 0.3765
C4 C 0.3361(3) -0.1282(3) 0.45990(12)
C5 C 0.2364(3) -0.0510(4) 0.55071(13)
H3 H 0.3090 -0.0197 0.5862
H4 H 0.1575 -0.0982 0.5663
C6 C 0.2973(3) -0.1700(3) 0.51252(13)
C7 C 0.1846(3) 0.0933(4) 0.51210(13)
H5 H 0.1031 0.0627 0.4796
C8 C 0.0953(3) 0.1783(3) 0.23929(13)
C9 C 0.2319(3) 0.1426(4) 0.21783(13)
H6 H 0.2635 0.2372 0.1990
H7 H 0.2147 0.0601 0.1863
C10 C -0.0349(3) 0.2530(4) 0.32072(15)
C11 C 0.4037(3) -0.2409(4) 0.42298(15)
C12 C 0.3477(3) 0.0889(4) 0.27089(13)
H8 H 0.3243 -0.0177 0.2840
C13 C -0.0433(3) 0.1932(4) 0.19377(14)
H9 H -0.0431 0.1230 0.1586
H10 H -0.0552 0.3015 0.1783
C14 C 0.3048(4) -0.4454(4) 0.47842(17)
H11 H 0.3285 -0.5534 0.4923
H12 H 0.2066 -0.4449 0.4558
C15 C -0.1642(3) 0.1500(5) 0.22538(15)
H13 H -0.2543 0.1689 0.1970
H14 H -0.1587 0.0376 0.2355
C16 C 0.3171(4) -0.3399(4) 0.53381(15)
H15 H 0.4103 -0.3530 0.5605
H16 H 0.2448 -0.3682 0.5576
C17 C 0.4947(3) 0.0858(5) 0.25530(17)
H17 H 0.5226 0.1920 0.2468
H18 H 0.4934 0.0205 0.2192
H19 H 0.5617 0.0431 0.2899
C18 C 0.1409(4) 0.2317(4) 0.54847(17)
H20 H 0.2230 0.2707 0.5772
H21 H 0.0698 0.1971 0.5711
H22 H 0.1023 0.3151 0.5202
loop_
_geom_bond_atom_site_label_1
_geom_bond_atom_site_label_2
_geom_bond_site_symmetry_1
_geom_bond_site_symmetry_2
O1 C2 1_555 1_555
O2 C3 1_555 1_555
O3 C2 1_555 1_555
O4 C11 1_555 1_555
O5 C10 1_555 1_555
O6 C10 1_555 1_555
O7 C11 1_555 1_555
C1 C3 1_555 1_555
C2 H1 1_555 1_555
C3 O1 1_555 1_555
H2 C3 1_555 1_555
C4 C2 1_555 1_555
C5 H3 1_555 1_555
H4 C5 1_555 1_555
C6 C4 1_555 1_555
C7 O3 1_555 1_555
H5 C7 1_555 1_555
C8 C1 1_555 1_555
C9 C8 1_555 1_555
H6 C9 1_555 1_555
H7 C9 1_555 1_555
C10 C1 1_555 1_555
C11 C4 1_555 1_555
C12 O2 1_555 1_555
H8 C12 1_555 1_555
C13 C8 1_555 1_555
H9 C13 1_555 1_555
H10 C13 1_555 1_555
C14 O7 1_555 1_555
H11 C14 1_555 1_555
H12 C14 1_555 1_555
C15 O6 1_555 1_555
H13 C15 1_555 1_555
H14 C15 1_555 1_555
C16 C6 1_555 1_555
H15 C16 1_555 1_555
H16 C16 1_555 1_555
C17 C12 1_555 1_555
H17 C17 1_555 1_555
H18 C17 1_555 1_555
H19 C17 1_555 1_555
C18 C7 1_555 1_555
H20 C18 1_555 1_555
H21 C18 1_555 1_555
H22 C18 1_555 1_555
C5 C6 1_555 1_555
C5 C7 1_555 1_555
C9 C12 1_555 1_555
C13 C15 1_555 1_555
C14 C16 1_555 1_555

#END
