
#######################################################################
#
#                 Cambridge Crystallographic Data Centre
#                                CCDC 
#
#######################################################################
#
# If this CIF has been generated from an entry in the Cambridge 
# Structural Database, then it will include bibliographic, chemical, 
# crystal, experimental, refinement or atomic coordinate data resulting 
# from the CCDC's data processing and validation procedures.
#
#######################################################################

data_UYUYAP
_chemical_formula_moiety         'C75 H69 N15 O6'
_chemical_name_systematic        
8,34,45-Triallyl-11,31,48-tributoxy-14,28,51-trioxa-2,8,10,12,30,32,34,40,45,47,49,58,61,64,70-pentadecaazatridecacyclo[19.19.15.2^4,7^.2^15,18^.2^24,27^.2^35,38^.2^41,44^.2^52,55^.1^3,39^.1^9,13^.1^19,23^.1^29,33^.1^46,50^]doheptaconta-1,3(61),4,6,9(70),10,12,15,17,19(67),20,22,24,26,29(64),30,32,35,37,39,41,43,46(58),47,49,52,54,56,59,62,65,68,71-tritriacontaene
_symmetry_cell_setting           rhombohedral
_symmetry_space_group_name_H-M   'R -3'
_symmetry_Int_Tables_number      148
_space_group_name_Hall           '-R 3'
loop_
_symmetry_equiv_pos_site_id
_symmetry_equiv_pos_as_xyz
1 x,y,z
2 -y,x-y,z
3 -x+y,-x,z
4 2/3+x,1/3+y,1/3+z
5 2/3-y,1/3+x-y,1/3+z
6 2/3-x+y,1/3-x,1/3+z
7 1/3+x,2/3+y,2/3+z
8 1/3-y,2/3+x-y,2/3+z
9 1/3-x+y,2/3-x,2/3+z
10 -x,-y,-z
11 y,-x+y,-z
12 x-y,x,-z
13 1/3-x,2/3-y,2/3-z
14 1/3+y,2/3-x+y,2/3-z
15 1/3+x-y,2/3+x,2/3-z
16 2/3-x,1/3-y,1/3-z
17 2/3+y,1/3-x+y,1/3-z
18 2/3+x-y,1/3+x,1/3-z
_cell_length_a                   23.832(3)
_cell_length_b                   23.832(3)
_cell_length_c                   21.741(4)
_cell_angle_alpha                90
_cell_angle_beta                 90
_cell_angle_gamma                120
_cell_volume                     10693.8
_exptl_crystal_colour            colorless
_exptl_crystal_description       block
_cell_formula_units_Z            6
loop_
_atom_site_label
_atom_site_type_symbol
_atom_site_fract_x
_atom_site_fract_y
_atom_site_fract_z
O1 O 0.0994(2) 0.3322(2) 0.4263(2)
O2 O 0.0803(3) 0.4891(3) 0.3351(2)
N1 N 0.0567(3) 0.0577(3) 0.2370(2)
N2 N -0.0007(3) 0.2914(3) 0.2410(3)
N3 N 0.0371(3) 0.3928(3) 0.2853(3)
N4 N 0.0913(3) 0.4116(3) 0.3811(3)
N5 N 0.0482(3) 0.3094(3) 0.3343(3)
C1 C -0.0002(5) 0.0551(4) 0.2377(3)
C2 C 0.0001(4) 0.1168(4) 0.2357(3)
C3 C 0.0576(4) 0.1760(4) 0.2347(3)
H1 H 0.0977 0.1767 0.2332
C4 C 0.0573(4) 0.2326(4) 0.2357(3)
H2 H 0.0971 0.2725 0.2340
C5 C 0.0005(4) 0.2329(4) 0.2391(3)
C6 C -0.0587(4) 0.1734(4) 0.2380(3)
H3 H -0.0988 0.1729 0.2373
C7 C -0.0575(4) 0.1164(4) 0.2379(3)
H4 H -0.0970 0.0763 0.2395
C8 C 0.0311(4) 0.3342(4) 0.2886(4)
C9 C 0.0693(4) 0.4281(5) 0.3335(5)
C10 C 0.0787(4) 0.3519(4) 0.3784(4)
C11 C 0.0831(4) 0.2664(4) 0.4262(3)
C12 C 0.1193(3) 0.2478(3) 0.3927(3)
H5 H 0.1573 0.2788 0.3719
C13 C 0.0992(3) 0.1827(3) 0.3899(3)
H6 H 0.1237 0.1686 0.3669
C14 C 0.0440(3) 0.1379(3) 0.4200(3)
C15 C 0.0100(3) 0.1587(3) 0.4559(3)
H7 H -0.0271 0.1283 0.4783
C16 C 0.0306(3) 0.2247(3) 0.4590(3)
H8 H 0.0082 0.2399 0.4837
C17 C 0.0214(4) 0.0657(3) 0.4170(3)
C18 C 0.0659(3) 0.0447(3) 0.4155(3)
H9 H 0.1109 0.0752 0.4134
C19 C -0.0355(4) 0.3077(4) 0.1930(4)
H10 H -0.0413 0.2813 0.1559
H11 H -0.0083 0.3539 0.1814
C20 C -0.1035(5) 0.2955(4) 0.2148(4)
H12 H -0.1036 0.3207 0.2493
C21 C -0.1620(6) 0.2501(8) 0.1957(9)
H13 H -0.1945 0.2610 0.1876
H14 H -0.1712 0.2067 0.1903
C22 C 0.0578(5) 0.5149(4) 0.2851(4)
H15 H 0.0603 0.4960 0.2453
H16 H 0.0859 0.5625 0.2827
C23 C -0.0100(5) 0.4984(4) 0.2970(5)
H17 H -0.0143 0.5097 0.3398
H18 H -0.0394 0.4512 0.2914
C24 C -0.0287(5) 0.5360(5) 0.2522(5)
H19 H -0.0247 0.5244 0.2093
H20 H 0.0009 0.5831 0.2575
C25 C -0.1034(6) 0.5182(6) 0.2655(6)
H21 H -0.1272 0.5085 0.2265
H22 H -0.1034 0.5552 0.2852
H23 H -0.1244 0.4804 0.2926
O1A O -0.3322(2) -0.2328(3) 0.4263(2)
O1B O 0.2328(3) -0.0994(2) 0.4263(2)
O2A O -0.4891(3) -0.4088(4) 0.3351(2)
O2B O 0.4088(4) -0.0803(3) 0.3351(2)
N1A N -0.0577(3) -0.0010(4) 0.2370(2)
N1B N 0.0010(4) -0.0567(3) 0.2370(2)
N2A N -0.2914(3) -0.2921(4) 0.2410(3)
N2B N 0.2921(4) 0.0007(3) 0.2410(3)
N3A N -0.3928(3) -0.3557(4) 0.2853(3)
N3B N 0.3557(4) -0.0371(3) 0.2853(3)
N4A N -0.4116(3) -0.3203(4) 0.3811(3)
N4B N 0.3203(4) -0.0913(3) 0.3811(3)
N5A N -0.3094(3) -0.2612(4) 0.3343(3)
N5B N 0.2612(4) -0.0482(3) 0.3343(3)
C1A C -0.0551(4) -0.0553(6) 0.2377(3)
C1B C 0.0553(6) 0.0002(5) 0.2377(3)
C2A C -0.1168(4) -0.1167(6) 0.2357(3)
C2B C 0.1167(6) -0.0001(4) 0.2357(3)
C3A C -0.1760(4) -0.1184(6) 0.2347(3)
C3B C 0.1184(6) -0.0576(4) 0.2347(3)
H1A H -0.1767 -0.0790 0.2332
H1B H 0.0790 -0.0977 0.2332
C4A C -0.2326(4) -0.1753(6) 0.2357(3)
C4B C 0.1753(6) -0.0573(4) 0.2357(3)
H2A H -0.2725 -0.1754 0.2340
H2B H 0.1754 -0.0971 0.2340
C5A C -0.2329(4) -0.2324(6) 0.2391(3)
C5B C 0.2324(6) -0.0005(4) 0.2391(3)
C6A C -0.1734(4) -0.2321(6) 0.2380(3)
C6B C 0.2321(6) 0.0587(4) 0.2380(3)
H3A H -0.1729 -0.2717 0.2373
H3B H 0.2717 0.0988 0.2373
C7A C -0.1164(4) -0.1739(6) 0.2379(3)
C7B C 0.1739(6) 0.0575(4) 0.2379(3)
H4A H -0.0763 -0.1733 0.2395
H4B H 0.1733 0.0970 0.2395
C8A C -0.3342(4) -0.3031(6) 0.2886(4)
C8B C 0.3031(6) -0.0311(4) 0.2886(4)
C9A C -0.4281(5) -0.3588(6) 0.3335(5)
C9B C 0.3588(6) -0.0693(4) 0.3335(5)
C10A C -0.3519(4) -0.2732(6) 0.3784(4)
C10B C 0.2732(6) -0.0787(4) 0.3784(4)
C11A C -0.2664(4) -0.1833(6) 0.4262(3)
C11B C 0.1833(6) -0.0831(4) 0.4262(3)
C12A C -0.2478(3) -0.1285(4) 0.3927(3)
C12B C 0.1285(4) -0.1193(3) 0.3927(3)
H5A H -0.2788 -0.1215 0.3719
H5B H 0.1215 -0.1573 0.3719
C13A C -0.1827(3) -0.0835(4) 0.3899(3)
C13B C 0.0835(4) -0.0992(3) 0.3899(3)
H6A H -0.1686 -0.0449 0.3669
H6B H 0.0449 -0.1237 0.3669
C14A C -0.1379(3) -0.0939(4) 0.4200(3)
C14B C 0.0939(4) -0.0440(3) 0.4200(3)
C15A C -0.1587(3) -0.1487(4) 0.4559(3)
C15B C 0.1487(4) -0.0100(3) 0.4559(3)
H7A H -0.1283 -0.1554 0.4783
H7B H 0.1554 0.0271 0.4783
C16A C -0.2247(3) -0.1941(4) 0.4590(3)
C16B C 0.1941(4) -0.0306(3) 0.4590(3)
H8A H -0.2399 -0.2317 0.4837
H8B H 0.2317 -0.0082 0.4837
C17A C -0.0657(3) -0.0443(5) 0.4170(3)
C17B C 0.0443(5) -0.0214(4) 0.4170(3)
C18A C -0.0447(3) 0.0212(4) 0.4155(3)
C18B C -0.0212(4) -0.0659(3) 0.4155(3)
H9A H -0.0752 0.0357 0.4134
H9B H -0.0357 -0.1109 0.4134
C19A C -0.3077(4) -0.3432(6) 0.1930(4)
C19B C 0.3432(6) 0.0355(4) 0.1930(4)
H10A H -0.2813 -0.3226 0.1559
H10B H 0.3226 0.0413 0.1559
H11A H -0.3539 -0.3622 0.1814
H11B H 0.3622 0.0083 0.1814
C20A C -0.2955(4) -0.3990(6) 0.2148(4)
C20B C 0.3990(6) 0.1035(5) 0.2148(4)
H12A H -0.3207 -0.4243 0.2493
H12B H 0.4243 0.1036 0.2493
C21A C -0.2501(8) -0.4121(10) 0.1957(9)
C21B C 0.4121(10) 0.1620(6) 0.1957(9)
H13A H -0.2610 -0.4555 0.1876
H13B H 0.4555 0.1945 0.1876
H14A H -0.2067 -0.3779 0.1903
H14B H 0.3779 0.1712 0.1903
C22A C -0.5149(4) -0.4571(6) 0.2851(4)
C22B C 0.4571(6) -0.0578(5) 0.2851(4)
H15A H -0.4960 -0.4357 0.2453
H15B H 0.4357 -0.0603 0.2453
H16A H -0.5625 -0.4766 0.2827
H16B H 0.4766 -0.0859 0.2827
C23A C -0.4984(4) -0.5084(6) 0.2970(5)
C23B C 0.5084(6) 0.0100(5) 0.2970(5)
H17A H -0.5097 -0.5240 0.3398
H17B H 0.5240 0.0143 0.3398
H18A H -0.4512 -0.4906 0.2914
H18B H 0.4906 0.0394 0.2914
C24A C -0.5360(5) -0.5647(7) 0.2522(5)
C24B C 0.5647(7) 0.0287(5) 0.2522(5)
H19A H -0.5244 -0.5491 0.2093
H19B H 0.5491 0.0247 0.2093
H20A H -0.5831 -0.5822 0.2575
H20B H 0.5822 -0.0009 0.2575
C25A C -0.5182(6) -0.6216(8) 0.2655(6)
C25B C 0.6216(8) 0.1034(6) 0.2655(6)
H21A H -0.5085 -0.6357 0.2265
H21B H 0.6357 0.1272 0.2265
H22A H -0.5552 -0.6586 0.2852
H22B H 0.6586 0.1034 0.2852
H23A H -0.4804 -0.6048 0.2926
H23B H 0.6048 0.1244 0.2926
C26? C -0.1364(8) 0.3272(9) 0.2079(9)
H24? H -0.1284 0.2576 0.2395
H25? H -0.1802 0.3046 0.1944
H26? H -0.1160 0.3723 0.2165
loop_
_geom_bond_atom_site_label_1
_geom_bond_atom_site_label_2
_geom_bond_site_symmetry_1
_geom_bond_site_symmetry_2
O1 C10 1_555 1_555
O2 C9 1_555 1_555
N1 C1 1_555 1_555
N2 C5 1_555 1_555
N3 C8 1_555 1_555
N4 C9 1_555 1_555
N5 C8 1_555 1_555
C1 C2 1_555 1_555
C2 C3 1_555 1_555
C3 H1 1_555 1_555
C4 C3 1_555 1_555
H2 C4 1_555 1_555
C5 C4 1_555 1_555
C6 C5 1_555 1_555
H3 C6 1_555 1_555
C7 C2 1_555 1_555
H4 C7 1_555 1_555
C8 N2 1_555 1_555
C9 N3 1_555 1_555
C10 N4 1_555 1_555
C11 O1 1_555 1_555
C12 C11 1_555 1_555
H5 C12 1_555 1_555
C13 C12 1_555 1_555
H6 C13 1_555 1_555
C14 C13 1_555 1_555
C15 C14 1_555 1_555
H7 C15 1_555 1_555
C16 C11 1_555 1_555
H8 C16 1_555 1_555
C17 C14 1_555 1_555
C18 C17 1_555 1_555
H9 C18 1_555 1_555
C19 N2 1_555 1_555
H10 C19 1_555 1_555
H11 C19 1_555 1_555
C20 C19 1_555 1_555
H12 C20 1_555 1_555
C21 C20 1_555 1_555
H13 C21 1_555 1_555
H14 C21 1_555 1_555
C22 O2 1_555 1_555
H15 C22 1_555 1_555
H16 C22 1_555 1_555
C23 C22 1_555 1_555
H17 C23 1_555 1_555
H18 C23 1_555 1_555
C24 C23 1_555 1_555
H19 C24 1_555 1_555
H20 C24 1_555 1_555
C25 C24 1_555 1_555
H21 C25 1_555 1_555
H22 C25 1_555 1_555
H23 C25 1_555 1_555
O1A C10A 1_555 1_555
O1B C10B 1_555 1_555
O2A C9A 1_555 1_555
O2B C9B 1_555 1_555
N1A C1 1_555 1_555
N1B C1A 1_555 1_555
N2A C5A 1_555 1_555
N2B C5B 1_555 1_555
N3A C8A 1_555 1_555
N3B C8B 1_555 1_555
N4A C9A 1_555 1_555
N4B C9B 1_555 1_555
N5A C8A 1_555 1_555
N5B C8B 1_555 1_555
C1A N1A 1_555 1_555
C1B N1 1_555 1_555
C2A C1A 1_555 1_555
C2B C1B 1_555 1_555
C3A C2A 1_555 1_555
C3B C2B 1_555 1_555
H1A C3A 1_555 1_555
H1B C3B 1_555 1_555
C4A C3A 1_555 1_555
C4B C3B 1_555 1_555
H2A C4A 1_555 1_555
H2B C4B 1_555 1_555
C5A C4A 1_555 1_555
C5B C4B 1_555 1_555
C6A C5A 1_555 1_555
C6B C5B 1_555 1_555
H3A C6A 1_555 1_555
H3B C6B 1_555 1_555
C7A C2A 1_555 1_555
C7B C2B 1_555 1_555
H4A C7A 1_555 1_555
H4B C7B 1_555 1_555
C8A N2A 1_555 1_555
C8B N2B 1_555 1_555
C9A N3A 1_555 1_555
C9B N3B 1_555 1_555
C10A N4A 1_555 1_555
C10B N4B 1_555 1_555
C11A O1A 1_555 1_555
C11B O1B 1_555 1_555
C12A C11A 1_555 1_555
C12B C11B 1_555 1_555
H5A C12A 1_555 1_555
H5B C12B 1_555 1_555
C13A C12A 1_555 1_555
C13B C12B 1_555 1_555
H6A C13A 1_555 1_555
H6B C13B 1_555 1_555
C14A C13A 1_555 1_555
C14B C13B 1_555 1_555
C15A C14A 1_555 1_555
C15B C14B 1_555 1_555
H7A C15A 1_555 1_555
H7B C15B 1_555 1_555
C16A C11A 1_555 1_555
C16B C11B 1_555 1_555
H8A C16A 1_555 1_555
H8B C16B 1_555 1_555
C17A C14A 1_555 1_555
C17B C18 1_555 1_555
C18A C17 1_555 1_555
C18B C17A 1_555 1_555
H9A C18A 1_555 1_555
H9B C18B 1_555 1_555
C19A N2A 1_555 1_555
C19B N2B 1_555 1_555
H10A C19A 1_555 1_555
H10B C19B 1_555 1_555
H11A C19A 1_555 1_555
H11B C19B 1_555 1_555
C20A C19A 1_555 1_555
C20B C19B 1_555 1_555
H12A C20A 1_555 1_555
H12B C20B 1_555 1_555
C21A C20A 1_555 1_555
C21B C20B 1_555 1_555
H13A C21A 1_555 1_555
H13B C21B 1_555 1_555
H14A C21A 1_555 1_555
H14B C21B 1_555 1_555
C22A O2A 1_555 1_555
C22B O2B 1_555 1_555
H15A C22A 1_555 1_555
H15B C22B 1_555 1_555
H16A C22A 1_555 1_555
H16B C22B 1_555 1_555
C23A C22A 1_555 1_555
C23B C22B 1_555 1_555
H17A C23A 1_555 1_555
H17B C23B 1_555 1_555
H18A C23A 1_555 1_555
H18B C23B 1_555 1_555
C24A C23A 1_555 1_555
C24B C23B 1_555 1_555
H19A C24A 1_555 1_555
H19B C24B 1_555 1_555
H20A C24A 1_555 1_555
H20B C24B 1_555 1_555
C25A C24A 1_555 1_555
C25B C24B 1_555 1_555
H21A C25A 1_555 1_555
H21B C25B 1_555 1_555
H22A C25A 1_555 1_555
H22B C25B 1_555 1_555
H23A C25A 1_555 1_555
H23B C25B 1_555 1_555
N5 C10 1_555 1_555
C6 C7 1_555 1_555
C15 C16 1_555 1_555
N1B C1B 1_555 1_555
N5A C10A 1_555 1_555
N5B C10B 1_555 1_555
C6A C7A 1_555 1_555
C6B C7B 1_555 1_555
C14B C17B 1_555 1_555
C15A C16A 1_555 1_555
C15B C16B 1_555 1_555
C17A C18A 1_555 1_555
C17B C18B 1_555 1_555

#END
