
#######################################################################
#
#                 Cambridge Crystallographic Data Centre
#                                CCDC 
#
#######################################################################
#
# If this CIF has been generated from an entry in the Cambridge 
# Structural Database, then it will include bibliographic, chemical, 
# crystal, experimental, refinement or atomic coordinate data resulting 
# from the CCDC's data processing and validation procedures.
#
#######################################################################

data_UZABON
_chemical_formula_moiety         'C33 H35 N1 O6 Si1'
_chemical_name_systematic        
'Methyl (6-(((t-butyl(diphenyl)silyl)oxy)methyl)-5-(1,3-dioxo-1,3-dihydro-2H-isoindol-2-yl)-5,6-dihydro-2H-pyran-2-yl)acetate'
_symmetry_cell_setting           monoclinic
_symmetry_space_group_name_H-M   'C 2'
_symmetry_Int_Tables_number      5
_space_group_name_Hall           'C 2y'
loop_
_symmetry_equiv_pos_site_id
_symmetry_equiv_pos_as_xyz
1 x,y,z
2 -x,y,-z
3 1/2+x,1/2+y,z
4 1/2-x,1/2+y,-z
_cell_length_a                   18.2912(4)
_cell_length_b                   10.6350(2)
_cell_length_c                   15.6481(3)
_cell_angle_alpha                90
_cell_angle_beta                 92.6080(10)
_cell_angle_gamma                90
_cell_volume                     3040.82
_exptl_crystal_colour            colorless
_exptl_crystal_description       plate
_cell_formula_units_Z            4
loop_
_atom_site_label
_atom_site_type_symbol
_atom_site_fract_x
_atom_site_fract_y
_atom_site_fract_z
Si1 Si 0.213454(18) 0.41406(3) 0.15922(2)
O1 O 0.18895(5) 0.47030(9) 0.25205(5)
O2 O 0.14391(5) 0.53797(8) 0.41705(5)
O3 O 0.05160(6) 0.80883(10) 0.28613(7)
O4 O -0.01064(5) 0.66265(9) 0.35600(6)
O5 O 0.40793(5) 0.43414(8) 0.41792(6)
O6 O 0.30027(6) 0.82186(9) 0.43129(7)
N1 N 0.34034(6) 0.61483(10) 0.44130(7)
C1 C 0.23115(7) 0.45070(12) 0.32968(8)
H1 H 0.2839 0.4486 0.3180
H2 H 0.2179 0.3692 0.3553
C2 C 0.21613(7) 0.55664(11) 0.39088(8)
H3 H 0.2190 0.6388 0.3601
C3 C 0.27186(7) 0.55596(11) 0.46745(8)
H4 H 0.2824 0.4667 0.4839
C4 C 0.24186(7) 0.62304(12) 0.54350(8)
H5 H 0.2739 0.6403 0.5916
C5 C 0.17261(8) 0.65853(12) 0.54558(8)
H6 H 0.1567 0.7012 0.5947
C6 C 0.11823(7) 0.63340(12) 0.47255(8)
H7 H 0.0725 0.6013 0.4976
C7 C 0.09831(8) 0.75395(12) 0.42283(9)
H8 H 0.0809 0.8179 0.4631
H9 H 0.1428 0.7875 0.3971
C8 C 0.04033(8) 0.73291(12) 0.35335(9)
C9 C -0.00606(10) 0.8069(2) 0.21956(12)
H10 H -0.0163 0.7198 0.2025
H11 H 0.0095 0.8546 0.1700
H12 H -0.0504 0.8450 0.2411
C10 C 0.40176(7) 0.54768(12) 0.41756(8)
C11 C 0.45553(7) 0.64272(12) 0.38987(8)
C12 C 0.52480(7) 0.62661(14) 0.35978(9)
H13 H 0.5464 0.5457 0.3559
C13 C 0.56149(8) 0.73487(14) 0.33548(9)
H14 H 0.6093 0.7277 0.3148
C14 C 0.52953(8) 0.85300(14) 0.34090(9)
H15 H 0.5560 0.9249 0.3238
C15 C 0.45950(8) 0.86836(13) 0.37081(9)
H16 H 0.4376 0.9491 0.3746
C16 C 0.42323(8) 0.76039(12) 0.39479(8)
C17 C 0.34790(7) 0.74434(12) 0.42483(8)
C18 C 0.14050(8) 0.47351(18) 0.07996(9)
C19 C 0.14813(11) 0.6170(2) 0.07476(14)
H17 H 0.1097 0.6508 0.0355
H18 H 0.1962 0.6384 0.0537
H19 H 0.1433 0.6535 0.1317
C20 C 0.06369(8) 0.4442(2) 0.11046(10)
H20 H 0.0589 0.4781 0.1682
H21 H 0.0564 0.3529 0.1114
H22 H 0.0268 0.4828 0.0713
C21 C 0.15107(10) 0.4150(3) -0.00875(10)
H23 H 0.1435 0.3239 -0.0058
H24 H 0.2008 0.4322 -0.0263
H25 H 0.1156 0.4516 -0.0505
C22 C 0.30472(7) 0.48343(13) 0.13533(8)
C23 C 0.33185(8) 0.59070(13) 0.17750(9)
H26 H 0.3044 0.6275 0.2211
C24 C 0.39828(8) 0.64508(15) 0.15706(9)
H27 H 0.4163 0.7169 0.1873
C25 C 0.43757(8) 0.59336(16) 0.09240(10)
H28 H 0.4826 0.6302 0.0777
C26 C 0.41150(8) 0.48790(16) 0.04894(9)
H29 H 0.4384 0.4532 0.0041
C27 C 0.34623(7) 0.43285(15) 0.07076(9)
H30 H 0.3294 0.3595 0.0414
C28 C 0.22466(8) 0.23860(14) 0.16913(9)
C29 C 0.16958(11) 0.15093(19) 0.14803(13)
H31 H 0.1257 0.1785 0.1191
C30 C 0.17796(15) 0.0241(2) 0.16867(16)
H32 H 0.1397 -0.0335 0.1542
C31 C 0.24130(15) -0.01801(19) 0.20986(12)
H33 H 0.2466 -0.1043 0.2245
C32 C 0.29687(14) 0.06554(18) 0.22974(12)
H34 H 0.3411 0.0368 0.2573
C33 C 0.28821(10) 0.19208(16) 0.20941(10)
H35 H 0.3271 0.2486 0.2236
loop_
_geom_bond_atom_site_label_1
_geom_bond_atom_site_label_2
_geom_bond_site_symmetry_1
_geom_bond_site_symmetry_2
Si1 O1 1_555 1_555
O1 C1 1_555 1_555
O2 C2 1_555 1_555
O3 C8 1_555 1_555
O4 C8 1_555 1_555
O5 C10 1_555 1_555
O6 C17 1_555 1_555
N1 C3 1_555 1_555
C1 H1 1_555 1_555
H2 C1 1_555 1_555
C2 C1 1_555 1_555
H3 C2 1_555 1_555
C3 C2 1_555 1_555
H4 C3 1_555 1_555
C4 C3 1_555 1_555
H5 C4 1_555 1_555
C5 C4 1_555 1_555
H6 C5 1_555 1_555
C6 O2 1_555 1_555
H7 C6 1_555 1_555
C7 C6 1_555 1_555
H8 C7 1_555 1_555
H9 C7 1_555 1_555
C8 C7 1_555 1_555
C9 O3 1_555 1_555
H10 C9 1_555 1_555
H11 C9 1_555 1_555
H12 C9 1_555 1_555
C10 N1 1_555 1_555
C11 C10 1_555 1_555
C12 C11 1_555 1_555
H13 C12 1_555 1_555
C13 C12 1_555 1_555
H14 C13 1_555 1_555
C14 C13 1_555 1_555
H15 C14 1_555 1_555
C15 C14 1_555 1_555
H16 C15 1_555 1_555
C16 C11 1_555 1_555
C17 N1 1_555 1_555
C18 Si1 1_555 1_555
C19 C18 1_555 1_555
H17 C19 1_555 1_555
H18 C19 1_555 1_555
H19 C19 1_555 1_555
C20 C18 1_555 1_555
H20 C20 1_555 1_555
H21 C20 1_555 1_555
H22 C20 1_555 1_555
C21 C18 1_555 1_555
H23 C21 1_555 1_555
H24 C21 1_555 1_555
H25 C21 1_555 1_555
C22 Si1 1_555 1_555
C23 C22 1_555 1_555
H26 C23 1_555 1_555
C24 C23 1_555 1_555
H27 C24 1_555 1_555
C25 C24 1_555 1_555
H28 C25 1_555 1_555
C26 C25 1_555 1_555
H29 C26 1_555 1_555
C27 C22 1_555 1_555
H30 C27 1_555 1_555
C28 Si1 1_555 1_555
C29 C28 1_555 1_555
H31 C29 1_555 1_555
C30 C29 1_555 1_555
H32 C30 1_555 1_555
C31 C30 1_555 1_555
H33 C31 1_555 1_555
C32 C31 1_555 1_555
H34 C32 1_555 1_555
C33 C28 1_555 1_555
H35 C33 1_555 1_555
C5 C6 1_555 1_555
C15 C16 1_555 1_555
C16 C17 1_555 1_555
C26 C27 1_555 1_555
C32 C33 1_555 1_555

#END
