
#######################################################################
#
#                 Cambridge Crystallographic Data Centre
#                                CCDC 
#
#######################################################################
#
# If this CIF has been generated from an entry in the Cambridge 
# Structural Database, then it will include bibliographic, chemical, 
# crystal, experimental, refinement or atomic coordinate data resulting 
# from the CCDC's data processing and validation procedures.
#
#######################################################################

data_UZAKOX
_chemical_formula_moiety         'C13 H13 N3 O4'
_chemical_name_systematic        
5-(azido(phenyl)methyl)-6-hydroxytetrahydrofuro[3,2-b]furan-2(3H)-one
_chemical_properties_biological  
'In vitro cytotoxicity tested against K562, HL-60, Jurkat, Raji, MCF-7, HeLa, A549, MRC-5.'
_symmetry_cell_setting           orthorhombic
_symmetry_space_group_name_H-M   'P 21 21 21'
_symmetry_Int_Tables_number      19
_space_group_name_Hall           'P 2ac 2ab'
loop_
_symmetry_equiv_pos_site_id
_symmetry_equiv_pos_as_xyz
1 x,y,z
2 1/2-x,-y,1/2+z
3 1/2+x,1/2-y,-z
4 -x,1/2+y,1/2-z
_cell_length_a                   6.8329(3)
_cell_length_b                   9.3398(6)
_cell_length_c                   20.7050(10)
_cell_angle_alpha                90
_cell_angle_beta                 90
_cell_angle_gamma                90
_cell_volume                     1321.35
_exptl_crystal_colour            colorless
_exptl_crystal_description       plate
_cell_formula_units_Z            4
loop_
_atom_site_label
_atom_site_type_symbol
_atom_site_fract_x
_atom_site_fract_y
_atom_site_fract_z
O1 O 0.5899(5) 0.8315(4) 0.71948(18)
N1 N 1.0045(7) 0.9281(5) 0.50707(19)
C1 C 0.5037(8) 0.7154(7) 0.6932(3)
O2 O 0.3285(6) 0.7089(5) 0.6889(2)
N2 N 0.9997(7) 0.8011(5) 0.49144(18)
C2 C 0.6516(7) 0.6080(5) 0.6740(2)
H1 H 0.6264 0.5727 0.6307
H2 H 0.6522 0.5277 0.7037
O3 O 0.8865(5) 0.7515(3) 0.61526(13)
N3 N 0.9887(8) 0.6905(6) 0.4697(2)
C3 C 0.8418(7) 0.6878(5) 0.6767(2)
H3 H 0.9489 0.6272 0.6923
C4 C 0.8023(7) 0.8127(6) 0.7219(2)
H4 H 0.8493 0.7942 0.7659
O4 O 1.0991(5) 0.9482(4) 0.71346(17)
H5 H 1.159(5) 0.869(6) 0.704(3)
C5 C 0.9036(7) 0.9403(5) 0.6911(2)
H6 H 0.8332 1.0289 0.7013
C6 C 1.0466(7) 0.9606(5) 0.5759(2)
H7 H 1.1699 0.9142 0.5881
C7 C 0.8854(7) 0.9052(5) 0.6193(2)
H8 H 0.7594 0.9409 0.6034
C8 C 1.2754(13) 1.3230(9) 0.6066(3)
H9 H 1.394 1.3593 0.6213
C9 C 1.2467(9) 1.1773(7) 0.6026(3)
H10 H 1.3465 1.1155 0.6152
C10 C 1.0725(9) 1.1214(5) 0.5804(2)
C11 C 0.9261(11) 1.2140(6) 0.5618(3)
H11 H 0.8079 1.1783 0.5464
C12 C 0.9557(14) 1.3614(7) 0.5662(3)
H12 H 0.857 1.4241 0.5536
C13 C 1.1282(17) 1.4138(7) 0.5886(3)
H13 H 1.1463 1.5123 0.5919
loop_
_geom_bond_atom_site_label_1
_geom_bond_atom_site_label_2
_geom_bond_site_symmetry_1
_geom_bond_site_symmetry_2
O1 C1 1_555 1_555
N1 N2 1_555 1_555
C1 O2 1_555 1_555
N2 N3 1_555 1_555
C2 C1 1_555 1_555
H1 C2 1_555 1_555
H2 C2 1_555 1_555
O3 C3 1_555 1_555
C3 C2 1_555 1_555
H3 C3 1_555 1_555
C4 O1 1_555 1_555
H4 C4 1_555 1_555
O4 H5 1_555 1_555
C5 C4 1_555 1_555
H6 C5 1_555 1_555
C6 N1 1_555 1_555
H7 C6 1_555 1_555
C7 O3 1_555 1_555
H8 C7 1_555 1_555
C8 H9 1_555 1_555
C9 C8 1_555 1_555
H10 C9 1_555 1_555
C10 C6 1_555 1_555
C11 C10 1_555 1_555
H11 C11 1_555 1_555
C12 C11 1_555 1_555
H12 C12 1_555 1_555
C13 C8 1_555 1_555
H13 C13 1_555 1_555
C3 C4 1_555 1_555
O4 C5 1_555 1_555
C5 C7 1_555 1_555
C6 C7 1_555 1_555
C9 C10 1_555 1_555
C12 C13 1_555 1_555

#END
