
#######################################################################
#
#                 Cambridge Crystallographic Data Centre
#                                CCDC 
#
#######################################################################
#
# If this CIF has been generated from an entry in the Cambridge 
# Structural Database, then it will include bibliographic, chemical, 
# crystal, experimental, refinement or atomic coordinate data resulting 
# from the CCDC's data processing and validation procedures.
#
#######################################################################

data_UZAKAJ
_chemical_name_common            (+)-goniofufurone
_chemical_formula_moiety         'C13 H13 I1 O4'
_chemical_name_systematic        
6-hydroxy-5-(iodo(phenyl)methyl)tetrahydrofuro[3,2-b]furan-2(3H)-one
_chemical_properties_biological  
'In vitro cytotoxicity tested against K562, HL-60, Jurkat, Raji, MCF-7, HeLa, A549, MRC-5.  Showed potent antitumour activity.'
_symmetry_cell_setting           monoclinic
_symmetry_space_group_name_H-M   'P 21'
_symmetry_Int_Tables_number      4
_space_group_name_Hall           'P 2yb'
loop_
_symmetry_equiv_pos_site_id
_symmetry_equiv_pos_as_xyz
1 x,y,z
2 -x,1/2+y,-z
_cell_length_a                   7.5061(3)
_cell_length_b                   7.3718(3)
_cell_length_c                   12.3485(5)
_cell_angle_alpha                90
_cell_angle_beta                 92.767(4)
_cell_angle_gamma                90
_cell_volume                     682.489
_exptl_crystal_colour            colorless
_exptl_crystal_description       block
_cell_formula_units_Z            2
loop_
_atom_site_label
_atom_site_type_symbol
_atom_site_fract_x
_atom_site_fract_y
_atom_site_fract_z
I1 I -0.07605(9) 0.12937(16) 0.78553(5)
O1 O 0.6747(8) 0.614(2) 0.9887(5)
O2 O 0.3804(7) 0.6160(14) 0.9833(4)
O3 O 0.3015(10) 0.5661(11) 0.7443(5)
O4 O -0.0561(7) 0.6076(15) 0.8426(5)
H1 H -0.1354 0.5943 0.8853
C1 C 0.5370(11) 0.6580(16) 0.9425(6)
C2 C 0.5074(13) 0.7628(15) 0.8393(8)
H2 H 0.5853 0.7199 0.7843
H3 H 0.5283 0.8913 0.8512
C3 C 0.3157(12) 0.7271(13) 0.8067(7)
H4 H 0.2585 0.831 0.7698
C4 C 0.2317(10) 0.6821(12) 0.9132(6)
H5 H 0.1727 0.7873 0.9442
C5 C 0.1036(11) 0.5304(13) 0.8866(6)
H6 H 0.0838 0.4529 0.9494
C6 C 0.1999(11) 0.4291(13) 0.7965(6)
H7 H 0.282 0.3399 0.8301
C7 C 0.0845(11) 0.3367(13) 0.7097(6)
H8 H 0.0027 0.4277 0.6776
C8 C 0.1821(13) 0.2527(12) 0.6202(7)
C9 C 0.1159(16) 0.2696(16) 0.5119(8)
H9 H 0.0106 0.3328 0.4959
C10 C 0.2082(19) 0.1916(18) 0.4293(9)
H10 H 0.1642 0.204 0.358
C11 C 0.362(2) 0.0972(17) 0.4501(9)
H11 H 0.4219 0.0448 0.3937
C12 C 0.429(2) 0.0803(18) 0.5561(11)
H12 H 0.5321 0.0133 0.5708
C13 C 0.3456(15) 0.1599(18) 0.6391(8)
H13 H 0.3967 0.1534 0.7091
loop_
_geom_bond_atom_site_label_1
_geom_bond_atom_site_label_2
_geom_bond_site_symmetry_1
_geom_bond_site_symmetry_2
I1 C7 1_555 1_555
O1 C1 1_555 1_555
O2 C1 1_555 1_555
O3 C3 1_555 1_555
O4 H1 1_555 1_555
C1 C2 1_555 1_555
C2 H2 1_555 1_555
H3 C2 1_555 1_555
C3 C2 1_555 1_555
H4 C3 1_555 1_555
C4 O2 1_555 1_555
H5 C4 1_555 1_555
C5 O4 1_555 1_555
H6 C5 1_555 1_555
C6 O3 1_555 1_555
H7 C6 1_555 1_555
C7 C6 1_555 1_555
H8 C7 1_555 1_555
C8 C7 1_555 1_555
C9 C8 1_555 1_555
H9 C9 1_555 1_555
C10 C9 1_555 1_555
H10 C10 1_555 1_555
C11 C10 1_555 1_555
H11 C11 1_555 1_555
C12 C11 1_555 1_555
H12 C12 1_555 1_555
C13 C8 1_555 1_555
H13 C13 1_555 1_555
C3 C4 1_555 1_555
C4 C5 1_555 1_555
C5 C6 1_555 1_555
C12 C13 1_555 1_555

#END
