
#######################################################################
#
#                 Cambridge Crystallographic Data Centre
#                                CCDC 
#
#######################################################################
#
# If this CIF has been generated from an entry in the Cambridge 
# Structural Database, then it will include bibliographic, chemical, 
# crystal, experimental, refinement or atomic coordinate data resulting 
# from the CCDC's data processing and validation procedures.
#
#######################################################################

data_UZALAK
_chemical_formula_moiety         'C20 H19 I1 O4'
_chemical_name_systematic        
6-(benzyloxy)-5-(iodo(phenyl)methyl)tetrahydrofuro[3,2-b]furan-2(3H)-one
_symmetry_cell_setting           monoclinic
_symmetry_space_group_name_H-M   'P 21'
_symmetry_Int_Tables_number      4
_space_group_name_Hall           'P 2yb'
loop_
_symmetry_equiv_pos_site_id
_symmetry_equiv_pos_as_xyz
1 x,y,z
2 -x,1/2+y,-z
_cell_length_a                   12.7210(9)
_cell_length_b                   5.5348(5)
_cell_length_c                   13.1758(14)
_cell_angle_alpha                90
_cell_angle_beta                 94.705(7)
_cell_angle_gamma                90
_cell_volume                     924.558
_exptl_crystal_colour            colorless
_exptl_crystal_description       needle
_cell_formula_units_Z            2
loop_
_atom_site_label
_atom_site_type_symbol
_atom_site_fract_x
_atom_site_fract_y
_atom_site_fract_z
I1 I 0.59961(4) -0.2253(2) 0.56842(4)
O1 O 0.6440(5) 0.0835(13) 0.7966(5)
O2 O 0.8894(4) -0.1738(12) 0.9053(5)
O3 O 1.0611(5) -0.252(3) 0.9203(5)
O4 O 0.8524(6) 0.201(2) 0.7195(5)
C1 C 0.7900(6) -0.015(2) 0.6979(7)
H1 H 0.8371 -0.1503 0.6858
C2 C 0.7349(6) -0.0628(17) 0.7944(6)
H2 H 0.7182 -0.2345 0.8018
C3 C 0.9916(6) -0.115(2) 0.8953(6)
C4 C 0.8181(7) 0.0205(18) 0.8763(7)
H3 H 0.7860 0.0877 0.9353
C5 C 0.7757(8) 0.258(3) 0.4438(7)
H4 H 0.7230 0.3706 0.4534
C6 C 0.4687(8) 0.121(2) 0.8525(8)
C7 C 0.7228(6) 0.0429(19) 0.5997(7)
H5 H 0.6885 0.1990 0.6089
C8 C 0.8838(6) 0.2109(15) 0.8247(6)
H6 H 0.8716 0.3723 0.8520
C9 C 0.7900(7) 0.066(2) 0.5102(7)
C10 C 0.2793(9) 0.366(3) 0.8474(11)
H7 H 0.2170 0.4542 0.8470
C11 C 0.8658(7) -0.102(2) 0.4910(7)
H8 H 0.8748 -0.2365 0.5334
C12 C 0.3885(9) 0.046(3) 0.9114(10)
H9 H 0.3980 -0.0901 0.9527
C13 C 0.5704(8) -0.029(3) 0.8592(9)
H10 H 0.6002 -0.0363 0.9292
H11 H 0.5553 -0.1922 0.8357
C14 C 0.4520(8) 0.313(4) 0.7881(10)
H12 H 0.5036 0.3630 0.7467
C15 C 0.9295(9) -0.079(3) 0.4102(8)
H13 H 0.9803 -0.1939 0.3986
C16 C 0.2959(9) 0.172(3) 0.9083(11)
H14 H 0.2434 0.1223 0.9489
C17 C 0.8389(10) 0.288(4) 0.3619(8)
H15 H 0.8290 0.4191 0.3182
C18 C 0.3563(11) 0.431(4) 0.7864(14)
H16 H 0.3438 0.5600 0.7418
C19 C 0.9144(10) 0.122(3) 0.3480(9)
H17 H 0.9574 0.1429 0.2949
C20 C 0.9969(6) 0.1327(19) 0.8506(7)
H18 H 1.0351 0.1296 0.7898
H19 H 1.0324 0.2431 0.8993
loop_
_geom_bond_atom_site_label_1
_geom_bond_atom_site_label_2
_geom_bond_site_symmetry_1
_geom_bond_site_symmetry_2
I1 C7 1_555 1_555
O1 C2 1_555 1_555
O2 C3 1_555 1_555
O3 C3 1_555 1_555
O4 C1 1_555 1_555
C1 H1 1_555 1_555
C2 C1 1_555 1_555
H2 C2 1_555 1_555
C3 C20 1_555 1_555
C4 O2 1_555 1_555
H3 C4 1_555 1_555
C5 H4 1_555 1_555
C6 C12 1_555 1_555
C7 C1 1_555 1_555
H5 C7 1_555 1_555
C8 O4 1_555 1_555
H6 C8 1_555 1_555
C9 C5 1_555 1_555
C10 H7 1_555 1_555
C11 C9 1_555 1_555
H8 C11 1_555 1_555
C12 H9 1_555 1_555
C13 O1 1_555 1_555
H10 C13 1_555 1_555
H11 C13 1_555 1_555
C14 C6 1_555 1_555
H12 C14 1_555 1_555
C15 C11 1_555 1_555
H13 C15 1_555 1_555
C16 C10 1_555 1_555
H14 C16 1_555 1_555
C17 C5 1_555 1_555
H15 C17 1_555 1_555
C18 C10 1_555 1_555
H16 C18 1_555 1_555
C19 C15 1_555 1_555
H17 C19 1_555 1_555
C20 C8 1_555 1_555
H18 C20 1_555 1_555
H19 C20 1_555 1_555
C2 C4 1_555 1_555
C4 C8 1_555 1_555
C6 C13 1_555 1_555
C7 C9 1_555 1_555
C12 C16 1_555 1_555
C14 C18 1_555 1_555
C17 C19 1_555 1_555

#END
