
#######################################################################
#
#                 Cambridge Crystallographic Data Centre
#                                CCDC 
#
#######################################################################
#
# If this CIF has been generated from an entry in the Cambridge 
# Structural Database, then it will include bibliographic, chemical, 
# crystal, experimental, refinement or atomic coordinate data resulting 
# from the CCDC's data processing and validation procedures.
#
#######################################################################

data_UZALIS
_chemical_formula_moiety         'C13 H13 N3 O4'
_chemical_name_systematic        
5-azido-7-hydroxy-6-phenylhexahydro-2H-furo[3,2-b]pyran-2-one
_symmetry_cell_setting           orthorhombic
_symmetry_space_group_name_H-M   'P 21 21 21'
_symmetry_Int_Tables_number      19
_space_group_name_Hall           'P 2ac 2ab'
loop_
_symmetry_equiv_pos_site_id
_symmetry_equiv_pos_as_xyz
1 x,y,z
2 1/2-x,-y,1/2+z
3 1/2+x,1/2-y,-z
4 -x,1/2+y,1/2-z
_cell_length_a                   5.5561(4)
_cell_length_b                   9.3150(6)
_cell_length_c                   24.6138(17)
_cell_angle_alpha                90
_cell_angle_beta                 90
_cell_angle_gamma                90
_cell_volume                     1273.89
_exptl_crystal_colour            colorless
_exptl_crystal_description       prism
_cell_formula_units_Z            4
loop_
_atom_site_label
_atom_site_type_symbol
_atom_site_fract_x
_atom_site_fract_y
_atom_site_fract_z
O1 O 1.4444(6) 0.0809(4) 0.27168(13)
N1 N 0.5754(6) 0.3880(4) 0.40944(15)
C1 C 1.2838(8) 0.1537(4) 0.28950(17)
O2 O 1.2652(5) 0.2934(3) 0.27740(11)
N2 N 0.5161(6) 0.2929(4) 0.44126(13)
C2 C 1.0891(8) 0.1087(4) 0.32706(16)
H1 H 1.156 0.0746 0.3611
H2 H 0.9938 0.0324 0.311
O3 O 0.9613(4) 0.2829(2) 0.39207(9)
N3 N 0.4375(7) 0.2084(4) 0.46815(16)
C3 C 0.9364(7) 0.2410(4) 0.33632(14)
H3 H 0.7675 0.2226 0.3272
C4 C 1.0451(7) 0.3543(4) 0.29856(15)
H4 H 0.9338 0.3718 0.2684
O4 O 1.1344(5) 0.6091(3) 0.29058(12)
H5 H 1.2636 0.5973 0.2751
C5 C 1.0946(7) 0.4950(3) 0.32753(15)
H6 H 1.235 0.4842 0.3513
C6 C 0.8732(6) 0.5300(3) 0.36166(15)
H7 H 0.7328 0.5285 0.3376
C7 C 0.8802(7) 0.6751(4) 0.38935(15)
C8 C 0.8394(6) 0.4109(4) 0.40426(15)
H8 H 0.8997 0.4466 0.4391
C9 C 1.0617(8) 0.7081(4) 0.42586(17)
H9 H 1.1858 0.6428 0.4316
C10 C 0.7003(8) 0.7746(4) 0.38100(17)
H10 H 0.578 0.755 0.3563
C11 C 0.7001(9) 0.9026(5) 0.4088(2)
H11 H 0.5777 0.9687 0.4027
C12 C 0.8777(10) 0.9337(5) 0.44546(19)
H12 H 0.8747 1.0198 0.4645
C13 C 1.0607(10) 0.8371(5) 0.45394(18)
H13 H 1.1833 0.8582 0.4784
loop_
_geom_bond_atom_site_label_1
_geom_bond_atom_site_label_2
_geom_bond_site_symmetry_1
_geom_bond_site_symmetry_2
O1 C1 1_555 1_555
N1 N2 1_555 1_555
C1 O2 1_555 1_555
O2 C4 1_555 1_555
N2 N3 1_555 1_555
C2 C1 1_555 1_555
H1 C2 1_555 1_555
H2 C2 1_555 1_555
O3 C3 1_555 1_555
C3 C2 1_555 1_555
H3 C3 1_555 1_555
C4 C3 1_555 1_555
H4 C4 1_555 1_555
O4 H5 1_555 1_555
C5 C4 1_555 1_555
H6 C5 1_555 1_555
C6 C5 1_555 1_555
H7 C6 1_555 1_555
C7 C6 1_555 1_555
C8 N1 1_555 1_555
H8 C8 1_555 1_555
C9 C7 1_555 1_555
H9 C9 1_555 1_555
C10 C7 1_555 1_555
H10 C10 1_555 1_555
C11 C10 1_555 1_555
H11 C11 1_555 1_555
C12 C11 1_555 1_555
H12 C12 1_555 1_555
C13 C9 1_555 1_555
H13 C13 1_555 1_555
O3 C8 1_555 1_555
O4 C5 1_555 1_555
C6 C8 1_555 1_555
C12 C13 1_555 1_555

#END
