
#######################################################################
#
#                 Cambridge Crystallographic Data Centre
#                                CCDC 
#
#######################################################################
#
# If this CIF has been generated from an entry in the Cambridge 
# Structural Database, then it will include bibliographic, chemical, 
# crystal, experimental, refinement or atomic coordinate data resulting 
# from the CCDC's data processing and validation procedures.
#
#######################################################################

data_UZALEO
_chemical_formula_moiety         'C20 H19 F1 O4'
_chemical_name_systematic        
6-(benzyloxy)-5-(fluoro(phenyl)methyl)tetrahydrofuro[3,2-b]furan-2(3H)-one
_symmetry_cell_setting           orthorhombic
_symmetry_space_group_name_H-M   'P 21 21 2'
_symmetry_Int_Tables_number      18
_space_group_name_Hall           'P 2 2ab'
loop_
_symmetry_equiv_pos_site_id
_symmetry_equiv_pos_as_xyz
1 x,y,z
2 -x,-y,z
3 1/2-x,1/2+y,-z
4 1/2+x,1/2-y,-z
_cell_length_a                   9.7686(14)
_cell_length_b                   18.859(5)
_cell_length_c                   9.3464(14)
_cell_angle_alpha                90
_cell_angle_beta                 90
_cell_angle_gamma                90
_cell_volume                     1721.85
_exptl_crystal_colour            colorless
_exptl_crystal_description       irregular
_cell_formula_units_Z            4
loop_
_atom_site_label
_atom_site_type_symbol
_atom_site_fract_x
_atom_site_fract_y
_atom_site_fract_z
O1 O 0.3288(5) 0.1681(3) 0.7125(6)
C1 C 0.3743(9) 0.1033(7) 0.7528(9)
C2 C 0.5245(8) 0.1039(5) 0.7603(11)
H1 H 0.5624 0.0611 0.7183
H2 H 0.5553 0.1076 0.8586
O2 O 0.2930(7) 0.0577(4) 0.7792(7)
O3 O 0.5818(6) 0.1534(3) 0.5311(6)
C3 C 0.5657(8) 0.1681(5) 0.6760(9)
H3 H 0.6475 0.1906 0.7163
O4 O 0.5285(5) 0.3052(3) 0.5437(6)
C4 C 0.4415(8) 0.2159(5) 0.6878(9)
H4 H 0.451 0.2513 0.764
C5 C 0.4330(7) 0.2488(4) 0.5433(9)
H5 H 0.3401 0.2646 0.5196
F1 F 0.5966(6) 0.1556(3) 0.2416(6)
C6 C 0.5530(7) 0.2169(5) 0.3137(9)
H6 H 0.6318 0.2465 0.3389
C7 C 0.4832(7) 0.1915(4) 0.4450(8)
H7 H 0.4073 0.1601 0.4192
C8 C 0.4612(7) 0.2555(5) 0.2111(8)
C9 C 0.3636(9) 0.2237(6) 0.1318(10)
H8 H 0.3487 0.1752 0.1415
C10 C 0.2865(10) 0.2619(9) 0.0374(11)
H9 H 0.2222 0.239 -0.0195
C11 C 0.3035(11) 0.3341(8) 0.0259(13)
H10 H 0.252 0.3601 -0.0392
C12 C 0.3969(10) 0.3667(7) 0.1118(12)
H11 H 0.4064 0.4157 0.1091
C13 C 0.4771(8) 0.3273(6) 0.2021(10)
H12 H 0.5431 0.3496 0.2578
C14 C 0.4726(9) 0.3712(5) 0.5889(14)
H13 H 0.4017 0.3633 0.6598
H14 H 0.4325 0.3959 0.5081
C15 C 0.5867(8) 0.4148(4) 0.6522(10)
C16 C 0.6739(10) 0.4525(5) 0.5658(11)
H15 H 0.6618 0.4515 0.4671
C17 C 0.7773(12) 0.4910(7) 0.6224(19)
H16 H 0.8377 0.5152 0.563
C18 C 0.7922(15) 0.4942(8) 0.766(2)
H17 H 0.8613 0.5221 0.8045
C19 C 0.7072(17) 0.4568(7) 0.8546(15)
H18 H 0.7195 0.4585 0.9532
C20 C 0.6042(13) 0.4172(5) 0.7966(12)
H19 H 0.5457 0.3918 0.8561
loop_
_geom_bond_atom_site_label_1
_geom_bond_atom_site_label_2
_geom_bond_site_symmetry_1
_geom_bond_site_symmetry_2
O1 C1 1_555 1_555
C1 C2 1_555 1_555
C2 H1 1_555 1_555
H2 C2 1_555 1_555
O2 C1 1_555 1_555
O3 C3 1_555 1_555
C3 C2 1_555 1_555
H3 C3 1_555 1_555
O4 C5 1_555 1_555
C4 O1 1_555 1_555
H4 C4 1_555 1_555
C5 C4 1_555 1_555
H5 C5 1_555 1_555
F1 C6 1_555 1_555
C6 H6 1_555 1_555
C7 O3 1_555 1_555
H7 C7 1_555 1_555
C8 C6 1_555 1_555
C9 C8 1_555 1_555
H8 C9 1_555 1_555
C10 C9 1_555 1_555
H9 C10 1_555 1_555
C11 C10 1_555 1_555
H10 C11 1_555 1_555
C12 C11 1_555 1_555
H11 C12 1_555 1_555
C13 C8 1_555 1_555
H12 C13 1_555 1_555
C14 O4 1_555 1_555
H13 C14 1_555 1_555
H14 C14 1_555 1_555
C15 C14 1_555 1_555
C16 C15 1_555 1_555
H15 C16 1_555 1_555
C17 C16 1_555 1_555
H16 C17 1_555 1_555
C18 C17 1_555 1_555
H17 C18 1_555 1_555
C19 C18 1_555 1_555
H18 C19 1_555 1_555
C20 C15 1_555 1_555
H19 C20 1_555 1_555
C3 C4 1_555 1_555
C5 C7 1_555 1_555
C6 C7 1_555 1_555
C12 C13 1_555 1_555
C19 C20 1_555 1_555

#END
