
#######################################################################
#
#                 Cambridge Crystallographic Data Centre
#                                CCDC 
#
#######################################################################
#
# If this CIF has been generated from an entry in the Cambridge 
# Structural Database, then it will include bibliographic, chemical, 
# crystal, experimental, refinement or atomic coordinate data resulting 
# from the CCDC's data processing and validation procedures.
#
#######################################################################

data_UZAPER
_chemical_formula_moiety         'C23 H20 N2 O6'
_chemical_name_systematic        
'(4R,5R)-(2-Phenyl-1,3-dioxolane-4,5-diyl)bis(methylene) bis(pyridine-2-carboxylate)'
_symmetry_cell_setting           monoclinic
_symmetry_space_group_name_H-M   'C 2'
_symmetry_Int_Tables_number      5
_space_group_name_Hall           'C 2y'
loop_
_symmetry_equiv_pos_site_id
_symmetry_equiv_pos_as_xyz
1 x,y,z
2 -x,y,-z
3 1/2+x,1/2+y,z
4 1/2-x,1/2+y,-z
_cell_length_a                   17.805(3)
_cell_length_b                   11.459(3)
_cell_length_c                   11.1656(17)
_cell_angle_alpha                90
_cell_angle_beta                 113.066(4)
_cell_angle_gamma                90
_cell_volume                     2095.97
_cell_formula_units_Z            4
loop_
_atom_site_label
_atom_site_type_symbol
_atom_site_fract_x
_atom_site_fract_y
_atom_site_fract_z
C1 C 0.20180(18) 0.4661(3) -0.6671(3)
H1 H 0.1794 0.5295 -0.7214
C2 C 0.17275(19) 0.3583(4) -0.7113(3)
H2 H 0.1334 0.3485 -0.7951
C3 C 0.2020(2) 0.2643(4) -0.6315(4)
H3 H 0.1822 0.1897 -0.6588
C4 C 0.26197(18) 0.2829(3) -0.5087(3)
H4 H 0.2825 0.2213 -0.4507
C5 C 0.29026(15) 0.3941(3) -0.4746(3)
C6 C 0.36106(17) 0.4199(3) -0.3510(3)
C7 C 0.45992(18) 0.3361(3) -0.1627(3)
H5 H 0.4686 0.4158 -0.1310
H6 H 0.5043 0.3147 -0.1881
C8 C 0.45870(17) 0.2566(3) -0.0581(2)
H7 H 0.4155 0.2805 -0.0295
C9 C 0.4715(3) 0.0782(5) 0.0306(5)
H8 H 0.4330 0.0886 0.0728
C10 C 0.4895(5) -0.0436(5) 0.0124(9)
C11 C 0.5347(4) -0.0724(5) -0.0586(7)
H9 H 0.5555 -0.0137 -0.0943
C12 C 0.5494(5) -0.1875(5) -0.0776(8)
H10 H 0.5787 -0.2075 -0.1277
C13 C 0.5197(7) -0.2721(9) -0.0204(10)
H11 H 0.5304 -0.3497 -0.0323
C14 C 0.5247(8) -0.2490(8) -0.0531(11)
H12 H 0.5438 -0.3075 -0.0916
C15 C 0.4610(5) -0.1325(6) 0.0656(8)
H13 H 0.5699 -0.1127 -0.1131
N1 N 0.26038(14) 0.4868(2) -0.5505(2)
O1 O 0.39797(15) 0.5099(2) -0.3265(2)
O2 O 0.38320(12) 0.32742(18) -0.27322(17)
O3 O 0.44775(13) 0.13908(18) -0.09778(19)
C1A C 0.79820(18) 0.4661(3) 0.6671(3)
H1A H 0.8206 0.5295 0.7214
C2A C 0.82725(19) 0.3583(4) 0.7113(3)
H2A H 0.8666 0.3485 0.7951
C3A C 0.7980(2) 0.2643(4) 0.6315(4)
H3A H 0.8178 0.1897 0.6588
C4A C 0.73803(18) 0.2829(3) 0.5087(3)
H4A H 0.7175 0.2213 0.4507
C5A C 0.70974(15) 0.3941(3) 0.4746(3)
C6A C 0.63894(17) 0.4199(3) 0.3510(3)
C7A C 0.54008(18) 0.3361(3) 0.1627(3)
H5A H 0.5314 0.4158 0.1310
H6A H 0.4957 0.3147 0.1881
C8A C 0.54130(17) 0.2566(3) 0.0581(2)
H7A H 0.5845 0.2805 0.0295
C9A C 0.5285(3) 0.0782(5) -0.0306(5)
H8A H 0.5670 0.0886 -0.0728
C10A C 0.5105(5) -0.0436(5) -0.0124(9)
C11A C 0.4653(4) -0.0724(5) 0.0586(7)
H9A H 0.4445 -0.0137 0.0943
C12A C 0.4506(5) -0.1875(5) 0.0776(8)
H10A H 0.4213 -0.2075 0.1277
C13A C 0.4803(7) -0.2721(9) 0.0204(10)
H11A H 0.4696 -0.3497 0.0323
C14A C 0.4753(8) -0.2490(8) 0.0531(11)
H12A H 0.4562 -0.3075 0.0916
C15A C 0.5390(5) -0.1325(6) -0.0656(8)
H13A H 0.4301 -0.1127 0.1131
N1A N 0.73962(14) 0.4868(2) 0.5505(2)
O1A O 0.60203(15) 0.5099(2) 0.3265(2)
O2A O 0.61680(12) 0.32742(18) 0.27322(17)
O3A O 0.55225(13) 0.13908(18) 0.09778(19)
C16 C -0.2631(2) -0.0554(4) -0.1585(3)
H14 H -0.2702 -0.1199 -0.2125
C17 C -0.3020(2) 0.0457(4) -0.2131(3)
H15 H -0.3348 0.0492 -0.3015
C18 C -0.2920(2) 0.1423(4) -0.1352(4)
H16 H -0.3174 0.2127 -0.1692
C19 C -0.2434(2) 0.1313(3) -0.0061(4)
H17 H -0.2353 0.1948 0.0494
C20 C -0.20653(16) 0.0263(3) 0.0418(3)
C21 C -0.15297(18) 0.0089(3) 0.1826(3)
C22 C -0.0967(2) 0.1027(4) 0.3884(3)
H18 H -0.0781 0.0234 0.4134
H19 H -0.1312 0.1250 0.4335
C23 C -0.02497(18) 0.1828(3) 0.4261(3)
H20 H 0.0099 0.1615 0.3799
C24 C 0.0301(4) 0.3602(6) 0.4640(6)
H21 H 0.0697 0.3495 0.4240
C25 C 0.0111(5) 0.4850(5) 0.4878(9)
C26 C 0.0255(4) 0.5060(6) 0.4264(7)
H22 H 0.0365 0.4442 0.3817
C27 C 0.0460(6) 0.6176(6) 0.4060(10)
H23 H 0.0721 0.6327 0.3501
C28 C 0.0264(7) 0.7061(9) 0.4716(11)
H24 H 0.0369 0.7824 0.4544
C29 C 0.0077(8) 0.6888(8) 0.4395(12)
H25 H 0.0154 0.7503 0.3910
C30 C 0.0301(6) 0.5767(6) 0.4247(9)
H26 H 0.0584 0.5625 0.3716
N2 N -0.21555(17) -0.0677(2) -0.0329(3)
O4 O -0.14290(17) 0.1083(2) 0.2491(2)
O5 O -0.12252(17) -0.0813(3) 0.2306(2)
O6 O -0.05101(17) 0.2993(2) 0.3987(3)
C16A C 0.2631(2) -0.0554(4) 1.1585(3)
H14A H 0.2702 -0.1199 1.2125
C17A C 0.3020(2) 0.0457(4) 1.2131(3)
H15A H 0.3348 0.0492 1.3015
C18A C 0.2920(2) 0.1423(4) 1.1352(4)
H16A H 0.3174 0.2127 1.1692
C19A C 0.2434(2) 0.1313(3) 1.0061(4)
H17A H 0.2353 0.1948 0.9506
C20A C 0.20653(16) 0.0263(3) 0.9582(3)
C21A C 0.15297(18) 0.0089(3) 0.8174(3)
C22A C 0.0967(2) 0.1027(4) 0.6116(3)
H18A H 0.0781 0.0234 0.5866
H19A H 0.1312 0.1250 0.5665
C23A C 0.02497(18) 0.1828(3) 0.5739(3)
H20A H -0.0099 0.1615 0.6201
C24A C -0.0301(4) 0.3602(6) 0.5360(6)
H21A H -0.0697 0.3495 0.5760
C25A C -0.0111(5) 0.4850(5) 0.5122(9)
C26A C -0.0255(4) 0.5060(6) 0.5736(7)
H22A H -0.0365 0.4442 0.6183
C27A C -0.0460(6) 0.6176(6) 0.5940(10)
H23A H -0.0721 0.6327 0.6499
C28A C -0.0264(7) 0.7061(9) 0.5284(11)
H24A H -0.0369 0.7824 0.5456
C29A C -0.0077(8) 0.6888(8) 0.5605(12)
H25A H -0.0154 0.7503 0.6090
C30A C -0.0301(6) 0.5767(6) 0.5753(9)
H26A H -0.0584 0.5625 0.6284
N2A N 0.21555(17) -0.0677(2) 1.0329(3)
O4A O 0.14290(17) 0.1083(2) 0.7509(2)
O5A O 0.12252(17) -0.0813(3) 0.7694(2)
O6A O 0.05101(17) 0.2993(2) 0.6013(3)
loop_
_geom_bond_atom_site_label_1
_geom_bond_atom_site_label_2
_geom_bond_site_symmetry_1
_geom_bond_site_symmetry_2
C1 H1 1_555 1_555
C2 C1 1_555 1_555
H2 C2 1_555 1_555
C3 C2 1_555 1_555
H3 C3 1_555 1_555
C4 C3 1_555 1_555
H4 C4 1_555 1_555
C5 C4 1_555 1_555
C6 C5 1_555 1_555
C7 H5 1_555 1_555
H6 C7 1_555 1_555
C8 C7 1_555 1_555
H7 C8 1_555 1_555
C9 H8 1_555 1_555
C10 C9 1_555 1_555
C11 C10 1_555 1_555
H9 C11 1_555 1_555
C12 C11 1_555 1_555
H10 C12 1_555 1_555
C13 C12 1_555 1_555
H11 C13 1_555 1_555
C14 C12 1_555 1_555
H12 C13 1_555 1_555
C15 C10 1_555 1_555
H13 C11 1_555 1_555
C16 H14 1_555 1_555
C17 C16 1_555 1_555
H15 C17 1_555 1_555
C18 C17 1_555 1_555
H16 C18 1_555 1_555
C19 C18 1_555 1_555
H17 C19 1_555 1_555
C20 C19 1_555 1_555
C21 C20 1_555 1_555
C22 H18 1_555 1_555
H19 C22 1_555 1_555
C23 C22 1_555 1_555
H20 C23 1_555 1_555
C24 H21 1_555 1_555
C25 C24 1_555 1_555
C26 C24 1_555 1_555
H22 C26 1_555 1_555
C27 C26 1_555 1_555
H23 C27 1_555 1_555
C28 C27 1_555 1_555
H24 C28 1_555 1_555
C29 C27 1_555 1_555
H25 C28 1_555 1_555
C30 C25 1_555 1_555
H26 C26 1_555 1_555
N1 C1 1_555 1_555
N2 C16 1_555 1_555
O1 C6 1_555 1_555
O2 C6 1_555 1_555
O3 C8 1_555 1_555
O4 C21 1_555 1_555
O5 C21 1_555 1_555
O6 C23 1_555 1_555
C1A H1A 1_555 1_555
C2A C1A 1_555 1_555
H2A C2A 1_555 1_555
C3A C2A 1_555 1_555
H3A C3A 1_555 1_555
C4A C3A 1_555 1_555
H4A C4A 1_555 1_555
C5A C4A 1_555 1_555
C6A C5A 1_555 1_555
C7A H5A 1_555 1_555
H6A C7A 1_555 1_555
C8A C8 1_555 1_555
H7A C8A 1_555 1_555
C9A C9 1_555 1_555
H8A C9A 1_555 1_555
C10A C9 1_555 1_555
C11A C10 1_555 1_555
H9A C11A 1_555 1_555
C12A C15 1_555 1_555
H10A C12A 1_555 1_555
C13A C13 1_555 1_555
H11A C13A 1_555 1_555
C14A C13 1_555 1_555
H12A C13A 1_555 1_555
C15A C11 1_555 1_555
H13A C15 1_555 1_555
C16A H14A 1_555 1_555
C17A C16A 1_555 1_555
H15A C17A 1_555 1_555
C18A C17A 1_555 1_555
H16A C18A 1_555 1_555
C19A C18A 1_555 1_555
H17A C19A 1_555 1_555
C20A C19A 1_555 1_555
C21A C20A 1_555 1_555
C22A H18A 1_555 1_555
H19A C22A 1_555 1_555
C23A C23 1_555 1_555
H20A C23A 1_555 1_555
C24A C24 1_555 1_555
H21A C24A 1_555 1_555
C25A C25 1_555 1_555
C26A C25 1_555 1_555
H22A C26A 1_555 1_555
C27A C26A 1_555 1_555
H23A C27A 1_555 1_555
C28A C28 1_555 1_555
H24A C28A 1_555 1_555
C29A C28 1_555 1_555
H25A C28A 1_555 1_555
C30A C25A 1_555 1_555
H26A C26A 1_555 1_555
N1A C1A 1_555 1_555
N2A C16A 1_555 1_555
O1A C6A 1_555 1_555
O2A C6A 1_555 1_555
O3A C9 1_555 1_555
O4A C21A 1_555 1_555
O5A C21A 1_555 1_555
O6A C24 1_555 1_555
C5 N1 1_555 1_555
C7 O2 1_555 1_555
C9 O3 1_555 1_555
C10 C9A 1_555 1_555
C10 C10A 1_555 1_555
C11 C10A 1_555 1_555
C12 H13 1_555 1_555
C12 C15A 1_555 1_555
C13 C14 1_555 1_555
C13 C15A 1_555 1_555
H11 C14 1_555 1_555
C14 H12 1_555 1_555
C14 C13A 1_555 1_555
C14 C14A 1_555 1_555
C14 C15A 1_555 1_555
C15 C11A 1_555 1_555
C15 C13A 1_555 1_555
C15 C14A 1_555 1_555
H13 C15A 1_555 1_555
C20 N2 1_555 1_555
C22 O4 1_555 1_555
C24 O6 1_555 1_555
C25 C26 1_555 1_555
C26 C30 1_555 1_555
C26 C25A 1_555 1_555
C27 C30 1_555 1_555
C27 H26 1_555 1_555
C28 C29 1_555 1_555
C28 C30 1_555 1_555
H24 C29 1_555 1_555
H24 H25 1_555 1_555
C29 H25 1_555 1_555
C29 C30 1_555 1_555
C29 C28A 1_555 1_555
C29 C29A 1_555 1_555
C30 H26 1_555 1_555
O3 C9A 1_555 1_555
O6 C24A 1_555 1_555
C5A N1A 1_555 1_555
C7A C8A 1_555 1_555
C7A O2A 1_555 1_555
C8A O3A 1_555 1_555
C9A C10A 1_555 1_555
C9A O3A 1_555 1_555
C10A C11A 1_555 1_555
C10A C15A 1_555 1_555
C11A C12A 1_555 1_555
C11A H13A 1_555 1_555
C12A C13A 1_555 1_555
C12A C14A 1_555 1_555
C12A H13A 1_555 1_555
C13A C14A 1_555 1_555
H11A C14A 1_555 1_555
C14A H12A 1_555 1_555
C20A N2A 1_555 1_555
C22A C23A 1_555 1_555
C22A O4A 1_555 1_555
C23A O6A 1_555 1_555
C24A C25A 1_555 1_555
C24A C26A 1_555 1_555
C24A O6A 1_555 1_555
C25A C26A 1_555 1_555
C26A C30A 1_555 1_555
C27A C28A 1_555 1_555
C27A C29A 1_555 1_555
C27A C30A 1_555 1_555
C27A H26A 1_555 1_555
C28A C29A 1_555 1_555
C28A C30A 1_555 1_555
H24A C29A 1_555 1_555
H24A H25A 1_555 1_555
C29A H25A 1_555 1_555
C29A C30A 1_555 1_555
C30A H26A 1_555 1_555

#END
