
#######################################################################
#
#                 Cambridge Crystallographic Data Centre
#                                CCDC 
#
#######################################################################
#
# If this CIF has been generated from an entry in the Cambridge 
# Structural Database, then it will include bibliographic, chemical, 
# crystal, experimental, refinement or atomic coordinate data resulting 
# from the CCDC's data processing and validation procedures.
#
#######################################################################

data_UZATIA
_chemical_formula_moiety         'C20 H14 Cl1 N1 O1'
_chemical_name_systematic        
2-((4-chlorophenyl)imino)-1,2-diphenylethanone
_symmetry_cell_setting           monoclinic
_symmetry_space_group_name_H-M   'P 21/c'
_symmetry_Int_Tables_number      14
_space_group_name_Hall           '-P 2ybc'
loop_
_symmetry_equiv_pos_site_id
_symmetry_equiv_pos_as_xyz
1 x,y,z
2 -x,1/2+y,1/2-z
3 -x,-y,-z
4 x,1/2-y,1/2+z
_cell_length_a                   10.1277(10)
_cell_length_b                   8.2480(8)
_cell_length_c                   19.4547(19)
_cell_angle_alpha                90
_cell_angle_beta                 98.6670(10)
_cell_angle_gamma                90
_cell_volume                     1606.56
_exptl_crystal_colour            'pale yellow'
_exptl_crystal_description       Block
_cell_formula_units_Z            4
loop_
_atom_site_label
_atom_site_type_symbol
_atom_site_fract_x
_atom_site_fract_y
_atom_site_fract_z
Cl1 Cl 0.00518(6) 0.80164(9) 0.04987(3)
N1 N 0.54148(17) 0.8713(2) 0.21666(9)
O1 O 0.68259(16) 0.92603(18) 0.07939(8)
C1 C 0.66265(19) 0.8156(2) 0.11798(10)
C2 C 0.2521(2) 0.9350(3) 0.07582(11)
H1 H 0.2264 0.9988 0.0354
C3 C 0.6514(2) 0.8529(2) 0.19350(10)
C4 C 0.1637(2) 0.8263(3) 0.09749(10)
C5 C 0.1981(2) 0.7332(3) 0.15621(11)
H2 H 0.1360 0.6590 0.1706
C6 C 0.65295(19) 0.6447(2) 0.09570(10)
C7 C 0.7792(2) 0.8603(3) 0.24210(11)
C8 C 0.3241(2) 0.7495(3) 0.19374(10)
H3 H 0.3484 0.6867 0.2346
C9 C 0.3785(2) 0.9502(2) 0.11351(11)
H4 H 0.4399 1.0251 0.0989
C10 C 0.6161(2) 0.5230(2) 0.13877(10)
H5 H 0.5970 0.5491 0.1838
C11 C 0.4163(2) 0.8568(2) 0.17254(10)
C12 C 0.6812(2) 0.6038(3) 0.03011(10)
H6 H 0.7065 0.6860 0.0005
C13 C 0.6072(2) 0.3646(3) 0.11580(11)
H7 H 0.5811 0.2819 0.1450
C14 C 0.6727(2) 0.4454(3) 0.00772(11)
H8 H 0.6920 0.4184 -0.0372
C15 C 0.6360(2) 0.3255(3) 0.05082(12)
H9 H 0.6307 0.2160 0.0356
C16 C 0.8956(2) 0.9185(3) 0.22167(12)
H10 H 0.8951 0.9547 0.1753
C17 C 1.0153(3) 0.8689(3) 0.33525(15)
H11 H 1.0958 0.8728 0.3673
C18 C 0.7820(3) 0.8051(3) 0.30959(13)
H12 H 0.7028 0.7654 0.3243
C19 C 1.0129(2) 0.9241(3) 0.26877(14)
H13 H 1.0920 0.9665 0.2548
C20 C 0.9011(3) 0.8079(4) 0.35560(15)
H14 H 0.9035 0.7673 0.4015
loop_
_geom_bond_atom_site_label_1
_geom_bond_atom_site_label_2
_geom_bond_site_symmetry_1
_geom_bond_site_symmetry_2
Cl1 C4 1_555 1_555
N1 C3 1_555 1_555
O1 C1 1_555 1_555
C1 C3 1_555 1_555
C2 H1 1_555 1_555
C3 C7 1_555 1_555
C4 C2 1_555 1_555
C5 C4 1_555 1_555
H2 C5 1_555 1_555
C6 C1 1_555 1_555
C7 C16 1_555 1_555
C8 C5 1_555 1_555
H3 C8 1_555 1_555
C9 C2 1_555 1_555
H4 C9 1_555 1_555
C10 C6 1_555 1_555
H5 C10 1_555 1_555
C11 N1 1_555 1_555
C12 C6 1_555 1_555
H6 C12 1_555 1_555
C13 C10 1_555 1_555
H7 C13 1_555 1_555
C14 C12 1_555 1_555
H8 C14 1_555 1_555
C15 C13 1_555 1_555
H9 C15 1_555 1_555
C16 H10 1_555 1_555
C17 H11 1_555 1_555
C18 C7 1_555 1_555
H12 C18 1_555 1_555
C19 C16 1_555 1_555
H13 C19 1_555 1_555
C20 C17 1_555 1_555
H14 C20 1_555 1_555
C8 C11 1_555 1_555
C9 C11 1_555 1_555
C14 C15 1_555 1_555
C17 C19 1_555 1_555
C18 C20 1_555 1_555

#END
