
#######################################################################
#
#                 Cambridge Crystallographic Data Centre
#                                CCDC 
#
#######################################################################
#
# If this CIF has been generated from an entry in the Cambridge 
# Structural Database, then it will include bibliographic, chemical, 
# crystal, experimental, refinement or atomic coordinate data resulting 
# from the CCDC's data processing and validation procedures.
#
#######################################################################

data_UZAYUQ01
_chemical_formula_moiety         'C13 H9 Br1 Cl1 N1 O1'
_chemical_name_systematic        
2-(((2-Bromophenyl)imino)methyl)-4-chlorophenol
_symmetry_cell_setting           orthorhombic
_symmetry_space_group_name_H-M   'P b c a'
_symmetry_Int_Tables_number      61
_space_group_name_Hall           '-P 2ac 2ab'
loop_
_symmetry_equiv_pos_site_id
_symmetry_equiv_pos_as_xyz
1 x,y,z
2 1/2-x,-y,1/2+z
3 -x,1/2+y,1/2-z
4 1/2+x,1/2-y,-z
5 -x,-y,-z
6 1/2+x,y,1/2-z
7 x,1/2-y,1/2+z
8 1/2-x,1/2+y,z
_cell_length_a                   7.1019(12)
_cell_length_b                   13.082(2)
_cell_length_c                   25.333(5)
_cell_angle_alpha                90
_cell_angle_beta                 90
_cell_angle_gamma                90
_cell_volume                     2353.61
_exptl_crystal_colour            orange
_exptl_crystal_description       block
_cell_formula_units_Z            8
loop_
_atom_site_label
_atom_site_type_symbol
_atom_site_fract_x
_atom_site_fract_y
_atom_site_fract_z
Br1 Br 0.58264(3) 0.284034(14) 0.665137(8)
Cl1 Cl 0.92737(7) 0.63601(4) 0.373688(18)
O1 O 0.6965(2) 0.32158(10) 0.52598(5)
N1 N 0.6302(2) 0.46868(11) 0.59330(6)
C1 C 0.5344(3) 0.42307(14) 0.68163(7)
C2 C 0.4652(3) 0.44594(15) 0.73136(8)
H1 H 0.4433 0.3929 0.7562
C3 C 0.4283(3) 0.54662(15) 0.74459(8)
H2 H 0.3809 0.5630 0.7786
C4 C 0.4606(3) 0.62362(15) 0.70803(8)
H3 H 0.4355 0.6928 0.7171
C5 C 0.5294(3) 0.59992(15) 0.65825(7)
H4 H 0.5506 0.6533 0.6335
C6 C 0.5680(2) 0.49891(14) 0.64387(7)
C7 C 0.6851(2) 0.53367(14) 0.55844(7)
H5 H 0.6872 0.6044 0.5669
C8 C 0.7440(2) 0.50052(14) 0.50640(7)
C9 C 0.7484(3) 0.39610(14) 0.49214(7)
C10 C 0.8087(3) 0.36829(14) 0.44164(7)
H6 H 0.8131 0.2981 0.4320
C11 C 0.8619(3) 0.44212(14) 0.40562(7)
H7 H 0.9015 0.4228 0.3712
C12 C 0.8573(2) 0.54434(14) 0.41977(7)
C13 C 0.8009(2) 0.57433(14) 0.46951(7)
H8 H 0.8005 0.6447 0.4788
H9 H 0.667(4) 0.349(2) 0.5543(7)
loop_
_geom_bond_atom_site_label_1
_geom_bond_atom_site_label_2
_geom_bond_site_symmetry_1
_geom_bond_site_symmetry_2
Br1 C1 1_555 1_555
Cl1 C12 1_555 1_555
O1 C9 1_555 1_555
N1 C6 1_555 1_555
C1 C2 1_555 1_555
C2 H1 1_555 1_555
C3 C2 1_555 1_555
H2 C3 1_555 1_555
C4 C3 1_555 1_555
H3 C4 1_555 1_555
C5 C4 1_555 1_555
H4 C5 1_555 1_555
C6 C1 1_555 1_555
C7 N1 1_555 1_555
H5 C7 1_555 1_555
C8 C7 1_555 1_555
C9 C8 1_555 1_555
C10 C9 1_555 1_555
H6 C10 1_555 1_555
C11 C10 1_555 1_555
H7 C11 1_555 1_555
C12 C11 1_555 1_555
C13 C8 1_555 1_555
H8 C13 1_555 1_555
H9 O1 1_555 1_555
C5 C6 1_555 1_555
C12 C13 1_555 1_555

#END
