
#######################################################################
#
#                 Cambridge Crystallographic Data Centre
#                                CCDC 
#
#######################################################################
#
# If this CIF has been generated from an entry in the Cambridge 
# Structural Database, then it will include bibliographic, chemical, 
# crystal, experimental, refinement or atomic coordinate data resulting 
# from the CCDC's data processing and validation procedures.
#
#######################################################################

data_UZETAV
_chemical_formula_moiety         'C22 H28 N2 O1'
_chemical_name_systematic        
2-(1H-Benzimidazol-2-ylmethyl)-4,6-di-t-butylphenol
_symmetry_cell_setting           monoclinic
_symmetry_space_group_name_H-M   'P 21/c'
_symmetry_Int_Tables_number      14
_space_group_name_Hall           '-P 2ybc'
loop_
_symmetry_equiv_pos_site_id
_symmetry_equiv_pos_as_xyz
1 x,y,z
2 -x,1/2+y,1/2-z
3 -x,-y,-z
4 x,1/2-y,1/2+z
_cell_length_a                   18.589(11)
_cell_length_b                   11.132(7)
_cell_length_c                   9.737(6)
_cell_angle_alpha                90
_cell_angle_beta                 104.105(8)
_cell_angle_gamma                90
_cell_volume                     1954.16
_exptl_crystal_colour            colorless
_exptl_crystal_description       plate
_cell_formula_units_Z            4
loop_
_atom_site_label
_atom_site_type_symbol
_atom_site_fract_x
_atom_site_fract_y
_atom_site_fract_z
N1 N 0.44125(19) 0.1660(3) 0.2105(3)
N2 N 0.4462(2) 0.2203(3) -0.0070(4)
H1 H 0.435(3) 0.259(6) -0.086(7)
O1 O 0.31174(18) 0.0708(2) 0.2530(3)
H2 H 0.363(3) 0.086(4) 0.256(5)
C1 C 0.5087(2) 0.1289(3) 0.1871(4)
C2 C 0.5678(2) 0.0693(3) 0.2755(5)
H3 H 0.5663 0.0459 0.3686
C3 C 0.6294(3) 0.0453(4) 0.2226(5)
H4 H 0.6709 0.0054 0.2811
C4 C 0.6316(3) 0.0786(3) 0.0851(5)
H5 H 0.6744 0.0596 0.0524
C5 C 0.5736(2) 0.1382(4) -0.0045(4)
H6 H 0.5750 0.1607 -0.0979
C6 C 0.5127(2) 0.1632(3) 0.0510(4)
C7 C 0.4053(2) 0.2201(3) 0.0917(4)
C8 C 0.3287(2) 0.2664(3) 0.0686(4)
H7 H 0.3207 0.3276 -0.0075
H8 H 0.3237 0.3072 0.1562
C9 C 0.2685(2) 0.1723(3) 0.0290(4)
C10 C 0.2621(2) 0.0801(3) 0.1225(4)
C11 C 0.2039(2) -0.0047(3) 0.0875(4)
C12 C 0.1532(2) 0.0109(3) -0.0426(4)
H9 H 0.1134 -0.0446 -0.0678
C13 C 0.1569(2) 0.1020(3) -0.1380(4)
C14 C 0.2167(2) 0.1812(3) -0.0999(4)
H10 H 0.2221 0.2428 -0.1641
C15 C 0.1976(2) -0.1086(3) 0.1855(4)
C16 C 0.1296(3) -0.1883(4) 0.1253(5)
H11 H 0.0845 -0.1391 0.1074
H12 H 0.1265 -0.2516 0.1936
H13 H 0.1344 -0.2249 0.0364
C17 C 0.1895(3) -0.0615(4) 0.3303(4)
H14 H 0.2330 -0.0130 0.3744
H15 H 0.1857 -0.1296 0.3919
H16 H 0.1447 -0.0120 0.3164
C18 C 0.2660(3) -0.1904(4) 0.2072(5)
H17 H 0.2699 -0.2223 0.1155
H18 H 0.2611 -0.2570 0.2700
H19 H 0.3107 -0.1440 0.2497
C19 C 0.0999(2) 0.1161(3) -0.2786(4)
C20 C 0.0340(3) 0.0313(4) -0.2917(5)
H20 H 0.0510 -0.0520 -0.2904
H21 H -0.0026 0.0471 -0.3809
H22 H 0.0112 0.0446 -0.2121
C21 C 0.1377(3) 0.0878(4) -0.3997(4)
H23 H 0.1806 0.1408 -0.3922
H24 H 0.1023 0.1009 -0.4911
H25 H 0.1542 0.0039 -0.3927
C22 C 0.0704(3) 0.2450(4) -0.2947(5)
H26 H 0.0509 0.2659 -0.2130
H27 H 0.0307 0.2515 -0.3815
H28 H 0.1107 0.3002 -0.3001
loop_
_geom_bond_atom_site_label_1
_geom_bond_atom_site_label_2
_geom_bond_site_symmetry_1
_geom_bond_site_symmetry_2
N1 C1 1_555 1_555
N2 H1 1_555 1_555
O1 H2 1_555 1_555
C1 C2 1_555 1_555
C2 H3 1_555 1_555
C3 C2 1_555 1_555
H4 C3 1_555 1_555
C4 C3 1_555 1_555
H5 C4 1_555 1_555
C5 C4 1_555 1_555
H6 C5 1_555 1_555
C6 N2 1_555 1_555
C7 N1 1_555 1_555
C8 C7 1_555 1_555
H7 C8 1_555 1_555
H8 C8 1_555 1_555
C9 C8 1_555 1_555
C10 O1 1_555 1_555
C11 C10 1_555 1_555
C12 C11 1_555 1_555
H9 C12 1_555 1_555
C13 C12 1_555 1_555
C14 C9 1_555 1_555
H10 C14 1_555 1_555
C15 C11 1_555 1_555
C16 C15 1_555 1_555
H11 C16 1_555 1_555
H12 C16 1_555 1_555
H13 C16 1_555 1_555
C17 C15 1_555 1_555
H14 C17 1_555 1_555
H15 C17 1_555 1_555
H16 C17 1_555 1_555
C18 C15 1_555 1_555
H17 C18 1_555 1_555
H18 C18 1_555 1_555
H19 C18 1_555 1_555
C19 C13 1_555 1_555
C20 C19 1_555 1_555
H20 C20 1_555 1_555
H21 C20 1_555 1_555
H22 C20 1_555 1_555
C21 C19 1_555 1_555
H23 C21 1_555 1_555
H24 C21 1_555 1_555
H25 C21 1_555 1_555
C22 C19 1_555 1_555
H26 C22 1_555 1_555
H27 C22 1_555 1_555
H28 C22 1_555 1_555
N2 C7 1_555 1_555
C1 C6 1_555 1_555
C5 C6 1_555 1_555
C9 C10 1_555 1_555
C13 C14 1_555 1_555

#END
