
#######################################################################
#
#                 Cambridge Crystallographic Data Centre
#                                CCDC 
#
#######################################################################
#
# If this CIF has been generated from an entry in the Cambridge 
# Structural Database, then it will include bibliographic, chemical, 
# crystal, experimental, refinement or atomic coordinate data resulting 
# from the CCDC's data processing and validation procedures.
#
#######################################################################

data_UZEVUS
_chemical_formula_moiety         'C6 H8 N4 O6'
_chemical_name_systematic        
2-(dinitromethylene)hexahydro-1H-[1,4]dioxino[2,3-d]imidazole
_symmetry_cell_setting           monoclinic
_symmetry_space_group_name_H-M   'P 21/c'
_symmetry_Int_Tables_number      14
_space_group_name_Hall           '-P 2ybc'
loop_
_symmetry_equiv_pos_site_id
_symmetry_equiv_pos_as_xyz
1 x,y,z
2 -x,1/2+y,1/2-z
3 -x,-y,-z
4 x,1/2-y,1/2+z
_cell_length_a                   10.125(2)
_cell_length_b                   8.3450(17)
_cell_length_c                   10.583(2)
_cell_angle_alpha                90
_cell_angle_beta                 106.10(3)
_cell_angle_gamma                90
_cell_volume                     859.12
_exptl_crystal_description       plate
_cell_formula_units_Z            4
loop_
_atom_site_label
_atom_site_type_symbol
_atom_site_fract_x
_atom_site_fract_y
_atom_site_fract_z
O1 O 0.06440(18) 0.1554(2) 0.56135(18)
N1 N 0.3091(2) 0.1282(3) 0.5991(2)
H1 H 0.3141 0.1737 0.5277
C1 C 0.0568(3) 0.3109(4) 0.6166(3)
H2 H -0.0313 0.3595 0.5741
H3 H 0.1284 0.3791 0.6013
O2 O 0.20609(19) 0.2305(3) 0.82383(17)
N2 N 0.3681(2) 0.0466(3) 0.8022(2)
H4 H 0.4180 0.0017 0.8723
C2 C 0.1812(3) 0.0699(3) 0.6242(3)
H5 H 0.1676 -0.0423 0.5964
N3 N 0.6590(2) 0.0998(3) 0.8310(2)
O3 O 0.7698(2) 0.1679(3) 0.8502(2)
C3 C 0.2233(3) 0.0756(4) 0.7744(3)
H6 H 0.1771 -0.0075 0.8119
N4 N 0.5998(2) 0.1586(3) 0.5981(2)
O4 O 0.6311(2) 0.0113(3) 0.91439(19)
C4 C 0.0738(3) 0.2974(4) 0.7615(3)
H7 H 0.0659 0.4025 0.7979
H8 H 0.0023 0.2293 0.7772
O5 O 0.7216(2) 0.1524(3) 0.6010(2)
C5 C 0.4145(3) 0.1003(3) 0.7020(2)
O6 O 0.5093(2) 0.1892(3) 0.49440(19)
C6 C 0.5561(3) 0.1224(3) 0.7098(2)
loop_
_geom_bond_atom_site_label_1
_geom_bond_atom_site_label_2
_geom_bond_site_symmetry_1
_geom_bond_site_symmetry_2
O1 C1 1_555 1_555
N1 H1 1_555 1_555
C1 H2 1_555 1_555
H3 C1 1_555 1_555
O2 C3 1_555 1_555
N2 H4 1_555 1_555
C2 O1 1_555 1_555
H5 C2 1_555 1_555
N3 O3 1_555 1_555
C3 N2 1_555 1_555
H6 C3 1_555 1_555
N4 O5 1_555 1_555
O4 N3 1_555 1_555
C4 C1 1_555 1_555
H7 C4 1_555 1_555
H8 C4 1_555 1_555
C5 N1 1_555 1_555
O6 N4 1_555 1_555
C6 N3 1_555 1_555
N1 C2 1_555 1_555
O2 C4 1_555 1_555
N2 C5 1_555 1_555
C2 C3 1_555 1_555
N4 C6 1_555 1_555
C5 C6 1_555 1_555

#END
