
#######################################################################
#
#                 Cambridge Crystallographic Data Centre
#                                CCDC 
#
#######################################################################
#
# If this CIF has been generated from an entry in the Cambridge 
# Structural Database, then it will include bibliographic, chemical, 
# crystal, experimental, refinement or atomic coordinate data resulting 
# from the CCDC's data processing and validation procedures.
#
#######################################################################

data_UZEWON
_chemical_formula_moiety         'C5 H6 N6 O8'
_chemical_name_systematic        
4-methyl-1-nitro-2-(trinitromethyl)-4,5-dihydro-1H-imidazole
_symmetry_cell_setting           triclinic
_symmetry_space_group_name_H-M   'P -1'
_symmetry_Int_Tables_number      2
_space_group_name_Hall           '-P 1'
loop_
_symmetry_equiv_pos_site_id
_symmetry_equiv_pos_as_xyz
1 x,y,z
2 -x,-y,-z
_cell_length_a                   8.4150(17)
_cell_length_b                   10.916(2)
_cell_length_c                   12.774(3)
_cell_angle_alpha                72.30(3)
_cell_angle_beta                 83.98(3)
_cell_angle_gamma                83.60(3)
_cell_volume                     1107.76
_exptl_crystal_description       plate
_cell_formula_units_Z            4
loop_
_atom_site_label
_atom_site_type_symbol
_atom_site_fract_x
_atom_site_fract_y
_atom_site_fract_z
O1 O 0.0468(4) 1.0001(3) 0.1226(2)
O2 O 0.1948(4) 0.9240(3) 0.2602(3)
O3 O 0.5020(5) 0.7524(4) 0.3551(3)
O4 O 0.4408(4) 0.7388(3) 0.2014(3)
O5 O 0.4306(5) 0.4779(3) 0.3616(3)
O6 O 0.2248(5) 0.4654(3) 0.4779(3)
O7 O 0.2702(5) 0.7114(4) 0.5159(3)
O8 O 0.0452(5) 0.7401(4) 0.4468(3)
N1 N 0.1034(4) 0.5765(3) 0.2520(2)
N2 N 0.0733(4) 0.7924(3) 0.2018(2)
N3 N 0.1074(4) 0.9121(3) 0.1936(3)
N4 N 0.4167(4) 0.7269(4) 0.2973(4)
N5 N 0.3129(5) 0.5222(3) 0.4025(3)
N6 N 0.1849(6) 0.7126(3) 0.4464(3)
C1 C -0.0207(5) 0.6164(4) 0.1703(3)
H1 H 0.0126 0.5804 0.1091
C2 C -0.0285(5) 0.7635(4) 0.1277(3)
H2 H 0.0142 0.7931 0.0516
H3 H -0.1373 0.8019 0.1343
C3 C 0.1453(4) 0.6752(4) 0.2668(3)
C4 C -0.1759(6) 0.5656(6) 0.2260(4)
H4 H -0.1634 0.4730 0.2506
H5 H -0.2580 0.5937 0.1750
H6 H -0.2058 0.5975 0.2882
C5 C 0.2614(4) 0.6657(3) 0.3510(3)
O9 O 0.3323(4) 0.2926(3) 0.0328(2)
O10 O 0.0893(4) 0.3202(3) 0.1030(2)
O11 O 0.4738(6) 0.0390(4) 0.1166(4)
O12 O 0.6837(4) 0.1107(4) 0.0210(3)
O13 O 0.7898(5) 0.2167(7) 0.2575(4)
O14 O 0.7526(5) 0.0271(6) 0.2535(3)
O15 O 0.7116(5) 0.3510(4) 0.0188(3)
O16 O 0.5367(5) 0.4196(4) 0.1273(3)
N7 N 0.4470(4) 0.1513(4) 0.3427(2)
N8 N 0.2819(3) 0.2431(3) 0.2125(2)
N9 N 0.2305(5) 0.2881(3) 0.1095(3)
N10 N 0.5784(5) 0.1096(4) 0.0913(3)
N11 N 0.7266(6) 0.1446(7) 0.2304(3)
N12 N 0.6127(5) 0.3362(5) 0.0953(3)
C6 C 0.2880(4) 0.1638(4) 0.4004(3)
H7 H 0.2920 0.2242 0.4431
C7 C 0.1732(4) 0.2255(4) 0.3105(3)
H8 H 0.0917 0.1687 0.3117
H9 H 0.1218 0.3072 0.3170
C8 C 0.4343(4) 0.1961(4) 0.2411(3)
C9 C 0.2471(6) 0.0418(5) 0.4760(4)
H10 H 0.3256 0.0111 0.5295
H11 H 0.2450 -0.0196 0.4362
H12 H 0.1434 0.0527 0.5129
C10 C 0.5784(4) 0.1996(4) 0.1620(3)
loop_
_geom_bond_atom_site_label_1
_geom_bond_atom_site_label_2
_geom_bond_site_symmetry_1
_geom_bond_site_symmetry_2
O1 N3 1_555 1_555
O2 N3 1_555 1_555
O3 N4 1_555 1_555
O4 N4 1_555 1_555
O5 N5 1_555 1_555
O6 N5 1_555 1_555
O7 N6 1_555 1_555
O8 N6 1_555 1_555
N1 C1 1_555 1_555
N2 N3 1_555 1_555
N4 C5 1_555 1_555
N5 C5 1_555 1_555
N6 C5 1_555 1_555
C1 H1 1_555 1_555
C2 N2 1_555 1_555
H2 C2 1_555 1_555
H3 C2 1_555 1_555
C3 N1 1_555 1_555
C4 C1 1_555 1_555
H4 C4 1_555 1_555
H5 C4 1_555 1_555
H6 C4 1_555 1_555
C5 C3 1_555 1_555
O9 N9 1_555 1_555
O10 N9 1_555 1_555
O11 N10 1_555 1_555
O12 N10 1_555 1_555
O13 N11 1_555 1_555
O14 N11 1_555 1_555
O15 N12 1_555 1_555
O16 N12 1_555 1_555
N7 C6 1_555 1_555
N8 N9 1_555 1_555
N10 C10 1_555 1_555
N11 C10 1_555 1_555
N12 C10 1_555 1_555
C6 H7 1_555 1_555
C7 N8 1_555 1_555
H8 C7 1_555 1_555
H9 C7 1_555 1_555
C8 N7 1_555 1_555
C9 C6 1_555 1_555
H10 C9 1_555 1_555
H11 C9 1_555 1_555
H12 C9 1_555 1_555
C10 C8 1_555 1_555
N2 C3 1_555 1_555
C1 C2 1_555 1_555
N8 C8 1_555 1_555
C6 C7 1_555 1_555

#END
