
#######################################################################
#
#                 Cambridge Crystallographic Data Centre
#                                CCDC 
#
#######################################################################
#
# If this CIF has been generated from an entry in the Cambridge 
# Structural Database, then it will include bibliographic, chemical, 
# crystal, experimental, refinement or atomic coordinate data resulting 
# from the CCDC's data processing and validation procedures.
#
#######################################################################

data_UZEXAA
_chemical_formula_moiety         'C8 H10 N6 O8'
_chemical_name_systematic        
cis-1-nitro-2-(trinitromethyl)-3a,4,5,6,7,7a-hexahydro-1H-benzimidazole
_symmetry_cell_setting           monoclinic
_symmetry_space_group_name_H-M   'P 21/c'
_symmetry_Int_Tables_number      14
_space_group_name_Hall           '-P 2ybc'
loop_
_symmetry_equiv_pos_site_id
_symmetry_equiv_pos_as_xyz
1 x,y,z
2 -x,1/2+y,1/2-z
3 -x,-y,-z
4 x,1/2-y,1/2+z
_cell_length_a                   11.267(2)
_cell_length_b                   10.248(2)
_cell_length_c                   11.444(2)
_cell_angle_alpha                90
_cell_angle_beta                 91.41(3)
_cell_angle_gamma                90
_cell_volume                     1320.97
_exptl_crystal_description       plate
_cell_formula_units_Z            4
loop_
_atom_site_label
_atom_site_type_symbol
_atom_site_fract_x
_atom_site_fract_y
_atom_site_fract_z
N1 N 0.8562(3) 0.1226(3) 0.3739(3)
O1 O 0.5540(3) 0.3103(3) 0.2911(3)
C1 C 0.8253(3) -0.0064(4) 0.3191(4)
H1 H 0.8543 -0.0057 0.2391
N2 N 0.6704(3) 0.1358(3) 0.2965(3)
O2 O 0.4808(3) 0.1182(3) 0.2537(3)
C2 C 0.8797(4) -0.1236(4) 0.3814(4)
H2 H 0.8789 -0.1971 0.3280
H3 H 0.9619 -0.1041 0.4015
N3 N 0.5600(3) 0.1899(4) 0.2809(3)
O3 O 0.7792(4) 0.3782(3) 0.1915(3)
C3 C 0.8174(4) -0.1624(4) 0.4904(4)
H4 H 0.8290 -0.0953 0.5494
H5 H 0.8515 -0.2429 0.5206
O4 O 0.7731(3) 0.5451(3) 0.3056(3)
N4 N 0.7733(3) 0.4303(3) 0.2853(4)
C4 C 0.6865(4) -0.1813(4) 0.4663(4)
H6 H 0.6487 -0.2095 0.5373
H7 H 0.6749 -0.2490 0.4079
C5 C 0.6294(4) -0.0556(4) 0.4232(4)
H8 H 0.6369 0.0107 0.4834
H9 H 0.5455 -0.0702 0.4070
O5 O 0.6746(3) 0.4871(3) 0.5083(3)
N5 N 0.6828(3) 0.3727(3) 0.4821(3)
N6 N 0.8966(3) 0.3599(3) 0.4513(4)
O6 O 0.6318(3) 0.2824(3) 0.5246(3)
C6 C 0.6889(3) -0.0082(4) 0.3120(4)
H10 H 0.6600 -0.0567 0.2432
C7 C 0.7687(3) 0.1964(4) 0.3551(3)
O7 O 0.9002(3) 0.3437(3) 0.5564(3)
O8 O 0.9755(3) 0.3908(3) 0.3894(3)
C8 C 0.7753(3) 0.3377(3) 0.3903(3)
loop_
_geom_bond_atom_site_label_1
_geom_bond_atom_site_label_2
_geom_bond_site_symmetry_1
_geom_bond_site_symmetry_2
N1 C1 1_555 1_555
O1 N3 1_555 1_555
C1 H1 1_555 1_555
N2 N3 1_555 1_555
O2 N3 1_555 1_555
C2 C1 1_555 1_555
H2 C2 1_555 1_555
H3 C2 1_555 1_555
O3 N4 1_555 1_555
C3 C2 1_555 1_555
H4 C3 1_555 1_555
H5 C3 1_555 1_555
O4 N4 1_555 1_555
N4 C8 1_555 1_555
C4 C3 1_555 1_555
H6 C4 1_555 1_555
H7 C4 1_555 1_555
C5 C4 1_555 1_555
H8 C5 1_555 1_555
H9 C5 1_555 1_555
O5 N5 1_555 1_555
N5 O6 1_555 1_555
N6 O7 1_555 1_555
C6 C1 1_555 1_555
H10 C6 1_555 1_555
C7 N1 1_555 1_555
O8 N6 1_555 1_555
C8 N5 1_555 1_555
N2 C6 1_555 1_555
N2 C7 1_555 1_555
C5 C6 1_555 1_555
N6 C8 1_555 1_555
C7 C8 1_555 1_555

#END
