
#######################################################################
#
#                 Cambridge Crystallographic Data Centre
#                                CCDC 
#
#######################################################################
#
# If this CIF has been generated from an entry in the Cambridge 
# Structural Database, then it will include bibliographic, chemical, 
# crystal, experimental, refinement or atomic coordinate data resulting 
# from the CCDC's data processing and validation procedures.
#
#######################################################################

data_UZILIZ
_chemical_formula_moiety         'C44 H30 B2 N2 O4'
_chemical_name_systematic        
8,8,17,17-Tetraphenyl-8,17-dihydro-9\l^5^,18\l^5^,8\l^5^,17\l^5^-[1,3]benzoxazolo[3,2-c][1,3]benzoxazolo[3',2':3,4][1,3,2]oxazaborinino[6,5-g][1,3,2]benzoxazaborinine
_symmetry_cell_setting           triclinic
_symmetry_space_group_name_H-M   'P -1'
_symmetry_Int_Tables_number      2
_space_group_name_Hall           '-P 1'
loop_
_symmetry_equiv_pos_site_id
_symmetry_equiv_pos_as_xyz
1 x,y,z
2 -x,-y,-z
_cell_length_a                   8.220(5)
_cell_length_b                   8.960(7)
_cell_length_c                   13.113(7)
_cell_angle_alpha                74.48(2)
_cell_angle_beta                 75.97(2)
_cell_angle_gamma                65.43(3)
_cell_volume                     836.778
_exptl_crystal_colour            red
_cell_formula_units_Z            1
_exptl_crystal_recrystallization_method sublimation
loop_
_atom_site_label
_atom_site_type_symbol
_atom_site_fract_x
_atom_site_fract_y
_atom_site_fract_z
B1 B 0.2542(5) 0.2609(5) 0.2127(3)
C1 C 1.1497(4) 0.3338(4) -0.1357(2)
C2 C 1.3265(4) 0.2248(4) -0.1380(2)
H1 H 1.3598 0.1155 -0.1000
C3 C 1.4513(5) 0.2899(5) -0.2013(3)
H2 H 1.5738 0.2235 -0.2047
C4 C 1.3987(4) 0.4514(5) -0.2595(3)
H3 H 1.4876 0.4895 -0.3015
C5 C 1.2190(4) 0.5591(4) -0.2580(2)
H4 H 1.1849 0.6673 -0.2977
C6 C 1.0939(4) 0.4949(4) -0.1935(2)
C7 C 0.8556(4) 0.4466(4) -0.1007(2)
C8 C 0.6740(4) 0.4685(4) -0.0506(2)
C9 C 0.6252(4) 0.3357(4) 0.0104(2)
H5 H 0.7108 0.2270 0.0161
C10 C 0.4509(4) 0.3651(4) 0.0620(2)
C11 C 0.1735(4) 0.1176(4) 0.2391(2)
C12 C 0.1060(5) 0.0892(4) 0.1616(3)
H6 H 0.1163 0.1493 0.0921
C13 C 0.0241(5) -0.0251(5) 0.1842(3)
H7 H -0.0215 -0.0394 0.1307
C14 C 0.0100(5) -0.1176(5) 0.2852(3)
H8 H -0.0455 -0.1945 0.3006
C15 C 0.0778(5) -0.0962(5) 0.3629(3)
H9 H 0.0701 -0.1599 0.4314
C16 C 0.1584(5) 0.0205(4) 0.3403(2)
H10 H 0.2034 0.0338 0.3945
C17 C 0.3227(4) 0.2792(4) 0.3107(2)
C18 C 0.2162(5) 0.3874(5) 0.3814(3)
H11 H 0.1006 0.4610 0.3683
C19 C 0.2783(5) 0.3883(6) 0.4713(3)
H12 H 0.2047 0.4621 0.5169
C20 C 0.4483(6) 0.2797(6) 0.4921(3)
H13 H 0.4898 0.2787 0.5523
C21 C 0.5563(5) 0.1729(5) 0.4236(3)
H14 H 0.6719 0.0999 0.4370
C22 C 0.4941(5) 0.1734(4) 0.3351(2)
H15 H 0.5698 0.0999 0.2898
N1 N 0.9031(3) 0.5635(3) -0.16918(18)
O1 O 0.9968(3) 0.3037(3) -0.07691(15)
O2 O 0.4006(3) 0.2363(3) 0.11633(15)
B1A B 0.7458(5) 0.7391(5) -0.2127(3)
C1A C -0.1497(4) 0.6662(4) 0.1357(2)
C2A C -0.3265(4) 0.7752(4) 0.1380(2)
H1A H -0.3598 0.8845 0.1000
C3A C -0.4513(5) 0.7101(5) 0.2013(3)
H2A H -0.5738 0.7765 0.2047
C4A C -0.3987(4) 0.5486(5) 0.2595(3)
H3A H -0.4876 0.5105 0.3015
C5A C -0.2190(4) 0.4409(4) 0.2580(2)
H4A H -0.1849 0.3327 0.2977
C6A C -0.0939(4) 0.5051(4) 0.1935(2)
C7A C 0.1444(4) 0.5534(4) 0.1007(2)
C8A C 0.3260(4) 0.5315(4) 0.0506(2)
C9A C 0.3748(4) 0.6643(4) -0.0104(2)
H5A H 0.2892 0.7730 -0.0161
C10A C 0.5491(4) 0.6349(4) -0.0620(2)
C11A C 0.8265(4) 0.8824(4) -0.2391(2)
C12A C 0.8940(5) 0.9108(4) -0.1616(3)
H6A H 0.8837 0.8507 -0.0921
C13A C 0.9759(5) 1.0251(5) -0.1842(3)
H7A H 1.0215 1.0394 -0.1307
C14A C 0.9900(5) 1.1176(5) -0.2852(3)
H8A H 1.0455 1.1945 -0.3006
C15A C 0.9222(5) 1.0962(5) -0.3629(3)
H9A H 0.9299 1.1599 -0.4314
C16A C 0.8416(5) 0.9795(4) -0.3403(2)
H10A H 0.7966 0.9662 -0.3945
C17A C 0.6773(4) 0.7208(4) -0.3107(2)
C18A C 0.7838(5) 0.6126(5) -0.3814(3)
H11A H 0.8994 0.5390 -0.3683
C19A C 0.7217(5) 0.6117(6) -0.4713(3)
H12A H 0.7953 0.5379 -0.5169
C20A C 0.5517(6) 0.7203(6) -0.4921(3)
H13A H 0.5102 0.7213 -0.5523
C21A C 0.4437(5) 0.8271(5) -0.4236(3)
H14A H 0.3281 0.9001 -0.4370
C22A C 0.5059(5) 0.8266(4) -0.3351(2)
H15A H 0.4302 0.9001 -0.2898
N1A N 0.0969(3) 0.4365(3) 0.16918(18)
O1A O 0.0032(3) 0.6963(3) 0.07691(15)
O2A O 0.5994(3) 0.7637(3) -0.11633(15)
loop_
_geom_bond_atom_site_label_1
_geom_bond_atom_site_label_2
_geom_bond_site_symmetry_1
_geom_bond_site_symmetry_2
B1 C11 1_555 1_555
C1 C2 1_555 1_555
C2 H1 1_555 1_555
C3 C2 1_555 1_555
H2 C3 1_555 1_555
C4 C3 1_555 1_555
H3 C4 1_555 1_555
C5 C4 1_555 1_555
H4 C5 1_555 1_555
C6 C1 1_555 1_555
C7 C8 1_555 1_555
C8 C9 1_555 1_555
C9 H5 1_555 1_555
C10 C9 1_555 1_555
C11 C12 1_555 1_555
C12 H6 1_555 1_555
C13 C12 1_555 1_555
H7 C13 1_555 1_555
C14 C13 1_555 1_555
H8 C14 1_555 1_555
C15 C14 1_555 1_555
H9 C15 1_555 1_555
C16 C11 1_555 1_555
H10 C16 1_555 1_555
C17 B1 1_555 1_555
C18 C17 1_555 1_555
H11 C18 1_555 1_555
C19 C18 1_555 1_555
H12 C19 1_555 1_555
C20 C19 1_555 1_555
H13 C20 1_555 1_555
C21 C20 1_555 1_555
H14 C21 1_555 1_555
C22 C17 1_555 1_555
H15 C22 1_555 1_555
N1 C6 1_555 1_555
O1 C1 1_555 1_555
O2 B1 1_555 1_555
B1A N1 1_555 1_555
C1A C2A 1_555 1_555
C2A H1A 1_555 1_555
C3A C2A 1_555 1_555
H2A C3A 1_555 1_555
C4A C3A 1_555 1_555
H3A C4A 1_555 1_555
C5A C4A 1_555 1_555
H4A C5A 1_555 1_555
C6A C1A 1_555 1_555
C7A C8A 1_555 1_555
C8A C10 1_555 1_555
C9A C8A 1_555 1_555
H5A C9A 1_555 1_555
C10A C8 1_555 1_555
C11A B1A 1_555 1_555
C12A C11A 1_555 1_555
H6A C12A 1_555 1_555
C13A C12A 1_555 1_555
H7A C13A 1_555 1_555
C14A C13A 1_555 1_555
H8A C14A 1_555 1_555
C15A C14A 1_555 1_555
H9A C15A 1_555 1_555
C16A C11A 1_555 1_555
H10A C16A 1_555 1_555
C17A B1A 1_555 1_555
C18A C17A 1_555 1_555
H11A C18A 1_555 1_555
C19A C18A 1_555 1_555
H12A C19A 1_555 1_555
C20A C19A 1_555 1_555
H13A C20A 1_555 1_555
C21A C20A 1_555 1_555
H14A C21A 1_555 1_555
C22A C17A 1_555 1_555
H15A C22A 1_555 1_555
N1A B1 1_555 1_555
O1A C1A 1_555 1_555
O2A B1A 1_555 1_555
C5 C6 1_555 1_555
C7 N1 1_555 1_555
C7 O1 1_555 1_555
C10 O2 1_555 1_555
C15 C16 1_555 1_555
C21 C22 1_555 1_555
C5A C6A 1_555 1_555
C6A N1A 1_555 1_555
C7A N1A 1_555 1_555
C7A O1A 1_555 1_555
C9A C10A 1_555 1_555
C10A O2A 1_555 1_555
C15A C16A 1_555 1_555
C21A C22A 1_555 1_555

#END
