
#######################################################################
#
#                 Cambridge Crystallographic Data Centre
#                                CCDC 
#
#######################################################################
#
# If this CIF has been generated from an entry in the Cambridge 
# Structural Database, then it will include bibliographic, chemical, 
# crystal, experimental, refinement or atomic coordinate data resulting 
# from the CCDC's data processing and validation procedures.
#
#######################################################################

data_UZIRIF
_chemical_formula_moiety         'C20 H25 N3 O5'
_chemical_name_systematic        
'Ethyl 4-methyl-2-(3-(4-nitrophenyl)-7-oxotetrahydro-1H,5H-pyrazolo[1,2-a]pyrazol-1-ylidene)pentanoate'
_symmetry_cell_setting           triclinic
_symmetry_space_group_name_H-M   'P -1'
_symmetry_Int_Tables_number      2
_space_group_name_Hall           '-P 1'
loop_
_symmetry_equiv_pos_site_id
_symmetry_equiv_pos_as_xyz
1 x,y,z
2 -x,-y,-z
_cell_length_a                   8.961(3)
_cell_length_b                   9.259(3)
_cell_length_c                   12.207(4)
_cell_angle_alpha                77.131(4)
_cell_angle_beta                 81.294(4)
_cell_angle_gamma                73.893(4)
_cell_volume                     944.266
_exptl_crystal_colour            colorless
_exptl_crystal_description       block
_cell_formula_units_Z            2
_exptl_crystal_recrystallization_method dichloromethane/hexane
loop_
_atom_site_label
_atom_site_type_symbol
_atom_site_fract_x
_atom_site_fract_y
_atom_site_fract_z
O1 O 0.44806(9) 0.46370(9) 0.39542(6)
O2 O -0.28564(11) 0.71550(12) 1.12500(7)
O3 O -0.39206(11) 0.56264(11) 1.07155(8)
O4 O 0.41437(9) 0.99737(8) 0.31608(6)
O5 O 0.24456(9) 1.03294(9) 0.46916(7)
N1 N 0.10856(10) 0.53723(10) 0.58357(7)
N2 N 0.20902(10) 0.57750(10) 0.48240(7)
N3 N -0.29694(11) 0.63929(12) 1.05756(8)
C1 C -0.18789(12) 0.63845(12) 0.95450(9)
C2 C -0.06078(13) 0.69782(12) 0.94799(9)
H1 H -0.0472 0.7440 1.0067
C3 C 0.04673(12) 0.68840(12) 0.85346(9)
H2 H 0.1362 0.7265 0.8484
C4 C 0.02535(11) 0.62384(12) 0.76577(8)
C5 C -0.10673(12) 0.56866(12) 0.77407(9)
H3 H -0.1240 0.5274 0.7139
C6 C -0.21346(12) 0.57349(13) 0.86968(9)
H4 H -0.3017 0.5331 0.8765
C7 C 0.14687(11) 0.61423(12) 0.66556(8)
H5 H 0.2514 0.5575 0.6919
C8 C 0.15684(12) 0.76918(12) 0.59142(8)
H6 H 0.0529 0.8429 0.5892
H7 H 0.2294 0.8132 0.6192
C9 C 0.21801(11) 0.72949(11) 0.47620(8)
C10 C 0.34188(12) 0.45579(11) 0.46878(9)
C11 C 0.32383(12) 0.32135(12) 0.56060(9)
H8 H 0.3968 0.3031 0.6184
H9 H 0.3432 0.2273 0.5292
C12 C 0.15582(12) 0.36788(12) 0.61033(9)
H10 H 0.0884 0.3245 0.5765
H11 H 0.1474 0.3307 0.6930
C13 C 0.27168(11) 0.81521(11) 0.38266(8)
C14 C 0.30377(11) 0.95884(12) 0.39616(8)
C15 C 0.45988(12) 1.13336(12) 0.32198(9)
H12 H 0.5157 1.1155 0.3897
H13 H 0.3667 1.2203 0.3262
C16 C 0.56512(14) 1.16784(14) 0.21651(10)
H14 H 0.6604 1.0844 0.2162
H15 H 0.5923 1.2639 0.2145
H16 H 0.5111 1.1776 0.1501
C17 C 0.30612(12) 0.77600(12) 0.26640(8)
H17 H 0.2824 0.6768 0.2696
H18 H 0.4187 0.7641 0.2421
C18 C 0.21044(12) 0.89956(12) 0.17874(9)
H19 H 0.2174 1.0020 0.1883
C19 C 0.03923(13) 0.89689(14) 0.19727(10)
H20 H -0.0195 0.9787 0.1423
H21 H -0.0027 0.9126 0.2739
H22 H 0.0297 0.7976 0.1876
C20 C 0.27912(15) 0.87823(16) 0.05968(10)
H23 H 0.2781 0.7764 0.0498
H24 H 0.3868 0.8881 0.0479
H25 H 0.2167 0.9565 0.0047
loop_
_geom_bond_atom_site_label_1
_geom_bond_atom_site_label_2
_geom_bond_site_symmetry_1
_geom_bond_site_symmetry_2
O1 C10 1_555 1_555
O2 N3 1_555 1_555
O3 N3 1_555 1_555
O4 C14 1_555 1_555
O5 C14 1_555 1_555
N1 N2 1_555 1_555
N2 C9 1_555 1_555
N3 C1 1_555 1_555
C1 C2 1_555 1_555
C2 H1 1_555 1_555
C3 C2 1_555 1_555
H2 C3 1_555 1_555
C4 C3 1_555 1_555
C5 C4 1_555 1_555
H3 C5 1_555 1_555
C6 C1 1_555 1_555
H4 C6 1_555 1_555
C7 N1 1_555 1_555
H5 C7 1_555 1_555
C8 C7 1_555 1_555
H6 C8 1_555 1_555
H7 C8 1_555 1_555
C9 C8 1_555 1_555
C10 N2 1_555 1_555
C11 C10 1_555 1_555
H8 C11 1_555 1_555
H9 C11 1_555 1_555
C12 N1 1_555 1_555
H10 C12 1_555 1_555
H11 C12 1_555 1_555
C13 C9 1_555 1_555
C14 C13 1_555 1_555
C15 O4 1_555 1_555
H12 C15 1_555 1_555
H13 C15 1_555 1_555
C16 C15 1_555 1_555
H14 C16 1_555 1_555
H15 C16 1_555 1_555
H16 C16 1_555 1_555
C17 C13 1_555 1_555
H17 C17 1_555 1_555
H18 C17 1_555 1_555
C18 C17 1_555 1_555
H19 C18 1_555 1_555
C19 C18 1_555 1_555
H20 C19 1_555 1_555
H21 C19 1_555 1_555
H22 C19 1_555 1_555
C20 C18 1_555 1_555
H23 C20 1_555 1_555
H24 C20 1_555 1_555
H25 C20 1_555 1_555
C4 C7 1_555 1_555
C5 C6 1_555 1_555
C11 C12 1_555 1_555

#END
