
#######################################################################
#
#                 Cambridge Crystallographic Data Centre
#                                CCDC 
#
#######################################################################
#
# If this CIF has been generated from an entry in the Cambridge 
# Structural Database, then it will include bibliographic, chemical, 
# crystal, experimental, refinement or atomic coordinate data resulting 
# from the CCDC's data processing and validation procedures.
#
#######################################################################

data_UZIROL
_chemical_formula_moiety         'C20 H23 N3 O7'
_chemical_name_systematic        
'Diethyl 2-(3-(4-nitrophenyl)-7-oxotetrahydro-1H,5H-pyrazolo[1,2-a]pyrazol-1-ylidene)succinate'
_symmetry_cell_setting           triclinic
_symmetry_space_group_name_H-M   'P -1'
_symmetry_Int_Tables_number      2
_space_group_name_Hall           '-P 1'
loop_
_symmetry_equiv_pos_site_id
_symmetry_equiv_pos_as_xyz
1 x,y,z
2 -x,-y,-z
_cell_length_a                   10.0906(17)
_cell_length_b                   10.702(2)
_cell_length_c                   19.365(3)
_cell_angle_alpha                94.622(6)
_cell_angle_beta                 104.715(6)
_cell_angle_gamma                95.703(7)
_cell_volume                     2000.41
_exptl_crystal_colour            colorless
_exptl_crystal_description       block
_cell_formula_units_Z            4
_exptl_crystal_recrystallization_method dichloromethane/hexane
loop_
_atom_site_label
_atom_site_type_symbol
_atom_site_fract_x
_atom_site_fract_y
_atom_site_fract_z
O1 O -0.00482(16) 1.11019(14) 0.24597(9)
O2 O 0.18740(17) 1.22228(13) 0.30193(8)
O3 O 0.43222(13) 0.33608(12) 0.45556(7)
O4 O 0.09119(14) 0.39281(13) 0.60975(7)
O5 O 0.14642(14) 0.59433(12) 0.59225(7)
O6 O 0.34491(14) 0.25383(13) 0.59435(7)
O7 O 0.19601(17) 0.09169(13) 0.52936(8)
N1 N 0.11048(18) 1.12172(14) 0.28670(8)
N2 N 0.26446(15) 0.57261(13) 0.36497(7)
N3 N 0.27691(15) 0.47306(13) 0.41210(7)
C1 C 0.16087(19) 1.01078(16) 0.31967(9)
C2 C 0.08043(19) 0.89499(16) 0.29816(10)
H1 H -0.0048 0.8871 0.2623
C3 C 0.12727(18) 0.79117(16) 0.33019(9)
H2 H 0.0721 0.7113 0.3172
C4 C 0.25398(18) 0.80198(15) 0.38111(9)
C5 C 0.33224(19) 0.92003(16) 0.40085(9)
H3 H 0.4191 0.9279 0.4355
C6 C 0.2859(2) 1.02617(16) 0.37099(10)
H4 H 0.3385 1.1070 0.3854
C7 C 0.30584(18) 0.68926(15) 0.41627(9)
H5 H 0.4086 0.7040 0.4351
C8 C 0.36259(19) 0.54838(17) 0.32116(9)
H6 H 0.4116 0.6290 0.3138
H7 H 0.3126 0.5032 0.2736
C9 C 0.46436(19) 0.46809(17) 0.36241(9)
H8 H 0.4824 0.3996 0.3298
H9 H 0.5529 0.5202 0.3873
C10 C 0.39551(18) 0.41492(16) 0.41545(9)
C11 C 0.23035(17) 0.51246(16) 0.47223(9)
C12 C 0.23949(18) 0.65512(15) 0.47675(9)
H10 H 0.2977 0.6946 0.5241
H11 H 0.1466 0.6830 0.4689
C13 C 0.18431(17) 0.43026(16) 0.51227(9)
C14 C 0.13705(18) 0.46906(17) 0.57611(9)
C15 C 0.0955(2) 0.6364(2) 0.65300(10)
H12 H 0.0116 0.5797 0.6529
H13 H 0.0696 0.7227 0.6480
C16 C 0.2011(2) 0.6367(2) 0.72244(11)
H14 H 0.1703 0.6791 0.7613
H15 H 0.2889 0.6817 0.7199
H16 H 0.2138 0.5495 0.7319
C17 C 0.16179(19) 0.28973(16) 0.49202(10)
H17 H 0.1830 0.2721 0.4453
H18 H 0.0629 0.2597 0.4853
C18 C 0.2467(2) 0.21447(17) 0.54562(10)
C19 C 0.2606(3) 0.0043(2) 0.57690(14)
H19 H 0.3610 0.0325 0.5948
H20 H 0.2480 -0.0807 0.5501
C20 C 0.1994(3) -0.0022(3) 0.63805(16)
H21 H 0.2406 -0.0646 0.6684
H22 H 0.0995 -0.0270 0.6202
H23 H 0.2171 0.0809 0.6663
O8 O 0.37083(19) 1.26242(13) 0.19416(9)
O9 O 0.49951(17) 1.17757(14) 0.28038(9)
O10 O 0.07405(13) 0.26220(11) 0.05450(7)
O11 O 0.29488(15) 0.57316(13) -0.09845(7)
O12 O 0.41512(13) 0.40738(12) -0.09641(7)
O13 O 0.16024(15) 0.20861(13) -0.10335(8)
N4 N 0.40800(19) 1.17007(15) 0.22402(10)
N5 N 0.18002(15) 0.57530(13) 0.13572(7)
N6 N 0.17888(15) 0.46736(13) 0.08493(7)
C21 C 0.3395(2) 1.04379(16) 0.19158(10)
C22 C 0.3927(2) 0.93978(17) 0.22087(10)
H24 H 0.4704 0.9496 0.2615
C23 C 0.32960(19) 0.82142(16) 0.18932(10)
H25 H 0.3639 0.7486 0.2087
C24 C 0.21667(18) 0.80711(16) 0.12965(9)
C25 C 0.1638(2) 0.91367(17) 0.10312(10)
H26 H 0.0841 0.9042 0.0635
C26 C 0.2256(2) 1.03355(17) 0.13359(10)
H27 H 0.1904 1.1066 0.1150
C27 C 0.15748(18) 0.67899(15) 0.08937(9)
H28 H 0.0564 0.6778 0.0670
C28 C 0.06342(19) 0.53818(17) 0.16665(10)
H29 H -0.0220 0.5695 0.1402
H30 H 0.0849 0.5719 0.2179
C29 C 0.0477(2) 0.39460(17) 0.15818(10)
H31 H 0.1043 0.3625 0.2011
H32 H -0.0500 0.3591 0.1504
C30 C 0.09802(18) 0.36151(16) 0.09334(9)
C31 C 0.23380(18) 0.50444(15) 0.02945(9)
C32 C 0.23021(19) 0.64540(16) 0.03101(9)
H33 H 0.1780 0.6673 -0.0161
H34 H 0.3249 0.6909 0.0432
C33 C 0.29220(18) 0.42919(16) -0.01016(9)
C34 C 0.33174(18) 0.48008(16) -0.07185(9)
C35 C 0.4403(2) 0.4314(2) -0.16501(10)
H35 H 0.5380 0.4243 -0.1634
H36 H 0.4214 0.5179 -0.1754
C36 C 0.3475(2) 0.3366(2) -0.22260(11)
H37 H 0.3674 0.3490 -0.2687
H38 H 0.2510 0.3479 -0.2259
H39 H 0.3635 0.2511 -0.2108
C37 C 0.32730(19) 0.30008(16) 0.00640(10)
H40 H 0.3065 0.2831 0.0523
H41 H 0.4276 0.2986 0.0129
C38 C 0.2499(2) 0.19666(18) -0.05111(11)
O14 O 0.2854(9) 0.0842(6) -0.0280(4)
C39 C 0.2306(10) -0.0294(8) -0.0778(5)
H42 H 0.1434 -0.0156 -0.1120
H43 H 0.2104 -0.1006 -0.0509
C40 C 0.3331(10) -0.0613(12) -0.1181(7)
H44 H 0.3383 0.0005 -0.1524
H45 H 0.3042 -0.1460 -0.1442
H46 H 0.4241 -0.0592 -0.0843
C41? C 0.2514(12) -0.0131(9) -0.0999(7)
C42? C 0.3546(9) -0.1044(6) -0.0863(6)
H47? H 0.2369 0.0121 -0.1490
H48? H 0.1617 -0.0499 -0.0936
H49? H 0.4411 -0.0673 -0.0946
H50? H 0.3192 -0.1822 -0.1188
H51? H 0.3714 -0.1239 -0.0364
O15? O 0.3122(10) 0.0935(8) -0.0466(6)
loop_
_geom_bond_atom_site_label_1
_geom_bond_atom_site_label_2
_geom_bond_site_symmetry_1
_geom_bond_site_symmetry_2
O1 N1 1_555 1_555
O2 N1 1_555 1_555
O3 C10 1_555 1_555
O4 C14 1_555 1_555
O5 C14 1_555 1_555
O6 C18 1_555 1_555
O7 C18 1_555 1_555
O8 N4 1_555 1_555
O9 N4 1_555 1_555
O10 C30 1_555 1_555
O11 C34 1_555 1_555
O12 C34 1_555 1_555
O13 C38 1_555 1_555
N1 C1 1_555 1_555
N2 N3 1_555 1_555
N3 C10 1_555 1_555
N4 C21 1_555 1_555
N5 N6 1_555 1_555
N6 C30 1_555 1_555
C1 C2 1_555 1_555
C2 H1 1_555 1_555
C3 C2 1_555 1_555
H2 C3 1_555 1_555
C4 C3 1_555 1_555
C5 C4 1_555 1_555
H3 C5 1_555 1_555
C6 C1 1_555 1_555
H4 C6 1_555 1_555
C7 N2 1_555 1_555
H5 C7 1_555 1_555
C8 N2 1_555 1_555
H6 C8 1_555 1_555
H7 C8 1_555 1_555
C9 C8 1_555 1_555
H8 C9 1_555 1_555
H9 C9 1_555 1_555
C10 C9 1_555 1_555
C11 N3 1_555 1_555
C12 C7 1_555 1_555
H10 C12 1_555 1_555
H11 C12 1_555 1_555
C13 C11 1_555 1_555
C14 C13 1_555 1_555
C15 O5 1_555 1_555
H12 C15 1_555 1_555
H13 C15 1_555 1_555
C16 C15 1_555 1_555
H14 C16 1_555 1_555
H15 C16 1_555 1_555
H16 C16 1_555 1_555
C17 C13 1_555 1_555
H17 C17 1_555 1_555
H18 C17 1_555 1_555
C18 C17 1_555 1_555
C19 O7 1_555 1_555
H19 C19 1_555 1_555
H20 C19 1_555 1_555
C20 C19 1_555 1_555
H21 C20 1_555 1_555
H22 C20 1_555 1_555
H23 C20 1_555 1_555
C21 C22 1_555 1_555
C22 H24 1_555 1_555
C23 C22 1_555 1_555
H25 C23 1_555 1_555
C24 C23 1_555 1_555
C25 C24 1_555 1_555
H26 C25 1_555 1_555
C26 C21 1_555 1_555
H27 C26 1_555 1_555
C27 N5 1_555 1_555
H28 C27 1_555 1_555
C28 N5 1_555 1_555
H29 C28 1_555 1_555
H30 C28 1_555 1_555
C29 C28 1_555 1_555
H31 C29 1_555 1_555
H32 C29 1_555 1_555
C30 C29 1_555 1_555
C31 N6 1_555 1_555
C32 C27 1_555 1_555
H33 C32 1_555 1_555
H34 C32 1_555 1_555
C33 C31 1_555 1_555
C34 C33 1_555 1_555
C35 O12 1_555 1_555
H35 C35 1_555 1_555
H36 C35 1_555 1_555
C36 C35 1_555 1_555
H37 C36 1_555 1_555
H38 C36 1_555 1_555
H39 C36 1_555 1_555
C37 C33 1_555 1_555
H40 C37 1_555 1_555
H41 C37 1_555 1_555
C38 C37 1_555 1_555
O14 C38 1_555 1_555
C39 O14 1_555 1_555
H42 C39 1_555 1_555
H43 C39 1_555 1_555
C40 C39 1_555 1_555
H44 C40 1_555 1_555
H45 C40 1_555 1_555
H46 C40 1_555 1_555
C4 C7 1_555 1_555
C5 C6 1_555 1_555
C11 C12 1_555 1_555
C24 C27 1_555 1_555
C25 C26 1_555 1_555
C31 C32 1_555 1_555

#END
