
#######################################################################
#
#                 Cambridge Crystallographic Data Centre
#                                CCDC 
#
#######################################################################
#
# If this CIF has been generated from an entry in the Cambridge 
# Structural Database, then it will include bibliographic, chemical, 
# crystal, experimental, refinement or atomic coordinate data resulting 
# from the CCDC's data processing and validation procedures.
#
#######################################################################

data_UZIRUR
_chemical_formula_moiety         'C16 H17 N3 O5'
_chemical_name_systematic        
'Ethyl (3-(4-nitrophenyl)-7-oxotetrahydro-1H,5H-pyrazolo[1,2-a]pyrazol-1-ylidene)acetate'
_symmetry_cell_setting           triclinic
_symmetry_space_group_name_H-M   'P -1'
_symmetry_Int_Tables_number      2
_space_group_name_Hall           '-P 1'
loop_
_symmetry_equiv_pos_site_id
_symmetry_equiv_pos_as_xyz
1 x,y,z
2 -x,-y,-z
_cell_length_a                   7.5943(7)
_cell_length_b                   14.3844(14)
_cell_length_c                   14.7836(14)
_cell_angle_alpha                77.337(1)
_cell_angle_beta                 84.962(1)
_cell_angle_gamma                81.670(2)
_cell_volume                     1556.42
_exptl_crystal_colour            colorless
_exptl_crystal_description       block
_cell_formula_units_Z            4
_exptl_crystal_recrystallization_method dichloromethane/hexane
loop_
_atom_site_label
_atom_site_type_symbol
_atom_site_fract_x
_atom_site_fract_y
_atom_site_fract_z
O1 O 1.21561(14) -0.03562(6) 0.80455(7)
O2 O 1.11786(19) 0.04044(8) 0.67340(7)
O3 O 0.93679(12) 0.63671(6) 0.80046(6)
O4 O 0.80898(11) 0.75047(5) 0.87827(6)
O5 O 0.61018(12) 0.51137(6) 1.13953(6)
N1 N 1.13311(14) 0.03361(7) 0.75609(7)
N2 N 0.79994(12) 0.33341(6) 1.01783(6)
N3 N 0.75293(12) 0.43112(6) 1.03039(6)
C1 C 1.04771(14) 0.11330(7) 0.79853(7)
C2 C 0.95042(14) 0.19103(7) 0.74333(7)
H1 H 0.9401 0.1930 0.6793
C3 C 0.86904(14) 0.26546(7) 0.78386(7)
H2 H 0.8016 0.3192 0.7473
C4 C 0.88483(13) 0.26264(7) 0.87793(7)
C5 C 0.98393(14) 0.18364(7) 0.93143(7)
H3 H 0.9953 0.1816 0.9953
C6 C 1.06628(14) 0.10776(7) 0.89206(7)
H4 H 1.1334 0.0537 0.9283
C7 C 0.78989(14) 0.34637(7) 0.91655(7)
H5 H 0.6618 0.3566 0.9015
C8 C 0.87022(14) 0.44117(7) 0.87999(7)
H6 H 1.0021 0.4296 0.8746
H7 H 0.8257 0.4746 0.8188
C9 C 0.80499(13) 0.49760(7) 0.95378(7)
C10 C 0.65802(14) 0.43704(8) 1.11271(7)
C11 C 0.62970(15) 0.33489(8) 1.15854(7)
H8 H 0.5070 0.3320 1.1868
H9 H 0.7157 0.3071 1.2070
C12 C 0.66183(15) 0.28263(8) 1.07800(7)
H10 H 0.7055 0.2137 1.0999
H11 H 0.5517 0.2885 1.0449
C13 C 0.79430(14) 0.59249(7) 0.95130(7)
H12 H 0.7460 0.6168 1.0042
C14 C 0.85561(15) 0.65836(7) 0.86868(7)
C15 C 0.8643(2) 0.82393(8) 0.80180(10)
H13 H 0.9710 0.7972 0.7678
H14 H 0.8962 0.8779 0.8259
C16 C 0.7155(3) 0.85975(10) 0.73698(11)
H15 H 0.6887 0.8068 0.7107
H16 H 0.7519 0.9113 0.6867
H17 H 0.6091 0.8844 0.7713
O6 O 0.61044(12) 0.07835(6) 1.00043(5)
O7 O 0.71468(12) -0.00219(6) 0.89533(6)
O8 O 0.37035(13) 0.66368(6) 0.63173(6)
O9 O 0.15972(12) 0.52095(6) 0.35409(5)
N4 N 0.62296(12) 0.06629(6) 0.92009(6)
N5 N 0.30908(12) 0.34900(6) 0.54931(6)
N6 N 0.26858(12) 0.44549(6) 0.49515(6)
C17 C 0.52570(13) 0.13911(7) 0.84979(7)
C18 C 0.54628(14) 0.12945(7) 0.75822(7)
H18 H 0.6148 0.0743 0.7416
C19 C 0.46428(14) 0.20235(7) 0.69105(7)
H19 H 0.4774 0.1973 0.6278
C20 C 0.36303(13) 0.28280(7) 0.71583(7)
C21 C 0.34284(14) 0.28910(7) 0.80915(7)
H20 H 0.2725 0.3433 0.8265
C22 C 0.42421(14) 0.21712(7) 0.87694(7)
H21 H 0.4104 0.2214 0.9404
C23 C 0.27162(14) 0.36358(7) 0.64542(7)
H22 H 0.1400 0.3691 0.6604
C24 C 0.33569(15) 0.46210(7) 0.63986(7)
H23 H 0.2696 0.4957 0.6867
H24 H 0.4650 0.4548 0.6490
C25 C 0.29432(14) 0.51490(7) 0.54250(7)
C26 C 0.19868(15) 0.44798(8) 0.41212(7)
C27 C 0.18406(16) 0.34461(8) 0.41061(8)
H25 H 0.2860 0.3168 0.3743
H26 H 0.0716 0.3390 0.3843
C28 C 0.18683(16) 0.29587(8) 0.51353(7)
H27 H 0.0664 0.3028 0.5448
H28 H 0.2332 0.2268 0.5218
C29 C 0.28036(15) 0.60936(7) 0.50355(7)
H29 H 0.2521 0.6304 0.4404
C30 C 0.30786(16) 0.67991(7) 0.55654(7)
O10 O 0.25284(14) 0.77008(6) 0.50931(6)
C31 C 0.2818(4) 0.84617(17) 0.55631(18)
H30 H 0.4043 0.8349 0.5780
H31 H 0.1961 0.8477 0.6106
C32 C 0.2541(3) 0.93917(11) 0.48599(12)
H32 H 0.2693 0.9925 0.5147
H33 H 0.1335 0.9485 0.4640
H34 H 0.3416 0.9371 0.4334
C33? C 0.2143(15) 0.8499(9) 0.5542(9)
C34? C 0.3790(12) 0.8993(5) 0.5314(6)
H35? H 0.1939 0.8279 0.6221
H36? H 0.1080 0.8931 0.5294
H37? H 0.3690 0.9524 0.5640
H38? H 0.3916 0.9243 0.4643
H39? H 0.4838 0.8532 0.5512
loop_
_geom_bond_atom_site_label_1
_geom_bond_atom_site_label_2
_geom_bond_site_symmetry_1
_geom_bond_site_symmetry_2
O1 N1 1_555 1_555
O2 N1 1_555 1_555
O3 C14 1_555 1_555
O4 C14 1_555 1_555
O5 C10 1_555 1_555
N1 C1 1_555 1_555
N2 N3 1_555 1_555
N3 C9 1_555 1_555
C1 C2 1_555 1_555
C2 H1 1_555 1_555
C3 C2 1_555 1_555
H2 C3 1_555 1_555
C4 C3 1_555 1_555
C5 C4 1_555 1_555
H3 C5 1_555 1_555
C6 C1 1_555 1_555
H4 C6 1_555 1_555
C7 N2 1_555 1_555
H5 C7 1_555 1_555
C8 C7 1_555 1_555
H6 C8 1_555 1_555
H7 C8 1_555 1_555
C9 C8 1_555 1_555
C10 N3 1_555 1_555
C11 C10 1_555 1_555
H8 C11 1_555 1_555
H9 C11 1_555 1_555
C12 N2 1_555 1_555
H10 C12 1_555 1_555
H11 C12 1_555 1_555
C13 C9 1_555 1_555
H12 C13 1_555 1_555
C14 C13 1_555 1_555
C15 O4 1_555 1_555
H13 C15 1_555 1_555
H14 C15 1_555 1_555
C16 C15 1_555 1_555
H15 C16 1_555 1_555
H16 C16 1_555 1_555
H17 C16 1_555 1_555
O6 N4 1_555 1_555
O7 N4 1_555 1_555
O8 C30 1_555 1_555
O9 C26 1_555 1_555
N4 C17 1_555 1_555
N5 N6 1_555 1_555
N6 C25 1_555 1_555
C17 C18 1_555 1_555
C18 H18 1_555 1_555
C19 C18 1_555 1_555
H19 C19 1_555 1_555
C20 C19 1_555 1_555
C21 C20 1_555 1_555
H20 C21 1_555 1_555
C22 C17 1_555 1_555
H21 C22 1_555 1_555
C23 N5 1_555 1_555
H22 C23 1_555 1_555
C24 C23 1_555 1_555
H23 C24 1_555 1_555
H24 C24 1_555 1_555
C25 C24 1_555 1_555
C26 N6 1_555 1_555
C27 C26 1_555 1_555
H25 C27 1_555 1_555
H26 C27 1_555 1_555
C28 N5 1_555 1_555
H27 C28 1_555 1_555
H28 C28 1_555 1_555
C29 C25 1_555 1_555
H29 C29 1_555 1_555
C30 C29 1_555 1_555
O10 C30 1_555 1_555
C31 O10 1_555 1_555
H30 C31 1_555 1_555
H31 C31 1_555 1_555
C32 C31 1_555 1_555
H32 C32 1_555 1_555
H33 C32 1_555 1_555
H34 C32 1_555 1_555
C4 C7 1_555 1_555
C5 C6 1_555 1_555
C11 C12 1_555 1_555
C20 C23 1_555 1_555
C21 C22 1_555 1_555
C27 C28 1_555 1_555

#END
