
#######################################################################
#
#                 Cambridge Crystallographic Data Centre
#                                CCDC 
#
#######################################################################
#
# If this CIF has been generated from an entry in the Cambridge 
# Structural Database, then it will include bibliographic, chemical, 
# crystal, experimental, refinement or atomic coordinate data resulting 
# from the CCDC's data processing and validation procedures.
#
#######################################################################

data_UZISAY
_chemical_formula_moiety         'C20 H23 N3 O7'
_chemical_name_systematic        
'Diethyl 8-methyl-5-(4-nitrophenyl)-1-oxo-2,3,5,6-tetrahydro-1H-pyrazolo[1,2-a]pyridazine-6,7-dicarboxylate unknown solvate'
_symmetry_cell_setting           triclinic
_symmetry_space_group_name_H-M   'P -1'
_symmetry_Int_Tables_number      2
_space_group_name_Hall           '-P 1'
loop_
_symmetry_equiv_pos_site_id
_symmetry_equiv_pos_as_xyz
1 x,y,z
2 -x,-y,-z
_cell_length_a                   10.019(2)
_cell_length_b                   11.019(2)
_cell_length_c                   12.228(2)
_cell_angle_alpha                82.353(17)
_cell_angle_beta                 80.257(15)
_cell_angle_gamma                67.002(11)
_cell_volume                     1221.4
_exptl_crystal_colour            colorless
_exptl_crystal_description       prism
_cell_formula_units_Z            2
_exptl_crystal_recrystallization_method dichloromethane/hexane
loop_
_atom_site_label
_atom_site_type_symbol
_atom_site_fract_x
_atom_site_fract_y
_atom_site_fract_z
O1 O 0.3280(3) 0.7919(2) 0.4430(2)
O2 O 0.4744(3) -0.1171(2) 0.2100(2)
O3 O 0.2425(3) -0.0441(3) 0.1982(2)
O4 O 0.0146(2) 0.3686(2) 0.6656(2)
O5 O 0.2032(2) 0.1719(2) 0.6630(2)
O6 O 0.0857(3) 0.5810(2) 0.8318(2)
O7 O 0.2191(3) 0.3626(2) 0.8283(2)
N1 N 0.3050(3) 0.5885(2) 0.4923(2)
N2 N 0.3536(3) 0.4651(2) 0.4404(2)
N3 N 0.3496(3) -0.0375(3) 0.2312(2)
C1 C 0.3391(3) 0.6844(3) 0.4200(3)
C2 C 0.3929(4) 0.6275(3) 0.3082(3)
H1 H 0.5002 0.6014 0.2907
H2 H 0.3453 0.6924 0.2487
C3 C 0.3516(4) 0.5082(3) 0.3192(3)
H3 H 0.2532 0.5321 0.2974
H4 H 0.4234 0.4380 0.2729
C4 C 0.2478(3) 0.4017(3) 0.4805(3)
H5 H 0.1472 0.4674 0.4709
C5 C 0.2576(3) 0.3633(3) 0.6053(3)
H6 H 0.3574 0.2970 0.6161
C6 C 0.2280(3) 0.4873(3) 0.6628(3)
C7 C 0.2524(3) 0.5928(3) 0.6061(3)
C8 C 0.2795(3) 0.2847(3) 0.4146(3)
C9 C 0.4111(3) 0.1751(3) 0.4128(3)
H7 H 0.4846 0.1731 0.4537
C10 C 0.4355(4) 0.0696(3) 0.3523(3)
H8 H 0.5258 -0.0042 0.3498
C11 C 0.3249(4) 0.0739(3) 0.2953(3)
C12 C 0.1929(4) 0.1807(3) 0.2950(3)
H9 H 0.1188 0.1814 0.2553
C13 C 0.1727(3) 0.2861(3) 0.3543(3)
H10 H 0.0839 0.3613 0.3540
C14 C 0.1441(3) 0.3032(3) 0.6495(3)
C15 C 0.1011(4) 0.1049(4) 0.6942(3)
H11 H 0.0182 0.1573 0.7468
H12 H 0.1509 0.0174 0.7326
C16 C 0.0448(4) 0.0869(4) 0.5953(4)
H13 H -0.0223 0.0404 0.6187
H14 H 0.1267 0.0348 0.5433
H15 H -0.0073 0.1735 0.5586
C17 C 0.1694(3) 0.4869(3) 0.7820(3)
C18 C 0.171(3) 0.3437(14) 0.9469(10)
H16 H 0.0630 0.3829 0.9618
H17 H 0.2114 0.3871 0.9912
C19 C 0.225(3) 0.1996(11) 0.9776(15)
H18 H 0.2109 0.1543 0.9192
H19 H 0.1695 0.1823 1.0481
H20 H 0.3286 0.1668 0.9859
C20 C 0.2298(4) 0.7163(3) 0.6572(3)
H21 H 0.2024 0.7059 0.7377
H22 H 0.1517 0.7908 0.6249
H23 H 0.3206 0.7331 0.6426
C21? C 0.135(3) 0.343(2) 0.9346(16)
C22? C 0.176(5) 0.198(2) 0.964(3)
H24? H 0.0287 0.3851 0.9283
H25? H 0.1554 0.3841 0.9935
H26? H 0.1564 0.1576 0.9052
H27? H 0.1175 0.1844 1.0344
H28? H 0.2797 0.1575 0.9731
loop_
_geom_bond_atom_site_label_1
_geom_bond_atom_site_label_2
_geom_bond_site_symmetry_1
_geom_bond_site_symmetry_2
O1 C1 1_555 1_555
O2 N3 1_555 1_555
O3 N3 1_555 1_555
O4 C14 1_555 1_555
O5 C14 1_555 1_555
O6 C17 1_555 1_555
O7 C17 1_555 1_555
N1 N2 1_555 1_555
N2 C3 1_555 1_555
N3 C11 1_555 1_555
C1 N1 1_555 1_555
C2 C1 1_555 1_555
H1 C2 1_555 1_555
H2 C2 1_555 1_555
C3 C2 1_555 1_555
H3 C3 1_555 1_555
H4 C3 1_555 1_555
C4 N2 1_555 1_555
H5 C4 1_555 1_555
C5 C4 1_555 1_555
H6 C5 1_555 1_555
C6 C5 1_555 1_555
C7 N1 1_555 1_555
C8 C4 1_555 1_555
C9 C8 1_555 1_555
H7 C9 1_555 1_555
C10 C9 1_555 1_555
H8 C10 1_555 1_555
C11 C10 1_555 1_555
C12 C11 1_555 1_555
H9 C12 1_555 1_555
C13 C8 1_555 1_555
H10 C13 1_555 1_555
C14 C5 1_555 1_555
C15 O5 1_555 1_555
H11 C15 1_555 1_555
H12 C15 1_555 1_555
C16 C15 1_555 1_555
H13 C16 1_555 1_555
H14 C16 1_555 1_555
H15 C16 1_555 1_555
C17 C6 1_555 1_555
C18 O7 1_555 1_555
H16 C18 1_555 1_555
H17 C18 1_555 1_555
C19 C18 1_555 1_555
H18 C19 1_555 1_555
H19 C19 1_555 1_555
H20 C19 1_555 1_555
C20 C7 1_555 1_555
H21 C20 1_555 1_555
H22 C20 1_555 1_555
H23 C20 1_555 1_555
C6 C7 1_555 1_555
C12 C13 1_555 1_555

#END
