
#######################################################################
#
#                 Cambridge Crystallographic Data Centre
#                                CCDC 
#
#######################################################################
#
# If this CIF has been generated from an entry in the Cambridge 
# Structural Database, then it will include bibliographic, chemical, 
# crystal, experimental, refinement or atomic coordinate data resulting 
# from the CCDC's data processing and validation procedures.
#
#######################################################################

data_UZISIG
_chemical_formula_moiety         'C22 H25 Br1 N2 O5'
_chemical_name_systematic        
'Diethyl 5-(4-bromophenyl)-7-methyl-1-oxo-2,3,5,6-tetrahydro-1H-pyrazolo[1,2-a][1,2]diazocine-6,8-dicarboxylate'
_symmetry_cell_setting           orthorhombic
_symmetry_space_group_name_H-M   'P c a 21'
_symmetry_Int_Tables_number      29
_space_group_name_Hall           'P 2c -2ac'
loop_
_symmetry_equiv_pos_site_id
_symmetry_equiv_pos_as_xyz
1 x,y,z
2 -x,-y,1/2+z
3 1/2+x,-y,z
4 1/2-x,y,1/2+z
_cell_length_a                   22.975(4)
_cell_length_b                   12.4694(16)
_cell_length_c                   7.5472(11)
_cell_angle_alpha                90
_cell_angle_beta                 90
_cell_angle_gamma                90
_cell_volume                     2162.16
_exptl_crystal_colour            colorless
_exptl_crystal_description       block
_cell_formula_units_Z            4
_exptl_crystal_recrystallization_method dichloromethane/methanol
loop_
_atom_site_label
_atom_site_type_symbol
_atom_site_fract_x
_atom_site_fract_y
_atom_site_fract_z
Br1 Br 0.712738(19) 0.57358(3) 0.85656(8)
O1 O 0.50991(11) 0.32658(19) 0.4543(4)
O2 O 0.47572(10) -0.20420(19) 0.5509(4)
O3 O 0.56394(11) -0.2427(2) 0.4477(4)
O4 O 0.71549(9) 0.03870(19) 0.9168(3)
O5 O 0.63564(9) -0.03589(17) 1.0383(3)
N1 N 0.61261(10) 0.11646(19) 0.4606(3)
N2 N 0.55848(11) 0.16792(19) 0.5023(3)
C1 C 0.51099(13) 0.1102(3) 0.5657(4)
H1 H 0.4762 0.1506 0.5793
C2 C 0.50670(15) 0.0068(3) 0.6106(5)
H2 H 0.4695 -0.0151 0.6516
C3 C 0.55115(13) -0.0783(2) 0.6058(4)
C4 C 0.60557(13) -0.0689(2) 0.6715(4)
C5 C 0.62352(13) 0.0368(2) 0.7565(4)
H3 H 0.5878 0.0725 0.8041
C6 C 0.65168(12) 0.1123(2) 0.6192(4)
H4 H 0.6887 0.0773 0.5800
C7 C 0.63592(13) 0.1861(2) 0.3165(4)
H5 H 0.6257 0.1559 0.1992
H6 H 0.6788 0.1911 0.3252
C8 C 0.60848(13) 0.2967(2) 0.3393(5)
H7 H 0.6338 0.3447 0.4099
H8 H 0.6004 0.3306 0.2233
C9 C 0.55318(15) 0.2713(3) 0.4365(4)
C10 C 0.52668(14) -0.1814(3) 0.5359(5)
C11 C 0.54200(19) -0.3484(3) 0.3922(8)
H9 H 0.5574 -0.3688 0.2788
H10 H 0.5003 -0.3471 0.3848
C12 C 0.5588(5) -0.4212(7) 0.5238(15)
H11 H 0.5466 -0.4936 0.4898
H12 H 0.5403 -0.4015 0.6362
H13 H 0.6012 -0.4193 0.5375
C13 C 0.65253(13) -0.1529(3) 0.6643(5)
H14 H 0.6413 -0.2091 0.5801
H15 H 0.6577 -0.1845 0.7822
H16 H 0.6891 -0.1199 0.6259
C14 C 0.66435(13) 0.0148(2) 0.9098(4)
C15 C 0.66844(14) -0.0741(2) 1.1906(4)
H17 H 0.6440 -0.0692 1.2984
H18 H 0.7032 -0.0284 1.2083
C16 C 0.68701(16) -0.1882(3) 1.1624(5)
H19 H 0.7066 -0.2146 1.2692
H20 H 0.7138 -0.1919 1.0616
H21 H 0.6527 -0.2326 1.1381
C17 C 0.66809(12) 0.2212(2) 0.6919(4)
C18 C 0.72123(12) 0.2671(3) 0.6454(4)
H22 H 0.7485 0.2266 0.5784
C19 C 0.73501(14) 0.3716(3) 0.6960(5)
H23 H 0.7716 0.4020 0.6656
C20 C 0.69465(17) 0.4299(3) 0.7908(5)
C21 C 0.64232(14) 0.3866(2) 0.8426(6)
H24 H 0.6155 0.4277 0.9100
C22 C 0.62931(14) 0.2816(3) 0.7948(4)
H25 H 0.5937 0.2504 0.8323
C23? C 0.5855(4) -0.4174(7) 0.331(2)
H26? H 0.5122 -0.3391 0.3043
H27? H 0.5247 -0.3828 0.4931
H28? H 0.6156 -0.4249 0.4224
H29? H 0.6029 -0.3879 0.2232
H30? H 0.5686 -0.4879 0.3056
loop_
_geom_bond_atom_site_label_1
_geom_bond_atom_site_label_2
_geom_bond_site_symmetry_1
_geom_bond_site_symmetry_2
Br1 C20 1_555 1_555
O1 C9 1_555 1_555
O2 C10 1_555 1_555
O3 C10 1_555 1_555
O4 C14 1_555 1_555
O5 C14 1_555 1_555
N1 N2 1_555 1_555
N2 C1 1_555 1_555
C1 H1 1_555 1_555
C2 C1 1_555 1_555
H2 C2 1_555 1_555
C3 C2 1_555 1_555
C4 C3 1_555 1_555
C5 C4 1_555 1_555
H3 C5 1_555 1_555
C6 N1 1_555 1_555
H4 C6 1_555 1_555
C7 N1 1_555 1_555
H5 C7 1_555 1_555
H6 C7 1_555 1_555
C8 C7 1_555 1_555
H7 C8 1_555 1_555
H8 C8 1_555 1_555
C9 N2 1_555 1_555
C10 C3 1_555 1_555
C11 O3 1_555 1_555
H9 C11 1_555 1_555
H10 C11 1_555 1_555
C12 C11 1_555 1_555
H11 C12 1_555 1_555
H12 C12 1_555 1_555
H13 C12 1_555 1_555
C13 C4 1_555 1_555
H14 C13 1_555 1_555
H15 C13 1_555 1_555
H16 C13 1_555 1_555
C14 C5 1_555 1_555
C15 O5 1_555 1_555
H17 C15 1_555 1_555
H18 C15 1_555 1_555
C16 C15 1_555 1_555
H19 C16 1_555 1_555
H20 C16 1_555 1_555
H21 C16 1_555 1_555
C17 C6 1_555 1_555
C18 C17 1_555 1_555
H22 C18 1_555 1_555
C19 C18 1_555 1_555
H23 C19 1_555 1_555
C20 C19 1_555 1_555
C21 C20 1_555 1_555
H24 C21 1_555 1_555
C22 C17 1_555 1_555
H25 C22 1_555 1_555
C5 C6 1_555 1_555
C8 C9 1_555 1_555
C21 C22 1_555 1_555

#END
