
#######################################################################
#
#                 Cambridge Crystallographic Data Centre
#                                CCDC 
#
#######################################################################
#
# If this CIF has been generated from an entry in the Cambridge 
# Structural Database, then it will include bibliographic, chemical, 
# crystal, experimental, refinement or atomic coordinate data resulting 
# from the CCDC's data processing and validation procedures.
#
#######################################################################

data_UZISEC
_chemical_formula_moiety         'C16 H17 N3 O5'
_chemical_name_systematic        
'Ethyl 5-(4-nitrophenyl)-1-oxo-2,3,5,6-tetrahydro-1H-pyrazolo[1,2-a]pyridazine-6-carboxylate'
_symmetry_cell_setting           triclinic
_symmetry_space_group_name_H-M   'P -1'
_symmetry_Int_Tables_number      2
_space_group_name_Hall           '-P 1'
loop_
_symmetry_equiv_pos_site_id
_symmetry_equiv_pos_as_xyz
1 x,y,z
2 -x,-y,-z
_cell_length_a                   8.3908(14)
_cell_length_b                   9.8594(15)
_cell_length_c                   10.8783(17)
_cell_angle_alpha                65.913(8)
_cell_angle_beta                 75.686(11)
_cell_angle_gamma                75.628(11)
_cell_volume                     784.959
_exptl_crystal_colour            yellow
_exptl_crystal_description       block
_cell_formula_units_Z            2
_exptl_crystal_recrystallization_method dichloromethane/hexane
loop_
_atom_site_label
_atom_site_type_symbol
_atom_site_fract_x
_atom_site_fract_y
_atom_site_fract_z
O1 O 0.63378(16) 0.79458(16) 0.76588(12)
O2 O 0.21480(17) 0.60469(15) 0.44891(13)
O3 O 0.31768(16) 0.72064(14) 0.22925(12)
O4 O 1.02090(17) 0.70705(16) -0.17352(13)
O5 O 0.93951(18) 0.94766(16) -0.23845(13)
N1 N 0.56271(17) 0.80064(16) 0.57318(13)
N2 N 0.63390(17) 0.82930(16) 0.43209(13)
N3 N 0.93857(18) 0.81947(18) -0.15244(15)
C1 C 0.56235(19) 0.74337(18) 0.38099(16)
H1 H 0.5807 0.6342 0.4407
C2 C 0.3723(2) 0.80313(18) 0.38840(16)
H2 H 0.3537 0.9065 0.3171
C3 C 0.2986(2) 0.8103(2) 0.52698(17)
H3 H 0.1813 0.8172 0.5554
C4 C 0.3914(2) 0.8072(2) 0.61078(17)
H4 H 0.3396 0.8096 0.6982
C5 C 0.6714(2) 0.79777(19) 0.64893(17)
C6 C 0.8410(2) 0.8000(2) 0.56003(18)
H5 H 0.9255 0.7194 0.6091
H6 H 0.8770 0.8985 0.5305
C7 C 0.8155(2) 0.7731(2) 0.43823(17)
H7 H 0.8847 0.8301 0.3532
H8 H 0.8442 0.6647 0.4526
C8 C 0.2907(2) 0.69912(18) 0.36130(17)
C9 C 0.2619(3) 0.6149(2) 0.1939(2)
H9 H 0.1396 0.6200 0.2220
H10 H 0.3163 0.5108 0.2416
C10 C 0.3069(4) 0.6554(3) 0.0435(2)
H11 H 0.2799 0.5797 0.0186
H12 H 0.4266 0.6589 0.0156
H13 H 0.2438 0.7544 -0.0028
C11 C 0.6544(2) 0.76297(18) 0.23837(16)
C12 C 0.7442(2) 0.63830(19) 0.20835(17)
H14 H 0.7428 0.5402 0.2768
C13 C 0.8359(2) 0.6558(2) 0.07920(17)
H15 H 0.8971 0.5709 0.0581
C14 C 0.8357(2) 0.79987(19) -0.01768(16)
C15 C 0.7457(2) 0.92575(19) 0.00772(17)
H16 H 0.7460 1.0233 -0.0617
C16 C 0.6546(2) 0.90663(19) 0.13719(17)
H17 H 0.5920 0.9919 0.1570
loop_
_geom_bond_atom_site_label_1
_geom_bond_atom_site_label_2
_geom_bond_site_symmetry_1
_geom_bond_site_symmetry_2
O1 C5 1_555 1_555
O2 C8 1_555 1_555
O3 C8 1_555 1_555
O4 N3 1_555 1_555
O5 N3 1_555 1_555
N1 N2 1_555 1_555
N2 C1 1_555 1_555
N3 C14 1_555 1_555
C1 H1 1_555 1_555
C2 C1 1_555 1_555
H2 C2 1_555 1_555
C3 C2 1_555 1_555
H3 C3 1_555 1_555
C4 N1 1_555 1_555
H4 C4 1_555 1_555
C5 N1 1_555 1_555
C6 C5 1_555 1_555
H5 C6 1_555 1_555
H6 C6 1_555 1_555
C7 N2 1_555 1_555
H7 C7 1_555 1_555
H8 C7 1_555 1_555
C8 C2 1_555 1_555
C9 O3 1_555 1_555
H9 C9 1_555 1_555
H10 C9 1_555 1_555
C10 C9 1_555 1_555
H11 C10 1_555 1_555
H12 C10 1_555 1_555
H13 C10 1_555 1_555
C11 C1 1_555 1_555
C12 C11 1_555 1_555
H14 C12 1_555 1_555
C13 C12 1_555 1_555
H15 C13 1_555 1_555
C14 C13 1_555 1_555
C15 C14 1_555 1_555
H16 C15 1_555 1_555
C16 C11 1_555 1_555
H17 C16 1_555 1_555
C3 C4 1_555 1_555
C6 C7 1_555 1_555
C15 C16 1_555 1_555

#END
