
#######################################################################
#
#                 Cambridge Crystallographic Data Centre
#                                CCDC 
#
#######################################################################
#
# If this CIF has been generated from an entry in the Cambridge 
# Structural Database, then it will include bibliographic, chemical, 
# crystal, experimental, refinement or atomic coordinate data resulting 
# from the CCDC's data processing and validation procedures.
#
#######################################################################

data_UZITAZ
_chemical_formula_moiety         'C20 H23 N3 O7'
_chemical_name_systematic        
'Diethyl 5-(4-nitrophenyl)-1-oxo-2,3,6,9-tetrahydro-1H,5H-pyrazolo[1,2-a][1,2]diazepine-6,7-dicarboxylate'
_symmetry_cell_setting           monoclinic
_symmetry_space_group_name_H-M   'P 21/c'
_symmetry_Int_Tables_number      14
_space_group_name_Hall           '-P 2ybc'
loop_
_symmetry_equiv_pos_site_id
_symmetry_equiv_pos_as_xyz
1 x,y,z
2 -x,1/2+y,1/2-z
3 -x,-y,-z
4 x,1/2-y,1/2+z
_cell_length_a                   11.759(2)
_cell_length_b                   23.045(4)
_cell_length_c                   7.7057(14)
_cell_angle_alpha                90
_cell_angle_beta                 107.406(2)
_cell_angle_gamma                90
_cell_volume                     1992.52
_exptl_crystal_colour            colorless
_exptl_crystal_description       block
_cell_formula_units_Z            4
_exptl_crystal_recrystallization_method dichloromethane/hexane
loop_
_atom_site_label
_atom_site_type_symbol
_atom_site_fract_x
_atom_site_fract_y
_atom_site_fract_z
O1 O 0.58175(9) 0.14506(4) 0.57466(15)
O2 O 0.72307(9) 0.18685(4) 0.49505(16)
O3 O 0.16915(9) 0.54083(4) 0.63533(14)
O4 O 0.35800(8) 0.51798(4) 0.31671(14)
O5 O 0.18580(8) 0.48983(4) 0.11530(13)
O6 O 0.23618(9) 0.34289(4) -0.01503(14)
O7 O 0.07955(8) 0.30657(4) 0.05813(12)
N1 N 0.62905(10) 0.18823(4) 0.53335(15)
N2 N 0.32236(9) 0.41089(4) 0.62401(14)
N3 N 0.22539(9) 0.45084(4) 0.56379(14)
C1 C 0.56941(11) 0.24474(5) 0.52912(17)
C2 C 0.45710(12) 0.24576(5) 0.55033(19)
H1 H 0.4195 0.2109 0.5702
C3 C 0.40029(11) 0.29893(5) 0.54198(19)
H2 H 0.3232 0.3006 0.5576
C4 C 0.45488(11) 0.35007(5) 0.51095(16)
C5 C 0.56945(11) 0.34747(5) 0.49433(18)
H3 H 0.6081 0.3822 0.4771
C6 C 0.62808(11) 0.29460(5) 0.50258(18)
H4 H 0.7060 0.2927 0.4904
C7 C 0.39015(10) 0.40790(5) 0.48874(16)
H5 H 0.4507 0.4397 0.5155
C8 C 0.39626(12) 0.43695(5) 0.79831(17)
H6 H 0.4819 0.4288 0.8182
H7 H 0.3728 0.4214 0.9023
C9 C 0.37149(11) 0.50206(5) 0.77659(18)
H8 H 0.3785 0.5208 0.8950
H9 H 0.4260 0.5215 0.7189
C10 C 0.24426(12) 0.50287(5) 0.65376(17)
C11 C 0.10949(11) 0.42502(6) 0.48324(19)
H10 H 0.0496 0.4562 0.4421
H11 H 0.0874 0.4019 0.5766
C12 C 0.10682(11) 0.38678(5) 0.32559(17)
H12 H 0.0370 0.3641 0.2776
C13 C 0.19207(10) 0.38110(5) 0.24494(16)
C14 C 0.30707(10) 0.41584(5) 0.29312(16)
H13 H 0.3527 0.4008 0.2119
C15 C 0.28694(11) 0.48046(5) 0.24753(17)
C16 C 0.15815(13) 0.55032(5) 0.06043(19)
H14 H 0.1084 0.5518 -0.0683
H15 H 0.2329 0.5718 0.0714
C17 C 0.09278(15) 0.57839(6) 0.1785(2)
H16 H 0.0180 0.5576 0.1655
H17 H 0.0753 0.6189 0.1413
H18 H 0.1423 0.5770 0.3057
C18 C 0.17346(11) 0.34230(5) 0.08407(16)
C19 C 0.05405(12) 0.27092(5) -0.10513(18)
H19 H 0.1172 0.2414 -0.0920
H20 H 0.0509 0.2954 -0.2121
C20 C -0.06418(12) 0.24200(6) -0.12965(19)
H21 H -0.0582 0.2155 -0.0278
H22 H -0.0868 0.2201 -0.2439
H23 H -0.1248 0.2715 -0.1332
loop_
_geom_bond_atom_site_label_1
_geom_bond_atom_site_label_2
_geom_bond_site_symmetry_1
_geom_bond_site_symmetry_2
O1 N1 1_555 1_555
O2 N1 1_555 1_555
O3 C10 1_555 1_555
O4 C15 1_555 1_555
O5 C15 1_555 1_555
O6 C18 1_555 1_555
O7 C18 1_555 1_555
N1 C1 1_555 1_555
N2 N3 1_555 1_555
N3 C10 1_555 1_555
C1 C2 1_555 1_555
C2 H1 1_555 1_555
C3 C2 1_555 1_555
H2 C3 1_555 1_555
C4 C3 1_555 1_555
C5 C4 1_555 1_555
H3 C5 1_555 1_555
C6 C1 1_555 1_555
H4 C6 1_555 1_555
C7 N2 1_555 1_555
H5 C7 1_555 1_555
C8 N2 1_555 1_555
H6 C8 1_555 1_555
H7 C8 1_555 1_555
C9 C8 1_555 1_555
H8 C9 1_555 1_555
H9 C9 1_555 1_555
C10 C9 1_555 1_555
C11 N3 1_555 1_555
H10 C11 1_555 1_555
H11 C11 1_555 1_555
C12 C11 1_555 1_555
H12 C12 1_555 1_555
C13 C12 1_555 1_555
C14 C7 1_555 1_555
H13 C14 1_555 1_555
C15 C14 1_555 1_555
C16 O5 1_555 1_555
H14 C16 1_555 1_555
H15 C16 1_555 1_555
C17 C16 1_555 1_555
H16 C17 1_555 1_555
H17 C17 1_555 1_555
H18 C17 1_555 1_555
C18 C13 1_555 1_555
C19 O7 1_555 1_555
H19 C19 1_555 1_555
H20 C19 1_555 1_555
C20 C19 1_555 1_555
H21 C20 1_555 1_555
H22 C20 1_555 1_555
H23 C20 1_555 1_555
C4 C7 1_555 1_555
C5 C6 1_555 1_555
C13 C14 1_555 1_555

#END
