
#######################################################################
#
#                 Cambridge Crystallographic Data Centre
#                                CCDC 
#
#######################################################################
#
# If this CIF has been generated from an entry in the Cambridge 
# Structural Database, then it will include bibliographic, chemical, 
# crystal, experimental, refinement or atomic coordinate data resulting 
# from the CCDC's data processing and validation procedures.
#
#######################################################################

data_UZIWOQ
_chemical_formula_moiety         'C12 H24 O6,C7 H10 N1 O1 1+,B1 F4 1-'
_chemical_name_systematic        
'4-Methoxyanilinium tetrafluoroborate 1,4,7,10,13,16-hexaoxacyclooctadecane'
_symmetry_cell_setting           orthorhombic
_symmetry_space_group_name_H-M   'P n a 21'
_symmetry_Int_Tables_number      33
_space_group_name_Hall           'P 2c -2n'
loop_
_symmetry_equiv_pos_site_id
_symmetry_equiv_pos_as_xyz
1 x,y,z
2 -x,-y,1/2+z
3 1/2+x,1/2-y,z
4 1/2-x,1/2+y,1/2+z
_cell_length_a                   15.913(3)
_cell_length_b                   12.505(3)
_cell_length_c                   11.285(2)
_cell_angle_alpha                90
_cell_angle_beta                 90
_cell_angle_gamma                90
_cell_volume                     2245.63
_cell_formula_units_Z            4
loop_
_atom_site_label
_atom_site_type_symbol
_atom_site_fract_x
_atom_site_fract_y
_atom_site_fract_z
F1 F 0.38051(6) 0.76143(8) 0.26010(8)
F2 F 0.37667(7) 0.76548(9) 0.46213(9)
F3 F 0.47820(5) 0.66834(6) 0.36729(10)
F4 F 0.34192(5) 0.61244(6) 0.36401(10)
B1 B 0.39391(9) 0.70227(11) 0.36360(18)
O1 O 0.29669(7) 0.08936(9) 0.15930(9)
O2 O 0.45823(5) 0.34484(6) 0.36702(11)
O3 O 0.39212(7) 0.28032(8) 0.58608(9)
O4 O 0.39650(7) 0.27780(9) 0.14462(9)
O5 O 0.29116(7) 0.09561(9) 0.57364(9)
O6 O 0.20794(6) 0.03099(7) 0.36420(11)
C1 C 0.20949(10) -0.03465(13) 0.26099(14)
H1 H 0.1572 -0.0772 0.2562
H2 H 0.2576 -0.0846 0.2650
C2 C 0.21741(10) 0.03534(13) 0.15341(15)
H3 H 0.2144 -0.0086 0.0806
H4 H 0.1710 0.0881 0.1515
C3 C 0.47109(10) 0.33322(13) 0.57646(14)
H5 H 0.5165 0.2800 0.5657
H6 H 0.4827 0.3742 0.6497
C4 C 0.47038(10) 0.40585(12) 0.26131(14)
H10 H 0.5228 0.4481 0.2673
H11 H 0.4229 0.4559 0.2500
C5 C 0.31861(11) 0.13894(13) 0.04914(13)
H12 H 0.2762 0.1935 0.0278
H13 H 0.3206 0.0847 -0.0147
C6 C 0.39377(10) 0.19943(13) 0.67567(13)
H14 H 0.4092 0.2313 0.7529
H15 H 0.4360 0.1443 0.6554
C7 C 0.47563(10) 0.33075(13) 0.15901(13)
H16 H 0.4898 0.3708 0.0860
H17 H 0.5204 0.2773 0.1733
C8 C 0.46838(10) 0.40793(13) 0.47153(13)
H18 H 0.4209 0.4585 0.4797
H19 H 0.5211 0.4497 0.4669
C10 C 0.21132(10) 0.04267(13) 0.57483(14)
H21 H 0.1655 0.0960 0.5704
H22 H 0.2047 0.0016 0.6492
C12 C 0.20685(10) -0.03144(13) 0.47015(14)
H23 H 0.2554 -0.0810 0.4710
H24 H 0.1546 -0.0744 0.4738
C13 C 0.30826(10) 0.14984(13) 0.68333(13)
H25 H 0.3063 0.0984 0.7500
H26 H 0.2654 0.2058 0.6974
C17 C 0.40306(10) 0.19020(13) 0.06342(14)
H29 H 0.4439 0.1371 0.0938
H30 H 0.4234 0.2163 -0.0143
N1 N 0.80240(6) 0.27203(8) 0.36574(13)
H7 H 0.8483 0.2291 0.3726
H8 H 0.7976 0.3135 0.4317
H9 H 0.8081 0.3146 0.3008
O7 O 0.51024(7) 0.03121(9) 0.29419(11)
C9 C 0.70249(9) 0.17534(12) 0.23890(13)
H20 H 0.7356 0.1953 0.1724
C11 C 0.58179(9) 0.08774(11) 0.32109(14)
C14 C 0.63016(10) 0.11633(11) 0.22350(13)
H27 H 0.6133 0.0952 0.1462
C15 C 0.72676(8) 0.20566(9) 0.35310(15)
C16 C 0.67980(9) 0.17659(12) 0.44997(14)
H28 H 0.6971 0.1973 0.5272
C18 C 0.60625(10) 0.11630(12) 0.43474(14)
H31 H 0.5737 0.0953 0.5013
C19 C 0.45222(10) 0.01068(13) 0.38736(15)
H32 H 0.4012 -0.0217 0.3546
H33 H 0.4378 0.0780 0.4269
H34 H 0.4777 -0.0384 0.4448
loop_
_geom_bond_atom_site_label_1
_geom_bond_atom_site_label_2
_geom_bond_site_symmetry_1
_geom_bond_site_symmetry_2
F1 B1 1_555 1_555
F2 B1 1_555 1_555
F3 B1 1_555 1_555
F4 B1 1_555 1_555
O1 C2 1_555 1_555
O2 C4 1_555 1_555
O3 C3 1_555 1_555
O4 C7 1_555 1_555
O5 C10 1_555 1_555
O6 C1 1_555 1_555
C1 H1 1_555 1_555
H2 C1 1_555 1_555
C2 C1 1_555 1_555
H3 C2 1_555 1_555
H4 C2 1_555 1_555
C3 H5 1_555 1_555
H6 C3 1_555 1_555
N1 H7 1_555 1_555
H8 N1 1_555 1_555
H9 N1 1_555 1_555
C4 H10 1_555 1_555
H11 C4 1_555 1_555
C5 O1 1_555 1_555
H12 C5 1_555 1_555
H13 C5 1_555 1_555
C6 O3 1_555 1_555
H14 C6 1_555 1_555
H15 C6 1_555 1_555
C7 C4 1_555 1_555
H16 C7 1_555 1_555
H17 C7 1_555 1_555
O7 C11 1_555 1_555
C8 O2 1_555 1_555
H18 C8 1_555 1_555
H19 C8 1_555 1_555
C9 H20 1_555 1_555
C10 H21 1_555 1_555
H22 C10 1_555 1_555
C11 C14 1_555 1_555
C12 O6 1_555 1_555
H23 C12 1_555 1_555
H24 C12 1_555 1_555
C13 O5 1_555 1_555
H25 C13 1_555 1_555
H26 C13 1_555 1_555
C14 C9 1_555 1_555
H27 C14 1_555 1_555
C15 N1 1_555 1_555
C16 C15 1_555 1_555
H28 C16 1_555 1_555
C17 O4 1_555 1_555
H29 C17 1_555 1_555
H30 C17 1_555 1_555
C18 C11 1_555 1_555
H31 C18 1_555 1_555
C19 O7 1_555 1_555
H32 C19 1_555 1_555
H33 C19 1_555 1_555
H34 C19 1_555 1_555
C3 C8 1_555 1_555
C5 C17 1_555 1_555
C6 C13 1_555 1_555
C9 C15 1_555 1_555
C10 C12 1_555 1_555
C16 C18 1_555 1_555

#END
