
#######################################################################
#
#                 Cambridge Crystallographic Data Centre
#                                CCDC 
#
#######################################################################
#
# If this CIF has been generated from an entry in the Cambridge 
# Structural Database, then it will include bibliographic, chemical, 
# crystal, experimental, refinement or atomic coordinate data resulting 
# from the CCDC's data processing and validation procedures.
#
#######################################################################

data_UZOGUM
_chemical_formula_moiety         'C18 H17 F1 N2 O5 S1,C3 H6 O1'
_chemical_name_systematic        
"(3R,4'R,5'R)-Ethyl 7''-fluoro-1''-methyl-2,2''-dioxo-5'-thioxo-1'',2'',4,5-tetrahydrodispiro[furan-3,2'-pyrrolidine-4',3''-indole]-3'-carboxylate acetone solvate"
_symmetry_cell_setting           monoclinic
_symmetry_space_group_name_H-M   'P 21'
_symmetry_Int_Tables_number      4
_space_group_name_Hall           'P 2yb'
loop_
_symmetry_equiv_pos_site_id
_symmetry_equiv_pos_as_xyz
1 x,y,z
2 -x,1/2+y,-z
_cell_length_a                   9.063(9)
_cell_length_b                   6.622(7)
_cell_length_c                   18.427(19)
_cell_angle_alpha                90
_cell_angle_beta                 95.824(11)
_cell_angle_gamma                90
_cell_volume                     1100.19
_exptl_crystal_colour            colorless
_exptl_crystal_description       block
_cell_formula_units_Z            2
loop_
_atom_site_label
_atom_site_type_symbol
_atom_site_fract_x
_atom_site_fract_y
_atom_site_fract_z
C1 C 0.8393(4) 0.8839(5) 0.84677(18)
C2 C 0.9123(4) 1.0647(6) 0.86029(18)
H1 H 0.9626 1.1257 0.8246
C3 C 0.9091(4) 1.1540(7) 0.9281(2)
H2 H 0.9576 1.2762 0.9379
C4 C 0.8350(5) 1.0643(8) 0.9811(2)
H3 H 0.8347 1.1246 1.0266
C5 C 0.7610(5) 0.8838(7) 0.9663(2)
C6 C 0.7642(4) 0.7919(6) 0.90050(19)
C7 C 0.7334(4) 0.5694(7) 0.8044(2)
C8 C 0.8275(4) 0.7487(6) 0.78040(18)
C9 C 0.7571(4) 0.8303(6) 0.70639(16)
H4 H 0.7193 0.7098 0.6798
C10 C 0.8890(4) 0.9003(6) 0.66551(18)
C11 C 0.9338(4) 1.1232(6) 0.66642(19)
H5 H 0.8551 1.2076 0.6816
H6 H 1.0230 1.1453 0.6992
C12 C 0.9611(5) 1.1684(7) 0.5882(2)
H7 H 0.9147 1.2953 0.5726
H8 H 1.0666 1.1785 0.5840
C13 C 0.8589(4) 0.8522(7) 0.5837(2)
C14 C 0.9811(4) 0.6818(5) 0.76070(19)
C15 C 0.5961(4) 0.4837(7) 0.9100(2)
H9 H 0.5046 0.5560 0.9112
H10 H 0.6365 0.4526 0.9589
H11 H 0.5781 0.3607 0.8830
C16 C 0.6263(4) 0.9704(6) 0.7031(2)
C17 C 0.4179(4) 1.0684(7) 0.76223(19)
H12 H 0.3477 1.0430 0.7199
H13 H 0.4445 1.2104 0.7629
C18 C 0.3522(4) 1.0118(8) 0.8310(2)
H14 H 0.3105 0.8787 0.8259
H15 H 0.2759 1.1065 0.8398
H16 H 0.4283 1.0138 0.8712
N1 N 0.7020(3) 0.6090(5) 0.87458(17)
N2 N 1.0086(3) 0.7670(5) 0.69849(14)
F1 F 0.6894(3) 0.7970(4) 1.02009(11)
O1 O 0.6889(3) 0.4293(4) 0.76692(15)
O2 O 0.8082(3) 0.6980(5) 0.55814(15)
O3 O 0.8977(3) 1.0050(5) 0.54392(12)
O4 O 0.5930(3) 1.0799(4) 0.65246(13)
O5 O 0.5503(3) 0.9420(4) 0.76004(13)
S1 S 1.09636(11) 0.53136(17) 0.81051(5)
C19 C 0.3592(5) 0.4932(7) 0.6191(2)
H17 H 0.3030 0.4695 0.6597
H18 H 0.4632 0.4857 0.6351
H19 H 0.3344 0.3929 0.5823
C20 C 0.3237(5) 0.6958(7) 0.5886(2)
C21 C 0.4062(4) 0.7640(7) 0.52656(19)
H20 H 0.3924 0.6675 0.4876
H21 H 0.5099 0.7750 0.5428
H22 H 0.3692 0.8931 0.5095
O6 O 0.2316(3) 0.8008(5) 0.61193(14)
loop_
_geom_bond_atom_site_label_1
_geom_bond_atom_site_label_2
_geom_bond_site_symmetry_1
_geom_bond_site_symmetry_2
C1 C2 1_555 1_555
C2 H1 1_555 1_555
C3 C2 1_555 1_555
H2 C3 1_555 1_555
C4 C3 1_555 1_555
H3 C4 1_555 1_555
C5 C4 1_555 1_555
C6 C1 1_555 1_555
C7 C8 1_555 1_555
C8 C1 1_555 1_555
C9 C8 1_555 1_555
H4 C9 1_555 1_555
C10 C9 1_555 1_555
C11 C10 1_555 1_555
H5 C11 1_555 1_555
H6 C11 1_555 1_555
C12 C11 1_555 1_555
H7 C12 1_555 1_555
H8 C12 1_555 1_555
C13 C10 1_555 1_555
C14 C8 1_555 1_555
C15 H9 1_555 1_555
H10 C15 1_555 1_555
H11 C15 1_555 1_555
C16 C9 1_555 1_555
C17 H12 1_555 1_555
H13 C17 1_555 1_555
C18 C17 1_555 1_555
H14 C18 1_555 1_555
H15 C18 1_555 1_555
H16 C18 1_555 1_555
C19 H17 1_555 1_555
H18 C19 1_555 1_555
H19 C19 1_555 1_555
C20 C19 1_555 1_555
C21 C20 1_555 1_555
H20 C21 1_555 1_555
H21 C21 1_555 1_555
H22 C21 1_555 1_555
N1 C6 1_555 1_555
N2 C10 1_555 1_555
F1 C5 1_555 1_555
O1 C7 1_555 1_555
O2 C13 1_555 1_555
O3 C12 1_555 1_555
O4 C16 1_555 1_555
O5 C16 1_555 1_555
O6 C20 1_555 1_555
S1 C14 1_555 1_555
C5 C6 1_555 1_555
C7 N1 1_555 1_555
C13 O3 1_555 1_555
C14 N2 1_555 1_555
C15 N1 1_555 1_555
C17 O5 1_555 1_555

#END
