
#######################################################################
#
#                 Cambridge Crystallographic Data Centre
#                                CCDC 
#
#######################################################################
#
# If this CIF has been generated from an entry in the Cambridge 
# Structural Database, then it will include bibliographic, chemical, 
# crystal, experimental, refinement or atomic coordinate data resulting 
# from the CCDC's data processing and validation procedures.
#
#######################################################################

data_UZOKAX01
_chemical_compound_source        
'Meconopsis simplicifolia (D. Don) Walpers (local name: ud-pel-sngon-po)'
_chemical_name_common            6-methoxydihydrosanguinarine
_chemical_formula_moiety         'C21 H17 N1 O5'
_chemical_name_systematic        
rac-14-methoxy-13-methyl-13,14-dihydro[1,3]benzodioxolo[5,6-c][1,3]dioxolo[4,5-i]phenanthridine
_chemical_properties_biological  
'antiplasmodial activity with no cytotoxicity against mammalian cells.'
_symmetry_cell_setting           monoclinic
_symmetry_space_group_name_H-M   'P 21/n'
_symmetry_Int_Tables_number      14
_space_group_name_Hall           '-P 2yn'
loop_
_symmetry_equiv_pos_site_id
_symmetry_equiv_pos_as_xyz
1 x,y,z
2 1/2-x,1/2+y,1/2-z
3 -x,-y,-z
4 1/2+x,1/2-y,1/2+z
_cell_length_a                   12.3894(3)
_cell_length_b                   7.7519(1)
_cell_length_c                   18.2571(4)
_cell_angle_alpha                90
_cell_angle_beta                 103.7510(11)
_cell_angle_gamma                90
_cell_volume                     1703.18
_exptl_crystal_colour            'pale brown'
_exptl_crystal_description       plate
_cell_formula_units_Z            4
loop_
_atom_site_label
_atom_site_type_symbol
_atom_site_fract_x
_atom_site_fract_y
_atom_site_fract_z
C1 C 0.35962(11) 0.0721(2) 0.73269(9)
N1 N 0.44683(8) 0.20388(14) 0.74719(6)
C2 C 0.54718(10) 0.15087(16) 0.79929(7)
C3 C 0.55216(10) 0.16662(16) 0.87762(7)
C4 C 0.46319(11) 0.24035(17) 0.90469(8)
C5 C 0.47758(12) 0.25640(18) 0.98015(8)
O1 O 0.40506(9) 0.32543(16) 1.01840(6)
C6 C 0.45695(14) 0.3092(2) 1.09688(8)
O2 O 0.56554(10) 0.23863(16) 1.10388(6)
C7 C 0.57444(12) 0.20307(18) 1.03184(8)
C8 C 0.66028(12) 0.13053(18) 1.00945(8)
C9 C 0.65094(11) 0.11149(16) 0.93037(7)
C10 C 0.73920(11) 0.04462(17) 0.90259(8)
C11 C 0.73413(11) 0.03685(17) 0.82734(8)
C12 C 0.63755(10) 0.09130(16) 0.77362(7)
C13 C 0.63274(10) 0.09340(16) 0.69213(7)
C14 C 0.71003(12) 0.00874(17) 0.66012(8)
C15 C 0.70716(12) 0.02105(18) 0.58338(8)
C16 C 0.62546(12) 0.12198(17) 0.54021(8)
O3 O 0.60546(9) 0.15721(15) 0.46434(6)
C17 C 0.51385(13) 0.27316(19) 0.44888(8)
O4 O 0.47410(8) 0.29406(13) 0.51596(5)
C18 C 0.54747(10) 0.20395(16) 0.57087(7)
C19 C 0.54775(10) 0.19286(16) 0.64585(7)
C20 C 0.46396(10) 0.28414(17) 0.67933(7)
O5 O 0.50308(8) 0.45629(12) 0.69455(5)
C21 C 0.42274(15) 0.5679(2) 0.71383(9)
H1 H 0.2893 0.1250 0.7068
H2 H 0.3514 0.0224 0.7810
H3 H 0.3765 -0.0215 0.6993
H4 H 0.3976 0.2787 0.8704
H5 H 0.4624 0.4264 1.1218
H6 H 0.4126 0.2293 1.1207
H7 H 0.7263 0.0927 1.0448
H8 H 0.8066 0.0076 0.9388
H9 H 0.7988 -0.0026 0.8096
H10 H 0.7672 -0.0570 0.6919
H11 H 0.7602 -0.0386 0.5609
H12 H 0.5380 0.3852 0.4331
H13 H 0.4526 0.2277 0.4068
H14 H 0.3899 0.2881 0.6402
H15 H 0.4607 0.6842 0.7256
H16 H 0.3996 0.5231 0.7591
H17 H 0.3570 0.5811 0.6708
loop_
_geom_bond_atom_site_label_1
_geom_bond_atom_site_label_2
_geom_bond_site_symmetry_1
_geom_bond_site_symmetry_2
C1 N1 1_555 1_555
N1 C2 1_555 1_555
C2 C3 1_555 1_555
C3 C4 1_555 1_555
C4 C5 1_555 1_555
C5 O1 1_555 1_555
O1 C6 1_555 1_555
C6 O2 1_555 1_555
O2 C7 1_555 1_555
C7 C5 1_555 1_555
C8 C7 1_555 1_555
C9 C3 1_555 1_555
C10 C9 1_555 1_555
C11 C10 1_555 1_555
C12 C2 1_555 1_555
C13 C12 1_555 1_555
C14 C13 1_555 1_555
C15 C14 1_555 1_555
C16 C15 1_555 1_555
O3 C16 1_555 1_555
C17 O3 1_555 1_555
O4 C17 1_555 1_555
C18 C16 1_555 1_555
C19 C13 1_555 1_555
C20 N1 1_555 1_555
O5 C20 1_555 1_555
C21 O5 1_555 1_555
H1 C1 1_555 1_555
H2 C1 1_555 1_555
H3 C1 1_555 1_555
H4 C4 1_555 1_555
H5 C6 1_555 1_555
H6 C6 1_555 1_555
H7 C8 1_555 1_555
H8 C10 1_555 1_555
H9 C11 1_555 1_555
H10 C14 1_555 1_555
H11 C15 1_555 1_555
H12 C17 1_555 1_555
H13 C17 1_555 1_555
H14 C20 1_555 1_555
H15 C21 1_555 1_555
H16 C21 1_555 1_555
H17 C21 1_555 1_555
C8 C9 1_555 1_555
C11 C12 1_555 1_555
O4 C18 1_555 1_555
C18 C19 1_555 1_555
C19 C20 1_555 1_555

#END
