
#######################################################################
#
#                 Cambridge Crystallographic Data Centre
#                                CCDC 
#
#######################################################################
#
# If this CIF has been generated from an entry in the Cambridge 
# Structural Database, then it will include bibliographic, chemical, 
# crystal, experimental, refinement or atomic coordinate data resulting 
# from the CCDC's data processing and validation procedures.
#
#######################################################################

data_UZOKAX
_chemical_name_common            6-methoxydihydrosanguinarine
_chemical_formula_moiety         'C21 H17 N1 O5'
_chemical_name_systematic        
(rac)-14-methoxy-13-methyl-13,14-dihydro[1,3]benzodioxolo[5,6-c][1,3]dioxolo[4,5-i]phenanthridine
_symmetry_cell_setting           monoclinic
_symmetry_space_group_name_H-M   'P 21/c'
_symmetry_Int_Tables_number      14
_space_group_name_Hall           '-P 2ybc'
loop_
_symmetry_equiv_pos_site_id
_symmetry_equiv_pos_as_xyz
1 x,y,z
2 -x,1/2+y,1/2-z
3 -x,-y,-z
4 x,1/2-y,1/2+z
_cell_length_a                   12.3648(3)
_cell_length_b                   7.7330(2)
_cell_length_c                   19.4502(4)
_cell_angle_alpha                90
_cell_angle_beta                 114.4400(10)
_cell_angle_gamma                90
_cell_volume                     1693.13
_exptl_crystal_colour            white
_exptl_crystal_description       block
_cell_formula_units_Z            4
loop_
_atom_site_label
_atom_site_type_symbol
_atom_site_fract_x
_atom_site_fract_y
_atom_site_fract_z
O1 O 0.46107(11) 0.76000(17) 0.39540(6)
O2 O 0.38595(11) 0.67331(17) 0.48098(6)
O3 O 0.95797(10) 0.70640(15) 0.98404(5)
O4 O 1.14137(10) 0.84383(16) 1.03592(6)
O5 O 0.80877(9) 0.54343(13) 0.80514(6)
N1 N 0.69893(11) 0.79660(16) 0.75237(6)
C1 C 0.65017(15) 0.8694(2) 0.48986(8)
H1 H 0.6785 0.9057 0.4548
C2 C 0.54191(15) 0.7963(2) 0.46755(8)
C3 C 0.49652(14) 0.7433(2) 0.51916(8)
C4 C 0.55790(13) 0.75983(19) 0.59506(8)
H2 H 0.5257 0.7243 0.6283
C5 C 0.67375(13) 0.83387(18) 0.62179(8)
C6 C 0.74753(13) 0.85031(18) 0.70042(8)
C7 C 0.78443(13) 0.71580(19) 0.82031(8)
H3 H 0.7509 0.7122 0.8580
C8 C 0.90157(13) 0.80804(18) 0.85382(8)
C9 C 0.97670(13) 0.79686(18) 0.92929(8)
C10 C 1.08548(14) 0.87935(19) 0.95967(8)
C11 C 1.12418(14) 0.9808(2) 0.91683(9)
H4 H 1.1964 1.0390 0.9379
C12 C 1.04985(14) 0.99301(19) 0.83965(9)
H5 H 1.0740 1.0598 0.8088
C13 C 0.94065(13) 0.90776(18) 0.80786(8)
C14 C 0.86342(13) 0.91016(18) 0.72580(8)
C15 C 0.90650(14) 0.96426(19) 0.67245(9)
H6 H 0.9838 1.0057 0.6890
C16 C 0.83599(14) 0.9564(2) 0.59674(8)
H7 H 0.8654 0.9964 0.5627
C17 C 0.72006(14) 0.88930(19) 0.56912(8)
C18 C 0.35919(16) 0.6900(2) 0.40218(8)
H8 H 0.3398 0.5778 0.3778
H9 H 0.2915 0.7660 0.3780
C19 C 1.06568(14) 0.7264(2) 1.05124(8)
H10 H 1.0476 0.7704 1.0920
H11 H 1.1049 0.6153 1.0665
C20 C 0.62617(15) 0.9282(2) 0.76701(9)
H12 H 0.6766 1.0170 0.7986
H13 H 0.5817 0.8760 0.7920
H14 H 0.5724 0.9779 0.7201
C21 C 0.70942(16) 0.4313(2) 0.78597(9)
H15 H 0.6891 0.4203 0.8284
H16 H 0.7290 0.3195 0.7729
H17 H 0.6431 0.4782 0.7437
loop_
_geom_bond_atom_site_label_1
_geom_bond_atom_site_label_2
_geom_bond_site_symmetry_1
_geom_bond_site_symmetry_2
O1 C2 1_555 1_555
O2 C3 1_555 1_555
O3 C9 1_555 1_555
O4 C10 1_555 1_555
O5 C7 1_555 1_555
N1 C6 1_555 1_555
C1 H1 1_555 1_555
C2 C1 1_555 1_555
C3 C2 1_555 1_555
C4 C3 1_555 1_555
H2 C4 1_555 1_555
C5 C4 1_555 1_555
C6 C5 1_555 1_555
C7 N1 1_555 1_555
H3 C7 1_555 1_555
C8 C7 1_555 1_555
C9 C8 1_555 1_555
C10 C9 1_555 1_555
C11 C10 1_555 1_555
H4 C11 1_555 1_555
C12 C11 1_555 1_555
H5 C12 1_555 1_555
C13 C8 1_555 1_555
C14 C6 1_555 1_555
C15 C14 1_555 1_555
H6 C15 1_555 1_555
C16 C15 1_555 1_555
H7 C16 1_555 1_555
C17 C1 1_555 1_555
C18 O1 1_555 1_555
H8 C18 1_555 1_555
H9 C18 1_555 1_555
C19 O3 1_555 1_555
H10 C19 1_555 1_555
H11 C19 1_555 1_555
C20 N1 1_555 1_555
H12 C20 1_555 1_555
H13 C20 1_555 1_555
H14 C20 1_555 1_555
C21 O5 1_555 1_555
H15 C21 1_555 1_555
H16 C21 1_555 1_555
H17 C21 1_555 1_555
O2 C18 1_555 1_555
O4 C19 1_555 1_555
C5 C17 1_555 1_555
C12 C13 1_555 1_555
C13 C14 1_555 1_555
C16 C17 1_555 1_555

#END
