
#######################################################################
#
#                 Cambridge Crystallographic Data Centre
#                                CCDC 
#
#######################################################################
#
# If this CIF has been generated from an entry in the Cambridge 
# Structural Database, then it will include bibliographic, chemical, 
# crystal, experimental, refinement or atomic coordinate data resulting 
# from the CCDC's data processing and validation procedures.
#
#######################################################################

data_UZOWEM03
_chemical_formula_moiety         'C6 H3 Cl3 O1'
_chemical_name_systematic        3,4,5-trichlorophenol
_symmetry_cell_setting           triclinic
_symmetry_space_group_name_H-M   'P -1'
_symmetry_Int_Tables_number      2
_space_group_name_Hall           '-P 1'
loop_
_symmetry_equiv_pos_site_id
_symmetry_equiv_pos_as_xyz
1 x,y,z
2 -x,-y,-z
_cell_length_a                   7.168(3)
_cell_length_b                   14.836(7)
_cell_length_c                   15.473(8)
_cell_angle_alpha                66.562(10)
_cell_angle_beta                 81.888(16)
_cell_angle_gamma                80.459(17)
_cell_volume                     1483.67
_exptl_crystal_colour            colorless
_exptl_crystal_description       block
_cell_formula_units_Z            8
loop_
_atom_site_label
_atom_site_type_symbol
_atom_site_fract_x
_atom_site_fract_y
_atom_site_fract_z
Cl1 Cl 0.05379(12) 0.01107(6) 0.13487(6)
Cl4 Cl 0.06137(12) -0.11787(7) 0.35260(6)
Cl5 Cl 0.23147(13) -0.34251(7) 0.41587(5)
O4 O 0.3058(4) -0.30122(17) 0.07442(16)
H4 H 0.2992 -0.2601 0.0202
C1 C 0.1857(4) -0.1562(2) 0.1075(2)
H5 H 0.1772 -0.1176 0.0436
C2 C 0.2680(4) -0.3131(2) 0.2318(2)
H6 H 0.3157 -0.3798 0.2513
C5 C 0.2106(4) -0.2698(2) 0.29736(19)
C11 C 0.1307(4) -0.1141(2) 0.1741(2)
C12 C 0.2532(4) -0.2555(2) 0.1365(2)
C23 C 0.1397(4) -0.1706(2) 0.2705(2)
Cl2 Cl 0.40783(12) -0.40417(6) 0.63317(6)
Cl3 Cl 0.34614(14) -0.17066(7) 0.54407(5)
Cl6 Cl 0.39212(16) -0.51082(6) 0.85424(6)
O1 O 0.2912(4) -0.17892(16) 0.87889(16)
H1 H 0.2897 -0.1194 0.8476
C3 C 0.3669(4) -0.3363(2) 0.70419(19)
C7 C 0.3134(4) -0.1793(2) 0.7219(2)
H9 H 0.2941 -0.1105 0.6951
C9 C 0.3422(4) -0.2338(2) 0.66521(19)
C14 C 0.3140(4) -0.2291(2) 0.8191(2)
C17 C 0.3349(4) -0.3303(2) 0.8597(2)
H12 H 0.3311 -0.3628 0.9250
C24 C 0.3619(4) -0.3837(2) 0.8022(2)
Cl7 Cl -0.22080(15) -0.24876(8) 0.06935(6)
Cl8 Cl -0.46916(13) -0.05173(6) 0.30103(7)
Cl10 Cl -0.39018(14) -0.04992(7) 0.09554(6)
O3 O -0.2162(3) -0.41292(15) 0.42727(14)
H3 H -0.1492 -0.4554 0.4117
C4 C -0.3341(4) -0.2441(2) 0.3613(2)
H7 H -0.3592 -0.2441 0.4219
C8 C -0.2646(4) -0.2449(2) 0.1806(2)
C10 C -0.2561(4) -0.3297(2) 0.3480(2)
C13 C -0.2227(4) -0.3312(2) 0.2579(2)
H10 H -0.1729 -0.3895 0.2497
C16 C -0.3396(4) -0.1571(2) 0.1917(2)
C20 C -0.3743(4) -0.1587(2) 0.2834(2)
Cl9 Cl -0.18365(15) -0.09768(6) 0.58320(7)
Cl11 Cl -0.16345(15) -0.41239(8) 0.91734(6)
Cl12 Cl -0.20629(13) -0.18141(7) 0.80552(7)
O2 O -0.0819(3) -0.45440(15) 0.60656(14)
H2 H -0.1321 -0.4298 0.5565
C6 C -0.1220(4) -0.4271(2) 0.7489(2)
H8 H -0.1104 -0.4952 0.7825
C15 C -0.1291(4) -0.2867(2) 0.5999(2)
H11 H -0.1204 -0.2612 0.5341
C18 C -0.1701(4) -0.2607(2) 0.7467(2)
C19 C -0.1496(4) -0.3626(2) 0.7958(2)
C21 C -0.1121(4) -0.3878(2) 0.6507(2)
C22 C -0.1592(4) -0.2241(2) 0.6483(2)
loop_
_geom_bond_atom_site_label_1
_geom_bond_atom_site_label_2
_geom_bond_site_symmetry_1
_geom_bond_site_symmetry_2
Cl1 C11 1_555 1_555
Cl2 C3 1_555 1_555
Cl3 C9 1_555 1_555
Cl4 C23 1_555 1_555
Cl5 C5 1_555 1_555
Cl6 C24 1_555 1_555
Cl7 C8 1_555 1_555
Cl8 C20 1_555 1_555
Cl9 C22 1_555 1_555
Cl10 C16 1_555 1_555
Cl11 C19 1_555 1_555
Cl12 C18 1_555 1_555
O1 H1 1_555 1_555
O2 H2 1_555 1_555
O3 H3 1_555 1_555
O4 H4 1_555 1_555
C1 H5 1_555 1_555
C2 H6 1_555 1_555
C3 C9 1_555 1_555
C4 H7 1_555 1_555
C5 C2 1_555 1_555
C6 H8 1_555 1_555
C7 H9 1_555 1_555
C8 C13 1_555 1_555
C9 C7 1_555 1_555
C10 O3 1_555 1_555
C11 C1 1_555 1_555
C12 O4 1_555 1_555
C13 C10 1_555 1_555
H10 C13 1_555 1_555
C14 O1 1_555 1_555
C15 H11 1_555 1_555
C16 C8 1_555 1_555
C17 C14 1_555 1_555
H12 C17 1_555 1_555
C18 C19 1_555 1_555
C19 C6 1_555 1_555
C20 C4 1_555 1_555
C21 O2 1_555 1_555
C22 C15 1_555 1_555
C23 C5 1_555 1_555
C24 C3 1_555 1_555
C1 C12 1_555 1_555
C2 C12 1_555 1_555
C4 C10 1_555 1_555
C6 C21 1_555 1_555
C7 C14 1_555 1_555
C11 C23 1_555 1_555
C15 C21 1_555 1_555
C16 C20 1_555 1_555
C17 C24 1_555 1_555
C18 C22 1_555 1_555

#END
