
#######################################################################
#
#                 Cambridge Crystallographic Data Centre
#                                CCDC 
#
#######################################################################
#
# If this CIF has been generated from an entry in the Cambridge 
# Structural Database, then it will include bibliographic, chemical, 
# crystal, experimental, refinement or atomic coordinate data resulting 
# from the CCDC's data processing and validation procedures.
#
#######################################################################

data_UZOWEM02
_chemical_formula_moiety         'C6 H3 Cl3 O1'
_chemical_name_systematic        3,4,5-trichlorophenol
_symmetry_cell_setting           triclinic
_symmetry_space_group_name_H-M   'P -1'
_symmetry_Int_Tables_number      2
_space_group_name_Hall           '-P 1'
loop_
_symmetry_equiv_pos_site_id
_symmetry_equiv_pos_as_xyz
1 x,y,z
2 -x,-y,-z
_cell_length_a                   7.123(4)
_cell_length_b                   14.809(7)
_cell_length_c                   15.437(7)
_cell_angle_alpha                66.514(17)
_cell_angle_beta                 81.938(19)
_cell_angle_gamma                80.525(18)
_cell_volume                     1468.07
_exptl_crystal_colour            colorless
_exptl_crystal_description       block
_cell_formula_units_Z            8
loop_
_atom_site_label
_atom_site_type_symbol
_atom_site_fract_x
_atom_site_fract_y
_atom_site_fract_z
Cl1 Cl 0.05448(11) 0.01170(5) 0.13420(5)
Cl4 Cl 0.06018(11) -0.11737(6) 0.35244(5)
Cl5 Cl 0.22999(11) -0.34251(6) 0.41622(5)
O4 O 0.3060(3) -0.30137(15) 0.07427(14)
H4 H 0.3067 -0.2597 0.0199
C1 C 0.1861(4) -0.15594(19) 0.10697(18)
H5 H 0.1783 -0.1173 0.0428
C2 C 0.2679(4) -0.3132(2) 0.23190(18)
H6 H 0.3164 -0.3799 0.2517
C5 C 0.2100(4) -0.2698(2) 0.29737(17)
C11 C 0.1308(4) -0.11376(19) 0.17383(19)
C12 C 0.2525(4) -0.2556(2) 0.13633(18)
C23 C 0.1386(4) -0.17017(19) 0.27030(18)
Cl2 Cl 0.40794(11) -0.40436(5) 0.63255(5)
Cl3 Cl 0.34554(12) -0.17039(6) 0.54332(5)
Cl6 Cl 0.39170(14) -0.51125(5) 0.85420(5)
O1 O 0.2905(3) -0.17865(14) 0.87869(14)
H1 H 0.3017 -0.1199 0.8476
C3 C 0.3666(4) -0.33655(19) 0.70364(18)
C7 C 0.3128(4) -0.1790(2) 0.72137(19)
H9 H 0.2929 -0.1101 0.6946
C9 C 0.3419(4) -0.2338(2) 0.66452(18)
C14 C 0.3138(4) -0.2290(2) 0.81888(18)
C17 C 0.3348(4) -0.3305(2) 0.85970(18)
H12 H 0.3312 -0.3632 0.9252
C24 C 0.3615(4) -0.38383(19) 0.80195(19)
Cl7 Cl -0.22054(13) -0.24901(7) 0.06916(5)
Cl8 Cl -0.46940(11) -0.05129(5) 0.30082(6)
Cl10 Cl -0.38951(12) -0.04966(6) 0.09524(5)
O3 O -0.2175(3) -0.41372(14) 0.42792(13)
H3 H -0.1459 -0.4551 0.4125
C4 C -0.3353(4) -0.24465(19) 0.36192(18)
H7 H -0.3607 -0.2447 0.4227
C8 C -0.2642(4) -0.2457(2) 0.18076(18)
C10 C -0.2575(4) -0.33023(19) 0.34848(18)
C13 C -0.2233(4) -0.3314(2) 0.25814(18)
H10 H -0.1729 -0.3898 0.2500
C16 C -0.3393(4) -0.1574(2) 0.19190(19)
C20 C -0.3748(4) -0.15869(19) 0.2835(2)
Cl9 Cl -0.18417(13) -0.09735(5) 0.58272(6)
Cl11 Cl -0.16428(13) -0.41282(7) 0.91782(5)
Cl12 Cl -0.20683(12) -0.18123(6) 0.80543(6)
O2 O -0.0825(3) -0.45503(13) 0.60641(13)
H2 H -0.1367 -0.4312 0.5573
C6 C -0.1225(4) -0.4279(2) 0.74913(19)
H8 H -0.1114 -0.4961 0.7830
C15 C -0.1287(4) -0.2869(2) 0.59960(19)
H11 H -0.1192 -0.2614 0.5337
C18 C -0.1697(4) -0.2606(2) 0.7462(2)
C19 C -0.1499(4) -0.3629(2) 0.79581(18)
C21 C -0.1123(4) -0.38833(19) 0.65054(18)
C22 C -0.1595(4) -0.22403(19) 0.6477(2)
loop_
_geom_bond_atom_site_label_1
_geom_bond_atom_site_label_2
_geom_bond_site_symmetry_1
_geom_bond_site_symmetry_2
Cl1 C11 1_555 1_555
Cl2 C3 1_555 1_555
Cl3 C9 1_555 1_555
Cl4 C23 1_555 1_555
Cl5 C5 1_555 1_555
Cl6 C24 1_555 1_555
Cl7 C8 1_555 1_555
Cl8 C20 1_555 1_555
Cl9 C22 1_555 1_555
Cl10 C16 1_555 1_555
Cl11 C19 1_555 1_555
Cl12 C18 1_555 1_555
O1 H1 1_555 1_555
O2 H2 1_555 1_555
O3 H3 1_555 1_555
O4 H4 1_555 1_555
C1 H5 1_555 1_555
C2 H6 1_555 1_555
C3 C9 1_555 1_555
C4 H7 1_555 1_555
C5 C2 1_555 1_555
C6 H8 1_555 1_555
C7 H9 1_555 1_555
C8 C13 1_555 1_555
C9 C7 1_555 1_555
C10 O3 1_555 1_555
C11 C1 1_555 1_555
C12 O4 1_555 1_555
C13 C10 1_555 1_555
H10 C13 1_555 1_555
C14 O1 1_555 1_555
C15 H11 1_555 1_555
C16 C8 1_555 1_555
C17 C14 1_555 1_555
H12 C17 1_555 1_555
C18 C19 1_555 1_555
C19 C6 1_555 1_555
C20 C4 1_555 1_555
C21 O2 1_555 1_555
C22 C15 1_555 1_555
C23 C5 1_555 1_555
C24 C3 1_555 1_555
C1 C12 1_555 1_555
C2 C12 1_555 1_555
C4 C10 1_555 1_555
C6 C21 1_555 1_555
C7 C14 1_555 1_555
C11 C23 1_555 1_555
C15 C21 1_555 1_555
C16 C20 1_555 1_555
C17 C24 1_555 1_555
C18 C22 1_555 1_555

#END
