
#######################################################################
#
#                 Cambridge Crystallographic Data Centre
#                                CCDC 
#
#######################################################################
#
# If this CIF has been generated from an entry in the Cambridge 
# Structural Database, then it will include bibliographic, chemical, 
# crystal, experimental, refinement or atomic coordinate data resulting 
# from the CCDC's data processing and validation procedures.
#
#######################################################################

data_UZOWEM01
_chemical_formula_moiety         'C6 H3 Cl3 O1'
_chemical_name_systematic        3,4,5-trichlorophenol
_symmetry_cell_setting           triclinic
_symmetry_space_group_name_H-M   'P -1'
_symmetry_Int_Tables_number      2
_space_group_name_Hall           '-P 1'
loop_
_symmetry_equiv_pos_site_id
_symmetry_equiv_pos_as_xyz
1 x,y,z
2 -x,-y,-z
_cell_length_a                   7.086(3)
_cell_length_b                   14.790(6)
_cell_length_c                   15.432(6)
_cell_angle_alpha                66.489(8)
_cell_angle_beta                 81.896(13)
_cell_angle_gamma                80.674(14)
_cell_volume                     1458.22
_exptl_crystal_colour            colorless
_exptl_crystal_description       block
_cell_formula_units_Z            8
loop_
_atom_site_label
_atom_site_type_symbol
_atom_site_fract_x
_atom_site_fract_y
_atom_site_fract_z
Cl1 Cl 0.05525(10) 0.01242(5) 0.13349(5)
Cl4 Cl 0.05903(9) -0.11694(5) 0.35230(4)
Cl5 Cl 0.22871(10) -0.34252(5) 0.41660(4)
O4 O 0.3063(3) -0.30167(14) 0.07404(13)
H4 H 0.3036 -0.2602 0.0196
C1 C 0.1863(3) -0.15553(18) 0.10641(17)
H5 H 0.1790 -0.1168 0.0422
C2 C 0.2674(3) -0.31362(18) 0.23207(17)
H6 H 0.3154 -0.3804 0.2520
C5 C 0.2090(3) -0.26986(19) 0.29734(17)
C11 C 0.1306(3) -0.11339(18) 0.17297(17)
C12 C 0.2529(4) -0.25572(18) 0.13597(17)
C23 C 0.1378(3) -0.16969(18) 0.27009(17)
Cl2 Cl 0.40778(9) -0.40437(5) 0.63187(4)
Cl3 Cl 0.34522(10) -0.17001(5) 0.54241(4)
Cl6 Cl 0.39129(12) -0.51174(5) 0.85409(5)
O1 O 0.2900(3) -0.17853(13) 0.87875(13)
H1 H 0.2973 -0.1193 0.8476
C3 C 0.3659(3) -0.33656(18) 0.70309(17)
C7 C 0.3122(4) -0.17834(18) 0.72074(17)
H9 H 0.2928 -0.1094 0.6939
C9 C 0.3414(3) -0.23325(19) 0.66393(16)
C14 C 0.3127(3) -0.22851(18) 0.81855(17)
C17 C 0.3340(4) -0.33091(18) 0.85949(17)
H12 H 0.3304 -0.3637 0.9251
C24 C 0.3608(4) -0.38414(18) 0.80167(18)
Cl7 Cl -0.22051(11) -0.24914(6) 0.06875(5)
Cl8 Cl -0.46943(10) -0.05095(5) 0.30068(5)
Cl10 Cl -0.38902(10) -0.04961(5) 0.09489(5)
O3 O -0.2188(3) -0.41450(13) 0.42859(12)
H3 H -0.1464 -0.4558 0.4132
C4 C -0.3355(3) -0.24491(18) 0.36206(17)
H7 H -0.3605 -0.2449 0.4228
C8 C -0.2646(4) -0.2458(2) 0.18079(17)
C10 C -0.2588(3) -0.33077(18) 0.34893(17)
C13 C -0.2236(4) -0.33262(19) 0.25872(17)
H10 H -0.1733 -0.3912 0.2507
C16 C -0.3394(3) -0.15756(18) 0.19195(18)
C20 C -0.3747(3) -0.15882(18) 0.28369(18)
Cl9 Cl -0.18435(11) -0.09709(5) 0.58225(5)
Cl11 Cl -0.16511(11) -0.41301(6) 0.91823(5)
Cl12 Cl -0.20751(10) -0.18102(5) 0.80540(5)
O2 O -0.0831(3) -0.45527(13) 0.60629(12)
H2 H -0.1309 -0.4299 0.5553
C6 C -0.1234(3) -0.42794(18) 0.74925(17)
H8 H -0.1124 -0.4962 0.7832
C15 C -0.1291(4) -0.28706(19) 0.59920(17)
H11 H -0.1199 -0.2616 0.5333
C18 C -0.1707(3) -0.26062(19) 0.74656(18)
C19 C -0.1508(4) -0.36321(19) 0.79601(17)
C21 C -0.1125(3) -0.38858(18) 0.65027(17)
C22 C -0.1596(4) -0.22371(18) 0.64757(18)
loop_
_geom_bond_atom_site_label_1
_geom_bond_atom_site_label_2
_geom_bond_site_symmetry_1
_geom_bond_site_symmetry_2
Cl1 C11 1_555 1_555
Cl2 C3 1_555 1_555
Cl3 C9 1_555 1_555
Cl4 C23 1_555 1_555
Cl5 C5 1_555 1_555
Cl6 C24 1_555 1_555
Cl7 C8 1_555 1_555
Cl8 C20 1_555 1_555
Cl9 C22 1_555 1_555
Cl10 C16 1_555 1_555
Cl11 C19 1_555 1_555
Cl12 C18 1_555 1_555
O1 H1 1_555 1_555
O2 H2 1_555 1_555
O3 H3 1_555 1_555
O4 H4 1_555 1_555
C1 H5 1_555 1_555
C2 H6 1_555 1_555
C3 C9 1_555 1_555
C4 H7 1_555 1_555
C5 C2 1_555 1_555
C6 H8 1_555 1_555
C7 H9 1_555 1_555
C8 C13 1_555 1_555
C9 C7 1_555 1_555
C10 O3 1_555 1_555
C11 C1 1_555 1_555
C12 O4 1_555 1_555
C13 C10 1_555 1_555
H10 C13 1_555 1_555
C14 O1 1_555 1_555
C15 H11 1_555 1_555
C16 C8 1_555 1_555
C17 C14 1_555 1_555
H12 C17 1_555 1_555
C18 C19 1_555 1_555
C19 C6 1_555 1_555
C20 C4 1_555 1_555
C21 O2 1_555 1_555
C22 C15 1_555 1_555
C23 C5 1_555 1_555
C24 C3 1_555 1_555
C1 C12 1_555 1_555
C2 C12 1_555 1_555
C4 C10 1_555 1_555
C6 C21 1_555 1_555
C7 C14 1_555 1_555
C11 C23 1_555 1_555
C15 C21 1_555 1_555
C16 C20 1_555 1_555
C17 C24 1_555 1_555
C18 C22 1_555 1_555

#END
