
#######################################################################
#
#                 Cambridge Crystallographic Data Centre
#                                CCDC 
#
#######################################################################
#
# If this CIF has been generated from an entry in the Cambridge 
# Structural Database, then it will include bibliographic, chemical, 
# crystal, experimental, refinement or atomic coordinate data resulting 
# from the CCDC's data processing and validation procedures.
#
#######################################################################

data_UZUJEF
_chemical_formula_moiety         'C22 H23 F1 N2 O4 S1'
_chemical_name_systematic        
'Diethyl ((2-fluorophenyl)((4-methyl-1,3-benzothiazol-2-yl)amino)methyl)malonate'
_symmetry_cell_setting           triclinic
_symmetry_space_group_name_H-M   'P -1'
_symmetry_Int_Tables_number      2
_space_group_name_Hall           '-P 1'
loop_
_symmetry_equiv_pos_site_id
_symmetry_equiv_pos_as_xyz
1 x,y,z
2 -x,-y,-z
_cell_length_a                   9.1694(12)
_cell_length_b                   9.2368(11)
_cell_length_c                   13.6139(17)
_cell_angle_alpha                79.486(5)
_cell_angle_beta                 72.968(5)
_cell_angle_gamma                79.460(5)
_cell_volume                     1073.63
_cell_formula_units_Z            2
loop_
_atom_site_label
_atom_site_type_symbol
_atom_site_fract_x
_atom_site_fract_y
_atom_site_fract_z
S1 S 0.65907(12) 0.59730(12) 0.73386(8)
F1 F 1.2281(3) 0.1103(3) 0.8409(2)
O1 O 1.0192(3) 0.2052(3) 0.5383(2)
O2 O 1.2094(3) 0.4857(3) 0.4887(2)
O3 O 1.2716(3) 0.1211(3) 0.4988(2)
O4 O 1.2822(5) 0.4918(4) 0.6299(2)
N1 N 0.9158(4) 0.3971(4) 0.7000(3)
H1 H 0.9044 0.4064 0.6385
N2 N 0.8199(3) 0.4747(3) 0.8655(2)
C1 C 1.0443(4) 0.2969(4) 0.7258(3)
H2 H 1.0798 0.3439 0.7719
C2 C 1.2549(5) 0.0441(5) 0.4191(3)
H3 H 1.2133 0.1142 0.3684
H4 H 1.1857 -0.0298 0.4498
C3 C 0.6999(4) 0.5747(4) 0.9158(3)
C4 C 1.0992(4) 0.0569(4) 0.8393(3)
C5 C 1.0042(4) 0.1454(4) 0.7837(3)
C6 C 0.6010(4) 0.6529(4) 0.8572(3)
C7 C 1.1792(4) 0.2802(4) 0.6274(3)
H5 H 1.2680 0.2219 0.6489
C8 C 1.2241(4) 0.4303(4) 0.5736(3)
C9 C 0.6736(4) 0.6007(4) 1.0186(3)
C10 C 0.8743(5) 0.0889(5) 0.7838(3)
H6 H 0.8069 0.1443 0.7471
C11 C 0.8125(4) 0.4768(4) 0.7715(3)
C12 C 0.9405(5) -0.1332(5) 0.8924(4)
H7 H 0.9190 -0.2260 0.9281
C13 C 1.1447(4) 0.1993(4) 0.5507(3)
C14 C 0.7738(5) 0.5165(5) 1.0856(3)
H8 H 0.8517 0.4480 1.0470
H9 H 0.7121 0.4627 1.1457
H10 H 0.8219 0.5850 1.1068
C15 C 0.4572(5) 0.7866(5) 0.9952(4)
H11 H 0.3778 0.8584 1.0227
C16 C 1.4123(5) -0.0290(5) 0.3686(4)
H12 H 1.4064 -0.0814 0.3154
H13 H 1.4521 -0.0977 0.4196
H14 H 1.4793 0.0454 0.3383
C17 C 0.4801(5) 0.7599(5) 0.8950(3)
H15 H 0.4167 0.8119 0.8542
C18 C 0.8435(5) -0.0504(5) 0.8385(4)
H16 H 0.7556 -0.0868 0.8381
C19 C 1.0717(5) -0.0802(5) 0.8946(4)
H17 H 1.1383 -0.1352 0.9321
C20 C 0.5512(5) 0.7075(5) 1.0549(4)
H18 H 0.5316 0.7267 1.1226
C21 C 1.3220(7) 0.6419(7) 0.5919(5)
H19 H 1.4245 0.6457 0.5970
H20 H 1.3222 0.6673 0.5195
C22 C 1.2163(11) 0.7442(7) 0.6497(6)
H21 H 1.2437 0.8423 0.6238
H22 H 1.2173 0.7198 0.7211
H23 H 1.1151 0.7412 0.6439
loop_
_geom_bond_atom_site_label_1
_geom_bond_atom_site_label_2
_geom_bond_site_symmetry_1
_geom_bond_site_symmetry_2
S1 C6 1_555 1_555
F1 C4 1_555 1_555
O1 C13 1_555 1_555
O2 C8 1_555 1_555
O3 C2 1_555 1_555
O4 C8 1_555 1_555
N1 H1 1_555 1_555
N2 C3 1_555 1_555
C1 N1 1_555 1_555
H2 C1 1_555 1_555
C2 H3 1_555 1_555
H4 C2 1_555 1_555
C3 C6 1_555 1_555
C4 C5 1_555 1_555
C5 C1 1_555 1_555
C6 C17 1_555 1_555
C7 C1 1_555 1_555
H5 C7 1_555 1_555
C8 C7 1_555 1_555
C9 C3 1_555 1_555
C10 C5 1_555 1_555
H6 C10 1_555 1_555
C11 S1 1_555 1_555
C12 H7 1_555 1_555
C13 O3 1_555 1_555
C14 C9 1_555 1_555
H8 C14 1_555 1_555
H9 C14 1_555 1_555
H10 C14 1_555 1_555
C15 H11 1_555 1_555
C16 C2 1_555 1_555
H12 C16 1_555 1_555
H13 C16 1_555 1_555
H14 C16 1_555 1_555
C17 C15 1_555 1_555
H15 C17 1_555 1_555
C18 C10 1_555 1_555
H16 C18 1_555 1_555
C19 C4 1_555 1_555
H17 C19 1_555 1_555
C20 C9 1_555 1_555
H18 C20 1_555 1_555
C21 O4 1_555 1_555
H19 C21 1_555 1_555
H20 C21 1_555 1_555
C22 C21 1_555 1_555
H21 C22 1_555 1_555
H22 C22 1_555 1_555
H23 C22 1_555 1_555
N1 C11 1_555 1_555
N2 C11 1_555 1_555
C7 C13 1_555 1_555
C12 C18 1_555 1_555
C12 C19 1_555 1_555
C15 C20 1_555 1_555

#END
