
#######################################################################
#
#                 Cambridge Crystallographic Data Centre
#                                CCDC 
#
#######################################################################
#
# If this CIF has been generated from an entry in the Cambridge 
# Structural Database, then it will include bibliographic, chemical, 
# crystal, experimental, refinement or atomic coordinate data resulting 
# from the CCDC's data processing and validation procedures.
#
#######################################################################

data_UZUKIK
_chemical_formula_moiety         'C22 H33 N1 O3'
_chemical_name_systematic        
'ent-8\b-cyanomethyl-13-methyl-12-podocarpen-19-hydroxyethyl ester'
_symmetry_cell_setting           orthorhombic
_symmetry_space_group_name_H-M   'P 21 21 21'
_symmetry_Int_Tables_number      19
_space_group_name_Hall           'P 2ac 2ab'
loop_
_symmetry_equiv_pos_site_id
_symmetry_equiv_pos_as_xyz
1 x,y,z
2 1/2-x,-y,1/2+z
3 -x,1/2+y,1/2-z
4 1/2+x,1/2-y,-z
_cell_length_a                   7.7118(12)
_cell_length_b                   10.430(3)
_cell_length_c                   25.351(7)
_cell_angle_alpha                90
_cell_angle_beta                 90
_cell_angle_gamma                90
_cell_volume                     2039.08
_cell_formula_units_Z            4
loop_
_atom_site_label
_atom_site_type_symbol
_atom_site_fract_x
_atom_site_fract_y
_atom_site_fract_z
O1 O 0.0975(5) -0.2534(3) 0.07428(14)
O2 O 0.3167(4) -0.1218(3) 0.09385(13)
N1 N 0.3131(6) 0.4175(5) 0.23719(19)
C1 C -0.2393(5) 0.0510(4) 0.06266(19)
H1 H -0.3387 0.0482 0.0861
H2 H -0.2634 0.1137 0.0354
C2 C -0.2170(5) -0.0814(4) 0.0368(2)
H3 H -0.2097 -0.1467 0.0639
H4 H -0.3173 -0.1000 0.0150
C3 C -0.0533(5) -0.0851(4) 0.00284(17)
H5 H -0.0698 -0.0287 -0.0271
H6 H -0.0390 -0.1714 -0.0107
C4 C 0.1142(5) -0.0461(4) 0.03116(17)
C5 C 0.0825(5) 0.0878(4) 0.05838(15)
H7 H 0.0556 0.1457 0.0291
C6 C 0.2429(5) 0.1483(4) 0.08476(18)
H8 H 0.2689 0.1033 0.1173
H9 H 0.3423 0.1406 0.0615
C7 C 0.2078(5) 0.2901(4) 0.09657(17)
H10 H 0.3098 0.3267 0.1131
H11 H 0.1894 0.3348 0.0635
C8 C 0.0519(5) 0.3131(4) 0.13222(17)
C9 C -0.1068(5) 0.2393(4) 0.10952(16)
H12 H -0.1305 0.2818 0.0758
C10 C -0.0790(5) 0.0950(4) 0.09436(16)
C11 C -0.2707(5) 0.2643(4) 0.1426(2)
H13 H -0.3720 0.2420 0.1218
H14 H -0.2689 0.2089 0.1733
C12 C -0.2863(6) 0.4006(5) 0.1603(2)
H15 H -0.3914 0.4264 0.1749
C13 C -0.1628(6) 0.4864(4) 0.15674(18)
C14 C 0.0081(5) 0.4545(4) 0.13150(18)
H16 H 0.0991 0.5011 0.1497
H17 H 0.0063 0.4838 0.0952
C15 C 0.0903(6) 0.2714(4) 0.18961(17)
H18 H -0.0172 0.2713 0.2095
H19 H 0.1348 0.1844 0.1894
C16 C 0.2144(7) 0.3538(5) 0.21602(19)
C17 C -0.1870(7) 0.6219(4) 0.1757(2)
H20 H -0.3009 0.6312 0.1905
H21 H -0.1738 0.6800 0.1466
H22 H -0.1017 0.6410 0.2022
C18 C 0.2597(6) -0.0340(4) -0.01065(18)
H23 H 0.3657 -0.0087 0.0063
H24 H 0.2276 0.0293 -0.0363
H25 H 0.2761 -0.1152 -0.0278
C19 C 0.1679(6) -0.1515(5) 0.06903(19)
C20 C -0.0636(6) 0.0066(4) 0.14277(16)
H26 H -0.0476 -0.0803 0.1313
H27 H -0.1675 0.0125 0.1635
H28 H 0.0339 0.0326 0.1637
C21 C 0.3870(8) -0.2120(5) 0.1318(2)
H29 H 0.3453 -0.2976 0.1238
H30 H 0.5125 -0.2126 0.1293
O3 O 0.400(3) -0.039(2) 0.1946(10)
H31 H 0.3719 -0.0182 0.2245
C22 C 0.3365(11) -0.1777(8) 0.1836(4)
H32 H 0.3872 -0.2366 0.2088
H33 H 0.2113 -0.1819 0.1869
C23? C 0.3365(11) -0.1777(8) 0.1836(4)
H34? H 0.2182 -0.2081 0.1870
H35? H 0.4057 -0.2317 0.2065
H36? H 0.2949 -0.0776 0.2340
O4? O 0.337(3) -0.072(2) 0.2044(9)
loop_
_geom_bond_atom_site_label_1
_geom_bond_atom_site_label_2
_geom_bond_site_symmetry_1
_geom_bond_site_symmetry_2
O1 C19 1_555 1_555
O2 C19 1_555 1_555
N1 C16 1_555 1_555
C1 H1 1_555 1_555
H2 C1 1_555 1_555
C2 C1 1_555 1_555
H3 C2 1_555 1_555
H4 C2 1_555 1_555
C3 C2 1_555 1_555
H5 C3 1_555 1_555
H6 C3 1_555 1_555
C4 C3 1_555 1_555
C5 C4 1_555 1_555
H7 C5 1_555 1_555
C6 C5 1_555 1_555
H8 C6 1_555 1_555
H9 C6 1_555 1_555
C7 C6 1_555 1_555
H10 C7 1_555 1_555
H11 C7 1_555 1_555
C8 C7 1_555 1_555
C9 C8 1_555 1_555
H12 C9 1_555 1_555
C10 C1 1_555 1_555
C11 C9 1_555 1_555
H13 C11 1_555 1_555
H14 C11 1_555 1_555
C12 C11 1_555 1_555
H15 C12 1_555 1_555
C13 C12 1_555 1_555
C14 C8 1_555 1_555
H16 C14 1_555 1_555
H17 C14 1_555 1_555
C15 C8 1_555 1_555
H18 C15 1_555 1_555
H19 C15 1_555 1_555
C16 C15 1_555 1_555
C17 C13 1_555 1_555
H20 C17 1_555 1_555
H21 C17 1_555 1_555
H22 C17 1_555 1_555
C18 C4 1_555 1_555
H23 C18 1_555 1_555
H24 C18 1_555 1_555
H25 C18 1_555 1_555
C19 C4 1_555 1_555
C20 C10 1_555 1_555
H26 C20 1_555 1_555
H27 C20 1_555 1_555
H28 C20 1_555 1_555
C21 O2 1_555 1_555
H29 C21 1_555 1_555
H30 C21 1_555 1_555
O3 H31 1_555 1_555
C22 C21 1_555 1_555
H32 C22 1_555 1_555
H33 C22 1_555 1_555
C5 C10 1_555 1_555
C9 C10 1_555 1_555
C13 C14 1_555 1_555
O3 C22 1_555 1_555

#END
