
#######################################################################
#
#                 Cambridge Crystallographic Data Centre
#                                CCDC 
#
#######################################################################
#
# If this CIF has been generated from an entry in the Cambridge 
# Structural Database, then it will include bibliographic, chemical, 
# crystal, experimental, refinement or atomic coordinate data resulting 
# from the CCDC's data processing and validation procedures.
#
#######################################################################

data_UZULIL
_chemical_formula_moiety         'C28 H22 O3,C2 H6 O1'
_chemical_name_systematic        
"2'-(Hydroxy-(2-methoxyphenyl)methyl)-1,1'-binaphthalen-2-ol ethanol solvate"
_symmetry_cell_setting           triclinic
_symmetry_space_group_name_H-M   'P -1'
_symmetry_Int_Tables_number      2
_space_group_name_Hall           '-P 1'
loop_
_symmetry_equiv_pos_site_id
_symmetry_equiv_pos_as_xyz
1 x,y,z
2 -x,-y,-z
_cell_length_a                   9.2556(11)
_cell_length_b                   9.3849(11)
_cell_length_c                   14.9355(18)
_cell_angle_alpha                96.406(2)
_cell_angle_beta                 100.725(2)
_cell_angle_gamma                104.172(2)
_cell_volume                     1218.95
_exptl_crystal_colour            colorless
_exptl_crystal_description       block
_cell_formula_units_Z            2
loop_
_atom_site_label
_atom_site_type_symbol
_atom_site_fract_x
_atom_site_fract_y
_atom_site_fract_z
C1 C 1.13082(19) 0.71799(18) 0.23920(11)
C2 C 1.0527(2) 0.83420(19) 0.21243(12)
C3 C 1.1457(2) 0.5040(2) 0.31299(13)
H1 H 1.1043 0.4338 0.3471
C4 C 1.3448(2) 0.6067(2) 0.23686(13)
C5 C 1.0692(2) 0.61224(19) 0.28845(12)
C6 C 0.9672(2) 0.8207(2) 0.12052(13)
C7 C 1.3452(2) 0.8283(2) 0.16636(13)
H2 H 1.3005 0.9037 0.1515
C8 C 0.8910(2) 0.9304(2) 0.09683(15)
C9 C 1.2779(2) 0.5009(2) 0.28761(14)
H3 H 1.3253 0.4279 0.3039
C10 C 1.0608(2) 0.9541(2) 0.27652(14)
C11 C 0.9858(3) 1.0637(2) 0.25225(18)
H4 H 0.9926 1.1448 0.2963
C12 C 1.4837(2) 0.6076(3) 0.20988(16)
H5 H 1.5312 0.5338 0.2241
C13 C 0.9540(2) 0.7015(2) 0.05008(14)
H6 H 1.0024 0.6281 0.0637
C14 C 1.4798(2) 0.8254(2) 0.14241(15)
H7 H 1.5256 0.8986 0.1116
C15 C 0.9047(3) 1.0508(3) 0.16537(18)
H8 H 0.8564 1.1239 0.1506
C16 C 1.5495(2) 0.7133(3) 0.16378(16)
H9 H 1.6405 0.7112 0.1465
C17 C 0.8061(3) 0.9146(3) 0.00609(19)
H10 H 0.7552 0.9855 -0.0093
C18 C 0.8720(3) 0.6916(3) -0.03736(16)
H11 H 0.8662 0.6126 -0.0826
C19 C 0.7968(3) 0.7992(3) -0.05928(18)
H12 H 0.7403 0.7914 -0.1189
C20 C 0.9250(2) 0.6163(2) 0.32234(13)
H13 H 0.8675 0.6690 0.2824
C21 C 0.8217(2) 0.4651(2) 0.32266(13)
C22 C 0.7344(2) 0.3791(2) 0.23868(14)
C23 C 0.6335(3) 0.2428(2) 0.23672(17)
H14 H 0.5745 0.1871 0.1806
C24 C 0.8054(3) 0.4084(3) 0.40340(16)
H15 H 0.8619 0.4637 0.4601
C25 C 0.6202(3) 0.1892(3) 0.3177(2)
H16 H 0.5524 0.0972 0.3162
C26 C 0.7057(3) 0.2702(3) 0.40013(19)
H17 H 0.6971 0.2326 0.4545
C27 C 0.6684(3) 0.3658(3) 0.07483(16)
H18 H 0.6921 0.2730 0.0609
H19 H 0.6907 0.4260 0.0286
H20 H 0.5619 0.3470 0.0756
O1 O 0.75778(16) 0.44208(16) 0.16276(10)
O2 O 1.13934(19) 0.96326(15) 0.36490(10)
H21 H 1.1552 1.0477 0.3931
O3 O 0.96897(18) 0.69932(16) 0.41447(10)
H22 H 1.0345 0.7770 0.4163
C28 C 1.27236(19) 0.71882(19) 0.21334(12)
O4 O 0.2079(2) 0.23303(19) 0.46612(12)
H23 H 0.1529 0.2421 0.5024
C29 C 0.3625(4) 0.2713(4) 0.5153(3)
H24 H 0.3810 0.3589 0.5614
H25 H 0.4281 0.2973 0.4726
C30 C 0.4040(6) 0.1545(4) 0.5604(3)
H26 H 0.3406 0.1289 0.6035
H27 H 0.5091 0.1884 0.5928
H28 H 0.3898 0.0685 0.5150
loop_
_geom_bond_atom_site_label_1
_geom_bond_atom_site_label_2
_geom_bond_site_symmetry_1
_geom_bond_site_symmetry_2
C1 C2 1_555 1_555
C2 C6 1_555 1_555
C3 H1 1_555 1_555
C4 C9 1_555 1_555
C5 C1 1_555 1_555
C6 C8 1_555 1_555
C7 H2 1_555 1_555
C8 C15 1_555 1_555
C9 C3 1_555 1_555
H3 C9 1_555 1_555
C10 C2 1_555 1_555
C11 C10 1_555 1_555
H4 C11 1_555 1_555
C12 C4 1_555 1_555
H5 C12 1_555 1_555
C13 C6 1_555 1_555
H6 C13 1_555 1_555
C14 C7 1_555 1_555
H7 C14 1_555 1_555
C15 C11 1_555 1_555
H8 C15 1_555 1_555
C16 C12 1_555 1_555
H9 C16 1_555 1_555
C17 C8 1_555 1_555
H10 C17 1_555 1_555
C18 C13 1_555 1_555
H11 C18 1_555 1_555
C19 C17 1_555 1_555
H12 C19 1_555 1_555
C20 C5 1_555 1_555
H13 C20 1_555 1_555
C21 C20 1_555 1_555
C22 C21 1_555 1_555
C23 C22 1_555 1_555
H14 C23 1_555 1_555
C24 C21 1_555 1_555
H15 C24 1_555 1_555
C25 C23 1_555 1_555
H16 C25 1_555 1_555
C26 C24 1_555 1_555
H17 C26 1_555 1_555
C27 H18 1_555 1_555
H19 C27 1_555 1_555
H20 C27 1_555 1_555
O1 C22 1_555 1_555
O2 C10 1_555 1_555
H21 O2 1_555 1_555
O3 C20 1_555 1_555
H22 O3 1_555 1_555
C28 C1 1_555 1_555
O4 H23 1_555 1_555
C29 O4 1_555 1_555
H24 C29 1_555 1_555
H25 C29 1_555 1_555
C30 C29 1_555 1_555
H26 C30 1_555 1_555
H27 C30 1_555 1_555
H28 C30 1_555 1_555
C3 C5 1_555 1_555
C4 C28 1_555 1_555
C7 C28 1_555 1_555
C14 C16 1_555 1_555
C18 C19 1_555 1_555
C25 C26 1_555 1_555
C27 O1 1_555 1_555

#END
