
#######################################################################
#
#                 Cambridge Crystallographic Data Centre
#                                CCDC 
#
#######################################################################
#
# If this CIF has been generated from an entry in the Cambridge 
# Structural Database, then it will include bibliographic, chemical, 
# crystal, experimental, refinement or atomic coordinate data resulting 
# from the CCDC's data processing and validation procedures.
#
#######################################################################

data_UZULAD
_chemical_compound_source        'whole plants of Chloranthus japonicus'
_chemical_name_common            'Chlorajaponilide A methanol solvate'
_chemical_formula_moiety         'C1 H4 O1,C39 H40 O13'
_chemical_name_systematic        
'33,40-Dihydroxy-1,8,13,28-tetramethyl-11,17,21,26,31-pentaoxadecacyclo[17.17.3.1^4,8^.0^2,16^.0^5,7^.0^10,14^.0^15,40^.0^16,39^.0^33,37^.0^34,36^]tetraconta-3,13,19(39),28-tetraene-9,12,18,22,25,30-hexone methanol solvate'
_symmetry_cell_setting           monoclinic
_symmetry_space_group_name_H-M   'P 21'
_symmetry_Int_Tables_number      4
_space_group_name_Hall           'P 2yb'
loop_
_symmetry_equiv_pos_site_id
_symmetry_equiv_pos_as_xyz
1 x,y,z
2 -x,1/2+y,-z
_cell_length_a                   9.840(5)
_cell_length_b                   18.655(7)
_cell_length_c                   10.168(5)
_cell_angle_alpha                90
_cell_angle_beta                 101.518(16)
_cell_angle_gamma                90
_cell_volume                     1828.9
_exptl_crystal_colour            colorless
_exptl_crystal_description       prism
_cell_formula_units_Z            2
loop_
_atom_site_label
_atom_site_type_symbol
_atom_site_fract_x
_atom_site_fract_y
_atom_site_fract_z
O1 O 0.2323(2) 0.11220(17) 0.8155(3)
O2 O 0.0111(3) 0.0807(3) 0.7517(4)
O3 O 0.3289(3) -0.04381(17) 0.4804(3)
O4 O 0.3547(4) -0.1593(2) 0.5204(4)
O5 O 0.5141(5) -0.0643(3) 0.7795(5)
O6 O 0.9915(2) -0.00418(12) 1.1155(3)
O7 O 0.87293(18) 0.09758(10) 1.1243(2)
O8 O 0.9724(2) 0.23043(12) 1.0815(3)
H1 H 0.9810 0.1881 1.1034
O9 O 0.6482(5) 0.37857(17) 0.7949(3)
O10 O 0.4402(3) 0.28418(16) 0.7898(3)
O11 O 0.3611(4) 0.2254(2) 0.5975(3)
O12 O 0.2491(2) 0.04792(15) 1.0710(3)
H2 H 0.1690 0.0479 1.0826
O13 O 0.7305(4) -0.1022(2) 0.8694(4)
C1 C 0.8345(4) 0.37872(16) 1.0607(4)
H3 H 0.7978 0.4261 1.0306
C2 C 0.9436(4) 0.37453(18) 1.1855(4)
H4 H 0.9737 0.4191 1.2315
H5 H 1.0159 0.3389 1.1889
C3 C 0.7997(3) 0.34839(17) 1.1892(3)
H6 H 0.7412 0.3762 1.2379
C4 C 0.7712(3) 0.27132(15) 1.1645(3)
C5 C 0.8269(3) 0.24783(14) 1.0425(3)
C6 C 0.7493(3) 0.18236(14) 0.9706(3)
H7 H 0.8109 0.1617 0.9160
C7 C 0.6219(3) 0.20595(16) 0.8741(3)
C8 C 0.5606(4) 0.27807(18) 0.8944(3)
H8 H 0.5379 0.2824 0.9836
C9 C 0.6725(4) 0.33085(18) 0.8748(4)
C10 C 0.8191(4) 0.31833(15) 0.9577(3)
C11 C 0.5620(4) 0.18154(19) 0.7541(3)
C12 C 0.4445(5) 0.2301(2) 0.7001(4)
C13 C 0.5961(6) 0.1196(3) 0.6734(4)
H9 H 0.6753 0.0947 0.7230
H10 H 0.6166 0.1368 0.5905
H11 H 0.5183 0.0875 0.6546
C14 C 0.9216(5) 0.3205(2) 0.8644(5)
H12 H 0.9120 0.3650 0.8161
H13 H 0.9034 0.2813 0.8021
H14 H 1.0143 0.3164 0.9160
C15 C 0.6992(3) 0.22804(16) 1.2297(3)
H15 H 0.6602 0.2483 1.2970
C16 C 0.4303(3) 0.1679(2) 1.2654(4)
H16 H 0.4670 0.2134 1.3056
C17 C 0.3097(4) 0.1349(3) 1.3122(4)
H17 H 0.3066 0.0830 1.3176
H18 H 0.2727 0.1600 1.3809
C18 C 0.2883(3) 0.1676(2) 1.1771(4)
H19 H 0.2374 0.2130 1.1618
C19 C 0.2916(3) 0.1186(2) 1.0556(4)
C20 C 0.4471(3) 0.11643(15) 1.0550(3)
H20 H 0.4679 0.1615 1.0137
C21 C 0.5019(3) 0.05709(15) 0.9766(3)
H21 H 0.4658 0.0110 0.9976
H22 H 0.4729 0.0654 0.8809
C22 C 0.6561(3) 0.05735(14) 1.0151(3)
C23 C 0.7317(2) 0.12342(14) 1.0761(3)
C24 C 0.6761(3) 0.14946(15) 1.2035(3)
H23 H 0.7358 0.1256 1.2796
C25 C 0.5269(3) 0.11962(17) 1.2024(3)
C26 C 0.7450(3) 0.00260(16) 1.0212(3)
C27 C 0.8822(3) 0.02795(14) 1.0879(3)
C28 C 0.7148(4) -0.07442(19) 0.9896(4)
H24 H 0.6271 -0.0896 1.0102
H25 H 0.7888 -0.1058 1.0334
C29 C 0.5457(4) 0.04616(19) 1.2717(4)
H26 H 0.4564 0.0259 1.2733
H27 H 0.5968 0.0518 1.3620
H28 H 0.5956 0.0149 1.2232
C30 C 0.2061(3) 0.1514(2) 0.9297(4)
H29 H 0.1083 0.1490 0.9328
H30 H 0.2313 0.2013 0.9230
C31 C 0.1277(3) 0.0759(2) 0.7375(4)
C32 C 0.1855(4) 0.0315(2) 0.6415(3)
H31 H 0.2814 0.0269 0.6564
C33 C 0.1119(4) -0.0025(2) 0.5352(3)
C34 C 0.1801(5) -0.0491(3) 0.4481(4)
H32 H 0.1534 -0.0986 0.4581
H33 H 0.1476 -0.0356 0.3551
C35 C -0.0421(5) 0.0002(4) 0.4912(5)
H34 H -0.0803 0.0307 0.5506
H35 H -0.0795 -0.0472 0.4933
H36 H -0.0654 0.0187 0.4015
C36 C 0.4031(5) -0.1022(3) 0.5090(4)
C37 C 0.5569(5) -0.0870(2) 0.5250(5)
H37 H 0.5852 -0.0987 0.4415
H38 H 0.5721 -0.0361 0.5406
C38 C 0.6466(5) -0.1271(3) 0.6357(5)
H39 H 0.7433 -0.1226 0.6297
H40 H 0.6221 -0.1775 0.6315
C39 C 0.6223(4) -0.0948(3) 0.7633(5)
O14 O -0.1040(16) -0.1928(8) 0.4292(15)
H41 H -0.1218 -0.1976 0.3474
C40 C -0.0113(15) -0.2530(7) 0.4913(14)
H42 H -0.0089 -0.2895 0.4252
H43 H -0.0465 -0.2730 0.5648
H44 H 0.0808 -0.2350 0.5234
O15? O 0.525(2) -0.1298(11) 0.789(2)
O16? O 0.7082(8) -0.0670(4) 0.8187(8)
loop_
_geom_bond_atom_site_label_1
_geom_bond_atom_site_label_2
_geom_bond_site_symmetry_1
_geom_bond_site_symmetry_2
O1 C30 1_555 1_555
O2 C31 1_555 1_555
O3 C34 1_555 1_555
O4 C36 1_555 1_555
O5 C39 1_555 1_555
O6 C27 1_555 1_555
O7 C23 1_555 1_555
O8 H1 1_555 1_555
O9 C9 1_555 1_555
O10 C8 1_555 1_555
O11 C12 1_555 1_555
O12 H2 1_555 1_555
O13 C28 1_555 1_555
C1 H3 1_555 1_555
C2 C1 1_555 1_555
H4 C2 1_555 1_555
H5 C2 1_555 1_555
C3 C1 1_555 1_555
H6 C3 1_555 1_555
C4 C3 1_555 1_555
C5 O8 1_555 1_555
C6 C5 1_555 1_555
H7 C6 1_555 1_555
C7 C6 1_555 1_555
C8 C7 1_555 1_555
H8 C8 1_555 1_555
C9 C8 1_555 1_555
C10 C1 1_555 1_555
C11 C7 1_555 1_555
C12 O10 1_555 1_555
C13 C11 1_555 1_555
H9 C13 1_555 1_555
H10 C13 1_555 1_555
H11 C13 1_555 1_555
C14 C10 1_555 1_555
H12 C14 1_555 1_555
H13 C14 1_555 1_555
H14 C14 1_555 1_555
C15 C4 1_555 1_555
H15 C15 1_555 1_555
C16 H16 1_555 1_555
C17 C16 1_555 1_555
H17 C17 1_555 1_555
H18 C17 1_555 1_555
C18 C16 1_555 1_555
H19 C18 1_555 1_555
C19 O12 1_555 1_555
C20 C19 1_555 1_555
H20 C20 1_555 1_555
C21 C20 1_555 1_555
H21 C21 1_555 1_555
H22 C21 1_555 1_555
C22 C21 1_555 1_555
C23 C6 1_555 1_555
C24 C15 1_555 1_555
H23 C24 1_555 1_555
C25 C16 1_555 1_555
C26 C22 1_555 1_555
C27 O7 1_555 1_555
C28 C26 1_555 1_555
H24 C28 1_555 1_555
H25 C28 1_555 1_555
C29 C25 1_555 1_555
H26 C29 1_555 1_555
H27 C29 1_555 1_555
H28 C29 1_555 1_555
C30 C19 1_555 1_555
H29 C30 1_555 1_555
H30 C30 1_555 1_555
C31 O1 1_555 1_555
C32 C31 1_555 1_555
H31 C32 1_555 1_555
C33 C32 1_555 1_555
C34 C33 1_555 1_555
H32 C34 1_555 1_555
H33 C34 1_555 1_555
C35 C33 1_555 1_555
H34 C35 1_555 1_555
H35 C35 1_555 1_555
H36 C35 1_555 1_555
C36 O3 1_555 1_555
C37 C36 1_555 1_555
H37 C37 1_555 1_555
H38 C37 1_555 1_555
C38 C37 1_555 1_555
H39 C38 1_555 1_555
H40 C38 1_555 1_555
C39 O13 1_555 1_555
O14 H41 1_555 1_555
C40 O14 1_555 1_555
H42 C40 1_555 1_555
H43 C40 1_555 1_555
H44 C40 1_555 1_555
C2 C3 1_555 1_555
C4 C5 1_555 1_555
C5 C10 1_555 1_555
C9 C10 1_555 1_555
C11 C12 1_555 1_555
C17 C18 1_555 1_555
C18 C19 1_555 1_555
C20 C25 1_555 1_555
C22 C23 1_555 1_555
C23 C24 1_555 1_555
C24 C25 1_555 1_555
C26 C27 1_555 1_555
C38 C39 1_555 1_555

#END
