
#######################################################################
#
#                 Cambridge Crystallographic Data Centre
#                                CCDC 
#
#######################################################################
#
# If this CIF has been generated from an entry in the Cambridge 
# Structural Database, then it will include bibliographic, chemical, 
# crystal, experimental, refinement or atomic coordinate data resulting 
# from the CCDC's data processing and validation procedures.
#
#######################################################################

data_UZUTIU
_chemical_formula_moiety         'C20 H21 N1 O5 S1'
_chemical_name_systematic        
'4-(5-methyl-4-((4-methylphenyl)sulfonyl)-3,4-dihydro-2H-1,4-oxazin-2-yl)phenyl acetate'
_symmetry_cell_setting           triclinic
_symmetry_space_group_name_H-M   'P -1'
_symmetry_Int_Tables_number      2
_space_group_name_Hall           '-P 1'
loop_
_symmetry_equiv_pos_site_id
_symmetry_equiv_pos_as_xyz
1 x,y,z
2 -x,-y,-z
_cell_length_a                   7.2335(18)
_cell_length_b                   10.875(3)
_cell_length_c                   14.080(4)
_cell_angle_alpha                69.0021(18)
_cell_angle_beta                 89.600(2)
_cell_angle_gamma                73.302(2)
_cell_volume                     984.718
_cell_formula_units_Z            2
loop_
_atom_site_label
_atom_site_type_symbol
_atom_site_fract_x
_atom_site_fract_y
_atom_site_fract_z
S1 S 0.74212(15) 0.51519(9) 0.18309(8)
O1 O 0.5584(5) 0.5922(3) 0.2004(3)
O2 O 0.8726(5) 0.5855(3) 0.1304(2)
O3 O 1.0128(4) 0.1203(3) 0.41560(19)
O4 O 1.8125(6) -0.1693(5) 0.3043(4)
O5 O 1.8074(7) -0.3223(5) 0.4517(5)
N1 N 0.8609(4) 0.4099(3) 0.2975(2)
C1 C 0.6613(15) 0.1093(7) -0.0013(5)
H1 H 0.7518 0.0214 0.0391
H2 H 0.6908 0.1358 -0.0710
H3 H 0.5319 0.1024 0.0017
C2 C 0.6764(11) 0.2173(5) 0.0404(4)
C3 C 0.8302(9) 0.2709(5) 0.0220(4)
H4 H 0.9235 0.2424 -0.0178
C4 C 0.8469(7) 0.3653(4) 0.0617(3)
H5 H 0.9506 0.4013 0.0487
C5 C 0.7079(6) 0.4075(4) 0.1218(3)
C6 C 0.5549(7) 0.3554(5) 0.1397(3)
H6 H 0.4606 0.3839 0.1791
C7 C 0.5417(9) 0.2606(6) 0.0992(4)
H7 H 0.4379 0.2247 0.1121
C8 C 0.5833(7) 0.4177(5) 0.4080(4)
H8 H 0.6000 0.5011 0.4101
H9 H 0.5577 0.3628 0.4742
H10 H 0.4761 0.4406 0.3584
C9 C 0.7639(5) 0.3376(4) 0.3786(3)
C10 C 0.8486(5) 0.2052(4) 0.4332(3)
H11 H 0.7893 0.1654 0.4900
C11 C 1.0605(5) 0.3271(4) 0.2974(3)
H12 H 1.1439 0.3288 0.3503
H13 H 1.1066 0.3672 0.2320
C12 C 1.0720(5) 0.1781(3) 0.3163(3)
H14 H 0.9808 0.1782 0.2651
C13 C 1.2681(5) 0.0856(4) 0.3138(3)
C14 C 1.2869(6) -0.0063(4) 0.2651(3)
H15 H 1.1775 -0.0077 0.2317
C15 C 1.4659(7) -0.0963(5) 0.2653(4)
H16 H 1.4774 -0.1588 0.2330
C16 C 1.6260(6) -0.0922(5) 0.3137(4)
C17 C 1.6125(6) -0.0031(5) 0.3634(4)
H17 H 1.7229 -0.0020 0.3962
C18 C 1.4337(6) 0.0846(4) 0.3642(3)
H18 H 1.4229 0.1443 0.3990
C19 C 1.8775(12) -0.2787(8) 0.3741(6)
C20 C 2.0853(8) -0.3552(7) 0.3494(7)
H19 H 2.0726 -0.3627 0.2841
H20 H 2.1356 -0.4460 0.4014
H21 H 2.1727 -0.3029 0.3480
loop_
_geom_bond_atom_site_label_1
_geom_bond_atom_site_label_2
_geom_bond_site_symmetry_1
_geom_bond_site_symmetry_2
S1 O1 1_555 1_555
O2 S1 1_555 1_555
O3 C10 1_555 1_555
O4 C16 1_555 1_555
O5 C19 1_555 1_555
N1 S1 1_555 1_555
C1 H1 1_555 1_555
H2 C1 1_555 1_555
H3 C1 1_555 1_555
C2 C1 1_555 1_555
C3 C2 1_555 1_555
H4 C3 1_555 1_555
C4 C3 1_555 1_555
H5 C4 1_555 1_555
C5 S1 1_555 1_555
C6 C5 1_555 1_555
H6 C6 1_555 1_555
C7 C2 1_555 1_555
H7 C7 1_555 1_555
C8 H8 1_555 1_555
H9 C8 1_555 1_555
H10 C8 1_555 1_555
C9 N1 1_555 1_555
C10 C9 1_555 1_555
H11 C10 1_555 1_555
C11 N1 1_555 1_555
H12 C11 1_555 1_555
H13 C11 1_555 1_555
C12 O3 1_555 1_555
H14 C12 1_555 1_555
C13 C12 1_555 1_555
C14 C13 1_555 1_555
H15 C14 1_555 1_555
C15 C14 1_555 1_555
H16 C15 1_555 1_555
C16 C15 1_555 1_555
C17 C16 1_555 1_555
H17 C17 1_555 1_555
C18 C13 1_555 1_555
H18 C18 1_555 1_555
C19 O4 1_555 1_555
C20 C19 1_555 1_555
H19 C20 1_555 1_555
H20 C20 1_555 1_555
H21 C20 1_555 1_555
C4 C5 1_555 1_555
C6 C7 1_555 1_555
C8 C9 1_555 1_555
C11 C12 1_555 1_555
C17 C18 1_555 1_555

#END
