
#######################################################################
#
#                 Cambridge Crystallographic Data Centre
#                                CCDC 
#
#######################################################################
#
# If this CIF has been generated from an entry in the Cambridge 
# Structural Database, then it will include bibliographic, chemical, 
# crystal, experimental, refinement or atomic coordinate data resulting 
# from the CCDC's data processing and validation procedures.
#
#######################################################################

data_UZUTOA
_chemical_formula_moiety         'C18 H21 N1 O3 S1'
_chemical_name_systematic        
5-methyl-4-((4-methylphenyl)sulfonyl)-2-phenylmorpholine
_symmetry_cell_setting           monoclinic
_symmetry_space_group_name_H-M   'P 21/c'
_symmetry_Int_Tables_number      14
_space_group_name_Hall           '-P 2ybc'
loop_
_symmetry_equiv_pos_site_id
_symmetry_equiv_pos_as_xyz
1 x,y,z
2 -x,1/2+y,1/2-z
3 -x,-y,-z
4 x,1/2-y,1/2+z
_cell_length_a                   13.490(4)
_cell_length_b                   7.784(3)
_cell_length_c                   16.677(5)
_cell_angle_alpha                90
_cell_angle_beta                 105.231(3)
_cell_angle_gamma                90
_cell_volume                     1689.68
_cell_formula_units_Z            4
loop_
_atom_site_label
_atom_site_type_symbol
_atom_site_fract_x
_atom_site_fract_y
_atom_site_fract_z
S1 S 0.20792(6) 0.59744(11) 0.64468(5)
O1 O 0.42883(16) 1.0055(2) 0.66357(12)
O2 O 0.14446(15) 0.6151(3) 0.70048(13)
O3 O 0.24919(15) 0.4332(2) 0.63219(13)
N1 N 0.30453(17) 0.7238(3) 0.67733(15)
C1 C 0.5374(3) 0.7625(4) 0.52147(19)
H1 H 0.4776 0.7267 0.4832
C2 C 0.6311(3) 0.7381(4) 0.5048(2)
H2 H 0.6345 0.6848 0.4557
C3 C 0.7192(3) 0.7923(5) 0.5605(3)
H3 H 0.7825 0.7764 0.5492
C4 C 0.7138(3) 0.8701(5) 0.6330(2)
H4 H 0.7736 0.9077 0.6707
C5 C 0.6208(3) 0.8927(4) 0.6499(2)
H5 H 0.6179 0.9445 0.6995
C6 C 0.5316(2) 0.8396(4) 0.59449(19)
C7 C 0.4286(2) 0.8594(4) 0.61180(18)
H6 H 0.3765 0.8763 0.5590
C8 C 0.4010(2) 0.7015(4) 0.65423(19)
H7 H 0.3950 0.6037 0.6172
H8 H 0.4557 0.6774 0.7037
C9 C 0.2961(2) 0.8858(4) 0.72111(19)
H9 H 0.2237 0.9030 0.7196
C10 C 0.3571(3) 0.8754(4) 0.81139(19)
H10 H 0.3313 0.7830 0.8382
H11 H 0.3506 0.9816 0.8388
H12 H 0.4282 0.8551 0.8143
C11 C 0.3291(3) 1.0320(4) 0.6748(2)
H13 H 0.2802 1.0442 0.6208
H14 H 0.3286 1.1379 0.7053
C12 C 0.1355(2) 0.6686(4) 0.54660(18)
C13 C 0.1739(3) 0.6539(5) 0.4786(2)
H15 H 0.2387 0.6069 0.4841
C14 C 0.1162(3) 0.7089(5) 0.4019(2)
H16 H 0.1437 0.7008 0.3564
C15 C 0.0193(2) 0.7751(4) 0.3908(2)
C16 C -0.0174(3) 0.7865(5) 0.4591(2)
H17 H -0.0830 0.8306 0.4532
C17 C 0.0393(2) 0.7350(4) 0.5372(2)
H18 H 0.0122 0.7456 0.5829
C18 C -0.0430(3) 0.8309(5) 0.3064(2)
H19 H -0.0401 0.9537 0.3022
H20 H -0.1131 0.7954 0.2986
H21 H -0.0157 0.7793 0.2645
loop_
_geom_bond_atom_site_label_1
_geom_bond_atom_site_label_2
_geom_bond_site_symmetry_1
_geom_bond_site_symmetry_2
S1 O2 1_555 1_555
O1 C7 1_555 1_555
O3 S1 1_555 1_555
N1 S1 1_555 1_555
C1 H1 1_555 1_555
C2 C1 1_555 1_555
H2 C2 1_555 1_555
C3 C2 1_555 1_555
H3 C3 1_555 1_555
C4 C3 1_555 1_555
H4 C4 1_555 1_555
C5 C4 1_555 1_555
H5 C5 1_555 1_555
C6 C1 1_555 1_555
C7 C6 1_555 1_555
H6 C7 1_555 1_555
C8 N1 1_555 1_555
H7 C8 1_555 1_555
H8 C8 1_555 1_555
C9 N1 1_555 1_555
H9 C9 1_555 1_555
C10 C9 1_555 1_555
H10 C10 1_555 1_555
H11 C10 1_555 1_555
H12 C10 1_555 1_555
C11 O1 1_555 1_555
H13 C11 1_555 1_555
H14 C11 1_555 1_555
C12 S1 1_555 1_555
C13 C12 1_555 1_555
H15 C13 1_555 1_555
C14 C13 1_555 1_555
H16 C14 1_555 1_555
C15 C14 1_555 1_555
C16 C15 1_555 1_555
H17 C16 1_555 1_555
C17 C12 1_555 1_555
H18 C17 1_555 1_555
C18 C15 1_555 1_555
H19 C18 1_555 1_555
H20 C18 1_555 1_555
H21 C18 1_555 1_555
C5 C6 1_555 1_555
C7 C8 1_555 1_555
C9 C11 1_555 1_555
C16 C17 1_555 1_555

#END
