
#######################################################################
#
#                 Cambridge Crystallographic Data Centre
#                                CCDC 
#
#######################################################################
#
# If this CIF has been generated from an entry in the Cambridge 
# Structural Database, then it will include bibliographic, chemical, 
# crystal, experimental, refinement or atomic coordinate data resulting 
# from the CCDC's data processing and validation procedures.
#
#######################################################################

data_UZUZIZ
_chemical_compound_source        'leaves and twigs of Fatsia polycarpa'
_chemical_name_common            'Fatsicarpain A'
_chemical_formula_moiety         'C30 H46 O4'
_chemical_name_systematic        
'3,23-Dihydroxyoleana-11,13(18)-dien-28-oic acid'
_chemical_properties_biological  
'antibacterial activity and moderate cytotoxic activity'
_symmetry_cell_setting           orthorhombic
_symmetry_space_group_name_H-M   'P 21 21 21'
_symmetry_Int_Tables_number      19
_space_group_name_Hall           'P 2ac 2ab'
loop_
_symmetry_equiv_pos_site_id
_symmetry_equiv_pos_as_xyz
1 x,y,z
2 1/2-x,-y,1/2+z
3 -x,1/2+y,1/2-z
4 1/2+x,1/2-y,-z
_cell_length_a                   8.0495(3)
_cell_length_b                   17.7248(6)
_cell_length_c                   19.2463(7)
_cell_angle_alpha                90
_cell_angle_beta                 90
_cell_angle_gamma                90
_cell_volume                     2745.98
_exptl_crystal_colour            colorless
_exptl_crystal_description       parallelepiped
_cell_formula_units_Z            4
loop_
_atom_site_label
_atom_site_type_symbol
_atom_site_fract_x
_atom_site_fract_y
_atom_site_fract_z
O1 O -0.13695(18) 1.40936(8) 0.64961(7)
H1 H -0.210(3) 1.4340(15) 0.6454(14)
C1 C -0.2256(2) 1.27234(12) 0.73211(10)
H2 H -0.3096 1.2447 0.7597
H3 H -0.1931 1.3178 0.7588
O2 O 0.17416(19) 1.40576(8) 0.60982(8)
H4 H 0.109(4) 1.4213(16) 0.6275(15)
C2 C -0.3031(2) 1.29676(12) 0.66375(11)
H5 H -0.3994 1.3299 0.6734
H6 H -0.3445 1.2517 0.6388
O3 O 0.64847(17) 1.00184(8) 0.96482(8)
H7 H 0.693(3) 0.9709(15) 0.9426(14)
C3 C -0.1799(2) 1.33866(10) 0.61758(10)
H8 H -0.2336 1.3490 0.5717
O4 O 0.43270(16) 0.97444(7) 0.89742(7)
C4 C -0.0177(2) 1.29452(10) 0.60518(10)
C5 C 0.0525(2) 1.26712(10) 0.67611(9)
H9 H 0.0747 1.3144 0.7029
C6 C 0.2213(2) 1.22810(11) 0.67065(9)
H10 H 0.2949 1.2577 0.6397
H11 H 0.2067 1.1774 0.6499
C7 C 0.3029(2) 1.22035(10) 0.74254(9)
H12 H 0.4098 1.1932 0.7375
H13 H 0.3274 1.2713 0.7610
C8 C 0.1939(2) 1.17817(10) 0.79456(9)
C9 C 0.0165(2) 1.21276(10) 0.79448(9)
H14 H 0.0320 1.2656 0.8116
C10 C -0.0713(2) 1.22152(10) 0.72229(10)
C11 C -0.0853(2) 1.17495(11) 0.84951(10)
H15 H -0.2029 1.1771 0.8456
C12 C -0.0207(2) 1.13862(11) 0.90345(10)
H16 H -0.0945 1.1154 0.9354
C13 C 0.1598(2) 1.13232(10) 0.91657(9)
C14 C 0.2608(2) 1.18636(10) 0.87184(9)
C15 C 0.4477(2) 1.16866(10) 0.87611(9)
H17 H 0.4735 1.1249 0.8460
H18 H 0.5120 1.2125 0.8590
C16 C 0.4984(2) 1.15098(10) 0.95059(9)
H19 H 0.4708 1.1945 0.9807
H20 H 0.6201 1.1432 0.9526
C17 C 0.4100(2) 1.08014(10) 0.97819(9)
C18 C 0.2249(2) 1.08192(10) 0.96073(9)
C19 C 0.1259(2) 1.02186(10) 0.99786(9)
H21 H 0.1595 0.9719 0.9796
H22 H 0.0068 1.0290 0.9868
C20 C 0.1464(2) 1.02143(10) 1.07747(9)
C21 C 0.3324(2) 1.01502(10) 1.09304(10)
H23 H 0.3497 1.0181 1.1439
H24 H 0.3727 0.9651 1.0773
C22 C 0.4340(2) 1.07632(10) 1.05779(9)
H25 H 0.5530 1.0676 1.0678
H26 H 0.4032 1.1257 1.0781
C23 C -0.0500(3) 1.23149(12) 0.55211(10)
H27 H -0.0938 1.2534 0.5091
H28 H -0.1309 1.1958 0.5712
H29 H 0.0542 1.2050 0.5422
C24 C 0.1072(2) 1.34635(11) 0.56779(10)
H30 H 0.2001 1.3151 0.5503
H31 H 0.0515 1.3691 0.5270
C25 C -0.1264(3) 1.14444(12) 0.69371(12)
H32 H -0.166(3) 1.1111(12) 0.7332(11)
H33 H -0.048(4) 1.1220(18) 0.6663(17)
H34 H -0.225(3) 1.1483(12) 0.6622(12)
C26 C 0.1943(2) 1.09379(10) 0.77475(10)
H35 H 0.1532 1.0879 0.7271
H36 H 0.1221 1.0659 0.8067
H37 H 0.3077 1.0740 0.7779
C27 C 0.2367(2) 1.26707(10) 0.90077(10)
H38 H 0.2795 1.2695 0.9484
H39 H 0.1182 1.2797 0.9007
H40 H 0.2971 1.3031 0.8715
C28 C 0.4940(2) 1.01262(10) 0.94273(10)
C29 C 0.0705(3) 1.09332(11) 1.10813(11)
H41 H 0.0838 1.0929 1.1587
H42 H -0.0479 1.0955 1.0965
H43 H 0.1272 1.1375 1.0888
C30 C 0.0520(2) 0.95355(11) 1.10655(11)
H44 H 0.0636 0.9524 1.1572
H45 H 0.0976 0.9070 1.0867
H46 H -0.0659 0.9578 1.0943
loop_
_geom_bond_atom_site_label_1
_geom_bond_atom_site_label_2
_geom_bond_site_symmetry_1
_geom_bond_site_symmetry_2
O1 H1 1_555 1_555
C1 H2 1_555 1_555
H3 C1 1_555 1_555
O2 H4 1_555 1_555
C2 C1 1_555 1_555
H5 C2 1_555 1_555
H6 C2 1_555 1_555
O3 H7 1_555 1_555
C3 O1 1_555 1_555
H8 C3 1_555 1_555
O4 C28 1_555 1_555
C4 C3 1_555 1_555
C5 C4 1_555 1_555
H9 C5 1_555 1_555
C6 C5 1_555 1_555
H10 C6 1_555 1_555
H11 C6 1_555 1_555
C7 C6 1_555 1_555
H12 C7 1_555 1_555
H13 C7 1_555 1_555
C8 C7 1_555 1_555
C9 C8 1_555 1_555
H14 C9 1_555 1_555
C10 C1 1_555 1_555
C11 C9 1_555 1_555
H15 C11 1_555 1_555
C12 C11 1_555 1_555
H16 C12 1_555 1_555
C13 C12 1_555 1_555
C14 C8 1_555 1_555
C15 C14 1_555 1_555
H17 C15 1_555 1_555
H18 C15 1_555 1_555
C16 C15 1_555 1_555
H19 C16 1_555 1_555
H20 C16 1_555 1_555
C17 C16 1_555 1_555
C18 C13 1_555 1_555
C19 C18 1_555 1_555
H21 C19 1_555 1_555
H22 C19 1_555 1_555
C20 C19 1_555 1_555
C21 C20 1_555 1_555
H23 C21 1_555 1_555
H24 C21 1_555 1_555
C22 C17 1_555 1_555
H25 C22 1_555 1_555
H26 C22 1_555 1_555
C23 C4 1_555 1_555
H27 C23 1_555 1_555
H28 C23 1_555 1_555
H29 C23 1_555 1_555
C24 O2 1_555 1_555
H30 C24 1_555 1_555
H31 C24 1_555 1_555
C25 C10 1_555 1_555
H32 C25 1_555 1_555
H33 C25 1_555 1_555
H34 C25 1_555 1_555
C26 C8 1_555 1_555
H35 C26 1_555 1_555
H36 C26 1_555 1_555
H37 C26 1_555 1_555
C27 C14 1_555 1_555
H38 C27 1_555 1_555
H39 C27 1_555 1_555
H40 C27 1_555 1_555
C28 O3 1_555 1_555
C29 C20 1_555 1_555
H41 C29 1_555 1_555
H42 C29 1_555 1_555
H43 C29 1_555 1_555
C30 C20 1_555 1_555
H44 C30 1_555 1_555
H45 C30 1_555 1_555
H46 C30 1_555 1_555
C2 C3 1_555 1_555
C4 C24 1_555 1_555
C5 C10 1_555 1_555
C9 C10 1_555 1_555
C13 C14 1_555 1_555
C17 C18 1_555 1_555
C17 C28 1_555 1_555
C21 C22 1_555 1_555

#END
