
#######################################################################
#
#                 Cambridge Crystallographic Data Centre
#                                CCDC 
#
#######################################################################
#
# If this CIF has been generated from an entry in the Cambridge 
# Structural Database, then it will include bibliographic, chemical, 
# crystal, experimental, refinement or atomic coordinate data resulting 
# from the CCDC's data processing and validation procedures.
#
#######################################################################

data_UZUZEV
_chemical_compound_source        'leaves and twigs of Fatsia polycarpa'
_chemical_formula_moiety         'C30 H46 O3'
_chemical_name_systematic        3\a-Hydroxyolean-11-en-28,13\b-olide
_chemical_properties_biological  
'slight antibacterial activity and moderate cytotoxic activity'
_symmetry_cell_setting           triclinic
_symmetry_space_group_name_H-M   'P 1'
_symmetry_Int_Tables_number      1
_space_group_name_Hall           'P 1'
loop_
_symmetry_equiv_pos_site_id
_symmetry_equiv_pos_as_xyz
1 x,y,z
_cell_length_a                   6.7903(6)
_cell_length_b                   7.0914(5)
_cell_length_c                   14.7228(13)
_cell_angle_alpha                78.885(7)
_cell_angle_beta                 81.171(7)
_cell_angle_gamma                63.150(8)
_cell_volume                     618.86
_exptl_crystal_colour            colorless
_exptl_crystal_description       parallelepiped
_cell_formula_units_Z            1
loop_
_atom_site_label
_atom_site_type_symbol
_atom_site_fract_x
_atom_site_fract_y
_atom_site_fract_z
O1 O 0.3879(4) 0.2508(4) -0.07628(18)
H1 H 0.4142 0.1295 -0.0874
O2 O 0.7526(4) 0.4535(4) 0.40956(17)
O3 O 0.7572(4) 0.6535(4) 0.50887(18)
C1 C 0.7275(6) 0.1080(6) 0.0607(2)
H2 H 0.8516 -0.0133 0.0925
H3 H 0.5903 0.0920 0.0840
C2 C 0.7676(6) 0.0974(6) -0.0440(3)
H4 H 0.9116 0.0999 -0.0665
H5 H 0.7756 -0.0389 -0.0556
C3 C 0.5851(6) 0.2827(6) -0.0981(2)
H6 H 0.6288 0.2748 -0.1657
C4 C 0.5510(6) 0.5010(5) -0.0793(2)
C5 C 0.5233(5) 0.5047(5) 0.0280(2)
H7 H 0.3860 0.4845 0.0491
C6 C 0.4713(6) 0.7200(5) 0.0550(2)
H8 H 0.6068 0.7432 0.0435
H9 H 0.3582 0.8345 0.0155
C7 C 0.3869(6) 0.7349(5) 0.1565(2)
H10 H 0.2408 0.7317 0.1660
H11 H 0.3659 0.8732 0.1715
C8 C 0.5448(5) 0.5529(5) 0.2234(2)
C9 C 0.6135(6) 0.3352(5) 0.1891(2)
H12 H 0.4716 0.3224 0.1926
C10 C 0.7062(6) 0.3171(5) 0.0859(2)
C11 C 0.7503(5) 0.1531(5) 0.2591(2)
H13 H 0.8488 0.0212 0.2380
C12 C 0.7404(6) 0.1673(5) 0.3487(2)
H14 H 0.8271 0.0426 0.3882
C13 C 0.6019(6) 0.3662(5) 0.3911(2)
C14 C 0.4278(6) 0.5386(5) 0.3248(2)
C15 C 0.3292(6) 0.7516(5) 0.3638(2)
H15 H 0.1953 0.8535 0.3316
H16 H 0.4380 0.8123 0.3511
C16 C 0.2675(6) 0.7255(5) 0.4689(2)
H17 H 0.1354 0.6968 0.4803
H18 H 0.2284 0.8608 0.4923
C17 C 0.4580(6) 0.5418(5) 0.5233(2)
C18 C 0.5126(5) 0.3286(5) 0.4932(2)
H19 H 0.6465 0.2240 0.5261
C19 C 0.3365(6) 0.2450(6) 0.5277(2)
H20 H 0.3875 0.1016 0.5099
H21 H 0.1963 0.3419 0.4988
C20 C 0.2977(6) 0.2329(6) 0.6346(2)
C21 C 0.2407(6) 0.4477(6) 0.6637(2)
H22 H 0.2233 0.4333 0.7323
H23 H 0.0963 0.5529 0.6404
C22 C 0.4116(6) 0.5349(6) 0.6290(2)
H24 H 0.3556 0.6804 0.6454
H25 H 0.5507 0.4429 0.6596
C23 C 0.3372(6) 0.6728(6) -0.1225(3)
H26 H 0.2105 0.6477 -0.0923
H27 H 0.3495 0.6653 -0.1890
H28 H 0.3159 0.8144 -0.1136
C24 C 0.7413(6) 0.5487(6) -0.1304(3)
H29 H 0.7474 0.5428 -0.1968
H30 H 0.8814 0.4424 -0.1055
H31 H 0.7167 0.6914 -0.1215
C25 C 0.9384(6) 0.3135(6) 0.0686(3)
H32 H 0.9229 0.4602 0.0557
H33 H 1.0184 0.2388 0.0153
H34 H 1.0211 0.2392 0.1237
C26 C 0.7468(6) 0.5979(6) 0.2226(2)
H35 H 0.8143 0.6057 0.1590
H36 H 0.8552 0.4827 0.2626
H37 H 0.6994 0.7338 0.2456
C27 C 0.2404(6) 0.4753(6) 0.3237(3)
H38 H 0.1693 0.4667 0.3865
H39 H 0.3010 0.3361 0.3020
H40 H 0.1309 0.5827 0.2819
C28 C 0.6690(6) 0.5623(5) 0.4838(2)
C29 C 0.1024(6) 0.1772(6) 0.6657(3)
H41 H -0.0302 0.2887 0.6369
H42 H 0.0759 0.1672 0.7334
H43 H 0.1364 0.0400 0.6467
C30 C 0.5022(6) 0.0536(6) 0.6818(3)
H44 H 0.6305 0.0846 0.6629
H45 H 0.5330 -0.0831 0.6631
H46 H 0.4727 0.0455 0.7494
loop_
_geom_bond_atom_site_label_1
_geom_bond_atom_site_label_2
_geom_bond_site_symmetry_1
_geom_bond_site_symmetry_2
O1 H1 1_555 1_555
O2 C13 1_555 1_555
O3 C28 1_555 1_555
C1 H2 1_555 1_555
H3 C1 1_555 1_555
C2 C1 1_555 1_555
H4 C2 1_555 1_555
H5 C2 1_555 1_555
C3 O1 1_555 1_555
H6 C3 1_555 1_555
C4 C3 1_555 1_555
C5 C4 1_555 1_555
H7 C5 1_555 1_555
C6 C5 1_555 1_555
H8 C6 1_555 1_555
H9 C6 1_555 1_555
C7 C6 1_555 1_555
H10 C7 1_555 1_555
H11 C7 1_555 1_555
C8 C7 1_555 1_555
C9 C8 1_555 1_555
H12 C9 1_555 1_555
C10 C1 1_555 1_555
C11 C9 1_555 1_555
H13 C11 1_555 1_555
C12 C11 1_555 1_555
H14 C12 1_555 1_555
C13 C12 1_555 1_555
C14 C8 1_555 1_555
C15 C14 1_555 1_555
H15 C15 1_555 1_555
H16 C15 1_555 1_555
C16 C15 1_555 1_555
H17 C16 1_555 1_555
H18 C16 1_555 1_555
C17 C16 1_555 1_555
C18 C13 1_555 1_555
H19 C18 1_555 1_555
C19 C18 1_555 1_555
H20 C19 1_555 1_555
H21 C19 1_555 1_555
C20 C19 1_555 1_555
C21 C20 1_555 1_555
H22 C21 1_555 1_555
H23 C21 1_555 1_555
C22 C17 1_555 1_555
H24 C22 1_555 1_555
H25 C22 1_555 1_555
C23 C4 1_555 1_555
H26 C23 1_555 1_555
H27 C23 1_555 1_555
H28 C23 1_555 1_555
C24 C4 1_555 1_555
H29 C24 1_555 1_555
H30 C24 1_555 1_555
H31 C24 1_555 1_555
C25 C10 1_555 1_555
H32 C25 1_555 1_555
H33 C25 1_555 1_555
H34 C25 1_555 1_555
C26 C8 1_555 1_555
H35 C26 1_555 1_555
H36 C26 1_555 1_555
H37 C26 1_555 1_555
C27 C14 1_555 1_555
H38 C27 1_555 1_555
H39 C27 1_555 1_555
H40 C27 1_555 1_555
C28 O2 1_555 1_555
C29 C20 1_555 1_555
H41 C29 1_555 1_555
H42 C29 1_555 1_555
H43 C29 1_555 1_555
C30 C20 1_555 1_555
H44 C30 1_555 1_555
H45 C30 1_555 1_555
H46 C30 1_555 1_555
C2 C3 1_555 1_555
C5 C10 1_555 1_555
C9 C10 1_555 1_555
C13 C14 1_555 1_555
C17 C18 1_555 1_555
C17 C28 1_555 1_555
C21 C22 1_555 1_555

#END
