
#######################################################################
#
#                 Cambridge Crystallographic Data Centre
#                                CCDC 
#
#######################################################################
#
# If this CIF has been generated from an entry in the Cambridge 
# Structural Database, then it will include bibliographic, chemical, 
# crystal, experimental, refinement or atomic coordinate data resulting 
# from the CCDC's data processing and validation procedures.
#
#######################################################################

data_VABDIN
_chemical_formula_moiety         'C36 H30 N6 O3 S3'
_chemical_name_systematic        
5,5',5''-Triphenyl-2,2',2''-[2,4,6-trimethylbenzene-1,3,5-triyltris(methylidenesulfanediyl)]tris(1,3,4-oxadiazole)
_symmetry_cell_setting           monoclinic
_symmetry_space_group_name_H-M   'P 21/c'
_symmetry_Int_Tables_number      14
_space_group_name_Hall           '-P 2ybc'
loop_
_symmetry_equiv_pos_site_id
_symmetry_equiv_pos_as_xyz
1 x,y,z
2 -x,1/2+y,1/2-z
3 -x,-y,-z
4 x,1/2-y,1/2+z
_cell_length_a                   19.870(4)
_cell_length_b                   9.1305(18)
_cell_length_c                   18.557(4)
_cell_angle_alpha                90
_cell_angle_beta                 107.00(3)
_cell_angle_gamma                90
_cell_volume                     3219.56
_exptl_crystal_colour            colorless
_exptl_crystal_description       prism
_cell_formula_units_Z            4
_exptl_crystal_recrystallization_method chloroform/ethanol
loop_
_atom_site_label
_atom_site_type_symbol
_atom_site_fract_x
_atom_site_fract_y
_atom_site_fract_z
S1 S 0.18609(4) 0.29928(8) 0.04709(4)
S2 S 0.17834(4) 0.61632(8) 0.36748(4)
S3 S 0.30065(4) 0.98854(9) 0.09276(5)
O1 O 0.24745(9) 0.2057(2) -0.05257(11)
O2 O 0.12205(9) 0.6002(2) 0.47942(11)
O3 O 0.37150(9) 1.2260(2) 0.08047(11)
N1 N 0.16166(13) 0.3621(3) -0.10346(15)
N2 N 0.19355(13) 0.3179(3) -0.15899(14)
N3 N 0.06871(12) 0.7678(3) 0.39516(14)
N4 N 0.03554(12) 0.7624(3) 0.45304(14)
N5 N 0.43389(12) 1.0801(3) 0.17101(15)
N6 N 0.47315(13) 1.2090(3) 0.16849(16)
C1 C 0.17176(14) 0.5716(3) 0.10460(16)
C2 C 0.14838(14) 0.5860(3) 0.16842(16)
C3 C 0.17930(14) 0.6912(3) 0.22331(16)
C4 C 0.23874(15) 0.7703(3) 0.21951(17)
C5 C 0.26506(14) 0.7483(3) 0.15825(17)
C6 C 0.23050(14) 0.6535(3) 0.09961(16)
C7 C 0.13485(14) 0.4691(3) 0.04168(17)
H1 H 0.1292 0.5173 -0.0075
H2 H 0.0874 0.4455 0.0456
C8 C 0.19554(14) 0.2940(3) -0.04264(17)
C9 C 0.24297(14) 0.2274(3) -0.12660(16)
C10 C 0.29139(14) 0.1506(3) -0.15903(16)
C11 C 0.28586(15) 0.1687(3) -0.23545(17)
H3 H 0.2513 0.2328 -0.2656
C12 C 0.33012(15) 0.0942(3) -0.26695(18)
H4 H 0.3259 0.1061 -0.3190
C13 C 0.38190(15) 0.0000(3) -0.22227(19)
H5 H 0.4130 -0.0509 -0.2439
C14 C 0.38718(15) -0.0176(3) -0.14763(19)
H6 H 0.4221 -0.0812 -0.1176
C15 C 0.34215(14) 0.0562(3) -0.11523(17)
H7 H 0.3460 0.0424 -0.0634
C16 C 0.08921(16) 0.4894(4) 0.17749(18)
H8 H 0.0438 0.5355 0.1525
H9 H 0.0940 0.4768 0.2312
H10 H 0.0916 0.3936 0.1546
C17 C 0.14338(15) 0.7269(3) 0.28308(16)
H11 H 0.0922 0.7089 0.2625
H12 H 0.1503 0.8319 0.2965
C18 C 0.11798(14) 0.6706(3) 0.41349(16)
C19 C 0.06834(13) 0.6633(3) 0.50062(16)
C20 C 0.05478(14) 0.6132(3) 0.56941(17)
C21 C -0.00131(14) 0.6715(3) 0.59100(17)
H13 H -0.0313 0.7431 0.5606
C22 C -0.01283(15) 0.6236(4) 0.65760(18)
H14 H -0.0506 0.6633 0.6730
C23 C 0.03049(15) 0.5184(4) 0.70162(18)
H15 H 0.0223 0.4860 0.7470
C24 C 0.08569(16) 0.4605(3) 0.67948(17)
H16 H 0.1150 0.3875 0.7094
C25 C 0.09819(15) 0.5085(3) 0.61421(17)
H17 H 0.1367 0.4699 0.5998
C26 C 0.27447(18) 0.8753(4) 0.2815(2)
H18 H 0.3251 0.8553 0.2982
H19 H 0.2551 0.8631 0.3240
H20 H 0.2664 0.9760 0.2627
C27 C 0.33018(15) 0.8295(3) 0.15422(19)
H21 H 0.3600 0.7651 0.1334
H22 H 0.3580 0.8617 0.2051
C28 C 0.37511(15) 1.0980(3) 0.11886(17)
C29 C 0.43512(13) 1.2908(3) 0.11594(16)
C30 C 0.44873(14) 1.4375(3) 0.09273(17)
C31 C 0.49555(15) 1.5280(4) 0.14417(18)
H23 H 0.5191 1.4929 0.1932
C32 C 0.50769(17) 1.6693(4) 0.1237(2)
H24 H 0.5395 1.7310 0.1589
C33 C 0.47366(17) 1.7209(4) 0.0524(2)
H25 H 0.4816 1.8183 0.0389
C34 C 0.42781(16) 1.6304(4) 0.0003(2)
H26 H 0.4051 1.6652 -0.0491
C35 C 0.41525(15) 1.4894(3) 0.02058(18)
H27 H 0.3837 1.4277 -0.0149
C36 C 0.25732(16) 0.6325(3) 0.03167(18)
H28 H 0.2810 0.7221 0.0230
H29 H 0.2176 0.6114 -0.0128
H30 H 0.2906 0.5506 0.0409
loop_
_geom_bond_atom_site_label_1
_geom_bond_atom_site_label_2
_geom_bond_site_symmetry_1
_geom_bond_site_symmetry_2
S1 C7 1_555 1_555
S2 C17 1_555 1_555
S3 C27 1_555 1_555
O1 C8 1_555 1_555
O2 C18 1_555 1_555
O3 C28 1_555 1_555
N1 N2 1_555 1_555
N2 C9 1_555 1_555
N3 N4 1_555 1_555
N4 C19 1_555 1_555
N5 N6 1_555 1_555
N6 C29 1_555 1_555
C1 C2 1_555 1_555
C2 C3 1_555 1_555
C3 C4 1_555 1_555
C4 C5 1_555 1_555
C5 C6 1_555 1_555
C6 C1 1_555 1_555
C7 C1 1_555 1_555
H1 C7 1_555 1_555
H2 C7 1_555 1_555
C8 S1 1_555 1_555
C9 O1 1_555 1_555
C10 C9 1_555 1_555
C11 C10 1_555 1_555
H3 C11 1_555 1_555
C12 C11 1_555 1_555
H4 C12 1_555 1_555
C13 C12 1_555 1_555
H5 C13 1_555 1_555
C14 C13 1_555 1_555
H6 C14 1_555 1_555
C15 C10 1_555 1_555
H7 C15 1_555 1_555
C16 C2 1_555 1_555
H8 C16 1_555 1_555
H9 C16 1_555 1_555
H10 C16 1_555 1_555
C17 C3 1_555 1_555
H11 C17 1_555 1_555
H12 C17 1_555 1_555
C18 S2 1_555 1_555
C19 O2 1_555 1_555
C20 C19 1_555 1_555
C21 C20 1_555 1_555
H13 C21 1_555 1_555
C22 C21 1_555 1_555
H14 C22 1_555 1_555
C23 C22 1_555 1_555
H15 C23 1_555 1_555
C24 C23 1_555 1_555
H16 C24 1_555 1_555
C25 C20 1_555 1_555
H17 C25 1_555 1_555
C26 C4 1_555 1_555
H18 C26 1_555 1_555
H19 C26 1_555 1_555
H20 C26 1_555 1_555
C27 C5 1_555 1_555
H21 C27 1_555 1_555
H22 C27 1_555 1_555
C28 S3 1_555 1_555
C29 O3 1_555 1_555
C30 C29 1_555 1_555
C31 C30 1_555 1_555
H23 C31 1_555 1_555
C32 C31 1_555 1_555
H24 C32 1_555 1_555
C33 C32 1_555 1_555
H25 C33 1_555 1_555
C34 C33 1_555 1_555
H26 C34 1_555 1_555
C35 C30 1_555 1_555
H27 C35 1_555 1_555
C36 C6 1_555 1_555
H28 C36 1_555 1_555
H29 C36 1_555 1_555
H30 C36 1_555 1_555
N1 C8 1_555 1_555
N3 C18 1_555 1_555
N5 C28 1_555 1_555
C14 C15 1_555 1_555
C24 C25 1_555 1_555
C34 C35 1_555 1_555

#END
