
#######################################################################
#
#                 Cambridge Crystallographic Data Centre
#                                CCDC 
#
#######################################################################
#
# If this CIF has been generated from an entry in the Cambridge 
# Structural Database, then it will include bibliographic, chemical, 
# crystal, experimental, refinement or atomic coordinate data resulting 
# from the CCDC's data processing and validation procedures.
#
#######################################################################

data_VABGUD
_chemical_formula_moiety         'C48 H64 O12,2(C12 H10 N2),2(C2 H3 N1)'
_chemical_name_systematic        
'C-Pentylpyrogallol[4]arene bis(1,2-bis(4-pyridyl)ethylene) acetonitrile solvate'
_symmetry_cell_setting           tetragonal
_symmetry_space_group_name_H-M   'P 4/n c c'
_symmetry_Int_Tables_number      130
_space_group_name_Hall           '-P 4a 2ac'
loop_
_symmetry_equiv_pos_site_id
_symmetry_equiv_pos_as_xyz
1 x,y,z
2 1/2-y,x,z
3 1/2-x,1/2-y,z
4 y,1/2-x,z
5 1/2+x,-y,1/2-z
6 -x,1/2+y,1/2-z
7 1/2+y,1/2+x,1/2-z
8 -y,-x,1/2-z
9 -x,-y,-z
10 1/2+y,-x,-z
11 1/2+x,1/2+y,-z
12 -y,1/2+x,-z
13 1/2-x,y,1/2+z
14 x,1/2-y,1/2+z
15 1/2-y,1/2-x,1/2+z
16 y,x,1/2+z
_cell_length_a                   17.1854(4)
_cell_length_b                   17.1854(4)
_cell_length_c                   23.1973(6)
_cell_angle_alpha                90
_cell_angle_beta                 90
_cell_angle_gamma                90
_cell_volume                     6851.04
_exptl_crystal_colour            colorless
_exptl_crystal_description       Plate
_cell_formula_units_Z            4
loop_
_atom_site_label
_atom_site_type_symbol
_atom_site_fract_x
_atom_site_fract_y
_atom_site_fract_z
C1 C 0.43482(18) 0.45715(16) 0.16399(11)
H1 H 0.4202 0.5043 0.1860
H2 H 0.4912 0.4602 0.1557
C2 C 0.3909(2) 0.4565(2) 0.10799(16)
H3 H 0.4037 0.4091 0.0865
H4 H 0.4054 0.5022 0.0852
H5 H 0.3349 0.4577 0.1158
O1 O 0.52997(7) 0.26974(7) 0.46080(5)
H6 H 0.5499 0.2503 0.4906
C3 C 0.38552(9) 0.18413(9) 0.36449(7)
H7 H 0.3546 0.1992 0.3325
O2 O 0.51809(7) 0.12397(7) 0.50537(6)
H8 H 0.5143 0.0762 0.5125
C4 C 0.43746(9) 0.23802(9) 0.38725(7)
O3 O 0.42064(7) 0.01556(7) 0.45884(5)
H9 H 0.3747 -0.0012 0.4595
C5 C 0.48019(9) 0.21673(9) 0.43602(7)
C6 C 0.47318(10) 0.14187(10) 0.45868(7)
C7 C 0.42188(9) 0.08848(9) 0.43392(7)
C8 C 0.44750(9) 0.31829(9) 0.35975(7)
H10 H 0.5015 0.3365 0.3685
C9 C 0.43975(10) 0.31301(10) 0.29377(7)
H11 H 0.4762 0.2727 0.2796
H12 H 0.3864 0.2955 0.2844
C10 C 0.45569(12) 0.38843(11) 0.26127(8)
H13 H 0.5126 0.3963 0.2579
H14 H 0.4338 0.4328 0.2831
C11 C 0.41931(15) 0.38610(13) 0.20080(9)
H15 H 0.4393 0.3397 0.1803
H16 H 0.3623 0.3797 0.2049
C12 C 0.37665(9) 0.10899(9) 0.38643(7)
C1A C 0.04285(16) 0.43482(18) 0.16399(11)
H1A H -0.0043 0.4202 0.1860
H2A H 0.0398 0.4912 0.1557
C2A C 0.0435(2) 0.3909(2) 0.10799(16)
H3A H 0.0909 0.4037 0.0865
H4A H -0.0022 0.4054 0.0852
H5A H 0.0423 0.3349 0.1158
O1A O 0.23026(7) 0.52997(7) 0.46080(5)
H6A H 0.2497 0.5499 0.4906
C3A C 0.31587(9) 0.38552(9) 0.36449(7)
H7A H 0.3008 0.3546 0.3325
O2A O 0.37603(7) 0.51809(7) 0.50537(6)
H8A H 0.4238 0.5143 0.5125
C4A C 0.26198(9) 0.43746(9) 0.38725(7)
O3A O 0.48444(7) 0.42064(7) 0.45884(5)
H9A H 0.5012 0.3747 0.4595
C5A C 0.28327(9) 0.48019(9) 0.43602(7)
C6A C 0.35813(10) 0.47318(10) 0.45868(7)
C7A C 0.41152(9) 0.42188(9) 0.43392(7)
C8A C 0.18171(9) 0.44750(9) 0.35975(7)
H10A H 0.1635 0.5015 0.3685
C9A C 0.18699(10) 0.43975(10) 0.29377(7)
H11A H 0.2273 0.4762 0.2796
H12A H 0.2045 0.3864 0.2844
C10A C 0.11157(11) 0.45569(12) 0.26127(8)
H13A H 0.1037 0.5126 0.2579
H14A H 0.0672 0.4338 0.2831
C11A C 0.11390(13) 0.41931(15) 0.20080(9)
H15A H 0.1603 0.4393 0.1803
H16A H 0.1203 0.3623 0.2049
C12A C 0.39101(9) 0.37665(9) 0.38643(7)
C1C C 0.45715(16) 0.06518(18) 0.16399(11)
H1C H 0.5043 0.0798 0.1860
H2C H 0.4602 0.0088 0.1557
C2C C 0.4565(2) 0.1091(2) 0.10799(16)
H3C H 0.4091 0.0963 0.0865
H4C H 0.5022 0.0946 0.0852
H5C H 0.4577 0.1651 0.1158
O1C O 0.26974(7) -0.02997(7) 0.46080(5)
H6C H 0.2503 -0.0499 0.4906
C3C C 0.18413(9) 0.11448(9) 0.36449(7)
H7C H 0.1992 0.1454 0.3325
O2C O 0.12397(7) -0.01809(7) 0.50537(6)
H8C H 0.0762 -0.0143 0.5125
C4C C 0.23802(9) 0.06254(9) 0.38725(7)
O3C O 0.01556(7) 0.07936(7) 0.45884(5)
H9C H -0.0012 0.1253 0.4595
C5C C 0.21673(9) 0.01981(9) 0.43602(7)
C6C C 0.14187(10) 0.02682(10) 0.45868(7)
C7C C 0.08848(9) 0.07812(9) 0.43392(7)
C8C C 0.31829(9) 0.05250(9) 0.35975(7)
H10C H 0.3365 -0.0015 0.3685
C9C C 0.31301(10) 0.06025(10) 0.29377(7)
H11C H 0.2727 0.0238 0.2796
H12C H 0.2955 0.1136 0.2844
C10C C 0.38843(11) 0.04431(12) 0.26127(8)
H13C H 0.3963 -0.0126 0.2579
H14C H 0.4328 0.0662 0.2831
C11C C 0.38610(13) 0.08069(15) 0.20080(9)
H15C H 0.3397 0.0607 0.1803
H16C H 0.3797 0.1377 0.2049
C12C C 0.10899(9) 0.12335(9) 0.38643(7)
C1B C 0.06518(18) 0.04285(16) 0.16399(11)
H1B H 0.0798 -0.0043 0.1860
H2B H 0.0088 0.0398 0.1557
C2B C 0.1091(2) 0.0435(2) 0.10799(16)
H3B H 0.0963 0.0909 0.0865
H4B H 0.0946 -0.0022 0.0852
H5B H 0.1651 0.0423 0.1158
O1B O -0.02997(7) 0.23026(7) 0.46080(5)
H6B H -0.0499 0.2497 0.4906
C3B C 0.11448(9) 0.31587(9) 0.36449(7)
H7B H 0.1454 0.3008 0.3325
O2B O -0.01809(7) 0.37603(7) 0.50537(6)
H8B H -0.0143 0.4238 0.5125
C4B C 0.06254(9) 0.26198(9) 0.38725(7)
O3B O 0.07936(7) 0.48444(7) 0.45884(5)
H9B H 0.1253 0.5012 0.4595
C5B C 0.01981(9) 0.28327(9) 0.43602(7)
C6B C 0.02682(10) 0.35813(10) 0.45868(7)
C7B C 0.07812(9) 0.41152(9) 0.43392(7)
C8B C 0.05250(9) 0.18171(9) 0.35975(7)
H10B H -0.0015 0.1635 0.3685
C9B C 0.06025(10) 0.18699(10) 0.29377(7)
H11B H 0.0238 0.2273 0.2796
H12B H 0.1136 0.2045 0.2844
C10B C 0.04431(12) 0.11157(11) 0.26127(8)
H13B H -0.0126 0.1037 0.2579
H14B H 0.0662 0.0672 0.2831
C11B C 0.08069(15) 0.11390(13) 0.20080(9)
H15B H 0.0607 0.1603 0.1803
H16B H 0.1377 0.1203 0.2049
C12B C 0.12335(9) 0.39101(9) 0.38643(7)
N1 N 0.74611(10) 0.10685(9) 0.43941(7)
C13 C 0.68678(11) 0.15659(12) 0.43395(8)
H17 H 0.6604 0.1728 0.4679
C14 C 0.66171(12) 0.18566(12) 0.38159(9)
H18 H 0.6200 0.2219 0.3802
C15 C 0.69778(12) 0.16170(12) 0.33110(8)
C16 C 0.76137(13) 0.11105(13) 0.33664(9)
H19 H 0.7890 0.0942 0.3035
C17 C 0.78346(13) 0.08580(13) 0.39103(8)
H20 H 0.8270 0.0520 0.3942
C18 C 0.66825(12) 0.19125(12) 0.27579(8)
H21 H 0.6292 0.2303 0.2773
N1F N 0.60685(9) 0.24611(10) 0.06059(7)
C13F C 0.65659(12) 0.18678(11) 0.06605(8)
H17F H 0.6728 0.1604 0.0321
C14F C 0.68566(12) 0.16171(12) 0.11841(9)
H18F H 0.7219 0.1200 0.1198
C15F C 0.66170(12) 0.19778(12) 0.16890(8)
C16F C 0.61105(13) 0.26137(13) 0.16336(9)
H19F H 0.5942 0.2890 0.1965
C17F C 0.58580(13) 0.28346(13) 0.10897(8)
H20F H 0.5520 0.3270 0.1058
C18F C 0.69125(12) 0.16825(12) 0.22421(8)
H21F H 0.7303 0.1292 0.2227
N2 N 0.2500 0.2500 0.2484(3)
C19 C 0.2500 0.2500 0.2005(3)
C20 C 0.2500 0.2500 0.1317(7)
C21? C 0.3682(13) 0.4151(12) 0.1819(8)
H22? H 0.3669 0.4685 0.1980
H23? H 0.3217 0.3879 0.1971
C22? C 0.3559(14) 0.4235(17) 0.1135(9)
H24? H 0.3913 0.4633 0.0984
H25? H 0.3020 0.4387 0.1055
H26? H 0.3669 0.3735 0.0948
H27? H 0.3016 0.2651 0.1176
H28? H 0.2111 0.2871 0.1176
H29? H 0.2373 0.1978 0.1176
N3? N 0.2500 0.2500 -0.0240(4)
C23? C 0.2404(18) 0.1900(7) -0.0025(8)
C24? C 0.2485(15) 0.1279(9) 0.0392(7)
H30? H 0.2045 0.1294 0.0661
H31? H 0.2491 0.0777 0.0191
H32? H 0.2972 0.1346 0.0605
loop_
_geom_bond_atom_site_label_1
_geom_bond_atom_site_label_2
_geom_bond_site_symmetry_1
_geom_bond_site_symmetry_2
C1 H1 1_555 1_555
H2 C1 1_555 1_555
C2 C1 1_555 1_555
H3 C2 1_555 1_555
H4 C2 1_555 1_555
H5 C2 1_555 1_555
O1 H6 1_555 1_555
C3 H7 1_555 1_555
O2 H8 1_555 1_555
C4 C3 1_555 1_555
O3 H9 1_555 1_555
C5 O1 1_555 1_555
C6 O2 1_555 1_555
C7 O3 1_555 1_555
C8 C4 1_555 1_555
H10 C8 1_555 1_555
C9 C8 1_555 1_555
H11 C9 1_555 1_555
H12 C9 1_555 1_555
C10 C9 1_555 1_555
H13 C10 1_555 1_555
H14 C10 1_555 1_555
C11 C1 1_555 1_555
H15 C11 1_555 1_555
H16 C11 1_555 1_555
C12 C3 1_555 1_555
N1 C13 1_555 1_555
C13 H17 1_555 1_555
C14 C13 1_555 1_555
H18 C14 1_555 1_555
C15 C14 1_555 1_555
C16 C15 1_555 1_555
H19 C16 1_555 1_555
C17 N1 1_555 1_555
H20 C17 1_555 1_555
C18 C15 1_555 1_555
H21 C18 1_555 1_555
N2 C19 1_555 1_555
C19 C20 1_555 1_555
C1A H1A 1_555 1_555
H2A C1A 1_555 1_555
C2A C1A 1_555 1_555
H3A C2A 1_555 1_555
H4A C2A 1_555 1_555
H5A C2A 1_555 1_555
O1A H6A 1_555 1_555
C3A H7A 1_555 1_555
O2A H8A 1_555 1_555
C4A C3A 1_555 1_555
O3A H9A 1_555 1_555
C5A O1A 1_555 1_555
C6A O2A 1_555 1_555
C7A O3A 1_555 1_555
C8A C4A 1_555 1_555
H10A C8A 1_555 1_555
C9A C8A 1_555 1_555
H11A C9A 1_555 1_555
H12A C9A 1_555 1_555
C10A C9A 1_555 1_555
H13A C10A 1_555 1_555
H14A C10A 1_555 1_555
C11A C1A 1_555 1_555
H15A C11A 1_555 1_555
H16A C11A 1_555 1_555
C12A C8 1_555 1_555
C1C H1C 1_555 1_555
H2C C1C 1_555 1_555
C2C C1C 1_555 1_555
H3C C2C 1_555 1_555
H4C C2C 1_555 1_555
H5C C2C 1_555 1_555
O1C H6C 1_555 1_555
C3C H7C 1_555 1_555
O2C H8C 1_555 1_555
C4C C3C 1_555 1_555
O3C H9C 1_555 1_555
C5C O1C 1_555 1_555
C6C O2C 1_555 1_555
C7C O3C 1_555 1_555
C8C C12 1_555 1_555
H10C C8C 1_555 1_555
C9C C8C 1_555 1_555
H11C C9C 1_555 1_555
H12C C9C 1_555 1_555
C10C C9C 1_555 1_555
H13C C10C 1_555 1_555
H14C C10C 1_555 1_555
C11C C1C 1_555 1_555
H15C C11C 1_555 1_555
H16C C11C 1_555 1_555
C12C C3C 1_555 1_555
C1B H1B 1_555 1_555
H2B C1B 1_555 1_555
C2B C1B 1_555 1_555
H3B C2B 1_555 1_555
H4B C2B 1_555 1_555
H5B C2B 1_555 1_555
O1B H6B 1_555 1_555
C3B H7B 1_555 1_555
O2B H8B 1_555 1_555
C4B C3B 1_555 1_555
O3B H9B 1_555 1_555
C5B O1B 1_555 1_555
C6B O2B 1_555 1_555
C7B O3B 1_555 1_555
C8B C12C 1_555 1_555
H10B C8B 1_555 1_555
C9B C8B 1_555 1_555
H11B C9B 1_555 1_555
H12B C9B 1_555 1_555
C10B C9B 1_555 1_555
H13B C10B 1_555 1_555
H14B C10B 1_555 1_555
C11B C1B 1_555 1_555
H15B C11B 1_555 1_555
H16B C11B 1_555 1_555
C12B C8A 1_555 1_555
N1F C13F 1_555 1_555
C13F H17F 1_555 1_555
C14F C13F 1_555 1_555
H18F C14F 1_555 1_555
C15F C14F 1_555 1_555
C16F C15F 1_555 1_555
H19F C16F 1_555 1_555
C17F N1F 1_555 1_555
H20F C17F 1_555 1_555
C18F C18 1_555 1_555
H21F C18F 1_555 1_555
C4 C5 1_555 1_555
C5 C6 1_555 1_555
C6 C7 1_555 1_555
C7 C12 1_555 1_555
C10 C11 1_555 1_555
C16 C17 1_555 1_555
C3A C12A 1_555 1_555
C4A C5A 1_555 1_555
C5A C6A 1_555 1_555
C6A C7A 1_555 1_555
C7A C12A 1_555 1_555
C10A C11A 1_555 1_555
C4C C5C 1_555 1_555
C4C C8C 1_555 1_555
C5C C6C 1_555 1_555
C6C C7C 1_555 1_555
C7C C12C 1_555 1_555
C10C C11C 1_555 1_555
C3B C12B 1_555 1_555
C4B C5B 1_555 1_555
C4B C8B 1_555 1_555
C5B C6B 1_555 1_555
C6B C7B 1_555 1_555
C7B C12B 1_555 1_555
C10B C11B 1_555 1_555
C15F C18F 1_555 1_555
C16F C17F 1_555 1_555

#END
