
#######################################################################
#
#                 Cambridge Crystallographic Data Centre
#                                CCDC 
#
#######################################################################
#
# If this CIF has been generated from an entry in the Cambridge 
# Structural Database, then it will include bibliographic, chemical, 
# crystal, experimental, refinement or atomic coordinate data resulting 
# from the CCDC's data processing and validation procedures.
#
#######################################################################

data_VABGOX
_chemical_formula_moiety         'C48 H64 O12,C10 H8 N2,2(C2 H3 N1)'
_chemical_name_systematic        
"C-Pentylpyrogallol[4]arene 4,4'-bipyridine acetonitrile solcate"
_symmetry_cell_setting           monoclinic
_symmetry_space_group_name_H-M   'P 21/c'
_symmetry_Int_Tables_number      14
_space_group_name_Hall           '-P 2ybc'
loop_
_symmetry_equiv_pos_site_id
_symmetry_equiv_pos_as_xyz
1 x,y,z
2 -x,1/2+y,1/2-z
3 -x,-y,-z
4 x,1/2-y,1/2+z
_cell_length_a                   16.7516(7)
_cell_length_b                   13.8824(8)
_cell_length_c                   24.8613(10)
_cell_angle_alpha                90
_cell_angle_beta                 96.540(3)
_cell_angle_gamma                90
_cell_volume                     5743.93
_exptl_crystal_colour            colorless
_exptl_crystal_description       Plate
_cell_formula_units_Z            4
loop_
_atom_site_label
_atom_site_type_symbol
_atom_site_fract_x
_atom_site_fract_y
_atom_site_fract_z
O1 O 0.11683(10) 0.93673(13) 0.01118(6)
H1 H 0.0688 0.9243 0.0151
O2 O 0.01290(10) 0.96580(12) -0.27170(6)
H2 H -0.0289 0.9865 -0.2899
C1 C 0.20996(13) 1.07941(16) -0.24541(8)
H3 H 0.2597 1.0685 -0.2239
O3 O -0.00948(10) 1.13133(13) -0.33403(7)
H4 H -0.0102 1.1873 -0.3469
C2 C 0.14872(14) 1.01167(16) -0.24410(8)
O4 O 0.11355(10) 1.25487(12) -0.34295(6)
H5 H 0.1192 1.3065 -0.3253
C3 C 0.07439(13) 1.03135(17) -0.27401(8)
O5 O 0.15020(10) 1.38610(11) -0.26625(6)
H6 H 0.1437 1.4457 -0.2706
C4 C 0.06393(14) 1.11383(17) -0.30568(9)
O6 O 0.14056(10) 1.48956(12) -0.17374(6)
H7 H 0.1394 1.5094 -0.1419
C5 C 0.12784(14) 1.17727(16) -0.30787(8)
O7 O 0.24699(10) 1.46756(12) -0.08667(6)
H8 H 0.2629 1.4402 -0.0572
C6 C 0.20118(13) 1.16266(16) -0.27707(8)
O8 O 0.29579(10) 1.39098(12) 0.00950(6)
H9 H 0.2585 1.4112 0.0264
C7 C 0.26646(14) 1.23956(16) -0.27482(9)
H10 H 0.2511 1.2844 -0.3057
O9 O 0.21238(11) 1.28701(12) 0.07692(7)
H11 H 0.1873 1.2480 0.0947
C8 C 0.31420(13) 1.27962(16) -0.17579(9)
H12 H 0.3519 1.2285 -0.1758
O10 O 0.19454(11) 1.09300(12) 0.06601(6)
H13 H 0.1681 1.0481 0.0498
C9 C 0.26370(13) 1.29777(16) -0.22321(8)
C10 C 0.20513(13) 1.36945(16) -0.22172(9)
O11 O -0.00904(11) 0.88886(17) -0.06398(7)
H14 H -0.0403 0.8670 -0.0899
C11 C 0.20002(13) 1.42110(16) -0.17450(9)
O12 O 0.00769(12) 0.88382(18) -0.17017(7)
H15 H 0.0099 0.9092 -0.2006
C12 C 0.25482(13) 1.40589(16) -0.12865(8)
C13 C 0.31238(13) 1.33249(16) -0.12825(8)
C14 C 0.36863(13) 1.31008(16) -0.07699(8)
H16 H 0.3818 1.3730 -0.0584
C15 C 0.32011(13) 1.14927(17) -0.04298(8)
H17 H 0.3460 1.1185 -0.0704
C16 C 0.32579(13) 1.24879(16) -0.03814(8)
C17 C 0.28894(13) 1.29311(17) 0.00303(9)
C18 C 0.24644(13) 1.23832(17) 0.03726(8)
C19 C 0.23910(13) 1.13963(17) 0.03032(8)
C20 C 0.27789(13) 1.09225(16) -0.00925(8)
C21 C 0.27192(13) 0.98355(17) -0.01623(8)
H18 H 0.2591 0.9566 0.0191
C22 C 0.21098(13) 0.95447(16) -0.11382(9)
H19 H 0.2616 0.9713 -0.1249
C23 C 0.20196(13) 0.95664(16) -0.05858(9)
C24 C 0.12699(14) 0.93372(17) -0.04317(9)
C25 C 0.06381(15) 0.91019(19) -0.08147(10)
C26 C 0.07440(15) 0.90869(19) -0.13627(10)
C27 C 0.14918(14) 0.92884(16) -0.15298(9)
C28 C 0.16159(13) 0.91803(17) -0.21257(8)
H20 H 0.1188 0.8729 -0.2286
C29 C 0.34918(14) 1.19835(17) -0.28307(9)
H21 H 0.3670 1.1552 -0.2523
H22 H 0.3438 1.1589 -0.3164
C30 C 0.41416(14) 1.27470(18) -0.28753(10)
H23 H 0.4210 1.3127 -0.2536
H24 H 0.4657 1.2417 -0.2910
C31 C 0.39620(16) 1.3433(2) -0.33494(11)
H25 H 0.3473 1.3808 -0.3299
H26 H 0.3848 1.3053 -0.3686
C32 C 0.46505(17) 1.4131(2) -0.34140(11)
H27 H 0.4759 1.4521 -0.3080
H28 H 0.5142 1.3758 -0.3460
C33 C 0.4465(2) 1.4799(3) -0.38936(15)
H29 H 0.4369 1.4417 -0.4226
H30 H 0.4922 1.5231 -0.3918
H31 H 0.3986 1.5180 -0.3847
C34 C 0.44842(13) 1.26536(17) -0.08846(9)
H32 H 0.4786 1.2446 -0.0538
H33 H 0.4374 1.2074 -0.1113
C35 C 0.50022(14) 1.33514(17) -0.11697(9)
H34 H 0.4675 1.3621 -0.1492
H35 H 0.5165 1.3893 -0.0922
C36 C 0.57527(15) 1.28870(19) -0.13476(10)
H36 H 0.6013 1.2490 -0.1046
H37 H 0.5591 1.2451 -0.1656
C37 C 0.63563(16) 1.3602(2) -0.15140(12)
H38 H 0.6585 1.3957 -0.1187
H39 H 0.6801 1.3238 -0.1650
C38 C 0.6055(2) 1.4308(3) -0.19282(17)
H40 H 0.5858 1.3971 -0.2264
H41 H 0.6490 1.4747 -0.1997
H42 H 0.5615 1.4678 -0.1800
C39 C 0.35060(14) 0.93565(17) -0.02855(9)
H43 H 0.3623 0.9552 -0.0652
H44 H 0.3953 0.9587 -0.0022
C40 C 0.34645(15) 0.82629(18) -0.02585(9)
H45 H 0.2949 0.8047 -0.0455
H46 H 0.3470 0.8066 0.0125
C41 C 0.41518(15) 0.77560(19) -0.04977(10)
H47 H 0.4114 0.7900 -0.0890
H48 H 0.4669 0.8018 -0.0326
C42 C 0.41510(18) 0.6668(2) -0.04201(12)
H49 H 0.3642 0.6399 -0.0600
H50 H 0.4178 0.6520 -0.0029
C43 C 0.4860(2) 0.6184(3) -0.06529(19)
H51 H 0.4835 0.6328 -0.1040
H52 H 0.4833 0.5486 -0.0601
H53 H 0.5366 0.6430 -0.0466
C44 C 0.24212(14) 0.86993(17) -0.22048(9)
H54 H 0.2475 0.8669 -0.2597
H55 H 0.2865 0.9104 -0.2032
C45 C 0.25062(14) 0.76896(18) -0.19699(9)
H56 H 0.1998 0.7333 -0.2067
H57 H 0.2597 0.7733 -0.1570
C46 C 0.31958(15) 0.71290(18) -0.21721(10)
H58 H 0.3136 0.7149 -0.2573
H59 H 0.3709 0.7450 -0.2041
C47 C 0.32366(17) 0.60902(19) -0.19907(11)
H60 H 0.2703 0.5790 -0.2085
H61 H 0.3359 0.6070 -0.1592
C48 C 0.3864(2) 0.5501(2) -0.22421(14)
H62 H 0.3741 0.5505 -0.2637
H63 H 0.3857 0.4837 -0.2109
H64 H 0.4396 0.5782 -0.2142
N1 N 0.13736(13) 1.56356(15) -0.30185(8)
C49 C 0.09354(15) 1.64214(18) -0.29483(9)
H65 H 0.0580 1.6411 -0.2677
N2 N 0.19622(13) 1.98536(15) -0.45068(8)
C50 C 0.09761(15) 1.72471(18) -0.32529(9)
H66 H 0.0650 1.7788 -0.3192
C51 C 0.15033(14) 1.72813(17) -0.36527(8)
C52 C 0.19610(15) 1.64666(18) -0.37201(9)
H67 H 0.2330 1.6458 -0.3984
C53 C 0.18757(16) 1.56661(18) -0.33999(10)
H68 H 0.2189 1.5111 -0.3454
C54 C 0.17318(15) 1.98794(18) -0.40095(10)
H69 H 0.1697 2.0487 -0.3838
C55 C 0.15421(14) 1.90609(17) -0.37326(9)
H70 H 0.1371 1.9113 -0.3382
C56 C 0.16035(13) 1.81677(17) -0.39685(9)
C57 C 0.18155(16) 1.81379(18) -0.44976(9)
H71 H 0.1843 1.7541 -0.4681
C58 C 0.19825(17) 1.89870(19) -0.47466(10)
H72 H 0.2119 1.8960 -0.5107
N3 N 0.01544(14) 1.13700(18) -0.06022(9)
C59 C 0.06222(15) 1.16172(19) -0.08698(10)
C60 C 0.12156(16) 1.1943(2) -0.12156(12)
H73 H 0.1098 1.2609 -0.1328
H74 H 0.1194 1.1529 -0.1536
H75 H 0.1753 1.1909 -0.1015
N4 N 0.05504(19) 1.4290(2) -0.07416(12)
C61 C 0.04245(18) 1.3942(2) -0.03455(13)
C62 C 0.02706(19) 1.3503(2) 0.01637(12)
H76 H 0.0004 1.2880 0.0092
H77 H -0.0077 1.3926 0.0350
H78 H 0.0781 1.3406 0.0392
loop_
_geom_bond_atom_site_label_1
_geom_bond_atom_site_label_2
_geom_bond_site_symmetry_1
_geom_bond_site_symmetry_2
O1 H1 1_555 1_555
O2 H2 1_555 1_555
C1 H3 1_555 1_555
O3 H4 1_555 1_555
C2 C1 1_555 1_555
O4 H5 1_555 1_555
C3 O2 1_555 1_555
O5 H6 1_555 1_555
C4 O3 1_555 1_555
O6 H7 1_555 1_555
C5 O4 1_555 1_555
O7 H8 1_555 1_555
C6 C1 1_555 1_555
O8 H9 1_555 1_555
C7 C6 1_555 1_555
H10 C7 1_555 1_555
O9 H11 1_555 1_555
C8 H12 1_555 1_555
O10 H13 1_555 1_555
C9 C7 1_555 1_555
C10 O5 1_555 1_555
O11 H14 1_555 1_555
C11 O6 1_555 1_555
O12 H15 1_555 1_555
C12 O7 1_555 1_555
C13 C8 1_555 1_555
C14 C13 1_555 1_555
H16 C14 1_555 1_555
C15 H17 1_555 1_555
C16 C14 1_555 1_555
C17 O8 1_555 1_555
C18 O9 1_555 1_555
C19 O10 1_555 1_555
C20 C15 1_555 1_555
C21 C20 1_555 1_555
H18 C21 1_555 1_555
C22 H19 1_555 1_555
C23 C21 1_555 1_555
C24 O1 1_555 1_555
C25 O11 1_555 1_555
C26 O12 1_555 1_555
C27 C22 1_555 1_555
C28 C2 1_555 1_555
H20 C28 1_555 1_555
C29 C7 1_555 1_555
H21 C29 1_555 1_555
H22 C29 1_555 1_555
C30 C29 1_555 1_555
H23 C30 1_555 1_555
H24 C30 1_555 1_555
C31 C30 1_555 1_555
H25 C31 1_555 1_555
H26 C31 1_555 1_555
C32 C31 1_555 1_555
H27 C32 1_555 1_555
H28 C32 1_555 1_555
C33 C32 1_555 1_555
H29 C33 1_555 1_555
H30 C33 1_555 1_555
H31 C33 1_555 1_555
C34 C14 1_555 1_555
H32 C34 1_555 1_555
H33 C34 1_555 1_555
C35 C34 1_555 1_555
H34 C35 1_555 1_555
H35 C35 1_555 1_555
C36 C35 1_555 1_555
H36 C36 1_555 1_555
H37 C36 1_555 1_555
C37 C36 1_555 1_555
H38 C37 1_555 1_555
H39 C37 1_555 1_555
C38 C37 1_555 1_555
H40 C38 1_555 1_555
H41 C38 1_555 1_555
H42 C38 1_555 1_555
C39 C21 1_555 1_555
H43 C39 1_555 1_555
H44 C39 1_555 1_555
C40 C39 1_555 1_555
H45 C40 1_555 1_555
H46 C40 1_555 1_555
C41 C40 1_555 1_555
H47 C41 1_555 1_555
H48 C41 1_555 1_555
C42 C41 1_555 1_555
H49 C42 1_555 1_555
H50 C42 1_555 1_555
C43 C42 1_555 1_555
H51 C43 1_555 1_555
H52 C43 1_555 1_555
H53 C43 1_555 1_555
C44 C28 1_555 1_555
H54 C44 1_555 1_555
H55 C44 1_555 1_555
C45 C44 1_555 1_555
H56 C45 1_555 1_555
H57 C45 1_555 1_555
C46 C45 1_555 1_555
H58 C46 1_555 1_555
H59 C46 1_555 1_555
C47 C46 1_555 1_555
H60 C47 1_555 1_555
H61 C47 1_555 1_555
C48 C47 1_555 1_555
H62 C48 1_555 1_555
H63 C48 1_555 1_555
H64 C48 1_555 1_555
N1 C49 1_555 1_555
C49 H65 1_555 1_555
N2 C54 1_555 1_555
C50 C49 1_555 1_555
H66 C50 1_555 1_555
C51 C50 1_555 1_555
C52 C51 1_555 1_555
H67 C52 1_555 1_555
C53 N1 1_555 1_555
H68 C53 1_555 1_555
C54 H69 1_555 1_555
C55 C54 1_555 1_555
H70 C55 1_555 1_555
C56 C51 1_555 1_555
C57 C56 1_555 1_555
H71 C57 1_555 1_555
C58 N2 1_555 1_555
H72 C58 1_555 1_555
N3 C59 1_555 1_555
C59 C60 1_555 1_555
C60 H73 1_555 1_555
H74 C60 1_555 1_555
H75 C60 1_555 1_555
N4 C61 1_555 1_555
C61 C62 1_555 1_555
C62 H76 1_555 1_555
H77 C62 1_555 1_555
H78 C62 1_555 1_555
C2 C3 1_555 1_555
C3 C4 1_555 1_555
C4 C5 1_555 1_555
C5 C6 1_555 1_555
C8 C9 1_555 1_555
C9 C10 1_555 1_555
C10 C11 1_555 1_555
C11 C12 1_555 1_555
C12 C13 1_555 1_555
C15 C16 1_555 1_555
C16 C17 1_555 1_555
C17 C18 1_555 1_555
C18 C19 1_555 1_555
C19 C20 1_555 1_555
C22 C23 1_555 1_555
C23 C24 1_555 1_555
C24 C25 1_555 1_555
C25 C26 1_555 1_555
C26 C27 1_555 1_555
C27 C28 1_555 1_555
C52 C53 1_555 1_555
C55 C56 1_555 1_555
C57 C58 1_555 1_555

#END
