
#######################################################################
#
#                 Cambridge Crystallographic Data Centre
#                                CCDC 
#
#######################################################################
#
# If this CIF has been generated from an entry in the Cambridge 
# Structural Database, then it will include bibliographic, chemical, 
# crystal, experimental, refinement or atomic coordinate data resulting 
# from the CCDC's data processing and validation procedures.
#
#######################################################################

data_VABKEQ
_chemical_formula_moiety         'C14 H32 N1 O2 1+,Br1 1-'
_chemical_name_systematic        
'2-Hydroxy-3-octyloxy-N,N,N-trimethylpropan-1-aminium bromide'
_symmetry_cell_setting           monoclinic
_symmetry_space_group_name_H-M   'P 21'
_symmetry_Int_Tables_number      4
_space_group_name_Hall           'P 2yb'
loop_
_symmetry_equiv_pos_site_id
_symmetry_equiv_pos_as_xyz
1 x,y,z
2 -x,1/2+y,-z
_cell_length_a                   5.9713(11)
_cell_length_b                   7.4780(12)
_cell_length_c                   19.992(2)
_cell_angle_alpha                90
_cell_angle_beta                 92.9230(10)
_cell_angle_gamma                90
_cell_volume                     891.549
_exptl_crystal_colour            colorless
_exptl_crystal_description       block
_chemical_melting_point          '340 K'
_cell_formula_units_Z            2
_exptl_crystal_recrystallization_method 'ethyl acetate'
loop_
_atom_site_label
_atom_site_type_symbol
_atom_site_fract_x
_atom_site_fract_y
_atom_site_fract_z
Br1 Br 0.66822(19) 0.4416(9) 0.40071(6)
N1 N 0.0535(12) 0.941(5) 0.3976(4)
O1 O -0.02(4) 0.902(10) 0.186(9)
O2 O -0.389(6) 1.064(4) 0.3144(15)
H1 H -0.3915 1.1580 0.3356
C1 C -0.039(17) 0.883(12) 0.330(5)
H2 H -0.1382 0.7816 0.3346
H3 H 0.0832 0.8449 0.3028
C2 C -0.168(12) 1.034(9) 0.293(3)
H4 H -0.0811 1.1452 0.2950
C3 C -0.205(15) 0.969(10) 0.221(4)
H5 H -0.3176 0.8756 0.2211
H6 H -0.2699 1.0678 0.1952
C4 C 0.190(5) 1.104(5) 0.4099(15)
H7 H 0.2923 1.1176 0.3747
H8 H 0.2727 1.0933 0.4521
H9 H 0.0932 1.2064 0.4107
C5 C 0.206(4) 0.784(5) 0.4109(15)
H10 H 0.3187 0.7822 0.3783
H11 H 0.1202 0.6759 0.4079
H12 H 0.2766 0.7947 0.4549
C6 C -0.1293(12) 0.936(4) 0.4460(4)
H13 H -0.0659 0.9507 0.4907
H14 H -0.2045 0.8222 0.4425
H15 H -0.2347 1.0298 0.4358
C7 C -0.0337(12) 0.978(4) 0.1194(4)
H16 H -0.0355 1.1079 0.1219
H17 H -0.1696 0.9387 0.0952
C8 C 0.169(2) 0.915(5) 0.0850(6)
H18 H 0.2919 0.9934 0.0992
H19 H 0.2056 0.7973 0.1025
C9 C 0.168(2) 0.903(4) 0.0123(6)
H20 H 0.0434 0.9736 -0.0059
H21 H 0.1380 0.7795 0.0001
C10 C 0.375(2) 0.961(5) -0.0225(6)
H22 H 0.5057 0.9083 0.0006
H23 H 0.3888 1.0895 -0.0193
C11 C 0.371(3) 0.907(5) -0.0954(6)
H24 H 0.3381 0.7804 -0.0983
H25 H 0.2489 0.9700 -0.1188
C12 C 0.581(2) 0.941(7) -0.1320(6)
H26 H 0.6494 1.0475 -0.1121
H27 H 0.6818 0.8427 -0.1210
C13 C 0.581(3) 0.964(7) -0.2030(7)
H28 H 0.5496 1.0895 -0.2123
H29 H 0.4562 0.8963 -0.2226
C14 C 0.781(3) 0.916(7) -0.2394(8)
H30 H 0.9120 0.9673 -0.2171
H31 H 0.7654 0.9609 -0.2843
H32 H 0.7959 0.7882 -0.2404
C15? C -0.02(2) 0.979(13) 0.326(6)
C16? C -0.168(16) 0.834(12) 0.292(4)
C17? C -0.22(2) 0.870(17) 0.218(6)
H33? H 0.1120 0.9954 0.3008
H34? H -0.1025 1.0912 0.3248
H35? H -0.3683 0.6949 0.3386
H36? H -0.0803 0.7237 0.2939
H37? H -0.3563 0.9451 0.2117
H38? H -0.2504 0.7592 0.1934
H39? H -0.0705 1.0997 0.1058
H40? H -0.1588 0.9023 0.1052
O3? O -0.01(5) 0.970(11) 0.192(12)
O4? O -0.364(7) 0.801(5) 0.3282(19)
loop_
_geom_bond_atom_site_label_1
_geom_bond_atom_site_label_2
_geom_bond_site_symmetry_1
_geom_bond_site_symmetry_2
N1 C1 1_555 1_555
O1 C3 1_555 1_555
O2 H1 1_555 1_555
C1 H2 1_555 1_555
H3 C1 1_555 1_555
C2 O2 1_555 1_555
H4 C2 1_555 1_555
C3 C2 1_555 1_555
H5 C3 1_555 1_555
H6 C3 1_555 1_555
C4 N1 1_555 1_555
H7 C4 1_555 1_555
H8 C4 1_555 1_555
H9 C4 1_555 1_555
C5 N1 1_555 1_555
H10 C5 1_555 1_555
H11 C5 1_555 1_555
H12 C5 1_555 1_555
C6 N1 1_555 1_555
H13 C6 1_555 1_555
H14 C6 1_555 1_555
H15 C6 1_555 1_555
C7 O1 1_555 1_555
H16 C7 1_555 1_555
H17 C7 1_555 1_555
C8 C7 1_555 1_555
H18 C8 1_555 1_555
H19 C8 1_555 1_555
C9 C8 1_555 1_555
H20 C9 1_555 1_555
H21 C9 1_555 1_555
C10 C9 1_555 1_555
H22 C10 1_555 1_555
H23 C10 1_555 1_555
C11 C10 1_555 1_555
H24 C11 1_555 1_555
H25 C11 1_555 1_555
C12 C11 1_555 1_555
H26 C12 1_555 1_555
H27 C12 1_555 1_555
C13 C12 1_555 1_555
H28 C13 1_555 1_555
H29 C13 1_555 1_555
C14 C13 1_555 1_555
H30 C14 1_555 1_555
H31 C14 1_555 1_555
H32 C14 1_555 1_555
C1 C2 1_555 1_555

#END
