
#######################################################################
#
#                 Cambridge Crystallographic Data Centre
#                                CCDC 
#
#######################################################################
#
# If this CIF has been generated from an entry in the Cambridge 
# Structural Database, then it will include bibliographic, chemical, 
# crystal, experimental, refinement or atomic coordinate data resulting 
# from the CCDC's data processing and validation procedures.
#
#######################################################################

data_VABLUF
_chemical_formula_moiety         'C7 H10 N6'
_chemical_name_systematic        
'1-Methyl-4-(\b-methylhydrazino)pyrazolo(3,4-d)pyrimidine solvate'
_symmetry_cell_setting           monoclinic
_symmetry_space_group_name_H-M   'P 21/c'
_symmetry_Int_Tables_number      14
_space_group_name_Hall           '-P 2ybc'
loop_
_symmetry_equiv_pos_site_id
_symmetry_equiv_pos_as_xyz
1 x,y,z
2 -x,1/2+y,1/2-z
3 -x,-y,-z
4 x,1/2-y,1/2+z
_cell_length_a                   7.495(5)
_cell_length_b                   16.456(9)
_cell_length_c                   7.427(3)
_cell_angle_alpha                90
_cell_angle_beta                 108.85(4)
_cell_angle_gamma                90
_cell_volume                     866.9
_exptl_crystal_colour            colorless
_chemical_melting_point          205-207deg.C
_cell_formula_units_Z            4
loop_
_atom_site_label
_atom_site_type_symbol
_atom_site_fract_x
_atom_site_fract_y
_atom_site_fract_z
N1 N 0.3447(2) 0.0152(1) 0.1470(2)
N2 N 0.1319(2) 0.0352(1) 0.3268(2)
N3 N -0.1126(2) 0.1316(1) 0.1821(2)
N4 N -0.1689(3) 0.1797(1) 0.0226(3)
N5 N 0.3220(2) 0.0805(1) -0.1290(1)
N6 N 0.2273(3) 0.1309(1) -0.2837(2)
C1 C 0.2509(3) 0.0695(1) 0.0094(3)
C2 C 0.2782(3) 0.0024(1) 0.2911(3)
C3 C 0.0416(2) 0.0884(1) 0.1880(3)
C4 C -0.0483(3) 0.1656(1) -0.0695(3)
C5 C 0.0900(3) 0.1083(1) 0.0274(3)
C6 C -0.2218(3) 0.1270(1) 0.3101(3)
C7 C 0.3560(4) 0.1892(2) -0.3230(4)
H1 H 0.356 0.041 0.395
H2 H -0.065(3) 0.194(1) -0.187(3)
H3 H 0.431(3) 0.049(1) -0.129(3)
H4 H 0.197(4) 0.095(2) -0.390(4)
H5 H -0.154 0.086 0.426
H6 H -0.361 0.105 0.234
H7 H -0.232 0.187 0.367
H8 H 0.401 0.233 -0.208
H9 H 0.285 0.221 -0.454
H10 H 0.478 0.158 -0.336
loop_
_geom_bond_atom_site_label_1
_geom_bond_atom_site_label_2
_geom_bond_site_symmetry_1
_geom_bond_site_symmetry_2
N1 C1 1_555 1_555
N2 C2 1_555 1_555
N3 N4 1_555 1_555
N4 C4 1_555 1_555
N5 N6 1_555 1_555
N6 C7 1_555 1_555
C1 N5 1_555 1_555
C2 N1 1_555 1_555
C3 N2 1_555 1_555
C4 C5 1_555 1_555
C5 C1 1_555 1_555
C6 N3 1_555 1_555
C7 H8 1_555 1_555
H1 C2 1_555 1_555
H2 C4 1_555 1_555
H3 N5 1_555 1_555
H4 N6 1_555 1_555
H5 C6 1_555 1_555
H6 C6 1_555 1_555
H7 C6 1_555 1_555
H9 C7 1_555 1_555
H10 C7 1_555 1_555
N3 C3 1_555 1_555
C3 C5 1_555 1_555

#END
