
#######################################################################
#
#                 Cambridge Crystallographic Data Centre
#                                CCDC 
#
#######################################################################
#
# If this CIF has been generated from an entry in the Cambridge 
# Structural Database, then it will include bibliographic, chemical, 
# crystal, experimental, refinement or atomic coordinate data resulting 
# from the CCDC's data processing and validation procedures.
#
#######################################################################

data_VABLIT
_chemical_formula_moiety         'C8 H9 N5'
_chemical_name_systematic        4-(\b-Methylhydrazino)pyrido(2,3-d)pyrimidine
_symmetry_cell_setting           monoclinic
_symmetry_space_group_name_H-M   'C 2/c'
_symmetry_Int_Tables_number      15
_space_group_name_Hall           '-C 2yn'
loop_
_symmetry_equiv_pos_site_id
_symmetry_equiv_pos_as_xyz
1 x,y,z
2 1/2+x,1/2+y,z
3 -x,y,1/2-z
4 1/2-x,1/2+y,1/2-z
5 -x,-y,-z
6 1/2-x,1/2-y,-z
7 x,-y,1/2+z
8 1/2+x,1/2-y,1/2+z
_cell_length_a                   23.320(12)
_cell_length_b                   3.870(2)
_cell_length_c                   18.235(9)
_cell_angle_alpha                90
_cell_angle_beta                 91.68(2)
_cell_angle_gamma                90
_cell_volume                     1644.97
_exptl_crystal_colour            'pale yellow'
_chemical_melting_point          156-158deg.C
_cell_formula_units_Z            8
loop_
_atom_site_label
_atom_site_type_symbol
_atom_site_fract_x
_atom_site_fract_y
_atom_site_fract_z
N1 N 0.1781(1) 0.4328(8) 0.5039(1)
C1 C 0.1298(2) 0.5896(10) 0.4799(2)
C2 C 0.0825(1) 0.6266(10) 0.5226(2)
C3 C 0.0844(1) 0.5063(10) 0.5928(2)
C4 C 0.1332(1) 0.3392(9) 0.6202(2)
C5 C 0.1785(1) 0.3188(9) 0.5728(2)
N2 N 0.2292(1) 0.1542(8) 0.5977(1)
C6 C 0.2314(1) 0.0260(10) 0.6669(2)
N3 N 0.1917(1) 0.0259(8) 0.7141(1)
C7 C 0.1397(1) 0.1865(9) 0.6928(2)
N4 N 0.0966(1) 0.1883(8) 0.7356(1)
N5 N 0.1053(1) 0.0463(8) 0.8053(1)
C8 C 0.0513(2) -0.0922(10) 0.8324(2)
H1 H 0.130(1) 0.672(8) 0.430(1)
H2 H 0.047(2) 0.764(10) 0.501(2)
H3 H 0.055(1) 0.542(7) 0.626(2)
H4 H 0.264(1) -0.091(8) 0.679(2)
H5 H 0.081(7) 0.432(8) 0.734(9)
H6 H 0.134(1) -0.140(9) 0.805(2)
H7 H 0.020(1) 0.111(1) 0.833(1)
H8 H 0.058(1) -0.192(1) 0.887(1)
H9 H 0.036(1) -0.297(1) 0.797(1)
loop_
_geom_bond_atom_site_label_1
_geom_bond_atom_site_label_2
_geom_bond_site_symmetry_1
_geom_bond_site_symmetry_2
N1 C1 1_555 1_555
C1 C2 1_555 1_555
C2 C3 1_555 1_555
C3 C4 1_555 1_555
C4 C5 1_555 1_555
C5 N1 1_555 1_555
N2 C5 1_555 1_555
C6 N2 1_555 1_555
N3 C6 1_555 1_555
C7 C4 1_555 1_555
N4 C7 1_555 1_555
N5 N4 1_555 1_555
C8 N5 1_555 1_555
H1 C1 1_555 1_555
H2 C2 1_555 1_555
H3 C3 1_555 1_555
H4 C6 1_555 1_555
H5 N4 1_555 1_555
H6 N5 1_555 1_555
H7 C8 1_555 1_555
H8 C8 1_555 1_555
H9 C8 1_555 1_555
N3 C7 1_555 1_555

#END
