
#######################################################################
#
#                 Cambridge Crystallographic Data Centre
#                                CCDC 
#
#######################################################################
#
# If this CIF has been generated from an entry in the Cambridge 
# Structural Database, then it will include bibliographic, chemical, 
# crystal, experimental, refinement or atomic coordinate data resulting 
# from the CCDC's data processing and validation procedures.
#
#######################################################################

data_VABNER
_chemical_name_common            (2.2.1.1)Pagodane
_chemical_formula_moiety         'C22 H24'
_chemical_name_systematic        
Undecacyclo(11.9.0.0^1,6^.0^2,14^.0^2,20^.0^3,8^.0^7,12^.0^9,14^.0^13,17^.0^15,19^.0^18,22^)docosane
_symmetry_cell_setting           monoclinic
_symmetry_space_group_name_H-M   'P 21/c'
_symmetry_Int_Tables_number      14
_space_group_name_Hall           '-P 2ybc'
loop_
_symmetry_equiv_pos_site_id
_symmetry_equiv_pos_as_xyz
1 x,y,z
2 -x,1/2+y,1/2-z
3 -x,-y,-z
4 x,1/2-y,1/2+z
_cell_length_a                   6.512(4)
_cell_length_b                   14.976(10)
_cell_length_c                   14.853(14)
_cell_angle_alpha                90
_cell_angle_beta                 91.62(6)
_cell_angle_gamma                90
_cell_volume                     1447.94
_exptl_crystal_colour            colorless
_cell_formula_units_Z            4
loop_
_atom_site_label
_atom_site_type_symbol
_atom_site_fract_x
_atom_site_fract_y
_atom_site_fract_z
C1 C 0.3959(5) 0.0843(2) 0.7734(2)
C2 C 0.1689(5) 0.1114(2) 0.7500(2)
C3 C 0.0631(5) 0.1450(2) 0.8338(2)
C4 C 0.1768(6) 0.2202(2) 0.8837(2)
C5 C 0.4016(6) 0.1928(3) 0.9057(2)
C6 C 0.4422(5) 0.0983(2) 0.8734(2)
C7 C 0.2923(5) 0.0276(2) 0.9109(2)
C8 C 0.0637(5) 0.0554(2) 0.8866(2)
C9 C -0.0297(5) -0.0101(2) 0.8165(2)
C10 C -0.0198(5) -0.1076(3) 0.8463(2)
C11 C 0.2030(6) -0.1352(3) 0.8698(3)
C12 C 0.3504(5) -0.0565(2) 0.8563(2)
C13 C 0.3367(5) -0.0155(2) 0.7626(2)
C14 C 0.1105(5) 0.0118(2) 0.7395(2)
C15 C 0.0873(6) -0.0097(3) 0.6379(2)
C16 C 0.2276(6) -0.0915(3) 0.6262(3)
C17 C 0.4184(6) -0.0493(3) 0.6728(2)
C18 C 0.4422(5) 0.0405(3) 0.6232(2)
C19 C 0.2138(6) 0.0683(3) 0.5991(2)
C20 C 0.1812(6) 0.1538(3) 0.6563(2)
C21 C 0.3950(6) 0.1972(3) 0.6572(2)
C22 C 0.5134(5) 0.1136(2) 0.6908(2)
H1 H -0.0738 0.1738 0.8228
H2 H 0.1060 0.2334 0.9410
H3 H 0.1761 0.2748 0.8449
H4 H 0.4272 0.1957 0.9724
H5 H 0.4964 0.2349 0.8752
H6 H 0.5897 0.0911 0.8929
H7 H 0.3019 0.0197 0.9778
H8 H -0.0121 0.0576 0.9442
H9 H -0.1804 -0.0036 0.8030
H10 H -0.0748 -0.1462 0.7963
H11 H -0.1053 -0.1155 0.9005
H12 H 0.2430 -0.1857 0.8298
H13 H 0.2125 -0.1549 0.9341
H14 H 0.4852 -0.0849 0.8729
H15 H -0.0555 -0.0183 0.6127
H16 H 0.2493 -0.1065 0.5615
H17 H 0.1773 -0.1456 0.6583
H18 H 0.5414 -0.0893 0.6757
H19 H 0.5383 0.0348 0.5722
H20 H 0.1784 0.0794 0.5340
H21 H 0.0663 0.1947 0.6376
H22 H 0.4074 0.2485 0.7001
H23 H 0.4369 0.2169 0.5960
H24 H 0.6648 0.1230 0.6995
loop_
_geom_bond_atom_site_label_1
_geom_bond_atom_site_label_2
_geom_bond_site_symmetry_1
_geom_bond_site_symmetry_2
C1 C2 1_555 1_555
C2 C3 1_555 1_555
C3 C4 1_555 1_555
C4 C5 1_555 1_555
C5 C6 1_555 1_555
C6 C1 1_555 1_555
C7 C6 1_555 1_555
C8 C3 1_555 1_555
C9 C8 1_555 1_555
C10 C9 1_555 1_555
C11 C10 1_555 1_555
C12 C7 1_555 1_555
C13 C1 1_555 1_555
C14 C2 1_555 1_555
C15 C14 1_555 1_555
C16 C15 1_555 1_555
C17 C13 1_555 1_555
C18 C17 1_555 1_555
C19 C15 1_555 1_555
C20 C2 1_555 1_555
C21 C20 1_555 1_555
C22 C1 1_555 1_555
H1 C3 1_555 1_555
H2 C4 1_555 1_555
H3 C4 1_555 1_555
H4 C5 1_555 1_555
H5 C5 1_555 1_555
H6 C6 1_555 1_555
H7 C7 1_555 1_555
H8 C8 1_555 1_555
H9 C9 1_555 1_555
H10 C10 1_555 1_555
H11 C10 1_555 1_555
H12 C11 1_555 1_555
H13 C11 1_555 1_555
H14 C12 1_555 1_555
H15 C15 1_555 1_555
H16 C16 1_555 1_555
H17 C16 1_555 1_555
H18 C17 1_555 1_555
H19 C18 1_555 1_555
H20 C19 1_555 1_555
H21 C20 1_555 1_555
H22 C21 1_555 1_555
H23 C21 1_555 1_555
H24 C22 1_555 1_555
C7 C8 1_555 1_555
C9 C14 1_555 1_555
C11 C12 1_555 1_555
C12 C13 1_555 1_555
C13 C14 1_555 1_555
C16 C17 1_555 1_555
C18 C19 1_555 1_555
C18 C22 1_555 1_555
C19 C20 1_555 1_555
C21 C22 1_555 1_555

#END
