
#######################################################################
#
#                 Cambridge Crystallographic Data Centre
#                                CCDC 
#
#######################################################################
#
# If this CIF has been generated from an entry in the Cambridge 
# Structural Database, then it will include bibliographic, chemical, 
# crystal, experimental, refinement or atomic coordinate data resulting 
# from the CCDC's data processing and validation procedures.
#
#######################################################################

data_VABNIV
_chemical_formula_moiety         'C22 H26 O2,0.5(C1 H2 Cl2)'
_chemical_name_systematic        
'2,12-Dimethoxydecacyclo(9.9.0.0^1,8^.0^2,15^.0^3,7^.0^5,12^.0^6,10^.0^11,18^.0^13,17^.0^16,20^)eicosane dichloromethane solvate'
_symmetry_cell_setting           orthorhombic
_symmetry_space_group_name_H-M   'F d d 2'
_symmetry_Int_Tables_number      43
_space_group_name_Hall           'F 2 -2d'
loop_
_symmetry_equiv_pos_site_id
_symmetry_equiv_pos_as_xyz
1 x,y,z
2 x,1/2+y,1/2+z
3 1/2+x,y,1/2+z
4 1/2+x,1/2+y,z
5 1/4-x,1/4+y,1/4+z
6 1/4-x,3/4+y,3/4+z
7 3/4-x,1/4+y,3/4+z
8 3/4-x,3/4+y,1/4+z
9 1/4+x,1/4-y,1/4+z
10 1/4+x,3/4-y,3/4+z
11 3/4+x,1/4-y,3/4+z
12 3/4+x,3/4-y,1/4+z
13 1/2-x,-y,1/2+z
14 1/2-x,1/2-y,z
15 -x,-y,z
16 -x,1/2-y,1/2+z
_cell_length_a                   12.665(1)
_cell_length_b                   63.343(54)
_cell_length_c                   8.581(11)
_cell_angle_alpha                90
_cell_angle_beta                 90
_cell_angle_gamma                90
_cell_volume                     6884.01
_exptl_crystal_colour            colorless
_chemical_melting_point          60deg.C
_cell_formula_units_Z            16
loop_
_atom_site_label
_atom_site_type_symbol
_atom_site_fract_x
_atom_site_fract_y
_atom_site_fract_z
C1 C 0.3200(5) 0.0773(1) 0.8058(10)
C2 C 0.3486(6) 0.0888(1) 0.9591(11)
C3 C 0.3217(6) 0.0724(1) 1.0881(11)
C4 C 0.4117(6) 0.0579(1) 1.1431(12)
C5 C 0.4310(5) 0.0427(1) 1.0090(10)
C6 C 0.3179(6) 0.0376(1) 0.9519(11)
C7 C 0.2466(6) 0.0568(1) 1.0031(11)
C8 C 0.2138(5) 0.0669(1) 0.8415(11)
C9 C 0.2052(6) 0.0479(1) 0.7352(12)
C10 C 0.3152(6) 0.0391(1) 0.7694(11)
C11 C 0.3915(6) 0.0577(1) 0.7545(11)
C12 C 0.4835(5) 0.0517(1) 0.8565(11)
C13 C 0.5637(5) 0.0703(1) 0.8425(11)
C14 C 0.5581(5) 0.0886(1) 0.9590(11)
C15 C 0.4530(5) 0.0997(1) 0.9236(11)
C16 C 0.4549(6) 0.1006(1) 0.7378(11)
C17 C 0.5262(6) 0.0814(1) 0.6870(11)
C18 C 0.4427(6) 0.0659(1) 0.6047(16)
C19 C 0.3637(6) 0.0813(1) 0.5268(11)
C20 C 0.3435(6) 0.0938(1) 0.6818(11)
C21 C 0.2746(7) 0.1193(1) 1.0965(13)
C22 C 0.6192(6) 0.0236(1) 0.8496(13)
O1 O 0.2672(4) 0.1052(1) 0.9681
O2 O 0.5303(4) 0.0337(1) 0.7763(8)
H1 H 0.6354 0.0639 0.8546
H2 H 0.6187 0.0985 0.9434
H3 H 0.5589 0.0832 1.0684
H4 H 0.4520 0.1127 0.9896
H5 H 0.4778 0.1147 0.6981
H6 H 0.5881 0.0852 0.6202
H7 H 0.4676 0.0550 0.5289
H8 H 0.2991 0.0742 0.4854
H9 H 0.3962 0.0901 0.4428
H10 H 0.2893 0.1051 0.6671
H11 H 0.3306 0.0262 0.7056
H12 H 0.1475 0.0380 0.7670
H13 H 0.1958 0.0519 0.6233
H14 H 0.1497 0.0761 0.8350
H15 H 0.1849 0.0532 1.0708
H16 H 0.2954 0.0235 0.9922
H17 H 0.4786 0.0314 1.0503
H18 H 0.4767 0.0663 1.1653
H19 H 0.3903 0.0500 1.2390
H20 H 0.2967 0.0805 1.1809
H21 H 0.2838 0.1349 1.0880
H22 H 0.2811 0.1149 1.2081
H23 H 0.6167 0.0176 0.9573
H24 H 0.6941 0.0267 0.8206
H25 H 0.5909 0.0128 0.7757
C23 C 0.0000 0.0000 0.9880(17)
Cl1 Cl -0.1082(2) 0.0069(1) 0.8757(8)
Cl1N Cl 0.1082(2) -0.0069(1) 0.8757(8)
loop_
_geom_bond_atom_site_label_1
_geom_bond_atom_site_label_2
_geom_bond_site_symmetry_1
_geom_bond_site_symmetry_2
C1 C2 1_555 1_555
C2 C3 1_555 1_555
C3 C4 1_555 1_555
C4 C5 1_555 1_555
C5 C6 1_555 1_555
C6 C7 1_555 1_555
C7 C3 1_555 1_555
C8 C1 1_555 1_555
C9 C8 1_555 1_555
C10 C6 1_555 1_555
C11 C1 1_555 1_555
C12 C5 1_555 1_555
C13 C12 1_555 1_555
C14 C13 1_555 1_555
C15 C2 1_555 1_555
C16 C15 1_555 1_555
C17 C13 1_555 1_555
C18 C11 1_555 1_555
C19 C18 1_555 1_555
C20 C1 1_555 1_555
C21 O1 1_555 1_555
C22 O2 1_555 1_555
O1 C2 1_555 1_555
O2 C12 1_555 1_555
H1 C13 1_555 1_555
H2 C14 1_555 1_555
H3 C14 1_555 1_555
H4 C15 1_555 1_555
H5 C16 1_555 1_555
H6 C17 1_555 1_555
H7 C18 1_555 1_555
H8 C19 1_555 1_555
H9 C19 1_555 1_555
H10 C20 1_555 1_555
H11 C10 1_555 1_555
H12 C9 1_555 1_555
H13 C9 1_555 1_555
H14 C8 1_555 1_555
H15 C7 1_555 1_555
H16 C6 1_555 1_555
H17 C5 1_555 1_555
H18 C4 1_555 1_555
H19 C4 1_555 1_555
H20 C3 1_555 1_555
H21 C21 1_555 1_555
H22 C21 1_555 1_555
H23 C22 1_555 1_555
H24 C22 1_555 1_555
H25 C22 1_555 1_555
C23 Cl1 1_555 1_555
Cl1N C23 1_555 1_555
C7 C8 1_555 1_555
C9 C10 1_555 1_555
C10 C11 1_555 1_555
C11 C12 1_555 1_555
C14 C15 1_555 1_555
C16 C17 1_555 1_555
C16 C20 1_555 1_555
C17 C18 1_555 1_555
C19 C20 1_555 1_555

#END
