
#######################################################################
#
#                 Cambridge Crystallographic Data Centre
#                                CCDC 
#
#######################################################################
#
# If this CIF has been generated from an entry in the Cambridge 
# Structural Database, then it will include bibliographic, chemical, 
# crystal, experimental, refinement or atomic coordinate data resulting 
# from the CCDC's data processing and validation procedures.
#
#######################################################################

data_VABQUM
_chemical_formula_moiety         'C17 H18 N4 O1'
_chemical_name_systematic        1,5-bis(1-Phenylethylidene)carbonohydrazide
_symmetry_cell_setting           monoclinic
_symmetry_space_group_name_H-M   'P 2/n'
_symmetry_Int_Tables_number      13
_space_group_name_Hall           '-P 2yac'
loop_
_symmetry_equiv_pos_site_id
_symmetry_equiv_pos_as_xyz
1 x,y,z
2 1/2-x,y,1/2-z
3 -x,-y,-z
4 1/2+x,-y,1/2+z
_cell_length_a                   12.9393(12)
_cell_length_b                   5.4858(5)
_cell_length_c                   22.703(2)
_cell_angle_alpha                90
_cell_angle_beta                 104.6810(10)
_cell_angle_gamma                90
_cell_volume                     1558.9
_exptl_crystal_colour            colorless
_exptl_crystal_description       block
_cell_formula_units_Z            4
_exptl_crystal_recrystallization_method ethanol
loop_
_atom_site_label
_atom_site_type_symbol
_atom_site_fract_x
_atom_site_fract_y
_atom_site_fract_z
O1 O 0.86754(12) 0.0739(3) 0.46156(9)
N1 N 0.96224(16) 0.4666(4) 0.58368(10)
N2 N 0.96359(15) 0.2825(4) 0.54321(10)
H1 H 1.0196 0.1938 0.5466
N3 N 0.79610(14) 0.4095(4) 0.49611(9)
H2 H 0.8087 0.5299 0.5212
N4 N 0.69764(15) 0.3902(4) 0.45574(9)
C1 C 0.87369(18) 0.2428(5) 0.49730(13)
C2 C 0.63193(18) 0.5649(4) 0.45685(10)
C3 C 0.65842(18) 0.7846(5) 0.49701(13)
H3 H 0.6503 0.7461 0.5368
H4 H 0.6111 0.9157 0.4800
H5 H 0.7309 0.8329 0.5000
C4 C 0.52443(18) 0.5423(5) 0.41536(11)
C5 C 0.4445(2) 0.7041(6) 0.41690(14)
H6 H 0.4592 0.8337 0.4442
C6 C 0.3434(2) 0.6811(7) 0.37943(17)
H7 H 0.2909 0.7936 0.3818
C7 C 0.3200(2) 0.4948(7) 0.33899(14)
H8 H 0.2518 0.4792 0.3133
C8 C 0.3977(2) 0.3314(6) 0.33648(14)
H9 H 0.3828 0.2028 0.3089
C9 C 0.4984(2) 0.3561(6) 0.37467(13)
H10 H 0.5503 0.2416 0.3726
C10 C 1.04459(19) 0.5073(5) 0.62766(12)
C11 C 1.14821(18) 0.3686(5) 0.63824(12)
H11 H 1.1447 0.2260 0.6622
H12 H 1.2060 0.4706 0.6595
H13 H 1.1600 0.3207 0.5998
C12 C 1.03396(18) 0.7066(5) 0.66970(11)
C13 C 0.9504(2) 0.8704(6) 0.65627(13)
H14 H 0.8986 0.8551 0.6197
C14 C 0.9416(2) 1.0546(6) 0.69527(16)
H15 H 0.8835 1.1601 0.6853
C15 C 1.0179(3) 1.0851(6) 0.74911(15)
H16 H 1.0131 1.2126 0.7753
C16 C 1.1002(2) 0.9256(7) 0.76324(14)
H17 H 1.1521 0.9426 0.7998
C17 C 1.1083(2) 0.7385(6) 0.72431(14)
H18 H 1.1655 0.6309 0.7352
loop_
_geom_bond_atom_site_label_1
_geom_bond_atom_site_label_2
_geom_bond_site_symmetry_1
_geom_bond_site_symmetry_2
O1 C1 1_555 1_555
N1 N2 1_555 1_555
N2 H1 1_555 1_555
N3 H2 1_555 1_555
N4 N3 1_555 1_555
C1 N2 1_555 1_555
C2 N4 1_555 1_555
C3 C2 1_555 1_555
H3 C3 1_555 1_555
H4 C3 1_555 1_555
H5 C3 1_555 1_555
C4 C2 1_555 1_555
C5 C4 1_555 1_555
H6 C5 1_555 1_555
C6 C5 1_555 1_555
H7 C6 1_555 1_555
C7 C6 1_555 1_555
H8 C7 1_555 1_555
C8 C7 1_555 1_555
H9 C8 1_555 1_555
C9 C4 1_555 1_555
H10 C9 1_555 1_555
C10 N1 1_555 1_555
C11 C10 1_555 1_555
H11 C11 1_555 1_555
H12 C11 1_555 1_555
H13 C11 1_555 1_555
C12 C10 1_555 1_555
C13 C12 1_555 1_555
H14 C13 1_555 1_555
C14 C13 1_555 1_555
H15 C14 1_555 1_555
C15 C14 1_555 1_555
H16 C15 1_555 1_555
C16 C15 1_555 1_555
H17 C16 1_555 1_555
C17 C12 1_555 1_555
H18 C17 1_555 1_555
N3 C1 1_555 1_555
C8 C9 1_555 1_555
C16 C17 1_555 1_555

#END
