
#######################################################################
#
#                 Cambridge Crystallographic Data Centre
#                                CCDC 
#
#######################################################################
#
# If this CIF has been generated from an entry in the Cambridge 
# Structural Database, then it will include bibliographic, chemical, 
# crystal, experimental, refinement or atomic coordinate data resulting 
# from the CCDC's data processing and validation procedures.
#
#######################################################################

data_VABREV
_chemical_formula_moiety         'C18 H14 Cl1 N1 O2'
_chemical_name_systematic        4-Chloro-8-(2-oxazolinyl)fluorenone
_symmetry_cell_setting           triclinic
_symmetry_space_group_name_H-M   'P -1'
_symmetry_Int_Tables_number      2
_space_group_name_Hall           '-P 1'
loop_
_symmetry_equiv_pos_site_id
_symmetry_equiv_pos_as_xyz
1 x,y,z
2 -x,-y,-z
_cell_length_a                   7.1195(15)
_cell_length_b                   7.4815(11)
_cell_length_c                   14.0797(29)
_cell_angle_alpha                93.564(15)
_cell_angle_beta                 103.340(16)
_cell_angle_gamma                93.330(15)
_cell_volume                     726.274
_chemical_melting_point          136-137deg.C
_cell_formula_units_Z            2
loop_
_atom_site_label
_atom_site_type_symbol
_atom_site_fract_x
_atom_site_fract_y
_atom_site_fract_z
C1 C 0.2396(2) 0.4286(2) 0.1128(1)
C2 C 0.2943(2) 0.5568(2) 0.1927(1)
C3 C 0.3536(2) 0.7306(2) 0.1800(1)
C4 C 0.3604(2) 0.7825(2) 0.0874(1)
C5 C 0.3045(2) 0.6549(2) 0.0093(1)
C6 C 0.2437(2) 0.4763(2) 0.0199(1)
C7 C 0.1983(2) 0.3752(2) -0.0778(1)
C8 C 0.2231(2) 0.4948(2) -0.1477(1)
C9 C 0.3002(2) 0.6748(2) -0.0958(1)
C10 C 0.1466(2) 0.1947(2) -0.1064(1)
C11 C 0.1211(2) 0.1372(2) -0.2048(1)
C12 C 0.1427(2) 0.2563(2) -0.2735(1)
C13 C 0.1927(2) 0.4384(2) -0.2457(1)
C14 C 0.2104(3) 0.5636(2) -0.3211(1)
C15 C 0.1052(4) 0.7776(3) -0.4174(2)
C16 C 0.3002(3) 0.7172(3) -0.4335(1)
C17 C 0.2921(3) 0.6711(3) -0.5409(1)
C18 C 0.4666(5) 0.8516(4) -0.3859(2)
N1 N 0.3244(2) 0.5539(2) -0.3774(1)
O1 O 0.0844(2) 0.6961(2) -0.3299(1)
O2 O 0.3561(2) 0.8060(2) -0.1312(1)
Cl1 Cl 0.1664(1) 0.2126(1) 0.1334(1)
H1 H 0.2905 0.5234 0.2570
H2 H 0.3906 0.8169 0.2356
H3 H 0.4027 0.9031 0.0783
H4 H 0.1289 0.1114 -0.0595
H5 H 0.0879 0.0123 -0.2254
H6 H 0.1230 0.2133 -0.3410
H7 H 0.0008 0.7352 -0.4719
H8 H 0.1089 0.9060 -0.4081
H9 H 0.2633 0.7770 -0.5750
H10 H 0.1892 0.5792 -0.5649
H11 H 0.4111 0.6294 -0.5516
H12 H 0.4460 0.9602 -0.4185
H13 H 0.5815 0.8023 -0.3975
H14 H 0.4815 0.8777 -0.3168
loop_
_geom_bond_atom_site_label_1
_geom_bond_atom_site_label_2
_geom_bond_site_symmetry_1
_geom_bond_site_symmetry_2
C1 C2 1_555 1_555
C2 C3 1_555 1_555
C3 C4 1_555 1_555
C4 C5 1_555 1_555
C5 C6 1_555 1_555
C6 C1 1_555 1_555
C7 C6 1_555 1_555
C8 C7 1_555 1_555
C9 C5 1_555 1_555
C10 C7 1_555 1_555
C11 C10 1_555 1_555
C12 C11 1_555 1_555
C13 C8 1_555 1_555
C14 C13 1_555 1_555
C15 C16 1_555 1_555
C16 C17 1_555 1_555
C17 H9 1_555 1_555
C18 C16 1_555 1_555
N1 C14 1_555 1_555
O1 C14 1_555 1_555
O2 C9 1_555 1_555
Cl1 C1 1_555 1_555
H1 C2 1_555 1_555
H2 C3 1_555 1_555
H3 C4 1_555 1_555
H4 C10 1_555 1_555
H5 C11 1_555 1_555
H6 C12 1_555 1_555
H7 C15 1_555 1_555
H8 C15 1_555 1_555
H10 C17 1_555 1_555
H11 C17 1_555 1_555
H12 C18 1_555 1_555
H13 C18 1_555 1_555
H14 C18 1_555 1_555
C8 C9 1_555 1_555
C12 C13 1_555 1_555
C15 O1 1_555 1_555
C16 N1 1_555 1_555

#END
