
#######################################################################
#
#                 Cambridge Crystallographic Data Centre
#                                CCDC 
#
#######################################################################
#
# If this CIF has been generated from an entry in the Cambridge 
# Structural Database, then it will include bibliographic, chemical, 
# crystal, experimental, refinement or atomic coordinate data resulting 
# from the CCDC's data processing and validation procedures.
#
#######################################################################

data_VABTID
_chemical_formula_moiety         'C13 H26 O4'
_chemical_name_systematic        
(5-n-Heptyl-2-hydroxymethyl-1,3-dioxan-2-yl)methanol
_symmetry_cell_setting           monoclinic
_symmetry_space_group_name_H-M   'P 21/n'
_symmetry_Int_Tables_number      14
_space_group_name_Hall           '-P 2yn'
loop_
_symmetry_equiv_pos_site_id
_symmetry_equiv_pos_as_xyz
1 x,y,z
2 1/2-x,1/2+y,1/2-z
3 -x,-y,-z
4 1/2+x,1/2-y,1/2+z
_cell_length_a                   5.8030(4)
_cell_length_b                   54.017(4)
_cell_length_c                   9.1018(6)
_cell_angle_alpha                90
_cell_angle_beta                 92.9380(10)
_cell_angle_gamma                90
_cell_volume                     2849.31
_exptl_crystal_colour            colorless
_exptl_crystal_description       prism
_cell_formula_units_Z            8
_exptl_crystal_recrystallization_method 'ethyl acetate'
loop_
_atom_site_label
_atom_site_type_symbol
_atom_site_fract_x
_atom_site_fract_y
_atom_site_fract_z
O1 O 0.2272(3) 0.13631(4) 0.3678(2)
O2 O -0.0529(4) 0.13323(4) 0.1752(2)
O3 O -0.4134(3) 0.19510(4) 0.3742(3)
H1 H -0.3489 0.2088 0.3615
O4 O 0.1374(4) 0.20487(4) 0.3614(3)
H2 H 0.2795 0.2022 0.3747
C1 C 0.0843(5) 0.15190(5) 0.4533(3)
H5 H 0.1831 0.1635 0.5124
H6 H -0.0009 0.1415 0.5220
C2 C -0.0868(5) 0.16654(5) 0.3557(3)
C3 C -0.2132(5) 0.14847(5) 0.2508(4)
H7 H -0.3156 0.1378 0.3070
H8 H -0.3107 0.1579 0.1778
C4 C 0.0368(5) 0.18620(6) 0.2664(4)
H9 H 0.1590 0.1782 0.2110
H10 H -0.0750 0.1940 0.1946
C5 C -0.2576(5) 0.17895(6) 0.4544(4)
H11 H -0.3471 0.1660 0.5035
H12 H -0.1711 0.1885 0.5318
C6 C 0.0909(5) 0.12001(5) 0.2773(3)
H13 H -0.0054 0.1094 0.3399
C7 C 0.2514(6) 0.10397(6) 0.1932(4)
H14 H 0.3531 0.1147 0.1369
H15 H 0.1589 0.0937 0.1218
C8 C 0.4005(5) 0.08698(6) 0.2924(4)
H16 H 0.4899 0.0972 0.3655
H17 H 0.2988 0.0759 0.3469
C9 C 0.5668(6) 0.07125(6) 0.2086(4)
H18 H 0.6675 0.0823 0.1534
H19 H 0.4774 0.0609 0.1363
C10 C 0.7177(6) 0.05444(6) 0.3086(4)
H20 H 0.8078 0.0648 0.3803
H21 H 0.6166 0.0436 0.3647
C11 C 0.8834(6) 0.03837(6) 0.2267(4)
H22 H 0.7934 0.0278 0.1561
H23 H 0.9834 0.0492 0.1695
C12 C 1.0346(6) 0.02205(7) 0.3272(5)
H24 H 0.9345 0.0113 0.3851
H25 H 1.1254 0.0327 0.3973
C13 C 1.1999(7) 0.00570(7) 0.2452(5)
H26 H 1.2931 -0.0042 0.3161
H27 H 1.3015 0.0161 0.1888
H28 H 1.1113 -0.0053 0.1781
O5 O 0.1796(4) 0.31378(4) 0.4361(2)
O6 O -0.1028(3) 0.32156(4) 0.2493(2)
O7 O -0.3125(4) 0.24297(4) 0.3030(3)
H3 H -0.4518 0.2468 0.2868
O8 O 0.2389(4) 0.25210(4) 0.2915(3)
H4 H 0.1682 0.2387 0.3026
C14 C 0.0664(6) 0.29187(6) 0.4811(4)
H29 H -0.0366 0.2960 0.5610
H30 H 0.1830 0.2799 0.5203
C15 C -0.0747(5) 0.28004(5) 0.3539(3)
C16 C -0.2343(5) 0.30020(5) 0.2872(4)
H31 H -0.3186 0.2937 0.1981
H32 H -0.3491 0.3049 0.3589
C17 C -0.2122(5) 0.25857(5) 0.4161(3)
H33 H -0.1088 0.2486 0.4824
H34 H -0.3363 0.2653 0.4752
C18 C 0.0813(5) 0.27046(5) 0.2361(4)
H35 H -0.0156 0.2634 0.1538
H36 H 0.1691 0.2845 0.1969
C19 C 0.0221(5) 0.33143(5) 0.3746(4)
H37 H -0.0880 0.3365 0.4500
C20 C 0.1590(6) 0.35353(5) 0.3288(4)
H38 H 0.2648 0.3482 0.2529
H39 H 0.2550 0.3594 0.4149
C21 C 0.0146(6) 0.37513(6) 0.2682(4)
H40 H -0.0694 0.3826 0.3492
H41 H -0.1016 0.3688 0.1942
C22 C 0.1565(6) 0.39521(6) 0.1974(4)
H42 H 0.2339 0.3878 0.1134
H43 H 0.0499 0.4082 0.1576
C23 C 0.3386(6) 0.40747(6) 0.2992(4)
H44 H 0.4417 0.3945 0.3427
H45 H 0.2613 0.4156 0.3806
C24 C 0.4845(6) 0.42659(6) 0.2228(4)
H46 H 0.5621 0.4184 0.1414
H47 H 0.3816 0.4396 0.1793
C25 C 0.6657(6) 0.43875(6) 0.3251(4)
H48 H 0.7675 0.4257 0.3690
H49 H 0.5875 0.4469 0.4061
C26 C 0.8145(7) 0.45783(7) 0.2509(5)
H50 H 0.9262 0.4649 0.3237
H51 H 0.7160 0.4711 0.2089
H52 H 0.8969 0.4498 0.1724
loop_
_geom_bond_atom_site_label_1
_geom_bond_atom_site_label_2
_geom_bond_site_symmetry_1
_geom_bond_site_symmetry_2
O1 C1 1_555 1_555
O2 C3 1_555 1_555
O3 H1 1_555 1_555
O4 H2 1_555 1_555
O5 C14 1_555 1_555
O6 C16 1_555 1_555
O7 H3 1_555 1_555
O8 H4 1_555 1_555
C1 H5 1_555 1_555
H6 C1 1_555 1_555
C2 C1 1_555 1_555
C3 C2 1_555 1_555
H7 C3 1_555 1_555
H8 C3 1_555 1_555
C4 O4 1_555 1_555
H9 C4 1_555 1_555
H10 C4 1_555 1_555
C5 O3 1_555 1_555
H11 C5 1_555 1_555
H12 C5 1_555 1_555
C6 O1 1_555 1_555
H13 C6 1_555 1_555
C7 C6 1_555 1_555
H14 C7 1_555 1_555
H15 C7 1_555 1_555
C8 C7 1_555 1_555
H16 C8 1_555 1_555
H17 C8 1_555 1_555
C9 C8 1_555 1_555
H18 C9 1_555 1_555
H19 C9 1_555 1_555
C10 C9 1_555 1_555
H20 C10 1_555 1_555
H21 C10 1_555 1_555
C11 C10 1_555 1_555
H22 C11 1_555 1_555
H23 C11 1_555 1_555
C12 C11 1_555 1_555
H24 C12 1_555 1_555
H25 C12 1_555 1_555
C13 C12 1_555 1_555
H26 C13 1_555 1_555
H27 C13 1_555 1_555
H28 C13 1_555 1_555
C14 H29 1_555 1_555
H30 C14 1_555 1_555
C15 C14 1_555 1_555
C16 C15 1_555 1_555
H31 C16 1_555 1_555
H32 C16 1_555 1_555
C17 O7 1_555 1_555
H33 C17 1_555 1_555
H34 C17 1_555 1_555
C18 O8 1_555 1_555
H35 C18 1_555 1_555
H36 C18 1_555 1_555
C19 O5 1_555 1_555
H37 C19 1_555 1_555
C20 C19 1_555 1_555
H38 C20 1_555 1_555
H39 C20 1_555 1_555
C21 C20 1_555 1_555
H40 C21 1_555 1_555
H41 C21 1_555 1_555
C22 C21 1_555 1_555
H42 C22 1_555 1_555
H43 C22 1_555 1_555
C23 C22 1_555 1_555
H44 C23 1_555 1_555
H45 C23 1_555 1_555
C24 C23 1_555 1_555
H46 C24 1_555 1_555
H47 C24 1_555 1_555
C25 C24 1_555 1_555
H48 C25 1_555 1_555
H49 C25 1_555 1_555
C26 C25 1_555 1_555
H50 C26 1_555 1_555
H51 C26 1_555 1_555
H52 C26 1_555 1_555
O2 C6 1_555 1_555
O6 C19 1_555 1_555
C2 C4 1_555 1_555
C2 C5 1_555 1_555
C15 C17 1_555 1_555
C15 C18 1_555 1_555

#END
