
#######################################################################
#
#                 Cambridge Crystallographic Data Centre
#                                CCDC 
#
#######################################################################
#
# If this CIF has been generated from an entry in the Cambridge 
# Structural Database, then it will include bibliographic, chemical, 
# crystal, experimental, refinement or atomic coordinate data resulting 
# from the CCDC's data processing and validation procedures.
#
#######################################################################

data_VABTOJ
_chemical_formula_moiety         'C8 H2 Br3 N1 O4 2-,C6 H8 N4 2+'
_chemical_name_systematic        
"2,2'-Bi-imidazolium 5-amino-2,4,6-tribromoisophthalate"
_symmetry_cell_setting           triclinic
_symmetry_space_group_name_H-M   'P -1'
_symmetry_Int_Tables_number      2
_space_group_name_Hall           '-P 1'
loop_
_symmetry_equiv_pos_site_id
_symmetry_equiv_pos_as_xyz
1 x,y,z
2 -x,-y,-z
_cell_length_a                   9.0525(10)
_cell_length_b                   9.2043(10)
_cell_length_c                   11.5252(12)
_cell_angle_alpha                90.2620(10)
_cell_angle_beta                 108.3320(10)
_cell_angle_gamma                93.1360(10)
_cell_volume                     909.961
_exptl_crystal_colour            'pale yellow'
_exptl_crystal_description       prism
_cell_formula_units_Z            2
loop_
_atom_site_label
_atom_site_type_symbol
_atom_site_fract_x
_atom_site_fract_y
_atom_site_fract_z
Br1 Br 0.44985(5) 0.68067(5) 0.04955(4)
Br2 Br 0.30262(7) 0.89508(6) 0.45860(5)
Br3 Br 0.80240(6) 0.52283(6) 0.52786(5)
O1 O 0.6388(4) 0.3751(3) 0.2311(3)
O2 O 0.8128(4) 0.5529(3) 0.2201(3)
O3 O 0.1481(4) 0.8223(4) 0.1385(3)
O4 O 0.3322(4) 1.0034(3) 0.1754(4)
N1 N 0.5757(6) 0.7119(6) 0.5998(4)
C1 C 0.6952(5) 0.5045(5) 0.2451(4)
C2 C 0.6062(5) 0.6121(4) 0.2971(4)
C3 C 0.4913(5) 0.6934(4) 0.2216(4)
C4 C 0.4030(5) 0.7833(4) 0.2686(4)
C5 C 0.4310(5) 0.7852(5) 0.3941(4)
C6 C 0.5465(5) 0.7061(5) 0.4750(4)
C7 C 0.6352(5) 0.6244(4) 0.4223(4)
C8 C 0.2831(5) 0.8777(4) 0.1859(4)
H9 H 0.519(6) 0.764(6) 0.631(5)
H10 H 0.624(6) 0.640(4) 0.643(4)
N2 N 0.7881(4) 0.1504(4) 0.2018(4)
N3 N 0.9353(4) -0.0118(4) 0.1680(4)
N4 N 1.1546(4) 0.2242(4) 0.1272(3)
N5 N 1.0016(4) 0.3864(4) 0.1539(3)
C9 C 0.7208(6) 0.0171(5) 0.2144(5)
H1 H 0.6293 -0.0004 0.2337
C10 C 0.8132(6) -0.0853(5) 0.1932(5)
H2 H 0.7967 -0.1857 0.1954
C11 C 0.9166(5) 0.1302(4) 0.1731(4)
C12 C 1.0206(5) 0.2449(4) 0.1518(4)
C13 C 1.2192(5) 0.3590(5) 0.1138(4)
H3 H 1.3118 0.3773 0.0960
C14 C 1.1255(5) 0.4600(4) 0.1306(4)
H4 H 1.1414 0.5604 0.1273
H5 H 0.751(7) 0.232(4) 0.217(5)
H6 H 1.005(5) -0.054(5) 0.143(5)
H7 H 1.215(6) 0.151(5) 0.139(6)
H8 H 0.923(4) 0.424(5) 0.171(4)
loop_
_geom_bond_atom_site_label_1
_geom_bond_atom_site_label_2
_geom_bond_site_symmetry_1
_geom_bond_site_symmetry_2
Br1 C3 1_555 1_555
Br2 C5 1_555 1_555
Br3 C7 1_555 1_555
O1 C1 1_555 1_555
O2 C1 1_555 1_555
O3 C8 1_555 1_555
O4 C8 1_555 1_555
N1 C6 1_555 1_555
N2 C9 1_555 1_555
N3 C10 1_555 1_555
N4 C12 1_555 1_555
N5 C12 1_555 1_555
C1 C2 1_555 1_555
C2 C3 1_555 1_555
C3 C4 1_555 1_555
C4 C5 1_555 1_555
C5 C6 1_555 1_555
C6 C7 1_555 1_555
C7 C2 1_555 1_555
C8 C4 1_555 1_555
C9 H1 1_555 1_555
C10 C9 1_555 1_555
H2 C10 1_555 1_555
C11 N2 1_555 1_555
C12 C11 1_555 1_555
C13 N4 1_555 1_555
H3 C13 1_555 1_555
C14 N5 1_555 1_555
H4 C14 1_555 1_555
H5 N2 1_555 1_555
H6 N3 1_555 1_555
H7 N4 1_555 1_555
H8 N5 1_555 1_555
H9 N1 1_555 1_555
H10 N1 1_555 1_555
N3 C11 1_555 1_555
C13 C14 1_555 1_555

#END
