
#######################################################################
#
#                 Cambridge Crystallographic Data Centre
#                                CCDC 
#
#######################################################################
#
# If this CIF has been generated from an entry in the Cambridge 
# Structural Database, then it will include bibliographic, chemical, 
# crystal, experimental, refinement or atomic coordinate data resulting 
# from the CCDC's data processing and validation procedures.
#
#######################################################################

data_VABYUV
_chemical_formula_moiety         'C18 H12 B1 Cl1 F2 N2 O1'
_chemical_name_systematic        
(2-(6-chloropyrimidin-4-yl)-1,2-diphenylethenolato)(difluoro)borate
_symmetry_cell_setting           monoclinic
_symmetry_space_group_name_H-M   'P 21/c'
_symmetry_Int_Tables_number      14
_space_group_name_Hall           '-P 2ybc'
loop_
_symmetry_equiv_pos_site_id
_symmetry_equiv_pos_as_xyz
1 x,y,z
2 -x,1/2+y,1/2-z
3 -x,-y,-z
4 x,1/2-y,1/2+z
_cell_length_a                   9.7560(8)
_cell_length_b                   17.9551(13)
_cell_length_c                   11.6909(9)
_cell_angle_alpha                90
_cell_angle_beta                 125.720(3)
_cell_angle_gamma                90
_cell_volume                     1662.64
_exptl_crystal_colour            yellow
_exptl_crystal_description       block
_cell_formula_units_Z            4
loop_
_atom_site_label
_atom_site_type_symbol
_atom_site_fract_x
_atom_site_fract_y
_atom_site_fract_z
Cl1 Cl 0.28687(10) 0.01118(4) 0.68844(9)
C1 C 0.8885(3) 0.19164(13) 0.5437(3)
O1 O 0.9356(2) 0.07760(9) 0.6566(2)
C2 C 0.4966(3) 0.07776(13) 0.6429(3)
H1 H 0.4171 0.1157 0.5989
C3 C 0.6886(3) 0.14012(13) 0.5965(2)
C4 C 0.4688(4) 0.01852(15) 0.6987(3)
C5 C 0.6457(3) 0.08114(12) 0.6522(3)
N1 N 0.5773(3) -0.03806(13) 0.7638(3)
C6 C 0.9340(4) 0.31755(15) 0.5051(3)
H2 H 0.9239 0.3684 0.5135
N2 N 0.7554(3) 0.02255(11) 0.7183(2)
F1 F 1.0557(2) 0.02486(11) 0.87535(19)
C7 C 0.9658(3) 0.16752(15) 0.4814(3)
H3 H 0.9778 0.1167 0.4738
F2 F 0.9354(3) -0.04892(8) 0.6856(2)
C8 C 1.0249(4) 0.21757(17) 0.4311(3)
H4 H 1.0757 0.2006 0.3890
B1 B 0.9286(4) 0.01839(16) 0.7344(4)
C9 C 0.4702(3) 0.21398(15) 0.3856(3)
H5 H 0.4748 0.1793 0.3288
C10 C 1.0090(4) 0.29278(17) 0.4427(3)
H6 H 1.0489 0.3267 0.4085
C11 C 0.3547(4) 0.32559(17) 0.4061(4)
H7 H 0.2826 0.3662 0.3644
C12 C 0.8736(3) 0.26762(14) 0.5552(3)
H8 H 0.8227 0.2849 0.5969
C13 C 0.8316(3) 0.13573(13) 0.6008(3)
C14 C 0.5695(3) 0.20429(13) 0.5304(3)
C15 C 0.7146(4) -0.03248(16) 0.7696(3)
H9 H 0.7923 -0.0711 0.8143
C16 C 0.5574(4) 0.25575(13) 0.6113(3)
H10 H 0.6211 0.2495 0.7085
C17 C 0.3649(4) 0.27460(17) 0.3254(3)
H11 H 0.2999 0.2808 0.2282
C18 C 0.4517(4) 0.31658(15) 0.5499(4)
H12 H 0.4462 0.3515 0.6059
loop_
_geom_bond_atom_site_label_1
_geom_bond_atom_site_label_2
_geom_bond_site_symmetry_1
_geom_bond_site_symmetry_2
Cl1 C4 1_555 1_555
C1 C7 1_555 1_555
O1 B1 1_555 1_555
C2 H1 1_555 1_555
C3 C5 1_555 1_555
C4 C2 1_555 1_555
C5 C2 1_555 1_555
N1 C4 1_555 1_555
C6 H2 1_555 1_555
N2 C5 1_555 1_555
F1 B1 1_555 1_555
C7 H3 1_555 1_555
F2 B1 1_555 1_555
C8 C7 1_555 1_555
H4 C8 1_555 1_555
B1 N2 1_555 1_555
C9 H5 1_555 1_555
C10 C6 1_555 1_555
H6 C10 1_555 1_555
C11 H7 1_555 1_555
C12 C1 1_555 1_555
H8 C12 1_555 1_555
C13 C1 1_555 1_555
C14 C3 1_555 1_555
C15 N1 1_555 1_555
H9 C15 1_555 1_555
C16 C14 1_555 1_555
H10 C16 1_555 1_555
C17 C9 1_555 1_555
H11 C17 1_555 1_555
C18 C11 1_555 1_555
H12 C18 1_555 1_555
O1 C13 1_555 1_555
C3 C13 1_555 1_555
C6 C12 1_555 1_555
N2 C15 1_555 1_555
C8 C10 1_555 1_555
C9 C14 1_555 1_555
C11 C17 1_555 1_555
C16 C18 1_555 1_555

#END
