
#######################################################################
#
#                 Cambridge Crystallographic Data Centre
#                                CCDC 
#
#######################################################################
#
# If this CIF has been generated from an entry in the Cambridge 
# Structural Database, then it will include bibliographic, chemical, 
# crystal, experimental, refinement or atomic coordinate data resulting 
# from the CCDC's data processing and validation procedures.
#
#######################################################################

data_VACDOU
_chemical_name_common            4-(Phenylsulfanyl)phthalonitrile
_chemical_formula_moiety         'C14 H8 N2 S1'
_chemical_name_systematic        4-(Phenylsulfanyl)benzene-1,2-dicarbonitrile
_symmetry_cell_setting           monoclinic
_symmetry_space_group_name_H-M   'P 21/c'
_symmetry_Int_Tables_number      14
_space_group_name_Hall           '-P 2ybc'
loop_
_symmetry_equiv_pos_site_id
_symmetry_equiv_pos_as_xyz
1 x,y,z
2 -x,1/2+y,1/2-z
3 -x,-y,-z
4 x,1/2-y,1/2+z
_cell_length_a                   7.8515(7)
_cell_length_b                   9.7739(9)
_cell_length_c                   15.6248(14)
_cell_angle_alpha                90
_cell_angle_beta                 91.544(2)
_cell_angle_gamma                90
_cell_volume                     1198.61
_exptl_crystal_colour            colorless
_exptl_crystal_description       block
_cell_formula_units_Z            4
loop_
_atom_site_label
_atom_site_type_symbol
_atom_site_fract_x
_atom_site_fract_y
_atom_site_fract_z
S1 S 1.02062(6) -0.13035(5) 0.20832(4)
N1 N 1.1713(2) 0.44401(17) -0.06030(11)
N2 N 1.5357(2) 0.1851(2) -0.00461(12)
C1 C 1.10678(19) 0.23614(16) 0.03502(9)
C2 C 1.23816(19) 0.14420(16) 0.05715(10)
C3 C 1.2075(2) 0.03475(17) 0.11030(11)
H1 H 1.2954 -0.0253 0.1252
C4 C 1.0448(2) 0.01386(16) 0.14187(11)
C5 C 0.9148(2) 0.10349(18) 0.11842(11)
H2 H 0.8056 0.0890 0.1383
C6 C 0.9453(2) 0.21380(17) 0.06595(11)
H3 H 0.8571 0.2735 0.0512
C7 C 1.1412(2) 0.35200(18) -0.01832(11)
C8 C 1.4050(2) 0.16575(18) 0.02351(12)
C9 C 0.8157(2) -0.10711(17) 0.25164(11)
C10 C 0.7880(3) -0.0083(2) 0.31328(12)
H4 H 0.8762 0.0491 0.3316
C11 C 0.6272(3) 0.0044(2) 0.34748(13)
H5 H 0.6075 0.0708 0.3887
C12 C 0.4977(3) -0.0807(2) 0.32069(14)
H6 H 0.3900 -0.0715 0.3434
C13 C 0.5263(3) -0.1780(2) 0.26123(15)
H7 H 0.4380 -0.2358 0.2437
C14 C 0.6849(2) -0.1927(2) 0.22626(12)
H8 H 0.7032 -0.2604 0.1857
loop_
_geom_bond_atom_site_label_1
_geom_bond_atom_site_label_2
_geom_bond_site_symmetry_1
_geom_bond_site_symmetry_2
S1 C4 1_555 1_555
N1 C7 1_555 1_555
N2 C8 1_555 1_555
C1 C2 1_555 1_555
C2 C3 1_555 1_555
C3 H1 1_555 1_555
C4 C3 1_555 1_555
C5 C4 1_555 1_555
H2 C5 1_555 1_555
C6 C1 1_555 1_555
H3 C6 1_555 1_555
C7 C1 1_555 1_555
C8 C2 1_555 1_555
C9 S1 1_555 1_555
C10 C9 1_555 1_555
H4 C10 1_555 1_555
C11 C10 1_555 1_555
H5 C11 1_555 1_555
C12 C11 1_555 1_555
H6 C12 1_555 1_555
C13 C12 1_555 1_555
H7 C13 1_555 1_555
C14 C9 1_555 1_555
H8 C14 1_555 1_555
C5 C6 1_555 1_555
C13 C14 1_555 1_555

#END
