
#######################################################################
#
#                 Cambridge Crystallographic Data Centre
#                                CCDC 
#
#######################################################################
#
# If this CIF has been generated from an entry in the Cambridge 
# Structural Database, then it will include bibliographic, chemical, 
# crystal, experimental, refinement or atomic coordinate data resulting 
# from the CCDC's data processing and validation procedures.
#
#######################################################################

data_VACFEM
_chemical_formula_moiety         'C30 H21 Cl1 N2 O1'
_chemical_name_systematic        
N-(11-(4-Chlorophenyl)-11,12-dihydrobenzo[c]phenanthridin-6-yl)benzamide
_symmetry_cell_setting           orthorhombic
_symmetry_space_group_name_H-M   'P c a 21'
_symmetry_Int_Tables_number      29
_space_group_name_Hall           'P 2c -2ac'
loop_
_symmetry_equiv_pos_site_id
_symmetry_equiv_pos_as_xyz
1 x,y,z
2 -x,-y,1/2+z
3 1/2+x,-y,z
4 1/2-x,y,1/2+z
_cell_length_a                   26.567(5)
_cell_length_b                   9.6752(19)
_cell_length_c                   17.329(4)
_cell_angle_alpha                90
_cell_angle_beta                 90
_cell_angle_gamma                90
_cell_volume                     4454.26
_exptl_crystal_colour            yellow
_exptl_crystal_description       block
_cell_formula_units_Z            8
loop_
_atom_site_label
_atom_site_type_symbol
_atom_site_fract_x
_atom_site_fract_y
_atom_site_fract_z
Cl1 Cl 0.45020(2) 1.04494(6) 0.45992(4)
O1 O 0.15812(6) 0.44686(15) 0.20860(9)
N1 N 0.19235(6) 0.62652(18) 0.30450(11)
N2 N 0.14648(6) 0.68325(18) 0.19207(11)
H1 H 0.1351 0.7461 0.1616
C1 C 0.29080(7) 0.8823(2) 0.47123(13)
C2 C 0.30981(8) 0.9683(2) 0.52866(14)
H3 H 0.2894 0.9922 0.5701
C3 C 0.35835(8) 1.0189(2) 0.52532(14)
H4 H 0.3707 1.0753 0.5644
C4 C 0.38840(7) 0.9845(2) 0.46298(15)
C5 C 0.37101(9) 0.8999(2) 0.40441(14)
H5 H 0.3915 0.8774 0.3628
C6 C 0.32217(8) 0.8495(2) 0.40923(13)
H6 H 0.3101 0.7925 0.3702
C7 C 0.23727(7) 0.8285(2) 0.47799(13)
H7 H 0.2170 0.9032 0.5001
C8 C 0.23284(8) 0.7046(2) 0.53287(14)
H8 H 0.2537 0.7213 0.5778
H9 H 0.1983 0.6972 0.5503
C9 C 0.24816(8) 0.5706(2) 0.49689(14)
C10 C 0.27108(9) 0.4670(3) 0.53995(16)
H10 H 0.2770 0.4809 0.5923
C11 C 0.28521(9) 0.3431(3) 0.50603(17)
H11 H 0.3012 0.2755 0.5353
C12 C 0.27543(9) 0.3201(3) 0.42832(17)
H12 H 0.2848 0.2370 0.4054
C13 C 0.25159(9) 0.4216(2) 0.38485(15)
H13 H 0.2447 0.4058 0.3330
C14 C 0.23787(8) 0.5470(2) 0.41858(15)
C15 C 0.21420(8) 0.6601(2) 0.37485(13)
C16 C 0.21424(7) 0.7929(2) 0.40035(13)
C17 C 0.19362(7) 0.8995(2) 0.35147(13)
C18 C 0.19268(8) 1.0404(2) 0.37309(14)
H14 H 0.2064 1.0672 0.4202
C19 C 0.17182(8) 1.1380(2) 0.32543(14)
H15 H 0.1715 1.2301 0.3409
C20 C 0.15087(8) 1.1017(2) 0.25353(14)
H16 H 0.1373 1.1691 0.2214
C21 C 0.15077(8) 0.9652(2) 0.23163(14)
H17 H 0.1365 0.9399 0.1847
C22 C 0.17193(7) 0.8637(2) 0.27943(13)
C23 C 0.17036(7) 0.7198(2) 0.25644(12)
C24 C 0.13982(8) 0.5481(2) 0.17403(13)
C25 C 0.10550(8) 0.5262(2) 0.10631(13)
C26 C 0.09983(9) 0.6261(2) 0.04939(14)
H18 H 0.1183 0.7076 0.0520
C27 C 0.06682(10) 0.6050(3) -0.01121(15)
H19 H 0.0637 0.6715 -0.0497
C28 C 0.03835(9) 0.4848(3) -0.01481(15)
H20 H 0.0158 0.4715 -0.0552
C29 C 0.04355(10) 0.3858(3) 0.04136(16)
H21 H 0.0242 0.3058 0.0392
C30 C 0.07772(9) 0.4044(2) 0.10169(15)
H22 H 0.0819 0.3358 0.1387
Cl2 Cl -0.18314(2) 0.43588(7) 0.22904(4)
O2 O 0.09263(6) 1.12523(16) 0.48412(10)
N3 N 0.06092(6) 0.94686(19) 0.38501(11)
N4 N 0.10706(6) 0.88891(19) 0.49698(11)
H2 H 0.1196 0.8257 0.5261
C31 C -0.03808(7) 0.6800(2) 0.21873(13)
C32 C -0.06480(8) 0.6718(2) 0.28733(14)
H23 H -0.0524 0.7160 0.3311
C33 C -0.11012(9) 0.5983(3) 0.29190(15)
H24 H -0.1276 0.5915 0.3383
C34 C -0.12821(8) 0.5360(2) 0.22564(15)
C35 C -0.10328(9) 0.5472(2) 0.15631(15)
H25 H -0.1167 0.5073 0.1121
C36 C -0.05835(8) 0.6178(2) 0.15263(14)
H26 H -0.0413 0.6243 0.1059
C37 C 0.01430(7) 0.7465(2) 0.21222(13)
H27 H 0.0361 0.6759 0.1893
C38 C 0.01665(8) 0.8709(2) 0.15749(14)
H28 H 0.0508 0.8805 0.1383
H29 H -0.0051 0.8535 0.1136
C39 C 0.00102(8) 1.0040(2) 0.19526(14)
C40 C -0.02315(8) 1.1084(2) 0.15437(15)
H30 H -0.0309 1.0947 0.1026
C41 C -0.03583(9) 1.2323(3) 0.18932(17)
H31 H -0.0521 1.3007 0.1610
C42 C -0.02439(9) 1.2545(3) 0.26580(16)
H32 H -0.0331 1.3376 0.2893
C43 C 0.00040(8) 1.1519(2) 0.30821(15)
H33 H 0.0082 1.1668 0.3599
C44 C 0.01337(8) 1.0272(2) 0.27295(14)
C45 C 0.03790(7) 0.9143(2) 0.31547(13)
C46 C 0.03744(7) 0.7808(2) 0.28962(12)
C47 C 0.05878(7) 0.6743(2) 0.33760(13)
C48 C 0.05844(8) 0.5332(2) 0.31640(14)
H34 H 0.0441 0.5066 0.2698
C49 C 0.07913(8) 0.4348(2) 0.36405(14)
H35 H 0.0792 0.3428 0.3485
C50 C 0.10022(8) 0.4701(2) 0.43567(15)
H36 H 0.1135 0.4023 0.4678
C51 C 0.10092(8) 0.6073(2) 0.45760(15)
H37 H 0.1151 0.6320 0.5047
C52 C 0.08047(7) 0.7101(2) 0.40953(13)
C53 C 0.08287(7) 0.8534(2) 0.43261(13)
C54 C 0.11219(8) 1.0245(2) 0.51734(14)
C55 C 0.14664(8) 1.0465(2) 0.58493(13)
C56 C 0.17109(8) 1.1721(2) 0.59367(15)
H38 H 0.1656 1.2427 0.5583
C57 C 0.20390(9) 1.1930(3) 0.65529(17)
H39 H 0.2203 1.2774 0.6609
C58 C 0.21214(9) 1.0887(3) 0.70806(15)
H40 H 0.2339 1.1030 0.7493
C59 C 0.18785(9) 0.9620(3) 0.69954(16)
H41 H 0.1934 0.8914 0.7350
C60 C 0.15552(8) 0.9418(2) 0.63837(14)
H42 H 0.1394 0.8571 0.6327
loop_
_geom_bond_atom_site_label_1
_geom_bond_atom_site_label_2
_geom_bond_site_symmetry_1
_geom_bond_site_symmetry_2
Cl1 C4 1_555 1_555
Cl2 C34 1_555 1_555
O1 C24 1_555 1_555
O2 C54 1_555 1_555
N1 C15 1_555 1_555
N2 H1 1_555 1_555
N3 C45 1_555 1_555
N4 H2 1_555 1_555
C1 C2 1_555 1_555
C2 H3 1_555 1_555
C3 C2 1_555 1_555
H4 C3 1_555 1_555
C4 C3 1_555 1_555
C5 C4 1_555 1_555
H5 C5 1_555 1_555
C6 C1 1_555 1_555
H6 C6 1_555 1_555
C7 C1 1_555 1_555
H7 C7 1_555 1_555
C8 C7 1_555 1_555
H8 C8 1_555 1_555
H9 C8 1_555 1_555
C9 C8 1_555 1_555
C10 C9 1_555 1_555
H10 C10 1_555 1_555
C11 C10 1_555 1_555
H11 C11 1_555 1_555
C12 C11 1_555 1_555
H12 C12 1_555 1_555
C13 C12 1_555 1_555
H13 C13 1_555 1_555
C14 C9 1_555 1_555
C15 C14 1_555 1_555
C16 C7 1_555 1_555
C17 C16 1_555 1_555
C18 C17 1_555 1_555
H14 C18 1_555 1_555
C19 C18 1_555 1_555
H15 C19 1_555 1_555
C20 C19 1_555 1_555
H16 C20 1_555 1_555
C21 C20 1_555 1_555
H17 C21 1_555 1_555
C22 C17 1_555 1_555
C23 N1 1_555 1_555
C24 N2 1_555 1_555
C25 C24 1_555 1_555
C26 C25 1_555 1_555
H18 C26 1_555 1_555
C27 C26 1_555 1_555
H19 C27 1_555 1_555
C28 C27 1_555 1_555
H20 C28 1_555 1_555
C29 C28 1_555 1_555
H21 C29 1_555 1_555
C30 C25 1_555 1_555
H22 C30 1_555 1_555
C31 C32 1_555 1_555
C32 H23 1_555 1_555
C33 C32 1_555 1_555
H24 C33 1_555 1_555
C34 C33 1_555 1_555
C35 C34 1_555 1_555
H25 C35 1_555 1_555
C36 C31 1_555 1_555
H26 C36 1_555 1_555
C37 C31 1_555 1_555
H27 C37 1_555 1_555
C38 C37 1_555 1_555
H28 C38 1_555 1_555
H29 C38 1_555 1_555
C39 C38 1_555 1_555
C40 C39 1_555 1_555
H30 C40 1_555 1_555
C41 C40 1_555 1_555
H31 C41 1_555 1_555
C42 C41 1_555 1_555
H32 C42 1_555 1_555
C43 C42 1_555 1_555
H33 C43 1_555 1_555
C44 C39 1_555 1_555
C45 C44 1_555 1_555
C46 C37 1_555 1_555
C47 C46 1_555 1_555
C48 C47 1_555 1_555
H34 C48 1_555 1_555
C49 C48 1_555 1_555
H35 C49 1_555 1_555
C50 C49 1_555 1_555
H36 C50 1_555 1_555
C51 C50 1_555 1_555
H37 C51 1_555 1_555
C52 C47 1_555 1_555
C53 N3 1_555 1_555
C54 N4 1_555 1_555
C55 C54 1_555 1_555
C56 C55 1_555 1_555
H38 C56 1_555 1_555
C57 C56 1_555 1_555
H39 C57 1_555 1_555
C58 C57 1_555 1_555
H40 C58 1_555 1_555
C59 C58 1_555 1_555
H41 C59 1_555 1_555
C60 C55 1_555 1_555
H42 C60 1_555 1_555
N2 C23 1_555 1_555
N4 C53 1_555 1_555
C5 C6 1_555 1_555
C13 C14 1_555 1_555
C15 C16 1_555 1_555
C21 C22 1_555 1_555
C22 C23 1_555 1_555
C29 C30 1_555 1_555
C35 C36 1_555 1_555
C43 C44 1_555 1_555
C45 C46 1_555 1_555
C51 C52 1_555 1_555
C52 C53 1_555 1_555
C59 C60 1_555 1_555

#END
