
#######################################################################
#
#                 Cambridge Crystallographic Data Centre
#                                CCDC 
#
#######################################################################
#
# If this CIF has been generated from an entry in the Cambridge 
# Structural Database, then it will include bibliographic, chemical, 
# crystal, experimental, refinement or atomic coordinate data resulting 
# from the CCDC's data processing and validation procedures.
#
#######################################################################

data_VACKUH
_chemical_formula_moiety         'C21 H15 N1 O3 S1'
_chemical_name_systematic        
Phenyl(1-(phenylsulfonyl)-1H-indol-3-yl)methanone
_symmetry_cell_setting           triclinic
_symmetry_space_group_name_H-M   'P -1'
_symmetry_Int_Tables_number      2
_space_group_name_Hall           '-P 1'
loop_
_symmetry_equiv_pos_site_id
_symmetry_equiv_pos_as_xyz
1 x,y,z
2 -x,-y,-z
_cell_length_a                   7.5670(10)
_cell_length_b                   10.571(2)
_cell_length_c                   12.083(3)
_cell_angle_alpha                66.302(2)
_cell_angle_beta                 80.7400(10)
_cell_angle_gamma                78.4030(10)
_cell_volume                     863.495
_exptl_crystal_colour            colorless
_exptl_crystal_description       block
_cell_formula_units_Z            2
_exptl_crystal_recrystallization_method methanol
loop_
_atom_site_label
_atom_site_type_symbol
_atom_site_fract_x
_atom_site_fract_y
_atom_site_fract_z
C1 C 0.7233(2) 0.05722(16) 0.20701(13)
C2 C 0.6154(3) 0.0869(2) 0.29978(15)
H1 H 0.6523 0.1388 0.3360
C3 C 0.4508(3) 0.0376(2) 0.33759(18)
H2 H 0.3759 0.0567 0.3997
C4 C 0.3975(3) -0.0394(2) 0.2838(2)
H3 H 0.2866 -0.0718 0.3097
C5 C 0.5061(3) -0.0687(2) 0.1928(2)
H4 H 0.4690 -0.1215 0.1575
C6 C 0.6701(2) -0.02074(19) 0.15289(17)
H5 H 0.7440 -0.0403 0.0906
C7 C 0.80636(19) 0.40437(16) 0.04797(13)
C8 C 0.7914(2) 0.44779(18) 0.14366(15)
H6 H 0.8305 0.3873 0.2188
C9 C 0.7164(2) 0.5838(2) 0.12251(18)
H7 H 0.7018 0.6157 0.1853
C10 C 0.6617(3) 0.6751(2) 0.00966(19)
H8 H 0.6130 0.7671 -0.0019
C11 C 0.6778(2) 0.63262(18) -0.08489(17)
H9 H 0.6412 0.6948 -0.1603
C12 C 0.75050(19) 0.49375(16) -0.06607(14)
C13 C 0.7882(2) 0.41551(16) -0.14359(13)
C14 C 0.86292(19) 0.28383(16) -0.07641(12)
H10 H 0.8982 0.2113 -0.1040
C15 C 0.7413(2) 0.46868(18) -0.26928(14)
C16 C 0.8200(2) 0.39033(18) -0.34881(13)
C17 C 0.9990(3) 0.32957(19) -0.35204(14)
H11 H 1.0737 0.3291 -0.2978
C18 C 1.0679(3) 0.2692(2) -0.43577(17)
H12 H 1.1893 0.2301 -0.4391
C19 C 0.9549(4) 0.2676(2) -0.51451(18)
H13 H 1.0000 0.2259 -0.5700
C20 C 0.7771(4) 0.3274(3) -0.51087(19)
H14 H 0.7017 0.3266 -0.5642
C21 C 0.7103(3) 0.3879(2) -0.42929(16)
H15 H 0.5894 0.4283 -0.4275
N1 N 0.87874(17) 0.27365(13) 0.04012(10)
O1 O 0.98538(16) 0.15404(13) 0.24616(10)
O2 O 1.04747(14) 0.03484(12) 0.10209(10)
O3 O 0.63449(19) 0.57703(15) -0.30880(11)
S1 S 0.92933(5) 0.12195(4) 0.15505(3)
loop_
_geom_bond_atom_site_label_1
_geom_bond_atom_site_label_2
_geom_bond_site_symmetry_1
_geom_bond_site_symmetry_2
C1 C2 1_555 1_555
C2 H1 1_555 1_555
C3 C2 1_555 1_555
H2 C3 1_555 1_555
C4 C3 1_555 1_555
H3 C4 1_555 1_555
C5 C4 1_555 1_555
H4 C5 1_555 1_555
C6 C1 1_555 1_555
H5 C6 1_555 1_555
C7 C8 1_555 1_555
C8 H6 1_555 1_555
C9 C8 1_555 1_555
H7 C9 1_555 1_555
C10 C9 1_555 1_555
H8 C10 1_555 1_555
C11 C10 1_555 1_555
H9 C11 1_555 1_555
C12 C7 1_555 1_555
C13 C12 1_555 1_555
C14 C13 1_555 1_555
H10 C14 1_555 1_555
C15 C13 1_555 1_555
C16 C15 1_555 1_555
C17 C16 1_555 1_555
H11 C17 1_555 1_555
C18 C17 1_555 1_555
H12 C18 1_555 1_555
C19 C18 1_555 1_555
H13 C19 1_555 1_555
C20 C19 1_555 1_555
H14 C20 1_555 1_555
C21 C16 1_555 1_555
H15 C21 1_555 1_555
N1 C7 1_555 1_555
O1 S1 1_555 1_555
O2 S1 1_555 1_555
O3 C15 1_555 1_555
S1 C1 1_555 1_555
C5 C6 1_555 1_555
C11 C12 1_555 1_555
C14 N1 1_555 1_555
C20 C21 1_555 1_555
N1 S1 1_555 1_555

#END
