
#######################################################################
#
#                 Cambridge Crystallographic Data Centre
#                                CCDC 
#
#######################################################################
#
# If this CIF has been generated from an entry in the Cambridge 
# Structural Database, then it will include bibliographic, chemical, 
# crystal, experimental, refinement or atomic coordinate data resulting 
# from the CCDC's data processing and validation procedures.
#
#######################################################################

data_VACKAO
_chemical_formula_moiety         'C38 H16 F10 N4,C3 H6 O1'
_chemical_name_systematic        
"10-(pentafluorophenyl)-5-((pentafluorophenyl)(1H-pyrrol-2-yl)methylene)-5,5a-dihydroindolo[3',2':6,7]pyrrolo[1',2':3,4][1,3]diazepino[1,2-a]indole acetone solvate"
_symmetry_cell_setting           triclinic
_symmetry_space_group_name_H-M   'P -1'
_symmetry_Int_Tables_number      2
_space_group_name_Hall           '-P 1'
loop_
_symmetry_equiv_pos_site_id
_symmetry_equiv_pos_as_xyz
1 x,y,z
2 -x,-y,-z
_cell_length_a                   9.9304(18)
_cell_length_b                   12.231(2)
_cell_length_c                   14.545(3)
_cell_angle_alpha                75.314(4)
_cell_angle_beta                 82.512(4)
_cell_angle_gamma                80.770(4)
_cell_volume                     1679.32
_exptl_crystal_colour            brown
_exptl_crystal_description       Rectangular
_cell_formula_units_Z            2
_exptl_crystal_recrystallization_method 'Vapour Deposition'
loop_
_atom_site_label
_atom_site_type_symbol
_atom_site_fract_x
_atom_site_fract_y
_atom_site_fract_z
F1 F 0.81298(15) 0.64549(12) -0.43738(11)
F2 F -0.00589(17) -0.18416(13) 0.45377(12)
F3 F 0.83382(15) 0.65013(11) -0.25368(11)
F4 F 0.66885(15) 0.53956(11) -0.11123(10)
F5 F 0.42096(15) -0.13831(11) 0.27853(10)
F6 F 0.26169(16) -0.26722(11) 0.41218(11)
F7 F -0.11215(17) 0.02382(13) 0.35414(13)
F8 F 0.04793(16) 0.15357(11) 0.22110(11)
F9 F 0.45462(15) 0.42311(12) -0.33490(10)
F10 F 0.61931(17) 0.53601(13) -0.47707(10)
N1 N 0.3999(2) 0.16224(15) 0.00605(14)
N2 N 0.2695(2) 0.56512(15) -0.17440(14)
H1 H 0.3189 0.6173 -0.2040
N3 N 0.6069(2) 0.22071(15) 0.23587(14)
N4 N 0.5625(2) 0.22879(15) 0.07948(14)
C1 C 0.7283(3) 0.59359(19) -0.36673(18)
C2 C 0.7388(3) 0.59540(19) -0.27388(19)
C3 C 0.6527(3) 0.53896(19) -0.20170(17)
C4 C 0.5541(2) 0.47955(18) -0.21876(17)
C5 C 0.4656(3) 0.41347(18) -0.13979(17)
C6 C 0.5272(3) 0.32453(18) -0.07664(17)
C7 C 0.4541(3) 0.26332(18) 0.01492(17)
H2 H 0.3806 0.3158 0.0387
C8 C 0.3332(2) 0.09017(18) 0.08176(17)
C9 C 0.3339(2) 0.08849(17) 0.18055(17)
C10 C 0.2395(3) 0.01249(19) 0.24636(17)
C11 C 0.2889(3) -0.09697(19) 0.29600(18)
C12 C 0.2083(3) -0.16380(19) 0.36431(18)
C13 C 0.0738(3) -0.1224(2) 0.38494(19)
C14 C 0.3192(3) 0.45276(18) -0.13530(17)
C15 C 0.1313(3) 0.5805(2) -0.15896(19)
H3 H 0.0751 0.6492 -0.1775
C16 C 0.0876(3) 0.47893(19) -0.11178(19)
H4 H -0.0028 0.4656 -0.0935
C17 C 0.2056(3) 0.39828(19) -0.09620(18)
H5 H 0.2071 0.3217 -0.0651
C18 C 0.2776(3) 0.01731(18) 0.04187(18)
H6 H 0.2270 -0.0405 0.0753
C19 C 0.3106(3) 0.04563(18) -0.05620(18)
H7 H 0.2865 0.0102 -0.1000
C20 C 0.3856(3) 0.13562(19) -0.07695(18)
H8 H 0.4205 0.1720 -0.1375
C21 C 0.0198(3) -0.0167(2) 0.3348(2)
C22 C 0.1029(3) 0.04882(19) 0.26693(19)
C23 C 0.4124(2) 0.14122(18) 0.22194(17)
C24 C 0.4182(3) 0.13656(18) 0.32339(18)
C25 C 0.3347(3) 0.10376(18) 0.40736(18)
H9 H 0.2556 0.0724 0.4068
C26 C 0.3709(3) 0.1184(2) 0.49186(19)
H10 H 0.3151 0.0968 0.5481
C27 C 0.4890(3) 0.1649(2) 0.49403(18)
H11 H 0.5108 0.1741 0.5516
C28 C 0.5746(3) 0.19762(19) 0.41159(18)
H12 H 0.6539 0.2284 0.4130
C29 C 0.5385(3) 0.18314(18) 0.32733(18)
C30 C 0.5314(2) 0.20048(18) 0.17598(17)
C31 C 0.6916(3) 0.23503(18) 0.02673(17)
C32 C 0.6730(3) 0.28385(18) -0.06947(18)
C33 C 0.7884(3) 0.28519(18) -0.13623(19)
H13 H 0.7793 0.3150 -0.2010
C34 C 0.9164(3) 0.24160(19) -0.10458(19)
H14 H 0.9931 0.2411 -0.1487
C35 C 0.9316(3) 0.19884(19) -0.00827(19)
H15 H 1.0190 0.1724 0.0112
C36 C 0.8195(3) 0.19453(18) 0.05987(19)
H16 H 0.8297 0.1659 0.1246
C37 C 0.5459(3) 0.48164(19) -0.31369(18)
C38 C 0.6304(3) 0.5371(2) -0.38666(18)
O1 O 1.0428(2) 0.62666(18) 0.34373(15)
C39 C 0.9246(3) 0.6095(2) 0.3490(2)
C40 C 0.8106(3) 0.7047(2) 0.3228(2)
H17 H 0.8466 0.7762 0.3047
H18 H 0.7434 0.7046 0.3766
H19 H 0.7687 0.6943 0.2703
C41 C 0.8861(3) 0.4907(2) 0.3829(2)
H20 H 0.9506 0.4397 0.3532
H21 H 0.7959 0.4903 0.3661
H22 H 0.8874 0.4663 0.4510
loop_
_geom_bond_atom_site_label_1
_geom_bond_atom_site_label_2
_geom_bond_site_symmetry_1
_geom_bond_site_symmetry_2
F1 C1 1_555 1_555
F2 C13 1_555 1_555
F3 C2 1_555 1_555
F4 C3 1_555 1_555
F5 C11 1_555 1_555
F6 C12 1_555 1_555
F7 C21 1_555 1_555
F8 C22 1_555 1_555
F9 C37 1_555 1_555
F10 C38 1_555 1_555
N1 C7 1_555 1_555
N2 H1 1_555 1_555
N3 C29 1_555 1_555
N4 C7 1_555 1_555
C1 C2 1_555 1_555
C2 C3 1_555 1_555
C3 C4 1_555 1_555
C4 C5 1_555 1_555
C5 C6 1_555 1_555
C6 C7 1_555 1_555
C7 H2 1_555 1_555
C8 N1 1_555 1_555
C9 C8 1_555 1_555
C10 C9 1_555 1_555
C11 C10 1_555 1_555
C12 C11 1_555 1_555
C13 C12 1_555 1_555
C14 N2 1_555 1_555
C15 N2 1_555 1_555
H3 C15 1_555 1_555
C16 C15 1_555 1_555
H4 C16 1_555 1_555
C17 C14 1_555 1_555
H5 C17 1_555 1_555
C18 C8 1_555 1_555
H6 C18 1_555 1_555
C19 C18 1_555 1_555
H7 C19 1_555 1_555
C20 N1 1_555 1_555
H8 C20 1_555 1_555
C21 C13 1_555 1_555
C22 C10 1_555 1_555
C23 C9 1_555 1_555
C24 C23 1_555 1_555
C25 C24 1_555 1_555
H9 C25 1_555 1_555
C26 C25 1_555 1_555
H10 C26 1_555 1_555
C27 C26 1_555 1_555
H11 C27 1_555 1_555
C28 C27 1_555 1_555
H12 C28 1_555 1_555
C29 C24 1_555 1_555
C30 N3 1_555 1_555
C31 N4 1_555 1_555
C32 C6 1_555 1_555
C33 C32 1_555 1_555
H13 C33 1_555 1_555
C34 C33 1_555 1_555
H14 C34 1_555 1_555
C35 C34 1_555 1_555
H15 C35 1_555 1_555
C36 C31 1_555 1_555
H16 C36 1_555 1_555
C37 C4 1_555 1_555
C38 C1 1_555 1_555
O1 C39 1_555 1_555
C39 C40 1_555 1_555
C40 H17 1_555 1_555
H18 C40 1_555 1_555
H19 C40 1_555 1_555
C41 C39 1_555 1_555
H20 C41 1_555 1_555
H21 C41 1_555 1_555
H22 C41 1_555 1_555
N4 C30 1_555 1_555
C5 C14 1_555 1_555
C16 C17 1_555 1_555
C19 C20 1_555 1_555
C21 C22 1_555 1_555
C23 C30 1_555 1_555
C28 C29 1_555 1_555
C31 C32 1_555 1_555
C35 C36 1_555 1_555
C37 C38 1_555 1_555

#END
