
#######################################################################
#
#                 Cambridge Crystallographic Data Centre
#                                CCDC 
#
#######################################################################
#
# If this CIF has been generated from an entry in the Cambridge 
# Structural Database, then it will include bibliographic, chemical, 
# crystal, experimental, refinement or atomic coordinate data resulting 
# from the CCDC's data processing and validation procedures.
#
#######################################################################

data_VACKOB
_chemical_name_common            3-(Pyridin-2-yl)coumarin
_chemical_formula_moiety         'C14 H9 N1 O2'
_chemical_name_systematic        3-(Pyridin-2-yl)-2H-chromen-2-one
_symmetry_cell_setting           orthorhombic
_symmetry_space_group_name_H-M   'P b c a'
_symmetry_Int_Tables_number      61
_space_group_name_Hall           '-P 2ac 2ab'
loop_
_symmetry_equiv_pos_site_id
_symmetry_equiv_pos_as_xyz
1 x,y,z
2 1/2-x,-y,1/2+z
3 1/2+x,1/2-y,-z
4 -x,1/2+y,1/2-z
5 -x,-y,-z
6 1/2+x,y,1/2-z
7 1/2-x,1/2+y,z
8 x,1/2-y,1/2+z
_cell_length_a                   7.1107(3)
_cell_length_b                   13.9635(5)
_cell_length_c                   21.2867(9)
_cell_angle_alpha                90
_cell_angle_beta                 90
_cell_angle_gamma                90
_cell_volume                     2113.56
_exptl_crystal_colour            colorless
_exptl_crystal_description       block
_chemical_melting_point          '416-417 K'
_cell_formula_units_Z            8
_exptl_crystal_recrystallization_method methanol
loop_
_atom_site_label
_atom_site_type_symbol
_atom_site_fract_x
_atom_site_fract_y
_atom_site_fract_z
C1 C 0.2429(4) 0.14529(15) 0.41263(10)
C2 C 0.3906(4) 0.20503(18) 0.42654(12)
H1 H 0.3935 0.2381 0.4645
C3 C 0.5343(4) 0.21543(19) 0.38377(14)
H2 H 0.6346 0.2559 0.3928
C4 C 0.5307(4) 0.1655(2) 0.32686(13)
H3 H 0.6279 0.1730 0.2980
C5 C 0.3826(4) 0.10503(18) 0.31356(11)
H4 H 0.3811 0.0716 0.2758
C6 C 0.2348(3) 0.09346(15) 0.35618(10)
C7 C 0.0765(3) 0.03304(15) 0.34618(9)
H5 H 0.0717 -0.0030 0.3095
C8 C -0.0669(3) 0.02542(14) 0.38726(9)
C9 C -0.0573(4) 0.08126(16) 0.44606(10)
C10 C -0.2310(3) -0.03764(15) 0.37410(9)
C11 C -0.3687(4) -0.06205(18) 0.41772(11)
H6 H -0.3634 -0.0377 0.4583
C12 C -0.5124(4) -0.1222(2) 0.40050(12)
H7 H -0.6053 -0.1386 0.4293
C13 C -0.5179(4) -0.15823(19) 0.34010(12)
H8 H -0.6128 -0.1997 0.3273
C14 C -0.3768(4) -0.13020(18) 0.29945(11)
H9 H -0.3802 -0.1538 0.2586
N1 N -0.2370(3) -0.07198(14) 0.31462(8)
O1 O 0.0984(3) 0.13797(12) 0.45491(8)
O2 O -0.1716(3) 0.08250(16) 0.48780(9)
loop_
_geom_bond_atom_site_label_1
_geom_bond_atom_site_label_2
_geom_bond_site_symmetry_1
_geom_bond_site_symmetry_2
C1 C2 1_555 1_555
C2 H1 1_555 1_555
C3 C2 1_555 1_555
H2 C3 1_555 1_555
C4 C3 1_555 1_555
H3 C4 1_555 1_555
C5 C4 1_555 1_555
H4 C5 1_555 1_555
C6 C1 1_555 1_555
C7 C6 1_555 1_555
H5 C7 1_555 1_555
C8 C7 1_555 1_555
C9 C8 1_555 1_555
C10 C8 1_555 1_555
C11 C10 1_555 1_555
H6 C11 1_555 1_555
C12 C11 1_555 1_555
H7 C12 1_555 1_555
C13 C12 1_555 1_555
H8 C13 1_555 1_555
C14 C13 1_555 1_555
H9 C14 1_555 1_555
N1 C10 1_555 1_555
O1 C1 1_555 1_555
O2 C9 1_555 1_555
C5 C6 1_555 1_555
C9 O1 1_555 1_555
C14 N1 1_555 1_555

#END
