
#######################################################################
#
#                 Cambridge Crystallographic Data Centre
#                                CCDC 
#
#######################################################################
#
# If this CIF has been generated from an entry in the Cambridge 
# Structural Database, then it will include bibliographic, chemical, 
# crystal, experimental, refinement or atomic coordinate data resulting 
# from the CCDC's data processing and validation procedures.
#
#######################################################################

data_VACMOD
_chemical_name_common            
'Ethyl 2-(4-chlorophenyl)-3-((2,4-difluorophenyl)amino)acrylate'
_chemical_formula_moiety         'C17 H14 Cl1 F2 N1 O2'
_chemical_name_systematic        
'(Z)-Ethyl 2-(4-chlorophenyl)-3-[(2,4-difluorophenyl)amino]prop-2-enoate'
_symmetry_cell_setting           monoclinic
_symmetry_space_group_name_H-M   'P 21/c'
_symmetry_Int_Tables_number      14
_space_group_name_Hall           '-P 2ybc'
loop_
_symmetry_equiv_pos_site_id
_symmetry_equiv_pos_as_xyz
1 x,y,z
2 -x,1/2+y,1/2-z
3 -x,-y,-z
4 x,1/2-y,1/2+z
_cell_length_a                   16.276(3)
_cell_length_b                   7.5030(15)
_cell_length_c                   13.812(3)
_cell_angle_alpha                90
_cell_angle_beta                 111.11(3)
_cell_angle_gamma                90
_cell_volume                     1573.51
_exptl_crystal_colour            colorless
_exptl_crystal_description       block
_cell_formula_units_Z            4
loop_
_atom_site_label
_atom_site_type_symbol
_atom_site_fract_x
_atom_site_fract_y
_atom_site_fract_z
C1 C 1.0185(2) 0.7793(5) 0.9700(2)
C2 C 1.1023(2) 0.7723(5) 1.0451(2)
C3 C 1.1764(2) 0.8338(5) 1.0316(3)
H1 H 1.2316 0.8267 1.0841
C4 C 1.1653(2) 0.9062(6) 0.9370(3)
C5 C 1.0852(3) 0.9180(5) 0.8598(3)
H2 H 1.0799 0.9696 0.7966
C6 C 1.0122(2) 0.8536(5) 0.8756(3)
H3 H 0.9575 0.8598 0.8222
C7 C 0.7054(2) 0.6470(5) 0.8669(2)
C8 C 0.6325(2) 0.7235(5) 0.8805(3)
H4 H 0.6377 0.7669 0.9456
C9 C 0.5528(2) 0.7365(5) 0.7997(3)
H5 H 0.5046 0.7872 0.8103
C10 C 0.5451(2) 0.6741(5) 0.7036(3)
C11 C 0.6148(2) 0.5949(5) 0.6881(3)
H6 H 0.6087 0.5507 0.6229
C12 C 0.6946(2) 0.5807(5) 0.7697(2)
H7 H 0.7418 0.5255 0.7590
C13 C 0.8638(2) 0.7024(5) 0.9292(2)
H8 H 0.8524 0.7370 0.8610
C14 C 0.7936(2) 0.6482(5) 0.9515(2)
C15 C 0.8066(2) 0.5946(5) 1.0578(2)
C16 C 0.7412(2) 0.4743(6) 1.1713(2)
H9 H 0.7579 0.5751 1.2184
H10 H 0.7856 0.3821 1.1972
C17 C 0.6536(2) 0.4057(6) 1.1638(3)
H11 H 0.6094 0.4936 1.1312
H12 H 0.6540 0.3807 1.2321
H13 H 0.6408 0.2985 1.1231
Cl1 Cl 0.44479(7) 0.69755(18) 0.60035(8)
F1 F 1.10991(12) 0.7013(3) 1.13887(14)
F2 F 1.23767(15) 0.9700(4) 0.92091(18)
N1 N 0.94818(18) 0.7123(4) 0.9939(2)
O1 O 0.87698(16) 0.6036(4) 1.13063(17)
O2 O 0.73408(15) 0.5283(3) 1.06790(16)
H14 H 0.961(2) 0.673(4) 1.054(3)
loop_
_geom_bond_atom_site_label_1
_geom_bond_atom_site_label_2
_geom_bond_site_symmetry_1
_geom_bond_site_symmetry_2
C1 C2 1_555 1_555
C2 C3 1_555 1_555
C3 H1 1_555 1_555
C4 C3 1_555 1_555
C5 C4 1_555 1_555
H2 C5 1_555 1_555
C6 C1 1_555 1_555
H3 C6 1_555 1_555
C7 C8 1_555 1_555
C8 H4 1_555 1_555
C9 C8 1_555 1_555
H5 C9 1_555 1_555
C10 C9 1_555 1_555
C11 C10 1_555 1_555
H6 C11 1_555 1_555
C12 C7 1_555 1_555
H7 C12 1_555 1_555
C13 H8 1_555 1_555
C14 C7 1_555 1_555
C15 C14 1_555 1_555
C16 H9 1_555 1_555
H10 C16 1_555 1_555
C17 C16 1_555 1_555
H11 C17 1_555 1_555
H12 C17 1_555 1_555
H13 C17 1_555 1_555
Cl1 C10 1_555 1_555
F1 C2 1_555 1_555
F2 C4 1_555 1_555
N1 C1 1_555 1_555
O1 C15 1_555 1_555
O2 C15 1_555 1_555
H14 N1 1_555 1_555
C5 C6 1_555 1_555
C11 C12 1_555 1_555
C13 C14 1_555 1_555
C13 N1 1_555 1_555
C16 O2 1_555 1_555

#END
