
#######################################################################
#
#                 Cambridge Crystallographic Data Centre
#                                CCDC 
#
#######################################################################
#
# If this CIF has been generated from an entry in the Cambridge 
# Structural Database, then it will include bibliographic, chemical, 
# crystal, experimental, refinement or atomic coordinate data resulting 
# from the CCDC's data processing and validation procedures.
#
#######################################################################

data_VACMIX
_chemical_formula_moiety         'C19 H20 O5'
_chemical_name_systematic        
(E)-3-(2,4-Dimethoxyphenyl)-1-(3,4-dimethoxyphenyl)prop-2-en-1-one
_symmetry_cell_setting           monoclinic
_symmetry_space_group_name_H-M   'P 21/n'
_symmetry_Int_Tables_number      14
_space_group_name_Hall           '-P 2yn'
loop_
_symmetry_equiv_pos_site_id
_symmetry_equiv_pos_as_xyz
1 x,y,z
2 1/2-x,1/2+y,1/2-z
3 -x,-y,-z
4 1/2+x,1/2-y,1/2+z
_cell_length_a                   9.031(5)
_cell_length_b                   7.962(5)
_cell_length_c                   23.631(14)
_cell_angle_alpha                90
_cell_angle_beta                 92.827(10)
_cell_angle_gamma                90
_cell_volume                     1697.11
_exptl_crystal_colour            colorless
_exptl_crystal_description       block
_cell_formula_units_Z            4
loop_
_atom_site_label
_atom_site_type_symbol
_atom_site_fract_x
_atom_site_fract_y
_atom_site_fract_z
O1 O 0.28103(12) 0.90184(19) 0.42954(5)
O2 O 0.70723(11) 0.80481(15) 0.32588(5)
O3 O 1.12815(14) 0.4756(2) 0.43350(6)
O4 O 1.56960(12) 0.36084(15) 0.31617(5)
O5 O 1.51234(12) 0.49882(14) 0.21947(5)
C1 C 0.2027(2) 0.8905(3) 0.48040(9)
H1 H 0.1911 0.7746 0.4905
H2 H 0.1068 0.9414 0.4746
H3 H 0.2574 0.9479 0.5104
C2 C 0.42024(16) 0.8369(2) 0.42967(7)
C3 C 0.49109(19) 0.7598(3) 0.47532(7)
H4 H 0.4444 0.7487 0.5093
C4 C 0.63289(18) 0.6990(2) 0.46998(7)
H5 H 0.6801 0.6467 0.5011
C5 C 0.70830(16) 0.71205(19) 0.42044(7)
C6 C 0.63254(15) 0.79194(18) 0.37421(6)
C7 C 0.49051(16) 0.8529(2) 0.37918(7)
H6 H 0.4417 0.9052 0.3484
C8 C 0.63986(18) 0.8895(2) 0.27838(7)
H7 H 0.5486 0.8345 0.2670
H8 H 0.7055 0.8875 0.2476
H9 H 0.6199 1.0038 0.2884
C9 C 0.85599(16) 0.6388(2) 0.41978(7)
H10 H 0.8906 0.5935 0.4542
C10 C 0.94973(16) 0.6258(2) 0.37837(7)
H11 H 0.9239 0.6703 0.3429
C11 C 1.09404(17) 0.5415(2) 0.38803(7)
C12 C 1.19894(16) 0.53612(18) 0.34148(6)
C13 C 1.17154(16) 0.61029(19) 0.28937(7)
H12 H 1.0832 0.6682 0.2822
C14 C 1.27305(17) 0.60041(19) 0.24734(7)
H13 H 1.2519 0.6506 0.2123
C15 C 1.40530(16) 0.51638(18) 0.25735(7)
C16 C 1.43577(15) 0.44187(18) 0.31052(6)
C17 C 1.33443(16) 0.45188(19) 0.35158(7)
H14 H 1.3555 0.4022 0.3867
C18 C 1.61263(19) 0.2977(2) 0.37027(8)
H15 H 1.6114 0.3869 0.3976
H16 H 1.7109 0.2520 0.3696
H17 H 1.5449 0.2111 0.3805
C19 C 1.4842(2) 0.5671(3) 0.16424(7)
H18 H 1.3940 0.5204 0.1478
H19 H 1.5650 0.5401 0.1409
H20 H 1.4745 0.6869 0.1668
loop_
_geom_bond_atom_site_label_1
_geom_bond_atom_site_label_2
_geom_bond_site_symmetry_1
_geom_bond_site_symmetry_2
O1 C1 1_555 1_555
O2 C6 1_555 1_555
O3 C11 1_555 1_555
O4 C16 1_555 1_555
O5 C15 1_555 1_555
C1 H1 1_555 1_555
H2 C1 1_555 1_555
H3 C1 1_555 1_555
C2 O1 1_555 1_555
C3 C2 1_555 1_555
H4 C3 1_555 1_555
C4 C3 1_555 1_555
H5 C4 1_555 1_555
C5 C4 1_555 1_555
C6 C5 1_555 1_555
C7 C2 1_555 1_555
H6 C7 1_555 1_555
C8 O2 1_555 1_555
H7 C8 1_555 1_555
H8 C8 1_555 1_555
H9 C8 1_555 1_555
C9 C5 1_555 1_555
H10 C9 1_555 1_555
C10 C9 1_555 1_555
H11 C10 1_555 1_555
C11 C10 1_555 1_555
C12 C11 1_555 1_555
C13 C12 1_555 1_555
H12 C13 1_555 1_555
C14 C13 1_555 1_555
H13 C14 1_555 1_555
C15 C14 1_555 1_555
C16 C15 1_555 1_555
C17 C12 1_555 1_555
H14 C17 1_555 1_555
C18 O4 1_555 1_555
H15 C18 1_555 1_555
H16 C18 1_555 1_555
H17 C18 1_555 1_555
C19 O5 1_555 1_555
H18 C19 1_555 1_555
H19 C19 1_555 1_555
H20 C19 1_555 1_555
C6 C7 1_555 1_555
C16 C17 1_555 1_555

#END
