
#######################################################################
#
#                 Cambridge Crystallographic Data Centre
#                                CCDC 
#
#######################################################################
#
# If this CIF has been generated from an entry in the Cambridge 
# Structural Database, then it will include bibliographic, chemical, 
# crystal, experimental, refinement or atomic coordinate data resulting 
# from the CCDC's data processing and validation procedures.
#
#######################################################################

data_VACPOH
_chemical_formula_moiety         'C17 H24 O2'
_chemical_name_systematic        
2,3a'-dimethyltetrahydro-3H-dispiro[cyclohexane-1,1'-pentalene-6',1''-cyclopropane]-2',3(3'H)-dione
_symmetry_cell_setting           monoclinic
_symmetry_space_group_name_H-M   'C 2'
_symmetry_Int_Tables_number      5
_space_group_name_Hall           'C 2y'
loop_
_symmetry_equiv_pos_site_id
_symmetry_equiv_pos_as_xyz
1 x,y,z
2 -x,y,-z
3 1/2+x,1/2+y,z
4 1/2-x,1/2+y,-z
_cell_length_a                   14.1635(3)
_cell_length_b                   8.22155(17)
_cell_length_c                   25.0437(6)
_cell_angle_alpha                90
_cell_angle_beta                 98.348(2)
_cell_angle_gamma                90
_cell_volume                     2885.34
_exptl_crystal_colour            'light colorless'
_exptl_crystal_description       block
_cell_formula_units_Z            8
loop_
_atom_site_label
_atom_site_type_symbol
_atom_site_fract_x
_atom_site_fract_y
_atom_site_fract_z
O1 O -0.14167(14) -0.1925(2) -0.30994(8)
O2 O -0.48058(12) -0.2967(3) -0.41138(8)
C1 C -0.17504(14) -0.0692(3) -0.33090(8)
C2 C -0.13989(15) 0.0987(3) -0.31881(9)
H1 H -0.0865 0.1228 -0.3378
H2 H -0.1196 0.1124 -0.2804
C3 C -0.22426(15) 0.2096(3) -0.33820(8)
C4 C -0.28747(12) 0.1152(2) -0.38451(7)
H3 H -0.2691 0.1519 -0.4188
C5 C -0.25941(12) -0.0681(2) -0.37756(7)
C6 C -0.33139(14) -0.2008(2) -0.36574(8)
H4 H -0.2912 -0.2961 -0.3558
C7 C -0.39938(16) -0.2573(3) -0.41459(9)
C8 C -0.35865(19) -0.2783(4) -0.46635(10)
H5 H -0.4106 -0.2810 -0.4962
H6 H -0.3258 -0.3821 -0.4655
C9 C -0.28944(16) -0.1440(4) -0.47636(9)
H7 H -0.2591 -0.1713 -0.5075
H8 H -0.3240 -0.0428 -0.4839
C10 C -0.21419(14) -0.1229(3) -0.42734(9)
H9 H -0.1680 -0.0424 -0.4351
H10 H -0.1809 -0.2251 -0.4194
C11 C -0.38774(14) 0.1794(3) -0.38183(9)
C12 C -0.3905(2) 0.2498(4) -0.32543(13)
H11 H -0.4067 0.3645 -0.3276
H12 H -0.4372 0.1930 -0.3076
C13 C -0.2913(2) 0.2252(4) -0.29543(10)
H13 H -0.2887 0.1274 -0.2736
H14 H -0.2728 0.3171 -0.2719
C14 C -0.47597(16) 0.1136(3) -0.41506(13)
H15 H -0.5343 0.1131 -0.3990
H16 H -0.4687 0.0220 -0.4385
C15 C -0.43802(18) 0.2750(3) -0.42987(13)
H17 H -0.4732 0.3717 -0.4225
H18 H -0.4075 0.2805 -0.4621
C16 C -0.38220(19) -0.1739(3) -0.31708(9)
H19 H -0.3365 -0.1438 -0.2865
H20 H -0.4138 -0.2724 -0.3091
H21 H -0.4284 -0.0885 -0.3248
C17 C -0.1927(2) 0.3734(3) -0.35789(13)
H22 H -0.1492 0.3564 -0.3834
H23 H -0.1616 0.4348 -0.3278
H24 H -0.2475 0.4323 -0.3749
O3 O -0.16546(15) -0.0408(2) -0.18727(9)
O4 O -0.33732(13) -0.4773(3) -0.08704(9)
C18 C -0.11082(15) -0.1440(3) -0.16734(9)
C19 C -0.01236(16) -0.1737(3) -0.18046(10)
H25 H 0.0333 -0.1008 -0.1601
H26 H -0.0104 -0.1579 -0.2187
C20 C 0.00948(15) -0.3500(3) -0.16435(9)
C21 C -0.04981(12) -0.3894(2) -0.11825(7)
H27 H -0.0081 -0.3725 -0.0839
C22 C -0.13128(13) -0.2587(2) -0.12195(7)
C23 C -0.11545(17) -0.1513(3) -0.07052(9)
H28 H -0.0491 -0.1181 -0.0635
H29 H -0.1543 -0.0540 -0.0766
C24 C -0.1410(2) -0.2408(4) -0.02169(9)
H30 H -0.1278 -0.1719 0.0100
H31 H -0.1023 -0.3381 -0.0154
C25 C -0.2466(2) -0.2876(4) -0.03057(10)
H32 H -0.2590 -0.3595 -0.0017
H33 H -0.2846 -0.1902 -0.0286
C26 C -0.27771(15) -0.3698(3) -0.08346(10)
C27 C -0.23847(13) -0.3055(3) -0.13226(8)
H34 H -0.2713 -0.2013 -0.1397
C28 C -0.06833(15) -0.5713(3) -0.12427(9)
C29 C -0.0611(2) -0.6197(3) -0.18232(11)
H35 H -0.0125 -0.7024 -0.1833
H36 H -0.1216 -0.6618 -0.2000
C30 C -0.0347(2) -0.4662(4) -0.20966(10)
H37 H -0.0909 -0.4174 -0.2303
H38 H 0.0109 -0.4898 -0.2340
C31 C -0.0221(2) -0.6828(4) -0.08010(13)
H39 H 0.0056 -0.7835 -0.0907
H40 H 0.0114 -0.6332 -0.0476
C32 C -0.12850(19) -0.6661(3) -0.09065(13)
H41 H -0.1592 -0.6067 -0.0645
H42 H -0.1650 -0.7569 -0.1076
C33 C -0.27142(16) -0.4066(4) -0.18246(10)
H43 H -0.2465 -0.3605 -0.2128
H44 H -0.3399 -0.4070 -0.1895
H45 H -0.2486 -0.5161 -0.1768
C34 C 0.11517(17) -0.3803(5) -0.14684(15)
H46 H 0.1377 -0.3120 -0.1166
H47 H 0.1496 -0.3558 -0.1762
H48 H 0.1250 -0.4923 -0.1367
loop_
_geom_bond_atom_site_label_1
_geom_bond_atom_site_label_2
_geom_bond_site_symmetry_1
_geom_bond_site_symmetry_2
O1 C1 1_555 1_555
O2 C7 1_555 1_555
C1 C2 1_555 1_555
C2 H1 1_555 1_555
H2 C2 1_555 1_555
C3 C2 1_555 1_555
C4 C3 1_555 1_555
H3 C4 1_555 1_555
C5 C1 1_555 1_555
C6 C5 1_555 1_555
H4 C6 1_555 1_555
C7 C6 1_555 1_555
C8 C7 1_555 1_555
H5 C8 1_555 1_555
H6 C8 1_555 1_555
C9 C8 1_555 1_555
H7 C9 1_555 1_555
H8 C9 1_555 1_555
C10 C5 1_555 1_555
H9 C10 1_555 1_555
H10 C10 1_555 1_555
C11 C4 1_555 1_555
C12 C11 1_555 1_555
H11 C12 1_555 1_555
H12 C12 1_555 1_555
C13 C3 1_555 1_555
H13 C13 1_555 1_555
H14 C13 1_555 1_555
C14 C11 1_555 1_555
H15 C14 1_555 1_555
H16 C14 1_555 1_555
C15 C11 1_555 1_555
H17 C15 1_555 1_555
H18 C15 1_555 1_555
C16 C6 1_555 1_555
H19 C16 1_555 1_555
H20 C16 1_555 1_555
H21 C16 1_555 1_555
C17 C3 1_555 1_555
H22 C17 1_555 1_555
H23 C17 1_555 1_555
H24 C17 1_555 1_555
O3 C18 1_555 1_555
O4 C26 1_555 1_555
C18 C19 1_555 1_555
C19 H25 1_555 1_555
H26 C19 1_555 1_555
C20 C19 1_555 1_555
C21 C20 1_555 1_555
H27 C21 1_555 1_555
C22 C18 1_555 1_555
C23 C22 1_555 1_555
H28 C23 1_555 1_555
H29 C23 1_555 1_555
C24 C23 1_555 1_555
H30 C24 1_555 1_555
H31 C24 1_555 1_555
C25 C24 1_555 1_555
H32 C25 1_555 1_555
H33 C25 1_555 1_555
C26 C25 1_555 1_555
C27 C22 1_555 1_555
H34 C27 1_555 1_555
C28 C21 1_555 1_555
C29 C28 1_555 1_555
H35 C29 1_555 1_555
H36 C29 1_555 1_555
C30 C20 1_555 1_555
H37 C30 1_555 1_555
H38 C30 1_555 1_555
C31 C28 1_555 1_555
H39 C31 1_555 1_555
H40 C31 1_555 1_555
C32 C28 1_555 1_555
H41 C32 1_555 1_555
H42 C32 1_555 1_555
C33 C27 1_555 1_555
H43 C33 1_555 1_555
H44 C33 1_555 1_555
H45 C33 1_555 1_555
C34 C20 1_555 1_555
H46 C34 1_555 1_555
H47 C34 1_555 1_555
H48 C34 1_555 1_555
C4 C5 1_555 1_555
C9 C10 1_555 1_555
C12 C13 1_555 1_555
C14 C15 1_555 1_555
C21 C22 1_555 1_555
C26 C27 1_555 1_555
C29 C30 1_555 1_555
C31 C32 1_555 1_555

#END
