
#######################################################################
#
#                 Cambridge Crystallographic Data Centre
#                                CCDC 
#
#######################################################################
#
# If this CIF has been generated from an entry in the Cambridge 
# Structural Database, then it will include bibliographic, chemical, 
# crystal, experimental, refinement or atomic coordinate data resulting 
# from the CCDC's data processing and validation procedures.
#
#######################################################################

data_VACWAA
_chemical_formula_moiety         'C100 Cl28'
_chemical_name_systematic        octacosachloro-C100-fullerene
_symmetry_cell_setting           monoclinic
_symmetry_space_group_name_H-M   'C 2/c'
_symmetry_Int_Tables_number      15
_space_group_name_Hall           '-C 2yn'
loop_
_symmetry_equiv_pos_site_id
_symmetry_equiv_pos_as_xyz
1 x,y,z
2 -x,y,1/2-z
3 1/2+x,1/2+y,z
4 1/2-x,1/2+y,1/2-z
5 -x,-y,-z
6 x,-y,1/2+z
7 1/2-x,1/2-y,-z
8 1/2+x,1/2-y,1/2+z
_cell_length_a                   31.395(3)
_cell_length_b                   13.2061(7)
_cell_length_c                   20.2180(10)
_cell_angle_alpha                90
_cell_angle_beta                 116.805(8)
_cell_angle_gamma                90
_cell_volume                     7481.77
_exptl_crystal_colour            orange
_exptl_crystal_description       plate
_cell_formula_units_Z            4
loop_
_atom_site_label
_atom_site_type_symbol
_atom_site_fract_x
_atom_site_fract_y
_atom_site_fract_z
Cl1 Cl 0.40924(10) 0.74325(18) 0.21321(15)
Cl2 Cl 0.37807(10) 0.68079(17) 0.07638(15)
Cl3 Cl 0.30317(8) 0.63833(14) 0.1425(3)
Cl4 Cl 0.32664(2) -0.07910(5) 0.19818(4)
Cl5 Cl 0.66355(2) -0.07157(5) 0.47567(3)
Cl6 Cl 0.72620(2) 0.44369(5) 0.52073(4)
Cl7 Cl 0.3485(4) 0.5387(9) 0.3556(4)
Cl8 Cl 0.26494(2) 0.42027(6) 0.23875(4)
Cl9 Cl 0.32513(2) 0.28113(6) 0.37319(4)
Cl10 Cl 0.27179(2) 0.13751(5) 0.24397(4)
Cl11 Cl 0.35738(2) 0.01164(5) 0.35285(3)
Cl12 Cl 0.54365(2) -0.08943(5) 0.47449(3)
Cl13 Cl 0.68843(2) 0.22529(5) 0.59541(3)
Cl14 Cl 0.56596(2) 0.22390(6) 0.58404(4)
C1 C 0.48043(12) 0.5943(4) 0.2110(2)
C2 C 0.43148(13) 0.6002(4) 0.2054(2)
C3 C 0.38848(10) 0.5705(2) 0.13215(17)
C4 C 0.34830(10) 0.5440(2) 0.15804(18)
C5 C 0.32658(9) 0.4433(2) 0.13175(16)
C6 C 0.31785(9) 0.3747(2) 0.17351(15)
C7 C 0.31301(8) 0.27581(19) 0.14006(14)
C8 C 0.32490(8) 0.1887(2) 0.18084(14)
C9 C 0.34235(8) 0.10674(19) 0.15798(14)
C10 C 0.36500(8) 0.03078(19) 0.21942(14)
C11 C 0.41199(8) -0.00285(18) 0.22219(13)
C12 C 0.45462(8) -0.00261(19) 0.28736(13)
C13 C 0.49878(9) -0.02396(18) 0.28415(14)
C14 C 0.54249(9) -0.01514(18) 0.34824(13)
C15 C 0.58571(8) -0.00904(18) 0.34586(13)
C16 C 0.62414(8) 0.02890(19) 0.42002(14)
C17 C 0.65254(8) 0.11139(19) 0.40685(14)
C18 C 0.66410(8) 0.20195(19) 0.44820(14)
C19 C 0.68201(8) 0.28291(19) 0.42472(14)
C20 C 0.67680(9) 0.3948(2) 0.43813(15)
C21 C 0.63083(9) 0.4075(2) 0.44292(16)
C22 C 0.59808(10) 0.4830(2) 0.40383(18)
C23 C 0.55002(10) 0.4759(2) 0.39501(19)
C24 C 0.51146(10) 0.5365(2) 0.34062(19)
C25 C 0.46462(10) 0.5184(2) 0.32924(19)
C26 C 0.42491(10) 0.5557(2) 0.26357(18)
C27 C 0.37688(12) 0.5357(3) 0.24224(19)
C28 C 0.36286(10) 0.4678(2) 0.29078(16)
C29 C 0.32247(9) 0.3856(2) 0.24990(16)
C30 C 0.34176(9) 0.2834(2) 0.29894(15)
C31 C 0.32948(8) 0.1795(2) 0.25702(14)
C32 C 0.36860(9) 0.09117(19) 0.29062(14)
C33 C 0.41982(9) 0.1273(2) 0.33746(14)
C34 C 0.45845(8) 0.06413(19) 0.34875(14)
C35 C 0.50448(9) 0.0901(2) 0.40559(13)
C36 C 0.54563(9) 0.01979(19) 0.42032(13)
C37 C 0.59381(8) 0.06982(19) 0.45465(13)
C38 C 0.60175(8) 0.1582(2) 0.48880(13)
C39 C 0.64321(9) 0.2266(2) 0.49985(14)
C40 C 0.61781(9) 0.3281(2) 0.47615(15)
C41 C 0.57266(9) 0.3222(2) 0.47015(15)
C42 C 0.53782(10) 0.3935(2) 0.42857(17)
C43 C 0.48882(9) 0.3662(2) 0.40706(16)
C44 C 0.45350(10) 0.4343(2) 0.36364(18)
C45 C 0.40515(9) 0.4020(2) 0.33492(16)
C46 C 0.39390(9) 0.3029(2) 0.33571(15)
C47 C 0.42962(9) 0.2268(2) 0.36475(14)
C48 C 0.47706(9) 0.2604(2) 0.40878(15)
C49 C 0.51324(9) 0.1856(2) 0.43701(14)
C50 C 0.56220(9) 0.2199(2) 0.49139(14)
Cl1A Cl 0.59076(10) 0.74325(18) 0.28679(15)
Cl2A Cl 0.62193(10) 0.68079(17) 0.42362(15)
Cl3A Cl 0.69683(8) 0.63833(14) 0.3575(3)
Cl4A Cl 0.67336(2) -0.07910(5) 0.30182(4)
Cl5A Cl 0.33645(2) -0.07157(5) 0.02433(3)
Cl6A Cl 0.27380(2) 0.44369(5) -0.02073(4)
Cl7A Cl 0.6515(4) 0.5387(9) 0.1444(4)
Cl8A Cl 0.73506(2) 0.42027(6) 0.26125(4)
Cl9A Cl 0.67487(2) 0.28113(6) 0.12681(4)
Cl10A Cl 0.72821(2) 0.13751(5) 0.25603(4)
Cl11A Cl 0.64262(2) 0.01164(5) 0.14715(3)
Cl12A Cl 0.45635(2) -0.08943(5) 0.02551(3)
Cl13A Cl 0.31157(2) 0.22529(5) -0.09541(3)
Cl14A Cl 0.43404(2) 0.22390(6) -0.08404(4)
C1A C 0.51957(12) 0.5943(4) 0.2890(2)
C2A C 0.56852(13) 0.6002(4) 0.2946(2)
C3A C 0.61152(10) 0.5705(2) 0.36785(17)
C4A C 0.65170(10) 0.5440(2) 0.34196(18)
C5A C 0.67342(9) 0.4433(2) 0.36825(16)
C6A C 0.68215(9) 0.3747(2) 0.32649(15)
C7A C 0.68699(8) 0.27581(19) 0.35994(14)
C8A C 0.67510(8) 0.1887(2) 0.31916(14)
C9A C 0.65765(8) 0.10674(19) 0.34202(14)
C10A C 0.63500(8) 0.03078(19) 0.28058(14)
C11A C 0.58801(8) -0.00285(18) 0.27781(13)
C12A C 0.54538(8) -0.00261(19) 0.21264(13)
C13A C 0.50122(9) -0.02396(18) 0.21585(14)
C14A C 0.45751(9) -0.01514(18) 0.15176(13)
C15A C 0.41429(8) -0.00904(18) 0.15414(13)
C16A C 0.37586(8) 0.02890(19) 0.07998(14)
C17A C 0.34746(8) 0.11139(19) 0.09315(14)
C18A C 0.33590(8) 0.20195(19) 0.05180(14)
C19A C 0.31799(8) 0.28291(19) 0.07528(14)
C20A C 0.32320(9) 0.3948(2) 0.06187(15)
C21A C 0.36917(9) 0.4075(2) 0.05708(16)
C22A C 0.40192(10) 0.4830(2) 0.09617(18)
C23A C 0.44998(10) 0.4759(2) 0.10499(19)
C24A C 0.48854(10) 0.5365(2) 0.15938(19)
C25A C 0.53538(10) 0.5184(2) 0.17076(19)
C26A C 0.57509(10) 0.5557(2) 0.23643(18)
C27A C 0.62312(12) 0.5357(3) 0.25776(19)
C28A C 0.63714(10) 0.4678(2) 0.20922(16)
C29A C 0.67753(9) 0.3856(2) 0.25010(16)
C30A C 0.65824(9) 0.2834(2) 0.20106(15)
C31A C 0.67052(8) 0.1795(2) 0.24298(14)
C32A C 0.63140(9) 0.09117(19) 0.20938(14)
C33A C 0.58018(9) 0.1273(2) 0.16254(14)
C34A C 0.54155(8) 0.06413(19) 0.15125(14)
C35A C 0.49552(9) 0.0901(2) 0.09441(13)
C36A C 0.45437(9) 0.01979(19) 0.07968(13)
C37A C 0.40619(8) 0.06982(19) 0.04535(13)
C38A C 0.39825(8) 0.1582(2) 0.01120(13)
C39A C 0.35679(9) 0.2266(2) 0.00015(14)
C40A C 0.38219(9) 0.3281(2) 0.02385(15)
C41A C 0.42734(9) 0.3222(2) 0.02985(15)
C42A C 0.46218(10) 0.3935(2) 0.07143(17)
C43A C 0.51118(9) 0.3662(2) 0.09294(16)
C44A C 0.54650(10) 0.4343(2) 0.13636(18)
C45A C 0.59485(9) 0.4020(2) 0.16508(16)
C46A C 0.60610(9) 0.3029(2) 0.16429(15)
C47A C 0.57038(9) 0.2268(2) 0.13525(14)
C48A C 0.52294(9) 0.2604(2) 0.09122(15)
C49A C 0.48676(9) 0.1856(2) 0.06299(14)
C50A C 0.43780(9) 0.2199(2) 0.00861(14)
Cl15? Cl 0.48411(6) 0.72857(12) 0.15789(10)
Cl16? Cl 0.36324(9) 0.6568(2) 0.05382(15)
Cl17? Cl 0.29730(8) 0.62915(18) 0.1043(5)
Cl18? Cl 0.3530(3) 0.5479(5) 0.3525(3)
Cl19? Cl 0.35981(7) 0.68325(15) 0.26179(13)
Cl20? Cl 0.4306(3) 0.7426(3) 0.2309(3)
loop_
_geom_bond_atom_site_label_1
_geom_bond_atom_site_label_2
_geom_bond_site_symmetry_1
_geom_bond_site_symmetry_2
Cl1 C2 1_555 1_555
Cl2 C3 1_555 1_555
Cl3 C4 1_555 1_555
Cl4 C10 1_555 1_555
Cl5 C16 1_555 1_555
Cl6 C20 1_555 1_555
Cl7 C28 1_555 1_555
Cl8 C29 1_555 1_555
Cl9 C30 1_555 1_555
Cl10 C31 1_555 1_555
Cl11 C32 1_555 1_555
Cl12 C36 1_555 1_555
Cl13 C39 1_555 1_555
Cl14 C50 1_555 1_555
C1 C2 1_555 1_555
C2 C3 1_555 1_555
C3 C4 1_555 1_555
C4 C5 1_555 1_555
C5 C6 1_555 1_555
C6 C7 1_555 1_555
C7 C8 1_555 1_555
C8 C9 1_555 1_555
C9 C10 1_555 1_555
C10 C11 1_555 1_555
C11 C12 1_555 1_555
C12 C13 1_555 1_555
C13 C14 1_555 1_555
C14 C15 1_555 1_555
C15 C16 1_555 1_555
C16 C17 1_555 1_555
C17 C18 1_555 1_555
C18 C19 1_555 1_555
C19 C20 1_555 1_555
C20 C21 1_555 1_555
C21 C22 1_555 1_555
C22 C23 1_555 1_555
C23 C24 1_555 1_555
C24 C25 1_555 1_555
C25 C26 1_555 1_555
C26 C2 1_555 1_555
C27 C4 1_555 1_555
C28 C27 1_555 1_555
C29 C6 1_555 1_555
C30 C29 1_555 1_555
C31 C8 1_555 1_555
C32 C10 1_555 1_555
C33 C32 1_555 1_555
C34 C12 1_555 1_555
C35 C34 1_555 1_555
C36 C14 1_555 1_555
C37 C16 1_555 1_555
C38 C37 1_555 1_555
C39 C18 1_555 1_555
C40 C21 1_555 1_555
C41 C40 1_555 1_555
C42 C23 1_555 1_555
C43 C42 1_555 1_555
C44 C25 1_555 1_555
C45 C28 1_555 1_555
C46 C30 1_555 1_555
C47 C33 1_555 1_555
C48 C43 1_555 1_555
C49 C35 1_555 1_555
C50 C38 1_555 1_555
Cl1A C2A 1_555 1_555
Cl2A C3A 1_555 1_555
Cl3A C4A 1_555 1_555
Cl4A C10A 1_555 1_555
Cl5A C16A 1_555 1_555
Cl6A C20A 1_555 1_555
Cl7A C28A 1_555 1_555
Cl8A C29A 1_555 1_555
Cl9A C30A 1_555 1_555
Cl10A C31A 1_555 1_555
Cl11A C32A 1_555 1_555
Cl12A C36A 1_555 1_555
Cl13A C39A 1_555 1_555
Cl14A C50A 1_555 1_555
C1A C1 1_555 1_555
C2A C1A 1_555 1_555
C3A C22 1_555 1_555
C4A C3A 1_555 1_555
C5A C20 1_555 1_555
C6A C5A 1_555 1_555
C7A C19 1_555 1_555
C8A C7A 1_555 1_555
C9A C17 1_555 1_555
C10A C9A 1_555 1_555
C11A C15 1_555 1_555
C12A C11A 1_555 1_555
C13A C13 1_555 1_555
C14A C13A 1_555 1_555
C15A C11 1_555 1_555
C16A C15A 1_555 1_555
C17A C9 1_555 1_555
C18A C17A 1_555 1_555
C19A C7 1_555 1_555
C20A C5 1_555 1_555
C21A C20A 1_555 1_555
C22A C3 1_555 1_555
C23A C22A 1_555 1_555
C24A C1 1_555 1_555
C25A C24A 1_555 1_555
C26A C2A 1_555 1_555
C27A C4A 1_555 1_555
C28A C27A 1_555 1_555
C29A C6A 1_555 1_555
C30A C29A 1_555 1_555
C31A C8A 1_555 1_555
C32A C10A 1_555 1_555
C33A C32A 1_555 1_555
C34A C12A 1_555 1_555
C35A C34A 1_555 1_555
C36A C14A 1_555 1_555
C37A C16A 1_555 1_555
C38A C37A 1_555 1_555
C39A C18A 1_555 1_555
C40A C21A 1_555 1_555
C41A C40A 1_555 1_555
C42A C23A 1_555 1_555
C43A C42A 1_555 1_555
C44A C25A 1_555 1_555
C45A C28A 1_555 1_555
C46A C30A 1_555 1_555
C47A C33A 1_555 1_555
C48A C43A 1_555 1_555
C49A C35A 1_555 1_555
C50A C38A 1_555 1_555
C24 C1A 1_555 1_555
C26 C27 1_555 1_555
C28 C29 1_555 1_555
C30 C31 1_555 1_555
C31 C32 1_555 1_555
C33 C34 1_555 1_555
C35 C36 1_555 1_555
C36 C37 1_555 1_555
C38 C39 1_555 1_555
C39 C40 1_555 1_555
C41 C42 1_555 1_555
C41 C50 1_555 1_555
C43 C44 1_555 1_555
C44 C45 1_555 1_555
C45 C46 1_555 1_555
C46 C47 1_555 1_555
C47 C48 1_555 1_555
C48 C49 1_555 1_555
C49 C50 1_555 1_555
C2A C3A 1_555 1_555
C4A C5A 1_555 1_555
C6A C7A 1_555 1_555
C8A C9A 1_555 1_555
C10A C11A 1_555 1_555
C12A C13A 1_555 1_555
C14A C15A 1_555 1_555
C16A C17A 1_555 1_555
C18A C19A 1_555 1_555
C19A C20A 1_555 1_555
C21A C22A 1_555 1_555
C23A C24A 1_555 1_555
C25A C26A 1_555 1_555
C26A C27A 1_555 1_555
C28A C29A 1_555 1_555
C30A C31A 1_555 1_555
C31A C32A 1_555 1_555
C33A C34A 1_555 1_555
C35A C36A 1_555 1_555
C36A C37A 1_555 1_555
C38A C39A 1_555 1_555
C39A C40A 1_555 1_555
C41A C42A 1_555 1_555
C41A C50A 1_555 1_555
C43A C44A 1_555 1_555
C44A C45A 1_555 1_555
C45A C46A 1_555 1_555
C46A C47A 1_555 1_555
C47A C48A 1_555 1_555
C48A C49A 1_555 1_555
C49A C50A 1_555 1_555

#END
