
#######################################################################
#
#                 Cambridge Crystallographic Data Centre
#                                CCDC 
#
#######################################################################
#
# If this CIF has been generated from an entry in the Cambridge 
# Structural Database, then it will include bibliographic, chemical, 
# crystal, experimental, refinement or atomic coordinate data resulting 
# from the CCDC's data processing and validation procedures.
#
#######################################################################

data_VACXUV
_chemical_formula_moiety         'C30 H32 I1 N1 O3'
_chemical_name_systematic        
'(4-butyl-1-(2-iodobenzoyl)piperidin-2-yl)(phenyl)methyl benzoate'
_symmetry_cell_setting           monoclinic
_symmetry_space_group_name_H-M   'P 21'
_symmetry_Int_Tables_number      4
_space_group_name_Hall           'P 2yb'
loop_
_symmetry_equiv_pos_site_id
_symmetry_equiv_pos_as_xyz
1 x,y,z
2 -x,1/2+y,-z
_cell_length_a                   11.206(3)
_cell_length_b                   10.888(3)
_cell_length_c                   21.747(7)
_cell_angle_alpha                90
_cell_angle_beta                 93.891(4)
_cell_angle_gamma                90
_cell_volume                     2647.26
_exptl_crystal_colour            colorless
_exptl_crystal_description       needles
_cell_formula_units_Z            4
loop_
_atom_site_label
_atom_site_type_symbol
_atom_site_fract_x
_atom_site_fract_y
_atom_site_fract_z
I1 I 0.76062(4) 0.42277(4) 0.95624(2)
O1 O 0.5963(4) 0.5856(4) 1.08580(19)
O2 O 0.6618(4) 0.4080(5) 1.1306(2)
O3 O 0.5958(5) 0.7360(5) 0.9687(2)
N1 N 0.4703(5) 0.5703(5) 0.9652(2)
C1 C 0.4144(6) 0.6031(6) 1.0229(3)
H1 H 0.4237 0.6934 1.0302
C2 C 0.2811(6) 0.5716(6) 1.0155(3)
H2 H 0.2379 0.6193 1.0458
H3 H 0.2701 0.4833 1.0243
C3 C 0.2278(6) 0.6006(6) 0.9501(3)
H4 H 0.2470 0.6878 0.9403
C4 C 0.2862(6) 0.5167(6) 0.9034(3)
H5 H 0.2337 0.4453 0.8935
H6 H 0.2956 0.5627 0.8647
C5 C 0.4092(6) 0.4714(6) 0.9296(3)
H7 H 0.3990 0.3993 0.9565
H8 H 0.4579 0.4460 0.8955
C6 C 0.4762(6) 0.5335(6) 1.0773(3)
H9 H 0.4822 0.4445 1.0664
C7 C 0.6801(6) 0.5131(6) 1.1156(3)
C8 C 0.7954(6) 0.5781(6) 1.1271(3)
C9 C 0.8324(6) 0.6719(6) 1.0891(3)
H10 H 0.7810 0.6995 1.0554
C10 C 0.9444(7) 0.7251(8) 1.1006(4)
H11 H 0.9711 0.7870 1.0739
C11 C 1.0180(6) 0.6865(7) 1.1520(3)
H12 H 1.0944 0.7232 1.1600
C12 C 0.9811(7) 0.5970(7) 1.1905(3)
H13 H 1.0309 0.5730 1.2255
C13 C 0.8706(6) 0.5415(6) 1.1782(3)
H14 H 0.8456 0.4782 1.2045
C14 C 0.4136(6) 0.5461(6) 1.1361(3)
C15 C 0.3426(6) 0.4500(6) 1.1549(3)
H15 H 0.3332 0.3785 1.1301
C16 C 0.2850(6) 0.4572(6) 1.2098(3)
H16 H 0.2369 0.3911 1.2223
C17 C 0.2990(6) 0.5621(7) 1.2458(3)
H17 H 0.2605 0.5678 1.2833
C18 C 0.3694(7) 0.6597(8) 1.2272(3)
H18 H 0.3788 0.7314 1.2520
C19 C 0.4254(7) 0.6511(8) 1.1726(3)
H19 H 0.4725 0.7177 1.1598
C20 C 0.0921(6) 0.5861(7) 0.9469(3)
H20 H 0.0603 0.6374 0.9797
H21 H 0.0731 0.4995 0.9561
C21 C 0.0260(7) 0.6212(8) 0.8849(3)
H22 H 0.0649 0.5786 0.8513
H23 H -0.0574 0.5909 0.8846
C22 C 0.0234(7) 0.7560(8) 0.8715(3)
H24 H -0.0135 0.7690 0.8293
H25 H 0.1066 0.7868 0.8724
C23 C -0.0460(8) 0.8309(8) 0.9170(4)
H26 H -0.1263 0.7963 0.9192
H27 H -0.0522 0.9164 0.9030
H28 H -0.0037 0.8279 0.9579
C24 C 0.5556(5) 0.6424(7) 0.9429(3)
C25 C 0.6005(5) 0.6035(6) 0.8822(3)
C26 C 0.6890(6) 0.5168(6) 0.8765(3)
C27 C 0.7317(6) 0.4862(6) 0.8205(3)
H29 H 0.7919 0.4253 0.8181
C28 C 0.6852(6) 0.5459(6) 0.7673(3)
H30 H 0.7137 0.5258 0.7284
C29 C 0.5971(6) 0.6350(7) 0.7715(3)
H31 H 0.5655 0.6761 0.7355
C30 C 0.5551(7) 0.6639(7) 0.8285(3)
H32 H 0.4951 0.7250 0.8311
I2 I 0.24601(4) 0.14306(3) 0.55620(2)
O4 O 0.4011(4) 0.3072(4) 0.42524(19)
O5 O 0.3398(4) 0.1357(5) 0.37288(18)
O6 O 0.4025(4) 0.4611(4) 0.5390(2)
N2 N 0.5303(5) 0.2974(5) 0.5449(2)
C31 C 0.5849(6) 0.3294(6) 0.4865(3)
H33 H 0.5743 0.4193 0.4786
C32 C 0.7186(5) 0.2999(6) 0.4930(3)
H34 H 0.7606 0.3490 0.4628
H35 H 0.7308 0.2119 0.4839
C33 C 0.7718(6) 0.3288(6) 0.5586(3)
H36 H 0.7491 0.4146 0.5694
C34 C 0.7152(6) 0.2392(6) 0.6036(3)
H37 H 0.7676 0.1665 0.6101
H38 H 0.7098 0.2802 0.6440
C35 C 0.5906(5) 0.1971(6) 0.5797(3)
H39 H 0.5971 0.1244 0.5528
H40 H 0.5434 0.1735 0.6148
C36 C 0.5219(5) 0.2573(6) 0.4325(3)
H41 H 0.5184 0.1682 0.4434
C37 C 0.3208(6) 0.2383(7) 0.3921(3)
C38 C 0.2036(6) 0.3021(6) 0.3815(3)
C39 C 0.1690(6) 0.3967(6) 0.4205(3)
H42 H 0.2214 0.4228 0.4542
C40 C 0.0567(7) 0.4524(7) 0.4095(4)
H43 H 0.0320 0.5156 0.4360
C41 C -0.0183(6) 0.4146(8) 0.3596(3)
H44 H -0.0946 0.4518 0.3523
C42 C 0.0171(6) 0.3235(7) 0.3205(3)
H45 H -0.0343 0.2994 0.2861
C43 C 0.1277(6) 0.2671(6) 0.3315(3)
H46 H 0.1515 0.2042 0.3046
C44 C 0.5832(6) 0.2726(6) 0.3730(3)
C45 C 0.6617(5) 0.1812(6) 0.3557(3)
H47 H 0.6775 0.1119 0.3814
C46 C 0.7166(6) 0.1924(7) 0.3004(3)
H48 H 0.7694 0.1300 0.2883
C47 C 0.6948(6) 0.2934(6) 0.2631(3)
H49 H 0.7324 0.3003 0.2254
C48 C 0.6177(6) 0.3852(6) 0.2806(3)
H50 H 0.6026 0.4544 0.2546
C49 C 0.5623(7) 0.3764(7) 0.3359(3)
H51 H 0.5111 0.4400 0.3482
C50 C 0.9082(6) 0.3198(7) 0.5613(3)
H52 H 0.9302 0.2386 0.5451
H53 H 0.9385 0.3831 0.5336
C51 C 0.9715(7) 0.3361(7) 0.6253(3)
H54 H 0.9433 0.2711 0.6526
H55 H 1.0583 0.3237 0.6220
C52 C 0.9528(8) 0.4585(8) 0.6549(4)
H56 H 0.8660 0.4757 0.6545
H57 H 0.9898 0.5234 0.6306
C53 C 1.0082(7) 0.4623(8) 0.7227(4)
H58 H 0.9741 0.3959 0.7464
H59 H 0.9902 0.5416 0.7413
H60 H 1.0951 0.4517 0.7230
C54 C 0.4432(6) 0.3696(6) 0.5660(3)
C55 C 0.3984(6) 0.3336(6) 0.6273(3)
C56 C 0.3125(6) 0.2442(6) 0.6343(3)
C57 C 0.2684(6) 0.2176(6) 0.6912(3)
H61 H 0.2113 0.1540 0.6949
C58 C 0.3095(6) 0.2856(7) 0.7422(3)
H62 H 0.2794 0.2697 0.7812
C59 C 0.3948(7) 0.3772(7) 0.7365(3)
H63 H 0.4234 0.4228 0.7718
C60 C 0.4381(6) 0.4019(7) 0.6797(3)
H64 H 0.4952 0.4656 0.6761
loop_
_geom_bond_atom_site_label_1
_geom_bond_atom_site_label_2
_geom_bond_site_symmetry_1
_geom_bond_site_symmetry_2
I1 C26 1_555 1_555
O1 C6 1_555 1_555
O2 C7 1_555 1_555
O3 C24 1_555 1_555
N1 C1 1_555 1_555
C1 H1 1_555 1_555
C2 C1 1_555 1_555
H2 C2 1_555 1_555
H3 C2 1_555 1_555
C3 C2 1_555 1_555
H4 C3 1_555 1_555
C4 C3 1_555 1_555
H5 C4 1_555 1_555
H6 C4 1_555 1_555
C5 N1 1_555 1_555
H7 C5 1_555 1_555
H8 C5 1_555 1_555
C6 C1 1_555 1_555
H9 C6 1_555 1_555
C7 O1 1_555 1_555
C8 C7 1_555 1_555
C9 C8 1_555 1_555
H10 C9 1_555 1_555
C10 C9 1_555 1_555
H11 C10 1_555 1_555
C11 C10 1_555 1_555
H12 C11 1_555 1_555
C12 C11 1_555 1_555
H13 C12 1_555 1_555
C13 C8 1_555 1_555
H14 C13 1_555 1_555
C14 C6 1_555 1_555
C15 C14 1_555 1_555
H15 C15 1_555 1_555
C16 C15 1_555 1_555
H16 C16 1_555 1_555
C17 C16 1_555 1_555
H17 C17 1_555 1_555
C18 C17 1_555 1_555
H18 C18 1_555 1_555
C19 C14 1_555 1_555
H19 C19 1_555 1_555
C20 C3 1_555 1_555
H20 C20 1_555 1_555
H21 C20 1_555 1_555
C21 C20 1_555 1_555
H22 C21 1_555 1_555
H23 C21 1_555 1_555
C22 C21 1_555 1_555
H24 C22 1_555 1_555
H25 C22 1_555 1_555
C23 C22 1_555 1_555
H26 C23 1_555 1_555
H27 C23 1_555 1_555
H28 C23 1_555 1_555
C24 N1 1_555 1_555
C25 C24 1_555 1_555
C26 C25 1_555 1_555
C27 C26 1_555 1_555
H29 C27 1_555 1_555
C28 C27 1_555 1_555
H30 C28 1_555 1_555
C29 C28 1_555 1_555
H31 C29 1_555 1_555
C30 C25 1_555 1_555
H32 C30 1_555 1_555
I2 C56 1_555 1_555
O4 C36 1_555 1_555
O5 C37 1_555 1_555
O6 C54 1_555 1_555
N2 C31 1_555 1_555
C31 H33 1_555 1_555
C32 C31 1_555 1_555
H34 C32 1_555 1_555
H35 C32 1_555 1_555
C33 C32 1_555 1_555
H36 C33 1_555 1_555
C34 C33 1_555 1_555
H37 C34 1_555 1_555
H38 C34 1_555 1_555
C35 N2 1_555 1_555
H39 C35 1_555 1_555
H40 C35 1_555 1_555
C36 C31 1_555 1_555
H41 C36 1_555 1_555
C37 O4 1_555 1_555
C38 C37 1_555 1_555
C39 C38 1_555 1_555
H42 C39 1_555 1_555
C40 C39 1_555 1_555
H43 C40 1_555 1_555
C41 C40 1_555 1_555
H44 C41 1_555 1_555
C42 C41 1_555 1_555
H45 C42 1_555 1_555
C43 C38 1_555 1_555
H46 C43 1_555 1_555
C44 C36 1_555 1_555
C45 C44 1_555 1_555
H47 C45 1_555 1_555
C46 C45 1_555 1_555
H48 C46 1_555 1_555
C47 C46 1_555 1_555
H49 C47 1_555 1_555
C48 C47 1_555 1_555
H50 C48 1_555 1_555
C49 C44 1_555 1_555
H51 C49 1_555 1_555
C50 C33 1_555 1_555
H52 C50 1_555 1_555
H53 C50 1_555 1_555
C51 C50 1_555 1_555
H54 C51 1_555 1_555
H55 C51 1_555 1_555
C52 C51 1_555 1_555
H56 C52 1_555 1_555
H57 C52 1_555 1_555
C53 C52 1_555 1_555
H58 C53 1_555 1_555
H59 C53 1_555 1_555
H60 C53 1_555 1_555
C54 N2 1_555 1_555
C55 C54 1_555 1_555
C56 C55 1_555 1_555
C57 C56 1_555 1_555
H61 C57 1_555 1_555
C58 C57 1_555 1_555
H62 C58 1_555 1_555
C59 C58 1_555 1_555
H63 C59 1_555 1_555
C60 C55 1_555 1_555
H64 C60 1_555 1_555
C4 C5 1_555 1_555
C12 C13 1_555 1_555
C18 C19 1_555 1_555
C29 C30 1_555 1_555
C34 C35 1_555 1_555
C42 C43 1_555 1_555
C48 C49 1_555 1_555
C59 C60 1_555 1_555

#END
