
#######################################################################
#
#                 Cambridge Crystallographic Data Centre
#                                CCDC 
#
#######################################################################
#
# If this CIF has been generated from an entry in the Cambridge 
# Structural Database, then it will include bibliographic, chemical, 
# crystal, experimental, refinement or atomic coordinate data resulting 
# from the CCDC's data processing and validation procedures.
#
#######################################################################

data_VACYAC
_chemical_formula_moiety         'C22 H29 B1 I1 N1 O3'
_chemical_name_systematic        
(4-t-butyl-4-(4,4,5,5-tetramethyl-1,3,2-dioxaborolan-2-yl)pyridin-1(4H)-yl)(2-iodophenyl)methanone
_symmetry_cell_setting           monoclinic
_symmetry_space_group_name_H-M   'P 21/c'
_symmetry_Int_Tables_number      14
_space_group_name_Hall           '-P 2ybc'
loop_
_symmetry_equiv_pos_site_id
_symmetry_equiv_pos_as_xyz
1 x,y,z
2 -x,1/2+y,1/2-z
3 -x,-y,-z
4 x,1/2-y,1/2+z
_cell_length_a                   7.5860(3)
_cell_length_b                   12.3535(6)
_cell_length_c                   24.8462(11)
_cell_angle_alpha                90
_cell_angle_beta                 96.2650(10)
_cell_angle_gamma                90
_cell_volume                     2314.52
_exptl_crystal_colour            colorless
_exptl_crystal_description       needle
_cell_formula_units_Z            4
loop_
_atom_site_label
_atom_site_type_symbol
_atom_site_fract_x
_atom_site_fract_y
_atom_site_fract_z
I1 I 0.69335(7) 0.44678(4) 0.83183(2)
O1 O 0.7177(6) 0.7697(4) 0.82916(14)
O2 O 0.8034(5) 0.7846(3) 0.56519(11)
O3 O 0.6483(5) 0.6312(3) 0.54712(11)
N1 N 0.6733(4) 0.6932(3) 0.74653(12)
C1 C 0.4750(6) 0.5477(4) 0.83500(19)
C2 C 0.3298(8) 0.5062(5) 0.8581(2)
H1 H 0.3325 0.4358 0.8714
C3 C 0.1817(8) 0.5704(6) 0.8612(3)
H2 H 0.0845 0.5431 0.8766
C4 C 0.1784(7) 0.6739(7) 0.8415(2)
H3 H 0.0778 0.7164 0.8432
C5 C 0.3220(7) 0.7159(5) 0.8194(2)
H4 H 0.3182 0.7865 0.8064
C6 C 0.4733(6) 0.6531(4) 0.81641(15)
C7 C 0.6322(6) 0.7103(4) 0.79867(17)
C8 C 0.8050(6) 0.7578(3) 0.72686(16)
H5 H 0.8515 0.8155 0.7479
C9 C 0.8645(5) 0.7399(3) 0.68016(15)
H6 H 0.9457 0.7889 0.6687
C10 C 0.8102(4) 0.6453(3) 0.64375(13)
C11 C 0.6489(5) 0.5942(3) 0.66368(14)
H7 H 0.5875 0.5429 0.6416
C12 C 0.5881(5) 0.6172(3) 0.71045(14)
H8 H 0.4869 0.5823 0.7196
C13 C 0.9700(6) 0.5622(3) 0.64386(16)
C14 C 1.1254(6) 0.6137(5) 0.6207(3)
H9 H 1.1666 0.6745 0.6426
H10 H 1.0891 0.6378 0.5844
H11 H 1.2193 0.5617 0.6202
C15 C 0.9144(8) 0.4629(4) 0.6093(3)
H12 H 0.8826 0.4849 0.5725
H13 H 0.8144 0.4289 0.6229
H14 H 1.0113 0.4126 0.6109
C16 C 1.0284(9) 0.5236(5) 0.7013(2)
H15 H 1.1218 0.4714 0.7007
H16 H 0.9296 0.4909 0.7162
H17 H 1.0704 0.5842 0.7233
C17 C 0.7453(7) 0.7877(4) 0.50697(16)
C18 C 0.6032(6) 0.6991(5) 0.50032(17)
C19 C 0.9069(9) 0.7626(7) 0.4788(2)
H18 H 0.9993 0.8134 0.4901
H19 H 0.8770 0.7677 0.4403
H20 H 0.9471 0.6906 0.4880
C20 C 0.6831(15) 0.9033(7) 0.4935(3)
H21 H 0.5981 0.9246 0.5174
H22 H 0.6292 0.9063 0.4568
H23 H 0.7829 0.9515 0.4980
C21 C 0.6034(12) 0.6290(7) 0.4504(2)
H24 H 0.7195 0.5989 0.4490
H25 H 0.5720 0.6722 0.4187
H26 H 0.5188 0.5715 0.4518
C22 C 0.4151(10) 0.7418(11) 0.5069(4)
H27 H 0.3377 0.6818 0.5116
H28 H 0.3708 0.7817 0.4751
H29 H 0.4200 0.7883 0.5379
B1 B 0.7535(5) 0.6877(4) 0.58379(16)
loop_
_geom_bond_atom_site_label_1
_geom_bond_atom_site_label_2
_geom_bond_site_symmetry_1
_geom_bond_site_symmetry_2
I1 C1 1_555 1_555
O1 C7 1_555 1_555
O2 C17 1_555 1_555
O3 C18 1_555 1_555
N1 C7 1_555 1_555
C1 C2 1_555 1_555
C2 H1 1_555 1_555
C3 C2 1_555 1_555
H2 C3 1_555 1_555
C4 C3 1_555 1_555
H3 C4 1_555 1_555
C5 C4 1_555 1_555
H4 C5 1_555 1_555
C6 C1 1_555 1_555
C7 C6 1_555 1_555
C8 N1 1_555 1_555
H5 C8 1_555 1_555
C9 C8 1_555 1_555
H6 C9 1_555 1_555
C10 C9 1_555 1_555
C11 C10 1_555 1_555
H7 C11 1_555 1_555
C12 N1 1_555 1_555
H8 C12 1_555 1_555
C13 C10 1_555 1_555
C14 C13 1_555 1_555
H9 C14 1_555 1_555
H10 C14 1_555 1_555
H11 C14 1_555 1_555
C15 C13 1_555 1_555
H12 C15 1_555 1_555
H13 C15 1_555 1_555
H14 C15 1_555 1_555
C16 C13 1_555 1_555
H15 C16 1_555 1_555
H16 C16 1_555 1_555
H17 C16 1_555 1_555
C17 C18 1_555 1_555
C18 C21 1_555 1_555
C19 C17 1_555 1_555
H18 C19 1_555 1_555
H19 C19 1_555 1_555
H20 C19 1_555 1_555
C20 C17 1_555 1_555
H21 C20 1_555 1_555
H22 C20 1_555 1_555
H23 C20 1_555 1_555
C21 H24 1_555 1_555
H25 C21 1_555 1_555
H26 C21 1_555 1_555
C22 C18 1_555 1_555
H27 C22 1_555 1_555
H28 C22 1_555 1_555
H29 C22 1_555 1_555
B1 O2 1_555 1_555
O3 B1 1_555 1_555
C5 C6 1_555 1_555
C10 B1 1_555 1_555
C11 C12 1_555 1_555

#END
