
#######################################################################
#
#                 Cambridge Crystallographic Data Centre
#                                CCDC 
#
#######################################################################
#
# If this CIF has been generated from an entry in the Cambridge 
# Structural Database, then it will include bibliographic, chemical, 
# crystal, experimental, refinement or atomic coordinate data resulting 
# from the CCDC's data processing and validation procedures.
#
#######################################################################

data_VACZEG
_chemical_formula_moiety         'C21 H15 F6 N1 S2'
_chemical_name_systematic        
5-(3,3,4,4,5,5-Hexafluoro-2-(2-methyl-5-phenyl-3-thienyl)cyclopent-1-en-1-yl)-2,4-dimethyl-1,3-thiazole
_symmetry_cell_setting           monoclinic
_symmetry_space_group_name_H-M   'P 21/c'
_symmetry_Int_Tables_number      14
_space_group_name_Hall           '-P 2ybc'
loop_
_symmetry_equiv_pos_site_id
_symmetry_equiv_pos_as_xyz
1 x,y,z
2 -x,1/2+y,1/2-z
3 -x,-y,-z
4 x,1/2-y,1/2+z
_cell_length_a                   13.622(7)
_cell_length_b                   18.270(10)
_cell_length_c                   8.557(5)
_cell_angle_alpha                90
_cell_angle_beta                 106.637(6)
_cell_angle_gamma                90
_cell_volume                     2040.46
_exptl_crystal_colour            yellow
_exptl_crystal_description       block
_cell_formula_units_Z            4
loop_
_atom_site_label
_atom_site_type_symbol
_atom_site_fract_x
_atom_site_fract_y
_atom_site_fract_z
C1 C 0.6822(2) 0.28715(14) 1.1725(3)
H1 H 0.7266 0.2598 1.2544
C2 C 0.5805(2) 0.26951(12) 1.1198(3)
H2 H 0.5561 0.2299 1.1658
C3 C 0.51382(17) 0.31001(11) 0.9991(2)
H3 H 0.4446 0.2978 0.9653
C4 C 0.54913(14) 0.36875(10) 0.9276(2)
C5 C 0.65307(15) 0.38599(11) 0.9826(2)
H4 H 0.6784 0.4253 0.9368
C6 C 0.71874(18) 0.34529(14) 1.1044(3)
H5 H 0.7879 0.3573 1.1403
C7 C 0.47941(13) 0.41088(9) 0.7947(2)
C8 C 0.40070(13) 0.38714(9) 0.6681(2)
H6 H 0.3789 0.3387 0.6562
C9 C 0.35454(12) 0.44341(9) 0.5551(2)
C10 C 0.39927(13) 0.51082(9) 0.5988(2)
C11 C 0.37849(14) 0.58337(10) 0.5152(2)
H7 H 0.3546 0.5761 0.3993
H8 H 0.4404 0.6118 0.5417
H9 H 0.3271 0.6088 0.5508
C12 C 0.27540(13) 0.42873(9) 0.4011(2)
C13 C 0.28136(14) 0.36038(10) 0.3061(2)
C14 C 0.21454(15) 0.37645(11) 0.1326(2)
C15 C 0.14021(14) 0.43458(11) 0.1568(2)
C16 C 0.19207(13) 0.46807(10) 0.3210(2)
C17 C 0.14678(13) 0.53136(10) 0.3772(2)
C18 C 0.12934(13) 0.54190(12) 0.5250(2)
C19 C 0.15000(17) 0.48840(14) 0.6621(2)
H10 H 0.2163 0.4979 0.7365
H11 H 0.1484 0.4396 0.6198
H12 H 0.0986 0.4932 0.7183
C20 C 0.07056(17) 0.64848(13) 0.4117(3)
C21 C 0.0236(3) 0.72359(16) 0.3922(4)
H13 H -0.0494 0.7195 0.3492
H14 H 0.0501 0.7517 0.3185
H15 H 0.0402 0.7475 0.4963
F1 F 0.11935(10) 0.48451(7) 0.03498(13)
F2 F 0.04949(8) 0.40366(8) 0.15349(15)
F3 F 0.27359(10) 0.40469(8) 0.04493(14)
F4 F 0.16831(10) 0.31702(7) 0.05283(16)
F5 F 0.24325(11) 0.30131(6) 0.36625(16)
F6 F 0.37785(9) 0.34162(7) 0.30748(15)
N1 N 0.08577(13) 0.60884(11) 0.5428(2)
S1 S 0.49682(3) 0.50399(2) 0.77743(5)
S2 S 0.10552(4) 0.60750(3) 0.25480(6)
loop_
_geom_bond_atom_site_label_1
_geom_bond_atom_site_label_2
_geom_bond_site_symmetry_1
_geom_bond_site_symmetry_2
C1 H1 1_555 1_555
C2 C1 1_555 1_555
H2 C2 1_555 1_555
C3 C2 1_555 1_555
H3 C3 1_555 1_555
C4 C3 1_555 1_555
C5 C4 1_555 1_555
H4 C5 1_555 1_555
C6 C1 1_555 1_555
H5 C6 1_555 1_555
C7 C4 1_555 1_555
C8 C7 1_555 1_555
H6 C8 1_555 1_555
C9 C8 1_555 1_555
C10 C9 1_555 1_555
C11 C10 1_555 1_555
H7 C11 1_555 1_555
H8 C11 1_555 1_555
H9 C11 1_555 1_555
C12 C9 1_555 1_555
C13 C12 1_555 1_555
C14 C13 1_555 1_555
C15 C14 1_555 1_555
C16 C12 1_555 1_555
C17 C16 1_555 1_555
C18 C17 1_555 1_555
C19 C18 1_555 1_555
H10 C19 1_555 1_555
H11 C19 1_555 1_555
H12 C19 1_555 1_555
C20 C21 1_555 1_555
C21 H13 1_555 1_555
H14 C21 1_555 1_555
H15 C21 1_555 1_555
F1 C15 1_555 1_555
F2 C15 1_555 1_555
F3 C14 1_555 1_555
F4 C14 1_555 1_555
F5 C13 1_555 1_555
F6 C13 1_555 1_555
N1 C18 1_555 1_555
S1 C7 1_555 1_555
S2 C17 1_555 1_555
C5 C6 1_555 1_555
C10 S1 1_555 1_555
C15 C16 1_555 1_555
C20 N1 1_555 1_555
C20 S2 1_555 1_555

#END
