
#######################################################################
#
#                 Cambridge Crystallographic Data Centre
#                                CCDC 
#
#######################################################################
#
# If this CIF has been generated from an entry in the Cambridge 
# Structural Database, then it will include bibliographic, chemical, 
# crystal, experimental, refinement or atomic coordinate data resulting 
# from the CCDC's data processing and validation procedures.
#
#######################################################################

data_VACZOQ
_chemical_formula_moiety         'C22 H14 F6 N2 S2'
_chemical_name_systematic        
4-(4-(2-(2,4-Dimethyl-1,3-thiazol-5-yl)-3,3,4,4,5,5-hexafluorocyclopent-1-en-1-yl)-5-methyl-2-thienyl)benzonitrile
_symmetry_cell_setting           triclinic
_symmetry_space_group_name_H-M   'P -1'
_symmetry_Int_Tables_number      2
_space_group_name_Hall           '-P 1'
loop_
_symmetry_equiv_pos_site_id
_symmetry_equiv_pos_as_xyz
1 x,y,z
2 -x,-y,-z
_cell_length_a                   8.7185(16)
_cell_length_b                   11.360(2)
_cell_length_c                   11.846(2)
_cell_angle_alpha                107.661(2)
_cell_angle_beta                 105.759(2)
_cell_angle_gamma                93.836(2)
_cell_volume                     1061.58
_exptl_crystal_colour            yellow
_exptl_crystal_description       block
_cell_formula_units_Z            2
loop_
_atom_site_label
_atom_site_type_symbol
_atom_site_fract_x
_atom_site_fract_y
_atom_site_fract_z
C1 C 0.68478(19) 0.26868(16) 0.34826(15)
C2 C 0.8559(2) 0.28823(18) 0.43099(18)
C3 C 0.8977(2) 0.15662(19) 0.41461(19)
C4 C 0.7328(2) 0.07072(18) 0.35743(18)
C5 C 0.6204(2) 0.14560(16) 0.29935(16)
C6 C 0.6086(2) 0.37622(15) 0.33597(15)
C7 C 0.4563(2) 0.39712(17) 0.33826(16)
C8 C 0.5415(3) 0.57514(18) 0.31678(19)
C9 C 0.3317(2) 0.3135(2) 0.35512(19)
H1 H 0.2639 0.2589 0.2752
H2 H 0.2671 0.3632 0.3982
H3 H 0.3837 0.2644 0.4028
C10 C 0.5404(4) 0.7035(2) 0.3062(3)
H4 H 0.4489 0.7363 0.3265
H5 H 0.5334 0.6986 0.2225
H6 H 0.6379 0.7577 0.3627
C11 C 0.40508(19) 0.10675(15) 0.09577(16)
C12 C 0.46623(19) 0.08148(15) 0.20412(16)
C13 C 0.3679(2) -0.01984(16) 0.21185(16)
H7 H 0.3929 -0.0484 0.2794
C14 C 0.2343(2) -0.07049(15) 0.11115(16)
C15 C 0.4700(2) 0.20127(16) 0.04865(17)
H8 H 0.4278 0.2774 0.0751
H9 H 0.4382 0.1692 -0.0406
H10 H 0.5858 0.2179 0.0813
C16 C 0.1093(2) -0.17720(16) 0.08496(16)
C17 C 0.0728(3) -0.2053(2) 0.18190(19)
H11 H 0.1259 -0.1550 0.2637
C18 C -0.0416(3) -0.3075(2) 0.1581(2)
H12 H -0.0643 -0.3259 0.2238
C19 C -0.1224(2) -0.38219(17) 0.03673(19)
C20 C -0.0882(2) -0.35495(17) -0.06103(19)
H13 H -0.1424 -0.4049 -0.1427
C21 C 0.0267(2) -0.25342(17) -0.03665(18)
H14 H 0.0493 -0.2355 -0.1026
C22 C -0.2415(2) -0.4891(2) 0.0116(2)
F1 F 0.95977(14) 0.35765(13) 0.40005(15)
F2 F 0.87211(16) 0.34909(14) 0.55132(12)
F3 F 0.98188(16) 0.12870(13) 0.33237(15)
F4 F 0.98734(17) 0.14453(14) 0.52042(14)
F5 F 0.74087(15) -0.04014(10) 0.27775(12)
F6 F 0.68758(16) 0.04452(14) 0.44983(12)
N1 N 0.4199(2) 0.51025(15) 0.32655(16)
N2 N -0.3340(3) -0.5738(2) -0.0076(2)
S1 S 0.71000(6) 0.50443(4) 0.32107(5)
S2 S 0.22779(5) 0.00637(4) 0.00484(4)
loop_
_geom_bond_atom_site_label_1
_geom_bond_atom_site_label_2
_geom_bond_site_symmetry_1
_geom_bond_site_symmetry_2
C1 C2 1_555 1_555
C2 C3 1_555 1_555
C3 C4 1_555 1_555
C4 C5 1_555 1_555
C5 C1 1_555 1_555
C6 C1 1_555 1_555
C7 C6 1_555 1_555
C8 C10 1_555 1_555
C9 C7 1_555 1_555
H1 C9 1_555 1_555
H2 C9 1_555 1_555
H3 C9 1_555 1_555
C10 H4 1_555 1_555
H5 C10 1_555 1_555
H6 C10 1_555 1_555
C11 C12 1_555 1_555
C12 C5 1_555 1_555
C13 C12 1_555 1_555
H7 C13 1_555 1_555
C14 C13 1_555 1_555
C15 C11 1_555 1_555
H8 C15 1_555 1_555
H9 C15 1_555 1_555
H10 C15 1_555 1_555
C16 C14 1_555 1_555
C17 C16 1_555 1_555
H11 C17 1_555 1_555
C18 C17 1_555 1_555
H12 C18 1_555 1_555
C19 C18 1_555 1_555
C20 C19 1_555 1_555
H13 C20 1_555 1_555
C21 C16 1_555 1_555
H14 C21 1_555 1_555
C22 C19 1_555 1_555
F1 C2 1_555 1_555
F2 C2 1_555 1_555
F3 C3 1_555 1_555
F4 C3 1_555 1_555
F5 C4 1_555 1_555
F6 C4 1_555 1_555
N1 C7 1_555 1_555
N2 C22 1_555 1_555
S1 C6 1_555 1_555
S2 C11 1_555 1_555
C8 N1 1_555 1_555
C8 S1 1_555 1_555
C14 S2 1_555 1_555
C20 C21 1_555 1_555

#END
