
#######################################################################
#
#                 Cambridge Crystallographic Data Centre
#                                CCDC 
#
#######################################################################
#
# If this CIF has been generated from an entry in the Cambridge 
# Structural Database, then it will include bibliographic, chemical, 
# crystal, experimental, refinement or atomic coordinate data resulting 
# from the CCDC's data processing and validation procedures.
#
#######################################################################

data_VACZUW
_chemical_formula_moiety         'C22 H17 F6 N1 O1 S2'
_chemical_name_systematic        
5-(3,3,4,4,5,5-Hexafluoro-2-(5-(4-methoxyphenyl)-2-methyl-3-thienyl)cyclopent-1-en-1-yl)-2,4-dimethyl-1,3-thiazole
_symmetry_cell_setting           triclinic
_symmetry_space_group_name_H-M   'P -1'
_symmetry_Int_Tables_number      2
_space_group_name_Hall           '-P 1'
loop_
_symmetry_equiv_pos_site_id
_symmetry_equiv_pos_as_xyz
1 x,y,z
2 -x,-y,-z
_cell_length_a                   8.6535(15)
_cell_length_b                   11.454(2)
_cell_length_c                   12.138(2)
_cell_angle_alpha                110.388(2)
_cell_angle_beta                 103.990(2)
_cell_angle_gamma                91.912(2)
_cell_volume                     1085.08
_exptl_crystal_colour            colorless
_exptl_crystal_description       block
_cell_formula_units_Z            2
loop_
_atom_site_label
_atom_site_type_symbol
_atom_site_fract_x
_atom_site_fract_y
_atom_site_fract_z
C1 C 0.8044(4) 1.5365(3) 1.0361(3)
H1 H 0.7308 1.5750 1.0815
H2 H 0.8666 1.5998 1.0241
H3 H 0.8747 1.4955 1.0807
C2 C 0.6076(3) 1.3576(3) 0.9204(3)
C3 C 0.5208(4) 1.2776(3) 0.8057(3)
H4 H 0.5377 1.2886 0.7369
C4 C 0.4100(4) 1.1823(3) 0.7923(3)
H5 H 0.3530 1.1289 0.7143
C5 C 0.3807(3) 1.1636(2) 0.8925(3)
C6 C 0.4686(3) 1.2450(3) 1.0075(3)
H6 H 0.4514 1.2346 1.0764
C7 C 0.5816(3) 1.3418(3) 1.0216(3)
H7 H 0.6394 1.3955 1.0992
C8 C 0.2582(3) 1.0620(2) 0.8759(2)
C9 C 0.1234(3) 1.0101(2) 0.7829(3)
H8 H 0.0939 1.0359 0.7170
C10 C 0.0309(3) 0.9122(2) 0.7953(2)
C11 C 0.0962(3) 0.8914(2) 0.9002(2)
C12 C 0.0361(3) 0.8029(3) 0.9509(3)
H9 H -0.0790 0.7879 0.9236
H10 H 0.0697 0.8390 1.0385
H11 H 0.0790 0.7249 0.9233
C13 C -0.1242(3) 0.8492(2) 0.7073(2)
C14 C -0.2363(4) 0.9255(3) 0.6554(3)
C15 C -0.3997(4) 0.8446(3) 0.6054(3)
C16 C -0.3586(3) 0.7124(3) 0.5848(3)
C17 C -0.1886(3) 0.7272(2) 0.6603(2)
C18 C -0.1149(3) 0.6173(2) 0.6680(2)
C19 C 0.0350(3) 0.5881(3) 0.6611(2)
C20 C -0.0589(4) 0.4140(3) 0.6761(3)
C21 C 0.1643(3) 0.6653(3) 0.6457(3)
H12 H 0.1169 0.7179 0.6036
H13 H 0.2266 0.6110 0.5991
H14 H 0.2326 0.7168 0.7245
C22 C -0.0642(5) 0.2843(3) 0.6801(4)
H15 H -0.1479 0.2290 0.6122
H16 H -0.0852 0.2869 0.7550
H17 H 0.0371 0.2540 0.6756
F1 F -0.2415(2) 1.03973(16) 0.73646(18)
F2 F -0.1940(2) 0.94626(19) 0.56271(18)
F3 F -0.4928(3) 0.8578(2) 0.5070(2)
F4 F -0.4800(2) 0.8773(2) 0.6920(2)
F5 F -0.3740(2) 0.64928(19) 0.46473(17)
F6 F -0.4619(2) 0.64616(19) 0.6145(2)
N1 N 0.0653(3) 0.4722(2) 0.6658(2)
O1 O 0.7180(3) 1.4478(2) 0.9223(2)
S1 S 0.27299(8) 0.99033(7) 0.98157(7)
S2 S -0.22156(10) 0.49435(7) 0.68078(8)
loop_
_geom_bond_atom_site_label_1
_geom_bond_atom_site_label_2
_geom_bond_site_symmetry_1
_geom_bond_site_symmetry_2
C1 H1 1_555 1_555
H2 C1 1_555 1_555
H3 C1 1_555 1_555
C2 C3 1_555 1_555
C3 H4 1_555 1_555
C4 C3 1_555 1_555
H5 C4 1_555 1_555
C5 C4 1_555 1_555
C6 C5 1_555 1_555
H6 C6 1_555 1_555
C7 C2 1_555 1_555
H7 C7 1_555 1_555
C8 C5 1_555 1_555
C9 C8 1_555 1_555
H8 C9 1_555 1_555
C10 C9 1_555 1_555
C11 C10 1_555 1_555
C12 C11 1_555 1_555
H9 C12 1_555 1_555
H10 C12 1_555 1_555
H11 C12 1_555 1_555
C13 C10 1_555 1_555
C14 C13 1_555 1_555
C15 C14 1_555 1_555
C16 C15 1_555 1_555
C17 C13 1_555 1_555
C18 C17 1_555 1_555
C19 C18 1_555 1_555
C20 C22 1_555 1_555
C21 C19 1_555 1_555
H12 C21 1_555 1_555
H13 C21 1_555 1_555
H14 C21 1_555 1_555
C22 H15 1_555 1_555
H16 C22 1_555 1_555
H17 C22 1_555 1_555
F1 C14 1_555 1_555
F2 C14 1_555 1_555
F3 C15 1_555 1_555
F4 C15 1_555 1_555
F5 C16 1_555 1_555
F6 C16 1_555 1_555
N1 C19 1_555 1_555
O1 C1 1_555 1_555
S1 C8 1_555 1_555
S2 C18 1_555 1_555
C2 O1 1_555 1_555
C6 C7 1_555 1_555
C11 S1 1_555 1_555
C16 C17 1_555 1_555
C20 N1 1_555 1_555
C20 S2 1_555 1_555

#END
