
#######################################################################
#
#                 Cambridge Crystallographic Data Centre
#                                CCDC 
#
#######################################################################
#
# If this CIF has been generated from an entry in the Cambridge 
# Structural Database, then it will include bibliographic, chemical, 
# crystal, experimental, refinement or atomic coordinate data resulting 
# from the CCDC's data processing and validation procedures.
#
#######################################################################

data_VADCIO
_chemical_formula_moiety         'C13 H14 Cl1 N1 O1'
_chemical_name_systematic        
5-(Chloromethyl)-3,3a,4,5-tetrahydropyrrolo[1,2-a]quinolin-1(2H)-one
_symmetry_cell_setting           monoclinic
_symmetry_space_group_name_H-M   'P 21/c'
_symmetry_Int_Tables_number      14
_space_group_name_Hall           '-P 2ybc'
loop_
_symmetry_equiv_pos_site_id
_symmetry_equiv_pos_as_xyz
1 x,y,z
2 -x,1/2+y,1/2-z
3 -x,-y,-z
4 x,1/2-y,1/2+z
_cell_length_a                   12.1392(7)
_cell_length_b                   9.3921(5)
_cell_length_c                   10.1486(5)
_cell_angle_alpha                90
_cell_angle_beta                 96.6340(10)
_cell_angle_gamma                90
_cell_volume                     1149.32
_exptl_crystal_description       block
_cell_formula_units_Z            4
loop_
_atom_site_label
_atom_site_type_symbol
_atom_site_fract_x
_atom_site_fract_y
_atom_site_fract_z
Cl1 Cl 0.55441(4) 0.11317(5) 0.66064(5)
N1 N 0.78493(8) 0.50905(10) 0.72889(10)
C1 C 0.83301(9) 0.37333(12) 0.75655(11)
C2 C 0.79843(9) 0.25814(13) 0.67383(12)
C3 C 0.91713(10) 0.35451(14) 0.86202(13)
H1 H 0.9411 0.4316 0.9153
C4 C 0.71192(10) 0.27619(14) 0.55349(12)
H2 H 0.7535 0.2837 0.4766
C5 C 0.72554(11) 0.53760(14) 0.59656(12)
H3 H 0.7788 0.5474 0.5316
O1 O 0.82651(11) 0.62690(12) 0.92775(12)
C6 C 0.84928(12) 0.12697(14) 0.70148(15)
H4 H 0.8282 0.0499 0.6468
C7 C 0.64782(11) 0.41519(14) 0.55818(13)
H5 H 0.6072 0.4337 0.4719
H6 H 0.5946 0.4069 0.6221
C8 C 0.96456(11) 0.22230(16) 0.88719(14)
H7 H 1.0198 0.2105 0.9579
C9 C 0.63510(12) 0.14898(16) 0.52656(15)
H8 H 0.6790 0.0655 0.5115
H9 H 0.5853 0.1666 0.4464
C10 C 0.78869(12) 0.62448(14) 0.81106(14)
C11 C 0.66859(14) 0.68051(15) 0.61426(15)
H10 H 0.6685 0.7390 0.5355
H11 H 0.5927 0.6667 0.6328
C12 C 0.93036(12) 0.10764(16) 0.80791(16)
H12 H 0.9614 0.0182 0.8257
C13 C 0.73778(15) 0.74818(15) 0.73130(16)
H13 H 0.6918 0.8047 0.7834
H14 H 0.7948 0.8088 0.7018
loop_
_geom_bond_atom_site_label_1
_geom_bond_atom_site_label_2
_geom_bond_site_symmetry_1
_geom_bond_site_symmetry_2
Cl1 C9 1_555 1_555
N1 C1 1_555 1_555
C1 C2 1_555 1_555
C2 C4 1_555 1_555
C3 C1 1_555 1_555
H1 C3 1_555 1_555
C4 H2 1_555 1_555
C5 N1 1_555 1_555
H3 C5 1_555 1_555
O1 C10 1_555 1_555
C6 C2 1_555 1_555
H4 C6 1_555 1_555
C7 C4 1_555 1_555
H5 C7 1_555 1_555
H6 C7 1_555 1_555
C8 C3 1_555 1_555
H7 C8 1_555 1_555
C9 C4 1_555 1_555
H8 C9 1_555 1_555
H9 C9 1_555 1_555
C10 N1 1_555 1_555
C11 C5 1_555 1_555
H10 C11 1_555 1_555
H11 C11 1_555 1_555
C12 C6 1_555 1_555
H12 C12 1_555 1_555
C13 C10 1_555 1_555
H13 C13 1_555 1_555
H14 C13 1_555 1_555
C5 C7 1_555 1_555
C8 C12 1_555 1_555
C11 C13 1_555 1_555

#END
