
#######################################################################
#
#                 Cambridge Crystallographic Data Centre
#                                CCDC 
#
#######################################################################
#
# If this CIF has been generated from an entry in the Cambridge 
# Structural Database, then it will include bibliographic, chemical, 
# crystal, experimental, refinement or atomic coordinate data resulting 
# from the CCDC's data processing and validation procedures.
#
#######################################################################

data_VADCAG
_chemical_formula_moiety         'C12 H23 N3'
_chemical_name_systematic        
2-(t-Butylaminomethyl)-5-(dimethylaminomethyl)pyrrole
_symmetry_cell_setting           monoclinic
_symmetry_space_group_name_H-M   'C 2/c'
_symmetry_Int_Tables_number      15
_space_group_name_Hall           '-C 2yn'
loop_
_symmetry_equiv_pos_site_id
_symmetry_equiv_pos_as_xyz
1 x,y,z
2 -x,y,1/2-z
3 1/2+x,1/2+y,z
4 1/2-x,1/2+y,1/2-z
5 -x,-y,-z
6 x,-y,1/2+z
7 1/2-x,1/2-y,-z
8 1/2+x,1/2-y,1/2+z
_cell_length_a                   27.1751(8)
_cell_length_b                   16.7898(7)
_cell_length_c                   12.3090(4)
_cell_angle_alpha                90
_cell_angle_beta                 105.747(2)
_cell_angle_gamma                90
_cell_volume                     5405.38
_exptl_crystal_colour            colorless
_exptl_crystal_description       block
_cell_formula_units_Z            16
loop_
_atom_site_label
_atom_site_type_symbol
_atom_site_fract_x
_atom_site_fract_y
_atom_site_fract_z
C1 C 0.44988(6) 0.84080(11) 0.46381(13)
C2 C 0.45506(7) 0.92140(11) 0.45772(14)
H1 H 0.4619 0.9575 0.5195
C3 C 0.44836(6) 0.94163(11) 0.34329(14)
H2 H 0.4508 0.9935 0.3145
C4 C 0.43766(6) 0.87321(10) 0.28153(13)
C5 C 0.45763(7) 0.78747(12) 0.56466(14)
H3 H 0.4866 0.7512 0.5666
H4 H 0.4672 0.8206 0.6337
C6 C 0.37018(8) 0.79172(13) 0.57062(16)
H5 H 0.3404 0.7593 0.5720
H6 H 0.3616 0.8261 0.5038
H7 H 0.3800 0.8247 0.6388
C7 C 0.42486(9) 0.68701(14) 0.66397(17)
H8 H 0.4339 0.7189 0.7333
H9 H 0.4538 0.6528 0.6614
H10 H 0.3951 0.6538 0.6630
C8 C 0.42985(6) 0.85881(12) 0.15831(13)
H11 H 0.4360 0.9089 0.1216
H12 H 0.4549 0.8188 0.1476
C9 C 0.36829(6) 0.80123(10) -0.01298(12)
C10 C 0.38609(11) 0.86076(13) -0.08917(16)
H13 H 0.3695 0.9123 -0.0869
H14 H 0.3769 0.8407 -0.1669
H15 H 0.4233 0.8672 -0.0624
C11 C 0.39530(10) 0.72286(13) -0.01429(18)
H16 H 0.4323 0.7307 0.0145
H17 H 0.3873 0.7026 -0.0918
H18 H 0.3838 0.6844 0.0335
C12 C 0.31089(8) 0.78857(17) -0.05498(19)
H19 H 0.2999 0.7519 -0.0042
H20 H 0.3024 0.7659 -0.1312
H21 H 0.2933 0.8397 -0.0566
H44 H 0.4265(8) 0.7628(13) 0.3364(17)
H45 H 0.3581(7) 0.8706(11) 0.1035(15)
N1 N 0.43888(5) 0.81171(9) 0.35534(11)
N2 N 0.41272(5) 0.73957(8) 0.56660(11)
N3 N 0.37802(5) 0.83042(8) 0.10470(10)
C13 C 0.28603(6) 0.85152(9) 0.28385(13)
C14 C 0.25489(6) 0.82026(11) 0.34381(14)
H22 H 0.2313 0.8491 0.3731
C15 C 0.26424(6) 0.73708(11) 0.35437(14)
H23 H 0.2482 0.7002 0.3924
C16 C 0.30064(6) 0.71961(9) 0.29971(13)
C17 C 0.29674(6) 0.93568(10) 0.25805(14)
H24 H 0.2717 0.9710 0.2794
H25 H 0.3312 0.9505 0.3049
C18 C 0.24213(7) 0.94282(12) 0.06815(17)
H26 H 0.2213 0.9854 0.0873
H27 H 0.2279 0.8910 0.0804
H28 H 0.2420 0.9477 -0.0113
C19 C 0.31603(8) 1.02672(11) 0.12470(18)
H29 H 0.3139 1.0350 0.0448
H30 H 0.3519 1.0284 0.1691
H31 H 0.2969 1.0688 0.1506
C20 C 0.32596(7) 0.64322(10) 0.28334(15)
H32 H 0.3118 0.5991 0.3190
H33 H 0.3187 0.6317 0.2016
C21 C 0.41095(7) 0.57336(10) 0.33367(14)
C22 C 0.40680(10) 0.54773(14) 0.21327(18)
H34 H 0.3715 0.5321 0.1763
H35 H 0.4296 0.5024 0.2139
H36 H 0.4167 0.5921 0.1719
C23 C 0.46667(8) 0.59355(13) 0.3912(2)
H37 H 0.4778 0.6370 0.3503
H38 H 0.4880 0.5465 0.3910
H39 H 0.4700 0.6101 0.4692
C24 C 0.39439(10) 0.50578(13) 0.3981(2)
H40 H 0.3949 0.5241 0.4740
H41 H 0.4179 0.4607 0.4037
H42 H 0.3597 0.4890 0.3581
H43 H 0.3340(8) 0.7941(11) 0.2149(16)
H46 H 0.3870(7) 0.6651(11) 0.4040(17)
N4 N 0.31351(5) 0.78968(8) 0.25706(11)
N5 N 0.29418(5) 0.94921(8) 0.13917(11)
N6 N 0.38140(5) 0.64771(8) 0.33310(11)
loop_
_geom_bond_atom_site_label_1
_geom_bond_atom_site_label_2
_geom_bond_site_symmetry_1
_geom_bond_site_symmetry_2
C1 C2 1_555 1_555
C2 H1 1_555 1_555
C3 C2 1_555 1_555
H2 C3 1_555 1_555
C4 C3 1_555 1_555
C5 C1 1_555 1_555
H3 C5 1_555 1_555
H4 C5 1_555 1_555
C6 H5 1_555 1_555
H6 C6 1_555 1_555
H7 C6 1_555 1_555
C7 H8 1_555 1_555
H9 C7 1_555 1_555
H10 C7 1_555 1_555
C8 C4 1_555 1_555
H11 C8 1_555 1_555
H12 C8 1_555 1_555
C9 C10 1_555 1_555
C10 H13 1_555 1_555
H14 C10 1_555 1_555
H15 C10 1_555 1_555
C11 C9 1_555 1_555
H16 C11 1_555 1_555
H17 C11 1_555 1_555
H18 C11 1_555 1_555
C12 C9 1_555 1_555
H19 C12 1_555 1_555
H20 C12 1_555 1_555
H21 C12 1_555 1_555
C13 C14 1_555 1_555
C14 H22 1_555 1_555
C15 C14 1_555 1_555
H23 C15 1_555 1_555
C16 C15 1_555 1_555
C17 C13 1_555 1_555
H24 C17 1_555 1_555
H25 C17 1_555 1_555
C18 H26 1_555 1_555
H27 C18 1_555 1_555
H28 C18 1_555 1_555
C19 H29 1_555 1_555
H30 C19 1_555 1_555
H31 C19 1_555 1_555
C20 C16 1_555 1_555
H32 C20 1_555 1_555
H33 C20 1_555 1_555
C21 C22 1_555 1_555
C22 H34 1_555 1_555
H35 C22 1_555 1_555
H36 C22 1_555 1_555
C23 C21 1_555 1_555
H37 C23 1_555 1_555
H38 C23 1_555 1_555
H39 C23 1_555 1_555
C24 C21 1_555 1_555
H40 C24 1_555 1_555
H41 C24 1_555 1_555
H42 C24 1_555 1_555
H43 N4 1_555 1_555
H44 N1 1_555 1_555
H45 N3 1_555 1_555
H46 N6 1_555 1_555
N1 C1 1_555 1_555
N2 C5 1_555 1_555
N3 C8 1_555 1_555
N4 C13 1_555 1_555
N5 C17 1_555 1_555
N6 C20 1_555 1_555
C4 N1 1_555 1_555
C6 N2 1_555 1_555
C7 N2 1_555 1_555
C9 N3 1_555 1_555
C16 N4 1_555 1_555
C18 N5 1_555 1_555
C19 N5 1_555 1_555
C21 N6 1_555 1_555

#END
