
#######################################################################
#
#                 Cambridge Crystallographic Data Centre
#                                CCDC 
#
#######################################################################
#
# If this CIF has been generated from an entry in the Cambridge 
# Structural Database, then it will include bibliographic, chemical, 
# crystal, experimental, refinement or atomic coordinate data resulting 
# from the CCDC's data processing and validation procedures.
#
#######################################################################

data_VADGUF
_chemical_formula_moiety         'C15 H10 N2 O2'
_chemical_name_systematic        (3-Oxidoquinazolin-4-yl)(phenyl)methanone
_symmetry_cell_setting           monoclinic
_symmetry_space_group_name_H-M   'C 2/c'
_symmetry_Int_Tables_number      15
_space_group_name_Hall           '-C 2yn'
loop_
_symmetry_equiv_pos_site_id
_symmetry_equiv_pos_as_xyz
1 x,y,z
2 -x,y,1/2-z
3 1/2+x,1/2+y,z
4 1/2-x,1/2+y,1/2-z
5 -x,-y,-z
6 x,-y,1/2+z
7 1/2-x,1/2-y,-z
8 1/2+x,1/2-y,1/2+z
_cell_length_a                   19.7366(15)
_cell_length_b                   11.0069(8)
_cell_length_c                   14.8933(11)
_cell_angle_alpha                90
_cell_angle_beta                 130.4330(10)
_cell_angle_gamma                90
_cell_volume                     2462.67
_cell_formula_units_Z            8
loop_
_atom_site_label
_atom_site_type_symbol
_atom_site_fract_x
_atom_site_fract_y
_atom_site_fract_z
C1 C 0.10888(9) 0.32585(12) 0.18561(12)
N1 N 0.18684(8) 0.37981(11) 0.26628(11)
O1 O 0.26167(7) 0.32094(10) 0.32497(12)
C2 C 0.02957(9) 0.39280(12) 0.12668(11)
C3 C 0.03712(9) 0.51675(12) 0.15743(12)
N2 N 0.11913(8) 0.56941(11) 0.23950(11)
C4 C 0.18863(10) 0.50337(13) 0.28862(14)
H1 H 0.2439 0.5403 0.3427
C5 C -0.03961(11) 0.58713(15) 0.10226(15)
H2 H -0.0349 0.6687 0.1218
C6 C 0.11652(9) 0.10029(12) 0.23459(12)
C7 C -0.05582(10) 0.34301(14) 0.04027(13)
H3 H -0.0621 0.2620 0.0183
C8 C 0.11806(11) -0.02182(13) 0.21171(16)
H4 H 0.1156 -0.0438 0.1493
C9 C 0.11258(10) 0.19348(13) 0.16048(13)
C10 C -0.12109(11) 0.53608(17) 0.02002(17)
H5 H -0.1720 0.5830 -0.0160
C11 C 0.11933(10) 0.13141(14) 0.32698(13)
H6 H 0.1187 0.2128 0.3432
C12 C -0.12917(11) 0.41391(18) -0.01094(15)
H7 H -0.1855 0.3805 -0.0674
O2 O 0.11094(12) 0.17059(11) 0.07968(13)
C13 C 0.12529(12) -0.07787(16) 0.37215(17)
H8 H 0.1281 -0.1378 0.4185
C14 C 0.12313(12) 0.04199(16) 0.39509(16)
H9 H 0.1242 0.0631 0.4565
C15 C 0.12331(12) -0.11027(15) 0.28183(18)
H10 H 0.1255 -0.1918 0.2676
loop_
_geom_bond_atom_site_label_1
_geom_bond_atom_site_label_2
_geom_bond_site_symmetry_1
_geom_bond_site_symmetry_2
C1 N1 1_555 1_555
N1 O1 1_555 1_555
C2 C1 1_555 1_555
C3 C2 1_555 1_555
N2 C3 1_555 1_555
C4 N1 1_555 1_555
H1 C4 1_555 1_555
C5 C3 1_555 1_555
H2 C5 1_555 1_555
C6 C8 1_555 1_555
C7 C2 1_555 1_555
H3 C7 1_555 1_555
C8 H4 1_555 1_555
C9 C1 1_555 1_555
C10 C5 1_555 1_555
H5 C10 1_555 1_555
C11 C6 1_555 1_555
H6 C11 1_555 1_555
C12 C7 1_555 1_555
H7 C12 1_555 1_555
O2 C9 1_555 1_555
C13 H8 1_555 1_555
C14 C11 1_555 1_555
H9 C14 1_555 1_555
C15 C8 1_555 1_555
H10 C15 1_555 1_555
N2 C4 1_555 1_555
C6 C9 1_555 1_555
C10 C12 1_555 1_555
C13 C14 1_555 1_555
C13 C15 1_555 1_555

#END
