
#######################################################################
#
#                 Cambridge Crystallographic Data Centre
#                                CCDC 
#
#######################################################################
#
# If this CIF has been generated from an entry in the Cambridge 
# Structural Database, then it will include bibliographic, chemical, 
# crystal, experimental, refinement or atomic coordinate data resulting 
# from the CCDC's data processing and validation procedures.
#
#######################################################################

data_VADGAL
_chemical_formula_moiety         'C31 H12 B2 F15 N1 O2,C1 H2 Cl2'
_chemical_name_systematic        
'((1-(1,3,2-Benzodioxaborol-2-yl)-6-methylpyridinium-2-yl)methyl)(tris(pentafluorophenyl))borate dichloromethane solvate'
_symmetry_cell_setting           triclinic
_symmetry_space_group_name_H-M   'P -1'
_symmetry_Int_Tables_number      2
_space_group_name_Hall           '-P 1'
loop_
_symmetry_equiv_pos_site_id
_symmetry_equiv_pos_as_xyz
1 x,y,z
2 -x,-y,-z
_cell_length_a                   11.253(2)
_cell_length_b                   11.410(2)
_cell_length_c                   14.135(3)
_cell_angle_alpha                69.313(3)
_cell_angle_beta                 74.449(3)
_cell_angle_gamma                84.848(4)
_cell_volume                     1635.69
_exptl_crystal_colour            colorless
_exptl_crystal_description       prism
_cell_formula_units_Z            2
loop_
_atom_site_label
_atom_site_type_symbol
_atom_site_fract_x
_atom_site_fract_y
_atom_site_fract_z
B1 B 0.6438(7) 0.7971(7) 0.4002(6)
B2 B 0.7887(7) 1.1407(7) 0.2696(6)
N1 N 0.6675(4) 0.8484(5) 0.4770(4)
O1 O 0.5295(5) 0.7792(5) 0.3948(4)
O2 O 0.7372(5) 0.7575(4) 0.3346(4)
F1 F 0.6186(3) 1.3037(4) 0.3577(3)
F2 F 0.6621(4) 1.4585(4) 0.4443(4)
F3 F 0.8972(5) 1.5045(5) 0.4397(5)
F4 F 1.0854(4) 1.3810(5) 0.3526(5)
F5 F 1.0455(3) 1.2137(4) 0.2758(3)
F6 F 0.9492(4) 0.9992(4) 0.4135(3)
F7 F 1.1019(5) 0.8154(5) 0.3952(5)
F8 F 1.1240(6) 0.7257(5) 0.2368(5)
F9 F 0.9902(6) 0.8359(5) 0.0921(5)
F10 F 0.8429(5) 1.0226(4) 0.1072(4)
F11 F 0.5523(4) 1.2036(6) 0.1936(4)
F12 F 0.5312(6) 1.3665(6) 0.0141(5)
F13 F 0.7321(6) 1.4928(5) -0.1307(4)
F14 F 0.9588(5) 1.4443(5) -0.0885(4)
F15 F 0.9796(4) 1.2819(4) 0.0915(3)
C1 C 0.6711(5) 0.9745(6) 0.4531(5)
C2 C 0.6824(6) 1.0179(7) 0.5299(5)
H1 H 0.6821 1.1037 0.5169
C3 C 0.6941(7) 0.9368(7) 0.6247(6)
H2 H 0.7029 0.9678 0.6751
C4 C 0.6930(7) 0.8117(7) 0.6457(5)
H3 H 0.7038 0.7573 0.7096
C5 C 0.6763(6) 0.7647(6) 0.5740(5)
C6 C 0.6627(6) 1.0583(6) 0.3466(5)
H4 H 0.5956 1.1164 0.3545
H5 H 0.6412 1.0073 0.3113
C7 C 0.6700(7) 0.6285(6) 0.5920(6)
H6 H 0.7369 0.6069 0.5426
H7 H 0.5931 0.6098 0.5832
H8 H 0.6762 0.5811 0.6617
C8 C 0.5536(8) 0.7229(6) 0.3137(7)
C9 C 0.4812(19) 0.6787(10) 0.2685(16)
H9 H 0.3958 0.6846 0.2886
C10 C 0.536(4) 0.6257(10) 0.1933(15)
H10 H 0.4870 0.5959 0.1629
C11 C 0.663(4) 0.6169(7) 0.1634(6)
H11 H 0.6993 0.5813 0.1128
C12 C 0.735(2) 0.6612(7) 0.2086(8)
H12 H 0.8204 0.6553 0.1885
C13 C 0.6805(9) 0.7142(6) 0.2838(7)
C14 C 0.8285(6) 1.2399(6) 0.3177(5)
C15 C 0.7375(6) 1.3138(6) 0.3589(5)
C16 C 0.7565(6) 1.3992(6) 0.4020(5)
C17 C 0.8749(7) 1.4219(7) 0.4002(6)
C18 C 0.9694(6) 1.3574(7) 0.3552(6)
C19 C 0.9447(6) 1.2705(6) 0.3174(5)
C20 C 0.8944(6) 1.0323(6) 0.2550(5)
C21 C 0.9592(7) 0.9677(7) 0.3293(6)
C22 C 1.0377(8) 0.8666(8) 0.3231(7)
C23 C 1.0511(8) 0.8245(8) 0.2428(8)
C24 C 0.9875(8) 0.8801(8) 0.1690(6)
C25 C 0.9088(7) 0.9799(6) 0.1777(5)
C26 C 0.7681(6) 1.2338(6) 0.1546(5)
C27 C 0.6569(8) 1.2604(8) 0.1285(6)
C28 C 0.6423(9) 1.3459(9) 0.0349(7)
C29 C 0.7418(10) 1.4092(8) -0.0391(6)
C30 C 0.8550(9) 1.3837(7) -0.0175(6)
C31 C 0.8655(7) 1.3017(6) 0.0754(5)
C38 C 0.6721(19) 0.9248(13) 0.9726(12)
H17 H 0.5934 0.8849 1.0144
H18 H 0.7195 0.9276 1.0198
Cl1 Cl 0.7472(6) 0.8413(6) 0.9002(3)
Cl2 Cl 0.6488(7) 1.0664(6) 0.8996(7)
C32? C 0.5481(7) 0.7284(7) 0.3220(8)
C33? C 0.4585(16) 0.6909(11) 0.2897(17)
H13? H 0.3757 0.7016 0.3195
C34? C 0.491(3) 0.6377(12) 0.2135(18)
H14? H 0.4296 0.6122 0.1916
C35? C 0.612(4) 0.6220(8) 0.1697(9)
H15? H 0.6341 0.5858 0.1179
C36? C 0.702(3) 0.6595(5) 0.2020(5)
H16? H 0.7846 0.6488 0.1722
C37? C 0.6698(10) 0.7127(5) 0.2782(5)
loop_
_geom_bond_atom_site_label_1
_geom_bond_atom_site_label_2
_geom_bond_site_symmetry_1
_geom_bond_site_symmetry_2
B1 N1 1_555 1_555
B2 C6 1_555 1_555
N1 C1 1_555 1_555
O1 B1 1_555 1_555
O2 B1 1_555 1_555
F1 C15 1_555 1_555
F2 C16 1_555 1_555
F3 C17 1_555 1_555
F4 C18 1_555 1_555
F5 C19 1_555 1_555
F6 C21 1_555 1_555
F7 C22 1_555 1_555
F8 C23 1_555 1_555
F9 C24 1_555 1_555
F10 C25 1_555 1_555
F11 C27 1_555 1_555
F12 C28 1_555 1_555
F13 C29 1_555 1_555
F14 C30 1_555 1_555
F15 C31 1_555 1_555
C1 C2 1_555 1_555
C2 H1 1_555 1_555
C3 C2 1_555 1_555
H2 C3 1_555 1_555
C4 C3 1_555 1_555
H3 C4 1_555 1_555
C5 N1 1_555 1_555
C6 C1 1_555 1_555
H4 C6 1_555 1_555
H5 C6 1_555 1_555
C7 C5 1_555 1_555
H6 C7 1_555 1_555
H7 C7 1_555 1_555
H8 C7 1_555 1_555
C8 O1 1_555 1_555
C9 C8 1_555 1_555
H9 C9 1_555 1_555
C10 C9 1_555 1_555
H10 C10 1_555 1_555
C11 C10 1_555 1_555
H11 C11 1_555 1_555
C12 C11 1_555 1_555
H12 C12 1_555 1_555
C13 O2 1_555 1_555
C14 B2 1_555 1_555
C15 C14 1_555 1_555
C16 C15 1_555 1_555
C17 C16 1_555 1_555
C18 C17 1_555 1_555
C19 C14 1_555 1_555
C20 B2 1_555 1_555
C21 C20 1_555 1_555
C22 C21 1_555 1_555
C23 C22 1_555 1_555
C24 C23 1_555 1_555
C25 C20 1_555 1_555
C26 B2 1_555 1_555
C27 C26 1_555 1_555
C28 C27 1_555 1_555
C29 C28 1_555 1_555
C30 C29 1_555 1_555
C31 C26 1_555 1_555
C38 H17 1_555 1_555
H18 C38 1_555 1_555
Cl1 C38 1_555 1_555
Cl2 C38 1_555 1_555
C4 C5 1_555 1_555
C8 C13 1_555 1_555
C12 C13 1_555 1_555
C18 C19 1_555 1_555
C24 C25 1_555 1_555
C30 C31 1_555 1_555

#END
