
#######################################################################
#
#                 Cambridge Crystallographic Data Centre
#                                CCDC 
#
#######################################################################
#
# If this CIF has been generated from an entry in the Cambridge 
# Structural Database, then it will include bibliographic, chemical, 
# crystal, experimental, refinement or atomic coordinate data resulting 
# from the CCDC's data processing and validation procedures.
#
#######################################################################

data_VADHOZ
_chemical_formula_moiety         'C30 H24 Cl1 N1 O2'
_chemical_name_systematic        
(4-Chlorophenyl)(2,5-dibenzyl-3-phenyl-2,3-dihydro-1,2-oxazol-4-yl)methanone
_symmetry_cell_setting           monoclinic
_symmetry_space_group_name_H-M   'C c'
_symmetry_Int_Tables_number      9
_space_group_name_Hall           'C -2yc'
loop_
_symmetry_equiv_pos_site_id
_symmetry_equiv_pos_as_xyz
1 x,y,z
2 x,-y,1/2+z
3 1/2+x,1/2+y,z
4 1/2+x,1/2-y,1/2+z
_cell_length_a                   5.5972(3)
_cell_length_b                   22.0274(13)
_cell_length_c                   19.8862(11)
_cell_angle_alpha                90
_cell_angle_beta                 91.438(2)
_cell_angle_gamma                90
_cell_volume                     2451.03
_exptl_crystal_colour            colorless
_exptl_crystal_description       block
_cell_formula_units_Z            4
loop_
_atom_site_label
_atom_site_type_symbol
_atom_site_fract_x
_atom_site_fract_y
_atom_site_fract_z
Cl1 Cl 0.48541(14) 0.59522(3) 0.53533(4)
O1 O 1.0264(3) 0.72744(7) 0.28318(9)
O2 O 0.4293(3) 0.86171(7) 0.24115(8)
N1 N 0.6123(4) 0.86406(8) 0.18830(9)
C1 C 0.6504(8) 1.01923(15) 0.24976(18)
H1 H 0.7516 1.0121 0.2867
C2 C 0.5317(10) 1.07380(16) 0.2446(2)
H2 H 0.5519 1.1026 0.2785
C3 C 0.3881(9) 1.08609(15) 0.1918(2)
H3 H 0.3125 1.1235 0.1875
C4 C 0.3557(10) 1.04232(17) 0.1445(2)
H4 H 0.2522 1.0493 0.1081
C5 C 0.4734(8) 0.98784(14) 0.14973(18)
H5 H 0.4495 0.9587 0.1164
C6 C 0.6231(5) 0.97565(10) 0.20217(12)
C7 C 0.6046(5) 0.89674(13) 0.42584(16)
H6 H 0.7137 0.8654 0.4328
C8 C 0.6438(7) 0.95208(16) 0.45724(19)
H7 H 0.7795 0.9578 0.4844
C9 C 0.4853(7) 0.99761(14) 0.44838(17)
H8 H 0.5100 1.0348 0.4696
C10 C 0.2936(8) 0.98879(16) 0.4090(2)
H9 H 0.1845 1.0202 0.4023
C11 C 0.2541(6) 0.93313(14) 0.37771(18)
H10 H 0.1168 0.9275 0.3511
C12 C 0.4110(4) 0.88732(10) 0.38526(11)
C13 C 0.8435(5) 0.75009(12) 0.09359(11)
H11 H 0.9834 0.7727 0.0916
C14 C 0.7944(6) 0.70711(14) 0.04505(14)
H12 H 0.9016 0.7008 0.0107
C15 C 0.5918(6) 0.67393(14) 0.04679(14)
H13 H 0.5600 0.6450 0.0137
C16 C 0.4324(5) 0.68289(13) 0.09740(14)
H14 H 0.2929 0.6600 0.0987
C17 C 0.4809(5) 0.72642(11) 0.14664(13)
H15 H 0.3729 0.7328 0.1807
C18 C 0.6883(4) 0.76003(10) 0.14509(11)
C19 C 0.5236(4) 0.67593(10) 0.35774(13)
H16 H 0.4310 0.6780 0.3183
C20 C 0.4477(5) 0.64086(10) 0.41059(13)
H17 H 0.3071 0.6185 0.4065
C21 C 0.5816(5) 0.63939(10) 0.46887(12)
C22 C 0.7917(5) 0.67149(12) 0.47609(12)
H18 H 0.8797 0.6705 0.5164
C23 C 0.8689(4) 0.70526(11) 0.42218(12)
H19 H 1.0124 0.7264 0.4259
C24 C 0.7352(4) 0.70794(9) 0.36267(11)
C25 C 0.7511(4) 0.80673(9) 0.19834(11)
H20 H 0.9223 0.8158 0.1970
C26 C 0.6889(4) 0.78747(9) 0.26851(10)
C27 C 0.5037(4) 0.82108(9) 0.28823(11)
C28 C 0.8293(4) 0.74108(9) 0.30321(11)
C29 C 0.3676(4) 0.82665(10) 0.35144(12)
H21 H 0.4154 0.7943 0.3821
H22 H 0.1983 0.8221 0.3412
C30 C 0.7573(5) 0.91675(10) 0.20741(13)
H23 H 0.8946 0.9187 0.1787
H24 H 0.8160 0.9116 0.2534
loop_
_geom_bond_atom_site_label_1
_geom_bond_atom_site_label_2
_geom_bond_site_symmetry_1
_geom_bond_site_symmetry_2
Cl1 C21 1_555 1_555
O1 C28 1_555 1_555
O2 N1 1_555 1_555
N1 C25 1_555 1_555
C1 H1 1_555 1_555
C2 C1 1_555 1_555
H2 C2 1_555 1_555
C3 C2 1_555 1_555
H3 C3 1_555 1_555
C4 C3 1_555 1_555
H4 C4 1_555 1_555
C5 C4 1_555 1_555
H5 C5 1_555 1_555
C6 C1 1_555 1_555
C7 H6 1_555 1_555
C8 C7 1_555 1_555
H7 C8 1_555 1_555
C9 C8 1_555 1_555
H8 C9 1_555 1_555
C10 C9 1_555 1_555
H9 C10 1_555 1_555
C11 C10 1_555 1_555
H10 C11 1_555 1_555
C12 C7 1_555 1_555
C13 H11 1_555 1_555
C14 C13 1_555 1_555
H12 C14 1_555 1_555
C15 C14 1_555 1_555
H13 C15 1_555 1_555
C16 C15 1_555 1_555
H14 C16 1_555 1_555
C17 C16 1_555 1_555
H15 C17 1_555 1_555
C18 C13 1_555 1_555
C19 H16 1_555 1_555
C20 C19 1_555 1_555
H17 C20 1_555 1_555
C21 C20 1_555 1_555
C22 C21 1_555 1_555
H18 C22 1_555 1_555
C23 C22 1_555 1_555
H19 C23 1_555 1_555
C24 C19 1_555 1_555
C25 C18 1_555 1_555
H20 C25 1_555 1_555
C26 C25 1_555 1_555
C27 O2 1_555 1_555
C28 C24 1_555 1_555
C29 C12 1_555 1_555
H21 C29 1_555 1_555
H22 C29 1_555 1_555
C30 N1 1_555 1_555
H23 C30 1_555 1_555
H24 C30 1_555 1_555
C5 C6 1_555 1_555
C6 C30 1_555 1_555
C11 C12 1_555 1_555
C17 C18 1_555 1_555
C23 C24 1_555 1_555
C26 C27 1_555 1_555
C26 C28 1_555 1_555
C27 C29 1_555 1_555

#END
