
#######################################################################
#
#                 Cambridge Crystallographic Data Centre
#                                CCDC 
#
#######################################################################
#
# If this CIF has been generated from an entry in the Cambridge 
# Structural Database, then it will include bibliographic, chemical, 
# crystal, experimental, refinement or atomic coordinate data resulting 
# from the CCDC's data processing and validation procedures.
#
#######################################################################

data_VADJAN
_chemical_formula_moiety         'C17 H21 Br1 N1 O2 P1'
_chemical_name_systematic        
3-(4-Bromophenyl)-3-(diethylphosphoryl)-1-(1H-pyrrol-1-yl)propan-1-one
_symmetry_cell_setting           monoclinic
_symmetry_space_group_name_H-M   'P 21'
_symmetry_Int_Tables_number      4
_space_group_name_Hall           'P 2yb'
loop_
_symmetry_equiv_pos_site_id
_symmetry_equiv_pos_as_xyz
1 x,y,z
2 -x,1/2+y,-z
_cell_length_a                   5.4412(10)
_cell_length_b                   18.481(3)
_cell_length_c                   9.1796(16)
_cell_angle_alpha                90
_cell_angle_beta                 106.141(8)
_cell_angle_gamma                90
_cell_volume                     886.702
_exptl_crystal_colour            colorless
_exptl_crystal_description       block
_cell_formula_units_Z            2
loop_
_atom_site_label
_atom_site_type_symbol
_atom_site_fract_x
_atom_site_fract_y
_atom_site_fract_z
Br1 Br 0.14972(16) 0.76748(4) -0.24393(8)
C1 C 0.5174(12) 0.6092(3) 0.0526(7)
H1 H 0.6819 0.6026 0.1159
C2 C 0.4621(12) 0.6709(3) -0.0329(7)
H2 H 0.5883 0.7055 -0.0271
C3 C 0.2268(13) 0.6812(3) -0.1247(6)
C4 C 0.0342(13) 0.6310(4) -0.1351(7)
H3 H -0.1299 0.6393 -0.1976
C5 C 0.0905(11) 0.5685(3) -0.0509(7)
H4 H -0.0363 0.5338 -0.0595
C6 C 0.3333(10) 0.5561(3) 0.0470(6)
C7 C 0.3925(9) 0.4905(3) 0.1465(6)
H5 H 0.5785 0.4838 0.1764
C8 C 0.2716(11) 0.4207(3) 0.0701(6)
H6 H 0.3038 0.3822 0.1449
H7 H 0.0879 0.4274 0.0333
C9 C 0.3718(12) 0.3980(3) -0.0605(7)
C10 C 0.3224(12) 0.3083(3) -0.2635(6)
H8 H 0.4618 0.3224 -0.2967
C11 C 0.1632(12) 0.2533(4) -0.3189(7)
H9 H 0.1720 0.2223 -0.3971
C12 C -0.0198(11) 0.2514(3) -0.2368(7)
H10 H -0.1555 0.2190 -0.2529
C13 C 0.0332(11) 0.3038(3) -0.1312(7)
H11 H -0.0555 0.3136 -0.0602
C14 C 0.4085(12) 0.4312(4) 0.4447(7)
H12 H 0.3484 0.4377 0.5339
H13 H 0.3301 0.3874 0.3946
C15 C 0.7001(13) 0.4194(5) 0.4978(9)
H14 H 0.7677 0.4203 0.4118
H15 H 0.7361 0.3733 0.5475
H16 H 0.7781 0.4570 0.5673
C16 C 0.4711(12) 0.5839(3) 0.4106(7)
H17 H 0.6526 0.5731 0.4383
H18 H 0.4403 0.6238 0.3392
C17 C 0.3971(16) 0.6070(5) 0.5517(8)
H19 H 0.2153 0.6138 0.5268
H20 H 0.4819 0.6515 0.5894
H21 H 0.4475 0.5702 0.6280
N1 N 0.2431(9) 0.3403(2) -0.1481(5)
O1 O 0.5542(9) 0.4260(2) -0.0886(6)
O2 O 0.0157(7) 0.5150(3) 0.2870(4)
P1 P 0.2951(3) 0.50563(8) 0.31949(16)
loop_
_geom_bond_atom_site_label_1
_geom_bond_atom_site_label_2
_geom_bond_site_symmetry_1
_geom_bond_site_symmetry_2
Br1 C3 1_555 1_555
C1 H1 1_555 1_555
C2 C1 1_555 1_555
H2 C2 1_555 1_555
C3 C2 1_555 1_555
C4 C3 1_555 1_555
H3 C4 1_555 1_555
C5 C4 1_555 1_555
H4 C5 1_555 1_555
C6 C1 1_555 1_555
C7 C6 1_555 1_555
H5 C7 1_555 1_555
C8 C7 1_555 1_555
H6 C8 1_555 1_555
H7 C8 1_555 1_555
C9 C8 1_555 1_555
C10 H8 1_555 1_555
C11 C10 1_555 1_555
H9 C11 1_555 1_555
C12 C11 1_555 1_555
H10 C12 1_555 1_555
C13 C12 1_555 1_555
H11 C13 1_555 1_555
C14 H12 1_555 1_555
H13 C14 1_555 1_555
C15 C14 1_555 1_555
H14 C15 1_555 1_555
H15 C15 1_555 1_555
H16 C15 1_555 1_555
C16 H17 1_555 1_555
H18 C16 1_555 1_555
C17 C16 1_555 1_555
H19 C17 1_555 1_555
H20 C17 1_555 1_555
H21 C17 1_555 1_555
N1 C9 1_555 1_555
O1 C9 1_555 1_555
O2 P1 1_555 1_555
P1 C7 1_555 1_555
C5 C6 1_555 1_555
C10 N1 1_555 1_555
C13 N1 1_555 1_555
C14 P1 1_555 1_555
C16 P1 1_555 1_555

#END
