
#######################################################################
#
#                 Cambridge Crystallographic Data Centre
#                                CCDC 
#
#######################################################################
#
# If this CIF has been generated from an entry in the Cambridge 
# Structural Database, then it will include bibliographic, chemical, 
# crystal, experimental, refinement or atomic coordinate data resulting 
# from the CCDC's data processing and validation procedures.
#
#######################################################################

data_VADTOK
_chemical_formula_moiety         'C4 H12 N2 2+,2(C4 H3 O4 1-)'
_chemical_name_systematic        'Piperazinium bis(hydrogen maleate)'
_symmetry_cell_setting           monoclinic
_symmetry_space_group_name_H-M   'P 21/n'
_symmetry_Int_Tables_number      14
_space_group_name_Hall           '-P 2yn'
loop_
_symmetry_equiv_pos_site_id
_symmetry_equiv_pos_as_xyz
1 x,y,z
2 1/2+x,1/2-y,1/2+z
3 -x,-y,-z
4 1/2-x,1/2+y,1/2-z
_cell_length_a                   10.735(2)
_cell_length_b                   11.603(2)
_cell_length_c                   11.843(2)
_cell_angle_alpha                90
_cell_angle_beta                 105.870(10)
_cell_angle_gamma                90
_cell_volume                     1418.92
_exptl_crystal_colour            colorless
_exptl_crystal_description       prism
_cell_formula_units_Z            4
_exptl_crystal_recrystallization_method aqueous
loop_
_atom_site_label
_atom_site_type_symbol
_atom_site_fract_x
_atom_site_fract_y
_atom_site_fract_z
O1 O 1.01707(16) 0.90544(15) 0.70442(14)
O2 O 0.83884(16) 0.81417(14) 0.70825(14)
O3 O 0.68105(16) 0.89171(15) 0.99624(16)
O4 O 0.69656(15) 0.80606(15) 0.83507(14)
C1 C 0.9245(2) 0.8922(2) 0.7458(2)
C2 C 0.9124(2) 0.9718(2) 0.84063(19)
H1 H 0.9691 1.0341 0.8538
C3 C 0.8331(2) 0.9680(2) 0.9098(2)
H2 H 0.8435 1.0281 0.9636
C4 C 0.7306(2) 0.8833(2) 0.9148(2)
H14 H 0.7626 0.8049 0.7663
O5 O 1.07921(15) 0.71574(15) -0.07079(14)
O6 O 1.09071(16) 0.63470(15) -0.23602(15)
O7 O 0.93714(16) 0.70797(14) 0.05629(14)
O8 O 0.76236(17) 0.61331(16) 0.06466(14)
C5 C 1.0403(2) 0.6429(2) -0.1548(2)
C6 C 0.9308(2) 0.5653(2) -0.1553(2)
H3 H 0.9135 0.5102 -0.2147
C7 C 0.8529(2) 0.5609(2) -0.0853(2)
H4 H 0.7899 0.5037 -0.1043
C8 C 0.8496(2) 0.6319(2) 0.0180(2)
H13 H 1.0128 0.7165 -0.0007
N1 N 0.98012(17) 0.76114(16) 0.50401(15)
N2 N 0.80103(17) 0.72217(16) 0.27844(15)
C9 C 0.9382(2) 0.8570(2) 0.4191(2)
H5 H 1.0078 0.9127 0.4294
H6 H 0.8642 0.8956 0.4340
C10 C 0.9025(2) 0.8124(2) 0.29493(19)
H7 H 0.8710 0.8755 0.2409
H8 H 0.9787 0.7805 0.2775
C11 C 0.8422(2) 0.6266(2) 0.36360(18)
H9 H 0.9162 0.5876 0.3489
H10 H 0.7724 0.5711 0.3531
C12 C 0.8781(2) 0.6714(2) 0.48857(19)
H11 H 0.8021 0.7038 0.5059
H12 H 0.9094 0.6083 0.5427
H15 H 1.0576 0.7292 0.5008
H16 H 0.7933 0.6886 0.1958
H17 H 0.7219 0.7587 0.2816
H18 H 0.9951 0.7949 0.5823
loop_
_geom_bond_atom_site_label_1
_geom_bond_atom_site_label_2
_geom_bond_site_symmetry_1
_geom_bond_site_symmetry_2
O1 C1 1_555 1_555
O2 C1 1_555 1_555
O3 C4 1_555 1_555
O4 C4 1_555 1_555
O5 C5 1_555 1_555
O6 C5 1_555 1_555
O7 C8 1_555 1_555
O8 C8 1_555 1_555
N1 C9 1_555 1_555
N2 C10 1_555 1_555
C1 C2 1_555 1_555
C2 H1 1_555 1_555
C3 C2 1_555 1_555
H2 C3 1_555 1_555
C4 C3 1_555 1_555
C5 C6 1_555 1_555
C6 H3 1_555 1_555
C7 C6 1_555 1_555
H4 C7 1_555 1_555
C8 C7 1_555 1_555
C9 H5 1_555 1_555
H6 C9 1_555 1_555
C10 C9 1_555 1_555
H7 C10 1_555 1_555
H8 C10 1_555 1_555
C11 N2 1_555 1_555
H9 C11 1_555 1_555
H10 C11 1_555 1_555
C12 N1 1_555 1_555
H11 C12 1_555 1_555
H12 C12 1_555 1_555
H13 O7 1_555 1_555
H14 O2 1_555 1_555
H15 N1 1_555 1_555
H16 N2 1_555 1_555
H17 N2 1_555 1_555
H18 N1 1_555 1_555
C11 C12 1_555 1_555

#END
