
#######################################################################
#
#                 Cambridge Crystallographic Data Centre
#                                CCDC 
#
#######################################################################
#
# If this CIF has been generated from an entry in the Cambridge 
# Structural Database, then it will include bibliographic, chemical, 
# crystal, experimental, refinement or atomic coordinate data resulting 
# from the CCDC's data processing and validation procedures.
#
#######################################################################

data_VADWED
_chemical_formula_moiety         'C22 H38 K1 O6 P1 S1 Se1'
_chemical_name_systematic        
(18-Crown-6)-(t-butyl(phenyl)selenothiophosphinato)-potassium
_symmetry_cell_setting           monoclinic
_symmetry_space_group_name_H-M   'P 21/n'
_symmetry_Int_Tables_number      14
_space_group_name_Hall           '-P 2yn'
loop_
_symmetry_equiv_pos_site_id
_symmetry_equiv_pos_as_xyz
1 x,y,z
2 1/2+x,1/2-y,1/2+z
3 -x,-y,-z
4 1/2-x,1/2+y,1/2-z
_cell_length_a                   10.650(4)
_cell_length_b                   16.682(6)
_cell_length_c                   15.479(6)
_cell_angle_alpha                90
_cell_angle_beta                 91.973(5)
_cell_angle_gamma                90
_cell_volume                     2748.42
_exptl_crystal_colour            colorless
_exptl_crystal_description       block
_chemical_melting_point          202-204deg.C(dec.)
_cell_formula_units_Z            4
loop_
_atom_site_label
_atom_site_type_symbol
_atom_site_fract_x
_atom_site_fract_y
_atom_site_fract_z
Se2 Se -0.1516 0.3899 0.2196
K1 K -0.17299(9) 0.30005(6) 0.42108(6)
S1 S 0.11381(7) 0.32019(5) 0.34662(4)
P1 P 0.03905(10) 0.35461(7) 0.22626(7)
O1 O -0.0475(3) 0.1609(2) 0.4905(2)
O2 O -0.2772(3) 0.1423(2) 0.3930(2)
O3 O -0.4074(3) 0.2747(2) 0.3316(2)
O4 O -0.3847(3) 0.4128(2) 0.4335(2)
O5 O -0.1522(3) 0.4371(2) 0.5260(2)
O6 O -0.0073(3) 0.3043(2) 0.5810(2)
C1 C 0.1325(4) 0.4377(3) 0.1837(3)
C2 C 0.0898(4) 0.4846(3) 0.1153(3)
C3 C 0.1603(5) 0.5478(3) 0.0864(3)
C4 C 0.2732(5) 0.5670(3) 0.1265(3)
C5 C 0.3178(4) 0.5208(3) 0.1940(3)
C6 C 0.2482(4) 0.4570(3) 0.2228(3)
C7 C 0.0621(4) 0.2682(3) 0.1511(3)
C8 C -0.0124(5) 0.1970(3) 0.1836(3)
C9 C 0.2010(5) 0.2450(3) 0.1513(3)
C10 C 0.0162(5) 0.2891(3) 0.0595(3)
C11 C -0.1185(5) 0.0893(3) 0.4866(4)
C12 C -0.1832(5) 0.0830(3) 0.4000(4)
C13 C -0.3455(5) 0.1401(3) 0.3126(3)
C14 C -0.4535(4) 0.1957(3) 0.3169(3)
C15 C -0.5058(4) 0.3313(3) 0.3363(3)
C16 C -0.4499(4) 0.4121(3) 0.3514(3)
C17 C -0.3342(4) 0.4891(3) 0.4544(3)
C18 C -0.2623(4) 0.4843(3) 0.5379(3)
C19 C -0.0678(4) 0.4395(3) 0.5998(3)
C20 C 0.0372(4) 0.3842(3) 0.5827(3)
C21 C 0.0886(4) 0.2458(3) 0.5723(3)
C22 C 0.0291(5) 0.1657(3) 0.5674(3)
H1 H 0.0076 0.4730 0.0877
H2 H 0.1304 0.5790 0.0360
H3 H 0.3220 0.6134 0.1068
H4 H 0.3990 0.5338 0.2228
H5 H 0.2797 0.4250 0.2711
H6 H -0.0251 0.1585 0.1392
H7 H -0.0929 0.2143 0.2028
H8 H 0.0317 0.1725 0.2316
H9 H 0.2404 0.2496 0.2076
H10 H 0.2471 0.2813 0.1137
H11 H 0.2134 0.1923 0.1303
H12 H -0.0632 0.3186 0.0611
H13 H 0.0748 0.3249 0.0330
H14 H 0.0039 0.2439 0.0250
H15 H -0.0664 0.0440 0.4991
H16 H -0.1818 0.0911 0.5307
H17 H -0.1218 0.0916 0.3552
H18 H -0.2178 0.0307 0.3901
H19 H -0.2952 0.1554 0.2667
H20 H -0.3767 0.0864 0.3018
H21 H -0.5036 0.1931 0.2643
H22 H -0.5064 0.1794 0.3634
H23 H -0.5568 0.3300 0.2845
H24 H -0.5584 0.3175 0.3838
H25 H -0.3931 0.4246 0.3065
H26 H -0.5150 0.4527 0.3494
H27 H -0.2796 0.5062 0.4095
H28 H -0.4009 0.5284 0.4568
H29 H -0.2400 0.5377 0.5585
H30 H -0.3137 0.4607 0.5811
H31 H -0.0384 0.4937 0.6095
H32 H -0.1099 0.4228 0.6502
H33 H 0.0742 0.3987 0.5289
H34 H 0.1034 0.3914 0.6275
H35 H 0.1340 0.2554 0.5206
H36 H 0.1487 0.2485 0.6204
H37 H 0.0923 0.1234 0.5679
H38 H -0.0207 0.1566 0.6174
Se1? Se 0.1138 0.3202 0.3466
S2? S -0.15160(6) 0.38989(4) 0.21956(4)
loop_
_geom_bond_atom_site_label_1
_geom_bond_atom_site_label_2
_geom_bond_site_symmetry_1
_geom_bond_site_symmetry_2
Se2 K1 1_555 1_555
K1 S1 1_555 1_555
S1 P1 1_555 1_555
P1 Se2 1_555 1_555
O1 K1 1_555 1_555
O2 K1 1_555 1_555
O3 K1 1_555 1_555
O4 K1 1_555 1_555
O5 K1 1_555 1_555
O6 K1 1_555 1_555
C1 P1 1_555 1_555
C2 C1 1_555 1_555
C3 C2 1_555 1_555
C4 C3 1_555 1_555
C5 C4 1_555 1_555
C6 C1 1_555 1_555
C7 P1 1_555 1_555
C8 C7 1_555 1_555
C9 C7 1_555 1_555
C10 C7 1_555 1_555
C11 O1 1_555 1_555
C12 O2 1_555 1_555
C13 O2 1_555 1_555
C14 O3 1_555 1_555
C15 O3 1_555 1_555
C16 O4 1_555 1_555
C17 O4 1_555 1_555
C18 O5 1_555 1_555
C19 O5 1_555 1_555
C20 O6 1_555 1_555
C21 O6 1_555 1_555
C22 O1 1_555 1_555
H1 C2 1_555 1_555
H2 C3 1_555 1_555
H3 C4 1_555 1_555
H4 C5 1_555 1_555
H5 C6 1_555 1_555
H6 C8 1_555 1_555
H7 C8 1_555 1_555
H8 C8 1_555 1_555
H9 C9 1_555 1_555
H10 C9 1_555 1_555
H11 C9 1_555 1_555
H12 C10 1_555 1_555
H13 C10 1_555 1_555
H14 C10 1_555 1_555
H15 C11 1_555 1_555
H16 C11 1_555 1_555
H17 C12 1_555 1_555
H18 C12 1_555 1_555
H19 C13 1_555 1_555
H20 C13 1_555 1_555
H21 C14 1_555 1_555
H22 C14 1_555 1_555
H23 C15 1_555 1_555
H24 C15 1_555 1_555
H25 C16 1_555 1_555
H26 C16 1_555 1_555
H27 C17 1_555 1_555
H28 C17 1_555 1_555
H29 C18 1_555 1_555
H30 C18 1_555 1_555
H31 C19 1_555 1_555
H32 C19 1_555 1_555
H33 C20 1_555 1_555
H34 C20 1_555 1_555
H35 C21 1_555 1_555
H36 C21 1_555 1_555
H37 C22 1_555 1_555
H38 C22 1_555 1_555
C5 C6 1_555 1_555
C11 C12 1_555 1_555
C13 C14 1_555 1_555
C15 C16 1_555 1_555
C17 C18 1_555 1_555
C19 C20 1_555 1_555
C21 C22 1_555 1_555

#END
