
#######################################################################
#
#                 Cambridge Crystallographic Data Centre
#                                CCDC 
#
#######################################################################
#
# If this CIF has been generated from an entry in the Cambridge 
# Structural Database, then it will include bibliographic, chemical, 
# crystal, experimental, refinement or atomic coordinate data resulting 
# from the CCDC's data processing and validation procedures.
#
#######################################################################

data_VAFKAO
_chemical_formula_moiety         'C16 H10 N4 O4 S1'
_chemical_name_systematic        'bis(3-Phenylsydnon-4-yl) sulfide'
_symmetry_cell_setting           monoclinic
_symmetry_space_group_name_H-M   'P 21/n'
_symmetry_Int_Tables_number      14
_space_group_name_Hall           '-P 2yn'
loop_
_symmetry_equiv_pos_site_id
_symmetry_equiv_pos_as_xyz
1 x,y,z
2 1/2-x,1/2+y,1/2-z
3 -x,-y,-z
4 1/2+x,1/2-y,1/2+z
_cell_length_a                   10.347(2)
_cell_length_b                   7.777(1)
_cell_length_c                   19.796(4)
_cell_angle_alpha                90
_cell_angle_beta                 100.33(2)
_cell_angle_gamma                90
_cell_volume                     1567.14
_cell_formula_units_Z            4
loop_
_atom_site_label
_atom_site_type_symbol
_atom_site_fract_x
_atom_site_fract_y
_atom_site_fract_z
S1 S 0.9319(1) 0.2026(1) 0.37728(2)
C1 C 0.6655(1) 0.3777(2) 0.2852(1)
C2 C 0.6579(2) 0.4576(2) 0.3461(1)
C3 C 0.5355(2) 0.4717(3) 0.3645(1)
C4 C 0.4260(2) 0.4090(3) 0.3226(1)
C5 C 0.4362(2) 0.3302(3) 0.2618(1)
C6 C 0.5569(2) 0.3135(3) 0.2417(1)
C7 C 0.9058(1) 0.2990(2) 0.2969(1)
C8 C 0.9986(2) 0.3242(2) 0.2535(1)
N1 N 0.7920(1) 0.3656(2) 0.2635(1)
N2 N 0.7964(1) 0.4264(2) 0.2023(1)
O1 O 0.9252(1) 0.4027(2) 0.1948(1)
O2 O 1.1142(1) 0.2957(2) 0.2580(1)
C9 C 1.2362(1) 0.1406(2) 0.4572(1)
C10 C 1.2750(2) 0.0805(2) 0.5231(1)
C11 C 1.3435(2) -0.0721(3) 0.5322(1)
C12 C 1.3722(2) -0.1593(2) 0.4767(1)
C13 C 1.3307(2) -0.0977(3) 0.4109(1)
C14 C 1.2619(2) 0.0545(2) 0.4003(1)
C15 C 1.0483(1) 0.3466(2) 0.4181(1)
C16 C 1.0342(2) 0.5246(2) 0.4276(1)
N3 N 1.1719(1) 0.3061(2) 0.4490(1)
N4 N 1.2402(1) 0.4359(2) 0.4785(1)
O3 O 1.1564(1) 0.5751(2) 0.4649(1)
O4 O 0.9470(1) 0.6275(2) 0.4117(1)
H1 H 0.7358(15) 0.5075(20) 0.3728(7)
H2 H 0.5302(15) 0.5274(22) 0.4064(8)
H3 H 0.3400(15) 0.4164(22) 0.3366(8)
H4 H 0.3614(16) 0.2865(23) 0.2324(8)
H5 H 0.5685(14) 0.2613(20) 0.1993(7)
H6 H 1.2501(15) 0.1449(21) 0.5606(8)
H7 H 1.3744(15) -0.1166(21) 0.5789(8)
H8 H 1.4218(14) -0.2660(20) 0.4851(7)
H9 H 1.3470(15) -0.1556(20) 0.3714(8)
H10 H 1.2312(15) 0.1017(20) 0.3551(7)
loop_
_geom_bond_atom_site_label_1
_geom_bond_atom_site_label_2
_geom_bond_site_symmetry_1
_geom_bond_site_symmetry_2
S1 C7 1_555 1_555
C1 C2 1_555 1_555
C2 C3 1_555 1_555
C3 C4 1_555 1_555
C4 C5 1_555 1_555
C5 C6 1_555 1_555
C6 C1 1_555 1_555
C7 C8 1_555 1_555
C8 O1 1_555 1_555
N1 C1 1_555 1_555
N2 N1 1_555 1_555
O1 N2 1_555 1_555
O2 C8 1_555 1_555
C9 C10 1_555 1_555
C10 C11 1_555 1_555
C11 C12 1_555 1_555
C12 C13 1_555 1_555
C13 C14 1_555 1_555
C14 C9 1_555 1_555
C15 S1 1_555 1_555
C16 C15 1_555 1_555
N3 C9 1_555 1_555
N4 N3 1_555 1_555
O3 C16 1_555 1_555
O4 C16 1_555 1_555
H1 C2 1_555 1_555
H2 C3 1_555 1_555
H3 C4 1_555 1_555
H4 C5 1_555 1_555
H5 C6 1_555 1_555
H6 C10 1_555 1_555
H7 C11 1_555 1_555
H8 C12 1_555 1_555
H9 C13 1_555 1_555
H10 C14 1_555 1_555
C7 N1 1_555 1_555
C15 N3 1_555 1_555
N4 O3 1_555 1_555

#END
