
#######################################################################
#
#                 Cambridge Crystallographic Data Centre
#                                CCDC 
#
#######################################################################
#
# If this CIF has been generated from an entry in the Cambridge 
# Structural Database, then it will include bibliographic, chemical, 
# crystal, experimental, refinement or atomic coordinate data resulting 
# from the CCDC's data processing and validation procedures.
#
#######################################################################

data_VAFROL
_chemical_formula_moiety         'C19 H22 N2 O7 S1'
_chemical_name_systematic        
'Methyl 3-hydroxy-2-((methyl((4-methylphenyl)sulfonyl)amino)methyl)-3-(4-nitrophenyl)propanoate'
_symmetry_cell_setting           triclinic
_symmetry_space_group_name_H-M   'P -1'
_symmetry_Int_Tables_number      2
_space_group_name_Hall           '-P 1'
loop_
_symmetry_equiv_pos_site_id
_symmetry_equiv_pos_as_xyz
1 x,y,z
2 -x,-y,-z
_cell_length_a                   8.6183(2)
_cell_length_b                   9.1982(2)
_cell_length_c                   14.4067(4)
_cell_angle_alpha                92.497(2)
_cell_angle_beta                 96.762(2)
_cell_angle_gamma                115.1500(10)
_cell_volume                     1021.02
_exptl_crystal_colour            colorless
_exptl_crystal_description       prism
_cell_formula_units_Z            2
loop_
_atom_site_label
_atom_site_type_symbol
_atom_site_fract_x
_atom_site_fract_y
_atom_site_fract_z
S1 S 0.57447(8) 0.49464(7) 0.22267(4)
O1 O 1.1820(3) 0.0105(3) 0.07164(15)
O2 O 1.3347(3) -0.0078(3) 0.19627(16)
O3 O 0.7717(3) 0.0527(3) 0.47505(14)
H1 H 0.8486 0.0221 0.4787
O4 O 0.5110(2) 0.2000(3) 0.46077(13)
O5 O 0.7498(3) 0.4169(3) 0.52672(12)
O6 O 0.4130(2) 0.3572(2) 0.22215(12)
O7 O 0.5853(2) 0.6534(2) 0.23964(12)
N1 N 1.2115(3) 0.0109(3) 0.15689(17)
N2 N 0.7128(2) 0.4786(2) 0.30613(12)
C1 C 1.0928(3) 0.0353(3) 0.21422(18)
C2 C 1.1389(3) 0.0627(3) 0.31028(18)
H2 H 1.2441 0.0676 0.3384
C3 C 1.0256(3) 0.0828(3) 0.36400(18)
H3 H 1.0560 0.1033 0.4290
C4 C 0.8676(3) 0.0731(3) 0.32298(17)
C5 C 0.8253(3) 0.0445(3) 0.22531(18)
H4 H 0.7188 0.0363 0.1968
C6 C 0.9384(4) 0.0284(3) 0.17049(18)
H5 H 0.9112 0.0131 0.1053
C7 C 0.7446(3) 0.0962(3) 0.38308(17)
H6 H 0.6249 0.0278 0.3540
C8 C 0.7726(3) 0.2731(3) 0.39346(15)
H7 H 0.8949 0.3429 0.4172
C9 C 0.6620(3) 0.2902(4) 0.46312(16)
C10 C 0.6553(5) 0.4431(6) 0.5979(2)
H8 H 0.7305 0.5379 0.6395
H9 H 0.6152 0.3513 0.6332
H10 H 0.5578 0.4574 0.5681
C11 C 0.7228(3) 0.3229(3) 0.29848(15)
H11 H 0.8076 0.3294 0.2581
H12 H 0.6112 0.2398 0.2689
C12 C 0.8822(4) 0.6204(3) 0.32943(19)
H13 H 0.8651 0.7169 0.3333
H14 H 0.9519 0.6244 0.2814
H15 H 0.9399 0.6121 0.3888
C13 C 0.6481(3) 0.4803(3) 0.11508(15)
C14 C 0.6128(3) 0.3311(3) 0.06969(16)
H16 H 0.5460 0.2366 0.0945
C15 C 0.6775(4) 0.3242(3) -0.01249(17)
H17 H 0.6540 0.2240 -0.0426
C16 C 0.7767(3) 0.4624(3) -0.05158(16)
C17 C 0.8480(4) 0.4542(5) -0.14072(18)
H18 H 0.8156 0.3434 -0.1621
H19 H 0.9722 0.5120 -0.1292
H20 H 0.8020 0.5019 -0.1879
C18 C 0.8071(4) 0.6090(4) -0.00594(18)
H21 H 0.8715 0.7035 -0.0315
C19 C 0.7443(4) 0.6190(3) 0.07676(17)
H22 H 0.7671 0.7193 0.1065
loop_
_geom_bond_atom_site_label_1
_geom_bond_atom_site_label_2
_geom_bond_site_symmetry_1
_geom_bond_site_symmetry_2
S1 O6 1_555 1_555
O1 N1 1_555 1_555
O2 N1 1_555 1_555
O3 H1 1_555 1_555
O4 C9 1_555 1_555
O5 C9 1_555 1_555
O7 S1 1_555 1_555
N1 C1 1_555 1_555
N2 S1 1_555 1_555
C1 C2 1_555 1_555
C2 H2 1_555 1_555
C3 C2 1_555 1_555
H3 C3 1_555 1_555
C4 C3 1_555 1_555
C5 C4 1_555 1_555
H4 C5 1_555 1_555
C6 C1 1_555 1_555
H5 C6 1_555 1_555
C7 O3 1_555 1_555
H6 C7 1_555 1_555
C8 C7 1_555 1_555
H7 C8 1_555 1_555
C9 C8 1_555 1_555
C10 O5 1_555 1_555
H8 C10 1_555 1_555
H9 C10 1_555 1_555
H10 C10 1_555 1_555
C11 N2 1_555 1_555
H11 C11 1_555 1_555
H12 C11 1_555 1_555
C12 N2 1_555 1_555
H13 C12 1_555 1_555
H14 C12 1_555 1_555
H15 C12 1_555 1_555
C13 S1 1_555 1_555
C14 C13 1_555 1_555
H16 C14 1_555 1_555
C15 C14 1_555 1_555
H17 C15 1_555 1_555
C16 C15 1_555 1_555
C17 C16 1_555 1_555
H18 C17 1_555 1_555
H19 C17 1_555 1_555
H20 C17 1_555 1_555
C18 C16 1_555 1_555
H21 C18 1_555 1_555
C19 C13 1_555 1_555
H22 C19 1_555 1_555
C4 C7 1_555 1_555
C5 C6 1_555 1_555
C8 C11 1_555 1_555
C18 C19 1_555 1_555

#END
