
#######################################################################
#
#                 Cambridge Crystallographic Data Centre
#                                CCDC 
#
#######################################################################
#
# If this CIF has been generated from an entry in the Cambridge 
# Structural Database, then it will include bibliographic, chemical, 
# crystal, experimental, refinement or atomic coordinate data resulting 
# from the CCDC's data processing and validation procedures.
#
#######################################################################

data_VAFRAX
_chemical_formula_moiety         'C19 H22 N2 O7 S1'
_chemical_name_systematic        
'Methyl 3-hydroxy-2-((methyl((4-methylphenyl)sulfonyl)amino)methyl)-3-(2-nitrophenyl)propanoate'
_symmetry_cell_setting           monoclinic
_symmetry_space_group_name_H-M   'P 21/c'
_symmetry_Int_Tables_number      14
_space_group_name_Hall           '-P 2ybc'
loop_
_symmetry_equiv_pos_site_id
_symmetry_equiv_pos_as_xyz
1 x,y,z
2 -x,1/2+y,1/2-z
3 -x,-y,-z
4 x,1/2-y,1/2+z
_cell_length_a                   14.8331(3)
_cell_length_b                   6.8277(2)
_cell_length_c                   19.1969(5)
_cell_angle_alpha                90
_cell_angle_beta                 92.995(2)
_cell_angle_gamma                90
_cell_volume                     1941.53
_exptl_crystal_colour            colorless
_exptl_crystal_description       prism
_cell_formula_units_Z            4
loop_
_atom_site_label
_atom_site_type_symbol
_atom_site_fract_x
_atom_site_fract_y
_atom_site_fract_z
S1 S 0.79799(6) -0.28701(13) 0.35222(4)
O1 O 0.70378(16) -0.3318(4) 0.34937(13)
O2 O 0.86131(19) -0.4309(4) 0.37715(12)
O3 O 0.65229(16) 0.4473(3) 0.49678(11)
O4 O 0.59051(14) 0.2699(3) 0.40856(11)
O5 O 0.62258(13) -0.1261(3) 0.48651(10)
H1 H 0.6361 -0.1681 0.4484
O6 O 0.86026(15) 0.0676(4) 0.58433(14)
O7 O 0.87375(19) 0.1456(4) 0.69287(14)
N1 N 0.81217(15) -0.0954(4) 0.40291(12)
N2 N 0.8281(2) 0.1085(4) 0.63972(16)
C1 C 0.8269(2) -0.2158(4) 0.26811(15)
C2 C 0.9180(2) -0.2084(5) 0.25302(16)
H2 H 0.9627 -0.2401 0.2869
C3 C 0.9405(2) -0.1539(5) 0.18757(16)
H3 H 1.0011 -0.1466 0.1778
C4 C 0.8758(2) -0.1094(5) 0.13558(15)
C5 C 0.9020(3) -0.0600(6) 0.06270(17)
H4 H 0.8486 -0.0334 0.0338
H5 H 0.9337 -0.1686 0.0438
H6 H 0.9403 0.0534 0.0642
C6 C 0.7853(2) -0.1162(5) 0.15212(16)
H7 H 0.7406 -0.0852 0.1181
C7 C 0.7609(2) -0.1677(5) 0.21773(16)
H8 H 0.7004 -0.1702 0.2281
C8 C 0.9053(2) -0.0272(6) 0.41587(18)
H9 H 0.9450 -0.1380 0.4206
H10 H 0.9095 0.0487 0.4580
H11 H 0.9224 0.0523 0.3775
C9 C 0.7444(2) 0.0602(5) 0.39525(15)
H12 H 0.6895 0.0078 0.3726
H13 H 0.7666 0.1634 0.3659
C10 C 0.72296(18) 0.1461(4) 0.46675(14)
H14 H 0.7786 0.2060 0.4866
C11 C 0.6527(2) 0.3055(5) 0.45968(15)
C12 C 0.5205(2) 0.4150(5) 0.39809(18)
H15 H 0.4793 0.3747 0.3606
H16 H 0.5471 0.5383 0.3867
H17 H 0.4886 0.4286 0.4400
C13 C 0.69617(19) -0.0183(4) 0.51729(14)
H18 H 0.7477 -0.1071 0.5247
C14 C 0.66988(19) 0.0592(4) 0.58848(14)
C15 C 0.5782(2) 0.0708(5) 0.60024(15)
H19 H 0.5363 0.0380 0.5644
C16 C 0.5478(3) 0.1299(5) 0.66380(19)
H20 H 0.4861 0.1344 0.6701
C17 C 0.6068(3) 0.1815(6) 0.71717(18)
H21 H 0.5858 0.2217 0.7597
C18 C 0.6975(3) 0.1734(5) 0.70754(17)
H22 H 0.7384 0.2084 0.7438
C19 C 0.7288(2) 0.1137(4) 0.64439(15)
loop_
_geom_bond_atom_site_label_1
_geom_bond_atom_site_label_2
_geom_bond_site_symmetry_1
_geom_bond_site_symmetry_2
S1 O1 1_555 1_555
O2 S1 1_555 1_555
O3 C11 1_555 1_555
O4 C11 1_555 1_555
O5 H1 1_555 1_555
O6 N2 1_555 1_555
O7 N2 1_555 1_555
N1 S1 1_555 1_555
N2 C19 1_555 1_555
C1 S1 1_555 1_555
C2 C1 1_555 1_555
H2 C2 1_555 1_555
C3 C2 1_555 1_555
H3 C3 1_555 1_555
C4 C3 1_555 1_555
C5 C4 1_555 1_555
H4 C5 1_555 1_555
H5 C5 1_555 1_555
H6 C5 1_555 1_555
C6 C4 1_555 1_555
H7 C6 1_555 1_555
C7 C1 1_555 1_555
H8 C7 1_555 1_555
C8 N1 1_555 1_555
H9 C8 1_555 1_555
H10 C8 1_555 1_555
H11 C8 1_555 1_555
C9 N1 1_555 1_555
H12 C9 1_555 1_555
H13 C9 1_555 1_555
C10 C9 1_555 1_555
H14 C10 1_555 1_555
C11 C10 1_555 1_555
C12 O4 1_555 1_555
H15 C12 1_555 1_555
H16 C12 1_555 1_555
H17 C12 1_555 1_555
C13 O5 1_555 1_555
H18 C13 1_555 1_555
C14 C13 1_555 1_555
C15 C14 1_555 1_555
H19 C15 1_555 1_555
C16 C15 1_555 1_555
H20 C16 1_555 1_555
C17 C16 1_555 1_555
H21 C17 1_555 1_555
C18 C17 1_555 1_555
H22 C18 1_555 1_555
C19 C14 1_555 1_555
C6 C7 1_555 1_555
C10 C13 1_555 1_555
C18 C19 1_555 1_555

#END
