
#######################################################################
#
#                 Cambridge Crystallographic Data Centre
#                                CCDC 
#
#######################################################################
#
# If this CIF has been generated from an entry in the Cambridge 
# Structural Database, then it will include bibliographic, chemical, 
# crystal, experimental, refinement or atomic coordinate data resulting 
# from the CCDC's data processing and validation procedures.
#
#######################################################################

data_VAFSIG
_chemical_formula_moiety         'C17 H16 F1 N1 O2 S1'
_chemical_name_systematic        
3-Fluoro-4-phenyl-1-(phenylsulfonyl)-1,2,3,6-tetrahydropyridine
_symmetry_cell_setting           monoclinic
_symmetry_space_group_name_H-M   'P 21/c'
_symmetry_Int_Tables_number      14
_space_group_name_Hall           '-P 2ybc'
loop_
_symmetry_equiv_pos_site_id
_symmetry_equiv_pos_as_xyz
1 x,y,z
2 -x,1/2+y,1/2-z
3 -x,-y,-z
4 x,1/2-y,1/2+z
_cell_length_a                   14.5302(3)
_cell_length_b                   11.7351(2)
_cell_length_c                   8.9707(2)
_cell_angle_alpha                90
_cell_angle_beta                 97.1220(10)
_cell_angle_gamma                90
_cell_volume                     1517.82
_exptl_crystal_colour            colorless
_cell_formula_units_Z            4
loop_
_atom_site_label
_atom_site_type_symbol
_atom_site_fract_x
_atom_site_fract_y
_atom_site_fract_z
C1 C 0.18528(14) 0.1747(2) 0.6984(2)
H1 H 0.2129 0.1289 0.6256
H2 H 0.2180 0.2469 0.7092
C2 C 0.08543(14) 0.19509(18) 0.6445(2)
C3 C 0.01833(13) 0.11351(16) 0.6751(2)
C4 C 0.04656(14) 0.02340(18) 0.7717(3)
C5 C 0.14530(14) 0.00671(17) 0.8317(3)
H3 H 0.1494 -0.0285 0.9301
H4 H 0.1744 -0.0439 0.7659
C6 C -0.08050(14) 0.12574(16) 0.6097(2)
C7 C -0.10890(16) 0.2084(2) 0.5033(3)
H5 H -0.0652 0.2575 0.4710
C8 C -0.20144(17) 0.2191(2) 0.4443(3)
H6 H -0.2190 0.2754 0.3734
C9 C -0.26728(16) 0.1473(2) 0.4896(3)
H7 H -0.3292 0.1543 0.4494
C10 C -0.24089(15) 0.0657(2) 0.5940(3)
H8 H -0.2851 0.0168 0.6252
C11 C -0.14901(14) 0.0546(2) 0.6543(3)
H9 H -0.1326 -0.0014 0.7261
C12 C 0.37346(11) 0.03709(16) 0.86422(19)
C13 C 0.39048(14) -0.07402(17) 0.9104(2)
H10 H 0.3585 -0.1063 0.9835
C14 C 0.45570(17) -0.1362(2) 0.8463(3)
H11 H 0.4674 -0.2113 0.8761
C15 C 0.50356(15) -0.0893(2) 0.7394(2)
H12 H 0.5480 -0.1319 0.6979
C16 C 0.48573(14) 0.0209(2) 0.6939(2)
H13 H 0.5182 0.0528 0.6211
C17 C 0.42015(14) 0.08487(18) 0.7549(2)
H14 H 0.4076 0.1592 0.7228
N1 N 0.19405(11) 0.11572(12) 0.84304(18)
O1 O 0.32450(11) 0.23667(12) 0.94750(17)
O2 O 0.27980(10) 0.06837(15) 1.08766(15)
S1 S 0.29341(3) 0.12084(4) 0.94909(5)
F1 F 0.06616(15) 0.29526(18) 0.7330(3)
H15 H 0.0774 0.2266 0.5493
H16 H 0.0142 -0.0470 0.7550
F2? F 0.0079(2) 0.0573(3) 0.9200(3)
loop_
_geom_bond_atom_site_label_1
_geom_bond_atom_site_label_2
_geom_bond_site_symmetry_1
_geom_bond_site_symmetry_2
C1 H1 1_555 1_555
H2 C1 1_555 1_555
C2 C1 1_555 1_555
C3 C2 1_555 1_555
C4 C3 1_555 1_555
C5 C4 1_555 1_555
H3 C5 1_555 1_555
H4 C5 1_555 1_555
C6 C3 1_555 1_555
C7 C6 1_555 1_555
H5 C7 1_555 1_555
C8 C7 1_555 1_555
H6 C8 1_555 1_555
C9 C8 1_555 1_555
H7 C9 1_555 1_555
C10 C9 1_555 1_555
H8 C10 1_555 1_555
C11 C6 1_555 1_555
H9 C11 1_555 1_555
C12 C13 1_555 1_555
C13 H10 1_555 1_555
C14 C13 1_555 1_555
H11 C14 1_555 1_555
C15 C14 1_555 1_555
H12 C15 1_555 1_555
C16 C15 1_555 1_555
H13 C16 1_555 1_555
C17 C12 1_555 1_555
H14 C17 1_555 1_555
N1 C1 1_555 1_555
O1 S1 1_555 1_555
O2 S1 1_555 1_555
S1 C12 1_555 1_555
F1 C2 1_555 1_555
H15 C2 1_555 1_555
H16 C4 1_555 1_555
C5 N1 1_555 1_555
C10 C11 1_555 1_555
C16 C17 1_555 1_555
N1 S1 1_555 1_555

#END
