
#######################################################################
#
#                 Cambridge Crystallographic Data Centre
#                                CCDC 
#
#######################################################################
#
# If this CIF has been generated from an entry in the Cambridge 
# Structural Database, then it will include bibliographic, chemical, 
# crystal, experimental, refinement or atomic coordinate data resulting 
# from the CCDC's data processing and validation procedures.
#
#######################################################################

data_VAFSUS
_chemical_formula_moiety         'C24 H21 F2 N1 O3 S1'
_chemical_name_systematic        
(4-Fluorophenyl)(4-(4-fluorophenyl)-1-(phenylsulfonyl)piperidin-4-yl)methanone
_symmetry_cell_setting           monoclinic
_symmetry_space_group_name_H-M   'C 2/c'
_symmetry_Int_Tables_number      15
_space_group_name_Hall           '-C 2yn'
loop_
_symmetry_equiv_pos_site_id
_symmetry_equiv_pos_as_xyz
1 x,y,z
2 -x,y,1/2-z
3 1/2+x,1/2+y,z
4 1/2-x,1/2+y,1/2-z
5 -x,-y,-z
6 x,-y,1/2+z
7 1/2-x,1/2-y,-z
8 1/2+x,1/2-y,1/2+z
_cell_length_a                   14.6286(7)
_cell_length_b                   15.3142(8)
_cell_length_c                   19.3383(9)
_cell_angle_alpha                90
_cell_angle_beta                 105.5750(10)
_cell_angle_gamma                90
_cell_volume                     4173.19
_exptl_crystal_colour            colorless
_cell_formula_units_Z            8
loop_
_atom_site_label
_atom_site_type_symbol
_atom_site_fract_x
_atom_site_fract_y
_atom_site_fract_z
C1 C 0.79718(11) 0.09185(10) 0.83848(9)
H1 H 0.8175 0.1374 0.8757
H2 H 0.8494 0.0819 0.8157
C2 C 0.77463(11) 0.00746(10) 0.87235(8)
H3 H 0.8321 -0.0125 0.9089
H4 H 0.7571 -0.0383 0.8349
C3 C 0.69270(11) 0.01915(10) 0.90795(8)
C4 C 0.60728(11) 0.05927(10) 0.85133(9)
H5 H 0.5815 0.0151 0.8138
H6 H 0.5568 0.0737 0.8748
C5 C 0.63269(11) 0.14134(10) 0.81586(9)
H7 H 0.5769 0.1619 0.7781
H8 H 0.6523 0.1883 0.8520
C6 C 0.78107(11) 0.28044(10) 0.76298(8)
C7 C 0.87918(12) 0.28906(11) 0.78059(9)
H9 H 0.9173 0.2440 0.7691
C8 C 0.92070(12) 0.36438(12) 0.81521(10)
H10 H 0.9877 0.3712 0.8274
C9 C 0.86455(13) 0.42961(12) 0.83196(9)
H11 H 0.8933 0.4811 0.8554
C10 C 0.76664(13) 0.42036(11) 0.81477(9)
H12 H 0.7286 0.4653 0.8266
C11 C 0.72454(11) 0.34543(11) 0.78037(8)
H13 H 0.6576 0.3385 0.7687
C12 C 0.72332(11) 0.08170(10) 0.97287(8)
C13 C 0.81579(11) 0.06806(10) 1.02835(8)
C14 C 0.86592(11) 0.14264(10) 1.05902(9)
H14 H 0.8428 0.1988 1.0421
C15 C 0.94867(12) 0.13527(11) 1.11374(9)
H15 H 0.9844 0.1855 1.1333
C16 C 0.97782(11) 0.05299(11) 1.13902(9)
C17 C 0.93165(12) -0.02209(11) 1.10986(9)
H16 H 0.9547 -0.0778 1.1280
C18 C 0.85067(11) -0.01427(10) 1.05340(9)
H17 H 0.8186 -0.0653 1.0315
C19 C 0.66040(11) -0.06758(10) 0.93373(8)
C20 C 0.59940(11) -0.06602(10) 0.97838(9)
H18 H 0.5813 -0.0114 0.9939
C21 C 0.56470(12) -0.14253(11) 1.00049(9)
H19 H 0.5236 -0.1410 1.0311
C22 C 0.59166(12) -0.22072(11) 0.97672(9)
C23 C 0.65169(12) -0.22562(10) 0.93311(9)
H20 H 0.6690 -0.2806 0.9176
C24 C 0.68660(11) -0.14837(10) 0.91213(8)
H21 H 0.7290 -0.1508 0.8826
F1 F 1.05643(7) 0.04541(7) 1.19531(5)
F2 F 0.55762(8) -0.29615(7) 0.99725(6)
N1 N 0.71106(9) 0.12040(9) 0.78414(7)
O1 O 0.63416(9) 0.20619(8) 0.67639(6)
O2 O 0.79334(9) 0.14206(8) 0.68941(7)
O3 O 0.67346(8) 0.14307(7) 0.97913(6)
S1 S 0.72672(3) 0.18446(3) 0.72050(2)
loop_
_geom_bond_atom_site_label_1
_geom_bond_atom_site_label_2
_geom_bond_site_symmetry_1
_geom_bond_site_symmetry_2
C1 H1 1_555 1_555
H2 C1 1_555 1_555
C2 C1 1_555 1_555
H3 C2 1_555 1_555
H4 C2 1_555 1_555
C3 C2 1_555 1_555
C4 C3 1_555 1_555
H5 C4 1_555 1_555
H6 C4 1_555 1_555
C5 C4 1_555 1_555
H7 C5 1_555 1_555
H8 C5 1_555 1_555
C6 C7 1_555 1_555
C7 H9 1_555 1_555
C8 C7 1_555 1_555
H10 C8 1_555 1_555
C9 C8 1_555 1_555
H11 C9 1_555 1_555
C10 C9 1_555 1_555
H12 C10 1_555 1_555
C11 C6 1_555 1_555
H13 C11 1_555 1_555
C12 C3 1_555 1_555
C13 C12 1_555 1_555
C14 C13 1_555 1_555
H14 C14 1_555 1_555
C15 C14 1_555 1_555
H15 C15 1_555 1_555
C16 C15 1_555 1_555
C17 C16 1_555 1_555
H16 C17 1_555 1_555
C18 C13 1_555 1_555
H17 C18 1_555 1_555
C19 C3 1_555 1_555
C20 C19 1_555 1_555
H18 C20 1_555 1_555
C21 C20 1_555 1_555
H19 C21 1_555 1_555
C22 C21 1_555 1_555
C23 C22 1_555 1_555
H20 C23 1_555 1_555
C24 C19 1_555 1_555
H21 C24 1_555 1_555
F1 C16 1_555 1_555
F2 C22 1_555 1_555
N1 C1 1_555 1_555
O1 S1 1_555 1_555
O2 S1 1_555 1_555
O3 C12 1_555 1_555
S1 C6 1_555 1_555
C5 N1 1_555 1_555
C10 C11 1_555 1_555
C17 C18 1_555 1_555
C23 C24 1_555 1_555
N1 S1 1_555 1_555

#END
