
#######################################################################
#
#                 Cambridge Crystallographic Data Centre
#                                CCDC 
#
#######################################################################
#
# If this CIF has been generated from an entry in the Cambridge 
# Structural Database, then it will include bibliographic, chemical, 
# crystal, experimental, refinement or atomic coordinate data resulting 
# from the CCDC's data processing and validation procedures.
#
#######################################################################

data_VAFTIH
_chemical_formula_moiety         'C25 H26 F1 N1 O3 S1'
_chemical_name_systematic        
4-Fluoro-4-(methoxy(diphenyl)methyl)-1-(phenylsulfonyl)piperidine
_symmetry_cell_setting           monoclinic
_symmetry_space_group_name_H-M   'C 2/c'
_symmetry_Int_Tables_number      15
_space_group_name_Hall           '-C 2yn'
loop_
_symmetry_equiv_pos_site_id
_symmetry_equiv_pos_as_xyz
1 x,y,z
2 -x,y,1/2-z
3 1/2+x,1/2+y,z
4 1/2-x,1/2+y,1/2-z
5 -x,-y,-z
6 x,-y,1/2+z
7 1/2-x,1/2-y,-z
8 1/2+x,1/2-y,1/2+z
_cell_length_a                   25.2233(12)
_cell_length_b                   11.1126(6)
_cell_length_c                   16.4287(8)
_cell_angle_alpha                90
_cell_angle_beta                 100.7310(10)
_cell_angle_gamma                90
_cell_volume                     4524.38
_exptl_crystal_colour            colorless
_cell_formula_units_Z            8
loop_
_atom_site_label
_atom_site_type_symbol
_atom_site_fract_x
_atom_site_fract_y
_atom_site_fract_z
C1 C 0.13049(7) 0.49694(16) 0.16218(12)
H1 H 0.1347 0.5777 0.1419
H2 H 0.1164 0.5028 0.2131
C2 C 0.09176(7) 0.42483(15) 0.09773(11)
H3 H 0.0567 0.4637 0.0877
H4 H 0.1051 0.4242 0.0460
C3 C 0.08566(6) 0.29593(15) 0.12586(10)
C4 C 0.14102(7) 0.23708(16) 0.14837(11)
H5 H 0.1372 0.1579 0.1714
H6 H 0.1562 0.2272 0.0987
C5 C 0.17923(7) 0.31245(16) 0.21104(11)
H7 H 0.1660 0.3165 0.2627
H8 H 0.2147 0.2756 0.2220
C6 C 0.04487(6) 0.21637(15) 0.06557(10)
C7 C 0.02842(10) 0.0615(2) 0.16433(13)
H9 H 0.0517 0.0916 0.2130
H10 H 0.0260 -0.0245 0.1678
H11 H -0.0068 0.0961 0.1604
C8 C -0.01491(6) 0.25392(17) 0.05416(11)
C9 C -0.03633(8) 0.3424(2) 0.09760(13)
H12 H -0.0136 0.3868 0.1378
C10 C -0.09159(9) 0.3659(2) 0.08178(16)
H13 H -0.1053 0.4262 0.1112
C11 C -0.12592(8) 0.3012(2) 0.02335(18)
H14 H -0.1627 0.3176 0.0127
C12 C -0.10523(8) 0.2118(2) -0.01909(17)
H15 H -0.1282 0.1671 -0.0586
C13 C -0.05055(7) 0.1876(2) -0.00380(14)
H16 H -0.0373 0.1260 -0.0327
C14 C 0.06169(6) 0.21385(16) -0.01990(10)
C15 C 0.04426(8) 0.3021(2) -0.07874(11)
H17 H 0.0233 0.3656 -0.0658
C16 C 0.05788(10) 0.2963(3) -0.15676(13)
H18 H 0.0463 0.3565 -0.1953
C17 C 0.08809(11) 0.2030(3) -0.17754(16)
H19 H 0.0963 0.1986 -0.2303
C18 C 0.10611(10) 0.1162(3) -0.11997(17)
H20 H 0.1271 0.0533 -0.1336
C19 C 0.09339(8) 0.12089(19) -0.04143(13)
H21 H 0.1061 0.0615 -0.0029
C20 C 0.23619(6) 0.53305(16) 0.32205(10)
C21 C 0.26084(7) 0.44887(19) 0.37875(12)
H22 H 0.2780 0.3821 0.3614
C22 C 0.25957(9) 0.4658(2) 0.46161(13)
H23 H 0.2763 0.4105 0.5005
C23 C 0.23377(9) 0.5636(2) 0.48677(12)
H24 H 0.2334 0.5747 0.5428
C24 C 0.20846(9) 0.6452(2) 0.43005(12)
H25 H 0.1903 0.7103 0.4476
C25 C 0.20972(7) 0.63118(17) 0.34703(11)
H26 H 0.1930 0.6870 0.3085
F1 F 0.06614(4) 0.30365(11) 0.20175(6)
N1 N 0.18286(5) 0.43445(13) 0.17759(8)
O1 O 0.04984(5) 0.09332(11) 0.09261(8)
O2 O 0.28210(5) 0.43829(16) 0.20954(9)
O3 O 0.23059(6) 0.62716(14) 0.17554(8)
S1 S 0.236699(18) 0.51233(5) 0.21576(3)
loop_
_geom_bond_atom_site_label_1
_geom_bond_atom_site_label_2
_geom_bond_site_symmetry_1
_geom_bond_site_symmetry_2
C1 H1 1_555 1_555
H2 C1 1_555 1_555
C2 C1 1_555 1_555
H3 C2 1_555 1_555
H4 C2 1_555 1_555
C3 C2 1_555 1_555
C4 C3 1_555 1_555
H5 C4 1_555 1_555
H6 C4 1_555 1_555
C5 C4 1_555 1_555
H7 C5 1_555 1_555
H8 C5 1_555 1_555
C6 C3 1_555 1_555
C7 H9 1_555 1_555
H10 C7 1_555 1_555
H11 C7 1_555 1_555
C8 C6 1_555 1_555
C9 C8 1_555 1_555
H12 C9 1_555 1_555
C10 C9 1_555 1_555
H13 C10 1_555 1_555
C11 C10 1_555 1_555
H14 C11 1_555 1_555
C12 C11 1_555 1_555
H15 C12 1_555 1_555
C13 C8 1_555 1_555
H16 C13 1_555 1_555
C14 C6 1_555 1_555
C15 C14 1_555 1_555
H17 C15 1_555 1_555
C16 C15 1_555 1_555
H18 C16 1_555 1_555
C17 C16 1_555 1_555
H19 C17 1_555 1_555
C18 C17 1_555 1_555
H20 C18 1_555 1_555
C19 C14 1_555 1_555
H21 C19 1_555 1_555
C20 C21 1_555 1_555
C21 H22 1_555 1_555
C22 C21 1_555 1_555
H23 C22 1_555 1_555
C23 C22 1_555 1_555
H24 C23 1_555 1_555
C24 C23 1_555 1_555
H25 C24 1_555 1_555
C25 C20 1_555 1_555
H26 C25 1_555 1_555
F1 C3 1_555 1_555
N1 C1 1_555 1_555
O1 C6 1_555 1_555
O2 S1 1_555 1_555
O3 S1 1_555 1_555
S1 C20 1_555 1_555
C5 N1 1_555 1_555
C7 O1 1_555 1_555
C12 C13 1_555 1_555
C18 C19 1_555 1_555
C24 C25 1_555 1_555
N1 S1 1_555 1_555

#END
