
#######################################################################
#
#                 Cambridge Crystallographic Data Centre
#                                CCDC 
#
#######################################################################
#
# If this CIF has been generated from an entry in the Cambridge 
# Structural Database, then it will include bibliographic, chemical, 
# crystal, experimental, refinement or atomic coordinate data resulting 
# from the CCDC's data processing and validation procedures.
#
#######################################################################

data_VAGCOY
_chemical_formula_moiety         'C28 H29 Cl1 F1 N5 O1'
_chemical_name_systematic        
2-chloro-N-(4-(2-(4-(2-fluorobenzyl)piperazin-1-yl)ethoxy)phenyl)-N-methylquinazolin-4-amine
_chemical_properties_biological  'antiproliferative activity'
_symmetry_cell_setting           monoclinic
_symmetry_space_group_name_H-M   'P 21/c'
_symmetry_Int_Tables_number      14
_space_group_name_Hall           '-P 2ybc'
loop_
_symmetry_equiv_pos_site_id
_symmetry_equiv_pos_as_xyz
1 x,y,z
2 -x,1/2+y,1/2-z
3 -x,-y,-z
4 x,1/2-y,1/2+z
_cell_length_a                   17.2119(9)
_cell_length_b                   16.8297(5)
_cell_length_c                   9.3149(4)
_cell_angle_alpha                90
_cell_angle_beta                 94.403(4)
_cell_angle_gamma                90
_cell_volume                     2690.29
_exptl_crystal_colour            white
_exptl_crystal_description       monoclinic
_chemical_melting_point          '335.1-336.5 K'
_cell_formula_units_Z            4
_chemical_properties_physical    'Heat-sensitive, Oxygen-sensitive'
loop_
_atom_site_label
_atom_site_type_symbol
_atom_site_fract_x
_atom_site_fract_y
_atom_site_fract_z
C1 C 0.7428(5) 0.8598(7) 0.2897(13)
H1 H 0.7619(5) 0.8184(7) 0.2362(13)
C2 C 0.7305(5) 0.9337(8) 0.2323(8)
H2 H 0.7399(5) 0.9429(8) 0.1367(8)
C3 C 0.7047(4) 0.9942(5) 0.3135(9)
H3 H 0.6969(4) 1.0444(5) 0.2733(9)
C4 C 0.6903(3) 0.9814(4) 0.4529(6)
H4 H 0.6729(3) 1.0230(4) 0.5078(6)
C5 C 0.7013(3) 0.9074(3) 0.5132(6)
C6 C 0.7256(4) 0.8492(4) 0.4304(10)
C7 C 0.6967(3) 0.8971(4) 0.6731(7)
H5 H 0.7217(3) 0.8474(4) 0.7025(7)
H6 H 0.7255(3) 0.9397(4) 0.7229(7)
C8 C 0.6177(3) 0.8938(5) 0.8730(6)
H7 H 0.6464(3) 0.9391(5) 0.9137(6)
H8 H 0.6444(3) 0.8459(5) 0.9076(6)
C9 C 0.5375(3) 0.8945(4) 0.9212(6)
H9 H 0.5402(3) 0.8896(4) 1.0252(6)
H10 H 0.5132(3) 0.9451(4) 0.8958(6)
C10 C 0.4870(3) 0.8367(3) 0.7058(5)
H11 H 0.4615(3) 0.8858(3) 0.6747(5)
H12 H 0.4566(3) 0.7929(3) 0.6634(5)
C11 C 0.5680(3) 0.8345(4) 0.6539(7)
H13 H 0.5917(3) 0.7835(4) 0.6779(7)
H14 H 0.5646(3) 0.8401(4) 0.5500(7)
C12 C 0.4146(2) 0.8278(3) 0.9170(5)
H15 H 0.3870(2) 0.8771(3) 0.8951(5)
H16 H 0.4224(2) 0.8233(3) 1.0209(5)
C13 C 0.3654(2) 0.7601(3) 0.8604(4)
H17 H 0.3426(2) 0.7721(3) 0.7644(4)
H18 H 0.3967(2) 0.7124(3) 0.8558(4)
C14 C 0.25029(19) 0.69284(19) 0.9235(3)
C15 C 0.1989(2) 0.6792(2) 1.0294(4)
H19 H 0.2039(2) 0.7081(2) 1.1147(4)
C16 C 0.1409(2) 0.6233(2) 1.0083(4)
H20 H 0.1073(2) 0.6138(2) 1.0800(4)
C17 C 0.13239(18) 0.58107(18) 0.8800(3)
C18 C 0.18337(19) 0.59374(19) 0.7753(3)
H21 H 0.17804(19) 0.56469(19) 0.6902(3)
C19 C 0.2424(2) 0.64931(19) 0.7957(3)
H22 H 0.2767(2) 0.65760(19) 0.7246(3)
C20 C 0.0926(2) 0.4456(2) 0.9331(4)
H23 H 0.1152(14) 0.4106(6) 0.8663(9)
H24 H 0.1294(11) 0.4549(3) 1.0141(17)
H25 H 0.0464(3) 0.4217(7) 0.965(2)
C21 C 0.01249(18) 0.52381(17) 0.7594(3)
C22 C -0.08040(19) 0.45509(19) 0.6263(3)
C23 C -0.01580(18) 0.59554(18) 0.6873(3)
C24 C -0.0744(2) 0.58437(19) 0.5750(3)
C25 C -0.1037(2) 0.6501(2) 0.4942(4)
H26 H -0.1404(2) 0.6425(2) 0.4168(4)
C26 C -0.0783(2) 0.7251(2) 0.5297(4)
H27 H -0.0972(2) 0.7682(2) 0.4752(4)
C27 C -0.0242(2) 0.7374(2) 0.6470(4)
H28 H -0.0092(2) 0.7888(2) 0.6732(4)
C28 C 0.0066(2) 0.67442(19) 0.7231(4)
H29 H 0.0432(2) 0.68338(19) 0.8002(4)
Cl1 Cl -0.12477(6) 0.36151(5) 0.59859(10)
F1 F 0.7370(3) 0.7770(3) 0.4809(7)
N1 N 0.6163(2) 0.8968(3) 0.7176(4)
N2 N 0.4895(2) 0.8312(2) 0.8581(4)
N3 N 0.07247(15) 0.52114(15) 0.8620(3)
N4 N -0.02299(16) 0.45435(15) 0.7314(3)
N5 N -0.10697(17) 0.51059(17) 0.5417(3)
O1 O 0.30570(15) 0.74886(15) 0.9567(3)
H30? H 0.5940(2) 0.9438(3) 0.6891(4)
loop_
_geom_bond_atom_site_label_1
_geom_bond_atom_site_label_2
_geom_bond_site_symmetry_1
_geom_bond_site_symmetry_2
C1 H1 1_555 1_555
C2 C1 1_555 1_555
H2 C2 1_555 1_555
C3 C2 1_555 1_555
H3 C3 1_555 1_555
C4 C3 1_555 1_555
H4 C4 1_555 1_555
C5 C4 1_555 1_555
C6 C1 1_555 1_555
C7 C5 1_555 1_555
H5 C7 1_555 1_555
H6 C7 1_555 1_555
C8 H7 1_555 1_555
H8 C8 1_555 1_555
C9 C8 1_555 1_555
H9 C9 1_555 1_555
H10 C9 1_555 1_555
C10 H11 1_555 1_555
H12 C10 1_555 1_555
C11 C10 1_555 1_555
H13 C11 1_555 1_555
H14 C11 1_555 1_555
C12 H15 1_555 1_555
H16 C12 1_555 1_555
C13 C12 1_555 1_555
H17 C13 1_555 1_555
H18 C13 1_555 1_555
C14 C15 1_555 1_555
C15 H19 1_555 1_555
C16 C15 1_555 1_555
H20 C16 1_555 1_555
C17 C16 1_555 1_555
C18 C17 1_555 1_555
H21 C18 1_555 1_555
C19 C14 1_555 1_555
H22 C19 1_555 1_555
C20 H23 1_555 1_555
H24 C20 1_555 1_555
H25 C20 1_555 1_555
C21 C23 1_555 1_555
C22 Cl1 1_555 1_555
C23 C24 1_555 1_555
C24 C25 1_555 1_555
C25 H26 1_555 1_555
C26 C25 1_555 1_555
H27 C26 1_555 1_555
C27 C26 1_555 1_555
H28 C27 1_555 1_555
C28 C23 1_555 1_555
H29 C28 1_555 1_555
F1 C6 1_555 1_555
N1 C7 1_555 1_555
N2 C9 1_555 1_555
N3 C17 1_555 1_555
N4 C21 1_555 1_555
N5 C22 1_555 1_555
O1 C13 1_555 1_555
C5 C6 1_555 1_555
C8 N1 1_555 1_555
C10 N2 1_555 1_555
C11 N1 1_555 1_555
C12 N2 1_555 1_555
C14 O1 1_555 1_555
C18 C19 1_555 1_555
C20 N3 1_555 1_555
C21 N3 1_555 1_555
C22 N4 1_555 1_555
C24 N5 1_555 1_555
C27 C28 1_555 1_555

#END
