
#######################################################################
#
#                 Cambridge Crystallographic Data Centre
#                                CCDC 
#
#######################################################################
#
# If this CIF has been generated from an entry in the Cambridge 
# Structural Database, then it will include bibliographic, chemical, 
# crystal, experimental, refinement or atomic coordinate data resulting 
# from the CCDC's data processing and validation procedures.
#
#######################################################################

data_VAGGOC
_chemical_formula_moiety         'C21 H26 O3 Se1'
_chemical_name_systematic        
1,3,5-trimethoxy-2-(2-(phenylselanyl)cyclohexyl)benzene
_symmetry_cell_setting           monoclinic
_symmetry_space_group_name_H-M   'P 21/c'
_symmetry_Int_Tables_number      14
_space_group_name_Hall           '-P 2ybc'
loop_
_symmetry_equiv_pos_site_id
_symmetry_equiv_pos_as_xyz
1 x,y,z
2 -x,1/2+y,1/2-z
3 -x,-y,-z
4 x,1/2-y,1/2+z
_cell_length_a                   7.4940(8)
_cell_length_b                   15.0837(17)
_cell_length_c                   17.3328(19)
_cell_angle_alpha                90
_cell_angle_beta                 100.8840(10)
_cell_angle_gamma                90
_cell_volume                     1924.01
_exptl_crystal_colour            colorless
_exptl_crystal_description       block
_cell_formula_units_Z            4
loop_
_atom_site_label
_atom_site_type_symbol
_atom_site_fract_x
_atom_site_fract_y
_atom_site_fract_z
O1 O 0.2601(3) 1.06227(10) 0.33774(10)
O2 O 0.1834(3) 0.88904(12) 0.56503(10)
O3 O 0.0331(2) 0.77217(10) 0.30631(10)
Se1 Se 0.50823(4) 0.851289(19) 0.245621(18)
C1 C 0.2166(3) 0.98580(15) 0.37311(14)
C2 C 0.2313(3) 0.97961(16) 0.45464(14)
H1 H 0.2769 1.0267 0.4871
C3 C 0.1770(3) 0.90242(16) 0.48587(14)
C4 C 0.1100(3) 0.83220(16) 0.43770(15)
H2 H 0.0717 0.7807 0.4591
C5 C 0.1005(3) 0.83913(14) 0.35757(14)
C6 C 0.1563(3) 0.91554(14) 0.32248(13)
C7 C 0.1438(3) 0.92452(15) 0.23426(13)
H3 H 0.2011 0.9812 0.2259
C8 C -0.0532(4) 0.93097(18) 0.19087(15)
H4 H -0.1167 0.8770 0.1996
H5 H -0.1121 0.9799 0.2124
C9 C -0.0684(5) 0.94491(19) 0.10309(15)
H6 H -0.1954 0.9448 0.0778
H7 H -0.0173 1.0021 0.0937
C10 C 0.0313(5) 0.87257(19) 0.06829(16)
H8 H 0.0247 0.8840 0.0128
H9 H -0.0274 0.8161 0.0734
C11 C 0.2285(4) 0.86717(18) 0.10865(16)
H10 H 0.2901 0.9216 0.0993
H11 H 0.2868 0.8186 0.0864
C12 C 0.2466(3) 0.85306(15) 0.19678(14)
H12 H 0.1943 0.7952 0.2053
C13 C 0.2394(4) 0.9618(2) 0.61661(15)
H13 H 0.3638 0.9761 0.6156
H14 H 0.2280 0.9459 0.6691
H15 H 0.1641 1.0123 0.5998
C14 C 0.2864(5) 1.14134(16) 0.38359(18)
H16 H 0.1826 1.1512 0.4076
H17 H 0.3010 1.1907 0.3504
H18 H 0.3931 1.1354 0.4237
C15 C -0.0005(4) 0.68810(16) 0.33729(16)
H19 H 0.1085 0.6668 0.3704
H20 H -0.0377 0.6471 0.2950
H21 H -0.0949 0.6934 0.3675
C16 C 0.5109(3) 0.75614(16) 0.31935(16)
C17 C 0.5485(4) 0.77135(19) 0.39969(17)
H22 H 0.5690 0.8288 0.4187
C18 C 0.5557(5) 0.7021(2) 0.45117(19)
H23 H 0.5820 0.7128 0.5050
C19 C 0.5246(5) 0.6171(2) 0.4242(2)
H24 H 0.5297 0.5704 0.4596
C20 C 0.4858(4) 0.60098(19) 0.3447(2)
H25 H 0.4631 0.5434 0.3262
C21 C 0.4805(4) 0.67004(18) 0.29242(18)
H26 H 0.4564 0.6588 0.2387
loop_
_geom_bond_atom_site_label_1
_geom_bond_atom_site_label_2
_geom_bond_site_symmetry_1
_geom_bond_site_symmetry_2
O1 C1 1_555 1_555
O2 C3 1_555 1_555
O3 C5 1_555 1_555
Se1 C12 1_555 1_555
C1 C2 1_555 1_555
C2 H1 1_555 1_555
C3 C2 1_555 1_555
C4 C3 1_555 1_555
H2 C4 1_555 1_555
C5 C4 1_555 1_555
C6 C1 1_555 1_555
C7 C6 1_555 1_555
H3 C7 1_555 1_555
C8 C7 1_555 1_555
H4 C8 1_555 1_555
H5 C8 1_555 1_555
C9 C8 1_555 1_555
H6 C9 1_555 1_555
H7 C9 1_555 1_555
C10 C9 1_555 1_555
H8 C10 1_555 1_555
H9 C10 1_555 1_555
C11 C10 1_555 1_555
H10 C11 1_555 1_555
H11 C11 1_555 1_555
C12 C7 1_555 1_555
H12 C12 1_555 1_555
C13 O2 1_555 1_555
H13 C13 1_555 1_555
H14 C13 1_555 1_555
H15 C13 1_555 1_555
C14 O1 1_555 1_555
H16 C14 1_555 1_555
H17 C14 1_555 1_555
H18 C14 1_555 1_555
C15 O3 1_555 1_555
H19 C15 1_555 1_555
H20 C15 1_555 1_555
H21 C15 1_555 1_555
C16 Se1 1_555 1_555
C17 C16 1_555 1_555
H22 C17 1_555 1_555
C18 C17 1_555 1_555
H23 C18 1_555 1_555
C19 C18 1_555 1_555
H24 C19 1_555 1_555
C20 C19 1_555 1_555
H25 C20 1_555 1_555
C21 C16 1_555 1_555
H26 C21 1_555 1_555
C5 C6 1_555 1_555
C11 C12 1_555 1_555
C20 C21 1_555 1_555

#END
