
#######################################################################
#
#                 Cambridge Crystallographic Data Centre
#                                CCDC 
#
#######################################################################
#
# If this CIF has been generated from an entry in the Cambridge 
# Structural Database, then it will include bibliographic, chemical, 
# crystal, experimental, refinement or atomic coordinate data resulting 
# from the CCDC's data processing and validation procedures.
#
#######################################################################

data_VAGNEX02
_chemical_formula_moiety         'C15 H12 O2'
_chemical_name_systematic        3-(4-Hydroxyphenyl)-1-phenylprop-2-en-1-one
_symmetry_cell_setting           orthorhombic
_symmetry_space_group_name_H-M   'P 21 21 21'
_symmetry_Int_Tables_number      19
_space_group_name_Hall           'P 2ac 2ab'
loop_
_symmetry_equiv_pos_site_id
_symmetry_equiv_pos_as_xyz
1 x,y,z
2 1/2-x,-y,1/2+z
3 -x,1/2+y,1/2-z
4 1/2+x,1/2-y,-z
_cell_length_a                   5.3796(6)
_cell_length_b                   12.9543(14)
_cell_length_c                   17.1522(18)
_cell_angle_alpha                90
_cell_angle_beta                 90
_cell_angle_gamma                90
_cell_volume                     1195.32
_exptl_crystal_colour            green
_exptl_crystal_description       prismatic
_cell_formula_units_Z            4
loop_
_atom_site_label
_atom_site_type_symbol
_atom_site_fract_x
_atom_site_fract_y
_atom_site_fract_z
O1 O 0.3574(3) 0.93283(14) 0.33205(10)
O2 O 0.7898(4) 0.92458(14) -0.13996(11)
C1 C 0.2637(4) 0.86726(15) 0.28925(12)
C2 C 0.3379(4) 0.85688(16) 0.20755(13)
H1 H 0.2450 0.8134 0.1757
C3 C 0.5295(4) 0.90581(15) 0.17642(13)
H2 H 0.6277 0.9440 0.2105
C4 C 0.6037(4) 0.90658(15) 0.09492(13)
C5 C 0.4674(4) 0.85697(15) 0.03662(14)
H3 H 0.3292 0.8180 0.0506
C6 C 0.5309(5) 0.86391(15) -0.04045(14)
H4 H 0.4351 0.8307 -0.0780
C7 C 0.7380(5) 0.92038(15) -0.06257(13)
C8 C 0.8775(4) 0.96939(16) -0.00680(13)
H5 H 1.0171 1.0071 -0.0213
C9 C 0.8111(4) 0.96276(16) 0.07076(14)
H6 H 0.9070 0.9966 0.1079
C10 C 0.0620(4) 0.80034(14) 0.32030(12)
C11 C -0.0279(5) 0.71467(16) 0.28062(13)
H7 H 0.0404 0.6965 0.2327
C12 C -0.2184(5) 0.65626(18) 0.31187(15)
H8 H -0.2783 0.5993 0.2847
C13 C -0.3193(5) 0.68170(18) 0.38261(15)
H9 H -0.4480 0.6424 0.4033
C14 C -0.2297(5) 0.76564(19) 0.42302(14)
H10 H -0.2965 0.7828 0.4713
C15 C -0.0407(5) 0.82410(17) 0.39171(13)
H11 H 0.0188 0.8808 0.4193
H12 H 0.895(6) 0.972(2) -0.1492(15)
loop_
_geom_bond_atom_site_label_1
_geom_bond_atom_site_label_2
_geom_bond_site_symmetry_1
_geom_bond_site_symmetry_2
O1 C1 1_555 1_555
O2 C7 1_555 1_555
C1 C2 1_555 1_555
C2 H1 1_555 1_555
C3 C2 1_555 1_555
H2 C3 1_555 1_555
C4 C3 1_555 1_555
C5 C4 1_555 1_555
H3 C5 1_555 1_555
C6 C5 1_555 1_555
H4 C6 1_555 1_555
C7 C6 1_555 1_555
C8 C7 1_555 1_555
H5 C8 1_555 1_555
C9 C4 1_555 1_555
H6 C9 1_555 1_555
C10 C1 1_555 1_555
C11 C10 1_555 1_555
H7 C11 1_555 1_555
C12 C11 1_555 1_555
H8 C12 1_555 1_555
C13 C12 1_555 1_555
H9 C13 1_555 1_555
C14 C13 1_555 1_555
H10 C14 1_555 1_555
C15 C10 1_555 1_555
H11 C15 1_555 1_555
H12 O2 1_555 1_555
C8 C9 1_555 1_555
C14 C15 1_555 1_555

#END
