
#######################################################################
#
#                 Cambridge Crystallographic Data Centre
#                                CCDC 
#
#######################################################################
#
# If this CIF has been generated from an entry in the Cambridge 
# Structural Database, then it will include bibliographic, chemical, 
# crystal, experimental, refinement or atomic coordinate data resulting 
# from the CCDC's data processing and validation procedures.
#
#######################################################################

data_VAGQAW
_chemical_formula_moiety         'C10 H8 N2 O2,2(H2 O1)'
_chemical_name_systematic        "2,2'-Bipyridine-1,1'-dioxide dihydrate"
_symmetry_cell_setting           orthorhombic
_symmetry_space_group_name_H-M   'P b c n'
_symmetry_Int_Tables_number      60
_space_group_name_Hall           '-P 2n 2ab'
loop_
_symmetry_equiv_pos_site_id
_symmetry_equiv_pos_as_xyz
1 x,y,z
2 1/2-x,1/2-y,1/2+z
3 -x,y,1/2-z
4 1/2+x,1/2-y,-z
5 -x,-y,-z
6 1/2+x,1/2+y,1/2-z
7 x,-y,1/2+z
8 1/2-x,1/2+y,z
_cell_length_a                   16.006(9)
_cell_length_b                   5.308(4)
_cell_length_c                   12.766(5)
_cell_angle_alpha                90
_cell_angle_beta                 90
_cell_angle_gamma                90
_cell_volume                     1084.6
_exptl_crystal_colour            colorless
_exptl_crystal_description       block
_cell_formula_units_Z            4
_exptl_crystal_recrystallization_method nitromethane/water
loop_
_atom_site_label
_atom_site_type_symbol
_atom_site_fract_x
_atom_site_fract_y
_atom_site_fract_z
O1 O 0.04064(9) 0.1280(3) 0.86036(12)
N1 N -0.02086(11) 0.2947(4) 0.86872(13)
C1 C -0.07467(15) 0.2821(5) 0.95249(17)
H1 H -0.0684 0.1503 1.0034
C2 C -0.13766(14) 0.4603(6) 0.96342(18)
H2 H -0.1755 0.4498 1.0216
C3 C -0.14654(15) 0.6527(5) 0.8912(2)
H3 H -0.1892 0.7783 0.8994
C4 C -0.09184(14) 0.6623(5) 0.8061(2)
H4 H -0.0967 0.7944 0.7551
C5 C -0.03044(12) 0.4795(4) 0.79429(16)
C5B C 0.03044(12) 0.4795(4) 0.70571(16)
N1B N 0.02086(11) 0.2947(4) 0.63128(13)
O1B O -0.04064(9) 0.1280(3) 0.63964(12)
C1B C 0.07467(15) 0.2821(5) 0.54751(17)
H1B H 0.0684 0.1503 0.4966
C2B C 0.13766(14) 0.4603(6) 0.53658(18)
H2B H 0.1755 0.4498 0.4784
C3B C 0.14654(15) 0.6527(5) 0.6088(2)
H3B H 0.1892 0.7783 0.6006
C4B C 0.09184(14) 0.6623(5) 0.6939(2)
H4B H 0.0967 0.7944 0.7449
O2 O 0.21399(11) 0.1453(4) 0.8212(2)
H5 H 0.1691 0.1632 0.8362
H6 H 0.2311 0.2891 0.8195
loop_
_geom_bond_atom_site_label_1
_geom_bond_atom_site_label_2
_geom_bond_site_symmetry_1
_geom_bond_site_symmetry_2
O1 N1 1_555 1_555
N1 C1 1_555 1_555
C1 H1 1_555 1_555
C2 C1 1_555 1_555
H2 C2 1_555 1_555
C3 C2 1_555 1_555
H3 C3 1_555 1_555
C4 C3 1_555 1_555
H4 C4 1_555 1_555
C5 N1 1_555 1_555
O2 H5 1_555 1_555
H6 O2 1_555 1_555
C5B C5 1_555 1_555
N1B C5B 1_555 1_555
O1B N1B 1_555 1_555
C1B N1B 1_555 1_555
H1B C1B 1_555 1_555
C2B C1B 1_555 1_555
H2B C2B 1_555 1_555
C3B C2B 1_555 1_555
H3B C3B 1_555 1_555
C4B C5B 1_555 1_555
H4B C4B 1_555 1_555
C4 C5 1_555 1_555
C3B C4B 1_555 1_555

#END
