
#######################################################################
#
#                 Cambridge Crystallographic Data Centre
#                                CCDC 
#
#######################################################################
#
# If this CIF has been generated from an entry in the Cambridge 
# Structural Database, then it will include bibliographic, chemical, 
# crystal, experimental, refinement or atomic coordinate data resulting 
# from the CCDC's data processing and validation procedures.
#
#######################################################################

data_VAGSED
_chemical_formula_moiety         'C36 H32 O7'
_chemical_name_systematic        
'Dimethyl 7-(3,4-dimethoxyphenyl)-1,9-diphenyl-5,9-dihydro-2-oxabenzo[cd]azulene-4,4(3H)-dicarboxylate'
_symmetry_cell_setting           monoclinic
_symmetry_space_group_name_H-M   'P 21/c'
_symmetry_Int_Tables_number      14
_space_group_name_Hall           '-P 2ybc'
loop_
_symmetry_equiv_pos_site_id
_symmetry_equiv_pos_as_xyz
1 x,y,z
2 -x,1/2+y,1/2-z
3 -x,-y,-z
4 x,1/2-y,1/2+z
_cell_length_a                   19.1051(14)
_cell_length_b                   17.2655(13)
_cell_length_c                   9.1572(7)
_cell_angle_alpha                90
_cell_angle_beta                 103.382(3)
_cell_angle_gamma                90
_cell_volume                     2938.57
_exptl_crystal_colour            yellow
_exptl_crystal_description       block
_cell_formula_units_Z            4
loop_
_atom_site_label
_atom_site_type_symbol
_atom_site_fract_x
_atom_site_fract_y
_atom_site_fract_z
O1 O 0.30814(12) 0.58375(13) 0.5969(3)
O2 O 0.1489(2) 0.62850(15) -0.0467(3)
O3 O 0.22912(19) 0.70958(17) 0.0765(3)
O4 O 0.10290(15) 0.51183(16) 0.1704(3)
O5 O 0.10353(17) 0.62054(17) 0.2970(4)
O6 O 0.03816(15) 0.19926(16) -0.0013(3)
O7 O 0.08208(14) 0.06063(15) 0.0784(3)
C1 C 0.44278(19) 0.3962(2) 0.4753(4)
H1 H 0.4197 0.4402 0.4289
C2 C 0.5097(2) 0.3762(2) 0.4534(4)
H2 H 0.5311 0.4069 0.3926
C3 C 0.5446(2) 0.3118(3) 0.5205(5)
H3 H 0.5895 0.2983 0.5051
C4 C 0.5123(2) 0.2673(3) 0.6109(5)
H4 H 0.5355 0.2233 0.6568
C5 C 0.4463(2) 0.2875(2) 0.6339(5)
H5 H 0.4256 0.2575 0.6970
C6 C 0.41000(18) 0.35179(19) 0.5647(4)
C7 C 0.3654(2) 0.5942(2) 0.8979(4)
H6 H 0.3442 0.6367 0.8423
C8 C 0.3986(2) 0.6032(3) 1.0479(5)
H7 H 0.4003 0.6520 1.0915
C9 C 0.4288(2) 0.5419(3) 1.1331(5)
H8 H 0.4508 0.5484 1.2341
C10 C 0.4264(2) 0.4707(3) 1.0677(4)
H9 H 0.4459 0.4283 1.1256
C11 C 0.3954(2) 0.4603(2) 0.9174(4)
H10 H 0.3958 0.4115 0.8746
C12 C 0.36364(18) 0.5219(2) 0.8294(4)
C13 C 0.22349(19) 0.1745(2) 0.3312(4)
H11 H 0.2651 0.1669 0.4060
C14 C 0.1840(2) 0.1103(2) 0.2643(4)
H12 H 0.1993 0.0607 0.2961
C15 C 0.1228(2) 0.1197(2) 0.1522(4)
C16 C 0.09972(19) 0.1945(2) 0.1091(4)
C17 C 0.13803(19) 0.2572(2) 0.1770(4)
H13 H 0.1212 0.3067 0.1485
C18 C 0.20161(18) 0.24868(19) 0.2878(4)
C19 C 0.24493(17) 0.31791(18) 0.3535(4)
C20 C 0.24191(17) 0.38271(19) 0.2475(4)
H14 H 0.2283 0.3698 0.1462
C21 C 0.25615(17) 0.45735(19) 0.2776(3)
C22 C 0.28243(17) 0.48966(19) 0.4260(4)
C23 C 0.31563(17) 0.45458(19) 0.5672(4)
C24 C 0.33503(17) 0.37034(18) 0.5895(3)
H15 H 0.3368 0.3587 0.6950
C25 C 0.28050(18) 0.31556(19) 0.4974(4)
H16 H 0.2699 0.2728 0.5500
C26 C 0.33061(18) 0.5134(2) 0.6688(4)
C27 C 0.28019(18) 0.56612(19) 0.4502(4)
C28 C 0.2545(2) 0.62892(19) 0.3408(4)
H17 H 0.2951 0.6550 0.3156
H18 H 0.2273 0.6666 0.3833
C29 C 0.20632(19) 0.59216(19) 0.1986(4)
C30 C 0.2415(2) 0.51761(18) 0.1547(4)
H19 H 0.2101 0.4954 0.0661
H20 H 0.2865 0.5312 0.1292
C31 C 0.1973(2) 0.6508(2) 0.0715(5)
C32 C 0.1375(4) 0.6817(3) -0.1750(5)
H21 H 0.1013 0.6610 -0.2562
H22 H 0.1816 0.6879 -0.2067
H23 H 0.1220 0.7311 -0.1460
C33 C 0.1318(2) 0.5770(2) 0.2272(4)
C34 C 0.0340(2) 0.4912(3) 0.2025(5)
H24 H 0.0179 0.4426 0.1557
H25 H -0.0008 0.5307 0.1640
H26 H 0.0394 0.4868 0.3091
C35 C 0.0159(3) 0.2747(3) -0.0545(6)
H27 H -0.0277 0.2712 -0.1312
H28 H 0.0528 0.2983 -0.0951
H29 H 0.0077 0.3056 0.0271
C36 C 0.1069(2) -0.0156(2) 0.1172(5)
H30 H 0.0742 -0.0521 0.0586
H31 H 0.1096 -0.0243 0.2219
H32 H 0.1537 -0.0221 0.0974
loop_
_geom_bond_atom_site_label_1
_geom_bond_atom_site_label_2
_geom_bond_site_symmetry_1
_geom_bond_site_symmetry_2
O1 C26 1_555 1_555
O2 C31 1_555 1_555
O3 C31 1_555 1_555
O4 C33 1_555 1_555
O5 C33 1_555 1_555
O6 C16 1_555 1_555
O7 C15 1_555 1_555
C1 H1 1_555 1_555
C2 C1 1_555 1_555
H2 C2 1_555 1_555
C3 C2 1_555 1_555
H3 C3 1_555 1_555
C4 C3 1_555 1_555
H4 C4 1_555 1_555
C5 C4 1_555 1_555
H5 C5 1_555 1_555
C6 C1 1_555 1_555
C7 H6 1_555 1_555
C8 C7 1_555 1_555
H7 C8 1_555 1_555
C9 C8 1_555 1_555
H8 C9 1_555 1_555
C10 C9 1_555 1_555
H9 C10 1_555 1_555
C11 C10 1_555 1_555
H10 C11 1_555 1_555
C12 C7 1_555 1_555
C13 H11 1_555 1_555
C14 C13 1_555 1_555
H12 C14 1_555 1_555
C15 C14 1_555 1_555
C16 C15 1_555 1_555
C17 C16 1_555 1_555
H13 C17 1_555 1_555
C18 C13 1_555 1_555
C19 C18 1_555 1_555
C20 C19 1_555 1_555
H14 C20 1_555 1_555
C21 C20 1_555 1_555
C22 C21 1_555 1_555
C23 C22 1_555 1_555
C24 C6 1_555 1_555
H15 C24 1_555 1_555
C25 C19 1_555 1_555
H16 C25 1_555 1_555
C26 C12 1_555 1_555
C27 O1 1_555 1_555
C28 C27 1_555 1_555
H17 C28 1_555 1_555
H18 C28 1_555 1_555
C29 C28 1_555 1_555
C30 C21 1_555 1_555
H19 C30 1_555 1_555
H20 C30 1_555 1_555
C31 C29 1_555 1_555
C32 O2 1_555 1_555
H21 C32 1_555 1_555
H22 C32 1_555 1_555
H23 C32 1_555 1_555
C33 C29 1_555 1_555
C34 O4 1_555 1_555
H24 C34 1_555 1_555
H25 C34 1_555 1_555
H26 C34 1_555 1_555
C35 O6 1_555 1_555
H27 C35 1_555 1_555
H28 C35 1_555 1_555
H29 C35 1_555 1_555
C36 O7 1_555 1_555
H30 C36 1_555 1_555
H31 C36 1_555 1_555
H32 C36 1_555 1_555
C5 C6 1_555 1_555
C11 C12 1_555 1_555
C17 C18 1_555 1_555
C22 C27 1_555 1_555
C23 C24 1_555 1_555
C23 C26 1_555 1_555
C24 C25 1_555 1_555
C29 C30 1_555 1_555

#END
