
#######################################################################
#
#                 Cambridge Crystallographic Data Centre
#                                CCDC 
#
#######################################################################
#
# If this CIF has been generated from an entry in the Cambridge 
# Structural Database, then it will include bibliographic, chemical, 
# crystal, experimental, refinement or atomic coordinate data resulting 
# from the CCDC's data processing and validation procedures.
#
#######################################################################

data_VAGTED
_chemical_formula_moiety         'C3 H8 N4 O2'
_chemical_name_systematic        1-Ethyl-2-nitroguanidine
_symmetry_cell_setting           monoclinic
_symmetry_space_group_name_H-M   'P 21/n'
_symmetry_Int_Tables_number      14
_space_group_name_Hall           '-P 2yn'
loop_
_symmetry_equiv_pos_site_id
_symmetry_equiv_pos_as_xyz
1 x,y,z
2 1/2+x,1/2-y,1/2+z
3 -x,-y,-z
4 1/2-x,1/2+y,1/2-z
_cell_length_a                   8.9336(9)
_cell_length_b                   16.087(2)
_cell_length_c                   4.3173(4)
_cell_angle_alpha                90
_cell_angle_beta                 96.119(8)
_cell_angle_gamma                90
_cell_volume                     616.925
_exptl_crystal_colour            colorless
_cell_formula_units_Z            4
_exptl_crystal_recrystallization_method water
loop_
_atom_site_label
_atom_site_type_symbol
_atom_site_fract_x
_atom_site_fract_y
_atom_site_fract_z
N1 N 0.57727(12) 0.09681(6) 0.0506(3)
O1 O 0.77500(13) 0.12035(7) -0.1876(3)
O2 O 0.69759(14) 0.22180(6) 0.0805(3)
C1 C 0.46666(14) 0.12472(7) 0.2220(3)
N2 N 0.37411(13) 0.06484(7) 0.2869(3)
H1 H 0.3882(18) 0.0184(12) 0.219(4)
N3 N 0.68449(13) 0.14855(7) -0.0192(3)
N4 N 0.44819(16) 0.20158(8) 0.3154(3)
H2 H 0.367(2) 0.2150(12) 0.399(5)
H3 H 0.518(2) 0.2338(13) 0.271(5)
C2 C 0.24698(15) 0.07412(8) 0.4678(3)
H4 H 0.2700 0.1168 0.622
H5 H 0.2329 0.0229 0.576
C3 C 0.10261(18) 0.09622(12) 0.2744(4)
H6 H 0.1156 0.1468 0.166
H7 H 0.0247 0.1029 0.406
H8 H 0.0761 0.0530 0.128
loop_
_geom_bond_atom_site_label_1
_geom_bond_atom_site_label_2
_geom_bond_site_symmetry_1
_geom_bond_site_symmetry_2
N1 C1 1_555 1_555
O1 N3 1_555 1_555
O2 N3 1_555 1_555
C1 N2 1_555 1_555
N2 H1 1_555 1_555
N3 N1 1_555 1_555
N4 C1 1_555 1_555
H2 N4 1_555 1_555
H3 N4 1_555 1_555
C2 N2 1_555 1_555
H4 C2 1_555 1_555
H5 C2 1_555 1_555
C3 C2 1_555 1_555
H6 C3 1_555 1_555
H7 C3 1_555 1_555
H8 C3 1_555 1_555

#END
