
#######################################################################
#
#                 Cambridge Crystallographic Data Centre
#                                CCDC 
#
#######################################################################
#
# If this CIF has been generated from an entry in the Cambridge 
# Structural Database, then it will include bibliographic, chemical, 
# crystal, experimental, refinement or atomic coordinate data resulting 
# from the CCDC's data processing and validation procedures.
#
#######################################################################

data_VAGVOQ
_chemical_formula_moiety         'C20 H18 F3 N1 O2'
_chemical_name_systematic        
(3R,5R)-5-Phenyl-3-((R)-1-phenylallyl)-3-(trifluoromethyl)morpholin-2-one
_symmetry_cell_setting           monoclinic
_symmetry_space_group_name_H-M   'P 21'
_symmetry_Int_Tables_number      4
_space_group_name_Hall           'P 2yb'
loop_
_symmetry_equiv_pos_site_id
_symmetry_equiv_pos_as_xyz
1 x,y,z
2 -x,1/2+y,-z
_cell_length_a                   7.8902(10)
_cell_length_b                   12.4068(16)
_cell_length_c                   9.9490(12)
_cell_angle_alpha                90
_cell_angle_beta                 113.018(2)
_cell_angle_gamma                90
_cell_volume                     896.387
_exptl_crystal_colour            colorless
_exptl_crystal_description       prismatic
_cell_formula_units_Z            2
loop_
_atom_site_label
_atom_site_type_symbol
_atom_site_fract_x
_atom_site_fract_y
_atom_site_fract_z
N1 N 0.4301(3) 0.59672(18) 0.5588(2)
O1 O 0.4223(3) 0.32765(16) 0.4233(2)
O2 O 0.3241(3) 0.38647(17) 0.5853(3)
F1 F 0.1678(2) 0.52424(18) 0.2819(2)
F2 F 0.3886(2) 0.49113(17) 0.21277(16)
F3 F 0.3547(2) 0.64897(15) 0.28399(17)
C1 C 0.4673(3) 0.5158(2) 0.4692(3)
C2 C 0.4024(3) 0.4022(2) 0.4902(3)
C3 C 0.2817(5) 0.4761(2) 0.6610(4)
H1 H 0.2735 0.4503 0.7503
H2 H 0.1633 0.5066 0.5999
C4 C 0.4276(4) 0.5615(2) 0.6968(3)
H3 H 0.5475 0.5308 0.7580
C5 C 0.6743(3) 0.5066(2) 0.4857(3)
H4 H 0.6803 0.4478 0.4218
C6 C 0.7381(4) 0.6072(2) 0.4358(3)
H5 H 0.7280 0.6724 0.4783
C7 C 0.8073(5) 0.6080(3) 0.3356(4)
H6 H 0.8189 0.5439 0.2915
H7 H 0.8448 0.6726 0.3087
C8 C 0.3829(4) 0.6539(2) 0.7756(3)
C9 C 0.2322(4) 0.7196(3) 0.7064(4)
H8 H 0.1588 0.7084 0.6083
C10 C 0.1902(6) 0.8012(3) 0.7812(5)
H9 H 0.0885 0.8449 0.7333
C11 C 0.2962(9) 0.8191(4) 0.9254(7)
H10 H 0.2680 0.8748 0.9757
C12 C 0.4443(9) 0.7538(5) 0.9944(6)
H11 H 0.5159 0.7645 1.0930
C13 C 0.4887(6) 0.6733(4) 0.9212(4)
H12 H 0.5916 0.6307 0.9698
C14 C 0.8000(3) 0.4760(2) 0.6413(3)
C15 C 0.8406(4) 0.3689(2) 0.6780(3)
H13 H 0.7883 0.3160 0.6076
C16 C 0.9567(4) 0.3388(3) 0.8168(3)
H14 H 0.9814 0.2663 0.8398
C17 C 1.0361(4) 0.4162(3) 0.9212(3)
H15 H 1.1152 0.3964 1.0149
C18 C 0.9987(4) 0.5224(3) 0.8869(3)
H16 H 1.0526 0.5746 0.9579
C19 C 0.8818(4) 0.5534(3) 0.7483(3)
H17 H 0.8578 0.6262 0.7265
C20 C 0.3450(4) 0.5449(3) 0.3104(3)
H18 H 0.484(4) 0.6539(17) 0.563(3)
loop_
_geom_bond_atom_site_label_1
_geom_bond_atom_site_label_2
_geom_bond_site_symmetry_1
_geom_bond_site_symmetry_2
N1 C1 1_555 1_555
O1 C2 1_555 1_555
O2 C2 1_555 1_555
F1 C20 1_555 1_555
F2 C20 1_555 1_555
F3 C20 1_555 1_555
C1 C2 1_555 1_555
C3 O2 1_555 1_555
H1 C3 1_555 1_555
H2 C3 1_555 1_555
C4 N1 1_555 1_555
H3 C4 1_555 1_555
C5 C1 1_555 1_555
H4 C5 1_555 1_555
C6 C5 1_555 1_555
H5 C6 1_555 1_555
C7 C6 1_555 1_555
H6 C7 1_555 1_555
H7 C7 1_555 1_555
C8 C4 1_555 1_555
C9 C8 1_555 1_555
H8 C9 1_555 1_555
C10 C9 1_555 1_555
H9 C10 1_555 1_555
C11 C10 1_555 1_555
H10 C11 1_555 1_555
C12 C11 1_555 1_555
H11 C12 1_555 1_555
C13 C8 1_555 1_555
H12 C13 1_555 1_555
C14 C5 1_555 1_555
C15 C14 1_555 1_555
H13 C15 1_555 1_555
C16 C15 1_555 1_555
H14 C16 1_555 1_555
C17 C16 1_555 1_555
H15 C17 1_555 1_555
C18 C17 1_555 1_555
H16 C18 1_555 1_555
C19 C14 1_555 1_555
H17 C19 1_555 1_555
C20 C1 1_555 1_555
H18 N1 1_555 1_555
C3 C4 1_555 1_555
C12 C13 1_555 1_555
C18 C19 1_555 1_555

#END
