
#######################################################################
#
#                 Cambridge Crystallographic Data Centre
#                                CCDC 
#
#######################################################################
#
# If this CIF has been generated from an entry in the Cambridge 
# Structural Database, then it will include bibliographic, chemical, 
# crystal, experimental, refinement or atomic coordinate data resulting 
# from the CCDC's data processing and validation procedures.
#
#######################################################################

data_VAGXUZ
_chemical_formula_moiety         'C32 H26 N2'
_chemical_name_systematic        
5-(3,5-dimethylphenyl)-3,3-diphenyl-3,10-dihydroazepino[3,4-b]indole
_symmetry_cell_setting           orthorhombic
_symmetry_space_group_name_H-M   'P 21 21 21'
_symmetry_Int_Tables_number      19
_space_group_name_Hall           'P 2ac 2ab'
loop_
_symmetry_equiv_pos_site_id
_symmetry_equiv_pos_as_xyz
1 x,y,z
2 1/2+x,1/2-y,-z
3 -x,1/2+y,1/2-z
4 1/2-x,-y,1/2+z
_cell_length_a                   10.6146(8)
_cell_length_b                   13.7299(11)
_cell_length_c                   16.5455(14)
_cell_angle_alpha                90
_cell_angle_beta                 90
_cell_angle_gamma                90
_cell_volume                     2411.3
_exptl_crystal_colour            yellow
_exptl_crystal_description       block
_cell_formula_units_Z            4
loop_
_atom_site_label
_atom_site_type_symbol
_atom_site_fract_x
_atom_site_fract_y
_atom_site_fract_z
C1 C -0.0124(2) 0.80738(15) 0.14274(12)
C2 C -0.0270(3) 0.90261(18) 0.11728(14)
H1 H 0.0417 0.9358 0.0958
C3 C -0.1418(3) 0.9494(2) 0.12319(15)
H2 H -0.1501 1.0130 0.1047
C4 C -0.2433(3) 0.9027(2) 0.15603(18)
H3 H -0.3204 0.9344 0.1605
C5 C -0.2303(2) 0.8093(2) 0.1822(2)
H4 H -0.2989 0.7773 0.2048
C6 C -0.1160(2) 0.76156(18) 0.17548(17)
H5 H -0.1090 0.6976 0.1933
C7 C 0.0901(2) 0.57888(15) 0.18447(14)
H6 H 0.1045 0.5979 0.2376
C8 C 0.0601(2) 0.48348(16) 0.16778(15)
H7 H 0.0543 0.4389 0.2099
C9 C 0.0385(2) 0.45275(18) 0.08962(16)
H8 H 0.0172 0.3884 0.0787
C10 C 0.0494(3) 0.52012(18) 0.02814(16)
H9 H 0.0361 0.5006 -0.0250
C11 C 0.0794(2) 0.61532(16) 0.04395(13)
H10 H 0.0868 0.6593 0.0015
C12 C 0.09895(18) 0.64698(15) 0.12293(12)
C13 C 0.11775(19) 0.75680(14) 0.14061(12)
C14 C 0.18036(19) 0.77909(15) 0.22084(12)
H11 H 0.1341 0.8158 0.2576
C15 C 0.3024(2) 0.77654(17) 0.05892(12)
H12 H 0.3379 0.8010 0.0117
C16 C 0.3835(2) 0.71426(15) 0.10667(12)
C17 C 0.38201(18) 0.69975(15) 0.18967(12)
C18 C 0.29623(19) 0.75102(14) 0.24404(12)
C19 C 0.34580(18) 0.78445(14) 0.32432(12)
C20 C 0.4652(2) 0.82672(15) 0.32846(13)
H13 H 0.5152 0.8281 0.2823
C21 C 0.5110(2) 0.86654(15) 0.39935(14)
C22 C 0.4348(2) 0.86293(17) 0.46717(14)
H14 H 0.4650 0.8883 0.5155
C23 C 0.3152(2) 0.82286(16) 0.46557(13)
C24 C 0.2721(2) 0.78301(16) 0.39364(12)
H15 H 0.1925 0.7548 0.3918
C25 C 0.5380(2) 0.59817(15) 0.27952(14)
H16 H 0.4975 0.6072 0.3288
C26 C 0.48990(19) 0.64030(14) 0.20888(12)
C27 C 0.6462(2) 0.54317(17) 0.27464(17)
H17 H 0.6784 0.5145 0.3212
C28 C 0.7087(2) 0.52962(17) 0.20087(18)
H18 H 0.7821 0.4927 0.1996
C29 C 0.6642(2) 0.56940(16) 0.13086(16)
H19 H 0.7060 0.5604 0.0820
C30 C 0.5541(2) 0.62376(15) 0.13530(13)
C31 C 0.6379(2) 0.9159(2) 0.40066(19)
H20 H 0.6274 0.9844 0.3913
H21 H 0.6904 0.8887 0.3591
H22 H 0.6768 0.9059 0.4524
C32 C 0.2317(3) 0.8277(2) 0.54013(15)
H23 H 0.2067 0.8939 0.5495
H24 H 0.2775 0.8040 0.5861
H25 H 0.1582 0.7881 0.5319
N1 N 0.18844(18) 0.80263(13) 0.07270(10)
N2 N 0.48934(18) 0.67003(13) 0.07397(11)
loop_
_geom_bond_atom_site_label_1
_geom_bond_atom_site_label_2
_geom_bond_site_symmetry_1
_geom_bond_site_symmetry_2
C1 C2 1_555 1_555
C2 H1 1_555 1_555
C3 C2 1_555 1_555
H2 C3 1_555 1_555
C4 C3 1_555 1_555
H3 C4 1_555 1_555
C5 C4 1_555 1_555
H4 C5 1_555 1_555
C6 C1 1_555 1_555
H5 C6 1_555 1_555
C7 H6 1_555 1_555
C8 C7 1_555 1_555
H7 C8 1_555 1_555
C9 C8 1_555 1_555
H8 C9 1_555 1_555
C10 C9 1_555 1_555
H9 C10 1_555 1_555
C11 C10 1_555 1_555
H10 C11 1_555 1_555
C12 C7 1_555 1_555
C13 C1 1_555 1_555
C14 C13 1_555 1_555
H11 C14 1_555 1_555
C15 H12 1_555 1_555
C16 C15 1_555 1_555
C17 C16 1_555 1_555
C18 C14 1_555 1_555
C19 C18 1_555 1_555
C20 C19 1_555 1_555
H13 C20 1_555 1_555
C21 C20 1_555 1_555
C22 C21 1_555 1_555
H14 C22 1_555 1_555
C23 C22 1_555 1_555
C24 C19 1_555 1_555
H15 C24 1_555 1_555
C25 H16 1_555 1_555
C26 C17 1_555 1_555
C27 C25 1_555 1_555
H17 C27 1_555 1_555
C28 C27 1_555 1_555
H18 C28 1_555 1_555
C29 C28 1_555 1_555
H19 C29 1_555 1_555
C30 C26 1_555 1_555
C31 C21 1_555 1_555
H20 C31 1_555 1_555
H21 C31 1_555 1_555
H22 C31 1_555 1_555
C32 C23 1_555 1_555
H23 C32 1_555 1_555
H24 C32 1_555 1_555
H25 C32 1_555 1_555
N1 C13 1_555 1_555
N2 C16 1_555 1_555
C5 C6 1_555 1_555
C11 C12 1_555 1_555
C12 C13 1_555 1_555
C15 N1 1_555 1_555
C17 C18 1_555 1_555
C23 C24 1_555 1_555
C25 C26 1_555 1_555
C29 C30 1_555 1_555
C30 N2 1_555 1_555

#END
