
#######################################################################
#
#                 Cambridge Crystallographic Data Centre
#                                CCDC 
#
#######################################################################
#
# If this CIF has been generated from an entry in the Cambridge 
# Structural Database, then it will include bibliographic, chemical, 
# crystal, experimental, refinement or atomic coordinate data resulting 
# from the CCDC's data processing and validation procedures.
#
#######################################################################

data_VAGYEI
_chemical_formula_moiety         'C12 H7 N2 O2 1+,Br1 1-'
_chemical_name_systematic        '5,6-Dioxo-1,10-phenanthrolin-1-ium bromide'
_symmetry_cell_setting           orthorhombic
_symmetry_space_group_name_H-M   'P n m a'
_symmetry_Int_Tables_number      62
_space_group_name_Hall           '-P 2ac 2n'
loop_
_symmetry_equiv_pos_site_id
_symmetry_equiv_pos_as_xyz
1 x,y,z
2 1/2+x,1/2-y,1/2-z
3 -x,1/2+y,-z
4 1/2-x,-y,1/2+z
5 -x,-y,-z
6 1/2-x,1/2+y,1/2+z
7 x,1/2-y,z
8 1/2+x,y,1/2-z
_cell_length_a                   14.2379(3)
_cell_length_b                   6.29780(10)
_cell_length_c                   12.3110(3)
_cell_angle_alpha                90
_cell_angle_beta                 90
_cell_angle_gamma                90
_cell_volume                     1103.9
_exptl_crystal_colour            orange
_exptl_crystal_description       block
_cell_formula_units_Z            4
_exptl_crystal_recrystallization_method 'moist ethanol'
loop_
_atom_site_label
_atom_site_type_symbol
_atom_site_fract_x
_atom_site_fract_y
_atom_site_fract_z
Br1 Br 0.28493(2) 0.2500 0.51188(2)
O1 O 0.33230(16) 0.2500 -0.12867(18)
O2 O 0.35374(17) 0.2500 0.09181(19)
N1 N 0.00332(17) 0.2500 -0.0857(2)
H1 H -0.0445 0.2500 -0.0404
N2 N 0.02030(18) 0.2500 0.1310(2)
C1 C -0.0144(2) 0.2500 -0.1923(2)
H2 H -0.0775 0.2500 -0.2175
C2 C 0.0585(2) 0.2500 -0.2656(2)
H3 H 0.0465 0.2500 -0.3415
C3 C 0.1499(2) 0.2500 -0.2268(2)
H4 H 0.2012 0.2500 -0.2761
C4 C 0.1664(2) 0.2500 -0.1149(2)
C5 C 0.2640(2) 0.2500 -0.0705(2)
C6 C 0.2757(2) 0.2500 0.0540(3)
C7 C 0.1897(2) 0.2500 0.1221(2)
C8 C 0.1952(2) 0.2500 0.2350(2)
H5 H 0.2545 0.2500 0.2704
C9 C 0.1131(2) 0.2500 0.2946(2)
H6 H 0.1150 0.2500 0.3718
C10 C 0.0275(2) 0.2500 0.2400(2)
H7 H -0.0286 0.2500 0.2817
C11 C 0.1004(2) 0.2500 0.0749(2)
C12 C 0.0906(2) 0.2500 -0.0442(2)
loop_
_geom_bond_atom_site_label_1
_geom_bond_atom_site_label_2
_geom_bond_site_symmetry_1
_geom_bond_site_symmetry_2
O1 C5 1_555 1_555
O2 C6 1_555 1_555
N1 H1 1_555 1_555
N2 C10 1_555 1_555
C1 N1 1_555 1_555
H2 C1 1_555 1_555
C2 C1 1_555 1_555
H3 C2 1_555 1_555
C3 C2 1_555 1_555
H4 C3 1_555 1_555
C4 C3 1_555 1_555
C5 C4 1_555 1_555
C6 C5 1_555 1_555
C7 C6 1_555 1_555
C8 C7 1_555 1_555
H5 C8 1_555 1_555
C9 C8 1_555 1_555
H6 C9 1_555 1_555
C10 C9 1_555 1_555
H7 C10 1_555 1_555
C11 N2 1_555 1_555
C12 N1 1_555 1_555
C4 C12 1_555 1_555
C7 C11 1_555 1_555
C11 C12 1_555 1_555

#END
