
#######################################################################
#
#                 Cambridge Crystallographic Data Centre
#                                CCDC 
#
#######################################################################
#
# If this CIF has been generated from an entry in the Cambridge 
# Structural Database, then it will include bibliographic, chemical, 
# crystal, experimental, refinement or atomic coordinate data resulting 
# from the CCDC's data processing and validation procedures.
#
#######################################################################

data_VAGZAF
_chemical_formula_moiety         'C26 H22 O1 P1 1+,I1 1-'
_chemical_name_systematic        '(Benzoylmethyl)triphenylphosphonium iodide'
_symmetry_cell_setting           orthorhombic
_symmetry_space_group_name_H-M   'P b c a'
_symmetry_Int_Tables_number      61
_space_group_name_Hall           '-P 2ac 2ab'
loop_
_symmetry_equiv_pos_site_id
_symmetry_equiv_pos_as_xyz
1 x,y,z
2 1/2+x,y,1/2-z
3 x,1/2-y,1/2+z
4 1/2-x,1/2+y,z
5 -x,-y,-z
6 1/2-x,-y,1/2+z
7 -x,1/2+y,1/2-z
8 1/2+x,1/2-y,-z
_cell_length_a                   10.870(2)
_cell_length_b                   18.932(2)
_cell_length_c                   22.135(3)
_cell_angle_alpha                90
_cell_angle_beta                 90
_cell_angle_gamma                90
_cell_volume                     4555.18
_exptl_crystal_colour            'light yellow'
_exptl_crystal_description       block
_chemical_melting_point          'decomposes above 473K'
_cell_formula_units_Z            8
_exptl_crystal_recrystallization_method 'dry methanol'
loop_
_atom_site_label
_atom_site_type_symbol
_atom_site_fract_x
_atom_site_fract_y
_atom_site_fract_z
I1 I 0.340625(13) 0.346975(7) 0.393471(6)
P1 P 0.37220(5) 0.11545(3) 0.32890(2)
O1 O 0.20335(14) 0.17728(8) 0.23889(7)
C1 C 0.39361(19) 0.19780(10) 0.28896(9)
H1 H 0.478(2) 0.1994(11) 0.2761(10)
H2 H 0.383(2) 0.2342(14) 0.3157(12)
C2 C 0.30185(18) 0.20869(10) 0.23813(9)
C3 C 0.33438(19) 0.25922(10) 0.18899(9)
C4 C 0.2558(2) 0.26312(12) 0.13911(10)
H3 H 0.186(2) 0.2312(14) 0.1372(12)
C5 C 0.2815(2) 0.30947(14) 0.09199(11)
H4 H 0.228(3) 0.3097(15) 0.0574(13)
C6 C 0.3850(3) 0.35259(13) 0.09479(12)
H5 H 0.405(3) 0.3839(15) 0.0630(13)
C7 C 0.4641(2) 0.34901(13) 0.14419(11)
H6 H 0.534(2) 0.3784(13) 0.1459(11)
C8 C 0.4391(2) 0.30237(11) 0.19148(10)
H7 H 0.492(2) 0.3014(13) 0.2254(12)
C9 C 0.50269(18) 0.10598(10) 0.37836(9)
C10 C 0.5937(2) 0.05561(12) 0.36804(10)
H8 H 0.587(2) 0.0254(14) 0.3328(12)
C11 C 0.6922(2) 0.04983(15) 0.40828(11)
H9 H 0.753(3) 0.0162(14) 0.4016(12)
C12 C 0.6987(2) 0.09405(13) 0.45788(11)
H10 H 0.760(3) 0.0901(14) 0.4868(12)
C13 C 0.6084(2) 0.14484(12) 0.46803(10)
H11 H 0.613(2) 0.1744(13) 0.5013(11)
C14 C 0.5098(2) 0.15087(11) 0.42866(9)
H12 H 0.449(2) 0.1855(13) 0.4347(11)
C15 C 0.23968(18) 0.11510(10) 0.37758(9)
C16 C 0.15386(19) 0.17010(11) 0.37802(10)
H13 H 0.161(2) 0.2094(13) 0.3497(11)
C17 C 0.0595(2) 0.17014(12) 0.42064(11)
H14 H 0.005(2) 0.2089(13) 0.4204(11)
C18 C 0.0512(2) 0.11619(13) 0.46268(10)
H15 H -0.009(2) 0.1188(13) 0.4916(12)
C19 C 0.1358(2) 0.06123(13) 0.46219(10)
H16 H 0.129(2) 0.0259(13) 0.4901(12)
C20 C 0.2311(2) 0.06032(11) 0.42026(10)
H17 H 0.290(2) 0.0229(12) 0.4199(10)
C21 C 0.37251(18) 0.04508(10) 0.27484(9)
C22 C 0.2969(2) -0.01413(11) 0.28208(10)
H18 H 0.243(2) -0.0173(12) 0.3164(11)
C23 C 0.3046(2) -0.06942(12) 0.24049(11)
H19 H 0.256(2) -0.1086(13) 0.2457(12)
C24 C 0.3869(2) -0.06619(12) 0.19311(11)
H20 H 0.394(2) -0.1038(13) 0.1675(11)
C25 C 0.4615(2) -0.00716(12) 0.18558(10)
H21 H 0.520(3) -0.0065(14) 0.1517(12)
C26 C 0.4551(2) 0.04867(12) 0.22622(10)
H22 H 0.506(2) 0.0881(13) 0.2208(12)
loop_
_geom_bond_atom_site_label_1
_geom_bond_atom_site_label_2
_geom_bond_site_symmetry_1
_geom_bond_site_symmetry_2
P1 C1 1_555 1_555
O1 C2 1_555 1_555
C1 H1 1_555 1_555
H2 C1 1_555 1_555
C2 C1 1_555 1_555
C3 C2 1_555 1_555
C4 C3 1_555 1_555
H3 C4 1_555 1_555
C5 C4 1_555 1_555
H4 C5 1_555 1_555
C6 C5 1_555 1_555
H5 C6 1_555 1_555
C7 C6 1_555 1_555
H6 C7 1_555 1_555
C8 C3 1_555 1_555
H7 C8 1_555 1_555
C9 P1 1_555 1_555
C10 C9 1_555 1_555
H8 C10 1_555 1_555
C11 C10 1_555 1_555
H9 C11 1_555 1_555
C12 C11 1_555 1_555
H10 C12 1_555 1_555
C13 C12 1_555 1_555
H11 C13 1_555 1_555
C14 C9 1_555 1_555
H12 C14 1_555 1_555
C15 P1 1_555 1_555
C16 C15 1_555 1_555
H13 C16 1_555 1_555
C17 C16 1_555 1_555
H14 C17 1_555 1_555
C18 C17 1_555 1_555
H15 C18 1_555 1_555
C19 C18 1_555 1_555
H16 C19 1_555 1_555
C20 C15 1_555 1_555
H17 C20 1_555 1_555
C21 P1 1_555 1_555
C22 C21 1_555 1_555
H18 C22 1_555 1_555
C23 C22 1_555 1_555
H19 C23 1_555 1_555
C24 C23 1_555 1_555
H20 C24 1_555 1_555
C25 C24 1_555 1_555
H21 C25 1_555 1_555
C26 C21 1_555 1_555
H22 C26 1_555 1_555
C7 C8 1_555 1_555
C13 C14 1_555 1_555
C19 C20 1_555 1_555
C25 C26 1_555 1_555

#END
