
#######################################################################
#
#                 Cambridge Crystallographic Data Centre
#                                CCDC 
#
#######################################################################
#
# If this CIF has been generated from an entry in the Cambridge 
# Structural Database, then it will include bibliographic, chemical, 
# crystal, experimental, refinement or atomic coordinate data resulting 
# from the CCDC's data processing and validation procedures.
#
#######################################################################

data_VAHBOY
_chemical_formula_moiety         'C19 H28 O3 S2'
_chemical_name_systematic        
'S-methyl O-(4,4,7,10,10-pentamethyl-3,5-dioxatetracyclo[5.5.2.0^2,6^.0^8,12^]tetradec-13-en-9-yl) carbonodithioate'
_symmetry_cell_setting           orthorhombic
_symmetry_space_group_name_H-M   'P 21 21 21'
_symmetry_Int_Tables_number      19
_space_group_name_Hall           'P 2ac 2ab'
loop_
_symmetry_equiv_pos_site_id
_symmetry_equiv_pos_as_xyz
1 x,y,z
2 1/2+x,1/2-y,-z
3 -x,1/2+y,1/2-z
4 1/2-x,-y,1/2+z
_cell_length_a                   6.2794(1)
_cell_length_b                   13.2695(1)
_cell_length_c                   23.5284(2)
_cell_angle_alpha                90
_cell_angle_beta                 90
_cell_angle_gamma                90
_cell_volume                     1960.49
_exptl_crystal_colour            colorless
_exptl_crystal_description       plate
_cell_formula_units_Z            4
loop_
_atom_site_label
_atom_site_type_symbol
_atom_site_fract_x
_atom_site_fract_y
_atom_site_fract_z
S1 S 0.41685(5) 0.41797(3) 0.890478(16)
S2 S 0.82567(6) 0.30507(2) 0.914659(14)
O1 O 0.81510(15) 0.46150(6) 0.85828(4)
O2 O 0.83864(17) 0.58411(7) 0.58877(4)
O3 O 0.78196(16) 0.42453(7) 0.61989(4)
C1 C 1.0379(2) 0.64734(11) 0.86914(7)
C2 C 0.6555(2) 0.68580(10) 0.89086(6)
C3 C 0.8099(2) 0.64801(9) 0.84553(6)
C4 C 0.7974(2) 0.70977(9) 0.79035(6)
C5 C 0.8974(2) 0.64397(9) 0.74365(6)
C6 C 0.86056(18) 0.53349(9) 0.76433(5)
C7 C 0.7469(2) 0.54416(8) 0.82173(5)
C8 C 0.7988(2) 0.65712(9) 0.68382(6)
C9 C 0.9197(2) 0.58322(9) 0.64556(6)
C10 C 0.8816(2) 0.47390(9) 0.66647(5)
C11 C 0.7349(2) 0.47308(9) 0.71902(5)
C12 C 0.6885(2) 0.36543(9) 0.73808(6)
C13 C 0.5368(2) 0.53169(10) 0.70369(6)
C14 C 0.5688(2) 0.62564(10) 0.68560(6)
C15 C 0.8276(2) 0.48180(10) 0.56990(6)
C16 C 1.0385(3) 0.44876(12) 0.54454(7)
C17 C 0.6428(3) 0.47175(13) 0.52967(7)
C18 C 0.6745(2) 0.40311(8) 0.88576(5)
C19 C 0.6355(3) 0.23937(11) 0.95791(7)
H1 H 1.1384 0.6201 0.8414
H2 H 1.0782 0.7156 0.8799
H3 H 1.0493 0.6054 0.9037
H4 H 0.5121 0.6873 0.8762
H5 H 0.6881 0.7534 0.9010
H6 H 0.6555 0.6431 0.9245
H7 H 0.8691 0.7768 0.7934
H8 H 0.6476 0.7225 0.7814
H9 H 1.0531 0.6569 0.7418
H10 H 1.0023 0.4996 0.7710
H11 H 0.5922 0.5392 0.8172
H12 H 0.8152 0.7271 0.6707
H13 H 1.0748 0.6002 0.6454
H14 H 1.0195 0.4402 0.6763
H15 H 0.6427 0.3263 0.7067
H16 H 0.5783 0.3653 0.7657
H17 H 0.8164 0.3347 0.7541
H18 H 0.4005 0.5000 0.7061
H19 H 0.4572 0.6691 0.6744
H20 H 1.0280 0.3796 0.5310
H21 H 1.1575 0.4559 0.5711
H22 H 1.0723 0.4909 0.5111
H23 H 0.6217 0.4016 0.5203
H24 H 0.5174 0.4958 0.5483
H25 H 0.6666 0.5084 0.4949
H26 H 0.7063 0.1809 0.9716
H27 H 0.5930 0.2809 0.9888
H28 H 0.5123 0.2192 0.9357
loop_
_geom_bond_atom_site_label_1
_geom_bond_atom_site_label_2
_geom_bond_site_symmetry_1
_geom_bond_site_symmetry_2
S1 C18 1_555 1_555
S2 C18 1_555 1_555
O1 C7 1_555 1_555
O2 C9 1_555 1_555
O3 C10 1_555 1_555
C1 C3 1_555 1_555
C2 C3 1_555 1_555
C3 C4 1_555 1_555
C4 C5 1_555 1_555
C5 C6 1_555 1_555
C6 C7 1_555 1_555
C7 C3 1_555 1_555
C8 C5 1_555 1_555
C9 C8 1_555 1_555
C10 C9 1_555 1_555
C11 C6 1_555 1_555
C12 C11 1_555 1_555
C13 C11 1_555 1_555
C14 C8 1_555 1_555
C15 O2 1_555 1_555
C16 C15 1_555 1_555
C17 C15 1_555 1_555
C18 O1 1_555 1_555
C19 S2 1_555 1_555
H1 C1 1_555 1_555
H2 C1 1_555 1_555
H3 C1 1_555 1_555
H4 C2 1_555 1_555
H5 C2 1_555 1_555
H6 C2 1_555 1_555
H7 C4 1_555 1_555
H8 C4 1_555 1_555
H9 C5 1_555 1_555
H10 C6 1_555 1_555
H11 C7 1_555 1_555
H12 C8 1_555 1_555
H13 C9 1_555 1_555
H14 C10 1_555 1_555
H15 C12 1_555 1_555
H16 C12 1_555 1_555
H17 C12 1_555 1_555
H18 C13 1_555 1_555
H19 C14 1_555 1_555
H20 C16 1_555 1_555
H21 C16 1_555 1_555
H22 C16 1_555 1_555
H23 C17 1_555 1_555
H24 C17 1_555 1_555
H25 C17 1_555 1_555
H26 C19 1_555 1_555
H27 C19 1_555 1_555
H28 C19 1_555 1_555
O3 C15 1_555 1_555
C10 C11 1_555 1_555
C13 C14 1_555 1_555

#END
