
#######################################################################
#
#                 Cambridge Crystallographic Data Centre
#                                CCDC 
#
#######################################################################
#
# If this CIF has been generated from an entry in the Cambridge 
# Structural Database, then it will include bibliographic, chemical, 
# crystal, experimental, refinement or atomic coordinate data resulting 
# from the CCDC's data processing and validation procedures.
#
#######################################################################

data_VAHCOZ
_chemical_formula_moiety         'C28 H40 O4'
_chemical_name_systematic        
7-hydroxy-2a,4,4,9,9,10b-hexamethyloctadecahydro-1H-biscyclobuta[6,7]indeno[5,6-b:5',4'-d]furan-1,12(6aH)-dione
_symmetry_cell_setting           monoclinic
_symmetry_space_group_name_H-M   'P 21'
_symmetry_Int_Tables_number      4
_space_group_name_Hall           'P 2yb'
loop_
_symmetry_equiv_pos_site_id
_symmetry_equiv_pos_as_xyz
1 x,y,z
2 -x,1/2+y,-z
_cell_length_a                   6.5903(1)
_cell_length_b                   27.7886(4)
_cell_length_c                   13.8017(2)
_cell_angle_alpha                90
_cell_angle_beta                 101.7474(15)
_cell_angle_gamma                90
_cell_volume                     2474.64
_exptl_crystal_colour            colorless
_exptl_crystal_description       plate
_cell_formula_units_Z            4
loop_
_atom_site_label
_atom_site_type_symbol
_atom_site_fract_x
_atom_site_fract_y
_atom_site_fract_z
O1 O 0.3768(2) 0.64229(5) 0.33131(10)
O2 O 0.0477(2) 0.46084(6) 0.25773(13)
O3 O 0.7792(2) 0.55329(7) 0.27209(13)
O4 O 0.5492(2) 0.68037(5) 0.52512(10)
C1 C 0.3226(2) 0.61073(6) 0.24819(13)
C2 C 0.1188(3) 0.62389(6) 0.18145(13)
C3 C 0.1174(3) 0.66863(7) 0.11682(15)
C4 C -0.0637(3) 0.66069(8) 0.02882(15)
C5 C -0.0365(4) 0.60747(8) 0.00689(16)
C6 C 0.0389(3) 0.58189(7) 0.10722(13)
C7 C 0.1905(3) 0.53998(7) 0.10522(13)
C8 C 0.0723(4) 0.49070(8) 0.08964(17)
C9 C 0.1224(3) 0.48460(7) 0.20138(15)
C10 C 0.2895(3) 0.52322(6) 0.21423(13)
C11 C 0.3139(2) 0.56124(6) 0.29541(12)
C12 C 0.5124(2) 0.56313(6) 0.37554(12)
C13 C 0.7096(2) 0.54580(6) 0.34439(14)
C14 C 0.7785(3) 0.51566(7) 0.43673(14)
C15 C 0.5624(2) 0.52557(6) 0.46383(13)
C16 C 0.5781(2) 0.54520(6) 0.56817(12)
C17 C 0.3831(3) 0.54375(6) 0.61236(13)
C18 C 0.4400(3) 0.57359(7) 0.70910(14)
C19 C 0.6118(3) 0.60896(7) 0.68919(14)
C20 C 0.6433(2) 0.59841(6) 0.58351(13)
C21 C 0.5076(2) 0.63060(6) 0.50607(13)
C22 C 0.5335(2) 0.61790(6) 0.40249(13)
C23 C -0.2706(4) 0.66958(12) 0.0595(2)
C24 C -0.0501(4) 0.69241(9) -0.05975(18)
C25 C 0.3493(4) 0.54671(11) 0.03940(18)
C26 C 0.4266(3) 0.48099(6) 0.44534(13)
C27 C 0.5293(4) 0.54021(9) 0.79607(15)
C28 C 0.2516(3) 0.60041(9) 0.7311(2)
H1 H 0.681(4) 0.6839(10) 0.532(2)
H2 H 0.4334 0.6102 0.2110
H3 H 0.0187 0.6280 0.2233
H4 H 0.1079 0.6977 0.1516
H5 H 0.2461 0.6693 0.0920
H6 H 0.0655 0.6039 -0.0339
H7 H -0.1632 0.5929 -0.0295
H8 H -0.0825 0.5683 0.1276
H9 H -0.0749 0.4920 0.0595
H10 H 0.1390 0.4671 0.0563
H11 H 0.4213 0.5076 0.2126
H12 H 0.1911 0.5608 0.3256
H13 H 0.8949 0.5303 0.4793
H14 H 0.8135 0.4820 0.4247
H15 H 0.6821 0.5261 0.6137
H16 H 0.2626 0.5579 0.5656
H17 H 0.3451 0.5111 0.6259
H18 H 0.5725 0.6422 0.6967
H19 H 0.7390 0.6027 0.7366
H20 H 0.7895 0.6028 0.5798
H21 H 0.3594 0.6266 0.5104
H22 H 0.6717 0.6287 0.3958
H23 H -0.3804 0.6639 0.0020
H24 H -0.2773 0.7030 0.0810
H25 H -0.2880 0.6486 0.1132
H26 H 0.0814 0.6873 -0.0798
H27 H -0.0597 0.7258 -0.0420
H28 H -0.1627 0.6846 -0.1143
H29 H 0.4475 0.5207 0.0499
H30 H 0.4188 0.5770 0.0538
H31 H 0.2766 0.5461 -0.0300
H32 H 0.4384 0.4670 0.3821
H33 H 0.2792 0.4871 0.4430
H34 H 0.4684 0.4574 0.4968
H35 H 0.4279 0.5175 0.8090
H36 H 0.6507 0.5223 0.7829
H37 H 0.5782 0.5582 0.8563
H38 H 0.2933 0.6172 0.7955
H39 H 0.2021 0.6238 0.6776
H40 H 0.1443 0.5785 0.7360
O5 O 0.72781(18) 0.39171(4) 0.40042(9)
O6 O 1.0299(2) 0.20828(5) 0.43460(11)
O7 O 0.31455(19) 0.30459(6) 0.45079(10)
O8 O 0.62581(19) 0.43496(5) 0.20944(10)
C29 C 0.7727(2) 0.35589(6) 0.47629(12)
C30 C 0.9757(2) 0.36491(6) 0.54652(12)
C31 C 0.9787(3) 0.40941(7) 0.61247(13)
C32 C 1.1294(3) 0.39703(7) 0.70948(13)
C33 C 1.0693(3) 0.34454(7) 0.72337(14)
C34 C 1.0340(2) 0.32109(6) 0.61986(12)
C35 C 0.8820(3) 0.27738(6) 0.60452(12)
C36 C 1.0042(3) 0.22831(7) 0.60893(15)
C37 C 0.9571(3) 0.22858(6) 0.49645(14)
C38 C 0.7908(2) 0.26710(6) 0.49163(12)
C39 C 0.7723(2) 0.30887(6) 0.41899(11)
C40 C 0.5721(2) 0.31618(6) 0.34137(11)
C41 C 0.3697(2) 0.30273(6) 0.37324(13)
C42 C 0.2745(3) 0.28266(8) 0.27216(14)
C43 C 0.4960(2) 0.28349(6) 0.24715(12)
C44 C 0.5026(2) 0.30500(6) 0.14585(12)
C45 C 0.6988(3) 0.29510(6) 0.10566(13)
C46 C 0.6907(3) 0.33048(7) 0.01853(14)
C47 C 0.5371(3) 0.37046(7) 0.03675(14)
C48 C 0.4845(2) 0.36025(6) 0.13779(13)
C49 C 0.6343(2) 0.38407(6) 0.22348(13)
C50 C 0.5762(2) 0.37153(6) 0.32086(13)
C51 C 1.3534(3) 0.40095(7) 0.69704(17)
C52 C 1.0945(4) 0.42941(9) 0.79427(16)
C53 C 0.7172(3) 0.27740(8) 0.66760(15)
C54 C 0.5934(3) 0.23369(6) 0.26057(13)
C55 C 0.6062(5) 0.30459(10) -0.07936(16)
C56 C 0.9048(4) 0.35175(11) 0.0185(2)
H41 H 0.750(4) 0.4448(10) 0.232(2)
H42 H 0.6605 0.3545 0.5133
H43 H 1.0838 0.3686 0.5087
H44 H 1.0213 0.4384 0.5827
H45 H 0.8453 0.4147 0.6268
H46 H 1.1798 0.3280 0.7697
H47 H 0.9430 0.3435 0.7490
H48 H 1.1679 0.3084 0.6098
H49 H 1.1533 0.2279 0.6427
H50 H 0.9370 0.2019 0.6368
H51 H 0.6576 0.2507 0.4848
H52 H 0.8885 0.3085 0.3858
H53 H 0.1774 0.3058 0.2345
H54 H 0.2067 0.2518 0.2736
H55 H 0.3853 0.2916 0.0983
H56 H 0.8257 0.3003 0.1582
H57 H 0.7045 0.2617 0.0850
H58 H 0.5996 0.4013 0.0349
H59 H 0.4118 0.3690 -0.0132
H60 H 0.3426 0.3708 0.1401
H61 H 0.7720 0.3729 0.2250
H62 H 0.4396 0.3857 0.3227
H63 H 1.3775 0.3809 0.6435
H64 H 1.3858 0.4329 0.6816
H65 H 1.4469 0.3915 0.7583
H66 H 0.9530 0.4259 0.8064
H67 H 1.1150 0.4632 0.7778
H68 H 1.1947 0.4212 0.8548
H69 H 0.6225 0.2503 0.6479
H70 H 0.7800 0.2736 0.7363
H71 H 0.6348 0.3066 0.6566
H72 H 0.5672 0.2190 0.3204
H73 H 0.7397 0.2354 0.2633
H74 H 0.5286 0.2147 0.2044
H75 H 0.5960 0.3268 -0.1335
H76 H 0.6964 0.2787 -0.0884
H77 H 0.4711 0.2918 -0.0799
H78 H 0.9973 0.3260 0.0116
H79 H 0.9616 0.3696 0.0799
H80 H 0.8962 0.3725 -0.0383
loop_
_geom_bond_atom_site_label_1
_geom_bond_atom_site_label_2
_geom_bond_site_symmetry_1
_geom_bond_site_symmetry_2
O1 C1 1_555 1_555
O2 C9 1_555 1_555
O3 C13 1_555 1_555
O4 C21 1_555 1_555
C1 C2 1_555 1_555
C2 C3 1_555 1_555
C3 C4 1_555 1_555
C4 C5 1_555 1_555
C5 C6 1_555 1_555
C6 C2 1_555 1_555
C7 C6 1_555 1_555
C8 C7 1_555 1_555
C9 C8 1_555 1_555
C10 C7 1_555 1_555
C11 C1 1_555 1_555
C12 C11 1_555 1_555
C13 C12 1_555 1_555
C14 C13 1_555 1_555
C15 C12 1_555 1_555
C16 C15 1_555 1_555
C17 C16 1_555 1_555
C18 C17 1_555 1_555
C19 C18 1_555 1_555
C20 C16 1_555 1_555
C21 C20 1_555 1_555
C22 O1 1_555 1_555
C23 C4 1_555 1_555
C24 C4 1_555 1_555
C25 C7 1_555 1_555
C26 C15 1_555 1_555
C27 C18 1_555 1_555
C28 C18 1_555 1_555
H1 O4 1_555 1_555
H2 C1 1_555 1_555
H3 C2 1_555 1_555
H4 C3 1_555 1_555
H5 C3 1_555 1_555
H6 C5 1_555 1_555
H7 C5 1_555 1_555
H8 C6 1_555 1_555
H9 C8 1_555 1_555
H10 C8 1_555 1_555
H11 C10 1_555 1_555
H12 C11 1_555 1_555
H13 C14 1_555 1_555
H14 C14 1_555 1_555
H15 C16 1_555 1_555
H16 C17 1_555 1_555
H17 C17 1_555 1_555
H18 C19 1_555 1_555
H19 C19 1_555 1_555
H20 C20 1_555 1_555
H21 C21 1_555 1_555
H22 C22 1_555 1_555
H23 C23 1_555 1_555
H24 C23 1_555 1_555
H25 C23 1_555 1_555
H26 C24 1_555 1_555
H27 C24 1_555 1_555
H28 C24 1_555 1_555
H29 C25 1_555 1_555
H30 C25 1_555 1_555
H31 C25 1_555 1_555
H32 C26 1_555 1_555
H33 C26 1_555 1_555
H34 C26 1_555 1_555
H35 C27 1_555 1_555
H36 C27 1_555 1_555
H37 C27 1_555 1_555
H38 C28 1_555 1_555
H39 C28 1_555 1_555
H40 C28 1_555 1_555
O5 C29 1_555 1_555
O6 C37 1_555 1_555
O7 C41 1_555 1_555
O8 C49 1_555 1_555
C29 C30 1_555 1_555
C30 C31 1_555 1_555
C31 C32 1_555 1_555
C32 C33 1_555 1_555
C33 C34 1_555 1_555
C34 C30 1_555 1_555
C35 C34 1_555 1_555
C36 C35 1_555 1_555
C37 C36 1_555 1_555
C38 C35 1_555 1_555
C39 C29 1_555 1_555
C40 C39 1_555 1_555
C41 C40 1_555 1_555
C42 C41 1_555 1_555
C43 C40 1_555 1_555
C44 C43 1_555 1_555
C45 C44 1_555 1_555
C46 C45 1_555 1_555
C47 C46 1_555 1_555
C48 C44 1_555 1_555
C49 C48 1_555 1_555
C50 O5 1_555 1_555
C51 C32 1_555 1_555
C52 C32 1_555 1_555
C53 C35 1_555 1_555
C54 C43 1_555 1_555
C55 C46 1_555 1_555
C56 C46 1_555 1_555
H41 O8 1_555 1_555
H42 C29 1_555 1_555
H43 C30 1_555 1_555
H44 C31 1_555 1_555
H45 C31 1_555 1_555
H46 C33 1_555 1_555
H47 C33 1_555 1_555
H48 C34 1_555 1_555
H49 C36 1_555 1_555
H50 C36 1_555 1_555
H51 C38 1_555 1_555
H52 C39 1_555 1_555
H53 C42 1_555 1_555
H54 C42 1_555 1_555
H55 C44 1_555 1_555
H56 C45 1_555 1_555
H57 C45 1_555 1_555
H58 C47 1_555 1_555
H59 C47 1_555 1_555
H60 C48 1_555 1_555
H61 C49 1_555 1_555
H62 C50 1_555 1_555
H63 C51 1_555 1_555
H64 C51 1_555 1_555
H65 C51 1_555 1_555
H66 C52 1_555 1_555
H67 C52 1_555 1_555
H68 C52 1_555 1_555
H69 C53 1_555 1_555
H70 C53 1_555 1_555
H71 C53 1_555 1_555
H72 C54 1_555 1_555
H73 C54 1_555 1_555
H74 C54 1_555 1_555
H75 C55 1_555 1_555
H76 C55 1_555 1_555
H77 C55 1_555 1_555
H78 C56 1_555 1_555
H79 C56 1_555 1_555
H80 C56 1_555 1_555
C9 C10 1_555 1_555
C10 C11 1_555 1_555
C12 C22 1_555 1_555
C14 C15 1_555 1_555
C19 C20 1_555 1_555
C21 C22 1_555 1_555
C37 C38 1_555 1_555
C38 C39 1_555 1_555
C40 C50 1_555 1_555
C42 C43 1_555 1_555
C47 C48 1_555 1_555
C49 C50 1_555 1_555

#END
