
#######################################################################
#
#                 Cambridge Crystallographic Data Centre
#                                CCDC 
#
#######################################################################
#
# If this CIF has been generated from an entry in the Cambridge 
# Structural Database, then it will include bibliographic, chemical, 
# crystal, experimental, refinement or atomic coordinate data resulting 
# from the CCDC's data processing and validation procedures.
#
#######################################################################

data_VAHCIT
_chemical_formula_moiety         'C15 H26 O2'
_chemical_name_systematic        
3,6,6,7b-tetramethyldecahydro-1H-cyclobuta[e]indene-2,4-diol
_symmetry_cell_setting           monoclinic
_symmetry_space_group_name_H-M   'C 2'
_symmetry_Int_Tables_number      5
_space_group_name_Hall           'C 2y'
loop_
_symmetry_equiv_pos_site_id
_symmetry_equiv_pos_as_xyz
1 x,y,z
2 1/2+x,1/2+y,z
3 -x,y,-z
4 1/2-x,1/2+y,-z
_cell_length_a                   33.1997(4)
_cell_length_b                   9.6115(1)
_cell_length_c                   13.8952(2)
_cell_angle_alpha                90
_cell_angle_beta                 99.7857(12)
_cell_angle_gamma                90
_cell_volume                     4369.43
_exptl_crystal_colour            colorless
_exptl_crystal_description       lath
_cell_formula_units_Z            12
loop_
_atom_site_label
_atom_site_type_symbol
_atom_site_fract_x
_atom_site_fract_y
_atom_site_fract_z
O1 O 0.28401(4) 0.93639(14) 0.68322(7)
O2 O 0.42207(4) 1.02187(18) 0.90160(9)
C1 C 0.27841(4) 1.05229(17) 0.83286(10)
C2 C 0.29608(4) 0.92683(17) 0.78723(10)
C3 C 0.34255(5) 0.92542(18) 0.81649(10)
C4 C 0.35538(4) 0.90954(17) 0.92750(10)
C5 C 0.39396(5) 0.99842(18) 0.96611(11)
C6 C 0.36544(5) 1.11813(18) 0.98424(11)
C7 C 0.33160(5) 1.00675(18) 0.98941(10)
C8 C 0.28744(4) 1.04243(18) 0.94515(10)
C9 C 0.25451(5) 0.9382(2) 0.96575(11)
C10 C 0.21561(5) 0.96937(19) 0.88866(12)
C11 C 0.23158(5) 1.06206(19) 0.81155(12)
C12 C 0.33445(5) 0.9540(2) 1.09488(11)
C13 C 0.18403(6) 1.0477(3) 0.93692(15)
C14 C 0.19616(6) 0.8359(2) 0.84220(14)
C15 C 0.36257(5) 0.8126(2) 0.76448(12)
H1 H 0.2836(7) 0.858(3) 0.6554(18)
H2 H 0.4409(10) 0.967(4) 0.912(3)
H3 H 0.2899 1.1354 0.8123
H4 H 0.2852 0.8440 0.8098
H5 H 0.3525 1.0125 0.7984
H6 H 0.3573 0.8157 0.9492
H7 H 0.4077 0.9622 1.0264
H8 H 0.3740 1.1679 1.0433
H9 H 0.3593 1.1820 0.9316
H10 H 0.2813 1.1302 0.9704
H11 H 0.2489 0.9512 1.0299
H12 H 0.2634 0.8454 0.9589
H13 H 0.2232 1.1557 0.8173
H14 H 0.2215 1.0290 0.7476
H15 H 0.3198 1.0151 1.1301
H16 H 0.3623 0.9511 1.1254
H17 H 0.3230 0.8633 1.0942
H18 H 0.1605 1.0663 0.8896
H19 H 0.1955 1.1329 0.9632
H20 H 0.1766 0.9924 0.9878
H21 H 0.1726 0.8587 0.7958
H22 H 0.1885 0.7779 0.8914
H23 H 0.2153 0.7883 0.8105
H24 H 0.3914 0.8158 0.7850
H25 H 0.3526 0.7242 0.7800
H26 H 0.3563 0.8271 0.6959
O3 O 0.27589(3) 0.68667(14) 0.59431(8)
O4 O 0.28355(4) 0.14934(15) 0.56148(10)
C16 C 0.31689(4) 0.60212(17) 0.47636(10)
C17 C 0.30727(4) 0.59038(17) 0.58000(10)
C18 C 0.29590(4) 0.44192(18) 0.60219(10)
C19 C 0.33362(4) 0.34954(17) 0.60477(10)
C20 C 0.32349(4) 0.20117(18) 0.56298(12)
C21 C 0.33277(5) 0.25200(18) 0.46465(12)
C22 C 0.35820(4) 0.37269(17) 0.51950(11)
C23 C 0.35469(4) 0.51299(18) 0.46544(10)
C24 C 0.38993(4) 0.61718(18) 0.49160(11)
C25 C 0.37386(5) 0.7537(2) 0.44147(11)
C26 C 0.32822(5) 0.7526(2) 0.45220(13)
C27 C 0.40290(5) 0.3296(2) 0.55230(13)
C28 C 0.37782(6) 0.7515(3) 0.33322(14)
C29 C 0.39682(6) 0.8798(2) 0.49026(16)
C30 C 0.27940(6) 0.4300(2) 0.69809(13)
H28 H 0.2546(8) 0.670(3) 0.5467(18)
H29 H 0.2829(8) 0.087(3) 0.5990(19)
H30 H 0.2940 0.5720 0.4306
H31 H 0.3313 0.6142 0.6243
H32 H 0.2753 0.4107 0.5507
H33 H 0.3506 0.3483 0.6671
H34 H 0.3434 0.1359 0.5919
H35 H 0.3482 0.1886 0.4331
H36 H 0.3094 0.2814 0.4199
H37 H 0.3527 0.4927 0.3979
H38 H 0.3964 0.6295 0.5603
H39 H 0.4135 0.5861 0.4676
H40 H 0.3240 0.8134 0.5034
H41 H 0.3118 0.7817 0.3928
H42 H 0.4177 0.3439 0.5003
H43 H 0.4146 0.3842 0.6069
H44 H 0.4041 0.2341 0.5700
H45 H 0.3678 0.8366 0.3035
H46 H 0.4057 0.7406 0.3273
H47 H 0.3624 0.6762 0.3017
H48 H 0.3862 0.9622 0.4577
H49 H 0.4250 0.8715 0.4867
H50 H 0.3935 0.8840 0.5568
H51 H 0.2728 0.3357 0.7087
H52 H 0.2996 0.4612 0.7505
H53 H 0.2556 0.4857 0.6946
O5 O 0.46651(4) 0.25565(16) 0.92871(8)
O6 O 0.47046(4) 0.78804(17) 0.91754(10)
C31 C 0.51757(5) 0.34636(19) 0.84066(10)
C32 C 0.47223(4) 0.34701(19) 0.85044(10)
C33 C 0.45831(4) 0.49354(18) 0.87110(10)
C34 C 0.46326(4) 0.59341(18) 0.78840(10)
C35 C 0.47892(5) 0.74043(19) 0.82620(12)
C36 C 0.52273(5) 0.6922(2) 0.82101(12)
C37 C 0.50413(4) 0.57878(19) 0.74629(11)
C38 C 0.52593(4) 0.43763(19) 0.75500(10)
C39 C 0.51647(5) 0.3371(2) 0.66801(11)
C40 C 0.5312(3) 0.1901(8) 0.7081(6)
C41 C 0.53230(6) 0.2006(2) 0.81726(13)
C42 C 0.49923(5) 0.6355(2) 0.64190(12)
C43 C 0.5729(3) 0.1640(6) 0.6802(6)
C44 C 0.5008(3) 0.0781(6) 0.6668(4)
C45 C 0.41434(5) 0.4956(2) 0.89157(13)
H54 H 0.4504(12) 0.193(4) 0.9092(19)
H55 H 0.4913(7) 0.788(5) 0.9576(18)
H56 H 0.5335 0.3789 0.8997
H57 H 0.4564 0.3143 0.7913
H58 H 0.4756 0.5257 0.9284
H59 H 0.4397 0.5975 0.7389
H60 H 0.4705 0.8083 0.7772
H61 H 0.5373 0.6564 0.8807
H62 H 0.5391 0.7595 0.7956
H63 H 0.5545 0.4557 0.7651
H64 H 0.5243 0.6254 0.6182
H65 H 0.4920 0.7311 0.6417
H66 H 0.4784 0.5850 0.6011
H67 H 0.4068 0.5884 0.9040
H68 H 0.4126 0.4393 0.9469
H69 H 0.3964 0.4604 0.8364
H70 H 0.5308 0.3644 0.6174
H71 H 0.4879 0.3358 0.6436
H72 H 0.5594 0.1865 0.8505
H73 H 0.5149 0.1321 0.8374
H74 H 0.5826 0.0753 0.7036
H75 H 0.5914 0.2339 0.7086
H76 H 0.5707 0.1667 0.6112
H77 H 0.5103 -0.0099 0.6921
H78 H 0.4980 0.0771 0.5976
H79 H 0.4750 0.0971 0.6849
H27? H 0.4354(12) 1.092(3) 0.916(3)
C46? C 0.5375(5) 0.2029(16) 0.7058(10)
C47? C 0.5845(3) 0.202(2) 0.7158(9)
C48? C 0.5197(5) 0.0740(13) 0.6463(9)
H80? H 0.4872(8) 0.252(4) 0.970(2)
H81? H 0.4575(14) 0.861(3) 0.9116(19)
H82? H 0.5272 0.3713 0.6134
H83? H 0.4878 0.3232 0.6501
H84? H 0.5577 0.1801 0.8577
H85? H 0.5126 0.1326 0.8272
H86? H 0.5948 0.1139 0.7399
H87? H 0.5957 0.2727 0.7600
H88? H 0.5920 0.2181 0.6538
H89? H 0.5337 -0.0073 0.6724
H90? H 0.5229 0.0852 0.5801
H91? H 0.4914 0.0652 0.6498
loop_
_geom_bond_atom_site_label_1
_geom_bond_atom_site_label_2
_geom_bond_site_symmetry_1
_geom_bond_site_symmetry_2
O1 C2 1_555 1_555
O2 C5 1_555 1_555
C1 C2 1_555 1_555
C2 C3 1_555 1_555
C3 C4 1_555 1_555
C4 C5 1_555 1_555
C5 C6 1_555 1_555
C6 C7 1_555 1_555
C7 C4 1_555 1_555
C8 C1 1_555 1_555
C9 C8 1_555 1_555
C10 C9 1_555 1_555
C11 C1 1_555 1_555
C12 C7 1_555 1_555
C13 C10 1_555 1_555
C14 C10 1_555 1_555
C15 C3 1_555 1_555
H1 O1 1_555 1_555
H2 O2 1_555 1_555
H3 C1 1_555 1_555
H4 C2 1_555 1_555
H5 C3 1_555 1_555
H6 C4 1_555 1_555
H7 C5 1_555 1_555
H8 C6 1_555 1_555
H9 C6 1_555 1_555
H10 C8 1_555 1_555
H11 C9 1_555 1_555
H12 C9 1_555 1_555
H13 C11 1_555 1_555
H14 C11 1_555 1_555
H15 C12 1_555 1_555
H16 C12 1_555 1_555
H17 C12 1_555 1_555
H18 C13 1_555 1_555
H19 C13 1_555 1_555
H20 C13 1_555 1_555
H21 C14 1_555 1_555
H22 C14 1_555 1_555
H23 C14 1_555 1_555
H24 C15 1_555 1_555
H25 C15 1_555 1_555
H26 C15 1_555 1_555
O3 C17 1_555 1_555
O4 C20 1_555 1_555
C16 C17 1_555 1_555
C17 C18 1_555 1_555
C18 C19 1_555 1_555
C19 C20 1_555 1_555
C20 C21 1_555 1_555
C21 C22 1_555 1_555
C22 C19 1_555 1_555
C23 C16 1_555 1_555
C24 C23 1_555 1_555
C25 C24 1_555 1_555
C26 C16 1_555 1_555
C27 C22 1_555 1_555
C28 C25 1_555 1_555
C29 C25 1_555 1_555
C30 C18 1_555 1_555
H28 O3 1_555 1_555
H29 O4 1_555 1_555
H30 C16 1_555 1_555
H31 C17 1_555 1_555
H32 C18 1_555 1_555
H33 C19 1_555 1_555
H34 C20 1_555 1_555
H35 C21 1_555 1_555
H36 C21 1_555 1_555
H37 C23 1_555 1_555
H38 C24 1_555 1_555
H39 C24 1_555 1_555
H40 C26 1_555 1_555
H41 C26 1_555 1_555
H42 C27 1_555 1_555
H43 C27 1_555 1_555
H44 C27 1_555 1_555
H45 C28 1_555 1_555
H46 C28 1_555 1_555
H47 C28 1_555 1_555
H48 C29 1_555 1_555
H49 C29 1_555 1_555
H50 C29 1_555 1_555
H51 C30 1_555 1_555
H52 C30 1_555 1_555
H53 C30 1_555 1_555
O5 C32 1_555 1_555
O6 C35 1_555 1_555
C31 C32 1_555 1_555
C32 C33 1_555 1_555
C33 C34 1_555 1_555
C34 C35 1_555 1_555
C35 C36 1_555 1_555
C36 C37 1_555 1_555
C37 C34 1_555 1_555
C38 C31 1_555 1_555
C39 C38 1_555 1_555
C40 C39 1_555 1_555
C41 C31 1_555 1_555
C42 C37 1_555 1_555
C43 C40 1_555 1_555
C44 C40 1_555 1_555
C45 C33 1_555 1_555
H54 O5 1_555 1_555
H55 O6 1_555 1_555
H56 C31 1_555 1_555
H57 C32 1_555 1_555
H58 C33 1_555 1_555
H59 C34 1_555 1_555
H60 C35 1_555 1_555
H61 C36 1_555 1_555
H62 C36 1_555 1_555
H63 C38 1_555 1_555
H64 C42 1_555 1_555
H65 C42 1_555 1_555
H66 C42 1_555 1_555
H67 C45 1_555 1_555
H68 C45 1_555 1_555
H69 C45 1_555 1_555
H70 C39 1_555 1_555
H71 C39 1_555 1_555
H72 C41 1_555 1_555
H73 C41 1_555 1_555
H74 C43 1_555 1_555
H75 C43 1_555 1_555
H76 C43 1_555 1_555
H77 C44 1_555 1_555
H78 C44 1_555 1_555
H79 C44 1_555 1_555
C7 C8 1_555 1_555
C10 C11 1_555 1_555
C22 C23 1_555 1_555
C25 C26 1_555 1_555
C37 C38 1_555 1_555
C40 C41 1_555 1_555

#END
