
#######################################################################
#
#                 Cambridge Crystallographic Data Centre
#                                CCDC 
#
#######################################################################
#
# If this CIF has been generated from an entry in the Cambridge 
# Structural Database, then it will include bibliographic, chemical, 
# crystal, experimental, refinement or atomic coordinate data resulting 
# from the CCDC's data processing and validation procedures.
#
#######################################################################

data_VAHCAL
_chemical_formula_moiety         'C14 H20 O2'
_chemical_name_systematic        
3a,5,5-trimethyldecahydro-2H-cyclobuta[6,7]indeno[4,5-b]oxiren-2-one
_symmetry_cell_setting           orthorhombic
_symmetry_space_group_name_H-M   'P 21 21 21'
_symmetry_Int_Tables_number      19
_space_group_name_Hall           'P 2ac 2ab'
loop_
_symmetry_equiv_pos_site_id
_symmetry_equiv_pos_as_xyz
1 x,y,z
2 1/2+x,1/2-y,-z
3 -x,1/2+y,1/2-z
4 1/2-x,-y,1/2+z
_cell_length_a                   7.0022(1)
_cell_length_b                   12.5744(1)
_cell_length_c                   14.0683(2)
_cell_angle_alpha                90
_cell_angle_beta                 90
_cell_angle_gamma                90
_cell_volume                     1238.69
_exptl_crystal_colour            colorless
_exptl_crystal_description       block
_cell_formula_units_Z            4
loop_
_atom_site_label
_atom_site_type_symbol
_atom_site_fract_x
_atom_site_fract_y
_atom_site_fract_z
O1 O -0.05442(10) 0.67167(6) 0.40996(6)
O2 O 0.06083(15) 0.83635(8) 0.22511(7)
C1 C 0.24845(13) 0.61279(7) 0.49023(7)
C2 C 0.06535(14) 0.58365(8) 0.43952(8)
C3 C 0.03545(14) 0.60588(9) 0.33802(7)
C4 C 0.18798(14) 0.65956(8) 0.27973(7)
C5 C 0.16125(18) 0.78099(9) 0.27301(8)
C6 C 0.31983(18) 0.80206(8) 0.34372(8)
C7 C 0.38250(14) 0.68339(8) 0.33055(7)
C8 C 0.41925(13) 0.62037(7) 0.42117(6)
C9 C 0.46792(15) 0.50266(8) 0.40469(7)
C10 C 0.43751(15) 0.44593(7) 0.50132(7)
C11 C 0.31245(15) 0.52518(8) 0.55927(7)
C12 C 0.54772(16) 0.67623(10) 0.26034(8)
C13 C 0.62820(16) 0.42757(8) 0.55157(8)
C14 C 0.33756(19) 0.33909(9) 0.48754(8)
H1 H 0.2274 0.6805 0.5243
H2 H -0.0070 0.5236 0.4661
H3 H -0.0575 0.5611 0.3024
H4 H 0.1986 0.6260 0.2188
H5 H 0.4148 0.8560 0.3254
H6 H 0.2672 0.8165 0.4072
H7 H 0.5278 0.6507 0.4565
H8 H 0.5989 0.4939 0.3803
H9 H 0.3797 0.4735 0.3553
H10 H 0.3871 0.5567 0.6119
H11 H 0.1995 0.4907 0.5867
H12 H 0.5701 0.6013 0.2388
H13 H 0.5142 0.7191 0.2040
H14 H 0.6670 0.7032 0.2901
H15 H 0.6089 0.3931 0.6149
H16 H 0.6996 0.4965 0.5615
H17 H 0.7099 0.3812 0.5135
H18 H 0.4153 0.2902 0.4471
H19 H 0.2122 0.3496 0.4579
H20 H 0.3178 0.3032 0.5495
loop_
_geom_bond_atom_site_label_1
_geom_bond_atom_site_label_2
_geom_bond_site_symmetry_1
_geom_bond_site_symmetry_2
O1 C2 1_555 1_555
O2 C5 1_555 1_555
C1 C2 1_555 1_555
C2 C3 1_555 1_555
C3 O1 1_555 1_555
C4 C3 1_555 1_555
C5 C4 1_555 1_555
C6 C5 1_555 1_555
C7 C4 1_555 1_555
C8 C1 1_555 1_555
C9 C8 1_555 1_555
C10 C9 1_555 1_555
C11 C1 1_555 1_555
C12 C7 1_555 1_555
C13 C10 1_555 1_555
C14 C10 1_555 1_555
H1 C1 1_555 1_555
H2 C2 1_555 1_555
H3 C3 1_555 1_555
H4 C4 1_555 1_555
H5 C6 1_555 1_555
H6 C6 1_555 1_555
H7 C8 1_555 1_555
H8 C9 1_555 1_555
H9 C9 1_555 1_555
H10 C11 1_555 1_555
H11 C11 1_555 1_555
H12 C12 1_555 1_555
H13 C12 1_555 1_555
H14 C12 1_555 1_555
H15 C13 1_555 1_555
H16 C13 1_555 1_555
H17 C13 1_555 1_555
H18 C14 1_555 1_555
H19 C14 1_555 1_555
H20 C14 1_555 1_555
C6 C7 1_555 1_555
C7 C8 1_555 1_555
C10 C11 1_555 1_555

#END
