
#######################################################################
#
#                 Cambridge Crystallographic Data Centre
#                                CCDC 
#
#######################################################################
#
# If this CIF has been generated from an entry in the Cambridge 
# Structural Database, then it will include bibliographic, chemical, 
# crystal, experimental, refinement or atomic coordinate data resulting 
# from the CCDC's data processing and validation procedures.
#
#######################################################################

data_VAHDEO
_chemical_formula_moiety         'C23 H25 Cl1 N2 O5'
_chemical_name_systematic        
'Diethyl 2,6-dimethyl-4-(5-methyl-3-(2-chlorophenyl)isoxazol-4-yl)-1,4-dihydropyridine-3,5-dicarboxylate'
_chemical_properties_biological  'calcium channel blocker'
_symmetry_cell_setting           monoclinic
_symmetry_space_group_name_H-M   'P 21/n'
_symmetry_Int_Tables_number      14
_space_group_name_Hall           '-P 2yn'
loop_
_symmetry_equiv_pos_site_id
_symmetry_equiv_pos_as_xyz
1 x,y,z
2 1/2-x,1/2+y,1/2-z
3 -x,-y,-z
4 1/2+x,1/2-y,1/2+z
_cell_length_a                   11.75990(10)
_cell_length_b                   15.7425(3)
_cell_length_c                   12.0538(2)
_cell_angle_alpha                90
_cell_angle_beta                 96.6960(10)
_cell_angle_gamma                90
_cell_volume                     2216.3
_exptl_crystal_colour            'pale yellow'
_exptl_crystal_description       cubic
_chemical_melting_point          '169-170 deg.C'
_cell_formula_units_Z            4
_exptl_crystal_recrystallization_method 'absolute ethanol'
loop_
_atom_site_label
_atom_site_type_symbol
_atom_site_fract_x
_atom_site_fract_y
_atom_site_fract_z
Cl1 Cl 0.4312(1) 0.2075(1) 0.3090(1)
N1 N 0.4673(2) 0.3240(1) 0.6320(1)
N2 N 0.1347(2) 0.2752(1) 0.3017(2)
O1 O 0.1065(1) 0.3547(1) 0.2511(1)
O2 O 0.1664(1) 0.4536(1) 0.7107(1)
O3 O 0.1723(1) 0.5223(1) 0.5481(1)
O4 O 0.5934(1) 0.3936(1) 0.3230(1)
O5 O 0.4308(1) 0.4699(1) 0.2899(1)
C1 C 0.3685(2) 0.3604(1) 0.6622(2)
C2 C 0.3064(2) 0.4133(1) 0.5899(2)
C3 C 0.3350(2) 0.4245(1) 0.4703(2)
C4 C 0.4565(2) 0.3951(1) 0.4578(2)
C5 C 0.5150(2) 0.3453(1) 0.5362(2)
C6 C 0.3425(2) 0.3346(2) 0.7766(2)
C7 C 0.21002 0.46211 0.62482
C8 C 0.0863(2) 0.5798(2) 0.5831(2)
C9 C 0.0574(2) 0.6447(2) 0.4928(2)
C10 C 0.5038(2) 0.4174(1) 0.3536(2)
C11 C 0.4582(2) 0.4872(2) 0.1779(2)
C12 C 0.4138(3) 0.4174(2) 0.0993(2)
C13 C 0.6323(2) 0.3080(2) 0.5321(2)
C14 C 0.2465(2) 0.3794(1) 0.3886(2)
C15 C 0.2181(2) 0.2911(1) 0.3818(2)
C16 C 0.1752(2) 0.4148(1) 0.3049(2)
C17 C 0.1578(2) 0.5027(2) 0.2615(2)
C18 C 0.2683(2) 0.2192(1) 0.4512(2)
C19 C 0.3672(2) 0.1777(1) 0.4265(2)
C20 C 0.4157(2) 0.1117(1) 0.4927(2)
C21 C 0.3630(2) 0.0851(1) 0.5837(2)
C22 C 0.2634(2) 0.1241(2) 0.6092(2)
C23 C 0.2173(2) 0.1913(1) 0.5437(2)
H1 H 0.5083(20) 0.2948(15) 0.6823(20)
H2 H 0.3305(17) 0.4841(14) 0.4515(16)
H3 H 0.2775(28) 0.2966(21) 0.7731(25)
H4 H 0.3165(25) 0.3821(20) 0.8195(24)
H5 H 0.4054(28) 0.3089(21) 0.8160(26)
H6 H 0.1199(20) 0.6059(15) 0.6520(21)
H7 H 0.0164(23) 0.5453(16) 0.5921(21)
H8 H 0.0255(24) 0.6176(19) 0.4211(25)
H9 H 0.1240(26) 0.6765(18) 0.4788(23)
H10 H 0.0019(25) 0.6841(19) 0.5195(24)
H11 H 0.5374(23) 0.4944(16) 0.1813(20)
H12 H 0.4206(24) 0.5424(18) 0.1610(23)
H13 H 0.3327(29) 0.4087(20) 0.0977(25)
H14 H 0.4496(28) 0.3628(22) 0.1190(26)
H15 H 0.4277(28) 0.4325(22) 0.0235(30)
H16 H 0.6778(32) 0.3428(25) 0.4964(31)
H17 H 0.6309(33) 0.2613(28) 0.4879(34)
H18 H 0.6695(30) 0.2983(22) 0.6031(31)
H19 H 0.2049(21) 0.5428(16) 0.3093(21)
H20 H 0.1826(23) 0.5077(17) 0.1881(24)
H21 H 0.0752(25) 0.5188(17) 0.2579(22)
H22 H 0.4844(21) 0.0864(16) 0.4731(20)
H23 H 0.3968(21) 0.0378(16) 0.6278(21)
H24 H 0.2264(20) 0.1057(15) 0.6717(21)
H25 H 0.1473(20) 0.2173(15) 0.5620(18)
loop_
_geom_bond_atom_site_label_1
_geom_bond_atom_site_label_2
_geom_bond_site_symmetry_1
_geom_bond_site_symmetry_2
Cl1 C19 1_555 1_555
N1 C1 1_555 1_555
N2 O1 1_555 1_555
O1 C16 1_555 1_555
O2 C7 1_555 1_555
O3 C7 1_555 1_555
O4 C10 1_555 1_555
O5 C10 1_555 1_555
C1 C2 1_555 1_555
C2 C3 1_555 1_555
C3 C4 1_555 1_555
C4 C5 1_555 1_555
C5 N1 1_555 1_555
C6 C1 1_555 1_555
C7 C2 1_555 1_555
C8 O3 1_555 1_555
C9 C8 1_555 1_555
C10 C4 1_555 1_555
C11 O5 1_555 1_555
C12 C11 1_555 1_555
C13 C5 1_555 1_555
C14 C3 1_555 1_555
C15 N2 1_555 1_555
C16 C14 1_555 1_555
C17 C16 1_555 1_555
C18 C15 1_555 1_555
C19 C18 1_555 1_555
C20 C19 1_555 1_555
C21 C20 1_555 1_555
C22 C21 1_555 1_555
C23 C18 1_555 1_555
H1 N1 1_555 1_555
H2 C3 1_555 1_555
H3 C6 1_555 1_555
H4 C6 1_555 1_555
H5 C6 1_555 1_555
H6 C8 1_555 1_555
H7 C8 1_555 1_555
H8 C9 1_555 1_555
H9 C9 1_555 1_555
H10 C9 1_555 1_555
H11 C11 1_555 1_555
H12 C11 1_555 1_555
H13 C12 1_555 1_555
H14 C12 1_555 1_555
H15 C12 1_555 1_555
H16 C13 1_555 1_555
H17 C13 1_555 1_555
H18 C13 1_555 1_555
H19 C17 1_555 1_555
H20 C17 1_555 1_555
H21 C17 1_555 1_555
H22 C20 1_555 1_555
H23 C21 1_555 1_555
H24 C22 1_555 1_555
H25 C23 1_555 1_555
C14 C15 1_555 1_555
C22 C23 1_555 1_555

#END
