
#######################################################################
#
#                 Cambridge Crystallographic Data Centre
#                                CCDC 
#
#######################################################################
#
# If this CIF has been generated from an entry in the Cambridge 
# Structural Database, then it will include bibliographic, chemical, 
# crystal, experimental, refinement or atomic coordinate data resulting 
# from the CCDC's data processing and validation procedures.
#
#######################################################################

data_VAHHAO
_chemical_formula_moiety         'C8 H8 N2 S1'
_chemical_name_systematic        2-Imino-4-methyl-3H-(1,3)benzothiazoline
_symmetry_cell_setting           monoclinic
_symmetry_space_group_name_H-M   'P 21'
_symmetry_Int_Tables_number      4
_space_group_name_Hall           'P 2yn'
loop_
_symmetry_equiv_pos_site_id
_symmetry_equiv_pos_as_xyz
1 x,y,z
2 1/2-x,1/2+y,1/2-z
_cell_length_a                   4.0949(15)
_cell_length_b                   11.790(2)
_cell_length_c                   15.837(2)
_cell_angle_alpha                90
_cell_angle_beta                 96.510(19)
_cell_angle_gamma                90
_cell_volume                     759.662
_exptl_crystal_colour            colorless
_exptl_crystal_description       prism
_chemical_melting_point          '139-140 deg.C'
_cell_formula_units_Z            4
_exptl_crystal_recrystallization_method ethanol
loop_
_atom_site_label
_atom_site_type_symbol
_atom_site_fract_x
_atom_site_fract_y
_atom_site_fract_z
S1 S -0.0191(16) 0.5024(4) 0.2111(4)
N1 N -0.001(6) 0.527(2) 0.0458(11)
N3 N 0.287(7) 0.3580(18) 0.1058(10)
C1 C -0.353(5) 0.7097(17) 0.1970(14)
C2 C -0.448(5) 0.7961(19) 0.1468(18)
C3 C -0.443(5) 0.805(2) 0.055(2)
C4 C -0.263(4) 0.7095(14) 0.0192(10)
C5 C -0.148(5) 0.6231(17) 0.0772(15)
C6 C -0.185(4) 0.6288(16) 0.1599(14)
C7 C -0.194(3) 0.6917(12) -0.0775(8)
C8 C 0.102(4) 0.4528(15) 0.1092(14)
S2 S 0.5140(17) 0.3319(5) -0.2108(3)
N2 N 0.483(4) 0.3056(11) -0.0484(12)
N4 N 0.233(6) 0.4754(18) -0.1057(15)
C9 C 0.391(7) 0.382(2) -0.1144(11)
C10 C 0.769(4) 0.1246(14) -0.0239(18)
C11 C 0.908(5) 0.0397(17) -0.0591(11)
C12 C 0.972(7) 0.030(2) -0.145(2)
C13 C 0.835(9) 0.119(3) -0.193(2)
C14 C 0.700(4) 0.2172(16) -0.1611(10)
C15 C 0.652(4) 0.2134(16) -0.0730(8)
C16 C 0.686(4) 0.1340(16) 0.0743(10)
loop_
_geom_bond_atom_site_label_1
_geom_bond_atom_site_label_2
_geom_bond_site_symmetry_1
_geom_bond_site_symmetry_2
S1 C6 1_555 1_555
S2 C9 1_555 1_555
N1 C5 1_555 1_555
N2 C9 1_555 1_555
N3 C8 1_555 1_555
N4 C9 1_555 1_555
C1 C2 1_555 1_555
C2 C3 1_555 1_555
C3 C4 1_555 1_555
C4 C5 1_555 1_555
C5 C6 1_555 1_555
C6 C1 1_555 1_555
C7 C4 1_555 1_555
C8 S1 1_555 1_555
C10 C11 1_555 1_555
C11 C12 1_555 1_555
C12 C13 1_555 1_555
C13 C14 1_555 1_555
C14 S2 1_555 1_555
C15 N2 1_555 1_555
C16 C10 1_555 1_555
N1 C8 1_555 1_555
C10 C15 1_555 1_555
C14 C15 1_555 1_555

#END
