
#######################################################################
#
#                 Cambridge Crystallographic Data Centre
#                                CCDC 
#
#######################################################################
#
# If this CIF has been generated from an entry in the Cambridge 
# Structural Database, then it will include bibliographic, chemical, 
# crystal, experimental, refinement or atomic coordinate data resulting 
# from the CCDC's data processing and validation procedures.
#
#######################################################################

data_VAHNID
_chemical_formula_moiety         'C27 H22 Br1 N1 O2'
_chemical_name_systematic        
(1S,6R)-1'-Benzyl-6-(4-bromophenyl)-2-methyl-4H-spiro[cyclohex-2-ene-1,3'-indole]-2',4(1'H)-dione
_symmetry_cell_setting           orthorhombic
_symmetry_space_group_name_H-M   'P 21 21 2'
_symmetry_Int_Tables_number      18
_space_group_name_Hall           'P 2 2ab'
loop_
_symmetry_equiv_pos_site_id
_symmetry_equiv_pos_as_xyz
1 x,y,z
2 -x,-y,z
3 1/2-x,1/2+y,-z
4 1/2+x,1/2-y,-z
_cell_length_a                   14.772(2)
_cell_length_b                   11.1689(17)
_cell_length_c                   13.281(2)
_cell_angle_alpha                90
_cell_angle_beta                 90
_cell_angle_gamma                90
_cell_volume                     2191.19
_exptl_crystal_colour            colorless
_exptl_crystal_description       block
_cell_formula_units_Z            4
loop_
_atom_site_label
_atom_site_type_symbol
_atom_site_fract_x
_atom_site_fract_y
_atom_site_fract_z
Br1 Br 0.580917(18) 0.18228(2) 0.091808(18)
O1 O 0.31690(9) 0.54989(12) 0.41474(12)
O2 O 0.35858(10) 0.33249(16) 0.72595(10)
N1 N 0.21965(12) 0.47487(16) 0.29570(13)
C1 C 0.17005(15) 0.3682(2) 0.28089(17)
C2 C 0.11367(14) 0.3391(2) 0.20152(15)
H1 H 0.1047 0.3926 0.1468
C3 C 0.07079(16) 0.2288(2) 0.20481(16)
H2 H 0.0313 0.2065 0.1515
C4 C 0.08423(16) 0.15109(19) 0.28370(15)
H3 H 0.0550 0.0753 0.2834
C5 C 0.14005(13) 0.1820(2) 0.36395(15)
H4 H 0.1487 0.1289 0.4190
C6 C 0.18266(14) 0.29250(19) 0.36146(15)
C7 C 0.24456(14) 0.35180(17) 0.43793(14)
C8 C 0.26694(15) 0.4715(2) 0.38413(17)
C9 C 0.19305(14) 0.37968(19) 0.53517(17)
C10 C 0.23125(15) 0.37135(19) 0.62529(16)
H5 H 0.1943 0.3854 0.6827
C11 C 0.32687(15) 0.3419(2) 0.64201(16)
C12 C 0.38382(13) 0.3288(2) 0.54858(13)
H6 H 0.4357 0.2756 0.5636
H7 H 0.4083 0.4082 0.5298
C13 C 0.33141(14) 0.27784(19) 0.45964(14)
H8 H 0.3104 0.1965 0.4808
C14 C 0.39074(14) 0.25904(19) 0.36748(15)
C15 C 0.37164(13) 0.1671(2) 0.29937(15)
H9 H 0.3195 0.1189 0.3098
C16 C 0.42667(15) 0.14440(18) 0.21707(15)
H10 H 0.4123 0.0815 0.1716
C17 C 0.50226(15) 0.2139(2) 0.20195(15)
C18 C 0.52344(14) 0.3057(2) 0.26734(16)
H11 H 0.5756 0.3536 0.2563
C19 C 0.46765(13) 0.3271(2) 0.34934(15)
H12 H 0.4825 0.3901 0.3944
C20 C 0.22350(15) 0.5722(2) 0.22307(16)
H13 H 0.2584 0.6393 0.2525
H14 H 0.1613 0.6013 0.2102
C21 C 0.26621(16) 0.5370(2) 0.12422(16)
C22 C 0.23791(18) 0.5904(2) 0.03593(18)
H15 H 0.1897 0.6466 0.0376
C23 C 0.27865(19) 0.5632(3) -0.05476(19)
H16 H 0.2589 0.6013 -0.1149
C24 C 0.3484(2) 0.4803(3) -0.0579(2)
H17 H 0.3759 0.4603 -0.1203
C25 C 0.37768(19) 0.4269(2) 0.02992(19)
H18 H 0.4262 0.3711 0.0284
C26 C 0.33608(17) 0.4551(2) 0.12017(17)
H19 H 0.3559 0.4174 0.1804
C27 C 0.09660(14) 0.42140(18) 0.52404(15)
H20 H 0.0596 0.3562 0.4967
H21 H 0.0945 0.4900 0.4781
H22 H 0.0729 0.4451 0.5900
loop_
_geom_bond_atom_site_label_1
_geom_bond_atom_site_label_2
_geom_bond_site_symmetry_1
_geom_bond_site_symmetry_2
Br1 C17 1_555 1_555
O1 C8 1_555 1_555
O2 C11 1_555 1_555
N1 C1 1_555 1_555
C1 C2 1_555 1_555
C2 H1 1_555 1_555
C3 C2 1_555 1_555
H2 C3 1_555 1_555
C4 C3 1_555 1_555
H3 C4 1_555 1_555
C5 C4 1_555 1_555
H4 C5 1_555 1_555
C6 C1 1_555 1_555
C7 C6 1_555 1_555
C8 N1 1_555 1_555
C9 C7 1_555 1_555
C10 C9 1_555 1_555
H5 C10 1_555 1_555
C11 C10 1_555 1_555
C12 C11 1_555 1_555
H6 C12 1_555 1_555
H7 C12 1_555 1_555
C13 C7 1_555 1_555
H8 C13 1_555 1_555
C14 C13 1_555 1_555
C15 C14 1_555 1_555
H9 C15 1_555 1_555
C16 C15 1_555 1_555
H10 C16 1_555 1_555
C17 C16 1_555 1_555
C18 C17 1_555 1_555
H11 C18 1_555 1_555
C19 C14 1_555 1_555
H12 C19 1_555 1_555
C20 N1 1_555 1_555
H13 C20 1_555 1_555
H14 C20 1_555 1_555
C21 C20 1_555 1_555
C22 C21 1_555 1_555
H15 C22 1_555 1_555
C23 C22 1_555 1_555
H16 C23 1_555 1_555
C24 C23 1_555 1_555
H17 C24 1_555 1_555
C25 C24 1_555 1_555
H18 C25 1_555 1_555
C26 C21 1_555 1_555
H19 C26 1_555 1_555
C27 C9 1_555 1_555
H20 C27 1_555 1_555
H21 C27 1_555 1_555
H22 C27 1_555 1_555
C5 C6 1_555 1_555
C7 C8 1_555 1_555
C12 C13 1_555 1_555
C18 C19 1_555 1_555
C25 C26 1_555 1_555

#END
