
#######################################################################
#
#                 Cambridge Crystallographic Data Centre
#                                CCDC 
#
#######################################################################
#
# If this CIF has been generated from an entry in the Cambridge 
# Structural Database, then it will include bibliographic, chemical, 
# crystal, experimental, refinement or atomic coordinate data resulting 
# from the CCDC's data processing and validation procedures.
#
#######################################################################

data_VAHROM
_chemical_formula_moiety         'C18 H22 O5'
_chemical_name_systematic        
'exo-Dimethyl 15-oxatetracyclo(10.2.1.0^2,11^.0^3,10^)pentadeca-3(10),13-diene-13,14-dicarboxylate'
_symmetry_cell_setting           monoclinic
_symmetry_space_group_name_H-M   'P 21/n'
_symmetry_Int_Tables_number      14
_space_group_name_Hall           '-P 2yn'
loop_
_symmetry_equiv_pos_site_id
_symmetry_equiv_pos_as_xyz
1 x,y,z
2 1/2-x,1/2+y,1/2-z
3 -x,-y,-z
4 1/2+x,1/2-y,1/2+z
_cell_length_a                   7.838(6)
_cell_length_b                   30.02(1)
_cell_length_c                   7.759(7)
_cell_angle_alpha                90
_cell_angle_beta                 113.18(6)
_cell_angle_gamma                90
_cell_volume                     1678.29
_chemical_melting_point          '114.0-115.0 deg.C'
_cell_formula_units_Z            4
loop_
_atom_site_label
_atom_site_type_symbol
_atom_site_fract_x
_atom_site_fract_y
_atom_site_fract_z
O1 O 1.0658(7) 0.0894(2) 0.8885(7)
O2 O 0.4845(8) 0.0763(3) 0.7010(9)
O3 O 0.4952(8) 0.0600(2) 0.4268(8)
O4 O 0.871(1) 0.0973(2) 0.2790(8)
O5 O 0.8026(9) 0.0266(2) 0.3430(8)
C1 C 1.065(1) 0.1017(3) 0.710(1)
C2 C 1.025(1) 0.1526(3) 0.703(1)
C3 C 1.157(1) 0.1794(4) 0.862(1)
C4 C 1.353(2) 0.1935(5) 0.890(2)
C5 C 1.485(2) 0.194(1) 1.061(2)
C6 C 1.513(2) 0.1830(9) 1.236(2)
C7 C 1.398(2) 0.1850(7) 1.336(2)
C8 C 1.234(2) 0.2138(5) 1.275(2)
C9 C 1.057(1) 0.1985(3) 1.139(1)
C10 C 1.046(1) 0.1814(3) 0.957(1)
C11 C 0.893(1) 0.1543(3) 0.811(1)
C12 C 0.879(1) 0.1065(3) 0.854(1)
C13 C 0.771(1) 0.0836(3) 0.669(1)
C14 C 0.885(1) 0.0809(3) 0.581(1)
C15 C 0.571(1) 0.0734(3) 0.607(1)
C16 C 0.301(1) 0.0503(4) 0.347(1)
C17 C 0.848(1) 0.0685(3) 0.382(1)
C18 C 0.760(2) 0.0121(4) 0.152(1)
H1 H 1.1758 0.0928 0.6900
H2 H 0.9829 0.1658 0.5797
H3 H 1.3868 0.1797 0.7949
H4 H 1.3486 0.2262 0.8592
H5 H 1.5391 0.1596 1.0449
H6 H 1.5754 0.2104 1.0735
H7 H 1.5829 0.1552 1.2815
H8 H 1.6020 0.2065 1.3080
H9 H 1.3398 0.1535 1.3196
H10 H 1.4633 0.1876 1.4659
H11 H 1.2176 0.2280 1.3759
H12 H 1.2671 0.2401 1.2068
H13 H 1.0236 0.1742 1.2016
H14 H 0.9641 0.2212 1.1154
H15 H 0.7744 0.1697 0.7476
H16 H 0.8378 0.1007 0.9540
H17 H 0.2294 0.0780 0.3502
H18 H 0.2568 0.0421 0.2198
H19 H 0.2658 0.0289 0.4165
H20 H 0.6608 0.0281 0.0639
H21 H 0.8680 0.0158 0.1204
H22 H 0.7303 -0.0194 0.1369
loop_
_geom_bond_atom_site_label_1
_geom_bond_atom_site_label_2
_geom_bond_site_symmetry_1
_geom_bond_site_symmetry_2
O1 C1 1_555 1_555
O2 C15 1_555 1_555
O3 C15 1_555 1_555
O4 C17 1_555 1_555
O5 C17 1_555 1_555
C1 C2 1_555 1_555
C2 C3 1_555 1_555
C3 C4 1_555 1_555
C4 C5 1_555 1_555
C5 C6 1_555 1_555
C6 C7 1_555 1_555
C7 C8 1_555 1_555
C8 C9 1_555 1_555
C9 C10 1_555 1_555
C10 C3 1_555 1_555
C11 C2 1_555 1_555
C12 O1 1_555 1_555
C13 C12 1_555 1_555
C14 C1 1_555 1_555
C15 C13 1_555 1_555
C16 O3 1_555 1_555
C17 C14 1_555 1_555
C18 O5 1_555 1_555
H1 C1 1_555 1_555
H2 C2 1_555 1_555
H3 C4 1_555 1_555
H4 C4 1_555 1_555
H5 C5 1_555 1_555
H6 C5 1_555 1_555
H7 C6 1_555 1_555
H8 C6 1_555 1_555
H9 C7 1_555 1_555
H10 C7 1_555 1_555
H11 C8 1_555 1_555
H12 C8 1_555 1_555
H13 C9 1_555 1_555
H14 C9 1_555 1_555
H15 C11 1_555 1_555
H16 C12 1_555 1_555
H17 C16 1_555 1_555
H18 C16 1_555 1_555
H19 C16 1_555 1_555
H20 C18 1_555 1_555
H21 C18 1_555 1_555
H22 C18 1_555 1_555
C10 C11 1_555 1_555
C11 C12 1_555 1_555
C13 C14 1_555 1_555

#END
