
#######################################################################
#
#                 Cambridge Crystallographic Data Centre
#                                CCDC 
#
#######################################################################
#
# If this CIF has been generated from an entry in the Cambridge 
# Structural Database, then it will include bibliographic, chemical, 
# crystal, experimental, refinement or atomic coordinate data resulting 
# from the CCDC's data processing and validation procedures.
#
#######################################################################

data_VAHXAD
_chemical_formula_moiety         'C10 H16 O2'
_chemical_name_systematic        Tricyclo(4.3.1.0^3,7^)decane-3,exo-8-diol
_symmetry_cell_setting           triclinic
_symmetry_space_group_name_H-M   'P -1'
_symmetry_Int_Tables_number      2
_space_group_name_Hall           '-P 1'
loop_
_symmetry_equiv_pos_site_id
_symmetry_equiv_pos_as_xyz
1 x,y,z
2 -x,-y,-z
_cell_length_a                   6.929(4)
_cell_length_b                   10.736(7)
_cell_length_c                   6.594(3)
_cell_angle_alpha                93.96(5)
_cell_angle_beta                 114.95(4)
_cell_angle_gamma                81.39(5)
_cell_volume                     439.726
_exptl_crystal_colour            colorless
_chemical_melting_point          252-253deg.C
_cell_formula_units_Z            2
loop_
_atom_site_label
_atom_site_type_symbol
_atom_site_fract_x
_atom_site_fract_y
_atom_site_fract_z
C1 C -0.1689(3) 0.7114(2) -0.0018(3)
C2 C 0.0357(3) 0.7615(2) 0.0242(3)
C3 C 0.1599(3) 0.8039(1) 0.2679(3)
O1 O 0.2335(2) 0.9226(1) 0.2744(2)
C4 C 0.3417(3) 0.7021(2) 0.4071(3)
C5 C 0.2416(3) 0.6250(2) 0.5168(3)
C6 C 0.0018(3) 0.6755(2) 0.4144(3)
C7 C 0.0058(3) 0.8157(1) 0.3827(3)
C8 C -0.2100(3) 0.8909(2) 0.2435(3)
O2 O -0.3442(2) 0.9090(1) 0.3626(3)
C9 C -0.3236(3) 0.8212(2) 0.0243(3)
C10 C -0.1181(3) 0.6160(2) 0.1811(3)
H1 H -0.2296 0.6713 -0.1455
H2 H 0.1252 0.6965 -0.0150
H3 H -0.0023 0.8323 -0.0730
H4 H 0.3560(38) 0.9180(20) 0.2727(38)
H5 H 0.3943 0.6497 0.3131
H6 H 0.4577 0.7409 0.5204
H7 H 0.3022 0.6368 0.6754
H8 H 0.2630 0.5370 0.4818
H9 H -0.0698 0.6582 0.5041
H10 H 0.0482 0.8622 0.5214
H11 H -0.1851 0.9717 0.2133
H12 H -0.2878(39) 0.9535(22) 0.4693(40)
H13 H -0.3695 0.8783 -0.0984
H14 H -0.4457 0.7904 0.0256
H15 H -0.2500 0.5921 0.1715
H16 H -0.0296 0.5430 0.1610
loop_
_geom_bond_atom_site_label_1
_geom_bond_atom_site_label_2
_geom_bond_site_symmetry_1
_geom_bond_site_symmetry_2
C1 C2 1_555 1_555
C2 C3 1_555 1_555
C3 O1 1_555 1_555
O1 H4 1_555 1_555
C4 C3 1_555 1_555
C5 C4 1_555 1_555
C6 C5 1_555 1_555
C7 C3 1_555 1_555
C8 C7 1_555 1_555
O2 C8 1_555 1_555
C9 C1 1_555 1_555
C10 C1 1_555 1_555
H1 C1 1_555 1_555
H2 C2 1_555 1_555
H3 C2 1_555 1_555
H5 C4 1_555 1_555
H6 C4 1_555 1_555
H7 C5 1_555 1_555
H8 C5 1_555 1_555
H9 C6 1_555 1_555
H10 C7 1_555 1_555
H11 C8 1_555 1_555
H12 O2 1_555 1_555
H13 C9 1_555 1_555
H14 C9 1_555 1_555
H15 C10 1_555 1_555
H16 C10 1_555 1_555
C6 C7 1_555 1_555
C6 C10 1_555 1_555
C8 C9 1_555 1_555

#END
