
#######################################################################
#
#                 Cambridge Crystallographic Data Centre
#                                CCDC 
#
#######################################################################
#
# If this CIF has been generated from an entry in the Cambridge 
# Structural Database, then it will include bibliographic, chemical, 
# crystal, experimental, refinement or atomic coordinate data resulting 
# from the CCDC's data processing and validation procedures.
#
#######################################################################

data_VAHXOS
_chemical_formula_moiety         'C13 H23 N1 O4 S2'
_chemical_name_systematic        
N-t-Butoxycarbonyl-bis(2-(thioacetoxy)ethyl)amine
_symmetry_cell_setting           monoclinic
_symmetry_space_group_name_H-M   'P 21/c'
_symmetry_Int_Tables_number      14
_space_group_name_Hall           '-P 2ybc'
loop_
_symmetry_equiv_pos_site_id
_symmetry_equiv_pos_as_xyz
1 x,y,z
2 -x,1/2+y,1/2-z
3 -x,-y,-z
4 x,1/2-y,1/2+z
_cell_length_a                   8.9755(12)
_cell_length_b                   22.587(3)
_cell_length_c                   8.6881(12)
_cell_angle_alpha                90
_cell_angle_beta                 100.699(2)
_cell_angle_gamma                90
_cell_volume                     1730.72
_exptl_crystal_colour            red-brown
_exptl_crystal_description       plate
_cell_formula_units_Z            4
_exptl_crystal_recrystallization_method 'ethyl acetate/hexane 1:9'
loop_
_atom_site_label
_atom_site_type_symbol
_atom_site_fract_x
_atom_site_fract_y
_atom_site_fract_z
S1 S 0.4429(1) 0.7046(1) 0.7220(1)
S2 S 1.2445(1) 0.6465(1) 1.0831(1)
O1 O 0.5336(3) 0.5999(1) 0.8276(3)
O2 O 1.0655(3) 0.5737(1) 0.9040(3)
O3 O 1.0012(2) 0.8269(1) 1.0523(2)
O4 O 0.7924(2) 0.8394(1) 0.8641(2)
N1 N 0.8729(2) 0.7485(1) 0.9309(2)
C1 C 0.3236(4) 0.5982(2) 0.6146(4)
C2 C 0.4448(3) 0.6268(1) 0.7349(3)
C3 C 0.6004(3) 0.7239(1) 0.8726(3)
C4 C 0.7484(3) 0.7255(1) 0.8137(3)
C5 C 0.9754(3) 0.7070(1) 1.0257(3)
C6 C 1.1181(3) 0.6967(1) 0.9619(3)
C7 C 1.1700(3) 0.5777(1) 1.0105(3)
C8 C 1.2506(4) 0.5256(2) 1.0934(4)
C9 C 0.8984(3) 0.8069(1) 0.9576(3)
C10 C 0.7906(3) 0.9044(1) 0.8743(3)
C11 C 0.7768(4) 0.9235(1) 1.0381(4)
C12 C 0.6486(4) 0.9196(1) 0.7578(4)
C13 C 0.9279(3) 0.9299(1) 0.8257(4)
loop_
_geom_bond_atom_site_label_1
_geom_bond_atom_site_label_2
_geom_bond_site_symmetry_1
_geom_bond_site_symmetry_2
S1 C2 1_555 1_555
S2 C6 1_555 1_555
O1 C2 1_555 1_555
O2 C7 1_555 1_555
O3 C9 1_555 1_555
O4 C9 1_555 1_555
N1 C4 1_555 1_555
C1 C2 1_555 1_555
C3 S1 1_555 1_555
C4 C3 1_555 1_555
C5 N1 1_555 1_555
C6 C5 1_555 1_555
C7 S2 1_555 1_555
C8 C7 1_555 1_555
C9 N1 1_555 1_555
C10 O4 1_555 1_555
C11 C10 1_555 1_555
C12 C10 1_555 1_555
C13 C10 1_555 1_555

#END
