
#######################################################################
#
#                 Cambridge Crystallographic Data Centre
#                                CCDC 
#
#######################################################################
#
# If this CIF has been generated from an entry in the Cambridge 
# Structural Database, then it will include bibliographic, chemical, 
# crystal, experimental, refinement or atomic coordinate data resulting 
# from the CCDC's data processing and validation procedures.
#
#######################################################################

data_VAHYAH
_chemical_formula_moiety         'C18 H24 N4 O5'
_chemical_name_systematic        
'diisopropyl 3-acetyl-5-phenyl-3,6-dihydro-1,2,3,4-tetrazine-1,2-dicarboxylate'
_symmetry_cell_setting           monoclinic
_symmetry_space_group_name_H-M   'P 21/c'
_symmetry_Int_Tables_number      14
_space_group_name_Hall           '-P 2ybc'
loop_
_symmetry_equiv_pos_site_id
_symmetry_equiv_pos_as_xyz
1 x,y,z
2 -x,1/2+y,1/2-z
3 -x,-y,-z
4 x,1/2-y,1/2+z
_cell_length_a                   10.454(5)
_cell_length_b                   21.985(9)
_cell_length_c                   8.731(4)
_cell_angle_alpha                90
_cell_angle_beta                 102.524(11)
_cell_angle_gamma                90
_cell_volume                     1958.91
_exptl_crystal_colour            colorless
_exptl_crystal_description       Prism
_cell_formula_units_Z            4
loop_
_atom_site_label
_atom_site_type_symbol
_atom_site_fract_x
_atom_site_fract_y
_atom_site_fract_z
O1 O 0.05176(13) 0.70118(6) 0.62665(15)
O2 O 0.06919(12) 0.60080(6) 0.57563(14)
O3 O -0.01391(12) 0.65592(6) 0.23271(15)
O4 O 0.12012(13) 0.62151(6) 0.07936(15)
O5 O 0.32035(15) 0.52433(6) 0.3127(2)
N1 N 0.18247(15) 0.66957(7) 0.46845(17)
N2 N 0.19038(14) 0.62777(7) 0.34974(17)
N3 N 0.32000(15) 0.62652(7) 0.33064(18)
N4 N 0.37987(15) 0.68099(7) 0.31257(18)
C1 C 0.21167(18) 0.73157(8) 0.4299(2)
H1 H 0.2323 0.7566 0.5264
H2 H 0.1350 0.7497 0.3575
C2 C 0.32792(18) 0.72993(8) 0.3530(2)
C3 C 0.38832(18) 0.78821(8) 0.3204(2)
C4 C 0.3462(2) 0.84383(9) 0.3677(2)
H3 H 0.2803 0.8449 0.4274
C5 C 0.3998(2) 0.89761(9) 0.3283(2)
H4 H 0.3701 0.9353 0.3608
C6 C 0.49631(19) 0.89701(9) 0.2418(2)
H5 H 0.5328 0.9340 0.2147
C7 C 0.53888(19) 0.84184(9) 0.1955(2)
H6 H 0.6055 0.8411 0.1368
C8 C 0.48621(18) 0.78825(9) 0.2333(2)
H7 H 0.5164 0.7508 0.2001
C9 C 0.3772(2) 0.57172(9) 0.3080(2)
C10 C 0.5137(2) 0.57664(10) 0.2789(3)
H8 H 0.5495 0.5358 0.2720
H9 H 0.5695 0.5989 0.3656
H10 H 0.5108 0.5985 0.1804
C11 C 0.09732(18) 0.63530(8) 0.2036(2)
C12 C -0.12234(19) 0.66500(10) 0.0950(2)
H11 H -0.0872 0.6820 0.0061
C13 C -0.1878(2) 0.60490(11) 0.0475(3)
H12 H -0.1247 0.5770 0.0168
H13 H -0.2620 0.6110 -0.0414
H14 H -0.2193 0.5876 0.1360
C14 C -0.2111(2) 0.71109(11) 0.1471(3)
H15 H -0.2424 0.6950 0.2370
H16 H -0.2860 0.7193 0.0607
H17 H -0.1624 0.7489 0.1775
C15 C 0.09396(17) 0.65934(8) 0.5621(2)
C16 C -0.02586(19) 0.58578(9) 0.6719(2)
H18 H -0.0174 0.6156 0.7600
C17 C 0.0099(2) 0.52332(10) 0.7372(2)
H19 H 0.0015 0.4941 0.6508
H20 H -0.0491 0.5116 0.8054
H21 H 0.1004 0.5235 0.7980
C18 C -0.1615(2) 0.58992(10) 0.5688(3)
H22 H -0.1769 0.6313 0.5275
H23 H -0.2266 0.5799 0.6306
H24 H -0.1692 0.5612 0.4815
loop_
_geom_bond_atom_site_label_1
_geom_bond_atom_site_label_2
_geom_bond_site_symmetry_1
_geom_bond_site_symmetry_2
O1 C15 1_555 1_555
O2 C15 1_555 1_555
O3 C11 1_555 1_555
O4 C11 1_555 1_555
O5 C9 1_555 1_555
N1 N2 1_555 1_555
N2 N3 1_555 1_555
N3 N4 1_555 1_555
N4 C2 1_555 1_555
C1 N1 1_555 1_555
H1 C1 1_555 1_555
H2 C1 1_555 1_555
C2 C1 1_555 1_555
C3 C2 1_555 1_555
C4 C3 1_555 1_555
H3 C4 1_555 1_555
C5 C4 1_555 1_555
H4 C5 1_555 1_555
C6 C5 1_555 1_555
H5 C6 1_555 1_555
C7 C6 1_555 1_555
H6 C7 1_555 1_555
C8 C3 1_555 1_555
H7 C8 1_555 1_555
C9 N3 1_555 1_555
C10 C9 1_555 1_555
H8 C10 1_555 1_555
H9 C10 1_555 1_555
H10 C10 1_555 1_555
C11 N2 1_555 1_555
C12 O3 1_555 1_555
H11 C12 1_555 1_555
C13 C12 1_555 1_555
H12 C13 1_555 1_555
H13 C13 1_555 1_555
H14 C13 1_555 1_555
C14 C12 1_555 1_555
H15 C14 1_555 1_555
H16 C14 1_555 1_555
H17 C14 1_555 1_555
C15 N1 1_555 1_555
C16 O2 1_555 1_555
H18 C16 1_555 1_555
C17 C16 1_555 1_555
H19 C17 1_555 1_555
H20 C17 1_555 1_555
H21 C17 1_555 1_555
C18 C16 1_555 1_555
H22 C18 1_555 1_555
H23 C18 1_555 1_555
H24 C18 1_555 1_555
C7 C8 1_555 1_555

#END
