
#######################################################################
#
#                 Cambridge Crystallographic Data Centre
#                                CCDC 
#
#######################################################################
#
# If this CIF has been generated from an entry in the Cambridge 
# Structural Database, then it will include bibliographic, chemical, 
# crystal, experimental, refinement or atomic coordinate data resulting 
# from the CCDC's data processing and validation procedures.
#
#######################################################################

data_VAJBIU
_chemical_formula_moiety         'C56 H38,C1 H1 Cl3'
_chemical_name_systematic        
"1,1'-Buta-1,3-diyne-1,4-diylbis(4-(triphenylvinyl)benzene) chloroform solvate"
_symmetry_cell_setting           monoclinic
_symmetry_space_group_name_H-M   'P 21/c'
_symmetry_Int_Tables_number      14
_space_group_name_Hall           '-P 2ybc'
loop_
_symmetry_equiv_pos_site_id
_symmetry_equiv_pos_as_xyz
1 x,y,z
2 -x,1/2+y,1/2-z
3 -x,-y,-z
4 x,1/2-y,1/2+z
_cell_length_a                   9.65924(8)
_cell_length_b                   9.12014(9)
_cell_length_c                   50.6162(5)
_cell_angle_alpha                90
_cell_angle_beta                 91.6555(9)
_cell_angle_gamma                90
_cell_volume                     4457.1
_exptl_crystal_colour            colorless
_exptl_crystal_description       plate
_cell_formula_units_Z            4
loop_
_atom_site_label
_atom_site_type_symbol
_atom_site_fract_x
_atom_site_fract_y
_atom_site_fract_z
C1 C 0.4059(4) 0.2575(4) 0.50746(6)
C2 C 0.3820(4) 0.2962(4) 0.52964(7)
C3 C 0.3581(4) 0.3373(4) 0.55512(6)
C4 C 0.3403(4) 0.3705(4) 0.57790(6)
C5 C 0.5262(3) 0.0670(3) 0.40277(5)
C6 C 0.5008(3) 0.1145(3) 0.43040(6)
C7 C 0.5363(3) 0.2555(4) 0.43909(6)
H1 H 0.5822 0.3201 0.4275
C8 C 0.5059(4) 0.3027(4) 0.46418(6)
H2 H 0.5316 0.3987 0.4697
C9 C 0.4374(4) 0.2095(4) 0.48142(6)
C10 C 0.4017(4) 0.0678(4) 0.47307(6)
H3 H 0.3560 0.0032 0.4847
C11 C 0.4330(3) 0.0219(4) 0.44797(6)
H4 H 0.4081 -0.0744 0.4425
C12 C 0.6497(3) 0.0899(3) 0.39131(5)
C13 C 0.7760(3) 0.1330(3) 0.40728(6)
C14 C 0.8549(3) 0.2538(4) 0.40033(6)
H5 H 0.8285 0.3094 0.3851
C15 C 0.9717(3) 0.2944(4) 0.41521(7)
H6 H 1.0235 0.3785 0.4105
C16 C 1.0120(4) 0.2117(5) 0.43702(7)
H7 H 1.0917 0.2393 0.4473
C17 C 0.9372(4) 0.0896(5) 0.44392(7)
H8 H 0.9667 0.0324 0.4587
C18 C 0.8186(3) 0.0494(4) 0.42933(6)
H9 H 0.7668 -0.0342 0.4343
C19 C 0.4055(3) -0.0058(3) 0.38930(6)
C20 C 0.2711(3) 0.0417(4) 0.39397(6)
H10 H 0.2576 0.1252 0.4048
C21 C 0.1570(3) -0.0305(4) 0.38309(7)
H11 H 0.0662 0.0030 0.3866
C22 C 0.1755(3) -0.1513(4) 0.36718(7)
H12 H 0.0974 -0.2010 0.3597
C23 C 0.3080(3) -0.2000(4) 0.36217(7)
H13 H 0.3207 -0.2826 0.3511
C24 C 0.4220(3) -0.1289(3) 0.37330(6)
H14 H 0.5124 -0.1642 0.3700
C25 C 0.6719(3) 0.0724(3) 0.36246(5)
C26 C 0.5799(3) 0.1294(3) 0.34332(6)
H15 H 0.4983 0.1781 0.3487
C27 C 0.6058(3) 0.1161(4) 0.31659(6)
H16 H 0.5423 0.1558 0.3038
C28 C 0.7245(3) 0.0450(4) 0.30847(6)
H17 H 0.7428 0.0367 0.2902
C29 C 0.8153(3) -0.0135(3) 0.32717(6)
H18 H 0.8957 -0.0639 0.3217
C30 C 0.7902(3) 0.0008(3) 0.35379(6)
H19 H 0.8545 -0.0388 0.3664
C31 C 0.2795(3) 0.4503(3) 0.68916(5)
C32 C 0.2893(3) 0.4396(3) 0.65993(5)
C33 C 0.4075(3) 0.4899(3) 0.64738(6)
H20 H 0.4785 0.5373 0.6576
C34 C 0.4233(3) 0.4720(3) 0.62046(6)
H21 H 0.5040 0.5081 0.6123
C35 C 0.3200(3) 0.4005(3) 0.60514(6)
C36 C 0.2007(3) 0.3521(3) 0.61744(6)
H22 H 0.1292 0.3055 0.6073
C37 C 0.1860(3) 0.3716(3) 0.64425(6)
H23 H 0.1041 0.3381 0.6523
C38 C 0.1604(3) 0.4829(3) 0.70167(5)
C39 C 0.0351(3) 0.5388(3) 0.68712(5)
C40 C 0.0445(3) 0.6539(3) 0.66919(6)
H24 H 0.1317 0.6981 0.6663
C41 C -0.0731(3) 0.7044(3) 0.65555(6)
H25 H -0.0656 0.7827 0.6433
C42 C -0.2009(3) 0.6413(4) 0.65973(6)
H26 H -0.2806 0.6746 0.6501
C43 C -0.2120(3) 0.5292(3) 0.67809(6)
H27 H -0.2999 0.4872 0.6813
C44 C -0.0950(3) 0.4786(3) 0.69169(5)
H28 H -0.1033 0.4020 0.7043
C45 C 0.4111(3) 0.4187(3) 0.70440(5)
C46 C 0.4831(3) 0.2880(3) 0.70028(5)
H29 H 0.4520 0.2220 0.6869
C47 C 0.5998(3) 0.2544(3) 0.71570(6)
H30 H 0.6469 0.1644 0.7131
C48 C 0.6484(3) 0.3521(4) 0.73510(6)
H31 H 0.7277 0.3285 0.7458
C49 C 0.5798(3) 0.4836(3) 0.73857(6)
H32 H 0.6135 0.5514 0.7515
C50 C 0.4623(3) 0.5172(3) 0.72335(5)
H33 H 0.4163 0.6080 0.7259
C51 C 0.1485(3) 0.4689(3) 0.73093(5)
C52 C 0.2003(3) 0.3477(3) 0.74485(6)
H34 H 0.2437 0.2708 0.7355
C53 C 0.1893(3) 0.3378(3) 0.77202(6)
H35 H 0.2272 0.2556 0.7812
C54 C 0.1230(3) 0.4478(4) 0.78589(6)
H36 H 0.1157 0.4414 0.8045
C55 C 0.0678(3) 0.5669(3) 0.77218(6)
H37 H 0.0216 0.6419 0.7815
C56 C 0.0794(3) 0.5775(3) 0.74499(6)
H38 H 0.0400 0.6591 0.7358
C57 C 0.9004(14) 0.3866(15) 0.5340(3)
Cl1 Cl 1.0208(6) 0.3558(7) 0.54495(11)
Cl2 Cl 0.8283(14) 0.2457(15) 0.5103(2)
Cl3 Cl 0.7441(7) 0.3830(7) 0.56304(12)
Cl4? Cl 0.8071(8) 0.4835(8) 0.52039(16)
Cl5? Cl 0.7592(9) 0.4821(10) 0.53571(19)
Cl6? Cl 1.0291(14) 0.2763(13) 0.5132(2)
Cl7? Cl 0.9418(11) 0.2493(10) 0.50787(17)
Cl8? Cl 0.8875(4) 0.2738(5) 0.56300(7)
Cl9? Cl 0.8182(15) 0.3289(17) 0.5023(3)
C58? C 0.7615(11) 0.3199(13) 0.5121(2)
C59? C 0.835(2) 0.339(2) 0.5584(3)
loop_
_geom_bond_atom_site_label_1
_geom_bond_atom_site_label_2
_geom_bond_site_symmetry_1
_geom_bond_site_symmetry_2
C1 C2 1_555 1_555
C2 C3 1_555 1_555
C3 C4 1_555 1_555
C4 C35 1_555 1_555
C5 C6 1_555 1_555
C6 C7 1_555 1_555
C7 H1 1_555 1_555
C8 C7 1_555 1_555
H2 C8 1_555 1_555
C9 C1 1_555 1_555
C10 C9 1_555 1_555
H3 C10 1_555 1_555
C11 C6 1_555 1_555
H4 C11 1_555 1_555
C12 C5 1_555 1_555
C13 C12 1_555 1_555
C14 C13 1_555 1_555
H5 C14 1_555 1_555
C15 C14 1_555 1_555
H6 C15 1_555 1_555
C16 C15 1_555 1_555
H7 C16 1_555 1_555
C17 C16 1_555 1_555
H8 C17 1_555 1_555
C18 C13 1_555 1_555
H9 C18 1_555 1_555
C19 C5 1_555 1_555
C20 C19 1_555 1_555
H10 C20 1_555 1_555
C21 C20 1_555 1_555
H11 C21 1_555 1_555
C22 C21 1_555 1_555
H12 C22 1_555 1_555
C23 C22 1_555 1_555
H13 C23 1_555 1_555
C24 C19 1_555 1_555
H14 C24 1_555 1_555
C25 C12 1_555 1_555
C26 C25 1_555 1_555
H15 C26 1_555 1_555
C27 C26 1_555 1_555
H16 C27 1_555 1_555
C28 C27 1_555 1_555
H17 C28 1_555 1_555
C29 C28 1_555 1_555
H18 C29 1_555 1_555
C30 C25 1_555 1_555
H19 C30 1_555 1_555
C31 C32 1_555 1_555
C32 C33 1_555 1_555
C33 H20 1_555 1_555
C34 C33 1_555 1_555
H21 C34 1_555 1_555
C35 C34 1_555 1_555
C36 C35 1_555 1_555
H22 C36 1_555 1_555
C37 C32 1_555 1_555
H23 C37 1_555 1_555
C38 C31 1_555 1_555
C39 C38 1_555 1_555
C40 C39 1_555 1_555
H24 C40 1_555 1_555
C41 C40 1_555 1_555
H25 C41 1_555 1_555
C42 C41 1_555 1_555
H26 C42 1_555 1_555
C43 C42 1_555 1_555
H27 C43 1_555 1_555
C44 C39 1_555 1_555
H28 C44 1_555 1_555
C45 C31 1_555 1_555
C46 C45 1_555 1_555
H29 C46 1_555 1_555
C47 C46 1_555 1_555
H30 C47 1_555 1_555
C48 C47 1_555 1_555
H31 C48 1_555 1_555
C49 C48 1_555 1_555
H32 C49 1_555 1_555
C50 C45 1_555 1_555
H33 C50 1_555 1_555
C51 C38 1_555 1_555
C52 C51 1_555 1_555
H34 C52 1_555 1_555
C53 C52 1_555 1_555
H35 C53 1_555 1_555
C54 C53 1_555 1_555
H36 C54 1_555 1_555
C55 C54 1_555 1_555
H37 C55 1_555 1_555
C56 C51 1_555 1_555
H38 C56 1_555 1_555
C57 Cl1 1_555 1_555
Cl2 C57 1_555 1_555
Cl3 C57 1_555 1_555
C8 C9 1_555 1_555
C10 C11 1_555 1_555
C17 C18 1_555 1_555
C23 C24 1_555 1_555
C29 C30 1_555 1_555
C36 C37 1_555 1_555
C43 C44 1_555 1_555
C49 C50 1_555 1_555
C55 C56 1_555 1_555

#END
