
#######################################################################
#
#                 Cambridge Crystallographic Data Centre
#                                CCDC 
#
#######################################################################
#
# If this CIF has been generated from an entry in the Cambridge 
# Structural Database, then it will include bibliographic, chemical, 
# crystal, experimental, refinement or atomic coordinate data resulting 
# from the CCDC's data processing and validation procedures.
#
#######################################################################

data_VAJGOF
_chemical_formula_moiety         
'C26 H23 O1 1+,B1 F4 1-,0.86(C2 H6 O1),0.14(H2 O1)'
_chemical_name_systematic        
'2,4,6-tris(4-methylphenyl)pyrylium tetrafluoroborate ethanol solvate hydrate'
_symmetry_cell_setting           monoclinic
_symmetry_space_group_name_H-M   'C 2/c'
_symmetry_Int_Tables_number      15
_space_group_name_Hall           '-C 2yn'
loop_
_symmetry_equiv_pos_site_id
_symmetry_equiv_pos_as_xyz
1 x,y,z
2 -x,y,1/2-z
3 1/2+x,1/2+y,z
4 1/2-x,1/2+y,1/2-z
5 -x,-y,-z
6 x,-y,1/2+z
7 1/2-x,1/2-y,-z
8 1/2+x,1/2-y,1/2+z
_cell_length_a                   28.830(3)
_cell_length_b                   17.142(2)
_cell_length_c                   14.8946(13)
_cell_angle_alpha                90
_cell_angle_beta                 98.207(6)
_cell_angle_gamma                90
_cell_volume                     7285.58
_exptl_crystal_colour            orange
_exptl_crystal_description       block
_cell_formula_units_Z            12
loop_
_atom_site_label
_atom_site_type_symbol
_atom_site_fract_x
_atom_site_fract_y
_atom_site_fract_z
C1 C 0.1714(2) 0.1283(3) 0.4077(5)
C2 C 0.2093(3) 0.1746(4) 0.3935(6)
H1 H 0.2376 0.1499 0.3830
C3 C 0.2075(3) 0.2544(3) 0.3942(6)
C4 C 0.1660(2) 0.2882(3) 0.4124(4)
H2 H 0.1638 0.3435 0.4138
C5 C 0.1286(3) 0.2450(3) 0.4284(7)
O1 O 0.13235(15) 0.1658(2) 0.4250(3)
C6 C 0.1672(3) 0.0456(4) 0.4028(8)
C7 C 0.1271(3) 0.0068(4) 0.4210(7)
H3 H 0.1015 0.0369 0.4354
C8 C 0.1232(3) -0.0717(5) 0.4191(5)
H4 H 0.0946 -0.0947 0.4306
C9 C 0.1582(3) -0.1185(4) 0.4014(7)
C10 C 0.1993(3) -0.0832(5) 0.3838(9)
H5 H 0.2242 -0.1150 0.3695
C11 C 0.2051(7) -0.0013(6) 0.387(2)
H6 H 0.2341 0.0216 0.3777
C12 C 0.1541(3) -0.2077(4) 0.3974(5)
H7 H 0.1224 -0.2223 0.3694
H8 H 0.1601 -0.2291 0.4590
H9 H 0.1770 -0.2287 0.3612
C13 C 0.2488(2) 0.2984(4) 0.3797(7)
C14 C 0.2910(3) 0.2635(4) 0.3647(10)
H10 H 0.2931 0.2082 0.3642
C15 C 0.3302(3) 0.3079(4) 0.3504(9)
H11 H 0.3579 0.2819 0.3389
C16 C 0.3296(2) 0.3875(4) 0.3527(5)
C17 C 0.2888(2) 0.4217(4) 0.3646(5)
H12 H 0.2874 0.4771 0.3638
C18 C 0.2488(2) 0.3810(4) 0.3777(5)
H13 H 0.2211 0.4088 0.3856
C19 C 0.3733(2) 0.4324(5) 0.3390(5)
H14 H 0.3673 0.4623 0.2824
H15 H 0.3991 0.3958 0.3357
H16 H 0.3818 0.4682 0.3900
C20 C 0.0848(5) 0.2736(9) 0.452(2)
C21 C 0.0784(5) 0.3543(9) 0.4563(14)
H17 H 0.1030 0.3883 0.4451
C22 C 0.0369(6) 0.3850(8) 0.4763(19)
H18 H 0.0331 0.4400 0.4781
C23 C 0.0006(6) 0.3362(11) 0.494(3)
C24 C 0.0074(9) 0.2561(10) 0.489(3)
H19 H -0.0175 0.2221 0.4988
C25 C 0.0487(5) 0.2246(8) 0.4715(13)
H20 H 0.0529 0.1696 0.4724
C26 C -0.0445(9) 0.3686(19) 0.517(3)
H21 H -0.0551 0.4112 0.4752
H22 H -0.0396 0.3884 0.5794
H23 H -0.0683 0.3274 0.5115
O2 O 0.35540(9) -0.01899(14) 0.15085(16)
H24 H 0.3367(16) -0.0080(10) 0.203(3)
C27 C 0.35696(14) 0.0493(2) 0.0976(3)
H25 H 0.3740 0.0378 0.0460
H26 H 0.3745 0.0904 0.1349
C28 C 0.30909(17) 0.0789(3) 0.0621(3)
H27 H 0.3117 0.1248 0.0240
H28 H 0.2927 0.0932 0.1131
H29 H 0.2914 0.0381 0.0260
B1 B 0.33868(13) 0.0556(2) 0.3579(3)
F1 F 0.37873(7) 0.01401(12) 0.38867(14)
F2 F 0.35102(9) 0.11842(14) 0.30806(17)
F3 F 0.31679(7) 0.08097(11) 0.43006(12)
F4 F 0.30826(8) 0.00619(17) 0.30346(15)
O3 O 0.03704(11) 0.4144(2) 0.23172(18)
C29? C 0.1612(6) 0.1056(8) 0.4047(13)
O4? O 0.1987(5) 0.1534(7) 0.3938(11)
C30? C 0.2007(7) 0.2306(10) 0.3960(17)
C31? C 0.1588(6) 0.2616(7) 0.4115(11)
H30? H 0.1566 0.3169 0.4112
C32? C 0.1209(7) 0.2228(9) 0.4270(19)
C33? C 0.1215(6) 0.1423(9) 0.4215(12)
H31? H 0.0945 0.1129 0.4295
C34? C 0.1685(8) 0.0238(10) 0.409(2)
C35? C 0.1317(8) -0.0234(11) 0.4265(18)
H32? H 0.1033 -0.0002 0.4387
C36? C 0.1358(7) -0.1028(11) 0.4263(15)
H33? H 0.1125 -0.1337 0.4485
C37? C 0.1721(8) -0.1382(9) 0.395(2)
C38? C 0.2105(7) -0.0938(12) 0.378(2)
H34? H 0.2384 -0.1185 0.3656
C39? C 0.2068(15) -0.0113(13) 0.377(6)
H35? H 0.2302 0.0198 0.3560
C40? C 0.1794(7) -0.2277(8) 0.3932(11)
H36? H 0.1599 -0.2495 0.3397
H37? H 0.1703 -0.2510 0.4482
H38? H 0.2124 -0.2391 0.3902
C41? C 0.2364(6) 0.2818(9) 0.3784(18)
C42? C 0.2788(8) 0.2466(12) 0.365(3)
H39? H 0.2815 0.1915 0.3620
C43? C 0.3171(8) 0.2951(11) 0.357(2)
H40? H 0.3467 0.2721 0.3520
C44? C 0.3128(5) 0.3753(10) 0.3546(12)
C45? C 0.2719(6) 0.4082(10) 0.3705(14)
H41? H 0.2699 0.4634 0.3734
C46? C 0.2324(5) 0.3642(9) 0.3829(13)
H42? H 0.2041 0.3884 0.3939
C47? C 0.3551(6) 0.4249(13) 0.3444(13)
H43? H 0.3484 0.4795 0.3572
H44? H 0.3623 0.4203 0.2822
H45? H 0.3820 0.4069 0.3870
C48? C 0.0795(12) 0.263(2) 0.446(5)
C49? C 0.0729(13) 0.345(2) 0.447(4)
H46? H 0.0968 0.3784 0.4321
C50? C 0.0317(15) 0.375(2) 0.469(5)
H47? H 0.0278 0.4299 0.4704
C51? C -0.0043(15) 0.326(3) 0.489(6)
C52? C 0.003(2) 0.246(3) 0.488(8)
H48? H -0.0201 0.2125 0.5065
C53? C 0.0419(14) 0.216(2) 0.460(3)
H49? H 0.0437 0.1610 0.4496
C54? C -0.048(2) 0.361(4) 0.513(8)
H50? H -0.0527 0.4134 0.4888
H51? H -0.0465 0.3623 0.5797
H52? H -0.0751 0.3280 0.4882
C55? C 0.03704(11) 0.4144(2) 0.23172(18)
H53? H 0.0639 0.4419 0.2188
O5? O 0.0000 0.2996(3) 0.2500
B2? B -0.0070(8) 0.0192(11) 0.4913(16)
F5? F -0.0053(6) 0.0701(8) 0.5666(13)
F6? F 0.0257(7) 0.0328(12) 0.4403(17)
F7? F -0.0436(7) 0.0557(13) 0.4375(17)
F8? F -0.0264(10) -0.0482(13) 0.511(3)
O6? O 0.0064(12) 0.0869(14) 0.264(3)
H54? H 0.0106 0.0574 0.3089
H55? H -0.0122 0.0650 0.2229
C56? C 0.0000 0.4575(3) 0.2500
C57? C 0.03704(11) 0.4144(2) 0.23172(18)
H56? H 0.0639 0.4419 0.2188
C58? C 0.03890(12) 0.3368(2) 0.2304(2)
C59? C 0.0000 0.2996(3) 0.2500
H57? H 0.0000 0.2442 0.2500
C60? C 0.0000 0.5404(3) 0.2500
C61? C 0.03727(11) 0.5837(3) 0.2229(2)
H58? H 0.0632 0.5573 0.2041
C62? C 0.03617(15) 0.6644(4) 0.2235(3)
H59? H 0.0616 0.6923 0.2047
C63? C 0.0000 0.7055(5) 0.2500
C64? C 0.0000 0.7940(6) 0.2500
H60? H 0.0287 0.8130 0.2290
H61? H -0.0274 0.8130 0.2093
H62? H -0.0013 0.8130 0.3116
C65? C 0.07950(13) 0.2957(2) 0.2095(2)
C66? C 0.11948(14) 0.3355(2) 0.1936(2)
H63? H 0.1203 0.3909 0.1964
C67? C 0.15864(16) 0.2938(4) 0.1735(3)
H64? H 0.1856 0.3221 0.1628
C68? C 0.15964(18) 0.2158(4) 0.1686(3)
C69? C 0.1202(2) 0.1769(3) 0.1830(3)
H65? H 0.1198 0.1216 0.1786
C70? C 0.08036(16) 0.2152(2) 0.2039(3)
H66? H 0.0537 0.1858 0.2143
C71? C 0.2025(2) 0.1715(6) 0.1482(4)
H67? H 0.1968 0.1518 0.0858
H68? H 0.2086 0.1275 0.1904
H69? H 0.2296 0.2064 0.1553
O7? O 0.0185(6) 0.0958(9) 0.2980(12)
H70? H 0.0130 0.0796 0.3487
C72? C 0.0173(7) 0.0327(12) 0.2373(15)
H71? H 0.0438 -0.0029 0.2573
H72? H 0.0208 0.0523 0.1762
C73? C -0.0276(7) -0.0110(13) 0.2330(18)
H73? H -0.0276 -0.0546 0.1905
H74? H -0.0308 -0.0312 0.2934
H75? H -0.0538 0.0240 0.2124
B3? B -0.0056(6) 0.0145(12) 0.5136(13)
F9? F -0.0040(5) 0.0228(13) 0.6083(10)
F10? F -0.0333(5) 0.0707(9) 0.4626(13)
F11? F 0.0370(7) 0.0284(12) 0.498(2)
F12? F 0.0312(8) 0.0436(12) 0.5281(15)
loop_
_geom_bond_atom_site_label_1
_geom_bond_atom_site_label_2
_geom_bond_site_symmetry_1
_geom_bond_site_symmetry_2
C1 C2 1_555 1_555
C2 H1 1_555 1_555
C3 C2 1_555 1_555
C4 C3 1_555 1_555
H2 C4 1_555 1_555
C5 C4 1_555 1_555
O1 C1 1_555 1_555
C6 C1 1_555 1_555
C7 C6 1_555 1_555
H3 C7 1_555 1_555
C8 C7 1_555 1_555
H4 C8 1_555 1_555
C9 C8 1_555 1_555
C10 C9 1_555 1_555
H5 C10 1_555 1_555
C11 C6 1_555 1_555
H6 C11 1_555 1_555
C12 C9 1_555 1_555
H7 C12 1_555 1_555
H8 C12 1_555 1_555
H9 C12 1_555 1_555
C13 C3 1_555 1_555
C14 C13 1_555 1_555
H10 C14 1_555 1_555
C15 C14 1_555 1_555
H11 C15 1_555 1_555
C16 C15 1_555 1_555
C17 C16 1_555 1_555
H12 C17 1_555 1_555
C18 C13 1_555 1_555
H13 C18 1_555 1_555
C19 C16 1_555 1_555
H14 C19 1_555 1_555
H15 C19 1_555 1_555
H16 C19 1_555 1_555
C20 C5 1_555 1_555
C21 C20 1_555 1_555
H17 C21 1_555 1_555
C22 C21 1_555 1_555
H18 C22 1_555 1_555
C23 C22 1_555 1_555
C24 C23 1_555 1_555
H19 C24 1_555 1_555
C25 C20 1_555 1_555
H20 C25 1_555 1_555
C26 C23 1_555 1_555
H21 C26 1_555 1_555
H22 C26 1_555 1_555
H23 C26 1_555 1_555
O2 H24 1_555 1_555
C27 O2 1_555 1_555
H25 C27 1_555 1_555
H26 C27 1_555 1_555
C28 C27 1_555 1_555
H27 C28 1_555 1_555
H28 C28 1_555 1_555
H29 C28 1_555 1_555
B1 F1 1_555 1_555
F2 B1 1_555 1_555
F3 B1 1_555 1_555
F4 B1 1_555 1_555
C5 O1 1_555 1_555
C10 C11 1_555 1_555
C17 C18 1_555 1_555
C24 C25 1_555 1_555

#END
