
#######################################################################
#
#                 Cambridge Crystallographic Data Centre
#                                CCDC 
#
#######################################################################
#
# If this CIF has been generated from an entry in the Cambridge 
# Structural Database, then it will include bibliographic, chemical, 
# crystal, experimental, refinement or atomic coordinate data resulting 
# from the CCDC's data processing and validation procedures.
#
#######################################################################

data_VAJGIZ
_chemical_formula_moiety         'C26 H23 O1 1+,B1 F4 1-,1.67(C2 H4 O2)'
_chemical_name_systematic        
'2,4,6-tris(4-methylphenyl)pyrylium tetrafluoroborate acetic acid solvate'
_symmetry_cell_setting           monoclinic
_symmetry_space_group_name_H-M   'C 2/c'
_symmetry_Int_Tables_number      15
_space_group_name_Hall           '-C 2yn'
loop_
_symmetry_equiv_pos_site_id
_symmetry_equiv_pos_as_xyz
1 x,y,z
2 -x,y,1/2-z
3 1/2+x,1/2+y,z
4 1/2-x,1/2+y,1/2-z
5 -x,-y,-z
6 x,-y,1/2+z
7 1/2-x,1/2-y,-z
8 1/2+x,1/2-y,1/2+z
_cell_length_a                   15.0452(8)
_cell_length_b                   58.001(4)
_cell_length_c                   9.9348(6)
_cell_angle_alpha                90
_cell_angle_beta                 111.770(2)
_cell_angle_gamma                90
_cell_volume                     8051.17
_exptl_crystal_colour            colorless
_exptl_crystal_description       plate
_cell_formula_units_Z            12
loop_
_atom_site_label
_atom_site_type_symbol
_atom_site_fract_x
_atom_site_fract_y
_atom_site_fract_z
C1 C 0.4422(2) 0.16877(8) 0.1288(4)
O1 O 0.5000 0.15783(7) 0.2500
C2 C 0.4432(2) 0.19180(6) 0.1317(4)
H1 H 0.4029 0.1999 0.0482
C3 C 0.5000 0.20441(10) 0.2500
C4 C 0.3857(5) 0.15476(11) 0.0060(7)
C5 C 0.3875(6) 0.13122(11) 0.0224(8)
H2 H 0.4288 0.1245 0.1108
C6 C 0.3312(7) 0.11736(12) -0.0861(9)
H3 H 0.3341 0.1011 -0.0716
C7 C 0.2693(5) 0.12622(13) -0.2175(9)
C8 C 0.2662(7) 0.14992(15) -0.2367(10)
H4 H 0.2248 0.1564 -0.3256
C9 C 0.3236(8) 0.16411(15) -0.1258(10)
H5 H 0.3209 0.1803 -0.1393
C10 C 0.2083(6) 0.11076(17) -0.3395(10)
H6 H 0.1644 0.1202 -0.4177
H7 H 0.1713 0.1002 -0.3033
H8 H 0.2496 0.1018 -0.3766
C11 C 0.5000 0.22935(10) 0.2500
C12 C 0.4814(2) 0.24175(8) 0.1214(3)
H9 H 0.4687 0.2338 0.0325
C13 C 0.4818(2) 0.26560(8) 0.1249(4)
H10 H 0.4689 0.2738 0.0370
C14 C 0.5000 0.27775(12) 0.2500
C15 C 0.5000 0.30374(13) 0.2500
C1A C 0.5578(2) 0.16877(8) 0.3712(4)
C2A C 0.5568(2) 0.19180(6) 0.3683(4)
H1A H 0.5971 0.1999 0.4518
C4A C 0.6143(5) 0.15476(11) 0.4940(7)
C5A C 0.6125(6) 0.13122(11) 0.4776(8)
H2A H 0.5712 0.1245 0.3892
C6A C 0.6688(7) 0.11736(12) 0.5861(9)
H3A H 0.6659 0.1011 0.5716
C7A C 0.7307(5) 0.12622(13) 0.7175(9)
C8A C 0.7338(7) 0.14992(15) 0.7367(10)
H4A H 0.7752 0.1564 0.8256
C9A C 0.6764(8) 0.16411(15) 0.6258(10)
H5A H 0.6791 0.1803 0.6393
C10A C 0.7917(6) 0.11076(17) 0.8395(10)
H6A H 0.8356 0.1202 0.9177
H7A H 0.8287 0.1002 0.8033
H8A H 0.7504 0.1018 0.8766
C12A C 0.5186(2) 0.24175(8) 0.3786(3)
H9A H 0.5313 0.2338 0.4675
C13A C 0.5182(2) 0.26560(8) 0.3751(4)
H10A H 0.5311 0.2738 0.4630
B1 B 0.2106(4) 0.06658(9) 0.2708(6)
F1 F 0.2224(3) 0.07901(5) 0.3948(3)
F2 F 0.2276(2) 0.08202(5) 0.1725(3)
F3 F 0.27555(19) 0.04898(4) 0.3069(3)
F4 F 0.11744(19) 0.05797(5) 0.2084(3)
O2 O -0.2557(6) 0.27809(14) -0.6214(9)
O3 O -0.2664(7) 0.2419(2) -0.7072(9)
H11 H -0.2460 0.2386 -0.6186
C16 C -0.2665(9) 0.2640(3) -0.7226(19)
C17 C -0.2781(12) 0.2725(3) -0.8696(16)
C18? C 0.5000 0.15783(7) 0.2500
H12? H 0.5000 0.1414 0.2500
C19? C 0.3741(15) 0.1541(3) 0.019(2)
C20? C 0.3555(11) 0.1305(3) 0.014(2)
H13? H 0.3830 0.1218 0.1006
C21? C 0.2996(12) 0.1192(4) -0.110(3)
H14? H 0.2883 0.1031 -0.1090
C22? C 0.2596(12) 0.1321(5) -0.236(2)
C23? C 0.276(2) 0.1557(5) -0.236(3)
H15? H 0.2485 0.1643 -0.3226
C24? C 0.333(2) 0.1667(4) -0.110(3)
H16? H 0.3441 0.1828 -0.1106
C25? C 0.1968(16) 0.1211(4) -0.378(3)
H17? H 0.1701 0.1331 -0.4512
H18? H 0.1445 0.1127 -0.3632
H19? H 0.2350 0.1104 -0.4101
O4? O 0.0159(3) -0.00935(3) 0.7816(3)
C26? C -0.0461(5) 0.02638(3) 0.6596(4)
H20? H -0.086(3) 0.0343(3) 0.578(3)
B2? B 0.194(2) 0.0726(5) 0.253(3)
F5? F 0.218(2) 0.0610(5) 0.150(3)
F6? F 0.159(3) 0.0949(5) 0.197(4)
F7? F 0.121(3) 0.0603(8) 0.268(5)
F8? F 0.271(2) 0.0779(6) 0.378(3)
F9? F -0.05289(13) 0.29500(4) 0.3057(2)
B3? B 0.0074(13) 0.28135(11) 0.265(2)
F10? F 0.0748(4) 0.27306(10) 0.3910(6)
F11? F -0.0449(5) 0.26329(12) 0.1853(12)
O5? O 0.0697(6) 0.18380(10) 0.4164(8)
H21? H 0.0518 0.1701 0.3967
O6? O 0.0019(7) 0.18685(12) 0.1795(9)
C27? C 0.0492(9) 0.19545(16) 0.2966(13)
C28? C 0.0878(13) 0.21895(15) 0.3151(14)
H22? H 0.1483 0.2191 0.2993
H23? H 0.0989 0.2243 0.4136
H24? H 0.0419 0.2292 0.2448
C29? C 0.0000 0.13092(11) 0.2500
C30? C 0.0000 0.10557(12) 0.2500
H25? H -0.0121 0.0999 0.1518
H26? H 0.0624 0.0999 0.3160
H27? H -0.0503 0.0999 0.2822
O7? O 0.0146(3) 0.14143(5) 0.3682(4)
H28? H 0.0223 0.1556 0.3573
O8? O 0.4559(5) 0.09004(13) 0.3376(9)
O9? O 0.4214(6) 0.05586(13) 0.2327(10)
H29? H 0.3731 0.0574 0.2550
C31? C 0.4714(18) 0.0751(4) 0.2609(16)
C32? C 0.541(2) 0.0772(4) 0.199(2)
H30? H 0.6047 0.0742 0.2726
H31? H 0.5397 0.0929 0.1607
H32? H 0.5281 0.0661 0.1196
O10? O 0.4432(2) 0.19180(6) 0.1317(4)
C33? C 0.4432(2) 0.19180(6) 0.1317(4)
C34? C 0.44421(19) 0.10957(5) 0.6342(3)
C35? C 0.0146(3) -0.00936(3) 0.7825(2)
H33? H 0.0162 -0.0257 0.7827
C36? C -0.0449(3) 0.00242(3) 0.6606(2)
O11? O -0.0472(3) 0.02637(3) 0.6604(2)
C37? C 0.0102(4) 0.03855(3) 0.7821(3)
C38? C 0.0698(4) 0.02677(4) 0.9041(3)
H34? H 0.1090 0.0351 0.9873
C39? C 0.0720(3) 0.00282(4) 0.9043(2)
C40? C -0.1081(8) -0.00803(18) 0.5300(11)
C41? C -0.1643(9) 0.0047(2) 0.4114(12)
H35? H -0.1625 0.0211 0.4162
C42? C -0.2234(9) -0.0062(2) 0.2854(12)
H36? H -0.2623 0.0027 0.2048
C43? C -0.2254(11) -0.0295(3) 0.2776(15)
C44? C -0.1696(11) -0.0422(2) 0.3985(16)
H37? H -0.1709 -0.0585 0.3933
C45? C -0.1126(18) -0.0317(3) 0.5254(15)
H38? H -0.0770 -0.0406 0.6080
C46? C -0.2878(11) -0.0426(3) 0.1425(15)
H39? H -0.2807 -0.0357 0.0569
H40? H -0.3549 -0.0416 0.1330
H41? H -0.2680 -0.0588 0.1508
C47? C 0.1368(10) -0.0102(2) 1.0294(13)
C48? C 0.1958(9) 0.00093(18) 1.1540(15)
H42? H 0.1954 0.0173 1.1547
C49? C 0.2551(9) -0.01027(19) 1.2768(14)
H43? H 0.2953 -0.0017 1.3582
C50? C 0.2553(10) -0.03375(17) 1.2800(16)
C51? C 0.1993(13) -0.0456(2) 1.1568(17)
H44? H 0.2036 -0.0619 1.1550
C52? C 0.1369(13) -0.0341(2) 1.0353(16)
H45? H 0.0942 -0.0427 0.9562
C53? C 0.3175(11) -0.0466(2) 1.4149(14)
H46? H 0.3664 -0.0554 1.3937
H47? H 0.2777 -0.0572 1.4453
H48? H 0.3486 -0.0356 1.4928
C54? C 0.007(2) 0.06348(13) 0.7689(17)
C55? C 0.050(3) 0.0781(3) 0.883(3)
H49? H 0.0854 0.0715 0.9747
C56? C 0.045(3) 0.1019(3) 0.872(3)
H50? H 0.0761 0.1113 0.9545
C57? C -0.005(3) 0.11133(14) 0.740(3)
C58? C -0.058(3) 0.0971(3) 0.628(3)
H51? H -0.1002 0.1039 0.5411
C59? C -0.051(3) 0.0734(2) 0.637(2)
H52? H -0.0856 0.0640 0.5557
C60? C -0.0141(16) 0.13743(14) 0.7239(18)
H53? H 0.0245 0.1429 0.6697
H54? H 0.0087 0.1446 0.8200
H55? H -0.0813 0.1416 0.6715
C61? C 0.5000 0.14404(9) 0.7500
H56? H 0.5000 0.1604 0.7500
C62? C 0.4407(2) 0.13297(6) 0.6288(3)
O12? O 0.44421(19) 0.10957(5) 0.6342(3)
H57? H 0.4048 0.1013 0.5509
C63? C 0.5000 0.09728(8) 0.7500
C64? C 0.3777(2) 0.14435(6) 0.5000(3)
C65? C 0.3176(3) 0.13196(7) 0.3811(4)
H58? H 0.3178 0.1156 0.3836
C66? C 0.2574(3) 0.14344(9) 0.2589(4)
H59? H 0.2166 0.1346 0.1794
C67? C 0.2544(3) 0.16705(9) 0.2484(5)
C68? C 0.3131(3) 0.17929(8) 0.3641(5)
H60? H 0.3125 0.1956 0.3591
C69? C 0.3741(3) 0.16853(7) 0.4894(4)
H61? H 0.4137 0.1776 0.5685
C70? C 0.1886(4) 0.17900(13) 0.1123(6)
H62? H 0.2232 0.1819 0.0476
H63? H 0.1669 0.1937 0.1383
H64? H 0.1330 0.1692 0.0630
C71? C 0.5000 0.07263(9) 0.7500
C72? C 0.4324(3) 0.06012(7) 0.6391(4)
H65? H 0.3857 0.0681 0.5613
C73? C 0.4325(3) 0.03652(10) 0.6409(6)
H66? H 0.3849 0.0284 0.5651
C74? C 0.5000 0.02435(12) 0.7500
C75? C 0.5000 -0.00199(16) 0.7500
H67? H 0.5529 -0.0076 0.8355
H68? H 0.4392 -0.0076 0.7524
H69? H 0.5079 -0.0076 0.6621
H70? H 0.5661 0.3094 0.2884
H71? H 0.4662 0.3094 0.3109
H72? H 0.4677 0.3094 0.1507
C76? C -0.2582(9) 0.2579(3) -0.6577(16)
O13? O -0.2469(6) 0.27184(16) -0.5565(9)
O14? O -0.2567(6) 0.23623(18) -0.6393(8)
H73? H -0.2578 0.2333 -0.5571
C77? C -0.2713(9) 0.2662(3) -0.8072(17)
H74? H -0.2773 0.2886 -0.8870
H75? H -0.2863 0.2618 -0.9459
H76? H -0.3104 0.2550 -0.8791
H77? H -0.2086 0.2676 -0.8155
H78? H -0.3033 0.2812 -0.8247
loop_
_geom_bond_atom_site_label_1
_geom_bond_atom_site_label_2
_geom_bond_site_symmetry_1
_geom_bond_site_symmetry_2
C1 O1 1_555 1_555
O1 C1A 1_555 1_555
C2 C1 1_555 1_555
H1 C2 1_555 1_555
C3 C2 1_555 1_555
C4 C1 1_555 1_555
C5 C4 1_555 1_555
H2 C5 1_555 1_555
C6 C5 1_555 1_555
H3 C6 1_555 1_555
C7 C6 1_555 1_555
C8 C7 1_555 1_555
H4 C8 1_555 1_555
C9 C4 1_555 1_555
H5 C9 1_555 1_555
C10 C7 1_555 1_555
H6 C10 1_555 1_555
H7 C10 1_555 1_555
H8 C10 1_555 1_555
C11 C3 1_555 1_555
C12 C11 1_555 1_555
H9 C12 1_555 1_555
C13 C12 1_555 1_555
H10 C13 1_555 1_555
C14 C13 1_555 1_555
C15 C14 1_555 1_555
B1 F1 1_555 1_555
F2 B1 1_555 1_555
F3 B1 1_555 1_555
F4 B1 1_555 1_555
O2 C16 1_555 1_555
O3 H11 1_555 1_555
C16 O3 1_555 1_555
C17 C16 1_555 1_555
C1A C2A 1_555 1_555
C2A C3 1_555 1_555
H1A C2A 1_555 1_555
C4A C1A 1_555 1_555
C5A C4A 1_555 1_555
H2A C5A 1_555 1_555
C6A C5A 1_555 1_555
H3A C6A 1_555 1_555
C7A C6A 1_555 1_555
C8A C7A 1_555 1_555
H4A C8A 1_555 1_555
C9A C4A 1_555 1_555
H5A C9A 1_555 1_555
C10A C7A 1_555 1_555
H6A C10A 1_555 1_555
H7A C10A 1_555 1_555
H8A C10A 1_555 1_555
C12A C11 1_555 1_555
H9A C12A 1_555 1_555
C13A C14 1_555 1_555
H10A C13A 1_555 1_555
C8 C9 1_555 1_555
C8A C9A 1_555 1_555
C12A C13A 1_555 1_555

#END
