
#######################################################################
#
#                 Cambridge Crystallographic Data Centre
#                                CCDC 
#
#######################################################################
#
# If this CIF has been generated from an entry in the Cambridge 
# Structural Database, then it will include bibliographic, chemical, 
# crystal, experimental, refinement or atomic coordinate data resulting 
# from the CCDC's data processing and validation procedures.
#
#######################################################################

data_VAJLOK
_chemical_formula_moiety         'C18 H18 Br1 N1 O5 S1'
_chemical_name_systematic        
5-bromo-4-(4-methoxyphenyl)-3-((4-methylphenyl)sulfonyl)-1,3-oxazinan-2-one
_symmetry_cell_setting           orthorhombic
_symmetry_space_group_name_H-M   'P 21 21 21'
_symmetry_Int_Tables_number      19
_space_group_name_Hall           'P 2ac 2ab'
loop_
_symmetry_equiv_pos_site_id
_symmetry_equiv_pos_as_xyz
1 x,y,z
2 1/2-x,-y,1/2+z
3 -x,1/2+y,1/2-z
4 1/2+x,1/2-y,-z
_cell_length_a                   8.115(2)
_cell_length_b                   11.495(3)
_cell_length_c                   19.441(6)
_cell_angle_alpha                90
_cell_angle_beta                 90
_cell_angle_gamma                90
_cell_volume                     1813.49
_exptl_crystal_colour            colorless
_exptl_crystal_description       block
_cell_formula_units_Z            4
loop_
_atom_site_label
_atom_site_type_symbol
_atom_site_fract_x
_atom_site_fract_y
_atom_site_fract_z
Br1 Br 0.63639(5) 0.78941(3) 0.16607(2)
S1 S 0.14644(12) 0.76537(6) 0.24226(4)
O1 O 0.5193(3) 0.95668(19) 0.29548(13)
O2 O 0.2644(3) 0.9971(2) 0.26538(12)
O3 O 0.4288(4) 0.5746(3) 0.56565(13)
O4 O 0.1618(3) 0.64264(19) 0.23223(13)
O5 O 0.0286(3) 0.8079(2) 0.29017(12)
N1 N 0.3364(3) 0.8062(2) 0.26846(13)
C1 C 0.6277(5) 0.7649(3) 0.26595(15)
H1 H 0.7131 0.7089 0.2792
C2 C 0.4595(4) 0.7164(3) 0.28496(16)
H2 H 0.4377 0.6477 0.2565
C3 C 0.3672(5) 0.9244(2) 0.27613(15)
C4 C 0.6570(5) 0.8776(3) 0.30272(18)
H3 H 0.6755 0.8622 0.3512
H4 H 0.7555 0.9141 0.2844
C5 C 0.4529(4) 0.6806(3) 0.36089(17)
C6 C 0.5572(5) 0.5934(3) 0.38424(18)
H5 H 0.6311 0.5594 0.3537
C7 C 0.5535(5) 0.5558(3) 0.45221(18)
H6 H 0.6246 0.4975 0.4669
C8 C 0.4437(5) 0.6057(3) 0.49785(18)
C9 C 0.3391(5) 0.6929(3) 0.47525(18)
H7 H 0.2657 0.7273 0.5058
C10 C 0.3433(5) 0.7291(3) 0.40747(17)
H8 H 0.2714 0.7871 0.3929
C11 C 0.5435(5) 0.4915(3) 0.5916(2)
H9 H 0.5300 0.4192 0.5676
H10 H 0.5242 0.4798 0.6398
H11 H 0.6537 0.5197 0.5849
C12 C 0.1147(4) 0.8317(3) 0.16183(18)
C13 C 0.1705(4) 0.7758(3) 0.10309(17)
H12 H 0.2344 0.7090 0.1065
C14 C 0.1296(5) 0.8209(3) 0.03920(19)
H13 H 0.1656 0.7833 -0.0004
C15 C 0.0355(5) 0.9217(3) 0.0335(2)
C16 C -0.0138(5) 0.9770(3) 0.0927(2)
H14 H -0.0741 1.0456 0.0893
C17 C 0.0237(4) 0.9334(3) 0.1577(2)
H15 H -0.0115 0.9715 0.1973
C18 C -0.0122(6) 0.9700(4) -0.0361(2)
H16 H 0.0284 1.0481 -0.0404
H17 H -0.1300 0.9700 -0.0404
H18 H 0.0348 0.9224 -0.0716
loop_
_geom_bond_atom_site_label_1
_geom_bond_atom_site_label_2
_geom_bond_site_symmetry_1
_geom_bond_site_symmetry_2
Br1 C1 1_555 1_555
S1 O4 1_555 1_555
O1 C3 1_555 1_555
O2 C3 1_555 1_555
O3 C8 1_555 1_555
O5 S1 1_555 1_555
N1 S1 1_555 1_555
C1 H1 1_555 1_555
C2 N1 1_555 1_555
H2 C2 1_555 1_555
C3 N1 1_555 1_555
C4 O1 1_555 1_555
H3 C4 1_555 1_555
H4 C4 1_555 1_555
C5 C2 1_555 1_555
C6 C5 1_555 1_555
H5 C6 1_555 1_555
C7 C6 1_555 1_555
H6 C7 1_555 1_555
C8 C7 1_555 1_555
C9 C8 1_555 1_555
H7 C9 1_555 1_555
C10 C5 1_555 1_555
H8 C10 1_555 1_555
C11 O3 1_555 1_555
H9 C11 1_555 1_555
H10 C11 1_555 1_555
H11 C11 1_555 1_555
C12 S1 1_555 1_555
C13 C12 1_555 1_555
H12 C13 1_555 1_555
C14 C13 1_555 1_555
H13 C14 1_555 1_555
C15 C14 1_555 1_555
C16 C15 1_555 1_555
H14 C16 1_555 1_555
C17 C12 1_555 1_555
H15 C17 1_555 1_555
C18 C15 1_555 1_555
H16 C18 1_555 1_555
H17 C18 1_555 1_555
H18 C18 1_555 1_555
C1 C2 1_555 1_555
C1 C4 1_555 1_555
C9 C10 1_555 1_555
C16 C17 1_555 1_555

#END
