
#######################################################################
#
#                 Cambridge Crystallographic Data Centre
#                                CCDC 
#
#######################################################################
#
# If this CIF has been generated from an entry in the Cambridge 
# Structural Database, then it will include bibliographic, chemical, 
# crystal, experimental, refinement or atomic coordinate data resulting 
# from the CCDC's data processing and validation procedures.
#
#######################################################################

data_VAJMEB
_chemical_formula_moiety         'C16 H18 Br1 N1 O3 S1'
_chemical_name_systematic        
N-(2-bromo-3-hydroxy-1-phenylpropyl)-4-methylbenzenesulfonamide
_symmetry_cell_setting           monoclinic
_symmetry_space_group_name_H-M   'P 21'
_symmetry_Int_Tables_number      4
_space_group_name_Hall           'P 2yb'
loop_
_symmetry_equiv_pos_site_id
_symmetry_equiv_pos_as_xyz
1 x,y,z
2 -x,1/2+y,-z
_cell_length_a                   5.9781(18)
_cell_length_b                   19.198(6)
_cell_length_c                   7.657(2)
_cell_angle_alpha                90
_cell_angle_beta                 108.460(3)
_cell_angle_gamma                90
_cell_volume                     833.558
_exptl_crystal_colour            colorless
_exptl_crystal_description       block
_cell_formula_units_Z            2
loop_
_atom_site_label
_atom_site_type_symbol
_atom_site_fract_x
_atom_site_fract_y
_atom_site_fract_z
Br1 Br 0.87162(8) 0.55391(2) 0.61572(5)
S1 S 0.32769(13) 0.49520(4) 0.14000(10)
O1 O 0.0881(4) 0.50167(14) 0.1380(3)
O2 O 0.3803(4) 0.45548(13) -0.0006(3)
O3 O 0.5099(5) 0.44040(18) 0.6897(3)
H1 H 0.4334 0.4402 0.7617
N1 N 0.4649(4) 0.45808(14) 0.3331(3)
H2 H 0.4449 0.4814 0.4230
C1 C 0.7126(5) 0.43665(17) 0.3779(4)
H3 H 0.7851 0.4639 0.3019
C2 C 0.8459(6) 0.45236(19) 0.5823(5)
H4 H 1.0065 0.4344 0.6079
C3 C 0.7478(6) 0.4208(2) 0.7244(4)
H5 H 0.7589 0.3704 0.7209
H6 H 0.8407 0.4364 0.8463
C4 C 0.7345(6) 0.35988(17) 0.3376(4)
C5 C 0.5806(6) 0.31017(19) 0.3652(5)
H7 H 0.4577 0.3238 0.4077
C6 C 0.6079(7) 0.24042(19) 0.3301(5)
H8 H 0.5040 0.2075 0.3493
C7 C 0.7903(7) 0.2198(2) 0.2664(6)
H9 H 0.8087 0.1731 0.2425
C8 C 0.9435(7) 0.2683(2) 0.2387(6)
H10 H 1.0656 0.2545 0.1957
C9 C 0.9168(7) 0.3383(2) 0.2750(6)
H11 H 1.0223 0.3710 0.2569
C10 C 0.4451(6) 0.57851(17) 0.1396(4)
C11 C 0.6233(6) 0.58976(18) 0.0625(5)
H12 H 0.6731 0.5539 0.0020
C12 C 0.7265(7) 0.6553(2) 0.0767(5)
H13 H 0.8471 0.6628 0.0263
C13 C 0.6532(7) 0.7099(2) 0.1648(5)
C14 C 0.4732(8) 0.69763(19) 0.2395(5)
H14 H 0.4219 0.7337 0.2983
C15 C 0.3684(7) 0.63231(19) 0.2281(5)
H15 H 0.2484 0.6248 0.2790
C16 C 0.7645(10) 0.7806(3) 0.1789(7)
H16 H 0.9268 0.7757 0.1853
H17 H 0.7556 0.8036 0.2878
H18 H 0.6824 0.8077 0.0725
loop_
_geom_bond_atom_site_label_1
_geom_bond_atom_site_label_2
_geom_bond_site_symmetry_1
_geom_bond_site_symmetry_2
Br1 C2 1_555 1_555
S1 O1 1_555 1_555
O2 S1 1_555 1_555
O3 H1 1_555 1_555
N1 S1 1_555 1_555
H2 N1 1_555 1_555
C1 N1 1_555 1_555
H3 C1 1_555 1_555
C2 C1 1_555 1_555
H4 C2 1_555 1_555
C3 O3 1_555 1_555
H5 C3 1_555 1_555
H6 C3 1_555 1_555
C4 C1 1_555 1_555
C5 C4 1_555 1_555
H7 C5 1_555 1_555
C6 C5 1_555 1_555
H8 C6 1_555 1_555
C7 C6 1_555 1_555
H9 C7 1_555 1_555
C8 C7 1_555 1_555
H10 C8 1_555 1_555
C9 C4 1_555 1_555
H11 C9 1_555 1_555
C10 S1 1_555 1_555
C11 C10 1_555 1_555
H12 C11 1_555 1_555
C12 C11 1_555 1_555
H13 C12 1_555 1_555
C13 C12 1_555 1_555
C14 C13 1_555 1_555
H14 C14 1_555 1_555
C15 C10 1_555 1_555
H15 C15 1_555 1_555
C16 C13 1_555 1_555
H16 C16 1_555 1_555
H17 C16 1_555 1_555
H18 C16 1_555 1_555
C2 C3 1_555 1_555
C8 C9 1_555 1_555
C14 C15 1_555 1_555

#END
