
#######################################################################
#
#                 Cambridge Crystallographic Data Centre
#                                CCDC 
#
#######################################################################
#
# If this CIF has been generated from an entry in the Cambridge 
# Structural Database, then it will include bibliographic, chemical, 
# crystal, experimental, refinement or atomic coordinate data resulting 
# from the CCDC's data processing and validation procedures.
#
#######################################################################

data_VAJMIF
_chemical_formula_moiety         'C16 H19 N1 O4 S1'
_chemical_name_systematic        
N-(1,3-dihydroxy-1-phenylpropan-2-yl)-4-methylbenzenesulfonamide
_symmetry_cell_setting           orthorhombic
_symmetry_space_group_name_H-M   'P 21 21 21'
_symmetry_Int_Tables_number      19
_space_group_name_Hall           'P 2ac 2ab'
loop_
_symmetry_equiv_pos_site_id
_symmetry_equiv_pos_as_xyz
1 x,y,z
2 1/2-x,-y,1/2+z
3 -x,1/2+y,1/2-z
4 1/2+x,1/2-y,-z
_cell_length_a                   7.758(5)
_cell_length_b                   10.373(7)
_cell_length_c                   19.137(17)
_cell_angle_alpha                90
_cell_angle_beta                 90
_cell_angle_gamma                90
_cell_volume                     1540.03
_exptl_crystal_colour            colorless
_exptl_crystal_description       plate
_cell_formula_units_Z            4
loop_
_atom_site_label
_atom_site_type_symbol
_atom_site_fract_x
_atom_site_fract_y
_atom_site_fract_z
S1 S 0.60227(11) 0.60802(8) 0.55001(4)
O1 O 0.0924(4) 0.3283(2) 0.54809(15)
O2 O 0.2825(4) 0.2827(2) 0.43530(15)
O3 O 0.7054(3) 0.5059(3) 0.52237(14)
O4 O 0.6427(4) 0.7399(2) 0.53312(14)
N1 N 0.4074(4) 0.5875(3) 0.52438(16)
C1 C 0.3283(5) 0.4590(3) 0.52096(19)
H1 H 0.3964 0.3997 0.5497
C2 C 0.1432(4) 0.4619(3) 0.5492(2)
H2 H 0.0700 0.5109 0.5170
C3 C 0.3361(5) 0.4140(3) 0.44500(18)
H3 H 0.2633 0.4695 0.4169
H4 H 0.4534 0.4232 0.4282
C4 C 0.1291(4) 0.5189(3) 0.62153(18)
C5 C 0.0571(5) 0.6419(3) 0.63061(19)
H5 H 0.0177 0.6878 0.5921
C6 C 0.0446(5) 0.6949(4) 0.6967(2)
H6 H -0.0033 0.7765 0.7022
C7 C 0.1022(5) 0.6287(4) 0.7543(2)
H7 H 0.0936 0.6651 0.7985
C8 C 0.1739(6) 0.5061(4) 0.7458(2)
H8 H 0.2140 0.4608 0.7845
C9 C 0.1850(5) 0.4521(3) 0.6799(2)
H9 H 0.2306 0.3698 0.6747
C10 C 0.6076(5) 0.5930(3) 0.64132(17)
C11 C 0.6797(5) 0.4847(3) 0.67198(19)
H10 H 0.7213 0.4176 0.6445
C12 C 0.6889(5) 0.4778(3) 0.7443(2)
H11 H 0.7377 0.4053 0.7650
C13 C 0.6269(5) 0.5763(3) 0.78662(18)
C14 C 0.5515(5) 0.6823(4) 0.7545(2)
H12 H 0.5059 0.7478 0.7821
C15 C 0.5425(5) 0.6930(3) 0.68239(19)
H13 H 0.4938 0.7656 0.6617
C16 C 0.6404(6) 0.5687(4) 0.8647(2)
H14 H 0.6704 0.4824 0.8781
H15 H 0.5317 0.5916 0.8852
H16 H 0.7278 0.6272 0.8807
H17 H -0.022(7) 0.319(4) 0.552(3)
H18 H 0.210(7) 0.267(5) 0.472(3)
H19 H 0.360(6) 0.651(4) 0.516(2)
loop_
_geom_bond_atom_site_label_1
_geom_bond_atom_site_label_2
_geom_bond_site_symmetry_1
_geom_bond_site_symmetry_2
S1 O3 1_555 1_555
O1 C2 1_555 1_555
O2 C3 1_555 1_555
O4 S1 1_555 1_555
N1 S1 1_555 1_555
C1 N1 1_555 1_555
H1 C1 1_555 1_555
C2 C1 1_555 1_555
H2 C2 1_555 1_555
C3 C1 1_555 1_555
H3 C3 1_555 1_555
H4 C3 1_555 1_555
C4 C2 1_555 1_555
C5 C4 1_555 1_555
H5 C5 1_555 1_555
C6 C5 1_555 1_555
H6 C6 1_555 1_555
C7 C6 1_555 1_555
H7 C7 1_555 1_555
C8 C7 1_555 1_555
H8 C8 1_555 1_555
C9 C4 1_555 1_555
H9 C9 1_555 1_555
C10 S1 1_555 1_555
C11 C10 1_555 1_555
H10 C11 1_555 1_555
C12 C11 1_555 1_555
H11 C12 1_555 1_555
C13 C12 1_555 1_555
C14 C13 1_555 1_555
H12 C14 1_555 1_555
C15 C10 1_555 1_555
H13 C15 1_555 1_555
C16 C13 1_555 1_555
H14 C16 1_555 1_555
H15 C16 1_555 1_555
H16 C16 1_555 1_555
H17 O1 1_555 1_555
H18 O2 1_555 1_555
H19 N1 1_555 1_555
C8 C9 1_555 1_555
C14 C15 1_555 1_555

#END
