
#######################################################################
#
#                 Cambridge Crystallographic Data Centre
#                                CCDC 
#
#######################################################################
#
# If this CIF has been generated from an entry in the Cambridge 
# Structural Database, then it will include bibliographic, chemical, 
# crystal, experimental, refinement or atomic coordinate data resulting 
# from the CCDC's data processing and validation procedures.
#
#######################################################################

data_VAJMOI
_chemical_formula_moiety         'C23 H41 B2 N1 O1'
_chemical_name_systematic        
Quinuclidine-bis(cyclo-octan-1,5-diyl)diboroxane
_symmetry_cell_setting           monoclinic
_symmetry_space_group_name_H-M   'P 21/n'
_symmetry_Int_Tables_number      14
_space_group_name_Hall           '-P 2yn'
loop_
_symmetry_equiv_pos_site_id
_symmetry_equiv_pos_as_xyz
1 x,y,z
2 1/2-x,1/2+y,1/2-z
3 -x,-y,-z
4 1/2+x,1/2-y,1/2+z
_cell_length_a                   9.862(2)
_cell_length_b                   12.516(2)
_cell_length_c                   17.053(4)
_cell_angle_alpha                90
_cell_angle_beta                 97.01(2)
_cell_angle_gamma                90
_cell_volume                     2089.16
_cell_formula_units_Z            4
loop_
_atom_site_label
_atom_site_type_symbol
_atom_site_fract_x
_atom_site_fract_y
_atom_site_fract_z
O1 O 0.8230(1) 0.2978(1) 0.6234(1)
N1 N 1.0344(1) 0.2416(1) 0.5691(1)
B1 B 0.8650(2) 0.2675(1) 0.5465(1)
B2 B 0.7984(2) 0.3843(1) 0.6654(1)
C1 C 0.7773(2) 0.1620(1) 0.5140(1)
C2 C 0.6270(2) 0.1908(1) 0.5205(1)
C3 C 0.5759(2) 0.2888(1) 0.4707(1)
C4 C 0.6751(2) 0.3846(1) 0.4768(1)
C5 C 0.8292(2) 0.3580(1) 0.4788(1)
C6 C 0.8622(2) 0.3230(1) 0.3966(1)
C7 C 0.7937(2) 0.1274(1) 0.4286(1)
C8 C 0.7949(2) 0.2173(1) 0.3665(1)
C9 C 0.8598(2) 0.5017(1) 0.6613(1)
C10 C 0.9585(2) 0.5146(1) 0.7387(1)
C11 C 0.8958(2) 0.4934(1) 0.8152(1)
C12 C 0.8062(2) 0.3926(2) 0.8133(1)
C13 C 0.7092(2) 0.3768(1) 0.7360(1)
C14 C 0.5927(2) 0.4595(2) 0.7229(1)
C15 C 0.6379(2) 0.5750(2) 0.7101(1)
C16 C 0.7439(2) 0.5853(1) 0.6523(1)
C17 C 1.0601(2) 0.1897(1) 0.6493(1)
C18 C 1.2078(2) 0.1496(1) 0.6672(1)
C19 C 1.2950(2) 0.2073(1) 0.6124(1)
C20 C 1.2518(2) 0.1670(1) 0.5286(1)
C21 C 1.0947(2) 0.1674(1) 0.5129(1)
C22 C 1.1157(2) 0.3438(1) 0.5726(1)
C23 C 1.2612(2) 0.3268(1) 0.6140(1)
H1 H 0.7986 0.1001 0.5455
H2 H 0.6192 0.2063 0.5745
H3 H 0.5700 0.1318 0.5038
H4 H 0.5551 0.2671 0.4170
H5 H 0.4946 0.3111 0.4908
H6 H 0.6533 0.4338 0.5160
H7 H 0.8736 0.4250 0.4879
H8 H 0.8310 0.3766 0.3591
H9 H 0.9583 0.3152 0.3982
H10 H 0.7059 0.2348 0.3422
H11 H 0.8471 0.1888 0.3278
H12 H 0.8765 0.0887 0.4280
H13 H 0.7187 0.0832 0.4093
H14 H 0.9090 0.5139 0.6173
H15 H 0.9956 0.5848 0.7397
H16 H 1.0296 0.4639 0.7362
H17 H 0.9709 0.4830 0.8550
H18 H 0.8465 0.5554 0.8273
H19 H 0.8666 0.3333 0.8205
H20 H 0.7477 0.3928 0.8539
H21 H 0.6578 0.3129 0.7387
H22 H 0.5410 0.4509 0.7662
H23 H 0.5387 0.4391 0.6752
H24 H 0.6763 0.6070 0.7584
H25 H 0.5561 0.6112 0.6907
H26 H 0.6956 0.5801 0.6006
H27 H 0.7818 0.6549 0.6598
H28 H 1.0398 0.2429 0.6861
H29 H 0.9922 0.1355 0.6463
H30 H 1.2101 0.0748 0.6579
H31 H 1.2380 0.1637 0.7214
H32 H 1.3887 0.1938 0.6294
H33 H 1.2893 0.2149 0.4935
H34 H 1.2846 0.0968 0.5210
H35 H 1.0596 0.0984 0.5220
H36 H 1.0607 0.1908 0.4611
H37 H 1.1228 0.3650 0.5196
H38 H 1.0639 0.3952 0.5973
H39 H 1.2715 0.3517 0.6672
H40 H 1.3223 0.3644 0.5847
loop_
_geom_bond_atom_site_label_1
_geom_bond_atom_site_label_2
_geom_bond_site_symmetry_1
_geom_bond_site_symmetry_2
O1 B1 1_555 1_555
N1 B1 1_555 1_555
B1 C1 1_555 1_555
B2 O1 1_555 1_555
C1 C2 1_555 1_555
C2 C3 1_555 1_555
C3 C4 1_555 1_555
C4 C5 1_555 1_555
C5 B1 1_555 1_555
C6 C5 1_555 1_555
C7 C1 1_555 1_555
C8 C6 1_555 1_555
C9 B2 1_555 1_555
C10 C9 1_555 1_555
C11 C10 1_555 1_555
C12 C11 1_555 1_555
C13 B2 1_555 1_555
C14 C13 1_555 1_555
C15 C14 1_555 1_555
C16 C9 1_555 1_555
C17 N1 1_555 1_555
C18 C17 1_555 1_555
C19 C18 1_555 1_555
C20 C19 1_555 1_555
C21 N1 1_555 1_555
C22 N1 1_555 1_555
C23 C19 1_555 1_555
H1 C1 1_555 1_555
H2 C2 1_555 1_555
H3 C2 1_555 1_555
H4 C3 1_555 1_555
H5 C3 1_555 1_555
H6 C4 1_555 1_555
H7 C5 1_555 1_555
H8 C6 1_555 1_555
H9 C6 1_555 1_555
H10 C8 1_555 1_555
H11 C8 1_555 1_555
H12 C7 1_555 1_555
H13 C7 1_555 1_555
H14 C9 1_555 1_555
H15 C10 1_555 1_555
H16 C10 1_555 1_555
H17 C11 1_555 1_555
H18 C11 1_555 1_555
H19 C12 1_555 1_555
H20 C12 1_555 1_555
H21 C13 1_555 1_555
H22 C14 1_555 1_555
H23 C14 1_555 1_555
H24 C15 1_555 1_555
H25 C15 1_555 1_555
H26 C16 1_555 1_555
H27 C16 1_555 1_555
H28 C17 1_555 1_555
H29 C17 1_555 1_555
H30 C18 1_555 1_555
H31 C18 1_555 1_555
H32 C19 1_555 1_555
H33 C20 1_555 1_555
H34 C20 1_555 1_555
H35 C21 1_555 1_555
H36 C21 1_555 1_555
H37 C22 1_555 1_555
H38 C22 1_555 1_555
H39 C23 1_555 1_555
H40 C23 1_555 1_555
C7 C8 1_555 1_555
C12 C13 1_555 1_555
C15 C16 1_555 1_555
C20 C21 1_555 1_555
C22 C23 1_555 1_555

#END
