
#######################################################################
#
#                 Cambridge Crystallographic Data Centre
#                                CCDC 
#
#######################################################################
#
# If this CIF has been generated from an entry in the Cambridge 
# Structural Database, then it will include bibliographic, chemical, 
# crystal, experimental, refinement or atomic coordinate data resulting 
# from the CCDC's data processing and validation procedures.
#
#######################################################################

data_VAJPOO
_chemical_formula_moiety         '2(C11 H8 O3),C10 H8 N2'
_chemical_name_systematic        "6-hydroxy-2-naphthoic acid 4,4'-bipyridine"
_symmetry_cell_setting           monoclinic
_symmetry_space_group_name_H-M   'P 21/c'
_symmetry_Int_Tables_number      14
_space_group_name_Hall           '-P 2ybc'
loop_
_symmetry_equiv_pos_site_id
_symmetry_equiv_pos_as_xyz
1 x,y,z
2 -x,1/2+y,1/2-z
3 -x,-y,-z
4 x,1/2-y,1/2+z
_cell_length_a                   9.2240(7)
_cell_length_b                   18.5766(15)
_cell_length_c                   7.3662(7)
_cell_angle_alpha                90
_cell_angle_beta                 97.326(8)
_cell_angle_gamma                90
_cell_volume                     1251.9
_exptl_crystal_colour            colorless
_exptl_crystal_description       block
_cell_formula_units_Z            2
loop_
_atom_site_label
_atom_site_type_symbol
_atom_site_fract_x
_atom_site_fract_y
_atom_site_fract_z
O1 O 0.04628(19) 0.67160(11) -0.1927(3)
O2 O 0.97141(18) 0.69068(11) 0.2447(3)
H1 H 0.9773 0.7330 0.2761
O3 O 0.14041(18) 0.56166(11) -0.2004(3)
H2 H 0.0573 0.5522 -0.2479
C1 C 0.5735(3) 0.69900(14) 0.0938(3)
C2 C 0.2956(3) 0.65285(15) -0.0696(3)
C3 C 0.5552(3) 0.63103(14) 0.0059(3)
C4 C 0.1492(3) 0.63075(16) -0.1589(4)
C5 C 0.8321(3) 0.67601(15) 0.1684(4)
C6 C 0.4142(2) 0.60919(15) -0.0732(3)
H3 H 0.4021 0.5642 -0.1286
C7 C 0.3141(3) 0.72068(15) 0.0184(4)
H4 H 0.2335 0.7505 0.0223
C8 C 0.7151(3) 0.72081(15) 0.1761(3)
H5 H 0.7279 0.7652 0.2345
C9 C 0.8135(3) 0.60874(16) 0.0803(4)
H6 H 0.8941 0.5790 0.0751
C10 C 0.6791(3) 0.58669(15) 0.0026(3)
H7 H 0.6687 0.5418 -0.0534
C11 C 0.4488(3) 0.74294(16) 0.0977(3)
H8 H 0.4585 0.7876 0.1550
N1 N 0.1214(2) 0.47592(14) 0.3551(3)
C12 C 0.4199(2) 0.49504(16) 0.4715(3)
C13 C 0.1868(3) 0.53889(17) 0.3384(4)
H9 H 0.1306 0.5772 0.2876
C14 C 0.3512(3) 0.42994(16) 0.4940(4)
H10 H 0.4039 0.3914 0.5494
C15 C 0.3336(3) 0.55043(15) 0.3924(4)
H11 H 0.3745 0.5953 0.3756
C16 C 0.2033(3) 0.42271(17) 0.4335(4)
H12 H 0.1592 0.3785 0.4484
N1B N 0.8786(2) 0.52408(14) 0.6449(3)
C12B C 0.5801(2) 0.50496(16) 0.5285(3)
C13B C 0.8132(3) 0.46111(17) 0.6616(4)
H9B H 0.8694 0.4228 0.7124
C14B C 0.6488(3) 0.57006(16) 0.5060(4)
H10B H 0.5961 0.6086 0.4506
C15B C 0.6664(3) 0.44957(15) 0.6076(4)
H11B H 0.6255 0.4047 0.6244
C16B C 0.7967(3) 0.57729(17) 0.5665(4)
H12B H 0.8408 0.6215 0.5516
loop_
_geom_bond_atom_site_label_1
_geom_bond_atom_site_label_2
_geom_bond_site_symmetry_1
_geom_bond_site_symmetry_2
O1 C4 1_555 1_555
O2 H1 1_555 1_555
O3 H2 1_555 1_555
C1 C3 1_555 1_555
C2 C4 1_555 1_555
C3 C6 1_555 1_555
C4 O3 1_555 1_555
C5 O2 1_555 1_555
C6 C2 1_555 1_555
H3 C6 1_555 1_555
C7 C2 1_555 1_555
H4 C7 1_555 1_555
C8 C1 1_555 1_555
H5 C8 1_555 1_555
C9 C5 1_555 1_555
H6 C9 1_555 1_555
C10 C3 1_555 1_555
H7 C10 1_555 1_555
C11 C1 1_555 1_555
H8 C11 1_555 1_555
N1 C13 1_555 1_555
C12 C14 1_555 1_555
C13 H9 1_555 1_555
C14 H10 1_555 1_555
C15 C12 1_555 1_555
H11 C15 1_555 1_555
C16 N1 1_555 1_555
H12 C16 1_555 1_555
N1B C13B 1_555 1_555
C12B C12 1_555 1_555
C13B H9B 1_555 1_555
C14B C12B 1_555 1_555
H10B C14B 1_555 1_555
C15B C12B 1_555 1_555
H11B C15B 1_555 1_555
C16B N1B 1_555 1_555
H12B C16B 1_555 1_555
C5 C8 1_555 1_555
C7 C11 1_555 1_555
C9 C10 1_555 1_555
C13 C15 1_555 1_555
C14 C16 1_555 1_555
C13B C15B 1_555 1_555
C14B C16B 1_555 1_555

#END
