
#######################################################################
#
#                 Cambridge Crystallographic Data Centre
#                                CCDC 
#
#######################################################################
#
# If this CIF has been generated from an entry in the Cambridge 
# Structural Database, then it will include bibliographic, chemical, 
# crystal, experimental, refinement or atomic coordinate data resulting 
# from the CCDC's data processing and validation procedures.
#
#######################################################################

data_VAJQAB
_chemical_formula_moiety         'C11 H8 O3,C11 H7 O3 1-,C6 H10 N3 1+,H2 O1'
_chemical_name_systematic        
'2-amino-4,6-dimethylpyrimidin-1-ium 6-hydroxy-2-naphthoate 6-hydroxy-2-naphthoic acid monohydrate'
_symmetry_cell_setting           monoclinic
_symmetry_space_group_name_H-M   'P 21/n'
_symmetry_Int_Tables_number      14
_space_group_name_Hall           '-P 2yn'
loop_
_symmetry_equiv_pos_site_id
_symmetry_equiv_pos_as_xyz
1 x,y,z
2 1/2-x,1/2+y,1/2-z
3 -x,-y,-z
4 1/2+x,1/2-y,1/2+z
_cell_length_a                   8.6706(4)
_cell_length_b                   10.1327(6)
_cell_length_c                   28.5053(19)
_cell_angle_alpha                90
_cell_angle_beta                 93.957(5)
_cell_angle_gamma                90
_cell_volume                     2498.41
_exptl_crystal_colour            colorless
_exptl_crystal_description       needle
_cell_formula_units_Z            4
loop_
_atom_site_label
_atom_site_type_symbol
_atom_site_fract_x
_atom_site_fract_y
_atom_site_fract_z
O1 O 0.82336(19) 0.7039(2) 0.37614(7)
O2 O -0.12704(19) 0.6979(2) 0.25220(8)
H1 H -0.1552 0.7680 0.2632
O3 O 0.77941(19) 0.5084(2) 0.34262(8)
C1 C 0.3307(3) 0.6109(3) 0.29436(9)
C2 C 0.5737(3) 0.6611(3) 0.33828(9)
C3 C 0.1066(3) 0.7558(3) 0.29746(10)
H2 H 0.0604 0.8311 0.3089
C4 C 0.4866(3) 0.5803(3) 0.30849(9)
H3 H 0.5305 0.5038 0.2973
C5 C 0.0240(3) 0.6742(3) 0.26754(10)
C6 C 0.2640(3) 0.7266(3) 0.31149(9)
C7 C 0.7370(3) 0.6244(3) 0.35385(10)
C8 C 0.0906(3) 0.5591(3) 0.25040(10)
H4 H 0.0327 0.5041 0.2298
C9 C 0.3557(3) 0.8091(3) 0.34163(10)
H5 H 0.3135 0.8864 0.3528
C10 C 0.2399(3) 0.5280(3) 0.26387(10)
H6 H 0.2826 0.4508 0.2528
C11 C 0.5063(3) 0.7776(3) 0.35488(10)
H7 H 0.5647 0.8334 0.3750
O4 O 0.4485(2) 0.4543(2) 0.55300(8)
O5 O -0.2006(2) -0.0372(2) 0.39445(9)
H8 H -0.1836 -0.1087 0.3824
O6 O 0.6045(3) 0.2957(2) 0.53203(9)
C12 C 0.1912(16) 0.1155(9) 0.4651(4)
C13 C 0.4755(5) 0.3443(4) 0.53232(12)
C14 C -0.0688(8) 0.0098(12) 0.4162(4)
C15 C 0.3273(5) 0.1699(4) 0.48902(14)
H9 H 0.4203 0.1239 0.4902
C16 C 0.3186(8) 0.2906(5) 0.51016(18)
C17 C 0.1988(5) -0.0101(5) 0.44244(16)
H10 H 0.2914 -0.0568 0.4440
C18 C -0.0770(7) 0.1290(7) 0.4378(2)
H11 H -0.1702 0.1747 0.4361
C19 C 0.0525(8) 0.1841(5) 0.46279(18)
C20 C 0.0729(6) -0.0611(6) 0.4189(2)
H12 H 0.0786 -0.1429 0.4043
C21 C 0.0489(5) 0.3065(4) 0.48621(15)
H13 H -0.0438 0.3528 0.4859
C22 C 0.1771(5) 0.3586(5) 0.50916(15)
H14 H 0.1714 0.4396 0.5243
H15 H 0.548(4) 0.490(4) 0.5667(13)
N1 N 0.3102(2) 0.4309(2) 0.39795(7)
N2 N 0.0547(2) 0.4184(2) 0.36318(7)
H22 H -0.0365 0.4519 0.3595
N3 N 0.1293(2) 0.5886(2) 0.41321(8)
H23 H 0.1976 0.6280 0.4315
H24 H 0.0374 0.6204 0.4092
C33 C 0.1656(3) 0.4791(3) 0.39119(9)
C34 C 0.0871(3) 0.3068(3) 0.34130(10)
C35 C 0.3427(3) 0.3197(3) 0.37578(10)
C36 C 0.2321(3) 0.2543(3) 0.34708(10)
H25 H 0.2561 0.1762 0.3321
C37 C -0.0412(3) 0.2446(3) 0.31084(12)
H26 H -0.1352 0.2476 0.3267
H27 H -0.0154 0.1544 0.3046
H28 H -0.0550 0.2920 0.2817
C38 C 0.5055(3) 0.2700(3) 0.38253(13)
H29 H 0.5701 0.3187 0.3627
H30 H 0.5082 0.1781 0.3744
H31 H 0.5426 0.2812 0.4148
O7 O -0.2190(3) -0.0572(3) 0.28288(11)
H32 H -0.2537 0.0079 0.2666
H33 H -0.2443 -0.0487 0.3110
C23? C 0.3884(13) 0.2487(12) 0.5034(4)
C24? C 0.4338(10) 0.1229(9) 0.4836(3)
H16? H 0.5373 0.0981 0.4856
C25? C 0.3253(9) 0.0419(9) 0.4622(3)
H17? H 0.3559 -0.0399 0.4513
C26? C 0.177(3) 0.0756(18) 0.4564(8)
C27? C 0.1258(15) 0.2013(13) 0.4753(4)
C28? C 0.2378(13) 0.2865(12) 0.4996(4)
H18? H 0.2074 0.3661 0.5124
C29? C -0.0310(13) 0.2420(13) 0.4681(4)
H19? H -0.0604 0.3244 0.4788
C30? C -0.1380(14) 0.1622(13) 0.4460(5)
H20? H -0.2407 0.1892 0.4435
C31? C -0.1005(16) 0.044(2) 0.4273(9)
C32? C 0.0482(14) -0.0002(12) 0.4318(5)
H21? H 0.0705 -0.0816 0.4188
loop_
_geom_bond_atom_site_label_1
_geom_bond_atom_site_label_2
_geom_bond_site_symmetry_1
_geom_bond_site_symmetry_2
O1 C7 1_555 1_555
O2 H1 1_555 1_555
O3 C7 1_555 1_555
C1 C4 1_555 1_555
C2 C4 1_555 1_555
C3 H2 1_555 1_555
C4 H3 1_555 1_555
C5 O2 1_555 1_555
C6 C1 1_555 1_555
C7 C2 1_555 1_555
C8 C5 1_555 1_555
H4 C8 1_555 1_555
C9 C6 1_555 1_555
H5 C9 1_555 1_555
C10 C1 1_555 1_555
H6 C10 1_555 1_555
C11 C2 1_555 1_555
H7 C11 1_555 1_555
O4 C13 1_555 1_555
O5 H8 1_555 1_555
O6 C13 1_555 1_555
C12 C15 1_555 1_555
C13 C16 1_555 1_555
C14 O5 1_555 1_555
C15 H9 1_555 1_555
C16 C15 1_555 1_555
C17 C12 1_555 1_555
H10 C17 1_555 1_555
C18 C14 1_555 1_555
H11 C18 1_555 1_555
C19 C12 1_555 1_555
C20 C14 1_555 1_555
H12 C20 1_555 1_555
C21 C19 1_555 1_555
H13 C21 1_555 1_555
C22 C16 1_555 1_555
H14 C22 1_555 1_555
H15 O4 1_555 1_555
N1 C33 1_555 1_555
N2 H22 1_555 1_555
N3 H23 1_555 1_555
H24 N3 1_555 1_555
C33 N2 1_555 1_555
C34 N2 1_555 1_555
C35 N1 1_555 1_555
C36 C34 1_555 1_555
H25 C36 1_555 1_555
C37 C34 1_555 1_555
H26 C37 1_555 1_555
H27 C37 1_555 1_555
H28 C37 1_555 1_555
C38 C35 1_555 1_555
H29 C38 1_555 1_555
H30 C38 1_555 1_555
H31 C38 1_555 1_555
O7 H32 1_555 1_555
H33 O7 1_555 1_555
C3 C5 1_555 1_555
C3 C6 1_555 1_555
C8 C10 1_555 1_555
C9 C11 1_555 1_555
C17 C20 1_555 1_555
C18 C19 1_555 1_555
C21 C22 1_555 1_555
N3 C33 1_555 1_555
C35 C36 1_555 1_555

#END
