
#######################################################################
#
#                 Cambridge Crystallographic Data Centre
#                                CCDC 
#
#######################################################################
#
# If this CIF has been generated from an entry in the Cambridge 
# Structural Database, then it will include bibliographic, chemical, 
# crystal, experimental, refinement or atomic coordinate data resulting 
# from the CCDC's data processing and validation procedures.
#
#######################################################################

data_VAJRIK
_chemical_formula_moiety         'C21 H21 N3 O3,C1 H1 Cl3'
_chemical_name_systematic        
'3-(3-(t-butylamino)-7-methylimidazo[1,2-a]pyridin-2-yl)-4-hydroxy-2H-chromen-2-one chloroform solvate'
_symmetry_cell_setting           triclinic
_symmetry_space_group_name_H-M   'P -1'
_symmetry_Int_Tables_number      2
_space_group_name_Hall           '-P 1'
loop_
_symmetry_equiv_pos_site_id
_symmetry_equiv_pos_as_xyz
1 x,y,z
2 -x,-y,-z
_cell_length_a                   8.4072(5)
_cell_length_b                   11.7106(7)
_cell_length_c                   12.0661(8)
_cell_angle_alpha                88.9306(19)
_cell_angle_beta                 82.3238(19)
_cell_angle_gamma                81.0804(18)
_cell_volume                     1163.06
_exptl_crystal_colour            yellow
_exptl_crystal_description       Block
_chemical_melting_point          '507 K'
_cell_formula_units_Z            2
_exptl_crystal_recrystallization_method chloroform
loop_
_atom_site_label
_atom_site_type_symbol
_atom_site_fract_x
_atom_site_fract_y
_atom_site_fract_z
Cl1 Cl -0.4309(4) 0.1498(3) 0.47957(14)
Cl2 Cl -0.3519(3) 0.28336(14) 0.65303(17)
Cl3 Cl -0.50205(16) 0.08493(13) 0.70965(11)
C1 C -0.3697(6) 0.1454(4) 0.6109(4)
H1 H -0.2626 0.0975 0.6065
O1 O -0.0929(3) -0.00553(15) 0.22563(15)
O2 O 0.0276(3) -0.00883(15) 0.37584(16)
O3 O -0.0978(3) 0.34133(15) 0.18533(18)
N1 N 0.0476(3) 0.19330(17) 0.47913(17)
N2 N 0.1508(3) 0.35273(16) 0.47001(17)
N3 N 0.1613(3) 0.40421(18) 0.27485(18)
C2 C -0.1500(3) 0.0491(3) 0.1343(2)
C3 C -0.2115(4) -0.0176(3) 0.0615(3)
C4 C -0.2686(5) 0.0341(3) -0.0324(3)
C5 C -0.2650(5) 0.1504(3) -0.0531(3)
C6 C -0.2050(4) 0.2158(3) 0.0202(3)
C7 C -0.1471(3) 0.1659(2) 0.1160(2)
C8 C -0.0852(3) 0.2348(2) 0.1968(2)
C9 C -0.0148(3) 0.17127(19) 0.28468(19)
C10 C -0.0220(3) 0.0520(2) 0.3000(2)
C11 C 0.0546(3) 0.22974(19) 0.36839(19)
C12 C 0.1247(3) 0.32822(19) 0.3609(2)
C13 C 0.1059(3) 0.26773(19) 0.5405(2)
C14 C 0.1209(4) 0.2707(3) 0.6541(3)
C15 C 0.1772(4) 0.3630(3) 0.6949(3)
C16 C 0.2178(4) 0.4520(3) 0.6197(3)
C17 C 0.2051(4) 0.4463(2) 0.5099(3)
C18 C 0.1961(5) 0.3710(3) 0.8165(3)
C19 C 0.3194(4) 0.3754(3) 0.2001(3)
C20 C 0.4578(5) 0.3830(5) 0.2650(4)
C21 C 0.3130(7) 0.4687(5) 0.1106(4)
C22 C 0.3366(6) 0.2570(5) 0.1471(5)
H2 H -0.2144 -0.0957 0.0756
H3 H 0.0950 0.4661 0.2647
H4 H -0.3098 -0.0097 -0.0822
H5 H -0.1407 0.3606 0.1293
H6 H -0.3033 0.1844 -0.1167
H7 H -0.2029 0.2939 0.0059
H8 H 0.0932 0.2111 0.7012
H9 H 0.2539 0.5157 0.6470
H10 H 0.2329 0.5052 0.4618
H11 H 0.1234 0.4364 0.8496
H12 H 0.3060 0.3798 0.8234
H13 H 0.1711 0.3017 0.8541
H14 H 0.5581 0.3719 0.2153
H15 H 0.4610 0.3242 0.3216
H16 H 0.4429 0.4577 0.2997
H17 H 0.2205 0.4664 0.0723
H18 H 0.4104 0.4555 0.0581
H19 H 0.3040 0.5431 0.1450
H20 H 0.2515 0.2558 0.1016
H21 H 0.3292 0.1996 0.2046
H22 H 0.4401 0.2406 0.1014
loop_
_geom_bond_atom_site_label_1
_geom_bond_atom_site_label_2
_geom_bond_site_symmetry_1
_geom_bond_site_symmetry_2
Cl1 C1 1_555 1_555
Cl2 C1 1_555 1_555
Cl3 C1 1_555 1_555
C1 H1 1_555 1_555
O1 C2 1_555 1_555
O2 C10 1_555 1_555
O3 C8 1_555 1_555
N1 C11 1_555 1_555
N2 C12 1_555 1_555
N3 C12 1_555 1_555
C2 C3 1_555 1_555
C3 C4 1_555 1_555
C4 C5 1_555 1_555
C5 C6 1_555 1_555
C6 C7 1_555 1_555
C7 C2 1_555 1_555
C8 C7 1_555 1_555
C9 C8 1_555 1_555
C10 O1 1_555 1_555
C11 C9 1_555 1_555
C12 C11 1_555 1_555
C13 N1 1_555 1_555
C14 C13 1_555 1_555
C15 C14 1_555 1_555
C16 C15 1_555 1_555
C17 N2 1_555 1_555
C18 C15 1_555 1_555
C19 N3 1_555 1_555
C20 C19 1_555 1_555
C21 C19 1_555 1_555
C22 C19 1_555 1_555
H2 C3 1_555 1_555
H3 N3 1_555 1_555
H4 C4 1_555 1_555
H5 O3 1_555 1_555
H6 C5 1_555 1_555
H7 C6 1_555 1_555
H8 C14 1_555 1_555
H9 C16 1_555 1_555
H10 C17 1_555 1_555
H11 C18 1_555 1_555
H12 C18 1_555 1_555
H13 C18 1_555 1_555
H14 C20 1_555 1_555
H15 C20 1_555 1_555
H16 C20 1_555 1_555
H17 C21 1_555 1_555
H18 C21 1_555 1_555
H19 C21 1_555 1_555
H20 C22 1_555 1_555
H21 C22 1_555 1_555
H22 C22 1_555 1_555
N2 C13 1_555 1_555
C9 C10 1_555 1_555
C16 C17 1_555 1_555

#END
