
#######################################################################
#
#                 Cambridge Crystallographic Data Centre
#                                CCDC 
#
#######################################################################
#
# If this CIF has been generated from an entry in the Cambridge 
# Structural Database, then it will include bibliographic, chemical, 
# crystal, experimental, refinement or atomic coordinate data resulting 
# from the CCDC's data processing and validation procedures.
#
#######################################################################

data_VAJSOR
_chemical_formula_moiety         'C8 H8 Br2 O2 S1'
_chemical_name_systematic        'dibromomethyl 4-methylphenyl sulfone'
_symmetry_cell_setting           monoclinic
_symmetry_space_group_name_H-M   'P 21/n'
_symmetry_Int_Tables_number      14
_space_group_name_Hall           '-P 2yn'
loop_
_symmetry_equiv_pos_site_id
_symmetry_equiv_pos_as_xyz
1 x,y,z
2 1/2-x,1/2+y,1/2-z
3 -x,-y,-z
4 1/2+x,1/2-y,1/2+z
_cell_length_a                   8.048(4)
_cell_length_b                   7.321(4)
_cell_length_c                   18.167(9)
_cell_angle_alpha                90
_cell_angle_beta                 92.640(10)
_cell_angle_gamma                90
_cell_volume                     1069.25
_exptl_crystal_colour            colorless
_exptl_crystal_description       block
_cell_formula_units_Z            4
loop_
_atom_site_label
_atom_site_type_symbol
_atom_site_fract_x
_atom_site_fract_y
_atom_site_fract_z
C1 C 0.5291(14) 0.1444(14) 0.2019(6)
H1 H 0.6262 0.1014 0.2314
C2 C 0.7412(13) 0.3120(11) 0.1037(6)
C3 C 0.7149(16) 0.3176(13) 0.0291(6)
H2 H 0.6094 0.3415 0.0082
C4 C 0.8476(18) 0.2872(14) -0.0152(6)
H3 H 0.8292 0.2908 -0.0661
C5 C 1.0068(15) 0.2515(14) 0.0135(7)
C6 C 1.0292(15) 0.2465(16) 0.0887(7)
H4 H 1.1340 0.2205 0.1099
C7 C 0.9001(16) 0.2791(15) 0.1332(7)
H5 H 0.9192 0.2792 0.1841
C8 C 1.1487(17) 0.2174(16) -0.0366(7)
H6 H 1.1477 0.0917 -0.0517
H7 H 1.2524 0.2444 -0.0106
H8 H 1.1360 0.2945 -0.0792
O1 O 0.6421(11) 0.4700(11) 0.2217(5)
O2 O 0.4418(9) 0.4263(10) 0.1179(4)
S1 S 0.5797(3) 0.3632(3) 0.16135(16)
Br1 Br 0.34966(18) 0.18116(19) 0.26603(7)
Br2 Br 0.47459(18) -0.03376(18) 0.12819(8)
loop_
_geom_bond_atom_site_label_1
_geom_bond_atom_site_label_2
_geom_bond_site_symmetry_1
_geom_bond_site_symmetry_2
C1 H1 1_555 1_555
C2 C3 1_555 1_555
C3 H2 1_555 1_555
C4 C3 1_555 1_555
H3 C4 1_555 1_555
C5 C4 1_555 1_555
C6 C5 1_555 1_555
H4 C6 1_555 1_555
C7 C2 1_555 1_555
H5 C7 1_555 1_555
C8 C5 1_555 1_555
H6 C8 1_555 1_555
H7 C8 1_555 1_555
H8 C8 1_555 1_555
O1 S1 1_555 1_555
O2 S1 1_555 1_555
S1 C1 1_555 1_555
Br1 C1 1_555 1_555
Br2 C1 1_555 1_555
C2 S1 1_555 1_555
C6 C7 1_555 1_555

#END
