
#######################################################################
#
#                 Cambridge Crystallographic Data Centre
#                                CCDC 
#
#######################################################################
#
# If this CIF has been generated from an entry in the Cambridge 
# Structural Database, then it will include bibliographic, chemical, 
# crystal, experimental, refinement or atomic coordinate data resulting 
# from the CCDC's data processing and validation procedures.
#
#######################################################################

data_VAJVIN
_chemical_formula_moiety         'C22 H18 N8'
_chemical_name_systematic        
2,2'-(1,3-Phenylenebis(methylene-1H-1,2,3-triazole-1,4-diyl))dipyridine
_symmetry_cell_setting           orthorhombic
_symmetry_space_group_name_H-M   'P b c a'
_symmetry_Int_Tables_number      61
_space_group_name_Hall           '-P 2ac 2ab'
loop_
_symmetry_equiv_pos_site_id
_symmetry_equiv_pos_as_xyz
1 x,y,z
2 1/2+x,1/2-y,-z
3 -x,1/2+y,1/2-z
4 1/2-x,-y,1/2+z
5 -x,-y,-z
6 1/2-x,1/2+y,z
7 x,1/2-y,1/2+z
8 1/2+x,y,1/2-z
_cell_length_a                   9.8170(5)
_cell_length_b                   9.9754(5)
_cell_length_c                   38.6879(17)
_cell_angle_alpha                90
_cell_angle_beta                 90
_cell_angle_gamma                90
_cell_volume                     3788.65
_exptl_crystal_colour            colorless
_exptl_crystal_description       plate
_cell_formula_units_Z            8
loop_
_atom_site_label
_atom_site_type_symbol
_atom_site_fract_x
_atom_site_fract_y
_atom_site_fract_z
N1 N 0.32850(12) 0.08663(11) 1.15369(3)
N2 N 0.26213(11) 0.39757(11) 1.08175(3)
N3 N 0.21910(11) 0.51228(11) 0.90707(3)
N4 N 0.33538(12) 0.58212(12) 0.91143(3)
N5 N 0.35562(12) 0.65027(12) 0.88273(3)
N6 N 0.13245(12) 0.66375(12) 0.80751(3)
N7 N 0.12516(11) 0.38619(12) 1.08142(3)
N8 N 0.09292(12) 0.29245(12) 1.10386(3)
C1 C 0.21013(16) -0.05974(15) 1.19286(4)
H1 H 0.2147 -0.1293 1.2096
C2 C 0.32743(15) -0.01150(14) 1.17727(4)
H2 H 0.4120 -0.0504 1.1837
C3 C 0.20722(14) 0.13814(13) 1.14454(3)
C4 C 0.20951(13) 0.24374(14) 1.11823(3)
C5 C 0.31829(13) 0.31067(13) 1.10411(3)
H3 H 0.4122 0.2983 1.1090
C6 C 0.32927(14) 0.48878(13) 1.05741(3)
H4 H 0.4208 0.5121 1.0663
H5 H 0.2757 0.5726 1.0556
C7 C 0.34276(14) 0.42588(13) 1.02206(3)
C8 C 0.25016(14) 0.45721(13) 0.99595(3)
H6 H 0.1785 0.5187 1.0005
C9 C 0.26119(13) 0.39982(13) 0.96330(3)
C10 C 0.15901(13) 0.43401(13) 0.93564(3)
H7 H 0.1201 0.3500 0.9262
H8 H 0.0837 0.4861 0.9461
C11 C 0.16415(14) 0.53563(13) 0.87584(3)
H9 H 0.0826 0.4990 0.8666
C12 C 0.25227(14) 0.62450(13) 0.86024(3)
C13 C 0.24418(14) 0.69034(13) 0.82639(3)
C14 C 0.34575(15) 0.77813(14) 0.81529(4)
H10 H 0.4243 0.7936 0.8291
C15 C 0.32976(16) 0.84224(14) 0.78385(4)
H11 H 0.3973 0.9027 0.7757
C16 C 0.21405(17) 0.81711(15) 0.76442(4)
H12 H 0.1998 0.8607 0.7429
C17 C 0.08654(16) -0.00454(15) 1.18356(4)
H13 H 0.0045 -0.0346 1.1940
C18 C 0.08431(15) 0.09529(14) 1.15876(4)
H14 H 0.0005 0.1339 1.1516
C19 C 0.12003(16) 0.72701(15) 0.77720(4)
H15 H 0.0416 0.7088 0.7636
C20 C 0.36644(13) 0.30939(13) 0.95689(3)
H16 H 0.3745 0.2688 0.9348
C21 C 0.45936(14) 0.27850(13) 0.98260(3)
H17 H 0.5313 0.2174 0.9780
C22 C 0.44790(14) 0.33638(13) 1.01516(3)
H18 H 0.5119 0.3148 1.0327
loop_
_geom_bond_atom_site_label_1
_geom_bond_atom_site_label_2
_geom_bond_site_symmetry_1
_geom_bond_site_symmetry_2
N1 C2 1_555 1_555
N2 N7 1_555 1_555
N3 N4 1_555 1_555
N4 N5 1_555 1_555
N5 C12 1_555 1_555
N6 C13 1_555 1_555
N7 N8 1_555 1_555
N8 C4 1_555 1_555
C1 H1 1_555 1_555
C2 C1 1_555 1_555
H2 C2 1_555 1_555
C3 N1 1_555 1_555
C4 C3 1_555 1_555
C5 N2 1_555 1_555
H3 C5 1_555 1_555
C6 N2 1_555 1_555
H4 C6 1_555 1_555
H5 C6 1_555 1_555
C7 C6 1_555 1_555
C8 C7 1_555 1_555
H6 C8 1_555 1_555
C9 C8 1_555 1_555
C10 N3 1_555 1_555
H7 C10 1_555 1_555
H8 C10 1_555 1_555
C11 N3 1_555 1_555
H9 C11 1_555 1_555
C12 C11 1_555 1_555
C13 C12 1_555 1_555
C14 C13 1_555 1_555
H10 C14 1_555 1_555
C15 C14 1_555 1_555
H11 C15 1_555 1_555
C16 C15 1_555 1_555
H12 C16 1_555 1_555
C17 C1 1_555 1_555
H13 C17 1_555 1_555
C18 C3 1_555 1_555
H14 C18 1_555 1_555
C19 N6 1_555 1_555
H15 C19 1_555 1_555
C20 C9 1_555 1_555
H16 C20 1_555 1_555
C21 C20 1_555 1_555
H17 C21 1_555 1_555
C22 C7 1_555 1_555
H18 C22 1_555 1_555
C4 C5 1_555 1_555
C9 C10 1_555 1_555
C16 C19 1_555 1_555
C17 C18 1_555 1_555
C21 C22 1_555 1_555

#END
