
#######################################################################
#
#                 Cambridge Crystallographic Data Centre
#                                CCDC 
#
#######################################################################
#
# If this CIF has been generated from an entry in the Cambridge 
# Structural Database, then it will include bibliographic, chemical, 
# crystal, experimental, refinement or atomic coordinate data resulting 
# from the CCDC's data processing and validation procedures.
#
#######################################################################

data_VAJVOU
_chemical_formula_moiety         'C13 H9 F3 N2 O2'
_chemical_name_systematic        
3-(1H-pyrrol-2-yl)-3-(trifluoromethyl)-3,4-dihydro-2H-1,4-benzoxazin-2-one
_symmetry_cell_setting           monoclinic
_symmetry_space_group_name_H-M   'P 21'
_symmetry_Int_Tables_number      4
_space_group_name_Hall           'P 2yb'
loop_
_symmetry_equiv_pos_site_id
_symmetry_equiv_pos_as_xyz
1 x,y,z
2 -x,1/2+y,-z
_cell_length_a                   8.6828(5)
_cell_length_b                   6.4475(3)
_cell_length_c                   11.5604(7)
_cell_angle_alpha                90
_cell_angle_beta                 96.958(5)
_cell_angle_gamma                90
_cell_volume                     642.412
_exptl_crystal_colour            colorless
_exptl_crystal_description       block
_cell_formula_units_Z            2
loop_
_atom_site_label
_atom_site_type_symbol
_atom_site_fract_x
_atom_site_fract_y
_atom_site_fract_z
F1 F 0.8479(2) 0.6549(4) 0.53118(17)
F2 F 1.04747(18) 0.6934(4) 0.65607(19)
F3 F 0.9160(2) 0.9600(4) 0.59194(18)
O1 O 0.8273(3) 0.3766(4) 0.7206(2)
O2 O 0.7820(4) 0.5121(3) 0.8865(2)
N1 N 0.8686(3) 0.8941(3) 0.81196(19)
H1 H 0.8642 1.0196 0.7865
N2 N 0.5471(3) 0.6635(5) 0.6040(2)
H2 H 0.5799 0.5538 0.5724
C1 C 0.7682(4) 0.6857(5) 0.9566(3)
C2 C 0.7132(6) 0.6583(7) 1.0614(4)
H3 H 0.6821 0.5273 1.0829
C3 C 0.7039(8) 0.8225(8) 1.1345(4)
H4 H 0.6644 0.8048 1.2051
C4 C 0.7526(7) 1.0119(7) 1.1032(3)
H5 H 0.7489 1.1237 1.1536
C5 C 0.8082(5) 1.0406(6) 0.9962(3)
H6 H 0.8416 1.1711 0.9759
C6 C 0.8139(3) 0.8773(4) 0.9208(2)
C7 C 0.8096(4) 0.5285(4) 0.7753(3)
C8 C 0.8029(3) 0.7496(4) 0.7238(2)
C9 C 0.6353(3) 0.7916(4) 0.6796(2)
C10 C 0.5396(3) 0.9443(5) 0.7098(2)
H7 H 0.5675 1.0539 0.7604
C11 C 0.3908(3) 0.9067(6) 0.6508(3)
H8 H 0.3025 0.9862 0.6560
C12 C 0.3988(3) 0.7376(6) 0.5866(3)
H9 H 0.3172 0.6792 0.5378
C13 C 0.9052(3) 0.7612(6) 0.6248(3)
loop_
_geom_bond_atom_site_label_1
_geom_bond_atom_site_label_2
_geom_bond_site_symmetry_1
_geom_bond_site_symmetry_2
F1 C13 1_555 1_555
F2 C13 1_555 1_555
F3 C13 1_555 1_555
O1 C7 1_555 1_555
O2 C1 1_555 1_555
N1 H1 1_555 1_555
N2 H2 1_555 1_555
C1 C2 1_555 1_555
C2 H3 1_555 1_555
C3 C2 1_555 1_555
H4 C3 1_555 1_555
C4 C3 1_555 1_555
H5 C4 1_555 1_555
C5 C4 1_555 1_555
H6 C5 1_555 1_555
C6 N1 1_555 1_555
C7 O2 1_555 1_555
C8 N1 1_555 1_555
C9 N2 1_555 1_555
C10 C9 1_555 1_555
H7 C10 1_555 1_555
C11 C10 1_555 1_555
H8 C11 1_555 1_555
C12 N2 1_555 1_555
H9 C12 1_555 1_555
C13 C8 1_555 1_555
C1 C6 1_555 1_555
C5 C6 1_555 1_555
C7 C8 1_555 1_555
C8 C9 1_555 1_555
C11 C12 1_555 1_555

#END
