
#######################################################################
#
#                 Cambridge Crystallographic Data Centre
#                                CCDC 
#
#######################################################################
#
# If this CIF has been generated from an entry in the Cambridge 
# Structural Database, then it will include bibliographic, chemical, 
# crystal, experimental, refinement or atomic coordinate data resulting 
# from the CCDC's data processing and validation procedures.
#
#######################################################################

data_VAJZIQ
_chemical_formula_moiety         'C24 H29 N1 O5 S1'
_chemical_name_systematic        
'Ethyl 1-benzyl-4-((4-methylphenyl)sulfonyl)-5-oxo-3-propyl-2 -pyrrolidinecarboxylate'
_symmetry_cell_setting           triclinic
_symmetry_space_group_name_H-M   'P 1'
_symmetry_Int_Tables_number      1
_space_group_name_Hall           'P 1'
loop_
_symmetry_equiv_pos_site_id
_symmetry_equiv_pos_as_xyz
1 x,y,z
_cell_length_a                   10.3108(12)
_cell_length_b                   12.1191(13)
_cell_length_c                   12.3070(15)
_cell_angle_alpha                62.143(2)
_cell_angle_beta                 66.175(2)
_cell_angle_gamma                89.934(2)
_cell_volume                     1209.86
_exptl_crystal_colour            colorless
_chemical_melting_point          90-91deg.C
_cell_formula_units_Z            2
_exptl_crystal_recrystallization_method 'ethyl acetate'
loop_
_atom_site_label
_atom_site_type_symbol
_atom_site_fract_x
_atom_site_fract_y
_atom_site_fract_z
S1 S 0.4115(2) 0.4069(2) 0.3551(3)
N1 N 0.5617(11) 0.4473(8) 0.5669(9)
O1 O 0.4537(8) 0.2487(7) 0.6319(8)
O2 O 0.3348(8) 0.2770(7) 0.4281(9)
O3 O 0.3669(9) 0.5025(8) 0.2659(9)
O4 O 0.8095(12) 0.5991(9) 0.3536(10)
O5 O 0.7361(11) 0.7754(8) 0.3529(10)
C1 C 0.4729(11) 0.3647(10) 0.5709(11)
C2 C 0.3990(11) 0.4435(10) 0.4817(12)
H1 H 0.2953 0.4260 0.5439
C3 C 0.4663(12) 0.5845(11) 0.4212(13)
H2 H 0.5226 0.6257 0.3206
C4 C 0.5720(16) 0.5789(12) 0.4844(16)
H3 H 0.5308 0.6118 0.5473
C5 C 0.6314(13) 0.4038(10) 0.6533(13)
H4 H 0.7356 0.4223 0.5964
H5 H 0.5969 0.3115 0.7139
C6 C 0.6026(13) 0.4674(11) 0.7420(12)
C7 C 0.7165(16) 0.5541(11) 0.7123(14)
H6 H 0.8098 0.5701 0.6440
C8 C 0.688(2) 0.6194(16) 0.7894(19)
H7 H 0.7629 0.6787 0.7701
C9 C 0.554(2) 0.5947(18) 0.8879(16)
H8 H 0.5348 0.6399 0.9343
C10 C 0.4422(18) 0.500(2) 0.9220(15)
H9 H 0.3511 0.4788 0.9957
C11 C 0.4656(14) 0.4406(14) 0.8487(14)
H10 H 0.3894 0.3811 0.8698
C12 C 0.5951(11) 0.4180(10) 0.2636(11)
C13 C 0.6862(15) 0.5297(12) 0.1355(13)
H11 H 0.6460 0.5981 0.0986
C14 C 0.8237(13) 0.5389(11) 0.0685(13)
H12 H 0.8804 0.6168 -0.0108
C15 C 0.8889(12) 0.4404(13) 0.1085(14)
C16 C 0.8012(14) 0.3265(13) 0.2334(13)
H13 H 0.8430 0.2578 0.2656
C17 C 0.6597(15) 0.3146(12) 0.3064(14)
H14 H 0.6035 0.2369 0.3864
C18 C 1.0469(13) 0.4501(13) 0.0209(16)
H15 H 1.0874 0.5330 -0.0618
H16 H 1.0527 0.3847 -0.0031
H17 H 1.1007 0.4387 0.0719
C19 C 0.7094(16) 0.6611(10) 0.3818(18)
C20 C 0.968(2) 0.660(2) 0.2397(19)
H18 H 0.9760 0.6554 0.1607
H19 H 0.9894 0.7500 0.2108
C21 C 1.0632(16) 0.611(2) 0.272(2)
H20 H 1.1582 0.6591 0.1967
H21 H 1.0501 0.5238 0.2911
H22 H 1.0544 0.6111 0.3523
C22 C 0.3566(11) 0.6595(11) 0.455(2)
H23 H 0.3952 0.6969 0.4936
H24 H 0.3782 0.7302 0.3640
C23 C 0.2327(12) 0.6465(18) 0.516(3)
H25 H 0.2076 0.5799 0.6095
H26 H 0.1896 0.6077 0.4810
C24 C 0.147(2) 0.7377(16) 0.531(2)
H27 H 0.0458 0.7003 0.5689
H28 H 0.1777 0.8138 0.4424
H29 H 0.1606 0.7595 0.5919
S2 S 0.0862(2) 0.1853(3) 0.8900(3)
N2 N -0.0621(10) 0.1445(8) 0.6728(9)
O6 O 0.0425(8) 0.3414(7) 0.6173(8)
O7 O 0.1646(9) 0.3165(8) 0.8195(10)
O8 O 0.1303(9) 0.0839(9) 0.9814(9)
O9 O -0.3207(11) -0.0042(10) 0.8918(12)
O10 O -0.2479(11) -0.1724(7) 0.9660(18)
C25 C 0.0249(12) 0.2242(11) 0.6784(10)
C26 C 0.0974(10) 0.1462(9) 0.7634(10)
H30 H 0.2010 0.1656 0.7000
C27 C 0.0334(13) 0.0045(9) 0.8208(12)
H31 H -0.0321 -0.0295 0.9189
C28 C -0.0652(14) 0.0090(9) 0.7578(11)
H32 H -0.0309 -0.0297 0.7000
C29 C -0.1342(15) 0.1877(12) 0.5809(13)
H33 H -0.2385 0.1714 0.6359
H34 H -0.0975 0.2792 0.5160
C30 C -0.1051(16) 0.1188(11) 0.5050(13)
C31 C -0.2132(15) 0.0306(14) 0.5357(15)
H35 H -0.3030 0.0115 0.6099
C32 C -0.2020(19) -0.0304(15) 0.4693(19)
H36 H -0.2818 -0.0861 0.4905
C33 C -0.071(3) -0.0084(18) 0.371(3)
H37 H -0.0608 -0.0540 0.3258
C34 C 0.048(2) 0.0747(19) 0.330(2)
H38 H 0.1381 0.0875 0.2591
C35 C 0.0277(16) 0.1427(16) 0.4045(18)
H39 H 0.1050 0.2015 0.3827
C36 C -0.1013(11) 0.1744(11) 0.9854(11)
C37 C -0.1790(12) 0.0605(11) 1.1018(12)
H40 H -0.1377 -0.0097 1.1289
C38 C -0.3324(15) 0.0538(13) 1.1830(13)
H41 H -0.3902 -0.0205 1.2666
C39 C -0.3901(13) 0.1581(14) 1.1346(13)
C40 C -0.3081(16) 0.2676(14) 1.0184(16)
H42 H -0.3487 0.3379 0.9891
C41 C -0.1578(11) 0.2774(10) 0.9384(11)
H43 H -0.1003 0.3528 0.8560
C42 C -0.5532(13) 0.1444(15) 1.2168(15)
H44 H -0.5959 0.0590 1.2953
H45 H -0.5998 0.1605 1.1589
H46 H -0.5662 0.2052 1.2475
C43 C -0.227(2) -0.0646(15) 0.875(2)
C44 C -0.4614(17) -0.0845(14) 0.9978(18)
H47 H -0.4898 -0.1480 0.9798
H48 H -0.4622 -0.1282 1.0873
C45 C -0.556(2) 0.0007(19) 0.9933(19)
H49 H -0.6536 -0.0467 1.0634
H50 H -0.5541 0.0425 0.9043
H51 H -0.5248 0.0638 1.0093
C46 C 0.155(3) -0.0830(15) 0.8190(17)
H52 H 0.2091 -0.0728 0.8633
H53 H 0.1075 -0.1730 0.8671
C47 C 0.238(2) -0.0432(14) 0.6933(18)
H54 H 0.2874 0.0461 0.6453
H55 H 0.1836 -0.0518 0.6480
C48 C 0.364(2) -0.142(2) 0.696(3)
H56 H 0.4394 -0.1098 0.6038
H57 H 0.3143 -0.2279 0.7328
H58 H 0.4054 -0.1421 0.7530
loop_
_geom_bond_atom_site_label_1
_geom_bond_atom_site_label_2
_geom_bond_site_symmetry_1
_geom_bond_site_symmetry_2
S1 O2 1_555 1_555
S2 O7 1_555 1_555
N1 C1 1_555 1_555
N2 C25 1_555 1_555
O1 C1 1_555 1_555
O3 S1 1_555 1_555
O4 C19 1_555 1_555
O5 C19 1_555 1_555
O6 C25 1_555 1_555
O8 S2 1_555 1_555
O9 C43 1_555 1_555
O10 C43 1_555 1_555
C1 C2 1_555 1_555
C2 S1 1_555 1_555
H1 C2 1_555 1_555
C3 C2 1_555 1_555
H2 C3 1_555 1_555
C4 N1 1_555 1_555
H3 C4 1_555 1_555
C5 N1 1_555 1_555
H4 C5 1_555 1_555
H5 C5 1_555 1_555
C6 C5 1_555 1_555
C7 C6 1_555 1_555
H6 C7 1_555 1_555
C8 C7 1_555 1_555
H7 C8 1_555 1_555
C9 C8 1_555 1_555
H8 C9 1_555 1_555
C10 C9 1_555 1_555
H9 C10 1_555 1_555
C11 C6 1_555 1_555
H10 C11 1_555 1_555
C12 S1 1_555 1_555
C13 C12 1_555 1_555
H11 C13 1_555 1_555
C14 C13 1_555 1_555
H12 C14 1_555 1_555
C15 C14 1_555 1_555
C16 C15 1_555 1_555
H13 C16 1_555 1_555
C17 C12 1_555 1_555
H14 C17 1_555 1_555
C18 C15 1_555 1_555
H15 C18 1_555 1_555
H16 C18 1_555 1_555
H17 C18 1_555 1_555
C19 C4 1_555 1_555
C20 O4 1_555 1_555
H18 C20 1_555 1_555
H19 C20 1_555 1_555
C21 C20 1_555 1_555
H20 C21 1_555 1_555
H21 C21 1_555 1_555
H22 C21 1_555 1_555
C22 C3 1_555 1_555
H23 C22 1_555 1_555
H24 C22 1_555 1_555
C23 C22 1_555 1_555
H25 C23 1_555 1_555
H26 C23 1_555 1_555
C24 C23 1_555 1_555
H27 C24 1_555 1_555
H28 C24 1_555 1_555
H29 C24 1_555 1_555
C25 C26 1_555 1_555
C26 S2 1_555 1_555
H30 C26 1_555 1_555
C27 C26 1_555 1_555
H31 C27 1_555 1_555
C28 N2 1_555 1_555
H32 C28 1_555 1_555
C29 N2 1_555 1_555
H33 C29 1_555 1_555
H34 C29 1_555 1_555
C30 C29 1_555 1_555
C31 C30 1_555 1_555
H35 C31 1_555 1_555
C32 C31 1_555 1_555
H36 C32 1_555 1_555
C33 C32 1_555 1_555
H37 C33 1_555 1_555
C34 C33 1_555 1_555
H38 C34 1_555 1_555
C35 C30 1_555 1_555
H39 C35 1_555 1_555
C36 S2 1_555 1_555
C37 C36 1_555 1_555
H40 C37 1_555 1_555
C38 C37 1_555 1_555
H41 C38 1_555 1_555
C39 C38 1_555 1_555
C40 C39 1_555 1_555
H42 C40 1_555 1_555
C41 C36 1_555 1_555
H43 C41 1_555 1_555
C42 C39 1_555 1_555
H44 C42 1_555 1_555
H45 C42 1_555 1_555
H46 C42 1_555 1_555
C43 C28 1_555 1_555
C44 O9 1_555 1_555
H47 C44 1_555 1_555
H48 C44 1_555 1_555
C45 C44 1_555 1_555
H49 C45 1_555 1_555
H50 C45 1_555 1_555
H51 C45 1_555 1_555
C46 C27 1_555 1_555
H52 C46 1_555 1_555
H53 C46 1_555 1_555
C47 C46 1_555 1_555
H54 C47 1_555 1_555
H55 C47 1_555 1_555
C48 C47 1_555 1_555
H56 C48 1_555 1_555
H57 C48 1_555 1_555
H58 C48 1_555 1_555
C3 C4 1_555 1_555
C10 C11 1_555 1_555
C16 C17 1_555 1_555
C27 C28 1_555 1_555
C34 C35 1_555 1_555
C40 C41 1_555 1_555

#END
