
#######################################################################
#
#                 Cambridge Crystallographic Data Centre
#                                CCDC 
#
#######################################################################
#
# If this CIF has been generated from an entry in the Cambridge 
# Structural Database, then it will include bibliographic, chemical, 
# crystal, experimental, refinement or atomic coordinate data resulting 
# from the CCDC's data processing and validation procedures.
#
#######################################################################

data_VAJZOV
_chemical_formula_moiety         'C16 H18 N2 O2'
_chemical_name_systematic        7,15-Dimethoxy(2.2)(2,6)pyridinophane
_symmetry_cell_setting           triclinic
_symmetry_space_group_name_H-M   'P -1'
_symmetry_Int_Tables_number      2
_space_group_name_Hall           '-P 1'
loop_
_symmetry_equiv_pos_site_id
_symmetry_equiv_pos_as_xyz
1 x,y,z
2 -x,-y,-z
_cell_length_a                   8.329(9)
_cell_length_b                   8.867(9)
_cell_length_c                   10.428(9)
_cell_angle_alpha                77.27(8)
_cell_angle_beta                 89.64(8)
_cell_angle_gamma                65.88(8)
_cell_volume                     682.582
_chemical_melting_point          251-252deg.C
_cell_formula_units_Z            2
loop_
_atom_site_label
_atom_site_type_symbol
_atom_site_fract_x
_atom_site_fract_y
_atom_site_fract_z
C1 C 1.0844(6) 0.7290(5) -0.1201(4)
C2 C 0.9373(6) 0.7242(6) -0.2097(4)
C3 C 0.8137(6) 0.6657(6) -0.1270(3)
C4 C 0.6606(6) 0.7805(6) -0.0929(4)
C5 C 0.5724(7) 0.7232(6) 0.0087(4)
C6 C 0.6540(6) 0.5533(5) 0.0786(4)
C7 C 1.1939(6) 0.5528(5) -0.0355(4)
N1 N 0.8803(5) 0.4961(4) -0.0722(3)
O1 O 0.4188(4) 0.8395(4) 0.0350(3)
C8 C 0.3342(7) 0.7849(6) 0.1461(4)
H1 H 1.0234(6) 0.8148(6) -0.0573(4)
H2 H 1.1687(6) 0.7732(6) -0.1817(4)
H3 H 0.9988(6) 0.6374(6) -0.2717(4)
H4 H 0.8620(6) 0.8502(6) -0.2708(4)
H5 H 0.6084(6) 0.9134(6) -0.1436(4)
H6 H 0.5993(6) 0.5063(6) 0.1644(4)
H7 H 0.2133(7) 0.8903(7) 0.1556(5)
H8 H 0.3044(7) 0.6824(7) 0.1305(5)
H9 H 0.4218(7) 0.7414(7) 0.2353(5)
C7A C 0.8061(6) 0.4472(5) 0.0355(4)
C6A C 1.3460(6) 0.4467(5) -0.0786(4)
N1A N 1.1197(5) 0.5039(4) 0.0722(3)
C1A C 0.9156(6) 0.2710(5) 0.1201(4)
C5A C 1.4276(7) 0.2768(6) -0.0087(4)
H6A H 1.4007(6) 0.4937(6) -0.1644(4)
C3A C 1.1863(6) 0.3343(6) 0.1270(3)
C2A C 1.0627(6) 0.2758(6) 0.2097(4)
H1A H 0.9766(6) 0.1852(6) 0.0573(4)
H2A H 0.8313(6) 0.2268(6) 0.1817(4)
C4A C 1.3394(6) 0.2195(6) 0.0929(4)
O1A O 1.5812(4) 0.1605(4) -0.0350(3)
H3A H 1.0012(6) 0.3626(6) 0.2717(4)
H4A H 1.1380(6) 0.1498(6) 0.2708(4)
H5A H 1.3916(6) 0.0866(6) 0.1436(4)
C8A C 1.6658(7) 0.2151(6) -0.1461(4)
H7A H 1.7867(7) 0.1097(7) -0.1556(5)
H8A H 1.6956(7) 0.3176(7) -0.1305(5)
H9A H 1.5782(7) 0.2586(7) -0.2353(5)
C9 C -0.6091(6) 0.2840(6) 0.4760(4)
C10 C -0.4558(6) 0.2694(6) 0.3854(4)
C11 C -0.3248(6) 0.3180(6) 0.4440(4)
C12 C -0.1779(6) 0.1969(6) 0.5260(4)
C13 C -0.0843(6) 0.2486(6) 0.6010(4)
C14 C -0.1449(6) 0.4199(6) 0.5985(4)
C15 C -0.7069(6) 0.4655(6) 0.4883(4)
N2 N -0.3725(5) 0.4864(5) 0.4278(3)
O2 O 0.0612(4) 0.1226(4) 0.6778(3)
C16 C 0.1529(7) 0.1722(7) 0.7661(4)
H10 H -0.5550(7) 0.2014(6) 0.5727(4)
H11 H -0.7004(7) 0.2463(6) 0.4333(4)
H12 H -0.5100(7) 0.3534(7) 0.2893(4)
H13 H -0.3898(7) 0.1399(7) 0.3758(4)
H14 H -0.1375(6) 0.0633(6) 0.5310(4)
H15 H -0.0799(6) 0.4638(6) 0.6616(4)
H16 H 0.2644(7) 0.0612(7) 0.8204(5)
H17 H 0.0640(7) 0.2308(7) 0.8344(5)
H18 H 0.1989(7) 0.2619(7) 0.7096(5)
C15A C -0.2931(6) 0.5345(6) 0.5117(4)
C14A C -0.8551(6) 0.5801(6) 0.4015(4)
N2A N -0.6275(5) 0.5136(5) 0.5722(3)
C9A C -0.3909(6) 0.7160(6) 0.5240(4)
C13A C -0.9157(6) 0.7514(6) 0.3990(4)
H15A H -0.9201(6) 0.5362(6) 0.3384(4)
C11A C -0.6752(6) 0.6820(6) 0.5560(4)
C10A C -0.5442(6) 0.7306(6) 0.6146(4)
H10A H -0.4450(7) 0.7986(6) 0.4273(4)
H11A H -0.2996(7) 0.7537(6) 0.5667(4)
C12A C -0.8221(6) 0.8031(6) 0.4740(4)
O2A O -1.0612(4) 0.8774(4) 0.3222(3)
H12A H -0.4900(7) 0.6466(7) 0.7107(4)
H13A H -0.6102(7) 0.8601(7) 0.6242(4)
H14A H -0.8625(6) 0.9367(6) 0.4690(4)
C16A C -1.1529(7) 0.8278(7) 0.2339(4)
H16A H -1.2644(7) 0.9388(7) 0.1796(5)
H17A H -1.0640(7) 0.7692(7) 0.1656(5)
H18A H -1.1989(7) 0.7381(7) 0.2904(5)
loop_
_geom_bond_atom_site_label_1
_geom_bond_atom_site_label_2
_geom_bond_site_symmetry_1
_geom_bond_site_symmetry_2
C1 C2 1_555 1_555
C2 C3 1_555 1_555
C3 C4 1_555 1_555
C4 C5 1_555 1_555
C5 C6 1_555 1_555
C6 H6 1_555 1_555
C7 C1 1_555 1_555
N1 C3 1_555 1_555
O1 C5 1_555 1_555
C8 O1 1_555 1_555
H1 C1 1_555 1_555
H2 C1 1_555 1_555
H3 C2 1_555 1_555
H4 C2 1_555 1_555
H5 C4 1_555 1_555
H7 C8 1_555 1_555
H8 C8 1_555 1_555
H9 C8 1_555 1_555
C9 C10 1_555 1_555
C10 C11 1_555 1_555
C11 C12 1_555 1_555
C12 C13 1_555 1_555
C13 C14 1_555 1_555
C14 H15 1_555 1_555
C15 C9 1_555 1_555
N2 C11 1_555 1_555
O2 C13 1_555 1_555
C16 O2 1_555 1_555
H10 C9 1_555 1_555
H11 C9 1_555 1_555
H12 C10 1_555 1_555
H13 C10 1_555 1_555
H14 C12 1_555 1_555
H16 C16 1_555 1_555
H17 C16 1_555 1_555
H18 C16 1_555 1_555
C7A C6 1_555 1_555
C6A C7 1_555 1_555
N1A C7 1_555 1_555
C1A C7A 1_555 1_555
C5A C6A 1_555 1_555
H6A C6A 1_555 1_555
C3A N1A 1_555 1_555
C2A C1A 1_555 1_555
H1A C1A 1_555 1_555
H2A C1A 1_555 1_555
C4A C5A 1_555 1_555
O1A C5A 1_555 1_555
H3A C2A 1_555 1_555
H4A C2A 1_555 1_555
H5A C4A 1_555 1_555
C8A O1A 1_555 1_555
H7A C8A 1_555 1_555
H8A C8A 1_555 1_555
H9A C8A 1_555 1_555
C15A C14 1_555 1_555
C14A C15 1_555 1_555
N2A C15 1_555 1_555
C9A C15A 1_555 1_555
C13A C14A 1_555 1_555
H15A C14A 1_555 1_555
C11A N2A 1_555 1_555
C10A C9A 1_555 1_555
H10A C9A 1_555 1_555
H11A C9A 1_555 1_555
C12A C13A 1_555 1_555
O2A C13A 1_555 1_555
H12A C10A 1_555 1_555
H13A C10A 1_555 1_555
H14A C12A 1_555 1_555
C16A O2A 1_555 1_555
H16A C16A 1_555 1_555
H17A C16A 1_555 1_555
H18A C16A 1_555 1_555
N1 C7A 1_555 1_555
N2 C15A 1_555 1_555
C3A C2A 1_555 1_555
C3A C4A 1_555 1_555
C11A C10A 1_555 1_555
C11A C12A 1_555 1_555

#END
