
#######################################################################
#
#                 Cambridge Crystallographic Data Centre
#                                CCDC 
#
#######################################################################
#
# If this CIF has been generated from an entry in the Cambridge 
# Structural Database, then it will include bibliographic, chemical, 
# crystal, experimental, refinement or atomic coordinate data resulting 
# from the CCDC's data processing and validation procedures.
#
#######################################################################

data_VAKFOF
_chemical_formula_moiety         'C16 H28 O14 Si8'
_chemical_name_systematic        
2,2'-(3,5,9,11,13,15-hexavinylpentacyclo[9.5.1.1^3,9^.1^5,15^.1^7,13^]octasiloxane-1,7-diyl)diethanol
_symmetry_cell_setting           triclinic
_symmetry_space_group_name_H-M   'P -1'
_symmetry_Int_Tables_number      2
_space_group_name_Hall           '-P 1'
loop_
_symmetry_equiv_pos_site_id
_symmetry_equiv_pos_as_xyz
1 x,y,z
2 -x,-y,-z
_cell_length_a                   8.6423(5)
_cell_length_b                   12.2905(7)
_cell_length_c                   14.1705(8)
_cell_angle_alpha                88.3220(50)
_cell_angle_beta                 89.1810(50)
_cell_angle_gamma                82.8060(50)
_cell_volume                     1492.59
_exptl_crystal_colour            colorless
_exptl_crystal_description       parallelepiped
_cell_formula_units_Z            2
_exptl_crystal_recrystallization_method 'dichloromethane/ethyl acetate'
loop_
_atom_site_label
_atom_site_type_symbol
_atom_site_fract_x
_atom_site_fract_y
_atom_site_fract_z
C1 C 0.8918 0.0146 0.3137
C2 C 0.9234 0.1092 0.3707
C3 C 0.6469 0.2952 0.0356
C4 C 0.6776 0.3937 0.0278
C5 C 1.1886 0.3022 -0.1142
C6 C 1.2173 0.3362 -0.1894
C7 C 1.4348 0.0293 0.1645
C8 C 1.4309 0.0395 0.2557
H1 H 0.5414 0.2836 0.0465
H2 H 1.2057 0.3524 -0.0668
H3 H 1.5332 0.0236 0.1330
H4 H 0.7807 0.0046 0.3231
H5 H 0.9545 -0.0520 0.3400
H6 H 1.0331 0.1226 0.3606
H7 H 0.8554 0.1758 0.3491
H8 H 0.7820 0.4080 0.0169
H9 H 0.5962 0.4529 0.0328
H10 H 1.2051 0.2940 -0.2433
H11 H 1.2528 0.4061 -0.1967
H12 H 0.8730 0.0262 0.4780
H13 H 1.3339 0.0453 0.2888
H14 H 1.5249 0.0412 0.2892
O1 O 0.8302 0.1242 0.1323
O2 O 0.9478 0.2112 -0.0206
O3 O 1.2355 0.1286 0.0202
O4 O 1.1131 0.0296 0.1653
O5 O 0.8846 -0.0894 0.1420
O6 O 0.7262 0.0855 -0.0355
O7 O 0.8965 0.0900 0.4691
Si1 Si 0.9311 0.0213 0.1850
Si2 Si 1.2602 0.0253 0.0941
Si3 Si 1.1206 0.1803 -0.0637
Si4 Si 0.7917 0.1761 0.0275
C1A C 1.1082 -0.0146 -0.3137
C2A C 1.0766 -0.1092 -0.3707
C3A C 1.3531 -0.2952 -0.0356
C4A C 1.3224 -0.3937 -0.0278
H1A H 1.4586 -0.2836 -0.0465
H4A H 1.2193 -0.0046 -0.3231
H7A H 1.1446 -0.1758 -0.3491
H8A H 1.2180 -0.4080 -0.0169
H9A H 1.4038 -0.4529 -0.0328
H12A H 1.1270 -0.0262 -0.4780
O1A O 1.1698 -0.1242 -0.1323
O7A O 1.1035 -0.0900 -0.4691
Si1A Si 1.0689 -0.0213 -0.1850
Si4A Si 1.2083 -0.1761 -0.0275
C7A C 0.5652 -0.0293 -0.1645
C8A C 0.5691 -0.0395 -0.2557
H3A H 0.4668 -0.0236 -0.1330
H13A H 0.6661 -0.0453 -0.2888
H14A H 0.4751 -0.0412 -0.2892
O3A O 0.7645 -0.1286 -0.0202
O4A O 0.8869 -0.0296 -0.1653
Si2A Si 0.7398 -0.0253 -0.0941
H5A H 1.0455 0.0520 -0.3400
H6A H 0.9669 -0.1226 -0.3606
O2A O 1.0522 -0.2112 0.0206
O5A O 1.1154 0.0894 -0.1420
O6A O 1.2738 -0.0855 0.0355
C5A C 0.8114 -0.3022 0.1142
C6A C 0.7827 -0.3362 0.1894
H2A H 0.7943 -0.3524 0.0668
H10A H 0.7949 -0.2940 0.2433
H11A H 0.7472 -0.4061 0.1967
Si3A Si 0.8794 -0.1803 0.0637
C9 C 0.6698 0.8131 0.4576
C10 C 0.5140 0.8125 0.5079
C11 C 0.7640 0.2579 0.6807
C12 C 0.6928 0.2788 0.7587
C13 C 0.8745 0.6465 0.7843
C14 C 0.8143 0.5980 0.8546
C15 C 0.5691 0.4230 0.3526
C16 C 0.5783 0.3679 0.2753
H15 H 0.7676 0.1855 0.6583
H16 H 0.8965 0.7193 0.7928
H17 H 0.3243 0.9075 0.5049
H18 H 0.4688 0.4476 0.3779
H19 H 0.6513 0.8258 0.3892
H20 H 0.7206 0.8752 0.4803
H21 H 0.5307 0.8015 0.5767
H22 H 0.4615 0.7511 0.4855
H23 H 0.6865 0.3501 0.7835
H24 H 0.6459 0.2229 0.7920
H25 H 0.7905 0.5251 0.8490
H26 H 0.7935 0.6350 0.9122
H27 H 0.6774 0.3426 0.2488
H28 H 0.4859 0.3530 0.2454
O8 O 0.9641 0.6930 0.4174
O9 O 0.8611 0.4676 0.6663
O10 O 0.8388 0.6659 0.5866
O11 O 0.7636 0.3850 0.5125
O12 O 0.7220 0.5838 0.4380
O13 O 0.8924 0.4261 0.3481
O14 O 0.4170 0.9145 0.4899
Si5 Si 0.8029 0.6859 0.4751
Si6 Si 0.8596 0.3559 0.6087
Si7 Si 0.9213 0.5864 0.6690
Si8 Si 0.7408 0.4552 0.4144
C11A C 1.2360 0.7421 0.3193
C12A C 1.3072 0.7212 0.2413
C13A C 1.1255 0.3535 0.2157
C14A C 1.1857 0.4020 0.1454
C15A C 1.4309 0.5770 0.6474
C16A C 1.4217 0.6321 0.7247
H15A H 1.2324 0.8145 0.3417
H16A H 1.1035 0.2807 0.2072
H18A H 1.5312 0.5524 0.6221
H23A H 1.3135 0.6499 0.2165
H24A H 1.3541 0.7771 0.2080
H25A H 1.2095 0.4749 0.1510
H26A H 1.2065 0.3650 0.0878
H27A H 1.3226 0.6574 0.7512
H28A H 1.5141 0.6470 0.7546
O9A O 1.1389 0.5324 0.3337
O10A O 1.1612 0.3341 0.4134
O11A O 1.2364 0.6150 0.4875
O12A O 1.2780 0.4162 0.5620
O13A O 1.1076 0.5739 0.6519
Si6A Si 1.1404 0.6441 0.3913
Si7A Si 1.0787 0.4136 0.3310
Si8A Si 1.2592 0.5448 0.5856
C9A C 1.3302 0.1869 0.5424
C10A C 1.4860 0.1875 0.4921
H17A H 1.6757 0.0925 0.4951
H19A H 1.3487 0.1742 0.6108
H20A H 1.2794 0.1248 0.5197
H21A H 1.4693 0.1985 0.4233
H22A H 1.5385 0.2489 0.5145
O8A O 1.0359 0.3070 0.5826
O14A O 1.5830 0.0855 0.5101
Si5A Si 1.1971 0.3141 0.5249
loop_
_geom_bond_atom_site_label_1
_geom_bond_atom_site_label_2
_geom_bond_site_symmetry_1
_geom_bond_site_symmetry_2
C1 C2 1_555 1_555
C2 H6 1_555 1_555
C3 C4 1_555 1_555
C4 H8 1_555 1_555
C5 C6 1_555 1_555
C6 H10 1_555 1_555
C7 C8 1_555 1_555
C8 H13 1_555 1_555
H1 C3 1_555 1_555
H2 C5 1_555 1_555
H3 C7 1_555 1_555
H4 C1 1_555 1_555
H5 C1 1_555 1_555
H7 C2 1_555 1_555
H9 C4 1_555 1_555
H11 C6 1_555 1_555
H12 O7 1_555 1_555
H14 C8 1_555 1_555
O1 Si1 1_555 1_555
O2 Si3 1_555 1_555
O3 Si2 1_555 1_555
O4 Si1 1_555 1_555
O5 Si1 1_555 1_555
O6 Si4 1_555 1_555
O7 C2 1_555 1_555
Si1 C1 1_555 1_555
Si2 C7 1_555 1_555
Si3 C5 1_555 1_555
Si4 C3 1_555 1_555
C9 C10 1_555 1_555
C10 H21 1_555 1_555
C11 C12 1_555 1_555
C12 H23 1_555 1_555
C13 C14 1_555 1_555
C14 H25 1_555 1_555
C15 C16 1_555 1_555
C16 H27 1_555 1_555
H15 C11 1_555 1_555
H16 C13 1_555 1_555
H17 O14 1_555 1_555
H18 C15 1_555 1_555
H19 C9 1_555 1_555
H20 C9 1_555 1_555
H22 C10 1_555 1_555
H24 C12 1_555 1_555
H26 C14 1_555 1_555
H28 C16 1_555 1_555
O8 Si5 1_555 1_555
O9 Si6 1_555 1_555
O10 Si5 1_555 1_555
O11 Si6 1_555 1_555
O12 Si5 1_555 1_555
O13 Si8 1_555 1_555
O14 C10 1_555 1_555
Si5 C9 1_555 1_555
Si6 C11 1_555 1_555
Si7 C13 1_555 1_555
Si8 C15 1_555 1_555
C1A C2A 1_555 1_555
C2A H7A 1_555 1_555
C3A C4A 1_555 1_555
C4A H8A 1_555 1_555
H1A C3A 1_555 1_555
H4A C1A 1_555 1_555
H9A C4A 1_555 1_555
H12A O7A 1_555 1_555
O1A Si1A 1_555 1_555
O7A C2A 1_555 1_555
Si1A C1A 1_555 1_555
Si4A C3A 1_555 1_555
C7A C8A 1_555 1_555
C8A H13A 1_555 1_555
H3A C7A 1_555 1_555
H14A C8A 1_555 1_555
O3A Si2A 1_555 1_555
O4A Si1A 1_555 1_555
Si2A O6 1_555 1_555
H5A C1A 1_555 1_555
H6A C2A 1_555 1_555
O2A Si4A 1_555 1_555
O5A Si3 1_555 1_555
O6A Si2 1_555 1_555
C5A C6A 1_555 1_555
C6A H10A 1_555 1_555
H2A C5A 1_555 1_555
H11A C6A 1_555 1_555
Si3A O5 1_555 1_555
C11A C12A 1_555 1_555
C12A H23A 1_555 1_555
C13A C14A 1_555 1_555
C14A H25A 1_555 1_555
C15A C16A 1_555 1_555
C16A H27A 1_555 1_555
H15A C11A 1_555 1_555
H16A C13A 1_555 1_555
H18A C15A 1_555 1_555
H24A C12A 1_555 1_555
H26A C14A 1_555 1_555
H28A C16A 1_555 1_555
O9A Si6A 1_555 1_555
O10A Si7A 1_555 1_555
O11A Si6A 1_555 1_555
O12A Si8A 1_555 1_555
O13A Si7 1_555 1_555
Si6A O8 1_555 1_555
Si7A O13 1_555 1_555
Si8A C15A 1_555 1_555
C9A C10A 1_555 1_555
C10A H21A 1_555 1_555
H17A O14A 1_555 1_555
H19A C9A 1_555 1_555
H20A C9A 1_555 1_555
H22A C10A 1_555 1_555
O8A Si6 1_555 1_555
O14A C10A 1_555 1_555
Si5A O10A 1_555 1_555
O1 Si4 1_555 1_555
O2 Si4 1_555 1_555
O3 Si3 1_555 1_555
O4 Si2 1_555 1_555
O9 Si7 1_555 1_555
O10 Si7 1_555 1_555
O11 Si8 1_555 1_555
O12 Si8 1_555 1_555
O1A Si4A 1_555 1_555
Si1A O5A 1_555 1_555
Si4A O6A 1_555 1_555
C7A Si2A 1_555 1_555
O3A Si3A 1_555 1_555
O4A Si2A 1_555 1_555
O2A Si3A 1_555 1_555
C5A Si3A 1_555 1_555
C11A Si6A 1_555 1_555
C13A Si7A 1_555 1_555
O9A Si7A 1_555 1_555
O11A Si8A 1_555 1_555
O12A Si5A 1_555 1_555
O13A Si8A 1_555 1_555
C9A Si5A 1_555 1_555
O8A Si5A 1_555 1_555

#END
