
#######################################################################
#
#                 Cambridge Crystallographic Data Centre
#                                CCDC 
#
#######################################################################
#
# If this CIF has been generated from an entry in the Cambridge 
# Structural Database, then it will include bibliographic, chemical, 
# crystal, experimental, refinement or atomic coordinate data resulting 
# from the CCDC's data processing and validation procedures.
#
#######################################################################

data_VAKKIE
_chemical_formula_moiety         'C14 H16 N3 O1 1+,C7 H4 Cl1 O2 1-'
_chemical_name_systematic        
'(S)-2-Ammonio-3-phenyl-N-(pyridine-3-yl)propanamide 4-chlorobenzoate'
_symmetry_cell_setting           orthorhombic
_symmetry_space_group_name_H-M   'P 21 21 21'
_symmetry_Int_Tables_number      19
_space_group_name_Hall           'P 2ac 2ab'
loop_
_symmetry_equiv_pos_site_id
_symmetry_equiv_pos_as_xyz
1 x,y,z
2 1/2-x,-y,1/2+z
3 -x,1/2+y,1/2-z
4 1/2+x,1/2-y,-z
_cell_length_a                   6.1642(3)
_cell_length_b                   14.0124(7)
_cell_length_c                   22.9050(12)
_cell_angle_alpha                90
_cell_angle_beta                 90
_cell_angle_gamma                90
_cell_volume                     1978.42
_exptl_crystal_colour            colorless
_exptl_crystal_description       needle
_cell_formula_units_Z            4
loop_
_atom_site_label
_atom_site_type_symbol
_atom_site_fract_x
_atom_site_fract_y
_atom_site_fract_z
Cl1 Cl 0.4181(2) 0.84677(5) 0.90886(4)
C1 C 0.6301(3) 0.44008(15) 0.96890(9)
O1 O 0.4806(3) 0.38707(11) 0.98625(7)
O2 O 0.8229(3) 0.41450(13) 0.96322(8)
C2 C 0.5742(4) 0.54190(15) 0.95373(9)
C3 C 0.7257(4) 0.59926(18) 0.92648(12)
H1 H 0.8616 0.5744 0.9175
C4 C 0.6790(6) 0.69269(19) 0.91242(13)
H2 H 0.7817 0.7308 0.8939
C5 C 0.4769(6) 0.72866(17) 0.92631(11)
C6 C 0.3228(5) 0.67407(18) 0.95330(11)
H3 H 0.1879 0.6996 0.9626
C7 C 0.3721(4) 0.57943(17) 0.96652(10)
H4 H 0.2679 0.5411 0.9842
C8 C 0.6757(4) 0.09317(15) 0.82462(10)
C9 C 0.4980(4) 0.06755(18) 0.79060(11)
H5 H 0.3667 0.0531 0.8085
C10 C 0.5143(5) 0.0633(2) 0.73076(12)
H6 H 0.3947 0.0457 0.7085
C11 C 0.7073(6) 0.0851(2) 0.70389(12)
H7 H 0.7186 0.0823 0.6634
C12 C 0.8831(5) 0.1109(2) 0.73688(13)
H8 H 1.0134 0.1262 0.7187
C13 C 0.8683(4) 0.11456(17) 0.79670(11)
H9 H 0.9893 0.1316 0.8186
C14 C 0.6574(4) 0.09836(15) 0.89008(10)
H10 H 0.7893 0.0733 0.9074
H11 H 0.5379 0.0583 0.9027
C15 C 0.6203(3) 0.20016(14) 0.91237(9)
H12 H 0.7408 0.2414 0.9004
N1 N 0.6048(3) 0.19759(11) 0.97680(7)
H13 H 0.4887 0.1639 0.9873
H14 H 0.5930 0.2568 0.9905
H15 H 0.7235 0.1705 0.9914
C16 C 0.4072(3) 0.23888(14) 0.88841(8)
O3 O 0.2356(2) 0.21040(11) 0.90801(7)
N2 N 0.4244(3) 0.30108(12) 0.84337(7)
H16 H 0.5495 0.3253 0.8359
C17 C 0.2466(3) 0.32806(14) 0.80813(9)
C18 C 0.0452(3) 0.34945(16) 0.83181(10)
H17 H 0.0315 0.3509 0.8722
N3 N -0.1294(3) 0.36800(15) 0.79951(9)
C19 C -0.1022(4) 0.37172(18) 0.74188(11)
H18 H -0.2223 0.3847 0.7187
C20 C 0.0948(4) 0.35732(17) 0.71493(10)
H19 H 0.1083 0.3640 0.6747
C21 C 0.2710(4) 0.33291(16) 0.74849(10)
H20 H 0.4043 0.3199 0.7312
loop_
_geom_bond_atom_site_label_1
_geom_bond_atom_site_label_2
_geom_bond_site_symmetry_1
_geom_bond_site_symmetry_2
Cl1 C5 1_555 1_555
C1 O1 1_555 1_555
O2 C1 1_555 1_555
C2 C1 1_555 1_555
C3 C2 1_555 1_555
H1 C3 1_555 1_555
C4 C3 1_555 1_555
H2 C4 1_555 1_555
C5 C4 1_555 1_555
C6 C5 1_555 1_555
H3 C6 1_555 1_555
C7 C2 1_555 1_555
H4 C7 1_555 1_555
C8 C9 1_555 1_555
C9 H5 1_555 1_555
C10 C9 1_555 1_555
H6 C10 1_555 1_555
C11 C10 1_555 1_555
H7 C11 1_555 1_555
C12 C11 1_555 1_555
H8 C12 1_555 1_555
C13 C8 1_555 1_555
H9 C13 1_555 1_555
C14 C8 1_555 1_555
H10 C14 1_555 1_555
H11 C14 1_555 1_555
C15 C14 1_555 1_555
H12 C15 1_555 1_555
N1 C15 1_555 1_555
H13 N1 1_555 1_555
H14 N1 1_555 1_555
H15 N1 1_555 1_555
C16 C15 1_555 1_555
O3 C16 1_555 1_555
N2 C16 1_555 1_555
H16 N2 1_555 1_555
C17 N2 1_555 1_555
C18 C17 1_555 1_555
H17 C18 1_555 1_555
N3 C18 1_555 1_555
C19 N3 1_555 1_555
H18 C19 1_555 1_555
C20 C19 1_555 1_555
H19 C20 1_555 1_555
C21 C17 1_555 1_555
H20 C21 1_555 1_555
C6 C7 1_555 1_555
C12 C13 1_555 1_555
C20 C21 1_555 1_555

#END
