
#######################################################################
#
#                 Cambridge Crystallographic Data Centre
#                                CCDC 
#
#######################################################################
#
# If this CIF has been generated from an entry in the Cambridge 
# Structural Database, then it will include bibliographic, chemical, 
# crystal, experimental, refinement or atomic coordinate data resulting 
# from the CCDC's data processing and validation procedures.
#
#######################################################################

data_VAKMIG
_chemical_formula_moiety         'C9 H9 N3 O1'
_chemical_name_systematic        
1-(2-methylimidazo[1,2-a]pyrimidin-3-yl)ethanone
_symmetry_cell_setting           monoclinic
_symmetry_space_group_name_H-M   'P 21/c'
_symmetry_Int_Tables_number      14
_space_group_name_Hall           '-P 2ybc'
loop_
_symmetry_equiv_pos_site_id
_symmetry_equiv_pos_as_xyz
1 x,y,z
2 -x,1/2+y,1/2-z
3 -x,-y,-z
4 x,1/2-y,1/2+z
_cell_length_a                   9.7618(18)
_cell_length_b                   8.2660(11)
_cell_length_c                   10.6425(15)
_cell_angle_alpha                90
_cell_angle_beta                 98.875(14)
_cell_angle_gamma                90
_cell_volume                     848.473
_exptl_crystal_colour            colorless
_exptl_crystal_description       block
_cell_formula_units_Z            4
loop_
_atom_site_label
_atom_site_type_symbol
_atom_site_fract_x
_atom_site_fract_y
_atom_site_fract_z
O1 O 0.3724(4) 0.7397(5) 0.3536(3)
N1 N 0.2091(4) 0.6155(6) 0.5258(3)
N2 N 0.0712(5) 0.5607(6) 0.6908(4)
N3 N 0.1830(5) 0.3555(5) 0.5840(4)
C1 C 0.1825(6) 0.7773(7) 0.5321(5)
H1 H 0.2201 0.8496 0.4798
C2 C 0.1007(6) 0.8315(7) 0.6152(5)
H2 H 0.0785 0.9405 0.6198
C3 C 0.0513(6) 0.7169(8) 0.6936(5)
H3 H -0.0006 0.7554 0.7536
C4 C 0.1519(6) 0.5093(8) 0.6048(5)
C5 C 0.2626(6) 0.3613(7) 0.4898(5)
C6 C 0.2829(5) 0.5198(7) 0.4510(4)
C7 C 0.3604(6) 0.5893(8) 0.3620(5)
C8 C 0.4316(6) 0.4824(7) 0.2773(5)
H4 H 0.5064 0.4255 0.3277
H5 H 0.4676 0.5477 0.2152
H6 H 0.3663 0.4060 0.2348
C9 C 0.3134(7) 0.2068(7) 0.4430(5)
H7 H 0.2875 0.2005 0.3524
H8 H 0.2731 0.1177 0.4823
H9 H 0.4126 0.2021 0.4642
loop_
_geom_bond_atom_site_label_1
_geom_bond_atom_site_label_2
_geom_bond_site_symmetry_1
_geom_bond_site_symmetry_2
O1 C7 1_555 1_555
N1 C1 1_555 1_555
N2 C3 1_555 1_555
N3 C4 1_555 1_555
C1 H1 1_555 1_555
C2 C1 1_555 1_555
H2 C2 1_555 1_555
C3 C2 1_555 1_555
H3 C3 1_555 1_555
C4 N1 1_555 1_555
C5 N3 1_555 1_555
C6 N1 1_555 1_555
C7 C6 1_555 1_555
C8 C7 1_555 1_555
H4 C8 1_555 1_555
H5 C8 1_555 1_555
H6 C8 1_555 1_555
C9 C5 1_555 1_555
H7 C9 1_555 1_555
H8 C9 1_555 1_555
H9 C9 1_555 1_555
N2 C4 1_555 1_555
C5 C6 1_555 1_555

#END
