
#######################################################################
#
#                 Cambridge Crystallographic Data Centre
#                                CCDC 
#
#######################################################################
#
# If this CIF has been generated from an entry in the Cambridge 
# Structural Database, then it will include bibliographic, chemical, 
# crystal, experimental, refinement or atomic coordinate data resulting 
# from the CCDC's data processing and validation procedures.
#
#######################################################################

data_VAKWUB
_chemical_name_common            
4'-(4-Dimethylaminophenyl)-4,2':6',4''-terpyridine
_chemical_formula_moiety         'C23 H20 N4'
_chemical_name_systematic        
N,N-Dimethyl-4-(4,2':6',4''-terpyridin-4'-yl)aniline
_symmetry_cell_setting           monoclinic
_symmetry_space_group_name_H-M   'P 21/c'
_symmetry_Int_Tables_number      14
_space_group_name_Hall           '-P 2ybc'
loop_
_symmetry_equiv_pos_site_id
_symmetry_equiv_pos_as_xyz
1 x,y,z
2 -x,1/2+y,1/2-z
3 -x,-y,-z
4 x,1/2-y,1/2+z
_cell_length_a                   11.307(2)
_cell_length_b                   8.9525(18)
_cell_length_c                   17.728(3)
_cell_angle_alpha                90
_cell_angle_beta                 96.77(3)
_cell_angle_gamma                90
_cell_volume                     1782.02
_exptl_crystal_colour            yellow
_exptl_crystal_description       plate
_chemical_melting_point          '221-223 deg.C'
_cell_formula_units_Z            4
loop_
_atom_site_label
_atom_site_type_symbol
_atom_site_fract_x
_atom_site_fract_y
_atom_site_fract_z
N1 N 0.14452(10) 1.18697(13) 0.24635(6)
N2 N 0.16330(9) 0.91631(11) 0.49506(5)
N3 N 0.39187(12) 0.91107(16) 0.75604(7)
C1 C 0.04952(12) 1.09887(15) 0.24399(7)
H1 H -0.0069 1.1031 0.1999
C2 C 0.02680(12) 1.00179(14) 0.30087(7)
H2 H -0.0423 0.9406 0.2951
C3 C 0.10639(11) 0.99464(13) 0.36676(6)
C4 C 0.20631(12) 1.08471(16) 0.36941(7)
H3 H 0.2643 1.0830 0.4128
C5 C 0.22155(13) 1.17687(17) 0.30899(8)
H4 H 0.2913 1.2368 0.3123
C6 C 0.08400(10) 0.90117(13) 0.43292(6)
C7 C -0.01440(10) 0.80845(13) 0.43004(6)
H5 H -0.0674 0.8011 0.3844
C8 C -0.03641(10) 0.72562(13) 0.49367(6)
C9 C 0.04637(11) 0.74313(13) 0.55793(6)
H6 H 0.0361 0.6901 0.6031
C10 C 0.14331(10) 0.83712(13) 0.55638(6)
C11 C 0.37891(14) 1.00726(18) 0.69806(8)
H7 H 0.4262 1.0953 0.7020
C12 C 0.30113(12) 0.98693(15) 0.63260(7)
H8 H 0.2966 1.0590 0.5930
C13 C 0.22975(11) 0.86063(14) 0.62520(6)
C14 C 0.24182(12) 0.76010(16) 0.68532(7)
H9 H 0.1948 0.6719 0.6834
C15 C 0.32312(14) 0.79009(19) 0.74807(8)
H10 H 0.3304 0.7194 0.7883
C16 C -0.14040(10) 0.62688(13) 0.49256(6)
C17 C -0.22511(11) 0.61418(13) 0.42871(7)
H11 H -0.2163 0.6742 0.3855
C18 C -0.32053(11) 0.51852(14) 0.42589(7)
H12 H -0.3760 0.5148 0.3813
C19 C -0.33770(11) 0.42613(14) 0.48768(7)
C20 C -0.25408(11) 0.44016(14) 0.55276(7)
H13 H -0.2630 0.3813 0.5963
C21 C -0.15991(11) 0.53727(14) 0.55436(7)
H14 H -0.1057 0.5438 0.5994
N4 N -0.43092(10) 0.32889(14) 0.48540(6)
C22 C -0.51438(13) 0.31108(17) 0.41793(8)
H15 H -0.5308 0.4087 0.3940
H16 H -0.5886 0.2681 0.4317
H17 H -0.4804 0.2443 0.3823
C23 C -0.44090(13) 0.22704(17) 0.54759(8)
H18 H -0.3689 0.1654 0.5560
H19 H -0.5105 0.1626 0.5352
H20 H -0.4500 0.2841 0.5937
loop_
_geom_bond_atom_site_label_1
_geom_bond_atom_site_label_2
_geom_bond_site_symmetry_1
_geom_bond_site_symmetry_2
N1 C1 1_555 1_555
N2 C6 1_555 1_555
N3 C11 1_555 1_555
C1 H1 1_555 1_555
C2 C1 1_555 1_555
H2 C2 1_555 1_555
C3 C2 1_555 1_555
C4 C3 1_555 1_555
H3 C4 1_555 1_555
C5 N1 1_555 1_555
H4 C5 1_555 1_555
C6 C3 1_555 1_555
C7 C6 1_555 1_555
H5 C7 1_555 1_555
C8 C7 1_555 1_555
C9 C8 1_555 1_555
H6 C9 1_555 1_555
C10 N2 1_555 1_555
C11 H7 1_555 1_555
C12 C11 1_555 1_555
H8 C12 1_555 1_555
C13 C10 1_555 1_555
C14 C13 1_555 1_555
H9 C14 1_555 1_555
C15 N3 1_555 1_555
H10 C15 1_555 1_555
C16 C8 1_555 1_555
C17 C16 1_555 1_555
H11 C17 1_555 1_555
C18 C17 1_555 1_555
H12 C18 1_555 1_555
C19 C18 1_555 1_555
C20 C19 1_555 1_555
H13 C20 1_555 1_555
C21 C16 1_555 1_555
H14 C21 1_555 1_555
N4 C19 1_555 1_555
C22 N4 1_555 1_555
H15 C22 1_555 1_555
H16 C22 1_555 1_555
H17 C22 1_555 1_555
C23 N4 1_555 1_555
H18 C23 1_555 1_555
H19 C23 1_555 1_555
H20 C23 1_555 1_555
C4 C5 1_555 1_555
C9 C10 1_555 1_555
C12 C13 1_555 1_555
C14 C15 1_555 1_555
C20 C21 1_555 1_555

#END
