
#######################################################################
#
#                 Cambridge Crystallographic Data Centre
#                                CCDC 
#
#######################################################################
#
# If this CIF has been generated from an entry in the Cambridge 
# Structural Database, then it will include bibliographic, chemical, 
# crystal, experimental, refinement or atomic coordinate data resulting 
# from the CCDC's data processing and validation procedures.
#
#######################################################################

data_VAKZIQ
_chemical_formula_moiety         'C12 H18 N1 O1 1+,C18 H13 O8 1-'
_chemical_name_systematic        
'3-Hydroxy-N,N-dimethyl-3-phenylbut-1-en-3-yl-ammonium dibenzoyltartrate'
_symmetry_cell_setting           monoclinic
_symmetry_space_group_name_H-M   'P 21'
_symmetry_Int_Tables_number      4
_space_group_name_Hall           'P 2yb'
loop_
_symmetry_equiv_pos_site_id
_symmetry_equiv_pos_as_xyz
1 x,y,z
2 -x,1/2+y,-z
_cell_length_a                   7.6498(4)
_cell_length_b                   20.266(2)
_cell_length_c                   9.6138(6)
_cell_angle_alpha                90
_cell_angle_beta                 111.429(5)
_cell_angle_gamma                90
_cell_volume                     1387.4
_cell_formula_units_Z            2
loop_
_atom_site_label
_atom_site_type_symbol
_atom_site_fract_x
_atom_site_fract_y
_atom_site_fract_z
C1 C -0.7445(2) -0.1868(1) -0.2710(2)
C2 C -0.7800(3) -0.2502(1) -0.2347(2)
C3 C -0.9264(3) -0.2858(1) -0.3301(2)
C4 C -1.0402(3) -0.2576(1) -0.4625(3)
C5 C -1.0044(3) -0.1944(1) -0.4990(3)
C6 C -0.8554(2) -0.1579(1) -0.4030(2)
C7 C -0.8077(2) -0.0905(1) -0.4514(2)
O1 O -0.6529(2) -0.0603(1) -0.3382(1)
C8 C -0.7391(3) -0.1018(1) -0.5795(2)
C9 C -0.8113(3) -0.0843(1) -0.7174(3)
C12 C -0.9739(2) -0.0424(1) -0.5026(2)
N1 N -1.0409(2) -0.0193(1) -0.3813(2)
C13 C -1.2132(3) -0.0537(1) -0.3832(3)
C14 C -1.0713(3) 0.0539(1) -0.3895(2)
H1 H -0.6395(26) -0.1631(9) -0.2043(20)
H2 H -0.7061(27) -0.2680(9) -0.1419(22)
H3 H -0.9539(30) -0.3308(11) -0.3050(24)
H4 H -1.1399(39) -0.2812(15) -0.5371(29)
H5 H -1.0854(34) -0.1759(12) -0.5903(27)
H6 H -0.6670(29) -0.0577(10) -0.2548(24)
H7 H -0.6118(35) -0.1315(12) -0.5389(25)
H8 H -0.9233(40) -0.0582(14) -0.7552(29)
H9 H -0.7515(34) -0.0963(12) -0.7854(26)
H13 H -1.0876(26) -0.0627(9) -0.5819(20)
H14 H -0.9319(25) -0.0037(9) -0.5385(20)
H15 H -0.9482(28) -0.0284(9) -0.2903(22)
H16 H -1.1815(29) -0.1007(12) -0.3699(22)
H17 H -1.2486(31) -0.0393(11) -0.3053(25)
H18 H -1.3073(33) -0.0452(12) -0.4840(26)
H19 H -0.9533(34) 0.0766(11) -0.3880(24)
H20 H -1.1697(31) 0.0649(11) -0.4906(24)
H21 H -1.1129(29) 0.0668(11) -0.3060(25)
C15 C -0.5571(3) -0.3013(1) -0.5997(2)
C16 C -0.5104(3) -0.2940(1) -0.4476(2)
C17 C -0.4218(3) -0.3448(1) -0.3524(2)
C18 C -0.3791(2) -0.4027(1) -0.4071(2)
C19 C -0.4268(2) -0.4108(1) -0.5598(2)
C20 C -0.5153(2) -0.3595(1) -0.6563(2)
C21 C -0.5739(2) -0.3656(1) -0.8208(2)
O2 O -0.5263(1) -0.4245(1) -0.8652(1)
O3 O -0.6557(2) -0.3233(1) -0.9082(1)
C22 C -0.6088(2) -0.4343(1) -1.0239(2)
C23 C -0.8218(2) -0.4429(1) -1.0769(2)
O4 O -0.9125(1) -0.4454(1) -1.2097(1)
O5 O -0.8859(2) -0.4482(1) -0.9694(1)
C24 C -0.5222(2) -0.4947(1) -1.0654(2)
O6 O -0.6000(1) -0.5519(1) -1.0214(1)
C25 C -0.3078(2) -0.4937(1) -0.9945(2)
O7 O -0.2339(1) -0.4480(1) -1.0418(1)
O8 O -0.2264(2) -0.5360(1) -0.8987(1)
C26 C -0.6210(2) -0.6057(1) -1.1088(2)
O9 O -0.5744(2) -0.6070(1) -1.2156(1)
C27 C -0.7133(2) -0.6607(1) -1.0610(2)
C28 C -0.6984(3) -0.7239(1) -1.1111(2)
C29 C -0.7903(3) -0.7757(1) -1.0741(2)
C30 C -0.8981(3) -0.7644(1) -0.9895(3)
C31 C -0.9134(4) -0.7020(1) -0.9401(3)
C32 C -0.8206(3) -0.6499(1) -0.9746(2)
H22 H -0.6222(28) -0.2694(11) -0.6679(23)
H23 H -0.5394(30) -0.2535(11) -0.4050(25)
H24 H -0.3997(31) -0.3412(11) -0.2502(27)
H25 H -0.3166(24) -0.4383(10) -0.3419(19)
H26 H -0.3985(25) -0.4498(10) -0.5989(20)
H27 H -0.5838(20) -0.3969(8) -1.0747(16)
H28 H -1.0219(56) -0.4470(19) -1.0079(39)
H29 H -0.5561(20) -0.4959(7) -1.1728(17)
H30 H -0.6224(28) -0.7315(10) -1.1693(22)
H31 H -0.7796(31) -0.8195(12) -1.1118(24)
H32 H -0.9634(34) -0.7971(13) -0.9664(25)
H33 H -0.9933(37) -0.6927(13) -0.8880(30)
H34 H -0.8316(32) -0.6057(12) -0.9411(24)
C10? C -0.7391(3) -0.1018(1) -0.5795(2)
C11? C -0.7966(12) -0.1425(5) -0.6769(10)
H10? H -0.6411(12) -0.0738(5) -0.5830(10)
H11? H -0.8946(12) -0.1717(5) -0.6785(10)
H12? H -0.7439(12) -0.1455(5) -0.7522(10)
loop_
_geom_bond_atom_site_label_1
_geom_bond_atom_site_label_2
_geom_bond_site_symmetry_1
_geom_bond_site_symmetry_2
C1 C2 1_555 1_555
C2 C3 1_555 1_555
C3 C4 1_555 1_555
C4 C5 1_555 1_555
C5 C6 1_555 1_555
C6 C1 1_555 1_555
C7 C6 1_555 1_555
O1 C7 1_555 1_555
C8 C7 1_555 1_555
C9 C8 1_555 1_555
C12 C7 1_555 1_555
N1 C12 1_555 1_555
C13 N1 1_555 1_555
C14 N1 1_555 1_555
C15 C16 1_555 1_555
C16 C17 1_555 1_555
C17 C18 1_555 1_555
C18 C19 1_555 1_555
C19 C20 1_555 1_555
C20 C15 1_555 1_555
C21 C20 1_555 1_555
O2 C21 1_555 1_555
O3 C21 1_555 1_555
C22 O2 1_555 1_555
C23 C22 1_555 1_555
O4 C23 1_555 1_555
O5 C23 1_555 1_555
C24 C22 1_555 1_555
O6 C24 1_555 1_555
C25 C24 1_555 1_555
O7 C25 1_555 1_555
O8 C25 1_555 1_555
C26 O6 1_555 1_555
O9 C26 1_555 1_555
C27 C26 1_555 1_555
C28 C27 1_555 1_555
C29 C28 1_555 1_555
C30 C29 1_555 1_555
C31 C30 1_555 1_555
C32 C27 1_555 1_555
H1 C1 1_555 1_555
H2 C2 1_555 1_555
H3 C3 1_555 1_555
H4 C4 1_555 1_555
H5 C5 1_555 1_555
H6 O1 1_555 1_555
H7 C8 1_555 1_555
H8 C9 1_555 1_555
H9 C9 1_555 1_555
H13 C12 1_555 1_555
H14 C12 1_555 1_555
H15 N1 1_555 1_555
H16 C13 1_555 1_555
H17 C13 1_555 1_555
H18 C13 1_555 1_555
H19 C14 1_555 1_555
H20 C14 1_555 1_555
H21 C14 1_555 1_555
H22 C15 1_555 1_555
H23 C16 1_555 1_555
H24 C17 1_555 1_555
H25 C18 1_555 1_555
H26 C19 1_555 1_555
H27 C22 1_555 1_555
H28 O5 1_555 1_555
H29 C24 1_555 1_555
H30 C28 1_555 1_555
H31 C29 1_555 1_555
H32 C30 1_555 1_555
H33 C31 1_555 1_555
H34 C32 1_555 1_555
C31 C32 1_555 1_555

#END
