
#######################################################################
#
#                 Cambridge Crystallographic Data Centre
#                                CCDC 
#
#######################################################################
#
# If this CIF has been generated from an entry in the Cambridge 
# Structural Database, then it will include bibliographic, chemical, 
# crystal, experimental, refinement or atomic coordinate data resulting 
# from the CCDC's data processing and validation procedures.
#
#######################################################################

data_VALKOJ
_chemical_name_common            
1-Phenyl-1-(p-tolyl)-2-(p-tolylsulfonyl)-1,4-pentadiene
_chemical_formula_moiety         'C25 H24 O2 S1'
_chemical_name_systematic        
(E)-5-Phenyl-5-p-tolyl-4-(p-tolylsulfonyl)-1,4-pentadiene
_symmetry_cell_setting           monoclinic
_symmetry_space_group_name_H-M   'P 21/n'
_symmetry_Int_Tables_number      14
_space_group_name_Hall           '-P 2yn'
loop_
_symmetry_equiv_pos_site_id
_symmetry_equiv_pos_as_xyz
1 x,y,z
2 1/2-x,1/2+y,1/2-z
3 -x,-y,-z
4 1/2+x,1/2-y,1/2+z
_cell_length_a                   5.9754(5)
_cell_length_b                   22.733(2)
_cell_length_c                   15.3646(13)
_cell_angle_alpha                90
_cell_angle_beta                 92.512(2)
_cell_angle_gamma                90
_cell_volume                     2085.1
_exptl_crystal_colour            colorless
_chemical_melting_point          '110-112 deg.C'
_cell_formula_units_Z            4
loop_
_atom_site_label
_atom_site_type_symbol
_atom_site_fract_x
_atom_site_fract_y
_atom_site_fract_z
S1 S 1.14687(11) 0.16994(3) 0.32671(4)
O1 O 1.3603(3) 0.16477(7) 0.28855(11)
O2 O 1.1443(3) 0.17318(7) 0.41995(10)
C1 C 0.9788(4) 0.10773(9) 0.29688(13)
C2 C 0.8872(3) 0.10006(9) 0.21695(12)
C3 C 0.9168(4) 0.14198(9) 0.14332(13)
C4 C 1.1115(4) 0.14347(11) 0.09803(15)
C5 C 1.1296(5) 0.18151(11) 0.02855(15)
C6 C 0.9565(4) 0.21839(11) 0.00497(16)
C7 C 0.7601(4) 0.21697(11) 0.04914(15)
C8 C 0.7399(4) 0.17834(10) 0.11706(14)
C9 C 0.7438(4) 0.04842(9) 0.19198(13)
C10 C 0.7975(5) 0.01363(11) 0.12124(15)
C11 C 0.6612(5) -0.03248(12) 0.09495(17)
C12 C 0.4686(4) -0.04571(10) 0.13543(16)
C13 C 0.4150(5) -0.01079(11) 0.20484(17)
C14 C 0.5516(4) 0.03495(11) 0.23290(17)
C15 C 0.3188(7) -0.09561(16) 0.1055(3)
C16 C 0.9686(5) 0.06344(13) 0.37060(17)
C17 C 0.7952(9) 0.0787(2) 0.4365(2)
C18 C 0.640(3) 0.0446(7) 0.4707(8)
C19 C 1.0141(4) 0.23321(10) 0.28503(14)
C20 C 0.8123(4) 0.25052(12) 0.31541(17)
C21 C 0.7070(5) 0.30011(12) 0.28250(19)
C22 C 0.8028(5) 0.33320(11) 0.21853(18)
C23 C 1.0095(5) 0.31622(12) 0.18997(19)
C24 C 1.1159(5) 0.26661(11) 0.22207(16)
C25 C 0.6805(9) 0.3862(2) 0.1802(4)
H1 H 1.236(3) 0.1168(10) 0.1134(12)
H2 H 1.266(4) 0.1799(10) -0.0010(14)
H3 H 0.965(3) 0.2428(10) -0.0423(13)
H4 H 0.631(3) 0.2413(10) 0.0338(13)
H5 H 0.606(4) 0.1755(9) 0.1461(13)
H6 H 0.940(4) 0.0236(11) 0.0939(16)
H7 H 0.710(4) -0.0575(13) 0.0495(17)
H8 H 0.283(4) -0.0198(11) 0.2323(15)
H9 H 0.518(3) 0.0567(10) 0.2794(14)
H10 H 0.304(6) -0.0985(18) 0.050(2)
H11 H 0.398(5) -0.1374(17) 0.1152(19)
H12 H 0.183(6) -0.0944(18) 0.124(2)
H13 H 1.111(4) 0.0612(10) 0.4006(14)
H14 H 0.926(4) 0.0271(13) 0.3439(16)
H15 H 0.662(4) 0.1045(9) 0.4455(14)
H16 H 0.740(4) 0.2262(12) 0.3565(15)
H17 H 0.554(4) 0.3123(11) 0.2987(14)
H18 H 1.097(4) 0.3394(11) 0.1490(16)
H19 H 1.262(4) 0.2555(10) 0.2054(13)
H20 H 0.682(10) 0.380(3) 0.127(4)
H21 H 0.776(9) 0.418(3) 0.183(4)
H22 H 0.520(9) 0.384(3) 0.178(4)
H23 H 0.705(6) 0.0141(14) 0.464(2)
H24 H 0.567(10) 0.079(2) 0.486(4)
C26? C 0.753(4) 0.0653(10) 0.4891(12)
loop_
_geom_bond_atom_site_label_1
_geom_bond_atom_site_label_2
_geom_bond_site_symmetry_1
_geom_bond_site_symmetry_2
S1 O1 1_555 1_555
O2 S1 1_555 1_555
C1 S1 1_555 1_555
C2 C1 1_555 1_555
C3 C2 1_555 1_555
C4 C3 1_555 1_555
C5 C4 1_555 1_555
C6 C5 1_555 1_555
C7 C6 1_555 1_555
C8 C3 1_555 1_555
C9 C2 1_555 1_555
C10 C9 1_555 1_555
C11 C10 1_555 1_555
C12 C11 1_555 1_555
C13 C12 1_555 1_555
C14 C9 1_555 1_555
C15 C12 1_555 1_555
C16 C1 1_555 1_555
C17 C16 1_555 1_555
C18 C17 1_555 1_555
C19 S1 1_555 1_555
C20 C19 1_555 1_555
C21 C20 1_555 1_555
C22 C21 1_555 1_555
C23 C22 1_555 1_555
C24 C19 1_555 1_555
C25 C22 1_555 1_555
H1 C4 1_555 1_555
H2 C5 1_555 1_555
H3 C6 1_555 1_555
H4 C7 1_555 1_555
H5 C8 1_555 1_555
H6 C10 1_555 1_555
H7 C11 1_555 1_555
H8 C13 1_555 1_555
H9 C14 1_555 1_555
H10 C15 1_555 1_555
H11 C15 1_555 1_555
H12 C15 1_555 1_555
H13 C16 1_555 1_555
H14 C16 1_555 1_555
H15 C17 1_555 1_555
H16 C20 1_555 1_555
H17 C21 1_555 1_555
H18 C23 1_555 1_555
H19 C24 1_555 1_555
H20 C25 1_555 1_555
H21 C25 1_555 1_555
H22 C25 1_555 1_555
H23 C18 1_555 1_555
H24 C18 1_555 1_555
C7 C8 1_555 1_555
C13 C14 1_555 1_555
C23 C24 1_555 1_555

#END
