
#######################################################################
#
#                 Cambridge Crystallographic Data Centre
#                                CCDC 
#
#######################################################################
#
# If this CIF has been generated from an entry in the Cambridge 
# Structural Database, then it will include bibliographic, chemical, 
# crystal, experimental, refinement or atomic coordinate data resulting 
# from the CCDC's data processing and validation procedures.
#
#######################################################################

data_VALLUR
_chemical_formula_moiety         'C33 H35 N1 O4'
_chemical_name_systematic        
'Diethyl 1-ethyl-7-methyl-4,6,6-triphenyl-6,7-dihydro-1H-azepine-2,3-dicarboxylate'
_symmetry_cell_setting           monoclinic
_symmetry_space_group_name_H-M   'P 21/c'
_symmetry_Int_Tables_number      14
_space_group_name_Hall           '-P 2ybc'
loop_
_symmetry_equiv_pos_site_id
_symmetry_equiv_pos_as_xyz
1 x,y,z
2 -x,1/2+y,1/2-z
3 -x,-y,-z
4 x,1/2-y,1/2+z
_cell_length_a                   17.0989(8)
_cell_length_b                   8.7981(6)
_cell_length_c                   19.2978(9)
_cell_angle_alpha                90
_cell_angle_beta                 98.895(5)
_cell_angle_gamma                90
_cell_volume                     2868.2
_exptl_crystal_colour            yellow
_exptl_crystal_description       block
_cell_formula_units_Z            4
loop_
_atom_site_label
_atom_site_type_symbol
_atom_site_fract_x
_atom_site_fract_y
_atom_site_fract_z
N1 N 0.31013(9) 0.81460(19) 0.47941(7)
C1 C 0.24866(10) 0.8720(2) 0.31981(9)
O1 O 0.12595(8) 0.78350(18) 0.49563(8)
O2 O 0.19124(10) 0.98315(19) 0.54942(7)
O3 O 0.09665(9) 1.0379(2) 0.40590(8)
C2 C 0.35473(10) 0.6861(2) 0.37573(9)
C3 C 0.31102(11) 0.5494(2) 0.40121(9)
C4 C 0.37547(10) 0.7994(2) 0.43937(9)
H1 H 0.4196 0.7539 0.4710
C5 C 0.23760(10) 0.8659(2) 0.45064(9)
C6 C 0.20907(10) 0.8970(2) 0.38145(9)
C7 C 0.30839(10) 0.7755(2) 0.31644(9)
H2 H 0.3231 0.7620 0.2724
C8 C 0.22646(11) 0.9763(2) 0.25841(9)
C9 C 0.43022(11) 0.6260(2) 0.35051(9)
O4 O 0.08705(8) 0.9011(2) 0.30766(8)
C10 C 0.18237(12) 0.8881(2) 0.50421(10)
C11 C 0.40363(12) 0.9561(3) 0.41912(10)
H3 H 0.4360 0.9450 0.3830
H4 H 0.4340 1.0032 0.4595
H5 H 0.3586 1.0184 0.4022
C12 C 0.32722(12) 0.7611(3) 0.55262(9)
H6 H 0.3553 0.6652 0.5538
H7 H 0.2776 0.7430 0.5697
C13 C 0.21188(12) 0.9237(3) 0.18979(9)
H8 H 0.2118 0.8197 0.1811
C14 C 0.12670(12) 0.9548(3) 0.36789(10)
C15 C 0.35241(14) 0.4460(3) 0.44775(10)
H9 H 0.4066 0.4585 0.4614
C16 C 0.22559(12) 1.1318(3) 0.26922(11)
H10 H 0.2349 1.1695 0.3148
C17 C 0.50675(12) 0.6667(3) 0.37881(11)
H11 H 0.5150 0.7330 0.4168
C18 C 0.23079(12) 0.5253(3) 0.38115(11)
H12 H 0.2016 0.5908 0.3493
C19 C 0.42105(14) 0.5243(3) 0.29493(11)
H13 H 0.3704 0.4937 0.2752
C20 C 0.19344(15) 0.4037(3) 0.40832(13)
H14 H 0.1394 0.3893 0.3947
C21 C 0.21110(14) 1.2318(3) 0.21351(12)
H15 H 0.2109 1.3359 0.2218
C22 C 0.31449(17) 0.3254(3) 0.47396(11)
H16 H 0.3434 0.2577 0.5049
C23 C 0.19748(14) 1.0242(3) 0.13419(11)
H17 H 0.1880 0.9872 0.0885
C24 C 0.19703(14) 1.1779(3) 0.14588(12)
H18 H 0.1873 1.2451 0.1083
C25 C 0.23508(17) 0.3046(3) 0.45491(12)
H19 H 0.2095 0.2242 0.4733
C26 C 0.57140(14) 0.6103(4) 0.35150(13)
H20 H 0.6223 0.6395 0.3711
C27 C 0.56097(15) 0.5128(4) 0.29647(14)
H21 H 0.6045 0.4768 0.2779
C28 C 0.48595(17) 0.4676(4) 0.26831(13)
H22 H 0.4787 0.3987 0.2313
C29 C 0.37592(17) 0.8721(4) 0.60094(12)
H23 H 0.4264 0.8862 0.5859
H24 H 0.3836 0.8329 0.6479
H25 H 0.3488 0.9678 0.5997
C30 C 0.06094(14) 0.8032(4) 0.53572(14)
H26 H 0.0529 0.9098 0.5453
H27 H 0.0711 0.7482 0.5798
C31 C -0.0125(4) 0.7357(8) 0.4866(5)
H28 H -0.0224 0.7939 0.4441
H29 H -0.0580 0.7397 0.5101
H30 H -0.0019 0.6320 0.4757
C32 C 0.00861(16) 0.9632(5) 0.28567(17)
H31 H 0.0027 1.0570 0.3108
H32 H -0.0310 0.8918 0.2966
C33 C -0.0031(3) 0.9926(9) 0.2106(3)
H33 H 0.0386 1.0568 0.1996
H34 H -0.0531 1.0423 0.1970
H35 H -0.0026 0.8982 0.1858
C34? C 0.0073(10) 1.086(3) 0.2445(11)
C35? C 0.0057(7) 0.6942(16) 0.5250(9)
H36? H -0.0245 0.8852 0.2607
H37? H -0.0142 0.9900 0.3271
H38? H 0.0361 1.0650 0.2066
H39? H -0.0465 1.1110 0.2259
H40? H 0.0315 1.1701 0.2714
H41? H 0.0359 0.9006 0.5236
H42? H 0.0825 0.8058 0.5853
H43? H -0.0131 0.6849 0.4756
H44? H 0.0281 0.5993 0.5427
H45? H -0.0377 0.7203 0.5489
loop_
_geom_bond_atom_site_label_1
_geom_bond_atom_site_label_2
_geom_bond_site_symmetry_1
_geom_bond_site_symmetry_2
N1 C4 1_555 1_555
C1 C6 1_555 1_555
O1 C10 1_555 1_555
O2 C10 1_555 1_555
O3 C14 1_555 1_555
C2 C3 1_555 1_555
C3 C15 1_555 1_555
C4 C2 1_555 1_555
H1 C4 1_555 1_555
C5 N1 1_555 1_555
C6 C5 1_555 1_555
C7 C1 1_555 1_555
H2 C7 1_555 1_555
C8 C1 1_555 1_555
C9 C2 1_555 1_555
O4 C14 1_555 1_555
C10 C5 1_555 1_555
C11 C4 1_555 1_555
H3 C11 1_555 1_555
H4 C11 1_555 1_555
H5 C11 1_555 1_555
C12 N1 1_555 1_555
H6 C12 1_555 1_555
H7 C12 1_555 1_555
C13 C8 1_555 1_555
H8 C13 1_555 1_555
C14 C6 1_555 1_555
C15 H9 1_555 1_555
C16 C8 1_555 1_555
H10 C16 1_555 1_555
C17 C9 1_555 1_555
H11 C17 1_555 1_555
C18 C3 1_555 1_555
H12 C18 1_555 1_555
C19 C9 1_555 1_555
H13 C19 1_555 1_555
C20 C18 1_555 1_555
H14 C20 1_555 1_555
C21 C16 1_555 1_555
H15 C21 1_555 1_555
C22 C15 1_555 1_555
H16 C22 1_555 1_555
C23 C13 1_555 1_555
H17 C23 1_555 1_555
C24 C21 1_555 1_555
H18 C24 1_555 1_555
C25 C20 1_555 1_555
H19 C25 1_555 1_555
C26 C17 1_555 1_555
H20 C26 1_555 1_555
C27 C26 1_555 1_555
H21 C27 1_555 1_555
C28 C19 1_555 1_555
H22 C28 1_555 1_555
C29 C12 1_555 1_555
H23 C29 1_555 1_555
H24 C29 1_555 1_555
H25 C29 1_555 1_555
C30 O1 1_555 1_555
H26 C30 1_555 1_555
H27 C30 1_555 1_555
C31 C30 1_555 1_555
H28 C31 1_555 1_555
H29 C31 1_555 1_555
H30 C31 1_555 1_555
C32 O4 1_555 1_555
H31 C32 1_555 1_555
H32 C32 1_555 1_555
C33 C32 1_555 1_555
H33 C33 1_555 1_555
H34 C33 1_555 1_555
H35 C33 1_555 1_555
C2 C7 1_555 1_555
C22 C25 1_555 1_555
C23 C24 1_555 1_555
C27 C28 1_555 1_555

#END
