
#######################################################################
#
#                 Cambridge Crystallographic Data Centre
#                                CCDC 
#
#######################################################################
#
# If this CIF has been generated from an entry in the Cambridge 
# Structural Database, then it will include bibliographic, chemical, 
# crystal, experimental, refinement or atomic coordinate data resulting 
# from the CCDC's data processing and validation procedures.
#
#######################################################################

data_VALMEC
_chemical_formula_moiety         'C37 H35 N1 O4'
_chemical_name_systematic        
'Dimethyl 4-(2,2-diphenylvinyl)-1-isopropyl-4,5-diphenyl-4,5-dihydro-1H-pyrrole-2,3-dicarboxylate'
_symmetry_cell_setting           monoclinic
_symmetry_space_group_name_H-M   'P 21/c'
_symmetry_Int_Tables_number      14
_space_group_name_Hall           '-P 2ybc'
loop_
_symmetry_equiv_pos_site_id
_symmetry_equiv_pos_as_xyz
1 x,y,z
2 -x,1/2+y,1/2-z
3 -x,-y,-z
4 x,1/2-y,1/2+z
_cell_length_a                   11.1655(6)
_cell_length_b                   19.4016(8)
_cell_length_c                   15.3346(7)
_cell_angle_alpha                90
_cell_angle_beta                 108.456(5)
_cell_angle_gamma                90
_cell_volume                     3151.06
_exptl_crystal_colour            colorless
_exptl_crystal_description       block
_cell_formula_units_Z            4
loop_
_atom_site_label
_atom_site_type_symbol
_atom_site_fract_x
_atom_site_fract_y
_atom_site_fract_z
O1 O 0.15868(16) 0.66424(8) 0.08159(10)
O2 O 0.23581(19) 0.55735(8) 0.10972(12)
O3 O 0.26659(16) 0.44802(8) 0.26101(11)
O4 O 0.07370(15) 0.44886(7) 0.15745(10)
N1 N 0.07724(15) 0.55170(7) 0.32058(10)
C1 C 0.4495(2) 0.81787(15) 0.33069(18)
H1 H 0.5001 0.7787 0.3436
C2 C 0.5028(4) 0.8806(2) 0.3225(2)
H2 H 0.5882 0.8833 0.3286
C3 C 0.4314(5) 0.9382(2) 0.3058(3)
H3 H 0.4665 0.9803 0.2981
C4 C 0.3069(5) 0.93408(17) 0.3001(3)
H4 H 0.2585 0.9740 0.2918
C5 C 0.2521(3) 0.87112(13) 0.3066(2)
H5 H 0.1670 0.8689 0.3017
C6 C 0.3229(2) 0.81182(11) 0.32017(13)
C7 C 0.26498(17) 0.74331(10) 0.32487(12)
C8 C 0.34122(18) 0.69889(11) 0.40221(13)
C9 C 0.4069(2) 0.64226(12) 0.38648(17)
H6 H 0.4013 0.6303 0.3266
C10 C 0.4808(2) 0.60320(15) 0.4594(2)
H7 H 0.5247 0.5652 0.4483
C11 C 0.4892(3) 0.62045(18) 0.5472(2)
H8 H 0.5390 0.5942 0.5960
C12 C 0.4249(3) 0.67594(17) 0.56409(18)
H9 H 0.4301 0.6869 0.6242
C13 C 0.3517(2) 0.71612(12) 0.49189(14)
H10 H 0.3097 0.7546 0.5038
C14 C 0.15601(17) 0.72661(9) 0.26206(12)
H11 H 0.1219 0.7613 0.2196
C15 C 0.07729(17) 0.66141(9) 0.24713(11)
C16 C 0.07266(17) 0.62631(9) 0.33936(11)
H12 H 0.1506 0.6384 0.3882
C17 C -0.05828(17) 0.67596(9) 0.18596(11)
C18 C -0.11768(19) 0.73665(10) 0.19598(13)
H13 H -0.0713 0.7708 0.2348
C19 C -0.2436(2) 0.74780(12) 0.14999(15)
H14 H -0.2815 0.7889 0.1582
C20 C -0.3129(2) 0.69840(13) 0.09236(16)
H15 H -0.3982 0.7056 0.0616
C21 C -0.2561(2) 0.63815(13) 0.08016(15)
H16 H -0.3029 0.6047 0.0404
C22 C -0.12986(19) 0.62689(10) 0.12660(12)
H17 H -0.0925 0.5858 0.1179
C23 C -0.03634(17) 0.64646(9) 0.37097(11)
C24 C -0.0213(2) 0.69912(9) 0.43410(12)
H18 H 0.0575 0.7196 0.4592
C25 C -0.1223(2) 0.72174(11) 0.46044(15)
H19 H -0.1112 0.7574 0.5028
C26 C -0.2386(2) 0.69181(12) 0.42426(15)
H20 H -0.3065 0.7073 0.4416
C27 C -0.2545(2) 0.63888(12) 0.36239(15)
H21 H -0.3332 0.6183 0.3380
C28 C -0.15432(19) 0.61615(10) 0.33630(13)
H22 H -0.1659 0.5799 0.2948
C29 C 0.0905(2) 0.50404(10) 0.39852(14)
H23 H 0.0328 0.5231 0.4289
C30 C 0.2140(3) 0.50800(18) 0.4691(2)
H24 H 0.2182 0.4747 0.5163
H25 H 0.2260 0.5534 0.4954
H26 H 0.2788 0.4985 0.4420
C31 C 0.0408(3) 0.43440(13) 0.3713(2)
H27 H -0.0403 0.4376 0.3250
H28 H 0.0324 0.4105 0.4240
H29 H 0.0978 0.4096 0.3473
C32 C 0.12966(17) 0.54415(9) 0.25214(12)
C33 C 0.1675(2) 0.47500(10) 0.22589(13)
C34 C 0.1004(3) 0.38442(12) 0.11981(18)
H30 H 0.0233 0.3651 0.0801
H31 H 0.1383 0.3528 0.1690
H32 H 0.1574 0.3926 0.0854
C35 C 0.13551(17) 0.60356(9) 0.20758(12)
C36 C 0.1751(2) 0.61276(11) 0.12771(14)
C37 C 0.2752(4) 0.56137(17) 0.0293(2)
H33 H 0.2025 0.5673 -0.0241
H34 H 0.3182 0.5196 0.0234
H35 H 0.3312 0.5998 0.0349
loop_
_geom_bond_atom_site_label_1
_geom_bond_atom_site_label_2
_geom_bond_site_symmetry_1
_geom_bond_site_symmetry_2
O1 C36 1_555 1_555
O2 C36 1_555 1_555
O3 C33 1_555 1_555
O4 C33 1_555 1_555
N1 C16 1_555 1_555
C1 H1 1_555 1_555
C2 C1 1_555 1_555
H2 C2 1_555 1_555
C3 C2 1_555 1_555
H3 C3 1_555 1_555
C4 C3 1_555 1_555
H4 C4 1_555 1_555
C5 C4 1_555 1_555
H5 C5 1_555 1_555
C6 C1 1_555 1_555
C7 C6 1_555 1_555
C8 C7 1_555 1_555
C9 C8 1_555 1_555
H6 C9 1_555 1_555
C10 C9 1_555 1_555
H7 C10 1_555 1_555
C11 C10 1_555 1_555
H8 C11 1_555 1_555
C12 C11 1_555 1_555
H9 C12 1_555 1_555
C13 C8 1_555 1_555
H10 C13 1_555 1_555
C14 C7 1_555 1_555
H11 C14 1_555 1_555
C15 C14 1_555 1_555
C16 C15 1_555 1_555
H12 C16 1_555 1_555
C17 C15 1_555 1_555
C18 C17 1_555 1_555
H13 C18 1_555 1_555
C19 C18 1_555 1_555
H14 C19 1_555 1_555
C20 C19 1_555 1_555
H15 C20 1_555 1_555
C21 C20 1_555 1_555
H16 C21 1_555 1_555
C22 C17 1_555 1_555
H17 C22 1_555 1_555
C23 C16 1_555 1_555
C24 C23 1_555 1_555
H18 C24 1_555 1_555
C25 C24 1_555 1_555
H19 C25 1_555 1_555
C26 C25 1_555 1_555
H20 C26 1_555 1_555
C27 C26 1_555 1_555
H21 C27 1_555 1_555
C28 C23 1_555 1_555
H22 C28 1_555 1_555
C29 N1 1_555 1_555
H23 C29 1_555 1_555
C30 C29 1_555 1_555
H24 C30 1_555 1_555
H25 C30 1_555 1_555
H26 C30 1_555 1_555
C31 C29 1_555 1_555
H27 C31 1_555 1_555
H28 C31 1_555 1_555
H29 C31 1_555 1_555
C32 N1 1_555 1_555
C33 C32 1_555 1_555
C34 O4 1_555 1_555
H30 C34 1_555 1_555
H31 C34 1_555 1_555
H32 C34 1_555 1_555
C35 C15 1_555 1_555
C36 C35 1_555 1_555
C37 O2 1_555 1_555
H33 C37 1_555 1_555
H34 C37 1_555 1_555
H35 C37 1_555 1_555
C5 C6 1_555 1_555
C12 C13 1_555 1_555
C21 C22 1_555 1_555
C27 C28 1_555 1_555
C32 C35 1_555 1_555

#END
