
#######################################################################
#
#                 Cambridge Crystallographic Data Centre
#                                CCDC 
#
#######################################################################
#
# If this CIF has been generated from an entry in the Cambridge 
# Structural Database, then it will include bibliographic, chemical, 
# crystal, experimental, refinement or atomic coordinate data resulting 
# from the CCDC's data processing and validation procedures.
#
#######################################################################

data_VALQEG
_chemical_formula_moiety         'C22 H19 Br1 N2 O1'
_chemical_name_systematic        
(S)-1-Benzyl-4-(4-bromophenyl)-1,3,4,5-tetrahydro-2H-1,5-benzodiazepin-2-one
_symmetry_cell_setting           monoclinic
_symmetry_space_group_name_H-M   'P 21'
_symmetry_Int_Tables_number      4
_space_group_name_Hall           'P 2yb'
loop_
_symmetry_equiv_pos_site_id
_symmetry_equiv_pos_as_xyz
1 x,y,z
2 -x,1/2+y,-z
_cell_length_a                   6.3839(4)
_cell_length_b                   7.5086(2)
_cell_length_c                   19.4120(5)
_cell_angle_alpha                90
_cell_angle_beta                 96.460(4)
_cell_angle_gamma                90
_cell_volume                     924.59
_exptl_crystal_colour            colorless
_exptl_crystal_description       block
_cell_formula_units_Z            2
loop_
_atom_site_label
_atom_site_type_symbol
_atom_site_fract_x
_atom_site_fract_y
_atom_site_fract_z
Br1 Br 1.41881(8) 0.94715(9) 1.10978(2)
N1 N 0.6205(4) 0.8383(5) 0.70158(14)
N2 N 1.0296(3) 0.9389(5) 0.75790(12)
O1 O 0.4614(4) 1.0876(4) 0.73502(17)
C1 C 1.1443(6) 0.6284(6) 0.74897(19)
H1 H 1.2808 0.6599 0.7665
C2 C 0.4952(5) 0.8391(6) 0.63331(18)
H2 H 0.3929 0.9348 0.6322
H3 H 0.4178 0.7279 0.6275
C3 C 0.7829(5) 0.7061(5) 0.71484(15)
C4 C 1.0996(7) 0.4528(8) 0.72982(18)
H4 H 1.2062 0.3678 0.7342
C5 C 0.9866(5) 0.7578(5) 0.74217(15)
C6 C 0.9397(5) 1.0213(5) 0.81652(17)
H5 H 0.9289 1.1493 0.8069
C7 C 0.6229(5) 0.8618(5) 0.57330(17)
C8 C 0.6494(9) 0.8320(7) 0.4514(2)
H6 H 0.5913 0.7946 0.4077
C9 C 1.2356(7) 0.8197(7) 0.9794(2)
H7 H 1.2727 0.7081 0.9977
C10 C 0.5892(4) 0.9659(6) 0.74801(16)
C11 C 0.7147(4) 0.9521(6) 0.81842(15)
H8 H 0.7196 0.8288 0.8334
H9 H 0.6458 1.0208 0.8517
C12 C 0.8188(5) 0.9467(7) 0.58038(16)
H10 H 0.8767 0.9868 0.6237
C13 C 1.1328(6) 1.1503(6) 0.9243(2)
H11 H 1.1012 1.2627 0.9059
C14 C 1.2426(7) 1.1338(7) 0.9909(3)
H12 H 1.2836 1.2349 1.0167
C15 C 1.0714(5) 1.0002(5) 0.88619(16)
C16 C 1.1275(7) 0.8342(6) 0.9141(2)
H13 H 1.0917 0.7318 0.8885
C17 C 0.5407(7) 0.8026(6) 0.5083(2)
H14 H 0.4122 0.7430 0.5027
C18 C 0.7406(7) 0.5305(6) 0.69693(19)
H15 H 0.6046 0.4970 0.6796
C19 C 1.2882(5) 0.9697(7) 1.01723(16)
C20 C 0.8980(8) 0.4053(5) 0.7045(2)
H16 H 0.8679 0.2874 0.6924
C21 C 0.8414(8) 0.9153(7) 0.4588(2)
H17 H 0.9137 0.9342 0.4205
C22 C 0.9266(6) 0.9711(7) 0.5237(2)
H18 H 1.0581 1.0258 0.5291
H19 H 1.168(3) 0.960(8) 0.7602(18)
loop_
_geom_bond_atom_site_label_1
_geom_bond_atom_site_label_2
_geom_bond_site_symmetry_1
_geom_bond_site_symmetry_2
Br1 C19 1_555 1_555
N1 C2 1_555 1_555
N2 C5 1_555 1_555
O1 C10 1_555 1_555
C1 H1 1_555 1_555
C2 H2 1_555 1_555
H3 C2 1_555 1_555
C3 N1 1_555 1_555
C4 C1 1_555 1_555
H4 C4 1_555 1_555
C5 C1 1_555 1_555
C6 N2 1_555 1_555
H5 C6 1_555 1_555
C7 C2 1_555 1_555
C8 H6 1_555 1_555
C9 H7 1_555 1_555
C10 N1 1_555 1_555
C11 C6 1_555 1_555
H8 C11 1_555 1_555
H9 C11 1_555 1_555
C12 C7 1_555 1_555
H10 C12 1_555 1_555
C13 H11 1_555 1_555
C14 C13 1_555 1_555
H12 C14 1_555 1_555
C15 C6 1_555 1_555
C16 C9 1_555 1_555
H13 C16 1_555 1_555
C17 C7 1_555 1_555
H14 C17 1_555 1_555
C18 C3 1_555 1_555
H15 C18 1_555 1_555
C19 C9 1_555 1_555
C20 C4 1_555 1_555
H16 C20 1_555 1_555
C21 C8 1_555 1_555
H17 C21 1_555 1_555
C22 C12 1_555 1_555
H18 C22 1_555 1_555
H19 N2 1_555 1_555
C3 C5 1_555 1_555
C8 C17 1_555 1_555
C10 C11 1_555 1_555
C13 C15 1_555 1_555
C14 C19 1_555 1_555
C15 C16 1_555 1_555
C18 C20 1_555 1_555
C21 C22 1_555 1_555

#END
