
#######################################################################
#
#                 Cambridge Crystallographic Data Centre
#                                CCDC 
#
#######################################################################
#
# If this CIF has been generated from an entry in the Cambridge 
# Structural Database, then it will include bibliographic, chemical, 
# crystal, experimental, refinement or atomic coordinate data resulting 
# from the CCDC's data processing and validation procedures.
#
#######################################################################

data_VALRIL
_chemical_formula_moiety         'C35 H25 N1 O3,0.5(C4 H10 O1)'
_chemical_name_systematic        
"Methyl 6,9,11-triphenyl-5,11-dihydrofuro[3',2':4,5]cyclohepta[1,2-b]indole-1-carboxylate diethyl ether solvate"
_symmetry_cell_setting           monoclinic
_symmetry_space_group_name_H-M   'P 21'
_symmetry_Int_Tables_number      4
_space_group_name_Hall           'P 2yb'
loop_
_symmetry_equiv_pos_site_id
_symmetry_equiv_pos_as_xyz
1 x,y,z
2 -x,1/2+y,-z
_cell_length_a                   14.651(3)
_cell_length_b                   14.524(3)
_cell_length_c                   14.781(3)
_cell_angle_alpha                90
_cell_angle_beta                 114.53(3)
_cell_angle_gamma                90
_cell_volume                     2861.39
_exptl_crystal_colour            green
_exptl_crystal_description       prismatic
_cell_formula_units_Z            4
loop_
_atom_site_label
_atom_site_type_symbol
_atom_site_fract_x
_atom_site_fract_y
_atom_site_fract_z
N1 N 0.39898(18) 0.8003(2) 0.6734(2)
O1 O 0.03972(14) 0.74117(15) 0.36099(14)
O2 O 0.39407(16) 0.50656(18) 0.47320(16)
O3 O 0.52522(17) 0.44123(16) 0.59440(17)
C1 C 0.24504(19) 0.6013(2) 0.5393(2)
H1 H 0.2754 0.5525 0.5152
C2 C 0.1650(2) 0.6451(2) 0.4496(2)
C3 C 0.1132(2) 0.7224(2) 0.4538(2)
C4 C 0.1267(2) 0.7838(2) 0.5315(2)
H2 H 0.0703 0.8156 0.5282
C5 C 0.2150(2) 0.8015(2) 0.6118(2)
C6 C 0.3081(2) 0.7557(2) 0.6238(2)
C7 C 0.3256(2) 0.6721(2) 0.5895(2)
C8 C 0.4325(2) 0.6648(2) 0.6191(2)
C9 C 0.4744(2) 0.7470(2) 0.6706(2)
C10 C 0.5767(2) 0.7656(2) 0.7114(2)
H3 H 0.6019 0.8214 0.7427
C11 C 0.6385(2) 0.6991(3) 0.7037(3)
H4 H 0.7074 0.7092 0.7313
C12 C 0.6010(2) 0.6168(3) 0.6557(2)
H5 H 0.6458 0.5728 0.6526
C13 C 0.4993(2) 0.5973(2) 0.6119(2)
C14 C 0.4653(2) 0.5131(2) 0.5524(2)
C15 C 0.5026(3) 0.3567(3) 0.5389(3)
H6 H 0.4318 0.3448 0.5135
H7 H 0.5387 0.3070 0.5816
H8 H 0.5220 0.3617 0.4846
C16 C 0.1240(2) 0.6173(2) 0.3484(2)
H9 H 0.1446 0.5673 0.3223
C17 C 0.0492(2) 0.6773(2) 0.2968(2)
C18 C -0.0180(2) 0.6860(2) 0.1917(2)
C19 C 0.0051(3) 0.6451(3) 0.1201(3)
H10 H 0.0643 0.6116 0.1389
C20 C -0.0576(3) 0.6529(3) 0.0213(3)
H11 H -0.0400 0.6254 -0.0260
C21 C -0.1449(3) 0.7002(3) -0.0085(3)
H12 H -0.1879 0.7045 -0.0756
C22 C -0.1684(3) 0.7416(3) 0.0620(3)
H13 H -0.2280 0.7746 0.0422
C23 C -0.1061(2) 0.7355(3) 0.1615(3)
H14 H -0.1233 0.7647 0.2083
C24 C 0.2057(2) 0.5564(2) 0.6085(2)
C25 C 0.2610(2) 0.5553(2) 0.7102(2)
H15 H 0.3227 0.5851 0.7373
C26 C 0.2259(3) 0.5104(3) 0.7732(3)
H16 H 0.2643 0.5106 0.8416
C27 C 0.1357(3) 0.4664(3) 0.7348(3)
H17 H 0.1121 0.4370 0.7767
C28 C 0.0803(3) 0.4656(3) 0.6347(3)
H18 H 0.0187 0.4356 0.6084
C29 C 0.1156(2) 0.5098(3) 0.5709(3)
H19 H 0.0777 0.5077 0.5025
C30 C 0.2163(2) 0.8712(2) 0.6848(2)
C31 C 0.1607(2) 0.9525(2) 0.6543(3)
H20 H 0.1264 0.9648 0.5868
C32 C 0.1557(3) 1.0147(3) 0.7229(3)
H21 H 0.1178 1.0681 0.7013
C33 C 0.2068(3) 0.9979(3) 0.8230(3)
H22 H 0.2025 1.0392 0.8691
C34 C 0.2634(3) 0.9213(3) 0.8542(3)
H23 H 0.2993 0.9109 0.9219
C35 C 0.2686(2) 0.8581(2) 0.7867(2)
H24 H 0.3078 0.8056 0.8099
H60 H 0.410(2) 0.852(2) 0.698(2)
N2 N 0.62115(19) 0.3630(2) 0.8101(2)
O4 O 0.97935(15) 0.30714(16) 1.14287(16)
O5 O 0.58485(17) 0.1704(2) 1.08445(17)
O6 O 0.42548(17) 0.13126(19) 1.00621(18)
C36 C 0.7409(2) 0.1858(2) 1.0017(2)
H25 H 0.7045 0.1596 1.0383
C37 C 0.8352(2) 0.2281(2) 1.0776(2)
C38 C 0.8954(2) 0.2884(2) 1.0569(2)
C39 C 0.8876(2) 0.3310(2) 0.9685(2)
H26 H 0.9467 0.3530 0.9673
C40 C 0.8026(2) 0.3427(2) 0.8852(2)
C41 C 0.7044(2) 0.3177(2) 0.8785(2)
C42 C 0.6739(2) 0.2582(2) 0.9333(2)
C43 C 0.5663(2) 0.2692(2) 0.8989(2)
C44 C 0.5365(2) 0.3330(2) 0.8204(2)
C45 C 0.4376(2) 0.3577(3) 0.7642(3)
H27 H 0.4214 0.4018 0.7145
C46 C 0.3656(2) 0.3159(3) 0.7836(3)
H28 H 0.2984 0.3287 0.7444
C47 C 0.3909(2) 0.2542(3) 0.8615(2)
H29 H 0.3398 0.2269 0.8739
C48 C 0.4895(2) 0.2312(2) 0.9219(2)
C49 C 0.5077(2) 0.1748(2) 1.0116(2)
C50 C 0.4350(3) 0.0786(3) 1.0914(3)
H30 H 0.4855 0.0322 1.1040
H31 H 0.3720 0.0497 1.0792
H32 H 0.4539 0.1184 1.1481
C51 C 0.8833(2) 0.2095(2) 1.1812(2)
H33 H 0.8596 0.1712 1.2171
C52 C 0.9698(2) 0.2579(2) 1.2179(2)
C53 C 1.0499(2) 0.2666(2) 1.3173(2)
C54 C 1.0544(3) 0.2066(3) 1.3918(3)
H34 H 1.0057 0.1614 1.3790
C55 C 1.1318(3) 0.2145(4) 1.4852(3)
H35 H 1.1347 0.1742 1.5352
C56 C 1.2035(3) 0.2798(4) 1.5053(3)
H36 H 1.2547 0.2846 1.5689
C57 C 1.2003(3) 0.3393(4) 1.4313(4)
H37 H 1.2505 0.3831 1.4447
C58 C 1.1240(3) 0.3344(3) 1.3385(3)
H38 H 1.1212 0.3759 1.2896
C59 C 0.7633(2) 0.1056(2) 0.9457(2)
C60 C 0.7149(2) 0.0939(3) 0.8445(3)
H39 H 0.6705 0.1388 0.8059
C61 C 0.7314(3) 0.0165(3) 0.7994(3)
H40 H 0.6977 0.0091 0.7309
C62 C 0.7970(3) -0.0491(3) 0.8550(4)
H41 H 0.8077 -0.1014 0.8243
C63 C 0.8474(3) -0.0389(3) 0.9557(4)
H42 H 0.8921 -0.0839 0.9936
C64 C 0.8312(2) 0.0391(2) 1.0006(3)
H43 H 0.8665 0.0469 1.0688
C65 C 0.8090(2) 0.3885(2) 0.7977(2)
C66 C 0.8586(3) 0.4719(3) 0.8090(3)
H44 H 0.8885 0.4983 0.8718
C67 C 0.8645(3) 0.5159(4) 0.7305(4)
H45 H 0.8962 0.5728 0.7391
C68 C 0.8232(3) 0.4752(5) 0.6384(4)
H46 H 0.8280 0.5041 0.5844
C69 C 0.7748(3) 0.3921(4) 0.6257(3)
H47 H 0.7466 0.3652 0.5630
C70 C 0.7679(3) 0.3488(3) 0.7044(3)
H48 H 0.7354 0.2924 0.6953
H59 H 0.626(3) 0.409(3) 0.768(3)
O7 O 0.47132(19) -0.02181(18) 0.7602(2)
C71 C 0.5033(3) -0.0077(4) 0.8647(4)
H49 H 0.4457 0.0040 0.8793
H50 H 0.5475 0.0453 0.8860
C72 C 0.5565(4) -0.0905(4) 0.9178(4)
H51 H 0.5119 -0.1424 0.8974
H52 H 0.5793 -0.0814 0.9881
H53 H 0.6131 -0.1019 0.9025
C73 C 0.4219(4) 0.0569(4) 0.7083(5)
H54 H 0.3581 0.0636 0.7129
H55 H 0.4621 0.1111 0.7374
C74 C 0.4059(6) 0.0493(6) 0.6089(5)
H56 H 0.4622 0.0190 0.6047
H57 H 0.3983 0.1095 0.5801
H58 H 0.3462 0.0140 0.5735
loop_
_geom_bond_atom_site_label_1
_geom_bond_atom_site_label_2
_geom_bond_site_symmetry_1
_geom_bond_site_symmetry_2
N1 C6 1_555 1_555
N2 C41 1_555 1_555
O1 C3 1_555 1_555
O2 C14 1_555 1_555
O3 C14 1_555 1_555
O4 C38 1_555 1_555
O5 C49 1_555 1_555
O6 C49 1_555 1_555
O7 C71 1_555 1_555
C1 H1 1_555 1_555
C2 C1 1_555 1_555
C3 C2 1_555 1_555
C4 C3 1_555 1_555
H2 C4 1_555 1_555
C5 C4 1_555 1_555
C6 C5 1_555 1_555
C7 C1 1_555 1_555
C8 C7 1_555 1_555
C9 N1 1_555 1_555
C10 C9 1_555 1_555
H3 C10 1_555 1_555
C11 C10 1_555 1_555
H4 C11 1_555 1_555
C12 C11 1_555 1_555
H5 C12 1_555 1_555
C13 C8 1_555 1_555
C14 C13 1_555 1_555
C15 O3 1_555 1_555
H6 C15 1_555 1_555
H7 C15 1_555 1_555
H8 C15 1_555 1_555
C16 C2 1_555 1_555
H9 C16 1_555 1_555
C17 O1 1_555 1_555
C18 C17 1_555 1_555
C19 C18 1_555 1_555
H10 C19 1_555 1_555
C20 C19 1_555 1_555
H11 C20 1_555 1_555
C21 C20 1_555 1_555
H12 C21 1_555 1_555
C22 C21 1_555 1_555
H13 C22 1_555 1_555
C23 C18 1_555 1_555
H14 C23 1_555 1_555
C24 C1 1_555 1_555
C25 C24 1_555 1_555
H15 C25 1_555 1_555
C26 C25 1_555 1_555
H16 C26 1_555 1_555
C27 C26 1_555 1_555
H17 C27 1_555 1_555
C28 C27 1_555 1_555
H18 C28 1_555 1_555
C29 C24 1_555 1_555
H19 C29 1_555 1_555
C30 C5 1_555 1_555
C31 C30 1_555 1_555
H20 C31 1_555 1_555
C32 C31 1_555 1_555
H21 C32 1_555 1_555
C33 C32 1_555 1_555
H22 C33 1_555 1_555
C34 C33 1_555 1_555
H23 C34 1_555 1_555
C35 C30 1_555 1_555
H24 C35 1_555 1_555
C36 H25 1_555 1_555
C37 C36 1_555 1_555
C38 C37 1_555 1_555
C39 C38 1_555 1_555
H26 C39 1_555 1_555
C40 C39 1_555 1_555
C41 C40 1_555 1_555
C42 C36 1_555 1_555
C43 C42 1_555 1_555
C44 N2 1_555 1_555
C45 C44 1_555 1_555
H27 C45 1_555 1_555
C46 C45 1_555 1_555
H28 C46 1_555 1_555
C47 C46 1_555 1_555
H29 C47 1_555 1_555
C48 C43 1_555 1_555
C49 C48 1_555 1_555
C50 O6 1_555 1_555
H30 C50 1_555 1_555
H31 C50 1_555 1_555
H32 C50 1_555 1_555
C51 C37 1_555 1_555
H33 C51 1_555 1_555
C52 O4 1_555 1_555
C53 C52 1_555 1_555
C54 C53 1_555 1_555
H34 C54 1_555 1_555
C55 C54 1_555 1_555
H35 C55 1_555 1_555
C56 C55 1_555 1_555
H36 C56 1_555 1_555
C57 C56 1_555 1_555
H37 C57 1_555 1_555
C58 C53 1_555 1_555
H38 C58 1_555 1_555
C59 C36 1_555 1_555
C60 C59 1_555 1_555
H39 C60 1_555 1_555
C61 C60 1_555 1_555
H40 C61 1_555 1_555
C62 C61 1_555 1_555
H41 C62 1_555 1_555
C63 C62 1_555 1_555
H42 C63 1_555 1_555
C64 C59 1_555 1_555
H43 C64 1_555 1_555
C65 C40 1_555 1_555
C66 C65 1_555 1_555
H44 C66 1_555 1_555
C67 C66 1_555 1_555
H45 C67 1_555 1_555
C68 C67 1_555 1_555
H46 C68 1_555 1_555
C69 C68 1_555 1_555
H47 C69 1_555 1_555
C70 C65 1_555 1_555
H48 C70 1_555 1_555
C71 H49 1_555 1_555
H50 C71 1_555 1_555
C72 C71 1_555 1_555
H51 C72 1_555 1_555
H52 C72 1_555 1_555
H53 C72 1_555 1_555
C73 O7 1_555 1_555
H54 C73 1_555 1_555
H55 C73 1_555 1_555
C74 C73 1_555 1_555
H56 C74 1_555 1_555
H57 C74 1_555 1_555
H58 C74 1_555 1_555
H59 N2 1_555 1_555
H60 N1 1_555 1_555
C6 C7 1_555 1_555
C8 C9 1_555 1_555
C12 C13 1_555 1_555
C16 C17 1_555 1_555
C22 C23 1_555 1_555
C28 C29 1_555 1_555
C34 C35 1_555 1_555
C41 C42 1_555 1_555
C43 C44 1_555 1_555
C47 C48 1_555 1_555
C51 C52 1_555 1_555
C57 C58 1_555 1_555
C63 C64 1_555 1_555
C69 C70 1_555 1_555

#END
