
#######################################################################
#
#                 Cambridge Crystallographic Data Centre
#                                CCDC 
#
#######################################################################
#
# If this CIF has been generated from an entry in the Cambridge 
# Structural Database, then it will include bibliographic, chemical, 
# crystal, experimental, refinement or atomic coordinate data resulting 
# from the CCDC's data processing and validation procedures.
#
#######################################################################

data_VALROR
_chemical_formula_moiety         'C33 H23 N1 O3'
_chemical_name_systematic        
3'-Benzoyl-6,10-diphenyl-5,10-dihydro-8H-spiro[cyclohepta[b]indole-9,2'-oxiran]-8-one
_symmetry_cell_setting           triclinic
_symmetry_space_group_name_H-M   'P -1'
_symmetry_Int_Tables_number      2
_space_group_name_Hall           '-P 1'
loop_
_symmetry_equiv_pos_site_id
_symmetry_equiv_pos_as_xyz
1 x,y,z
2 -x,-y,-z
_cell_length_a                   9.1943(13)
_cell_length_b                   11.9963(17)
_cell_length_c                   12.7403(19)
_cell_angle_alpha                63.084(2)
_cell_angle_beta                 81.883(3)
_cell_angle_gamma                81.254(3)
_cell_volume                     1234.25
_exptl_crystal_colour            yellow
_exptl_crystal_description       prismatic
_cell_formula_units_Z            2
loop_
_atom_site_label
_atom_site_type_symbol
_atom_site_fract_x
_atom_site_fract_y
_atom_site_fract_z
O1 O 0.17202(17) 0.71916(13) 0.28100(16)
O2 O 0.49643(17) 0.72447(12) 0.33556(12)
O3 O 0.2896(2) 0.90811(14) 0.35012(14)
N1 N 0.62631(18) 0.31413(16) 0.42358(16)
C1 C 0.2825(2) 0.64425(17) 0.30474(17)
C2 C 0.2667(2) 0.51228(17) 0.37564(17)
H1 H 0.1703 0.4937 0.4044
C3 C 0.3687(2) 0.41047(16) 0.40759(16)
C4 C 0.5248(2) 0.41564(17) 0.36747(16)
C5 C 0.5974(2) 0.50566(17) 0.27243(17)
C6 C 0.5403(2) 0.63665(17) 0.19044(16)
H2 H 0.6254 0.6858 0.1649
C7 C 0.4305(2) 0.69516(16) 0.25615(16)
C8 C 0.4401(2) 0.82597(17) 0.23193(18)
H3 H 0.5150 0.8693 0.1692
C9 C 0.3135(3) 0.90997(17) 0.25368(19)
C10 C 0.2292(2) 0.99786(18) 0.1526(2)
C11 C 0.2469(3) 0.9889(2) 0.0472(2)
H4 H 0.3132 0.9258 0.0394
C12 C 0.1683(3) 1.0715(3) -0.0462(3)
H5 H 0.1825 1.0651 -0.1171
C13 C 0.0687(4) 1.1636(3) -0.0346(4)
H6 H 0.0146 1.2196 -0.0976
C14 C 0.0489(3) 1.1729(2) 0.0703(4)
H7 H -0.0195 1.2349 0.0781
C15 C 0.1295(3) 1.0913(2) 0.1644(3)
H8 H 0.1169 1.0989 0.2346
C16 C 0.7627(2) 0.33844(18) 0.36644(18)
C17 C 0.8973(2) 0.2652(2) 0.3900(2)
H9 H 0.9058 0.1876 0.4558
C18 C 1.0155(3) 0.3111(2) 0.3134(2)
H10 H 1.1066 0.2633 0.3266
C19 C 1.0049(3) 0.4278(3) 0.2155(3)
H11 H 1.0885 0.4562 0.1648
C20 C 0.8725(2) 0.5017(2) 0.1925(2)
H12 H 0.8658 0.5797 0.1271
C21 C 0.7487(2) 0.45718(18) 0.26947(18)
C22 C 0.3133(2) 0.28522(17) 0.48009(17)
C23 C 0.2043(2) 0.26665(19) 0.57119(18)
H13 H 0.1700 0.3319 0.5915
C24 C 0.1454(2) 0.1531(2) 0.6325(2)
H14 H 0.0716 0.1424 0.6933
C25 C 0.1961(3) 0.0560(2) 0.6036(2)
H15 H 0.1564 -0.0206 0.6448
C26 C 0.3042(3) 0.07142(19) 0.5148(2)
H16 H 0.3385 0.0052 0.4958
C27 C 0.3630(2) 0.18533(18) 0.45259(19)
H17 H 0.4366 0.1953 0.3918
C28 C 0.4801(2) 0.65650(16) 0.07781(16)
C29 C 0.3815(2) 0.58161(19) 0.07569(18)
H18 H 0.3545 0.5121 0.1445
C30 C 0.3232(3) 0.6096(2) -0.0282(2)
H19 H 0.2561 0.5592 -0.0288
C31 C 0.3624(3) 0.7101(2) -0.1301(2)
H20 H 0.3216 0.7287 -0.1996
C32 C 0.4612(4) 0.7831(2) -0.1297(2)
H21 H 0.4893 0.8513 -0.1992
C33 C 0.5199(3) 0.7563(2) -0.0262(2)
H22 H 0.5878 0.8067 -0.0269
H23 H 0.604(2) 0.2515(18) 0.4971(18)
loop_
_geom_bond_atom_site_label_1
_geom_bond_atom_site_label_2
_geom_bond_site_symmetry_1
_geom_bond_site_symmetry_2
O1 C1 1_555 1_555
O2 C7 1_555 1_555
O3 C9 1_555 1_555
N1 C4 1_555 1_555
C1 C2 1_555 1_555
C2 H1 1_555 1_555
C3 C2 1_555 1_555
C4 C3 1_555 1_555
C5 C4 1_555 1_555
C6 C5 1_555 1_555
H2 C6 1_555 1_555
C7 C1 1_555 1_555
C8 O2 1_555 1_555
H3 C8 1_555 1_555
C9 C8 1_555 1_555
C10 C9 1_555 1_555
C11 C10 1_555 1_555
H4 C11 1_555 1_555
C12 C11 1_555 1_555
H5 C12 1_555 1_555
C13 C12 1_555 1_555
H6 C13 1_555 1_555
C14 C13 1_555 1_555
H7 C14 1_555 1_555
C15 C10 1_555 1_555
H8 C15 1_555 1_555
C16 N1 1_555 1_555
C17 C16 1_555 1_555
H9 C17 1_555 1_555
C18 C17 1_555 1_555
H10 C18 1_555 1_555
C19 C18 1_555 1_555
H11 C19 1_555 1_555
C20 C19 1_555 1_555
H12 C20 1_555 1_555
C21 C5 1_555 1_555
C22 C3 1_555 1_555
C23 C22 1_555 1_555
H13 C23 1_555 1_555
C24 C23 1_555 1_555
H14 C24 1_555 1_555
C25 C24 1_555 1_555
H15 C25 1_555 1_555
C26 C25 1_555 1_555
H16 C26 1_555 1_555
C27 C22 1_555 1_555
H17 C27 1_555 1_555
C28 C6 1_555 1_555
C29 C28 1_555 1_555
H18 C29 1_555 1_555
C30 C29 1_555 1_555
H19 C30 1_555 1_555
C31 C30 1_555 1_555
H20 C31 1_555 1_555
C32 C31 1_555 1_555
H21 C32 1_555 1_555
C33 C28 1_555 1_555
H22 C33 1_555 1_555
H23 N1 1_555 1_555
C6 C7 1_555 1_555
C7 C8 1_555 1_555
C14 C15 1_555 1_555
C16 C21 1_555 1_555
C20 C21 1_555 1_555
C26 C27 1_555 1_555
C32 C33 1_555 1_555

#END
