
#######################################################################
#
#                 Cambridge Crystallographic Data Centre
#                                CCDC 
#
#######################################################################
#
# If this CIF has been generated from an entry in the Cambridge 
# Structural Database, then it will include bibliographic, chemical, 
# crystal, experimental, refinement or atomic coordinate data resulting 
# from the CCDC's data processing and validation procedures.
#
#######################################################################

data_VALSAF
_chemical_formula_moiety         'C15 H18 N2 O2'
_chemical_name_systematic        
(3E,4E)-3-benzylidene-1-t-butyl-4-(methoxyimino)azetidin-2-one
_symmetry_cell_setting           monoclinic
_symmetry_space_group_name_H-M   'P 21/c'
_symmetry_Int_Tables_number      14
_space_group_name_Hall           '-P 2ybc'
loop_
_symmetry_equiv_pos_site_id
_symmetry_equiv_pos_as_xyz
1 x,y,z
2 -x,1/2+y,1/2-z
3 -x,-y,-z
4 x,1/2-y,1/2+z
_cell_length_a                   10.6579(19)
_cell_length_b                   18.645(3)
_cell_length_c                   7.3052(12)
_cell_angle_alpha                90
_cell_angle_beta                 93.729(5)
_cell_angle_gamma                90
_cell_volume                     1448.59
_exptl_crystal_colour            colorless
_exptl_crystal_description       prismatic
_cell_formula_units_Z            4
loop_
_atom_site_label
_atom_site_type_symbol
_atom_site_fract_x
_atom_site_fract_y
_atom_site_fract_z
N1 N 0.2768(2) 0.17564(10) 0.4420(3)
N2 N 0.0772(2) 0.12334(11) 0.4832(3)
O1 O 0.3755(2) 0.28967(10) 0.4403(3)
O2 O -0.04729(18) 0.14438(9) 0.5105(3)
C1 C 0.2870(3) 0.24979(14) 0.4456(4)
C2 C 0.1449(3) 0.17812(13) 0.4621(3)
C3 C 0.1479(2) 0.25761(13) 0.4592(3)
C4 C 0.0796(3) 0.31683(14) 0.4640(3)
H1 H 0.1274 0.3586 0.4675
C5 C -0.0552(3) 0.32985(14) 0.4650(3)
C6 C -0.1441(3) 0.28382(16) 0.3813(4)
H2 H -0.1183 0.2422 0.3243
C7 C -0.2704(4) 0.2997(2) 0.3825(6)
H3 H -0.3292 0.2687 0.3255
C8 C -0.3099(4) 0.3598(3) 0.4660(6)
H4 H -0.3955 0.3691 0.4681
C9 C -0.2254(4) 0.4066(2) 0.5464(5)
H5 H -0.2529 0.4481 0.6019
C10 C -0.0966(3) 0.39182(17) 0.5450(4)
H6 H -0.0386 0.4240 0.5986
C11 C -0.1187(3) 0.08203(15) 0.5429(4)
H7 H -0.1219 0.0520 0.4360
H8 H -0.2025 0.0956 0.5694
H9 H -0.0800 0.0562 0.6454
C12 C 0.3641(3) 0.11467(14) 0.4405(4)
C13 C 0.4951(3) 0.14378(17) 0.4222(6)
H10 H 0.4965 0.1716 0.3117
H11 H 0.5533 0.1046 0.4172
H12 H 0.5187 0.1736 0.5259
C14 C 0.3248(3) 0.06756(16) 0.2768(4)
H13 H 0.2387 0.0534 0.2837
H14 H 0.3772 0.0257 0.2779
H15 H 0.3338 0.0939 0.1655
C15 C 0.3557(3) 0.07297(16) 0.6191(4)
H16 H 0.3799 0.1035 0.7211
H17 H 0.4110 0.0323 0.6193
H18 H 0.2709 0.0568 0.6292
loop_
_geom_bond_atom_site_label_1
_geom_bond_atom_site_label_2
_geom_bond_site_symmetry_1
_geom_bond_site_symmetry_2
N1 C1 1_555 1_555
N2 O2 1_555 1_555
O1 C1 1_555 1_555
O2 C11 1_555 1_555
C1 C3 1_555 1_555
C2 N1 1_555 1_555
C3 C2 1_555 1_555
C4 C3 1_555 1_555
H1 C4 1_555 1_555
C5 C4 1_555 1_555
C6 C5 1_555 1_555
H2 C6 1_555 1_555
C7 C6 1_555 1_555
H3 C7 1_555 1_555
C8 C7 1_555 1_555
H4 C8 1_555 1_555
C9 C8 1_555 1_555
H5 C9 1_555 1_555
C10 C5 1_555 1_555
H6 C10 1_555 1_555
C11 H7 1_555 1_555
H8 C11 1_555 1_555
H9 C11 1_555 1_555
C12 N1 1_555 1_555
C13 C12 1_555 1_555
H10 C13 1_555 1_555
H11 C13 1_555 1_555
H12 C13 1_555 1_555
C14 C12 1_555 1_555
H13 C14 1_555 1_555
H14 C14 1_555 1_555
H15 C14 1_555 1_555
C15 C12 1_555 1_555
H16 C15 1_555 1_555
H17 C15 1_555 1_555
H18 C15 1_555 1_555
N2 C2 1_555 1_555
C9 C10 1_555 1_555

#END
