
#######################################################################
#
#                 Cambridge Crystallographic Data Centre
#                                CCDC 
#
#######################################################################
#
# If this CIF has been generated from an entry in the Cambridge 
# Structural Database, then it will include bibliographic, chemical, 
# crystal, experimental, refinement or atomic coordinate data resulting 
# from the CCDC's data processing and validation procedures.
#
#######################################################################

data_VALSIN
_chemical_formula_moiety         'C15 H18 N2 O2'
_chemical_name_systematic        
'methyl 2-(t-butylamino)quinoline-3-carboxylate'
_symmetry_cell_setting           monoclinic
_symmetry_space_group_name_H-M   'P 21/m'
_symmetry_Int_Tables_number      11
_space_group_name_Hall           '-P 2yb'
loop_
_symmetry_equiv_pos_site_id
_symmetry_equiv_pos_as_xyz
1 x,y,z
2 -x,1/2+y,-z
3 -x,-y,-z
4 x,1/2-y,z
_cell_length_a                   10.3100(18)
_cell_length_b                   7.0317(13)
_cell_length_c                   10.730(2)
_cell_angle_alpha                90
_cell_angle_beta                 117.339(3)
_cell_angle_gamma                90
_cell_volume                     691.004
_exptl_crystal_colour            colorless
_exptl_crystal_description       prismatic
_cell_formula_units_Z            2
loop_
_atom_site_label
_atom_site_type_symbol
_atom_site_fract_x
_atom_site_fract_y
_atom_site_fract_z
O1 O -0.01283(16) 0.7500 0.20078(15)
O2 O -0.21734(14) 0.7500 0.00016(15)
N1 N 0.22566(17) 0.7500 -0.03719(17)
N2 N 0.23930(18) 0.7500 0.18396(17)
H1 H 0.1903 0.7500 0.2331
C1 C 0.1434(2) 0.7500 -0.1791(2)
C2 C 0.2143(3) 0.7500 -0.2648(2)
H2 H 0.3158 0.7500 -0.2235
C3 C 0.1360(3) 0.7500 -0.4067(3)
H3 H 0.1848 0.7500 -0.4612
C4 C -0.0150(3) 0.7500 -0.4720(2)
H4 H -0.0668 0.7500 -0.5694
C5 C -0.0874(3) 0.7500 -0.3931(2)
H5 H -0.1889 0.7500 -0.4371
C6 C -0.0104(2) 0.7500 -0.2459(2)
C7 C -0.0782(2) 0.7500 -0.1578(2)
H6 H -0.1796 0.7500 -0.1979
C8 C 0.0010(2) 0.7500 -0.01577(19)
C9 C 0.1597(2) 0.7500 0.0434(2)
C10 C -0.0726(2) 0.7500 0.0746(2)
C11 C -0.2980(2) 0.7500 0.0798(2)
C12 C 0.3992(2) 0.7500 0.2683(2)
C13 C 0.4247(3) 0.7500 0.4197(2)
H7 H 0.5273 0.7500 0.4815
C14 C 0.46600(16) 0.9276(2) 0.24043(17)
H8 H 0.4485 0.9279 0.1445
H9 H 0.5693 0.9286 0.3013
H10 H 0.4225 1.0384 0.2579
C14C C 0.46600(16) 0.5724(2) 0.24043(17)
H8C H 0.4485 0.5721 0.1445
H9C H 0.5693 0.5714 0.3013
H10C H 0.4225 0.4616 0.2579
H11? H -0.2544 0.6613 0.1560
H12? H -0.3973 0.7135 0.0201
H13? H -0.2961 0.8751 0.1164
H14? H 0.3732 0.6454 0.4340
H15? H 0.3898 0.8673 0.4391
loop_
_geom_bond_atom_site_label_1
_geom_bond_atom_site_label_2
_geom_bond_site_symmetry_1
_geom_bond_site_symmetry_2
O1 C10 1_555 1_555
O2 C10 1_555 1_555
N1 C1 1_555 1_555
N2 H1 1_555 1_555
C1 C2 1_555 1_555
C2 H2 1_555 1_555
C3 C2 1_555 1_555
H3 C3 1_555 1_555
C4 C3 1_555 1_555
H4 C4 1_555 1_555
C5 C4 1_555 1_555
H5 C5 1_555 1_555
C6 C1 1_555 1_555
C7 C6 1_555 1_555
H6 C7 1_555 1_555
C8 C7 1_555 1_555
C9 N1 1_555 1_555
C10 C8 1_555 1_555
C11 O2 1_555 1_555
C12 N2 1_555 1_555
C13 C12 1_555 1_555
H7 C13 1_555 1_555
C14 C12 1_555 1_555
H8 C14 1_555 1_555
H9 C14 1_555 1_555
H10 C14 1_555 1_555
C14C C12 1_555 1_555
H8C C14C 1_555 1_555
H9C C14C 1_555 1_555
H10C C14C 1_555 1_555
N2 C9 1_555 1_555
C5 C6 1_555 1_555
C8 C9 1_555 1_555

#END
