
#######################################################################
#
#                 Cambridge Crystallographic Data Centre
#                                CCDC 
#
#######################################################################
#
# If this CIF has been generated from an entry in the Cambridge 
# Structural Database, then it will include bibliographic, chemical, 
# crystal, experimental, refinement or atomic coordinate data resulting 
# from the CCDC's data processing and validation procedures.
#
#######################################################################

data_VALZOX
_chemical_formula_moiety         'C39 H51 N1 Si2'
_chemical_name_systematic        
5,6,11,12-Tetrahydro-5-(isopropylamino)-2,4,8,10-tetramethyl-5,11-dimesityldibenzo(b,f)(1,5)disilocine
_symmetry_cell_setting           orthorhombic
_symmetry_space_group_name_H-M   'P c c n'
_symmetry_Int_Tables_number      56
_space_group_name_Hall           '-P 2ab 2ac'
loop_
_symmetry_equiv_pos_site_id
_symmetry_equiv_pos_as_xyz
1 x,y,z
2 1/2-x,1/2-y,z
3 1/2+x,-y,1/2-z
4 -x,1/2+y,1/2-z
5 -x,-y,-z
6 1/2+x,1/2+y,-z
7 1/2-x,y,1/2+z
8 x,1/2-y,1/2+z
_cell_length_a                   27.692(6)
_cell_length_b                   16.096(5)
_cell_length_c                   16.102(4)
_cell_angle_alpha                90
_cell_angle_beta                 90
_cell_angle_gamma                90
_cell_volume                     7177.15
_exptl_crystal_colour            colorless
_chemical_melting_point          222-223deg.C
_cell_formula_units_Z            8
loop_
_atom_site_label
_atom_site_type_symbol
_atom_site_fract_x
_atom_site_fract_y
_atom_site_fract_z
Si1 Si 0.6637(1) 0.0180(1) 0.6951(1)
Si2 Si 0.6121(1) -0.0271(1) 0.4622(1)
C1 C 0.6383(2) 0.1115(3) 0.6397(4)
C2 C 0.6399(2) 0.1186(3) 0.5520(4)
C3 C 0.6592(2) 0.0507(3) 0.4962(3)
C4 C 0.5895(2) -0.1011(3) 0.5428(4)
C5 C 0.6136(2) -0.1216(3) 0.6169(4)
C6 C 0.6628(2) -0.0859(3) 0.6396(4)
N1 N 0.7233(2) 0.0415(3) 0.7031(4)
C7 C 0.7482(2) 0.1216(4) 0.6957(5)
C8 C 0.7781(2) 0.1406(4) 0.7722(5)
C9 C 0.7784(3) 0.1238(5) 0.6177(5)
C10 C 0.6214(2) 0.1817(4) 0.6843(4)
C11 C 0.6054(2) 0.2525(4) 0.6424(4)
C12 C 0.6060(2) 0.2570(4) 0.5569(4)
C13 C 0.6239(2) 0.1908(4) 0.5123(4)
C14 C 0.6219(2) 0.1860(4) 0.7786(4)
C15 C 0.5902(2) 0.3368(4) 0.5137(4)
C16 C 0.5432(2) -0.1371(4) 0.5294(4)
C17 C 0.5230(2) -0.1885(4) 0.5890(4)
C18 C 0.5469(3) -0.2087(4) 0.6617(5)
C19 C 0.5927(2) -0.1755(3) 0.6748(4)
C20 C 0.5148(2) -0.1235(4) 0.4508(4)
C21 C 0.5250(3) -0.2656(5) 0.7272(4)
C22 C 0.6297(2) -0.0090(3) 0.7942(4)
C23 C 0.6533(2) -0.0384(4) 0.8660(4)
C24 C 0.6269(3) -0.0649(4) 0.9348(4)
C25 C 0.5779(3) -0.0654(5) 0.9359(5)
C26 C 0.5542(3) -0.0383(4) 0.8659(4)
C27 C 0.5786(2) -0.0112(3) 0.7960(4)
C28 C 0.7081(3) -0.0442(5) 0.8735(4)
C29 C 0.5510(3) -0.0957(5) 1.0116(5)
C30 C 0.5473(2) 0.0155(4) 0.7237(3)
C31 C 0.6344(2) -0.0759(4) 0.3622(4)
C32 C 0.6237(2) -0.0381(4) 0.2862(4)
C33 C 0.6430(2) -0.0695(4) 0.2122(4)
C34 C 0.6729(2) -0.1395(4) 0.2113(4)
C35 C 0.6819(2) -0.1780(4) 0.2861(4)
C36 C 0.6635(2) -0.1481(4) 0.3603(4)
C37 C 0.5933(2) 0.0385(3) 0.2784(4)
C38 C 0.6930(3) -0.1723(4) 0.1309(4)
C39 C 0.6762(3) -0.1955(4) 0.4381(4)
H1 H 0.5697(16) 0.0233(29) 0.4419(28)
H2 H 0.6725 0.0764 0.4474
H3 H 0.6842 0.0215 0.5253
H4 H 0.6785 -0.1255 0.6751
H5 H 0.6808 -0.0798 0.5891
H6 H 0.7443(17) 0.0039(26) 0.7090(30)
H7 H 0.7234 0.1631 0.6918
H8 H 0.7928 0.1942 0.7658
H9 H 0.8028 0.0991 0.7782
H10 H 0.7580 0.1407 0.8208
H11 H 0.7934 0.1773 0.6131
H12 H 0.7583 0.1142 0.5701
H13 H 0.8029 0.0816 0.6205
H14 H 0.5936 0.2988 0.6739
H15 H 0.6253 0.1942 0.4529
H16 H 0.6336 0.1345 0.8009
H17 H 0.5897 0.1961 0.7984
H18 H 0.6427 0.2305 0.7959
H19 H 0.5929 0.3299 0.4547
H20 H 0.6104 0.3821 0.5311
H21 H 0.5573 0.3485 0.5280
H22 H 0.4912 -0.2106 0.5797
H23 H 0.6101 -0.1898 0.7244
H24 H 0.5325 -0.0872 0.4146
H25 H 0.4844 -0.0985 0.4644
H26 H 0.5094 -0.1757 0.4234
H27 H 0.4936 -0.2835 0.7092
H28 H 0.5220 -0.2359 0.7786
H29 H 0.5453 -0.3132 0.7350
H30 H 0.6438 -0.0837 0.9834
H31 H 0.5195 -0.0386 0.8654
H32 H 0.7224 -0.0245 0.8229
H33 H 0.7172 -0.1010 0.8825
H34 H 0.7191 -0.0108 0.9191
H35 H 0.5168 -0.0917 1.0021
H36 H 0.5596 -0.0622 1.0586
H37 H 0.5594 -0.1526 1.0223
H38 H 0.5676 0.0331 0.6788
H39 H 0.5270 0.0607 0.7406
H40 H 0.5277 -0.0303 0.7058
H41 H 0.6353 -0.0428 0.1606
H42 H 0.7016 -0.2270 0.2869
H43 H 0.5823 0.0545 0.3326
H44 H 0.5660 0.0269 0.2435
H45 H 0.6119 0.0829 0.2546
H46 H 0.7128 -0.2202 0.1417
H47 H 0.7122 -0.1299 0.1051
H48 H 0.6670 -0.1876 0.0945
H49 H 0.6613 -0.1691 0.4851
H50 H 0.7106 -0.1954 0.4450
H51 H 0.6648 -0.2517 0.4339
loop_
_geom_bond_atom_site_label_1
_geom_bond_atom_site_label_2
_geom_bond_site_symmetry_1
_geom_bond_site_symmetry_2
Si1 C1 1_555 1_555
Si2 C3 1_555 1_555
C1 C2 1_555 1_555
C2 C3 1_555 1_555
C3 H2 1_555 1_555
C4 Si2 1_555 1_555
C5 C4 1_555 1_555
C6 Si1 1_555 1_555
N1 Si1 1_555 1_555
C7 N1 1_555 1_555
C8 C7 1_555 1_555
C9 C7 1_555 1_555
C10 C1 1_555 1_555
C11 C10 1_555 1_555
C12 C11 1_555 1_555
C13 C2 1_555 1_555
C14 C10 1_555 1_555
C15 C12 1_555 1_555
C16 C4 1_555 1_555
C17 C16 1_555 1_555
C18 C17 1_555 1_555
C19 C5 1_555 1_555
C20 C16 1_555 1_555
C21 C18 1_555 1_555
C22 Si1 1_555 1_555
C23 C22 1_555 1_555
C24 C23 1_555 1_555
C25 C24 1_555 1_555
C26 C25 1_555 1_555
C27 C22 1_555 1_555
C28 C23 1_555 1_555
C29 C25 1_555 1_555
C30 C27 1_555 1_555
C31 Si2 1_555 1_555
C32 C31 1_555 1_555
C33 C32 1_555 1_555
C34 C33 1_555 1_555
C35 C34 1_555 1_555
C36 C31 1_555 1_555
C37 C32 1_555 1_555
C38 C34 1_555 1_555
C39 C36 1_555 1_555
H1 Si2 1_555 1_555
H3 C3 1_555 1_555
H4 C6 1_555 1_555
H5 C6 1_555 1_555
H6 N1 1_555 1_555
H7 C7 1_555 1_555
H8 C8 1_555 1_555
H9 C8 1_555 1_555
H10 C8 1_555 1_555
H11 C9 1_555 1_555
H12 C9 1_555 1_555
H13 C9 1_555 1_555
H14 C11 1_555 1_555
H15 C13 1_555 1_555
H16 C14 1_555 1_555
H17 C14 1_555 1_555
H18 C14 1_555 1_555
H19 C15 1_555 1_555
H20 C15 1_555 1_555
H21 C15 1_555 1_555
H22 C17 1_555 1_555
H23 C19 1_555 1_555
H24 C20 1_555 1_555
H25 C20 1_555 1_555
H26 C20 1_555 1_555
H27 C21 1_555 1_555
H28 C21 1_555 1_555
H29 C21 1_555 1_555
H30 C24 1_555 1_555
H31 C26 1_555 1_555
H32 C28 1_555 1_555
H33 C28 1_555 1_555
H34 C28 1_555 1_555
H35 C29 1_555 1_555
H36 C29 1_555 1_555
H37 C29 1_555 1_555
H38 C30 1_555 1_555
H39 C30 1_555 1_555
H40 C30 1_555 1_555
H41 C33 1_555 1_555
H42 C35 1_555 1_555
H43 C37 1_555 1_555
H44 C37 1_555 1_555
H45 C37 1_555 1_555
H46 C38 1_555 1_555
H47 C38 1_555 1_555
H48 C38 1_555 1_555
H49 C39 1_555 1_555
H50 C39 1_555 1_555
H51 C39 1_555 1_555
C5 C6 1_555 1_555
C12 C13 1_555 1_555
C18 C19 1_555 1_555
C26 C27 1_555 1_555
C35 C36 1_555 1_555

#END
