
#######################################################################
#
#                 Cambridge Crystallographic Data Centre
#                                CCDC 
#
#######################################################################
#
# If this CIF has been generated from an entry in the Cambridge 
# Structural Database, then it will include bibliographic, chemical, 
# crystal, experimental, refinement or atomic coordinate data resulting 
# from the CCDC's data processing and validation procedures.
#
#######################################################################

data_VAMBIX
_chemical_name_common            'sulfamethazine imidine tautomer saccharin'
_chemical_formula_moiety         'C12 H14 N4 O2 S1,C7 H5 N1 O3 S1'
_chemical_name_systematic        
'4-amino-N-(4,6-dimethylpyrimidin-2(1H)-ylidene)benzenesulfonamide 1,2-benzothiazol-3(2H)-one 1,1-dioxide'
_chemical_properties_biological  'Sulfamethazine is an antibacterial drug.'
_symmetry_cell_setting           monoclinic
_symmetry_space_group_name_H-M   'P 21/n'
_symmetry_Int_Tables_number      14
_space_group_name_Hall           '-P 2yn'
loop_
_symmetry_equiv_pos_site_id
_symmetry_equiv_pos_as_xyz
1 x,y,z
2 1/2-x,1/2+y,1/2-z
3 -x,-y,-z
4 1/2+x,1/2-y,1/2+z
_cell_length_a                   8.0729(3)
_cell_length_b                   17.6015(7)
_cell_length_c                   14.4311(6)
_cell_angle_alpha                90
_cell_angle_beta                 104.488(4)
_cell_angle_gamma                90
_cell_volume                     1985.38
_exptl_crystal_colour            colorless
_exptl_crystal_description       block
_cell_formula_units_Z            4
loop_
_atom_site_label
_atom_site_type_symbol
_atom_site_fract_x
_atom_site_fract_y
_atom_site_fract_z
S1 S 0.50176(9) 0.56061(4) 0.79808(5)
O1 O 0.4184(3) 0.63335(14) 0.77609(18)
O2 O 0.4375(3) 0.51285(14) 0.86257(16)
N1 N 1.2385(4) 0.60504(17) 0.9882(2)
H1 H 1.272(5) 0.590(2) 1.051(3)
H2 H 1.312(5) 0.589(2) 0.956(3)
N2 N 0.4781(3) 0.52231(13) 0.69399(16)
N3 N 0.6393(3) 0.40982(13) 0.74675(16)
N4 N 0.4634(3) 0.42392(13) 0.59078(16)
H3 H 0.384(4) 0.447(2) 0.553(2)
C1 C 1.0662(4) 0.59648(16) 0.9435(2)
C2 C 0.9437(4) 0.58877(19) 0.9960(2)
H4 H 0.9773 0.5907 1.0625
C3 C 0.7731(4) 0.57836(19) 0.9506(2)
H5 H 0.6928 0.5734 0.9864
C4 C 0.7216(4) 0.57531(15) 0.8510(2)
C5 C 0.8394(4) 0.58507(17) 0.7976(2)
H6 H 0.8041 0.5842 0.7311
C6 C 1.0111(4) 0.59628(16) 0.8427(2)
H7 H 1.0899 0.6037 0.8063
C7 C 0.5302(3) 0.45152(15) 0.68129(18)
C8 C 0.6820(4) 0.34125(15) 0.7200(2)
C9 C 0.6192(4) 0.31222(16) 0.6275(2)
H8 H 0.6547 0.2650 0.6109
C10 C 0.5049(3) 0.35474(16) 0.56240(19)
C11 C 0.7989(4) 0.29388(17) 0.7933(2)
H9 H 0.8960 0.3236 0.8254
H10 H 0.8368 0.2511 0.7629
H11 H 0.7394 0.2763 0.8391
C12 C 0.4203(4) 0.33069(18) 0.4630(2)
H12 H 0.2996 0.3253 0.4565
H13 H 0.4670 0.2829 0.4497
H14 H 0.4398 0.3683 0.4188
S2 S 1.10322(9) 0.68287(4) 0.56077(5)
O3 O 1.2230(3) 0.74314(12) 0.56637(16)
O4 O 1.0049(3) 0.68126(14) 0.63046(14)
O5 O 1.2013(3) 0.49750(12) 0.46003(15)
N5 N 1.1994(3) 0.59910(14) 0.55834(17)
H15 H 1.284(5) 0.579(2) 0.602(3)
C13 C 0.9744(4) 0.67130(15) 0.44345(19)
C14 C 0.8575(4) 0.72230(16) 0.3918(2)
H16 H 0.8374 0.7690 0.4172
C15 C 0.7705(4) 0.70038(18) 0.2993(2)
H17 H 0.6907 0.7331 0.2619
C16 C 0.8016(4) 0.63057(19) 0.2627(2)
H18 H 0.7412 0.6171 0.2012
C17 C 0.9205(4) 0.58034(17) 0.3155(2)
H19 H 0.9410 0.5336 0.2903
C18 C 1.0083(4) 0.60192(16) 0.40734(19)
C19 C 1.1438(4) 0.55955(16) 0.4753(2)
loop_
_geom_bond_atom_site_label_1
_geom_bond_atom_site_label_2
_geom_bond_site_symmetry_1
_geom_bond_site_symmetry_2
S1 O1 1_555 1_555
O2 S1 1_555 1_555
N1 H1 1_555 1_555
H2 N1 1_555 1_555
N2 S1 1_555 1_555
N3 C7 1_555 1_555
N4 H3 1_555 1_555
C1 N1 1_555 1_555
C2 C1 1_555 1_555
H4 C2 1_555 1_555
C3 C2 1_555 1_555
H5 C3 1_555 1_555
C4 S1 1_555 1_555
C5 C4 1_555 1_555
H6 C5 1_555 1_555
C6 C1 1_555 1_555
H7 C6 1_555 1_555
C7 N2 1_555 1_555
C8 N3 1_555 1_555
C9 C8 1_555 1_555
H8 C9 1_555 1_555
C10 N4 1_555 1_555
C11 C8 1_555 1_555
H9 C11 1_555 1_555
H10 C11 1_555 1_555
H11 C11 1_555 1_555
C12 C10 1_555 1_555
H12 C12 1_555 1_555
H13 C12 1_555 1_555
H14 C12 1_555 1_555
S2 O3 1_555 1_555
O4 S2 1_555 1_555
O5 C19 1_555 1_555
N5 S2 1_555 1_555
H15 N5 1_555 1_555
C13 S2 1_555 1_555
C14 C13 1_555 1_555
H16 C14 1_555 1_555
C15 C14 1_555 1_555
H17 C15 1_555 1_555
C16 C15 1_555 1_555
H18 C16 1_555 1_555
C17 C16 1_555 1_555
H19 C17 1_555 1_555
C18 C13 1_555 1_555
C19 N5 1_555 1_555
N4 C7 1_555 1_555
C3 C4 1_555 1_555
C5 C6 1_555 1_555
C9 C10 1_555 1_555
C17 C18 1_555 1_555
C18 C19 1_555 1_555

#END
