
#######################################################################
#
#                 Cambridge Crystallographic Data Centre
#                                CCDC 
#
#######################################################################
#
# If this CIF has been generated from an entry in the Cambridge 
# Structural Database, then it will include bibliographic, chemical, 
# crystal, experimental, refinement or atomic coordinate data resulting 
# from the CCDC's data processing and validation procedures.
#
#######################################################################

data_VAMKUS
_chemical_formula_moiety         'C11 H8 F3 N3 O1'
_chemical_name_systematic        
2-(Trifluoromethyl)-3a,4-dihydropyrazolo[5,1-b]quinazolin-9(3H)-one
_symmetry_cell_setting           monoclinic
_symmetry_space_group_name_H-M   'P 21/c'
_symmetry_Int_Tables_number      14
_space_group_name_Hall           '-P 2ybc'
loop_
_symmetry_equiv_pos_site_id
_symmetry_equiv_pos_as_xyz
1 x,y,z
2 -x,1/2+y,1/2-z
3 -x,-y,-z
4 x,1/2-y,1/2+z
_cell_length_a                   5.4704(9)
_cell_length_b                   23.251(4)
_cell_length_c                   8.7125(14)
_cell_angle_alpha                90
_cell_angle_beta                 93.890(3)
_cell_angle_gamma                90
_cell_volume                     1105.61
_cell_formula_units_Z            4
loop_
_atom_site_label
_atom_site_type_symbol
_atom_site_fract_x
_atom_site_fract_y
_atom_site_fract_z
F1 F 0.793(4) 0.0423(5) 0.0324(12)
F2 F 1.022(3) 0.0568(6) 0.238(3)
F3 F 0.655(3) 0.0357(6) 0.2402(18)
O1 O 1.0546(4) 0.27460(10) 0.3154(3)
N1 N 0.8763(5) 0.16603(11) 0.2239(3)
N2 N 0.7636(4) 0.21791(10) 0.1950(3)
N3 N 0.4469(5) 0.25435(12) 0.0286(3)
H1 H 0.3753 0.2471 -0.0602
C1 C 0.8104(8) 0.06627(17) 0.1713(6)
C2 C 0.7343(6) 0.12750(14) 0.1635(4)
C3 C 0.8607(5) 0.26955(13) 0.2381(3)
C4 C 0.7148(5) 0.31830(13) 0.1765(3)
C5 C 0.7876(6) 0.37401(15) 0.2133(4)
H2 H 0.9270 0.3798 0.2786
C6 C 0.6602(7) 0.42040(16) 0.1563(5)
H3 H 0.7102 0.4575 0.1830
C7 C 0.4551(7) 0.41139(16) 0.0578(5)
H4 H 0.3649 0.4428 0.0198
C8 C 0.3822(7) 0.35729(16) 0.0152(4)
H5 H 0.2465 0.3523 -0.0538
C9 C 0.5102(5) 0.30932(13) 0.0746(3)
C10 C 0.5075(6) 0.21074(14) 0.1371(4)
H6 H 0.4020 0.2144 0.2231
C11 C 0.5036(6) 0.14895(15) 0.0828(4)
H7 H 0.3613 0.1285 0.1150
H8 H 0.5084 0.1463 -0.0281
F4? F 0.940(4) 0.0542(5) 0.058(2)
F5? F 0.959(5) 0.0557(9) 0.288(3)
F6? F 0.641(2) 0.0321(6) 0.181(4)
loop_
_geom_bond_atom_site_label_1
_geom_bond_atom_site_label_2
_geom_bond_site_symmetry_1
_geom_bond_site_symmetry_2
F1 C1 1_555 1_555
F2 C1 1_555 1_555
F3 C1 1_555 1_555
O1 C3 1_555 1_555
N1 N2 1_555 1_555
N2 C3 1_555 1_555
N3 H1 1_555 1_555
C1 C2 1_555 1_555
C2 N1 1_555 1_555
C3 C4 1_555 1_555
C4 C5 1_555 1_555
C5 H2 1_555 1_555
C6 C5 1_555 1_555
H3 C6 1_555 1_555
C7 C6 1_555 1_555
H4 C7 1_555 1_555
C8 C7 1_555 1_555
H5 C8 1_555 1_555
C9 N3 1_555 1_555
C10 N2 1_555 1_555
H6 C10 1_555 1_555
C11 C2 1_555 1_555
H7 C11 1_555 1_555
H8 C11 1_555 1_555
N3 C10 1_555 1_555
C4 C9 1_555 1_555
C8 C9 1_555 1_555
C10 C11 1_555 1_555

#END
