
#######################################################################
#
#                 Cambridge Crystallographic Data Centre
#                                CCDC 
#
#######################################################################
#
# If this CIF has been generated from an entry in the Cambridge 
# Structural Database, then it will include bibliographic, chemical, 
# crystal, experimental, refinement or atomic coordinate data resulting 
# from the CCDC's data processing and validation procedures.
#
#######################################################################

data_VAMMED
_chemical_formula_moiety         'C29 H38 B1 N1 O3,C2 H6 O1 S1'
_chemical_name_systematic        
"(1,1'-bi(cyclohexyl)-1,1'-diolato)-(diphenyl(pyrrolidin-2-yl)methanolato)-boron dimethyl sulfoxide solvate"
_symmetry_cell_setting           monoclinic
_symmetry_space_group_name_H-M   'P 21'
_symmetry_Int_Tables_number      4
_space_group_name_Hall           'P 2yb'
loop_
_symmetry_equiv_pos_site_id
_symmetry_equiv_pos_as_xyz
1 x,y,z
2 -x,1/2+y,-z
_cell_length_a                   8.6764(4)
_cell_length_b                   18.0726(8)
_cell_length_c                   9.2445(4)
_cell_angle_alpha                90
_cell_angle_beta                 95.5980(10)
_cell_angle_gamma                90
_cell_volume                     1442.67
_exptl_crystal_colour            colorless
_exptl_crystal_description       cube
_cell_formula_units_Z            2
loop_
_atom_site_label
_atom_site_type_symbol
_atom_site_fract_x
_atom_site_fract_y
_atom_site_fract_z
S1 S 0.07659(6) 0.13066(3) 0.87200(6)
O1 O 0.08939(19) 0.06360(7) 0.77625(18)
C1 C 0.0847(3) 0.20796(11) 0.7519(3)
H1 H 0.1884 0.2112 0.7188
H2 H 0.0622 0.2535 0.8033
H3 H 0.0080 0.2014 0.6678
C2 C -0.1224(2) 0.13609(13) 0.8998(2)
H4 H -0.1853 0.1318 0.8062
H5 H -0.1433 0.1837 0.9448
H6 H -0.1487 0.0957 0.9639
O2 O -0.13384(12) -0.12755(7) 1.01177(12)
O3 O 0.11713(12) -0.13637(6) 1.14102(11)
O4 O 0.01547(13) -0.01764(6) 1.11115(12)
N1 N 0.06854(15) -0.07986(7) 0.88154(14)
H7 H 0.0534 -0.0307 0.8539
C3 C 0.22883(19) -0.10227(10) 0.85384(19)
H8 H 0.3035 -0.0906 0.9386
H9 H 0.2614 -0.0765 0.7673
C4 C 0.2192(2) -0.18508(11) 0.8285(2)
H10 H 0.2535 -0.2122 0.9190
H11 H 0.2854 -0.2000 0.7522
C5 C 0.0485(2) -0.20161(10) 0.7804(2)
H12 H 0.0068 -0.2377 0.8470
H13 H 0.0372 -0.2224 0.6808
C6 C -0.03824(17) -0.12737(9) 0.78458(16)
H14 H -0.0577 -0.1054 0.6852
C7 C -0.18794(17) -0.12867(9) 0.86288(16)
C8 C -0.28507(18) -0.19880(9) 0.83152(19)
C9 C -0.3095(2) -0.22953(10) 0.6926(2)
H15 H -0.2648 -0.2071 0.6136
C10 C -0.3995(2) -0.29312(11) 0.6697(3)
H16 H -0.4153 -0.3140 0.5751
C11 C -0.4656(2) -0.32591(10) 0.7829(3)
H17 H -0.5255 -0.3697 0.7668
C12 C -0.4446(2) -0.29510(10) 0.9195(3)
H18 H -0.4922 -0.3170 0.9973
C13 C -0.3542(2) -0.23201(9) 0.9443(2)
H19 H -0.3396 -0.2114 1.0392
C14 C -0.29438(18) -0.06173(9) 0.82336(18)
C15 C -0.3286(2) -0.03720(10) 0.6809(2)
H20 H -0.2797 -0.0598 0.6046
C16 C -0.4341(2) 0.02018(12) 0.6492(2)
H21 H -0.4554 0.0369 0.5519
C17 C -0.5075(2) 0.05280(10) 0.7588(2)
H22 H -0.5800 0.0916 0.7371
C18 C -0.4748(2) 0.02874(10) 0.8999(2)
H23 H -0.5253 0.0510 0.9755
C19 C -0.3686(2) -0.02793(10) 0.93240(19)
H24 H -0.3465 -0.0437 1.0303
C20 C 0.17678(19) -0.09314(9) 1.26569(17)
C21 C 0.1840(2) -0.14295(9) 1.40011(18)
H25 H 0.0794 -0.1629 1.4106
H26 H 0.2162 -0.1131 1.4876
C22 C 0.2977(2) -0.20740(11) 1.3907(2)
H27 H 0.3040 -0.2360 1.4825
H28 H 0.2585 -0.2408 1.3106
C23 C 0.4589(2) -0.18030(13) 1.3643(2)
H29 H 0.5039 -0.1520 1.4500
H30 H 0.5268 -0.2233 1.3513
C24 C 0.4521(2) -0.13146(12) 1.2303(2)
H31 H 0.4169 -0.1610 1.1432
H32 H 0.5569 -0.1122 1.2181
C25 C 0.3415(2) -0.06694(10) 1.24416(19)
H33 H 0.3382 -0.0361 1.1554
H34 H 0.3808 -0.0358 1.3278
C26 C 0.05849(19) -0.02755(9) 1.26400(17)
C27 C -0.0877(2) -0.04775(9) 1.33709(19)
H35 H -0.1356 -0.0926 1.2904
H36 H -0.0586 -0.0591 1.4409
C28 C -0.2050(2) 0.01575(10) 1.3248(2)
H37 H -0.2351 0.0270 1.2210
H38 H -0.2993 0.0009 1.3697
C29 C -0.1346(2) 0.08462(11) 1.4011(2)
H39 H -0.2106 0.1256 1.3925
H40 H -0.1079 0.0741 1.5056
C30 C 0.0108(3) 0.10707(10) 1.3315(2)
H41 H 0.0598 0.1497 1.3852
H42 H -0.0189 0.1231 1.2302
C31 C 0.1280(2) 0.04391(9) 1.3312(2)
H43 H 0.1708 0.0338 1.4325
H44 H 0.2147 0.0597 1.2762
B1 B 0.0158(2) -0.09050(10) 1.04614(19)
loop_
_geom_bond_atom_site_label_1
_geom_bond_atom_site_label_2
_geom_bond_site_symmetry_1
_geom_bond_site_symmetry_2
S1 O1 1_555 1_555
C1 S1 1_555 1_555
H1 C1 1_555 1_555
H2 C1 1_555 1_555
H3 C1 1_555 1_555
C2 S1 1_555 1_555
H4 C2 1_555 1_555
H5 C2 1_555 1_555
H6 C2 1_555 1_555
O2 C7 1_555 1_555
O3 C20 1_555 1_555
O4 C26 1_555 1_555
N1 H7 1_555 1_555
C3 N1 1_555 1_555
H8 C3 1_555 1_555
H9 C3 1_555 1_555
C4 C3 1_555 1_555
H10 C4 1_555 1_555
H11 C4 1_555 1_555
C5 C4 1_555 1_555
H12 C5 1_555 1_555
H13 C5 1_555 1_555
C6 N1 1_555 1_555
H14 C6 1_555 1_555
C7 C6 1_555 1_555
C8 C7 1_555 1_555
C9 C8 1_555 1_555
H15 C9 1_555 1_555
C10 C9 1_555 1_555
H16 C10 1_555 1_555
C11 C10 1_555 1_555
H17 C11 1_555 1_555
C12 C11 1_555 1_555
H18 C12 1_555 1_555
C13 C8 1_555 1_555
H19 C13 1_555 1_555
C14 C7 1_555 1_555
C15 C14 1_555 1_555
H20 C15 1_555 1_555
C16 C15 1_555 1_555
H21 C16 1_555 1_555
C17 C16 1_555 1_555
H22 C17 1_555 1_555
C18 C17 1_555 1_555
H23 C18 1_555 1_555
C19 C14 1_555 1_555
H24 C19 1_555 1_555
C20 C21 1_555 1_555
C21 H25 1_555 1_555
H26 C21 1_555 1_555
C22 C21 1_555 1_555
H27 C22 1_555 1_555
H28 C22 1_555 1_555
C23 C22 1_555 1_555
H29 C23 1_555 1_555
H30 C23 1_555 1_555
C24 C23 1_555 1_555
H31 C24 1_555 1_555
H32 C24 1_555 1_555
C25 C20 1_555 1_555
H33 C25 1_555 1_555
H34 C25 1_555 1_555
C26 C20 1_555 1_555
C27 C26 1_555 1_555
H35 C27 1_555 1_555
H36 C27 1_555 1_555
C28 C27 1_555 1_555
H37 C28 1_555 1_555
H38 C28 1_555 1_555
C29 C28 1_555 1_555
H39 C29 1_555 1_555
H40 C29 1_555 1_555
C30 C29 1_555 1_555
H41 C30 1_555 1_555
H42 C30 1_555 1_555
C31 C26 1_555 1_555
H43 C31 1_555 1_555
H44 C31 1_555 1_555
B1 O2 1_555 1_555
O3 B1 1_555 1_555
O4 B1 1_555 1_555
N1 B1 1_555 1_555
C5 C6 1_555 1_555
C12 C13 1_555 1_555
C18 C19 1_555 1_555
C24 C25 1_555 1_555
C30 C31 1_555 1_555

#END
