
#######################################################################
#
#                 Cambridge Crystallographic Data Centre
#                                CCDC 
#
#######################################################################
#
# If this CIF has been generated from an entry in the Cambridge 
# Structural Database, then it will include bibliographic, chemical, 
# crystal, experimental, refinement or atomic coordinate data resulting 
# from the CCDC's data processing and validation procedures.
#
#######################################################################

data_VAMMON
_chemical_formula_moiety         'C34 H40 N3 O5 P1'
_chemical_name_systematic        
'Dimethyl 6,8-bis(4-(dimethylamino)phenyl)-3-methyl-9-oxo-7-phenyl-3-aza-7-phosphabicyclo[3.3.1]nonane-1,5-dicarboxylate'
_symmetry_cell_setting           monoclinic
_symmetry_space_group_name_H-M   'P 21/n'
_symmetry_Int_Tables_number      14
_space_group_name_Hall           '-P 2yn'
loop_
_symmetry_equiv_pos_site_id
_symmetry_equiv_pos_as_xyz
1 x,y,z
2 1/2-x,1/2+y,1/2-z
3 -x,-y,-z
4 1/2+x,1/2-y,1/2+z
_cell_length_a                   14.878(6)
_cell_length_b                   11.321(4)
_cell_length_c                   18.576(7)
_cell_angle_alpha                90
_cell_angle_beta                 102.985(7)
_cell_angle_gamma                90
_cell_volume                     3048.82
_exptl_crystal_colour            white
_exptl_crystal_description       block
_cell_formula_units_Z            4
_exptl_crystal_recrystallization_method 'diethyl ether/dichloromethane'
loop_
_atom_site_label
_atom_site_type_symbol
_atom_site_fract_x
_atom_site_fract_y
_atom_site_fract_z
P1 P 0.92050(6) 0.43471(7) 0.19375(6)
C1 C 0.7763(2) 0.4293(3) 0.07038(19)
C2 C 1.0341(2) 0.5138(3) 0.20994(19)
H1 H 1.0731 0.4705 0.1813
C3 C 0.8752(2) 0.4734(3) 0.09457(19)
H2 H 0.9124 0.4269 0.0658
O1 O 1.02305(16) 0.70137(19) 0.05591(14)
C4 C 1.0391(2) 0.5285(3) 0.3480(2)
H3 H 0.9755 0.5488 0.3363
C5 C 0.7131(2) 0.4461(3) 0.1140(2)
H4 H 0.7319 0.4864 0.1598
C6 C 0.9847(2) 0.6505(3) 0.0977(2)
C7 C 0.6230(2) 0.4053(3) 0.0926(2)
H5 H 0.5810 0.4196 0.1233
C8 C 0.8850(2) 0.6064(3) 0.0742(2)
N1 N 0.86616(19) 0.6787(2) 0.19427(17)
C9 C 0.8307(2) 0.6892(3) 0.1143(2)
H6 H 0.8370 0.7717 0.0986
H7 H 0.7644 0.6680 0.1014
C10 C 1.0257(2) 0.6451(3) 0.18087(19)
C11 C 0.9615(2) 0.7218(3) 0.2155(2)
H8 H 0.9826 0.7202 0.2699
H9 H 0.9641 0.8046 0.1988
O2 O 0.88683(17) 0.5532(2) -0.05073(14)
O3 O 1.18145(15) 0.62924(18) 0.17485(13)
O4 O 1.14155(16) 0.79168(19) 0.22853(14)
O5 O 0.79130(16) 0.69728(19) -0.03252(14)
C12 C 0.8554(2) 0.6149(3) -0.0096(2)
C13 C 1.0829(2) 0.5056(2) 0.29069(19)
C14 C 1.1216(2) 0.6991(3) 0.19770(19)
C15 C 0.8075(3) 0.7385(3) 0.2357(2)
H10 H 0.8060 0.8232 0.2246
H11 H 0.8321 0.7264 0.2887
H12 H 0.7449 0.7062 0.2216
C16 C 0.5933(2) 0.3436(3) 0.0263(2)
C17 C 0.6574(2) 0.3275(3) -0.0175(2)
H13 H 0.6394 0.2874 -0.0635
N2 N 0.5041(2) 0.2981(3) 0.0053(2)
N3 N 1.2248(2) 0.4893(3) 0.51530(19)
C18 C 1.2224(2) 0.4679(3) 0.3845(2)
H14 H 1.2858 0.4464 0.3959
C19 C 0.4365(3) 0.3341(3) 0.0464(2)
H15 H 0.4599 0.3164 0.0989
H16 H 0.3788 0.2911 0.0280
H17 H 0.4252 0.4192 0.0401
C20 C 1.1758(2) 0.4744(3) 0.3114(2)
H18 H 1.2081 0.4569 0.2740
C21 C 0.7465(2) 0.3689(3) 0.0050(2)
H19 H 0.7887 0.3554 -0.0256
C22 C 1.0849(2) 0.5226(3) 0.4213(2)
H20 H 1.0520 0.5396 0.4584
C23 C 1.1785(3) 0.4923(3) 0.4426(2)
C24 C 0.7558(3) 0.7020(3) -0.1116(2)
H21 H 0.8068 0.7147 -0.1361
H22 H 0.7116 0.7672 -0.1237
H23 H 0.7248 0.6274 -0.1286
C25 C 1.1741(3) 0.4758(3) 0.5734(2)
H24 H 1.1327 0.5434 0.5725
H25 H 1.2177 0.4721 0.6215
H26 H 1.1378 0.4028 0.5653
C26 C 0.4688(3) 0.2759(3) -0.0716(2)
H27 H 0.4713 0.3487 -0.0996
H28 H 0.4047 0.2490 -0.0796
H29 H 0.5061 0.2148 -0.0883
C27 C 1.2766(2) 0.6650(3) 0.1933(2)
H30 H 1.2832 0.7411 0.1698
H31 H 1.3143 0.6055 0.1756
H32 H 1.2971 0.6729 0.2470
C28 C 1.3196(3) 0.4516(4) 0.5340(2)
H33 H 1.3241 0.3706 0.5165
H34 H 1.3425 0.4543 0.5877
H35 H 1.3568 0.5042 0.5105
C29 C 0.9627(2) 0.2838(3) 0.1830(2)
C30 C 1.0039(2) 0.2455(3) 0.1272(2)
H36 H 1.0094 0.2989 0.0891
C31 C 0.9529(3) 0.2024(3) 0.2358(2)
H37 H 0.9228 0.2254 0.2736
C32 C 1.0371(2) 0.1313(3) 0.1256(2)
H38 H 1.0654 0.1075 0.0869
C33 C 1.0290(3) 0.0526(3) 0.1803(3)
H39 H 1.0532 -0.0250 0.1801
C34 C 0.9861(3) 0.0860(3) 0.2352(2)
H40 H 0.9790 0.0313 0.2723
loop_
_geom_bond_atom_site_label_1
_geom_bond_atom_site_label_2
_geom_bond_site_symmetry_1
_geom_bond_site_symmetry_2
P1 C2 1_555 1_555
C1 C3 1_555 1_555
C2 H1 1_555 1_555
C3 P1 1_555 1_555
H2 C3 1_555 1_555
O1 C6 1_555 1_555
C4 H3 1_555 1_555
C5 C1 1_555 1_555
H4 C5 1_555 1_555
C6 C8 1_555 1_555
C7 C5 1_555 1_555
H5 C7 1_555 1_555
C8 C3 1_555 1_555
N1 C9 1_555 1_555
C9 C8 1_555 1_555
H6 C9 1_555 1_555
H7 C9 1_555 1_555
C10 C2 1_555 1_555
C11 N1 1_555 1_555
H8 C11 1_555 1_555
H9 C11 1_555 1_555
O2 C12 1_555 1_555
O3 C14 1_555 1_555
O4 C14 1_555 1_555
O5 C12 1_555 1_555
C12 C8 1_555 1_555
C13 C2 1_555 1_555
C14 C10 1_555 1_555
C15 N1 1_555 1_555
H10 C15 1_555 1_555
H11 C15 1_555 1_555
H12 C15 1_555 1_555
C16 C7 1_555 1_555
C17 C16 1_555 1_555
H13 C17 1_555 1_555
N2 C16 1_555 1_555
N3 C23 1_555 1_555
C18 H14 1_555 1_555
C19 N2 1_555 1_555
H15 C19 1_555 1_555
H16 C19 1_555 1_555
H17 C19 1_555 1_555
C20 C13 1_555 1_555
H18 C20 1_555 1_555
C21 C1 1_555 1_555
H19 C21 1_555 1_555
C22 C4 1_555 1_555
H20 C22 1_555 1_555
C23 C18 1_555 1_555
C24 O5 1_555 1_555
H21 C24 1_555 1_555
H22 C24 1_555 1_555
H23 C24 1_555 1_555
C25 N3 1_555 1_555
H24 C25 1_555 1_555
H25 C25 1_555 1_555
H26 C25 1_555 1_555
C26 N2 1_555 1_555
H27 C26 1_555 1_555
H28 C26 1_555 1_555
H29 C26 1_555 1_555
C27 O3 1_555 1_555
H30 C27 1_555 1_555
H31 C27 1_555 1_555
H32 C27 1_555 1_555
C28 N3 1_555 1_555
H33 C28 1_555 1_555
H34 C28 1_555 1_555
H35 C28 1_555 1_555
C29 P1 1_555 1_555
C30 C29 1_555 1_555
H36 C30 1_555 1_555
C31 C29 1_555 1_555
H37 C31 1_555 1_555
C32 C30 1_555 1_555
H38 C32 1_555 1_555
C33 C32 1_555 1_555
H39 C33 1_555 1_555
C34 C31 1_555 1_555
H40 C34 1_555 1_555
C4 C13 1_555 1_555
C6 C10 1_555 1_555
C10 C11 1_555 1_555
C17 C21 1_555 1_555
C18 C20 1_555 1_555
C22 C23 1_555 1_555
C33 C34 1_555 1_555

#END
