
#######################################################################
#
#                 Cambridge Crystallographic Data Centre
#                                CCDC 
#
#######################################################################
#
# If this CIF has been generated from an entry in the Cambridge 
# Structural Database, then it will include bibliographic, chemical, 
# crystal, experimental, refinement or atomic coordinate data resulting 
# from the CCDC's data processing and validation procedures.
#
#######################################################################

data_VAMPAD
_chemical_formula_moiety         'C32 H24 N2 O4'
_chemical_name_systematic        
1,1''-dibenzyl-5'H-dispiro[indole-3,2'-oxolane-3',3''-indole]-2,2'',5'(1H,1''H)-trione
_symmetry_cell_setting           monoclinic
_symmetry_space_group_name_H-M   'P 21/n'
_symmetry_Int_Tables_number      14
_space_group_name_Hall           '-P 2yn'
loop_
_symmetry_equiv_pos_site_id
_symmetry_equiv_pos_as_xyz
1 x,y,z
2 1/2-x,1/2+y,1/2-z
3 -x,-y,-z
4 1/2+x,1/2-y,1/2+z
_cell_length_a                   10.3094(16)
_cell_length_b                   14.455(2)
_cell_length_c                   17.511(3)
_cell_angle_alpha                90
_cell_angle_beta                 104.905(4)
_cell_angle_gamma                90
_cell_volume                     2521.73
_cell_formula_units_Z            4
loop_
_atom_site_label
_atom_site_type_symbol
_atom_site_fract_x
_atom_site_fract_y
_atom_site_fract_z
O1 O 0.78842(11) 0.59219(8) 0.01581(6)
N1 N 0.63596(13) 0.46301(10) 0.12957(8)
O2 O 0.77365(14) 0.63133(9) 0.25682(8)
C1 C 0.88188(16) 0.63553(11) 0.14721(9)
C2 C 0.97108(17) 0.41896(12) 0.11133(10)
N2 N 1.00249(16) 0.61679(10) 0.27918(8)
C3 C 0.87508(19) 0.62819(11) 0.23360(10)
C4 C 1.03094(16) 0.62911(11) 0.15438(10)
C5 C 0.75188(16) 0.40929(11) 0.13455(9)
C6 C 0.85022(15) 0.46041(11) 0.11124(9)
O3 O 0.56498(12) 0.60801(9) 0.08220(9)
C7 C 0.79892(15) 0.55773(11) 0.09509(9)
C8 C 1.09685(18) 0.61806(11) 0.23355(10)
C9 C 1.10397(19) 0.63634(13) 0.09872(12)
C10 C 0.78457(17) 0.68710(13) 0.01752(11)
C11 C 0.77121(19) 0.31855(12) 0.15870(11)
C12 C 0.8182(2) 0.72085(13) 0.10139(12)
C13 C 0.9911(2) 0.32652(14) 0.13478(12)
O4 O 0.76066(15) 0.73078(10) -0.04254(9)
C14 C 0.48881(17) 0.41715(12) 0.21761(11)
C15 C 0.50651(18) 0.42590(16) 0.13472(12)
C16 C 1.2354(2) 0.61313(14) 0.25910(15)
C17 C 1.0637(2) 0.50821(13) 0.39323(10)
C18 C 0.8928(2) 0.27805(14) 0.15829(12)
C19 C 0.65141(17) 0.54915(12) 0.10245(10)
C20 C 1.2433(2) 0.63088(14) 0.12364(15)
C21 C 1.3069(2) 0.61949(14) 0.20212(16)
C22 C 0.3803(2) 0.36601(14) 0.22836(15)
C23 C 0.4273(3) 0.41061(17) 0.36314(16)
C24 C 0.5684(2) 0.46318(15) 0.28208(13)
C25 C 0.5372(2) 0.45991(17) 0.35453(14)
C26 C 1.0037(2) 0.43264(14) 0.34976(12)
C27 C 0.3501(2) 0.36325(17) 0.30036(16)
C28 C 1.1477(2) 0.49323(18) 0.46741(12)
C29 C 1.0355(3) 0.60679(15) 0.36492(11)
C30 C 1.0260(3) 0.34444(16) 0.38066(14)
C31 C 1.1074(3) 0.33030(19) 0.45435(15)
C32 C 1.1689(3) 0.40470(19) 0.49772(15)
H1 H 1.0414(18) 0.4528(12) 0.0957(10)
H2 H 0.946(2) 0.4445(15) 0.2980(13)
H3 H 0.7026(19) 0.2850(13) 0.1765(10)
H4 H 1.296(2) 0.6348(14) 0.0850(12)
H5 H 1.280(2) 0.6035(15) 0.3145(14)
H6 H 1.119(2) 0.2708(19) 0.4773(15)
H7 H 0.321(2) 0.3371(14) 0.1816(12)
H8 H 1.060(2) 0.6465(13) 0.0445(12)
H9 H 0.645(2) 0.4988(15) 0.2753(12)
H10 H 0.9065(18) 0.2157(15) 0.1746(11)
H11 H 0.8765(19) 0.7735(14) 0.1077(10)
H12 H 0.7360(18) 0.7391(12) 0.1152(10)
H13 H 0.493(2) 0.3658(15) 0.1069(12)
H14 H 1.075(2) 0.2983(15) 0.1338(11)
H15 H 0.435(2) 0.4708(14) 0.1030(11)
H16 H 0.982(2) 0.2932(16) 0.3497(12)
H17 H 0.271(3) 0.3295(17) 0.3064(13)
H18 H 1.405(3) 0.6190(15) 0.2198(14)
H19 H 0.409(2) 0.4076(15) 0.4139(14)
H20 H 0.595(2) 0.4956(17) 0.3973(14)
H21 H 1.229(3) 0.3941(17) 0.5499(15)
H22 H 1.188(2) 0.5475(17) 0.4980(13)
H23 H 1.114(3) 0.6475(17) 0.3861(14)
H24 H 0.958(3) 0.6297(16) 0.3813(14)
loop_
_geom_bond_atom_site_label_1
_geom_bond_atom_site_label_2
_geom_bond_site_symmetry_1
_geom_bond_site_symmetry_2
O1 C7 1_555 1_555
N1 C5 1_555 1_555
O2 C3 1_555 1_555
C1 C3 1_555 1_555
C2 C6 1_555 1_555
N2 C3 1_555 1_555
C4 C1 1_555 1_555
C5 C6 1_555 1_555
C6 C7 1_555 1_555
O3 C19 1_555 1_555
C7 C1 1_555 1_555
C8 N2 1_555 1_555
C9 C4 1_555 1_555
C10 O1 1_555 1_555
C11 C5 1_555 1_555
C12 C1 1_555 1_555
C13 C2 1_555 1_555
O4 C10 1_555 1_555
C14 C15 1_555 1_555
C15 N1 1_555 1_555
C16 C8 1_555 1_555
C17 C26 1_555 1_555
C18 C11 1_555 1_555
C19 N1 1_555 1_555
C20 C9 1_555 1_555
C21 C16 1_555 1_555
C22 C14 1_555 1_555
C23 C25 1_555 1_555
C24 C14 1_555 1_555
C25 C24 1_555 1_555
C26 C30 1_555 1_555
C27 C22 1_555 1_555
C28 C17 1_555 1_555
C29 N2 1_555 1_555
C30 C31 1_555 1_555
C31 C32 1_555 1_555
C32 C28 1_555 1_555
H1 C2 1_555 1_555
H2 C26 1_555 1_555
H3 C11 1_555 1_555
H4 C20 1_555 1_555
H5 C16 1_555 1_555
H6 C31 1_555 1_555
H7 C22 1_555 1_555
H8 C9 1_555 1_555
H9 C24 1_555 1_555
H10 C18 1_555 1_555
H11 C12 1_555 1_555
H12 C12 1_555 1_555
H13 C15 1_555 1_555
H14 C13 1_555 1_555
H15 C15 1_555 1_555
H16 C30 1_555 1_555
H17 C27 1_555 1_555
H18 C21 1_555 1_555
H19 C23 1_555 1_555
H20 C25 1_555 1_555
H21 C32 1_555 1_555
H22 C28 1_555 1_555
H23 C29 1_555 1_555
H24 C29 1_555 1_555
C4 C8 1_555 1_555
C7 C19 1_555 1_555
C10 C12 1_555 1_555
C13 C18 1_555 1_555
C17 C29 1_555 1_555
C20 C21 1_555 1_555
C23 C27 1_555 1_555

#END
