
#######################################################################
#
#                 Cambridge Crystallographic Data Centre
#                                CCDC 
#
#######################################################################
#
# If this CIF has been generated from an entry in the Cambridge 
# Structural Database, then it will include bibliographic, chemical, 
# crystal, experimental, refinement or atomic coordinate data resulting 
# from the CCDC's data processing and validation procedures.
#
#######################################################################

data_VAMTEJ
_chemical_formula_moiety         '2(C1 H6 N3 1+),C9 H10 O6 S2 2-,C6 H5 N1 O2'
_chemical_name_systematic        
'bis(guanidinium) 2,4,6-trimethylbenzene-1,3-disulfonate nitrobenzene clathrate'
_symmetry_cell_setting           orthorhombic
_symmetry_space_group_name_H-M   'I m m 2'
_symmetry_Int_Tables_number      44
_space_group_name_Hall           'I 2 -2'
loop_
_symmetry_equiv_pos_site_id
_symmetry_equiv_pos_as_xyz
1 x,y,z
2 -x,-y,z
3 -x,y,z
4 x,-y,z
5 1/2+x,1/2+y,1/2+z
6 1/2-x,1/2-y,1/2+z
7 1/2-x,1/2+y,1/2+z
8 1/2+x,1/2-y,1/2+z
_cell_length_a                   7.2973(7)
_cell_length_b                   20.851(2)
_cell_length_c                   8.0432(8)
_cell_angle_alpha                90
_cell_angle_beta                 90
_cell_angle_gamma                90
_cell_volume                     1223.82
_cell_formula_units_Z            2
loop_
_atom_site_label
_atom_site_type_symbol
_atom_site_fract_x
_atom_site_fract_y
_atom_site_fract_z
N1 N -0.3427(3) 0.25958(12) 0.9447(4)
H1 H -0.2383 0.2425 0.9126
H2 H -0.3427 0.2944 1.0066
N2 N -0.5000 0.18095(18) 0.8076(6)
H3 H -0.3956 0.1639 0.7755
H4 H -0.6044 0.1632 0.7779
C7 C -0.5000 0.2329(2) 0.8999(5)
N1B N -0.6573(3) 0.25958(12) 0.9447(4)
H1B H -0.7617 0.2425 0.9126
H2B H -0.6573 0.2944 1.0066
O3 O -0.5000 0.1373(4) 1.4349(17)
N3 N -0.5000 0.0842(15) 1.459(3)
O4 O -0.5000 0.0499(10) 1.593(3)
C8 C -0.5000 0.0339(6) 1.3207(18)
C9 C -0.5000 0.0668(7) 1.168(4)
H12 H -0.5000 0.1122 1.1594
C10 C -0.5000 0.0282(7) 1.038(2)
H13 H -0.5000 0.0483 0.9323
C8A C -0.5000 -0.0339(6) 1.3207(18)
N3A N -0.5000 -0.0842(15) 1.459(3)
O3A O -0.5000 -0.1373(4) 1.4349(17)
O4A O -0.5000 -0.0499(10) 1.593(3)
C9A C -0.5000 -0.0668(7) 1.168(4)
H12A H -0.5000 -0.1122 1.1594
C10A C -0.5000 -0.0282(7) 1.038(2)
H13A H -0.5000 -0.0483 0.9323
S1 S 0.0000 0.13125(4) 0.78059(13)
O1 O -0.1652(3) 0.13099(9) 0.6790(3)
C1 C 0.0000 0.05816(19) 0.8979(6)
O2 O 0.0000 0.18472(14) 0.8972(4)
C2 C 0.0000 0.0000 0.8076(6)
C3 C 0.0000 0.0000 1.1465(10)
H5 H 0.0000 0.0000 1.2646
C4 C 0.0000 0.0585(2) 1.0706(7)
C5 C 0.0000 0.0000 0.6213(7)
C6 C 0.0000 0.1190(3) 1.1819(8)
O1B O 0.1652(3) 0.13099(9) 0.6790(3)
C1A C 0.0000 -0.05816(19) 0.8979(6)
S1A S 0.0000 -0.13125(4) 0.78059(13)
O1A O 0.1652(3) -0.13099(9) 0.6790(3)
O1C O -0.1652(3) -0.13099(9) 0.6790(3)
O2A O 0.0000 -0.18472(14) 0.8972(4)
C4A C 0.0000 -0.0585(2) 1.0706(7)
C6A C 0.0000 -0.1190(3) 1.1819(8)
H6? H -0.0812 0.0340 0.5807
H7? H -0.0436 -0.0416 0.5807
H8? H 0.1247 0.0076 0.5807
H9? H -0.0258 0.1066 1.2971
H10? H -0.0944 0.1488 1.1430
H11? H 0.1203 0.1398 1.1761
loop_
_geom_bond_atom_site_label_1
_geom_bond_atom_site_label_2
_geom_bond_site_symmetry_1
_geom_bond_site_symmetry_2
S1 O1 1_555 1_555
N1 H1 1_555 1_555
H2 N1 1_555 1_555
C1 S1 1_555 1_555
O2 S1 1_555 1_555
N2 H3 1_555 1_555
H4 N2 1_555 1_555
C2 C1 1_555 1_555
C3 H5 1_555 1_555
C4 C1 1_555 1_555
C5 C2 1_555 1_555
C6 C4 1_555 1_555
C7 N1 1_555 1_555
O3 N3 1_555 1_555
N3 O4 1_555 1_555
C8 N3 1_555 1_555
C9 C8 1_555 1_555
H12 C9 1_555 1_555
C10 C9 1_555 1_555
H13 C10 1_555 1_555
O1B S1 1_555 1_555
C1A C2 1_555 1_555
S1A C1A 1_555 1_555
O1A S1A 1_555 1_555
O1C S1A 1_555 1_555
O2A S1A 1_555 1_555
C4A C3 1_555 1_555
C6A C4A 1_555 1_555
N1B C7 1_555 1_555
H1B N1B 1_555 1_555
H2B N1B 1_555 1_555
C8A C8 1_555 1_555
N3A C8A 1_555 1_555
O3A N3A 1_555 1_555
O4A N3A 1_555 1_555
C9A C8A 1_555 1_555
H12A C9A 1_555 1_555
C10A C10 1_555 1_555
H13A C10A 1_555 1_555
N2 C7 1_555 1_555
C3 C4 1_555 1_555
C1A C4A 1_555 1_555
C9A C10A 1_555 1_555

#END
