
#######################################################################
#
#                 Cambridge Crystallographic Data Centre
#                                CCDC 
#
#######################################################################
#
# If this CIF has been generated from an entry in the Cambridge 
# Structural Database, then it will include bibliographic, chemical, 
# crystal, experimental, refinement or atomic coordinate data resulting 
# from the CCDC's data processing and validation procedures.
#
#######################################################################

data_VAMTOT01
_chemical_formula_moiety         '2(C1 H6 N3 1+),C9 H10 O6 S2 2-,C9 H12'
_chemical_name_systematic        
'bis(Guanidinium) mesitylenedisulfonate mesitylene clathrate'
_symmetry_cell_setting           orthorhombic
_symmetry_space_group_name_H-M   'I m m 2'
_symmetry_Int_Tables_number      44
_space_group_name_Hall           'I 2 -2'
loop_
_symmetry_equiv_pos_site_id
_symmetry_equiv_pos_as_xyz
1 x,y,z
2 -x,-y,z
3 -x,y,z
4 x,-y,z
5 1/2+x,1/2+y,1/2+z
6 1/2-x,1/2-y,1/2+z
7 1/2-x,1/2+y,1/2+z
8 1/2+x,1/2-y,1/2+z
_cell_length_a                   20.578(7)
_cell_length_b                   7.386(2)
_cell_length_c                   8.168(3)
_cell_angle_alpha                90
_cell_angle_beta                 90
_cell_angle_gamma                90
_cell_volume                     1241.45
_exptl_crystal_colour            colorless
_exptl_crystal_description       prism
_cell_formula_units_Z            2
loop_
_atom_site_label
_atom_site_type_symbol
_atom_site_fract_x
_atom_site_fract_y
_atom_site_fract_z
S1 S 0.86725(4) 1.0000 0.19552(12)
O1 O 0.81270(13) 1.0000 0.3096(4)
C1 C 0.94079(18) 1.0000 0.3105(5)
O2 O 0.86736(9) 0.8367(3) 0.0949(2)
C2 C 0.9405(2) 1.0000 0.4808(6)
C3 C 1.0000 1.0000 0.5596(8)
H1 H 1.0000 1.0000 0.6735
C4 C 1.0000 1.0000 0.2206(6)
C5 C 0.8810(3) 1.0000 0.5913(7)
C6 C 1.0000 1.0000 0.0372(7)
S1A S 1.13275(4) 1.0000 0.19552(12)
O1A O 1.18730(13) 1.0000 0.3096(4)
C1A C 1.05921(18) 1.0000 0.3105(5)
O2A O 1.13264(9) 1.1633(3) 0.0949(2)
O2B O 1.13264(9) 0.8367(3) 0.0949(2)
O2C O 0.86736(9) 1.1633(3) 0.0949(2)
C2A C 1.0595(2) 1.0000 0.4808(6)
C5A C 1.1190(3) 1.0000 0.5913(7)
N1 N 0.68242(17) 1.0000 0.7112(6)
H2 H 0.6663 0.8992 0.6776
H3 H 0.6661 1.1008 0.6784
N2 N 0.75682(12) 0.8451(3) 0.8626(4)
H4 H 0.7895 0.8443 0.9282
H5 H 0.7403 0.7447 0.8294
C7 C 0.7321(2) 1.0000 0.8130(6)
N2C N 0.75682(12) 1.1549(3) 0.8626(4)
H4C H 0.7895 1.1557 0.9282
H5C H 0.7403 1.2553 0.8294
C8 C 0.5000 1.0000 -0.0764(11)
C9 C 0.4420(3) 1.0000 0.0141(8)
H6 H 0.4027 1.0000 -0.0421
C10 C 0.4409(3) 1.0000 0.1834(10)
C11 C 0.5000 1.0000 0.2656(12)
H7 H 0.5000 1.0000 0.3795
C12 C 0.5000 1.0000 -0.2539(11)
C13 C 0.3783(4) 1.0000 0.2763(10)
C9A C 0.5580(3) 1.0000 0.0141(8)
H6A H 0.5973 1.0000 -0.0421
C10A C 0.5591(3) 1.0000 0.1834(10)
C13A C 0.6217(4) 1.0000 0.2763(10)
H8? H 0.8933 0.9624 0.6995
H9? H 0.8491 0.9178 0.5484
H10? H 0.8630 1.1198 0.5958
H11? H 1.0373 1.0651 -0.0020
H12? H 0.9611 1.0573 -0.0020
H13? H 1.0016 0.8775 -0.0020
H14? H 0.5347 0.9248 -0.2930
H15? H 0.5060 1.1214 -0.2930
H16? H 0.4593 0.9538 -0.2930
H17? H 0.3774 0.8983 0.3495
H18? H 0.3427 0.9916 0.2009
H19? H 0.3747 1.1101 0.3381
loop_
_geom_bond_atom_site_label_1
_geom_bond_atom_site_label_2
_geom_bond_site_symmetry_1
_geom_bond_site_symmetry_2
S1 O1 1_555 1_555
C1 S1 1_555 1_555
O2 S1 1_555 1_555
C2 C1 1_555 1_555
C3 C2 1_555 1_555
H1 C3 1_555 1_555
C4 C1 1_555 1_555
C5 C2 1_555 1_555
C6 C4 1_555 1_555
N1 H2 1_555 1_555
H3 N1 1_555 1_555
N2 H4 1_555 1_555
H5 N2 1_555 1_555
C7 N1 1_555 1_555
C8 C9 1_555 1_555
C9 H6 1_555 1_555
C10 C9 1_555 1_555
C11 C10 1_555 1_555
H7 C11 1_555 1_555
C12 C8 1_555 1_555
C13 C10 1_555 1_555
S1A O1A 1_555 1_555
C1A C4 1_555 1_555
O2A S1A 1_555 1_555
O2B S1A 1_555 1_555
O2C S1 1_555 1_555
C2A C3 1_555 1_555
C5A C2A 1_555 1_555
N2C C7 1_555 1_555
H4C N2C 1_555 1_555
H5C N2C 1_555 1_555
C9A C8 1_555 1_555
H6A C9A 1_555 1_555
C10A C11 1_555 1_555
C13A C10A 1_555 1_555
N2 C7 1_555 1_555
S1A C1A 1_555 1_555
C1A C2A 1_555 1_555
C9A C10A 1_555 1_555

#END
