
#######################################################################
#
#                 Cambridge Crystallographic Data Centre
#                                CCDC 
#
#######################################################################
#
# If this CIF has been generated from an entry in the Cambridge 
# Structural Database, then it will include bibliographic, chemical, 
# crystal, experimental, refinement or atomic coordinate data resulting 
# from the CCDC's data processing and validation procedures.
#
#######################################################################

data_VAMVIQ
_chemical_formula_moiety         'C90 H96 N4 O10,2(C2 H3 N1)'
_chemical_name_systematic        
'5,11,17,23,29,35-Hexa-t-butyl-39,42-dihydroxycalix(6)arene-37,38,40,41-tetrayl tetraisonicotinate acetonitrile solvate'
_symmetry_cell_setting           orthorhombic
_symmetry_space_group_name_H-M   'P b c n'
_symmetry_Int_Tables_number      60
_space_group_name_Hall           '-P 2n 2ab'
loop_
_symmetry_equiv_pos_site_id
_symmetry_equiv_pos_as_xyz
1 x,y,z
2 1/2-x,1/2-y,1/2+z
3 -x,y,1/2-z
4 1/2+x,1/2-y,-z
5 -x,-y,-z
6 1/2+x,1/2+y,1/2-z
7 x,-y,1/2+z
8 1/2-x,1/2+y,z
_cell_length_a                   25.8827(10)
_cell_length_b                   10.1279(3)
_cell_length_c                   30.7157(10)
_cell_angle_alpha                90
_cell_angle_beta                 90
_cell_angle_gamma                90
_cell_volume                     8051.73
_exptl_crystal_colour            colorless
_exptl_crystal_description       block
_cell_formula_units_Z            4
loop_
_atom_site_label
_atom_site_type_symbol
_atom_site_fract_x
_atom_site_fract_y
_atom_site_fract_z
O1 O 0.68686(8) 0.61485(15) 0.22144(7)
O2 O 0.62028(7) 0.75779(14) 0.22289(6)
O3 O 0.68288(8) 1.17952(16) 0.17810(7)
O4 O 0.61945(7) 1.02782(14) 0.18358(6)
O5 O 0.51488(8) 0.94565(15) 0.18726(6)
H1 H 0.5390 0.9945 0.1811
N1 N 0.55739(13) 0.4068(2) 0.12212(9)
N2 N 0.57560(11) 1.3499(2) 0.30221(8)
C1 C 0.53461(14) 0.4976(3) 0.14671(11)
H2 H 0.4988 0.5042 0.1456
C2 C 0.56144(13) 0.5836(2) 0.17405(10)
H3 H 0.5439 0.6475 0.1900
C3 C 0.61394(12) 0.5721(2) 0.17692(9)
C4 C 0.63807(13) 0.4788(2) 0.15101(10)
H4 H 0.6738 0.4697 0.1516
C5 C 0.60881(14) 0.4000(3) 0.12457(11)
H5 H 0.6257 0.3382 0.1073
C6 C 0.64549(13) 0.6476(2) 0.20853(9)
C7 C 0.64618(12) 0.8363(2) 0.25489(9)
C8 C 0.69113(11) 0.9026(2) 0.24464(9)
C9 C 0.71322(11) 0.9782(2) 0.27829(9)
H6 H 0.7438 1.0232 0.2727
C10 C 0.69160(12) 0.9888(2) 0.31914(10)
C11 C 0.64464(11) 0.9249(2) 0.32616(9)
H7 H 0.6284 0.9344 0.3530
C12 C 0.62127(11) 0.8472(2) 0.29423(9)
C13 C 0.71639(12) 1.0700(2) 0.35567(9)
C14 C 0.77141(13) 1.1038(3) 0.34610(11)
H8 H 0.7853 1.1551 0.3696
H9 H 0.7732 1.1539 0.3196
H10 H 0.7911 1.0240 0.3429
C15 C 0.71561(15) 0.9948(3) 0.39860(10)
H11 H 0.7315 1.0475 0.4209
H12 H 0.7343 0.9136 0.3954
H13 H 0.6805 0.9759 0.4066
C16 C 0.68682(15) 1.1972(3) 0.36111(12)
H14 H 0.7025 1.2491 0.3837
H15 H 0.6517 1.1779 0.3688
H16 H 0.6875 1.2458 0.3343
C17 C 0.71898(11) 0.8954(2) 0.20150(9)
H17 H 0.7405 0.9734 0.1994
H18 H 0.7421 0.8200 0.2028
C18 C 0.55559(13) 1.2343(3) 0.28852(10)
H19 H 0.5262 1.2026 0.3024
C19 C 0.57631(13) 1.1601(2) 0.25500(9)
H20 H 0.5613 1.0803 0.2470
C20 C 0.61965(12) 1.2067(2) 0.23369(9)
C21 C 0.64105(12) 1.3247(2) 0.24802(10)
H21 H 0.6707 1.3583 0.2349
C22 C 0.61803(14) 1.3908(2) 0.28164(10)
H22 H 0.6330 1.4696 0.2908
C23 C 0.64534(13) 1.1405(2) 0.19620(10)
C24 C 0.64372(12) 0.9494(2) 0.15036(9)
C25 C 0.68926(11) 0.8847(2) 0.15954(9)
C26 C 0.70988(11) 0.8069(2) 0.12575(9)
H23 H 0.7406 0.7618 0.1308
C27 C 0.68672(12) 0.7944(2) 0.08547(9)
C28 C 0.63987(12) 0.8579(2) 0.07926(9)
H24 H 0.6230 0.8482 0.0527
C29 C 0.61715(11) 0.9360(2) 0.11159(9)
C30 C 0.71095(13) 0.7135(2) 0.04849(9)
C31 C 0.76290(13) 0.6568(3) 0.06095(11)
H25 H 0.7858 0.7272 0.0691
H26 H 0.7772 0.6098 0.0366
H27 H 0.7587 0.5975 0.0851
C32 C 0.67499(14) 0.6023(3) 0.03562(11)
H28 H 0.6419 0.6380 0.0278
H29 H 0.6709 0.5428 0.0597
H30 H 0.6893 0.5556 0.0112
C33 C 0.71954(14) 0.8027(3) 0.00894(10)
H31 H 0.7428 0.8727 0.0166
H32 H 0.6871 0.8395 -0.0002
H33 H 0.7341 0.7518 -0.0144
C34 C 0.56508(11) 0.9999(2) 0.10309(9)
H34 H 0.5646 1.0332 0.0735
H35 H 0.5612 1.0749 0.1225
C35 C 0.49694(11) 0.8845(2) 0.14979(9)
C36 C 0.51911(11) 0.9082(2) 0.10928(9)
C37 C 0.49751(12) 0.8437(2) 0.07308(10)
H36 H 0.5121 0.8573 0.0458
C38 C 0.45495(12) 0.7598(2) 0.07680(10)
C39 C 0.43474(11) 0.7389(2) 0.11789(10)
H37 H 0.4070 0.6814 0.1210
C40 C 0.45447(11) 0.8009(2) 0.15496(9)
C41 C 0.43005(14) 0.6898(3) 0.03731(10)
C42 C 0.37371(14) 0.7315(4) 0.03276(13)
H38 H 0.3556 0.7121 0.0593
H39 H 0.3581 0.6841 0.0091
H40 H 0.3720 0.8246 0.0271
C43 C 0.43132(17) 0.5405(3) 0.04494(12)
H41 H 0.4133 0.5199 0.0714
H42 H 0.4665 0.5116 0.0472
H43 H 0.4150 0.4963 0.0210
C44 C 0.45758(17) 0.7208(3) -0.00416(12)
H44 H 0.4411 0.6755 -0.0278
H45 H 0.4929 0.6925 -0.0020
H46 H 0.4565 0.8142 -0.0093
C45 C 0.57017(11) 0.7768(2) 0.30167(9)
H47 H 0.5462 0.8039 0.2791
H48 H 0.5757 0.6826 0.2984
O1B O 0.31314(8) 0.61485(15) 0.27856(7)
O2B O 0.37972(7) 0.75779(14) 0.27711(6)
O3B O 0.31712(8) 1.17952(16) 0.32190(7)
O4B O 0.38055(7) 1.02782(14) 0.31642(6)
O5B O 0.48512(8) 0.94565(15) 0.31274(6)
H1B H 0.4610 0.9945 0.3189
N1B N 0.44261(13) 0.4068(2) 0.37788(9)
N2B N 0.42440(11) 1.3499(2) 0.19779(8)
C1B C 0.46539(14) 0.4976(3) 0.35329(11)
H2B H 0.5012 0.5042 0.3544
C2B C 0.43856(13) 0.5836(2) 0.32595(10)
H3B H 0.4561 0.6475 0.3100
C3B C 0.38606(12) 0.5721(2) 0.32308(9)
C4B C 0.36193(13) 0.4788(2) 0.34899(10)
H4B H 0.3262 0.4697 0.3484
C5B C 0.39119(14) 0.4000(3) 0.37543(11)
H5B H 0.3743 0.3382 0.3927
C6B C 0.35451(13) 0.6476(2) 0.29147(9)
C7B C 0.35382(12) 0.8363(2) 0.24511(9)
C8B C 0.30887(11) 0.9026(2) 0.25536(9)
C9B C 0.28678(11) 0.9782(2) 0.22171(9)
H6B H 0.2562 1.0232 0.2273
C10B C 0.30840(12) 0.9888(2) 0.18086(10)
C11B C 0.35536(11) 0.9249(2) 0.17384(9)
H7B H 0.3716 0.9344 0.1470
C12B C 0.37873(11) 0.8472(2) 0.20577(9)
C13B C 0.28361(12) 1.0700(2) 0.14433(9)
C14B C 0.22859(13) 1.1038(3) 0.15390(11)
H8B H 0.2147 1.1551 0.1304
H9B H 0.2268 1.1539 0.1804
H10B H 0.2089 1.0240 0.1571
C15B C 0.28439(15) 0.9948(3) 0.10140(10)
H11B H 0.2685 1.0475 0.0791
H12B H 0.2657 0.9136 0.1046
H13B H 0.3195 0.9759 0.0934
C16B C 0.31318(15) 1.1972(3) 0.13889(12)
H14B H 0.2975 1.2491 0.1163
H15B H 0.3483 1.1779 0.1312
H16B H 0.3125 1.2458 0.1657
C17B C 0.28102(11) 0.8954(2) 0.29850(9)
H17B H 0.2595 0.9734 0.3006
H18B H 0.2579 0.8200 0.2972
C18B C 0.44441(13) 1.2343(3) 0.21148(10)
H19B H 0.4738 1.2026 0.1976
C19B C 0.42369(13) 1.1601(2) 0.24500(9)
H20B H 0.4387 1.0803 0.2530
C20B C 0.38035(12) 1.2067(2) 0.26631(9)
C21B C 0.35895(12) 1.3247(2) 0.25198(10)
H21B H 0.3293 1.3583 0.2651
C22B C 0.38197(14) 1.3908(2) 0.21836(10)
H22B H 0.3670 1.4696 0.2092
C23B C 0.35466(13) 1.1405(2) 0.30380(10)
C24B C 0.35628(12) 0.9494(2) 0.34964(9)
C25B C 0.31074(11) 0.8847(2) 0.34046(9)
C26B C 0.29012(11) 0.8069(2) 0.37425(9)
H23B H 0.2594 0.7618 0.3692
C27B C 0.31328(12) 0.7944(2) 0.41453(9)
C28B C 0.36013(12) 0.8579(2) 0.42074(9)
H24B H 0.3770 0.8482 0.4473
C29B C 0.38285(11) 0.9360(2) 0.38841(9)
C30B C 0.28905(13) 0.7135(2) 0.45151(9)
C31B C 0.23710(13) 0.6568(3) 0.43905(11)
H25B H 0.2142 0.7272 0.4309
H26B H 0.2228 0.6098 0.4634
H27B H 0.2413 0.5975 0.4149
C32B C 0.32501(14) 0.6023(3) 0.46438(11)
H28B H 0.3581 0.6380 0.4722
H29B H 0.3291 0.5428 0.4403
H30B H 0.3107 0.5556 0.4888
C33B C 0.28046(14) 0.8027(3) 0.49106(10)
H31B H 0.2572 0.8727 0.4834
H32B H 0.3129 0.8395 0.5002
H33B H 0.2659 0.7518 0.5144
C34B C 0.43492(11) 0.9999(2) 0.39691(9)
H34B H 0.4354 1.0332 0.4265
H35B H 0.4388 1.0749 0.3775
C35B C 0.50306(11) 0.8845(2) 0.35021(9)
C36B C 0.48089(11) 0.9082(2) 0.39072(9)
C37B C 0.50249(12) 0.8437(2) 0.42692(10)
H36B H 0.4879 0.8573 0.4542
C38B C 0.54505(12) 0.7598(2) 0.42320(10)
C39B C 0.56526(11) 0.7389(2) 0.38211(10)
H37B H 0.5930 0.6814 0.3790
C40B C 0.54553(11) 0.8009(2) 0.34504(9)
C41B C 0.56995(14) 0.6898(3) 0.46269(10)
C42B C 0.62629(14) 0.7315(4) 0.46724(13)
H38B H 0.6444 0.7121 0.4407
H39B H 0.6419 0.6841 0.4909
H40B H 0.6280 0.8246 0.4729
C43B C 0.56868(17) 0.5405(3) 0.45506(12)
H41B H 0.5867 0.5199 0.4286
H42B H 0.5335 0.5116 0.4528
H43B H 0.5850 0.4963 0.4790
C44B C 0.54242(17) 0.7208(3) 0.50416(12)
H44B H 0.5589 0.6755 0.5278
H45B H 0.5071 0.6925 0.5020
H46B H 0.5435 0.8142 0.5093
C45B C 0.42983(11) 0.7768(2) 0.19833(9)
H47B H 0.4538 0.8039 0.2209
H48B H 0.4243 0.6826 0.2016
N3 N 0.41634(16) 0.1076(3) 0.02400(12)
C46 C 0.45123(15) 0.2103(3) 0.09569(11)
H49 H 0.4526 0.1430 0.1177
H50 H 0.4287 0.2800 0.1050
H51 H 0.4853 0.2451 0.0910
C47 C 0.43152(16) 0.1531(3) 0.05478(14)
loop_
_geom_bond_atom_site_label_1
_geom_bond_atom_site_label_2
_geom_bond_site_symmetry_1
_geom_bond_site_symmetry_2
O1 C6 1_555 1_555
O2 C6 1_555 1_555
O3 C23 1_555 1_555
O4 C23 1_555 1_555
O5 H1 1_555 1_555
N1 C1 1_555 1_555
N2 C18 1_555 1_555
N3 C47 1_555 1_555
C1 H2 1_555 1_555
C2 C1 1_555 1_555
H3 C2 1_555 1_555
C3 C2 1_555 1_555
C4 C3 1_555 1_555
H4 C4 1_555 1_555
C5 N1 1_555 1_555
H5 C5 1_555 1_555
C6 C3 1_555 1_555
C7 O2 1_555 1_555
C8 C7 1_555 1_555
C9 C8 1_555 1_555
H6 C9 1_555 1_555
C10 C9 1_555 1_555
C11 C10 1_555 1_555
H7 C11 1_555 1_555
C12 C7 1_555 1_555
C13 C10 1_555 1_555
C14 C13 1_555 1_555
H8 C14 1_555 1_555
H9 C14 1_555 1_555
H10 C14 1_555 1_555
C15 C13 1_555 1_555
H11 C15 1_555 1_555
H12 C15 1_555 1_555
H13 C15 1_555 1_555
C16 C13 1_555 1_555
H14 C16 1_555 1_555
H15 C16 1_555 1_555
H16 C16 1_555 1_555
C17 C8 1_555 1_555
H17 C17 1_555 1_555
H18 C17 1_555 1_555
C18 H19 1_555 1_555
C19 C18 1_555 1_555
H20 C19 1_555 1_555
C20 C19 1_555 1_555
C21 C20 1_555 1_555
H21 C21 1_555 1_555
C22 N2 1_555 1_555
H22 C22 1_555 1_555
C23 C20 1_555 1_555
C24 O4 1_555 1_555
C25 C17 1_555 1_555
C26 C25 1_555 1_555
H23 C26 1_555 1_555
C27 C26 1_555 1_555
C28 C27 1_555 1_555
H24 C28 1_555 1_555
C29 C24 1_555 1_555
C30 C27 1_555 1_555
C31 C30 1_555 1_555
H25 C31 1_555 1_555
H26 C31 1_555 1_555
H27 C31 1_555 1_555
C32 C30 1_555 1_555
H28 C32 1_555 1_555
H29 C32 1_555 1_555
H30 C32 1_555 1_555
C33 C30 1_555 1_555
H31 C33 1_555 1_555
H32 C33 1_555 1_555
H33 C33 1_555 1_555
C34 C29 1_555 1_555
H34 C34 1_555 1_555
H35 C34 1_555 1_555
C35 O5 1_555 1_555
C36 C34 1_555 1_555
C37 C36 1_555 1_555
H36 C37 1_555 1_555
C38 C37 1_555 1_555
C39 C38 1_555 1_555
H37 C39 1_555 1_555
C40 C35 1_555 1_555
C41 C38 1_555 1_555
C42 C41 1_555 1_555
H38 C42 1_555 1_555
H39 C42 1_555 1_555
H40 C42 1_555 1_555
C43 C41 1_555 1_555
H41 C43 1_555 1_555
H42 C43 1_555 1_555
H43 C43 1_555 1_555
C44 C41 1_555 1_555
H44 C44 1_555 1_555
H45 C44 1_555 1_555
H46 C44 1_555 1_555
C45 C12 1_555 1_555
H47 C45 1_555 1_555
H48 C45 1_555 1_555
C46 H49 1_555 1_555
H50 C46 1_555 1_555
H51 C46 1_555 1_555
C47 C46 1_555 1_555
O1B C6B 1_555 1_555
O2B C6B 1_555 1_555
O3B C23B 1_555 1_555
O4B C23B 1_555 1_555
O5B H1B 1_555 1_555
N1B C1B 1_555 1_555
N2B C18B 1_555 1_555
C1B H2B 1_555 1_555
C2B C1B 1_555 1_555
H3B C2B 1_555 1_555
C3B C2B 1_555 1_555
C4B C3B 1_555 1_555
H4B C4B 1_555 1_555
C5B N1B 1_555 1_555
H5B C5B 1_555 1_555
C6B C3B 1_555 1_555
C7B O2B 1_555 1_555
C8B C7B 1_555 1_555
C9B C8B 1_555 1_555
H6B C9B 1_555 1_555
C10B C9B 1_555 1_555
C11B C10B 1_555 1_555
H7B C11B 1_555 1_555
C12B C7B 1_555 1_555
C13B C10B 1_555 1_555
C14B C13B 1_555 1_555
H8B C14B 1_555 1_555
H9B C14B 1_555 1_555
H10B C14B 1_555 1_555
C15B C13B 1_555 1_555
H11B C15B 1_555 1_555
H12B C15B 1_555 1_555
H13B C15B 1_555 1_555
C16B C13B 1_555 1_555
H14B C16B 1_555 1_555
H15B C16B 1_555 1_555
H16B C16B 1_555 1_555
C17B C8B 1_555 1_555
H17B C17B 1_555 1_555
H18B C17B 1_555 1_555
C18B H19B 1_555 1_555
C19B C18B 1_555 1_555
H20B C19B 1_555 1_555
C20B C19B 1_555 1_555
C21B C20B 1_555 1_555
H21B C21B 1_555 1_555
C22B N2B 1_555 1_555
H22B C22B 1_555 1_555
C23B C20B 1_555 1_555
C24B O4B 1_555 1_555
C25B C17B 1_555 1_555
C26B C25B 1_555 1_555
H23B C26B 1_555 1_555
C27B C26B 1_555 1_555
C28B C27B 1_555 1_555
H24B C28B 1_555 1_555
C29B C24B 1_555 1_555
C30B C27B 1_555 1_555
C31B C30B 1_555 1_555
H25B C31B 1_555 1_555
H26B C31B 1_555 1_555
H27B C31B 1_555 1_555
C32B C30B 1_555 1_555
H28B C32B 1_555 1_555
H29B C32B 1_555 1_555
H30B C32B 1_555 1_555
C33B C30B 1_555 1_555
H31B C33B 1_555 1_555
H32B C33B 1_555 1_555
H33B C33B 1_555 1_555
C34B C29B 1_555 1_555
H34B C34B 1_555 1_555
H35B C34B 1_555 1_555
C35B O5B 1_555 1_555
C36B C34B 1_555 1_555
C37B C36B 1_555 1_555
H36B C37B 1_555 1_555
C38B C37B 1_555 1_555
C39B C38B 1_555 1_555
H37B C39B 1_555 1_555
C40B C45 1_555 1_555
C41B C38B 1_555 1_555
C42B C41B 1_555 1_555
H38B C42B 1_555 1_555
H39B C42B 1_555 1_555
H40B C42B 1_555 1_555
C43B C41B 1_555 1_555
H41B C43B 1_555 1_555
H42B C43B 1_555 1_555
H43B C43B 1_555 1_555
C44B C41B 1_555 1_555
H44B C44B 1_555 1_555
H45B C44B 1_555 1_555
H46B C44B 1_555 1_555
C45B C40 1_555 1_555
H47B C45B 1_555 1_555
H48B C45B 1_555 1_555
C4 C5 1_555 1_555
C11 C12 1_555 1_555
C21 C22 1_555 1_555
C24 C25 1_555 1_555
C28 C29 1_555 1_555
C35 C36 1_555 1_555
C39 C40 1_555 1_555
C4B C5B 1_555 1_555
C11B C12B 1_555 1_555
C12B C45B 1_555 1_555
C21B C22B 1_555 1_555
C24B C25B 1_555 1_555
C28B C29B 1_555 1_555
C35B C36B 1_555 1_555
C35B C40B 1_555 1_555
C39B C40B 1_555 1_555

#END
