
#######################################################################
#
#                 Cambridge Crystallographic Data Centre
#                                CCDC 
#
#######################################################################
#
# If this CIF has been generated from an entry in the Cambridge 
# Structural Database, then it will include bibliographic, chemical, 
# crystal, experimental, refinement or atomic coordinate data resulting 
# from the CCDC's data processing and validation procedures.
#
#######################################################################

data_VAMVEM
_chemical_formula_moiety         'C56 H62 N2 O6,2(C2 H6 O1)'
_chemical_name_systematic        
'5,11,17,23-Tetra-t-butyl-26,28-dihydroxycalix(4)arene-25,27-diyl diisonicotinate ethanol solvate'
_symmetry_cell_setting           monoclinic
_symmetry_space_group_name_H-M   'P 21/c'
_symmetry_Int_Tables_number      14
_space_group_name_Hall           '-P 2ybc'
loop_
_symmetry_equiv_pos_site_id
_symmetry_equiv_pos_as_xyz
1 x,y,z
2 -x,1/2+y,1/2-z
3 -x,-y,-z
4 x,1/2-y,1/2+z
_cell_length_a                   12.5693(2)
_cell_length_b                   19.6453(3)
_cell_length_c                   11.1577(2)
_cell_angle_alpha                90
_cell_angle_beta                 101.3310(10)
_cell_angle_gamma                90
_cell_volume                     2701.44
_exptl_crystal_colour            colorless
_exptl_crystal_description       block
_cell_formula_units_Z            2
loop_
_atom_site_label
_atom_site_type_symbol
_atom_site_fract_x
_atom_site_fract_y
_atom_site_fract_z
O1 O -0.06234(8) 0.41967(4) 0.90584(8)
O2 O -0.08571(10) 0.31987(6) 0.80524(11)
O3 O 0.11071(8) 0.43791(5) 1.19706(9)
H1 H 0.1486 0.4657 1.2410
N1 N 0.11942(11) 0.46354(7) 0.55772(12)
C1 C 0.05655(14) 0.40869(9) 0.53112(14)
H3 H 0.0505 0.3892 0.4541
C2 C 0.00006(13) 0.37948(8) 0.61227(13)
H4 H -0.0423 0.3409 0.5910
C3 C 0.00825(11) 0.40926(7) 0.72657(12)
C4 C 0.07208(11) 0.46625(7) 0.75563(12)
H5 H 0.0783 0.4873 0.8314
C5 C 0.12669(13) 0.49121(8) 0.66826(13)
H6 H 0.1707 0.5292 0.6878
C6 C -0.05159(11) 0.37689(7) 0.81479(13)
C7 C -0.12066(11) 0.39480(6) 0.99302(12)
C8 C -0.22428(11) 0.42072(6) 0.98671(12)
C9 C -0.28292(11) 0.39804(7) 1.07328(12)
H7 H -0.3527 0.4147 1.0703
C10 C -0.24003(11) 0.35127(7) 1.16394(12)
C11 C -0.13507(12) 0.32807(7) 1.16621(13)
H8 H -0.1048 0.2974 1.2269
C12 C -0.07301(11) 0.34864(6) 1.08160(13)
C13 C -0.30677(12) 0.32270(7) 1.25417(13)
C14 C -0.34120(14) 0.24992(8) 1.21402(16)
H9 H -0.3858 0.2509 1.1336
H10 H -0.3815 0.2305 1.2703
H11 H -0.2778 0.2228 1.2130
C15 C -0.40809(14) 0.36578(9) 1.25641(17)
H12 H -0.3872 0.4123 1.2735
H13 H -0.4441 0.3490 1.3188
H14 H -0.4564 0.3630 1.1784
C16 C -0.23869(15) 0.32032(9) 1.38443(14)
H15 H -0.1754 0.2928 1.3853
H16 H -0.2811 0.3010 1.4387
H17 H -0.2170 0.3656 1.4108
C17 C 0.03721(12) 0.31550(7) 1.08829(16)
H18 H 0.0625 0.3008 1.1720
H19 H 0.0260 0.2747 1.0383
C18 C 0.12867(11) 0.35518(7) 1.05071(13)
C19 C 0.18409(11) 0.32852(7) 0.96537(13)
H20 H 0.1619 0.2869 0.9293
C20 C 0.27196(11) 0.36191(7) 0.93161(13)
C21 C 0.29805(11) 0.42535(7) 0.98267(12)
H21 H 0.3543 0.4495 0.9593
C22 C 0.24396(10) 0.45506(7) 1.06779(12)
C23 C 0.16256(11) 0.41739(7) 1.10647(12)
C24 C 0.33838(12) 0.32778(8) 0.84627(14)
C25 C 0.26655(19) 0.2943(2) 0.7400(2)
H22 H 0.3103 0.2730 0.6892
H23 H 0.2205 0.3278 0.6934
H24 H 0.2227 0.2605 0.7692
C26 C 0.4116(3) 0.27570(16) 0.9201(2)
H25 H 0.3684 0.2433 0.9538
H26 H 0.4603 0.2981 0.9852
H27 H 0.4525 0.2526 0.8683
C27 C 0.4101(3) 0.37780(12) 0.7962(3)
H28 H 0.4497 0.3544 0.7434
H29 H 0.4601 0.3982 0.8626
H30 H 0.3660 0.4126 0.7508
C28 C 0.27321(11) 0.52768(7) 1.10941(12)
H31 H 0.2473 0.5366 1.1842
H32 H 0.3515 0.5326 1.1269
O1B O 0.06234(8) 0.58033(4) 1.09416(8)
O2B O 0.08571(10) 0.68013(6) 1.19476(11)
O3B O -0.11071(8) 0.56209(5) 0.80294(9)
H1B H -0.1486 0.5343 0.7590
N1B N -0.11942(11) 0.53646(7) 1.44228(12)
C1B C -0.05655(14) 0.59131(9) 1.46888(14)
H3B H -0.0505 0.6108 1.5459
C2B C -0.00006(13) 0.62052(8) 1.38773(13)
H4B H 0.0423 0.6591 1.4090
C3B C -0.00825(11) 0.59074(7) 1.27343(12)
C4B C -0.07208(11) 0.53375(7) 1.24437(12)
H5B H -0.0783 0.5127 1.1686
C5B C -0.12669(13) 0.50879(8) 1.33174(13)
H6B H -0.1707 0.4708 1.3122
C6B C 0.05159(11) 0.62311(7) 1.18521(13)
C7B C 0.12066(11) 0.60520(6) 1.00698(12)
C8B C 0.22428(11) 0.57928(6) 1.01329(12)
C9B C 0.28292(11) 0.60196(7) 0.92672(12)
H7B H 0.3527 0.5853 0.9297
C10B C 0.24003(11) 0.64873(7) 0.83606(12)
C11B C 0.13507(12) 0.67193(7) 0.83379(13)
H8B H 0.1048 0.7026 0.7731
C12B C 0.07301(11) 0.65136(6) 0.91840(13)
C13B C 0.30677(12) 0.67730(7) 0.74583(13)
C14B C 0.34120(14) 0.75008(8) 0.78598(16)
H9B H 0.3858 0.7491 0.8664
H10B H 0.3815 0.7695 0.7297
H11B H 0.2778 0.7772 0.7870
C15B C 0.40809(14) 0.63422(9) 0.74359(17)
H12B H 0.3872 0.5877 0.7265
H13B H 0.4441 0.6510 0.6812
H14B H 0.4564 0.6370 0.8216
C16B C 0.23869(15) 0.67968(9) 0.61557(14)
H15B H 0.1754 0.7072 0.6147
H16B H 0.2811 0.6990 0.5613
H17B H 0.2170 0.6344 0.5892
C17B C -0.03721(12) 0.68450(7) 0.91171(16)
H18B H -0.0625 0.6992 0.8280
H19B H -0.0260 0.7253 0.9617
C18B C -0.12867(11) 0.64482(7) 0.94929(13)
C19B C -0.18409(11) 0.67148(7) 1.03463(13)
H20B H -0.1619 0.7131 1.0707
C20B C -0.27196(11) 0.63809(7) 1.06839(13)
C21B C -0.29805(11) 0.57465(7) 1.01733(12)
H21B H -0.3543 0.5505 1.0407
C22B C -0.24396(10) 0.54494(7) 0.93221(12)
C23B C -0.16256(11) 0.58261(7) 0.89353(12)
C24B C -0.33838(12) 0.67222(8) 1.15373(14)
C25B C -0.26655(19) 0.7057(2) 1.2600(2)
H22B H -0.3103 0.7270 1.3108
H23B H -0.2205 0.6722 1.3066
H24B H -0.2227 0.7395 1.2308
C26B C -0.4116(3) 0.72430(16) 1.0799(2)
H25B H -0.3684 0.7567 1.0462
H26B H -0.4603 0.7019 1.0148
H27B H -0.4525 0.7474 1.1317
C27B C -0.4101(3) 0.62220(12) 1.2038(3)
H28B H -0.4497 0.6456 1.2566
H29B H -0.4601 0.6018 1.1374
H30B H -0.3660 0.5874 1.2492
C28B C -0.27321(11) 0.47232(7) 0.89059(12)
H31B H -0.2473 0.4634 0.8158
H32B H -0.3515 0.4674 0.8731
O4 O 0.22644(10) 0.51488(7) 0.38608(10)
H2 H 0.1886 0.5002 0.4323
C29 C 0.33679(17) 0.49883(14) 0.43340(18)
H33 H 0.3546 0.5116 0.5190
H34 H 0.3825 0.5252 0.3902
C30 C 0.3604(2) 0.42509(17) 0.4216(2)
H35 H 0.3148 0.3987 0.4635
H36 H 0.4351 0.4164 0.4569
H37 H 0.3465 0.4127 0.3367
loop_
_geom_bond_atom_site_label_1
_geom_bond_atom_site_label_2
_geom_bond_site_symmetry_1
_geom_bond_site_symmetry_2
O1 C6 1_555 1_555
O2 C6 1_555 1_555
O3 H1 1_555 1_555
O4 H2 1_555 1_555
N1 C1 1_555 1_555
C1 H3 1_555 1_555
C2 C1 1_555 1_555
H4 C2 1_555 1_555
C3 C2 1_555 1_555
C4 C3 1_555 1_555
H5 C4 1_555 1_555
C5 N1 1_555 1_555
H6 C5 1_555 1_555
C6 C3 1_555 1_555
C7 O1 1_555 1_555
C8 C7 1_555 1_555
C9 C8 1_555 1_555
H7 C9 1_555 1_555
C10 C9 1_555 1_555
C11 C10 1_555 1_555
H8 C11 1_555 1_555
C12 C7 1_555 1_555
C13 C10 1_555 1_555
C14 C13 1_555 1_555
H9 C14 1_555 1_555
H10 C14 1_555 1_555
H11 C14 1_555 1_555
C15 C13 1_555 1_555
H12 C15 1_555 1_555
H13 C15 1_555 1_555
H14 C15 1_555 1_555
C16 C13 1_555 1_555
H15 C16 1_555 1_555
H16 C16 1_555 1_555
H17 C16 1_555 1_555
C17 C12 1_555 1_555
H18 C17 1_555 1_555
H19 C17 1_555 1_555
C18 C17 1_555 1_555
C19 C18 1_555 1_555
H20 C19 1_555 1_555
C20 C19 1_555 1_555
C21 C20 1_555 1_555
H21 C21 1_555 1_555
C22 C21 1_555 1_555
C23 O3 1_555 1_555
C24 C20 1_555 1_555
C25 C24 1_555 1_555
H22 C25 1_555 1_555
H23 C25 1_555 1_555
H24 C25 1_555 1_555
C26 C24 1_555 1_555
H25 C26 1_555 1_555
H26 C26 1_555 1_555
H27 C26 1_555 1_555
C27 C24 1_555 1_555
H28 C27 1_555 1_555
H29 C27 1_555 1_555
H30 C27 1_555 1_555
C28 C22 1_555 1_555
H31 C28 1_555 1_555
H32 C28 1_555 1_555
C29 O4 1_555 1_555
H33 C29 1_555 1_555
H34 C29 1_555 1_555
C30 C29 1_555 1_555
H35 C30 1_555 1_555
H36 C30 1_555 1_555
H37 C30 1_555 1_555
O1B C6B 1_555 1_555
O2B C6B 1_555 1_555
O3B H1B 1_555 1_555
N1B C1B 1_555 1_555
C1B H3B 1_555 1_555
C2B C1B 1_555 1_555
H4B C2B 1_555 1_555
C3B C2B 1_555 1_555
C4B C3B 1_555 1_555
H5B C4B 1_555 1_555
C5B N1B 1_555 1_555
H6B C5B 1_555 1_555
C6B C3B 1_555 1_555
C7B O1B 1_555 1_555
C8B C28 1_555 1_555
C9B C8B 1_555 1_555
H7B C9B 1_555 1_555
C10B C9B 1_555 1_555
C11B C10B 1_555 1_555
H8B C11B 1_555 1_555
C12B C7B 1_555 1_555
C13B C10B 1_555 1_555
C14B C13B 1_555 1_555
H9B C14B 1_555 1_555
H10B C14B 1_555 1_555
H11B C14B 1_555 1_555
C15B C13B 1_555 1_555
H12B C15B 1_555 1_555
H13B C15B 1_555 1_555
H14B C15B 1_555 1_555
C16B C13B 1_555 1_555
H15B C16B 1_555 1_555
H16B C16B 1_555 1_555
H17B C16B 1_555 1_555
C17B C12B 1_555 1_555
H18B C17B 1_555 1_555
H19B C17B 1_555 1_555
C18B C17B 1_555 1_555
C19B C18B 1_555 1_555
H20B C19B 1_555 1_555
C20B C19B 1_555 1_555
C21B C20B 1_555 1_555
H21B C21B 1_555 1_555
C22B C21B 1_555 1_555
C23B O3B 1_555 1_555
C24B C20B 1_555 1_555
C25B C24B 1_555 1_555
H22B C25B 1_555 1_555
H23B C25B 1_555 1_555
H24B C25B 1_555 1_555
C26B C24B 1_555 1_555
H25B C26B 1_555 1_555
H26B C26B 1_555 1_555
H27B C26B 1_555 1_555
C27B C24B 1_555 1_555
H28B C27B 1_555 1_555
H29B C27B 1_555 1_555
H30B C27B 1_555 1_555
C28B C8 1_555 1_555
H31B C28B 1_555 1_555
H32B C28B 1_555 1_555
C4 C5 1_555 1_555
C11 C12 1_555 1_555
C18 C23 1_555 1_555
C22 C23 1_555 1_555
C4B C5B 1_555 1_555
C7B C8B 1_555 1_555
C11B C12B 1_555 1_555
C18B C23B 1_555 1_555
C22B C23B 1_555 1_555
C22B C28B 1_555 1_555

#END
