
#######################################################################
#
#                 Cambridge Crystallographic Data Centre
#                                CCDC 
#
#######################################################################
#
# If this CIF has been generated from an entry in the Cambridge 
# Structural Database, then it will include bibliographic, chemical, 
# crystal, experimental, refinement or atomic coordinate data resulting 
# from the CCDC's data processing and validation procedures.
#
#######################################################################

data_VAMXIT
_chemical_formula_moiety         'C30 H36 N4 O6'
_chemical_name_systematic        
2,2',2''-(nitrilotris((ethane-2,1-diyl)iminomethyl))tris(6-methoxyphenol)
_symmetry_cell_setting           orthorhombic
_symmetry_space_group_name_H-M   'P 21 21 21'
_symmetry_Int_Tables_number      19
_space_group_name_Hall           'P 2ac 2ab'
loop_
_symmetry_equiv_pos_site_id
_symmetry_equiv_pos_as_xyz
1 x,y,z
2 1/2-x,-y,1/2+z
3 -x,1/2+y,1/2-z
4 1/2+x,1/2-y,-z
_cell_length_a                   6.29545(12)
_cell_length_b                   15.9502(4)
_cell_length_c                   28.8235(7)
_cell_angle_alpha                90
_cell_angle_beta                 90
_cell_angle_gamma                90
_cell_volume                     2894.27
_exptl_crystal_colour            'yellowish yellow'
_exptl_crystal_description       needle
_cell_formula_units_Z            4
loop_
_atom_site_label
_atom_site_type_symbol
_atom_site_fract_x
_atom_site_fract_y
_atom_site_fract_z
O1 O 0.2053(4) 0.26138(14) 0.64107(10)
H1 H 0.3076 0.2657 0.6236
O2 O 1.3024(4) 0.56514(16) 0.65945(8)
H2 H 1.1963 0.5428 0.6485
O3 O 1.6453(4) 0.61799(18) 0.70076(9)
O4 O -0.1399(4) 0.23008(16) 0.68783(10)
N1 N 0.5085(4) 0.20946(18) 0.58863(9)
N2 N 0.9866(5) 0.46452(18) 0.65537(9)
N3 N 0.6428(4) 0.37870(18) 0.56166(12)
O5 O -0.1483(6) 0.6709(2) 0.38729(12)
O6 O 0.0655(7) 0.5747(2) 0.44400(15)
H3 H 0.1364 0.5516 0.4642
C1 C 1.3627(5) 0.52391(18) 0.69753(10)
C2 C 0.2432(5) 0.1171(2) 0.61786(10)
C3 C 0.1368(5) 0.18166(19) 0.64117(11)
C4 C 1.5482(5) 0.5509(2) 0.72051(11)
C5 C 1.2502(5) 0.45517(19) 0.71476(11)
C6 C 0.4353(6) 0.1360(2) 0.59155(11)
H4 H 0.5059 0.0927 0.5765
C7 C 1.0587(6) 0.4273(2) 0.69129(12)
H5 H 0.9862 0.3810 0.7028
C8 C -0.0492(5) 0.1632(2) 0.66623(12)
C9 C 0.0324(7) 0.7050(2) 0.40602(13)
C10 C 1.5013(7) 0.4430(3) 0.77731(13)
H6 H 1.5465 0.4164 0.8043
C11 C -0.1281(6) 0.0825(2) 0.66675(13)
H7 H -0.2525 0.0704 0.6828
C12 C 0.8369(5) 0.4086(2) 0.58426(13)
H8 H 0.8928 0.4563 0.5673
H9 H 0.9432 0.3646 0.5838
C13 C 0.7931(6) 0.4337(2) 0.63340(13)
H10 H 0.6854 0.4772 0.6339
H11 H 0.7394 0.3858 0.6505
C14 C 0.1444(8) 0.6515(2) 0.43581(14)
C15 C 0.6760(6) 0.3050(2) 0.53348(11)
H12 H 0.8027 0.3127 0.5148
H13 H 0.5566 0.2983 0.5125
C16 C 0.7000(6) 0.2262(2) 0.56235(13)
H14 H 0.7300 0.1791 0.5421
H15 H 0.8187 0.2327 0.5835
C17 C 1.6150(6) 0.5105(2) 0.76003(13)
H16 H 1.7369 0.5286 0.7752
C18 C 0.1635(7) 0.0356(2) 0.61922(13)
H17 H 0.2348 -0.0074 0.6040
C19 C 1.3226(7) 0.4150(2) 0.75491(13)
H18 H 1.2491 0.3689 0.7665
C20 C -0.0198(8) 0.0190(2) 0.64298(16)
H19 H -0.0734 -0.0353 0.6434
C21 C 1.8279(6) 0.6514(3) 0.72235(16)
H20 H 1.8807 0.6976 0.7044
H21 H 1.9353 0.6088 0.7244
H22 H 1.7921 0.6706 0.7529
C22 C 0.1101(9) 0.7839(3) 0.39763(16)
H23 H 0.0352 0.8196 0.3781
C23 C 0.3350(9) 0.6792(3) 0.45550(15)
C24 C -0.3297(6) 0.2161(3) 0.71334(16)
H24 H -0.4351 0.1920 0.6933
H25 H -0.3809 0.2684 0.7254
H26 H -0.3013 0.1784 0.7386
C25 C 0.2959(10) 0.8113(3) 0.4175(2)
H27 H 0.3457 0.8650 0.4111
C26 C 0.4078(9) 0.7600(3) 0.44651(18)
H28 H 0.5324 0.7791 0.4603
C27 C -0.2566(10) 0.7189(4) 0.3534(2)
H29 H -0.1588 0.7353 0.3295
H30 H -0.3160 0.7680 0.3676
H31 H -0.3685 0.6859 0.3400
C28 C 0.490(2) 0.6189(5) 0.4768(4)
H32 H 0.6248 0.6373 0.4850
N4 N 0.4388(10) 0.5440(3) 0.4837(2)
C29 C 0.5959(11) 0.4855(5) 0.5028(3)
H33 H 0.7379 0.4948 0.4955
C30 C 0.5060(10) 0.4451(4) 0.5472(3)
H34 H 0.4080 0.4170 0.5287
C31? C 0.404(3) 0.6318(9) 0.4965(7)
H35? H 0.5107 0.6556 0.5145
C32? C 0.4481(19) 0.5117(7) 0.5452(4)
H36? H 0.4798 0.5427 0.5716
N5? N 0.3318(16) 0.5615(6) 0.5094(4)
C33? C 0.5675(18) 0.4441(7) 0.5199(5)
H37? H 0.4315 0.4273 0.5115
loop_
_geom_bond_atom_site_label_1
_geom_bond_atom_site_label_2
_geom_bond_site_symmetry_1
_geom_bond_site_symmetry_2
O1 H1 1_555 1_555
O2 H2 1_555 1_555
O3 C4 1_555 1_555
O4 C8 1_555 1_555
N1 C6 1_555 1_555
N2 C7 1_555 1_555
N3 C12 1_555 1_555
O5 C9 1_555 1_555
O6 H3 1_555 1_555
C1 O2 1_555 1_555
C2 C3 1_555 1_555
C3 O1 1_555 1_555
C4 C1 1_555 1_555
C5 C1 1_555 1_555
C6 C2 1_555 1_555
H4 C6 1_555 1_555
C7 C5 1_555 1_555
H5 C7 1_555 1_555
C8 C3 1_555 1_555
C9 C14 1_555 1_555
C10 H6 1_555 1_555
C11 C8 1_555 1_555
H7 C11 1_555 1_555
C12 H8 1_555 1_555
H9 C12 1_555 1_555
C13 N2 1_555 1_555
H10 C13 1_555 1_555
H11 C13 1_555 1_555
C14 O6 1_555 1_555
C15 N3 1_555 1_555
H12 C15 1_555 1_555
H13 C15 1_555 1_555
C16 N1 1_555 1_555
H14 C16 1_555 1_555
H15 C16 1_555 1_555
C17 C4 1_555 1_555
H16 C17 1_555 1_555
C18 C2 1_555 1_555
H17 C18 1_555 1_555
C19 C5 1_555 1_555
H18 C19 1_555 1_555
C20 C11 1_555 1_555
H19 C20 1_555 1_555
C21 O3 1_555 1_555
H20 C21 1_555 1_555
H21 C21 1_555 1_555
H22 C21 1_555 1_555
C22 C9 1_555 1_555
H23 C22 1_555 1_555
C23 C14 1_555 1_555
C24 O4 1_555 1_555
H24 C24 1_555 1_555
H25 C24 1_555 1_555
H26 C24 1_555 1_555
C25 C22 1_555 1_555
H27 C25 1_555 1_555
C26 C23 1_555 1_555
H28 C26 1_555 1_555
C27 O5 1_555 1_555
H29 C27 1_555 1_555
H30 C27 1_555 1_555
H31 C27 1_555 1_555
C28 C23 1_555 1_555
H32 C28 1_555 1_555
N4 C28 1_555 1_555
C29 N4 1_555 1_555
H33 C29 1_555 1_555
C30 N3 1_555 1_555
H34 C30 1_555 1_555
C10 C17 1_555 1_555
C10 C19 1_555 1_555
C12 C13 1_555 1_555
C15 C16 1_555 1_555
C18 C20 1_555 1_555
C25 C26 1_555 1_555
C29 C30 1_555 1_555

#END
