
#######################################################################
#
#                 Cambridge Crystallographic Data Centre
#                                CCDC 
#
#######################################################################
#
# If this CIF has been generated from an entry in the Cambridge 
# Structural Database, then it will include bibliographic, chemical, 
# crystal, experimental, refinement or atomic coordinate data resulting 
# from the CCDC's data processing and validation procedures.
#
#######################################################################

data_VAMZOA
_chemical_formula_moiety         'C13 H9 Cl1 O2'
_chemical_name_systematic        2-Chloro-6-methoxydibenzo[b,d]furan
_symmetry_cell_setting           monoclinic
_symmetry_space_group_name_H-M   'P 21/c'
_symmetry_Int_Tables_number      14
_space_group_name_Hall           '-P 2ybc'
loop_
_symmetry_equiv_pos_site_id
_symmetry_equiv_pos_as_xyz
1 x,y,z
2 -x,1/2+y,1/2-z
3 -x,-y,-z
4 x,1/2-y,1/2+z
_cell_length_a                   31.583(3)
_cell_length_b                   3.9551(3)
_cell_length_c                   17.4001(16)
_cell_angle_alpha                90
_cell_angle_beta                 105.9480(10)
_cell_angle_gamma                90
_cell_volume                     2089.86
_cell_formula_units_Z            8
loop_
_atom_site_label
_atom_site_type_symbol
_atom_site_fract_x
_atom_site_fract_y
_atom_site_fract_z
Cl1 Cl 0.51348(10) 0.1965(10) 0.39380(18)
O1 O 0.3389(2) 0.683(2) 0.2233(4)
O2 O 0.2666(2) 0.800(2) 0.0919(4)
C1 C 0.3380(3) 0.589(3) 0.1458(6)
C2 C 0.3036(3) 0.641(3) 0.0795(6)
C3 C 0.3089(4) 0.540(3) 0.0066(6)
H1 H 0.2874 0.5907 -0.0404
C4 C 0.3470(4) 0.361(3) 0.0038(7)
H2 H 0.3489 0.2810 -0.0454
C5 C 0.3815(4) 0.299(3) 0.0702(6)
H3 H 0.4066 0.1816 0.0674
C6 C 0.3762(3) 0.424(3) 0.1428(6)
C7 C 0.4047(3) 0.412(3) 0.2245(6)
C8 C 0.3789(3) 0.569(3) 0.2697(6)
C9 C 0.3940(4) 0.609(3) 0.3516(6)
H4 H 0.3771 0.7144 0.3806
C10 C 0.4364(4) 0.482(3) 0.3890(6)
H5 H 0.4478 0.4991 0.4441
C11 C 0.4608(3) 0.332(2) 0.3433(6)
C12 C 0.4458(3) 0.280(3) 0.2624(5)
H6 H 0.4623 0.1630 0.2345
C13 C 0.2325(4) 0.874(4) 0.0216(8)
H7 H 0.2446 0.9889 -0.0160
H8 H 0.2108 1.0155 0.0349
H9 H 0.2189 0.6670 -0.0016
Cl2 Cl -0.01400(9) -0.3188(9) 0.38005(18)
O3 O 0.1612(2) 0.1661(19) 0.3853(4)
O4 O 0.2333(2) 0.265(2) 0.3266(4)
C14 C 0.1618(3) 0.068(3) 0.3093(6)
C15 C 0.1977(4) 0.128(3) 0.2787(6)
C16 C 0.1926(4) 0.009(3) 0.2005(6)
H10 H 0.2153 0.0355 0.1765
C17 C 0.1535(4) -0.150(4) 0.1587(7)
H11 H 0.1511 -0.2225 0.1068
C18 C 0.1189(3) -0.206(3) 0.1889(6)
H12 H 0.0935 -0.3151 0.1596
C19 C 0.1237(3) -0.090(3) 0.2670(6)
C20 C 0.0961(3) -0.101(2) 0.3213(6)
C21 C 0.0542(3) -0.231(2) 0.3177(5)
H13 H 0.0376 -0.3445 0.2726
C22 C 0.0388(3) -0.185(3) 0.3832(6)
C23 C 0.0627(4) -0.019(3) 0.4527(6)
H14 H 0.0503 0.0126 0.4949
C24 C 0.1054(4) 0.101(3) 0.4590(6)
H15 H 0.1228 0.2002 0.5054
C25 C 0.1200(3) 0.060(3) 0.3910(5)
C26 C 0.2685(4) 0.351(4) 0.2942(8)
H16 H 0.2787 0.1508 0.2735
H17 H 0.2921 0.4472 0.3353
H18 H 0.2584 0.5118 0.2518
loop_
_geom_bond_atom_site_label_1
_geom_bond_atom_site_label_2
_geom_bond_site_symmetry_1
_geom_bond_site_symmetry_2
Cl1 C11 1_555 1_555
O1 C1 1_555 1_555
O2 C2 1_555 1_555
C1 C2 1_555 1_555
C2 C3 1_555 1_555
C3 H1 1_555 1_555
C4 C3 1_555 1_555
H2 C4 1_555 1_555
C5 C4 1_555 1_555
H3 C5 1_555 1_555
C6 C1 1_555 1_555
C7 C6 1_555 1_555
C8 O1 1_555 1_555
C9 C8 1_555 1_555
H4 C9 1_555 1_555
C10 C9 1_555 1_555
H5 C10 1_555 1_555
C11 C10 1_555 1_555
C12 C7 1_555 1_555
H6 C12 1_555 1_555
C13 O2 1_555 1_555
H7 C13 1_555 1_555
H8 C13 1_555 1_555
H9 C13 1_555 1_555
Cl2 C22 1_555 1_555
O3 C14 1_555 1_555
O4 C15 1_555 1_555
C14 C15 1_555 1_555
C15 C16 1_555 1_555
C16 H10 1_555 1_555
C17 C16 1_555 1_555
H11 C17 1_555 1_555
C18 C17 1_555 1_555
H12 C18 1_555 1_555
C19 C14 1_555 1_555
C20 C19 1_555 1_555
C21 C20 1_555 1_555
H13 C21 1_555 1_555
C22 C21 1_555 1_555
C23 C22 1_555 1_555
H14 C23 1_555 1_555
C24 C23 1_555 1_555
H15 C24 1_555 1_555
C25 O3 1_555 1_555
C26 O4 1_555 1_555
H16 C26 1_555 1_555
H17 C26 1_555 1_555
H18 C26 1_555 1_555
C5 C6 1_555 1_555
C7 C8 1_555 1_555
C11 C12 1_555 1_555
C18 C19 1_555 1_555
C20 C25 1_555 1_555
C24 C25 1_555 1_555

#END
