
#######################################################################
#
#                 Cambridge Crystallographic Data Centre
#                                CCDC 
#
#######################################################################
#
# If this CIF has been generated from an entry in the Cambridge 
# Structural Database, then it will include bibliographic, chemical, 
# crystal, experimental, refinement or atomic coordinate data resulting 
# from the CCDC's data processing and validation procedures.
#
#######################################################################

data_VANQUW
_chemical_formula_moiety         'C27 H32 N1 O2 P1'
_chemical_name_systematic        
2-(1-Diphenylphosphinato-1-(1S,2S,5R)-menthyl)pyridine
_symmetry_cell_setting           monoclinic
_symmetry_space_group_name_H-M   'P 21'
_symmetry_Int_Tables_number      4
_space_group_name_Hall           'P 2yb'
loop_
_symmetry_equiv_pos_site_id
_symmetry_equiv_pos_as_xyz
1 x,y,z
2 -x,1/2+y,-z
_cell_length_a                   9.254(3)
_cell_length_b                   9.314(2)
_cell_length_c                   14.594(4)
_cell_angle_alpha                90
_cell_angle_beta                 105.14(2)
_cell_angle_gamma                90
_cell_volume                     1214.22
_exptl_crystal_description       needle
_cell_formula_units_Z            2
_exptl_crystal_recrystallization_method hexane
loop_
_atom_site_label
_atom_site_type_symbol
_atom_site_fract_x
_atom_site_fract_y
_atom_site_fract_z
P1 P 0.1795(1) 0.0401(1) 0.6449(1)
O1 O 0.0262(2) 0.0374(2) 0.5827(1)
O2 O 0.2025(2) 0.1122(2) 0.7461(1)
C1 C 0.0910(2) 0.1399(3) 0.8004(2)
C2 C 0.1832(3) 0.1875(3) 0.9007(2)
C3 C 0.2819(3) 0.3210(3) 0.9008(2)
C4 C 0.4391(3) 0.2876(5) 0.8902(3)
C5 C 0.2957(4) 0.4114(4) 0.9884(3)
C6 C 0.2656(3) 0.0605(4) 0.9576(2)
C7 C 0.1637(4) -0.0636(4) 0.9629(2)
C8 C 0.0863(3) -0.1182(3) 0.8627(2)
C9 C -0.0155(4) -0.2455(4) 0.8635(3)
C10 C 0.0003(3) 0.0053(3) 0.8051(2)
C11 C -0.0113(3) 0.2636(3) 0.7550(2)
C12 C 0.0096(3) 0.3466(3) 0.6815(2)
C13 C -0.0885(3) 0.4572(3) 0.6474(2)
C14 C -0.2042(3) 0.4822(4) 0.6877(2)
C15 C -0.2145(3) 0.3984(4) 0.7620(2)
N1 N -0.1223(2) 0.2900(3) 0.7963(2)
C16 C 0.2585(3) -0.1371(3) 0.6659(2)
C17 C 0.3802(3) -0.1724(3) 0.7423(2)
C18 C 0.4364(4) -0.3102(4) 0.7502(2)
C19 C 0.3748(8) -0.4130(3) 0.6849(2)
C20 C 0.2565(3) -0.3809(3) 0.6100(2)
C21 C 0.1986(3) -0.2432(3) 0.6006(2)
C22 C 0.3054(3) 0.1417(3) 0.5944(2)
C23 C 0.4603(3) 0.1279(3) 0.6241(2)
C24 C 0.5514(3) 0.2035(4) 0.5805(2)
C25 C 0.4902(4) 0.2954(4) 0.5079(3)
C26 C 0.3378(4) 0.3129(4) 0.4777(2)
C27 C 0.2467(3) 0.2355(3) 0.5206(2)
loop_
_geom_bond_atom_site_label_1
_geom_bond_atom_site_label_2
_geom_bond_site_symmetry_1
_geom_bond_site_symmetry_2
P1 O1 1_555 1_555
O2 P1 1_555 1_555
C1 O2 1_555 1_555
C2 C1 1_555 1_555
C3 C2 1_555 1_555
C4 C3 1_555 1_555
C5 C3 1_555 1_555
C6 C2 1_555 1_555
C7 C6 1_555 1_555
C8 C7 1_555 1_555
C9 C8 1_555 1_555
C10 C1 1_555 1_555
C11 C1 1_555 1_555
C12 C11 1_555 1_555
C13 C12 1_555 1_555
C14 C13 1_555 1_555
C15 C14 1_555 1_555
N1 C11 1_555 1_555
C16 P1 1_555 1_555
C17 C16 1_555 1_555
C18 C17 1_555 1_555
C19 C18 1_555 1_555
C20 C19 1_555 1_555
C21 C16 1_555 1_555
C22 P1 1_555 1_555
C23 C22 1_555 1_555
C24 C23 1_555 1_555
C25 C24 1_555 1_555
C26 C25 1_555 1_555
C27 C22 1_555 1_555
C8 C10 1_555 1_555
C15 N1 1_555 1_555
C20 C21 1_555 1_555
C26 C27 1_555 1_555

#END
