
#######################################################################
#
#                 Cambridge Crystallographic Data Centre
#                                CCDC 
#
#######################################################################
#
# If this CIF has been generated from an entry in the Cambridge 
# Structural Database, then it will include bibliographic, chemical, 
# crystal, experimental, refinement or atomic coordinate data resulting 
# from the CCDC's data processing and validation procedures.
#
#######################################################################

data_VANQEJ
_chemical_formula_moiety         'C47 H32 N2'
_chemical_name_systematic        
1-phenyl-2-(4-(triphenylvinyl)phenyl)-1H-phenanthro[9,10-d]imidazole
_symmetry_cell_setting           triclinic
_symmetry_space_group_name_H-M   'P -1'
_symmetry_Int_Tables_number      2
_space_group_name_Hall           '-P 1'
loop_
_symmetry_equiv_pos_site_id
_symmetry_equiv_pos_as_xyz
1 x,y,z
2 -x,-y,-z
_cell_length_a                   9.5519(19)
_cell_length_b                   9.984(2)
_cell_length_c                   18.342(4)
_cell_angle_alpha                82.20(3)
_cell_angle_beta                 80.51(3)
_cell_angle_gamma                78.19(3)
_cell_volume                     1679.3
_exptl_crystal_colour            yellow
_exptl_crystal_description       sheet
_cell_formula_units_Z            2
loop_
_atom_site_label
_atom_site_type_symbol
_atom_site_fract_x
_atom_site_fract_y
_atom_site_fract_z
N1 N 0.72273(19) 0.7328(2) 0.45177(10)
N2 N 0.75879(19) 0.51068(19) 0.43070(10)
C1 C 0.7138(2) 0.7236(2) 0.37815(12)
C2 C 0.7355(2) 0.5889(2) 0.36335(12)
C3 C 0.6840(2) 0.8364(2) 0.32232(12)
C4 C 0.6797(2) 0.8051(3) 0.24969(13)
C5 C 0.8803(2) 0.4225(3) 0.65899(13)
H1 H 0.9542 0.3527 0.6734
C6 C 0.7490(2) 0.6042(2) 0.48162(12)
C7 C 0.7640(2) 0.5638(2) 0.56054(12)
C8 C 0.7659(2) 0.3649(2) 0.44947(12)
C9 C 0.7843(2) 0.4480(3) 0.79407(13)
C10 C 0.8706(2) 0.4567(2) 0.58426(13)
H2 H 0.9359 0.4078 0.5494
C11 C 0.7062(2) 0.6621(3) 0.23404(13)
C12 C 0.6561(2) 0.9731(3) 0.33894(14)
H3 H 0.6591 0.9920 0.3869
C13 C 0.8169(2) 0.3142(3) 0.82220(13)
C14 C 0.7333(2) 0.5512(3) 0.29035(12)
C15 C 0.8259(2) 0.1979(3) 0.77788(13)
C16 C 0.6243(3) 1.0787(3) 0.28491(16)
H4 H 0.6056 1.1693 0.2961
C17 C 0.7817(2) 0.4902(3) 0.71360(13)
C18 C 0.7051(3) 0.6282(3) 0.16180(14)
H5 H 0.6866 0.6991 0.1242
C19 C 0.6791(3) 0.6004(3) 0.68860(14)
H6 H 0.6144 0.6504 0.7232
C20 C 0.7391(3) 0.5617(3) 0.84320(13)
C21 C 0.6470(3) 0.9172(3) 0.19635(14)
H7 H 0.6435 0.9005 0.1481
C22 C 0.8926(3) 0.2734(3) 0.43076(14)
H8 H 0.9741 0.3049 0.4052
C23 C 0.7568(3) 0.4153(3) 0.27202(15)
H9 H 0.7735 0.3424 0.3088
C24 C 0.7765(3) 0.0877(3) 0.48905(15)
H10 H 0.7800 -0.0061 0.5022
C25 C 0.8960(3) 0.1340(3) 0.45070(15)
H11 H 0.9802 0.0713 0.4379
C26 C 0.6462(2) 0.3179(3) 0.48834(15)
H12 H 0.5616 0.3799 0.5013
C27 C 0.6713(3) 0.6368(3) 0.61434(13)
H13 H 0.6026 0.7117 0.5997
C28 C 0.6200(3) 1.0506(3) 0.21318(15)
H14 H 0.5988 1.1226 0.1765
C29 C 0.8436(3) 0.2711(3) 0.90045(14)
C30 C 0.7084(3) 0.1858(3) 0.74523(15)
H15 H 0.6252 0.2531 0.7497
C31 C 0.6517(3) 0.1792(3) 0.50810(16)
H16 H 0.5709 0.1474 0.5343
C32 C 0.8032(3) 0.6765(3) 0.83266(15)
H17 H 0.8817 0.6816 0.7956
C33 C 0.7554(3) 0.3888(3) 0.20110(16)
H18 H 0.7715 0.2982 0.1902
C34 C 0.9529(3) -0.0149(3) 0.73150(17)
H19 H 1.0360 -0.0822 0.7264
C35 C 0.9480(3) 0.0940(3) 0.77096(14)
H20 H 1.0272 0.0985 0.7934
C36 C 0.7301(3) 0.4954(3) 0.14510(15)
H21 H 0.7302 0.4767 0.0968
C37 C 0.6218(3) 0.5587(3) 0.89857(15)
H22 H 0.5758 0.4833 0.9067
C38 C 0.7854(3) 0.1627(3) 0.94170(16)
H23 H 0.7246 0.1206 0.9215
C39 C 0.7130(3) 0.0749(3) 0.70603(16)
H24 H 0.6335 0.0685 0.6844
C40 C 0.9066(5) 0.1778(5) 1.04284(19)
H25 H 0.9280 0.1465 1.0906
C41 C 0.8343(3) -0.0247(3) 0.69933(16)
H26 H 0.8375 -0.0990 0.6732
C42 C 0.9338(3) 0.3320(3) 0.93287(16)
H27 H 0.9731 0.4052 0.9066
C43 C 0.7529(4) 0.7830(3) 0.87590(17)
H28 H 0.7973 0.8594 0.8674
C44 C 0.5720(4) 0.6664(4) 0.94190(18)
H29 H 0.4927 0.6628 0.9786
C45 C 0.8179(5) 0.1174(4) 1.01284(19)
H30 H 0.7785 0.0451 1.0402
C46 C 0.6381(4) 0.7781(4) 0.93144(17)
H31 H 0.6058 0.8495 0.9614
C47 C 0.9648(4) 0.2844(4) 1.00331(19)
H32 H 1.0259 0.3251 1.0243
loop_
_geom_bond_atom_site_label_1
_geom_bond_atom_site_label_2
_geom_bond_site_symmetry_1
_geom_bond_site_symmetry_2
N1 C1 1_555 1_555
N2 C2 1_555 1_555
C1 C2 1_555 1_555
C2 C14 1_555 1_555
C3 C1 1_555 1_555
C4 C3 1_555 1_555
C5 H1 1_555 1_555
C6 N1 1_555 1_555
C7 C6 1_555 1_555
C8 N2 1_555 1_555
C9 C13 1_555 1_555
C10 C5 1_555 1_555
H2 C10 1_555 1_555
C11 C4 1_555 1_555
C12 C3 1_555 1_555
H3 C12 1_555 1_555
C13 C15 1_555 1_555
C14 C11 1_555 1_555
C15 C30 1_555 1_555
C16 C12 1_555 1_555
H4 C16 1_555 1_555
C17 C5 1_555 1_555
C18 C11 1_555 1_555
H5 C18 1_555 1_555
C19 C17 1_555 1_555
H6 C19 1_555 1_555
C20 C9 1_555 1_555
C21 C4 1_555 1_555
H7 C21 1_555 1_555
C22 C8 1_555 1_555
H8 C22 1_555 1_555
C23 C14 1_555 1_555
H9 C23 1_555 1_555
C24 H10 1_555 1_555
C25 C22 1_555 1_555
H11 C25 1_555 1_555
C26 C8 1_555 1_555
H12 C26 1_555 1_555
C27 C7 1_555 1_555
H13 C27 1_555 1_555
C28 C16 1_555 1_555
H14 C28 1_555 1_555
C29 C13 1_555 1_555
C30 H15 1_555 1_555
C31 C24 1_555 1_555
H16 C31 1_555 1_555
C32 C20 1_555 1_555
H17 C32 1_555 1_555
C33 C23 1_555 1_555
H18 C33 1_555 1_555
C34 H19 1_555 1_555
C35 C15 1_555 1_555
H20 C35 1_555 1_555
C36 C18 1_555 1_555
H21 C36 1_555 1_555
C37 C20 1_555 1_555
H22 C37 1_555 1_555
C38 C29 1_555 1_555
H23 C38 1_555 1_555
C39 C30 1_555 1_555
H24 C39 1_555 1_555
C40 H25 1_555 1_555
C41 C34 1_555 1_555
H26 C41 1_555 1_555
C42 C29 1_555 1_555
H27 C42 1_555 1_555
C43 C32 1_555 1_555
H28 C43 1_555 1_555
C44 C37 1_555 1_555
H29 C44 1_555 1_555
C45 C38 1_555 1_555
H30 C45 1_555 1_555
C46 C43 1_555 1_555
H31 C46 1_555 1_555
C47 C40 1_555 1_555
H32 C47 1_555 1_555
N2 C6 1_555 1_555
C7 C10 1_555 1_555
C9 C17 1_555 1_555
C19 C27 1_555 1_555
C21 C28 1_555 1_555
C24 C25 1_555 1_555
C26 C31 1_555 1_555
C33 C36 1_555 1_555
C34 C35 1_555 1_555
C39 C41 1_555 1_555
C40 C45 1_555 1_555
C42 C47 1_555 1_555
C44 C46 1_555 1_555

#END
