
#######################################################################
#
#                 Cambridge Crystallographic Data Centre
#                                CCDC 
#
#######################################################################
#
# If this CIF has been generated from an entry in the Cambridge 
# Structural Database, then it will include bibliographic, chemical, 
# crystal, experimental, refinement or atomic coordinate data resulting 
# from the CCDC's data processing and validation procedures.
#
#######################################################################

data_VANSEL
_chemical_formula_moiety         'C87 H90 N12 O12,5(C1 H2 Cl2)'
_chemical_name_systematic        
'4,13,19,28,34,43,47,49,51,53,55,56-dodecaoxa-1,16,31-triaza-3,14,18,29,33,44(1,4),48,52(1,3,5)-octabenzena-46,50,54(2,4,6)-tri-(1,3,5-triazina)pentacyclo[29.14.9.1^46,52^.1^48,54^.0^16,50^]hexapentacontaphane dichloromethane unknown solvate'
_symmetry_cell_setting           monoclinic
_symmetry_space_group_name_H-M   'P 21/c'
_symmetry_Int_Tables_number      14
_space_group_name_Hall           '-P 2ybc'
loop_
_symmetry_equiv_pos_site_id
_symmetry_equiv_pos_as_xyz
1 x,y,z
2 -x,1/2+y,1/2-z
3 -x,-y,-z
4 x,1/2-y,1/2+z
_cell_length_a                   18.036(4)
_cell_length_b                   14.730(3)
_cell_length_c                   39.096(8)
_cell_angle_alpha                90
_cell_angle_beta                 98.71(3)
_cell_angle_gamma                90
_cell_volume                     10266.9
_exptl_crystal_colour            colorless
_exptl_crystal_description       block
_cell_formula_units_Z            4
loop_
_atom_site_label
_atom_site_type_symbol
_atom_site_fract_x
_atom_site_fract_y
_atom_site_fract_z
N1 N 0.54425(17) 0.7883(2) 0.47761(9)
N2 N 0.11846(17) 0.2412(2) 0.45885(9)
N3 N 0.1184(2) 0.8215(3) 0.67507(10)
N4 N 0.49881(17) 0.7103(2) 0.52186(9)
N5 N 0.41603(17) 0.7877(2) 0.47698(9)
N6 N 0.36573(17) 0.6990(2) 0.51917(9)
N7 N 0.19717(16) 0.3085(2) 0.50446(9)
N8 N 0.11093(17) 0.3979(2) 0.46495(9)
N9 N 0.19227(16) 0.4690(2) 0.51141(9)
N10 N 0.18874(19) 0.7068(3) 0.65572(9)
N11 N 0.11671(19) 0.8087(3) 0.61515(9)
N12 N 0.18968(17) 0.6922(2) 0.59446(9)
O1 O 0.4772(3) 0.5539(4) 0.34091(13)
O2 O 0.1803(3) 0.2581(4) 0.30132(12)
O3 O -0.04150(16) 0.0283(2) 0.57226(8)
O4 O 0.0163(4) 0.4601(4) 0.75068(16)
O5 O 0.3042(3) 1.1754(4) 0.72326(12)
O6 O 0.72571(18) 0.9959(2) 0.60916(9)
O7 O 0.29142(13) 0.78170(19) 0.47694(7)
O8 O 0.10425(14) 0.54884(19) 0.47332(8)
O9 O 0.11545(14) 0.7899(2) 0.55819(7)
O10 O 0.44991(13) 0.62628(19) 0.56086(7)
O11 O 0.27368(14) 0.37754(18) 0.54684(7)
O12 O 0.26152(15) 0.6027(2) 0.63528(7)
C1 C 0.5326(2) 0.8276(3) 0.44227(12)
H1 H 0.5769 0.8645 0.4390
H2 H 0.4884 0.8681 0.4396
C2 C 0.5208(3) 0.7542(3) 0.41470(12)
C3 C 0.5791(3) 0.7216(4) 0.39994(13)
H3 H 0.6281 0.7454 0.4067
C4 C 0.5670(4) 0.6529(5) 0.37478(14)
H4 H 0.6070 0.6303 0.3639
C5 C 0.4941(4) 0.6189(4) 0.36621(17)
C6 C 0.4340(4) 0.6535(5) 0.38027(16)
H5 H 0.3845 0.6315 0.3733
C7 C 0.4483(3) 0.7196(4) 0.40431(14)
H6 H 0.4079 0.7436 0.4145
C8 C 0.5380(11) 0.5142(11) 0.3276(9)
H7 H 0.5763 0.4931 0.3468
H8 H 0.5615 0.5592 0.3138
C9 C 0.5071(11) 0.4325(10) 0.3044(5)
H9 H 0.4726 0.4545 0.2840
H10 H 0.5490 0.3998 0.2962
C10 C 0.4650(10) 0.3678(10) 0.3261(4)
H11 H 0.5005 0.3423 0.3455
H12 H 0.4257 0.4018 0.3359
C11 C 0.4292(11) 0.2910(11) 0.3028(4)
H13 H 0.4687 0.2553 0.2939
H14 H 0.3955 0.3167 0.2828
C12 C 0.3837(12) 0.2283(14) 0.3242(4)
H15 H 0.4178 0.1986 0.3431
H16 H 0.3463 0.2644 0.3344
C13 C 0.3440(9) 0.1562(12) 0.2992(5)
H17 H 0.3374 0.1799 0.2753
H18 H 0.3755 0.1010 0.3002
C14 C 0.2681(9) 0.1321(15) 0.3087(5)
H19 H 0.2667 0.1503 0.3330
H20 H 0.2613 0.0654 0.3072
C15 C 0.2033(11) 0.1778(13) 0.2854(5)
H21 H 0.2194 0.1936 0.2630
H22 H 0.1605 0.1352 0.2807
C16 C 0.1528(3) 0.2464(5) 0.33270(15)
C17 C 0.1238(4) 0.1655(5) 0.34360(14)
H23 H 0.1259 0.1116 0.3304
C18 C 0.0909(3) 0.1640(4) 0.37483(13)
H24 H 0.0691 0.1099 0.3820
C19 C 0.0913(2) 0.2422(3) 0.39439(11)
C20 C 0.1221(3) 0.3204(4) 0.38217(13)
H25 H 0.1221 0.3748 0.3952
C21 C 0.1526(3) 0.3219(5) 0.35182(15)
H26 H 0.1735 0.3765 0.3445
C22 C 0.0596(2) 0.2432(3) 0.42834(11)
H27 H 0.0289 0.2985 0.4293
H28 H 0.0264 0.1899 0.4291
C23 C 0.1403(2) 0.1510(3) 0.47359(11)
H29 H 0.1937 0.1526 0.4843
H30 H 0.1351 0.1055 0.4547
C24 C 0.09244(19) 0.1217(3) 0.50087(11)
C25 C 0.1030(2) 0.0373(3) 0.51690(11)
H31 H 0.1411 -0.0017 0.5110
C26 C 0.0600(2) 0.0085(3) 0.54103(11)
H32 H 0.0692 -0.0489 0.5519
C27 C 0.0022(2) 0.0647(3) 0.54947(11)
C28 C -0.0085(2) 0.1498(3) 0.53437(11)
H33 H -0.0465 0.1889 0.5404
C29 C 0.0363(2) 0.1777(3) 0.51051(11)
H34 H 0.0288 0.2363 0.5004
C30 C -0.1037(6) 0.0798(14) 0.5798(3)
H35 H -0.1423 0.0384 0.5866
H36 H -0.1263 0.1134 0.5589
C31 C -0.0790(6) 0.1475(8) 0.6095(2)
H37 H -0.0419 0.1904 0.6024
H38 H -0.1230 0.1830 0.6142
C32 C -0.0446(5) 0.0978(5) 0.64221(17)
H39 H 0.0027 0.0685 0.6381
H40 H -0.0794 0.0494 0.6473
C33 C -0.0279(6) 0.1604(8) 0.6737(2)
H41 H -0.0158 0.1240 0.6951
H42 H -0.0723 0.1985 0.6757
C34 C 0.0398(5) 0.2215(7) 0.6687(2)
H43 H 0.0233 0.2713 0.6523
H44 H 0.0784 0.1853 0.6592
C35 C 0.0728(6) 0.2610(7) 0.7051(3)
H45 H 0.0663 0.2169 0.7235
H46 H 0.1270 0.2737 0.7062
C36 C 0.0308(7) 0.3480(7) 0.7101(2)
H47 H -0.0237 0.3386 0.7031
H48 H 0.0474 0.3969 0.6957
C37 C 0.0473(7) 0.3750(7) 0.7491(2)
H49 H 0.0239 0.3313 0.7634
H50 H 0.1020 0.3767 0.7572
C38 C 0.0470(4) 0.5386(4) 0.74017(17)
C39 C 0.1103(4) 0.5740(4) 0.76008(17)
H51 H 0.1330 0.5437 0.7805
C40 C 0.1405(3) 0.6551(4) 0.74968(14)
H52 H 0.1843 0.6792 0.7632
C41 C 0.1080(3) 0.7020(4) 0.71983(12)
C42 C 0.0434(3) 0.6661(5) 0.70130(16)
H53 H 0.0194 0.6970 0.6813
C43 C 0.0128(4) 0.5851(5) 0.71136(18)
H54 H -0.0318 0.5618 0.6983
C44 C 0.1447(3) 0.7883(4) 0.71045(12)
H55 H 0.1357 0.8361 0.7271
H56 H 0.1995 0.7782 0.7130
C45 C 0.0842(3) 0.9117(4) 0.67177(14)
H57 H 0.0428 0.9145 0.6857
H58 H 0.0629 0.9228 0.6473
C46 C 0.1409(3) 0.9842(4) 0.68383(13)
C47 C 0.1414(3) 1.0304(4) 0.71542(15)
H59 H 0.1028 1.0181 0.7288
C48 C 0.1959(4) 1.0926(5) 0.72760(17)
H60 H 0.1939 1.1235 0.7488
C49 C 0.2532(3) 1.1100(5) 0.70910(16)
C50 C 0.2547(3) 1.0683(4) 0.67711(17)
H61 H 0.2931 1.0822 0.6638
C51 C 0.1973(3) 1.0044(4) 0.66493(15)
H62 H 0.1980 0.9751 0.6433
C52 C 0.3628(4) 1.2019(5) 0.70420(19)
H63 H 0.3801 1.2636 0.7115
H64 H 0.3422 1.2044 0.6793
C53 C 0.4287(4) 1.1382(5) 0.70930(17)
H65 H 0.4486 1.1340 0.7343
H66 H 0.4121 1.0769 0.7011
C54 C 0.4897(4) 1.1702(6) 0.68997(19)
H67 H 0.5011 1.2343 0.6963
H68 H 0.4701 1.1688 0.6649
C55 C 0.5622(4) 1.1172(6) 0.6959(2)
H69 H 0.5509 1.0515 0.6934
H70 H 0.5876 1.1278 0.7198
C56 C 0.6149(4) 1.1443(5) 0.6704(2)
H71 H 0.5872 1.1375 0.6467
H72 H 0.6269 1.2096 0.6739
C57 C 0.6878(4) 1.0932(6) 0.6723(2)
H73 H 0.7173 1.1011 0.6956
H74 H 0.6771 1.0277 0.6688
C58 C 0.7330(4) 1.1258(5) 0.64568(18)
H75 H 0.7857 1.1071 0.6529
H76 H 0.7318 1.1930 0.6455
C59 C 0.7078(3) 1.0920(4) 0.60837(16)
H77 H 0.6533 1.1016 0.6014
H78 H 0.7351 1.1244 0.5919
C60 C 0.6994(2) 0.9466(3) 0.58037(12)
C61 C 0.7114(2) 0.8519(3) 0.58311(13)
H79 H 0.7369 0.8266 0.6040
C62 C 0.6859(2) 0.7964(3) 0.55548(12)
H80 H 0.6942 0.7329 0.5577
C63 C 0.6485(2) 0.8303(3) 0.52459(12)
C64 C 0.6374(3) 0.9241(3) 0.52211(13)
H81 H 0.6119 0.9488 0.5011
C65 C 0.6625(3) 0.9823(3) 0.54938(13)
H82 H 0.6545 1.0459 0.5469
C66 C 0.6218(2) 0.7670(3) 0.49422(12)
H83 H 0.6562 0.7724 0.4768
H84 H 0.6238 0.7034 0.5026
C67 C 0.4850(2) 0.7621(3) 0.49227(11)
C68 C 0.3613(2) 0.7541(3) 0.49195(10)
C69 C 0.4375(2) 0.6819(3) 0.53244(10)
C70 C 0.1426(2) 0.3175(3) 0.47606(10)
C71 C 0.1383(2) 0.4680(3) 0.48396(11)
C72 C 0.21816(19) 0.3860(3) 0.51947(10)
C73 C 0.1412(2) 0.7775(3) 0.64799(12)
C74 C 0.1423(2) 0.7615(3) 0.59121(11)
C75 C 0.2107(2) 0.6703(3) 0.62750(11)
C76 C 0.2306(2) 0.7430(3) 0.49070(11)
C77 C 0.1985(2) 0.6648(3) 0.47502(11)
H85 H 0.2165 0.6378 0.4558
C78 C 0.1382(2) 0.6282(3) 0.48910(11)
C79 C 0.10958(19) 0.6678(3) 0.51631(10)
H86 H 0.0676 0.6423 0.5249
C80 C 0.1440(2) 0.7462(3) 0.53087(11)
C81 C 0.2049(2) 0.7854(3) 0.51842(10)
H87 H 0.2279 0.8391 0.5285
C82 C 0.38671(19) 0.5815(3) 0.57031(10)
C83 C 0.36190(19) 0.5023(3) 0.55298(10)
H88 H 0.3853 0.4790 0.5346
C84 C 0.3008(2) 0.4587(3) 0.56388(10)
C85 C 0.2672(2) 0.4904(3) 0.59093(10)
H89 H 0.2263 0.4591 0.5982
C86 C 0.2948(2) 0.5682(3) 0.60695(10)
C87 C 0.3549(2) 0.6165(3) 0.59747(10)
H90 H 0.3730 0.6706 0.6091
C104 C 0.8013(3) 0.8278(4) 0.42075(14)
H123 H 0.8508 0.8567 0.4207
H124 H 0.8041 0.7912 0.4421
Cl1 Cl 0.73215(7) 0.91401(10) 0.42116(4)
Cl2 Cl 0.78233(7) 0.75560(9) 0.38476(3)
C105 C 0.7750(7) 0.5029(8) 0.2998(4)
H125 H 0.7987 0.4590 0.3173
H126 H 0.8115 0.5170 0.2840
Cl3 Cl 0.7537(4) 0.6004(4) 0.32018(15)
Cl4 Cl 0.69491(17) 0.4534(4) 0.27599(10)
C107 C 0.0583(3) 0.4948(3) 0.57644(13)
H129 H 0.1008 0.5256 0.5680
H130 H 0.0113 0.5207 0.5638
Cl7 Cl 0.06161(7) 0.37738(9) 0.56691(5)
Cl8 Cl 0.06222(9) 0.51711(14) 0.62108(4)
C108 C 0.4957(4) 0.8866(5) 0.58451(19)
H131 H 0.5364 0.8799 0.5703
H132 H 0.4900 0.8277 0.5960
Cl9 Cl 0.41360(12) 0.91144(14) 0.55776(6)
Cl10 Cl 0.52178(11) 0.96943(16) 0.61627(5)
Cl11 Cl 0.4354(2) 0.53162(18) 0.46715(8)
Cl12 Cl 0.29565(16) 0.4663(2) 0.43021(17)
C109 C 0.3926(5) 0.462(2) 0.4344(6)
H133 H 0.4095 0.3992 0.4391
H134 H 0.4083 0.4815 0.4122
C88? C 0.5377(19) 0.518(2) 0.3261(17)
H91? H 0.5746 0.4866 0.3436
H92? H 0.5634 0.5647 0.3142
C89? C 0.494(2) 0.450(2) 0.3003(10)
H93? H 0.4404 0.4664 0.2961
H94? H 0.5136 0.4525 0.2780
C90? C 0.5028(15) 0.3534(16) 0.3148(8)
H95? H 0.5546 0.3449 0.3270
H96? H 0.4944 0.3093 0.2955
C91? C 0.4471(15) 0.334(2) 0.3399(6)
H97? H 0.4484 0.3847 0.3568
H98? H 0.4614 0.2777 0.3529
C92? C 0.3668(13) 0.3246(19) 0.3195(9)
H99? H 0.3317 0.3639 0.3300
H100? H 0.3663 0.3439 0.2953
C93? C 0.3419(16) 0.225(2) 0.3206(9)
H101? H 0.3081 0.2176 0.3381
H102? H 0.3862 0.1857 0.3271
C94? C 0.3004(13) 0.197(3) 0.2845(8)
H103? H 0.3062 0.2445 0.2672
H104? H 0.3216 0.1396 0.2770
C95? C 0.2167(10) 0.1840(12) 0.2874(5)
H105? H 0.1894 0.1705 0.2641
H106? H 0.2120 0.1300 0.3021
C96? C -0.0976(14) 0.083(4) 0.5842(10)
H107? H -0.1286 0.0436 0.5971
H108? H -0.1307 0.1083 0.5641
C97? C -0.064(2) 0.161(2) 0.6079(7)
H109? H -0.0425 0.2070 0.5940
H110? H -0.1044 0.1898 0.6187
C98? C -0.0032(12) 0.1242(15) 0.6362(5)
H111? H 0.0465 0.1311 0.6287
H112? H -0.0117 0.0588 0.6398
C99? C -0.0041(15) 0.176(2) 0.6703(6)
H113? H -0.0071 0.1325 0.6894
H114? H -0.0484 0.2164 0.6682
C100? C 0.0686(12) 0.2323(18) 0.6781(7)
H115? H 0.1050 0.2007 0.6955
H116? H 0.0913 0.2393 0.6567
C101? C 0.0504(18) 0.3262(15) 0.6917(7)
H117? H 0.0178 0.3599 0.6734
H118? H 0.0974 0.3611 0.6980
C102? C 0.011(2) 0.3163(18) 0.7237(7)
H119? H 0.0478 0.3053 0.7447
H120? H -0.0247 0.2645 0.7207
C103? C -0.0326(11) 0.4059(17) 0.7277(6)
H121? H -0.0454 0.4366 0.7050
H122? H -0.0794 0.3937 0.7372
C106? C 0.7645(18) 0.5065(18) 0.2937(9)
H127? H 0.7570 0.4555 0.3093
H128? H 0.8100 0.4941 0.2832
Cl5? Cl 0.7751(10) 0.6058(14) 0.3167(5)
Cl6? Cl 0.6874(8) 0.5166(13) 0.2617(4)
Cl13? Cl 0.3551(6) 0.5115(5) 0.46103(11)
Cl14? Cl 0.3156(4) 0.4320(5) 0.39550(16)
C110? C 0.3879(8) 0.448(3) 0.4293(6)
H135? H 0.4298 0.4806 0.4209
H136? H 0.4066 0.3889 0.4388
loop_
_geom_bond_atom_site_label_1
_geom_bond_atom_site_label_2
_geom_bond_site_symmetry_1
_geom_bond_site_symmetry_2
N1 C1 1_555 1_555
N2 C22 1_555 1_555
N3 C44 1_555 1_555
N4 C67 1_555 1_555
N5 C67 1_555 1_555
N6 C68 1_555 1_555
N7 C70 1_555 1_555
N8 C70 1_555 1_555
N9 C71 1_555 1_555
N10 C73 1_555 1_555
N11 C73 1_555 1_555
N12 C74 1_555 1_555
O1 C5 1_555 1_555
O2 C15 1_555 1_555
O3 C27 1_555 1_555
O4 C37 1_555 1_555
O5 C49 1_555 1_555
O6 C59 1_555 1_555
O7 C68 1_555 1_555
O8 C71 1_555 1_555
O9 C74 1_555 1_555
O10 C69 1_555 1_555
O11 C72 1_555 1_555
O12 C75 1_555 1_555
C1 H1 1_555 1_555
H2 C1 1_555 1_555
C2 C1 1_555 1_555
C3 C2 1_555 1_555
H3 C3 1_555 1_555
C4 C3 1_555 1_555
H4 C4 1_555 1_555
C5 C4 1_555 1_555
C6 C5 1_555 1_555
H5 C6 1_555 1_555
C7 C2 1_555 1_555
H6 C7 1_555 1_555
C8 O1 1_555 1_555
H7 C8 1_555 1_555
H8 C8 1_555 1_555
C9 C8 1_555 1_555
H9 C9 1_555 1_555
H10 C9 1_555 1_555
C10 C9 1_555 1_555
H11 C10 1_555 1_555
H12 C10 1_555 1_555
C11 C10 1_555 1_555
H13 C11 1_555 1_555
H14 C11 1_555 1_555
C12 C11 1_555 1_555
H15 C12 1_555 1_555
H16 C12 1_555 1_555
C13 C12 1_555 1_555
H17 C13 1_555 1_555
H18 C13 1_555 1_555
C14 C13 1_555 1_555
H19 C14 1_555 1_555
H20 C14 1_555 1_555
C15 C14 1_555 1_555
H21 C15 1_555 1_555
H22 C15 1_555 1_555
C16 O2 1_555 1_555
C17 C16 1_555 1_555
H23 C17 1_555 1_555
C18 C17 1_555 1_555
H24 C18 1_555 1_555
C19 C18 1_555 1_555
C20 C19 1_555 1_555
H25 C20 1_555 1_555
C21 C16 1_555 1_555
H26 C21 1_555 1_555
C22 C19 1_555 1_555
H27 C22 1_555 1_555
H28 C22 1_555 1_555
C23 N2 1_555 1_555
H29 C23 1_555 1_555
H30 C23 1_555 1_555
C24 C23 1_555 1_555
C25 C24 1_555 1_555
H31 C25 1_555 1_555
C26 C25 1_555 1_555
H32 C26 1_555 1_555
C27 C26 1_555 1_555
C28 C27 1_555 1_555
H33 C28 1_555 1_555
C29 C24 1_555 1_555
H34 C29 1_555 1_555
C30 O3 1_555 1_555
H35 C30 1_555 1_555
H36 C30 1_555 1_555
C31 C30 1_555 1_555
H37 C31 1_555 1_555
H38 C31 1_555 1_555
C32 C31 1_555 1_555
H39 C32 1_555 1_555
H40 C32 1_555 1_555
C33 C32 1_555 1_555
H41 C33 1_555 1_555
H42 C33 1_555 1_555
C34 C33 1_555 1_555
H43 C34 1_555 1_555
H44 C34 1_555 1_555
C35 C34 1_555 1_555
H45 C35 1_555 1_555
H46 C35 1_555 1_555
C36 C35 1_555 1_555
H47 C36 1_555 1_555
H48 C36 1_555 1_555
C37 C36 1_555 1_555
H49 C37 1_555 1_555
H50 C37 1_555 1_555
C38 O4 1_555 1_555
C39 C38 1_555 1_555
H51 C39 1_555 1_555
C40 C39 1_555 1_555
H52 C40 1_555 1_555
C41 C40 1_555 1_555
C42 C41 1_555 1_555
H53 C42 1_555 1_555
C43 C38 1_555 1_555
H54 C43 1_555 1_555
C44 C41 1_555 1_555
H55 C44 1_555 1_555
H56 C44 1_555 1_555
C45 N3 1_555 1_555
H57 C45 1_555 1_555
H58 C45 1_555 1_555
C46 C45 1_555 1_555
C47 C46 1_555 1_555
H59 C47 1_555 1_555
C48 C47 1_555 1_555
H60 C48 1_555 1_555
C49 C48 1_555 1_555
C50 C49 1_555 1_555
H61 C50 1_555 1_555
C51 C46 1_555 1_555
H62 C51 1_555 1_555
C52 O5 1_555 1_555
H63 C52 1_555 1_555
H64 C52 1_555 1_555
C53 C52 1_555 1_555
H65 C53 1_555 1_555
H66 C53 1_555 1_555
C54 C53 1_555 1_555
H67 C54 1_555 1_555
H68 C54 1_555 1_555
C55 C54 1_555 1_555
H69 C55 1_555 1_555
H70 C55 1_555 1_555
C56 C55 1_555 1_555
H71 C56 1_555 1_555
H72 C56 1_555 1_555
C57 C56 1_555 1_555
H73 C57 1_555 1_555
H74 C57 1_555 1_555
C58 C57 1_555 1_555
H75 C58 1_555 1_555
H76 C58 1_555 1_555
C59 C58 1_555 1_555
H77 C59 1_555 1_555
H78 C59 1_555 1_555
C60 O6 1_555 1_555
C61 C60 1_555 1_555
H79 C61 1_555 1_555
C62 C61 1_555 1_555
H80 C62 1_555 1_555
C63 C62 1_555 1_555
C64 C63 1_555 1_555
H81 C64 1_555 1_555
C65 C60 1_555 1_555
H82 C65 1_555 1_555
C66 N1 1_555 1_555
H83 C66 1_555 1_555
H84 C66 1_555 1_555
C67 N1 1_555 1_555
C68 N5 1_555 1_555
C69 N4 1_555 1_555
C70 N2 1_555 1_555
C71 N8 1_555 1_555
C72 N7 1_555 1_555
C73 N3 1_555 1_555
C74 N11 1_555 1_555
C75 N10 1_555 1_555
C76 O7 1_555 1_555
C77 C76 1_555 1_555
H85 C77 1_555 1_555
C78 O8 1_555 1_555
C79 C78 1_555 1_555
H86 C79 1_555 1_555
C80 O9 1_555 1_555
C81 C76 1_555 1_555
H87 C81 1_555 1_555
C82 O10 1_555 1_555
C83 C82 1_555 1_555
H88 C83 1_555 1_555
C84 O11 1_555 1_555
C85 C84 1_555 1_555
H89 C85 1_555 1_555
C86 O12 1_555 1_555
C87 C82 1_555 1_555
H90 C87 1_555 1_555
C104 H123 1_555 1_555
H124 C104 1_555 1_555
Cl1 C104 1_555 1_555
Cl2 C104 1_555 1_555
C105 H125 1_555 1_555
H126 C105 1_555 1_555
Cl3 C105 1_555 1_555
Cl4 C105 1_555 1_555
C107 H129 1_555 1_555
H130 C107 1_555 1_555
Cl7 C107 1_555 1_555
Cl8 C107 1_555 1_555
C108 H131 1_555 1_555
H132 C108 1_555 1_555
Cl9 C108 1_555 1_555
Cl10 C108 1_555 1_555
Cl11 C109 1_555 1_555
Cl12 C109 1_555 1_555
C109 H133 1_555 1_555
H134 C109 1_555 1_555
N6 C69 1_555 1_555
N9 C72 1_555 1_555
N12 C75 1_555 1_555
C6 C7 1_555 1_555
C20 C21 1_555 1_555
C28 C29 1_555 1_555
C42 C43 1_555 1_555
C50 C51 1_555 1_555
C63 C66 1_555 1_555
C64 C65 1_555 1_555
C77 C78 1_555 1_555
C79 C80 1_555 1_555
C80 C81 1_555 1_555
C83 C84 1_555 1_555
C85 C86 1_555 1_555
C86 C87 1_555 1_555

#END
