
#######################################################################
#
#                 Cambridge Crystallographic Data Centre
#                                CCDC 
#
#######################################################################
#
# If this CIF has been generated from an entry in the Cambridge 
# Structural Database, then it will include bibliographic, chemical, 
# crystal, experimental, refinement or atomic coordinate data resulting 
# from the CCDC's data processing and validation procedures.
#
#######################################################################

data_VANTAG
_chemical_formula_moiety         'C18 H26 O5'
_chemical_name_systematic        
'2,2-Dimethyl-9-oxo-3a,4,4a,7,8,8a,9,9a-octahydro-naphtho(2,3-d)(1,3)dioxol-4-yl pivalate'
_symmetry_cell_setting           orthorhombic
_symmetry_space_group_name_H-M   'P 21 21 21'
_symmetry_Int_Tables_number      19
_space_group_name_Hall           'P 2ac 2ab'
loop_
_symmetry_equiv_pos_site_id
_symmetry_equiv_pos_as_xyz
1 x,y,z
2 1/2-x,-y,1/2+z
3 -x,1/2+y,1/2-z
4 1/2+x,1/2-y,-z
_cell_length_a                   9.1512(19)
_cell_length_b                   10.228(2)
_cell_length_c                   18.073(4)
_cell_angle_alpha                90
_cell_angle_beta                 90
_cell_angle_gamma                90
_cell_volume                     1691.61
_exptl_crystal_colour            colorless
_exptl_crystal_description       block
_chemical_melting_point          '127-130 deg.C'
_cell_formula_units_Z            4
loop_
_atom_site_label
_atom_site_type_symbol
_atom_site_fract_x
_atom_site_fract_y
_atom_site_fract_z
O1 O 1.07911(12) 0.64091(11) 0.78093(6)
O2 O 0.77110(11) 0.62761(10) 0.76079(6)
O3 O 0.62210(12) 0.76457(10) 0.82899(6)
O4 O 0.72723(12) 0.97491(10) 0.92342(6)
O5 O 0.75445(13) 1.18345(10) 0.88903(6)
C1 C 0.80951(17) 0.93223(15) 0.85953(8)
H1 H 0.7839 0.9870 0.8155
C2 C 0.97562(17) 0.93693(14) 0.87353(8)
H2 H 1.0046 1.0311 0.8754
C3 C 1.01564(19) 0.87705(15) 0.94712(9)
H3 H 0.9509 0.8904 0.9875
C4 C 1.1347(2) 0.80742(16) 0.95900(9)
H4 H 1.1481 0.7710 1.0069
C5 C 1.24983(19) 0.78205(16) 0.90220(10)
H5 H 1.2477 0.6886 0.8880
H6 H 1.3471 0.8011 0.9236
C6 C 1.22661(17) 0.86601(16) 0.83376(9)
H7 H 1.2847 0.8298 0.7923
H8 H 1.2622 0.9557 0.8437
C7 C 1.06631(17) 0.87183(15) 0.81119(9)
H9 H 1.0598 0.9300 0.7668
C8 C 1.00711(17) 0.73844(15) 0.78846(8)
C9 C 0.84474(16) 0.74554(15) 0.77583(8)
H10 H 0.8245 0.8091 0.7351
C10 C 0.77052(17) 0.79191(14) 0.84535(9)
H11 H 0.8029 0.7370 0.8881
C11 C 0.62507(17) 0.63955(16) 0.79198(9)
C12 C 0.6043(2) 0.52981(17) 0.84621(10)
H12 H 0.5043 0.5323 0.8657
H13 H 0.6738 0.5395 0.8871
H14 H 0.6210 0.4461 0.8213
C13 C 0.51388(19) 0.64143(19) 0.73121(10)
H15 H 0.5373 0.7116 0.6963
H16 H 0.4167 0.6566 0.7523
H17 H 0.5148 0.5573 0.7053
C14 C 0.70347(17) 1.10443(15) 0.93035(9)
C15 C 0.60527(16) 1.13380(15) 0.99603(9)
C16 C 0.4654(2) 1.0528(2) 0.99073(12)
H18 H 0.4169 1.0707 0.9435
H19 H 0.3999 1.0762 1.0315
H20 H 0.4898 0.9597 0.9938
C17 C 0.5684(2) 1.27820(17) 0.99578(12)
H21 H 0.6583 1.3294 1.0013
H22 H 0.5022 1.2977 1.0370
H23 H 0.5208 1.3010 0.9489
C18 C 0.6847(2) 1.0993(2) 1.06740(10)
H24 H 0.6195 1.1141 1.1096
H25 H 0.7717 1.1544 1.0725
H26 H 0.7140 1.0071 1.0661
loop_
_geom_bond_atom_site_label_1
_geom_bond_atom_site_label_2
_geom_bond_site_symmetry_1
_geom_bond_site_symmetry_2
O1 C8 1_555 1_555
O2 C9 1_555 1_555
O3 C10 1_555 1_555
O4 C1 1_555 1_555
O5 C14 1_555 1_555
C1 H1 1_555 1_555
C2 C1 1_555 1_555
H2 C2 1_555 1_555
C3 C2 1_555 1_555
H3 C3 1_555 1_555
C4 C3 1_555 1_555
H4 C4 1_555 1_555
C5 C4 1_555 1_555
H5 C5 1_555 1_555
H6 C5 1_555 1_555
C6 C5 1_555 1_555
H7 C6 1_555 1_555
H8 C6 1_555 1_555
C7 C2 1_555 1_555
H9 C7 1_555 1_555
C8 C7 1_555 1_555
C9 C8 1_555 1_555
H10 C9 1_555 1_555
C10 C1 1_555 1_555
H11 C10 1_555 1_555
C11 O2 1_555 1_555
C12 C11 1_555 1_555
H12 C12 1_555 1_555
H13 C12 1_555 1_555
H14 C12 1_555 1_555
C13 C11 1_555 1_555
H15 C13 1_555 1_555
H16 C13 1_555 1_555
H17 C13 1_555 1_555
C14 O4 1_555 1_555
C15 C14 1_555 1_555
C16 C15 1_555 1_555
H18 C16 1_555 1_555
H19 C16 1_555 1_555
H20 C16 1_555 1_555
C17 C15 1_555 1_555
H21 C17 1_555 1_555
H22 C17 1_555 1_555
H23 C17 1_555 1_555
C18 C15 1_555 1_555
H24 C18 1_555 1_555
H25 C18 1_555 1_555
H26 C18 1_555 1_555
O3 C11 1_555 1_555
C6 C7 1_555 1_555
C9 C10 1_555 1_555

#END
