
#######################################################################
#
#                 Cambridge Crystallographic Data Centre
#                                CCDC 
#
#######################################################################
#
# If this CIF has been generated from an entry in the Cambridge 
# Structural Database, then it will include bibliographic, chemical, 
# crystal, experimental, refinement or atomic coordinate data resulting 
# from the CCDC's data processing and validation procedures.
#
#######################################################################

data_VANVEO
_chemical_formula_moiety         'C87 H90 N12 O12,3(C1 H1 Cl3)'
_chemical_name_systematic        
'4,13,19,28,34,43,47,49,51,53,55,56-dodecaoxa-1,16,31-triaza-3,14,18,29,33,44(1,4),48,52(1,3,5)-octabenzena-46,50,54(2,4,6)-tri-(1,3,5-triazina)pentacyclo[29.14.9.1^46,52^.1^48,54^.0^16,50^]hexapentacontaphane chloroform solvate'
_symmetry_cell_setting           triclinic
_symmetry_space_group_name_H-M   'P -1'
_symmetry_Int_Tables_number      2
_space_group_name_Hall           '-P 1'
loop_
_symmetry_equiv_pos_site_id
_symmetry_equiv_pos_as_xyz
1 x,y,z
2 -x,-y,-z
_cell_length_a                   15.087(5)
_cell_length_b                   17.675(5)
_cell_length_c                   18.954(5)
_cell_angle_alpha                90.351(9)
_cell_angle_beta                 101.081(6)
_cell_angle_gamma                114.785(5)
_cell_volume                     4481.84
_exptl_crystal_colour            colorless
_exptl_crystal_description       block
_cell_formula_units_Z            2
loop_
_atom_site_label
_atom_site_type_symbol
_atom_site_fract_x
_atom_site_fract_y
_atom_site_fract_z
O1 O 0.1468(2) 0.49485(19) 0.35546(16)
O2 O 0.4468(2) 0.5847(2) 0.54082(17)
O3 O 0.2204(2) 0.70964(19) 0.54195(17)
O4 O 0.6158(2) 0.7973(2) 0.41220(18)
O5 O 0.3591(3) 0.8940(2) 0.38235(18)
O6 O 0.3341(2) 0.67834(19) 0.21417(17)
O7 O 0.3036(3) 0.2339(2) 0.0591(2)
O8 O 0.9212(3) 0.5110(2) 0.39827(19)
O9 O 0.9455(4) 0.9251(3) 0.8869(3)
O10 O 0.4349(4) 0.9819(3) 0.8481(3)
O11 O -0.1536(4) 0.8915(3) 0.2490(3)
O12 O -0.3457(3) 0.4756(2) 0.0733(2)
N1 N 0.1039(3) 0.4657(2) 0.2356(2)
N2 N 0.2094(3) 0.5567(2) 0.1625(2)
N3 N 0.2438(3) 0.5919(2) 0.2893(2)
N4 N 0.5244(3) 0.6910(2) 0.4737(2)
N5 N 0.7021(3) 0.7525(2) 0.4977(2)
N6 N 0.6140(3) 0.6463(2) 0.5694(2)
N7 N 0.2903(3) 0.7966(2) 0.4591(2)
N8 N 0.2071(3) 0.8308(2) 0.5400(2)
N9 N 0.2748(3) 0.9253(2) 0.4535(2)
N10 N 0.0683(3) 0.4369(3) 0.1118(2)
N11 N 0.7872(3) 0.7096(2) 0.5904(2)
N12 N 0.1865(3) 0.9527(3) 0.5307(2)
C1 C 0.2119(3) 0.5469(3) 0.4178(2)
C2 C 0.2982(3) 0.5390(3) 0.4474(2)
H1 H 0.3153 0.5005 0.4268
C3 C 0.3577(3) 0.5905(3) 0.5086(2)
C4 C 0.3336(3) 0.6473(3) 0.5413(2)
H2 H 0.3747 0.6808 0.5833
C5 C 0.2467(3) 0.6524(3) 0.5095(2)
C6 C 0.1842(3) 0.6028(3) 0.4479(2)
H3 H 0.1254 0.6068 0.4272
C7 C 0.4751(3) 0.7367(3) 0.3133(2)
H4 H 0.5015 0.7023 0.2975
C8 C 0.5234(3) 0.7922(3) 0.3749(2)
C9 C 0.4867(3) 0.8446(3) 0.3994(3)
H5 H 0.5209 0.8815 0.4408
C10 C 0.3980(4) 0.8400(3) 0.3602(3)
C11 C 0.3460(4) 0.7865(3) 0.2982(3)
H6 H 0.2865 0.7851 0.2719
C12 C 0.3859(3) 0.7347(3) 0.2766(2)
C13 C 0.2408(3) 0.7830(3) 0.5124(2)
C14 C 0.2237(4) 0.9018(3) 0.5074(3)
C15 C 0.3053(3) 0.8703(3) 0.4347(3)
C16 C 0.1665(4) 0.5193(3) 0.2905(3)
C17 C 0.1288(4) 0.4871(3) 0.1717(3)
C18 C 0.2580(4) 0.6055(3) 0.2227(3)
C19 C 0.6135(4) 0.7440(3) 0.4638(3)
C20 C 0.5323(3) 0.6437(3) 0.5264(3)
C21 C 0.6996(3) 0.7025(3) 0.5518(3)
C22 C 0.1021(4) 0.4436(3) 0.0425(3)
H7 H 0.1450 0.5016 0.0382
H8 H 0.0447 0.4247 0.0024
C23 C 0.1584(4) 0.3909(3) 0.0398(2)
C24 C 0.1117(4) 0.3079(3) 0.0087(3)
H9 H 0.0455 0.2862 -0.0165
C25 C 0.1617(4) 0.2581(3) 0.0149(3)
H10 H 0.1290 0.2032 -0.0064
C26 C 0.2598(4) 0.2883(3) 0.0522(3)
C27 C 0.3085(4) 0.3710(3) 0.0799(3)
H11 H 0.3756 0.3931 0.1028
C28 C 0.2586(4) 0.4216(3) 0.0738(3)
H12 H 0.2928 0.4773 0.0930
C29 C 0.3981(4) 0.2612(4) 0.1092(3)
H13 H 0.3945 0.2841 0.1547
H14 H 0.4498 0.3047 0.0900
C30 C 0.4229(5) 0.1863(4) 0.1211(4)
H15 H 0.3629 0.1376 0.1252
H16 H 0.4454 0.1743 0.0796
C31 C 0.5037(5) 0.2022(5) 0.1891(4)
H17 H 0.4845 0.2214 0.2292
H18 H 0.5066 0.1496 0.1999
C32 C 0.6037(5) 0.2634(4) 0.1844(3)
H19 H 0.5992 0.3133 0.1667
H20 H 0.6271 0.2405 0.1492
C33 C 0.6817(4) 0.2887(4) 0.2566(3)
H21 H 0.6650 0.3203 0.2896
H22 H 0.6798 0.2387 0.2784
C34 C 0.7854(4) 0.3408(4) 0.2452(3)
H23 H 0.7814 0.3788 0.2093
H24 H 0.8093 0.3039 0.2256
C35 C 0.8617(4) 0.3918(3) 0.3122(3)
H25 H 0.8559 0.3567 0.3518
H26 H 0.9283 0.4097 0.3031
C36 C 0.8476(4) 0.4681(4) 0.3338(3)
H27 H 0.8557 0.5049 0.2954
H28 H 0.7810 0.4512 0.3427
C37 C 0.9123(4) 0.5746(3) 0.4340(3)
C38 C 0.9692(4) 0.6009(3) 0.5033(3)
H29 H 1.0119 0.5770 0.5226
C39 C 0.9626(4) 0.6625(3) 0.5440(3)
H30 H 1.0017 0.6802 0.5905
C40 C 0.8987(3) 0.6991(3) 0.5170(3)
C41 C 0.8453(4) 0.6738(4) 0.4465(3)
H31 H 0.8046 0.6991 0.4265
C42 C 0.8506(4) 0.6121(4) 0.4047(3)
H32 H 0.8134 0.5959 0.3576
C43 C 0.8805(4) 0.7561(3) 0.5648(3)
H33 H 0.9362 0.7802 0.6060
H34 H 0.8754 0.8015 0.5385
C44 C 0.7975(4) 0.6693(3) 0.6571(3)
H35 H 0.8445 0.6451 0.6566
H36 H 0.7334 0.6244 0.6595
C45 C 0.8337(4) 0.7312(3) 0.7220(3)
C46 C 0.9291(4) 0.7598(3) 0.7644(3)
H37 H 0.9706 0.7358 0.7554
C47 C 0.9645(5) 0.8232(4) 0.8200(3)
H38 H 1.0290 0.8414 0.8476
C48 C 0.9040(5) 0.8593(4) 0.8340(3)
C49 C 0.8066(5) 0.8292(4) 0.7948(3)
H39 H 0.7643 0.8515 0.8057
C50 C 0.7724(4) 0.7662(4) 0.7398(3)
H40 H 0.7068 0.7465 0.7139
C51 C 0.8760(9) 0.9665(7) 0.8947(7)
H41 H 0.8369 0.9665 0.8477
H42 H 0.8304 0.9355 0.9250
C52 C 0.9360(9) 1.0510(8) 0.9268(7)
H43 H 0.9714 1.0861 0.8930
H44 H 0.9839 1.0530 0.9698
C53 C 0.8601(9) 1.0784(8) 0.9454(6)
H45 H 0.8957 1.1389 0.9535
H46 H 0.8116 1.0670 0.9003
C54 C 0.7982(8) 1.0556(6) 1.0014(5)
H47 H 0.8390 1.0518 1.0463
H48 H 0.7436 1.0006 0.9864
C55 C 0.7553(9) 1.1156(7) 1.0158(7)
H49 H 0.7202 1.0972 1.0548
H50 H 0.8099 1.1703 1.0322
C56 C 0.6867(7) 1.1241(6) 0.9541(6)
H51 H 0.7211 1.1415 0.9146
H52 H 0.6687 1.1681 0.9672
C57 C 0.5924(6) 1.0452(6) 0.9278(5)
H53 H 0.6099 1.0006 0.9157
H54 H 0.5562 1.0287 0.9664
C58 C 0.5259(5) 1.0564(5) 0.8630(4)
H55 H 0.5130 1.1043 0.8728
H56 H 0.5576 1.0655 0.8219
C59 C 0.3653(5) 0.9751(4) 0.7858(3)
C60 C 0.2793(6) 0.9009(4) 0.7730(4)
H57 H 0.2704 0.8602 0.8052
C61 C 0.2067(5) 0.8882(4) 0.7115(4)
H58 H 0.1490 0.8382 0.7026
C62 C 0.2176(4) 0.9480(3) 0.6625(3)
C63 C 0.3044(5) 1.0201(4) 0.6781(3)
H59 H 0.3135 1.0614 0.6464
C64 C 0.3783(5) 1.0345(4) 0.7379(4)
H60 H 0.4367 1.0840 0.7459
C65 C 0.1413(4) 0.9324(3) 0.5941(3)
H61 H 0.0937 0.8739 0.5876
H62 H 0.1051 0.9659 0.5979
C66 C 0.1789(4) 1.0193(3) 0.4881(3)
H63 H 0.2398 1.0474 0.4705
H64 H 0.1732 1.0601 0.5191
C67 C 0.0907(4) 0.9875(3) 0.4246(3)
C68 C 0.0066(4) 0.9122(4) 0.4231(3)
H65 H 0.0042 0.8806 0.4623
C69 C -0.0724(5) 0.8840(4) 0.3648(3)
H66 H -0.1275 0.8337 0.3655
C70 C -0.0721(5) 0.9282(4) 0.3055(4)
C71 C 0.0086(5) 1.0036(4) 0.3072(3)
H67 H 0.0092 1.0355 0.2682
C72 C 0.0888(5) 1.0331(4) 0.3653(3)
H68 H 0.1426 1.0843 0.3649
C73 C -0.1543(7) 0.9305(6) 0.1853(4)
H69 H -0.0911 0.9482 0.1704
H70 H -0.1693 0.9783 0.1901
C74 C -0.2458(11) 0.8536(11) 0.1284(10)
H71 H -0.2488 0.8729 0.0806
H72 H -0.2276 0.8072 0.1269
C75 C -0.3508(10) 0.8200(12) 0.1437(10)
H73 H -0.3504 0.7912 0.1870
H74 H -0.3634 0.8678 0.1548
C76 C -0.4329(13) 0.7653(9) 0.0901(10)
H75 H -0.4383 0.7937 0.0469
H76 H -0.4942 0.7494 0.1074
C77 C -0.4190(12) 0.6867(8) 0.0719(7)
H77 H -0.4678 0.6559 0.0285
H78 H -0.3531 0.7039 0.0615
C78 C -0.4295(7) 0.6304(6) 0.1300(6)
H79 H -0.3740 0.6568 0.1711
H80 H -0.4910 0.6187 0.1457
C79 C -0.4305(5) 0.5533(5) 0.1025(5)
H81 H -0.4667 0.5400 0.0526
H82 H -0.4674 0.5086 0.1296
C80 C -0.3308(4) 0.5544(4) 0.1061(4)
H83 H -0.2917 0.5997 0.0805
H84 H -0.2952 0.5631 0.1559
C81 C -0.2641(4) 0.4574(3) 0.0804(3)
C82 C -0.1692(4) 0.5099(3) 0.1186(3)
H85 H -0.1559 0.5626 0.1389
C83 C -0.0940(4) 0.4827(3) 0.1261(3)
H86 H -0.0302 0.5181 0.1517
C84 C -0.1107(4) 0.4046(3) 0.0968(3)
C85 C -0.2051(4) 0.3554(3) 0.0560(3)
H87 H -0.2177 0.3036 0.0341
C86 C -0.2813(4) 0.3808(4) 0.0469(3)
H88 H -0.3438 0.3468 0.0185
C87 C -0.0309(4) 0.3723(3) 0.1133(3)
H89 H -0.0301 0.3518 0.1606
H90 H -0.0475 0.3258 0.0781
Cl1 Cl 0.40633(13) 0.41978(11) 0.64803(11)
Cl2 Cl 0.59902(11) 0.50281(10) 0.74482(8)
Cl3 Cl 0.46067(16) 0.57815(13) 0.72508(10)
C94 C 0.5041(4) 0.5155(3) 0.6836(3)
H109 H 0.5325 0.5442 0.6437
Cl4 Cl 0.05220(18) 0.67226(15) 0.28363(14)
Cl5 Cl -0.0788(2) 0.73552(17) 0.2055(2)
Cl6 Cl 0.11870(16) 0.84851(14) 0.27760(16)
C95 C 0.0179(6) 0.7551(5) 0.2774(5)
H110 H -0.0065 0.7587 0.3210
Cl7 Cl 0.33891(14) 1.03033(10) 0.26777(9)
Cl8 Cl 0.40375(14) 1.16883(10) 0.37605(10)
Cl9 Cl 0.52949(12) 1.08500(11) 0.36701(10)
C96 C 0.4063(4) 1.0726(3) 0.3557(3)
H111 H 0.3744 1.0336 0.3894
C88? C 0.935(2) 0.9909(17) 0.8868(12)
H91? H 0.9011 0.9951 0.8390
H92? H 0.9999 1.0384 0.8984
C89? C 0.8740(18) 0.9936(11) 0.9417(13)
H93? H 0.9070 0.9875 0.9891
H94? H 0.8086 0.9465 0.9292
H95? H 0.9231 1.1273 0.9616
H96? H 0.8244 1.0864 0.8999
H97? H -0.0861 0.9562 0.1787
H98? H -0.1731 0.9756 0.1930
C90? C -0.2146(17) 0.8843(15) 0.1200(14)
H99? H -0.2024 0.8353 0.1132
H100? H -0.1965 0.9182 0.0805
C91? C -0.3224(15) 0.8571(13) 0.1178(11)
H101? H -0.3587 0.8335 0.0690
H102? H -0.3324 0.9066 0.1274
C92? C -0.3737(15) 0.7889(11) 0.1731(11)
H103? H -0.3484 0.8163 0.2220
H104? H -0.4452 0.7721 0.1615
C93? C -0.3557(13) 0.7104(9) 0.1716(11)
H105? H -0.2942 0.7254 0.1548
H106? H -0.3423 0.6984 0.2214
H107? H -0.4811 0.6107 0.1579
H108? H -0.4582 0.6487 0.0871
loop_
_geom_bond_atom_site_label_1
_geom_bond_atom_site_label_2
_geom_bond_site_symmetry_1
_geom_bond_site_symmetry_2
O1 C1 1_555 1_555
O2 C3 1_555 1_555
O3 C5 1_555 1_555
O4 C8 1_555 1_555
O5 C10 1_555 1_555
O6 C12 1_555 1_555
O7 C26 1_555 1_555
O8 C36 1_555 1_555
O9 C48 1_555 1_555
O10 C58 1_555 1_555
O11 C70 1_555 1_555
O12 C80 1_555 1_555
N1 C16 1_555 1_555
N2 C17 1_555 1_555
N3 C16 1_555 1_555
N4 C19 1_555 1_555
N5 C19 1_555 1_555
N6 C20 1_555 1_555
N7 C13 1_555 1_555
N8 C13 1_555 1_555
N9 C14 1_555 1_555
N10 C17 1_555 1_555
N11 C21 1_555 1_555
N12 C14 1_555 1_555
C1 C2 1_555 1_555
C2 H1 1_555 1_555
C3 C2 1_555 1_555
C4 C3 1_555 1_555
H2 C4 1_555 1_555
C5 C4 1_555 1_555
C6 C1 1_555 1_555
H3 C6 1_555 1_555
C7 H4 1_555 1_555
C8 C7 1_555 1_555
C9 C8 1_555 1_555
H5 C9 1_555 1_555
C10 C9 1_555 1_555
C11 C10 1_555 1_555
H6 C11 1_555 1_555
C12 C7 1_555 1_555
C13 O3 1_555 1_555
C14 N8 1_555 1_555
C15 O5 1_555 1_555
C16 O1 1_555 1_555
C17 N1 1_555 1_555
C18 O6 1_555 1_555
C19 O4 1_555 1_555
C20 O2 1_555 1_555
C21 N5 1_555 1_555
C22 N10 1_555 1_555
H7 C22 1_555 1_555
H8 C22 1_555 1_555
C23 C22 1_555 1_555
C24 C23 1_555 1_555
H9 C24 1_555 1_555
C25 C24 1_555 1_555
H10 C25 1_555 1_555
C26 C25 1_555 1_555
C27 C26 1_555 1_555
H11 C27 1_555 1_555
C28 C23 1_555 1_555
H12 C28 1_555 1_555
C29 O7 1_555 1_555
H13 C29 1_555 1_555
H14 C29 1_555 1_555
C30 C29 1_555 1_555
H15 C30 1_555 1_555
H16 C30 1_555 1_555
C31 C30 1_555 1_555
H17 C31 1_555 1_555
H18 C31 1_555 1_555
C32 C31 1_555 1_555
H19 C32 1_555 1_555
H20 C32 1_555 1_555
C33 C32 1_555 1_555
H21 C33 1_555 1_555
H22 C33 1_555 1_555
C34 C33 1_555 1_555
H23 C34 1_555 1_555
H24 C34 1_555 1_555
C35 C34 1_555 1_555
H25 C35 1_555 1_555
H26 C35 1_555 1_555
C36 C35 1_555 1_555
H27 C36 1_555 1_555
H28 C36 1_555 1_555
C37 O8 1_555 1_555
C38 C37 1_555 1_555
H29 C38 1_555 1_555
C39 C38 1_555 1_555
H30 C39 1_555 1_555
C40 C39 1_555 1_555
C41 C40 1_555 1_555
H31 C41 1_555 1_555
C42 C37 1_555 1_555
H32 C42 1_555 1_555
C43 N11 1_555 1_555
H33 C43 1_555 1_555
H34 C43 1_555 1_555
C44 N11 1_555 1_555
H35 C44 1_555 1_555
H36 C44 1_555 1_555
C45 C44 1_555 1_555
C46 C45 1_555 1_555
H37 C46 1_555 1_555
C47 C46 1_555 1_555
H38 C47 1_555 1_555
C48 C47 1_555 1_555
C49 C48 1_555 1_555
H39 C49 1_555 1_555
C50 C45 1_555 1_555
H40 C50 1_555 1_555
C51 O9 1_555 1_555
H41 C51 1_555 1_555
H42 C51 1_555 1_555
C52 C51 1_555 1_555
H43 C52 1_555 1_555
H44 C52 1_555 1_555
C53 C52 1_555 1_555
H45 C53 1_555 1_555
H46 C53 1_555 1_555
C54 C53 1_555 1_555
H47 C54 1_555 1_555
H48 C54 1_555 1_555
C55 C54 1_555 1_555
H49 C55 1_555 1_555
H50 C55 1_555 1_555
C56 C55 1_555 1_555
H51 C56 1_555 1_555
H52 C56 1_555 1_555
C57 C56 1_555 1_555
H53 C57 1_555 1_555
H54 C57 1_555 1_555
C58 C57 1_555 1_555
H55 C58 1_555 1_555
H56 C58 1_555 1_555
C59 O10 1_555 1_555
C60 C59 1_555 1_555
H57 C60 1_555 1_555
C61 C60 1_555 1_555
H58 C61 1_555 1_555
C62 C61 1_555 1_555
C63 C62 1_555 1_555
H59 C63 1_555 1_555
C64 C59 1_555 1_555
H60 C64 1_555 1_555
C65 N12 1_555 1_555
H61 C65 1_555 1_555
H62 C65 1_555 1_555
C66 N12 1_555 1_555
H63 C66 1_555 1_555
H64 C66 1_555 1_555
C67 C66 1_555 1_555
C68 C67 1_555 1_555
H65 C68 1_555 1_555
C69 C68 1_555 1_555
H66 C69 1_555 1_555
C70 C69 1_555 1_555
C71 C70 1_555 1_555
H67 C71 1_555 1_555
C72 C67 1_555 1_555
H68 C72 1_555 1_555
C73 O11 1_555 1_555
H69 C73 1_555 1_555
H70 C73 1_555 1_555
C74 C73 1_555 1_555
H71 C74 1_555 1_555
H72 C74 1_555 1_555
C75 C74 1_555 1_555
H73 C75 1_555 1_555
H74 C75 1_555 1_555
C76 C75 1_555 1_555
H75 C76 1_555 1_555
H76 C76 1_555 1_555
C77 C76 1_555 1_555
H77 C77 1_555 1_555
H78 C77 1_555 1_555
C78 C77 1_555 1_555
H79 C78 1_555 1_555
H80 C78 1_555 1_555
C79 C78 1_555 1_555
H81 C79 1_555 1_555
H82 C79 1_555 1_555
C80 C79 1_555 1_555
H83 C80 1_555 1_555
H84 C80 1_555 1_555
C81 O12 1_555 1_555
C82 C81 1_555 1_555
H85 C82 1_555 1_555
C83 C82 1_555 1_555
H86 C83 1_555 1_555
C84 C83 1_555 1_555
C85 C84 1_555 1_555
H87 C85 1_555 1_555
C86 C81 1_555 1_555
H88 C86 1_555 1_555
C87 N10 1_555 1_555
H89 C87 1_555 1_555
H90 C87 1_555 1_555
Cl1 C94 1_555 1_555
Cl2 C94 1_555 1_555
Cl3 C94 1_555 1_555
C94 H109 1_555 1_555
Cl4 C95 1_555 1_555
Cl5 C95 1_555 1_555
Cl6 C95 1_555 1_555
C95 H110 1_555 1_555
Cl7 C96 1_555 1_555
Cl8 C96 1_555 1_555
Cl9 C96 1_555 1_555
C96 H111 1_555 1_555
N2 C18 1_555 1_555
N3 C18 1_555 1_555
N4 C20 1_555 1_555
N6 C21 1_555 1_555
N7 C15 1_555 1_555
N9 C15 1_555 1_555
C5 C6 1_555 1_555
C11 C12 1_555 1_555
C27 C28 1_555 1_555
C40 C43 1_555 1_555
C41 C42 1_555 1_555
C49 C50 1_555 1_555
C62 C65 1_555 1_555
C63 C64 1_555 1_555
C71 C72 1_555 1_555
C84 C87 1_555 1_555
C85 C86 1_555 1_555

#END
