
#######################################################################
#
#                 Cambridge Crystallographic Data Centre
#                                CCDC 
#
#######################################################################
#
# If this CIF has been generated from an entry in the Cambridge 
# Structural Database, then it will include bibliographic, chemical, 
# crystal, experimental, refinement or atomic coordinate data resulting 
# from the CCDC's data processing and validation procedures.
#
#######################################################################

data_VANXEO
_chemical_name_common            6,13-Dihydro-6,13-diazapentacene
_chemical_formula_moiety         'C20 H14 N2'
_chemical_name_systematic        6,13-Dihydrodibenzo[b,i]phenazine
_symmetry_cell_setting           triclinic
_symmetry_space_group_name_H-M   'P -1'
_symmetry_Int_Tables_number      2
_space_group_name_Hall           '-P 1'
loop_
_symmetry_equiv_pos_site_id
_symmetry_equiv_pos_as_xyz
1 x,y,z
2 -x,-y,-z
_cell_length_a                   5.7504(14)
_cell_length_b                   8.853(2)
_cell_length_c                   13.142(3)
_cell_angle_alpha                87.218(5)
_cell_angle_beta                 84.870(6)
_cell_angle_gamma                86.213(4)
_cell_volume                     664.29
_cell_formula_units_Z            2
_exptl_crystal_recrystallization_method benzophenone
loop_
_atom_site_label
_atom_site_type_symbol
_atom_site_fract_x
_atom_site_fract_y
_atom_site_fract_z
N1 N 0.2110(5) 0.5509(3) 0.4632(2)
H1 H 0.3444 0.5829 0.4402
C1 C 0.1158(7) 0.5987(4) 0.5576(3)
C2 C 0.1057(7) 0.4545(4) 0.4029(3)
C3 C 0.2257(6) 0.6925(4) 0.6143(3)
H2 H 0.3677 0.7287 0.5877
C4 C 0.2021(6) 0.4129(4) 0.3100(3)
H3 H 0.3465 0.4480 0.2857
C5 C 0.1311(6) 0.7365(4) 0.7119(3)
C6 C 0.0898(7) 0.3176(4) 0.2485(3)
C7 C 0.2435(6) 0.8290(4) 0.7737(3)
H4 H 0.3866 0.8659 0.7493
C8 C 0.1827(6) 0.2778(4) 0.1506(3)
H5 H 0.3261 0.3126 0.1246
C9 C 0.1480(7) 0.8660(4) 0.8683(3)
H6 H 0.2259 0.9280 0.9073
C10 C 0.0665(7) 0.1885(4) 0.0923(3)
H7 H 0.1296 0.1642 0.0270
C2A C -0.1057(7) 0.5455(4) 0.5971(3)
N1A N -0.2110(5) 0.4491(3) 0.5368(2)
H1A H -0.3444 0.4171 0.5598
C1A C -0.1158(7) 0.4013(4) 0.4424(3)
C5A C -0.1311(6) 0.2635(4) 0.2881(3)
C3A C -0.2257(6) 0.3075(4) 0.3857(3)
H2A H -0.3677 0.2713 0.4123
C7A C -0.2435(6) 0.1710(4) 0.2263(3)
H4A H -0.3866 0.1341 0.2507
C9A C -0.1480(7) 0.1340(4) 0.1317(3)
H6A H -0.2259 0.0720 0.0927
C4A C -0.2021(6) 0.5871(4) 0.6900(3)
H3A H -0.3465 0.5520 0.7143
C6A C -0.0898(7) 0.6824(4) 0.7515(3)
C10A C -0.0665(7) 0.8115(4) 0.9077(3)
C8A C -0.1827(6) 0.7222(4) 0.8494(3)
H5A H -0.3261 0.6874 0.8754
H7A H -0.1296 0.8358 0.9730
N2 N 0.2864(5) 0.0696(3) 0.4834(2)
H8 H 0.1526 0.1138 0.4727
C11 C 0.3833(7) -0.0357(4) 0.4149(3)
C12 C 0.3933(7) 0.1081(4) 0.5686(3)
C13 C 0.2782(6) -0.0697(4) 0.3303(3)
H9 H 0.1332 -0.0220 0.3189
C14 C 0.2895(6) 0.2120(4) 0.6338(3)
H10 H 0.1464 0.2605 0.6202
C15 C 0.3963(6) 0.2475(4) 0.7224(3)
C16 C 0.3820(7) -0.1745(4) 0.2596(3)
C17 C 0.2778(6) -0.2081(4) 0.1708(3)
H11 H 0.1337 -0.1606 0.1577
C18 C 0.2909(6) 0.3504(4) 0.7937(3)
H12 H 0.1461 0.3986 0.7827
C19 C 0.3971(7) 0.3811(4) 0.8789(3)
H13 H 0.3247 0.4494 0.9251
C20 C 0.3855(7) -0.3093(4) 0.1037(3)
H14 H 0.3133 -0.3305 0.0459
C12A C 0.6067(7) -0.1081(4) 0.4314(3)
N2A N 0.7136(5) -0.0696(3) 0.5166(2)
H8A H 0.8474 -0.1138 0.5273
C11A C 0.6167(7) 0.0357(4) 0.5851(3)
C16A C 0.6180(7) 0.1745(4) 0.7404(3)
C13A C 0.7218(6) 0.0697(4) 0.6697(3)
H9A H 0.8668 0.0220 0.6811
C17A C 0.7222(6) 0.2081(4) 0.8292(3)
H11A H 0.8663 0.1606 0.8423
C20A C 0.6145(7) 0.3093(4) 0.8963(3)
H14A H 0.6867 0.3305 0.9541
C14A C 0.7105(6) -0.2120(4) 0.3662(3)
H10A H 0.8536 -0.2605 0.3798
C15A C 0.6037(6) -0.2475(4) 0.2776(3)
C19A C 0.6029(7) -0.3811(4) 0.1211(3)
C18A C 0.7091(6) -0.3504(4) 0.2063(3)
H12A H 0.8539 -0.3986 0.2173
H13A H 0.6753 -0.4494 0.0749
loop_
_geom_bond_atom_site_label_1
_geom_bond_atom_site_label_2
_geom_bond_site_symmetry_1
_geom_bond_site_symmetry_2
N1 H1 1_555 1_555
C1 N1 1_555 1_555
C2 N1 1_555 1_555
C3 C1 1_555 1_555
H2 C3 1_555 1_555
C4 C2 1_555 1_555
H3 C4 1_555 1_555
C5 C3 1_555 1_555
C6 C4 1_555 1_555
C7 C5 1_555 1_555
H4 C7 1_555 1_555
C8 C6 1_555 1_555
H5 C8 1_555 1_555
C9 C7 1_555 1_555
H6 C9 1_555 1_555
C10 C8 1_555 1_555
H7 C10 1_555 1_555
N2 H8 1_555 1_555
C11 N2 1_555 1_555
C12 N2 1_555 1_555
C13 C11 1_555 1_555
H9 C13 1_555 1_555
C14 C12 1_555 1_555
H10 C14 1_555 1_555
C15 C14 1_555 1_555
C16 C13 1_555 1_555
C17 C16 1_555 1_555
H11 C17 1_555 1_555
C18 C15 1_555 1_555
H12 C18 1_555 1_555
C19 C18 1_555 1_555
H13 C19 1_555 1_555
C20 C17 1_555 1_555
H14 C20 1_555 1_555
C2A C1 1_555 1_555
N1A C2A 1_555 1_555
H1A N1A 1_555 1_555
C1A C2 1_555 1_555
C5A C6 1_555 1_555
C3A C1A 1_555 1_555
H2A C3A 1_555 1_555
C7A C5A 1_555 1_555
H4A C7A 1_555 1_555
C9A C10 1_555 1_555
H6A C9A 1_555 1_555
C4A C2A 1_555 1_555
H3A C4A 1_555 1_555
C6A C5 1_555 1_555
C10A C9 1_555 1_555
C8A C6A 1_555 1_555
H5A C8A 1_555 1_555
H7A C10A 1_555 1_555
C12A C11 1_555 1_555
N2A C12A 1_555 1_555
H8A N2A 1_555 1_555
C11A C12 1_555 1_555
C16A C15 1_555 1_555
C13A C11A 1_555 1_555
H9A C13A 1_555 1_555
C17A C16A 1_555 1_555
H11A C17A 1_555 1_555
C20A C19 1_555 1_555
H14A C20A 1_555 1_555
C14A C12A 1_555 1_555
H10A C14A 1_555 1_555
C15A C16 1_555 1_555
C19A C20 1_555 1_555
C18A C15A 1_555 1_555
H12A C18A 1_555 1_555
H13A C19A 1_555 1_555
N1A C1A 1_555 1_555
C5A C3A 1_555 1_555
C7A C9A 1_555 1_555
C4A C6A 1_555 1_555
C10A C8A 1_555 1_555
N2A C11A 1_555 1_555
C16A C13A 1_555 1_555
C17A C20A 1_555 1_555
C14A C15A 1_555 1_555
C19A C18A 1_555 1_555

#END
