
#######################################################################
#
#                 Cambridge Crystallographic Data Centre
#                                CCDC 
#
#######################################################################
#
# If this CIF has been generated from an entry in the Cambridge 
# Structural Database, then it will include bibliographic, chemical, 
# crystal, experimental, refinement or atomic coordinate data resulting 
# from the CCDC's data processing and validation procedures.
#
#######################################################################

data_VANYOY01
_chemical_compound_source        'Anemone altaica'
_chemical_formula_moiety         'C10 H12 O6'
_chemical_name_systematic        
1,6,9,13-Tetraoxadispiro(4.2.4.2)tetradecane-2,10-dione
_symmetry_cell_setting           monoclinic
_symmetry_space_group_name_H-M   'P 21/n'
_symmetry_Int_Tables_number      14
_space_group_name_Hall           '-P 2yn'
loop_
_symmetry_equiv_pos_site_id
_symmetry_equiv_pos_as_xyz
1 x,y,z
2 1/2-x,1/2+y,1/2-z
3 -x,-y,-z
4 1/2+x,1/2-y,1/2+z
_cell_length_a                   8.898(5)
_cell_length_b                   6.010(2)
_cell_length_c                   9.897(4)
_cell_angle_alpha                90
_cell_angle_beta                 111.70(1)
_cell_angle_gamma                90
_cell_volume                     491.754
_exptl_crystal_colour            colorless
_exptl_crystal_description       platelet
_cell_formula_units_Z            2
loop_
_atom_site_label
_atom_site_type_symbol
_atom_site_fract_x
_atom_site_fract_y
_atom_site_fract_z
O1 O 0.3129(2) 0.9773(3) 0.7294(2)
O2 O 0.3865(2) 0.7222(2) 0.6094(1)
O3 O 0.6282(1) 0.6162(2) 0.6000(1)
C1 C 0.3987(3) 0.8253(3) 0.7318(2)
C2 C 0.5290(3) 0.7226(4) 0.8562(2)
C3 C 0.5649(3) 0.5091(4) 0.7987(2)
C4 C 0.5025(2) 0.5450(3) 0.6382(2)
C5 C 0.4207(3) 0.3474(3) 0.5500(2)
H1 H 0.6240 0.8174 0.8886
H2 H 0.4931 0.6969 0.9363
H3 H 0.6803 0.4795 0.8361
H4 H 0.5091 0.3869 0.8240
H5 H 0.4952 0.2227 0.5764
H6 H 0.3261 0.3119 0.5724
O1B O 0.6871(2) 0.0227(3) 0.2706(2)
O2B O 0.6135(2) 0.2778(2) 0.3906(1)
O3B O 0.3718(1) 0.3838(2) 0.4000(1)
C1B C 0.6013(3) 0.1747(3) 0.2682(2)
C2B C 0.4710(3) 0.2774(4) 0.1438(2)
C3B C 0.4351(3) 0.4909(4) 0.2013(2)
C4B C 0.4975(2) 0.4550(3) 0.3618(2)
C5B C 0.5793(3) 0.6526(3) 0.4500(2)
H1B H 0.3760 0.1826 0.1114
H2B H 0.5069 0.3031 0.0637
H3B H 0.3197 0.5205 0.1639
H4B H 0.4909 0.6131 0.1760
H5B H 0.5048 0.7773 0.4236
H6B H 0.6739 0.6881 0.4276
loop_
_geom_bond_atom_site_label_1
_geom_bond_atom_site_label_2
_geom_bond_site_symmetry_1
_geom_bond_site_symmetry_2
O1 C1 1_555 1_555
O2 C1 1_555 1_555
O3 C4 1_555 1_555
C1 C2 1_555 1_555
C2 C3 1_555 1_555
C3 C4 1_555 1_555
C4 O2 1_555 1_555
C5 C4 1_555 1_555
H1 C2 1_555 1_555
H2 C2 1_555 1_555
H3 C3 1_555 1_555
H4 C3 1_555 1_555
H5 C5 1_555 1_555
H6 C5 1_555 1_555
O1B C1B 1_555 1_555
O2B C1B 1_555 1_555
O3B C5 1_555 1_555
C1B C2B 1_555 1_555
C2B C3B 1_555 1_555
C3B C4B 1_555 1_555
C4B O2B 1_555 1_555
C5B O3 1_555 1_555
H1B C2B 1_555 1_555
H2B C2B 1_555 1_555
H3B C3B 1_555 1_555
H4B C3B 1_555 1_555
H5B C5B 1_555 1_555
H6B C5B 1_555 1_555
O3B C4B 1_555 1_555
C4B C5B 1_555 1_555

#END
