
#######################################################################
#
#                 Cambridge Crystallographic Data Centre
#                                CCDC 
#
#######################################################################
#
# If this CIF has been generated from an entry in the Cambridge 
# Structural Database, then it will include bibliographic, chemical, 
# crystal, experimental, refinement or atomic coordinate data resulting 
# from the CCDC's data processing and validation procedures.
#
#######################################################################

data_VANYIS
_chemical_compound_source        'Tripterygium wilfordii'
_chemical_formula_moiety         'C21 H30 O4,H2 O1'
_chemical_name_systematic        'Triptonoterpenol monohydrate'
_symmetry_cell_setting           orthorhombic
_symmetry_space_group_name_H-M   'P 21 21 21'
_symmetry_Int_Tables_number      19
_space_group_name_Hall           'P 2ac 2ab'
loop_
_symmetry_equiv_pos_site_id
_symmetry_equiv_pos_as_xyz
1 x,y,z
2 1/2+x,1/2-y,-z
3 -x,1/2+y,1/2-z
4 1/2-x,-y,1/2+z
_cell_length_a                   7.500(5)
_cell_length_b                   14.370(1)
_cell_length_c                   18.196(3)
_cell_angle_alpha                90
_cell_angle_beta                 90
_cell_angle_gamma                90
_cell_volume                     1961.07
_cell_formula_units_Z            4
loop_
_atom_site_label
_atom_site_type_symbol
_atom_site_fract_x
_atom_site_fract_y
_atom_site_fract_z
O1 O 1.0926(5) 0.1867(2) 0.3657(2)
O2 O 0.6720(4) -0.0465(2) 0.1374(1)
O3 O 0.1817(4) 0.2275(2) 0.0724(1)
O4 O 0.6805(4) 0.2151(2) 0.4142(1)
C1 C 0.8928(5) 0.1013(3) 0.1934(2)
C2 C 1.0312(5) 0.1098(3) 0.2551(2)
C3 C 0.9975(5) 0.1834(3) 0.3119(2)
C4 C 0.8517(5) 0.2559(2) 0.3011(2)
C5 C 0.7079(5) 0.2279(2) 0.2419(2)
C6 C 0.5223(5) 0.2660(3) 0.2568(2)
C7 C 0.4220(5) 0.2668(3) 0.1835(2)
C8 C 0.4349(5) 0.1753(2) 0.1423(2)
C9 C 0.5638(5) 0.1085(2) 0.1593(2)
C10 C 0.7025(5) 0.1227(2) 0.2214(2)
C11 C 0.5577(5) 0.0239(2) 0.1193(2)
C12 C 0.4369(5) 0.0117(3) 0.0621(2)
C13 C 0.3131(5) 0.0792(2) 0.0443(2)
C14 C 0.3122(5) 0.1598(2) 0.0854(2)
C15 C 0.1843(6) 0.0643(3) -0.0196(2)
C16 C 0.0597(7) -0.0172(4) -0.0066(3)
C17 C 0.2834(8) 0.0520(4) -0.0917(2)
C18 C 0.6516(6) 0.0593(3) 0.2864(2)
C19 C 0.9502(6) 0.3435(3) 0.2720(3)
C20 C 0.7793(6) 0.2864(3) 0.3759(2)
C21 C 0.2335(6) 0.2993(3) 0.0220(3)
O5 O 0.3439(4) 0.2896(2) 0.4459(1)
loop_
_geom_bond_atom_site_label_1
_geom_bond_atom_site_label_2
_geom_bond_site_symmetry_1
_geom_bond_site_symmetry_2
O1 C3 1_555 1_555
O2 C11 1_555 1_555
O3 C14 1_555 1_555
O4 C20 1_555 1_555
C1 C2 1_555 1_555
C2 C3 1_555 1_555
C3 C4 1_555 1_555
C4 C5 1_555 1_555
C5 C6 1_555 1_555
C6 C7 1_555 1_555
C7 C8 1_555 1_555
C8 C9 1_555 1_555
C9 C10 1_555 1_555
C10 C1 1_555 1_555
C11 C9 1_555 1_555
C12 C11 1_555 1_555
C13 C12 1_555 1_555
C14 C8 1_555 1_555
C15 C13 1_555 1_555
C16 C15 1_555 1_555
C17 C15 1_555 1_555
C18 C10 1_555 1_555
C19 C4 1_555 1_555
C20 C4 1_555 1_555
C21 O3 1_555 1_555
C5 C10 1_555 1_555
C13 C14 1_555 1_555

#END
