
#######################################################################
#
#                 Cambridge Crystallographic Data Centre
#                                CCDC 
#
#######################################################################
#
# If this CIF has been generated from an entry in the Cambridge 
# Structural Database, then it will include bibliographic, chemical, 
# crystal, experimental, refinement or atomic coordinate data resulting 
# from the CCDC's data processing and validation procedures.
#
#######################################################################

data_VANYOY
_chemical_compound_source        'Anemone altaica'
_chemical_formula_moiety         'C10 H12 O6'
_chemical_name_systematic        
1,6,9,13-Tetraoxadispiro(4.2.4.2)tetradecane-2,10-dione
_symmetry_cell_setting           monoclinic
_symmetry_space_group_name_H-M   'P 21/n'
_symmetry_Int_Tables_number      14
_space_group_name_Hall           '-P 2yn'
loop_
_symmetry_equiv_pos_site_id
_symmetry_equiv_pos_as_xyz
1 x,y,z
2 1/2-x,1/2+y,1/2-z
3 -x,-y,-z
4 1/2+x,1/2-y,1/2+z
_cell_length_a                   9.051(1)
_cell_length_b                   6.051(2)
_cell_length_c                   10.098(1)
_cell_angle_alpha                90
_cell_angle_beta                 112.57(1)
_cell_angle_gamma                90
_cell_volume                     510.686
_exptl_crystal_colour            colorless
_cell_formula_units_Z            2
loop_
_atom_site_label
_atom_site_type_symbol
_atom_site_fract_x
_atom_site_fract_y
_atom_site_fract_z
O1 O 0.6282(3) 0.3847(5) 0.1001(3)
O2 O 0.3871(4) 0.2772(3) 0.1096(5)
O3 O 0.3132(9) 0.0221(5) 0.2294(6)
C1 C 0.5796(8) 0.3461(7) -0.0508(8)
C2 C 0.5023(9) 0.4548(8) 0.1386(9)
C3 C 0.5650(5) 0.4922(5) 0.2987(5)
C4 C 0.5300(9) 0.2796(6) 0.3574(5)
C5 C 0.3991(8) 0.1744(6) 0.2321(7)
C2B C 0.4977(9) 0.5452(8) -0.1386(9)
C1B C 0.4204(8) 0.6539(7) 0.0508(8)
O1B O 0.3718(3) 0.6153(5) -0.1001(3)
O2B O 0.6129(4) 0.7228(3) -0.1096(5)
C3B C 0.4350(5) 0.5078(5) -0.2987(5)
C5B C 0.6009(8) 0.8256(6) -0.2321(7)
C4B C 0.4700(9) 0.7204(6) -0.3574(5)
O3B O 0.6868(9) 0.9779(5) -0.2294(6)
loop_
_geom_bond_atom_site_label_1
_geom_bond_atom_site_label_2
_geom_bond_site_symmetry_1
_geom_bond_site_symmetry_2
O1 C1 1_555 1_555
O2 C2 1_555 1_555
O3 C5 1_555 1_555
C1 C2B 1_555 1_555
C2 O1 1_555 1_555
C3 C2 1_555 1_555
C4 C3 1_555 1_555
C5 O2 1_555 1_555
C2B O1B 1_555 1_555
C1B C2 1_555 1_555
O1B C1B 1_555 1_555
O2B C2B 1_555 1_555
C3B C2B 1_555 1_555
C5B O2B 1_555 1_555
C4B C3B 1_555 1_555
O3B C5B 1_555 1_555
C4 C5 1_555 1_555
C5B C4B 1_555 1_555

#END
