
#######################################################################
#
#                 Cambridge Crystallographic Data Centre
#                                CCDC 
#
#######################################################################
#
# If this CIF has been generated from an entry in the Cambridge 
# Structural Database, then it will include bibliographic, chemical, 
# crystal, experimental, refinement or atomic coordinate data resulting 
# from the CCDC's data processing and validation procedures.
#
#######################################################################

data_VANYEO
_chemical_formula_moiety         'C8 H6 O2'
_chemical_name_systematic        Bicyclo(3.3.0)octa-3,7-dien-2,6-dione
_symmetry_cell_setting           triclinic
_symmetry_space_group_name_H-M   'P -1'
_symmetry_Int_Tables_number      2
_space_group_name_Hall           '-P 1'
loop_
_symmetry_equiv_pos_site_id
_symmetry_equiv_pos_as_xyz
1 x,y,z
2 -x,-y,-z
_cell_length_a                   6.596(2)
_cell_length_b                   7.414(1)
_cell_length_c                   7.359(1)
_cell_angle_alpha                106.64(1)
_cell_angle_beta                 100.17(1)
_cell_angle_gamma                98.44(1)
_cell_volume                     331.874
_cell_formula_units_Z            2
loop_
_atom_site_label
_atom_site_type_symbol
_atom_site_fract_x
_atom_site_fract_y
_atom_site_fract_z
O1 O 0.5059(4) 0.4142(4) 0.7461(5)
O2 O -0.0390(4) 0.9372(4) 0.7286(5)
C1 C 0.3947(6) 0.7185(5) 0.8564(6)
C2 C 0.3672(6) 0.4994(5) 0.7766(5)
C3 C 0.1421(6) 0.4174(5) 0.7439(6)
C4 C 0.0388(6) 0.5538(5) 0.7983(6)
C5 C 0.1759(6) 0.7526(5) 0.8778(5)
C6 C 0.1207(6) 0.8758(5) 0.7476(6)
C7 C 0.2946(6) 0.8991(5) 0.6497(6)
C8 C 0.4451(6) 0.8134(5) 0.7088(6)
H1 H 0.503(5) 0.777(5) 0.985(5)
H2 H 0.090(6) 0.284(5) 0.681(6)
H3 H -0.094(6) 0.543(5) 0.811(6)
H4 H 0.165(5) 0.826(4) 1.015(5)
H5 H 0.293(6) 0.959(5) 0.537(6)
H6 H 0.567(7) 0.783(7) 0.610(7)
loop_
_geom_bond_atom_site_label_1
_geom_bond_atom_site_label_2
_geom_bond_site_symmetry_1
_geom_bond_site_symmetry_2
O1 C2 1_555 1_555
O2 C6 1_555 1_555
C1 C2 1_555 1_555
C2 C3 1_555 1_555
C3 C4 1_555 1_555
C4 C5 1_555 1_555
C5 C1 1_555 1_555
C6 C5 1_555 1_555
C7 C6 1_555 1_555
C8 C1 1_555 1_555
H1 C1 1_555 1_555
H2 C3 1_555 1_555
H3 C4 1_555 1_555
H4 C5 1_555 1_555
H5 C7 1_555 1_555
H6 C8 1_555 1_555
C7 C8 1_555 1_555

#END
