
#######################################################################
#
#                 Cambridge Crystallographic Data Centre
#                                CCDC 
#
#######################################################################
#
# If this CIF has been generated from an entry in the Cambridge 
# Structural Database, then it will include bibliographic, chemical, 
# crystal, experimental, refinement or atomic coordinate data resulting 
# from the CCDC's data processing and validation procedures.
#
#######################################################################

data_VAPKOO
_chemical_formula_moiety         'C20 H17 O8 1-,C13 H16 F4 N1 1+,C1 H4 O1'
_chemical_name_systematic        
'4-(2-Fluoro-4-(trifluoromethyl)phenyl)-3-methylpiperidinium 3-carboxy-2,3-bis((4-methylbenzoyl)oxy)propanoate methanol solvate'
_symmetry_cell_setting           orthorhombic
_symmetry_space_group_name_H-M   'P 21 21 2'
_symmetry_Int_Tables_number      18
_space_group_name_Hall           'P 2 2ab'
loop_
_symmetry_equiv_pos_site_id
_symmetry_equiv_pos_as_xyz
1 x,y,z
2 -x,-y,z
3 1/2-x,1/2+y,-z
4 1/2+x,1/2-y,-z
_cell_length_a                   14.3828(2)
_cell_length_b                   28.8681(4)
_cell_length_c                   8.35980(10)
_cell_angle_alpha                90
_cell_angle_beta                 90
_cell_angle_gamma                90
_cell_volume                     3471.02
_exptl_crystal_colour            colorless
_exptl_crystal_description       prism
_cell_formula_units_Z            4
_exptl_crystal_recrystallization_method methanol
loop_
_atom_site_label
_atom_site_type_symbol
_atom_site_fract_x
_atom_site_fract_y
_atom_site_fract_z
C1 C 0.15336(19) 0.91643(10) 0.3488(4)
H1 H 0.1707 0.9336 0.2595
C2 C 0.1255(2) 0.93878(11) 0.4879(4)
H2 H 0.1243 0.9710 0.4904
C3 C 0.0992(2) 0.91419(12) 0.6231(4)
C4 C 0.1001(2) 0.86681(12) 0.6155(4)
H3 H 0.0816 0.8498 0.7044
C5 C 0.12774(17) 0.84382(10) 0.4795(3)
H4 H 0.1281 0.8116 0.4779
C6 C 0.15526(16) 0.86851(9) 0.3438(3)
C7 C 0.18707(16) 0.84534(9) 0.1962(3)
C8 C 0.23720(13) 0.77401(8) 0.0857(3)
H5 H 0.2098 0.7852 -0.0145
C9 C 0.21183(13) 0.72351(8) 0.1103(3)
H6 H 0.2290 0.7055 0.0154
C10 C 0.27885(15) 0.66223(8) 0.2608(3)
C11 C 0.32877(17) 0.65144(9) 0.4111(3)
C12 C 0.3643(2) 0.68575(12) 0.5078(4)
H7 H 0.3620 0.7165 0.4748
C13 C 0.4030(3) 0.67462(16) 0.6531(5)
H8 H 0.4263 0.6982 0.7173
C14 C 0.4082(2) 0.62987(18) 0.7061(4)
C15 C 0.3793(2) 0.59592(15) 0.6023(5)
H9 H 0.3872 0.5650 0.6310
C16 C 0.3388(2) 0.60617(12) 0.4568(5)
H10 H 0.3185 0.5825 0.3902
C17 C 0.4444(3) 0.6194(2) 0.8704(5)
H11 H 0.3941 0.6205 0.9458
H12 H 0.4905 0.6419 0.8994
H13 H 0.4717 0.5890 0.8713
C18 C 0.34246(14) 0.78135(8) 0.0820(3)
C19 C 0.10583(14) 0.71907(9) 0.1419(3)
C20 C 0.0713(3) 0.93947(14) 0.7749(5)
H14 H 0.0059 0.9353 0.7933
H15 H 0.0846 0.9719 0.7637
H16 H 0.1055 0.9272 0.8638
H17 H 0.445(2) 0.7649(11) -0.041(4)
O1 O 0.19873(10) 0.79931(6) 0.21757(19)
O2 O 0.26443(10) 0.70825(5) 0.24479(19)
O3 O 0.25265(14) 0.63419(7) 0.1646(3)
O4 O 0.38118(10) 0.75973(6) -0.03621(19)
O5 O 0.38195(11) 0.80493(7) 0.1799(2)
O6 O 0.07901(12) 0.70349(8) 0.2686(2)
O7 O 0.05644(10) 0.73341(8) 0.0269(2)
O8 O 0.20130(16) 0.86408(7) 0.0699(3)
C21 C 0.36945(18) 0.81807(9) 0.5894(3)
H18 H 0.3699 0.7866 0.6304
H19 H 0.3166 0.8214 0.5182
C22 C 0.36115(17) 0.85195(8) 0.7262(3)
H20 H 0.4115 0.8466 0.8012
H21 H 0.3030 0.8465 0.7820
C23 C 0.36432(17) 0.90248(8) 0.6704(3)
H22 H 0.3105 0.9073 0.6005
C24 C 0.45293(19) 0.91137(9) 0.5674(3)
H23 H 0.4451 0.9416 0.5156
C25 C 0.4594(2) 0.87539(9) 0.4357(3)
H24 H 0.4081 0.8796 0.3617
H25 H 0.5169 0.8798 0.3768
C26 C 0.35576(17) 0.93670(8) 0.8070(3)
C27 C 0.32357(18) 0.98125(9) 0.7808(3)
C28 C 0.31606(19) 1.01478(9) 0.8971(4)
H26 H 0.2931 1.0441 0.8733
C29 C 0.3439(2) 1.00340(10) 1.0507(3)
C30 C 0.3762(3) 0.95972(11) 1.0832(4)
H27 H 0.3956 0.9522 1.1861
C31 C 0.3800(2) 0.92691(10) 0.9639(3)
H28 H 0.3996 0.8971 0.9894
C32 C 0.3390(3) 1.03859(16) 1.1810(6)
C33 C 0.5415(2) 0.91358(11) 0.6639(4)
H29 H 0.5492 0.8852 0.7224
H30 H 0.5382 0.9391 0.7374
H31 H 0.5934 0.9178 0.5933
F1 F 0.29862(15) 0.99316(5) 0.6300(2)
F2 F 0.3097(13) 1.07775(18) 1.1420(7)
F3 F 0.2768(7) 1.0243(3) 1.2958(8)
F4 F 0.4172(6) 1.0398(6) 1.2675(19)
H32 H 0.472(2) 0.8065(12) 0.419(4)
H33 H 0.503(2) 0.8212(10) 0.570(4)
N1 N 0.45679(16) 0.82728(8) 0.5007(3)
C34 C 0.1593(2) 0.72096(16) 0.6603(5)
H34 H 0.1992 0.7433 0.7103
H35 H 0.1692 0.7213 0.5468
H36 H 0.1731 0.6907 0.7014
H37 H 0.052(4) 0.723(2) 0.801(7)
O9 O 0.06919(17) 0.73158(12) 0.6921(3)
F5? F 0.3907(16) 1.0770(4) 1.1357(15)
F6? F 0.2630(11) 1.0588(11) 1.185(3)
F7? F 0.371(3) 1.0288(5) 1.3037(13)
loop_
_geom_bond_atom_site_label_1
_geom_bond_atom_site_label_2
_geom_bond_site_symmetry_1
_geom_bond_site_symmetry_2
C1 H1 1_555 1_555
C2 C1 1_555 1_555
H2 C2 1_555 1_555
C3 C2 1_555 1_555
C4 C3 1_555 1_555
H3 C4 1_555 1_555
C5 C4 1_555 1_555
H4 C5 1_555 1_555
C6 C1 1_555 1_555
C7 C6 1_555 1_555
C8 H5 1_555 1_555
C9 C8 1_555 1_555
H6 C9 1_555 1_555
C10 C11 1_555 1_555
C11 C12 1_555 1_555
C12 H7 1_555 1_555
C13 C12 1_555 1_555
H8 C13 1_555 1_555
C14 C13 1_555 1_555
C15 C14 1_555 1_555
H9 C15 1_555 1_555
C16 C11 1_555 1_555
H10 C16 1_555 1_555
C17 C14 1_555 1_555
H11 C17 1_555 1_555
H12 C17 1_555 1_555
H13 C17 1_555 1_555
C18 C8 1_555 1_555
C19 C9 1_555 1_555
C20 C3 1_555 1_555
H14 C20 1_555 1_555
H15 C20 1_555 1_555
H16 C20 1_555 1_555
H17 O4 1_555 1_555
O1 C7 1_555 1_555
O2 C9 1_555 1_555
O3 C10 1_555 1_555
O4 C18 1_555 1_555
O5 C18 1_555 1_555
O6 C19 1_555 1_555
O7 C19 1_555 1_555
O8 C7 1_555 1_555
C21 H18 1_555 1_555
H19 C21 1_555 1_555
C22 C21 1_555 1_555
H20 C22 1_555 1_555
H21 C22 1_555 1_555
C23 C22 1_555 1_555
H22 C23 1_555 1_555
C24 C23 1_555 1_555
H23 C24 1_555 1_555
C25 C24 1_555 1_555
H24 C25 1_555 1_555
H25 C25 1_555 1_555
C26 C23 1_555 1_555
C27 C26 1_555 1_555
C28 C27 1_555 1_555
H26 C28 1_555 1_555
C29 C28 1_555 1_555
C30 C29 1_555 1_555
H27 C30 1_555 1_555
C31 C26 1_555 1_555
H28 C31 1_555 1_555
C32 C29 1_555 1_555
C33 C24 1_555 1_555
H29 C33 1_555 1_555
H30 C33 1_555 1_555
H31 C33 1_555 1_555
F1 C27 1_555 1_555
F2 C32 1_555 1_555
F3 C32 1_555 1_555
F4 C32 1_555 1_555
H32 N1 1_555 1_555
H33 N1 1_555 1_555
N1 C21 1_555 1_555
C34 H34 1_555 1_555
H35 C34 1_555 1_555
H36 C34 1_555 1_555
H37 O9 1_555 1_555
O9 C34 1_555 1_555
C5 C6 1_555 1_555
C8 O1 1_555 1_555
C10 O2 1_555 1_555
C15 C16 1_555 1_555
C25 N1 1_555 1_555
C30 C31 1_555 1_555

#END
