
#######################################################################
#
#                 Cambridge Crystallographic Data Centre
#                                CCDC 
#
#######################################################################
#
# If this CIF has been generated from an entry in the Cambridge 
# Structural Database, then it will include bibliographic, chemical, 
# crystal, experimental, refinement or atomic coordinate data resulting 
# from the CCDC's data processing and validation procedures.
#
#######################################################################

data_VAPLEG
_chemical_formula_moiety         'C26 H26 N4 S3'
_chemical_name_systematic        
2,2'-(3,5-dihexylbisthieno[3,2-b:2',3'-d]thiene-2,6-diylidene)dimalononitrile
_symmetry_cell_setting           monoclinic
_symmetry_space_group_name_H-M   'P 21/c'
_symmetry_Int_Tables_number      14
_space_group_name_Hall           '-P 2ybc'
loop_
_symmetry_equiv_pos_site_id
_symmetry_equiv_pos_as_xyz
1 x,y,z
2 -x,1/2+y,1/2-z
3 -x,-y,-z
4 x,1/2-y,1/2+z
_cell_length_a                   17.9117(4)
_cell_length_b                   14.5475(3)
_cell_length_c                   10.1846(2)
_cell_angle_alpha                90
_cell_angle_beta                 101.9238(8)
_cell_angle_gamma                90
_cell_volume                     2596.55
_exptl_crystal_colour            black
_exptl_crystal_description       plate
_cell_formula_units_Z            4
loop_
_atom_site_label
_atom_site_type_symbol
_atom_site_fract_x
_atom_site_fract_y
_atom_site_fract_z
S1 S 0.17315(2) 0.04311(2) 0.65606(3)
S2 S 0.15860(2) -0.24657(2) 0.63655(3)
S3 S 0.03876(2) -0.10690(2) 0.33800(3)
C1 C 0.18598(8) -0.07365(10) 0.69552(14)
C2 C 0.22951(8) -0.11671(11) 0.80403(14)
C3 C 0.22298(8) -0.21509(10) 0.78521(14)
C4 C 0.14278(7) -0.13193(9) 0.59294(13)
C5 C 0.10074(7) -0.08309(9) 0.48884(13)
C6 C 0.11080(7) 0.01446(9) 0.50611(13)
C7 C 0.07201(8) 0.06906(9) 0.40564(13)
C8 C 0.02771(7) 0.01148(9) 0.30271(14)
C9 C 0.25951(8) -0.28590(11) 0.86403(15)
C10 C 0.24519(9) -0.37849(12) 0.82016(17)
C11 C 0.31230(9) -0.27438(13) 0.98867(17)
C12 C -0.02171(8) 0.03657(9) 0.18574(14)
C13 C -0.06231(8) -0.03174(10) 0.09764(14)
C14 C -0.03789(8) 0.12920(10) 0.14255(14)
C15 C 0.27753(9) -0.06830(12) 0.92228(15)
H1 H 0.2755 -0.1033 1.0048
H2 H 0.2555 -0.0067 0.9311
C16 C 0.36123(10) -0.05714(15) 0.9113(2)
H3 H 0.3894 -0.0269 0.9939
H4 H 0.3836 -0.1190 0.9070
C17 C 0.37325(10) -0.00244(15) 0.7922(2)
H5 H 0.3447 0.0560 0.7892
H6 H 0.3515 -0.0371 0.7095
C18 C 0.45556(12) 0.01916(18) 0.7922(2)
H7 H 0.4747 0.0623 0.8667
H8 H 0.4856 -0.0382 0.8108
C19 C 0.46992(16) 0.0596(3) 0.6664(3)
H9 H 0.4359 0.1134 0.6427
H10 H 0.4559 0.0138 0.5937
C20 C 0.55135(18) 0.0901(3) 0.6716(4)
H11 H 0.5642 0.1406 0.7360
H12 H 0.5566 0.1109 0.5825
H13 H 0.5860 0.0384 0.6998
C21 C 0.07716(8) 0.17198(9) 0.40035(14)
H14 H 0.0972 0.1958 0.4919
H15 H 0.0254 0.1977 0.3686
C22 C 0.12922(9) 0.20433(10) 0.30680(16)
H16 H 0.1139 0.1726 0.2194
H17 H 0.1217 0.2711 0.2906
C23 C 0.21337(10) 0.18618(12) 0.36244(18)
H18 H 0.2198 0.1222 0.3961
H19 H 0.2316 0.2279 0.4392
C24 C 0.26181(15) 0.2004(2) 0.2574(3)
H20 H 0.2545 0.2638 0.2218
H21 H 0.2449 0.1573 0.1819
C25 C 0.34730(19) 0.1844(3) 0.3179(4)
H22 H 0.3664 0.2327 0.3849
H23 H 0.3543 0.1240 0.3637
C26 C 0.3924(3) 0.1870(4) 0.2043(6)
H24 H 0.4461 0.1723 0.2410
H25 H 0.3888 0.2485 0.1643
H26 H 0.3711 0.1417 0.1354
N1 N 0.23201(11) -0.45214(12) 0.7819(2)
N2 N 0.35423(10) -0.27100(14) 1.09006(17)
N3 N -0.09441(9) -0.08727(11) 0.02882(14)
N4 N -0.05439(8) 0.20115(9) 0.10144(14)
H27? H 0.2246 0.2076 0.4567
H28? H 0.2204 0.1187 0.3649
C27? C 0.2742(12) 0.2263(14) 0.296(3)
H29? H 0.2994 0.2762 0.3548
H30? H 0.2474 0.2558 0.2116
C28? C 0.3378(14) 0.168(2) 0.260(4)
H31? H 0.3383 0.1056 0.2999
H32? H 0.3310 0.1613 0.1612
C29? C 0.4112(16) 0.219(3) 0.318(4)
H33? H 0.4086 0.2434 0.4066
H34? H 0.4175 0.2702 0.2582
H35? H 0.4547 0.1772 0.3260
loop_
_geom_bond_atom_site_label_1
_geom_bond_atom_site_label_2
_geom_bond_site_symmetry_1
_geom_bond_site_symmetry_2
S1 C1 1_555 1_555
S2 C3 1_555 1_555
S3 C5 1_555 1_555
C1 C2 1_555 1_555
C2 C3 1_555 1_555
C3 C9 1_555 1_555
C4 S2 1_555 1_555
C5 C4 1_555 1_555
C6 S1 1_555 1_555
C7 C6 1_555 1_555
C8 S3 1_555 1_555
C9 C10 1_555 1_555
C10 N1 1_555 1_555
C11 C9 1_555 1_555
C12 C8 1_555 1_555
C13 C12 1_555 1_555
C14 C12 1_555 1_555
C15 C2 1_555 1_555
H1 C15 1_555 1_555
H2 C15 1_555 1_555
C16 C15 1_555 1_555
H3 C16 1_555 1_555
H4 C16 1_555 1_555
C17 C16 1_555 1_555
H5 C17 1_555 1_555
H6 C17 1_555 1_555
C18 C17 1_555 1_555
H7 C18 1_555 1_555
H8 C18 1_555 1_555
C19 C18 1_555 1_555
H9 C19 1_555 1_555
H10 C19 1_555 1_555
C20 C19 1_555 1_555
H11 C20 1_555 1_555
H12 C20 1_555 1_555
H13 C20 1_555 1_555
C21 C7 1_555 1_555
H14 C21 1_555 1_555
H15 C21 1_555 1_555
C22 C21 1_555 1_555
H16 C22 1_555 1_555
H17 C22 1_555 1_555
C23 C22 1_555 1_555
H18 C23 1_555 1_555
H19 C23 1_555 1_555
C24 C23 1_555 1_555
H20 C24 1_555 1_555
H21 C24 1_555 1_555
C25 C24 1_555 1_555
H22 C25 1_555 1_555
H23 C25 1_555 1_555
C26 C25 1_555 1_555
H24 C26 1_555 1_555
H25 C26 1_555 1_555
H26 C26 1_555 1_555
N2 C11 1_555 1_555
N3 C13 1_555 1_555
N4 C14 1_555 1_555
C1 C4 1_555 1_555
C5 C6 1_555 1_555
C7 C8 1_555 1_555

#END
