
#######################################################################
#
#                 Cambridge Crystallographic Data Centre
#                                CCDC 
#
#######################################################################
#
# If this CIF has been generated from an entry in the Cambridge 
# Structural Database, then it will include bibliographic, chemical, 
# crystal, experimental, refinement or atomic coordinate data resulting 
# from the CCDC's data processing and validation procedures.
#
#######################################################################

data_VAPMAC
_chemical_formula_moiety         'C50 H37 Cl1 N4 O19'
_chemical_name_systematic        
'5-(4-Chloro-3-(4-ethoxybenzyl)phenyl)-1-(((4-nitrobenzoyl)oxy)methyl)-6,8-dioxabicyclo[3.2.1]octane-2,3,4-triyl tris(4-nitrobenzoate)'
_symmetry_cell_setting           monoclinic
_symmetry_space_group_name_H-M   'P 21'
_symmetry_Int_Tables_number      4
_space_group_name_Hall           'P 2yb'
loop_
_symmetry_equiv_pos_site_id
_symmetry_equiv_pos_as_xyz
1 x,y,z
2 -x,1/2+y,-z
_cell_length_a                   17.5050(4)
_cell_length_b                   6.2303(2)
_cell_length_c                   21.9545(5)
_cell_angle_alpha                90
_cell_angle_beta                 97.6580(10)
_cell_angle_gamma                90
_cell_volume                     2373.03
_cell_formula_units_Z            2
loop_
_atom_site_label
_atom_site_type_symbol
_atom_site_fract_x
_atom_site_fract_y
_atom_site_fract_z
O1 O 0.4100(1) 0.2283(5) -0.1563(1)
C1 C 0.4855(2) 0.2960(7) -0.1640(1)
C2 C 0.5165(2) 0.1334(7) -0.2054(1)
C3 C 0.4664(2) 0.1281(7) -0.2675(1)
C4 C 0.3818(2) 0.1226(7) -0.2595(1)
C5 C 0.3643(2) 0.2916(7) -0.2131(1)
O2 O 0.4769(1) 0.4988(5) -0.1938(1)
C6 C 0.3974(2) 0.5127(7) -0.2233(2)
C7 C 0.5348(2) 0.3106(7) -0.1020(1)
C8 C 0.5878(2) 0.4726(8) -0.0889(2)
C9 C 0.6360(2) 0.4837(8) -0.0322(2)
C10 C 0.6279(2) 0.3197(9) 0.0093(2)
C11 C 0.5754(2) 0.1576(9) -0.0031(2)
C12 C 0.5280(2) 0.1541(8) -0.0594(2)
C13 C 0.6943(3) 0.6619(10) -0.0206(2)
C14 C 0.7731(3) 0.6173(11) -0.0406(2)
C15 C 0.8121(5) 0.7768(14) -0.0687(3)
C16 C 0.8879(5) 0.7339(17) -0.0832(3)
C17 C 0.9214(5) 0.5370(20) -0.0716(4)
C18 C 0.8814(4) 0.3896(16) -0.0469(3)
C19 C 0.8105(3) 0.4285(14) -0.0317(3)
O3 O 0.9941(3) 0.5283(18) -0.0921(3)
C20 C 1.0372(5) 0.3480(30) -0.0878(4)
C21 C 1.1067(4) 0.3610(30) -0.1129(3)
O4 O 0.5935(1) 0.1993(5) -0.2155(1)
C22 C 0.6505(2) 0.0467(9) -0.2081(2)
O5 O 0.6409(2) -0.1358(7) -0.1949(2)
C23 C 0.7246(2) 0.1454(8) -0.2190(2)
C24 C 0.7441(2) 0.3542(9) -0.2045(2)
C25 C 0.8149(2) 0.4346(9) -0.2133(2)
C26 C 0.8652(2) 0.3061(10) -0.2376(2)
C27 C 0.8477(3) 0.1004(11) -0.2541(2)
C28 C 0.7771(3) 0.0177(10) -0.2451(2)
N1 N 0.9414(2) 0.3940(11) -0.2471(2)
O6 O 0.9908(2) 0.2692(9) -0.2584(2)
O7 O 0.9511(2) 0.5837(10) -0.2418(2)
O8 O 0.4892(1) -0.0636(5) -0.2975(1)
C29 C 0.5003(2) -0.0537(9) -0.3574(2)
O9 O 0.4782(2) 0.0945(6) -0.3904(1)
C30 C 0.5411(2) -0.2470(8) -0.3762(2)
C31 C 0.5750(2) -0.3919(9) -0.3341(2)
C32 C 0.6137(2) -0.5666(9) -0.3536(2)
C33 C 0.6157(2) -0.5895(8) -0.4155(2)
C34 C 0.5842(3) -0.4458(9) -0.4581(2)
C35 C 0.5467(2) -0.2701(9) -0.4380(2)
N2 N 0.6519(2) -0.7858(9) -0.4367(2)
O10 O 0.6912(3) -0.8935(9) -0.3992(2)
O11 O 0.6397(2) -0.8296(7) -0.4917(1)
O12 O 0.3363(1) 0.1588(5) -0.3187(1)
C36 C 0.3030(2) -0.0172(9) -0.3476(2)
O13 O 0.3061(2) -0.1901(6) -0.3246(1)
C37 C 0.2652(2) 0.0268(8) -0.4110(2)
C38 C 0.2214(2) -0.1368(9) -0.4397(2)
C39 C 0.1884(2) -0.1179(9) -0.5005(2)
C40 C 0.2038(2) 0.0618(9) -0.5310(2)
C41 C 0.2448(2) 0.2306(9) -0.5036(2)
C42 C 0.2756(2) 0.2127(9) -0.4430(2)
N3 N 0.1746(2) 0.0728(9) -0.5974(2)
O14 O 0.2001(3) 0.2052(11) -0.6277(2)
O15 O 0.1263(2) -0.0513(9) -0.6184(1)
C43 C 0.2808(2) 0.2914(8) -0.1988(2)
O16 O 0.2288(1) 0.3756(5) -0.2492(1)
C44 C 0.2030(2) 0.5761(9) -0.2447(2)
O17 O 0.2251(2) 0.6954(6) -0.2032(1)
C45 C 0.1426(2) 0.6324(8) -0.2967(2)
C46 C 0.1095(2) 0.8336(9) -0.2956(2)
C47 C 0.0529(2) 0.8930(10) -0.3430(2)
C48 C 0.0326(2) 0.7524(10) -0.3901(2)
C49 C 0.0638(2) 0.5556(10) -0.3920(2)
C50 C 0.1203(2) 0.4947(9) -0.3439(2)
N4 N -0.0271(2) 0.8156(10) -0.4411(2)
O18 O -0.0650(3) 0.9693(12) -0.4334(2)
O19 O -0.0368(2) 0.7081(9) -0.4868(2)
Cl1 Cl 0.6847(1) 0.3132(3) 0.0809(1)
H1 H 0.5182 -0.0091 -0.1863
H2 H 0.4769 0.2548 -0.2915
H3 H 0.3694 -0.0195 -0.2443
H4 H 0.3953 0.5435 -0.2668
H5 H 0.3694 0.6235 -0.2044
H6 H 0.5920 0.5778 -0.1183
H7 H 0.5713 0.0506 0.0258
H8 H 0.4917 0.0454 -0.0679
H9 H 0.7017 0.6934 0.0231
H10 H 0.6730 0.7895 -0.0417
H11 H 0.7891 0.9095 -0.0779
H12 H 0.9148 0.8412 -0.1007
H13 H 0.9028 0.2538 -0.0396
H14 H 0.7857 0.3175 -0.0138
H15 H 1.0067 0.2321 -0.1082
H16 H 1.0489 0.3093 -0.0447
H17 H 1.1309 0.2224 -0.1112
H18 H 1.1403 0.4621 -0.0898
H19 H 1.0964 0.4072 -0.1549
H20 H 0.7089 0.4426 -0.1884
H21 H 0.8281 0.5756 -0.2027
H22 H 0.8830 0.0159 -0.2712
H23 H 0.7645 -0.1230 -0.2564
H24 H 0.5720 -0.3726 -0.2925
H25 H 0.6377 -0.6656 -0.3256
H26 H 0.5878 -0.4653 -0.4997
H27 H 0.5252 -0.1676 -0.4659
H28 H 0.2138 -0.2615 -0.4180
H29 H 0.1568 -0.2250 -0.5196
H30 H 0.2517 0.3550 -0.5256
H31 H 0.3035 0.3260 -0.4234
H32 H 0.2658 0.1459 -0.1902
H33 H 0.2775 0.3775 -0.1625
H34 H 0.1249 0.9280 -0.2635
H35 H 0.0292 1.0265 -0.3427
H36 H 0.0484 0.4626 -0.4245
H37 H 0.1426 0.3594 -0.3441
loop_
_geom_bond_atom_site_label_1
_geom_bond_atom_site_label_2
_geom_bond_site_symmetry_1
_geom_bond_site_symmetry_2
O1 C1 1_555 1_555
C1 C2 1_555 1_555
C2 C3 1_555 1_555
C3 C4 1_555 1_555
C4 C5 1_555 1_555
C5 O1 1_555 1_555
O2 C1 1_555 1_555
C6 C5 1_555 1_555
C7 C1 1_555 1_555
C8 C7 1_555 1_555
C9 C8 1_555 1_555
C10 C9 1_555 1_555
C11 C10 1_555 1_555
C12 C7 1_555 1_555
C13 C9 1_555 1_555
C14 C13 1_555 1_555
C15 C14 1_555 1_555
C16 C15 1_555 1_555
C17 C16 1_555 1_555
C18 C17 1_555 1_555
C19 C14 1_555 1_555
O3 C17 1_555 1_555
C20 O3 1_555 1_555
C21 C20 1_555 1_555
O4 C2 1_555 1_555
C22 O4 1_555 1_555
O5 C22 1_555 1_555
C23 C22 1_555 1_555
C24 C23 1_555 1_555
C25 C24 1_555 1_555
C26 C25 1_555 1_555
C27 C26 1_555 1_555
C28 C23 1_555 1_555
N1 C26 1_555 1_555
O6 N1 1_555 1_555
O7 N1 1_555 1_555
O8 C3 1_555 1_555
C29 O8 1_555 1_555
O9 C29 1_555 1_555
C30 C29 1_555 1_555
C31 C30 1_555 1_555
C32 C31 1_555 1_555
C33 C32 1_555 1_555
C34 C33 1_555 1_555
C35 C30 1_555 1_555
N2 C33 1_555 1_555
O10 N2 1_555 1_555
O11 N2 1_555 1_555
O12 C4 1_555 1_555
C36 O12 1_555 1_555
O13 C36 1_555 1_555
C37 C36 1_555 1_555
C38 C37 1_555 1_555
C39 C38 1_555 1_555
C40 C39 1_555 1_555
C41 C40 1_555 1_555
C42 C37 1_555 1_555
N3 C40 1_555 1_555
O14 N3 1_555 1_555
O15 N3 1_555 1_555
C43 C5 1_555 1_555
O16 C43 1_555 1_555
C44 O16 1_555 1_555
O17 C44 1_555 1_555
C45 C44 1_555 1_555
C46 C45 1_555 1_555
C47 C46 1_555 1_555
C48 C47 1_555 1_555
C49 C48 1_555 1_555
C50 C45 1_555 1_555
N4 C48 1_555 1_555
O18 N4 1_555 1_555
O19 N4 1_555 1_555
Cl1 C10 1_555 1_555
H1 C2 1_555 1_555
H2 C3 1_555 1_555
H3 C4 1_555 1_555
H4 C6 1_555 1_555
H5 C6 1_555 1_555
H6 C8 1_555 1_555
H7 C11 1_555 1_555
H8 C12 1_555 1_555
H9 C13 1_555 1_555
H10 C13 1_555 1_555
H11 C15 1_555 1_555
H12 C16 1_555 1_555
H13 C18 1_555 1_555
H14 C19 1_555 1_555
H15 C20 1_555 1_555
H16 C20 1_555 1_555
H17 C21 1_555 1_555
H18 C21 1_555 1_555
H19 C21 1_555 1_555
H20 C24 1_555 1_555
H21 C25 1_555 1_555
H22 C27 1_555 1_555
H23 C28 1_555 1_555
H24 C31 1_555 1_555
H25 C32 1_555 1_555
H26 C34 1_555 1_555
H27 C35 1_555 1_555
H28 C38 1_555 1_555
H29 C39 1_555 1_555
H30 C41 1_555 1_555
H31 C42 1_555 1_555
H32 C43 1_555 1_555
H33 C43 1_555 1_555
H34 C46 1_555 1_555
H35 C47 1_555 1_555
H36 C49 1_555 1_555
H37 C50 1_555 1_555
O2 C6 1_555 1_555
C11 C12 1_555 1_555
C18 C19 1_555 1_555
C27 C28 1_555 1_555
C34 C35 1_555 1_555
C41 C42 1_555 1_555
C49 C50 1_555 1_555

#END
