
#######################################################################
#
#                 Cambridge Crystallographic Data Centre
#                                CCDC 
#
#######################################################################
#
# If this CIF has been generated from an entry in the Cambridge 
# Structural Database, then it will include bibliographic, chemical, 
# crystal, experimental, refinement or atomic coordinate data resulting 
# from the CCDC's data processing and validation procedures.
#
#######################################################################

data_VAPMIK
_chemical_name_common            'PDB Chemical Component code: PCA'
_chemical_formula_moiety         'C22 H25 Cl1 O7,C5 H7 N1 O3,0.1(H2 O1)'
_chemical_name_systematic        
'5-(4-chloro-3-(4-ethoxybenzyl)phenyl)-1-(hydroxymethyl)-6,8-dioxabicyclo[3.2.1]octane-2,3,4-triol L-pyroglutamic acid hydrate'
_symmetry_cell_setting           orthorhombic
_symmetry_space_group_name_H-M   'P 21 21 21'
_symmetry_Int_Tables_number      19
_space_group_name_Hall           'P 2ac 2ab'
loop_
_symmetry_equiv_pos_site_id
_symmetry_equiv_pos_as_xyz
1 x,y,z
2 1/2-x,-y,1/2+z
3 -x,1/2+y,1/2-z
4 1/2+x,1/2-y,-z
_cell_length_a                   7.4907(10)
_cell_length_b                   12.8626(15)
_cell_length_c                   28.029(4)
_cell_angle_alpha                90
_cell_angle_beta                 90
_cell_angle_gamma                90
_cell_volume                     2700.59
_cell_formula_units_Z            4
loop_
_atom_site_label
_atom_site_type_symbol
_atom_site_fract_x
_atom_site_fract_y
_atom_site_fract_z
C1 C 0.1385(7) 0.9812(3) 0.0634(2)
C2 C 0.1302(6) 0.8776(3) 0.0399(2)
O1 O 0.2546(3) 0.8104(1) 0.0625(1)
C3 C 0.2553(4) 0.7080(2) 0.0489(1)
C4 C 0.1555(5) 0.6676(2) 0.0117(1)
C5 C 0.1669(4) 0.5630(2) 0.0013(1)
C6 C 0.2745(4) 0.4966(2) 0.0268(1)
C7 C 0.3723(4) 0.5385(2) 0.0639(1)
C8 C 0.3643(4) 0.6423(2) 0.0749(1)
C9 C 0.2839(5) 0.3807(2) 0.0157(1)
C10 C 0.2248(4) 0.3159(2) 0.0577(1)
C11 C 0.0467(4) 0.3074(2) 0.0708(1)
Cl1 Cl -0.1197(1) 0.3652(1) 0.0362(1)
C12 C -0.0056(4) 0.2535(2) 0.1112(1)
C13 C 0.1219(4) 0.2055(2) 0.1391(1)
C14 C 0.3014(4) 0.2095(2) 0.1265(1)
C15 C 0.3502(4) 0.2652(2) 0.0864(1)
C16 C 0.4335(3) 0.1493(2) 0.1560(1)
O2 O 0.3862(2) 0.0420(1) 0.1544(1)
C17 C 0.5478(4) -0.0095(2) 0.1690(1)
C18 C 0.5397(4) -0.1208(2) 0.1525(1)
O3 O 0.4012(4) -0.1782(2) 0.1739(1)
C19 C 0.5592(4) 0.0018(2) 0.2233(1)
O4 O 0.7085(3) -0.0534(2) 0.2419(1)
C20 C 0.5750(4) 0.1168(2) 0.2361(1)
O5 O 0.5536(3) 0.1267(2) 0.2861(1)
C21 C 0.4393(4) 0.1816(2) 0.2086(1)
O6 O 0.4750(3) 0.2904(2) 0.2136(1)
O7 O 0.6093(3) 0.1545(1) 0.1363(1)
C22 C 0.6903(4) 0.0529(2) 0.1425(1)
H1 H 0.1080 0.9742 0.0965
H2 H 0.0557 1.0275 0.0482
H3 H 0.2571 1.0087 0.0606
H4 H 0.0107 0.8492 0.0427
H5 H 0.1587 0.8843 0.0063
H6 H 0.0813 0.7106 -0.0061
H7 H 0.0998 0.5365 -0.0239
H8 H 0.4455 0.4952 0.0819
H9 H 0.4323 0.6685 0.0999
H10 H 0.2083 0.3655 -0.0115
H11 H 0.4055 0.3623 0.0073
H12 H -0.1256 0.2497 0.1194
H13 H 0.0875 0.1701 0.1665
H14 H 0.4703 0.2691 0.0782
H15 H 0.5235 -0.1219 0.1181
H16 H 0.6528 -0.1543 0.1595
H17 H 0.3240(80) -0.1700(40) 0.1620(20)
H18 H 0.4498 -0.0261 0.2375
H19 H 0.6720(50) -0.1040(30) 0.2557(13)
H20 H 0.6950 0.1407 0.2275
H21 H 0.5570(50) 0.1910(30) 0.2942(14)
H22 H 0.3214 0.1680 0.2224
H23 H 0.5800(50) 0.2990(30) 0.2137(12)
H24 H 0.7992 0.0577 0.1611
H25 H 0.7175 0.0214 0.1119
O8 O 0.8289(3) 0.3646(2) 0.2167(1)
C23 C 0.8567(4) 0.4451(3) 0.1935(1)
C24 C 0.7407(5) 0.4857(3) 0.1544(1)
C25 C 0.8309(7) 0.5813(3) 0.1364(2)
C26 C 1.0008(5) 0.5962(3) 0.1666(1)
N1 N 0.9939(4) 0.5092(2) 0.1990(1)
C27 C 1.0097(5) 0.7035(3) 0.1889(1)
O9 O 1.0174(4) 0.7793(2) 0.1636(1)
O10 O 1.0136(4) 0.7059(2) 0.2353(1)
H26 H 0.7294 0.4347 0.1291
H27 H 0.6226 0.5021 0.1664
H28 H 0.7528 0.6411 0.1397
H29 H 0.8616 0.5735 0.1030
H30 H 1.1047 0.5874 0.1457
H31 H 1.0740(50) 0.4950(20) 0.2171(11)
H32 H 0.9670(60) 0.6410(30) 0.2507(15)
O11 O 0.0470(40) 0.9300(20) 0.1968(10)
loop_
_geom_bond_atom_site_label_1
_geom_bond_atom_site_label_2
_geom_bond_site_symmetry_1
_geom_bond_site_symmetry_2
C1 C2 1_555 1_555
C2 O1 1_555 1_555
O1 C3 1_555 1_555
C3 C4 1_555 1_555
C4 C5 1_555 1_555
C5 C6 1_555 1_555
C6 C7 1_555 1_555
C7 C8 1_555 1_555
C8 C3 1_555 1_555
C9 C6 1_555 1_555
C10 C9 1_555 1_555
C11 C10 1_555 1_555
Cl1 C11 1_555 1_555
C12 C11 1_555 1_555
C13 C12 1_555 1_555
C14 C13 1_555 1_555
C15 C10 1_555 1_555
C16 C14 1_555 1_555
O2 C16 1_555 1_555
C17 O2 1_555 1_555
C18 C17 1_555 1_555
O3 C18 1_555 1_555
C19 C17 1_555 1_555
O4 C19 1_555 1_555
C20 C19 1_555 1_555
O5 C20 1_555 1_555
C21 C16 1_555 1_555
O6 C21 1_555 1_555
O7 C16 1_555 1_555
C22 C17 1_555 1_555
H1 C1 1_555 1_555
H2 C1 1_555 1_555
H3 C1 1_555 1_555
H4 C2 1_555 1_555
H5 C2 1_555 1_555
H6 C4 1_555 1_555
H7 C5 1_555 1_555
H8 C7 1_555 1_555
H9 C8 1_555 1_555
H10 C9 1_555 1_555
H11 C9 1_555 1_555
H12 C12 1_555 1_555
H13 C13 1_555 1_555
H14 C15 1_555 1_555
H15 C18 1_555 1_555
H16 C18 1_555 1_555
H17 O3 1_555 1_555
H18 C19 1_555 1_555
H19 O4 1_555 1_555
H20 C20 1_555 1_555
H21 O5 1_555 1_555
H22 C21 1_555 1_555
H23 O6 1_555 1_555
H24 C22 1_555 1_555
H25 C22 1_555 1_555
O8 C23 1_555 1_555
C23 C24 1_555 1_555
C24 C25 1_555 1_555
C25 C26 1_555 1_555
C26 N1 1_555 1_555
N1 C23 1_555 1_555
C27 C26 1_555 1_555
O9 C27 1_555 1_555
O10 C27 1_555 1_555
H26 C24 1_555 1_555
H27 C24 1_555 1_555
H28 C25 1_555 1_555
H29 C25 1_555 1_555
H30 C26 1_555 1_555
H31 N1 1_555 1_555
H32 O10 1_555 1_555
C14 C15 1_555 1_555
C20 C21 1_555 1_555
O7 C22 1_555 1_555

#END
