
#######################################################################
#
#                 Cambridge Crystallographic Data Centre
#                                CCDC 
#
#######################################################################
#
# If this CIF has been generated from an entry in the Cambridge 
# Structural Database, then it will include bibliographic, chemical, 
# crystal, experimental, refinement or atomic coordinate data resulting 
# from the CCDC's data processing and validation procedures.
#
#######################################################################

data_VAPPOU
_chemical_name_common            
(R,E)-N-(1,3-diphenylallyl)-2,2,2-trifluoroacetamide
_chemical_formula_moiety         'C17 H14 F3 N1 O1'
_chemical_name_systematic        
N-(1,3-diphenylprop-2-en-1-yl)-2,2,2-trifluoroacetamide
_symmetry_cell_setting           orthorhombic
_symmetry_space_group_name_H-M   'P 21 21 21'
_symmetry_Int_Tables_number      19
_space_group_name_Hall           'P 2ac 2ab'
loop_
_symmetry_equiv_pos_site_id
_symmetry_equiv_pos_as_xyz
1 x,y,z
2 1/2-x,-y,1/2+z
3 -x,1/2+y,1/2-z
4 1/2+x,1/2-y,-z
_cell_length_a                   5.0284(3)
_cell_length_b                   12.6517(7)
_cell_length_c                   23.2646(13)
_cell_angle_alpha                90
_cell_angle_beta                 90
_cell_angle_gamma                90
_cell_volume                     1480.04
_exptl_crystal_colour            colorless
_exptl_crystal_description       needle
_chemical_melting_point          '347-350 K'
_cell_formula_units_Z            4
loop_
_atom_site_label
_atom_site_type_symbol
_atom_site_fract_x
_atom_site_fract_y
_atom_site_fract_z
F1 F 0.2178(3) 0.71864(11) 0.57721(7)
C1 C 0.1311(4) 0.45197(18) 0.72335(9)
O1 O 0.7535(3) 0.56077(14) 0.61943(7)
N1 N 0.3127(3) 0.55003(14) 0.64051(7)
H1 H 0.1567 0.5808 0.6367
F2 F 0.6130(4) 0.76978(12) 0.59573(10)
C2 C 0.0145(5) 0.54315(18) 0.74438(10)
H2 H 0.0591 0.6094 0.7278
C3 C 0.0633(7) 0.3577(2) 0.74867(13)
H3 H 0.1409 0.2938 0.7353
C4 C -0.1182(8) 0.3549(2) 0.79382(15)
H4 H -0.1625 0.2890 0.8109
C5 C -0.2339(6) 0.4452(2) 0.81405(12)
H5 H -0.3585 0.4425 0.8447
F3 F 0.5397(4) 0.66883(14) 0.52373(7)
C6 C -0.1673(5) 0.5393(2) 0.78944(10)
H6 H -0.2455 0.6028 0.8032
C7 C 0.3111(4) 0.35936(17) 0.63494(9)
H7 H 0.1519 0.3513 0.6134
C8 C 0.3351(4) 0.45269(16) 0.67461(9)
H8 H 0.5165 0.4511 0.6922
C9 C 0.5019(4) 0.28764(17) 0.62860(9)
H9 H 0.6558 0.2965 0.6518
C10 C 0.5008(4) 0.19617(16) 0.58967(9)
C11 C 0.3187(5) 0.1849(2) 0.54493(10)
H10 H 0.1892 0.2384 0.5387
C12 C 0.3238(5) 0.0974(2) 0.50961(11)
H11 H 0.1975 0.0908 0.4795
C13 C 0.5120(5) 0.0193(2) 0.51794(11)
H12 H 0.5150 -0.0410 0.4936
C14 C 0.6954(5) 0.02915(19) 0.56169(12)
H13 H 0.8244 -0.0246 0.5677
C15 C 0.6913(5) 0.11739(18) 0.59689(11)
H14 H 0.8205 0.1243 0.6264
C16 C 0.5246(4) 0.59229(17) 0.61525(9)
C17 C 0.4714(5) 0.68841(19) 0.57767(10)
loop_
_geom_bond_atom_site_label_1
_geom_bond_atom_site_label_2
_geom_bond_site_symmetry_1
_geom_bond_site_symmetry_2
F1 C17 1_555 1_555
C1 C2 1_555 1_555
O1 C16 1_555 1_555
N1 H1 1_555 1_555
F2 C17 1_555 1_555
C2 H2 1_555 1_555
C3 C1 1_555 1_555
H3 C3 1_555 1_555
C4 C3 1_555 1_555
H4 C4 1_555 1_555
C5 C4 1_555 1_555
H5 C5 1_555 1_555
F3 C17 1_555 1_555
C6 C2 1_555 1_555
H6 C6 1_555 1_555
C7 H7 1_555 1_555
C8 C1 1_555 1_555
H8 C8 1_555 1_555
C9 C7 1_555 1_555
H9 C9 1_555 1_555
C10 C9 1_555 1_555
C11 C10 1_555 1_555
H10 C11 1_555 1_555
C12 C11 1_555 1_555
H11 C12 1_555 1_555
C13 C12 1_555 1_555
H12 C13 1_555 1_555
C14 C13 1_555 1_555
H13 C14 1_555 1_555
C15 C10 1_555 1_555
H14 C15 1_555 1_555
C16 N1 1_555 1_555
C17 C16 1_555 1_555
N1 C8 1_555 1_555
C5 C6 1_555 1_555
C7 C8 1_555 1_555
C14 C15 1_555 1_555

#END
