
#######################################################################
#
#                 Cambridge Crystallographic Data Centre
#                                CCDC 
#
#######################################################################
#
# If this CIF has been generated from an entry in the Cambridge 
# Structural Database, then it will include bibliographic, chemical, 
# crystal, experimental, refinement or atomic coordinate data resulting 
# from the CCDC's data processing and validation procedures.
#
#######################################################################

data_VAPQEJ
_chemical_compound_source        
'leaves and twigs of Litsea verticillata Hance (Lauraceae)'
_chemical_name_common            'Litseachromolaevane A'
_chemical_formula_moiety         'C15 H22 O2'
_chemical_name_systematic        
6-Methyl-5-(2-hydroxy-5-methylphenyl)heptan-2-one
_chemical_properties_biological  'no antiHIV activity'
_symmetry_cell_setting           orthorhombic
_symmetry_space_group_name_H-M   'P 21 21 21'
_symmetry_Int_Tables_number      19
_space_group_name_Hall           'P 2ac 2ab'
loop_
_symmetry_equiv_pos_site_id
_symmetry_equiv_pos_as_xyz
1 x,y,z
2 1/2-x,-y,1/2+z
3 1/2+x,1/2-y,-z
4 -x,1/2+y,1/2-z
_cell_length_a                   9.590(10)
_cell_length_b                   10.140(10)
_cell_length_c                   13.810(10)
_cell_angle_alpha                90
_cell_angle_beta                 90
_cell_angle_gamma                90
_cell_volume                     1342.92
_exptl_crystal_colour            colorless
_exptl_crystal_description       block
_cell_formula_units_Z            4
_exptl_crystal_recrystallization_method methanol
loop_
_atom_site_label
_atom_site_type_symbol
_atom_site_fract_x
_atom_site_fract_y
_atom_site_fract_z
O1 O 0.72911(12) 0.75880(13) 0.71205(10)
H1 H 0.6701 0.7184 0.7458
C1 C 0.82957(17) 0.81191(18) 0.77123(16)
C2 C 0.84651(18) 0.76751(18) 0.86491(16)
H2 H 0.7877 0.6998 0.8893
C3 C 0.9489(2) 0.82125(19) 0.92358(16)
H3 H 0.9594 0.7900 0.9880
C4 C 1.03632(19) 0.91967(19) 0.88988(16)
C5 C 1.1493(2) 0.9771(2) 0.95255(17)
H4 H 1.2280 0.9157 0.9556
H5 H 1.1129 0.9920 1.0179
H6 H 1.1806 1.0611 0.9250
C6 C 1.01720(17) 0.96242(17) 0.79557(16)
H7 H 1.0762 1.0302 0.7715
C7 C 0.91552(18) 0.91080(17) 0.73420(14)
C8 C 0.89565(18) 0.97108(18) 0.63387(16)
H8 H 0.9709 1.0386 0.6265
C9 C 0.91373(19) 0.87450(19) 0.54891(16)
H9 H 0.8329 0.8122 0.5489
C10 C 1.04745(19) 0.7944(2) 0.55899(17)
H10 H 1.0425 0.7403 0.6177
H11 H 1.1274 0.8544 0.5635
H12 H 1.0585 0.7372 0.5023
C11 C 0.9149(2) 0.9481(2) 0.45269(16)
H13 H 0.9401 0.8871 0.4005
H14 H 0.9833 1.0199 0.4556
H15 H 0.8221 0.9848 0.4401
C12 C 0.75624(19) 1.04739(17) 0.62974(16)
H16 H 0.7450 1.0867 0.5646
H17 H 0.6782 0.9851 0.6402
C13 C 0.74953(18) 1.15507(17) 0.70482(16)
H18 H 0.7750 1.1167 0.7683
H19 H 0.8208 1.2222 0.6887
C14 C 0.61125(18) 1.22342(18) 0.71524(15)
O2 O 0.50339(13) 1.17252(13) 0.68667(11)
C15 C 0.6113(2) 1.35369(19) 0.76608(17)
H20 H 0.5150 1.3825 0.7768
H21 H 0.6602 1.4190 0.7262
H22 H 0.6589 1.3449 0.8286
loop_
_geom_bond_atom_site_label_1
_geom_bond_atom_site_label_2
_geom_bond_site_symmetry_1
_geom_bond_site_symmetry_2
O1 H1 1_555 1_555
C1 O1 1_555 1_555
C2 C1 1_555 1_555
H2 C2 1_555 1_555
C3 C2 1_555 1_555
H3 C3 1_555 1_555
C4 C3 1_555 1_555
C5 C4 1_555 1_555
H4 C5 1_555 1_555
H5 C5 1_555 1_555
H6 C5 1_555 1_555
C6 C4 1_555 1_555
H7 C6 1_555 1_555
C7 C1 1_555 1_555
C8 C7 1_555 1_555
H8 C8 1_555 1_555
C9 C8 1_555 1_555
H9 C9 1_555 1_555
C10 C9 1_555 1_555
H10 C10 1_555 1_555
H11 C10 1_555 1_555
H12 C10 1_555 1_555
C11 C9 1_555 1_555
H13 C11 1_555 1_555
H14 C11 1_555 1_555
H15 C11 1_555 1_555
C12 C8 1_555 1_555
H16 C12 1_555 1_555
H17 C12 1_555 1_555
C13 C12 1_555 1_555
H18 C13 1_555 1_555
H19 C13 1_555 1_555
C14 C13 1_555 1_555
O2 C14 1_555 1_555
C15 C14 1_555 1_555
H20 C15 1_555 1_555
H21 C15 1_555 1_555
H22 C15 1_555 1_555
C6 C7 1_555 1_555

#END
