
#######################################################################
#
#                 Cambridge Crystallographic Data Centre
#                                CCDC 
#
#######################################################################
#
# If this CIF has been generated from an entry in the Cambridge 
# Structural Database, then it will include bibliographic, chemical, 
# crystal, experimental, refinement or atomic coordinate data resulting 
# from the CCDC's data processing and validation procedures.
#
#######################################################################

data_VAPQUA
_chemical_name_common            
'bis(Phenformin) 25,26,27,28-tetrahydroxycalix(4)arene-5,11,17,23-tetrasulfonate hydrate'
_chemical_formula_moiety         'C28 H20 O16 S4 4-,2(C10 H17 N5 2+),8.5(H2 O1)'
_chemical_name_systematic        
'bis(Amino((iminio((2-phenylethyl)amino)methyl)amino)methaniminium) 25,26,27,28-tetrahydroxycalix(4)arene-5,11,17,23-tetrasulfonate hydrate'
_symmetry_cell_setting           monoclinic
_symmetry_space_group_name_H-M   'P 21/n'
_symmetry_Int_Tables_number      14
_space_group_name_Hall           '-P 2yn'
loop_
_symmetry_equiv_pos_site_id
_symmetry_equiv_pos_as_xyz
1 x,y,z
2 1/2-x,1/2+y,1/2-z
3 -x,-y,-z
4 1/2+x,1/2-y,1/2+z
_cell_length_a                   15.129(3)
_cell_length_b                   12.140(2)
_cell_length_c                   33.206(7)
_cell_angle_alpha                90
_cell_angle_beta                 100.51(3)
_cell_angle_gamma                90
_cell_volume                     5996.5
_cell_formula_units_Z            4
loop_
_atom_site_label
_atom_site_type_symbol
_atom_site_fract_x
_atom_site_fract_y
_atom_site_fract_z
S1 S 0.54241(8) 0.57943(10) 0.18267(4)
S2 S 0.04013(9) 0.34687(10) 0.12479(4)
S3 S -0.13412(8) 0.94204(11) 0.10848(4)
S4 S 0.35379(8) 1.17462(10) 0.16275(4)
O1 O 0.3280(2) 0.6959(3) 0.02206(11)
H1 H 0.3192 0.7640 0.0194
O2 O 0.6212(2) 0.6509(3) 0.18757(12)
O3 O 0.4919(2) 0.5967(3) 0.21572(11)
O4 O 0.5637(3) 0.4641(3) 0.17828(12)
O5 O 0.1631(2) 0.6227(3) 0.00008(11)
H2 H 0.2193 0.6249 0.0028
O6 O 0.1166(3) 0.3188(3) 0.15652(12)
O7 O 0.0079(2) 0.2508(3) 0.09990(12)
O8 O -0.0325(3) 0.4026(3) 0.13974(12)
O9 O 0.1094(2) 0.8322(3) -0.00549(11)
H3 H 0.1159 0.7639 -0.0079
O10 O -0.1590(3) 0.8422(3) 0.12691(16)
O11 O -0.2076(3) 0.9957(4) 0.08191(14)
O12 O -0.0880(2) 1.0200(3) 0.13858(11)
O13 O 0.2774(2) 0.9036(3) 0.01335(10)
H4 H 0.2224 0.8897 0.0062
O14 O 0.2876(2) 1.1507(3) 0.18850(11)
O15 O 0.3450(2) 1.2867(3) 0.14768(12)
O16 O 0.4451(2) 1.1493(3) 0.18287(11)
C1 C 0.4439(3) 0.8681(4) 0.06512(16)
H5 H 0.5050 0.8958 0.0764
H6 H 0.4382 0.8634 0.0350
C2 C 0.4332(3) 0.7523(4) 0.08222(16)
C3 C 0.4831(3) 0.7226(4) 0.11988(16)
H7 H 0.5241 0.7736 0.1349
C4 C 0.4735(3) 0.6176(4) 0.13592(15)
C5 C 0.4137(3) 0.5434(4) 0.11463(15)
H8 H 0.4069 0.4730 0.1262
C6 C 0.3630(3) 0.5691(4) 0.07649(15)
C7 C 0.3732(3) 0.6738(4) 0.06057(15)
C8 C 0.2999(3) 0.4863(4) 0.05184(16)
H9 H 0.3214 0.4111 0.0600
H10 H 0.3026 0.4955 0.0225
C9 C 0.2015(3) 0.4965(4) 0.05723(16)
C10 C 0.1708(3) 0.4339(4) 0.08673(16)
H11 H 0.2111 0.3863 0.1039
C11 C 0.0805(3) 0.4402(4) 0.09152(16)
C12 C 0.0222(3) 0.5123(4) 0.06763(16)
H12 H -0.0383 0.5179 0.0715
C13 C 0.0515(3) 0.5762(4) 0.03824(15)
C14 C 0.1396(3) 0.5656(4) 0.03231(15)
C15 C -0.0117(3) 0.6597(4) 0.01337(16)
H13 H 0.0024 0.6649 -0.0145
H14 H -0.0744 0.6333 0.0108
C16 C -0.0041(3) 0.7732(4) 0.03280(15)
C17 C -0.0593(3) 0.8021(4) 0.06067(15)
H15 H -0.1002 0.7494 0.0678
C18 C -0.0553(3) 0.9054(4) 0.07795(16)
C19 C 0.0057(3) 0.9825(4) 0.06894(15)
H16 H 0.0083 1.0535 0.0811
C20 C 0.0637(3) 0.9558(4) 0.04188(14)
C21 C 0.0570(3) 0.8524(4) 0.02375(14)
C22 C 0.1314(3) 1.0409(4) 0.03281(15)
H17 H 0.1378 1.0333 0.0038
H18 H 0.1070 1.1153 0.0362
C23 C 0.2238(3) 1.0326(4) 0.05941(15)
C24 C 0.2450(3) 1.0951(4) 0.09470(15)
H19 H 0.2016 1.1437 0.1023
C25 C 0.3305(3) 1.0868(4) 0.11935(15)
C26 C 0.3943(3) 1.0143(4) 0.11029(16)
H20 H 0.4511 1.0087 0.1279
C27 C 0.3750(3) 0.9493(4) 0.07536(15)
C28 C 0.2912(3) 0.9609(4) 0.04983(14)
N1 N 0.2927(3) 0.9200(4) 0.27459(15)
H21 H 0.3077 0.9011 0.3005
N2 N 0.1464(3) 0.9344(4) 0.28410(13)
H22 H 0.1668 0.9072 0.3105
H23 H 0.0879 0.9487 0.2742
N3 N 0.1879(3) 1.0058(4) 0.22519(13)
H24 H 0.2308 1.0456 0.2178
N4 N 0.0442(3) 0.9311(3) 0.20183(13)
H25 H 0.0046 0.9391 0.1812
H26 H 0.0499 0.8631 0.2201
N5 N 0.0937(3) 1.0819(3) 0.17138(13)
H27 H 0.0388 1.0786 0.1524
H28 H 0.1345 1.1354 0.1701
C29 C 0.2883(4) 0.7986(5) 0.1593(2)
H29 H 0.3380 0.8368 0.1522
C30 C 0.2176(5) 0.7739(5) 0.1294(2)
H30 H 0.2179 0.7962 0.1020
C31 C 0.1457(4) 0.7170(5) 0.1386(2)
H31 H 0.0962 0.6996 0.1175
C32 C 0.1451(4) 0.6848(5) 0.1784(2)
H32 H 0.0960 0.6439 0.1849
C33 C 0.2173(4) 0.7130(4) 0.20907(18)
H33 H 0.2164 0.6930 0.2367
C34 C 0.2906(4) 0.7700(4) 0.19974(17)
C35 C 0.3700(4) 0.7987(5) 0.2324(2)
H34 H 0.4254 0.7944 0.2205
H35 H 0.3752 0.7435 0.2546
C36 C 0.3633(4) 0.9138(5) 0.2505(2)
H36 H 0.4215 0.9329 0.2681
H37 H 0.3513 0.9684 0.2280
C37 C 0.2091(4) 0.9504(4) 0.26227(16)
C38 C 0.1066(3) 1.0048(4) 0.19900(15)
N6 N 0.3492(3) 0.6900(3) 0.87784(13)
H38 H 0.3098 0.6447 0.8854
N7 N 0.3730(3) 0.8034(4) 0.82411(15)
H39 H 0.4174 0.7986 0.8279
H40 H 0.3466 0.8473 0.8033
N8 N 0.2288(3) 0.7620(4) 0.83524(13)
H41 H 0.1978 0.7540 0.8551
N9 N 0.2084(3) 0.7540(4) 0.76308(13)
H42 H 0.2531 0.7086 0.7556
H43 H 0.1744 0.7855 0.7412
N10 N 0.1035(3) 0.8371(4) 0.79559(14)
H44 H 0.1042 0.8969 0.8161
H45 H 0.0540 0.8191 0.7770
C39 C 0.5920(5) 0.8095(6) 0.9807(2)
H46 H 0.5905 0.8696 0.9623
C40 C 0.6639(5) 0.7996(7) 1.0123(2)
H47 H 0.7089 0.8551 1.0166
C41 C 0.6707(4) 0.7083(7) 1.0378(2)
H48 H 0.7214 0.6986 1.0591
C42 C 0.6026(4) 0.6327(5) 1.03164(19)
H49 H 0.6060 0.5697 1.0488
C43 C 0.5293(4) 0.6465(5) 1.00096(18)
H50 H 0.4826 0.5931 0.9978
C44 C 0.5210(4) 0.7345(5) 0.97469(17)
C45 C 0.4379(4) 0.7510(5) 0.94207(18)
H51 H 0.3846 0.7266 0.9531
H52 H 0.4308 0.8306 0.9359
C46 C 0.4403(3) 0.6898(5) 0.90291(16)
H53 H 0.4829 0.7260 0.8878
H54 H 0.4606 0.6132 0.9091
C47 C 0.3211(3) 0.7503(4) 0.84565(15)
C48 C 0.1807(3) 0.7850(4) 0.79682(15)
O17 O 0.5123(2) 0.2339(3) 0.26172(12)
O18 O 0.6494(2) 0.3805(3) 0.25145(12)
O19 O 0.9133(4) 0.5405(4) 0.19843(16)
O20 O 0.7712(2) 0.6464(3) 0.15019(13)
O21 O 0.1780(2) 0.7758(3) 0.91111(12)
O22 O 0.2289(3) 0.5375(3) 0.90250(15)
O23 O 0.3172(6) 0.9963(7) 0.7754(3)
O24 O 0.5522(6) 0.9591(7) 0.2269(3)
O25 O 0.6315(6) 0.9959(8) 0.1141(3)
O26? O 0.6332(8) 0.9446(11) 0.1337(4)
loop_
_geom_bond_atom_site_label_1
_geom_bond_atom_site_label_2
_geom_bond_site_symmetry_1
_geom_bond_site_symmetry_2
S1 O2 1_555 1_555
S2 O6 1_555 1_555
S3 O10 1_555 1_555
S4 O14 1_555 1_555
O1 H1 1_555 1_555
O3 S1 1_555 1_555
O4 S1 1_555 1_555
O5 H2 1_555 1_555
O7 S2 1_555 1_555
O8 S2 1_555 1_555
O9 H3 1_555 1_555
O11 S3 1_555 1_555
O12 S3 1_555 1_555
O13 H4 1_555 1_555
O15 S4 1_555 1_555
O16 S4 1_555 1_555
C1 H5 1_555 1_555
H6 C1 1_555 1_555
C2 C1 1_555 1_555
C3 C2 1_555 1_555
H7 C3 1_555 1_555
C4 S1 1_555 1_555
C5 C4 1_555 1_555
H8 C5 1_555 1_555
C6 C5 1_555 1_555
C7 O1 1_555 1_555
C8 C6 1_555 1_555
H9 C8 1_555 1_555
H10 C8 1_555 1_555
C9 C8 1_555 1_555
C10 C9 1_555 1_555
H11 C10 1_555 1_555
C11 S2 1_555 1_555
C12 C11 1_555 1_555
H12 C12 1_555 1_555
C13 C12 1_555 1_555
C14 O5 1_555 1_555
C15 C13 1_555 1_555
H13 C15 1_555 1_555
H14 C15 1_555 1_555
C16 C15 1_555 1_555
C17 C16 1_555 1_555
H15 C17 1_555 1_555
C18 S3 1_555 1_555
C19 C18 1_555 1_555
H16 C19 1_555 1_555
C20 C19 1_555 1_555
C21 O9 1_555 1_555
C22 C20 1_555 1_555
H17 C22 1_555 1_555
H18 C22 1_555 1_555
C23 C22 1_555 1_555
C24 C23 1_555 1_555
H19 C24 1_555 1_555
C25 S4 1_555 1_555
C26 C25 1_555 1_555
H20 C26 1_555 1_555
C27 C1 1_555 1_555
C28 O13 1_555 1_555
N1 H21 1_555 1_555
N2 H22 1_555 1_555
H23 N2 1_555 1_555
N3 H24 1_555 1_555
N4 H25 1_555 1_555
H26 N4 1_555 1_555
N5 H27 1_555 1_555
H28 N5 1_555 1_555
C29 H29 1_555 1_555
C30 C29 1_555 1_555
H30 C30 1_555 1_555
C31 C30 1_555 1_555
H31 C31 1_555 1_555
C32 C31 1_555 1_555
H32 C32 1_555 1_555
C33 C32 1_555 1_555
H33 C33 1_555 1_555
C34 C29 1_555 1_555
C35 C34 1_555 1_555
H34 C35 1_555 1_555
H35 C35 1_555 1_555
C36 N1 1_555 1_555
H36 C36 1_555 1_555
H37 C36 1_555 1_555
C37 N1 1_555 1_555
C38 N3 1_555 1_555
N6 H38 1_555 1_555
N7 H39 1_555 1_555
H40 N7 1_555 1_555
N8 H41 1_555 1_555
N9 H42 1_555 1_555
H43 N9 1_555 1_555
N10 H44 1_555 1_555
H45 N10 1_555 1_555
C39 H46 1_555 1_555
C40 C39 1_555 1_555
H47 C40 1_555 1_555
C41 C40 1_555 1_555
H48 C41 1_555 1_555
C42 C41 1_555 1_555
H49 C42 1_555 1_555
C43 C42 1_555 1_555
H50 C43 1_555 1_555
C44 C39 1_555 1_555
C45 C44 1_555 1_555
H51 C45 1_555 1_555
H52 C45 1_555 1_555
C46 N6 1_555 1_555
H53 C46 1_555 1_555
H54 C46 1_555 1_555
C47 N6 1_555 1_555
C48 N8 1_555 1_555
C2 C7 1_555 1_555
C3 C4 1_555 1_555
C6 C7 1_555 1_555
C9 C14 1_555 1_555
C10 C11 1_555 1_555
C13 C14 1_555 1_555
C16 C21 1_555 1_555
C17 C18 1_555 1_555
C20 C21 1_555 1_555
C23 C28 1_555 1_555
C24 C25 1_555 1_555
C26 C27 1_555 1_555
C27 C28 1_555 1_555
N2 C37 1_555 1_555
N3 C37 1_555 1_555
N4 C38 1_555 1_555
N5 C38 1_555 1_555
C33 C34 1_555 1_555
C35 C36 1_555 1_555
N7 C47 1_555 1_555
N8 C47 1_555 1_555
N9 C48 1_555 1_555
N10 C48 1_555 1_555
C43 C44 1_555 1_555
C45 C46 1_555 1_555

#END
