
#######################################################################
#
#                 Cambridge Crystallographic Data Centre
#                                CCDC 
#
#######################################################################
#
# If this CIF has been generated from an entry in the Cambridge 
# Structural Database, then it will include bibliographic, chemical, 
# crystal, experimental, refinement or atomic coordinate data resulting 
# from the CCDC's data processing and validation procedures.
#
#######################################################################

data_VAPQOU
_chemical_name_common            
'bis(metformin) 25,26,27,28-tetrahydroxycalix(4)arene-5,11,17,23-tetrasulfonate hydrate'
_chemical_formula_moiety         'C28 H20 O16 S4 4-,2(C4 H13 N5 2+),9.13(H2 O1)'
_chemical_name_systematic        
'bis(Amino(((dimethylamino)(iminio)methyl)amino)methaniminium) 25,26,27,28-tetrahydroxycalix(4)arene-5,11,17,23-tetrasulfonate hydrate'
_symmetry_cell_setting           monoclinic
_symmetry_space_group_name_H-M   'C c'
_symmetry_Int_Tables_number      9
_space_group_name_Hall           'C -2yc'
loop_
_symmetry_equiv_pos_site_id
_symmetry_equiv_pos_as_xyz
1 x,y,z
2 x,-y,1/2+z
3 1/2+x,1/2+y,z
4 1/2+x,1/2-y,1/2+z
_cell_length_a                   20.657(3)
_cell_length_b                   18.786(3)
_cell_length_c                   26.624(4)
_cell_angle_alpha                90
_cell_angle_beta                 97.992(5)
_cell_angle_gamma                90
_cell_volume                     10231.4
_exptl_crystal_colour            colorless
_exptl_crystal_description       prism
_cell_formula_units_Z            8
loop_
_atom_site_label
_atom_site_type_symbol
_atom_site_fract_x
_atom_site_fract_y
_atom_site_fract_z
S1 S 0.16025(9) 0.65217(10) 0.18152(7)
S2 S -0.02649(8) 0.35026(10) 0.22427(7)
S3 S 0.15323(7) 0.04296(9) 0.18745(6)
S4 S 0.37598(8) 0.31334(11) 0.21829(7)
O1 O 0.1298(2) 0.4303(3) 0.02207(19)
H1 H 0.0892 0.4276 0.0109
O2 O 0.0171(2) 0.3420(3) 0.00988(19)
H2 H 0.0109 0.2995 -0.0007
O3 O 0.1248(2) 0.2500(3) 0.01908(19)
H3 H 0.1517 0.2379 -0.0008
O4 O 0.2318(2) 0.3465(3) 0.00998(19)
H4 H 0.2561 0.3313 -0.0110
O5 O 0.0966(2) 0.6615(3) 0.1987(2)
O6 O 0.2107(3) 0.6278(3) 0.2226(2)
O7 O 0.1832(2) 0.7166(3) 0.1578(2)
O8 O 0.0366(2) 0.3200(3) 0.24919(18)
O9 O -0.0367(3) 0.4234(3) 0.2383(2)
O10 O -0.0787(2) 0.3005(3) 0.2318(2)
O11 O 0.1998(2) 0.0742(3) 0.2280(2)
O12 O 0.0894(2) 0.0314(3) 0.20392(18)
O13 O 0.1784(3) -0.0214(3) 0.1661(2)
O14 O 0.3943(3) 0.2359(3) 0.2230(2)
O15 O 0.4342(3) 0.3549(4) 0.2221(3)
O16 O 0.3305(3) 0.3309(4) 0.2525(2)
C1 C 0.1385(3) 0.4809(3) 0.0592(2)
C2 C 0.2020(3) 0.5032(3) 0.0808(3)
C3 C 0.2082(3) 0.5562(4) 0.1181(3)
H5 H 0.2503 0.5728 0.1320
C4 C 0.1524(3) 0.5848(4) 0.1352(3)
C5 C 0.0899(3) 0.5621(3) 0.1141(2)
H6 H 0.0523 0.5824 0.1254
C6 C 0.0829(3) 0.5101(4) 0.0767(2)
C7 C 0.0146(3) 0.4831(3) 0.0568(3)
H7 H 0.0107 0.4757 0.0197
H8 H -0.0183 0.5189 0.0635
C8 C 0.0060(3) 0.3464(3) 0.0591(3)
C9 C 0.0019(3) 0.4123(4) 0.0832(2)
C10 C -0.0105(3) 0.4139(4) 0.1331(3)
H9 H -0.0125 0.4583 0.1500
C11 C -0.0201(3) 0.3496(4) 0.1591(3)
C12 C -0.0166(3) 0.2847(4) 0.1346(3)
H10 H -0.0233 0.2417 0.1520
C13 C -0.0034(3) 0.2819(3) 0.0843(3)
C14 C 0.0050(3) 0.2106(3) 0.0602(2)
H11 H -0.0010 0.2159 0.0228
H12 H -0.0287 0.1773 0.0691
C15 C 0.1283(3) 0.2003(3) 0.0575(2)
C16 C 0.0728(3) 0.1801(4) 0.0781(2)
C17 C 0.0800(3) 0.1314(4) 0.1185(2)
H13 H 0.0430 0.1167 0.1335
C18 C 0.1430(3) 0.1047(3) 0.1367(3)
C19 C 0.1968(3) 0.1250(4) 0.1151(3)
H14 H 0.2385 0.1057 0.1275
C20 C 0.1912(3) 0.1731(3) 0.0755(2)
C21 C 0.2513(3) 0.1992(4) 0.0523(3)
H15 H 0.2857 0.1620 0.0560
H16 H 0.2389 0.2089 0.0156
C22 C 0.2639(3) 0.3364(4) 0.0586(3)
C23 C 0.2774(3) 0.2671(3) 0.0795(2)
C24 C 0.3124(3) 0.2625(4) 0.1276(3)
H17 H 0.3228 0.2169 0.1419
C25 C 0.3331(3) 0.3240(4) 0.1562(3)
C26 C 0.3172(3) 0.3904(4) 0.1358(3)
H18 H 0.3297 0.4318 0.1553
C27 C 0.2825(3) 0.3975(4) 0.0866(3)
C28 C 0.2643(3) 0.4719(4) 0.0640(3)
H19 H 0.3011 0.5050 0.0742
H20 H 0.2581 0.4685 0.0265
S5 S 0.03544(8) -0.16571(10) 0.41083(7)
S6 S 0.23858(8) 0.15541(9) 0.37002(7)
S7 S 0.02674(8) 0.46500(9) 0.40723(6)
S8 S -0.17398(8) 0.15225(9) 0.36918(7)
O17 O 0.0590(2) 0.0611(2) 0.56718(19)
H21 H 0.0932 0.0864 0.5673
O18 O 0.1647(2) 0.1517(2) 0.57746(18)
H22 H 0.1327 0.1796 0.5791
O19 O 0.0646(2) 0.2453(3) 0.56798(18)
H23 H 0.0331 0.2281 0.5816
O20 O -0.0421(2) 0.1588(2) 0.58171(19)
H24 H -0.0425 0.1181 0.5955
O21 O -0.0155(2) -0.1460(3) 0.3709(2)
O22 O 0.0129(3) -0.2285(3) 0.4374(2)
O23 O 0.0985(3) -0.1761(3) 0.3933(2)
O24 O 0.1775(2) 0.1592(3) 0.33445(19)
O25 O 0.2746(2) 0.0887(3) 0.3650(2)
O26 O 0.2797(2) 0.2198(3) 0.36610(18)
O27 O -0.0127(2) 0.4293(3) 0.36383(19)
O28 O 0.0922(2) 0.4834(3) 0.39551(18)
O29 O -0.0066(2) 0.5263(3) 0.42559(18)
O30 O -0.1437(3) 0.0988(3) 0.3414(2)
O31 O -0.1693(3) 0.2233(3) 0.34859(19)
O32 O -0.2422(2) 0.1337(3) 0.3745(2)
C29 C 0.0574(3) 0.0104(3) 0.5291(3)
C30 C -0.0050(3) -0.0161(4) 0.5107(3)
C31 C -0.0109(3) -0.0683(3) 0.4743(3)
H25 H -0.0528 -0.0874 0.4623
C32 C 0.0438(3) -0.0937(3) 0.4548(3)
C33 C 0.1070(3) -0.0670(4) 0.4735(3)
H26 H 0.1445 -0.0853 0.4609
C34 C 0.1135(3) -0.0134(3) 0.5106(3)
C35 C 0.1796(3) 0.0175(4) 0.5299(3)
H27 H 0.2141 -0.0163 0.5228
H28 H 0.1835 0.0239 0.5671
C36 C 0.1817(3) 0.1547(3) 0.5287(2)
C37 C 0.1904(3) 0.0894(4) 0.5049(3)
C38 C 0.2097(3) 0.0914(3) 0.4571(2)
H29 H 0.2182 0.0479 0.4410
C39 C 0.2171(3) 0.1548(3) 0.4321(2)
C40 C 0.2055(3) 0.2195(4) 0.4566(3)
H30 H 0.2101 0.2634 0.4396
C41 C 0.1876(3) 0.2200(3) 0.5051(2)
C42 C 0.1765(3) 0.2934(3) 0.5295(3)
H31 H 0.1820 0.2883 0.5669
H32 H 0.2097 0.3277 0.5209
C43 C 0.0523(3) 0.2960(3) 0.5312(2)
C44 C 0.1092(3) 0.3216(3) 0.5110(3)
C45 C 0.0999(3) 0.3737(4) 0.4743(3)
H33 H 0.1369 0.3915 0.4608
C46 C 0.0384(3) 0.4014(4) 0.4560(3)
C47 C -0.0158(3) 0.3752(4) 0.4759(2)
H34 H -0.0579 0.3938 0.4639
C48 C -0.0097(3) 0.3218(3) 0.5131(3)
C49 C -0.0692(3) 0.2908(3) 0.5329(3)
H35 H -0.1066 0.3240 0.5255
H36 H -0.0598 0.2849 0.5702
C50 C -0.0717(3) 0.1536(3) 0.5319(3)
C51 C -0.0873(3) 0.2184(4) 0.5080(2)
C52 C -0.1191(3) 0.2180(4) 0.4568(2)
H37 H -0.1315 0.2615 0.4400
C53 C -0.1317(3) 0.1537(4) 0.4318(3)
C54 C -0.1151(3) 0.0896(4) 0.4565(3)
H38 H -0.1250 0.0459 0.4391
C55 C -0.0839(3) 0.0888(4) 0.5066(3)
C56 C -0.0650(3) 0.0149(4) 0.5302(3)
H39 H -0.0561 0.0195 0.5676
H40 H -0.1023 -0.0182 0.5220
N1 N 0.1274(3) 0.3962(3) 0.3155(2)
H41 H 0.1130 0.4303 0.3338
H42 H 0.1014 0.3776 0.2899
N2 N 0.2286(3) 0.3998(4) 0.3648(2)
H43 H 0.2164 0.4339 0.3841
H44 H 0.2685 0.3826 0.3707
N3 N 0.2101(3) 0.3190(3) 0.2994(2)
H45 H 0.2410 0.2922 0.3159
N4 N 0.1849(3) 0.2321(3) 0.2402(2)
H46 H 0.1729 0.2166 0.2091
H47 H 0.1935 0.2015 0.2653
N5 N 0.1782(3) 0.3510(3) 0.2142(2)
C57 C 0.1861(4) 0.3739(4) 0.3262(3)
C58 C 0.1901(3) 0.3026(4) 0.2494(3)
C59 C 0.1493(3) 0.3308(4) 0.1626(3)
H48 H 0.1377 0.2802 0.1620
H49 H 0.1810 0.3394 0.1391
H50 H 0.1099 0.3593 0.1523
C60 C 0.1993(4) 0.4271(4) 0.2210(3)
H51 H 0.2181 0.4351 0.2564
H52 H 0.1614 0.4583 0.2123
H53 H 0.2321 0.4376 0.1988
N6 N 0.0496(4) -0.0565(4) 0.3089(3)
H54 H 0.0872 -0.0565 0.2969
H55 H 0.0336 -0.0966 0.3191
N7 N -0.0388(3) 0.0048(4) 0.3314(3)
H56 H -0.0543 -0.0347 0.3429
H57 H -0.0602 0.0451 0.3330
N8 N 0.0425(3) 0.0632(4) 0.2957(3)
H58 H 0.0754 0.0571 0.2784
N9 N 0.0135(4) 0.1708(4) 0.2619(3)
H59 H 0.0030 0.2160 0.2639
H60 H 0.0160 0.1513 0.2322
N10 N 0.0229(3) 0.1569(3) 0.3499(3)
C61 C 0.0171(4) 0.0036(4) 0.3115(3)
C62 C 0.0252(4) 0.1332(5) 0.3025(4)
C63 C 0.0489(4) 0.1221(5) 0.3967(3)
H61 H 0.0619 0.0734 0.3894
H62 H 0.0153 0.1207 0.4193
H63 H 0.0870 0.1485 0.4130
C64 C 0.0011(5) 0.2322(5) 0.3555(3)
H64 H -0.0153 0.2517 0.3220
H65 H 0.0380 0.2609 0.3712
H66 H -0.0339 0.2332 0.3769
N11 N 0.2995(3) -0.2263(3) 0.1377(2)
H67 H 0.3227 -0.2396 0.1140
H68 H 0.2819 -0.2585 0.1556
N12 N 0.3171(3) -0.1076(4) 0.1200(2)
H69 H 0.3405 -0.1194 0.0961
H70 H 0.3107 -0.0624 0.1266
N13 N 0.2529(3) -0.1383(3) 0.1831(2)
H71 H 0.2322 -0.0974 0.1785
N14 N 0.2938(3) -0.2142(3) 0.2491(2)
H72 H 0.2892 -0.2391 0.2764
H73 H 0.3315 -0.2143 0.2372
N15 N 0.1870(3) -0.1751(4) 0.2427(2)
C65 C 0.2912(3) -0.1583(4) 0.1464(3)
C66 C 0.2444(3) -0.1768(4) 0.2261(3)
C67 C 0.1244(4) -0.1561(4) 0.2114(3)
H74 H 0.1333 -0.1353 0.1793
H75 H 0.1010 -0.1215 0.2296
H76 H 0.0977 -0.1990 0.2045
C68 C 0.1791(4) -0.2081(5) 0.2920(3)
H77 H 0.2222 -0.2195 0.3105
H78 H 0.1533 -0.2518 0.2861
H79 H 0.1565 -0.1747 0.3119
N16 N 0.3360(3) 0.1058(3) 0.2506(2)
H80 H 0.2957 0.1101 0.2350
H81 H 0.3638 0.1412 0.2500
N17 N 0.3151(3) -0.0087(3) 0.2769(2)
H82 H 0.2745 -0.0059 0.2616
H83 H 0.3288 -0.0478 0.2933
N18 N 0.4186(3) 0.0366(3) 0.2982(2)
H84 H 0.4262 -0.0022 0.3166
N19 N 0.5231(3) 0.0508(3) 0.2806(2)
H85 H 0.5587 0.0761 0.2795
H86 H 0.5219 0.0058 0.2713
N20 N 0.4696(3) 0.1490(3) 0.3112(2)
C69 C 0.3550(3) 0.0453(4) 0.2751(3)
C70 C 0.4716(4) 0.0802(4) 0.2962(3)
C71 C 0.4237(4) 0.1744(4) 0.3445(3)
H87 H 0.3901 0.1381 0.3467
H88 H 0.4029 0.2184 0.3307
H89 H 0.4473 0.1836 0.3784
C72 C 0.5236(4) 0.1978(5) 0.3038(3)
H90 H 0.5513 0.1755 0.2813
H91 H 0.5497 0.2079 0.3367
H92 H 0.5055 0.2423 0.2887
O33 O 0.4792(2) 0.4490(3) 0.15723(19)
H93 H 0.4696 0.4171 0.1776
H94 H 0.5046 0.4786 0.1742
O34 O 0.3613(3) -0.1233(3) 0.3525(2)
H95 H 0.4005 -0.1145 0.3652
H96 H 0.3569 -0.1682 0.3507
O35 O 0.3521(3) -0.1618(3) 0.0278(2)
H97 H 0.3837 -0.1580 0.0107
H98 H 0.3185 -0.1743 0.0077
O36 O 0.4320(3) 0.4097(3) 0.6731(3)
O37 O 0.3713(2) 0.0593(3) 0.4519(2)
H99 H 0.3477 0.0736 0.4251
H100 H 0.4090 0.0499 0.4443
O38 O 0.3336(2) 0.0530(3) 0.0091(2)
O39 O 0.2628(3) -0.1133(3) 0.4173(2)
H101 H 0.2826 -0.1048 0.3920
H102 H 0.2444 -0.1536 0.4126
O40 O 0.6575(3) 0.0690(3) 0.3035(2)
H103 H 0.6819 0.0812 0.3305
H104 H 0.6751 0.0842 0.2785
O41 O 0.3562(3) 0.3919(4) 0.3474(3)
H105 H 0.3510 0.3817 0.3160
H106 H 0.3838 0.3627 0.3625
O42 O 0.7211(2) 0.0142(3) 0.4344(2)
H107 H 0.7519 0.0438 0.4326
H108 H 0.7091 0.0186 0.4635
O43 O 0.3508(3) 0.3412(3) 0.5873(3)
H109 H 0.3880 0.3541 0.6022
H110 H 0.3300 0.3230 0.6096
O44 O 0.7101(3) 0.2492(3) 0.4296(2)
H111 H 0.7235 0.2092 0.4203
H112 H 0.6695 0.2522 0.4187
O45 O 0.3086(3) 0.3955(3) 0.4889(2)
H113 H 0.2910 0.4291 0.4705
H114 H 0.2861 0.3891 0.5129
O46 O 0.1879(3) -0.0326(3) 0.3313(3)
H115 H 0.2084 0.0067 0.3341
H116 H 0.1894 -0.0502 0.3608
O47 O 0.3699(3) 0.2801(3) 0.4472(2)
H117 H 0.3432 0.2630 0.4223
H118 H 0.4079 0.2656 0.4430
O48 O 0.3500(3) 0.0459(3) 0.1192(2)
H119 H 0.3482 0.0485 0.0868
H120 H 0.3894 0.0539 0.1318
O49 O 0.4565(3) 0.1397(4) 0.1667(3)
H121 H 0.4377 0.1765 0.1757
H122 H 0.4976 0.1446 0.1765
O50 O 0.8328(4) 0.0773(6) 0.2319(3)
O51 O 0.5955(8) 0.1460(8) 0.4162(6)
loop_
_geom_bond_atom_site_label_1
_geom_bond_atom_site_label_2
_geom_bond_site_symmetry_1
_geom_bond_site_symmetry_2
S1 O5 1_555 1_555
S2 O8 1_555 1_555
S3 O11 1_555 1_555
S4 O14 1_555 1_555
O1 H1 1_555 1_555
O2 H2 1_555 1_555
O3 H3 1_555 1_555
O4 H4 1_555 1_555
O6 S1 1_555 1_555
O7 S1 1_555 1_555
O9 S2 1_555 1_555
O10 S2 1_555 1_555
O12 S3 1_555 1_555
O13 S3 1_555 1_555
O15 S4 1_555 1_555
O16 S4 1_555 1_555
C1 O1 1_555 1_555
C2 C1 1_555 1_555
C3 C2 1_555 1_555
H5 C3 1_555 1_555
C4 S1 1_555 1_555
C5 C4 1_555 1_555
H6 C5 1_555 1_555
C6 C1 1_555 1_555
C7 C6 1_555 1_555
H7 C7 1_555 1_555
H8 C7 1_555 1_555
C8 O2 1_555 1_555
C9 C7 1_555 1_555
C10 C9 1_555 1_555
H9 C10 1_555 1_555
C11 S2 1_555 1_555
C12 C11 1_555 1_555
H10 C12 1_555 1_555
C13 C8 1_555 1_555
C14 C13 1_555 1_555
H11 C14 1_555 1_555
H12 C14 1_555 1_555
C15 O3 1_555 1_555
C16 C14 1_555 1_555
C17 C16 1_555 1_555
H13 C17 1_555 1_555
C18 S3 1_555 1_555
C19 C18 1_555 1_555
H14 C19 1_555 1_555
C20 C15 1_555 1_555
C21 C20 1_555 1_555
H15 C21 1_555 1_555
H16 C21 1_555 1_555
C22 O4 1_555 1_555
C23 C21 1_555 1_555
C24 C23 1_555 1_555
H17 C24 1_555 1_555
C25 S4 1_555 1_555
C26 C25 1_555 1_555
H18 C26 1_555 1_555
C27 C22 1_555 1_555
C28 C2 1_555 1_555
H19 C28 1_555 1_555
H20 C28 1_555 1_555
S5 O21 1_555 1_555
S6 O24 1_555 1_555
S7 O27 1_555 1_555
S8 O30 1_555 1_555
O17 H21 1_555 1_555
O18 H22 1_555 1_555
O19 H23 1_555 1_555
O20 H24 1_555 1_555
O22 S5 1_555 1_555
O23 S5 1_555 1_555
O25 S6 1_555 1_555
O26 S6 1_555 1_555
O28 S7 1_555 1_555
O29 S7 1_555 1_555
O31 S8 1_555 1_555
O32 S8 1_555 1_555
C29 O17 1_555 1_555
C30 C29 1_555 1_555
C31 C30 1_555 1_555
H25 C31 1_555 1_555
C32 S5 1_555 1_555
C33 C32 1_555 1_555
H26 C33 1_555 1_555
C34 C29 1_555 1_555
C35 C34 1_555 1_555
H27 C35 1_555 1_555
H28 C35 1_555 1_555
C36 O18 1_555 1_555
C37 C35 1_555 1_555
C38 C37 1_555 1_555
H29 C38 1_555 1_555
C39 S6 1_555 1_555
C40 C39 1_555 1_555
H30 C40 1_555 1_555
C41 C36 1_555 1_555
C42 C41 1_555 1_555
H31 C42 1_555 1_555
H32 C42 1_555 1_555
C43 O19 1_555 1_555
C44 C42 1_555 1_555
C45 C44 1_555 1_555
H33 C45 1_555 1_555
C46 S7 1_555 1_555
C47 C46 1_555 1_555
H34 C47 1_555 1_555
C48 C43 1_555 1_555
C49 C48 1_555 1_555
H35 C49 1_555 1_555
H36 C49 1_555 1_555
C50 O20 1_555 1_555
C51 C49 1_555 1_555
C52 C51 1_555 1_555
H37 C52 1_555 1_555
C53 S8 1_555 1_555
C54 C53 1_555 1_555
H38 C54 1_555 1_555
C55 C50 1_555 1_555
C56 C30 1_555 1_555
H39 C56 1_555 1_555
H40 C56 1_555 1_555
N1 H41 1_555 1_555
H42 N1 1_555 1_555
N2 H43 1_555 1_555
H44 N2 1_555 1_555
N3 H45 1_555 1_555
N4 H46 1_555 1_555
H47 N4 1_555 1_555
N5 C58 1_555 1_555
C57 N1 1_555 1_555
C58 N3 1_555 1_555
C59 N5 1_555 1_555
H48 C59 1_555 1_555
H49 C59 1_555 1_555
H50 C59 1_555 1_555
C60 N5 1_555 1_555
H51 C60 1_555 1_555
H52 C60 1_555 1_555
H53 C60 1_555 1_555
N6 H54 1_555 1_555
H55 N6 1_555 1_555
N7 H56 1_555 1_555
H57 N7 1_555 1_555
N8 H58 1_555 1_555
N9 H59 1_555 1_555
H60 N9 1_555 1_555
N10 C62 1_555 1_555
C61 N6 1_555 1_555
C62 N8 1_555 1_555
C63 N10 1_555 1_555
H61 C63 1_555 1_555
H62 C63 1_555 1_555
H63 C63 1_555 1_555
C64 N10 1_555 1_555
H64 C64 1_555 1_555
H65 C64 1_555 1_555
H66 C64 1_555 1_555
N11 H67 1_555 1_555
H68 N11 1_555 1_555
N12 H69 1_555 1_555
H70 N12 1_555 1_555
N13 H71 1_555 1_555
N14 H72 1_555 1_555
H73 N14 1_555 1_555
N15 C66 1_555 1_555
C65 N11 1_555 1_555
C66 N13 1_555 1_555
C67 N15 1_555 1_555
H74 C67 1_555 1_555
H75 C67 1_555 1_555
H76 C67 1_555 1_555
C68 N15 1_555 1_555
H77 C68 1_555 1_555
H78 C68 1_555 1_555
H79 C68 1_555 1_555
N16 H80 1_555 1_555
H81 N16 1_555 1_555
N17 H82 1_555 1_555
H83 N17 1_555 1_555
N18 H84 1_555 1_555
N19 H85 1_555 1_555
H86 N19 1_555 1_555
N20 C70 1_555 1_555
C69 N16 1_555 1_555
C70 N18 1_555 1_555
C71 N20 1_555 1_555
H87 C71 1_555 1_555
H88 C71 1_555 1_555
H89 C71 1_555 1_555
C72 N20 1_555 1_555
H90 C72 1_555 1_555
H91 C72 1_555 1_555
H92 C72 1_555 1_555
O33 H93 1_555 1_555
H94 O33 1_555 1_555
O34 H95 1_555 1_555
H96 O34 1_555 1_555
O35 H97 1_555 1_555
H98 O35 1_555 1_555
O37 H99 1_555 1_555
H100 O37 1_555 1_555
O39 H101 1_555 1_555
H102 O39 1_555 1_555
O40 H103 1_555 1_555
H104 O40 1_555 1_555
O41 H105 1_555 1_555
H106 O41 1_555 1_555
O42 H107 1_555 1_555
H108 O42 1_555 1_555
O43 H109 1_555 1_555
H110 O43 1_555 1_555
O44 H111 1_555 1_555
H112 O44 1_555 1_555
O45 H113 1_555 1_555
H114 O45 1_555 1_555
O46 H115 1_555 1_555
H116 O46 1_555 1_555
O47 H117 1_555 1_555
H118 O47 1_555 1_555
O48 H119 1_555 1_555
H120 O48 1_555 1_555
O49 H121 1_555 1_555
H122 O49 1_555 1_555
C3 C4 1_555 1_555
C5 C6 1_555 1_555
C8 C9 1_555 1_555
C10 C11 1_555 1_555
C12 C13 1_555 1_555
C15 C16 1_555 1_555
C17 C18 1_555 1_555
C19 C20 1_555 1_555
C22 C23 1_555 1_555
C24 C25 1_555 1_555
C26 C27 1_555 1_555
C27 C28 1_555 1_555
C31 C32 1_555 1_555
C33 C34 1_555 1_555
C36 C37 1_555 1_555
C38 C39 1_555 1_555
C40 C41 1_555 1_555
C43 C44 1_555 1_555
C45 C46 1_555 1_555
C47 C48 1_555 1_555
C50 C51 1_555 1_555
C52 C53 1_555 1_555
C54 C55 1_555 1_555
C55 C56 1_555 1_555
N2 C57 1_555 1_555
N3 C57 1_555 1_555
N4 C58 1_555 1_555
N7 C61 1_555 1_555
N8 C61 1_555 1_555
N9 C62 1_555 1_555
N12 C65 1_555 1_555
N13 C65 1_555 1_555
N14 C66 1_555 1_555
N17 C69 1_555 1_555
N18 C69 1_555 1_555
N19 C70 1_555 1_555

#END
