
#######################################################################
#
#                 Cambridge Crystallographic Data Centre
#                                CCDC 
#
#######################################################################
#
# If this CIF has been generated from an entry in the Cambridge 
# Structural Database, then it will include bibliographic, chemical, 
# crystal, experimental, refinement or atomic coordinate data resulting 
# from the CCDC's data processing and validation procedures.
#
#######################################################################

data_VAPQAG
_chemical_formula_moiety         'C15 H9 N1 O2'
_chemical_name_systematic        12H-Indolo[2,1-b][1,3]benzoxazin-12-one
_symmetry_cell_setting           monoclinic
_symmetry_space_group_name_H-M   'P 21/c'
_symmetry_Int_Tables_number      14
_space_group_name_Hall           '-P 2ybc'
loop_
_symmetry_equiv_pos_site_id
_symmetry_equiv_pos_as_xyz
1 x,y,z
2 -x,1/2+y,1/2-z
3 -x,-y,-z
4 x,1/2-y,1/2+z
_cell_length_a                   12.2370(13)
_cell_length_b                   7.6556(8)
_cell_length_c                   12.2370(13)
_cell_angle_alpha                90
_cell_angle_beta                 108.92
_cell_angle_gamma                90
_cell_volume                     1084.45
_exptl_crystal_colour            colorless
_exptl_crystal_description       block
_cell_formula_units_Z            4
loop_
_atom_site_label
_atom_site_type_symbol
_atom_site_fract_x
_atom_site_fract_y
_atom_site_fract_z
O1 O 0.0811(3) 0.2356(4) 0.5210(3)
O2 O -0.0215(3) 0.5385(5) 0.2297(3)
N1 N -0.0637(3) 0.3735(5) 0.3655(3)
C1 C 0.0122(4) 0.4490(6) 0.3148(3)
C2 C 0.1624(4) 0.3031(6) 0.4750(4)
C3 C -0.0313(4) 0.2644(6) 0.4613(4)
C4 C 0.1312(4) 0.4026(6) 0.3779(4)
C5 C -0.1856(4) 0.3772(6) 0.3243(4)
C6 C -0.1222(4) 0.2004(7) 0.4862(4)
H1 H -0.1212 0.1277 0.5474
C7 C 0.2189(4) 0.4666(7) 0.3368(5)
H2 H 0.2005 0.5343 0.2702
C8 C -0.2585(4) 0.4619(7) 0.2297(4)
H3 H -0.2311 0.5337 0.1830
C9 C 0.2759(5) 0.2608(7) 0.5360(5)
H4 H 0.2946 0.1918 0.6021
C10 C 0.3317(5) 0.4271(8) 0.3970(5)
H5 H 0.3902 0.4700 0.3713
C11 C 0.3598(5) 0.3253(8) 0.4945(5)
H6 H 0.4369 0.2995 0.5332
C12 C -0.2214(4) 0.2679(7) 0.3982(4)
C13 C -0.4146(5) 0.3261(9) 0.2806(5)
H7 H -0.4935 0.3089 0.2641
C14 C -0.3399(5) 0.2453(8) 0.3750(5)
H8 H -0.3675 0.1765 0.4229
C15 C -0.3763(5) 0.4333(9) 0.2083(5)
H9 H -0.4299 0.4864 0.1450
loop_
_geom_bond_atom_site_label_1
_geom_bond_atom_site_label_2
_geom_bond_site_symmetry_1
_geom_bond_site_symmetry_2
O1 C2 1_555 1_555
O2 C1 1_555 1_555
N1 C1 1_555 1_555
C1 C4 1_555 1_555
C2 C4 1_555 1_555
C3 O1 1_555 1_555
C4 C7 1_555 1_555
C5 N1 1_555 1_555
C6 C3 1_555 1_555
H1 C6 1_555 1_555
C7 H2 1_555 1_555
C8 C5 1_555 1_555
H3 C8 1_555 1_555
C9 C2 1_555 1_555
H4 C9 1_555 1_555
C10 C7 1_555 1_555
H5 C10 1_555 1_555
C11 C9 1_555 1_555
H6 C11 1_555 1_555
C12 C5 1_555 1_555
C13 H7 1_555 1_555
C14 C12 1_555 1_555
H8 C14 1_555 1_555
C15 C8 1_555 1_555
H9 C15 1_555 1_555
N1 C3 1_555 1_555
C6 C12 1_555 1_555
C10 C11 1_555 1_555
C13 C14 1_555 1_555
C13 C15 1_555 1_555

#END
