
#######################################################################
#
#                 Cambridge Crystallographic Data Centre
#                                CCDC 
#
#######################################################################
#
# If this CIF has been generated from an entry in the Cambridge 
# Structural Database, then it will include bibliographic, chemical, 
# crystal, experimental, refinement or atomic coordinate data resulting 
# from the CCDC's data processing and validation procedures.
#
#######################################################################

data_VAPWIV
_chemical_formula_moiety         'C15 H24 O2'
_chemical_name_systematic        
7a-hydroxy-2a,4,4,7-tetramethyldecahydro-1H-cyclopenta[cd]inden-1-one
_symmetry_cell_setting           monoclinic
_symmetry_space_group_name_H-M   'P 21/c'
_symmetry_Int_Tables_number      14
_space_group_name_Hall           '-P 2ybc'
loop_
_symmetry_equiv_pos_site_id
_symmetry_equiv_pos_as_xyz
1 x,y,z
2 -x,1/2+y,1/2-z
3 -x,-y,-z
4 x,1/2-y,1/2+z
_cell_length_a                   14.833(2)
_cell_length_b                   6.1921(8)
_cell_length_c                   14.787(2)
_cell_angle_alpha                90
_cell_angle_beta                 98.174(15)
_cell_angle_gamma                90
_cell_volume                     1344.35
_cell_formula_units_Z            4
loop_
_atom_site_label
_atom_site_type_symbol
_atom_site_fract_x
_atom_site_fract_y
_atom_site_fract_z
C1 C 0.38760(15) 0.4890(4) 0.22488(14)
C2 C 0.33161(13) 0.6623(3) 0.16823(14)
C3 C 0.34451(15) 0.6789(4) 0.06828(15)
H1 H 0.2961 0.7783 0.0384
C4 C 0.32693(17) 0.4569(4) 0.02252(16)
H2 H 0.3074 0.4783 -0.0437
H3 H 0.3847 0.3745 0.0298
C5 C 0.25492(16) 0.3240(4) 0.06140(15)
H4 H 0.2852 0.2289 0.1104
H5 H 0.2230 0.2309 0.0126
C6 C 0.18507(14) 0.4657(3) 0.10014(13)
H6 H 0.1535 0.5603 0.0507
C7 C 0.11358(14) 0.3408(3) 0.14610(15)
C8 C 0.16633(15) 0.2856(4) 0.24003(15)
H7 H 0.1997 0.1479 0.2370
H8 H 0.1239 0.2701 0.2856
C9 C 0.23386(14) 0.4721(3) 0.26743(13)
C10 C 0.33344(15) 0.3957(4) 0.29337(15)
H9 H 0.3579 0.4462 0.3556
H10 H 0.3365 0.2360 0.2924
C11 C 0.23364(13) 0.6064(3) 0.17763(13)
H11 H 0.1983 0.7425 0.1819
C12 C 0.43578(17) 0.7740(5) 0.05176(19)
H12 H 0.4416 0.9213 0.0761
H13 H 0.4389 0.7769 -0.0140
H14 H 0.4855 0.6847 0.0825
C13 C 0.07623(18) 0.1385(4) 0.09413(18)
H15 H 0.1263 0.0379 0.0892
H16 H 0.0472 0.1793 0.0328
H17 H 0.0313 0.0688 0.1271
C14 C 0.03300(15) 0.4908(4) 0.15519(16)
H18 H -0.0075 0.4213 0.1933
H19 H -0.0007 0.5200 0.0945
H20 H 0.0557 0.6269 0.1836
C15 C 0.20553(18) 0.6110(4) 0.34371(15)
H21 H 0.2107 0.5264 0.4002
H22 H 0.1423 0.6582 0.3268
H23 H 0.2454 0.7376 0.3532
O1 O 0.46538(11) 0.4413(3) 0.21674(12)
O2 O 0.35194(9) 0.8594(2) 0.21827(11)
H24 H 0.4087 0.8744 0.2303
loop_
_geom_bond_atom_site_label_1
_geom_bond_atom_site_label_2
_geom_bond_site_symmetry_1
_geom_bond_site_symmetry_2
C1 C2 1_555 1_555
C2 C3 1_555 1_555
C3 H1 1_555 1_555
C4 C3 1_555 1_555
H2 C4 1_555 1_555
H3 C4 1_555 1_555
C5 C4 1_555 1_555
H4 C5 1_555 1_555
H5 C5 1_555 1_555
C6 C5 1_555 1_555
H6 C6 1_555 1_555
C7 C6 1_555 1_555
C8 C7 1_555 1_555
H7 C8 1_555 1_555
H8 C8 1_555 1_555
C9 C8 1_555 1_555
C10 C1 1_555 1_555
H9 C10 1_555 1_555
H10 C10 1_555 1_555
C11 C2 1_555 1_555
H11 C11 1_555 1_555
C12 C3 1_555 1_555
H12 C12 1_555 1_555
H13 C12 1_555 1_555
H14 C12 1_555 1_555
C13 C7 1_555 1_555
H15 C13 1_555 1_555
H16 C13 1_555 1_555
H17 C13 1_555 1_555
C14 C7 1_555 1_555
H18 C14 1_555 1_555
H19 C14 1_555 1_555
H20 C14 1_555 1_555
C15 C9 1_555 1_555
H21 C15 1_555 1_555
H22 C15 1_555 1_555
H23 C15 1_555 1_555
O1 C1 1_555 1_555
O2 C2 1_555 1_555
H24 O2 1_555 1_555
C6 C11 1_555 1_555
C9 C10 1_555 1_555
C9 C11 1_555 1_555

#END
