
#######################################################################
#
#                 Cambridge Crystallographic Data Centre
#                                CCDC 
#
#######################################################################
#
# If this CIF has been generated from an entry in the Cambridge 
# Structural Database, then it will include bibliographic, chemical, 
# crystal, experimental, refinement or atomic coordinate data resulting 
# from the CCDC's data processing and validation procedures.
#
#######################################################################

data_VAPWOB
_chemical_formula_moiety         'C15 H26 O2'
_chemical_name_systematic        
2a,4,4,7-tetramethyldecahydro-7bH-cyclopenta[cd]indene-1,7b-diol
_symmetry_cell_setting           monoclinic
_symmetry_space_group_name_H-M   'C 2/c'
_symmetry_Int_Tables_number      15
_space_group_name_Hall           '-C 2yn'
loop_
_symmetry_equiv_pos_site_id
_symmetry_equiv_pos_as_xyz
1 x,y,z
2 -x,y,1/2-z
3 1/2+x,1/2+y,z
4 1/2-x,1/2+y,1/2-z
5 -x,-y,-z
6 x,-y,1/2+z
7 1/2-x,1/2-y,-z
8 1/2+x,1/2-y,1/2+z
_cell_length_a                   16.8917(10)
_cell_length_b                   7.01010(10)
_cell_length_c                   23.4606(16)
_cell_angle_alpha                90
_cell_angle_beta                 92.571(8)
_cell_angle_gamma                90
_cell_volume                     2775.23
_exptl_crystal_colour            colorless
_exptl_crystal_description       prism
_cell_formula_units_Z            8
loop_
_atom_site_label
_atom_site_type_symbol
_atom_site_fract_x
_atom_site_fract_y
_atom_site_fract_z
O1 O 0.21583(12) 1.1544(3) 0.18791(8)
H1 H 0.211(2) 1.113(5) 0.2214(9)
O2 O 0.28537(13) 0.5166(3) 0.19288(9)
H2 H 0.269(2) 0.405(3) 0.1895(17)
C1 C 0.27858(15) 0.8488(3) 0.16787(11)
H3 H 0.2869 0.8619 0.2093
C2 C 0.24224(16) 0.6531(4) 0.15811(11)
H4 H 0.2441 0.6178 0.1178
C3 C 0.13214(15) 0.8770(4) 0.15274(11)
C4 C 0.36128(16) 0.8716(4) 0.14295(12)
H5 H 0.3782 0.7436 0.1320
C5 C 0.13110(17) 1.0534(4) 0.06064(12)
C6 C 0.10031(17) 0.8737(4) 0.09029(12)
H6 H 0.0428 0.8730 0.0887
H7 H 0.1186 0.7600 0.0713
C7 C 0.21602(16) 1.0727(4) 0.08853(10)
H8 H 0.2286 1.2089 0.0914
C8 C 0.15723(17) 0.6783(4) 0.17435(13)
H9 H 0.1533 0.6702 0.2154
H10 H 0.1237 0.5807 0.1566
C9 C 0.28076(18) 0.9769(5) 0.05531(12)
H11 H 0.2675 0.8439 0.0487
H12 H 0.2849 1.0389 0.0186
C10 C 0.21236(15) 0.9923(3) 0.15025(10)
C11 C 0.35950(18) 0.9913(5) 0.08924(14)
H13 H 0.4017 0.9500 0.0654
H14 H 0.3693 1.1236 0.0995
C12 C 0.07165(19) 0.9616(5) 0.19249(15)
H15 H 0.0574 1.0878 0.1799
H16 H 0.0945 0.9674 0.2307
H17 H 0.0252 0.8826 0.1918
C13 C 0.0835(2) 1.2321(5) 0.07442(15)
H18 H 0.0897 1.2591 0.1145
H19 H 0.0285 1.2111 0.0643
H20 H 0.1026 1.3383 0.0531
C14 C 0.1277(2) 1.0272(5) -0.00422(13)
H21 H 0.1535 0.9100 -0.0136
H22 H 0.1542 1.1320 -0.0216
H23 H 0.0734 1.0233 -0.0181
C15 C 0.42290(19) 0.9437(7) 0.18696(16)
H24 H 0.4239 0.8619 0.2198
H25 H 0.4096 1.0711 0.1981
H26 H 0.4741 0.9436 0.1708
loop_
_geom_bond_atom_site_label_1
_geom_bond_atom_site_label_2
_geom_bond_site_symmetry_1
_geom_bond_site_symmetry_2
O1 H1 1_555 1_555
O2 H2 1_555 1_555
C1 H3 1_555 1_555
C2 O2 1_555 1_555
H4 C2 1_555 1_555
C3 C6 1_555 1_555
C4 C1 1_555 1_555
H5 C4 1_555 1_555
C5 C6 1_555 1_555
C6 H6 1_555 1_555
H7 C6 1_555 1_555
C7 C5 1_555 1_555
H8 C7 1_555 1_555
C8 C2 1_555 1_555
H9 C8 1_555 1_555
H10 C8 1_555 1_555
C9 C7 1_555 1_555
H11 C9 1_555 1_555
H12 C9 1_555 1_555
C10 O1 1_555 1_555
C11 C4 1_555 1_555
H13 C11 1_555 1_555
H14 C11 1_555 1_555
C12 C3 1_555 1_555
H15 C12 1_555 1_555
H16 C12 1_555 1_555
H17 C12 1_555 1_555
C13 C5 1_555 1_555
H18 C13 1_555 1_555
H19 C13 1_555 1_555
H20 C13 1_555 1_555
C14 C5 1_555 1_555
H21 C14 1_555 1_555
H22 C14 1_555 1_555
H23 C14 1_555 1_555
C15 C4 1_555 1_555
H24 C15 1_555 1_555
H25 C15 1_555 1_555
H26 C15 1_555 1_555
C1 C2 1_555 1_555
C1 C10 1_555 1_555
C3 C8 1_555 1_555
C3 C10 1_555 1_555
C7 C10 1_555 1_555
C9 C11 1_555 1_555

#END
