
#######################################################################
#
#                 Cambridge Crystallographic Data Centre
#                                CCDC 
#
#######################################################################
#
# If this CIF has been generated from an entry in the Cambridge 
# Structural Database, then it will include bibliographic, chemical, 
# crystal, experimental, refinement or atomic coordinate data resulting 
# from the CCDC's data processing and validation procedures.
#
#######################################################################

data_VAQJOP
_chemical_formula_moiety         'C24 H20 B1 1-,C21 H17 N2 1+'
_chemical_name_systematic        
'1-benzyl-4-(2-cyano-2-phenylvinyl)pyridinium tetraphenylborate'
_symmetry_cell_setting           orthorhombic
_symmetry_space_group_name_H-M   'P n a 21'
_symmetry_Int_Tables_number      33
_space_group_name_Hall           'P 2c -2n'
loop_
_symmetry_equiv_pos_site_id
_symmetry_equiv_pos_as_xyz
1 x,y,z
2 -x,-y,1/2+z
3 1/2+x,1/2-y,z
4 1/2-x,1/2+y,1/2+z
_cell_length_a                   21.777(8)
_cell_length_b                   10.675(3)
_cell_length_c                   30.125(10)
_cell_angle_alpha                90
_cell_angle_beta                 90
_cell_angle_gamma                90
_cell_volume                     7003.14
_exptl_crystal_colour            brown
_cell_formula_units_Z            8
loop_
_atom_site_label
_atom_site_type_symbol
_atom_site_fract_x
_atom_site_fract_y
_atom_site_fract_z
B1 B 0.1805(4) 0.7108(8) 0.2310(3)
C1 C 0.1362(3) 0.5945(7) 0.2467(3)
C2 C 0.1078(3) 0.5984(7) 0.2884(3)
H1 H 0.1168 0.6651 0.3072
C3 C 0.0668(4) 0.5072(10) 0.3031(3)
H2 H 0.0493 0.5134 0.3312
C4 C 0.0527(4) 0.4094(9) 0.2764(4)
H3 H 0.0255 0.3483 0.2862
C5 C 0.0785(4) 0.4003(7) 0.2351(4)
H4 H 0.0693 0.3325 0.2169
C6 C 0.1180(3) 0.4923(7) 0.2207(3)
H5 H 0.1335 0.4862 0.1920
C7 C 0.1329(3) 0.8278(7) 0.2230(2)
C8 C 0.1242(3) 0.9257(7) 0.2521(3)
H6 H 0.1481 0.9283 0.2777
C9 C 0.0810(4) 1.0223(7) 0.2452(3)
H7 H 0.0768 1.0869 0.2656
C10 C 0.0450(4) 1.0190(9) 0.2073(4)
H8 H 0.0172 1.0832 0.2018
C11 C 0.0502(4) 0.9212(9) 0.1777(3)
H9 H 0.0256 0.9167 0.1525
C12 C 0.0930(3) 0.8308(7) 0.1867(3)
H10 H 0.0959 0.7648 0.1667
C13 C 0.2175(3) 0.6748(7) 0.1847(2)
C14 C 0.2240(3) 0.7565(7) 0.1487(3)
H11 H 0.2051 0.8347 0.1495
C15 C 0.2580(3) 0.7225(8) 0.1118(3)
H12 H 0.2614 0.7787 0.0884
C16 C 0.2870(3) 0.6082(9) 0.1087(3)
H13 H 0.3092 0.5866 0.0835
C17 C 0.2821(3) 0.5267(7) 0.1440(3)
H14 H 0.3014 0.4491 0.1430
C18 C 0.2487(3) 0.5604(7) 0.1808(2)
H15 H 0.2466 0.5042 0.2043
C19 C 0.2332(3) 0.7502(7) 0.2661(3)
C20 C 0.2676(4) 0.8592(7) 0.2594(3)
H16 H 0.2579 0.9102 0.2354
C21 C 0.3158(4) 0.8945(9) 0.2871(3)
H17 H 0.3380 0.9670 0.2811
C22 C 0.3305(5) 0.8226(12) 0.3231(4)
H18 H 0.3620 0.8463 0.3421
C23 C 0.2982(4) 0.7160(10) 0.3307(3)
H19 H 0.3082 0.6657 0.3549
C24 C 0.2509(3) 0.6815(7) 0.3030(3)
H20 H 0.2297 0.6080 0.3093
B2 B 0.4542(4) 0.6965(8) 0.4971(3)
C25 C 0.4045(3) 0.8083(7) 0.5053(3)
C26 C 0.3679(3) 0.8115(7) 0.5432(3)
H21 H 0.3720 0.7484 0.5642
C27 C 0.3252(3) 0.9074(8) 0.5503(3)
H22 H 0.3013 0.9060 0.5759
C28 C 0.3177(4) 1.0024(8) 0.5208(3)
H23 H 0.2897 1.0664 0.5262
C29 C 0.3522(4) 1.0017(8) 0.4831(3)
H24 H 0.3473 1.0651 0.4623
C30 C 0.3947(3) 0.9076(7) 0.4756(3)
H25 H 0.4177 0.9102 0.4496
C31 C 0.5080(3) 0.7371(8) 0.4613(3)
C32 C 0.5390(4) 0.8510(8) 0.4659(3)
H26 H 0.5276 0.9049 0.4888
C33 C 0.5864(4) 0.8868(9) 0.4377(4)
H27 H 0.6056 0.9639 0.4412
C34 C 0.6046(4) 0.8069(13) 0.4044(3)
H28 H 0.6368 0.8289 0.3858
C35 C 0.5750(5) 0.6950(12) 0.3988(3)
H29 H 0.5865 0.6425 0.3756
C36 C 0.5282(4) 0.6584(8) 0.4272(3)
H30 H 0.5099 0.5804 0.4235
C37 C 0.4138(3) 0.5750(7) 0.4821(3)
C38 C 0.3886(3) 0.5696(7) 0.4396(3)
H31 H 0.3980 0.6328 0.4195
C39 C 0.3503(4) 0.4744(9) 0.4263(3)
H32 H 0.3349 0.4746 0.3975
C40 C 0.3343(4) 0.3793(8) 0.4544(4)
H33 H 0.3086 0.3150 0.4450
C41 C 0.3573(4) 0.3810(7) 0.4971(3)
H34 H 0.3469 0.3177 0.5170
C42 C 0.3965(3) 0.4792(7) 0.5105(3)
H35 H 0.4113 0.4797 0.5394
C43 C 0.4935(3) 0.6676(7) 0.5421(2)
C44 C 0.5262(3) 0.5560(7) 0.5482(3)
H36 H 0.5249 0.4960 0.5259
C45 C 0.5605(3) 0.5304(8) 0.5861(3)
H37 H 0.5804 0.4537 0.5889
C46 C 0.5652(3) 0.6177(9) 0.6195(3)
H38 H 0.5889 0.6011 0.6445
C47 C 0.5353(3) 0.7277(8) 0.6157(3)
H39 H 0.5375 0.7876 0.6381
C48 C 0.5011(3) 0.7492(7) 0.5777(3)
H40 H 0.4811 0.8261 0.5758
C49 C 0.2946(3) 0.6546(8) 0.8854(3)
C50 C 0.3045(4) 0.7828(9) 0.8897(3)
H41 H 0.3118 0.8171 0.9176
C51 C 0.3033(5) 0.8590(9) 0.8528(3)
H42 H 0.3127 0.9436 0.8554
C52 C 0.2886(4) 0.8110(9) 0.8130(3)
H43 H 0.2868 0.8637 0.7884
C53 C 0.2762(5) 0.6862(10) 0.8078(3)
H44 H 0.2652 0.6546 0.7802
C54 C 0.2803(4) 0.6072(8) 0.8443(3)
H45 H 0.2733 0.5218 0.8410
C55 C 0.2998(3) 0.5709(8) 0.9242(2)
C56 C 0.2834(3) 0.4494(7) 0.9246(2)
H46 H 0.2657 0.4200 0.8985
C57 C 0.2894(3) 0.3553(7) 0.9606(2)
C58 C 0.3348(3) 0.3604(7) 0.9922(3)
H47 H 0.3620 0.4276 0.9927
C59 C 0.3401(3) 0.2665(8) 1.0232(3)
H48 H 0.3710 0.2701 1.0445
C60 C 0.2562(4) 0.1644(7) 0.9927(3)
H49 H 0.2292 0.0970 0.9928
C61 C 0.2492(3) 0.2578(7) 0.9614(3)
H50 H 0.2172 0.2541 0.9410
C62 C 0.3087(4) 0.0664(7) 1.0557(3)
H51 H 0.2946 -0.0120 1.0431
H52 H 0.3519 0.0575 1.0629
C63 C 0.2734(4) 0.0944(7) 1.0967(3)
C64 C 0.3021(4) 0.1497(8) 1.1334(4)
H53 H 0.3439 0.1671 1.1322
C65 C 0.2694(6) 0.1791(9) 1.1714(4)
H54 H 0.2897 0.2136 1.1957
C66 C 0.2087(6) 0.1583(10) 1.1737(4)
H55 H 0.1871 0.1818 1.1990
C67 C 0.1790(4) 0.1038(9) 1.1399(4)
H56 H 0.1371 0.0879 1.1420
C68 C 0.2114(4) 0.0703(7) 1.1007(3)
H57 H 0.1905 0.0317 1.0775
C69 C 0.3212(4) 0.6288(8) 0.9641(3)
N1 N 0.3381(4) 0.6821(8) 0.9944(3)
N2 N 0.3007(3) 0.1691(6) 1.0227(2)
C70 C 0.4749(3) 0.7271(8) 0.2683(3)
H58 H 0.5061 0.7339 0.2893
C71 C 0.3890(4) 0.6213(8) 0.2375(3)
H59 H 0.3614 0.5548 0.2370
C72 C 0.4683(4) 0.8172(8) 0.2365(3)
H60 H 0.4961 0.8833 0.2354
C73 C 0.4302(3) 0.4088(8) 0.3036(3)
C74 C 0.4349(3) 0.6244(7) 0.2693(3)
C75 C 0.3838(4) 0.7156(9) 0.2066(3)
H61 H 0.3529 0.7123 0.1853
C76 C 0.4449(4) 0.3199(8) 0.3407(3)
C77 C 0.4446(3) 0.5298(8) 0.3040(3)
H62 H 0.4633 0.5585 0.3298
C78 C 0.4029(5) 0.3514(9) 0.2661(3)
C79 C 0.4499(4) 0.8921(7) 0.1310(3)
C80 C 0.4241(4) 0.8372(8) 0.0939(4)
H63 H 0.3829 0.8140 0.0944
C81 C 0.4152(4) 0.9160(8) 0.1737(3)
H64 H 0.4294 0.9940 0.1866
H65 H 0.3719 0.9254 0.1670
C82 C 0.4097(4) 0.2151(8) 0.3472(3)
H66 H 0.3760 0.1985 0.3292
C83 C 0.4730(5) 0.1587(10) 0.4090(3)
H67 H 0.4813 0.1050 0.4325
C84 C 0.4256(6) 0.1343(9) 0.3814(3)
H68 H 0.4029 0.0613 0.3855
C85 C 0.4952(4) 0.3425(7) 0.3677(3)
H69 H 0.5199 0.4121 0.3624
C86 C 0.5101(5) 0.9228(8) 0.1291(4)
H70 H 0.5288 0.9588 0.1538
C87 C 0.5089(4) 0.2626(10) 0.4023(3)
H71 H 0.5421 0.2790 0.4209
C88 C 0.5445(5) 0.9016(10) 0.0911(4)
H72 H 0.5858 0.9241 0.0904
C89 C 0.5181(6) 0.8478(10) 0.0548(4)
H73 H 0.5412 0.8330 0.0294
C90 C 0.4583(7) 0.8161(9) 0.0562(4)
H74 H 0.4399 0.7797 0.0315
N3 N 0.3838(5) 0.2985(9) 0.2367(3)
N4 N 0.4231(3) 0.8125(7) 0.2071(2)
loop_
_geom_bond_atom_site_label_1
_geom_bond_atom_site_label_2
_geom_bond_site_symmetry_1
_geom_bond_site_symmetry_2
B1 C1 1_555 1_555
C1 C2 1_555 1_555
C2 H1 1_555 1_555
C3 C2 1_555 1_555
H2 C3 1_555 1_555
C4 C3 1_555 1_555
H3 C4 1_555 1_555
C5 C4 1_555 1_555
H4 C5 1_555 1_555
C6 C1 1_555 1_555
H5 C6 1_555 1_555
C7 B1 1_555 1_555
C8 C7 1_555 1_555
H6 C8 1_555 1_555
C9 C8 1_555 1_555
H7 C9 1_555 1_555
C10 C9 1_555 1_555
H8 C10 1_555 1_555
C11 C10 1_555 1_555
H9 C11 1_555 1_555
C12 C7 1_555 1_555
H10 C12 1_555 1_555
C13 B1 1_555 1_555
C14 C13 1_555 1_555
H11 C14 1_555 1_555
C15 C14 1_555 1_555
H12 C15 1_555 1_555
C16 C15 1_555 1_555
H13 C16 1_555 1_555
C17 C16 1_555 1_555
H14 C17 1_555 1_555
C18 C13 1_555 1_555
H15 C18 1_555 1_555
C19 B1 1_555 1_555
C20 C19 1_555 1_555
H16 C20 1_555 1_555
C21 C20 1_555 1_555
H17 C21 1_555 1_555
C22 C21 1_555 1_555
H18 C22 1_555 1_555
C23 C22 1_555 1_555
H19 C23 1_555 1_555
C24 C19 1_555 1_555
H20 C24 1_555 1_555
B2 C25 1_555 1_555
C25 C26 1_555 1_555
C26 H21 1_555 1_555
C27 C26 1_555 1_555
H22 C27 1_555 1_555
C28 C27 1_555 1_555
H23 C28 1_555 1_555
C29 C28 1_555 1_555
H24 C29 1_555 1_555
C30 C25 1_555 1_555
H25 C30 1_555 1_555
C31 B2 1_555 1_555
C32 C31 1_555 1_555
H26 C32 1_555 1_555
C33 C32 1_555 1_555
H27 C33 1_555 1_555
C34 C33 1_555 1_555
H28 C34 1_555 1_555
C35 C34 1_555 1_555
H29 C35 1_555 1_555
C36 C31 1_555 1_555
H30 C36 1_555 1_555
C37 B2 1_555 1_555
C38 C37 1_555 1_555
H31 C38 1_555 1_555
C39 C38 1_555 1_555
H32 C39 1_555 1_555
C40 C39 1_555 1_555
H33 C40 1_555 1_555
C41 C40 1_555 1_555
H34 C41 1_555 1_555
C42 C37 1_555 1_555
H35 C42 1_555 1_555
C43 B2 1_555 1_555
C44 C43 1_555 1_555
H36 C44 1_555 1_555
C45 C44 1_555 1_555
H37 C45 1_555 1_555
C46 C45 1_555 1_555
H38 C46 1_555 1_555
C47 C46 1_555 1_555
H39 C47 1_555 1_555
C48 C43 1_555 1_555
H40 C48 1_555 1_555
C49 C50 1_555 1_555
C50 H41 1_555 1_555
C51 C50 1_555 1_555
H42 C51 1_555 1_555
C52 C51 1_555 1_555
H43 C52 1_555 1_555
C53 C52 1_555 1_555
H44 C53 1_555 1_555
C54 C49 1_555 1_555
H45 C54 1_555 1_555
C55 C49 1_555 1_555
C56 C55 1_555 1_555
H46 C56 1_555 1_555
C57 C56 1_555 1_555
C58 C57 1_555 1_555
H47 C58 1_555 1_555
C59 C58 1_555 1_555
H48 C59 1_555 1_555
C60 H49 1_555 1_555
C61 C57 1_555 1_555
H50 C61 1_555 1_555
C62 H51 1_555 1_555
H52 C62 1_555 1_555
C63 C62 1_555 1_555
C64 C63 1_555 1_555
H53 C64 1_555 1_555
C65 C64 1_555 1_555
H54 C65 1_555 1_555
C66 C65 1_555 1_555
H55 C66 1_555 1_555
C67 C66 1_555 1_555
H56 C67 1_555 1_555
C68 C63 1_555 1_555
H57 C68 1_555 1_555
C69 C55 1_555 1_555
N1 C69 1_555 1_555
N2 C59 1_555 1_555
C70 H58 1_555 1_555
C71 H59 1_555 1_555
C72 C70 1_555 1_555
H60 C72 1_555 1_555
C73 C76 1_555 1_555
C74 C70 1_555 1_555
C75 C71 1_555 1_555
H61 C75 1_555 1_555
C76 C82 1_555 1_555
C77 C73 1_555 1_555
H62 C77 1_555 1_555
C78 C73 1_555 1_555
C79 C80 1_555 1_555
C80 H63 1_555 1_555
C81 C79 1_555 1_555
H64 C81 1_555 1_555
H65 C81 1_555 1_555
C82 H66 1_555 1_555
C83 H67 1_555 1_555
C84 C82 1_555 1_555
H68 C84 1_555 1_555
C85 C76 1_555 1_555
H69 C85 1_555 1_555
C86 C79 1_555 1_555
H70 C86 1_555 1_555
C87 C83 1_555 1_555
H71 C87 1_555 1_555
C88 C86 1_555 1_555
H72 C88 1_555 1_555
C89 C88 1_555 1_555
H73 C89 1_555 1_555
C90 C80 1_555 1_555
H74 C90 1_555 1_555
N3 C78 1_555 1_555
N4 C72 1_555 1_555
C5 C6 1_555 1_555
C11 C12 1_555 1_555
C17 C18 1_555 1_555
C23 C24 1_555 1_555
C29 C30 1_555 1_555
C35 C36 1_555 1_555
C41 C42 1_555 1_555
C47 C48 1_555 1_555
C53 C54 1_555 1_555
C60 C61 1_555 1_555
C60 N2 1_555 1_555
C62 N2 1_555 1_555
C67 C68 1_555 1_555
C71 C74 1_555 1_555
C74 C77 1_555 1_555
C75 N4 1_555 1_555
C81 N4 1_555 1_555
C83 C84 1_555 1_555
C85 C87 1_555 1_555
C89 C90 1_555 1_555

#END
