
#######################################################################
#
#                 Cambridge Crystallographic Data Centre
#                                CCDC 
#
#######################################################################
#
# If this CIF has been generated from an entry in the Cambridge 
# Structural Database, then it will include bibliographic, chemical, 
# crystal, experimental, refinement or atomic coordinate data resulting 
# from the CCDC's data processing and validation procedures.
#
#######################################################################

data_VAQJIJ
_chemical_formula_moiety         'C21 H17 N2 1+,Cl1 1-'
_chemical_name_systematic        
'1-benzyl-4-(2-cyano-2-phenylvinyl)pyridinium chloride'
_symmetry_cell_setting           monoclinic
_symmetry_space_group_name_H-M   'P 21/c'
_symmetry_Int_Tables_number      14
_space_group_name_Hall           '-P 2ybc'
loop_
_symmetry_equiv_pos_site_id
_symmetry_equiv_pos_as_xyz
1 x,y,z
2 -x,1/2+y,1/2-z
3 -x,-y,-z
4 x,1/2-y,1/2+z
_cell_length_a                   8.346(4)
_cell_length_b                   9.464(5)
_cell_length_c                   22.652(11)
_cell_angle_alpha                90
_cell_angle_beta                 94.934(8)
_cell_angle_gamma                90
_cell_volume                     1782.57
_exptl_crystal_colour            yellow
_exptl_crystal_description       Cubic
_cell_formula_units_Z            4
loop_
_atom_site_label
_atom_site_type_symbol
_atom_site_fract_x
_atom_site_fract_y
_atom_site_fract_z
Cl1 Cl 0.0391(2) 0.28726(14) 0.33990(7)
C1 C 0.6249(6) 0.9845(5) 0.2805(2)
C2 C 1.0258(7) 0.6950(6) 0.4018(2)
C3 C 0.9456(8) 0.9321(6) 0.3747(3)
H1 H 0.9395 1.0273 0.3844
C4 C 0.8027(7) 0.9914(5) 0.2793(3)
H2 H 0.8397 1.0864 0.2890
H3 H 0.8316 0.9691 0.2398
C5 C 0.9560(6) 0.6556(5) 0.3472(2)
H4 H 0.9557 0.5608 0.3364
C6 C 1.0192(9) 0.8419(6) 0.4142(3)
H5 H 1.0663 0.8761 0.4501
C7 C 0.8870(7) 0.7532(5) 0.3084(3)
H6 H 0.8427 0.7239 0.2713
C8 C 1.2810(7) 0.4703(6) 0.5187(2)
C9 C 1.1081(8) 0.5898(6) 0.4369(3)
H7 H 1.0973 0.4988 0.4215
C10 C 1.1997(7) 0.5988(6) 0.4890(3)
C11 C 0.5364(7) 0.9070(6) 0.2371(3)
H8 H 0.5889 0.8622 0.2077
C12 C 1.2766(8) 0.3400(7) 0.4907(3)
H9 H 1.2182 0.3292 0.4541
C13 C 0.3727(8) 0.8955(7) 0.2369(4)
H10 H 0.3146 0.8404 0.2086
C14 C 0.5429(7) 1.0512(7) 0.3226(3)
H11 H 0.6000 1.1037 0.3521
C15 C 1.2272(9) 0.7262(7) 0.5192(3)
C16 C 0.2963(9) 0.9660(9) 0.2788(4)
H12 H 0.1848 0.9617 0.2777
C17 C 0.3784(9) 1.0421(8) 0.3221(3)
H13 H 0.3244 1.0873 0.3510
C18 C 1.3575(12) 0.2274(9) 0.5164(5)
H14 H 1.3562 0.1407 0.4971
C19 C 1.4421(11) 0.2427(9) 0.5719(4)
H15 H 1.4966 0.1661 0.5898
C20 C 1.4443(11) 0.3684(12) 0.5992(4)
H16 H 1.5011 0.3787 0.6361
C21 C 1.3641(8) 0.4817(9) 0.5734(3)
H17 H 1.3659 0.5678 0.5933
N1 N 0.8823(5) 0.8893(4) 0.3228(2)
N2 N 1.2514(10) 0.8264(8) 0.5422(3)
loop_
_geom_bond_atom_site_label_1
_geom_bond_atom_site_label_2
_geom_bond_site_symmetry_1
_geom_bond_site_symmetry_2
C1 C4 1_555 1_555
C2 C5 1_555 1_555
C3 H1 1_555 1_555
C4 H2 1_555 1_555
H3 C4 1_555 1_555
C5 H4 1_555 1_555
C6 C2 1_555 1_555
H5 C6 1_555 1_555
C7 C5 1_555 1_555
H6 C7 1_555 1_555
C8 C10 1_555 1_555
C9 C2 1_555 1_555
H7 C9 1_555 1_555
C10 C9 1_555 1_555
C11 C1 1_555 1_555
H8 C11 1_555 1_555
C12 C8 1_555 1_555
H9 C12 1_555 1_555
C13 C11 1_555 1_555
H10 C13 1_555 1_555
C14 C1 1_555 1_555
H11 C14 1_555 1_555
C15 C10 1_555 1_555
C16 C13 1_555 1_555
H12 C16 1_555 1_555
C17 C14 1_555 1_555
H13 C17 1_555 1_555
C18 C12 1_555 1_555
H14 C18 1_555 1_555
C19 C18 1_555 1_555
H15 C19 1_555 1_555
C20 C19 1_555 1_555
H16 C20 1_555 1_555
C21 C8 1_555 1_555
H17 C21 1_555 1_555
N1 C3 1_555 1_555
N2 C15 1_555 1_555
C3 C6 1_555 1_555
C4 N1 1_555 1_555
C7 N1 1_555 1_555
C16 C17 1_555 1_555
C20 C21 1_555 1_555

#END
