
#######################################################################
#
#                 Cambridge Crystallographic Data Centre
#                                CCDC 
#
#######################################################################
#
# If this CIF has been generated from an entry in the Cambridge 
# Structural Database, then it will include bibliographic, chemical, 
# crystal, experimental, refinement or atomic coordinate data resulting 
# from the CCDC's data processing and validation procedures.
#
#######################################################################

data_VAQKUW
_chemical_formula_moiety         'C26 H26 N2 P4'
_chemical_name_systematic        
1,4-dimethyl-2,3,5,6-tetraphenyl-1,4,2,3,5,6-diazatetraphosphinane
_symmetry_cell_setting           triclinic
_symmetry_space_group_name_H-M   'P -1'
_symmetry_Int_Tables_number      2
_space_group_name_Hall           '-P 1'
loop_
_symmetry_equiv_pos_site_id
_symmetry_equiv_pos_as_xyz
1 x,y,z
2 -x,-y,-z
_cell_length_a                   6.0462(4)
_cell_length_b                   8.7852(6)
_cell_length_c                   11.6553(8)
_cell_angle_alpha                90.589(5)
_cell_angle_beta                 104.564(5)
_cell_angle_gamma                94.020(5)
_cell_volume                     597.478
_exptl_crystal_colour            colorless
_exptl_crystal_description       plate
_cell_formula_units_Z            1
loop_
_atom_site_label
_atom_site_type_symbol
_atom_site_fract_x
_atom_site_fract_y
_atom_site_fract_z
C1 C -0.0315(2) 0.72480(15) -0.06667(12)
H1 H -0.1891 0.7515 -0.0742
H2 H 0.0130 0.6565 -0.0002
H3 H -0.0218 0.6733 -0.1400
C2 C 0.3214(2) 0.75093(14) 0.17155(11)
C3 C 0.2230(3) 0.69624(16) 0.26039(12)
H4 H 0.1110 0.7517 0.2833
C4 C 0.2874(3) 0.56088(16) 0.31592(13)
H5 H 0.2199 0.5247 0.3768
C5 C 0.4486(3) 0.47956(16) 0.28275(14)
H6 H 0.4926 0.3873 0.3208
C6 C 0.5466(3) 0.53209(17) 0.19409(16)
H7 H 0.6568 0.4753 0.1707
C7 C 0.4846(2) 0.66708(16) 0.13949(14)
H8 H 0.5542 0.7031 0.0793
C8 C 0.0208(2) 1.08690(14) 0.28397(11)
C9 C -0.1403(3) 1.16354(18) 0.32409(13)
H9 H -0.2909 1.1672 0.2747
C10 C -0.0830(3) 1.2347(2) 0.43549(14)
H10 H -0.1942 1.2876 0.4614
C11 C 0.1342(3) 1.22913(18) 0.50889(12)
H11 H 0.1725 1.2770 0.5855
C12 C 0.2944(3) 1.15369(18) 0.47013(13)
H12 H 0.4443 1.1496 0.5202
C13 C 0.2390(2) 1.08349(16) 0.35840(12)
H13 H 0.3519 1.0324 0.3325
N1 N 0.12434(18) 0.86496(12) -0.04501(9)
P1 P 0.25577(5) 0.93119(3) 0.09808(3)
P2 P -0.07255(5) 0.98525(3) 0.14070(3)
C1A C 0.0315(2) 1.27520(15) 0.06667(12)
H1A H 0.1891 1.2485 0.0742
H2A H -0.0130 1.3435 0.0002
H3A H 0.0218 1.3267 0.1400
C2A C -0.3214(2) 1.24907(14) -0.17155(11)
C3A C -0.2230(3) 1.30376(16) -0.26039(12)
H4A H -0.1110 1.2483 -0.2833
C4A C -0.2874(3) 1.43912(16) -0.31592(13)
H5A H -0.2199 1.4753 -0.3768
C5A C -0.4486(3) 1.52044(16) -0.28275(14)
H6A H -0.4926 1.6127 -0.3208
C6A C -0.5466(3) 1.46791(17) -0.19409(16)
H7A H -0.6568 1.5247 -0.1707
C7A C -0.4846(2) 1.33292(16) -0.13949(14)
H8A H -0.5542 1.2969 -0.0793
C8A C -0.0208(2) 0.91310(14) -0.28397(11)
C9A C 0.1403(3) 0.83646(18) -0.32409(13)
H9A H 0.2909 0.8328 -0.2747
C10A C 0.0830(3) 0.7653(2) -0.43549(14)
H10A H 0.1942 0.7124 -0.4614
C11A C -0.1342(3) 0.77087(18) -0.50889(12)
H11A H -0.1725 0.7230 -0.5855
C12A C -0.2944(3) 0.84631(18) -0.47013(13)
H12A H -0.4443 0.8504 -0.5202
C13A C -0.2390(2) 0.91651(16) -0.35840(12)
H13A H -0.3519 0.9676 -0.3325
N1A N -0.12434(18) 1.13504(12) 0.04501(9)
P1A P -0.25577(5) 1.06881(3) -0.09808(3)
P2A P 0.07255(5) 1.01475(3) -0.14070(3)
loop_
_geom_bond_atom_site_label_1
_geom_bond_atom_site_label_2
_geom_bond_site_symmetry_1
_geom_bond_site_symmetry_2
C1 H1 1_555 1_555
H2 C1 1_555 1_555
H3 C1 1_555 1_555
C2 C3 1_555 1_555
C3 H4 1_555 1_555
C4 C3 1_555 1_555
H5 C4 1_555 1_555
C5 C4 1_555 1_555
H6 C5 1_555 1_555
C6 C5 1_555 1_555
H7 C6 1_555 1_555
C7 C2 1_555 1_555
H8 C7 1_555 1_555
C8 C9 1_555 1_555
C9 H9 1_555 1_555
C10 C9 1_555 1_555
H10 C10 1_555 1_555
C11 C10 1_555 1_555
H11 C11 1_555 1_555
C12 C11 1_555 1_555
H12 C12 1_555 1_555
C13 C8 1_555 1_555
H13 C13 1_555 1_555
N1 C1 1_555 1_555
P1 C2 1_555 1_555
P2 C8 1_555 1_555
C1A H1A 1_555 1_555
H2A C1A 1_555 1_555
H3A C1A 1_555 1_555
C2A C3A 1_555 1_555
C3A H4A 1_555 1_555
C4A C3A 1_555 1_555
H5A C4A 1_555 1_555
C5A C4A 1_555 1_555
H6A C5A 1_555 1_555
C6A C5A 1_555 1_555
H7A C6A 1_555 1_555
C7A C2A 1_555 1_555
H8A C7A 1_555 1_555
C8A C9A 1_555 1_555
C9A H9A 1_555 1_555
C10A C9A 1_555 1_555
H10A C10A 1_555 1_555
C11A C10A 1_555 1_555
H11A C11A 1_555 1_555
C12A C11A 1_555 1_555
H12A C12A 1_555 1_555
C13A C8A 1_555 1_555
H13A C13A 1_555 1_555
N1A P2 1_555 1_555
P1A C2A 1_555 1_555
P2A N1 1_555 1_555
C6 C7 1_555 1_555
C12 C13 1_555 1_555
N1 P1 1_555 1_555
P1 P2 1_555 1_555
C1A N1A 1_555 1_555
C6A C7A 1_555 1_555
C8A P2A 1_555 1_555
C12A C13A 1_555 1_555
N1A P1A 1_555 1_555
P1A P2A 1_555 1_555

#END
