
#######################################################################
#
#                 Cambridge Crystallographic Data Centre
#                                CCDC 
#
#######################################################################
#
# If this CIF has been generated from an entry in the Cambridge 
# Structural Database, then it will include bibliographic, chemical, 
# crystal, experimental, refinement or atomic coordinate data resulting 
# from the CCDC's data processing and validation procedures.
#
#######################################################################

data_VAQKAC
_chemical_formula_moiety         'C13 H13 Cl2 N1 P2'
_chemical_name_systematic        
'N-(chloro(phenyl)phosphino)-N-methyl-P-phenylphosphonamidous chloride'
_symmetry_cell_setting           orthorhombic
_symmetry_space_group_name_H-M   'P 21 21 21'
_symmetry_Int_Tables_number      19
_space_group_name_Hall           'P 2ac 2ab'
loop_
_symmetry_equiv_pos_site_id
_symmetry_equiv_pos_as_xyz
1 x,y,z
2 1/2+x,1/2-y,-z
3 -x,1/2+y,1/2-z
4 1/2-x,-y,1/2+z
_cell_length_a                   7.11450(10)
_cell_length_b                   13.1751(2)
_cell_length_c                   15.5472(3)
_cell_angle_alpha                90
_cell_angle_beta                 90
_cell_angle_gamma                90
_cell_volume                     1457.31
_exptl_crystal_colour            colorless
_exptl_crystal_description       prism
_cell_formula_units_Z            4
loop_
_atom_site_label
_atom_site_type_symbol
_atom_site_fract_x
_atom_site_fract_y
_atom_site_fract_z
C1 C 0.5415(2) 0.42962(13) 0.11098(11)
C2 C 0.4607(3) 0.40773(14) 0.03146(12)
H1 H 0.4735 0.4542 -0.0149
C3 C 0.3614(3) 0.31779(15) 0.01991(13)
H2 H 0.3090 0.3023 -0.0347
C4 C 0.3385(3) 0.25096(15) 0.08748(14)
H3 H 0.2697 0.1900 0.0792
C5 C 0.4154(3) 0.27238(15) 0.16698(14)
H4 H 0.3982 0.2266 0.2135
C6 C 0.5174(3) 0.36078(14) 0.17873(12)
H5 H 0.5717 0.3749 0.2333
C7 C 0.9773(3) 0.43401(16) 0.11562(12)
H6 H 1.0121 0.4648 0.0605
H7 H 0.8986 0.3742 0.1053
H8 H 1.0913 0.4137 0.1465
C8 C 1.1372(2) 0.50661(13) 0.29497(11)
C9 C 1.0738(3) 0.41203(15) 0.32205(12)
H9 H 0.9551 0.3877 0.3030
C10 C 1.1820(3) 0.35307(15) 0.37649(12)
H10 H 1.1378 0.2883 0.3942
C11 C 1.3546(3) 0.38787(16) 0.40526(12)
H11 H 1.4291 0.3471 0.4424
C12 C 1.4181(3) 0.48283(16) 0.37942(12)
H12 H 1.5359 0.5073 0.3994
C13 C 1.3106(3) 0.54178(15) 0.32474(12)
H13 H 1.3550 0.6066 0.3073
Cl1 Cl 0.69469(7) 0.61033(4) 0.01749(3)
Cl2 Cl 1.18045(7) 0.66051(4) 0.15576(4)
N1 N 0.8718(2) 0.50839(12) 0.16765(10)
P1 P 0.65376(6) 0.54935(3) 0.14019(3)
P2 P 0.98029(7) 0.59031(4) 0.23534(3)
loop_
_geom_bond_atom_site_label_1
_geom_bond_atom_site_label_2
_geom_bond_site_symmetry_1
_geom_bond_site_symmetry_2
C1 C2 1_555 1_555
C2 H1 1_555 1_555
C3 C2 1_555 1_555
H2 C3 1_555 1_555
C4 C3 1_555 1_555
H3 C4 1_555 1_555
C5 C4 1_555 1_555
H4 C5 1_555 1_555
C6 C1 1_555 1_555
H5 C6 1_555 1_555
C7 H6 1_555 1_555
H7 C7 1_555 1_555
H8 C7 1_555 1_555
C8 C9 1_555 1_555
C9 H9 1_555 1_555
C10 C9 1_555 1_555
H10 C10 1_555 1_555
C11 C10 1_555 1_555
H11 C11 1_555 1_555
C12 C11 1_555 1_555
H12 C12 1_555 1_555
C13 C8 1_555 1_555
H13 C13 1_555 1_555
Cl1 P1 1_555 1_555
Cl2 P2 1_555 1_555
N1 C7 1_555 1_555
P1 C1 1_555 1_555
P2 C8 1_555 1_555
C5 C6 1_555 1_555
C12 C13 1_555 1_555
N1 P1 1_555 1_555
N1 P2 1_555 1_555

#END
