
#######################################################################
#
#                 Cambridge Crystallographic Data Centre
#                                CCDC 
#
#######################################################################
#
# If this CIF has been generated from an entry in the Cambridge 
# Structural Database, then it will include bibliographic, chemical, 
# crystal, experimental, refinement or atomic coordinate data resulting 
# from the CCDC's data processing and validation procedures.
#
#######################################################################

data_VAQKIK
_chemical_formula_moiety         'C31 H49 Cl2 N1 P2'
_chemical_name_systematic        
'N-(chloro(2,4,6-tri-isopropylphenyl)phosphino)-N-methyl-P-(2,4,6-tri-isopropylphenyl)phosphonamidous chloride'
_symmetry_cell_setting           triclinic
_symmetry_space_group_name_H-M   'P -1'
_symmetry_Int_Tables_number      2
_space_group_name_Hall           '-P 1'
loop_
_symmetry_equiv_pos_site_id
_symmetry_equiv_pos_as_xyz
1 x,y,z
2 -x,-y,-z
_cell_length_a                   9.3818(2)
_cell_length_b                   13.9448(4)
_cell_length_c                   14.3304(4)
_cell_angle_alpha                101.3141(6)
_cell_angle_beta                 107.9519(6)
_cell_angle_gamma                108.9227(6)
_cell_volume                     1593.18
_exptl_crystal_colour            colorless
_exptl_crystal_description       prism
_cell_formula_units_Z            2
loop_
_atom_site_label
_atom_site_type_symbol
_atom_site_fract_x
_atom_site_fract_y
_atom_site_fract_z
C1 C -0.1742(3) 0.88872(16) 0.71464(15)
C2 C -0.0312(3) 0.87398(17) 0.71584(17)
C3 C -0.0414(3) 0.77038(19) 0.68082(18)
H1 H 0.0555 0.7612 0.6831
C4 C -0.1885(3) 0.68038(18) 0.64280(17)
C5 C -0.3285(3) 0.69667(18) 0.63576(18)
H2 H -0.4310 0.6358 0.6060
C6 C -0.3272(3) 0.79794(17) 0.67013(16)
C7 C 0.1371(3) 0.96739(19) 0.7553(2)
H3 H 0.1190 1.0347 0.7600
C8 C 0.2222(5) 0.9577(3) 0.6805(3)
H4 H 0.2485 0.8950 0.6778
H5 H 0.3239 1.0226 0.7050
H6 H 0.1489 0.9494 0.6110
C9 C 0.2462(3) 0.9782(2) 0.8636(3)
H7 H 0.1933 0.9905 0.9113
H8 H 0.3527 1.0391 0.8875
H9 H 0.2629 0.9122 0.8620
C10 C -0.2038(3) 0.56572(19) 0.60931(19)
H10 H -0.2603 0.5348 0.5319
C11 C -0.4933(3) 0.80031(19) 0.6565(2)
H11 H -0.4767 0.8771 0.6788
C12 C -0.5615(3) 0.7463(3) 0.7263(3)
H12 H -0.5819 0.6702 0.7045
H13 H -0.6647 0.7526 0.7204
H14 H -0.4814 0.7815 0.7986
C13 C -0.6167(3) 0.7472(2) 0.5431(2)
H15 H -0.5682 0.7792 0.4990
H16 H -0.7169 0.7584 0.5359
H17 H -0.6439 0.6701 0.5217
C14 C -0.3272(3) 1.0292(2) 0.6034(2)
H18 H -0.3442 0.9548 0.5738
H19 H -0.3214 1.0659 0.5521
H20 H -0.4191 1.0299 0.6220
C15 C 0.1332(3) 1.25894(17) 0.80984(16)
C16 C 0.2539(3) 1.2758(2) 0.76728(18)
C17 C 0.4166(3) 1.30490(19) 0.83161(19)
H21 H 0.4962 1.3145 0.8023
C18 C 0.4667(3) 1.32047(17) 0.93722(18)
C19 C 0.3484(3) 1.30613(17) 0.97789(16)
H22 H 0.3815 1.3173 1.0502
C20 C 0.1829(3) 1.27606(16) 0.91767(16)
C21 C 0.2179(5) 1.2702(3) 0.6554(2)
H23 H 0.1033 1.2129 0.6208
C22 C 0.6445(3) 1.35032(19) 1.0052(2)
H24 H 0.7126 1.3756 0.9660
C23 C 0.7071(3) 1.4413(2) 1.1064(2)
H25 H 0.6816 1.5007 1.0910
H26 H 0.8264 1.4663 1.1423
H27 H 0.6535 1.4153 1.1509
C24 C 0.6661(3) 1.2513(2) 1.0269(3)
H28 H 0.5917 1.2204 1.0588
H29 H 0.7801 1.2725 1.0743
H30 H 0.6403 1.1980 0.9615
C25 C 0.0704(3) 1.27086(17) 0.97542(16)
H31 H -0.0460 1.2316 0.9232
C26 C 0.0967(3) 1.2121(2) 1.05471(18)
H32 H 0.0944 1.1428 1.0215
H33 H 0.0091 1.2003 1.0804
H34 H 0.2035 1.2557 1.1130
C27 C 0.0968(3) 1.38597(19) 1.0289(2)
H35 H 0.2108 1.4263 1.0799
H36 H 0.0221 1.3837 1.0643
H37 H 0.0744 1.4213 0.9768
Cl1 Cl -0.29963(7) 1.01408(5) 0.85211(5)
Cl2 Cl -0.19294(8) 1.29451(5) 0.78051(5)
N1 N -0.1721(2) 1.08484(15) 0.69723(14)
P1 P -0.12000(6) 1.02839(4) 0.79004(4)
P2 P -0.07388(8) 1.21625(5) 0.71048(4)
C28 C -0.0392(5) 0.5558(4) 0.6434(6)
H38 H -0.0586 0.4801 0.6192
H39 H 0.0301 0.5968 0.6134
H40 H 0.0163 0.5843 0.7193
C29 C -0.3108(7) 0.4978(4) 0.6566(5)
H41 H -0.3211 0.4238 0.6354
H42 H -0.2584 0.5286 0.7326
H43 H -0.4202 0.4982 0.6318
C30 C 0.1866(7) 1.3635(3) 0.6273(4)
H44 H 0.1647 1.3528 0.5538
H45 H 0.0914 1.3670 0.6401
H46 H 0.2836 1.4308 0.6701
C31 C 0.3031(7) 1.2173(4) 0.6004(4)
H47 H 0.2702 1.2186 0.5289
H48 H 0.4226 1.2567 0.6376
H49 H 0.2709 1.1428 0.5995
H50? H -0.3188 0.5137 0.5618
H51? H 0.1131 1.2783 0.6242
C32? C -0.0788(9) 0.5629(6) 0.5602(7)
H52? H -0.0875 0.4893 0.5383
H53? H -0.1027 0.5872 0.4997
H54? H 0.0329 0.6103 0.6115
C33? C -0.1347(11) 0.5335(6) 0.7040(4)
H55? H -0.1457 0.4595 0.6807
H56? H -0.0183 0.5818 0.7440
H57? H -0.1959 0.5385 0.7478
C34? C 0.3642(8) 1.3634(5) 0.6554(6)
H58? H 0.3450 1.3622 0.5839
H59? H 0.3738 1.4321 0.6963
H60? H 0.4662 1.3547 0.6862
C35? C 0.2126(14) 1.1687(5) 0.5872(6)
H61? H 0.1889 1.1709 0.5163
H62? H 0.3191 1.1648 0.6154
H63? H 0.1263 1.1054 0.5864
loop_
_geom_bond_atom_site_label_1
_geom_bond_atom_site_label_2
_geom_bond_site_symmetry_1
_geom_bond_site_symmetry_2
C1 C2 1_555 1_555
C2 C3 1_555 1_555
C3 H1 1_555 1_555
C4 C3 1_555 1_555
C5 C4 1_555 1_555
H2 C5 1_555 1_555
C6 C1 1_555 1_555
C7 C2 1_555 1_555
H3 C7 1_555 1_555
C8 C7 1_555 1_555
H4 C8 1_555 1_555
H5 C8 1_555 1_555
H6 C8 1_555 1_555
C9 C7 1_555 1_555
H7 C9 1_555 1_555
H8 C9 1_555 1_555
H9 C9 1_555 1_555
C10 C4 1_555 1_555
H10 C10 1_555 1_555
C11 C6 1_555 1_555
H11 C11 1_555 1_555
C12 C11 1_555 1_555
H12 C12 1_555 1_555
H13 C12 1_555 1_555
H14 C12 1_555 1_555
C13 C11 1_555 1_555
H15 C13 1_555 1_555
H16 C13 1_555 1_555
H17 C13 1_555 1_555
C14 H18 1_555 1_555
H19 C14 1_555 1_555
H20 C14 1_555 1_555
C15 C16 1_555 1_555
C16 C17 1_555 1_555
C17 H21 1_555 1_555
C18 C17 1_555 1_555
C19 C18 1_555 1_555
H22 C19 1_555 1_555
C20 C15 1_555 1_555
C21 C16 1_555 1_555
H23 C21 1_555 1_555
C22 C18 1_555 1_555
H24 C22 1_555 1_555
C23 C22 1_555 1_555
H25 C23 1_555 1_555
H26 C23 1_555 1_555
H27 C23 1_555 1_555
C24 C22 1_555 1_555
H28 C24 1_555 1_555
H29 C24 1_555 1_555
H30 C24 1_555 1_555
C25 C20 1_555 1_555
H31 C25 1_555 1_555
C26 C25 1_555 1_555
H32 C26 1_555 1_555
H33 C26 1_555 1_555
H34 C26 1_555 1_555
C27 C25 1_555 1_555
H35 C27 1_555 1_555
H36 C27 1_555 1_555
H37 C27 1_555 1_555
Cl1 P1 1_555 1_555
Cl2 P2 1_555 1_555
N1 C14 1_555 1_555
P1 C1 1_555 1_555
P2 C15 1_555 1_555
C28 C10 1_555 1_555
H38 C28 1_555 1_555
H39 C28 1_555 1_555
H40 C28 1_555 1_555
C29 C10 1_555 1_555
H41 C29 1_555 1_555
H42 C29 1_555 1_555
H43 C29 1_555 1_555
C30 C21 1_555 1_555
H44 C30 1_555 1_555
H45 C30 1_555 1_555
H46 C30 1_555 1_555
C31 C21 1_555 1_555
H47 C31 1_555 1_555
H48 C31 1_555 1_555
H49 C31 1_555 1_555
C5 C6 1_555 1_555
C19 C20 1_555 1_555
N1 P1 1_555 1_555
N1 P2 1_555 1_555

#END
