
#######################################################################
#
#                 Cambridge Crystallographic Data Centre
#                                CCDC 
#
#######################################################################
#
# If this CIF has been generated from an entry in the Cambridge 
# Structural Database, then it will include bibliographic, chemical, 
# crystal, experimental, refinement or atomic coordinate data resulting 
# from the CCDC's data processing and validation procedures.
#
#######################################################################

data_VAQKEG
_chemical_formula_moiety         'C18 H21 Cl2 N1 P2'
_chemical_name_systematic        
'N-(chloro(phenyl)phosphino)-N-cyclohexyl-P-phenylphosphonamidous chloride'
_symmetry_cell_setting           orthorhombic
_symmetry_space_group_name_H-M   'P b c a'
_symmetry_Int_Tables_number      61
_space_group_name_Hall           '-P 2ac 2ab'
loop_
_symmetry_equiv_pos_site_id
_symmetry_equiv_pos_as_xyz
1 x,y,z
2 1/2+x,1/2-y,-z
3 -x,1/2+y,1/2-z
4 1/2-x,-y,1/2+z
5 -x,-y,-z
6 1/2-x,1/2+y,z
7 x,1/2-y,1/2+z
8 1/2+x,y,1/2-z
_cell_length_a                   10.8723(2)
_cell_length_b                   14.0822(3)
_cell_length_c                   24.2595(5)
_cell_angle_alpha                90
_cell_angle_beta                 90
_cell_angle_gamma                90
_cell_volume                     3714.27
_exptl_crystal_colour            colorless
_exptl_crystal_description       prism
_cell_formula_units_Z            8
loop_
_atom_site_label
_atom_site_type_symbol
_atom_site_fract_x
_atom_site_fract_y
_atom_site_fract_z
C1 C 0.40044(12) 0.76696(9) 0.36134(6)
C2 C 0.41532(14) 0.76486(10) 0.30433(7)
H1 H 0.3552 0.7935 0.2813
C3 C 0.51695(16) 0.72147(12) 0.28099(8)
H2 H 0.5272 0.7218 0.2421
C4 C 0.60349(14) 0.67778(11) 0.31400(7)
H3 H 0.6722 0.6467 0.2979
C5 C 0.58975(13) 0.67941(11) 0.37053(7)
H4 H 0.6496 0.6498 0.3933
C6 C 0.48921(13) 0.72386(10) 0.39433(7)
H5 H 0.4808 0.7249 0.4333
C7 C 0.38443(10) 0.98401(8) 0.39139(5)
H6 H 0.4432 0.9361 0.4067
C8 C 0.35979(12) 1.05710(9) 0.43638(5)
H7 H 0.3245 1.0250 0.4691
H8 H 0.2991 1.1041 0.4230
C9 C 0.47847(13) 1.10806(10) 0.45268(6)
H9 H 0.4594 1.1580 0.4801
H10 H 0.5353 1.0621 0.4702
C10 C 0.54132(12) 1.15289(9) 0.40310(6)
H11 H 0.4890 1.2045 0.3884
H12 H 0.6206 1.1810 0.4147
C11 C 0.56424(12) 1.07998(10) 0.35820(6)
H13 H 0.6243 1.0324 0.3715
H14 H 0.6001 1.1119 0.3256
C12 C 0.44526(12) 1.02973(10) 0.34154(5)
H15 H 0.3881 1.0762 0.3248
H16 H 0.4637 0.9804 0.3137
C13 C 0.01805(11) 0.94052(8) 0.37119(5)
C14 C -0.08107(12) 0.91486(9) 0.33798(5)
H17 H -0.0740 0.9186 0.2990
C15 C -0.19036(12) 0.88376(10) 0.36173(6)
H18 H -0.2573 0.8659 0.3388
C16 C -0.20233(12) 0.87862(9) 0.41823(6)
H19 H -0.2773 0.8574 0.4342
C17 C -0.10464(12) 0.90443(10) 0.45172(5)
H20 H -0.1126 0.9007 0.4907
C18 C 0.00464(12) 0.93576(9) 0.42854(5)
H21 H 0.0709 0.9541 0.4517
Cl1 Cl 0.27029(3) 0.79913(2) 0.46921(2)
Cl2 Cl 0.15859(3) 0.94916(3) 0.26447(2)
N1 N 0.26895(9) 0.93276(7) 0.37611(4)
P1 P 0.25158(3) 0.81402(2) 0.38376(2)
P2 P 0.15691(3) 0.99878(2) 0.34587(2)
loop_
_geom_bond_atom_site_label_1
_geom_bond_atom_site_label_2
_geom_bond_site_symmetry_1
_geom_bond_site_symmetry_2
C1 C2 1_555 1_555
C2 H1 1_555 1_555
C3 C2 1_555 1_555
H2 C3 1_555 1_555
C4 C3 1_555 1_555
H3 C4 1_555 1_555
C5 C4 1_555 1_555
H4 C5 1_555 1_555
C6 C1 1_555 1_555
H5 C6 1_555 1_555
C7 H6 1_555 1_555
C8 C7 1_555 1_555
H7 C8 1_555 1_555
H8 C8 1_555 1_555
C9 C8 1_555 1_555
H9 C9 1_555 1_555
H10 C9 1_555 1_555
C10 C9 1_555 1_555
H11 C10 1_555 1_555
H12 C10 1_555 1_555
C11 C10 1_555 1_555
H13 C11 1_555 1_555
H14 C11 1_555 1_555
C12 C7 1_555 1_555
H15 C12 1_555 1_555
H16 C12 1_555 1_555
C13 C14 1_555 1_555
C14 H17 1_555 1_555
C15 C14 1_555 1_555
H18 C15 1_555 1_555
C16 C15 1_555 1_555
H19 C16 1_555 1_555
C17 C16 1_555 1_555
H20 C17 1_555 1_555
C18 C13 1_555 1_555
H21 C18 1_555 1_555
Cl1 P1 1_555 1_555
Cl2 P2 1_555 1_555
N1 C7 1_555 1_555
P1 C1 1_555 1_555
P2 C13 1_555 1_555
C5 C6 1_555 1_555
C11 C12 1_555 1_555
C17 C18 1_555 1_555
N1 P1 1_555 1_555
N1 P2 1_555 1_555

#END
