
#######################################################################
#
#                 Cambridge Crystallographic Data Centre
#                                CCDC 
#
#######################################################################
#
# If this CIF has been generated from an entry in the Cambridge 
# Structural Database, then it will include bibliographic, chemical, 
# crystal, experimental, refinement or atomic coordinate data resulting 
# from the CCDC's data processing and validation procedures.
#
#######################################################################

data_VAQMIL
_chemical_formula_moiety         'C21 H23 N3 O4'
_chemical_name_systematic        
1-Hexyl-3-(2-((2-hydroxy-5-nitrophenyl)ethynyl)phenyl)urea
_symmetry_cell_setting           monoclinic
_symmetry_space_group_name_H-M   'P 21/n'
_symmetry_Int_Tables_number      14
_space_group_name_Hall           '-P 2yn'
loop_
_symmetry_equiv_pos_site_id
_symmetry_equiv_pos_as_xyz
1 x,y,z
2 1/2-x,1/2+y,1/2-z
3 -x,-y,-z
4 1/2+x,1/2-y,1/2+z
_cell_length_a                   15.3236(17)
_cell_length_b                   8.2440(8)
_cell_length_c                   15.3372(17)
_cell_angle_alpha                90
_cell_angle_beta                 93.243(4)
_cell_angle_gamma                90
_cell_volume                     1934.41
_cell_formula_units_Z            4
loop_
_atom_site_label
_atom_site_type_symbol
_atom_site_fract_x
_atom_site_fract_y
_atom_site_fract_z
C1 C 0.5098(4) 0.8277(5) 0.6468(3)
C2 C 0.5837(3) 0.8973(5) 0.6182(3)
H1 H 0.6196 0.9592 0.6562
C3 C 0.6058(3) 0.8750(5) 0.5302(3)
C4 C 0.5472(3) 0.7821(6) 0.4784(3)
C5 C 0.4722(4) 0.7147(6) 0.5107(3)
H2 H 0.4345 0.6541 0.4738
C6 C 0.4532(3) 0.7367(6) 0.5958(3)
H3 H 0.4036 0.6912 0.6180
C7 C 0.6837(4) 0.9417(5) 0.4988(3)
C8 C 0.7495(4) 1.0022(5) 0.4821(3)
C9 C 0.8292(3) 1.0777(5) 0.4593(3)
C10 C 0.8500(3) 1.0990(5) 0.3726(3)
C11 C 0.9265(3) 1.1769(5) 0.3533(3)
H4 H 0.9403 1.1901 0.2955
C12 C 0.9826(3) 1.2351(5) 0.4202(3)
H5 H 1.0332 1.2899 0.4069
C13 C 0.9640(3) 1.2124(6) 0.5060(3)
H6 H 1.0023 1.2503 0.5505
C14 C 0.8886(3) 1.1335(5) 0.5257(3)
H7 H 0.8768 1.1167 0.5838
C15 C 0.7748(3) 1.1001(6) 0.2259(3)
C16 C 0.6935(3) 1.0565(5) 0.0845(3)
H8 H 0.6898 1.1739 0.0829
H9 H 0.6352 1.0134 0.0722
C17 C 0.7527(3) 0.9992(5) 0.0150(3)
H10 H 0.7581 0.8820 0.0179
H11 H 0.8104 1.0455 0.0260
C18 C 0.7170(4) 1.0481(6) -0.0761(3)
H12 H 0.6991 1.1609 -0.0753
H13 H 0.6658 0.9831 -0.0921
C19 C 0.7927(5) 1.0229(7) -0.1531(4)
H14 H 0.7787 1.0879 -0.2047
H15 H 0.8512 1.0495 -0.1300
C20 C 0.7845(5) 0.8665(9) -0.1698(4)
H16 H 0.7266 0.8385 -0.1940
H17 H 0.7994 0.7999 -0.1189
C21 C 0.8625(4) 0.8575(8) -0.2464(4)
H18 H 0.8671 0.7482 -0.2672
H19 H 0.9179 0.8914 -0.2202
H20 H 0.8460 0.9278 -0.2944
N1 N 0.4878(3) 0.8475(6) 0.7393(3)
N2 N 0.7919(2) 1.0359(4) 0.3071(2)
H21 H 0.7644 0.9485 0.3193
N3 N 0.7253(2) 1.0053(4) 0.1715(2)
H22 H 0.7117 0.9099 0.1890
O1 O 0.4282(3) 0.7737(5) 0.7669(3)
O2 O 0.5365(3) 0.9360(5) 0.7844(2)
O3 O 0.5601(2) 0.7491(4) 0.3922(2)
H23 H 0.6047 0.7947 0.3779
O4 O 0.80237(18) 1.2348(3) 0.20344(16)
loop_
_geom_bond_atom_site_label_1
_geom_bond_atom_site_label_2
_geom_bond_site_symmetry_1
_geom_bond_site_symmetry_2
C1 C2 1_555 1_555
C2 H1 1_555 1_555
C3 C2 1_555 1_555
C4 C3 1_555 1_555
C5 C4 1_555 1_555
H2 C5 1_555 1_555
C6 C1 1_555 1_555
H3 C6 1_555 1_555
C7 C3 1_555 1_555
C8 C7 1_555 1_555
C9 C8 1_555 1_555
C10 C9 1_555 1_555
C11 C10 1_555 1_555
H4 C11 1_555 1_555
C12 C11 1_555 1_555
H5 C12 1_555 1_555
C13 C12 1_555 1_555
H6 C13 1_555 1_555
C14 C9 1_555 1_555
H7 C14 1_555 1_555
C15 N2 1_555 1_555
C16 H8 1_555 1_555
H9 C16 1_555 1_555
C17 C16 1_555 1_555
H10 C17 1_555 1_555
H11 C17 1_555 1_555
C18 C17 1_555 1_555
H12 C18 1_555 1_555
H13 C18 1_555 1_555
C19 C18 1_555 1_555
H14 C19 1_555 1_555
H15 C19 1_555 1_555
C20 C19 1_555 1_555
H16 C20 1_555 1_555
H17 C20 1_555 1_555
C21 C20 1_555 1_555
H18 C21 1_555 1_555
H19 C21 1_555 1_555
H20 C21 1_555 1_555
N1 C1 1_555 1_555
N2 C10 1_555 1_555
H21 N2 1_555 1_555
N3 C15 1_555 1_555
H22 N3 1_555 1_555
O1 N1 1_555 1_555
O2 N1 1_555 1_555
O3 C4 1_555 1_555
H23 O3 1_555 1_555
O4 C15 1_555 1_555
C5 C6 1_555 1_555
C13 C14 1_555 1_555
C16 N3 1_555 1_555

#END
