
#######################################################################
#
#                 Cambridge Crystallographic Data Centre
#                                CCDC 
#
#######################################################################
#
# If this CIF has been generated from an entry in the Cambridge 
# Structural Database, then it will include bibliographic, chemical, 
# crystal, experimental, refinement or atomic coordinate data resulting 
# from the CCDC's data processing and validation procedures.
#
#######################################################################

data_VAQMOR
_chemical_formula_moiety         'C24 H18 N2 O2'
_chemical_name_systematic        
2-Amino-5-benzoyl-4,5-diphenyl-4,5-dihydrofuran-3-carbonitrile
_symmetry_cell_setting           triclinic
_symmetry_space_group_name_H-M   'P -1'
_symmetry_Int_Tables_number      2
_space_group_name_Hall           '-P 1'
loop_
_symmetry_equiv_pos_site_id
_symmetry_equiv_pos_as_xyz
1 x,y,z
2 -x,-y,-z
_cell_length_a                   6.3160(13)
_cell_length_b                   9.0200(18)
_cell_length_c                   17.421(4)
_cell_angle_alpha                79.64(3)
_cell_angle_beta                 89.69(3)
_cell_angle_gamma                77.97(3)
_cell_volume                     954.328
_cell_formula_units_Z            2
loop_
_atom_site_label
_atom_site_type_symbol
_atom_site_fract_x
_atom_site_fract_y
_atom_site_fract_z
O1 O 0.1366(4) 0.1936(3) 0.28291(15)
N1 N 0.7714(4) 0.3574(3) 0.37859(16)
H1 H 0.8910 0.3104 0.3622
H2 H 0.7686 0.3853 0.4233
C1 C 0.3288(6) 0.1919(4) 0.2832(2)
O2 O 0.6165(3) 0.3375(2) 0.26603(12)
N2 N 0.2410(5) 0.5639(4) 0.46476(18)
C2 C 0.4868(5) 0.0566(4) 0.3251(2)
C3 C 0.6971(6) 0.0099(4) 0.3032(2)
H3 H 0.7495 0.0659 0.2598
C4 C 0.8293(7) -0.1198(5) 0.3457(3)
H4 H 0.9704 -0.1518 0.3305
C5 C 0.7539(8) -0.2014(5) 0.4099(3)
H5 H 0.8442 -0.2884 0.4384
C6 C 0.5463(8) -0.1558(5) 0.4326(3)
H6 H 0.4957 -0.2109 0.4766
C7 C 0.4130(6) -0.0276(5) 0.3896(2)
H7 H 0.2711 0.0024 0.4045
C8 C 0.5919(6) 0.3868(4) 0.33498(19)
C9 C 0.3856(5) 0.4618(4) 0.34325(19)
C10 C 0.2558(5) 0.4779(4) 0.26836(18)
H8 H 0.1138 0.4542 0.2812
C11 C 0.4000(5) 0.3382(4) 0.23857(19)
C12 C 0.3070(5) 0.5189(4) 0.4097(2)
C13 C 0.2236(6) 0.6343(4) 0.21644(19)
C14 C 0.3774(6) 0.7236(4) 0.2135(2)
H9 H 0.5063 0.6858 0.2427
C15 C 0.3407(8) 0.8690(5) 0.1674(3)
H10 H 0.4451 0.9284 0.1658
C16 C 0.1531(9) 0.9254(5) 0.1244(2)
H11 H 0.1308 1.0223 0.0928
C17 C -0.0038(8) 0.8397(5) 0.1276(2)
H12 H -0.1340 0.8789 0.0993
C18 C 0.0342(6) 0.6954(4) 0.1731(2)
H13 H -0.0715 0.6370 0.1746
C19 C 0.4047(5) 0.3336(4) 0.15271(19)
C20 C 0.2133(6) 0.3521(4) 0.1109(2)
H14 H 0.0821 0.3750 0.1352
C21 C 0.2143(7) 0.3372(4) 0.0340(2)
H15 H 0.0839 0.3492 0.0067
C22 C 0.4058(8) 0.3048(5) -0.0027(2)
H16 H 0.4063 0.2967 -0.0552
C23 C 0.5959(8) 0.2846(5) 0.0384(2)
H17 H 0.7265 0.2599 0.0139
C24 C 0.5973(6) 0.3002(5) 0.1154(2)
H18 H 0.7282 0.2883 0.1424
loop_
_geom_bond_atom_site_label_1
_geom_bond_atom_site_label_2
_geom_bond_site_symmetry_1
_geom_bond_site_symmetry_2
O1 C1 1_555 1_555
N1 H1 1_555 1_555
H2 N1 1_555 1_555
C1 C2 1_555 1_555
O2 C8 1_555 1_555
N2 C12 1_555 1_555
C2 C3 1_555 1_555
C3 H3 1_555 1_555
C4 C3 1_555 1_555
H4 C4 1_555 1_555
C5 C4 1_555 1_555
H5 C5 1_555 1_555
C6 C5 1_555 1_555
H6 C6 1_555 1_555
C7 C2 1_555 1_555
H7 C7 1_555 1_555
C8 N1 1_555 1_555
C9 C8 1_555 1_555
C10 C9 1_555 1_555
H8 C10 1_555 1_555
C11 C1 1_555 1_555
C12 C9 1_555 1_555
C13 C10 1_555 1_555
C14 C13 1_555 1_555
H9 C14 1_555 1_555
C15 C14 1_555 1_555
H10 C15 1_555 1_555
C16 C15 1_555 1_555
H11 C16 1_555 1_555
C17 C16 1_555 1_555
H12 C17 1_555 1_555
C18 C13 1_555 1_555
H13 C18 1_555 1_555
C19 C11 1_555 1_555
C20 C19 1_555 1_555
H14 C20 1_555 1_555
C21 C20 1_555 1_555
H15 C21 1_555 1_555
C22 C21 1_555 1_555
H16 C22 1_555 1_555
C23 C22 1_555 1_555
H17 C23 1_555 1_555
C24 C19 1_555 1_555
H18 C24 1_555 1_555
O2 C11 1_555 1_555
C6 C7 1_555 1_555
C10 C11 1_555 1_555
C17 C18 1_555 1_555
C23 C24 1_555 1_555

#END
