
#######################################################################
#
#                 Cambridge Crystallographic Data Centre
#                                CCDC 
#
#######################################################################
#
# If this CIF has been generated from an entry in the Cambridge 
# Structural Database, then it will include bibliographic, chemical, 
# crystal, experimental, refinement or atomic coordinate data resulting 
# from the CCDC's data processing and validation procedures.
#
#######################################################################

data_VAQQOW
_chemical_name_common            
'aspochalazine A tetrahydrofuran solvate dihydrate'
_chemical_formula_moiety         'C24 H36 N2 O5,C4 H8 O1,2(H2 O1)'
_chemical_name_systematic        
'1,4,11-trihydroxy-4,6,7-trimethyl-8-(2-methylpropyl)-1,2,3,4,4a,4b,7,7a,8,9,11,12-dodecahydro-10H,13H-11,13a-epiminobenzo[3,4]cyclohepta[1,2-d]isoindole-10,13-dione tetrahydrofuran solvate dihydrate'
_symmetry_cell_setting           monoclinic
_symmetry_space_group_name_H-M   'P 21'
_symmetry_Int_Tables_number      4
_space_group_name_Hall           'P 2yb'
loop_
_symmetry_equiv_pos_site_id
_symmetry_equiv_pos_as_xyz
1 x,y,z
2 -x,1/2+y,-z
_cell_length_a                   9.2341(12)
_cell_length_b                   11.0137(14)
_cell_length_c                   14.2375(16)
_cell_angle_alpha                90
_cell_angle_beta                 95.668(3)
_cell_angle_gamma                90
_cell_volume                     1440.9
_exptl_crystal_colour            colorless
_exptl_crystal_description       chunk
_cell_formula_units_Z            2
loop_
_atom_site_label
_atom_site_type_symbol
_atom_site_fract_x
_atom_site_fract_y
_atom_site_fract_z
C1 C 0.9008(6) 0.4231(5) 0.7247(4)
H1 H 0.9840 0.4511 0.7673
C2 C 0.7588(6) 0.4464(4) 0.7698(4)
H2 H 0.7158 0.3682 0.7845
C3 C 0.7830(6) 0.5227(5) 0.8616(4)
H3 H 0.6891 0.5228 0.8883
C4 C 0.8119(6) 0.6538(5) 0.8376(4)
C5 C 0.7168(6) 0.7058(5) 0.7756(4)
H4 H 0.7281 0.7862 0.7577
C6 C 0.5884(5) 0.6315(4) 0.7338(3)
H5 H 0.5360 0.6060 0.7871
C7 C 0.4757(6) 0.6913(4) 0.6630(4)
H6 H 0.5268 0.7137 0.6084
C8 C 0.4060(6) 0.8083(4) 0.6963(4)
C9 C 0.2786(6) 0.8446(5) 0.6250(4)
H7 H 0.2305 0.9146 0.6492
H8 H 0.3167 0.8689 0.5667
C10 C 0.1662(6) 0.7443(5) 0.6030(4)
H9 H 0.1249 0.7204 0.6603
H10 H 0.0879 0.7737 0.5583
C11 C 0.2377(6) 0.6388(5) 0.5628(4)
H11 H 0.2751 0.6642 0.5038
C12 C 0.3624(6) 0.5894(5) 0.6279(4)
C13 C 0.5315(6) 0.4306(4) 0.6529(4)
C14 C 0.4201(6) 0.4061(5) 0.7212(4)
H12 H 0.3675 0.3315 0.7053
H13 H 0.4658 0.4003 0.7854
C15 C 0.3213(6) 0.5132(5) 0.7100(4)
C16 C 0.6554(6) 0.5118(4) 0.6939(3)
C17 C 0.7553(6) 0.5454(5) 0.6190(4)
C18 C 0.8916(8) 0.4632(6) 0.9374(4)
H14 H 0.9874 0.4646 0.9167
H15 H 0.8631 0.3806 0.9470
H16 H 0.8918 0.5073 0.9955
C19 C 0.9455(7) 0.7175(6) 0.8805(4)
H17 H 0.9530 0.7955 0.8511
H18 H 1.0299 0.6699 0.8709
H19 H 0.9395 0.7282 0.9469
C20 C 0.3598(7) 0.8038(5) 0.7971(4)
H20 H 0.4430 0.7857 0.8407
H21 H 0.2875 0.7418 0.8008
H22 H 0.3202 0.8810 0.8126
C21 C 0.9258(7) 0.2912(5) 0.6951(4)
H23 H 0.8377 0.2627 0.6591
H24 H 1.0023 0.2910 0.6530
C22 C 0.9664(7) 0.2012(5) 0.7729(5)
H25 H 0.9006 0.2130 0.8221
C23 C 1.1211(7) 0.2191(7) 0.8170(5)
H26 H 1.1879 0.1943 0.7731
H27 H 1.1369 0.1712 0.8734
H28 H 1.1366 0.3033 0.8324
C24 C 0.9454(10) 0.0729(6) 0.7350(6)
H29 H 0.8455 0.0614 0.7110
H30 H 0.9709 0.0158 0.7848
H31 H 1.0066 0.0603 0.6851
N1 N 0.8835(5) 0.5001(4) 0.6416(3)
H32 H 0.9550 0.5149 0.6089
N2 N 0.4404(4) 0.4946(4) 0.5783(3)
H33 H 0.5032 0.5354 0.5490
O1 O 0.5099(4) 0.9058(3) 0.6973(3)
H34 H 0.5732 0.8883 0.6631
O2 O 0.1303(4) 0.5450(3) 0.5416(3)
H35 H 0.1667 0.4890 0.5140
O3 O 0.5911(4) 0.3264(3) 0.6146(3)
H36 H 0.5355 0.2689 0.6183
O4 O 0.2241(4) 0.5350(3) 0.7579(3)
O5 O 0.7201(4) 0.6108(3) 0.5483(3)
C25 C 0.3435(13) 0.4749(10) 1.0027(8)
H37 H 0.2755 0.4714 0.9463
H38 H 0.3516 0.3943 1.0302
C26 C 0.2965(14) 0.5527(14) 1.0639(10)
H39 H 0.2741 0.5096 1.1201
H40 H 0.2081 0.5917 1.0363
C27 C 0.4086(15) 0.6448(13) 1.0892(10)
H41 H 0.3765 0.7249 1.0677
H42 H 0.4351 0.6471 1.1569
C28 C 0.5236(13) 0.6038(11) 1.0414(8)
H43 H 0.5617 0.6702 1.0064
H44 H 0.6012 0.5736 1.0861
O6 O 0.4748(11) 0.5129(10) 0.9806(6)
O7 O 0.7229(4) 0.8688(4) 0.5631(3)
H45 H 0.7510 0.7985 0.5584
H46 H 0.6611 0.9012 0.5254
O8 O 0.5837(5) 0.6343(3) 0.3680(3)
H47 H 0.5769 0.5652 0.3461
H48 H 0.6258 0.6321 0.4216
loop_
_geom_bond_atom_site_label_1
_geom_bond_atom_site_label_2
_geom_bond_site_symmetry_1
_geom_bond_site_symmetry_2
C1 H1 1_555 1_555
C2 C1 1_555 1_555
H2 C2 1_555 1_555
C3 C2 1_555 1_555
H3 C3 1_555 1_555
C4 C3 1_555 1_555
C5 C4 1_555 1_555
H4 C5 1_555 1_555
C6 C5 1_555 1_555
H5 C6 1_555 1_555
C7 C6 1_555 1_555
H6 C7 1_555 1_555
C8 C7 1_555 1_555
C9 C8 1_555 1_555
H7 C9 1_555 1_555
H8 C9 1_555 1_555
C10 C9 1_555 1_555
H9 C10 1_555 1_555
H10 C10 1_555 1_555
C11 C10 1_555 1_555
H11 C11 1_555 1_555
C12 C7 1_555 1_555
C13 C14 1_555 1_555
C14 H12 1_555 1_555
H13 C14 1_555 1_555
C15 C12 1_555 1_555
C16 C2 1_555 1_555
C17 C16 1_555 1_555
C18 C3 1_555 1_555
H14 C18 1_555 1_555
H15 C18 1_555 1_555
H16 C18 1_555 1_555
C19 C4 1_555 1_555
H17 C19 1_555 1_555
H18 C19 1_555 1_555
H19 C19 1_555 1_555
C20 C8 1_555 1_555
H20 C20 1_555 1_555
H21 C20 1_555 1_555
H22 C20 1_555 1_555
C21 C1 1_555 1_555
H23 C21 1_555 1_555
H24 C21 1_555 1_555
C22 C21 1_555 1_555
H25 C22 1_555 1_555
C23 C22 1_555 1_555
H26 C23 1_555 1_555
H27 C23 1_555 1_555
H28 C23 1_555 1_555
C24 C22 1_555 1_555
H29 C24 1_555 1_555
H30 C24 1_555 1_555
H31 C24 1_555 1_555
N1 C1 1_555 1_555
H32 N1 1_555 1_555
N2 C12 1_555 1_555
H33 N2 1_555 1_555
O1 C8 1_555 1_555
H34 O1 1_555 1_555
O2 C11 1_555 1_555
H35 O2 1_555 1_555
O3 C13 1_555 1_555
H36 O3 1_555 1_555
O4 C15 1_555 1_555
O5 C17 1_555 1_555
C25 H37 1_555 1_555
H38 C25 1_555 1_555
C26 C25 1_555 1_555
H39 C26 1_555 1_555
H40 C26 1_555 1_555
C27 C26 1_555 1_555
H41 C27 1_555 1_555
H42 C27 1_555 1_555
C28 C27 1_555 1_555
H43 C28 1_555 1_555
H44 C28 1_555 1_555
O6 C25 1_555 1_555
O7 H45 1_555 1_555
H46 O7 1_555 1_555
O8 H47 1_555 1_555
H48 O8 1_555 1_555
C6 C16 1_555 1_555
C11 C12 1_555 1_555
C13 C16 1_555 1_555
C13 N2 1_555 1_555
C14 C15 1_555 1_555
C17 N1 1_555 1_555
C28 O6 1_555 1_555

#END
