
#######################################################################
#
#                 Cambridge Crystallographic Data Centre
#                                CCDC 
#
#######################################################################
#
# If this CIF has been generated from an entry in the Cambridge 
# Structural Database, then it will include bibliographic, chemical, 
# crystal, experimental, refinement or atomic coordinate data resulting 
# from the CCDC's data processing and validation procedures.
#
#######################################################################

data_VAQWUH
_chemical_formula_moiety         'C4 H5 F3 N4 O2 S1'
_chemical_name_systematic        
3-(Methylsulfonyl)-5-(trifluoromethyl)-4H-1,2,4-triazol-4-amine
_symmetry_cell_setting           monoclinic
_symmetry_space_group_name_H-M   'P 21/n'
_symmetry_Int_Tables_number      14
_space_group_name_Hall           '-P 2yn'
loop_
_symmetry_equiv_pos_site_id
_symmetry_equiv_pos_as_xyz
1 x,y,z
2 1/2-x,1/2+y,1/2-z
3 -x,-y,-z
4 1/2+x,1/2-y,1/2+z
_cell_length_a                   10.0642(13)
_cell_length_b                   5.9384(8)
_cell_length_c                   14.0629(18)
_cell_angle_alpha                90
_cell_angle_beta                 98.7970(10)
_cell_angle_gamma                90
_cell_volume                     830.586
_exptl_crystal_colour            colorless
_exptl_crystal_description       block
_cell_formula_units_Z            4
loop_
_atom_site_label
_atom_site_type_symbol
_atom_site_fract_x
_atom_site_fract_y
_atom_site_fract_z
C1 C 0.0919(2) 0.2787(4) 0.92056(15)
C2 C 0.20187(19) 0.1578(3) 0.88016(13)
C3 C 0.39771(19) 0.0744(3) 0.84977(13)
C4 C 0.6134(2) 0.2858(4) 0.77934(15)
H1 H 0.5878 0.4282 0.8034
H2 H 0.5645 0.2614 0.7160
H3 H 0.7081 0.2862 0.7765
F1 F 0.07481(15) 0.4876(2) 0.88627(11)
F2 F 0.12283(16) 0.2948(3) 1.01628(10)
F3 F -0.02423(14) 0.1695(3) 0.90074(13)
N1 N 0.19132(18) -0.0410(3) 0.84005(13)
N2 N 0.31842(18) -0.0959(3) 0.81996(12)
N3 N 0.32914(16) 0.2401(3) 0.88762(11)
N4 N 0.38512(19) 0.4486(3) 0.91931(15)
H4 H 0.4678 0.4774 0.9153
H5 H 0.3367 0.5474 0.9427
O1 O 0.63221(16) 0.1265(3) 0.95304(11)
O2 O 0.60672(17) -0.1450(3) 0.81822(14)
S1 S 0.57627(5) 0.07018(8) 0.85602(3)
loop_
_geom_bond_atom_site_label_1
_geom_bond_atom_site_label_2
_geom_bond_site_symmetry_1
_geom_bond_site_symmetry_2
C1 C2 1_555 1_555
C2 N1 1_555 1_555
C3 N2 1_555 1_555
C4 H1 1_555 1_555
H2 C4 1_555 1_555
H3 C4 1_555 1_555
F1 C1 1_555 1_555
F2 C1 1_555 1_555
F3 C1 1_555 1_555
N1 N2 1_555 1_555
N3 C2 1_555 1_555
N4 N3 1_555 1_555
H4 N4 1_555 1_555
H5 N4 1_555 1_555
O1 S1 1_555 1_555
O2 S1 1_555 1_555
S1 C3 1_555 1_555
C3 N3 1_555 1_555
C4 S1 1_555 1_555

#END
