
#######################################################################
#
#                 Cambridge Crystallographic Data Centre
#                                CCDC 
#
#######################################################################
#
# If this CIF has been generated from an entry in the Cambridge 
# Structural Database, then it will include bibliographic, chemical, 
# crystal, experimental, refinement or atomic coordinate data resulting 
# from the CCDC's data processing and validation procedures.
#
#######################################################################

data_VARDAU
_chemical_compound_source        'Root of Saussurea lappa'
_chemical_formula_moiety         'C17 H22 O4'
_chemical_name_systematic        Lappalone
_chemical_properties_biological  
'Root source is Chinese folk medicine for alleviating pain in abdominal distension, tenesmus and indigestion with anorexia, nausea and vomiting; no activity against HepG2, HeLa or OVCAR-3-cells'
_symmetry_cell_setting           monoclinic
_symmetry_space_group_name_H-M   'P 21'
_symmetry_Int_Tables_number      4
_space_group_name_Hall           'P 2yb'
loop_
_symmetry_equiv_pos_site_id
_symmetry_equiv_pos_as_xyz
1 x,y,z
2 -x,1/2+y,-z
_cell_length_a                   5.7198(12)
_cell_length_b                   7.8626(16)
_cell_length_c                   17.340(3)
_cell_angle_alpha                90
_cell_angle_beta                 92.715(5)
_cell_angle_gamma                90
_cell_volume                     778.948
_exptl_crystal_colour            colorless
_cell_formula_units_Z            2
_exptl_crystal_recrystallization_method acetone/hexane
loop_
_atom_site_label
_atom_site_type_symbol
_atom_site_fract_x
_atom_site_fract_y
_atom_site_fract_z
O1 O 0.7652(6) 0.1646(4) 0.2182(2)
O2 O 0.8843(7) 0.0525(6) 0.1089(2)
O3 O 1.1559(5) 0.3840(5) 0.15191(19)
H1 H 1.2378 0.3540 0.1168
O4 O 0.4803(6) 0.2879(5) 0.0439(2)
C1 C 0.6192(11) 0.4833(7) 0.3713(3)
H2 H 0.4688 0.5230 0.3893
C2 C 0.7296(13) 0.3745(10) 0.4368(3)
H3 H 0.8963 0.3609 0.4309
H4 H 0.7056 0.4263 0.4866
C3 C 0.6080(17) 0.2086(11) 0.4301(5)
H5 H 0.4902 0.2004 0.4683
H6 H 0.7191 0.1165 0.4387
C4 C 0.4963(12) 0.1964(9) 0.3510(4)
C5 C 0.5593(9) 0.3537(7) 0.3056(3)
H7 H 0.4230 0.3929 0.2741
C6 C 0.7683(8) 0.3333(7) 0.2556(3)
H8 H 0.9127 0.3453 0.2879
C7 C 0.7740(9) 0.4559(6) 0.1885(3)
H9 H 0.6126 0.4668 0.1675
C8 C 0.8568(10) 0.6362(7) 0.2109(3)
H10 H 1.0189 0.6308 0.2299
H11 H 0.8501 0.7071 0.1651
C9 C 0.7148(11) 0.7175(8) 0.2710(4)
H12 H 0.7507 0.8380 0.2731
H13 H 0.5502 0.7058 0.2558
C10 C 0.7550(12) 0.6450(9) 0.3488(4)
C11 C 0.9089(8) 0.3613(7) 0.1281(3)
C12 C 0.8531(9) 0.1756(8) 0.1484(3)
C13 C 0.8668(8) 0.4034(7) 0.0455(3)
H14 H 0.9973 0.3599 0.0177
H15 H 0.8683 0.5263 0.0405
C14 C 0.9094(13) 0.7107(11) 0.3990(4)
H16 H 0.9963 0.8054 0.3856
H17 H 0.9316 0.6626 0.4478
C15 C 0.3557(12) 0.0717(10) 0.3239(4)
H18 H 0.3196 -0.0189 0.3557
H19 H 0.2942 0.0757 0.2734
C16 C 0.6423(9) 0.3377(8) 0.0058(3)
C17 C 0.6276(9) 0.3317(8) -0.0777(3)
H20 H 0.4783 0.2864 -0.0950
H21 H 0.7500 0.2603 -0.0956
H22 H 0.6449 0.4444 -0.0979
loop_
_geom_bond_atom_site_label_1
_geom_bond_atom_site_label_2
_geom_bond_site_symmetry_1
_geom_bond_site_symmetry_2
O1 C6 1_555 1_555
O2 C12 1_555 1_555
O3 H1 1_555 1_555
O4 C16 1_555 1_555
C1 H2 1_555 1_555
C2 C1 1_555 1_555
H3 C2 1_555 1_555
H4 C2 1_555 1_555
C3 C2 1_555 1_555
H5 C3 1_555 1_555
H6 C3 1_555 1_555
C4 C3 1_555 1_555
C5 C1 1_555 1_555
H7 C5 1_555 1_555
C6 C5 1_555 1_555
H8 C6 1_555 1_555
C7 C6 1_555 1_555
H9 C7 1_555 1_555
C8 C7 1_555 1_555
H10 C8 1_555 1_555
H11 C8 1_555 1_555
C9 C8 1_555 1_555
H12 C9 1_555 1_555
H13 C9 1_555 1_555
C10 C1 1_555 1_555
C11 O3 1_555 1_555
C12 O1 1_555 1_555
C13 C11 1_555 1_555
H14 C13 1_555 1_555
H15 C13 1_555 1_555
C14 C10 1_555 1_555
H16 C14 1_555 1_555
H17 C14 1_555 1_555
C15 C4 1_555 1_555
H18 C15 1_555 1_555
H19 C15 1_555 1_555
C16 C13 1_555 1_555
C17 C16 1_555 1_555
H20 C17 1_555 1_555
H21 C17 1_555 1_555
H22 C17 1_555 1_555
C4 C5 1_555 1_555
C7 C11 1_555 1_555
C9 C10 1_555 1_555
C11 C12 1_555 1_555

#END
