
#######################################################################
#
#                 Cambridge Crystallographic Data Centre
#                                CCDC 
#
#######################################################################
#
# If this CIF has been generated from an entry in the Cambridge 
# Structural Database, then it will include bibliographic, chemical, 
# crystal, experimental, refinement or atomic coordinate data resulting 
# from the CCDC's data processing and validation procedures.
#
#######################################################################

data_VARDEY
_chemical_compound_source        'Root of Saussurea lappa'
_chemical_formula_moiety         'C30 H38 O6'
_chemical_name_systematic        Lappadilactone
_chemical_properties_biological  
'Root source is Chinese folk medicine for alleviating pain in abdominal distension, tenesmus and indigestion with anorexia, nausea and vomiting; potential cytotoxic agent'
_symmetry_cell_setting           monoclinic
_symmetry_space_group_name_H-M   'P 21'
_symmetry_Int_Tables_number      4
_space_group_name_Hall           'P 2yb'
loop_
_symmetry_equiv_pos_site_id
_symmetry_equiv_pos_as_xyz
1 x,y,z
2 -x,1/2+y,-z
_cell_length_a                   7.2647(1)
_cell_length_b                   26.0697(4)
_cell_length_c                   13.7687(2)
_cell_angle_alpha                90
_cell_angle_beta                 90.4462(5)
_cell_angle_gamma                90
_cell_volume                     2607.56
_exptl_crystal_colour            colorless
_exptl_crystal_description       plate
_chemical_melting_point          260deg.C(dec.)
_cell_formula_units_Z            4
_exptl_crystal_recrystallization_method 'methanol/ethyl acetate'
loop_
_atom_site_label
_atom_site_type_symbol
_atom_site_fract_x
_atom_site_fract_y
_atom_site_fract_z
O1 O 0.2460(3) 0.70432(7) 0.65497(15)
O2 O 0.1377(3) 0.74059(8) 0.78850(16)
O3 O -0.0919(3) 0.64839(8) 0.70788(15)
H1 H -0.1582 0.6708 0.7304
O4 O 0.3965(4) 0.70876(12) 1.1755(2)
O5 O -0.1078(3) 0.54665(9) 0.99519(17)
O6 O -0.3301(4) 0.48707(11) 1.0010(2)
C1 C 0.5245(5) 0.59145(14) 0.5595(3)
H2 H 0.5791 0.5817 0.6222
C2 C 0.6797(5) 0.59910(16) 0.4867(3)
H3 H 0.7923 0.6091 0.5200
H4 H 0.7024 0.5676 0.4513
C3 C 0.6174(6) 0.64136(16) 0.4174(3)
H5 H 0.7186 0.6644 0.4031
H6 H 0.5722 0.6268 0.3569
C4 C 0.4671(5) 0.66934(13) 0.4683(3)
C5 C 0.4477(4) 0.64697(12) 0.5684(2)
H7 H 0.5328 0.6658 0.6108
C6 C 0.2578(4) 0.65213(11) 0.6125(2)
H8 H 0.1641 0.6484 0.5613
C7 C 0.2127(4) 0.61655(11) 0.6959(2)
H9 H 0.3258 0.6103 0.7332
C8 C 0.1349(5) 0.56506(12) 0.6636(3)
H10 H 0.0350 0.5712 0.6179
H11 H 0.0836 0.5479 0.7197
C9 C 0.2749(5) 0.52929(13) 0.6161(3)
H12 H 0.3628 0.5183 0.6652
H13 H 0.2108 0.4990 0.5928
C10 C 0.3785(5) 0.55246(12) 0.5332(3)
C11 C 0.0826(4) 0.64846(11) 0.7585(2)
C12 C 0.1580(4) 0.70259(11) 0.7395(2)
C13 C 0.0513(4) 0.63497(12) 0.8643(2)
H14 H -0.0384 0.6074 0.8646
H15 H -0.0082 0.6645 0.8933
C14 C 0.3416(7) 0.53765(16) 0.4442(3)
H16 H 0.2517 0.5129 0.4328
H17 H 0.4054 0.5519 0.3924
C15 C 0.3651(6) 0.70614(15) 0.4302(3)
H18 H 0.3842 0.7166 0.3665
H19 H 0.2739 0.7217 0.4671
C16 C 0.3308(5) 0.68352(15) 1.1099(3)
C17 C 0.3315(5) 0.70226(14) 1.0065(3)
H20 H 0.4268 0.7280 0.9989
H21 H 0.2140 0.7181 0.9913
C18 C 0.3658(4) 0.65816(13) 0.9362(2)
H22 H 0.4798 0.6411 0.9542
H23 H 0.3802 0.6718 0.8712
C19 C 0.2083(4) 0.61863(12) 0.9357(2)
C20 C 0.1198(4) 0.61641(12) 1.0393(2)
H24 H 0.0223 0.6424 1.0392
C21 C 0.0276(4) 0.56638(12) 1.0665(2)
H25 H 0.1236 0.5404 1.0753
C22 C -0.0816(4) 0.56992(13) 1.1606(3)
H26 H -0.1686 0.5985 1.1541
C23 C 0.0416(5) 0.58095(15) 1.2461(3)
H27 H 0.1297 0.5534 1.2552
H28 H -0.0304 0.5843 1.3048
C24 C 0.1409(5) 0.63104(15) 1.2243(2)
H29 H 0.2257 0.6385 1.2772
H30 H 0.0512 0.6586 1.2216
C25 C 0.2500(4) 0.63024(13) 1.1272(2)
C26 C -0.1899(5) 0.52026(15) 1.1510(3)
C27 C -0.2231(5) 0.51447(14) 1.0450(3)
C28 C -0.2383(6) 0.48616(19) 1.2171(4)
H31 H -0.2974 0.4561 1.1983
H32 H -0.2132 0.4923 1.2824
C29 C 0.4177(5) 0.59394(16) 1.1401(3)
H33 H 0.4900 0.6049 1.1950
H34 H 0.4918 0.5950 1.0827
H35 H 0.3752 0.5595 1.1507
C30 C 0.2847(5) 0.56514(12) 0.9068(3)
H36 H 0.3383 0.5671 0.8434
H37 H 0.1862 0.5406 0.9061
H38 H 0.3768 0.5547 0.9531
O7 O 0.7452(3) 0.75672(7) 0.89861(16)
O8 O 0.6356(3) 0.72090(8) 0.76350(16)
O9 O 0.4068(3) 0.81298(8) 0.84596(15)
H39 H 0.3400 0.7905 0.8234
O10 O 0.8974(4) 0.75035(11) 0.3877(2)
O11 O 0.3809(3) 0.91323(8) 0.54981(17)
O12 O 0.1514(3) 0.97019(10) 0.5347(2)
C31 C 1.0253(5) 0.86891(14) 0.9982(3)
H40 H 1.0788 0.8795 0.9363
C32 C 1.1830(5) 0.86091(17) 1.0727(3)
H41 H 1.2954 0.8513 1.0398
H42 H 1.2055 0.8923 1.1088
C33 C 1.1226(6) 0.81811(16) 1.1412(3)
H43 H 1.2242 0.7950 1.1552
H44 H 1.0781 0.8322 1.2019
C34 C 0.9701(5) 0.79037(14) 1.0877(3)
C35 C 0.9496(4) 0.81283(13) 0.9870(2)
H45 H 1.0345 0.7943 0.9446
C36 C 0.7587(4) 0.80837(11) 0.9423(2)
H46 H 0.6662 0.8118 0.9933
C37 C 0.7111(4) 0.84451(11) 0.8588(2)
H47 H 0.8234 0.8509 0.8218
C38 C 0.6344(5) 0.89586(12) 0.8915(3)
H48 H 0.5336 0.8897 0.9358
H49 H 0.5845 0.9136 0.8352
C39 C 0.7744(5) 0.93072(13) 0.9414(3)
H50 H 0.8628 0.9419 0.8934
H51 H 0.7107 0.9610 0.9645
C40 C 0.8789(5) 0.90728(13) 1.0260(3)
C41 C 0.5806(4) 0.81276(12) 0.7958(2)
C42 C 0.6558(4) 0.75901(12) 0.8131(2)
C43 C 0.5457(4) 0.82691(12) 0.6888(2)
H52 H 0.4561 0.8545 0.6886
H53 H 0.4858 0.7975 0.6590
C44 C 0.8436(7) 0.92070(16) 1.1184(3)
H54 H 0.9110 0.9061 1.1690
H55 H 0.7519 0.9445 1.1315
C45 C 0.8698(6) 0.75374(15) 1.1257(3)
H56 H 0.8908 0.7434 1.1895
H57 H 0.7777 0.7381 1.0889
C46 C 0.8305(4) 0.77584(13) 0.4517(3)
C47 C 0.8311(5) 0.75918(13) 0.5548(3)
H58 H 0.9276 0.7340 0.5650
H59 H 0.7142 0.7431 0.5698
C48 C 0.8625(4) 0.80451(13) 0.6221(2)
H60 H 0.9756 0.8217 0.6041
H61 H 0.8775 0.7921 0.6881
C49 C 0.7025(4) 0.84354(12) 0.6189(2)
C50 C 0.6143(4) 0.84376(12) 0.5143(2)
H62 H 0.5178 0.8175 0.5151
C51 C 0.5210(4) 0.89273(12) 0.4833(2)
H63 H 0.6159 0.9190 0.4746
C52 C 0.4149(4) 0.88734(12) 0.3885(2)
H64 H 0.3313 0.8581 0.3959
C53 C 0.5406(4) 0.87498(13) 0.3058(2)
H65 H 0.6278 0.9027 0.2962
H66 H 0.4700 0.8704 0.2464
C54 C 0.6420(5) 0.82551(13) 0.3321(2)
H67 H 0.7290 0.8176 0.2812
H68 H 0.5537 0.7976 0.3349
C55 C 0.7464(4) 0.82850(12) 0.4301(2)
C56 C 0.2999(4) 0.93493(13) 0.3929(3)
C57 C 0.2637(5) 0.94356(13) 0.4968(3)
C58 C 0.2463(5) 0.96688(16) 0.3242(3)
H69 H 0.1824 0.9965 0.3403
H70 H 0.2724 0.9598 0.2595
C59 C 0.9133(4) 0.86557(14) 0.4175(3)
H71 H 0.9882 0.8539 0.3648
H72 H 0.9854 0.8661 0.4763
H73 H 0.8691 0.8995 0.4038
C60 C 0.7753(5) 0.89735(12) 0.6452(2)
H74 H 0.8286 0.8966 0.7092
H75 H 0.6754 0.9215 0.6436
H76 H 0.8670 0.9075 0.5992
loop_
_geom_bond_atom_site_label_1
_geom_bond_atom_site_label_2
_geom_bond_site_symmetry_1
_geom_bond_site_symmetry_2
O1 C6 1_555 1_555
O2 C12 1_555 1_555
O3 H1 1_555 1_555
O4 C16 1_555 1_555
O5 C21 1_555 1_555
O6 C27 1_555 1_555
C1 H2 1_555 1_555
C2 C1 1_555 1_555
H3 C2 1_555 1_555
H4 C2 1_555 1_555
C3 C2 1_555 1_555
H5 C3 1_555 1_555
H6 C3 1_555 1_555
C4 C3 1_555 1_555
C5 C1 1_555 1_555
H7 C5 1_555 1_555
C6 C5 1_555 1_555
H8 C6 1_555 1_555
C7 C6 1_555 1_555
H9 C7 1_555 1_555
C8 C7 1_555 1_555
H10 C8 1_555 1_555
H11 C8 1_555 1_555
C9 C8 1_555 1_555
H12 C9 1_555 1_555
H13 C9 1_555 1_555
C10 C1 1_555 1_555
C11 O3 1_555 1_555
C12 O1 1_555 1_555
C13 C11 1_555 1_555
H14 C13 1_555 1_555
H15 C13 1_555 1_555
C14 C10 1_555 1_555
H16 C14 1_555 1_555
H17 C14 1_555 1_555
C15 C4 1_555 1_555
H18 C15 1_555 1_555
H19 C15 1_555 1_555
C16 C17 1_555 1_555
C17 H20 1_555 1_555
H21 C17 1_555 1_555
C18 C17 1_555 1_555
H22 C18 1_555 1_555
H23 C18 1_555 1_555
C19 C13 1_555 1_555
C20 C19 1_555 1_555
H24 C20 1_555 1_555
C21 C20 1_555 1_555
H25 C21 1_555 1_555
C22 C21 1_555 1_555
H26 C22 1_555 1_555
C23 C22 1_555 1_555
H27 C23 1_555 1_555
H28 C23 1_555 1_555
C24 C23 1_555 1_555
H29 C24 1_555 1_555
H30 C24 1_555 1_555
C25 C16 1_555 1_555
C26 C22 1_555 1_555
C27 O5 1_555 1_555
C28 C26 1_555 1_555
H31 C28 1_555 1_555
H32 C28 1_555 1_555
C29 C25 1_555 1_555
H33 C29 1_555 1_555
H34 C29 1_555 1_555
H35 C29 1_555 1_555
C30 C19 1_555 1_555
H36 C30 1_555 1_555
H37 C30 1_555 1_555
H38 C30 1_555 1_555
O7 C36 1_555 1_555
O8 C42 1_555 1_555
O9 H39 1_555 1_555
O10 C46 1_555 1_555
O11 C51 1_555 1_555
O12 C57 1_555 1_555
C31 H40 1_555 1_555
C32 C31 1_555 1_555
H41 C32 1_555 1_555
H42 C32 1_555 1_555
C33 C32 1_555 1_555
H43 C33 1_555 1_555
H44 C33 1_555 1_555
C34 C33 1_555 1_555
C35 C31 1_555 1_555
H45 C35 1_555 1_555
C36 C35 1_555 1_555
H46 C36 1_555 1_555
C37 C36 1_555 1_555
H47 C37 1_555 1_555
C38 C37 1_555 1_555
H48 C38 1_555 1_555
H49 C38 1_555 1_555
C39 C38 1_555 1_555
H50 C39 1_555 1_555
H51 C39 1_555 1_555
C40 C31 1_555 1_555
C41 O9 1_555 1_555
C42 O7 1_555 1_555
C43 C41 1_555 1_555
H52 C43 1_555 1_555
H53 C43 1_555 1_555
C44 C40 1_555 1_555
H54 C44 1_555 1_555
H55 C44 1_555 1_555
C45 C34 1_555 1_555
H56 C45 1_555 1_555
H57 C45 1_555 1_555
C46 C47 1_555 1_555
C47 H58 1_555 1_555
H59 C47 1_555 1_555
C48 C47 1_555 1_555
H60 C48 1_555 1_555
H61 C48 1_555 1_555
C49 C43 1_555 1_555
C50 C49 1_555 1_555
H62 C50 1_555 1_555
C51 C50 1_555 1_555
H63 C51 1_555 1_555
C52 C51 1_555 1_555
H64 C52 1_555 1_555
C53 C52 1_555 1_555
H65 C53 1_555 1_555
H66 C53 1_555 1_555
C54 C53 1_555 1_555
H67 C54 1_555 1_555
H68 C54 1_555 1_555
C55 C46 1_555 1_555
C56 C52 1_555 1_555
C57 O11 1_555 1_555
C58 C56 1_555 1_555
H69 C58 1_555 1_555
H70 C58 1_555 1_555
C59 C55 1_555 1_555
H71 C59 1_555 1_555
H72 C59 1_555 1_555
H73 C59 1_555 1_555
C60 C49 1_555 1_555
H74 C60 1_555 1_555
H75 C60 1_555 1_555
H76 C60 1_555 1_555
C4 C5 1_555 1_555
C7 C11 1_555 1_555
C9 C10 1_555 1_555
C11 C12 1_555 1_555
C18 C19 1_555 1_555
C20 C25 1_555 1_555
C24 C25 1_555 1_555
C26 C27 1_555 1_555
C34 C35 1_555 1_555
C37 C41 1_555 1_555
C39 C40 1_555 1_555
C41 C42 1_555 1_555
C48 C49 1_555 1_555
C50 C55 1_555 1_555
C54 C55 1_555 1_555
C56 C57 1_555 1_555

#END
