
#######################################################################
#
#                 Cambridge Crystallographic Data Centre
#                                CCDC 
#
#######################################################################
#
# If this CIF has been generated from an entry in the Cambridge 
# Structural Database, then it will include bibliographic, chemical, 
# crystal, experimental, refinement or atomic coordinate data resulting 
# from the CCDC's data processing and validation procedures.
#
#######################################################################

data_VARFUR
_chemical_compound_source        'stems of Euphorbia neriifolia Linn'
_chemical_name_common            
'ent-3,4-seco-4,16beta,17-trihydroxykauran-3-oic acid methanol solvate'
_chemical_formula_moiety         'C20 H34 O5,2(C1 H4 O1)'
_chemical_name_systematic        
'3-(10-Hydroxy-10-(hydroxymethyl)-4-(2-hydroxypropan-2-yl)-5-methyltricyclo[7.2.1.0^1,6^]dodec-5-yl)propanoic acid methanol solvate'
_symmetry_cell_setting           orthorhombic
_symmetry_space_group_name_H-M   'P 21 21 21'
_symmetry_Int_Tables_number      19
_space_group_name_Hall           'P 2ac 2ab'
loop_
_symmetry_equiv_pos_site_id
_symmetry_equiv_pos_as_xyz
1 x,y,z
2 1/2-x,-y,1/2+z
3 -x,1/2+y,1/2-z
4 1/2+x,1/2-y,-z
_cell_length_a                   7.259(3)
_cell_length_b                   17.118(7)
_cell_length_c                   18.863(8)
_cell_angle_alpha                90
_cell_angle_beta                 90
_cell_angle_gamma                90
_cell_volume                     2343.91
_exptl_crystal_colour            colorless
_exptl_crystal_description       block
_cell_formula_units_Z            4
loop_
_atom_site_label
_atom_site_type_symbol
_atom_site_fract_x
_atom_site_fract_y
_atom_site_fract_z
O1 O -0.4659(3) 0.88457(14) 0.34698(12)
O2 O -0.2381(3) 0.92467(14) 0.41540(11)
H1 H -0.3235 0.9361 0.4419
O3 O 0.0035(2) 1.03646(10) 0.00461(10)
H2 H -0.0694 1.0353 -0.0286
O4 O 0.1964(3) 0.99191(13) -0.11988(9)
H3 H 0.1305 1.0308 -0.1195
O5 O -0.1163(3) 0.67676(11) 0.30083(10)
H4 H -0.1008 0.6697 0.3434
C1 C -0.2316(4) 0.82298(15) 0.24453(13)
H5 H -0.3184 0.8582 0.2221
H6 H -0.3001 0.7772 0.2595
C2 C -0.1566(4) 0.86298(16) 0.31031(15)
H7 H -0.0799 0.8264 0.3362
H8 H -0.0796 0.9065 0.2960
C3 C -0.3035(4) 0.89203(15) 0.35792(14)
C4 C 0.0614(4) 0.68023(15) 0.26551(14)
C5 C 0.0829(3) 0.75806(14) 0.22183(12)
H9 H 0.1281 0.7965 0.2562
C6 C 0.2400(3) 0.74869(15) 0.16854(14)
H10 H 0.3440 0.7237 0.1915
H11 H 0.2001 0.7153 0.1299
C7 C 0.2987(3) 0.82644(15) 0.13954(14)
H12 H 0.4025 0.8189 0.1079
H13 H 0.3392 0.8594 0.1784
C8 C 0.1452(3) 0.86754(14) 0.09967(12)
C9 C -0.0286(3) 0.87227(13) 0.14717(12)
H14 H 0.0058 0.9090 0.1848
C10 C -0.0899(3) 0.79686(13) 0.18787(13)
C11 C -0.1835(3) 0.91524(15) 0.10570(13)
H15 H -0.3009 0.9014 0.1268
H16 H -0.1669 0.9710 0.1120
C12 C -0.1934(4) 0.89826(17) 0.02631(14)
H17 H -0.2560 0.8488 0.0193
H18 H -0.2668 0.9385 0.0037
C13 C -0.0058(4) 0.89470(15) -0.00984(14)
H19 H -0.0179 0.8842 -0.0607
C14 C 0.1041(4) 0.83093(15) 0.02720(13)
H20 H 0.2168 0.8192 0.0017
H21 H 0.0321 0.7835 0.0321
C15 C 0.2029(4) 0.95096(14) 0.07706(12)
H22 H 0.1603 0.9889 0.1115
H23 H 0.3360 0.9546 0.0737
C16 C 0.1138(3) 0.96666(14) 0.00395(13)
C17 C 0.2635(4) 0.97755(17) -0.05061(14)
H24 H 0.3408 1.0210 -0.0363
H25 H 0.3398 0.9310 -0.0515
C18 C 0.2029(5) 0.68063(17) 0.32468(15)
H26 H 0.1912 0.6337 0.3521
H27 H 0.1827 0.7251 0.3546
H28 H 0.3243 0.6833 0.3047
C19 C 0.0798(5) 0.60582(16) 0.22143(17)
H29 H 0.0639 0.5611 0.2515
H30 H 0.1997 0.6042 0.2000
H31 H -0.0128 0.6055 0.1851
C20 C -0.1942(4) 0.73961(15) 0.13886(14)
H32 H -0.2993 0.7655 0.1187
H33 H -0.2344 0.6952 0.1659
H34 H -0.1138 0.7226 0.1015
C21 C 0.0493(5) 0.9660(2) 0.72030(18)
H35 H -0.0593 0.9913 0.7381
H36 H 0.0258 0.9463 0.6735
H37 H 0.1488 1.0030 0.7185
O6 O 0.0961(4) 0.90547(14) 0.76425(13)
H41 H 0.1448 0.9228 0.8002
C22 C 0.6731(8) 0.7005(3) 0.4667(3)
H38 H 0.5660 0.6683 0.4726
H39 H 0.6464 0.7415 0.4336
H40 H 0.7066 0.7229 0.5116
O7 O 0.8152(5) 0.65637(16) 0.44183(13)
H42 H 0.8289 0.6647 0.3993
loop_
_geom_bond_atom_site_label_1
_geom_bond_atom_site_label_2
_geom_bond_site_symmetry_1
_geom_bond_site_symmetry_2
O1 C3 1_555 1_555
O2 H1 1_555 1_555
O3 H2 1_555 1_555
O4 H3 1_555 1_555
O5 H4 1_555 1_555
C1 H5 1_555 1_555
H6 C1 1_555 1_555
C2 C1 1_555 1_555
H7 C2 1_555 1_555
H8 C2 1_555 1_555
C3 O2 1_555 1_555
C4 O5 1_555 1_555
C5 C4 1_555 1_555
H9 C5 1_555 1_555
C6 C5 1_555 1_555
H10 C6 1_555 1_555
H11 C6 1_555 1_555
C7 C6 1_555 1_555
H12 C7 1_555 1_555
H13 C7 1_555 1_555
C8 C7 1_555 1_555
C9 C8 1_555 1_555
H14 C9 1_555 1_555
C10 C1 1_555 1_555
C11 C9 1_555 1_555
H15 C11 1_555 1_555
H16 C11 1_555 1_555
C12 C11 1_555 1_555
H17 C12 1_555 1_555
H18 C12 1_555 1_555
C13 C12 1_555 1_555
H19 C13 1_555 1_555
C14 C8 1_555 1_555
H20 C14 1_555 1_555
H21 C14 1_555 1_555
C15 C8 1_555 1_555
H22 C15 1_555 1_555
H23 C15 1_555 1_555
C16 O3 1_555 1_555
C17 O4 1_555 1_555
H24 C17 1_555 1_555
H25 C17 1_555 1_555
C18 C4 1_555 1_555
H26 C18 1_555 1_555
H27 C18 1_555 1_555
H28 C18 1_555 1_555
C19 C4 1_555 1_555
H29 C19 1_555 1_555
H30 C19 1_555 1_555
H31 C19 1_555 1_555
C20 C10 1_555 1_555
H32 C20 1_555 1_555
H33 C20 1_555 1_555
H34 C20 1_555 1_555
C21 H35 1_555 1_555
H36 C21 1_555 1_555
H37 C21 1_555 1_555
C22 H38 1_555 1_555
H39 C22 1_555 1_555
H40 C22 1_555 1_555
O6 C21 1_555 1_555
H41 O6 1_555 1_555
O7 C22 1_555 1_555
H42 O7 1_555 1_555
C2 C3 1_555 1_555
C5 C10 1_555 1_555
C9 C10 1_555 1_555
C13 C14 1_555 1_555
C13 C16 1_555 1_555
C15 C16 1_555 1_555
C16 C17 1_555 1_555

#END
