
#######################################################################
#
#                 Cambridge Crystallographic Data Centre
#                                CCDC 
#
#######################################################################
#
# If this CIF has been generated from an entry in the Cambridge 
# Structural Database, then it will include bibliographic, chemical, 
# crystal, experimental, refinement or atomic coordinate data resulting 
# from the CCDC's data processing and validation procedures.
#
#######################################################################

data_VARGAY
_chemical_compound_source        'stems of Euphorbia neriifolia Linn'
_chemical_name_common            
'13beta,19-dihydroxy-3,15-dioxoatis-16-ene chloroform solvate'
_chemical_formula_moiety         'C20 H28 O4,C1 H1 Cl3'
_chemical_name_systematic        
'12-hydroxy-8-(hydroxymethyl)-4b,8-dimethyl-2-methylenedecahydro-1H-3,10a-ethanophenanthrene-1,7(2H)-dione chloroform solvate'
_symmetry_cell_setting           monoclinic
_symmetry_space_group_name_H-M   'P 21'
_symmetry_Int_Tables_number      4
_space_group_name_Hall           'P 2yb'
loop_
_symmetry_equiv_pos_site_id
_symmetry_equiv_pos_as_xyz
1 x,y,z
2 -x,1/2+y,-z
_cell_length_a                   10.64(2)
_cell_length_b                   8.012(17)
_cell_length_c                   13.12(3)
_cell_angle_alpha                90
_cell_angle_beta                 93.98(3)
_cell_angle_gamma                90
_cell_volume                     1115.75
_exptl_crystal_colour            colorless
_exptl_crystal_description       prism
_cell_formula_units_Z            2
_exptl_crystal_recrystallization_method methanol
loop_
_atom_site_label
_atom_site_type_symbol
_atom_site_fract_x
_atom_site_fract_y
_atom_site_fract_z
O1 O 1.1785(6) 0.7717(9) -0.0037(4)
H1 H 1.1372 0.8285 -0.0458
O2 O 1.0698(3) 1.0317(5) 0.3286(3)
O3 O 0.5600(4) 0.3590(6) 0.3960(4)
O4 O 0.6172(3) 0.6107(5) 0.5839(2)
H2 H 0.5590 0.6725 0.5969
C1 C 0.8625(5) 0.4048(6) 0.3260(4)
H3 H 0.8199 0.3744 0.2609
H4 H 0.9427 0.3469 0.3321
C2 C 0.7827(5) 0.3484(7) 0.4123(4)
H5 H 0.7698 0.2286 0.4084
H6 H 0.8264 0.3737 0.4778
C3 C 0.6561(5) 0.4368(7) 0.4038(3)
C4 C 0.6588(4) 0.6274(7) 0.4017(3)
C5 C 0.7575(4) 0.6873(6) 0.3246(3)
H7 H 0.7175 0.6607 0.2570
C6 C 0.7749(4) 0.8777(6) 0.3227(3)
H8 H 0.6935 0.9320 0.3237
H9 H 0.8263 0.9128 0.3828
C7 C 0.8386(4) 0.9291(6) 0.2260(3)
H10 H 0.7808 0.9081 0.1670
H11 H 0.8550 1.0482 0.2288
C8 C 0.9618(3) 0.8379(5) 0.2119(3)
C9 C 0.9482(3) 0.6452(5) 0.2273(3)
H12 H 0.8900 0.6066 0.1711
C10 C 0.8865(3) 0.5948(5) 0.3277(3)
C11 C 1.0770(4) 0.5581(6) 0.2113(4)
H13 H 1.1069 0.5022 0.2739
H14 H 1.0647 0.4742 0.1582
C12 C 1.1767(4) 0.6833(6) 0.1811(3)
H15 H 1.2557 0.6260 0.1691
C13 C 1.1252(4) 0.7752(7) 0.0840(3)
C14 C 1.0047(4) 0.8656(7) 0.1022(3)
H16 H 0.9388 0.8274 0.0530
H17 H 1.0166 0.9842 0.0913
C15 C 1.0729(4) 0.9068(6) 0.2789(3)
C16 C 1.1970(4) 0.8100(6) 0.2676(3)
C17 C 1.2944(3) 0.9221(5) 0.2460(3)
H18 H 1.3351 0.9110 0.1859
H19 H 1.3177 1.0069 0.2919
C18 C 0.5269(4) 0.6945(10) 0.3663(4)
H20 H 0.4668 0.6577 0.4127
H21 H 0.5031 0.6534 0.2990
H22 H 0.5288 0.8143 0.3651
C19 C 0.6924(4) 0.6905(7) 0.5124(3)
H23 H 0.7807 0.6685 0.5309
H24 H 0.6794 0.8102 0.5150
C20 C 0.9750(4) 0.6382(6) 0.4235(3)
H25 H 1.0524 0.5772 0.4212
H26 H 0.9347 0.6083 0.4842
H27 H 0.9925 0.7557 0.4243
C21 C 0.5968(5) 0.6255(8) 0.9240(4)
H28 H 0.6328 0.5159 0.9101
Cl1 Cl 0.46655(16) 0.6560(4) 0.83953(14)
Cl2 Cl 0.5552(3) 0.6273(5) 1.04949(14)
Cl3 Cl 0.7115(3) 0.7762(4) 0.9084(3)
loop_
_geom_bond_atom_site_label_1
_geom_bond_atom_site_label_2
_geom_bond_site_symmetry_1
_geom_bond_site_symmetry_2
O1 H1 1_555 1_555
O2 C15 1_555 1_555
O3 C3 1_555 1_555
O4 H2 1_555 1_555
C1 H3 1_555 1_555
H4 C1 1_555 1_555
C2 C1 1_555 1_555
H5 C2 1_555 1_555
H6 C2 1_555 1_555
C3 C2 1_555 1_555
C4 C3 1_555 1_555
C5 C4 1_555 1_555
H7 C5 1_555 1_555
C6 C5 1_555 1_555
H8 C6 1_555 1_555
H9 C6 1_555 1_555
C7 C6 1_555 1_555
H10 C7 1_555 1_555
H11 C7 1_555 1_555
C8 C7 1_555 1_555
C9 C8 1_555 1_555
H12 C9 1_555 1_555
C10 C1 1_555 1_555
C11 C9 1_555 1_555
H13 C11 1_555 1_555
H14 C11 1_555 1_555
C12 C11 1_555 1_555
H15 C12 1_555 1_555
C13 O1 1_555 1_555
C14 C8 1_555 1_555
H16 C14 1_555 1_555
H17 C14 1_555 1_555
C15 C8 1_555 1_555
C16 C12 1_555 1_555
C17 C16 1_555 1_555
H18 C17 1_555 1_555
H19 C17 1_555 1_555
C18 C4 1_555 1_555
H20 C18 1_555 1_555
H21 C18 1_555 1_555
H22 C18 1_555 1_555
C19 O4 1_555 1_555
H23 C19 1_555 1_555
H24 C19 1_555 1_555
C20 C10 1_555 1_555
H25 C20 1_555 1_555
H26 C20 1_555 1_555
H27 C20 1_555 1_555
C21 H28 1_555 1_555
Cl1 C21 1_555 1_555
Cl2 C21 1_555 1_555
Cl3 C21 1_555 1_555
C4 C19 1_555 1_555
C5 C10 1_555 1_555
C9 C10 1_555 1_555
C12 C13 1_555 1_555
C13 C14 1_555 1_555
C15 C16 1_555 1_555

#END
