
#######################################################################
#
#                 Cambridge Crystallographic Data Centre
#                                CCDC 
#
#######################################################################
#
# If this CIF has been generated from an entry in the Cambridge 
# Structural Database, then it will include bibliographic, chemical, 
# crystal, experimental, refinement or atomic coordinate data resulting 
# from the CCDC's data processing and validation procedures.
#
#######################################################################

data_VARGUS
_chemical_formula_moiety         'C20 H32 O4'
_chemical_name_systematic        '12,17-Dihydroxybeyeran-18-oic acid'
_symmetry_cell_setting           monoclinic
_symmetry_space_group_name_H-M   'P 21'
_symmetry_Int_Tables_number      4
_space_group_name_Hall           'P 2yb'
loop_
_symmetry_equiv_pos_site_id
_symmetry_equiv_pos_as_xyz
1 x,y,z
2 -x,1/2+y,-z
_cell_length_a                   10.558(2)
_cell_length_b                   7.5169(15)
_cell_length_c                   11.655(2)
_cell_angle_alpha                90
_cell_angle_beta                 108.709(3)
_cell_angle_gamma                90
_cell_volume                     876.105
_exptl_crystal_colour            colorless
_exptl_crystal_description       parallelepiped
_cell_formula_units_Z            2
loop_
_atom_site_label
_atom_site_type_symbol
_atom_site_fract_x
_atom_site_fract_y
_atom_site_fract_z
O1 O 0.2052(3) 0.0587(7) 0.1470(3)
H1 H 0.1964 0.1384 0.0970
O2 O 0.0213(6) 0.3112(11) -0.0082(5)
H2 H 0.0858 0.2446 0.0048
O3 O 0.6142(3) 0.2362(8) 0.9074(4)
O4 O 0.5274(3) 0.4837(6) 0.8121(3)
H3 H 0.6064 0.5077 0.8242
C1 C 0.3351(4) -0.0255(7) 0.6241(4)
H4 H 0.2456 -0.0702 0.6125
H5 H 0.3719 -0.0923 0.5710
C2 C 0.4210(5) -0.0593(10) 0.7551(5)
H6 H 0.4152 -0.1840 0.7743
H7 H 0.5137 -0.0329 0.7642
C3 C 0.3775(5) 0.0519(11) 0.8416(5)
H8 H 0.4382 0.0314 0.9228
H9 H 0.2892 0.0133 0.8398
C4 C 0.3729(4) 0.2513(9) 0.8152(4)
C5 C 0.2828(4) 0.2800(8) 0.6811(4)
H10 H 0.1967 0.2276 0.6781
C6 C 0.2475(4) 0.4726(8) 0.6389(4)
H11 H 0.2261 0.5399 0.7013
H12 H 0.3230 0.5289 0.6233
C7 C 0.1270(4) 0.4695(8) 0.5230(4)
H13 H 0.0526 0.4121 0.5398
H14 H 0.1007 0.5909 0.4982
C8 C 0.1558(4) 0.3723(6) 0.4197(4)
C9 C 0.2130(4) 0.1858(6) 0.4609(3)
H15 H 0.1378 0.1160 0.4688
C10 C 0.3256(4) 0.1710(6) 0.5870(4)
C11 C 0.2508(4) 0.0986(7) 0.3584(4)
H16 H 0.2702 -0.0259 0.3781
H17 H 0.3321 0.1537 0.3538
C12 C 0.1445(5) 0.1106(8) 0.2343(4)
H18 H 0.0732 0.0255 0.2316
C13 C 0.0828(4) 0.2962(8) 0.2084(4)
C14 C 0.0278(4) 0.3456(7) 0.3103(4)
H19 H -0.0272 0.2509 0.3253
H20 H -0.0246 0.4541 0.2915
C15 C 0.2411(4) 0.4819(7) 0.3609(5)
H21 H 0.2320 0.6078 0.3746
H22 H 0.3347 0.4497 0.3953
C16 C 0.1915(5) 0.4416(10) 0.2257(5)
H23 H 0.2641 0.3987 0.1991
H24 H 0.1539 0.5474 0.1798
C17 C -0.0247(5) 0.3059(10) 0.0842(4)
C18 C 0.3129(5) 0.3506(14) 0.9018(5)
H25 H 0.3683 0.3315 0.9840
H26 H 0.2245 0.3064 0.8912
H27 H 0.3085 0.4756 0.8841
C19 C 0.5171(5) 0.3189(10) 0.8485(4)
C20 C 0.4627(4) 0.2334(7) 0.5819(4)
H28 H 0.5281 0.2223 0.6608
H29 H 0.4568 0.3556 0.5566
H30 H 0.4886 0.1614 0.5252
H31? H -0.0703 0.0642 0.0479
O5? O -0.1110(5) 0.1503(10) 0.0615(6)
loop_
_geom_bond_atom_site_label_1
_geom_bond_atom_site_label_2
_geom_bond_site_symmetry_1
_geom_bond_site_symmetry_2
O1 H1 1_555 1_555
O2 H2 1_555 1_555
O3 C19 1_555 1_555
O4 H3 1_555 1_555
C1 H4 1_555 1_555
H5 C1 1_555 1_555
C2 C1 1_555 1_555
H6 C2 1_555 1_555
H7 C2 1_555 1_555
C3 C2 1_555 1_555
H8 C3 1_555 1_555
H9 C3 1_555 1_555
C4 C3 1_555 1_555
C5 C4 1_555 1_555
H10 C5 1_555 1_555
C6 C5 1_555 1_555
H11 C6 1_555 1_555
H12 C6 1_555 1_555
C7 C6 1_555 1_555
H13 C7 1_555 1_555
H14 C7 1_555 1_555
C8 C7 1_555 1_555
C9 C8 1_555 1_555
H15 C9 1_555 1_555
C10 C1 1_555 1_555
C11 C9 1_555 1_555
H16 C11 1_555 1_555
H17 C11 1_555 1_555
C12 O1 1_555 1_555
H18 C12 1_555 1_555
C13 C12 1_555 1_555
C14 C8 1_555 1_555
H19 C14 1_555 1_555
H20 C14 1_555 1_555
C15 C8 1_555 1_555
H21 C15 1_555 1_555
H22 C15 1_555 1_555
C16 C13 1_555 1_555
H23 C16 1_555 1_555
H24 C16 1_555 1_555
C17 O2 1_555 1_555
C18 C4 1_555 1_555
H25 C18 1_555 1_555
H26 C18 1_555 1_555
H27 C18 1_555 1_555
C19 O4 1_555 1_555
C20 C10 1_555 1_555
H28 C20 1_555 1_555
H29 C20 1_555 1_555
H30 C20 1_555 1_555
C4 C19 1_555 1_555
C5 C10 1_555 1_555
C9 C10 1_555 1_555
C11 C12 1_555 1_555
C13 C14 1_555 1_555
C13 C17 1_555 1_555
C15 C16 1_555 1_555

#END
