
#######################################################################
#
#                 Cambridge Crystallographic Data Centre
#                                CCDC 
#
#######################################################################
#
# If this CIF has been generated from an entry in the Cambridge 
# Structural Database, then it will include bibliographic, chemical, 
# crystal, experimental, refinement or atomic coordinate data resulting 
# from the CCDC's data processing and validation procedures.
#
#######################################################################

data_VARJOO
_chemical_name_common            
"Disodium daidzein-3'-sulfonate daidzein-5'-sulfonate nonahydrate"
_chemical_formula_moiety         
'2(Na1 1+),C15 H9 O7 S1 1-,C15 H9 O7 S1 1-,9(H2 O1)'
_chemical_name_systematic        
"Disodium 7,4-dihydroxylisoflavone-3'-sulfonate 7,4-dihydroxylisoflavone-5'-sulfonate nonahydrate"
_chemical_properties_biological  'agent of resistance to hypoxia and anoxemia'
_symmetry_cell_setting           triclinic
_symmetry_space_group_name_H-M   'P -1'
_symmetry_Int_Tables_number      2
_space_group_name_Hall           '-P 1'
loop_
_symmetry_equiv_pos_site_id
_symmetry_equiv_pos_as_xyz
1 x,y,z
2 -x,-y,-z
_cell_length_a                   6.9484(14)
_cell_length_b                   13.277(3)
_cell_length_c                   20.401(4)
_cell_angle_alpha                105.16(3)
_cell_angle_beta                 90.75(3)
_cell_angle_gamma                92.73(3)
_cell_volume                     1813.88
_exptl_crystal_colour            colorless
_cell_formula_units_Z            2
loop_
_atom_site_label
_atom_site_type_symbol
_atom_site_fract_x
_atom_site_fract_y
_atom_site_fract_z
Na1 Na 0.5185(2) 0.28378(11) 0.27833(8)
Na2 Na 0.0000 0.5000 0.5000
Na3 Na 0.5000 0.5000 0.5000
S1 S 0.44016(13) 0.11056(6) 0.38299(4)
C1 C 0.5196(5) 0.0009(3) 0.32233(16)
C2 C 0.6180(5) -0.0758(3) 0.34382(17)
C3 C 0.6854(5) -0.1588(3) 0.29579(18)
H1 H 0.7526 -0.2091 0.3094
C4 C 0.6539(5) -0.1681(3) 0.22727(18)
H2 H 0.7011 -0.2244 0.1953
C5 C 0.5521(5) -0.0939(3) 0.20565(17)
C6 C 0.4846(5) -0.0097(3) 0.25401(17)
H3 H 0.4154 0.0398 0.2403
C7 C 0.5217(5) -0.1052(2) 0.13202(18)
C8 C 0.6733(5) -0.1270(3) 0.09101(18)
H4 H 0.7923 -0.1306 0.1115
C9 C 0.4941(5) -0.1375(2) -0.00872(17)
C10 C 0.3282(5) -0.1141(2) 0.02865(17)
C11 C 0.3338(5) -0.0945(3) 0.10249(17)
C12 C 0.1582(5) -0.1081(3) -0.00685(19)
H5 H 0.0453 -0.0927 0.0169
C13 C 0.1544(5) -0.1245(3) -0.07633(18)
H6 H 0.0399 -0.1202 -0.0994
C14 C 0.3255(5) -0.1478(3) -0.11216(17)
C15 C 0.4957(5) -0.1557(3) -0.07874(17)
H7 H 0.6081 -0.1728 -0.1025
O1 O 0.3750(4) 0.18291(19) 0.34565(13)
O2 O 0.6062(4) 0.1548(2) 0.42760(14)
O3 O 0.2843(4) 0.0730(2) 0.41893(14)
O4 O 0.6419(4) -0.0634(2) 0.41188(12)
H15 H 0.7020 -0.1116 0.4185
O5 O 0.1877(4) -0.0726(2) 0.13633(13)
O6 O 0.6672(3) -0.1439(2) 0.02254(12)
O7 O 0.3267(4) -0.1655(2) -0.18068(13)
H16 H 0.2328 -0.1400 -0.1936
S2 S 0.55672(12) 0.53176(6) 0.31511(4)
C16 C 0.4030(5) 0.6129(3) 0.28453(17)
C17 C 0.3192(5) 0.6963(3) 0.32883(18)
C18 C 0.2013(5) 0.7593(3) 0.30243(18)
H8 H 0.1434 0.8147 0.3318
C19 C 0.1698(5) 0.7404(3) 0.23314(18)
H9 H 0.0900 0.7828 0.2165
C20 C 0.2554(5) 0.6592(3) 0.18830(17)
C21 C 0.3713(5) 0.5948(3) 0.21493(18)
H10 H 0.4279 0.5391 0.1855
C22 C 0.2325(5) 0.6424(3) 0.11371(17)
C23 C 0.3886(5) 0.6252(3) 0.07471(18)
H11 H 0.5069 0.6249 0.0965
C24 C 0.2142(5) 0.6127(3) -0.02611(18)
C25 C 0.0443(5) 0.6314(2) 0.00850(18)
C26 C 0.0435(5) 0.6473(3) 0.08287(18)
C27 C -0.1233(5) 0.6351(3) -0.02795(18)
H12 H -0.2386 0.6481 -0.0054
C28 C -0.1211(5) 0.6198(3) -0.09765(19)
H13 H -0.2344 0.6222 -0.1219
C29 C 0.0528(6) 0.6005(3) -0.13149(18)
C30 C 0.2201(5) 0.5961(3) -0.09676(19)
H14 H 0.3351 0.5824 -0.1194
O8 O 0.4499(4) 0.4896(2) 0.36416(16)
O9 O 0.6029(4) 0.44831(19) 0.25582(14)
O10 O 0.7278(4) 0.5950(2) 0.34402(16)
O11 O 0.3582(4) 0.7159(2) 0.39650(13)
H17 H 0.3127 0.7711 0.4164
O12 O -0.1061(4) 0.6611(2) 0.11429(14)
O13 O 0.3871(3) 0.6083(2) 0.00607(13)
O14 O 0.0444(4) 0.5859(2) -0.19989(14)
H18 H 0.1525 0.5758 -0.2151
O15 O 0.2189(5) 0.2650(3) 0.2261(2)
O16 O 0.8178(5) 0.2950(3) 0.33328(19)
O17 O 0.0354(4) 0.4880(2) 0.38034(16)
O18 O 0.2710(4) 0.6237(2) 0.51211(17)
O19 O -0.2431(5) 0.6373(3) 0.5260(2)
O20 O 0.8406(5) -0.2171(3) 0.44466(19)
O21 O 0.2136(4) 0.8940(2) 0.46510(14)
O22 O 0.0153(5) -0.0809(2) -0.22362(15)
O23 O 0.9510(5) 0.1148(3) 0.36028(19)
loop_
_geom_bond_atom_site_label_1
_geom_bond_atom_site_label_2
_geom_bond_site_symmetry_1
_geom_bond_site_symmetry_2
S1 C1 1_555 1_555
S2 C16 1_555 1_555
C1 C2 1_555 1_555
C2 C3 1_555 1_555
C3 H1 1_555 1_555
C4 C3 1_555 1_555
H2 C4 1_555 1_555
C5 C4 1_555 1_555
C6 C1 1_555 1_555
H3 C6 1_555 1_555
C7 C5 1_555 1_555
C8 C7 1_555 1_555
H4 C8 1_555 1_555
C9 C10 1_555 1_555
C10 C11 1_555 1_555
C11 C7 1_555 1_555
C12 C10 1_555 1_555
H5 C12 1_555 1_555
C13 C12 1_555 1_555
H6 C13 1_555 1_555
C14 C13 1_555 1_555
C15 C9 1_555 1_555
H7 C15 1_555 1_555
C16 C17 1_555 1_555
C17 C18 1_555 1_555
C18 H8 1_555 1_555
C19 C18 1_555 1_555
H9 C19 1_555 1_555
C20 C19 1_555 1_555
C21 C16 1_555 1_555
H10 C21 1_555 1_555
C22 C20 1_555 1_555
C23 C22 1_555 1_555
H11 C23 1_555 1_555
C24 C25 1_555 1_555
C25 C26 1_555 1_555
C26 C22 1_555 1_555
C27 C25 1_555 1_555
H12 C27 1_555 1_555
C28 C27 1_555 1_555
H13 C28 1_555 1_555
C29 C28 1_555 1_555
C30 C24 1_555 1_555
H14 C30 1_555 1_555
O1 S1 1_555 1_555
O2 S1 1_555 1_555
O3 S1 1_555 1_555
O4 C2 1_555 1_555
H15 O4 1_555 1_555
O5 C11 1_555 1_555
O6 C8 1_555 1_555
O7 C14 1_555 1_555
H16 O7 1_555 1_555
O8 S2 1_555 1_555
O9 S2 1_555 1_555
O10 S2 1_555 1_555
O11 C17 1_555 1_555
H17 O11 1_555 1_555
O12 C26 1_555 1_555
O13 C23 1_555 1_555
O14 C29 1_555 1_555
H18 O14 1_555 1_555
C5 C6 1_555 1_555
C9 O6 1_555 1_555
C14 C15 1_555 1_555
C20 C21 1_555 1_555
C24 O13 1_555 1_555
C29 C30 1_555 1_555

#END
