
#######################################################################
#
#                 Cambridge Crystallographic Data Centre
#                                CCDC 
#
#######################################################################
#
# If this CIF has been generated from an entry in the Cambridge 
# Structural Database, then it will include bibliographic, chemical, 
# crystal, experimental, refinement or atomic coordinate data resulting 
# from the CCDC's data processing and validation procedures.
#
#######################################################################

data_VARJAA01
_chemical_formula_moiety         'C8 H5 O4 1-,C7 H7 N2 1+'
_chemical_name_systematic        '1H-benzimidazol-3-ium 3-carboxybenzoate'
_symmetry_cell_setting           monoclinic
_symmetry_space_group_name_H-M   'P 21/c'
_symmetry_Int_Tables_number      14
_space_group_name_Hall           '-P 2ybc'
loop_
_symmetry_equiv_pos_site_id
_symmetry_equiv_pos_as_xyz
1 x,y,z
2 -x,1/2+y,1/2-z
3 -x,-y,-z
4 x,1/2-y,1/2+z
_cell_length_a                   10.1861(12)
_cell_length_b                   5.1197(5)
_cell_length_c                   26.082(3)
_cell_angle_alpha                90
_cell_angle_beta                 90.9610(10)
_cell_angle_gamma                90
_cell_volume                     1359.98
_exptl_crystal_colour            colorless
_exptl_crystal_description       block
_cell_formula_units_Z            4
loop_
_atom_site_label
_atom_site_type_symbol
_atom_site_fract_x
_atom_site_fract_y
_atom_site_fract_z
N1 N 0.7480(2) 0.6921(5) 0.41067(9)
H1 H 0.8003 0.5704 0.4210
N2 N 0.6085(2) 1.0096(5) 0.41259(9)
H2 H 0.5560 1.1261 0.4242
C1 C 0.6795(3) 0.8467(6) 0.44029(12)
H3 H 0.6811 0.8414 0.4759
C2 C 0.6326(3) 0.9615(6) 0.36160(10)
C3 C 0.7216(3) 0.7581(6) 0.36028(11)
C4 C 0.7670(3) 0.6633(7) 0.31405(14)
H4 H 0.8276 0.5276 0.3127
C5 C 0.7181(4) 0.7798(9) 0.27034(14)
H5 H 0.7454 0.7193 0.2386
C6 C 0.6294(4) 0.9845(8) 0.27196(14)
H6 H 0.5999 1.0597 0.2414
C7 C 0.5845(3) 1.0778(7) 0.31706(12)
H7 H 0.5241 1.2138 0.3181
O1 O 0.40265(19) 0.6253(5) 0.48326(8)
H8 H 0.4634 0.5350 0.4942
O2 O 0.4297(2) 0.3838(5) 0.41400(10)
O3 O 0.06095(18) 1.3123(4) 0.48197(7)
O4 O -0.0937(2) 1.2930(5) 0.42101(9)
C8 C 0.3726(3) 0.5549(6) 0.43752(12)
C9 C 0.0119(3) 1.2218(6) 0.44018(11)
C10 C 0.2633(2) 0.7005(5) 0.41174(10)
C11 C 0.1904(2) 0.8835(5) 0.43746(10)
H9 H 0.2088 0.9162 0.4719
C12 C 0.0898(2) 1.0201(5) 0.41283(10)
C13 C 0.0620(3) 0.9664(7) 0.36194(11)
H10 H -0.0063 1.0536 0.3451
C14 C 0.1347(3) 0.7844(7) 0.33596(11)
H11 H 0.1163 0.7516 0.3015
C15 C 0.2347(3) 0.6503(7) 0.36070(11)
H12 H 0.2828 0.5261 0.3430
loop_
_geom_bond_atom_site_label_1
_geom_bond_atom_site_label_2
_geom_bond_site_symmetry_1
_geom_bond_site_symmetry_2
N1 H1 1_555 1_555
N2 H2 1_555 1_555
C1 N1 1_555 1_555
H3 C1 1_555 1_555
C2 N2 1_555 1_555
C3 N1 1_555 1_555
C4 C3 1_555 1_555
H4 C4 1_555 1_555
C5 C4 1_555 1_555
H5 C5 1_555 1_555
C6 C5 1_555 1_555
H6 C6 1_555 1_555
C7 C2 1_555 1_555
H7 C7 1_555 1_555
O1 H8 1_555 1_555
O2 C8 1_555 1_555
O3 C9 1_555 1_555
O4 C9 1_555 1_555
C8 O1 1_555 1_555
C9 C12 1_555 1_555
C10 C8 1_555 1_555
C11 C10 1_555 1_555
H9 C11 1_555 1_555
C12 C11 1_555 1_555
C13 C12 1_555 1_555
H10 C13 1_555 1_555
C14 C13 1_555 1_555
H11 C14 1_555 1_555
C15 C10 1_555 1_555
H12 C15 1_555 1_555
N2 C1 1_555 1_555
C2 C3 1_555 1_555
C6 C7 1_555 1_555
C14 C15 1_555 1_555

#END
