
#######################################################################
#
#                 Cambridge Crystallographic Data Centre
#                                CCDC 
#
#######################################################################
#
# If this CIF has been generated from an entry in the Cambridge 
# Structural Database, then it will include bibliographic, chemical, 
# crystal, experimental, refinement or atomic coordinate data resulting 
# from the CCDC's data processing and validation procedures.
#
#######################################################################

data_VARLOR
_chemical_formula_moiety         'C25 H18 B1 N1 O2'
_chemical_name_systematic        
6,6-Diphenyl-6H-[1,3]benzoxazolo[3,2-c][1,3,2]benzoxazaborinine
_symmetry_cell_setting           monoclinic
_symmetry_space_group_name_H-M   'C 2/c'
_symmetry_Int_Tables_number      15
_space_group_name_Hall           '-C 2yn'
loop_
_symmetry_equiv_pos_site_id
_symmetry_equiv_pos_as_xyz
1 x,y,z
2 -x,y,1/2-z
3 1/2+x,1/2+y,z
4 1/2-x,1/2+y,1/2-z
5 -x,-y,-z
6 x,-y,1/2+z
7 1/2-x,1/2-y,-z
8 1/2+x,1/2-y,1/2+z
_cell_length_a                   26.232(5)
_cell_length_b                   10.000(2)
_cell_length_c                   15.213(3)
_cell_angle_alpha                90
_cell_angle_beta                 100.53(3)
_cell_angle_gamma                90
_cell_volume                     3923.47
_cell_formula_units_Z            8
loop_
_atom_site_label
_atom_site_type_symbol
_atom_site_fract_x
_atom_site_fract_y
_atom_site_fract_z
B1 B 0.14000(15) 0.7370(4) 0.0893(2)
C1 C 0.16194(13) 0.6225(3) 0.1592(2)
C2 C 0.14112(16) 0.4962(3) 0.1594(3)
H1 H 0.1137 0.4724 0.1143
C3 C 0.1601(2) 0.4031(4) 0.2253(3)
H2 H 0.1453 0.3184 0.2237
C4 C 0.1998(2) 0.4350(5) 0.2913(3)
H3 H 0.2121 0.3728 0.3355
C5 C 0.22183(16) 0.5580(5) 0.2933(3)
H4 H 0.2494 0.5803 0.3385
C6 C 0.20298(14) 0.6499(4) 0.2275(3)
H5 H 0.2186 0.7336 0.2293
C7 C 0.09195(14) 0.6963(3) 0.0132(2)
C8 C 0.04174(15) 0.7360(4) 0.0118(2)
H6 H 0.0350 0.7919 0.0572
C9 C 0.00069(17) 0.6970(5) -0.0536(3)
H7 H -0.0328 0.7259 -0.0520
C10 C 0.0103(2) 0.6151(5) -0.1207(3)
H8 H -0.0170 0.5866 -0.1647
C11 C 0.0591(2) 0.5757(4) -0.1232(3)
H9 H 0.0655 0.5213 -0.1695
C12 C 0.09953(17) 0.6160(4) -0.0572(3)
H10 H 0.1330 0.5881 -0.0602
C13 C 0.18400(14) 0.9135(4) 0.0155(2)
C14 C 0.21436(15) 0.9429(4) -0.0482(3)
H11 H 0.2332 0.8756 -0.0698
C15 C 0.21637(17) 1.0710(5) -0.0787(3)
H12 H 0.2365 1.0897 -0.1216
C16 C 0.18922(17) 1.1728(5) -0.0474(3)
H13 H 0.1905 1.2588 -0.0702
C17 C 0.16061(15) 1.1484(4) 0.0166(3)
H14 H 0.1432 1.2179 0.0390
C18 C 0.15735(13) 1.0181(3) 0.0489(2)
C19 C 0.13111(13) 0.9848(3) 0.1191(2)
C20 C 0.09212(14) 1.0025(4) 0.2336(3)
C21 C 0.06939(16) 1.0522(4) 0.3022(3)
H15 H 0.0664 1.1432 0.3130
C22 C 0.05179(16) 0.9549(5) 0.3528(3)
H16 H 0.0357 0.9811 0.3997
C23 C 0.05674(15) 0.8214(4) 0.3375(3)
H17 H 0.0440 0.7600 0.3740
C24 C 0.08019(13) 0.7753(4) 0.2691(2)
H18 H 0.0835 0.6843 0.2586
C25 C 0.09829(13) 0.8699(3) 0.2175(2)
N1 N 0.12370(9) 0.8623(3) 0.14400(17)
O1 O 0.18438(8) 0.7897(2) 0.04915(15)
O2 O 0.11308(9) 1.0763(2) 0.17063(17)
loop_
_geom_bond_atom_site_label_1
_geom_bond_atom_site_label_2
_geom_bond_site_symmetry_1
_geom_bond_site_symmetry_2
B1 C1 1_555 1_555
C1 C2 1_555 1_555
C2 H1 1_555 1_555
C3 C2 1_555 1_555
H2 C3 1_555 1_555
C4 C3 1_555 1_555
H3 C4 1_555 1_555
C5 C4 1_555 1_555
H4 C5 1_555 1_555
C6 C1 1_555 1_555
H5 C6 1_555 1_555
C7 B1 1_555 1_555
C8 C7 1_555 1_555
H6 C8 1_555 1_555
C9 C8 1_555 1_555
H7 C9 1_555 1_555
C10 C9 1_555 1_555
H8 C10 1_555 1_555
C11 C10 1_555 1_555
H9 C11 1_555 1_555
C12 C7 1_555 1_555
H10 C12 1_555 1_555
C13 C14 1_555 1_555
C14 H11 1_555 1_555
C15 C14 1_555 1_555
H12 C15 1_555 1_555
C16 C15 1_555 1_555
H13 C16 1_555 1_555
C17 C16 1_555 1_555
H14 C17 1_555 1_555
C18 C13 1_555 1_555
C19 C18 1_555 1_555
C20 C21 1_555 1_555
C21 H15 1_555 1_555
C22 C21 1_555 1_555
H16 C22 1_555 1_555
C23 C22 1_555 1_555
H17 C23 1_555 1_555
C24 C23 1_555 1_555
H18 C24 1_555 1_555
C25 C20 1_555 1_555
N1 B1 1_555 1_555
O1 B1 1_555 1_555
O2 C19 1_555 1_555
C5 C6 1_555 1_555
C11 C12 1_555 1_555
C13 O1 1_555 1_555
C17 C18 1_555 1_555
C19 N1 1_555 1_555
C20 O2 1_555 1_555
C24 C25 1_555 1_555
C25 N1 1_555 1_555

#END
