
#######################################################################
#
#                 Cambridge Crystallographic Data Centre
#                                CCDC 
#
#######################################################################
#
# If this CIF has been generated from an entry in the Cambridge 
# Structural Database, then it will include bibliographic, chemical, 
# crystal, experimental, refinement or atomic coordinate data resulting 
# from the CCDC's data processing and validation procedures.
#
#######################################################################

data_VARPIP
_chemical_formula_moiety         'C13 H13 F1 N2 O3'
_chemical_name_systematic        
'ethyl (2Z)-2-cyano-3-[(3-fluoro-4-methoxyphenyl)amino]prop-2-enoate'
_symmetry_cell_setting           triclinic
_symmetry_space_group_name_H-M   'P -1'
_symmetry_Int_Tables_number      2
_space_group_name_Hall           '-P 1'
loop_
_symmetry_equiv_pos_site_id
_symmetry_equiv_pos_as_xyz
1 x,y,z
2 -x,-y,-z
_cell_length_a                   7.1447(9)
_cell_length_b                   7.5795(9)
_cell_length_c                   13.4410(16)
_cell_angle_alpha                83.394(2)
_cell_angle_beta                 78.094(2)
_cell_angle_gamma                70.208(2)
_cell_volume                     669.336
_exptl_crystal_colour            colorless
_exptl_crystal_description       block
_cell_formula_units_Z            2
loop_
_atom_site_label
_atom_site_type_symbol
_atom_site_fract_x
_atom_site_fract_y
_atom_site_fract_z
F1 F -0.09522(14) 0.44819(12) 0.34894(6)
N1 N 0.26086(14) 0.44874(14) 0.00441(8)
H1 H 0.3308 0.3772 -0.0445
N2 N 0.18085(19) 1.07155(18) -0.12555(10)
O1 O 0.47973(14) 0.42942(13) -0.18754(7)
O2 O 0.44396(14) 0.70536(12) -0.27650(7)
O3 O 0.03223(16) 0.07877(14) 0.36749(7)
C1 C 0.28839(18) 0.71223(17) -0.10679(9)
C2 C 0.22246(18) 0.63138(17) -0.01572(10)
H2 H 0.1447 0.7111 0.0359
C3 C 0.22886(18) 0.9113(2) -0.11802(10)
C4 C 0.41217(19) 0.60066(18) -0.19211(10)
C5 C 0.20000(17) 0.35778(17) 0.09717(9)
C6 C 0.07409(19) 0.45513(18) 0.18061(10)
H3 H 0.0241 0.5856 0.1776
C7 C 0.02590(19) 0.35407(19) 0.26709(10)
C8 C 0.0935(2) 0.15938(19) 0.27645(10)
C9 C 0.21836(19) 0.06576(19) 0.19257(10)
H4 H 0.2684 -0.0647 0.1957
C10 C 0.26934(18) 0.16431(18) 0.10428(10)
H5 H 0.3522 0.0989 0.0484
C11 C 0.0781(4) -0.1192(3) 0.37266(14)
H6 H 0.0245 -0.1542 0.3209
H7 H 0.0188 -0.1589 0.4384
H8 H 0.2221 -0.1784 0.3621
C12 C 0.5602(2) 0.6073(2) -0.36712(11)
H9 H 0.4979 0.5208 -0.3829
H10 H 0.6968 0.5367 -0.3571
C13 C 0.5629(3) 0.7530(3) -0.45099(13)
H11 H 0.4274 0.8178 -0.4621
H12 H 0.6440 0.6943 -0.5121
H13 H 0.6190 0.8408 -0.4329
loop_
_geom_bond_atom_site_label_1
_geom_bond_atom_site_label_2
_geom_bond_site_symmetry_1
_geom_bond_site_symmetry_2
F1 C7 1_555 1_555
N1 H1 1_555 1_555
N2 C3 1_555 1_555
O1 C4 1_555 1_555
O2 C4 1_555 1_555
O3 C8 1_555 1_555
C1 C2 1_555 1_555
C2 N1 1_555 1_555
H2 C2 1_555 1_555
C3 C1 1_555 1_555
C4 C1 1_555 1_555
C5 N1 1_555 1_555
C6 C5 1_555 1_555
H3 C6 1_555 1_555
C7 C6 1_555 1_555
C8 C7 1_555 1_555
C9 C8 1_555 1_555
H4 C9 1_555 1_555
C10 C5 1_555 1_555
H5 C10 1_555 1_555
C11 O3 1_555 1_555
H6 C11 1_555 1_555
H7 C11 1_555 1_555
H8 C11 1_555 1_555
C12 O2 1_555 1_555
H9 C12 1_555 1_555
H10 C12 1_555 1_555
C13 C12 1_555 1_555
H11 C13 1_555 1_555
H12 C13 1_555 1_555
H13 C13 1_555 1_555
C9 C10 1_555 1_555

#END
