
#######################################################################
#
#                 Cambridge Crystallographic Data Centre
#                                CCDC 
#
#######################################################################
#
# If this CIF has been generated from an entry in the Cambridge 
# Structural Database, then it will include bibliographic, chemical, 
# crystal, experimental, refinement or atomic coordinate data resulting 
# from the CCDC's data processing and validation procedures.
#
#######################################################################

data_VARSIS
_chemical_formula_moiety         'C29 H37 N3,C6 H6'
_chemical_name_systematic        
'(1,3-bis(2,6-di-isopropylphenyl)-1,3-dihydro-2H-imidazol-2-ylidene)acetonitrile benzene solvate'
_symmetry_cell_setting           monoclinic
_symmetry_space_group_name_H-M   'P 21/n'
_symmetry_Int_Tables_number      14
_space_group_name_Hall           '-P 2yn'
loop_
_symmetry_equiv_pos_site_id
_symmetry_equiv_pos_as_xyz
1 x,y,z
2 1/2-x,1/2+y,1/2-z
3 -x,-y,-z
4 1/2+x,1/2-y,1/2+z
_cell_length_a                   11.7791(4)
_cell_length_b                   17.7014(9)
_cell_length_c                   15.0895(8)
_cell_angle_alpha                90
_cell_angle_beta                 99.687(3)
_cell_angle_gamma                90
_cell_volume                     3101.4
_exptl_crystal_colour            colorless
_exptl_crystal_description       prism
_cell_formula_units_Z            4
loop_
_atom_site_label
_atom_site_type_symbol
_atom_site_fract_x
_atom_site_fract_y
_atom_site_fract_z
N1 N 0.82861(9) 0.10623(6) 0.28837(8)
N2 N 0.69539(9) 0.03658(6) 0.21068(8)
N3 N 0.78704(12) -0.16718(8) 0.29513(10)
C1 C 0.79259(11) 0.03308(8) 0.27457(10)
C2 C 0.62344(11) -0.02747(8) 0.17994(10)
C3 C 0.63556(11) -0.06132(8) 0.09856(11)
C4 C 0.56720(13) -0.12404(9) 0.07187(12)
H1 H 0.5734 -0.1486 0.0169
C5 C 0.49030(14) -0.15109(9) 0.12425(13)
H2 H 0.4448 -0.1944 0.1054
C6 C 0.47946(13) -0.11564(9) 0.20333(12)
H3 H 0.4256 -0.1345 0.2381
C7 C 0.54539(12) -0.05272(9) 0.23371(11)
C8 C 0.53121(13) -0.01445(10) 0.32128(11)
H4 H 0.5932 0.0245 0.3351
C9 C 0.41581(14) 0.02588(10) 0.31184(12)
H5 H 0.4106 0.0637 0.2638
H6 H 0.4091 0.0509 0.3686
H7 H 0.3534 -0.0109 0.2970
C10 C 0.54533(17) -0.07068(12) 0.39955(13)
H8 H 0.4806 -0.1062 0.3909
H9 H 0.5467 -0.0432 0.4561
H10 H 0.6176 -0.0985 0.4017
C11 C 0.72259(12) -0.03321(9) 0.04233(11)
H11 H 0.7387 0.0211 0.0578
C12 C 0.67764(14) -0.03776(12) -0.05813(12)
H12 H 0.6732 -0.0908 -0.0770
H13 H 0.7299 -0.0104 -0.0909
H14 H 0.6008 -0.0150 -0.0712
C13 C 0.83608(13) -0.07654(12) 0.06560(12)
H15 H 0.8650 -0.0722 0.1302
H16 H 0.8928 -0.0553 0.0319
H17 H 0.8232 -0.1299 0.0496
C14 C 0.67122(12) 0.11196(8) 0.18723(11)
H18 H 0.6077 0.1296 0.1450
C15 C 0.75294(12) 0.15483(8) 0.23445(10)
H19 H 0.7586 0.2083 0.2319
C16 C 0.84606(12) -0.02879(8) 0.31860(10)
H20 H 0.9122 -0.0198 0.3628
C17 C 0.81091(12) -0.10388(9) 0.30351(10)
C18 C 0.93065(11) 0.12816(8) 0.35054(10)
C19 C 1.03348(12) 0.13860(8) 0.31628(11)
C20 C 1.13140(12) 0.15648(8) 0.37827(11)
H21 H 1.2027 0.1637 0.3579
C21 C 1.12687(13) 0.16397(8) 0.46879(12)
H22 H 1.1949 0.1757 0.5099
C22 C 1.02396(12) 0.15447(8) 0.49985(11)
H23 H 1.0218 0.1606 0.5621
C23 C 0.92309(12) 0.13597(8) 0.44122(11)
C24 C 0.81155(12) 0.12514(9) 0.47816(11)
H24 H 0.7500 0.1111 0.4267
C25 C 0.77501(14) 0.19820(10) 0.51839(13)
H25 H 0.8353 0.2144 0.5676
H26 H 0.7031 0.1899 0.5415
H27 H 0.7631 0.2374 0.4719
C26 C 0.82177(15) 0.06082(10) 0.54698(13)
H28 H 0.8469 0.0147 0.5201
H29 H 0.7467 0.0521 0.5650
H30 H 0.8783 0.0745 0.5999
C27 C 1.03836(13) 0.12884(9) 0.21728(11)
H31 H 0.9586 0.1358 0.1832
C28 C 1.07686(16) 0.04864(10) 0.19940(14)
H32 H 1.1563 0.0410 0.2298
H33 H 1.0726 0.0413 0.1346
H34 H 1.0263 0.0122 0.2224
C29 C 1.11622(18) 0.18619(11) 0.18123(14)
H35 H 1.0912 0.2375 0.1931
H36 H 1.1115 0.1791 0.1163
H37 H 1.1959 0.1788 0.2112
C30 C 0.4806(2) 0.24637(17) 0.3475(3)
H38 H 0.5319 0.2151 0.3217
C31 C 0.4265(3) 0.3073(3) 0.3004(2)
H39 H 0.4397 0.3198 0.2417
C32 C 0.3522(3) 0.34912(19) 0.3432(4)
H40 H 0.3126 0.3913 0.3137
C33 C 0.3367(3) 0.3306(2) 0.4238(5)
H41 H 0.2849 0.3594 0.4521
C34 C 0.3895(3) 0.2744(3) 0.4661(2)
H42 H 0.3770 0.2633 0.5253
C35 C 0.4588(2) 0.23273(16) 0.4303(3)
H43 H 0.4954 0.1912 0.4633
loop_
_geom_bond_atom_site_label_1
_geom_bond_atom_site_label_2
_geom_bond_site_symmetry_1
_geom_bond_site_symmetry_2
N1 C1 1_555 1_555
N2 C1 1_555 1_555
N3 C17 1_555 1_555
C1 C16 1_555 1_555
C2 N2 1_555 1_555
C3 C2 1_555 1_555
C4 C3 1_555 1_555
H1 C4 1_555 1_555
C5 C4 1_555 1_555
H2 C5 1_555 1_555
C6 C5 1_555 1_555
H3 C6 1_555 1_555
C7 C2 1_555 1_555
C8 C7 1_555 1_555
H4 C8 1_555 1_555
C9 C8 1_555 1_555
H5 C9 1_555 1_555
H6 C9 1_555 1_555
H7 C9 1_555 1_555
C10 C8 1_555 1_555
H8 C10 1_555 1_555
H9 C10 1_555 1_555
H10 C10 1_555 1_555
C11 C3 1_555 1_555
H11 C11 1_555 1_555
C12 C11 1_555 1_555
H12 C12 1_555 1_555
H13 C12 1_555 1_555
H14 C12 1_555 1_555
C13 C11 1_555 1_555
H15 C13 1_555 1_555
H16 C13 1_555 1_555
H17 C13 1_555 1_555
C14 N2 1_555 1_555
H18 C14 1_555 1_555
C15 N1 1_555 1_555
H19 C15 1_555 1_555
C16 H20 1_555 1_555
C17 C16 1_555 1_555
C18 N1 1_555 1_555
C19 C18 1_555 1_555
C20 C19 1_555 1_555
H21 C20 1_555 1_555
C21 C20 1_555 1_555
H22 C21 1_555 1_555
C22 C21 1_555 1_555
H23 C22 1_555 1_555
C23 C18 1_555 1_555
C24 C23 1_555 1_555
H24 C24 1_555 1_555
C25 C24 1_555 1_555
H25 C25 1_555 1_555
H26 C25 1_555 1_555
H27 C25 1_555 1_555
C26 C24 1_555 1_555
H28 C26 1_555 1_555
H29 C26 1_555 1_555
H30 C26 1_555 1_555
C27 C19 1_555 1_555
H31 C27 1_555 1_555
C28 C27 1_555 1_555
H32 C28 1_555 1_555
H33 C28 1_555 1_555
H34 C28 1_555 1_555
C29 C27 1_555 1_555
H35 C29 1_555 1_555
H36 C29 1_555 1_555
H37 C29 1_555 1_555
C30 H38 1_555 1_555
C31 C30 1_555 1_555
H39 C31 1_555 1_555
C32 C31 1_555 1_555
H40 C32 1_555 1_555
C33 C32 1_555 1_555
H41 C33 1_555 1_555
C34 C33 1_555 1_555
H42 C34 1_555 1_555
C35 C30 1_555 1_555
H43 C35 1_555 1_555
C6 C7 1_555 1_555
C14 C15 1_555 1_555
C22 C23 1_555 1_555
C34 C35 1_555 1_555

#END
