
#######################################################################
#
#                 Cambridge Crystallographic Data Centre
#                                CCDC 
#
#######################################################################
#
# If this CIF has been generated from an entry in the Cambridge 
# Structural Database, then it will include bibliographic, chemical, 
# crystal, experimental, refinement or atomic coordinate data resulting 
# from the CCDC's data processing and validation procedures.
#
#######################################################################

data_VASBAU
_chemical_formula_moiety         'C13 H16 O3 S1'
_chemical_name_systematic        
1b-Methyl-2'-thioxohexahydro-1H-spiro[cyclopropa[a]indene-6,4'-[1,3]dioxolan]-3(2H)-one
_symmetry_cell_setting           tetragonal
_symmetry_space_group_name_H-M   'P -4 21 c'
_symmetry_Int_Tables_number      114
_space_group_name_Hall           'P -4 2n'
loop_
_symmetry_equiv_pos_site_id
_symmetry_equiv_pos_as_xyz
1 x,y,z
2 y,-x,-z
3 -x,-y,z
4 -y,x,-z
5 1/2+x,1/2-y,1/2-z
6 1/2-x,1/2+y,1/2-z
7 1/2-y,1/2-x,1/2+z
8 1/2+y,1/2+x,1/2+z
_cell_length_a                   15.2425(3)
_cell_length_b                   15.2425(3)
_cell_length_c                   10.5237(4)
_cell_angle_alpha                90
_cell_angle_beta                 90
_cell_angle_gamma                90
_cell_volume                     2445.01
_exptl_crystal_colour            colorless
_exptl_crystal_description       block
_cell_formula_units_Z            8
loop_
_atom_site_label
_atom_site_type_symbol
_atom_site_fract_x
_atom_site_fract_y
_atom_site_fract_z
S1 S 0.99281(3) 0.26244(3) 0.24731(6)
O1 O 0.72573(12) 0.71534(9) 0.02392(15)
O2 O 0.83763(7) 0.33357(7) 0.22442(11)
O3 O 0.91244(8) 0.37668(8) 0.39112(12)
C1 C 0.91172(11) 0.32595(11) 0.28834(17)
C2 C 0.82679(13) 0.41541(12) 0.40810(18)
H1 H 0.8316 0.4771 0.4295
H2 H 0.7945 0.3856 0.4747
C3 C 0.78220(11) 0.40323(10) 0.27955(16)
C4 C 0.68728(11) 0.37301(11) 0.28099(18)
H3 H 0.6732 0.3143 0.2488
C5 C 0.62609(13) 0.41531(13) 0.3735(2)
H4 H 0.6515 0.4509 0.4404
H5 H 0.5738 0.3831 0.3977
C6 C 0.63129(10) 0.44959(11) 0.23954(17)
H6 H 0.5820 0.4386 0.1819
C7 C 0.69210(10) 0.52739(10) 0.21219(16)
C8 C 0.66899(13) 0.57785(11) 0.0900(2)
H7 H 0.6610 0.5369 0.0204
H8 H 0.6145 0.6097 0.1019
C9 C 0.74169(14) 0.64124(12) 0.05823(17)
C10 C 0.83452(13) 0.60800(12) 0.06494(19)
H9 H 0.8732 0.6582 0.0728
H10 H 0.8481 0.5796 -0.0151
C11 C 0.85635(12) 0.54335(12) 0.17319(19)
H11 H 0.9096 0.5113 0.1534
H12 H 0.8654 0.5751 0.2520
C12 C 0.78026(10) 0.48061(10) 0.18680(15)
H13 H 0.7736 0.4539 0.1027
C13 C 0.69512(13) 0.59435(12) 0.32134(18)
H14 H 0.7185 0.5668 0.3961
H15 H 0.6369 0.6152 0.3386
H16 H 0.7318 0.6428 0.2975
loop_
_geom_bond_atom_site_label_1
_geom_bond_atom_site_label_2
_geom_bond_site_symmetry_1
_geom_bond_site_symmetry_2
S1 C1 1_555 1_555
O1 C9 1_555 1_555
O2 C1 1_555 1_555
O3 C1 1_555 1_555
C2 O3 1_555 1_555
H1 C2 1_555 1_555
H2 C2 1_555 1_555
C3 O2 1_555 1_555
C4 C3 1_555 1_555
H3 C4 1_555 1_555
C5 C4 1_555 1_555
H4 C5 1_555 1_555
H5 C5 1_555 1_555
C6 C4 1_555 1_555
H6 C6 1_555 1_555
C7 C6 1_555 1_555
C8 C7 1_555 1_555
H7 C8 1_555 1_555
H8 C8 1_555 1_555
C9 C8 1_555 1_555
C10 C9 1_555 1_555
H9 C10 1_555 1_555
H10 C10 1_555 1_555
C11 C10 1_555 1_555
H11 C11 1_555 1_555
H12 C11 1_555 1_555
C12 C3 1_555 1_555
H13 C12 1_555 1_555
C13 C7 1_555 1_555
H14 C13 1_555 1_555
H15 C13 1_555 1_555
H16 C13 1_555 1_555
C2 C3 1_555 1_555
C5 C6 1_555 1_555
C7 C12 1_555 1_555
C11 C12 1_555 1_555

#END
