
#######################################################################
#
#                 Cambridge Crystallographic Data Centre
#                                CCDC 
#
#######################################################################
#
# If this CIF has been generated from an entry in the Cambridge 
# Structural Database, then it will include bibliographic, chemical, 
# crystal, experimental, refinement or atomic coordinate data resulting 
# from the CCDC's data processing and validation procedures.
#
#######################################################################

data_VASKEG
_chemical_formula_moiety         'C14 H9 Br1 N2 O2'
_chemical_name_systematic        2-Bromo-4-nitro-5-(2-phenylethynyl)aniline
_symmetry_cell_setting           monoclinic
_symmetry_space_group_name_H-M   'P 21/c'
_symmetry_Int_Tables_number      14
_space_group_name_Hall           '-P 2ybc'
loop_
_symmetry_equiv_pos_site_id
_symmetry_equiv_pos_as_xyz
1 x,y,z
2 -x,1/2+y,1/2-z
3 -x,-y,-z
4 x,1/2-y,1/2+z
_cell_length_a                   3.9187(3)
_cell_length_b                   22.827(3)
_cell_length_c                   14.1519(17)
_cell_angle_alpha                90
_cell_angle_beta                 90.342(15)
_cell_angle_gamma                90
_cell_volume                     1265.9
_exptl_crystal_colour            yellow
_exptl_crystal_description       plate
_chemical_melting_point          397.7-398.4K
_cell_formula_units_Z            4
_exptl_crystal_recrystallization_method chloroform
loop_
_atom_site_label
_atom_site_type_symbol
_atom_site_fract_x
_atom_site_fract_y
_atom_site_fract_z
Br1 Br 0.56370(4) 0.085283(8) 0.518704(13)
O1 O -0.1080(4) 0.33424(6) 0.59847(10)
O2 O -0.0674(4) 0.25810(7) 0.68693(9)
N1 N 0.6842(4) 0.15660(7) 0.33546(11)
H1 H 0.741(6) 0.1251(10) 0.3466(16)
H2 H 0.755(6) 0.1726(10) 0.2784(17)
N2 N -0.0117(4) 0.28406(7) 0.61196(10)
C1 C 0.4354(4) 0.16359(7) 0.49118(11)
C2 C 0.5181(4) 0.18759(7) 0.40230(11)
C3 C 0.4135(4) 0.24503(7) 0.38472(11)
H3 H 0.471(5) 0.2611(8) 0.3256(14)
C4 C 0.2361(4) 0.27883(7) 0.45015(12)
C5 C 0.1685(4) 0.25299(7) 0.53848(11)
C6 C 0.2661(4) 0.19575(8) 0.55804(11)
H4 H 0.223(4) 0.1795(7) 0.6179(12)
C7 C 0.1309(4) 0.33695(8) 0.42057(12)
C8 C 0.0533(4) 0.38098(8) 0.38566(12)
C9 C -0.0385(4) 0.43682(8) 0.34465(12)
C10 C 0.0419(5) 0.44966(8) 0.25111(13)
H5 H 0.153(6) 0.4205(8) 0.2135(15)
C11 C -0.0380(5) 0.50366(9) 0.21315(14)
H6 H 0.022(6) 0.5133(9) 0.1492(17)
C12 C -0.1955(5) 0.54591(9) 0.26848(16)
H7 H -0.242(6) 0.5832(10) 0.2463(18)
C13 C -0.2782(5) 0.53359(9) 0.36113(15)
H8 H -0.376(5) 0.5624(9) 0.3987(14)
C14 C -0.2035(4) 0.47923(8) 0.39905(13)
H9 H -0.258(5) 0.4701(9) 0.4628(14)
loop_
_geom_bond_atom_site_label_1
_geom_bond_atom_site_label_2
_geom_bond_site_symmetry_1
_geom_bond_site_symmetry_2
Br1 C1 1_555 1_555
O1 N2 1_555 1_555
O2 N2 1_555 1_555
N1 H1 1_555 1_555
H2 N1 1_555 1_555
N2 C5 1_555 1_555
C1 C2 1_555 1_555
C2 N1 1_555 1_555
C3 C2 1_555 1_555
H3 C3 1_555 1_555
C4 C3 1_555 1_555
C5 C4 1_555 1_555
C6 C1 1_555 1_555
H4 C6 1_555 1_555
C7 C4 1_555 1_555
C8 C7 1_555 1_555
C9 C8 1_555 1_555
C10 C9 1_555 1_555
H5 C10 1_555 1_555
C11 C10 1_555 1_555
H6 C11 1_555 1_555
C12 C11 1_555 1_555
H7 C12 1_555 1_555
C13 C12 1_555 1_555
H8 C13 1_555 1_555
C14 C9 1_555 1_555
H9 C14 1_555 1_555
C5 C6 1_555 1_555
C13 C14 1_555 1_555

#END
