
#######################################################################
#
#                 Cambridge Crystallographic Data Centre
#                                CCDC 
#
#######################################################################
#
# If this CIF has been generated from an entry in the Cambridge 
# Structural Database, then it will include bibliographic, chemical, 
# crystal, experimental, refinement or atomic coordinate data resulting 
# from the CCDC's data processing and validation procedures.
#
#######################################################################

data_VASKUX
_chemical_formula_moiety         'C10 H6 Br1 F3 O2'
_chemical_name_systematic        
'3-(4-Bromophenyl)-2-(trifluoromethyl)acrylic acid'
_symmetry_cell_setting           triclinic
_symmetry_space_group_name_H-M   'P -1'
_symmetry_Int_Tables_number      2
_space_group_name_Hall           '-P 1'
loop_
_symmetry_equiv_pos_site_id
_symmetry_equiv_pos_as_xyz
1 x,y,z
2 -x,-y,-z
_cell_length_a                   4.8354(6)
_cell_length_b                   14.4443(18)
_cell_length_c                   15.4103(19)
_cell_angle_alpha                95.188(2)
_cell_angle_beta                 95.095(2)
_cell_angle_gamma                91.755(2)
_cell_volume                     1066.86
_exptl_crystal_colour            colorless
_exptl_crystal_description       prismatic
_cell_formula_units_Z            4
loop_
_atom_site_label
_atom_site_type_symbol
_atom_site_fract_x
_atom_site_fract_y
_atom_site_fract_z
Br1 Br -0.29141(12) 0.54015(3) 0.59414(3)
F1 F 0.4132(5) 1.06062(17) 0.79879(16)
F2 F 0.6241(5) 0.9748(2) 0.70848(15)
F3 F 0.1976(5) 0.94675(18) 0.72288(17)
O1 O 0.8789(6) 1.0197(2) 0.89518(17)
O2 O 0.7368(7) 0.9160(2) 0.98102(19)
C1 C 0.7247(7) 0.9526(3) 0.9096(2)
C2 C 0.5191(7) 0.9122(3) 0.8381(2)
C3 C 0.4225(8) 0.8257(3) 0.8410(2)
H1 H 0.4770 0.8009 0.8932
C4 C 0.4392(7) 0.9735(3) 0.7673(2)
C5 C 0.2464(8) 0.7609(3) 0.7784(2)
C6 C 0.0698(9) 0.7003(3) 0.8113(2)
H2 H 0.0610 0.7026 0.8715
C7 C -0.0959(10) 0.6357(3) 0.7570(3)
H3 H -0.2211 0.5963 0.7797
C8 C -0.0718(8) 0.6309(3) 0.6692(3)
C9 C 0.1070(9) 0.6889(3) 0.6340(2)
H4 H 0.1202 0.6843 0.5739
C10 C 0.2675(9) 0.7542(3) 0.6886(2)
H5 H 0.3904 0.7940 0.6654
H12 H 0.851(12) 0.938(5) 1.021(3)
Br2 Br 0.32508(15) 0.12326(4) 0.49063(3)
F4 F 0.1963(5) 0.32416(18) 0.99075(15)
F5 F -0.1459(6) 0.22830(17) 0.95562(17)
F6 F 0.1883(7) 0.2347(2) 0.87474(16)
O3 O -0.2600(6) 0.42157(19) 1.00962(16)
O4 O -0.4295(6) 0.4797(2) 0.88787(18)
C11 C -0.2764(7) 0.4227(3) 0.9298(2)
C12 C -0.1221(7) 0.3571(2) 0.8747(2)
C13 C -0.1229(8) 0.3638(3) 0.7889(2)
H6 H -0.2109 0.4155 0.7696
C14 C 0.0305(8) 0.2857(3) 0.9228(2)
C15 C -0.0094(8) 0.3039(3) 0.7198(2)
C16 C 0.1645(9) 0.3426(3) 0.6649(3)
H7 H 0.2127 0.4058 0.6736
C17 C 0.2662(10) 0.2891(3) 0.5981(3)
H8 H 0.3860 0.3155 0.5624
C18 C 0.1913(9) 0.1970(3) 0.5840(2)
C19 C 0.0160(9) 0.1570(3) 0.6360(3)
H9 H -0.0349 0.0941 0.6255
C20 C -0.0844(9) 0.2102(3) 0.7039(2)
H10 H -0.2035 0.1831 0.7394
H11 H -0.524(12) 0.515(4) 0.916(4)
loop_
_geom_bond_atom_site_label_1
_geom_bond_atom_site_label_2
_geom_bond_site_symmetry_1
_geom_bond_site_symmetry_2
Br1 C8 1_555 1_555
Br2 C18 1_555 1_555
F1 C4 1_555 1_555
F2 C4 1_555 1_555
F3 C4 1_555 1_555
F4 C14 1_555 1_555
F5 C14 1_555 1_555
F6 C14 1_555 1_555
O1 C1 1_555 1_555
O2 C1 1_555 1_555
O3 C11 1_555 1_555
O4 C11 1_555 1_555
C1 C2 1_555 1_555
C2 C3 1_555 1_555
C3 H1 1_555 1_555
C4 C2 1_555 1_555
C5 C3 1_555 1_555
C6 C5 1_555 1_555
H2 C6 1_555 1_555
C7 C6 1_555 1_555
H3 C7 1_555 1_555
C8 C7 1_555 1_555
C9 C8 1_555 1_555
H4 C9 1_555 1_555
C10 C5 1_555 1_555
H5 C10 1_555 1_555
C11 C12 1_555 1_555
C12 C13 1_555 1_555
C13 H6 1_555 1_555
C14 C12 1_555 1_555
C15 C13 1_555 1_555
C16 C15 1_555 1_555
H7 C16 1_555 1_555
C17 C16 1_555 1_555
H8 C17 1_555 1_555
C18 C17 1_555 1_555
C19 C18 1_555 1_555
H9 C19 1_555 1_555
C20 C15 1_555 1_555
H10 C20 1_555 1_555
H11 O4 1_555 1_555
H12 O2 1_555 1_555
C9 C10 1_555 1_555
C19 C20 1_555 1_555

#END
