
#######################################################################
#
#                 Cambridge Crystallographic Data Centre
#                                CCDC 
#
#######################################################################
#
# If this CIF has been generated from an entry in the Cambridge 
# Structural Database, then it will include bibliographic, chemical, 
# crystal, experimental, refinement or atomic coordinate data resulting 
# from the CCDC's data processing and validation procedures.
#
#######################################################################

data_VASLAE
_chemical_formula_moiety         'C11 H9 F3 O3'
_chemical_name_systematic        
'3-(4-Methoxyphenyl)-2-(trifluoromethyl)acrylic acid'
_symmetry_cell_setting           monoclinic
_symmetry_space_group_name_H-M   'P 21/c'
_symmetry_Int_Tables_number      14
_space_group_name_Hall           '-P 2ybc'
loop_
_symmetry_equiv_pos_site_id
_symmetry_equiv_pos_as_xyz
1 x,y,z
2 -x,1/2+y,1/2-z
3 -x,-y,-z
4 x,1/2-y,1/2+z
_cell_length_a                   8.7508(7)
_cell_length_b                   14.3561(12)
_cell_length_c                   8.9688(8)
_cell_angle_alpha                90
_cell_angle_beta                 95.392(2)
_cell_angle_gamma                90
_cell_volume                     1121.74
_exptl_crystal_colour            colorless
_exptl_crystal_description       prismatic
_cell_formula_units_Z            4
_chemical_properties_physical    heat-sensitive
loop_
_atom_site_label
_atom_site_type_symbol
_atom_site_fract_x
_atom_site_fract_y
_atom_site_fract_z
F1 F 0.38014(15) 0.09511(10) 0.57970(13)
F2 F 0.36868(16) -0.04824(10) 0.63990(15)
F3 F 0.16211(14) 0.03187(11) 0.59294(13)
O1 O 0.15844(16) 0.08201(10) 1.02287(14)
H1 H 0.0788 0.0655 1.0565
O2 O 0.09299(16) -0.02980(10) 0.85569(15)
O3 O 1.02144(15) 0.21342(9) 0.76375(14)
C1 C 0.1770(2) 0.03489(12) 0.9026(2)
C2 C 0.3125(2) 0.06266(13) 0.82258(19)
C3 C 0.4300(2) 0.10726(13) 0.8984(2)
H2 H 0.4104 0.1250 0.9945
C4 C 0.3057(2) 0.03492(15) 0.6606(2)
C5 C 0.5834(2) 0.13358(13) 0.85961(19)
C6 C 0.6563(3) 0.20962(15) 0.9340(2)
H3 H 0.6062 0.2409 1.0060
C7 C 0.7999(2) 0.23946(15) 0.9039(2)
H4 H 0.8437 0.2919 0.9516
C8 C 0.8785(2) 0.19060(13) 0.80177(19)
C9 C 0.8113(2) 0.11303(13) 0.7310(2)
H5 H 0.8647 0.0797 0.6637
C10 C 0.6667(2) 0.08477(13) 0.7592(2)
H6 H 0.6236 0.0324 0.7108
C11 C 1.1010(3) 0.28805(15) 0.8443(3)
H7 H 1.0425 0.3444 0.8296
H8 H 1.1999 0.2964 0.8082
H9 H 1.1137 0.2732 0.9491
loop_
_geom_bond_atom_site_label_1
_geom_bond_atom_site_label_2
_geom_bond_site_symmetry_1
_geom_bond_site_symmetry_2
F1 C4 1_555 1_555
F2 C4 1_555 1_555
F3 C4 1_555 1_555
O1 H1 1_555 1_555
O2 C1 1_555 1_555
O3 C8 1_555 1_555
C1 O1 1_555 1_555
C2 C1 1_555 1_555
C3 C2 1_555 1_555
H2 C3 1_555 1_555
C4 C2 1_555 1_555
C5 C3 1_555 1_555
C6 C5 1_555 1_555
H3 C6 1_555 1_555
C7 C6 1_555 1_555
H4 C7 1_555 1_555
C8 C7 1_555 1_555
C9 C8 1_555 1_555
H5 C9 1_555 1_555
C10 C5 1_555 1_555
H6 C10 1_555 1_555
C11 O3 1_555 1_555
H7 C11 1_555 1_555
H8 C11 1_555 1_555
H9 C11 1_555 1_555
C9 C10 1_555 1_555

#END
