
#######################################################################
#
#                 Cambridge Crystallographic Data Centre
#                                CCDC 
#
#######################################################################
#
# If this CIF has been generated from an entry in the Cambridge 
# Structural Database, then it will include bibliographic, chemical, 
# crystal, experimental, refinement or atomic coordinate data resulting 
# from the CCDC's data processing and validation procedures.
#
#######################################################################

data_VASLIM
_chemical_formula_moiety         'C24 H28 F1 N3 O5'
_chemical_name_systematic        
'Di-t-butyl 1-(5-fluoro-2-oxo-3-phenyl-2,3-dihydro-1H-indol-3-yl)hydrazine-1,2-dicarboxylate'
_symmetry_cell_setting           monoclinic
_symmetry_space_group_name_H-M   'P 21/n'
_symmetry_Int_Tables_number      14
_space_group_name_Hall           '-P 2yn'
loop_
_symmetry_equiv_pos_site_id
_symmetry_equiv_pos_as_xyz
1 x,y,z
2 1/2-x,1/2+y,1/2-z
3 -x,-y,-z
4 1/2+x,1/2-y,1/2+z
_cell_length_a                   14.2433(5)
_cell_length_b                   9.1468(3)
_cell_length_c                   18.3995(7)
_cell_angle_alpha                90
_cell_angle_beta                 96.1980(10)
_cell_angle_gamma                90
_cell_volume                     2383.09
_exptl_crystal_colour            colorless
_exptl_crystal_description       block
_cell_formula_units_Z            4
loop_
_atom_site_label
_atom_site_type_symbol
_atom_site_fract_x
_atom_site_fract_y
_atom_site_fract_z
F1 F -0.16493(9) 0.63684(16) 0.05356(8)
O1 O 0.26768(8) 0.80411(13) 0.26130(7)
O2 O -0.08624(9) 1.05274(15) 0.20548(8)
O3 O -0.03370(9) 1.25676(14) 0.26727(8)
O4 O 0.12111(13) 1.12370(14) 0.10494(8)
O5 O 0.16608(9) 0.88557(13) 0.10884(7)
N1 N 0.17579(10) 0.61031(15) 0.21747(8)
H1 H 0.2152 0.5399 0.2270
N2 N 0.06974(10) 1.09635(15) 0.23960(8)
H2 H 0.1094 1.1491 0.2667
N3 N 0.10139(10) 0.97827(14) 0.20203(8)
C1 C 0.06354(12) 0.83334(18) 0.30897(9)
C2 C 0.12758(15) 0.8626(3) 0.36935(11)
H3 H 0.1904 0.8815 0.3631
C3 C 0.09902(19) 0.8642(3) 0.43882(12)
H4 H 0.1427 0.8842 0.4789
C4 C 0.00698(19) 0.8365(3) 0.44905(12)
H5 H -0.0119 0.8364 0.4959
C5 C -0.05720(17) 0.8089(3) 0.38954(12)
H6 H -0.1201 0.7913 0.3960
C6 C -0.02895(14) 0.8070(2) 0.32025(11)
H7 H -0.0731 0.7876 0.2804
C7 C -0.04969(13) 0.7406(2) 0.13941(10)
H8 H -0.0844 0.8266 0.1402
C8 C -0.08124(14) 0.6230(2) 0.09637(11)
C9 C -0.03275(15) 0.4934(2) 0.09408(11)
H9 H -0.0578 0.4171 0.0647
C10 C 0.05344(14) 0.4772(2) 0.13567(11)
H10 H 0.0878 0.3909 0.1350
C11 C 0.08611(12) 0.59417(18) 0.17799(9)
C12 C 0.03606(12) 0.72374(18) 0.18120(9)
C13 C 0.09491(11) 0.82885(17) 0.23143(9)
C14 C 0.19212(12) 0.74987(18) 0.23847(9)
C15 C -0.02401(12) 1.12928(18) 0.23376(10)
C16 C -0.12544(15) 1.3034(2) 0.28869(14)
C17 C -0.1012(2) 1.4467(3) 0.3247(3)
H11 H -0.0568 1.4314 0.3671
H12 H -0.1574 1.4910 0.3391
H13 H -0.0738 1.5099 0.2911
C18 C -0.1966(2) 1.3222(4) 0.22158(19)
H14 H -0.2114 1.2283 0.1999
H15 H -0.1703 1.3840 0.1868
H16 H -0.2532 1.3660 0.2357
C19 C -0.1591(2) 1.1939(3) 0.34022(16)
H17 H -0.1136 1.1853 0.3824
H18 H -0.1670 1.1008 0.3163
H19 H -0.2185 1.2253 0.3551
C20 C 0.12865(13) 1.00677(18) 0.13383(10)
C21 C 0.2089(2) 0.8822(2) 0.03995(12)
C22 C 0.1325(4) 0.9131(4) -0.02125(15)
H20 H 0.1128 1.0132 -0.0187
H21 H 0.0796 0.8500 -0.0168
H22 H 0.1563 0.8959 -0.0673
C23 C 0.2896(4) 0.9882(5) 0.0452(3)
H23 H 0.3354 0.9607 0.0849
H24 H 0.2666 1.0847 0.0535
H25 H 0.3184 0.9869 0.0003
C24 C 0.2415(2) 0.7257(3) 0.03680(14)
H26 H 0.2907 0.7081 0.0757
H27 H 0.2651 0.7079 -0.0093
H28 H 0.1894 0.6614 0.0420
loop_
_geom_bond_atom_site_label_1
_geom_bond_atom_site_label_2
_geom_bond_site_symmetry_1
_geom_bond_site_symmetry_2
F1 C8 1_555 1_555
O1 C14 1_555 1_555
O2 C15 1_555 1_555
O3 C15 1_555 1_555
O4 C20 1_555 1_555
O5 C20 1_555 1_555
N1 H1 1_555 1_555
N2 H2 1_555 1_555
N3 N2 1_555 1_555
C1 C2 1_555 1_555
C2 H3 1_555 1_555
C3 C2 1_555 1_555
H4 C3 1_555 1_555
C4 C3 1_555 1_555
H5 C4 1_555 1_555
C5 C4 1_555 1_555
H6 C5 1_555 1_555
C6 C1 1_555 1_555
H7 C6 1_555 1_555
C7 H8 1_555 1_555
C8 C7 1_555 1_555
C9 C8 1_555 1_555
H9 C9 1_555 1_555
C10 C9 1_555 1_555
H10 C10 1_555 1_555
C11 N1 1_555 1_555
C12 C7 1_555 1_555
C13 N3 1_555 1_555
C14 N1 1_555 1_555
C15 N2 1_555 1_555
C16 O3 1_555 1_555
C17 C16 1_555 1_555
H11 C17 1_555 1_555
H12 C17 1_555 1_555
H13 C17 1_555 1_555
C18 C16 1_555 1_555
H14 C18 1_555 1_555
H15 C18 1_555 1_555
H16 C18 1_555 1_555
C19 C16 1_555 1_555
H17 C19 1_555 1_555
H18 C19 1_555 1_555
H19 C19 1_555 1_555
C20 N3 1_555 1_555
C21 O5 1_555 1_555
C22 C21 1_555 1_555
H20 C22 1_555 1_555
H21 C22 1_555 1_555
H22 C22 1_555 1_555
C23 C21 1_555 1_555
H23 C23 1_555 1_555
H24 C23 1_555 1_555
H25 C23 1_555 1_555
C24 C21 1_555 1_555
H26 C24 1_555 1_555
H27 C24 1_555 1_555
H28 C24 1_555 1_555
C1 C13 1_555 1_555
C5 C6 1_555 1_555
C10 C11 1_555 1_555
C11 C12 1_555 1_555
C12 C13 1_555 1_555
C13 C14 1_555 1_555

#END
