
#######################################################################
#
#                 Cambridge Crystallographic Data Centre
#                                CCDC 
#
#######################################################################
#
# If this CIF has been generated from an entry in the Cambridge 
# Structural Database, then it will include bibliographic, chemical, 
# crystal, experimental, refinement or atomic coordinate data resulting 
# from the CCDC's data processing and validation procedures.
#
#######################################################################

data_VASNOV
_chemical_formula_moiety         'C30 H32 N2'
_chemical_name_systematic        
3,3'-(1,3-phenylene)bis(7,7-dimethyl-5,6,7,8-tetrahydro-6,8-methanoisoquinoline)
_symmetry_cell_setting           orthorhombic
_symmetry_space_group_name_H-M   'P 21 21 21'
_symmetry_Int_Tables_number      19
_space_group_name_Hall           'P 2ac 2ab'
loop_
_symmetry_equiv_pos_site_id
_symmetry_equiv_pos_as_xyz
1 x,y,z
2 1/2-x,-y,1/2+z
3 -x,1/2+y,1/2-z
4 1/2+x,1/2-y,-z
_cell_length_a                   7.8388(11)
_cell_length_b                   8.0514(12)
_cell_length_c                   37.817(6)
_cell_angle_alpha                90
_cell_angle_beta                 90
_cell_angle_gamma                90
_cell_volume                     2386.76
_exptl_crystal_colour            colorless
_exptl_crystal_description       block
_cell_formula_units_Z            4
loop_
_atom_site_label
_atom_site_type_symbol
_atom_site_fract_x
_atom_site_fract_y
_atom_site_fract_z
N1 N 0.6676(2) 0.5194(2) 0.84154(4)
C1 C 0.5021(3) 0.1433(3) 0.88244(5)
H1 H 0.3886 0.1751 0.8846
N2 N 0.2930(2) -0.0188(2) 0.93130(5)
C2 C 0.3311(3) -0.3583(2) 0.94359(5)
C3 C 0.1877(3) -0.2753(3) 0.95585(5)
C4 C 0.6109(3) 0.2421(3) 0.86259(5)
C5 C 0.5553(2) -0.0007(3) 0.89911(5)
C6 C 0.1760(3) -0.6067(3) 0.96706(5)
H2 H 0.1717 -0.7267 0.9713
C7 C 0.4309(2) -0.1006(3) 0.91974(5)
C8 C 0.7799(3) 0.1916(3) 0.85925(6)
H3 H 0.8554 0.2542 0.8457
C9 C 0.0141(3) -0.5316(3) 0.94950(6)
C10 C 0.4460(2) 0.7003(3) 0.81997(5)
C11 C 0.3381(3) -0.5444(3) 0.94920(6)
H4 H 0.4360 -0.5717 0.9638
H5 H 0.3518 -0.5995 0.9266
C12 C 0.3263(3) 0.5744(3) 0.82411(5)
C13 C 0.0529(3) -0.3776(3) 0.97334(6)
H6 H -0.0462 -0.3172 0.9825
C14 C 0.5504(2) 0.3990(3) 0.84644(5)
C15 C 0.2626(3) 0.8423(4) 0.77476(6)
C16 C 0.3824(3) 0.8652(3) 0.80762(6)
H7 H 0.4670 0.9545 0.8061
C17 C 0.3806(3) 0.4232(3) 0.83732(5)
H8 H 0.3027 0.3370 0.8401
C18 C 0.7260(3) -0.0466(3) 0.89560(6)
H9 H 0.7655 -0.1423 0.9067
C19 C 0.2202(3) 0.9030(4) 0.82888(7)
H10 H 0.1854 1.0185 0.8282
H11 H 0.2218 0.8606 0.8529
C20 C 0.6131(2) 0.6640(3) 0.82876(5)
H12 H 0.6938 0.7472 0.8255
C21 C 0.4526(3) -0.2698(3) 0.92561(5)
H13 H 0.5500 -0.3230 0.9173
C22 C 0.1404(4) -0.4994(3) 0.99912(6)
H14 H 0.2418 -0.4554 1.0104
H15 H 0.0638 -0.5495 1.0162
C23 C 0.1767(3) -0.1072(3) 0.94900(6)
H16 H 0.0810 -0.0512 0.9573
C24 C 0.1263(3) 0.7912(4) 0.80239(6)
H17 H 0.0098 0.8266 0.7968
C25 C 0.1428(3) 0.6112(4) 0.81376(6)
H18 H 0.1087 0.5389 0.7945
H19 H 0.0681 0.5900 0.8337
C26 C 0.0134(4) -0.5130(4) 0.90950(6)
H20 H -0.0930 -0.4653 0.9021
H21 H 0.0271 -0.6201 0.8987
H22 H 0.1055 -0.4418 0.9024
C27 C 0.8363(3) 0.0485(3) 0.87593(6)
H23 H 0.9499 0.0166 0.8738
C28 C 0.3146(4) 0.7195(6) 0.74669(6)
H24 H 0.4115 0.7616 0.7340
H25 H 0.2216 0.7030 0.7305
H26 H 0.3437 0.6156 0.7576
C29 C 0.2200(4) 1.0111(5) 0.75748(9)
H27 H 0.1348 0.9954 0.7396
H28 H 0.3212 1.0568 0.7470
H29 H 0.1775 1.0861 0.7752
C30 C -0.1462(3) -0.6247(4) 0.96080(9)
H30 H -0.1496 -0.7308 0.9492
H31 H -0.2451 -0.5614 0.9543
H32 H -0.1447 -0.6406 0.9860
loop_
_geom_bond_atom_site_label_1
_geom_bond_atom_site_label_2
_geom_bond_site_symmetry_1
_geom_bond_site_symmetry_2
N1 C14 1_555 1_555
C1 H1 1_555 1_555
N2 C7 1_555 1_555
C2 C3 1_555 1_555
C3 C13 1_555 1_555
C4 C1 1_555 1_555
C5 C1 1_555 1_555
C6 H2 1_555 1_555
C7 C5 1_555 1_555
C8 C4 1_555 1_555
H3 C8 1_555 1_555
C9 C6 1_555 1_555
C10 C12 1_555 1_555
C11 C2 1_555 1_555
H4 C11 1_555 1_555
H5 C11 1_555 1_555
C12 C17 1_555 1_555
C13 C9 1_555 1_555
H6 C13 1_555 1_555
C14 C4 1_555 1_555
C15 C16 1_555 1_555
C16 C10 1_555 1_555
H7 C16 1_555 1_555
C17 C14 1_555 1_555
H8 C17 1_555 1_555
C18 C5 1_555 1_555
H9 C18 1_555 1_555
C19 C16 1_555 1_555
H10 C19 1_555 1_555
H11 C19 1_555 1_555
C20 N1 1_555 1_555
H12 C20 1_555 1_555
C21 C2 1_555 1_555
H13 C21 1_555 1_555
C22 C6 1_555 1_555
H14 C22 1_555 1_555
H15 C22 1_555 1_555
C23 N2 1_555 1_555
H16 C23 1_555 1_555
C24 C15 1_555 1_555
H17 C24 1_555 1_555
C25 C12 1_555 1_555
H18 C25 1_555 1_555
H19 C25 1_555 1_555
C26 C9 1_555 1_555
H20 C26 1_555 1_555
H21 C26 1_555 1_555
H22 C26 1_555 1_555
C27 C8 1_555 1_555
H23 C27 1_555 1_555
C28 C15 1_555 1_555
H24 C28 1_555 1_555
H25 C28 1_555 1_555
H26 C28 1_555 1_555
C29 C15 1_555 1_555
H27 C29 1_555 1_555
H28 C29 1_555 1_555
H29 C29 1_555 1_555
C30 C9 1_555 1_555
H30 C30 1_555 1_555
H31 C30 1_555 1_555
H32 C30 1_555 1_555
C3 C23 1_555 1_555
C6 C11 1_555 1_555
C7 C21 1_555 1_555
C10 C20 1_555 1_555
C13 C22 1_555 1_555
C18 C27 1_555 1_555
C19 C24 1_555 1_555
C24 C25 1_555 1_555

#END
