
#######################################################################
#
#                 Cambridge Crystallographic Data Centre
#                                CCDC 
#
#######################################################################
#
# If this CIF has been generated from an entry in the Cambridge 
# Structural Database, then it will include bibliographic, chemical, 
# crystal, experimental, refinement or atomic coordinate data resulting 
# from the CCDC's data processing and validation procedures.
#
#######################################################################

data_VASQAJ
_chemical_formula_moiety         'C30 H32 Br1 N1 O3'
_chemical_name_systematic        
't-Butyl 3-(4-bromobenzyl)-1-(diphenylmethyl)-2-oxopiperidine-3-carboxylate'
_symmetry_cell_setting           orthorhombic
_symmetry_space_group_name_H-M   'P 21 21 21'
_symmetry_Int_Tables_number      19
_space_group_name_Hall           'P 2ac 2ab'
loop_
_symmetry_equiv_pos_site_id
_symmetry_equiv_pos_as_xyz
1 x,y,z
2 1/2+x,1/2-y,-z
3 -x,1/2+y,1/2-z
4 1/2-x,-y,1/2+z
_cell_length_a                   8.9279(12)
_cell_length_b                   13.7299(17)
_cell_length_c                   22.471(3)
_cell_angle_alpha                90
_cell_angle_beta                 90
_cell_angle_gamma                90
_cell_volume                     2754.48
_exptl_crystal_colour            colorless
_exptl_crystal_description       block
_cell_formula_units_Z            4
_exptl_crystal_recrystallization_method ethylacetate/hexane
loop_
_atom_site_label
_atom_site_type_symbol
_atom_site_fract_x
_atom_site_fract_y
_atom_site_fract_z
Br1 Br 1.14422(12) 0.71201(7) 0.45128(4)
O1 O 0.4234(4) 0.6440(3) 0.30170(16)
O2 O 0.5478(6) 0.6324(5) 0.1387(2)
O3 O 0.3842(5) 0.5341(3) 0.18507(14)
N1 N 0.4970(5) 0.4921(3) 0.32528(17)
C1 C 1.0062(9) 0.6939(5) 0.3884(3)
C2 C 1.0588(8) 0.6735(5) 0.3332(3)
C3 C 0.9592(7) 0.6644(5) 0.2870(3)
C4 C 0.8579(10) 0.7052(5) 0.3971(3)
C5 C 0.7578(8) 0.6943(5) 0.3501(3)
C6 C 0.8057(7) 0.6747(4) 0.2946(3)
C7 C 0.7017(7) 0.6692(4) 0.2425(3)
C8 C 0.4995(6) 0.5728(5) 0.2902(3)
C9 C 0.6058(7) 0.5754(4) 0.2377(3)
C10 C 0.7032(7) 0.4856(4) 0.2305(3)
C11 C 0.6209(8) 0.3933(4) 0.2480(3)
C12 C 0.5739(7) 0.3998(4) 0.3126(3)
C13 C 0.4084(6) 0.4947(4) 0.3805(2)
C14 C 0.5094(8) 0.5860(5) 0.1818(3)
C15 C 0.2789(8) 0.5280(6) 0.1344(3)
C16 C 0.5765(8) 0.5251(5) 0.4673(3)
C17 C 0.6619(10) 0.4939(9) 0.5155(4)
C18 C 0.6700(10) 0.3961(9) 0.5289(4)
C19 C 0.5925(9) 0.3307(6) 0.4958(3)
C20 C 0.5060(7) 0.3604(5) 0.4482(3)
C21 C 0.2569(7) 0.4468(4) 0.3732(3)
C22 C 0.1663(8) 0.4386(6) 0.4219(4)
C23 C 0.0260(11) 0.4006(9) 0.4199(6)
C24 C 0.2025(7) 0.4159(5) 0.3206(4)
C25 C 0.4977(7) 0.4578(5) 0.4330(3)
C26 C 0.1529(9) 0.4687(6) 0.1603(3)
C27 C -0.0229(11) 0.3662(7) 0.3657(7)
C28 C 0.0621(11) 0.3761(6) 0.3153(5)
C29 C 0.2243(9) 0.6272(7) 0.1168(4)
C30 C 0.3508(11) 0.4718(7) 0.0845(3)
H1 H 0.5720 0.5910 0.4580
H2 H 0.7135 0.5390 0.5386
H3 H 0.7285 0.3750 0.5606
H4 H 0.5977 0.2648 0.5053
H5 H 0.4529 0.3146 0.4262
H6 H 0.2026 0.4603 0.4583
H7 H -0.0343 0.3979 0.4536
H8 H 0.2619 0.4218 0.2868
H9 H -0.1156 0.3356 0.3633
H10 H 0.0257 0.3563 0.2784
H11 H 0.1714 0.4008 0.1534
H12 H 0.0603 0.4871 0.1417
H13 H 0.1465 0.4805 0.2024
H14 H 0.1350 0.6426 0.1386
H15 H 0.2029 0.6280 0.0749
H16 H 0.3003 0.6747 0.1255
H17 H 0.4049 0.5159 0.0592
H18 H 0.2748 0.4393 0.0618
H19 H 0.4187 0.4245 0.1007
H20 H 1.1610 0.6656 0.3268
H21 H 0.9960 0.6510 0.2492
H22 H 0.8222 0.7204 0.4349
H23 H 0.6556 0.7007 0.3572
H24 H 0.7606 0.6753 0.2064
H25 H 0.6346 0.7247 0.2441
H26 H 0.7351 0.4805 0.1893
H27 H 0.7920 0.4924 0.2550
H28 H 0.5332 0.3851 0.2230
H29 H 0.6857 0.3374 0.2423
H30 H 0.5076 0.3459 0.3219
H31 H 0.6617 0.3943 0.3378
H32 H 0.3883 0.5637 0.3885
loop_
_geom_bond_atom_site_label_1
_geom_bond_atom_site_label_2
_geom_bond_site_symmetry_1
_geom_bond_site_symmetry_2
Br1 C1 1_555 1_555
O1 C8 1_555 1_555
O2 C14 1_555 1_555
O3 C14 1_555 1_555
N1 C8 1_555 1_555
C1 C2 1_555 1_555
C2 C3 1_555 1_555
C3 C6 1_555 1_555
C4 C1 1_555 1_555
C5 C4 1_555 1_555
C6 C5 1_555 1_555
C7 C6 1_555 1_555
C8 C9 1_555 1_555
C9 C7 1_555 1_555
C10 C9 1_555 1_555
C11 C10 1_555 1_555
C12 N1 1_555 1_555
C13 N1 1_555 1_555
C14 C9 1_555 1_555
C15 O3 1_555 1_555
C16 C17 1_555 1_555
C17 C18 1_555 1_555
C18 C19 1_555 1_555
C19 C20 1_555 1_555
C20 C25 1_555 1_555
C21 C13 1_555 1_555
C22 C21 1_555 1_555
C23 C22 1_555 1_555
C24 C21 1_555 1_555
C25 C13 1_555 1_555
C26 C15 1_555 1_555
C27 C23 1_555 1_555
C28 C24 1_555 1_555
C29 C15 1_555 1_555
C30 C15 1_555 1_555
H1 C16 1_555 1_555
H2 C17 1_555 1_555
H3 C18 1_555 1_555
H4 C19 1_555 1_555
H5 C20 1_555 1_555
H6 C22 1_555 1_555
H7 C23 1_555 1_555
H8 C24 1_555 1_555
H9 C27 1_555 1_555
H10 C28 1_555 1_555
H11 C26 1_555 1_555
H12 C26 1_555 1_555
H13 C26 1_555 1_555
H14 C29 1_555 1_555
H15 C29 1_555 1_555
H16 C29 1_555 1_555
H17 C30 1_555 1_555
H18 C30 1_555 1_555
H19 C30 1_555 1_555
H20 C2 1_555 1_555
H21 C3 1_555 1_555
H22 C4 1_555 1_555
H23 C5 1_555 1_555
H24 C7 1_555 1_555
H25 C7 1_555 1_555
H26 C10 1_555 1_555
H27 C10 1_555 1_555
H28 C11 1_555 1_555
H29 C11 1_555 1_555
H30 C12 1_555 1_555
H31 C12 1_555 1_555
H32 C13 1_555 1_555
C11 C12 1_555 1_555
C16 C25 1_555 1_555
C27 C28 1_555 1_555

#END
