
#######################################################################
#
#                 Cambridge Crystallographic Data Centre
#                                CCDC 
#
#######################################################################
#
# If this CIF has been generated from an entry in the Cambridge 
# Structural Database, then it will include bibliographic, chemical, 
# crystal, experimental, refinement or atomic coordinate data resulting 
# from the CCDC's data processing and validation procedures.
#
#######################################################################

data_VASSIT
_chemical_formula_moiety         'C20 H14 Cl1 F3 N2 O3'
_chemical_name_systematic        
'Methyl 5-(4-chlorophenyl)-1-phenyl-3-(trifluoromethyl)-4,5-dihydro-1H-furo[2,3-c]pyrazole-4-carboxylate'
_symmetry_cell_setting           monoclinic
_symmetry_space_group_name_H-M   'P 21/c'
_symmetry_Int_Tables_number      14
_space_group_name_Hall           '-P 2ybc'
loop_
_symmetry_equiv_pos_site_id
_symmetry_equiv_pos_as_xyz
1 x,y,z
2 -x,1/2+y,1/2-z
3 -x,-y,-z
4 x,1/2-y,1/2+z
_cell_length_a                   7.935(2)
_cell_length_b                   15.050(4)
_cell_length_c                   16.356(4)
_cell_angle_alpha                90
_cell_angle_beta                 103.254(3)
_cell_angle_gamma                90
_cell_volume                     1901.23
_cell_formula_units_Z            4
loop_
_atom_site_label
_atom_site_type_symbol
_atom_site_fract_x
_atom_site_fract_y
_atom_site_fract_z
C1 C 0.5689(3) 0.45564(15) 0.91223(13)
C2 C 0.7037(4) 0.43374(19) 0.97875(16)
H1 H 0.8012 0.4698 0.9933
C3 C 0.6905(5) 0.3566(2) 1.02362(18)
H2 H 0.7809 0.3411 1.0684
C4 C 0.5480(5) 0.3031(2) 1.00352(19)
H3 H 0.5409 0.2520 1.0345
C5 C 0.4167(4) 0.32559(18) 0.93759(18)
H4 H 0.3196 0.2893 0.9234
C6 C 0.4257(4) 0.40199(16) 0.89117(16)
H5 H 0.3352 0.4167 0.8461
C7 C 0.6892(3) 0.65519(15) 0.82998(14)
C8 C 0.5218(3) 0.65063(14) 0.77953(13)
C9 C 0.3840(3) 0.69232(14) 0.71300(13)
H6 H 0.4285 0.7035 0.6628
C10 C 0.2485(3) 0.61361(14) 0.69558(13)
H7 H 0.1324 0.6374 0.6930
C11 C 0.4591(3) 0.57493(14) 0.80463(13)
C12 C 0.2485(2) 0.56492(13) 0.61493(13)
C13 C 0.1712(3) 0.60514(16) 0.53961(14)
H8 H 0.1190 0.6604 0.5401
C14 C 0.1703(3) 0.56470(17) 0.46382(15)
H9 H 0.1194 0.5927 0.4135
C15 C 0.2455(3) 0.48272(16) 0.46367(15)
C16 C 0.3243(3) 0.44213(17) 0.53728(17)
H10 H 0.3770 0.3870 0.5364
C17 C 0.3256(3) 0.48306(15) 0.61295(15)
H11 H 0.3788 0.4552 0.6630
C18 C 0.8235(3) 0.72363(18) 0.83074(17)
C19 C 0.3095(3) 0.77732(15) 0.73987(14)
C20 C 0.0932(4) 0.88661(18) 0.6956(2)
H12 H 0.0340 0.8777 0.7400
H13 H 0.0115 0.9043 0.6454
H14 H 0.1791 0.9322 0.7116
Cl1 Cl 0.23998(10) 0.42914(5) 0.36855(5)
F1 F 0.9600(2) 0.69247(13) 0.80609(13)
F2 F 0.8870(2) 0.75716(13) 0.90566(12)
F3 F 0.7633(2) 0.79072(13) 0.78126(16)
N1 N 0.5781(2) 0.53505(12) 0.86597(11)
N2 N 0.7257(2) 0.58617(13) 0.88232(12)
O1 O 0.29561(19) 0.55135(10) 0.76747(9)
O2 O 0.3622(3) 0.81574(13) 0.80425(12)
O3 O 0.1765(2) 0.80446(11) 0.68028(11)
loop_
_geom_bond_atom_site_label_1
_geom_bond_atom_site_label_2
_geom_bond_site_symmetry_1
_geom_bond_site_symmetry_2
C1 C2 1_555 1_555
C2 H1 1_555 1_555
C3 C2 1_555 1_555
H2 C3 1_555 1_555
C4 C3 1_555 1_555
H3 C4 1_555 1_555
C5 C4 1_555 1_555
H4 C5 1_555 1_555
C6 C1 1_555 1_555
H5 C6 1_555 1_555
C7 C8 1_555 1_555
C8 C9 1_555 1_555
C9 H6 1_555 1_555
C10 C9 1_555 1_555
H7 C10 1_555 1_555
C11 C8 1_555 1_555
C12 C10 1_555 1_555
C13 C12 1_555 1_555
H8 C13 1_555 1_555
C14 C13 1_555 1_555
H9 C14 1_555 1_555
C15 C14 1_555 1_555
C16 C15 1_555 1_555
H10 C16 1_555 1_555
C17 C12 1_555 1_555
H11 C17 1_555 1_555
C18 C7 1_555 1_555
C19 C9 1_555 1_555
C20 H12 1_555 1_555
H13 C20 1_555 1_555
H14 C20 1_555 1_555
Cl1 C15 1_555 1_555
F1 C18 1_555 1_555
F2 C18 1_555 1_555
F3 C18 1_555 1_555
N1 C1 1_555 1_555
N2 C7 1_555 1_555
O1 C10 1_555 1_555
O2 C19 1_555 1_555
O3 C19 1_555 1_555
C5 C6 1_555 1_555
C11 N1 1_555 1_555
C11 O1 1_555 1_555
C16 C17 1_555 1_555
C20 O3 1_555 1_555
N1 N2 1_555 1_555

#END
