
#######################################################################
#
#                 Cambridge Crystallographic Data Centre
#                                CCDC 
#
#######################################################################
#
# If this CIF has been generated from an entry in the Cambridge 
# Structural Database, then it will include bibliographic, chemical, 
# crystal, experimental, refinement or atomic coordinate data resulting 
# from the CCDC's data processing and validation procedures.
#
#######################################################################

data_VASSIS
_chemical_formula_moiety         'C15 H18 O3 S1'
_chemical_name_systematic        2-Methyl-3-(phenylsulfonyl)-4-n-butylfuran
_symmetry_cell_setting           triclinic
_symmetry_space_group_name_H-M   'P -1'
_symmetry_Int_Tables_number      2
_space_group_name_Hall           '-P 1'
loop_
_symmetry_equiv_pos_site_id
_symmetry_equiv_pos_as_xyz
1 x,y,z
2 -x,-y,-z
_cell_length_a                   7.9303(11)
_cell_length_b                   9.6961(13)
_cell_length_c                   11.1246(15)
_cell_angle_alpha                68.445(2)
_cell_angle_beta                 81.980(3)
_cell_angle_gamma                66.606(2)
_cell_volume                     730.161
_exptl_crystal_colour            colorless
_exptl_crystal_description       needles
_chemical_melting_point          59-60deg.C
_cell_formula_units_Z            2
loop_
_atom_site_label
_atom_site_type_symbol
_atom_site_fract_x
_atom_site_fract_y
_atom_site_fract_z
S1 S 0.31838(7) 0.36398(6) 0.76012(5)
O1 O 0.2095(2) 0.73743(17) 0.85585(18)
O2 O 0.2475(2) 0.24640(18) 0.84057(15)
O3 O 0.2620(2) 0.44387(19) 0.62780(15)
C1 C 0.2684(2) 0.5074(2) 0.8320(2)
C2 C 0.2349(3) 0.6650(3) 0.7669(2)
C3 C 0.2286(3) 0.6230(3) 0.9747(3)
C4 C 0.2655(2) 0.4786(2) 0.9682(2)
C5 C 0.2939(4) 0.3260(3) 1.0769(2)
C6 C 0.2747(4) 0.3402(3) 1.2100(2)
C7 C 0.3019(5) 0.1857(4) 1.3190(3)
C8 C 0.2699(7) 0.2071(5) 1.4488(4)
C9 C 0.2216(6) 0.7694(4) 0.6308(3)
C10 C 0.5593(3) 0.2736(2) 0.76644(18)
C11 C 0.6451(3) 0.1262(2) 0.8593(2)
C12 C 0.8322(3) 0.0581(3) 0.8658(3)
C13 C 0.9354(3) 0.1363(3) 0.7817(3)
C14 C 0.8517(3) 0.2819(3) 0.6912(3)
C15 C 0.6629(3) 0.3514(3) 0.6818(2)
H1 H 0.217(3) 0.654(3) 1.048(2)
H2 H 0.414(3) 0.248(3) 1.075(2)
H3 H 0.209(3) 0.283(3) 1.067(2)
H4 H 0.157(3) 0.420(3) 1.217(3)
H5 H 0.356(3) 0.390(2) 1.223(2)
H6 H 0.215(4) 0.142(4) 1.306(3)
H7 H 0.428(3) 0.109(3) 1.312(2)
H8 H 0.361(5) 0.246(4) 1.461(3)
H9 H 0.155(4) 0.295(4) 1.448(4)
H10 H 0.277(5) 0.117(3) 1.524(3)
H11 H 0.105(7) 0.850(5) 0.619(4)
H12 H 0.324(7) 0.787(6) 0.594(4)
H13 H 0.187(5) 0.738(4) 0.571(3)
H14 H 0.571(3) 0.077(2) 0.9196(19)
H15 H 0.891(3) -0.039(3) 0.928(2)
H16 H 1.061(2) 0.091(2) 0.7879(18)
H17 H 0.917(3) 0.339(3) 0.639(2)
H18 H 0.603(3) 0.450(3) 0.616(2)
loop_
_geom_bond_atom_site_label_1
_geom_bond_atom_site_label_2
_geom_bond_site_symmetry_1
_geom_bond_site_symmetry_2
S1 O2 1_555 1_555
O1 C2 1_555 1_555
O3 S1 1_555 1_555
C1 S1 1_555 1_555
C2 C1 1_555 1_555
C3 O1 1_555 1_555
C4 C1 1_555 1_555
C5 C4 1_555 1_555
C6 C5 1_555 1_555
C7 C6 1_555 1_555
C8 C7 1_555 1_555
C9 C2 1_555 1_555
C10 S1 1_555 1_555
C11 C10 1_555 1_555
C12 C11 1_555 1_555
C13 C12 1_555 1_555
C14 C13 1_555 1_555
C15 C10 1_555 1_555
H1 C3 1_555 1_555
H2 C5 1_555 1_555
H3 C5 1_555 1_555
H4 C6 1_555 1_555
H5 C6 1_555 1_555
H6 C7 1_555 1_555
H7 C7 1_555 1_555
H8 C8 1_555 1_555
H9 C8 1_555 1_555
H10 C8 1_555 1_555
H11 C9 1_555 1_555
H12 C9 1_555 1_555
H13 C9 1_555 1_555
H14 C11 1_555 1_555
H15 C12 1_555 1_555
H16 C13 1_555 1_555
H17 C14 1_555 1_555
H18 C15 1_555 1_555
C3 C4 1_555 1_555
C14 C15 1_555 1_555

#END
