
#######################################################################
#
#                 Cambridge Crystallographic Data Centre
#                                CCDC 
#
#######################################################################
#
# If this CIF has been generated from an entry in the Cambridge 
# Structural Database, then it will include bibliographic, chemical, 
# crystal, experimental, refinement or atomic coordinate data resulting 
# from the CCDC's data processing and validation procedures.
#
#######################################################################

data_VASSEP
_chemical_formula_moiety         'C18 H13 F3 N2 O1'
_chemical_name_systematic        
4-(4-Methylbenzylidene)-2-phenyl-5-(trifluoromethyl)-2,4-dihydro-3H-pyrazol-3-one
_symmetry_cell_setting           monoclinic
_symmetry_space_group_name_H-M   'C 2/c'
_symmetry_Int_Tables_number      15
_space_group_name_Hall           '-C 2yn'
loop_
_symmetry_equiv_pos_site_id
_symmetry_equiv_pos_as_xyz
1 x,y,z
2 -x,y,1/2-z
3 1/2+x,1/2+y,z
4 1/2-x,1/2+y,1/2-z
5 -x,-y,-z
6 x,-y,1/2+z
7 1/2-x,1/2-y,-z
8 1/2+x,1/2-y,1/2+z
_cell_length_a                   21.66(3)
_cell_length_b                   9.463(15)
_cell_length_c                   17.19(3)
_cell_angle_alpha                90
_cell_angle_beta                 116.564(19)
_cell_angle_gamma                90
_cell_volume                     3151.46
_exptl_crystal_colour            red
_exptl_crystal_description       block
_cell_formula_units_Z            8
loop_
_atom_site_label
_atom_site_type_symbol
_atom_site_fract_x
_atom_site_fract_y
_atom_site_fract_z
C1 C 0.6444(2) 1.0346(4) 0.2376(4)
C2 C 0.6566(2) 0.9347(5) 0.1875(4)
H1 H 0.7019 0.9168 0.1979
C3 C 0.60426(19) 0.8615(4) 0.1232(4)
H2 H 0.6149 0.7925 0.0925
C4 C 0.53454(18) 0.8878(4) 0.1020(3)
C5 C 0.5220(2) 0.9882(5) 0.1522(4)
H3 H 0.4768 1.0074 0.1416
C6 C 0.5757(2) 1.0595(5) 0.2174(4)
H4 H 0.5655 1.1272 0.2491
C7 C 0.48291(18) 0.8071(4) 0.0323(3)
H5 H 0.5018 0.7379 0.0111
C8 C 0.41206(17) 0.8092(4) -0.0100(3)
C9 C 0.37072(18) 0.7147(4) -0.0791(3)
C10 C 0.36053(19) 0.9028(5) -0.0015(4)
C11 C 0.22904(18) 0.9008(4) -0.0872(3)
C12 C 0.1739(2) 0.8166(5) -0.1362(4)
H6 H 0.1814 0.7273 -0.1530
C13 C 0.1075(2) 0.8626(6) -0.1609(5)
H7 H 0.0702 0.8053 -0.1949
C14 C 0.0966(2) 0.9926(7) -0.1354(4)
H8 H 0.0517 1.0245 -0.1532
C15 C 0.1506(3) 1.0763(6) -0.0841(4)
H9 H 0.1425 1.1629 -0.0647
C16 C 0.2180(2) 1.0319(5) -0.0607(4)
H10 H 0.2551 1.0902 -0.0276
C17 C 0.7025(2) 1.1136(6) 0.3076(4)
H11 H 0.7323 1.0482 0.3508
H12 H 0.6843 1.1803 0.3341
H13 H 0.7282 1.1629 0.2828
C18 C 0.3930(2) 0.5958(5) -0.1164(4)
F1 F 0.44326(15) 0.6314(3) -0.1366(3)
F2 F 0.41976(18) 0.4916(3) -0.0592(3)
F3 F 0.34396(14) 0.5410(3) -0.1869(3)
N1 N 0.30445(15) 0.7380(3) -0.1097(3)
N2 N 0.29731(14) 0.8520(3) -0.0641(3)
O1 O 0.36757(13) 1.0023(3) 0.0463(3)
loop_
_geom_bond_atom_site_label_1
_geom_bond_atom_site_label_2
_geom_bond_site_symmetry_1
_geom_bond_site_symmetry_2
C1 C2 1_555 1_555
C2 H1 1_555 1_555
C3 C2 1_555 1_555
H2 C3 1_555 1_555
C4 C3 1_555 1_555
C5 C4 1_555 1_555
H3 C5 1_555 1_555
C6 C1 1_555 1_555
H4 C6 1_555 1_555
C7 C4 1_555 1_555
H5 C7 1_555 1_555
C8 C7 1_555 1_555
C9 C8 1_555 1_555
C10 C8 1_555 1_555
C11 C12 1_555 1_555
C12 H6 1_555 1_555
C13 C12 1_555 1_555
H7 C13 1_555 1_555
C14 C13 1_555 1_555
H8 C14 1_555 1_555
C15 C14 1_555 1_555
H9 C15 1_555 1_555
C16 C11 1_555 1_555
H10 C16 1_555 1_555
C17 C1 1_555 1_555
H11 C17 1_555 1_555
H12 C17 1_555 1_555
H13 C17 1_555 1_555
C18 C9 1_555 1_555
F1 C18 1_555 1_555
F2 C18 1_555 1_555
F3 C18 1_555 1_555
N1 C9 1_555 1_555
N2 C10 1_555 1_555
O1 C10 1_555 1_555
C5 C6 1_555 1_555
C11 N2 1_555 1_555
C15 C16 1_555 1_555
N1 N2 1_555 1_555

#END
