
#######################################################################
#
#                 Cambridge Crystallographic Data Centre
#                                CCDC 
#
#######################################################################
#
# If this CIF has been generated from an entry in the Cambridge 
# Structural Database, then it will include bibliographic, chemical, 
# crystal, experimental, refinement or atomic coordinate data resulting 
# from the CCDC's data processing and validation procedures.
#
#######################################################################

data_VASWAO
_chemical_formula_moiety         'C9 H10 N5 O1 1+,F6 P1 1-'
_chemical_name_systematic        
'1-Acetamido-3-(2-pyrimidinyl)imidazolium hexafluorophosphate'
_symmetry_cell_setting           monoclinic
_symmetry_space_group_name_H-M   'P 21/c'
_symmetry_Int_Tables_number      14
_space_group_name_Hall           '-P 2ybc'
loop_
_symmetry_equiv_pos_site_id
_symmetry_equiv_pos_as_xyz
1 x,y,z
2 x,1/2-y,1/2+z
3 -x,-y,-z
4 -x,1/2+y,1/2-z
_cell_length_a                   12.9852(16)
_cell_length_b                   24.937(2)
_cell_length_c                   8.9006(12)
_cell_angle_alpha                90
_cell_angle_beta                 104.745(16)
_cell_angle_gamma                90
_cell_volume                     2787.21
_exptl_crystal_colour            white
_exptl_crystal_description       column
_cell_formula_units_Z            8
loop_
_atom_site_label
_atom_site_type_symbol
_atom_site_fract_x
_atom_site_fract_y
_atom_site_fract_z
P1 P 0.36291(5) 0.34843(3) 0.49575(8)
F13 F 0.3801(8) 0.2907(3) 0.4430(11)
F14 F 0.2476(7) 0.3382(5) 0.5030(14)
F15 F 0.3528(9) 0.4128(3) 0.5285(8)
F16 F 0.4061(10) 0.3454(5) 0.6771(12)
F17 F 0.4794(6) 0.3590(6) 0.4867(15)
F18 F 0.3210(7) 0.3531(5) 0.3147(10)
P2 P 0.86570(5) 0.37355(3) 0.51170(7)
F19 F 0.8124(17) 0.3188(8) 0.474(2)
F20 F 0.9041(7) 0.4283(5) 0.6058(19)
F21 F 0.7497(12) 0.3992(11) 0.5135(18)
F22 F 0.8922(19) 0.3422(10) 0.671(2)
F23 F 0.8422(12) 0.4020(6) 0.3531(18)
F24 F 0.9755(10) 0.3554(7) 0.5032(17)
O1 O 0.66454(15) 0.28261(7) 0.04826(19)
N1 N 0.41906(13) 0.39333(7) 0.0207(2)
N2 N 0.52007(14) 0.33482(7) 0.1623(2)
N3 N 0.24232(15) 0.38770(8) -0.1121(3)
N4 N 0.34423(16) 0.46500(8) -0.1331(3)
N5 N 0.68832(18) 0.21711(8) 0.2259(2)
H1 H 0.7354 0.2010 0.1895
H2 H 0.6704 0.2041 0.3051
C1 C 0.42696(17) 0.34213(8) 0.0660(3)
H5 H 0.3748 0.3160 0.0342
C2 C 0.51207(17) 0.41901(9) 0.0931(3)
H6 H 0.5284 0.4549 0.0826
C3 C 0.57443(19) 0.38243(9) 0.1815(3)
H7 H 0.6425 0.3882 0.2447
C4 C 0.32842(17) 0.41710(9) -0.0827(3)
C5 C 0.1584(2) 0.41050(12) -0.2095(4)
H8 H 0.0941 0.3920 -0.2347
C6 C 0.1631(2) 0.45961(12) -0.2733(4)
H9 H 0.1041 0.4747 -0.3422
C7 C 0.2579(2) 0.48569(11) -0.2318(4)
H10 H 0.2632 0.5194 -0.2738
C8 C 0.56198(19) 0.28435(9) 0.2354(3)
H11 H 0.5041 0.2589 0.2261
H12 H 0.5939 0.2903 0.3451
C9 C 0.64400(17) 0.26134(8) 0.1608(2)
O2 O 1.10218(19) 0.21839(8) 0.5180(2)
N6 N 0.88939(14) 0.09618(7) 0.5193(2)
N7 N 0.98111(16) 0.15924(8) 0.6541(2)
N8 N 0.71599(17) 0.09700(8) 0.3697(2)
N9 N 0.82320(17) 0.01906(8) 0.3845(3)
N10 N 1.15537(17) 0.27279(8) 0.7245(2)
H3 H 1.2028 0.2885 0.6881
H4 H 1.1466 0.2821 0.8135
C10 C 0.8887(2) 0.14772(9) 0.5606(3)
H13 H 0.8320 0.1714 0.5282
C11 C 0.9869(2) 0.07515(11) 0.5926(3)
H14 H 1.0095 0.0401 0.5852
C12 C 1.0432(2) 0.11453(11) 0.6763(4)
H15 H 1.1123 0.1119 0.7386
C13 C 0.80322(19) 0.06886(9) 0.4173(3)
C14 C 0.6363(2) 0.07094(13) 0.2722(4)
H16 H 0.5719 0.0886 0.2336
C15 C 0.6463(2) 0.01918(13) 0.2273(4)
H17 H 0.5905 0.0014 0.1592
C16 C 0.7409(3) -0.00500(12) 0.2863(4)
H18 H 0.7494 -0.0402 0.2573
C17 C 1.0158(2) 0.21153(10) 0.7208(3)
H19 H 1.0469 0.2079 0.8316
H20 H 0.9551 0.2354 0.7056
C18 C 1.0967(2) 0.23479(9) 0.6447(3)
F1? F 0.3423(13) 0.2861(4) 0.5001(19)
F2? F 0.2448(9) 0.3568(9) 0.496(2)
F3? F 0.3825(11) 0.4014(5) 0.5305(17)
F4? F 0.3930(13) 0.3304(8) 0.6690(15)
F5? F 0.4780(7) 0.3394(7) 0.4949(17)
F6? F 0.3285(10) 0.3661(5) 0.3242(13)
F7? F 0.8479(9) 0.3161(4) 0.4331(15)
F8? F 0.8916(8) 0.4305(3) 0.5524(17)
F9? F 0.7482(6) 0.3729(5) 0.5234(11)
F10? F 0.8960(12) 0.3588(6) 0.6885(10)
F11? F 0.8305(6) 0.3900(4) 0.3337(9)
F12? F 0.9836(4) 0.3673(4) 0.5023(10)
loop_
_geom_bond_atom_site_label_1
_geom_bond_atom_site_label_2
_geom_bond_site_symmetry_1
_geom_bond_site_symmetry_2
P1 F13 1_555 1_555
P2 F19 1_555 1_555
F14 P1 1_555 1_555
F15 P1 1_555 1_555
F16 P1 1_555 1_555
F17 P1 1_555 1_555
F18 P1 1_555 1_555
F20 P2 1_555 1_555
F21 P2 1_555 1_555
F22 P2 1_555 1_555
F23 P2 1_555 1_555
F24 P2 1_555 1_555
O1 C9 1_555 1_555
O2 C18 1_555 1_555
N1 C1 1_555 1_555
N2 C1 1_555 1_555
N3 C4 1_555 1_555
N4 C4 1_555 1_555
N5 H1 1_555 1_555
H2 N5 1_555 1_555
N6 C10 1_555 1_555
N7 C10 1_555 1_555
N8 C13 1_555 1_555
N9 C13 1_555 1_555
N10 H3 1_555 1_555
H4 N10 1_555 1_555
C1 H5 1_555 1_555
C2 N1 1_555 1_555
H6 C2 1_555 1_555
C3 N2 1_555 1_555
H7 C3 1_555 1_555
C4 N1 1_555 1_555
C5 N3 1_555 1_555
H8 C5 1_555 1_555
C6 C5 1_555 1_555
H9 C6 1_555 1_555
C7 N4 1_555 1_555
H10 C7 1_555 1_555
C8 N2 1_555 1_555
H11 C8 1_555 1_555
H12 C8 1_555 1_555
C9 N5 1_555 1_555
C10 H13 1_555 1_555
C11 N6 1_555 1_555
H14 C11 1_555 1_555
C12 N7 1_555 1_555
H15 C12 1_555 1_555
C13 N6 1_555 1_555
C14 N8 1_555 1_555
H16 C14 1_555 1_555
C15 C14 1_555 1_555
H17 C15 1_555 1_555
C16 N9 1_555 1_555
H18 C16 1_555 1_555
C17 N7 1_555 1_555
H19 C17 1_555 1_555
H20 C17 1_555 1_555
C18 N10 1_555 1_555
C2 C3 1_555 1_555
C6 C7 1_555 1_555
C8 C9 1_555 1_555
C11 C12 1_555 1_555
C15 C16 1_555 1_555
C17 C18 1_555 1_555

#END
