
#######################################################################
#
#                 Cambridge Crystallographic Data Centre
#                                CCDC 
#
#######################################################################
#
# If this CIF has been generated from an entry in the Cambridge 
# Structural Database, then it will include bibliographic, chemical, 
# crystal, experimental, refinement or atomic coordinate data resulting 
# from the CCDC's data processing and validation procedures.
#
#######################################################################

data_VATFED
_chemical_formula_moiety         'C16 H16 O4'
_chemical_name_systematic        
3,6-Dihydroxy-13-methyl-10-methylene-13-vinyl-12-oxatricyclo[7.3.1.0^2,7^]trideca-2,4,6-trien-8-one
_symmetry_cell_setting           orthorhombic
_symmetry_space_group_name_H-M   'P 21 21 21'
_symmetry_Int_Tables_number      19
_space_group_name_Hall           'P 2ac 2ab'
loop_
_symmetry_equiv_pos_site_id
_symmetry_equiv_pos_as_xyz
1 x,y,z
2 1/2-x,-y,1/2+z
3 -x,1/2+y,1/2-z
4 1/2+x,1/2-y,-z
_cell_length_a                   9.4093(11)
_cell_length_b                   11.7315(14)
_cell_length_c                   12.2030(14)
_cell_angle_alpha                90
_cell_angle_beta                 90
_cell_angle_gamma                90
_cell_volume                     1347.03
_exptl_crystal_colour            yellow
_exptl_crystal_description       block
_cell_formula_units_Z            4
loop_
_atom_site_label
_atom_site_type_symbol
_atom_site_fract_x
_atom_site_fract_y
_atom_site_fract_z
O1 O 0.24622(14) 0.71171(11) 0.22005(12)
O2 O 0.49926(15) 0.62678(13) 0.24757(11)
H1 H 0.4360 0.6743 0.2542
O3 O 0.32505(15) 0.27199(12) -0.01603(14)
H2 H 0.3939 0.2355 -0.0376
O4 O 0.03590(13) 0.36471(10) 0.09964(11)
C1 C 0.3703(2) 0.36011(16) 0.04793(16)
C2 C 0.5098(2) 0.36856(17) 0.08635(16)
H3 H 0.5760 0.3133 0.0668
C3 C 0.5502(2) 0.45723(17) 0.15248(16)
H4 H 0.6430 0.4606 0.1786
C4 C 0.45444(19) 0.54199(16) 0.18087(14)
C5 C 0.21230(18) 0.62529(15) 0.16887(14)
C6 C 0.05836(18) 0.60713(15) 0.13419(15)
H5 H 0.0093 0.6808 0.1326
C7 C 0.05430(18) 0.55363(15) 0.01903(14)
C8 C 0.12313(19) 0.43688(15) 0.03058(15)
H6 H 0.1271 0.4021 -0.0424
C9 C -0.0998(2) 0.54179(19) -0.02188(18)
H7 H -0.1399 0.6162 -0.0330
H8 H -0.1550 0.5013 0.0316
H9 H -0.1007 0.5005 -0.0898
C10 C 0.1365(2) 0.6218(2) -0.06521(17)
H10 H 0.1753 0.5802 -0.1227
C11 C 0.1592(3) 0.7285(2) -0.0676(2)
H11 H 0.1232 0.7750 -0.0124
H12 H 0.2119 0.7601 -0.1244
C12 C -0.01292(19) 0.53032(17) 0.21673(15)
C13 C -0.0990(2) 0.5695(2) 0.2932(2)
H13 H -0.1376 0.5199 0.3447
H14 H -0.1212 0.6467 0.2957
C14 C 0.0251(2) 0.40596(16) 0.21036(16)
H15 H 0.1152 0.3939 0.2472
H16 H -0.0465 0.3620 0.2489
C15 C 0.31457(18) 0.53602(15) 0.14174(14)
C16 C 0.27280(18) 0.44401(14) 0.07402(14)
loop_
_geom_bond_atom_site_label_1
_geom_bond_atom_site_label_2
_geom_bond_site_symmetry_1
_geom_bond_site_symmetry_2
O1 C5 1_555 1_555
O2 H1 1_555 1_555
O3 H2 1_555 1_555
O4 C8 1_555 1_555
C1 O3 1_555 1_555
C2 C1 1_555 1_555
H3 C2 1_555 1_555
C3 C2 1_555 1_555
H4 C3 1_555 1_555
C4 O2 1_555 1_555
C5 C6 1_555 1_555
C6 H5 1_555 1_555
C7 C6 1_555 1_555
C8 C7 1_555 1_555
H6 C8 1_555 1_555
C9 C7 1_555 1_555
H7 C9 1_555 1_555
H8 C9 1_555 1_555
H9 C9 1_555 1_555
C10 C7 1_555 1_555
H10 C10 1_555 1_555
C11 C10 1_555 1_555
H11 C11 1_555 1_555
H12 C11 1_555 1_555
C12 C6 1_555 1_555
C13 C12 1_555 1_555
H13 C13 1_555 1_555
H14 C13 1_555 1_555
C14 O4 1_555 1_555
H15 C14 1_555 1_555
H16 C14 1_555 1_555
C15 C4 1_555 1_555
C16 C1 1_555 1_555
C3 C4 1_555 1_555
C5 C15 1_555 1_555
C8 C16 1_555 1_555
C12 C14 1_555 1_555
C15 C16 1_555 1_555

#END
