
#######################################################################
#
#                 Cambridge Crystallographic Data Centre
#                                CCDC 
#
#######################################################################
#
# If this CIF has been generated from an entry in the Cambridge 
# Structural Database, then it will include bibliographic, chemical, 
# crystal, experimental, refinement or atomic coordinate data resulting 
# from the CCDC's data processing and validation procedures.
#
#######################################################################

data_VATFON
_chemical_formula_moiety         'C13 H14 O4'
_chemical_name_systematic        
8-Hydroxy-6-methoxy-3,4,5-trimethyl-1H-isochromen-1-one
_symmetry_cell_setting           monoclinic
_symmetry_space_group_name_H-M   'C 2/c'
_symmetry_Int_Tables_number      15
_space_group_name_Hall           '-C 2yn'
loop_
_symmetry_equiv_pos_site_id
_symmetry_equiv_pos_as_xyz
1 x,y,z
2 -x,y,1/2-z
3 1/2+x,1/2+y,z
4 1/2-x,1/2+y,1/2-z
5 -x,-y,-z
6 x,-y,1/2+z
7 1/2-x,1/2-y,-z
8 1/2+x,1/2-y,1/2+z
_cell_length_a                   15.4281(4)
_cell_length_b                   10.3875(2)
_cell_length_c                   13.7317(4)
_cell_angle_alpha                90
_cell_angle_beta                 97.487(2)
_cell_angle_gamma                90
_cell_volume                     2181.87
_exptl_crystal_colour            colorless
_exptl_crystal_description       block
_cell_formula_units_Z            8
loop_
_atom_site_label
_atom_site_type_symbol
_atom_site_fract_x
_atom_site_fract_y
_atom_site_fract_z
C1 C 0.42619(11) 1.08871(16) 0.10024(11)
C2 C 0.44473(11) 0.95381(15) 0.10166(11)
C3 C 0.59893(11) 1.00294(16) 0.15834(11)
C4 C 0.57732(11) 1.12821(16) 0.15626(12)
C5 C 0.53103(11) 0.90457(16) 0.13163(11)
C6 C 0.37432(11) 0.86878(16) 0.07365(11)
C7 C 0.38728(11) 0.73793(16) 0.07575(11)
H1 H 0.3410 0.6819 0.0575
C8 C 0.47094(11) 0.69078(15) 0.10569(11)
C9 C 0.54440(11) 0.77076(16) 0.13347(11)
C10 C 0.63526(11) 1.24212(17) 0.18231(13)
H2 H 0.6623 1.2344 0.2491
H3 H 0.6010 1.3195 0.1751
H4 H 0.6796 1.2455 0.1394
C11 C 0.69428(11) 0.97172(17) 0.18717(13)
H5 H 0.7279 1.0497 0.1905
H6 H 0.7138 0.9152 0.1392
H7 H 0.7019 0.9304 0.2502
C12 C 0.63051(11) 0.70341(17) 0.16338(14)
H8 H 0.6683 0.7169 0.1140
H9 H 0.6205 0.6129 0.1703
H10 H 0.6575 0.7377 0.2249
C13 C 0.41501(13) 0.47656(18) 0.08587(17)
H11 H 0.3739 0.4883 0.1319
H12 H 0.4356 0.3893 0.0890
H13 H 0.3870 0.4947 0.0207
O1 O 0.35391(8) 1.13858(11) 0.07560(9)
O2 O 0.49231(8) 1.17166(11) 0.12877(8)
O3 O 0.29224(7) 0.91280(11) 0.04479(9)
H14 H 0.2920 0.9917 0.0476
O4 O 0.48730(8) 0.56211(11) 0.10962(9)
loop_
_geom_bond_atom_site_label_1
_geom_bond_atom_site_label_2
_geom_bond_site_symmetry_1
_geom_bond_site_symmetry_2
C1 C2 1_555 1_555
C2 C5 1_555 1_555
C3 C4 1_555 1_555
C4 C10 1_555 1_555
C5 C3 1_555 1_555
C6 C2 1_555 1_555
C7 C6 1_555 1_555
H1 C7 1_555 1_555
C8 C7 1_555 1_555
C9 C5 1_555 1_555
C10 H2 1_555 1_555
H3 C10 1_555 1_555
H4 C10 1_555 1_555
C11 C3 1_555 1_555
H5 C11 1_555 1_555
H6 C11 1_555 1_555
H7 C11 1_555 1_555
C12 C9 1_555 1_555
H8 C12 1_555 1_555
H9 C12 1_555 1_555
H10 C12 1_555 1_555
C13 H11 1_555 1_555
H12 C13 1_555 1_555
H13 C13 1_555 1_555
O1 C1 1_555 1_555
O2 C1 1_555 1_555
O3 C6 1_555 1_555
H14 O3 1_555 1_555
O4 C8 1_555 1_555
C4 O2 1_555 1_555
C8 C9 1_555 1_555
C13 O4 1_555 1_555

#END
