
#######################################################################
#
#                 Cambridge Crystallographic Data Centre
#                                CCDC 
#
#######################################################################
#
# If this CIF has been generated from an entry in the Cambridge 
# Structural Database, then it will include bibliographic, chemical, 
# crystal, experimental, refinement or atomic coordinate data resulting 
# from the CCDC's data processing and validation procedures.
#
#######################################################################

data_VATTER
_chemical_formula_moiety         'C10 H10 N1 1+,C6 H2 N3 O7 1-'
_chemical_name_systematic        '2-Methylquinolinium picrate'
_symmetry_cell_setting           triclinic
_symmetry_space_group_name_H-M   'P -1'
_symmetry_Int_Tables_number      2
_space_group_name_Hall           '-P 1'
loop_
_symmetry_equiv_pos_site_id
_symmetry_equiv_pos_as_xyz
1 x,y,z
2 -x,-y,-z
_cell_length_a                   8.1184(9)
_cell_length_b                   9.2331(11)
_cell_length_c                   11.7013(16)
_cell_angle_alpha                71.0570(10)
_cell_angle_beta                 76.0760(10)
_cell_angle_gamma                84.359(2)
_cell_volume                     805.032
_exptl_crystal_colour            yellow
_exptl_crystal_description       block
_cell_formula_units_Z            2
loop_
_atom_site_label
_atom_site_type_symbol
_atom_site_fract_x
_atom_site_fract_y
_atom_site_fract_z
N1 N 0.5945(3) 0.2975(3) 0.6044(2)
H1 H 0.5214 0.2303 0.6528
C1 C 0.6629(4) 0.1270(4) 0.4805(3)
H2 H 0.5777 0.0681 0.5472
H3 H 0.7682 0.0696 0.4765
H4 H 0.6278 0.1490 0.4038
C2 C 0.6859(4) 0.2723(4) 0.5022(3)
C3 C 0.7997(4) 0.3823(4) 0.4209(3)
H5 H 0.8640 0.3670 0.3483
C4 C 0.8176(4) 0.5111(4) 0.4465(3)
H6 H 0.8923 0.5852 0.3904
C5 C 0.7243(4) 0.5347(4) 0.5573(3)
C6 C 0.6091(4) 0.4237(4) 0.6378(3)
C7 C 0.5137(4) 0.4382(4) 0.7487(3)
H7 H 0.4373 0.3632 0.8009
C8 C 0.5333(5) 0.5633(5) 0.7798(3)
H8 H 0.4697 0.5746 0.8541
C9 C 0.6484(5) 0.6757(4) 0.7012(4)
H9 H 0.6616 0.7606 0.7241
C10 C 0.7401(5) 0.6627(4) 0.5931(3)
H10 H 0.8148 0.7393 0.5413
N2 N 0.5041(3) 0.9262(4) 0.8912(2)
N3 N 0.0078(4) 0.6163(4) 1.0864(3)
N4 N -0.0185(3) 1.0598(4) 0.7270(3)
O1 O 0.3104(3) 1.1218(2) 0.71440(19)
O2 O 0.5757(3) 1.0388(3) 0.8224(3)
O3 O 0.5758(3) 0.8249(3) 0.9571(2)
O4 O 0.0881(3) 0.5362(3) 1.1607(2)
O5 O -0.1379(3) 0.5886(3) 1.0889(2)
O6 O -0.0585(4) 1.0005(4) 0.6600(3)
O7 O -0.0542(3) 1.1902(4) 0.7242(3)
C11 C 0.2469(4) 1.0100(4) 0.8020(3)
C12 C 0.3275(4) 0.9067(3) 0.8942(3)
C13 C 0.2489(4) 0.7824(4) 0.9859(3)
H11 H 0.3070 0.7202 1.0441
C14 C 0.0863(4) 0.7499(4) 0.9919(3)
C15 C -0.0026(4) 0.8408(4) 0.9060(3)
H12 H -0.1125 0.8173 0.9085
C16 C 0.0754(4) 0.9649(3) 0.8183(3)
loop_
_geom_bond_atom_site_label_1
_geom_bond_atom_site_label_2
_geom_bond_site_symmetry_1
_geom_bond_site_symmetry_2
N1 H1 1_555 1_555
N2 O2 1_555 1_555
N3 O4 1_555 1_555
N4 O6 1_555 1_555
O1 C11 1_555 1_555
O3 N2 1_555 1_555
O5 N3 1_555 1_555
O7 N4 1_555 1_555
C1 H2 1_555 1_555
H3 C1 1_555 1_555
H4 C1 1_555 1_555
C2 N1 1_555 1_555
C3 C2 1_555 1_555
H5 C3 1_555 1_555
C4 C3 1_555 1_555
H6 C4 1_555 1_555
C5 C4 1_555 1_555
C6 N1 1_555 1_555
C7 C6 1_555 1_555
H7 C7 1_555 1_555
C8 C7 1_555 1_555
H8 C8 1_555 1_555
C9 C8 1_555 1_555
H9 C9 1_555 1_555
C10 C5 1_555 1_555
H10 C10 1_555 1_555
C11 C12 1_555 1_555
C12 N2 1_555 1_555
C13 C12 1_555 1_555
H11 C13 1_555 1_555
C14 N3 1_555 1_555
C15 C14 1_555 1_555
H12 C15 1_555 1_555
C16 N4 1_555 1_555
C1 C2 1_555 1_555
C5 C6 1_555 1_555
C9 C10 1_555 1_555
C11 C16 1_555 1_555
C13 C14 1_555 1_555
C15 C16 1_555 1_555

#END
