
#######################################################################
#
#                 Cambridge Crystallographic Data Centre
#                                CCDC 
#
#######################################################################
#
# If this CIF has been generated from an entry in the Cambridge 
# Structural Database, then it will include bibliographic, chemical, 
# crystal, experimental, refinement or atomic coordinate data resulting 
# from the CCDC's data processing and validation procedures.
#
#######################################################################

data_VATTIV
_chemical_formula_moiety         'C9 H6 O6,C10 H9 N1'
_chemical_name_systematic        
'2-Methylquinoline benzene-1,3,5-tricarboxylic acid'
_symmetry_cell_setting           triclinic
_symmetry_space_group_name_H-M   'P -1'
_symmetry_Int_Tables_number      2
_space_group_name_Hall           '-P 1'
loop_
_symmetry_equiv_pos_site_id
_symmetry_equiv_pos_as_xyz
1 x,y,z
2 -x,-y,-z
_cell_length_a                   9.1239(8)
_cell_length_b                   13.4631(12)
_cell_length_c                   14.5106(16)
_cell_angle_alpha                73.3720(10)
_cell_angle_beta                 76.6220(10)
_cell_angle_gamma                88.549(2)
_cell_volume                     1659.94
_exptl_crystal_colour            colorless
_exptl_crystal_description       block
_cell_formula_units_Z            4
loop_
_atom_site_label
_atom_site_type_symbol
_atom_site_fract_x
_atom_site_fract_y
_atom_site_fract_z
N1 N 0.5518(3) 0.65093(18) 0.85301(18)
C1 C 0.6316(4) 0.7247(2) 0.8643(2)
C2 C 0.5926(4) 0.7589(2) 0.9488(3)
H7 H 0.6515 0.8106 0.9555
C3 C 0.4695(4) 0.7169(3) 1.0204(3)
H8 H 0.4432 0.7400 1.0764
C4 C 0.3812(4) 0.6388(2) 1.0109(2)
C5 C 0.2514(4) 0.5913(3) 1.0816(3)
H9 H 0.2205 0.6119 1.1388
C6 C 0.1700(4) 0.5158(3) 1.0684(3)
H10 H 0.0843 0.4851 1.1162
C7 C 0.2151(4) 0.4843(3) 0.9827(3)
H11 H 0.1586 0.4327 0.9738
C8 C 0.3410(4) 0.5280(2) 0.9118(2)
H12 H 0.3701 0.5065 0.8550
C9 C 0.4263(3) 0.6061(2) 0.9254(2)
C10 C 0.7691(4) 0.7714(3) 0.7848(3)
H13 H 0.8349 0.7173 0.7728
H14 H 0.8210 0.8192 0.8056
H15 H 0.7394 0.8075 0.7251
N2 N 0.8600(3) 0.84860(18) 0.24283(17)
C11 C 0.7670(4) 0.7730(2) 0.2473(2)
C12 C 0.6423(4) 0.7386(3) 0.3273(3)
H16 H 0.5786 0.6847 0.3294
C13 C 0.6145(4) 0.7838(3) 0.4013(3)
H17 H 0.5312 0.7613 0.4541
C14 C 0.7111(4) 0.8644(2) 0.3988(2)
C15 C 0.6915(5) 0.9153(3) 0.4728(3)
H18 H 0.6103 0.8954 0.5273
C16 C 0.7883(5) 0.9922(3) 0.4658(3)
H19 H 0.7734 1.0248 0.5155
C17 C 0.9116(4) 1.0235(3) 0.3843(3)
H20 H 0.9783 1.0765 0.3804
C18 C 0.9342(4) 0.9766(2) 0.3105(2)
H21 H 1.0156 0.9980 0.2562
C19 C 0.8346(3) 0.8963(2) 0.3167(2)
C20 C 0.7978(4) 0.7226(3) 0.1656(3)
H22 H 0.7995 0.7740 0.1038
H23 H 0.7201 0.6704 0.1780
H24 H 0.8937 0.6910 0.1625
O1 O 0.1763(2) 0.74574(16) 0.79859(15)
H1 H 0.1699 0.7071 0.7649
O2 O 0.3844(2) 0.80156(16) 0.67993(15)
O3 O 0.6924(2) 1.09269(15) 0.67763(15)
O4 O 0.6284(2) 1.16663(15) 0.79971(15)
H2 H 0.7019 1.2047 0.7661
O5 O 0.1923(3) 1.02276(17) 1.08183(15)
O6 O 0.0703(3) 0.88195(16) 1.08064(15)
H3 H 0.0200 0.8863 1.1339
C21 C 0.2932(3) 0.8043(2) 0.7590(2)
C22 C 0.6105(3) 1.0979(2) 0.7591(2)
C23 C 0.1732(3) 0.9574(2) 1.0436(2)
C24 C 0.3255(3) 0.8806(2) 0.8085(2)
C25 C 0.4495(3) 0.9500(2) 0.7634(2)
H25 H 0.5100 0.9486 0.7027
C26 C 0.4823(3) 1.02117(19) 0.80934(19)
C27 C 0.3923(3) 1.0222(2) 0.9005(2)
H26 H 0.4154 1.0695 0.9315
C28 C 0.2686(3) 0.9536(2) 0.9457(2)
C29 C 0.2356(3) 0.8827(2) 0.8985(2)
H27 H 0.1525 0.8365 0.9280
O7 O 0.3302(3) 0.67084(16) 0.59005(15)
H4 H 0.3329 0.7097 0.6241
O8 O 0.1367(2) 0.60087(16) 0.71594(16)
O9 O -0.1534(2) 0.30502(15) 0.71028(15)
O10 O -0.0980(2) 0.24224(15) 0.58050(15)
H5 H -0.1713 0.2036 0.6132
O11 O 0.3333(3) 0.38503(17) 0.31307(16)
H6 H 0.3906 0.3893 0.2593
O12 O 0.4713(3) 0.52133(18) 0.30638(16)
C30 C 0.2235(3) 0.6038(2) 0.6329(2)
C31 C -0.0749(3) 0.3049(2) 0.6264(2)
C32 C 0.3697(4) 0.4574(2) 0.3473(2)
C33 C 0.1996(3) 0.5259(2) 0.5836(2)
C34 C 0.0789(3) 0.4538(2) 0.6266(2)
H28 H 0.0154 0.4538 0.6868
C35 C 0.0533(3) 0.38149(19) 0.5792(2)
C36 C 0.1474(3) 0.3824(2) 0.4893(2)
H29 H 0.1293 0.3346 0.4574
C37 C 0.2684(3) 0.4538(2) 0.4461(2)
C38 C 0.2934(3) 0.5253(2) 0.4938(2)
H30 H 0.3742 0.5735 0.4652
loop_
_geom_bond_atom_site_label_1
_geom_bond_atom_site_label_2
_geom_bond_site_symmetry_1
_geom_bond_site_symmetry_2
N1 C1 1_555 1_555
N2 C11 1_555 1_555
O1 H1 1_555 1_555
O2 C21 1_555 1_555
O3 C22 1_555 1_555
O4 H2 1_555 1_555
O5 C23 1_555 1_555
O6 H3 1_555 1_555
O7 H4 1_555 1_555
O8 C30 1_555 1_555
O9 C31 1_555 1_555
O10 H5 1_555 1_555
O11 H6 1_555 1_555
O12 C32 1_555 1_555
C1 C2 1_555 1_555
C2 H7 1_555 1_555
C3 C2 1_555 1_555
H8 C3 1_555 1_555
C4 C3 1_555 1_555
C5 C4 1_555 1_555
H9 C5 1_555 1_555
C6 C5 1_555 1_555
H10 C6 1_555 1_555
C7 C6 1_555 1_555
H11 C7 1_555 1_555
C8 C7 1_555 1_555
H12 C8 1_555 1_555
C9 N1 1_555 1_555
C10 C1 1_555 1_555
H13 C10 1_555 1_555
H14 C10 1_555 1_555
H15 C10 1_555 1_555
C11 C12 1_555 1_555
C12 H16 1_555 1_555
C13 C12 1_555 1_555
H17 C13 1_555 1_555
C14 C13 1_555 1_555
C15 C14 1_555 1_555
H18 C15 1_555 1_555
C16 C15 1_555 1_555
H19 C16 1_555 1_555
C17 C16 1_555 1_555
H20 C17 1_555 1_555
C18 C17 1_555 1_555
H21 C18 1_555 1_555
C19 N2 1_555 1_555
C20 C11 1_555 1_555
H22 C20 1_555 1_555
H23 C20 1_555 1_555
H24 C20 1_555 1_555
C21 O1 1_555 1_555
C22 O4 1_555 1_555
C23 O6 1_555 1_555
C24 C21 1_555 1_555
C25 C24 1_555 1_555
H25 C25 1_555 1_555
C26 C22 1_555 1_555
C27 C26 1_555 1_555
H26 C27 1_555 1_555
C28 C23 1_555 1_555
C29 C24 1_555 1_555
H27 C29 1_555 1_555
C30 O7 1_555 1_555
C31 O10 1_555 1_555
C32 O11 1_555 1_555
C33 C30 1_555 1_555
C34 C33 1_555 1_555
H28 C34 1_555 1_555
C35 C31 1_555 1_555
C36 C35 1_555 1_555
H29 C36 1_555 1_555
C37 C32 1_555 1_555
C38 C33 1_555 1_555
H30 C38 1_555 1_555
C4 C9 1_555 1_555
C8 C9 1_555 1_555
C14 C19 1_555 1_555
C18 C19 1_555 1_555
C25 C26 1_555 1_555
C27 C28 1_555 1_555
C28 C29 1_555 1_555
C34 C35 1_555 1_555
C36 C37 1_555 1_555
C37 C38 1_555 1_555

#END
