
#######################################################################
#
#                 Cambridge Crystallographic Data Centre
#                                CCDC 
#
#######################################################################
#
# If this CIF has been generated from an entry in the Cambridge 
# Structural Database, then it will include bibliographic, chemical, 
# crystal, experimental, refinement or atomic coordinate data resulting 
# from the CCDC's data processing and validation procedures.
#
#######################################################################

data_VATWET
_chemical_formula_moiety         'C16 H25 N1 O6'
_chemical_name_systematic        
'(7-(acetylamino)-6-allyl-2,2-dimethyltetrahydro-4H-(1,3)dioxolo(4,5-c)pyran-4-yl)methyl acetate'
_symmetry_cell_setting           monoclinic
_symmetry_space_group_name_H-M   'C 2'
_symmetry_Int_Tables_number      5
_space_group_name_Hall           'C 2y'
loop_
_symmetry_equiv_pos_site_id
_symmetry_equiv_pos_as_xyz
1 x,y,z
2 -x,y,-z
3 1/2+x,1/2+y,z
4 1/2-x,1/2+y,-z
_cell_length_a                   17.579(4)
_cell_length_b                   4.9780(10)
_cell_length_c                   21.075(4)
_cell_angle_alpha                90
_cell_angle_beta                 105.93(3)
_cell_angle_gamma                90
_cell_volume                     1773.41
_exptl_crystal_colour            colorless
_exptl_crystal_description       blade
_cell_formula_units_Z            4
loop_
_atom_site_label
_atom_site_type_symbol
_atom_site_fract_x
_atom_site_fract_y
_atom_site_fract_z
O1 O -0.1824(2) -0.3805(8) -0.22001(16)
C1 C -0.1473(3) -0.2585(11) -0.2671(2)
H1 H -0.1167 -0.4027 -0.2822
C2 C -0.2133(3) -0.1754(11) -0.3268(2)
H2 H -0.2466 -0.3387 -0.3416
C3 C -0.2667(3) 0.0333(11) -0.3078(2)
H3 H -0.2394 0.2113 -0.2991
C4 C -0.2921(3) -0.0585(10) -0.2486(3)
H4 H -0.3139 0.0975 -0.2293
C5 C -0.2290(4) -0.1973(13) -0.1947(3)
H5 H -0.1930 -0.0562 -0.1690
C6 C -0.2635(4) -0.3494(13) -0.1481(3)
H6 H -0.2998 -0.2327 -0.1319
H7 H -0.2936 -0.5067 -0.1705
O2 O -0.1985(3) -0.4359(10) -0.09373(19)
C7 C -0.2117(6) -0.6485(17) -0.0596(3)
O3 O -0.2740(4) -0.7627(11) -0.0709(3)
C8 C -0.1383(5) -0.7253(19) -0.0068(3)
H8 H -0.0916 -0.6879 -0.0222
H9 H -0.1401 -0.9173 0.0030
H10 H -0.1354 -0.6208 0.0332
N1 N -0.1849(2) -0.0914(9) -0.38195(18)
H11 H -0.1790 0.0809 -0.3887
C9 C -0.1674(3) -0.2726(12) -0.4229(3)
O4 O -0.1708(2) -0.5177(8) -0.41330(19)
C10 C -0.1434(3) -0.1661(12) -0.4808(2)
H12 H -0.1394 0.0301 -0.4778
H13 H -0.1830 -0.2167 -0.5216
H14 H -0.0919 -0.2418 -0.4809
O5 O -0.3401(2) 0.0565(7) -0.35810(17)
C11 C -0.3975(4) -0.1075(12) -0.3387(3)
O6 O -0.3554(2) -0.2398(8) -0.27931(18)
C12 C -0.4624(4) 0.0691(15) -0.3262(3)
H15 H -0.4982 -0.0409 -0.3086
H16 H -0.4922 0.1527 -0.3676
H17 H -0.4387 0.2092 -0.2942
C13 C -0.4302(4) -0.3105(14) -0.3918(3)
H18 H -0.4746 -0.4053 -0.3821
H19 H -0.3887 -0.4398 -0.3935
H20 H -0.4486 -0.2190 -0.4344
C14 C -0.0881(3) -0.0337(12) -0.2377(3)
H21 H -0.0571 0.0119 -0.2690
H22 H -0.1172 0.1291 -0.2309
C15 C -0.0330(10) -0.121(6) -0.1731(7)
H27 H -0.0540 -0.1983 -0.1403
C16 C 0.0443(11) -0.091(4) -0.1614(11)
H28 H 0.0656 -0.0136 -0.1939
H29 H 0.0785 -0.1468 -0.1203
H23? H -0.0664 0.0435 -0.2724
H24? H -0.1151 0.1114 -0.2201
H25? H -0.0739 0.0490 -0.2756
H26? H -0.1187 0.1036 -0.2212
C17? C -0.0224(12) -0.149(4) -0.1833(8)
H30? H 0.0045 -0.3093 -0.1889
C18? C -0.0041(14) -0.015(5) -0.1272(9)
H31? H -0.0320 0.1447 -0.1231
H32? H 0.0370 -0.0777 -0.0908
C19? C -0.0117(15) -0.064(7) -0.1847(16)
H33? H 0.0268 0.0743 -0.1789
C20? C 0.004(2) -0.277(7) -0.1459(16)
H34? H -0.0341 -0.4173 -0.1511
H35? H 0.0528 -0.2899 -0.1128
loop_
_geom_bond_atom_site_label_1
_geom_bond_atom_site_label_2
_geom_bond_site_symmetry_1
_geom_bond_site_symmetry_2
O1 C1 1_555 1_555
C1 H1 1_555 1_555
C2 C1 1_555 1_555
H2 C2 1_555 1_555
C3 C2 1_555 1_555
H3 C3 1_555 1_555
C4 C3 1_555 1_555
H4 C4 1_555 1_555
C5 O1 1_555 1_555
H5 C5 1_555 1_555
C6 C5 1_555 1_555
H6 C6 1_555 1_555
H7 C6 1_555 1_555
O2 C6 1_555 1_555
C7 O2 1_555 1_555
O3 C7 1_555 1_555
C8 C7 1_555 1_555
H8 C8 1_555 1_555
H9 C8 1_555 1_555
H10 C8 1_555 1_555
N1 C2 1_555 1_555
H11 N1 1_555 1_555
C9 N1 1_555 1_555
O4 C9 1_555 1_555
C10 C9 1_555 1_555
H12 C10 1_555 1_555
H13 C10 1_555 1_555
H14 C10 1_555 1_555
O5 C3 1_555 1_555
C11 O5 1_555 1_555
O6 C4 1_555 1_555
C12 C11 1_555 1_555
H15 C12 1_555 1_555
H16 C12 1_555 1_555
H17 C12 1_555 1_555
C13 C11 1_555 1_555
H18 C13 1_555 1_555
H19 C13 1_555 1_555
H20 C13 1_555 1_555
C14 C1 1_555 1_555
H21 C14 1_555 1_555
H22 C14 1_555 1_555
C15 C14 1_555 1_555
H27 C15 1_555 1_555
C16 C15 1_555 1_555
H28 C16 1_555 1_555
H29 C16 1_555 1_555
C4 C5 1_555 1_555
C11 O6 1_555 1_555

#END
