
#######################################################################
#
#                 Cambridge Crystallographic Data Centre
#                                CCDC 
#
#######################################################################
#
# If this CIF has been generated from an entry in the Cambridge 
# Structural Database, then it will include bibliographic, chemical, 
# crystal, experimental, refinement or atomic coordinate data resulting 
# from the CCDC's data processing and validation procedures.
#
#######################################################################

data_VAVDON
_chemical_formula_moiety         'C13 H9 N1 S1'
_chemical_name_systematic        2-Phenyl-1,3-benzothiazole
_symmetry_cell_setting           orthorhombic
_symmetry_space_group_name_H-M   'P n a 21'
_symmetry_Int_Tables_number      33
_space_group_name_Hall           'P 2c -2n'
loop_
_symmetry_equiv_pos_site_id
_symmetry_equiv_pos_as_xyz
1 x,y,z
2 -x,-y,1/2+z
3 1/2+x,1/2-y,z
4 1/2-x,1/2+y,1/2+z
_cell_length_a                   16.1330(13)
_cell_length_b                   11.0617(9)
_cell_length_c                   5.7804(5)
_cell_angle_alpha                90
_cell_angle_beta                 90
_cell_angle_gamma                90
_cell_volume                     1031.56
_exptl_crystal_colour            colorless
_exptl_crystal_description       block
_cell_formula_units_Z            4
loop_
_atom_site_label
_atom_site_type_symbol
_atom_site_fract_x
_atom_site_fract_y
_atom_site_fract_z
S1 S 0.90206(3) 1.00823(5) 0.7673(2)
N1 N 0.86756(14) 1.1073(2) 1.1626(5)
C1 C 0.9151(3) 1.1177(4) 0.9827(8)
C2 C 0.9795(3) 1.2143(5) 0.9613(10)
C3 C 0.9899(3) 1.2964(4) 1.1366(8)
H1 H 0.9568 1.2923 1.2723
C4 C 1.0499(7) 1.3856(8) 1.1116(19)
H2 H 1.0590 1.4419 1.2331
C5 C 1.0960(9) 1.3930(14) 0.913(3)
H3 H 1.1349 1.4567 0.8951
C6 C 1.0869(5) 1.3119(7) 0.7425(11)
H4 H 1.1206 1.3162 0.6080
C7 C 1.0276(2) 1.2210(3) 0.7645(8)
H5 H 1.0202 1.1636 0.6439
C8 C 0.8247(3) 0.9453(4) 0.9321(8)
C9 C 0.7728(5) 0.8427(6) 0.8831(13)
H6 H 0.7775 0.7998 0.7413
C10 C 0.7156(6) 0.8085(9) 1.0505(16)
H7 H 0.6820 0.7391 1.0264
C11 C 0.7071(7) 0.8758(9) 1.2547(19)
H8 H 0.6664 0.8528 1.3651
C12 C 0.7557(3) 0.9730(4) 1.2978(8)
H9 H 0.7495 1.0166 1.4384
C13 C 0.8147(3) 1.0090(4) 1.1372(8)
C14? C 0.8934(5) 1.0797(6) 0.9999(14)
C15? C 1.0987(12) 1.386(2) 0.953(4)
C16? C 1.0531(11) 1.4118(14) 1.155(3)
C17? C 0.9895(4) 1.3411(5) 1.2273(12)
C18? C 0.9658(3) 1.2421(6) 1.0959(14)
C19? C 0.8303(4) 0.9823(7) 1.0170(14)
C20? C 0.7823(4) 0.9720(7) 1.2108(13)
C21? C 0.7252(10) 0.8782(17) 1.221(3)
C22? C 0.7141(8) 0.8029(14) 1.035(3)
C23? C 0.7615(9) 0.8077(11) 0.846(2)
C24? C 0.8198(5) 0.9017(7) 0.8382(11)
C25? C 1.0049(5) 1.2148(7) 0.8876(16)
C26? C 1.0735(7) 1.2878(10) 0.8108(17)
H10? H 1.1456 1.4330 0.9123
H11? H 1.0673 1.4812 1.2430
H12? H 0.9613 1.3592 1.3674
H13? H 0.7879 1.0275 1.3352
H14? H 0.6935 0.8662 1.3578
H15? H 0.6708 0.7447 1.0411
H16? H 0.7560 0.7508 0.7240
H17? H 0.8533 0.9101 0.7041
H18? H 1.1010 1.2709 0.6692
N2? N 0.9009(2) 1.1619(3) 1.1558(7)
S2? S 0.96215(6) 1.08927(8) 0.7647(3)
loop_
_geom_bond_atom_site_label_1
_geom_bond_atom_site_label_2
_geom_bond_site_symmetry_1
_geom_bond_site_symmetry_2
S1 C1 1_555 1_555
N1 C1 1_555 1_555
C1 C2 1_555 1_555
C2 C3 1_555 1_555
C3 H1 1_555 1_555
C4 C3 1_555 1_555
H2 C4 1_555 1_555
C5 C4 1_555 1_555
H3 C5 1_555 1_555
C6 C5 1_555 1_555
H4 C6 1_555 1_555
C7 C2 1_555 1_555
H5 C7 1_555 1_555
C8 S1 1_555 1_555
C9 C8 1_555 1_555
H6 C9 1_555 1_555
C10 C9 1_555 1_555
H7 C10 1_555 1_555
C11 C10 1_555 1_555
H8 C11 1_555 1_555
C12 C11 1_555 1_555
H9 C12 1_555 1_555
C13 N1 1_555 1_555
C6 C7 1_555 1_555
C8 C13 1_555 1_555
C12 C13 1_555 1_555

#END
