
#######################################################################
#
#                 Cambridge Crystallographic Data Centre
#                                CCDC 
#
#######################################################################
#
# If this CIF has been generated from an entry in the Cambridge 
# Structural Database, then it will include bibliographic, chemical, 
# crystal, experimental, refinement or atomic coordinate data resulting 
# from the CCDC's data processing and validation procedures.
#
#######################################################################

data_VAVDON01
_chemical_formula_moiety         'C13 H9 N1 S1'
_chemical_name_systematic        2-phenyl-1,3-benzothiazole
_symmetry_cell_setting           orthorhombic
_symmetry_space_group_name_H-M   'P n a 21'
_symmetry_Int_Tables_number      33
_space_group_name_Hall           'P 2c -2n'
loop_
_symmetry_equiv_pos_site_id
_symmetry_equiv_pos_as_xyz
1 x,y,z
2 -x,-y,1/2+z
3 1/2-x,1/2+y,1/2+z
4 1/2+x,1/2-y,z
_cell_length_a                   16.3558(13)
_cell_length_b                   11.1760(9)
_cell_length_c                   5.8410(5)
_cell_angle_alpha                90
_cell_angle_beta                 90
_cell_angle_gamma                90
_cell_volume                     1067.69
_exptl_crystal_colour            colorless
_exptl_crystal_description       block
_cell_formula_units_Z            4
loop_
_atom_site_label
_atom_site_type_symbol
_atom_site_fract_x
_atom_site_fract_y
_atom_site_fract_z
S1 S -0.40018(13) -0.49169(18) -0.2765(7)
C1 C -0.4738(3) -0.28368(19) -0.0563(2)
C2 C -0.4063(4) -0.3945(7) -0.0542(15)
C3 C -0.5784(5) -0.2031(7) -0.276(2)
H1 H -0.607159 -0.208790 -0.413041
N1 N -0.3740(4) -0.3807(7) 0.1142(12)
C4 C -0.2135(4) -0.6183(6) 0.1921(18)
H2 H -0.176138 -0.637321 0.306577
C5 C -0.5958(4) -0.1163(6) -0.1167(17)
H3 H -0.638712 -0.062987 -0.139050
C6 C -0.2146(4) -0.6882(6) 0.0005(15)
H4 H -0.179028 -0.752491 -0.016068
C7 C -0.3157(5) -0.4949(7) 0.0776(15)
C8 C -0.2699(5) -0.6603(7) -0.1653(16)
H5 H -0.273207 -0.704243 -0.300219
C9 C -0.5492(4) -0.1106(8) 0.0721(18)
H6 H -0.556939 -0.049021 0.176894
C10 C -0.3240(4) -0.5584(6) -0.1227(14)
C11 C -0.4893(3) -0.19709(19) 0.1114(2)
H7 H -0.459851 -0.197156 0.247632
C12 C -0.2611(5) -0.5269(6) 0.225(2)
H8 H -0.255665 -0.482887 0.359000
C13 C -0.5153(5) -0.2825(6) -0.221(2)
H9 H -0.504637 -0.341918 -0.328862
H10? H -0.363443 -0.536932 -0.229677
S2? S -0.4603(2) -0.4140(4) -0.2789(11)
loop_
_geom_bond_atom_site_label_1
_geom_bond_atom_site_label_2
_geom_bond_site_symmetry_1
_geom_bond_site_symmetry_2
S1 C2 1_555 1_555
C1 C2 1_555 1_555
C2 N1 1_555 1_555
C3 H1 1_555 1_555
N1 C7 1_555 1_555
C4 H2 1_555 1_555
C5 C3 1_555 1_555
H3 C5 1_555 1_555
C6 C4 1_555 1_555
H4 C6 1_555 1_555
C7 C10 1_555 1_555
C8 C6 1_555 1_555
H5 C8 1_555 1_555
C9 C5 1_555 1_555
H6 C9 1_555 1_555
C10 S1 1_555 1_555
C11 C1 1_555 1_555
H7 C11 1_555 1_555
C12 C4 1_555 1_555
H8 C12 1_555 1_555
C13 C1 1_555 1_555
H9 C13 1_555 1_555
C3 C13 1_555 1_555
C7 C12 1_555 1_555
C8 C10 1_555 1_555
C9 C11 1_555 1_555

#END
