
#######################################################################
#
#                 Cambridge Crystallographic Data Centre
#                                CCDC 
#
#######################################################################
#
# If this CIF has been generated from an entry in the Cambridge 
# Structural Database, then it will include bibliographic, chemical, 
# crystal, experimental, refinement or atomic coordinate data resulting 
# from the CCDC's data processing and validation procedures.
#
#######################################################################

data_VAVJAG
_chemical_formula_moiety         'C11 H18 N1 O1 1+,C7 H6 N1 O2 1-'
_chemical_name_systematic        '(-)-methylephedrinium 3-aminobenzoate'
_symmetry_cell_setting           monoclinic
_symmetry_space_group_name_H-M   'P 21'
_symmetry_Int_Tables_number      4
_space_group_name_Hall           'P 2yb'
loop_
_symmetry_equiv_pos_site_id
_symmetry_equiv_pos_as_xyz
1 x,y,z
2 -x,1/2+y,-z
_cell_length_a                   5.8225(2)
_cell_length_b                   13.4434(4)
_cell_length_c                   21.0918(7)
_cell_angle_alpha                90
_cell_angle_beta                 95.723(3)
_cell_angle_gamma                90
_cell_volume                     1642.71
_exptl_crystal_colour            colorless
_exptl_crystal_description       block
_cell_formula_units_Z            4
loop_
_atom_site_label
_atom_site_type_symbol
_atom_site_fract_x
_atom_site_fract_y
_atom_site_fract_z
O1 O 0.7480(3) 1.34658(14) 0.99746(9)
N1 N 1.1802(4) 1.44977(16) 0.94649(10)
C1 C 1.0361(4) 1.27568(17) 1.07762(12)
C2 C 0.8801(4) 1.28051(18) 1.12230(12)
H1 H 0.7355 1.3124 1.1121
C3 C 0.9334(5) 1.23859(19) 1.18275(13)
H2 H 0.8246 1.2415 1.2134
C4 C 1.1454(4) 1.19285(18) 1.19777(12)
H3 H 1.1821 1.1645 1.2388
C5 C 1.3032(4) 1.18860(19) 1.15311(13)
H4 H 1.4488 1.1577 1.1635
C6 C 1.2489(4) 1.22965(19) 1.09275(12)
H5 H 1.3571 1.2262 1.0619
C7 C 0.9857(4) 1.32469(19) 1.01240(12)
H6 H 1.0372 1.2792 0.9791
C8 C 1.1279(4) 1.42238(19) 1.01291(12)
H7 H 1.2795 1.4085 1.0380
C9 C 1.0167(5) 1.50725(19) 1.04657(12)
H8 H 0.8746 1.5280 1.0212
H9 H 1.1239 1.5635 1.0516
H10 H 0.9798 1.4849 1.0886
C10 C 0.9749(5) 1.4757(2) 0.90171(13)
H11 H 0.8968 1.5335 0.9181
H12 H 0.8683 1.4191 0.8978
H13 H 1.0243 1.4915 0.8598
C11 C 1.3578(5) 1.5299(2) 0.94764(14)
H14 H 1.2917 1.5925 0.9612
H15 H 1.4075 1.5381 0.9049
H16 H 1.4909 1.5118 0.9776
H17 H 1.247(6) 1.392(3) 0.9266(17)
H18 H 0.683(5) 1.295(3) 0.9764(16)
O2 O 1.1520(3) 1.36560(15) 1.49207(9)
N2 N 1.5637(4) 1.43962(17) 1.41851(10)
C12 C 1.4552(4) 1.29798(18) 1.56858(12)
C13 C 1.3087(4) 1.30687(19) 1.61562(12)
H19 H 1.1621 1.3375 1.6064
C14 C 1.3752(5) 1.2709(2) 1.67685(12)
H20 H 1.2724 1.2762 1.7089
C15 C 1.5906(5) 1.2276(2) 1.69106(12)
H21 H 1.6357 1.2033 1.7327
C16 C 1.7391(4) 1.2202(2) 1.64393(13)
H22 H 1.8878 1.1917 1.6536
C17 C 1.6722(5) 1.25397(19) 1.58259(13)
H23 H 1.7736 1.2472 1.5502
C18 C 1.3881(4) 1.33727(19) 1.50120(12)
H24 H 1.4166 1.2840 1.4698
C19 C 1.5389(4) 1.42817(19) 1.48921(12)
H25 H 1.6965 1.4148 1.5109
C20 C 1.4511(5) 1.52275(19) 1.51860(13)
H26 H 1.2954 1.5378 1.4989
H27 H 1.5545 1.5782 1.5112
H28 H 1.4470 1.5131 1.5645
C21 C 1.3420(5) 1.4572(2) 1.37791(13)
H29 H 1.3726 1.4627 1.3332
H30 H 1.2714 1.5190 1.3912
H31 H 1.2366 1.4015 1.3827
C22 C 1.7367(5) 1.5175(2) 1.40737(14)
H32 H 1.6729 1.5832 1.4153
H33 H 1.7744 1.5137 1.3632
H34 H 1.8769 1.5067 1.4363
H35 H 1.629(5) 1.383(2) 1.4030(14)
H36 H 1.074(6) 1.313(3) 1.4810(18)
O3 O 0.4386(4) 1.69611(15) 1.07060(10)
O4 O 0.6886(3) 1.80009(13) 1.12348(9)
N3 N 0.4734(5) 1.40011(19) 1.22497(13)
C23 C 0.6817(4) 1.63292(18) 1.15856(12)
C24 C 0.5425(5) 1.55247(19) 1.16843(12)
H37 H 0.3927 1.5487 1.1461
C25 C 0.6183(4) 1.47595(19) 1.21095(12)
C26 C 0.8450(5) 1.4808(2) 1.24042(12)
H38 H 0.9031 1.4287 1.2680
C27 C 0.9839(5) 1.5609(2) 1.22941(12)
H39 H 1.1371 1.5631 1.2496
C28 C 0.9053(4) 1.63808(19) 1.18967(12)
H40 H 1.0015 1.6937 1.1836
C29 C 0.5947(4) 1.7163(2) 1.11395(12)
H41 H 0.533(6) 1.348(3) 1.2448(18)
H42 H 0.362(8) 1.386(4) 1.201(2)
O5 O 1.3192(4) 1.77854(14) 1.64596(10)
O6 O 1.0904(3) 1.72059(16) 1.56250(10)
N4 N 1.4083(5) 1.46855(18) 1.78798(11)
C30 C 1.1346(4) 1.62214(19) 1.65537(12)
C31 C 1.2949(4) 1.58601(19) 1.70368(12)
H43 H 1.4383 1.6193 1.7128
C32 C 1.2467(5) 1.50170(19) 1.73863(12)
C33 C 1.0327(5) 1.4546(2) 1.72578(13)
H44 H 0.9960 1.3983 1.7501
C34 C 0.8736(5) 1.4900(2) 1.67750(13)
H45 H 0.7296 1.4572 1.6685
C35 C 0.9244(5) 1.5732(2) 1.64242(13)
H46 H 0.8151 1.5969 1.6094
C36 C 1.1855(5) 1.7143(2) 1.61901(13)
H47 H 1.560(7) 1.483(3) 1.7773(17)
H48 H 1.373(7) 1.412(4) 1.806(2)
loop_
_geom_bond_atom_site_label_1
_geom_bond_atom_site_label_2
_geom_bond_site_symmetry_1
_geom_bond_site_symmetry_2
O1 C7 1_555 1_555
N1 C8 1_555 1_555
C1 C2 1_555 1_555
C2 H1 1_555 1_555
C3 C2 1_555 1_555
H2 C3 1_555 1_555
C4 C3 1_555 1_555
H3 C4 1_555 1_555
C5 C4 1_555 1_555
H4 C5 1_555 1_555
C6 C1 1_555 1_555
H5 C6 1_555 1_555
C7 C1 1_555 1_555
H6 C7 1_555 1_555
C8 C7 1_555 1_555
H7 C8 1_555 1_555
C9 C8 1_555 1_555
H8 C9 1_555 1_555
H9 C9 1_555 1_555
H10 C9 1_555 1_555
C10 N1 1_555 1_555
H11 C10 1_555 1_555
H12 C10 1_555 1_555
H13 C10 1_555 1_555
C11 N1 1_555 1_555
H14 C11 1_555 1_555
H15 C11 1_555 1_555
H16 C11 1_555 1_555
H17 N1 1_555 1_555
H18 O1 1_555 1_555
O2 C18 1_555 1_555
N2 C19 1_555 1_555
C12 C13 1_555 1_555
C13 H19 1_555 1_555
C14 C13 1_555 1_555
H20 C14 1_555 1_555
C15 C14 1_555 1_555
H21 C15 1_555 1_555
C16 C15 1_555 1_555
H22 C16 1_555 1_555
C17 C12 1_555 1_555
H23 C17 1_555 1_555
C18 C12 1_555 1_555
H24 C18 1_555 1_555
C19 C18 1_555 1_555
H25 C19 1_555 1_555
C20 C19 1_555 1_555
H26 C20 1_555 1_555
H27 C20 1_555 1_555
H28 C20 1_555 1_555
C21 N2 1_555 1_555
H29 C21 1_555 1_555
H30 C21 1_555 1_555
H31 C21 1_555 1_555
C22 N2 1_555 1_555
H32 C22 1_555 1_555
H33 C22 1_555 1_555
H34 C22 1_555 1_555
H35 N2 1_555 1_555
H36 O2 1_555 1_555
O3 C29 1_555 1_555
O4 C29 1_555 1_555
N3 C25 1_555 1_555
C23 C24 1_555 1_555
C24 H37 1_555 1_555
C25 C24 1_555 1_555
C26 C25 1_555 1_555
H38 C26 1_555 1_555
C27 C26 1_555 1_555
H39 C27 1_555 1_555
C28 C23 1_555 1_555
H40 C28 1_555 1_555
C29 C23 1_555 1_555
H41 N3 1_555 1_555
H42 N3 1_555 1_555
O5 C36 1_555 1_555
O6 C36 1_555 1_555
N4 C32 1_555 1_555
C30 C31 1_555 1_555
C31 H43 1_555 1_555
C32 C31 1_555 1_555
C33 C32 1_555 1_555
H44 C33 1_555 1_555
C34 C33 1_555 1_555
H45 C34 1_555 1_555
C35 C30 1_555 1_555
H46 C35 1_555 1_555
C36 C30 1_555 1_555
H47 N4 1_555 1_555
H48 N4 1_555 1_555
C5 C6 1_555 1_555
C16 C17 1_555 1_555
C27 C28 1_555 1_555
C34 C35 1_555 1_555

#END
