
#######################################################################
#
#                 Cambridge Crystallographic Data Centre
#                                CCDC 
#
#######################################################################
#
# If this CIF has been generated from an entry in the Cambridge 
# Structural Database, then it will include bibliographic, chemical, 
# crystal, experimental, refinement or atomic coordinate data resulting 
# from the CCDC's data processing and validation procedures.
#
#######################################################################

data_VAVJOU
_chemical_formula_moiety         'C11 H18 N1 O1 1+,C4 H5 O6 1-,H2 O1'
_chemical_name_systematic        
'(-)-methylephedrinium hydrogen L-tartrate monohydrate'
_symmetry_cell_setting           monoclinic
_symmetry_space_group_name_H-M   'P 21'
_symmetry_Int_Tables_number      4
_space_group_name_Hall           'P 2yb'
loop_
_symmetry_equiv_pos_site_id
_symmetry_equiv_pos_as_xyz
1 x,y,z
2 -x,1/2+y,-z
_cell_length_a                   10.6983(17)
_cell_length_b                   7.4656(11)
_cell_length_c                   11.6355(17)
_cell_angle_alpha                90
_cell_angle_beta                 112.494(17)
_cell_angle_gamma                90
_cell_volume                     858.615
_exptl_crystal_colour            colorless
_exptl_crystal_description       Block
_cell_formula_units_Z            2
loop_
_atom_site_label
_atom_site_type_symbol
_atom_site_fract_x
_atom_site_fract_y
_atom_site_fract_z
O1 O 0.9195(2) -0.4166(2) 0.66434(18)
N1 N 1.18199(18) -0.1944(3) 0.76749(17)
C1 C 0.8011(2) -0.1331(4) 0.5997(2)
C2 C 0.7117(3) -0.2106(5) 0.4905(2)
H1 H 0.7272 -0.3291 0.4693
C3 C 0.6007(3) -0.1164(6) 0.4130(3)
H2 H 0.5406 -0.1703 0.3383
C4 C 0.5761(3) 0.0551(7) 0.4428(3)
H3 H 0.4994 0.1192 0.3888
C5 C 0.6628(3) 0.1330(5) 0.5507(3)
H4 H 0.6462 0.2512 0.5718
C6 C 0.7744(3) 0.0389(4) 0.6287(2)
H5 H 0.8338 0.0932 0.7035
C7 C 0.9279(2) -0.2286(4) 0.6841(2)
H6 H 0.9415 -0.2040 0.7726
C8 C 1.0493(2) -0.1551(3) 0.65991(19)
H7 H 1.0391 -0.0218 0.6543
C9 C 1.0530(2) -0.2186(4) 0.5365(2)
H8 H 1.1306 -0.1644 0.5246
H9 H 0.9693 -0.1829 0.4682
H10 H 1.0615 -0.3494 0.5376
C10 C 1.2277(3) -0.3838(4) 0.7789(3)
H11 H 1.2539 -0.4139 0.7091
H12 H 1.1539 -0.4625 0.7776
H13 H 1.3056 -0.3999 0.8573
C11 C 1.2927(2) -0.0737(4) 0.7676(2)
H14 H 1.3755 -0.1011 0.8396
H15 H 1.2668 0.0512 0.7724
H16 H 1.3088 -0.0916 0.6909
H17 H 1.1690(19) -0.162(3) 0.839(2)
H18 H 0.905(3) -0.468(4) 0.720(3)
O2 O 0.87748(15) -0.6193(2) 0.83839(14)
O3 O 0.84259(14) -0.7063(2) 1.00606(13)
O4 O 0.88760(17) -0.3698(2) 1.10137(14)
O5 O 0.61325(16) -0.3861(2) 0.91903(17)
O6 O 0.83695(16) -0.0278(2) 0.93249(15)
O7 O 0.62133(18) -0.0292(2) 0.91168(19)
C12 C 0.8598(2) -0.5874(3) 0.9364(2)
C13 C 0.8583(2) -0.3907(3) 0.9723(2)
H19 H 0.9293 -0.3260 0.9524
C14 C 0.7211(2) -0.3069(3) 0.8956(2)
H20 H 0.7039 -0.3281 0.8060
C15 C 0.7219(2) -0.1057(3) 0.9146(2)
H21 H 0.589(3) -0.312(4) 0.959(3)
H22 H 0.834(3) 0.096(4) 0.950(2)
H23 H 0.959(3) -0.302(4) 1.130(3)
O8 O 0.51512(18) -0.2242(3) 1.08331(17)
H24 H 0.460(3) -0.317(5) 1.089(3)
H25 H 0.474(3) -0.134(5) 1.085(3)
loop_
_geom_bond_atom_site_label_1
_geom_bond_atom_site_label_2
_geom_bond_site_symmetry_1
_geom_bond_site_symmetry_2
O1 C7 1_555 1_555
N1 C8 1_555 1_555
C1 C2 1_555 1_555
C2 H1 1_555 1_555
C3 C2 1_555 1_555
H2 C3 1_555 1_555
C4 C3 1_555 1_555
H3 C4 1_555 1_555
C5 C4 1_555 1_555
H4 C5 1_555 1_555
C6 C1 1_555 1_555
H5 C6 1_555 1_555
C7 C1 1_555 1_555
H6 C7 1_555 1_555
C8 C7 1_555 1_555
H7 C8 1_555 1_555
C9 C8 1_555 1_555
H8 C9 1_555 1_555
H9 C9 1_555 1_555
H10 C9 1_555 1_555
C10 N1 1_555 1_555
H11 C10 1_555 1_555
H12 C10 1_555 1_555
H13 C10 1_555 1_555
C11 N1 1_555 1_555
H14 C11 1_555 1_555
H15 C11 1_555 1_555
H16 C11 1_555 1_555
H17 N1 1_555 1_555
H18 O1 1_555 1_555
O2 C12 1_555 1_555
O3 C12 1_555 1_555
O4 C13 1_555 1_555
O5 C14 1_555 1_555
O6 C15 1_555 1_555
O7 C15 1_555 1_555
C12 C13 1_555 1_555
C13 H19 1_555 1_555
C14 C13 1_555 1_555
H20 C14 1_555 1_555
C15 C14 1_555 1_555
H21 O5 1_555 1_555
H22 O6 1_555 1_555
H23 O4 1_555 1_555
O8 H24 1_555 1_555
H25 O8 1_555 1_555
C5 C6 1_555 1_555

#END
