
#######################################################################
#
#                 Cambridge Crystallographic Data Centre
#                                CCDC 
#
#######################################################################
#
# If this CIF has been generated from an entry in the Cambridge 
# Structural Database, then it will include bibliographic, chemical, 
# crystal, experimental, refinement or atomic coordinate data resulting 
# from the CCDC's data processing and validation procedures.
#
#######################################################################

data_VAVJUA
_chemical_formula_moiety         'C11 H18 N1 O1 1+,C8 H7 O3 1-'
_chemical_name_systematic        '(-)-methylephedrinium rac-mandelate'
_symmetry_cell_setting           orthorhombic
_symmetry_space_group_name_H-M   'P 21 21 21'
_symmetry_Int_Tables_number      19
_space_group_name_Hall           'P 2ac 2ab'
loop_
_symmetry_equiv_pos_site_id
_symmetry_equiv_pos_as_xyz
1 x,y,z
2 1/2-x,-y,1/2+z
3 1/2+x,1/2-y,-z
4 -x,1/2+y,1/2-z
_cell_length_a                   7.4095(4)
_cell_length_b                   9.8209(6)
_cell_length_c                   23.9842(15)
_cell_angle_alpha                90
_cell_angle_beta                 90
_cell_angle_gamma                90
_cell_volume                     1745.28
_exptl_crystal_colour            colorless
_exptl_crystal_description       block
_cell_formula_units_Z            4
loop_
_atom_site_label
_atom_site_type_symbol
_atom_site_fract_x
_atom_site_fract_y
_atom_site_fract_z
O1 O 0.67933(16) 0.04429(10) 0.20084(4)
N1 N 0.98016(16) 0.27293(13) 0.18689(5)
C1 C 0.57091(18) 0.13799(13) 0.11259(6)
C2 C 0.50597(19) 0.01022(13) 0.09753(6)
H1 H 0.5319 -0.0663 0.1204
C3 C 0.4042(2) -0.00699(15) 0.04970(7)
H2 H 0.3616 -0.0950 0.0399
C4 C 0.3642(2) 0.10330(15) 0.01597(7)
H3 H 0.2951 0.0914 -0.0170
C5 C 0.4263(2) 0.23162(15) 0.03102(6)
H4 H 0.3987 0.3080 0.0082
C6 C 0.5277(2) 0.24931(14) 0.07876(6)
H5 H 0.5684 0.3378 0.0887
C7 C 0.68732(19) 0.15773(14) 0.16382(6)
H6 H 0.6450 0.2407 0.1841
C8 C 0.8858(2) 0.17910(14) 0.14627(6)
H7 H 0.8830 0.2276 0.1096
C9 C 0.9864(2) 0.04616(18) 0.13658(8)
H8 H 1.0995 0.0647 0.1168
H9 H 0.9115 -0.0151 0.1141
H10 H 1.0129 0.0032 0.1725
C10 C 0.9682(2) 0.23186(19) 0.24624(7)
H11 H 1.0180 0.1401 0.2507
H12 H 0.8415 0.2323 0.2580
H13 H 1.0370 0.2960 0.2692
C11 C 1.1728(2) 0.29831(19) 0.17115(7)
H14 H 1.2208 0.3735 0.1935
H15 H 1.1797 0.3220 0.1315
H16 H 1.2441 0.2160 0.1781
H17 H 0.918(3) 0.3685(19) 0.1819(7)
H18 H 0.593(3) 0.053(2) 0.2244(8)
O2 O 0.49311(17) 0.73104(10) 0.22024(4)
O3 O 0.62604(15) 0.48750(10) 0.23723(4)
O4 O 0.81902(14) 0.50519(10) 0.16598(4)
C12 C 0.49502(19) 0.65482(11) 0.12306(5)
C13 C 0.3103(2) 0.63147(14) 0.12504(6)
H19 H 0.2492 0.6345 0.1598
C14 C 0.2139(2) 0.60379(16) 0.07668(7)
H20 H 0.0875 0.5880 0.0785
C15 C 0.3017(2) 0.59928(14) 0.02602(6)
H21 H 0.2361 0.5800 -0.0071
C16 C 0.4851(2) 0.62285(14) 0.02348(6)
H22 H 0.5454 0.6206 -0.0115
C17 C 0.58181(19) 0.64989(13) 0.07181(6)
H23 H 0.7083 0.6651 0.0698
C18 C 0.6020(2) 0.68055(13) 0.17608(5)
H24 H 0.6998 0.7479 0.1680
C19 C 0.68840(19) 0.54551(13) 0.19550(6)
H25 H 0.484(2) 0.819(2) 0.2203(6)
loop_
_geom_bond_atom_site_label_1
_geom_bond_atom_site_label_2
_geom_bond_site_symmetry_1
_geom_bond_site_symmetry_2
O1 C7 1_555 1_555
N1 C8 1_555 1_555
C1 C2 1_555 1_555
C2 H1 1_555 1_555
C3 C2 1_555 1_555
H2 C3 1_555 1_555
C4 C3 1_555 1_555
H3 C4 1_555 1_555
C5 C4 1_555 1_555
H4 C5 1_555 1_555
C6 C1 1_555 1_555
H5 C6 1_555 1_555
C7 C1 1_555 1_555
H6 C7 1_555 1_555
C8 C7 1_555 1_555
H7 C8 1_555 1_555
C9 C8 1_555 1_555
H8 C9 1_555 1_555
H9 C9 1_555 1_555
H10 C9 1_555 1_555
C10 N1 1_555 1_555
H11 C10 1_555 1_555
H12 C10 1_555 1_555
H13 C10 1_555 1_555
C11 N1 1_555 1_555
H14 C11 1_555 1_555
H15 C11 1_555 1_555
H16 C11 1_555 1_555
H17 N1 1_555 1_555
H18 O1 1_555 1_555
O2 C18 1_555 1_555
O3 C19 1_555 1_555
O4 C19 1_555 1_555
C12 C13 1_555 1_555
C13 H19 1_555 1_555
C14 C13 1_555 1_555
H20 C14 1_555 1_555
C15 C14 1_555 1_555
H21 C15 1_555 1_555
C16 C15 1_555 1_555
H22 C16 1_555 1_555
C17 C12 1_555 1_555
H23 C17 1_555 1_555
C18 C12 1_555 1_555
H24 C18 1_555 1_555
C19 C18 1_555 1_555
H25 O2 1_555 1_555
C5 C6 1_555 1_555
C16 C17 1_555 1_555

#END
