
#######################################################################
#
#                 Cambridge Crystallographic Data Centre
#                                CCDC 
#
#######################################################################
#
# If this CIF has been generated from an entry in the Cambridge 
# Structural Database, then it will include bibliographic, chemical, 
# crystal, experimental, refinement or atomic coordinate data resulting 
# from the CCDC's data processing and validation procedures.
#
#######################################################################

data_VAVKIP
_chemical_formula_moiety         'C11 H18 N1 O1 1+,C7 H5 O3 1-'
_chemical_name_systematic        '(+-)-methylephedrinium 3-hydroxybenzoate'
_symmetry_cell_setting           monoclinic
_symmetry_space_group_name_H-M   'P 21/c'
_symmetry_Int_Tables_number      14
_space_group_name_Hall           '-P 2ybc'
loop_
_symmetry_equiv_pos_site_id
_symmetry_equiv_pos_as_xyz
1 x,y,z
2 -x,1/2+y,1/2-z
3 -x,-y,-z
4 x,1/2-y,1/2+z
_cell_length_a                   10.2539(9)
_cell_length_b                   14.9782(16)
_cell_length_c                   11.2503(10)
_cell_angle_alpha                90
_cell_angle_beta                 92.194(7)
_cell_angle_gamma                90
_cell_volume                     1726.61
_exptl_crystal_colour            colorless
_exptl_crystal_description       block
_cell_formula_units_Z            4
loop_
_atom_site_label
_atom_site_type_symbol
_atom_site_fract_x
_atom_site_fract_y
_atom_site_fract_z
O1 O 0.38362(14) 0.15451(10) 0.48879(12)
H1 H 0.4276(19) 0.1889(13) 0.5337(17)
N1 N 0.40091(15) 0.06256(11) 0.25607(13)
H2 H 0.4806 0.0921 0.2549
C1 C 0.30081(18) 0.13218(13) 0.28757(16)
H3 H 0.2801 0.1668 0.2132
C2 C 0.17433(19) 0.09016(13) 0.32402(17)
H4 H 0.1454 0.0462 0.2641
H5 H 0.1076 0.1366 0.3305
H6 H 0.1880 0.0605 0.4011
C3 C 0.4185(2) -0.01187(14) 0.34428(16)
H7 H 0.4199 0.0126 0.4251
H8 H 0.5010 -0.0427 0.3312
H9 H 0.3460 -0.0542 0.3342
C4 C 0.3771(2) 0.02503(14) 0.13451(16)
H10 H 0.2931 -0.0062 0.1306
H11 H 0.4470 -0.0170 0.1168
H12 H 0.3757 0.0736 0.0761
C5 C 0.27527(19) 0.28077(14) 0.39028(17)
C6 C 0.17982(19) 0.28521(14) 0.47297(17)
H13 H 0.1656 0.2355 0.5233
C7 C 0.1043(2) 0.36131(16) 0.48361(19)
H14 H 0.0379 0.3631 0.5402
C8 C 0.1252(2) 0.43433(16) 0.4124(2)
H15 H 0.0743 0.4868 0.4203
C9 C 0.2209(2) 0.43062(16) 0.3295(2)
H16 H 0.2364 0.4809 0.2806
C10 C 0.2942(2) 0.35407(15) 0.31734(18)
H17 H 0.3581 0.3515 0.2585
C11 C 0.36099(19) 0.19859(13) 0.37810(16)
H18 H 0.4472 0.2184 0.3487
O2 O 0.51465(13) 0.21459(10) 0.11059(11)
O3 O 0.63981(12) 0.14017(9) 0.24158(11)
O4 O 0.83137(13) 0.41352(9) -0.10380(12)
H19 H 0.7678(17) 0.3948(13) -0.1527(16)
C12 C 0.73707(19) 0.25757(13) 0.13053(17)
C13 C 0.73257(18) 0.30593(13) 0.02522(16)
H20 H 0.6598 0.2994 -0.0289
C14 C 0.83285(19) 0.36364(14) -0.00214(17)
C15 C 0.93895(19) 0.37374(13) 0.07682(17)
H21 H 1.0075 0.4138 0.0594
C16 C 0.9441(2) 0.32513(15) 0.18089(17)
H22 H 1.0172 0.3315 0.2346
C17 C 0.8448(2) 0.26748(15) 0.20831(17)
H23 H 0.8500 0.2345 0.2805
C18 C 0.6234(2) 0.20076(15) 0.16179(18)
loop_
_geom_bond_atom_site_label_1
_geom_bond_atom_site_label_2
_geom_bond_site_symmetry_1
_geom_bond_site_symmetry_2
O1 H1 1_555 1_555
N1 H2 1_555 1_555
C1 N1 1_555 1_555
H3 C1 1_555 1_555
C2 C1 1_555 1_555
H4 C2 1_555 1_555
H5 C2 1_555 1_555
H6 C2 1_555 1_555
C3 N1 1_555 1_555
H7 C3 1_555 1_555
H8 C3 1_555 1_555
H9 C3 1_555 1_555
C4 N1 1_555 1_555
H10 C4 1_555 1_555
H11 C4 1_555 1_555
H12 C4 1_555 1_555
C5 C6 1_555 1_555
C6 H13 1_555 1_555
C7 C6 1_555 1_555
H14 C7 1_555 1_555
C8 C7 1_555 1_555
H15 C8 1_555 1_555
C9 C8 1_555 1_555
H16 C9 1_555 1_555
C10 C5 1_555 1_555
H17 C10 1_555 1_555
C11 O1 1_555 1_555
H18 C11 1_555 1_555
O2 C18 1_555 1_555
O3 C18 1_555 1_555
O4 H19 1_555 1_555
C12 C13 1_555 1_555
C13 H20 1_555 1_555
C14 O4 1_555 1_555
C15 C14 1_555 1_555
H21 C15 1_555 1_555
C16 C15 1_555 1_555
H22 C16 1_555 1_555
C17 C12 1_555 1_555
H23 C17 1_555 1_555
C18 C12 1_555 1_555
C1 C11 1_555 1_555
C5 C11 1_555 1_555
C9 C10 1_555 1_555
C13 C14 1_555 1_555
C16 C17 1_555 1_555

#END
