
#######################################################################
#
#                 Cambridge Crystallographic Data Centre
#                                CCDC 
#
#######################################################################
#
# If this CIF has been generated from an entry in the Cambridge 
# Structural Database, then it will include bibliographic, chemical, 
# crystal, experimental, refinement or atomic coordinate data resulting 
# from the CCDC's data processing and validation procedures.
#
#######################################################################

data_VAVKUB
_chemical_formula_moiety         'C11 H18 N1 O1 1+,C7 H6 N1 O2 1-'
_chemical_name_systematic        '(+-)-methylephedrinium 4-aminobenzoate'
_symmetry_cell_setting           orthorhombic
_symmetry_space_group_name_H-M   'P b c a'
_symmetry_Int_Tables_number      61
_space_group_name_Hall           '-P 2ac 2ab'
loop_
_symmetry_equiv_pos_site_id
_symmetry_equiv_pos_as_xyz
1 x,y,z
2 1/2-x,-y,1/2+z
3 1/2+x,1/2-y,-z
4 -x,1/2+y,1/2-z
5 -x,-y,-z
6 1/2+x,y,1/2-z
7 1/2-x,1/2+y,z
8 x,1/2-y,1/2+z
_cell_length_a                   9.0458(2)
_cell_length_b                   14.9474(3)
_cell_length_c                   24.8220(6)
_cell_angle_alpha                90
_cell_angle_beta                 90
_cell_angle_gamma                90
_cell_volume                     3356.21
_exptl_crystal_colour            colorless
_exptl_crystal_description       block
_cell_formula_units_Z            8
loop_
_atom_site_label
_atom_site_type_symbol
_atom_site_fract_x
_atom_site_fract_y
_atom_site_fract_z
O1 O 1.27791(10) -0.20415(6) 0.69243(4)
N1 N 1.21079(12) -0.04013(6) 0.62830(4)
C1 C 1.05329(13) -0.27530(7) 0.65759(5)
C2 C 0.98224(14) -0.31141(8) 0.61268(5)
H1 H 1.0101 -0.2926 0.5776
C3 C 0.87090(14) -0.37474(8) 0.61895(5)
H2 H 0.8243 -0.3999 0.5882
C4 C 0.82819(15) -0.40098(8) 0.67015(6)
H3 H 0.7506 -0.4431 0.6746
C5 C 0.89868(15) -0.36570(8) 0.71478(5)
H4 H 0.8694 -0.3839 0.7499
C6 C 1.01193(14) -0.30391(8) 0.70867(5)
H5 H 1.0614 -0.2811 0.7395
C7 C 1.17318(13) -0.20491(7) 0.65012(5)
H6 H 1.2262 -0.2175 0.6156
C8 C 1.10192(13) -0.11195(7) 0.64613(5)
H7 H 1.0243 -0.1158 0.6175
C9 C 1.02444(15) -0.08260(8) 0.69758(5)
H8 H 1.0916 -0.0900 0.7282
H9 H 0.9360 -0.1193 0.7032
H10 H 0.9958 -0.0196 0.6945
C10 C 1.31846(15) -0.00939(8) 0.66988(6)
H11 H 1.3869 -0.0582 0.6784
H12 H 1.2650 0.0083 0.7025
H13 H 1.3742 0.0419 0.6560
C11 C 1.28986(16) -0.06279(9) 0.57737(5)
H14 H 1.3385 -0.0091 0.5632
H15 H 1.2188 -0.0852 0.5508
H16 H 1.3642 -0.1089 0.5846
H17 H 1.3416(19) -0.2514(13) 0.6851(7)
H18 H 1.1469(18) 0.0095(11) 0.6187(7)
O2 O 0.43092(10) -0.34695(6) 0.65670(3)
O3 O 0.47083(10) -0.41919(5) 0.57995(3)
N2 N 0.84728(14) -0.06712(8) 0.53160(5)
C12 C 0.57033(13) -0.27238(7) 0.58856(5)
C13 C 0.61449(13) -0.20248(7) 0.62237(5)
H19 H 0.5830 -0.2022 0.6589
C14 C 0.70313(13) -0.13367(7) 0.60375(5)
H20 H 0.7299 -0.0865 0.6275
C15 C 0.75399(13) -0.13259(8) 0.55042(5)
C16 C 0.70835(15) -0.20233(8) 0.51619(5)
H21 H 0.7399 -0.2030 0.4797
C17 C 0.61799(14) -0.27000(8) 0.53522(5)
H22 H 0.5876 -0.3161 0.5113
C18 C 0.48433(13) -0.35020(7) 0.61014(5)
H23 H 0.8823(18) -0.0709(10) 0.4978(7)
H24 H 0.8767(18) -0.0234(11) 0.5522(6)
loop_
_geom_bond_atom_site_label_1
_geom_bond_atom_site_label_2
_geom_bond_site_symmetry_1
_geom_bond_site_symmetry_2
O1 C7 1_555 1_555
N1 C8 1_555 1_555
C1 C2 1_555 1_555
C2 H1 1_555 1_555
C3 C2 1_555 1_555
H2 C3 1_555 1_555
C4 C3 1_555 1_555
H3 C4 1_555 1_555
C5 C4 1_555 1_555
H4 C5 1_555 1_555
C6 C1 1_555 1_555
H5 C6 1_555 1_555
C7 C1 1_555 1_555
H6 C7 1_555 1_555
C8 C7 1_555 1_555
H7 C8 1_555 1_555
C9 C8 1_555 1_555
H8 C9 1_555 1_555
H9 C9 1_555 1_555
H10 C9 1_555 1_555
C10 N1 1_555 1_555
H11 C10 1_555 1_555
H12 C10 1_555 1_555
H13 C10 1_555 1_555
C11 N1 1_555 1_555
H14 C11 1_555 1_555
H15 C11 1_555 1_555
H16 C11 1_555 1_555
H17 O1 1_555 1_555
H18 N1 1_555 1_555
O2 C18 1_555 1_555
O3 C18 1_555 1_555
N2 C15 1_555 1_555
C12 C13 1_555 1_555
C13 H19 1_555 1_555
C14 C13 1_555 1_555
H20 C14 1_555 1_555
C15 C14 1_555 1_555
C16 C15 1_555 1_555
H21 C16 1_555 1_555
C17 C12 1_555 1_555
H22 C17 1_555 1_555
C18 C12 1_555 1_555
H23 N2 1_555 1_555
H24 N2 1_555 1_555
C5 C6 1_555 1_555
C16 C17 1_555 1_555

#END
