
#######################################################################
#
#                 Cambridge Crystallographic Data Centre
#                                CCDC 
#
#######################################################################
#
# If this CIF has been generated from an entry in the Cambridge 
# Structural Database, then it will include bibliographic, chemical, 
# crystal, experimental, refinement or atomic coordinate data resulting 
# from the CCDC's data processing and validation procedures.
#
#######################################################################

data_VAVKOV
_chemical_formula_moiety         'C11 H18 N1 O1 1+,C7 H4 N1 O4 1-'
_chemical_name_systematic        '(+-)-methylephedrinium 3-nitrobenzoate'
_symmetry_cell_setting           monoclinic
_symmetry_space_group_name_H-M   'C 2/c'
_symmetry_Int_Tables_number      15
_space_group_name_Hall           '-C 2yn'
loop_
_symmetry_equiv_pos_site_id
_symmetry_equiv_pos_as_xyz
1 x,y,z
2 -x,y,1/2-z
3 1/2+x,1/2+y,z
4 1/2-x,1/2+y,1/2-z
5 -x,-y,-z
6 x,-y,1/2+z
7 1/2-x,1/2-y,-z
8 1/2+x,1/2-y,1/2+z
_cell_length_a                   25.3221(5)
_cell_length_b                   5.76690(10)
_cell_length_c                   23.6945(6)
_cell_angle_alpha                90
_cell_angle_beta                 96.453(2)
_cell_angle_gamma                90
_cell_volume                     3438.19
_exptl_crystal_colour            colorless
_exptl_crystal_description       lath
_cell_formula_units_Z            8
loop_
_atom_site_label
_atom_site_type_symbol
_atom_site_fract_x
_atom_site_fract_y
_atom_site_fract_z
O1 O 0.62292(3) 0.42086(13) 0.55079(4)
N1 N 0.65181(3) -0.03968(16) 0.49499(4)
C1 C 0.56546(4) 0.18978(18) 0.60480(5)
C2 C 0.55723(4) -0.00195(19) 0.63874(5)
H1 H 0.5809 -0.1300 0.6398
C3 C 0.51464(4) -0.0069(2) 0.67103(5)
H2 H 0.5091 -0.1388 0.6936
C4 C 0.48031(4) 0.1807(2) 0.67022(5)
H3 H 0.4514 0.1780 0.6925
C5 C 0.48832(4) 0.3715(2) 0.63696(5)
H4 H 0.4649 0.5003 0.6365
C6 C 0.53041(4) 0.37603(19) 0.60430(5)
H5 H 0.5354 0.5075 0.5813
C7 C 0.61207(4) 0.19380(18) 0.56971(5)
H6 H 0.6443 0.1347 0.5937
C8 C 0.60064(4) 0.03447(18) 0.51767(5)
H7 H 0.5839 -0.1094 0.5312
C9 C 0.56092(4) 0.1386(2) 0.47164(5)
H8 H 0.5771 0.2720 0.4545
H9 H 0.5292 0.1891 0.4884
H10 H 0.5509 0.0218 0.4423
C10 C 0.64260(4) -0.2258(2) 0.45138(5)
H11 H 0.6246 -0.1601 0.4162
H12 H 0.6203 -0.3475 0.4653
H13 H 0.6768 -0.2922 0.4440
C11 C 0.68373(4) 0.1494(2) 0.47242(5)
H14 H 0.7169 0.0850 0.4615
H15 H 0.6919 0.2677 0.5018
H16 H 0.6634 0.2197 0.4392
H17 H 0.6731(5) -0.106(2) 0.5265(6)
H18 H 0.6401(6) 0.495(3) 0.5821(7)
O2 O 0.72556(3) -0.17251(15) 0.57713(3)
O3 O 0.68076(3) -0.37618(17) 0.63642(4)
O4 O 0.87848(3) 0.26450(16) 0.66230(4)
O5 O 0.91933(4) 0.16507(18) 0.74332(4)
N2 N 0.88386(4) 0.14043(18) 0.70457(4)
C12 C 0.76755(4) -0.24850(18) 0.66937(5)
C13 C 0.80302(4) -0.06644(19) 0.66690(5)
H19 H 0.7980 0.0453 0.6373
C14 C 0.84590(4) -0.05102(19) 0.70846(5)
C15 C 0.85523(4) -0.2101(2) 0.75214(5)
H20 H 0.8850 -0.1949 0.7801
C16 C 0.81987(5) -0.3916(2) 0.75382(5)
H21 H 0.8255 -0.5047 0.7830
C17 C 0.77601(4) -0.41020(19) 0.71300(5)
H22 H 0.7516 -0.5344 0.7150
C18 C 0.72057(4) -0.2692(2) 0.62393(5)
loop_
_geom_bond_atom_site_label_1
_geom_bond_atom_site_label_2
_geom_bond_site_symmetry_1
_geom_bond_site_symmetry_2
O1 C7 1_555 1_555
N1 C8 1_555 1_555
C1 C2 1_555 1_555
C2 H1 1_555 1_555
C3 C2 1_555 1_555
H2 C3 1_555 1_555
C4 C3 1_555 1_555
H3 C4 1_555 1_555
C5 C4 1_555 1_555
H4 C5 1_555 1_555
C6 C1 1_555 1_555
H5 C6 1_555 1_555
C7 C1 1_555 1_555
H6 C7 1_555 1_555
C8 C7 1_555 1_555
H7 C8 1_555 1_555
C9 C8 1_555 1_555
H8 C9 1_555 1_555
H9 C9 1_555 1_555
H10 C9 1_555 1_555
C10 N1 1_555 1_555
H11 C10 1_555 1_555
H12 C10 1_555 1_555
H13 C10 1_555 1_555
C11 N1 1_555 1_555
H14 C11 1_555 1_555
H15 C11 1_555 1_555
H16 C11 1_555 1_555
H17 N1 1_555 1_555
H18 O1 1_555 1_555
O2 C18 1_555 1_555
O3 C18 1_555 1_555
O4 N2 1_555 1_555
O5 N2 1_555 1_555
N2 C14 1_555 1_555
C12 C13 1_555 1_555
C13 H19 1_555 1_555
C14 C13 1_555 1_555
C15 C14 1_555 1_555
H20 C15 1_555 1_555
C16 C15 1_555 1_555
H21 C16 1_555 1_555
C17 C12 1_555 1_555
H22 C17 1_555 1_555
C18 C12 1_555 1_555
C5 C6 1_555 1_555
C16 C17 1_555 1_555

#END
