
#######################################################################
#
#                 Cambridge Crystallographic Data Centre
#                                CCDC 
#
#######################################################################
#
# If this CIF has been generated from an entry in the Cambridge 
# Structural Database, then it will include bibliographic, chemical, 
# crystal, experimental, refinement or atomic coordinate data resulting 
# from the CCDC's data processing and validation procedures.
#
#######################################################################

data_VAVKAH
_chemical_formula_moiety         'C11 H18 N1 O1 1+,C8 H7 O3 1-,H2 O1'
_chemical_name_systematic        '(-)-methylephedrinium mandelate monohydrate'
_symmetry_cell_setting           monoclinic
_symmetry_space_group_name_H-M   'P 21'
_symmetry_Int_Tables_number      4
_space_group_name_Hall           'P 2yb'
loop_
_symmetry_equiv_pos_site_id
_symmetry_equiv_pos_as_xyz
1 x,y,z
2 -x,1/2+y,-z
_cell_length_a                   9.9766(3)
_cell_length_b                   5.7644(2)
_cell_length_c                   15.9095(6)
_cell_angle_alpha                90
_cell_angle_beta                 93.403(3)
_cell_angle_gamma                90
_cell_volume                     913.328
_exptl_crystal_colour            colorless
_exptl_crystal_description       needle
_cell_formula_units_Z            2
loop_
_atom_site_label
_atom_site_type_symbol
_atom_site_fract_x
_atom_site_fract_y
_atom_site_fract_z
O1 O 0.39963(13) 0.0139(2) 0.24300(7)
N1 N 0.37198(13) 0.4587(2) 0.12632(8)
C1 C 0.37466(15) 0.2821(3) 0.35741(9)
C2 C 0.31140(16) 0.1062(3) 0.39975(10)
H1 H 0.2895 -0.0353 0.3716
C3 C 0.28007(17) 0.1357(3) 0.48273(11)
H2 H 0.2363 0.0149 0.5110
C4 C 0.31228(17) 0.3406(3) 0.52456(11)
H3 H 0.2912 0.3602 0.5816
C5 C 0.37515(17) 0.5160(3) 0.48311(10)
H4 H 0.3975 0.6568 0.5116
C6 C 0.40595(16) 0.4874(3) 0.39964(10)
H5 H 0.4487 0.6094 0.3713
C7 C 0.40910(15) 0.2523(3) 0.26617(9)
H6 H 0.5030 0.3073 0.2598
C8 C 0.31159(15) 0.4000(3) 0.20954(9)
H7 H 0.2993 0.5502 0.2396
C9 C 0.17319(15) 0.2904(3) 0.19637(10)
H8 H 0.1156 0.3904 0.1598
H9 H 0.1335 0.2724 0.2509
H10 H 0.1814 0.1380 0.1699
C10 C 0.38470(15) 0.2606(3) 0.06717(9)
H11 H 0.2956 0.1954 0.0526
H12 H 0.4423 0.1409 0.0941
H13 H 0.4245 0.3152 0.0159
C11 C 0.29595(16) 0.6516(3) 0.08251(10)
H14 H 0.3450 0.7048 0.0345
H15 H 0.2862 0.7805 0.1218
H16 H 0.2069 0.5959 0.0624
H17 H 0.4553(19) 0.520(3) 0.1397(11)
H18 H 0.475(2) -0.035(4) 0.2197(13)
O2 O 0.66752(11) 0.3647(2) 0.13893(8)
O3 O 0.57788(11) 0.7854(2) 0.15632(7)
O4 O 0.77324(11) 0.9409(2) 0.12339(7)
C12 C 0.84566(15) 0.5173(3) 0.23847(9)
C13 C 0.83204(16) 0.3237(3) 0.28929(10)
H19 H 0.7702 0.2050 0.2722
C14 C 0.90843(17) 0.3024(4) 0.36517(10)
H20 H 0.8996 0.1678 0.3989
C15 C 0.99658(17) 0.4750(3) 0.39165(11)
H21 H 1.0484 0.4601 0.4434
C16 C 1.00885(18) 0.6694(3) 0.34246(12)
H22 H 1.0685 0.7900 0.3609
C17 C 0.93470(16) 0.6910(3) 0.26607(11)
H23 H 0.9449 0.8253 0.2324
C18 C 0.76864(15) 0.5354(3) 0.15239(10)
H24 H 0.8341 0.5196 0.1075
C19 C 0.70050(16) 0.7728(3) 0.14318(9)
H25 H 0.7034(19) 0.233(4) 0.1347(12)
O5 O 0.99497(13) 0.9282(3) 0.02681(9)
H26 H 0.999(3) 0.789(6) 0.0091(17)
H27 H 0.933(2) 0.934(4) 0.0597(14)
loop_
_geom_bond_atom_site_label_1
_geom_bond_atom_site_label_2
_geom_bond_site_symmetry_1
_geom_bond_site_symmetry_2
O1 C7 1_555 1_555
N1 C8 1_555 1_555
C1 C2 1_555 1_555
C2 H1 1_555 1_555
C3 C2 1_555 1_555
H2 C3 1_555 1_555
C4 C3 1_555 1_555
H3 C4 1_555 1_555
C5 C4 1_555 1_555
H4 C5 1_555 1_555
C6 C1 1_555 1_555
H5 C6 1_555 1_555
C7 C1 1_555 1_555
H6 C7 1_555 1_555
C8 C7 1_555 1_555
H7 C8 1_555 1_555
C9 C8 1_555 1_555
H8 C9 1_555 1_555
H9 C9 1_555 1_555
H10 C9 1_555 1_555
C10 N1 1_555 1_555
H11 C10 1_555 1_555
H12 C10 1_555 1_555
H13 C10 1_555 1_555
C11 N1 1_555 1_555
H14 C11 1_555 1_555
H15 C11 1_555 1_555
H16 C11 1_555 1_555
H17 N1 1_555 1_555
H18 O1 1_555 1_555
O2 C18 1_555 1_555
O3 C19 1_555 1_555
O4 C19 1_555 1_555
C12 C13 1_555 1_555
C13 H19 1_555 1_555
C14 C13 1_555 1_555
H20 C14 1_555 1_555
C15 C14 1_555 1_555
H21 C15 1_555 1_555
C16 C15 1_555 1_555
H22 C16 1_555 1_555
C17 C12 1_555 1_555
H23 C17 1_555 1_555
C18 C12 1_555 1_555
H24 C18 1_555 1_555
C19 C18 1_555 1_555
H25 O2 1_555 1_555
O5 H26 1_555 1_555
H27 O5 1_555 1_555
C5 C6 1_555 1_555
C16 C17 1_555 1_555

#END
