
#######################################################################
#
#                 Cambridge Crystallographic Data Centre
#                                CCDC 
#
#######################################################################
#
# If this CIF has been generated from an entry in the Cambridge 
# Structural Database, then it will include bibliographic, chemical, 
# crystal, experimental, refinement or atomic coordinate data resulting 
# from the CCDC's data processing and validation procedures.
#
#######################################################################

data_VAVKEL
_chemical_formula_moiety         'C11 H18 N1 O1 1+,C4 H5 O4 1-'
_chemical_name_systematic        '(-)-methylephedrinium hydrogen succinate'
_symmetry_cell_setting           orthorhombic
_symmetry_space_group_name_H-M   'P 21 21 21'
_symmetry_Int_Tables_number      19
_space_group_name_Hall           'P 2ac 2ab'
loop_
_symmetry_equiv_pos_site_id
_symmetry_equiv_pos_as_xyz
1 x,y,z
2 1/2-x,-y,1/2+z
3 1/2+x,1/2-y,-z
4 -x,1/2+y,1/2-z
_cell_length_a                   6.0939(3)
_cell_length_b                   14.0600(8)
_cell_length_c                   17.8802(13)
_cell_angle_alpha                90
_cell_angle_beta                 90
_cell_angle_gamma                90
_cell_volume                     1531.98
_exptl_crystal_colour            colorless
_exptl_crystal_description       block
_cell_formula_units_Z            4
loop_
_atom_site_label
_atom_site_type_symbol
_atom_site_fract_x
_atom_site_fract_y
_atom_site_fract_z
O1 O 1.1161(4) 0.55949(17) 0.31159(14)
N1 N 0.6713(4) 0.45574(19) 0.29066(17)
C1 C 0.9010(5) 0.6927(2) 0.35807(18)
C2 C 0.7222(6) 0.7545(2) 0.3525(2)
H1 H 0.6018 0.7381 0.3213
C3 C 0.7183(6) 0.8389(2) 0.3916(2)
H2 H 0.5963 0.8805 0.3871
C4 C 0.8932(6) 0.8629(3) 0.4378(2)
H3 H 0.8911 0.9209 0.4650
C5 C 1.0704(6) 0.8019(3) 0.4437(2)
H4 H 1.1902 0.8178 0.4753
C6 C 1.0730(5) 0.7180(2) 0.40383(19)
H5 H 1.1960 0.6768 0.4080
C7 C 0.9026(5) 0.6012(2) 0.31383(19)
H6 H 0.8546 0.6151 0.2615
C8 C 0.7441(6) 0.5288(2) 0.34817(18)
H7 H 0.6099 0.5649 0.3632
C9 C 0.8339(6) 0.4831(2) 0.41859(19)
H8 H 0.9586 0.4422 0.4057
H9 H 0.7188 0.4448 0.4422
H10 H 0.8822 0.5328 0.4534
C10 C 0.4813(5) 0.3973(3) 0.3184(2)
H11 H 0.5345 0.3499 0.3543
H12 H 0.4114 0.3650 0.2761
H13 H 0.3744 0.4390 0.3430
C11 C 0.8455(6) 0.3931(2) 0.26019(19)
H14 H 0.7817 0.3498 0.2231
H15 H 0.9108 0.3561 0.3009
H16 H 0.9590 0.4321 0.2364
H17 H 0.609(6) 0.496(3) 0.244(2)
H18 H 1.189(7) 0.590(3) 0.275(2)
O2 O 1.5622(4) 0.54589(16) 0.16430(13)
O3 O 1.3129(4) 0.65263(17) 0.20117(13)
O4 O 0.9258(3) 0.58377(16) 0.09340(14)
H19 H 0.815(4) 0.565(3) 0.1170(18)
O5 O 0.8437(4) 0.73513(16) 0.12077(13)
C12 C 1.4129(5) 0.6096(2) 0.15196(19)
C13 C 1.3653(5) 0.6274(2) 0.07016(18)
H20 H 1.3237 0.5665 0.0463
H21 H 1.5009 0.6503 0.0456
C14 C 1.1824(5) 0.6999(2) 0.05687(19)
H22 H 1.2322 0.7628 0.0751
H23 H 1.1567 0.7054 0.0024
C15 C 0.9667(5) 0.6754(2) 0.09480(19)
loop_
_geom_bond_atom_site_label_1
_geom_bond_atom_site_label_2
_geom_bond_site_symmetry_1
_geom_bond_site_symmetry_2
O1 C7 1_555 1_555
N1 C8 1_555 1_555
C1 C2 1_555 1_555
C2 H1 1_555 1_555
C3 C2 1_555 1_555
H2 C3 1_555 1_555
C4 C3 1_555 1_555
H3 C4 1_555 1_555
C5 C4 1_555 1_555
H4 C5 1_555 1_555
C6 C1 1_555 1_555
H5 C6 1_555 1_555
C7 C1 1_555 1_555
H6 C7 1_555 1_555
C8 C7 1_555 1_555
H7 C8 1_555 1_555
C9 C8 1_555 1_555
H8 C9 1_555 1_555
H9 C9 1_555 1_555
H10 C9 1_555 1_555
C10 N1 1_555 1_555
H11 C10 1_555 1_555
H12 C10 1_555 1_555
H13 C10 1_555 1_555
C11 N1 1_555 1_555
H14 C11 1_555 1_555
H15 C11 1_555 1_555
H16 C11 1_555 1_555
H17 N1 1_555 1_555
H18 O1 1_555 1_555
O2 C12 1_555 1_555
O3 C12 1_555 1_555
O4 H19 1_555 1_555
O5 C15 1_555 1_555
C12 C13 1_555 1_555
C13 H20 1_555 1_555
H21 C13 1_555 1_555
C14 C13 1_555 1_555
H22 C14 1_555 1_555
H23 C14 1_555 1_555
C15 O4 1_555 1_555
C5 C6 1_555 1_555
C14 C15 1_555 1_555

#END
