
#######################################################################
#
#                 Cambridge Crystallographic Data Centre
#                                CCDC 
#
#######################################################################
#
# If this CIF has been generated from an entry in the Cambridge 
# Structural Database, then it will include bibliographic, chemical, 
# crystal, experimental, refinement or atomic coordinate data resulting 
# from the CCDC's data processing and validation procedures.
#
#######################################################################

data_VAVLUC
_chemical_formula_moiety         'C11 H18 N1 O1 1+,C8 H7 O2 1-'
_chemical_name_systematic        '(+-)-methylephedrinium 3-methylbenzoate'
_symmetry_cell_setting           monoclinic
_symmetry_space_group_name_H-M   'C 2/c'
_symmetry_Int_Tables_number      15
_space_group_name_Hall           '-C 2yn'
loop_
_symmetry_equiv_pos_site_id
_symmetry_equiv_pos_as_xyz
1 x,y,z
2 -x,y,1/2-z
3 1/2+x,1/2+y,z
4 1/2-x,1/2+y,1/2-z
5 -x,-y,-z
6 x,-y,1/2+z
7 1/2-x,1/2-y,-z
8 1/2+x,1/2-y,1/2+z
_cell_length_a                   24.371(5)
_cell_length_b                   6.0222(9)
_cell_length_c                   23.684(3)
_cell_angle_alpha                90
_cell_angle_beta                 95.240(17)
_cell_angle_gamma                90
_cell_volume                     3461.5
_exptl_crystal_colour            colorless
_exptl_crystal_description       lath
_cell_formula_units_Z            8
loop_
_atom_site_label
_atom_site_type_symbol
_atom_site_fract_x
_atom_site_fract_y
_atom_site_fract_z
O1 O 1.10487(8) 0.0377(3) 0.54693(7)
N1 N 1.15273(8) 0.4638(3) 0.49304(8)
C1 C 1.05928(10) 0.3000(4) 0.60571(9)
C2 C 1.01837(10) 0.1427(4) 0.61094(9)
H1 H 1.0191 0.0059 0.5910
C3 C 0.97655(11) 0.1852(5) 0.64516(10)
H2 H 0.9485 0.0774 0.6482
C4 C 0.97490(10) 0.3822(5) 0.67497(10)
H3 H 0.9460 0.4097 0.6984
C5 C 1.01587(10) 0.5391(4) 0.67034(9)
H4 H 1.0152 0.6746 0.6908
C6 C 1.05796(10) 0.4983(4) 0.63578(9)
H5 H 1.0859 0.6064 0.6327
C7 C 1.10523(10) 0.2592(4) 0.56744(9)
H6 H 1.1415 0.2894 0.5893
C8 C 1.09809(9) 0.4176(4) 0.51668(9)
H7 H 1.0849 0.5621 0.5312
C9 C 1.05436(10) 0.3389(4) 0.47123(9)
H8 H 1.0483 0.4532 0.4419
H9 H 1.0199 0.3112 0.4883
H10 H 1.0667 0.2014 0.4542
C10 C 1.17770(11) 0.2739(4) 0.46441(10)
H11 H 1.1536 0.2309 0.4308
H12 H 1.1822 0.1479 0.4906
H13 H 1.2138 0.3179 0.4529
C11 C 1.14922(11) 0.6617(4) 0.45488(9)
H14 H 1.1864 0.7152 0.4498
H15 H 1.1283 0.7795 0.4718
H16 H 1.1306 0.6203 0.4180
H17 H 1.1800(11) 0.499(4) 0.5294(12)
H18 H 1.1306(13) -0.035(5) 0.5670(12)
O2 O 1.23245(6) 0.5334(3) 0.57511(7)
O3 O 1.17372(8) 0.7769(3) 0.60596(8)
C12 C 1.26234(9) 0.7490(4) 0.65604(9)
C13 C 1.30337(9) 0.6030(4) 0.67663(9)
H19 H 1.3067 0.4634 0.6585
C14 C 1.33984(10) 0.6569(4) 0.72328(9)
C15 C 1.33483(11) 0.8672(4) 0.74740(9)
H20 H 1.3595 0.9090 0.7790
C16 C 1.29493(11) 1.0148(4) 0.72624(10)
H21 H 1.2927 1.1576 0.7430
C17 C 1.25811(10) 0.9568(4) 0.68087(9)
H22 H 1.2302 1.0577 0.6668
C18 C 1.22022(11) 0.6837(4) 0.60835(10)
C19 C 1.38188(10) 0.4945(4) 0.74881(11)
H23 H 1.3684 0.4265 0.7825
H24 H 1.4166 0.5724 0.7596
H25 H 1.3881 0.3788 0.7210
loop_
_geom_bond_atom_site_label_1
_geom_bond_atom_site_label_2
_geom_bond_site_symmetry_1
_geom_bond_site_symmetry_2
O1 C7 1_555 1_555
N1 C8 1_555 1_555
C1 C2 1_555 1_555
C2 H1 1_555 1_555
C3 C2 1_555 1_555
H2 C3 1_555 1_555
C4 C3 1_555 1_555
H3 C4 1_555 1_555
C5 C4 1_555 1_555
H4 C5 1_555 1_555
C6 C1 1_555 1_555
H5 C6 1_555 1_555
C7 C1 1_555 1_555
H6 C7 1_555 1_555
C8 C7 1_555 1_555
H7 C8 1_555 1_555
C9 C8 1_555 1_555
H8 C9 1_555 1_555
H9 C9 1_555 1_555
H10 C9 1_555 1_555
C10 N1 1_555 1_555
H11 C10 1_555 1_555
H12 C10 1_555 1_555
H13 C10 1_555 1_555
C11 N1 1_555 1_555
H14 C11 1_555 1_555
H15 C11 1_555 1_555
H16 C11 1_555 1_555
H17 N1 1_555 1_555
H18 O1 1_555 1_555
O2 C18 1_555 1_555
O3 C18 1_555 1_555
C12 C13 1_555 1_555
C13 H19 1_555 1_555
C14 C13 1_555 1_555
C15 C14 1_555 1_555
H20 C15 1_555 1_555
C16 C15 1_555 1_555
H21 C16 1_555 1_555
C17 C12 1_555 1_555
H22 C17 1_555 1_555
C18 C12 1_555 1_555
C19 C14 1_555 1_555
H23 C19 1_555 1_555
H24 C19 1_555 1_555
H25 C19 1_555 1_555
C5 C6 1_555 1_555
C16 C17 1_555 1_555

#END
