
#######################################################################
#
#                 Cambridge Crystallographic Data Centre
#                                CCDC 
#
#######################################################################
#
# If this CIF has been generated from an entry in the Cambridge 
# Structural Database, then it will include bibliographic, chemical, 
# crystal, experimental, refinement or atomic coordinate data resulting 
# from the CCDC's data processing and validation procedures.
#
#######################################################################

data_VAVLOV
_chemical_formula_moiety         'C30 H26 N6'
_chemical_name_systematic        
(4-(2-(Cyanoimino)-1,2-bis(4-(dimethylamino)phenyl)ethylidene)naphthalen-1(4H)-ylidene)cyanamide
_symmetry_cell_setting           monoclinic
_symmetry_space_group_name_H-M   'C 2/c'
_symmetry_Int_Tables_number      15
_space_group_name_Hall           '-C 2yn'
loop_
_symmetry_equiv_pos_site_id
_symmetry_equiv_pos_as_xyz
1 x,y,z
2 1/2+x,1/2+y,z
3 -x,y,1/2-z
4 1/2-x,1/2+y,1/2-z
5 -x,-y,-z
6 1/2-x,1/2-y,-z
7 x,-y,1/2+z
8 1/2+x,1/2-y,1/2+z
_cell_length_a                   26.6002(6)
_cell_length_b                   12.4004(8)
_cell_length_c                   17.7239(12)
_cell_angle_alpha                90
_cell_angle_beta                 120.646(5)
_cell_angle_gamma                90
_cell_volume                     5029.75
_exptl_crystal_colour            black
_exptl_crystal_description       cube
_cell_formula_units_Z            8
loop_
_atom_site_label
_atom_site_type_symbol
_atom_site_fract_x
_atom_site_fract_y
_atom_site_fract_z
N1 N 0.31802(11) 0.6260(3) 0.19963(17)
N2 N 0.09549(16) 0.4429(4) 0.3652(2)
N3 N 0.40798(13) 0.5294(3) 0.3100(2)
N4 N 0.08848(13) 0.8993(4) -0.0466(2)
N5 N 0.45862(13) 1.0977(3) 0.4154(3)
C1 C 0.29165(13) 0.6995(3) 0.2209(2)
C2 C 0.31307(12) 0.7282(3) 0.31484(19)
C3 C 0.29004(13) 0.6713(3) 0.3576(2)
C4 C 0.23868(13) 0.6048(3) 0.3049(2)
H1 H 0.2255 0.5921 0.2370
C5 C 0.20652(13) 0.5582(3) 0.3345(2)
H2 H 0.1679 0.5127 0.2901
C6 C 0.22314(14) 0.5686(3) 0.4246(2)
C7 C 0.30014(16) 0.6183(3) 0.5751(2)
H3 H 0.2736 0.5819 0.5984
C8 C 0.35279(18) 0.6613(3) 0.6345(2)
H4 H 0.3685 0.6587 0.7039
C9 C 0.38631(17) 0.7094(3) 0.6021(2)
H5 H 0.4281 0.7447 0.6479
C10 C 0.36746(15) 0.7125(3) 0.5154(2)
H6 H 0.3952 0.7475 0.4938
C11 C 0.31188(14) 0.6707(3) 0.4521(2)
C12 C 0.27927(13) 0.6197(3) 0.48522(19)
N6 N 0.19207(12) 0.5317(3) 0.45762(18)
C13 C 0.14037(17) 0.4861(4) 0.4042(3)
C14 C 0.36560(15) 0.5760(3) 0.2632(2)
C15 C 0.24142(13) 0.7557(3) 0.1523(2)
C16 C 0.21143(13) 0.8337(3) 0.1712(2)
H7 H 0.2276 0.8554 0.2387
C17 C 0.16181(14) 0.8839(3) 0.1060(2)
H8 H 0.1400 0.9442 0.1231
C18 C 0.13983(14) 0.8568(4) 0.0184(2)
C19 C 0.17129(15) 0.7779(5) -0.0022(2)
H9 H 0.1561 0.7577 -0.0698
C20 C 0.22004(15) 0.7291(4) 0.0634(2)
H10 H 0.2426 0.6693 0.0473
C21 C 0.05470(16) 0.9712(4) -0.0248(3)
H11 H 0.0124 0.9866 -0.0833
H12 H 0.0781 1.0471 0.0000
H13 H 0.0482 0.9339 0.0253
C22 C 0.0632(2) 0.8639(7) -0.1373(3)
H14 H 0.0178 0.8901 -0.1751
H15 H 0.0652 0.7763 -0.1393
H16 H 0.0877 0.8991 -0.1651
C23 C 0.35272(13) 0.8202(3) 0.34414(19)
C24 C 0.34714(13) 0.9044(3) 0.3929(2)
H17 H 0.3151 0.8966 0.4127
C25 C 0.38094(14) 0.9963(3) 0.4162(2)
H18 H 0.3748 1.0591 0.4530
C26 C 0.42393(13) 1.0081(3) 0.3917(2)
C27 C 0.42923(13) 0.9249(3) 0.3424(3)
H19 H 0.4618 0.9313 0.3234
C28 C 0.39365(13) 0.8350(3) 0.3178(2)
H20 H 0.3975 0.7746 0.2771
C29 C 0.45253(18) 1.1842(4) 0.4662(3)
H21 H 0.4909 1.2361 0.4935
H22 H 0.4485 1.1495 0.5194
H23 H 0.4137 1.2316 0.4237
C30 C 0.49160(19) 1.1209(4) 0.3732(4)
H24 H 0.5193 1.1910 0.4040
H25 H 0.4616 1.1375 0.3039
H26 H 0.5188 1.0516 0.3797
loop_
_geom_bond_atom_site_label_1
_geom_bond_atom_site_label_2
_geom_bond_site_symmetry_1
_geom_bond_site_symmetry_2
N1 C1 1_555 1_555
N2 C13 1_555 1_555
N3 C14 1_555 1_555
N4 C18 1_555 1_555
N5 C26 1_555 1_555
C1 C2 1_555 1_555
C2 C3 1_555 1_555
C3 C4 1_555 1_555
C4 H1 1_555 1_555
C5 C4 1_555 1_555
H2 C5 1_555 1_555
C6 C5 1_555 1_555
C7 H3 1_555 1_555
C8 C7 1_555 1_555
H4 C8 1_555 1_555
C9 C8 1_555 1_555
H5 C9 1_555 1_555
C10 C9 1_555 1_555
H6 C10 1_555 1_555
C11 C3 1_555 1_555
C12 C6 1_555 1_555
N6 C6 1_555 1_555
C13 N6 1_555 1_555
C14 N1 1_555 1_555
C15 C1 1_555 1_555
C16 C15 1_555 1_555
H7 C16 1_555 1_555
C17 C16 1_555 1_555
H8 C17 1_555 1_555
C18 C17 1_555 1_555
C19 C18 1_555 1_555
H9 C19 1_555 1_555
C20 C15 1_555 1_555
H10 C20 1_555 1_555
C21 N4 1_555 1_555
H11 C21 1_555 1_555
H12 C21 1_555 1_555
H13 C21 1_555 1_555
C22 N4 1_555 1_555
H14 C22 1_555 1_555
H15 C22 1_555 1_555
H16 C22 1_555 1_555
C23 C2 1_555 1_555
C24 C23 1_555 1_555
H17 C24 1_555 1_555
C25 C24 1_555 1_555
H18 C25 1_555 1_555
C26 C25 1_555 1_555
C27 C26 1_555 1_555
H19 C27 1_555 1_555
C28 C23 1_555 1_555
H20 C28 1_555 1_555
C29 N5 1_555 1_555
H21 C29 1_555 1_555
H22 C29 1_555 1_555
H23 C29 1_555 1_555
C30 N5 1_555 1_555
H24 C30 1_555 1_555
H25 C30 1_555 1_555
H26 C30 1_555 1_555
C7 C12 1_555 1_555
C10 C11 1_555 1_555
C11 C12 1_555 1_555
C19 C20 1_555 1_555
C27 C28 1_555 1_555

#END
