
#######################################################################
#
#                 Cambridge Crystallographic Data Centre
#                                CCDC 
#
#######################################################################
#
# If this CIF has been generated from an entry in the Cambridge 
# Structural Database, then it will include bibliographic, chemical, 
# crystal, experimental, refinement or atomic coordinate data resulting 
# from the CCDC's data processing and validation procedures.
#
#######################################################################

data_VAVLAI
_chemical_formula_moiety         'C11 H18 N1 O1 1+,C7 H4 F1 O2 1-'
_chemical_name_systematic        '(+-)-methylephedrinium 4-fluorobenzoate'
_symmetry_cell_setting           monoclinic
_symmetry_space_group_name_H-M   'P 21/c'
_symmetry_Int_Tables_number      14
_space_group_name_Hall           '-P 2ybc'
loop_
_symmetry_equiv_pos_site_id
_symmetry_equiv_pos_as_xyz
1 x,y,z
2 -x,1/2+y,1/2-z
3 -x,-y,-z
4 x,1/2-y,1/2+z
_cell_length_a                   12.5372(4)
_cell_length_b                   13.4436(4)
_cell_length_c                   10.3673(2)
_cell_angle_alpha                90
_cell_angle_beta                 105.903(2)
_cell_angle_gamma                90
_cell_volume                     1680.48
_exptl_crystal_colour            colorless
_exptl_crystal_description       block
_cell_formula_units_Z            4
loop_
_atom_site_label
_atom_site_type_symbol
_atom_site_fract_x
_atom_site_fract_y
_atom_site_fract_z
F1 F -0.15248(8) 0.03118(7) 0.18048(9)
O1 O -0.50541(9) 0.35229(8) -0.09984(11)
O2 O -0.61923(10) 0.23957(9) -0.05344(12)
C1 C -0.42487(13) 0.20512(11) 0.01076(15)
C2 C -0.32157(14) 0.22902(12) -0.00587(16)
H1 H -0.3141 0.2858 -0.0573
C3 C -0.22902(14) 0.17099(12) 0.05168(16)
H2 H -0.1583 0.1873 0.0406
C4 C -0.24296(13) 0.08920(12) 0.12517(15)
C5 C -0.34300(14) 0.06332(13) 0.14549(16)
H3 H -0.3494 0.0067 0.1977
C6 C -0.43440(14) 0.12213(13) 0.08772(16)
H4 H -0.5045 0.1057 0.1007
C7 C -0.52435(13) 0.26939(12) -0.05165(15)
O3 O -0.28106(9) -0.09940(8) -0.05496(11)
N1 N -0.31262(11) -0.04003(9) -0.33704(12)
C8 C -0.14754(13) -0.22579(11) -0.07761(14)
C9 C -0.07598(14) -0.19941(12) 0.04621(15)
H5 H -0.0881 -0.1395 0.0887
C10 C 0.01296(14) -0.26052(13) 0.10757(16)
H6 H 0.0610 -0.2425 0.1923
C11 C 0.03184(14) -0.34762(12) 0.04561(16)
H7 H 0.0932 -0.3888 0.0872
C12 C -0.03926(14) -0.37441(12) -0.07731(16)
H8 H -0.0266 -0.4341 -0.1199
C13 C -0.12877(14) -0.31416(11) -0.13806(16)
H9 H -0.1777 -0.3333 -0.2216
C14 C -0.24462(13) -0.15931(11) -0.14696(14)
H10 H -0.3076 -0.2024 -0.1963
C15 C -0.21125(12) -0.09154(11) -0.24846(15)
H11 H -0.1813 -0.1356 -0.3080
C16 C -0.11997(13) -0.01776(12) -0.18432(16)
H12 H -0.1110 0.0299 -0.2521
H13 H -0.0502 -0.0536 -0.1477
H14 H -0.1400 0.0179 -0.1119
C17 C -0.34811(14) 0.05207(11) -0.27885(16)
H15 H -0.2934 0.1049 -0.2750
H16 H -0.3536 0.0380 -0.1881
H17 H -0.4206 0.0737 -0.3353
C18 C -0.29857(15) -0.01918(13) -0.47265(15)
H18 H -0.3630 0.0178 -0.5258
H19 H -0.2922 -0.0821 -0.5177
H20 H -0.2313 0.0204 -0.4636
H21 H -0.3769(16) -0.0871(14) -0.3520(18)
H22 H -0.3174(19) -0.1425(17) -0.013(2)
loop_
_geom_bond_atom_site_label_1
_geom_bond_atom_site_label_2
_geom_bond_site_symmetry_1
_geom_bond_site_symmetry_2
F1 C4 1_555 1_555
O1 C7 1_555 1_555
O2 C7 1_555 1_555
C1 C2 1_555 1_555
C2 H1 1_555 1_555
C3 C2 1_555 1_555
H2 C3 1_555 1_555
C4 C3 1_555 1_555
C5 C4 1_555 1_555
H3 C5 1_555 1_555
C6 C1 1_555 1_555
H4 C6 1_555 1_555
C7 C1 1_555 1_555
O3 C14 1_555 1_555
N1 C15 1_555 1_555
C8 C9 1_555 1_555
C9 H5 1_555 1_555
C10 C9 1_555 1_555
H6 C10 1_555 1_555
C11 C10 1_555 1_555
H7 C11 1_555 1_555
C12 C11 1_555 1_555
H8 C12 1_555 1_555
C13 C8 1_555 1_555
H9 C13 1_555 1_555
C14 C8 1_555 1_555
H10 C14 1_555 1_555
C15 C14 1_555 1_555
H11 C15 1_555 1_555
C16 C15 1_555 1_555
H12 C16 1_555 1_555
H13 C16 1_555 1_555
H14 C16 1_555 1_555
C17 N1 1_555 1_555
H15 C17 1_555 1_555
H16 C17 1_555 1_555
H17 C17 1_555 1_555
C18 N1 1_555 1_555
H18 C18 1_555 1_555
H19 C18 1_555 1_555
H20 C18 1_555 1_555
H21 N1 1_555 1_555
H22 O3 1_555 1_555
C5 C6 1_555 1_555
C12 C13 1_555 1_555

#END
