
#######################################################################
#
#                 Cambridge Crystallographic Data Centre
#                                CCDC 
#
#######################################################################
#
# If this CIF has been generated from an entry in the Cambridge 
# Structural Database, then it will include bibliographic, chemical, 
# crystal, experimental, refinement or atomic coordinate data resulting 
# from the CCDC's data processing and validation procedures.
#
#######################################################################

data_VAVLEL
_chemical_formula_moiety         'C23 H16 N2'
_chemical_name_systematic        2,3-Diphenyl-5H-pyrido[3,2-b]indole
_symmetry_cell_setting           triclinic
_symmetry_space_group_name_H-M   'P -1'
_symmetry_Int_Tables_number      2
_space_group_name_Hall           '-P 1'
loop_
_symmetry_equiv_pos_site_id
_symmetry_equiv_pos_as_xyz
1 x,y,z
2 -x,-y,-z
_cell_length_a                   11.3832(6)
_cell_length_b                   11.7346(6)
_cell_length_c                   13.7133(7)
_cell_angle_alpha                84.2350(10)
_cell_angle_beta                 73.9740(10)
_cell_angle_gamma                80.1920(10)
_cell_volume                     1732.1
_exptl_crystal_colour            colorless
_exptl_crystal_description       block
_cell_formula_units_Z            4
loop_
_atom_site_label
_atom_site_type_symbol
_atom_site_fract_x
_atom_site_fract_y
_atom_site_fract_z
N1 N 1.03071(13) 0.31369(13) 0.17069(11)
C1 C 0.98328(16) 0.32038(15) 0.09049(14)
C2 C 1.03522(16) 0.35081(15) -0.01579(14)
N4 N 0.84187(16) 0.30779(16) 0.00484(13)
C6 C 0.95634(17) 0.28865(16) 0.26300(14)
C7 C 0.86383(17) 0.29648(16) 0.09891(14)
C8 C 1.14319(17) 0.39257(16) -0.07201(14)
H2 H 1.2019 0.4046 -0.0400
C10 C 0.94511(17) 0.33956(16) -0.06537(14)
C11 C 1.01312(18) 0.28407(17) 0.34986(14)
C12 C 0.78775(18) 0.27023(17) 0.19325(15)
H3 H 0.7083 0.2547 0.2003
C15 C 0.83432(18) 0.26791(17) 0.27707(14)
C16 C 1.16208(19) 0.41581(17) -0.17511(15)
H4 H 1.2341 0.4430 -0.2131
C17 C 0.9643(2) 0.36041(19) -0.16994(16)
H5 H 0.9060 0.3490 -0.2025
C21 C 1.0726(2) 0.39847(19) -0.22289(16)
H6 H 1.0875 0.4133 -0.2928
C22 C 0.7496(2) 0.24345(19) 0.37887(15)
C27 C 1.1240(2) 0.2132(2) 0.34822(17)
H11 H 1.1637 0.1692 0.2925
C29 C 0.9557(2) 0.34891(19) 0.43400(16)
H13 H 0.8809 0.3967 0.4368
C32 C 1.0096(3) 0.3428(2) 0.51398(18)
H16 H 0.9714 0.3878 0.5694
C37 C 0.6348(2) 0.3111(3) 0.40755(19)
H21 H 0.6128 0.3726 0.3646
C38 C 0.7774(3) 0.1508(2) 0.44322(18)
H22 H 0.8534 0.1033 0.4253
C40 C 1.1760(3) 0.2075(2) 0.4288(2)
H24 H 1.2509 0.1600 0.4266
C41 C 0.5526(3) 0.2876(4) 0.4998(3)
H25 H 0.4768 0.3349 0.5194
C44 C 1.1180(3) 0.2715(3) 0.5123(2)
H28 H 1.1524 0.2661 0.5670
C45 C 0.5819(4) 0.1960(4) 0.5620(2)
H29 H 0.5259 0.1799 0.6234
C46 C 0.6931(5) 0.1284(3) 0.5338(2)
H30 H 0.7130 0.0656 0.5764
H32 H 0.769(2) 0.301(2) -0.0029(19)
N2 N 0.59726(14) 0.27225(14) 0.99429(12)
C3 C 0.49069(17) 0.32222(16) 1.05517(14)
N3 N 0.28630(16) 0.34648(16) 1.13609(13)
C4 C 0.36804(17) 0.21293(17) 0.99314(14)
H1 H 0.2921 0.1934 0.9935
C5 C 0.47649(17) 0.16461(16) 0.92536(14)
C9 C 0.59036(17) 0.19329(16) 0.93189(14)
C13 C 0.37573(17) 0.29049(17) 1.05982(14)
C14 C 0.46904(17) 0.40666(16) 1.13077(15)
C18 C 0.34200(18) 0.41564(17) 1.18038(15)
C19 C 0.46348(18) 0.08651(17) 0.85070(14)
C20 C 0.71448(18) 0.13484(17) 0.87589(16)
C23 C 0.54175(19) 0.47499(18) 1.15938(17)
H7 H 0.6249 0.4730 1.1255
C24 C 0.3661(2) 0.1156(2) 0.80610(16)
H8 H 0.3120 0.1842 0.8217
C25 C 0.2889(2) 0.48402(19) 1.26391(17)
H9 H 0.2060 0.4865 1.2989
C26 C 0.4871(2) 0.5455(2) 1.23915(19)
H10 H 0.5339 0.5929 1.2579
C28 C 0.5423(2) -0.01738(17) 0.82584(16)
H12 H 0.6080 -0.0392 0.8551
C30 C 0.7872(2) 0.0650(2) 0.9309(2)
H14 H 0.7566 0.0531 1.0008
C31 C 0.4274(2) -0.0566(2) 0.71371(19)
H15 H 0.4162 -0.1035 0.6672
C33 C 0.5242(2) -0.0880(2) 0.75847(18)
H17 H 0.5774 -0.1571 0.7430
C34 C 0.3482(2) 0.0441(2) 0.73869(18)
H18 H 0.2818 0.0647 0.7101
C35 C 0.7618(2) 0.1512(2) 0.77176(18)
H19 H 0.7142 0.1976 0.7335
C36 C 0.3637(2) 0.5474(2) 1.29230(18)
H20 H 0.3311 0.5925 1.3483
C39 C 0.9044(3) 0.0129(3) 0.8833(3)
H23 H 0.9519 -0.0345 0.9210
C42 C 0.9510(3) 0.0308(3) 0.7805(3)
H26 H 1.0307 -0.0031 0.7487
C43 C 0.8793(3) 0.0991(3) 0.7247(2)
H27 H 0.9102 0.1102 0.6547
H31 H 0.201(2) 0.344(2) 1.1520(18)
loop_
_geom_bond_atom_site_label_1
_geom_bond_atom_site_label_2
_geom_bond_site_symmetry_1
_geom_bond_site_symmetry_2
N1 C1 1_555 1_555
N2 C3 1_555 1_555
C1 C2 1_555 1_555
C2 C8 1_555 1_555
C3 C13 1_555 1_555
N3 C13 1_555 1_555
N4 C7 1_555 1_555
C4 H1 1_555 1_555
C5 C4 1_555 1_555
C6 N1 1_555 1_555
C7 C1 1_555 1_555
C8 H2 1_555 1_555
C9 N2 1_555 1_555
C10 C2 1_555 1_555
C11 C6 1_555 1_555
C12 C7 1_555 1_555
H3 C12 1_555 1_555
C13 C4 1_555 1_555
C14 C3 1_555 1_555
C15 C6 1_555 1_555
C16 C8 1_555 1_555
H4 C16 1_555 1_555
C17 C10 1_555 1_555
H5 C17 1_555 1_555
C18 N3 1_555 1_555
C19 C5 1_555 1_555
C20 C9 1_555 1_555
C21 C16 1_555 1_555
H6 C21 1_555 1_555
C22 C15 1_555 1_555
C23 C14 1_555 1_555
H7 C23 1_555 1_555
C24 C19 1_555 1_555
H8 C24 1_555 1_555
C25 C18 1_555 1_555
H9 C25 1_555 1_555
C26 C23 1_555 1_555
H10 C26 1_555 1_555
C27 C11 1_555 1_555
H11 C27 1_555 1_555
C28 C19 1_555 1_555
H12 C28 1_555 1_555
C29 C11 1_555 1_555
H13 C29 1_555 1_555
C30 C20 1_555 1_555
H14 C30 1_555 1_555
C31 H15 1_555 1_555
C32 C29 1_555 1_555
H16 C32 1_555 1_555
C33 C28 1_555 1_555
H17 C33 1_555 1_555
C34 C24 1_555 1_555
H18 C34 1_555 1_555
C35 C20 1_555 1_555
H19 C35 1_555 1_555
C36 C25 1_555 1_555
H20 C36 1_555 1_555
C37 C22 1_555 1_555
H21 C37 1_555 1_555
C38 C22 1_555 1_555
H22 C38 1_555 1_555
C39 C30 1_555 1_555
H23 C39 1_555 1_555
C40 C27 1_555 1_555
H24 C40 1_555 1_555
C41 C37 1_555 1_555
H25 C41 1_555 1_555
C42 C39 1_555 1_555
H26 C42 1_555 1_555
C43 C35 1_555 1_555
H27 C43 1_555 1_555
C44 C32 1_555 1_555
H28 C44 1_555 1_555
C45 C41 1_555 1_555
H29 C45 1_555 1_555
C46 C38 1_555 1_555
H30 C46 1_555 1_555
H31 N3 1_555 1_555
H32 N4 1_555 1_555
N4 C10 1_555 1_555
C5 C9 1_555 1_555
C12 C15 1_555 1_555
C14 C18 1_555 1_555
C17 C21 1_555 1_555
C26 C36 1_555 1_555
C31 C33 1_555 1_555
C31 C34 1_555 1_555
C40 C44 1_555 1_555
C42 C43 1_555 1_555
C45 C46 1_555 1_555

#END
