
#######################################################################
#
#                 Cambridge Crystallographic Data Centre
#                                CCDC 
#
#######################################################################
#
# If this CIF has been generated from an entry in the Cambridge 
# Structural Database, then it will include bibliographic, chemical, 
# crystal, experimental, refinement or atomic coordinate data resulting 
# from the CCDC's data processing and validation procedures.
#
#######################################################################

data_VAVLIQ
_chemical_formula_moiety         'C11 H18 N1 O1 1+,0.5(C2 H4 O6 S2 2-),H2 O1'
_chemical_name_systematic        
'(+-)-methylephedrinium hemikis(ethane-1,2-disulfonate) monohydrate'
_symmetry_cell_setting           triclinic
_symmetry_space_group_name_H-M   'P -1'
_symmetry_Int_Tables_number      2
_space_group_name_Hall           '-P 1'
loop_
_symmetry_equiv_pos_site_id
_symmetry_equiv_pos_as_xyz
1 x,y,z
2 -x,-y,-z
_cell_length_a                   5.7707(2)
_cell_length_b                   10.6056(6)
_cell_length_c                   13.0464(5)
_cell_angle_alpha                106.273(4)
_cell_angle_beta                 99.721(3)
_cell_angle_gamma                103.950(4)
_cell_volume                     719.52
_exptl_crystal_colour            colorless
_exptl_crystal_description       prism
_cell_formula_units_Z            2
loop_
_atom_site_label
_atom_site_type_symbol
_atom_site_fract_x
_atom_site_fract_y
_atom_site_fract_z
S1 S 0.29590(6) 0.32467(3) -0.46276(3)
O1 O 0.39556(18) 0.27251(11) -0.37880(9)
O2 O 0.24049(17) 0.22884(10) -0.57469(8)
O3 O 0.08901(17) 0.37431(10) -0.43942(8)
C1 C 0.5362(2) 0.47103(13) -0.45475(11)
H1 H 0.5733 0.5431 -0.3818
H2 H 0.6875 0.4445 -0.4617
S1A S 0.70410(6) 0.67533(3) -0.53724(3)
O1A O 0.60444(18) 0.72749(11) -0.62120(9)
O2A O 0.75951(17) 0.77116(10) -0.42531(8)
O3A O 0.91099(17) 0.62569(10) -0.56058(8)
C1A C 0.4638(2) 0.52897(13) -0.54525(11)
H1A H 0.4267 0.4569 -0.6182
H2A H 0.3125 0.5555 -0.5383
O4 O -0.00320(18) 0.08554(11) -0.22021(8)
N1 N 0.2457(2) -0.10504(12) -0.30344(9)
C2 C 0.3647(2) 0.23741(14) -0.07159(11)
C3 C 0.6098(2) 0.31825(14) -0.04166(11)
H3 H 0.7088 0.3045 -0.0925
C4 C 0.7121(3) 0.41913(15) 0.06194(12)
H4 H 0.8800 0.4737 0.0816
C5 C 0.5681(3) 0.43990(15) 0.13646(12)
H5 H 0.6372 0.5085 0.2074
C6 C 0.3234(3) 0.36020(15) 0.10698(12)
H6 H 0.2245 0.3745 0.1578
C7 C 0.2215(3) 0.25955(15) 0.00376(11)
H7 H 0.0533 0.2054 -0.0157
C8 C 0.2585(2) 0.12803(14) -0.18493(11)
H8 H 0.3273 0.1650 -0.2397
C9 C 0.3307(2) -0.00294(14) -0.18696(11)
H9 H 0.5146 0.0228 -0.1622
C10 C 0.2184(3) -0.06940(15) -0.10983(12)
H10 H 0.0397 -0.1103 -0.1408
H11 H 0.2516 0.0008 -0.0374
H12 H 0.2919 -0.1414 -0.1018
C11 C 0.2892(3) -0.23999(15) -0.30953(12)
H13 H 0.2334 -0.3019 -0.3864
H14 H 0.1969 -0.2816 -0.2645
H15 H 0.4658 -0.2249 -0.2816
C12 C 0.3589(3) -0.05124(15) -0.38397(12)
H16 H 0.5391 -0.0248 -0.3590
H17 H 0.3092 0.0294 -0.3888
H18 H 0.3024 -0.1232 -0.4568
H19 H 0.088(3) -0.1202(17) -0.3241(13)
H20 H -0.042(4) 0.150(2) -0.2389(16)
O5 O -0.1267(2) 0.29024(12) -0.28086(9)
H21 H -0.274(4) 0.286(2) -0.3060(16)
H22 H -0.046(4) 0.315(2) -0.3193(17)
loop_
_geom_bond_atom_site_label_1
_geom_bond_atom_site_label_2
_geom_bond_site_symmetry_1
_geom_bond_site_symmetry_2
S1 O1 1_555 1_555
O2 S1 1_555 1_555
O3 S1 1_555 1_555
C1 S1 1_555 1_555
H1 C1 1_555 1_555
H2 C1 1_555 1_555
O4 C8 1_555 1_555
N1 C9 1_555 1_555
C2 C3 1_555 1_555
C3 H3 1_555 1_555
C4 C3 1_555 1_555
H4 C4 1_555 1_555
C5 C4 1_555 1_555
H5 C5 1_555 1_555
C6 C5 1_555 1_555
H6 C6 1_555 1_555
C7 C2 1_555 1_555
H7 C7 1_555 1_555
C8 C2 1_555 1_555
H8 C8 1_555 1_555
C9 C8 1_555 1_555
H9 C9 1_555 1_555
C10 C9 1_555 1_555
H10 C10 1_555 1_555
H11 C10 1_555 1_555
H12 C10 1_555 1_555
C11 N1 1_555 1_555
H13 C11 1_555 1_555
H14 C11 1_555 1_555
H15 C11 1_555 1_555
C12 N1 1_555 1_555
H16 C12 1_555 1_555
H17 C12 1_555 1_555
H18 C12 1_555 1_555
H19 N1 1_555 1_555
H20 O4 1_555 1_555
O5 H21 1_555 1_555
H22 O5 1_555 1_555
S1A O1A 1_555 1_555
O2A S1A 1_555 1_555
O3A S1A 1_555 1_555
C1A C1 1_555 1_555
H1A C1A 1_555 1_555
H2A C1A 1_555 1_555
C6 C7 1_555 1_555
S1A C1A 1_555 1_555

#END
