
#######################################################################
#
#                 Cambridge Crystallographic Data Centre
#                                CCDC 
#
#######################################################################
#
# If this CIF has been generated from an entry in the Cambridge 
# Structural Database, then it will include bibliographic, chemical, 
# crystal, experimental, refinement or atomic coordinate data resulting 
# from the CCDC's data processing and validation procedures.
#
#######################################################################

data_VAVMAJ
_chemical_formula_moiety         'C11 H18 N1 O1 1+,C8 H7 O3 1-'
_chemical_name_systematic        '(+-)-methylephedrinium rac-mandelate'
_symmetry_cell_setting           monoclinic
_symmetry_space_group_name_H-M   'P 21/c'
_symmetry_Int_Tables_number      14
_space_group_name_Hall           '-P 2ybc'
loop_
_symmetry_equiv_pos_site_id
_symmetry_equiv_pos_as_xyz
1 x,y,z
2 -x,1/2+y,1/2-z
3 -x,-y,-z
4 x,1/2-y,1/2+z
_cell_length_a                   13.0646(7)
_cell_length_b                   9.5474(4)
_cell_length_c                   13.9012(5)
_cell_angle_alpha                90
_cell_angle_beta                 91.572(4)
_cell_angle_gamma                90
_cell_volume                     1733.29
_exptl_crystal_colour            colorless
_exptl_crystal_description       prism
_cell_formula_units_Z            4
loop_
_atom_site_label
_atom_site_type_symbol
_atom_site_fract_x
_atom_site_fract_y
_atom_site_fract_z
O1 O 0.2483(4) 0.0776(4) 0.8379(3)
H1 H 0.2926 0.0334 0.8076
N1 N 0.3679(4) 0.2642(4) 0.9782(3)
H2 H 0.4187 0.2665 0.9326
C1 C 0.1798(5) 0.2895(5) 0.7638(3)
C2 C 0.1912(5) 0.4239(6) 0.7258(3)
H3 H 0.2525 0.4749 0.7387
C3 C 0.1136(6) 0.4829(6) 0.6695(4)
H4 H 0.1220 0.5742 0.6436
C4 C 0.0239(6) 0.4097(7) 0.6508(4)
H5 H -0.0289 0.4500 0.6114
C5 C 0.0111(5) 0.2780(6) 0.6893(4)
H6 H -0.0511 0.2283 0.6781
C6 C 0.0907(5) 0.2180(6) 0.7454(3)
H7 H 0.0825 0.1264 0.7708
C7 C 0.2636(5) 0.2250(5) 0.8257(3)
H8 H 0.3305 0.2399 0.7938
C8 C 0.2681(5) 0.2978(5) 0.9248(3)
H9 H 0.2674 0.4011 0.9128
C9 C 0.1752(6) 0.2643(6) 0.9841(4)
H10 H 0.1697 0.1626 0.9923
H11 H 0.1133 0.2995 0.9509
H12 H 0.1826 0.3090 1.0474
C10 C 0.3951(5) 0.3754(6) 1.0509(4)
H13 H 0.3446 0.3755 1.1017
H14 H 0.3953 0.4671 1.0192
H15 H 0.4633 0.3563 1.0791
C11 C 0.3744(6) 0.1229(6) 1.0244(4)
H16 H 0.4428 0.1098 1.0536
H17 H 0.3616 0.0504 0.9756
H18 H 0.3229 0.1159 1.0741
O2 O 0.4675(4) -0.3462(4) 0.6345(2)
H19 H 0.5008 -0.3987 0.6725
O3 O 0.5348(3) -0.0855(4) 0.6694(2)
O4 O 0.4218(3) -0.0493(4) 0.7831(3)
C12 C 0.3092(5) -0.2202(5) 0.6262(3)
C13 C 0.3083(5) -0.2422(6) 0.5269(4)
H20 H 0.3659 -0.2836 0.4979
C14 C 0.2231(5) -0.2036(6) 0.4700(4)
H21 H 0.2225 -0.2199 0.4025
C15 C 0.1406(6) -0.1423(6) 0.5115(4)
H22 H 0.0831 -0.1143 0.4728
C16 C 0.1409(6) -0.1211(6) 0.6107(4)
H23 H 0.0834 -0.0792 0.6396
C17 C 0.2239(5) -0.1604(6) 0.6666(4)
H24 H 0.2229 -0.1466 0.7343
C18 C 0.4041(5) -0.2566(5) 0.6876(3)
H25 H 0.3828 -0.3056 0.7474
C19 C 0.4615(5) -0.1188(6) 0.7155(3)
loop_
_geom_bond_atom_site_label_1
_geom_bond_atom_site_label_2
_geom_bond_site_symmetry_1
_geom_bond_site_symmetry_2
O1 H1 1_555 1_555
N1 H2 1_555 1_555
C1 C2 1_555 1_555
C2 H3 1_555 1_555
C3 C2 1_555 1_555
H4 C3 1_555 1_555
C4 C3 1_555 1_555
H5 C4 1_555 1_555
C5 C4 1_555 1_555
H6 C5 1_555 1_555
C6 C1 1_555 1_555
H7 C6 1_555 1_555
C7 O1 1_555 1_555
H8 C7 1_555 1_555
C8 N1 1_555 1_555
H9 C8 1_555 1_555
C9 C8 1_555 1_555
H10 C9 1_555 1_555
H11 C9 1_555 1_555
H12 C9 1_555 1_555
C10 N1 1_555 1_555
H13 C10 1_555 1_555
H14 C10 1_555 1_555
H15 C10 1_555 1_555
C11 N1 1_555 1_555
H16 C11 1_555 1_555
H17 C11 1_555 1_555
H18 C11 1_555 1_555
O2 H19 1_555 1_555
O3 C19 1_555 1_555
O4 C19 1_555 1_555
C12 C13 1_555 1_555
C13 H20 1_555 1_555
C14 C13 1_555 1_555
H21 C14 1_555 1_555
C15 C14 1_555 1_555
H22 C15 1_555 1_555
C16 C15 1_555 1_555
H23 C16 1_555 1_555
C17 C12 1_555 1_555
H24 C17 1_555 1_555
C18 O2 1_555 1_555
H25 C18 1_555 1_555
C19 C18 1_555 1_555
C1 C7 1_555 1_555
C5 C6 1_555 1_555
C7 C8 1_555 1_555
C12 C18 1_555 1_555
C16 C17 1_555 1_555

#END
