
#######################################################################
#
#                 Cambridge Crystallographic Data Centre
#                                CCDC 
#
#######################################################################
#
# If this CIF has been generated from an entry in the Cambridge 
# Structural Database, then it will include bibliographic, chemical, 
# crystal, experimental, refinement or atomic coordinate data resulting 
# from the CCDC's data processing and validation procedures.
#
#######################################################################

data_VAVPAL
_chemical_formula_moiety         'C12 H8 Br1 N3 O2,H2 O1'
_chemical_name_systematic        
"5-Bromo-2,5'-dioxo-1,2-dihydrospiro[indole-3,3'-pyrrolidine]-4'-carbonitrile monohydrate"
_symmetry_cell_setting           orthorhombic
_symmetry_space_group_name_H-M   'P 21 21 21'
_symmetry_Int_Tables_number      19
_space_group_name_Hall           'P 2ac 2ab'
loop_
_symmetry_equiv_pos_site_id
_symmetry_equiv_pos_as_xyz
1 x,y,z
2 1/2-x,-y,1/2+z
3 -x,1/2+y,1/2-z
4 1/2+x,1/2-y,-z
_cell_length_a                   7.2587(7)
_cell_length_b                   10.3598(10)
_cell_length_c                   16.6645(16)
_cell_angle_alpha                90
_cell_angle_beta                 90
_cell_angle_gamma                90
_cell_volume                     1253.15
_exptl_crystal_colour            colorless
_exptl_crystal_description       prismatic
_cell_formula_units_Z            4
loop_
_atom_site_label
_atom_site_type_symbol
_atom_site_fract_x
_atom_site_fract_y
_atom_site_fract_z
Br1 Br 0.81128(8) 0.03193(5) 1.06415(3)
N1 N 0.6623(6) 0.2750(4) 0.6744(2)
H1 H 0.5826 0.2659 0.6367
N2 N 0.7802(6) 0.5268(3) 0.8783(2)
H2 H 0.7777 0.6061 0.8937
N3 N 1.2117(6) 0.4605(5) 0.7277(3)
O1 O 0.9204(6) 0.2806(4) 0.5962(2)
O2 O 0.7545(5) 0.5604(3) 0.7426(2)
C1 C 0.8411(7) 0.2831(4) 0.6603(2)
C2 C 0.6101(6) 0.2827(5) 0.7590(3)
H3 H 0.5828 0.1978 0.7806
H4 H 0.5037 0.3381 0.7664
C3 C 0.7823(6) 0.3408(4) 0.7992(2)
C4 C 0.9386(6) 0.2989(4) 0.7426(2)
H5 H 0.9851 0.2146 0.7600
C5 C 1.0937(7) 0.3884(5) 0.7354(2)
C6 C 0.7716(6) 0.4904(4) 0.8018(2)
C7 C 0.7935(6) 0.4221(4) 0.9310(2)
C8 C 0.8004(6) 0.3089(4) 0.8871(2)
C9 C 0.8078(6) 0.1919(4) 0.9257(2)
H6 H 0.8110 0.1150 0.8970
C10 C 0.8102(7) 0.1921(4) 1.0084(2)
C11 C 0.8057(7) 0.3029(4) 1.0525(2)
H7 H 0.8092 0.2994 1.1083
C12 C 0.7959(7) 0.4223(5) 1.0131(3)
H8 H 0.7912 0.4991 1.0418
O3 O 0.3544(5) 0.2719(3) 0.5627(2)
H9 H 0.373(6) 0.267(4) 0.5157(13)
H10 H 0.256(5) 0.311(5) 0.561(4)
loop_
_geom_bond_atom_site_label_1
_geom_bond_atom_site_label_2
_geom_bond_site_symmetry_1
_geom_bond_site_symmetry_2
Br1 C10 1_555 1_555
N1 H1 1_555 1_555
N2 H2 1_555 1_555
N3 C5 1_555 1_555
O1 C1 1_555 1_555
O2 C6 1_555 1_555
O3 H9 1_555 1_555
C1 N1 1_555 1_555
C2 N1 1_555 1_555
H3 C2 1_555 1_555
H4 C2 1_555 1_555
C3 C2 1_555 1_555
C4 C1 1_555 1_555
H5 C4 1_555 1_555
C5 C4 1_555 1_555
C6 N2 1_555 1_555
C7 N2 1_555 1_555
C8 C3 1_555 1_555
C9 C8 1_555 1_555
H6 C9 1_555 1_555
C10 C9 1_555 1_555
C11 C10 1_555 1_555
H7 C11 1_555 1_555
C12 C7 1_555 1_555
H8 C12 1_555 1_555
H10 O3 1_555 1_555
C3 C4 1_555 1_555
C3 C6 1_555 1_555
C7 C8 1_555 1_555
C11 C12 1_555 1_555

#END
