
#######################################################################
#
#                 Cambridge Crystallographic Data Centre
#                                CCDC 
#
#######################################################################
#
# If this CIF has been generated from an entry in the Cambridge 
# Structural Database, then it will include bibliographic, chemical, 
# crystal, experimental, refinement or atomic coordinate data resulting 
# from the CCDC's data processing and validation procedures.
#
#######################################################################

data_VAVTUJ
_chemical_formula_moiety         'C15 H18 B1 F1 N2 O2'
_chemical_name_systematic        
4-Acetoxy-4'-fluoro-4-bora-3a,4a-diaza-s-indacene
_symmetry_cell_setting           triclinic
_symmetry_space_group_name_H-M   'P -1'
_symmetry_Int_Tables_number      2
_space_group_name_Hall           '-P 1'
loop_
_symmetry_equiv_pos_site_id
_symmetry_equiv_pos_as_xyz
1 x,y,z
2 -x,-y,-z
_cell_length_a                   7.678(6)
_cell_length_b                   11.164(9)
_cell_length_c                   18.619(13)
_cell_angle_alpha                95.269(17)
_cell_angle_beta                 95.202(15)
_cell_angle_gamma                107.487(14)
_cell_volume                     1503.98
_cell_formula_units_Z            4
loop_
_atom_site_label
_atom_site_type_symbol
_atom_site_fract_x
_atom_site_fract_y
_atom_site_fract_z
C1 C -0.1948(4) 0.0617(3) 0.9239(2)
C2 C -0.3260(5) -0.0539(4) 0.8910(2)
C3 C -0.3289(5) -0.0499(4) 0.8169(2)
H1 H -0.4017 -0.1131 0.7811
C4 C -0.2054(5) 0.0641(4) 0.8046(2)
C5 C -0.4354(5) -0.1564(4) 0.9307(2)
H2 H -0.5614 -0.1851 0.9089
H3 H -0.4289 -0.1239 0.9807
H4 H -0.3859 -0.2259 0.9278
C6 C -0.1651(6) 0.1077(5) 0.7333(2)
H5 H -0.2032 0.1812 0.7282
H6 H -0.2307 0.0415 0.6951
H7 H -0.0353 0.1285 0.7306
C7 C -0.0121(5) 0.2277(4) 1.01709(19)
C8 C 0.0569(5) 0.2950(4) 1.0872(2)
C9 C 0.1715(5) 0.4110(4) 1.0761(2)
H8 H 0.2380 0.4756 1.1125
C10 C 0.1721(5) 0.4164(4) 1.0013(2)
C11 C 0.0100(6) 0.2474(5) 1.1579(2)
H9 H -0.0545 0.1583 1.1494
H10 H -0.0666 0.2911 1.1793
H11 H 0.1211 0.2624 1.1903
C12 C 0.2743(6) 0.5240(4) 0.9646(2)
H12 H 0.3627 0.4998 0.9382
H13 H 0.3368 0.5952 1.0004
H14 H 0.1895 0.5467 0.9316
C13 C -0.1376(4) 0.1083(4) 0.99574(19)
H15 H -0.1842 0.0584 1.0312
N1 N -0.1247(4) 0.1328(3) 0.86883(15)
N2 N 0.0617(4) 0.3049(3) 0.96508(16)
B1 B 0.0190(5) 0.2654(4) 0.8822(2)
O1 O 0.1892(3) 0.2716(2) 0.84872(13)
O2 O 0.2405(4) 0.1045(3) 0.89184(19)
F1 F -0.0508(3) 0.3518(2) 0.84933(11)
C14 C 0.2851(5) 0.1926(4) 0.8585(2)
C15 C 0.4576(6) 0.2256(5) 0.8239(3)
H16 H 0.5490 0.2949 0.8535
H17 H 0.4336 0.2495 0.7767
H18 H 0.5015 0.1537 0.8191
C16 C 0.2458(5) 0.4687(4) 0.57298(19)
C17 C 0.1587(5) 0.3611(4) 0.6069(2)
C18 C 0.2130(5) 0.3947(4) 0.6805(2)
H19 H 0.1788 0.3426 0.7164
C19 C 0.3276(5) 0.5199(4) 0.6923(2)
C20 C 0.0337(5) 0.2375(4) 0.5688(2)
H20 H 0.0656 0.1694 0.5888
H21 H 0.0465 0.2327 0.5179
H22 H -0.0913 0.2308 0.5753
C21 C 0.4151(7) 0.5959(5) 0.7633(2)
H23 H 0.5432 0.6369 0.7606
H24 H 0.4029 0.5413 0.8007
H25 H 0.3558 0.6586 0.7743
C22 C 0.3404(4) 0.6018(4) 0.47933(19)
C23 C 0.3575(5) 0.6396(4) 0.40921(19)
C24 C 0.4780(5) 0.7613(4) 0.4193(2)
H26 H 0.5158 0.8110 0.3827
C25 C 0.5339(5) 0.7974(4) 0.4938(2)
C26 C 0.2607(6) 0.5612(4) 0.33914(19)
H27 H 0.2896 0.6103 0.2996
H28 H 0.1302 0.5354 0.3408
H29 H 0.3003 0.4876 0.3321
C27 C 0.6652(6) 0.9202(4) 0.5309(2)
H30 H 0.6039 0.9591 0.5643
H31 H 0.7073 0.9756 0.4953
H32 H 0.7685 0.9048 0.5570
C28 C 0.2418(5) 0.4887(4) 0.5012(2)
H33 H 0.1702 0.4238 0.4660
N3 N 0.3504(4) 0.5648(3) 0.62767(15)
N4 N 0.4507(4) 0.7015(3) 0.53075(15)
F2 F 0.6447(3) 0.7294(2) 0.64408(12)
B2 B 0.4630(6) 0.6992(4) 0.6135(2)
O3 O 0.3971(3) 0.7993(2) 0.65000(13)
O4 O 0.1065(4) 0.7174(4) 0.60186(19)
C29 C 0.2248(6) 0.7984(4) 0.6400(2)
C30 C 0.1903(7) 0.9087(5) 0.6808(3)
H34 H 0.2243 0.9803 0.6542
H35 H 0.2624 0.9291 0.7277
H36 H 0.0621 0.8879 0.6866
loop_
_geom_bond_atom_site_label_1
_geom_bond_atom_site_label_2
_geom_bond_site_symmetry_1
_geom_bond_site_symmetry_2
C1 C2 1_555 1_555
C2 C3 1_555 1_555
C3 H1 1_555 1_555
C4 C3 1_555 1_555
C5 C2 1_555 1_555
H2 C5 1_555 1_555
H3 C5 1_555 1_555
H4 C5 1_555 1_555
C6 C4 1_555 1_555
H5 C6 1_555 1_555
H6 C6 1_555 1_555
H7 C6 1_555 1_555
C7 C8 1_555 1_555
C8 C9 1_555 1_555
C9 H8 1_555 1_555
C10 C9 1_555 1_555
C11 C8 1_555 1_555
H9 C11 1_555 1_555
H10 C11 1_555 1_555
H11 C11 1_555 1_555
C12 C10 1_555 1_555
H12 C12 1_555 1_555
H13 C12 1_555 1_555
H14 C12 1_555 1_555
C13 C1 1_555 1_555
H15 C13 1_555 1_555
N1 C1 1_555 1_555
N2 C7 1_555 1_555
B1 N1 1_555 1_555
O1 B1 1_555 1_555
O2 C14 1_555 1_555
F1 B1 1_555 1_555
C14 O1 1_555 1_555
C15 C14 1_555 1_555
H16 C15 1_555 1_555
H17 C15 1_555 1_555
H18 C15 1_555 1_555
C16 C17 1_555 1_555
C17 C18 1_555 1_555
C18 H19 1_555 1_555
C19 C18 1_555 1_555
C20 C17 1_555 1_555
H20 C20 1_555 1_555
H21 C20 1_555 1_555
H22 C20 1_555 1_555
C21 C19 1_555 1_555
H23 C21 1_555 1_555
H24 C21 1_555 1_555
H25 C21 1_555 1_555
C22 C23 1_555 1_555
C23 C24 1_555 1_555
C24 H26 1_555 1_555
C25 C24 1_555 1_555
C26 C23 1_555 1_555
H27 C26 1_555 1_555
H28 C26 1_555 1_555
H29 C26 1_555 1_555
C27 C25 1_555 1_555
H30 C27 1_555 1_555
H31 C27 1_555 1_555
H32 C27 1_555 1_555
C28 C16 1_555 1_555
H33 C28 1_555 1_555
N3 C16 1_555 1_555
N4 C22 1_555 1_555
F2 B2 1_555 1_555
B2 N3 1_555 1_555
O3 B2 1_555 1_555
O4 C29 1_555 1_555
C29 O3 1_555 1_555
C30 C29 1_555 1_555
H34 C30 1_555 1_555
H35 C30 1_555 1_555
H36 C30 1_555 1_555
C4 N1 1_555 1_555
C7 C13 1_555 1_555
C10 N2 1_555 1_555
N2 B1 1_555 1_555
C19 N3 1_555 1_555
C22 C28 1_555 1_555
C25 N4 1_555 1_555
N4 B2 1_555 1_555

#END
