
#######################################################################
#
#                 Cambridge Crystallographic Data Centre
#                                CCDC 
#
#######################################################################
#
# If this CIF has been generated from an entry in the Cambridge 
# Structural Database, then it will include bibliographic, chemical, 
# crystal, experimental, refinement or atomic coordinate data resulting 
# from the CCDC's data processing and validation procedures.
#
#######################################################################

data_VAVVUL
_chemical_formula_moiety         'C20 H26 O5'
_chemical_name_systematic        
11'-Hydroxy-4-(hydroxymethyl)-6,6-dimethyl-10'-methylene-3'-oxaspiro[bicyclo[3.1.0]hexane-3,5'-tricyclo[7.2.1.0^1,6^]dodecane]-2,2'-dione
_symmetry_cell_setting           monoclinic
_symmetry_space_group_name_H-M   'P 21'
_symmetry_Int_Tables_number      4
_space_group_name_Hall           'P 2yb'
loop_
_symmetry_equiv_pos_site_id
_symmetry_equiv_pos_as_xyz
1 x,y,z
2 -x,1/2+y,-z
_cell_length_a                   11.90450(10)
_cell_length_b                   6.22390(10)
_cell_length_c                   12.94360(10)
_cell_angle_alpha                90
_cell_angle_beta                 111.814(2)
_cell_angle_gamma                90
_cell_volume                     890.352
_exptl_crystal_colour            colorless
_exptl_crystal_description       needle
_cell_formula_units_Z            2
loop_
_atom_site_label
_atom_site_type_symbol
_atom_site_fract_x
_atom_site_fract_y
_atom_site_fract_z
O1 O 0.73407(9) 0.2775(2) 0.17373(8)
H1 H 0.7145 0.1536 0.1868
O2 O 0.41675(9) 0.7431(2) 0.29815(8)
O3 O 0.24508(9) -0.0436(2) 0.02146(9)
H2 H 0.2394 -0.1038 -0.0384
O4 O 0.51773(9) 0.7179(2) 0.12124(8)
O5 O 0.68373(10) 0.8690(2) 0.23190(9)
C1 C 0.91263(14) 0.1476(3) 0.39868(13)
H3 H 0.9481 0.0819 0.4697
H4 H 0.9396 0.1100 0.3406
C2 C 0.82551(12) 0.2916(3) 0.38059(11)
C3 C 0.76153(12) 0.4066(3) 0.27030(12)
H5 H 0.8164 0.5241 0.2650
C4 C 0.65058(13) 0.5159(3) 0.28669(12)
C5 C 0.54715(12) 0.3484(3) 0.27176(11)
H6 H 0.5678 0.2183 0.2371
C6 C 0.42324(12) 0.4260(3) 0.19039(11)
C7 C 0.36214(13) 0.6017(3) 0.23468(11)
C8 C 0.22812(13) 0.5830(3) 0.17907(12)
H7 H 0.1816 0.7114 0.1392
C9 C 0.15961(13) 0.4040(3) 0.21178(12)
C10 C 0.02524(14) 0.4489(4) 0.17701(14)
H8 H -0.0042 0.5229 0.1050
H9 H 0.0116 0.5398 0.2330
H10 H -0.0184 0.3129 0.1705
C11 C 0.54593(12) 0.2757(3) 0.38515(11)
H11 H 0.5129 0.3931 0.4170
H12 H 0.4915 0.1502 0.3737
C12 C 0.67205(12) 0.2150(3) 0.46832(11)
H13 H 0.6917 0.0671 0.4525
H14 H 0.6714 0.2168 0.5446
C13 C 0.77123(13) 0.3709(3) 0.46260(11)
H15 H 0.8352 0.3942 0.5379
C14 C 0.71302(13) 0.5836(3) 0.41033(12)
H16 H 0.7745 0.6968 0.4197
H17 H 0.6535 0.6341 0.4418
C15 C 0.32398(12) 0.2491(3) 0.14433(11)
H18 H 0.3340 0.1422 0.2048
C16 C 0.20344(12) 0.3668(3) 0.11866(12)
H19 H 0.1423 0.3614 0.0409
C17 C 0.21219(13) 0.2833(3) 0.32049(12)
H20 H 0.1860 0.1329 0.3088
H21 H 0.1840 0.3487 0.3754
H22 H 0.3007 0.2899 0.3478
C18 C 0.32774(13) 0.1301(3) 0.04299(12)
H23 H 0.3044 0.2276 -0.0220
H24 H 0.4104 0.0758 0.0577
C19 C 0.44271(13) 0.5282(3) 0.09044(11)
H25 H 0.4812 0.4218 0.0572
H26 H 0.3632 0.5669 0.0333
C20 C 0.61781(12) 0.7138(3) 0.21295(12)
loop_
_geom_bond_atom_site_label_1
_geom_bond_atom_site_label_2
_geom_bond_site_symmetry_1
_geom_bond_site_symmetry_2
O1 H1 1_555 1_555
O2 C7 1_555 1_555
O3 H2 1_555 1_555
O4 C19 1_555 1_555
O5 C20 1_555 1_555
C1 H3 1_555 1_555
H4 C1 1_555 1_555
C2 C1 1_555 1_555
C3 O1 1_555 1_555
H5 C3 1_555 1_555
C4 C3 1_555 1_555
C5 C4 1_555 1_555
H6 C5 1_555 1_555
C6 C5 1_555 1_555
C7 C6 1_555 1_555
C8 C7 1_555 1_555
H7 C8 1_555 1_555
C9 C8 1_555 1_555
C10 C9 1_555 1_555
H8 C10 1_555 1_555
H9 C10 1_555 1_555
H10 C10 1_555 1_555
C11 C5 1_555 1_555
H11 C11 1_555 1_555
H12 C11 1_555 1_555
C12 C11 1_555 1_555
H13 C12 1_555 1_555
H14 C12 1_555 1_555
C13 C2 1_555 1_555
H15 C13 1_555 1_555
C14 C4 1_555 1_555
H16 C14 1_555 1_555
H17 C14 1_555 1_555
C15 C6 1_555 1_555
H18 C15 1_555 1_555
C16 C8 1_555 1_555
H19 C16 1_555 1_555
C17 C9 1_555 1_555
H20 C17 1_555 1_555
H21 C17 1_555 1_555
H22 C17 1_555 1_555
C18 O3 1_555 1_555
H23 C18 1_555 1_555
H24 C18 1_555 1_555
C19 C6 1_555 1_555
H25 C19 1_555 1_555
H26 C19 1_555 1_555
C20 O4 1_555 1_555
C2 C3 1_555 1_555
C4 C20 1_555 1_555
C9 C16 1_555 1_555
C12 C13 1_555 1_555
C13 C14 1_555 1_555
C15 C16 1_555 1_555
C15 C18 1_555 1_555

#END
