
#######################################################################
#
#                 Cambridge Crystallographic Data Centre
#                                CCDC 
#
#######################################################################
#
# If this CIF has been generated from an entry in the Cambridge 
# Structural Database, then it will include bibliographic, chemical, 
# crystal, experimental, refinement or atomic coordinate data resulting 
# from the CCDC's data processing and validation procedures.
#
#######################################################################

data_VAVZAW
_chemical_formula_moiety         'C37 H58 N1 Na1 O6'
_chemical_name_systematic        
(2,4-di-t-butyl-6-({[2,6-bis(propan-2-yl)phenyl]imino}methyl)phenolato)-(15-crown-5)-sodium
_symmetry_cell_setting           monoclinic
_symmetry_space_group_name_H-M   'P 2/n'
_symmetry_Int_Tables_number      13
_space_group_name_Hall           '-P 2yac'
loop_
_symmetry_equiv_pos_site_id
_symmetry_equiv_pos_as_xyz
1 x,y,z
2 1/2-x,y,1/2-z
3 -x,-y,-z
4 1/2+x,-y,1/2+z
_cell_length_a                   15.9289(13)
_cell_length_b                   11.4741(9)
_cell_length_c                   21.5944(18)
_cell_angle_alpha                90
_cell_angle_beta                 102.398(2)
_cell_angle_gamma                90
_cell_volume                     3854.76
_exptl_crystal_colour            yellow
_exptl_crystal_description       tabular
_cell_formula_units_Z            4
loop_
_atom_site_label
_atom_site_type_symbol
_atom_site_fract_x
_atom_site_fract_y
_atom_site_fract_z
Na1 Na 0.44204(6) 1.13699(8) 0.13942(5)
N1 N 0.40924(11) 0.68908(17) 0.16425(10)
O1 O 0.50286(18) 1.1228(2) 0.25346(11)
O2 O 0.58390(12) 1.04832(18) 0.16422(13)
O3 O 0.51909(13) 1.1622(2) 0.05118(9)
O4 O 0.45049(14) 1.33774(16) 0.10974(11)
O5 O 0.37286(13) 1.2700(2) 0.20491(13)
O6 O 0.33849(10) 1.01799(14) 0.10720(8)
C1 C 0.5573(3) 1.0287(3) 0.26623(17)
H1 H 0.5253 0.9569 0.2557
H2 H 0.5844 1.0270 0.3110
C2 C 0.6214(2) 1.0395(3) 0.2289(2)
H3 H 0.6561 1.1081 0.2422
H4 H 0.6590 0.9720 0.2359
C3 C 0.6399(2) 1.0827(3) 0.1257(2)
H5 H 0.6871 1.0276 0.1299
H6 H 0.6637 1.1589 0.1387
C4 C 0.5923(2) 1.0870(3) 0.05914(18)
H7 H 0.6303 1.1144 0.0327
H8 H 0.5735 1.0090 0.0453
C5 C 0.5368(2) 1.2781(3) 0.04095(15)
H9 H 0.5484 1.2871 -0.0011
H10 H 0.5873 1.3028 0.0717
C6 C 0.4623(2) 1.3514(3) 0.04688(17)
H11 H 0.4733 1.4324 0.0387
H12 H 0.4112 1.3265 0.0167
C7 C 0.3790(2) 1.3987(3) 0.12172(19)
H13 H 0.3264 1.3663 0.0965
H14 H 0.3824 1.4801 0.1104
C8 C 0.3786(2) 1.3883(3) 0.1900(2)
H15 H 0.4309 1.4214 0.2153
H16 H 0.3300 1.4304 0.1994
C9 C 0.3946(3) 1.2466(4) 0.2700(2)
H17 H 0.4282 1.3110 0.2915
H18 H 0.3424 1.2412 0.2861
C10 C 0.4415(3) 1.1434(4) 0.28426(19)
H19 H 0.4671 1.1436 0.3293
H20 H 0.4014 1.0787 0.2765
C11 C 0.38540(14) 0.7894(2) 0.14292(12)
H21 H 0.4146 0.8527 0.1643
C12 C 0.31705(14) 0.8152(2) 0.08846(12)
C13 C 0.29518(15) 0.9352(2) 0.07611(12)
C14 C 0.21921(15) 0.9547(2) 0.02590(12)
C15 C 0.17937(14) 0.8618(2) -0.00759(12)
H22 H 0.1319 0.8770 -0.0400
C16 C 0.20459(15) 0.7449(2) 0.00309(12)
C17 C 0.27341(14) 0.7250(2) 0.05217(12)
H23 H 0.2915 0.6487 0.0615
C18 C 0.18465(16) 1.0797(2) 0.01382(13)
C19 C 0.16503(15) 1.1304(2) 0.07502(13)
H24 H 0.1195 1.0866 0.0868
H25 H 0.1477 1.2103 0.0681
H26 H 0.2156 1.1260 0.1084
C20 C 0.10123(14) 1.0856(2) -0.03739(13)
H27 H 0.1124 1.0601 -0.0772
H28 H 0.0805 1.1643 -0.0413
H29 H 0.0587 1.0359 -0.0256
C21 C 0.25129(14) 1.15619(19) -0.00912(12)
H30 H 0.3047 1.1542 0.0216
H31 H 0.2307 1.2350 -0.0144
H32 H 0.2601 1.1271 -0.0489
C22 C 0.15513(17) 0.6492(2) -0.03895(14)
C23 C 0.05868(14) 0.6548(2) -0.03804(13)
H33 H 0.0286 0.5946 -0.0648
H34 H 0.0361 0.7294 -0.0533
H35 H 0.0513 0.6437 0.0045
C24 C 0.18739(15) 0.5270(2) -0.01699(13)
H36 H 0.1543 0.4698 -0.0442
H37 H 0.1812 0.5149 0.0258
H38 H 0.2468 0.5199 -0.0189
C25 C 0.16518(16) 0.6650(2) -0.10738(13)
H39 H 0.2245 0.6553 -0.1092
H40 H 0.1464 0.7416 -0.1219
H41 H 0.1310 0.6078 -0.1340
C26 C 0.47640(16) 0.6819(2) 0.21966(13)
C27 C 0.55957(17) 0.6583(2) 0.21184(14)
C28 C 0.62450(16) 0.6537(2) 0.26553(15)
H42 H 0.6805 0.6403 0.2612
C29 C 0.60900(18) 0.6680(2) 0.32485(15)
H43 H 0.6543 0.6666 0.3601
C30 C 0.52661(18) 0.6843(2) 0.33219(13)
H44 H 0.5156 0.6905 0.3727
C31 C 0.45923(16) 0.6917(2) 0.27944(14)
C32 C 0.57958(16) 0.6438(3) 0.14711(14)
H45 H 0.5248 0.6309 0.1171
C33 C 0.63599(16) 0.5394(2) 0.14283(13)
H46 H 0.6432 0.5310 0.1000
H47 H 0.6095 0.4705 0.1551
H48 H 0.6911 0.5504 0.1706
C34 C 0.61841(18) 0.7553(3) 0.12695(13)
H49 H 0.5781 0.8181 0.1250
H50 H 0.6314 0.7442 0.0860
H51 H 0.6702 0.7738 0.1572
C35 C 0.36832(16) 0.7077(2) 0.28993(13)
H52 H 0.3287 0.7026 0.2484
C36 C 0.35622(16) 0.8263(2) 0.31765(16)
H53 H 0.2992 0.8318 0.3254
H54 H 0.3643 0.8859 0.2883
H55 H 0.3975 0.8362 0.3568
C37 C 0.34352(15) 0.6123(2) 0.33181(13)
H56 H 0.3794 0.6176 0.3736
H57 H 0.3511 0.5374 0.3140
H58 H 0.2844 0.6218 0.3343
loop_
_geom_bond_atom_site_label_1
_geom_bond_atom_site_label_2
_geom_bond_site_symmetry_1
_geom_bond_site_symmetry_2
Na1 O1 1_555 1_555
N1 C11 1_555 1_555
O1 C1 1_555 1_555
O2 Na1 1_555 1_555
O3 Na1 1_555 1_555
O4 Na1 1_555 1_555
O5 Na1 1_555 1_555
O6 Na1 1_555 1_555
C1 H1 1_555 1_555
H2 C1 1_555 1_555
C2 O2 1_555 1_555
H3 C2 1_555 1_555
H4 C2 1_555 1_555
C3 O2 1_555 1_555
H5 C3 1_555 1_555
H6 C3 1_555 1_555
C4 O3 1_555 1_555
H7 C4 1_555 1_555
H8 C4 1_555 1_555
C5 O3 1_555 1_555
H9 C5 1_555 1_555
H10 C5 1_555 1_555
C6 O4 1_555 1_555
H11 C6 1_555 1_555
H12 C6 1_555 1_555
C7 O4 1_555 1_555
H13 C7 1_555 1_555
H14 C7 1_555 1_555
C8 O5 1_555 1_555
H15 C8 1_555 1_555
H16 C8 1_555 1_555
C9 O5 1_555 1_555
H17 C9 1_555 1_555
H18 C9 1_555 1_555
C10 O1 1_555 1_555
H19 C10 1_555 1_555
H20 C10 1_555 1_555
C11 H21 1_555 1_555
C12 C11 1_555 1_555
C13 O6 1_555 1_555
C14 C13 1_555 1_555
C15 C14 1_555 1_555
H22 C15 1_555 1_555
C16 C15 1_555 1_555
C17 C12 1_555 1_555
H23 C17 1_555 1_555
C18 C14 1_555 1_555
C19 C18 1_555 1_555
H24 C19 1_555 1_555
H25 C19 1_555 1_555
H26 C19 1_555 1_555
C20 C18 1_555 1_555
H27 C20 1_555 1_555
H28 C20 1_555 1_555
H29 C20 1_555 1_555
C21 C18 1_555 1_555
H30 C21 1_555 1_555
H31 C21 1_555 1_555
H32 C21 1_555 1_555
C22 C16 1_555 1_555
C23 C22 1_555 1_555
H33 C23 1_555 1_555
H34 C23 1_555 1_555
H35 C23 1_555 1_555
C24 C22 1_555 1_555
H36 C24 1_555 1_555
H37 C24 1_555 1_555
H38 C24 1_555 1_555
C25 C22 1_555 1_555
H39 C25 1_555 1_555
H40 C25 1_555 1_555
H41 C25 1_555 1_555
C26 N1 1_555 1_555
C27 C26 1_555 1_555
C28 C27 1_555 1_555
H42 C28 1_555 1_555
C29 C28 1_555 1_555
H43 C29 1_555 1_555
C30 C29 1_555 1_555
H44 C30 1_555 1_555
C31 C26 1_555 1_555
C32 C27 1_555 1_555
H45 C32 1_555 1_555
C33 C32 1_555 1_555
H46 C33 1_555 1_555
H47 C33 1_555 1_555
H48 C33 1_555 1_555
C34 C32 1_555 1_555
H49 C34 1_555 1_555
H50 C34 1_555 1_555
H51 C34 1_555 1_555
C35 C31 1_555 1_555
H52 C35 1_555 1_555
C36 C35 1_555 1_555
H53 C36 1_555 1_555
H54 C36 1_555 1_555
H55 C36 1_555 1_555
C37 C35 1_555 1_555
H56 C37 1_555 1_555
H57 C37 1_555 1_555
H58 C37 1_555 1_555
C1 C2 1_555 1_555
C3 C4 1_555 1_555
C5 C6 1_555 1_555
C7 C8 1_555 1_555
C9 C10 1_555 1_555
C12 C13 1_555 1_555
C16 C17 1_555 1_555
C30 C31 1_555 1_555

#END
