
#######################################################################
#
#                 Cambridge Crystallographic Data Centre
#                                CCDC 
#
#######################################################################
#
# If this CIF has been generated from an entry in the Cambridge 
# Structural Database, then it will include bibliographic, chemical, 
# crystal, experimental, refinement or atomic coordinate data resulting 
# from the CCDC's data processing and validation procedures.
#
#######################################################################

data_VAWBUR
_chemical_formula_moiety         'C24 H18 B1 N3'
_chemical_name_systematic        
Diphenyl-(2-(2'-pyridyl)benzimidazole-N,N')-boron
_symmetry_cell_setting           monoclinic
_symmetry_space_group_name_H-M   'C c'
_symmetry_Int_Tables_number      9
_space_group_name_Hall           'C -2yc'
loop_
_symmetry_equiv_pos_site_id
_symmetry_equiv_pos_as_xyz
1 x,y,z
2 x,-y,1/2+z
3 1/2+x,1/2+y,z
4 1/2+x,1/2-y,1/2+z
_cell_length_a                   15.360(4)
_cell_length_b                   17.116(5)
_cell_length_c                   7.302(2)
_cell_angle_alpha                90.00
_cell_angle_beta                 106.685(5)
_cell_angle_gamma                90.00
_cell_volume                     1838.88
_exptl_crystal_colour            'light yellow'
_chemical_melting_point          294-296deg.C
_cell_formula_units_Z            4
_exptl_crystal_preparation       luminescent
loop_
_atom_site_label
_atom_site_type_symbol
_atom_site_fract_x
_atom_site_fract_y
_atom_site_fract_z
B1 B 0.6628(5) 0.1974(4) 1.4881(10)
N1 N 0.6892(3) 0.2755(2) 1.3997(6)
N2 N 0.6124(3) 0.2470(3) 1.6235(6)
N3 N 0.6814(3) 0.4087(2) 1.3923(7)
C1 C 0.7482(4) 0.1527(3) 1.6165(8)
C2 C 0.8363(4) 0.1699(3) 1.6176(8)
H1 H 0.8461 0.2120 1.5455
C3 C 0.9100(4) 0.1275(4) 1.7205(9)
H2 H 0.9678 0.1394 1.7119
C4 C 0.8984(5) 0.0671(4) 1.8371(9)
H3 H 0.9482 0.0392 1.9106
C5 C 0.8126(5) 0.0493(3) 1.8420(8)
H4 H 0.8038 0.0094 1.9215
C6 C 0.7370(4) 0.0905(3) 1.7281(8)
H5 H 0.6788 0.0757 1.7281
C7 C 0.5898(4) 0.1485(3) 1.3331(7)
C8 C 0.6194(4) 0.0958(4) 1.2148(9)
H6 H 0.6814 0.0880 1.2358
C9 C 0.5598(5) 0.0560(3) 1.0708(9)
H7 H 0.5818 0.0224 0.9945
C10 C 0.4677(5) 0.0647(3) 1.0364(9)
H8 H 0.4275 0.0354 0.9418
C11 C 0.4362(5) 0.1168(4) 1.1426(9)
H9 H 0.3740 0.1250 1.1173
C12 C 0.4966(4) 0.1578(3) 1.2886(8)
H10 H 0.4735 0.1931 1.3597
C13 C 0.7301(4) 0.2988(4) 1.2615(8)
C14 C 0.7697(4) 0.2573(3) 1.1407(8)
H11 H 0.7722 0.2030 1.1416
C15 C 0.8038(4) 0.2998(4) 1.0239(9)
H12 H 0.8316 0.2744 0.9431
C16 C 0.7990(4) 0.3810(5) 1.0195(9)
H13 H 0.8229 0.4078 0.9342
C17 C 0.7600(4) 0.4237(4) 1.1367(9)
H14 H 0.7584 0.4780 1.1334
C18 C 0.7237(4) 0.3819(4) 1.2587(9)
C19 C 0.6635(4) 0.3428(4) 1.4682(9)
C20 C 0.6183(4) 0.3240(4) 1.6109(8)
C21 C 0.5837(4) 0.3750(4) 1.7181(8)
H15 H 0.5895 0.4287 1.7054
C22 C 0.5406(5) 0.3456(5) 1.8442(8)
H16 H 0.5178 0.3786 1.9205
C23 C 0.5320(4) 0.2632(5) 1.8542(8)
H17 H 0.5008 0.2414 1.9337
C24 C 0.5702(4) 0.2155(3) 1.7450(9)
H18 H 0.5668 0.1615 1.7553
loop_
_geom_bond_atom_site_label_1
_geom_bond_atom_site_label_2
_geom_bond_site_symmetry_1
_geom_bond_site_symmetry_2
B1 N1 1_555 1_555
N1 C13 1_555 1_555
N2 B1 1_555 1_555
N3 C18 1_555 1_555
C1 B1 1_555 1_555
C2 C1 1_555 1_555
H1 C2 1_555 1_555
C3 C2 1_555 1_555
H2 C3 1_555 1_555
C4 C3 1_555 1_555
H3 C4 1_555 1_555
C5 C4 1_555 1_555
H4 C5 1_555 1_555
C6 C1 1_555 1_555
H5 C6 1_555 1_555
C7 B1 1_555 1_555
C8 C7 1_555 1_555
H6 C8 1_555 1_555
C9 C8 1_555 1_555
H7 C9 1_555 1_555
C10 C9 1_555 1_555
H8 C10 1_555 1_555
C11 C10 1_555 1_555
H9 C11 1_555 1_555
C12 C7 1_555 1_555
H10 C12 1_555 1_555
C13 C14 1_555 1_555
C14 H11 1_555 1_555
C15 C14 1_555 1_555
H12 C15 1_555 1_555
C16 C15 1_555 1_555
H13 C16 1_555 1_555
C17 C16 1_555 1_555
H14 C17 1_555 1_555
C18 C13 1_555 1_555
C19 N1 1_555 1_555
C20 N2 1_555 1_555
C21 C20 1_555 1_555
H15 C21 1_555 1_555
C22 C21 1_555 1_555
H16 C22 1_555 1_555
C23 C22 1_555 1_555
H17 C23 1_555 1_555
C24 N2 1_555 1_555
H18 C24 1_555 1_555
N3 C19 1_555 1_555
C5 C6 1_555 1_555
C11 C12 1_555 1_555
C17 C18 1_555 1_555
C19 C20 1_555 1_555
C23 C24 1_555 1_555

#END
