
#######################################################################
#
#                 Cambridge Crystallographic Data Centre
#                                CCDC 
#
#######################################################################
#
# If this CIF has been generated from an entry in the Cambridge 
# Structural Database, then it will include bibliographic, chemical, 
# crystal, experimental, refinement or atomic coordinate data resulting 
# from the CCDC's data processing and validation procedures.
#
#######################################################################

data_VAWCAY
_chemical_formula_moiety         'C23 H17 B1 N2 S1'
_chemical_name_systematic        Diphenyl-(2-(2'-thiazolyl)indole-N,N')-boron
_symmetry_cell_setting           monoclinic
_symmetry_space_group_name_H-M   'P 21/n'
_symmetry_Int_Tables_number      14
_space_group_name_Hall           '-P 2yn'
loop_
_symmetry_equiv_pos_site_id
_symmetry_equiv_pos_as_xyz
1 x,y,z
2 1/2-x,1/2+y,1/2-z
3 -x,-y,-z
4 1/2+x,1/2-y,1/2+z
_cell_length_a                   9.033(2)
_cell_length_b                   15.711(4)
_cell_length_c                   13.500(3)
_cell_angle_alpha                90
_cell_angle_beta                 105.643(5)
_cell_angle_gamma                90
_cell_volume                     1844.92
_exptl_crystal_colour            yellow
_exptl_crystal_description       plate
_chemical_melting_point          270-272deg.C
_cell_formula_units_Z            4
_exptl_crystal_preparation       luminescent
loop_
_atom_site_label
_atom_site_type_symbol
_atom_site_fract_x
_atom_site_fract_y
_atom_site_fract_z
B1 B 0.7966(4) 0.1076(2) -0.2401(3)
S1 S 0.98253(10) 0.16842(6) 0.05497(6)
N1 N 0.8843(2) 0.19189(15) -0.24593(18)
N2 N 0.8406(3) 0.10660(16) -0.11619(18)
C1 C 0.8732(4) 0.0268(2) -0.2791(2)
C2 C 1.0015(4) 0.0317(2) -0.3148(2)
H1 H 1.0459 0.0848 -0.3171
C3 C 1.0685(4) -0.0387(3) -0.3476(3)
H2 H 1.1542 -0.0325 -0.3727
C4 C 1.0060(5) -0.1173(3) -0.3424(3)
H3 H 1.0505 -0.1652 -0.3630
C5 C 0.8796(4) -0.1256(2) -0.3074(2)
H4 H 0.8379 -0.1793 -0.3039
C6 C 0.8123(4) -0.0552(2) -0.2769(2)
H5 H 0.7245 -0.0621 -0.2543
C7 C 0.6149(3) 0.11627(18) -0.2892(2)
C8 C 0.5484(4) 0.0919(2) -0.3905(2)
H6 H 0.6093 0.0656 -0.4271
C9 C 0.3958(4) 0.1057(2) -0.4382(3)
H7 H 0.3553 0.0886 -0.5061
C10 C 0.3028(4) 0.1441(2) -0.3871(3)
H8 H 0.2001 0.1546 -0.4204
C11 C 0.3622(4) 0.1673(2) -0.2858(2)
H9 H 0.2995 0.1919 -0.2492
C12 C 0.5163(4) 0.1535(2) -0.2391(2)
H10 H 0.5557 0.1701 -0.1709
C13 C 0.9589(3) 0.2256(2) -0.1523(2)
C14 C 1.0308(3) 0.3009(2) -0.1625(2)
H11 H 1.0887 0.3351 -0.1100
C15 C 0.9982(3) 0.3153(2) -0.2696(2)
C16 C 1.0354(4) 0.3802(2) -0.3302(3)
H12 H 1.0954 0.4263 -0.2999
C17 C 0.9813(4) 0.3742(2) -0.4348(3)
H13 H 1.0044 0.4172 -0.4756
C18 C 0.8935(4) 0.3061(2) -0.4815(3)
H14 H 0.8594 0.3041 -0.5529
C19 C 0.8554(3) 0.2414(2) -0.4251(2)
H15 H 0.7964 0.1955 -0.4570
C20 C 0.9077(3) 0.2465(2) -0.3186(2)
C21 C 0.9305(3) 0.1719(2) -0.0744(2)
C22 C 0.8784(3) 0.0778(2) 0.0530(2)
H16 H 0.8693 0.0491 0.1113
C23 C 0.8110(3) 0.0532(2) -0.0442(2)
H17 H 0.7503 0.0047 -0.0606
loop_
_geom_bond_atom_site_label_1
_geom_bond_atom_site_label_2
_geom_bond_site_symmetry_1
_geom_bond_site_symmetry_2
B1 N1 1_555 1_555
S1 C21 1_555 1_555
N1 C13 1_555 1_555
N2 B1 1_555 1_555
C1 B1 1_555 1_555
C2 C1 1_555 1_555
H1 C2 1_555 1_555
C3 C2 1_555 1_555
H2 C3 1_555 1_555
C4 C3 1_555 1_555
H3 C4 1_555 1_555
C5 C4 1_555 1_555
H4 C5 1_555 1_555
C6 C1 1_555 1_555
H5 C6 1_555 1_555
C7 B1 1_555 1_555
C8 C7 1_555 1_555
H6 C8 1_555 1_555
C9 C8 1_555 1_555
H7 C9 1_555 1_555
C10 C9 1_555 1_555
H8 C10 1_555 1_555
C11 C10 1_555 1_555
H9 C11 1_555 1_555
C12 C7 1_555 1_555
H10 C12 1_555 1_555
C13 C14 1_555 1_555
C14 H11 1_555 1_555
C15 C14 1_555 1_555
C16 C15 1_555 1_555
H12 C16 1_555 1_555
C17 C16 1_555 1_555
H13 C17 1_555 1_555
C18 C17 1_555 1_555
H14 C18 1_555 1_555
C19 C18 1_555 1_555
H15 C19 1_555 1_555
C20 N1 1_555 1_555
C21 N2 1_555 1_555
C22 S1 1_555 1_555
H16 C22 1_555 1_555
C23 N2 1_555 1_555
H17 C23 1_555 1_555
C5 C6 1_555 1_555
C11 C12 1_555 1_555
C13 C21 1_555 1_555
C15 C20 1_555 1_555
C19 C20 1_555 1_555
C22 C23 1_555 1_555

#END
