
#######################################################################
#
#                 Cambridge Crystallographic Data Centre
#                                CCDC 
#
#######################################################################
#
# If this CIF has been generated from an entry in the Cambridge 
# Structural Database, then it will include bibliographic, chemical, 
# crystal, experimental, refinement or atomic coordinate data resulting 
# from the CCDC's data processing and validation procedures.
#
#######################################################################

data_VAWDEC
_chemical_formula_moiety         'C21 H28 O5 S1'
_chemical_name_systematic        
9,9-Dimethoxy-1-methyl-4-isopropenyl-7-phenylsulfonylbicyclo(4.3.0)nonan-2-one
_symmetry_cell_setting           orthorhombic
_symmetry_space_group_name_H-M   'P 21 21 21'
_symmetry_Int_Tables_number      19
_space_group_name_Hall           'P 2ac 2ab'
loop_
_symmetry_equiv_pos_site_id
_symmetry_equiv_pos_as_xyz
1 x,y,z
2 1/2+x,1/2-y,-z
3 -x,1/2+y,1/2-z
4 1/2-x,-y,1/2+z
_cell_length_a                   10.989(2)
_cell_length_b                   11.101(2)
_cell_length_c                   16.868(4)
_cell_angle_alpha                90
_cell_angle_beta                 90
_cell_angle_gamma                90
_cell_volume                     2057.71
_cell_formula_units_Z            4
loop_
_atom_site_label
_atom_site_type_symbol
_atom_site_fract_x
_atom_site_fract_y
_atom_site_fract_z
C1 C 0.1801(4) -0.0485(3) 0.6854(2)
C2 C 0.2731(5) -0.0503(4) 0.7545(3)
C3 C 0.3861(4) 0.0226(4) 0.7484(3)
C4 C 0.3687(3) 0.1475(3) 0.7115(2)
C5 C 0.3126(3) 0.1276(3) 0.6291(2)
C6 C 0.1879(3) 0.0675(3) 0.6340(2)
C7 C 0.1487(3) 0.0275(4) 0.5492(2)
C8 C 0.1338(4) -0.1092(4) 0.5507(3)
C9 C 0.2015(4) -0.1504(3) 0.6238(3)
C10 C 0.0519(5) -0.0596(6) 0.7211(3)
O1 O 0.2498(4) -0.1076(5) 0.8133(2)
C11 C 0.2965(4) 0.2344(4) 0.7620(2)
C12 C 0.2494(10) 0.2097(8) 0.8320(3)
C13 C 0.2792(6) 0.3592(5) 0.7275(4)
S1 S 0.0093(1) 0.0930(1) 0.5154(1)
O2 O -0.0821(3) 0.0753(5) 0.5752(2)
O3 O -0.0129(4) 0.0474(4) 0.4378(2)
C14 C 0.0406(3) 0.2478(5) 0.5085(2)
C15 C -0.0104(6) 0.3286(6) 0.5627(3)
C16 C 0.0124(9) 0.4456(7) 0.5576(4)
C17 C 0.0925(7) 0.4896(6) 0.4968(5)
C18 C 0.1403(5) 0.4101(6) 0.4415(5)
C19 C 0.1151(4) 0.2872(5) 0.4473(3)
O4 O 0.3290(3) -0.1562(2) 0.6139(2)
C20 C 0.3759(7) -0.2379(5) 0.5576(5)
O5 O 0.1532(4) -0.2651(3) 0.6423(3)
C21 C 0.2116(10) -0.3335(6) 0.7014(6)
loop_
_geom_bond_atom_site_label_1
_geom_bond_atom_site_label_2
_geom_bond_site_symmetry_1
_geom_bond_site_symmetry_2
C1 C2 1_555 1_555
C2 C3 1_555 1_555
C3 C4 1_555 1_555
C4 C5 1_555 1_555
C5 C6 1_555 1_555
C6 C1 1_555 1_555
C7 C6 1_555 1_555
C8 C7 1_555 1_555
C9 C1 1_555 1_555
C10 C1 1_555 1_555
O1 C2 1_555 1_555
C11 C4 1_555 1_555
C12 C11 1_555 1_555
C13 C11 1_555 1_555
S1 C7 1_555 1_555
O2 S1 1_555 1_555
O3 S1 1_555 1_555
C14 S1 1_555 1_555
C15 C14 1_555 1_555
C16 C15 1_555 1_555
C17 C16 1_555 1_555
C18 C17 1_555 1_555
C19 C14 1_555 1_555
O4 C9 1_555 1_555
C20 O4 1_555 1_555
O5 C9 1_555 1_555
C21 O5 1_555 1_555
C8 C9 1_555 1_555
C18 C19 1_555 1_555

#END
