
#######################################################################
#
#                 Cambridge Crystallographic Data Centre
#                                CCDC 
#
#######################################################################
#
# If this CIF has been generated from an entry in the Cambridge 
# Structural Database, then it will include bibliographic, chemical, 
# crystal, experimental, refinement or atomic coordinate data resulting 
# from the CCDC's data processing and validation procedures.
#
#######################################################################

data_VAWFUX
_chemical_formula_moiety         'C11 H8 N2'
_chemical_name_systematic        5H-pyrido[3,2-b]indole
_symmetry_cell_setting           monoclinic
_symmetry_space_group_name_H-M   'I a'
_symmetry_Int_Tables_number      9
_space_group_name_Hall           'I -2ya'
loop_
_symmetry_equiv_pos_site_id
_symmetry_equiv_pos_as_xyz
1 x,y,z
2 1/2+x,1/2+y,1/2+z
3 1/2+x,-y,z
4 x,1/2-y,1/2+z
_cell_length_a                   12.1155(7)
_cell_length_b                   3.9036(2)
_cell_length_c                   18.1199(13)
_cell_angle_alpha                90
_cell_angle_beta                 107.250(7)
_cell_angle_gamma                90
_cell_volume                     818.417
_exptl_crystal_colour            colorless
_exptl_crystal_description       rod
_cell_formula_units_Z            4
loop_
_atom_site_label
_atom_site_type_symbol
_atom_site_fract_x
_atom_site_fract_y
_atom_site_fract_z
N1 N 0.6761(3) 0.4378(10) 0.4941(2)
N2 N 0.3804(3) 0.6769(9) 0.4443(2)
C1 C 0.5784(3) 0.5767(11) 0.4448(3)
C2 C 0.5583(4) 0.7186(12) 0.3713(3)
C3 C 0.4468(4) 0.8395(12) 0.3362(3)
C4 C 0.3623(4) 0.8121(12) 0.3740(3)
C5 C 0.4869(3) 0.5633(11) 0.4784(3)
C6 C 0.5335(3) 0.3998(10) 0.5532(2)
C7 C 0.4878(4) 0.3188(11) 0.6131(3)
C8 C 0.5576(4) 0.1571(12) 0.6777(3)
C9 C 0.6726(4) 0.0800(12) 0.6836(3)
C10 C 0.7202(4) 0.1639(12) 0.6251(3)
C11 C 0.6494(4) 0.3253(10) 0.5600(3)
H1 H 0.7423 0.4113 0.4853
H2 H 0.6174 0.7339 0.3475
H3 H 0.4267 0.9371 0.2866
H4 H 0.2874 0.8934 0.3480
H5 H 0.4092 0.3746 0.6082
H6 H 0.5274 0.0999 0.7182
H7 H 0.7196 -0.0316 0.7284
H8 H 0.7988 0.1138 0.6305
loop_
_geom_bond_atom_site_label_1
_geom_bond_atom_site_label_2
_geom_bond_site_symmetry_1
_geom_bond_site_symmetry_2
N1 C1 1_555 1_555
N2 C4 1_555 1_555
C1 C2 1_555 1_555
C2 C3 1_555 1_555
C3 C4 1_555 1_555
C4 H4 1_555 1_555
C5 N2 1_555 1_555
C6 C5 1_555 1_555
C7 C6 1_555 1_555
C8 C7 1_555 1_555
C9 C8 1_555 1_555
C10 C9 1_555 1_555
C11 N1 1_555 1_555
H1 N1 1_555 1_555
H2 C2 1_555 1_555
H3 C3 1_555 1_555
H5 C7 1_555 1_555
H6 C8 1_555 1_555
H7 C9 1_555 1_555
H8 C10 1_555 1_555
C1 C5 1_555 1_555
C6 C11 1_555 1_555
C10 C11 1_555 1_555

#END
