
#######################################################################
#
#                 Cambridge Crystallographic Data Centre
#                                CCDC 
#
#######################################################################
#
# If this CIF has been generated from an entry in the Cambridge 
# Structural Database, then it will include bibliographic, chemical, 
# crystal, experimental, refinement or atomic coordinate data resulting 
# from the CCDC's data processing and validation procedures.
#
#######################################################################

data_VAWFEH
_chemical_formula_moiety         'C11 H8 N2'
_chemical_name_systematic        9H-pyrido[2,3-b]indole
_symmetry_cell_setting           monoclinic
_symmetry_space_group_name_H-M   'P 21/n'
_symmetry_Int_Tables_number      14
_space_group_name_Hall           '-P 2yn'
loop_
_symmetry_equiv_pos_site_id
_symmetry_equiv_pos_as_xyz
1 x,y,z
2 1/2-x,1/2+y,1/2-z
3 -x,-y,-z
4 1/2+x,1/2-y,1/2+z
_cell_length_a                   11.1814(2)
_cell_length_b                   5.53776(8)
_cell_length_c                   13.4546(2)
_cell_angle_alpha                90
_cell_angle_beta                 96.2939(15)
_cell_angle_gamma                90
_cell_volume                     828.086
_exptl_crystal_colour            'pale yellow'
_exptl_crystal_description       lath
_cell_formula_units_Z            4
loop_
_atom_site_label
_atom_site_type_symbol
_atom_site_fract_x
_atom_site_fract_y
_atom_site_fract_z
N1 N 0.46692(9) 0.82133(18) 0.38483(7)
N2 N 0.37671(8) 0.78114(18) 0.53735(7)
C1 C 0.39583(9) 0.7043(2) 0.44622(8)
C2 C 0.30386(11) 0.6394(2) 0.58480(9)
C3 C 0.25002(11) 0.4290(2) 0.54478(10)
C4 C 0.27256(11) 0.3512(2) 0.45022(10)
C5 C 0.34828(10) 0.4905(2) 0.39917(8)
C6 C 0.39733(10) 0.4779(2) 0.30411(8)
C7 C 0.38879(11) 0.3105(2) 0.22607(9)
C8 C 0.45312(12) 0.3509(2) 0.14543(9)
C9 C 0.52509(11) 0.5568(2) 0.14122(9)
C10 C 0.53468(11) 0.7264(2) 0.21775(9)
C11 C 0.47033(10) 0.6847(2) 0.29893(8)
H1 H 0.5166(13) 0.952(3) 0.4042(11)
H2 H 0.2883(13) 0.697(3) 0.6525(11)
H3 H 0.1951(13) 0.337(3) 0.5848(11)
H4 H 0.2358(13) 0.199(3) 0.4216(11)
H5 H 0.3384(13) 0.166(3) 0.2297(11)
H6 H 0.4496(13) 0.231(3) 0.0891(11)
H7 H 0.5727(13) 0.582(3) 0.0826(11)
H8 H 0.5867(13) 0.870(3) 0.2164(10)
loop_
_geom_bond_atom_site_label_1
_geom_bond_atom_site_label_2
_geom_bond_site_symmetry_1
_geom_bond_site_symmetry_2
N1 C1 1_555 1_555
N2 C1 1_555 1_555
C1 C5 1_555 1_555
C2 N2 1_555 1_555
C3 C2 1_555 1_555
C4 C3 1_555 1_555
C5 C4 1_555 1_555
C6 C5 1_555 1_555
C7 C6 1_555 1_555
C8 C7 1_555 1_555
C9 C8 1_555 1_555
C10 C9 1_555 1_555
C11 N1 1_555 1_555
H1 N1 1_555 1_555
H2 C2 1_555 1_555
H3 C3 1_555 1_555
H4 C4 1_555 1_555
H5 C7 1_555 1_555
H6 C8 1_555 1_555
H7 C9 1_555 1_555
H8 C10 1_555 1_555
C6 C11 1_555 1_555
C10 C11 1_555 1_555

#END
