
#######################################################################
#
#                 Cambridge Crystallographic Data Centre
#                                CCDC 
#
#######################################################################
#
# If this CIF has been generated from an entry in the Cambridge 
# Structural Database, then it will include bibliographic, chemical, 
# crystal, experimental, refinement or atomic coordinate data resulting 
# from the CCDC's data processing and validation procedures.
#
#######################################################################

data_VAWGAB
_chemical_formula_moiety         'C7 H8 N2 O2'
_chemical_name_systematic        'o-Hydroxybenzoic acid hydrazide'
_symmetry_cell_setting           monoclinic
_symmetry_space_group_name_H-M   'P 21/n'
_symmetry_Int_Tables_number      14
_space_group_name_Hall           '-P 2yn'
loop_
_symmetry_equiv_pos_site_id
_symmetry_equiv_pos_as_xyz
1 x,y,z
2 1/2-x,1/2+y,1/2-z
3 -x,-y,-z
4 1/2+x,1/2-y,1/2+z
_cell_length_a                   6.072(4)
_cell_length_b                   11.256(4)
_cell_length_c                   10.556(3)
_cell_angle_alpha                90
_cell_angle_beta                 98.81(4)
_cell_angle_gamma                90
_cell_volume                     712.953
_exptl_crystal_colour            'light beige'
_cell_formula_units_Z            4
loop_
_atom_site_label
_atom_site_type_symbol
_atom_site_fract_x
_atom_site_fract_y
_atom_site_fract_z
O1 O 0.3856(3) -0.0117(1) 0.2509(2)
O2 O 0.7194(3) 0.1155(2) 0.2240(2)
N1 N 0.1848(3) 0.0235(2) 0.4074(2)
N2 N 0.0484(3) -0.0779(2) 0.3752(2)
C1 C 0.3491(3) 0.0516(2) 0.3421(2)
C2 C 0.4840(3) 0.1585(2) 0.3825(2)
C3 C 0.6680(3) 0.1837(2) 0.3207(2)
C4 C 0.8038(4) 0.2804(2) 0.3589(2)
C5 C 0.7573(4) 0.3526(2) 0.4558(2)
C6 C 0.5741(4) 0.3306(2) 0.5174(2)
C7 C 0.4413(3) 0.2339(2) 0.4803(2)
H1 H 0.617(4) 0.057(2) 0.210(3)
H2 H 0.147(4) 0.068(2) 0.483(3)
H3 H 0.135(2) -0.138(2) 0.372(2)
H4 H -0.011(5) -0.070(2) 0.293(3)
H5 H 0.927(4) 0.298(3) 0.315(3)
H6 H 0.849(4) 0.420(3) 0.479(3)
H7 H 0.542(4) 0.382(3) 0.590(3)
H8 H 0.311(4) 0.222(3) 0.525(3)
loop_
_geom_bond_atom_site_label_1
_geom_bond_atom_site_label_2
_geom_bond_site_symmetry_1
_geom_bond_site_symmetry_2
O1 C1 1_555 1_555
O2 C3 1_555 1_555
N1 N2 1_555 1_555
N2 H3 1_555 1_555
C1 N1 1_555 1_555
C2 C1 1_555 1_555
C3 C2 1_555 1_555
C4 C3 1_555 1_555
C5 C4 1_555 1_555
C6 C5 1_555 1_555
C7 C2 1_555 1_555
H1 O2 1_555 1_555
H2 N1 1_555 1_555
H4 N2 1_555 1_555
H5 C4 1_555 1_555
H6 C5 1_555 1_555
H7 C6 1_555 1_555
H8 C7 1_555 1_555
C6 C7 1_555 1_555

#END
