
#######################################################################
#
#                 Cambridge Crystallographic Data Centre
#                                CCDC 
#
#######################################################################
#
# If this CIF has been generated from an entry in the Cambridge 
# Structural Database, then it will include bibliographic, chemical, 
# crystal, experimental, refinement or atomic coordinate data resulting 
# from the CCDC's data processing and validation procedures.
#
#######################################################################

data_VAWKUB
_chemical_formula_moiety         'C28 H19 N3 O4,C1 H1 Cl3'
_chemical_name_systematic        
'1-(5-Hydroxy-4-((4-methylphenyl)amino)-3-oxo-1,3-dihydro-2H-indazol-2-yl)-9,10-anthraquinone chloroform solvate'
_symmetry_cell_setting           triclinic
_symmetry_space_group_name_H-M   'P -1'
_symmetry_Int_Tables_number      2
_space_group_name_Hall           '-P 1'
loop_
_symmetry_equiv_pos_site_id
_symmetry_equiv_pos_as_xyz
1 x,y,z
2 -x,-y,-z
_cell_length_a                   8.3229(13)
_cell_length_b                   9.1982(15)
_cell_length_c                   16.957(2)
_cell_angle_alpha                78.594(16)
_cell_angle_beta                 85.87(2)
_cell_angle_gamma                89.47(2)
_cell_volume                     1269.2
_exptl_crystal_colour            colorless
_exptl_crystal_description       prism
_cell_formula_units_Z            2
loop_
_atom_site_label
_atom_site_type_symbol
_atom_site_fract_x
_atom_site_fract_y
_atom_site_fract_z
O1 O 1.1727(7) 0.5676(7) 0.6463(3)
O2 O 0.5720(6) 0.4602(6) 0.7870(3)
O3 O 0.6387(6) 0.1463(6) 0.8467(3)
O4 O 0.0833(7) 0.0597(7) 1.0627(3)
N1 N 0.6979(8) 0.3170(7) 0.9267(4)
N2 N 0.6420(8) 0.3567(7) 0.9978(4)
N3 N 0.2496(9) 0.0374(8) 0.9278(4)
C1 C 0.8439(9) 0.3791(8) 0.8862(5)
C2 C 0.9746(10) 0.3806(8) 0.9323(5)
H1 H 0.9633 0.3431 0.9888
C3 C 1.1221(10) 0.4367(8) 0.8959(5)
H2 H 1.2103 0.4416 0.9279
C4 C 1.1402(10) 0.4849(8) 0.8140(5)
H3 H 1.2432 0.5164 0.7891
C5 C 1.0085(10) 0.4882(8) 0.7666(5)
C6 C 1.0352(11) 0.5424(9) 0.6784(5)
C7 C 0.8928(10) 0.5660(9) 0.6298(5)
C8 C 0.9102(12) 0.6245(9) 0.5481(5)
H4 H 1.0151 0.6466 0.5227
C9 C 0.7792(12) 0.6511(9) 0.5027(5)
H5 H 0.7939 0.6897 0.4464
C10 C 0.6249(12) 0.6215(9) 0.5391(5)
H6 H 0.5340 0.6406 0.5079
C11 C 0.6037(11) 0.5641(9) 0.6212(5)
H7 H 0.4982 0.5443 0.6462
C12 C 0.7365(10) 0.5355(8) 0.6670(5)
C13 C 0.7101(10) 0.4740(8) 0.7554(5)
C14 C 0.8543(9) 0.4414(8) 0.8033(5)
C15 C 0.5028(10) 0.2839(8) 1.0183(5)
C16 C 0.4046(10) 0.2952(8) 1.0898(5)
H8 H 0.4374 0.3549 1.1255
C17 C 0.2643(10) 0.2188(9) 1.1051(5)
H9 H 0.1979 0.2253 1.1522
C18 C 0.2129(10) 0.1269(9) 1.0507(5)
C19 C 0.3173(9) 0.1183(8) 0.9737(5)
C20 C 0.4626(9) 0.1944(8) 0.9629(5)
C21 C 0.5997(10) 0.2097(8) 0.9023(5)
C22 C 0.2856(9) 0.0239(9) 0.8462(5)
C23 C 0.2574(10) -0.1128(9) 0.8249(5)
H10 H 0.2199 -0.1951 0.8650
C24 C 0.2840(10) -0.1278(9) 0.7457(5)
H11 H 0.2670 -0.2215 0.7321
C25 C 0.3357(11) -0.0080(10) 0.6850(5)
C26 C 0.3614(10) 0.1279(9) 0.7073(5)
H12 H 0.3967 0.2107 0.6671
C27 C 0.3366(9) 0.1449(9) 0.7869(5)
H13 H 0.3543 0.2384 0.8007
C28 C 0.3577(12) -0.0276(10) 0.5980(5)
H14 H 0.4606 0.0165 0.5733
H15 H 0.2693 0.0217 0.5681
H16 H 0.3569 -0.1335 0.5965
H20 H 0.170(9) 0.005(8) 0.949(4)
Cl1 Cl 0.2675(4) 0.7985(3) 0.41585(17)
Cl2 Cl 0.2275(6) 1.1006(5) 0.3319(4)
Cl3 Cl 0.0351(4) 0.8653(4) 0.2952(2)
C29 C 0.2240(13) 0.9132(11) 0.3235(7)
H17 H 0.3085 0.8977 0.2810
Cl4? Cl 0.138(2) 0.7969(16) 0.3565(10)
Cl5? Cl 0.140(3) 1.118(2) 0.3278(19)
C30? C 0.139(7) 0.962(3) 0.285(2)
H18? H 0.2355 0.9641 0.2472
H19? H 0.0429 0.9641 0.2541
loop_
_geom_bond_atom_site_label_1
_geom_bond_atom_site_label_2
_geom_bond_site_symmetry_1
_geom_bond_site_symmetry_2
O1 C6 1_555 1_555
O2 C13 1_555 1_555
O3 C21 1_555 1_555
O4 C18 1_555 1_555
N1 N2 1_555 1_555
N2 C15 1_555 1_555
N3 C19 1_555 1_555
C1 N1 1_555 1_555
C2 C1 1_555 1_555
H1 C2 1_555 1_555
C3 C2 1_555 1_555
H2 C3 1_555 1_555
C4 C3 1_555 1_555
H3 C4 1_555 1_555
C5 C4 1_555 1_555
C6 C5 1_555 1_555
C7 C6 1_555 1_555
C8 C7 1_555 1_555
H4 C8 1_555 1_555
C9 C8 1_555 1_555
H5 C9 1_555 1_555
C10 C9 1_555 1_555
H6 C10 1_555 1_555
C11 C10 1_555 1_555
H7 C11 1_555 1_555
C12 C7 1_555 1_555
C13 C12 1_555 1_555
C14 C1 1_555 1_555
C15 C16 1_555 1_555
C16 H8 1_555 1_555
C17 C16 1_555 1_555
H9 C17 1_555 1_555
C18 C17 1_555 1_555
C19 C18 1_555 1_555
C20 C15 1_555 1_555
C21 N1 1_555 1_555
C22 N3 1_555 1_555
C23 C22 1_555 1_555
H10 C23 1_555 1_555
C24 C23 1_555 1_555
H11 C24 1_555 1_555
C25 C24 1_555 1_555
C26 C25 1_555 1_555
H12 C26 1_555 1_555
C27 C22 1_555 1_555
H13 C27 1_555 1_555
C28 C25 1_555 1_555
H14 C28 1_555 1_555
H15 C28 1_555 1_555
H16 C28 1_555 1_555
Cl1 C29 1_555 1_555
Cl2 C29 1_555 1_555
Cl3 C29 1_555 1_555
C29 H17 1_555 1_555
H20 N3 1_555 1_555
C5 C14 1_555 1_555
C11 C12 1_555 1_555
C13 C14 1_555 1_555
C19 C20 1_555 1_555
C20 C21 1_555 1_555
C26 C27 1_555 1_555

#END
