
#######################################################################
#
#                 Cambridge Crystallographic Data Centre
#                                CCDC 
#
#######################################################################
#
# If this CIF has been generated from an entry in the Cambridge 
# Structural Database, then it will include bibliographic, chemical, 
# crystal, experimental, refinement or atomic coordinate data resulting 
# from the CCDC's data processing and validation procedures.
#
#######################################################################

data_VAWLAH
_chemical_formula_moiety         
'2(C1 H6 N3 1+),C12 H6 N2 O10 S2 2-,4(C4 H8 O2)'
_chemical_name_systematic        
"bis(Guanidinium) (2,2'-dinitro-4,4'-biphenyldisulfonate) tetrakis(dioxane) clathrate"
_symmetry_cell_setting           orthorhombic
_symmetry_space_group_name_H-M   'P n n 2'
_symmetry_Int_Tables_number      34
_space_group_name_Hall           'P 2 -2n'
loop_
_symmetry_equiv_pos_site_id
_symmetry_equiv_pos_as_xyz
1 x,y,z
2 -x,-y,z
3 1/2-x,1/2+y,1/2+z
4 1/2+x,1/2-y,1/2+z
_cell_length_a                   13.5047(10)
_cell_length_b                   22.3136(17)
_cell_length_c                   6.8889(5)
_cell_angle_alpha                90
_cell_angle_beta                 90
_cell_angle_gamma                90
_cell_volume                     2075.89
_exptl_crystal_colour            yellow
_chemical_melting_point          258-260deg.C
_cell_formula_units_Z            2
loop_
_atom_site_label
_atom_site_type_symbol
_atom_site_fract_x
_atom_site_fract_y
_atom_site_fract_z
S1 S 0.60404(5) 0.27025(3) 0.35690(14)
O1 O 0.65657(18) 0.26303(11) 0.5401(3)
N1 N 0.4267(2) 0.43861(14) -0.0060(4)
C1 C 0.5720(2) 0.34715(13) 0.3392(5)
O2 O 0.66498(18) 0.25762(11) 0.1882(3)
C2 C 0.5146(2) 0.36488(14) 0.1834(5)
H3 H 0.4940 0.3363 0.0894
O3 O 0.50994(14) 0.23769(9) 0.3538(4)
C3 C 0.4873(2) 0.42409(15) 0.1649(5)
O4 O 0.4175(3) 0.40061(14) -0.1299(5)
C4 C 0.5149(2) 0.46740(15) 0.2996(4)
O5 O 0.38839(18) 0.48745(12) -0.0203(4)
C5 C 0.5736(3) 0.44837(15) 0.4533(6)
H8 H 0.5952 0.4769 0.5465
C6 C 0.6019(2) 0.38843(15) 0.4752(5)
H9 H 0.6413 0.3764 0.5826
S1A S 0.39596(5) 0.72975(3) 0.35690(14)
O1A O 0.34343(18) 0.73697(11) 0.5401(3)
N1A N 0.5733(2) 0.56139(14) -0.0060(4)
C1A C 0.4280(2) 0.65285(13) 0.3392(5)
O2A O 0.33502(18) 0.74238(11) 0.1882(3)
C2A C 0.4854(2) 0.63512(14) 0.1834(5)
H3A H 0.5060 0.6637 0.0894
O3A O 0.49006(14) 0.76231(9) 0.3538(4)
C3A C 0.5127(2) 0.57591(15) 0.1649(5)
O4A O 0.5825(3) 0.59939(14) -0.1299(5)
C4A C 0.4851(2) 0.53260(15) 0.2996(4)
O5A O 0.61161(18) 0.51255(12) -0.0203(4)
C5A C 0.4264(3) 0.55163(15) 0.4533(6)
H8A H 0.4048 0.5231 0.5465
C6A C 0.3981(2) 0.61157(15) 0.4752(5)
H9A H 0.3587 0.6236 0.5826
N2 N 0.52312(18) 0.23160(12) -0.1412(6)
H1 H 0.5572 0.2351 -0.2494
H2 H 0.5540 0.2250 -0.0307
N3 N 0.3801(2) 0.24620(14) -0.3106(4)
H4 H 0.3153 0.2503 -0.3144
H5 H 0.4150 0.2488 -0.4182
N4 N 0.3738(2) 0.23233(14) 0.0176(4)
H6 H 0.3089 0.2363 0.0155
H7 H 0.4045 0.2257 0.1281
C7 C 0.4247(2) 0.23631(13) -0.1446(6)
O6 O 0.8951(2) 0.45135(13) 0.0531(5)
O7 O 0.81636(19) 0.36574(12) -0.2023(4)
C8 C 0.9548(3) 0.4205(2) -0.0810(8)
H10 H 0.9818 0.3838 -0.0196
H11 H 1.0112 0.4462 -0.1201
C9 C 0.8956(3) 0.4037(2) -0.2566(6)
H12 H 0.8693 0.4403 -0.3192
H13 H 0.9387 0.3828 -0.3514
C10 C 0.7566(3) 0.3949(2) -0.0629(7)
H14 H 0.7039 0.3671 -0.0196
H15 H 0.7244 0.4300 -0.1236
C11 C 0.8143(4) 0.41476(19) 0.1073(7)
H16 H 0.7705 0.4374 0.1962
H17 H 0.8393 0.3792 0.1781
O8 O 0.11577(18) 0.39526(15) 0.5371(4)
O9 O 0.27931(18) 0.41416(14) 0.2949(4)
C12 C 0.1816(3) 0.41389(19) 0.2181(6)
H18 H 0.1644 0.3730 0.1737
H19 H 0.1780 0.4412 0.1050
C13 C 0.1104(3) 0.43356(19) 0.3688(7)
H20 H 0.1253 0.4754 0.4071
H21 H 0.0424 0.4325 0.3151
C14 C 0.2134(3) 0.39513(19) 0.6122(6)
H22 H 0.2173 0.3674 0.7242
H23 H 0.2308 0.4358 0.6583
C15 C 0.2849(3) 0.3760(2) 0.4600(6)
H24 H 0.3529 0.3770 0.5135
H25 H 0.2702 0.3343 0.4206
loop_
_geom_bond_atom_site_label_1
_geom_bond_atom_site_label_2
_geom_bond_site_symmetry_1
_geom_bond_site_symmetry_2
S1 O1 1_555 1_555
N1 C3 1_555 1_555
C1 S1 1_555 1_555
O2 S1 1_555 1_555
N2 H1 1_555 1_555
H2 N2 1_555 1_555
C2 C1 1_555 1_555
H3 C2 1_555 1_555
O3 S1 1_555 1_555
N3 H4 1_555 1_555
H5 N3 1_555 1_555
C3 C2 1_555 1_555
O4 N1 1_555 1_555
N4 H6 1_555 1_555
H7 N4 1_555 1_555
C4 C3 1_555 1_555
O5 N1 1_555 1_555
C5 C4 1_555 1_555
H8 C5 1_555 1_555
O6 C8 1_555 1_555
C6 C1 1_555 1_555
H9 C6 1_555 1_555
O7 C9 1_555 1_555
C7 N2 1_555 1_555
O8 C13 1_555 1_555
C8 H10 1_555 1_555
H11 C8 1_555 1_555
O9 C12 1_555 1_555
C9 C8 1_555 1_555
H12 C9 1_555 1_555
H13 C9 1_555 1_555
C10 O7 1_555 1_555
H14 C10 1_555 1_555
H15 C10 1_555 1_555
C11 O6 1_555 1_555
H16 C11 1_555 1_555
H17 C11 1_555 1_555
C12 H18 1_555 1_555
H19 C12 1_555 1_555
C13 C12 1_555 1_555
H20 C13 1_555 1_555
H21 C13 1_555 1_555
C14 O8 1_555 1_555
H22 C14 1_555 1_555
H23 C14 1_555 1_555
C15 O9 1_555 1_555
H24 C15 1_555 1_555
H25 C15 1_555 1_555
S1A O1A 1_555 1_555
N1A C3A 1_555 1_555
C1A S1A 1_555 1_555
O2A S1A 1_555 1_555
C2A C1A 1_555 1_555
H3A C2A 1_555 1_555
O3A S1A 1_555 1_555
C3A C2A 1_555 1_555
O4A N1A 1_555 1_555
C4A C4 1_555 1_555
O5A N1A 1_555 1_555
C5A C4A 1_555 1_555
H8A C5A 1_555 1_555
C6A C1A 1_555 1_555
H9A C6A 1_555 1_555
N3 C7 1_555 1_555
N4 C7 1_555 1_555
C5 C6 1_555 1_555
C10 C11 1_555 1_555
C14 C15 1_555 1_555
C3A C4A 1_555 1_555
C5A C6A 1_555 1_555

#END
