
#######################################################################
#
#                 Cambridge Crystallographic Data Centre
#                                CCDC 
#
#######################################################################
#
# If this CIF has been generated from an entry in the Cambridge 
# Structural Database, then it will include bibliographic, chemical, 
# crystal, experimental, refinement or atomic coordinate data resulting 
# from the CCDC's data processing and validation procedures.
#
#######################################################################

data_VAWLAJ
_chemical_formula_moiety         'C30 H22 F3 N1 O5 S2'
_chemical_name_systematic        
N-(3-oxo-1-phenyl-5-(4-(trifluoromethyl)phenyl)penta-1,4-dien-2-yl)-N-(phenylsulfonyl)benzenesulfonamide
_symmetry_cell_setting           orthorhombic
_symmetry_space_group_name_H-M   'P 21 21 21'
_symmetry_Int_Tables_number      19
_space_group_name_Hall           'P 2ac 2ab'
loop_
_symmetry_equiv_pos_site_id
_symmetry_equiv_pos_as_xyz
1 x,y,z
2 1/2-x,-y,1/2+z
3 1/2+x,1/2-y,-z
4 -x,1/2+y,1/2-z
_cell_length_a                   8.086(5)
_cell_length_b                   14.196(5)
_cell_length_c                   23.304(5)
_cell_angle_alpha                90
_cell_angle_beta                 90
_cell_angle_gamma                90
_cell_volume                     2675.04
_cell_formula_units_Z            4
loop_
_atom_site_label
_atom_site_type_symbol
_atom_site_fract_x
_atom_site_fract_y
_atom_site_fract_z
S1 S 0.27194(14) 0.21888(9) 0.22602(5)
S2 S 0.22438(15) 0.27626(9) 0.10522(5)
O1 O 0.4126(4) 0.2260(3) 0.26314(13)
O2 O 0.2008(4) 0.1290(2) 0.21461(15)
O3 O 0.0591(4) 0.2816(3) 0.12675(14)
O4 O 0.2935(5) 0.3522(2) 0.07362(15)
O5 O 0.4294(5) 0.4402(2) 0.19042(17)
N1 N 0.3463(5) 0.2610(3) 0.16295(16)
C1 C 0.6381(6) 0.2355(4) 0.1393(2)
C2 C 0.1146(6) 0.2934(4) 0.2520(2)
C3 C 0.8746(7) 0.5792(4) 0.1397(2)
C4 C 0.2430(6) 0.1733(4) 0.0640(2)
C5 C 0.5449(7) 0.3941(4) 0.1710(2)
C6 C 0.5183(6) 0.2924(4) 0.1577(2)
C7 C 0.6338(6) 0.1338(4) 0.1224(2)
C8 C 1.1684(7) 0.5809(4) 0.1208(2)
H1 H 1.2711 0.5518 0.1237
C9 C 0.7196(7) 0.5305(3) 0.1568(2)
C10 C 1.1549(7) 0.6672(4) 0.0950(2)
C11 C 0.8656(7) 0.6698(3) 0.1167(2)
H2 H 0.7649 0.7015 0.1171
C12 C -0.0467(6) 0.2590(4) 0.2543(2)
H3 H -0.0717 0.1999 0.2395
C13 C 1.0030(7) 0.7136(4) 0.0934(2)
H4 H 0.9941 0.7731 0.0769
C14 C 1.0297(7) 0.5372(4) 0.1424(2)
H5 H 1.0401 0.4781 0.1592
F1 F 1.3937(7) 0.6575(3) 0.0388(3)
C15 C 0.1537(7) 0.3805(4) 0.2733(3)
H6 H 0.2619 0.4026 0.2719
C16 C 1.3051(9) 0.7119(5) 0.0704(3)
C17 C 0.7073(6) 0.4362(3) 0.1590(2)
F2 F 1.4148(6) 0.7388(5) 0.1090(2)
C18 C 0.2674(9) 0.0116(4) 0.0000(3)
H7 H 0.2750 -0.0431 -0.0218
C19 C 0.3507(8) 0.1700(4) 0.0185(2)
H8 H 0.4147 0.2224 0.0095
C20 C 0.7221(8) 0.1090(4) 0.0741(3)
H9 H 0.7812 0.1550 0.0544
C21 C 0.5509(7) 0.0637(4) 0.1524(3)
H10 H 0.4926 0.0779 0.1857
C22 C 0.3642(9) 0.0887(5) -0.0139(3)
H11 H 0.4373 0.0859 -0.0447
C23 C -0.1691(7) 0.3138(4) 0.2788(2)
H12 H -0.2769 0.2914 0.2814
C24 C 0.6390(8) -0.0504(4) 0.0829(3)
H13 H 0.6368 -0.1118 0.0690
C25 C 0.1455(8) 0.0957(4) 0.0776(3)
H14 H 0.0709 0.0982 0.1079
C26 C -0.1292(8) 0.4026(5) 0.2994(3)
H15 H -0.2113 0.4405 0.3152
C27 C 0.1613(9) 0.0151(4) 0.0452(3)
H16 H 0.0986 -0.0377 0.0545
C28 C 0.0298(8) 0.4348(4) 0.2967(3)
H17 H 0.0548 0.4943 0.3110
C29 C 0.5565(8) -0.0286(4) 0.1317(3)
H18 H 0.5025 -0.0761 0.1518
C30 C 0.7247(9) 0.0166(4) 0.0542(3)
H19 H 0.7848 0.0010 0.0215
F3 F 1.2781(6) 0.7860(4) 0.0413(4)
loop_
_geom_bond_atom_site_label_1
_geom_bond_atom_site_label_2
_geom_bond_site_symmetry_1
_geom_bond_site_symmetry_2
S1 O1 1_555 1_555
S2 O3 1_555 1_555
O2 S1 1_555 1_555
O4 S2 1_555 1_555
O5 C5 1_555 1_555
N1 S1 1_555 1_555
C1 C6 1_555 1_555
C2 S1 1_555 1_555
C3 C9 1_555 1_555
C4 S2 1_555 1_555
C5 C6 1_555 1_555
C6 N1 1_555 1_555
C7 C1 1_555 1_555
C8 H1 1_555 1_555
C9 C17 1_555 1_555
C10 C8 1_555 1_555
C11 C3 1_555 1_555
H2 C11 1_555 1_555
C12 C2 1_555 1_555
H3 C12 1_555 1_555
C13 C10 1_555 1_555
H4 C13 1_555 1_555
C14 C3 1_555 1_555
H5 C14 1_555 1_555
F1 C16 1_555 1_555
C15 C2 1_555 1_555
H6 C15 1_555 1_555
C16 C10 1_555 1_555
C17 C5 1_555 1_555
F2 C16 1_555 1_555
C18 H7 1_555 1_555
C19 C4 1_555 1_555
H8 C19 1_555 1_555
C20 C7 1_555 1_555
H9 C20 1_555 1_555
C21 C7 1_555 1_555
H10 C21 1_555 1_555
C22 C18 1_555 1_555
H11 C22 1_555 1_555
C23 C12 1_555 1_555
H12 C23 1_555 1_555
C24 H13 1_555 1_555
C25 C4 1_555 1_555
H14 C25 1_555 1_555
C26 C23 1_555 1_555
H15 C26 1_555 1_555
C27 C18 1_555 1_555
H16 C27 1_555 1_555
C28 C15 1_555 1_555
H17 C28 1_555 1_555
C29 C21 1_555 1_555
H18 C29 1_555 1_555
C30 C20 1_555 1_555
H19 C30 1_555 1_555
F3 C16 1_555 1_555
S2 N1 1_555 1_555
C8 C14 1_555 1_555
C11 C13 1_555 1_555
C19 C22 1_555 1_555
C24 C29 1_555 1_555
C24 C30 1_555 1_555
C25 C27 1_555 1_555
C26 C28 1_555 1_555

#END
