
#######################################################################
#
#                 Cambridge Crystallographic Data Centre
#                                CCDC 
#
#######################################################################
#
# If this CIF has been generated from an entry in the Cambridge 
# Structural Database, then it will include bibliographic, chemical, 
# crystal, experimental, refinement or atomic coordinate data resulting 
# from the CCDC's data processing and validation procedures.
#
#######################################################################

data_VAWLIP
_chemical_formula_moiety         '2(C1 H6 N3 1+),C12 H6 N2 O10 S2 2-'
_chemical_name_systematic        
"bis(Guanidinium) (2,2'-dinitro-4,4'-biphenyldisulfonate)"
_symmetry_cell_setting           orthorhombic
_symmetry_space_group_name_H-M   'P c a 21'
_symmetry_Int_Tables_number      29
_space_group_name_Hall           'P 2c -2ac'
loop_
_symmetry_equiv_pos_site_id
_symmetry_equiv_pos_as_xyz
1 x,y,z
2 -x,-y,1/2+z
3 1/2-x,y,1/2+z
4 1/2+x,-y,z
_cell_length_a                   14.9757(10)
_cell_length_b                   7.2578(5)
_cell_length_c                   20.0261(13)
_cell_angle_alpha                90
_cell_angle_beta                 90
_cell_angle_gamma                90
_cell_volume                     2176.65
_exptl_crystal_colour            yellow
_cell_formula_units_Z            4
loop_
_atom_site_label
_atom_site_type_symbol
_atom_site_fract_x
_atom_site_fract_y
_atom_site_fract_z
S1 S 0.34466(5) 0.11472(11) 0.13883(4)
S2 S 0.92240(5) -0.07699(12) -0.16267(4)
O1 O 0.62047(13) 0.3833(3) -0.07609(10)
O2 O 0.29545(14) -0.0528(3) 0.12591(10)
O3 O 0.37702(15) 0.1237(3) 0.20763(10)
O4 O 0.98560(14) 0.0730(3) -0.15398(11)
O5 O 0.70996(14) 0.3638(3) 0.05561(10)
O6 O 0.88524(14) -0.0851(3) -0.23018(10)
O7 O 0.29827(14) 0.2803(3) 0.11811(10)
N3 N 0.56088(17) 0.3961(4) -0.03386(13)
O8 O 0.85158(16) 0.3599(3) 0.03493(12)
C2 C 0.8363(2) 0.1158(4) -0.06365(14)
H5 H 0.8890 0.1825 -0.0591
O9 O 0.95511(14) -0.2545(3) -0.14019(10)
C4 C 0.68258(19) 0.0588(4) -0.02915(15)
C5 C 0.44302(19) 0.1033(4) 0.08874(15)
C6 C 0.5999(2) 0.0878(5) 0.01250(15)
C7 C 0.5773(2) -0.0545(4) 0.05612(16)
H14 H 0.6148 -0.1561 0.0597
O10 O 0.51956(18) 0.5367(3) -0.02492(14)
C8 C 0.5001(2) -0.0476(4) 0.09422(16)
H15 H 0.4864 -0.1433 0.1233
C9 C 0.7529(2) -0.1267(4) -0.11478(17)
H16 H 0.7497 -0.2244 -0.1447
C10 C 0.76325(19) 0.1555(4) -0.02390(14)
C11 C 0.6802(2) -0.0845(5) -0.07490(17)
H17 H 0.6283 -0.1542 -0.0789
C12 C 0.82996(19) -0.0237(5) -0.11003(15)
N8 N 0.77523(17) 0.3044(4) 0.02499(13)
C13 C 0.5414(2) 0.2367(4) 0.00837(14)
C14 C 0.4632(2) 0.2452(4) 0.04595(14)
H18 H 0.4251 0.3458 0.0421
N1 N 0.91850(19) 0.4146(4) -0.21657(15)
H1 H 0.9335 0.3129 -0.1977
H2 H 0.9278 0.5177 -0.1966
N4 N 0.85931(18) 0.5718(4) -0.30495(14)
H6 H 0.8355 0.5734 -0.3440
H7 H 0.8691 0.6734 -0.2841
N5 N 0.86698(17) 0.2550(4) -0.30683(14)
H8 H 0.8432 0.2527 -0.3459
H9 H 0.8816 0.1536 -0.2874
C3 C 0.8809(2) 0.4126(5) -0.27681(16)
N2 N 0.35291(18) -0.3882(4) 0.18761(13)
H3 H 0.3477 -0.2877 0.1652
H4 H 0.3534 -0.4925 0.1673
C1 C 0.3602(2) -0.3822(5) 0.25344(16)
N6 N 0.35947(16) -0.2222(4) 0.28475(12)
H10 H 0.3543 -0.1217 0.2624
H11 H 0.3642 -0.2186 0.3275
N7 N 0.36605(17) -0.5381(4) 0.28776(12)
H12 H 0.3694 -0.5352 0.3306
H13 H 0.3665 -0.6420 0.2671
loop_
_geom_bond_atom_site_label_1
_geom_bond_atom_site_label_2
_geom_bond_site_symmetry_1
_geom_bond_site_symmetry_2
S1 O2 1_555 1_555
S2 O4 1_555 1_555
O1 N3 1_555 1_555
O3 S1 1_555 1_555
O5 N8 1_555 1_555
N1 H1 1_555 1_555
H2 N1 1_555 1_555
O6 S2 1_555 1_555
N2 H3 1_555 1_555
H4 N2 1_555 1_555
O7 S1 1_555 1_555
C1 N2 1_555 1_555
N3 O10 1_555 1_555
O8 N8 1_555 1_555
C2 H5 1_555 1_555
N4 H6 1_555 1_555
H7 N4 1_555 1_555
N5 H8 1_555 1_555
H9 N5 1_555 1_555
N6 C1 1_555 1_555
H10 N6 1_555 1_555
H11 N6 1_555 1_555
O9 S2 1_555 1_555
N7 C1 1_555 1_555
H12 N7 1_555 1_555
H13 N7 1_555 1_555
C3 N1 1_555 1_555
C4 C6 1_555 1_555
C5 S1 1_555 1_555
C6 C7 1_555 1_555
C7 H14 1_555 1_555
C8 C5 1_555 1_555
H15 C8 1_555 1_555
C9 H16 1_555 1_555
C10 C2 1_555 1_555
C11 C4 1_555 1_555
H17 C11 1_555 1_555
C12 S2 1_555 1_555
N8 C10 1_555 1_555
C13 N3 1_555 1_555
C14 C5 1_555 1_555
H18 C14 1_555 1_555
C2 C12 1_555 1_555
N4 C3 1_555 1_555
N5 C3 1_555 1_555
C4 C10 1_555 1_555
C6 C13 1_555 1_555
C7 C8 1_555 1_555
C9 C11 1_555 1_555
C9 C12 1_555 1_555
C13 C14 1_555 1_555

#END
