
#######################################################################
#
#                 Cambridge Crystallographic Data Centre
#                                CCDC 
#
#######################################################################
#
# If this CIF has been generated from an entry in the Cambridge 
# Structural Database, then it will include bibliographic, chemical, 
# crystal, experimental, refinement or atomic coordinate data resulting 
# from the CCDC's data processing and validation procedures.
#
#######################################################################

data_VAWLEM
_chemical_formula_moiety         'C31 H40 O7'
_chemical_name_systematic        
"9-(3-Furyl)-1,6-dihydroxy-8-methoxy-3a,6a,10,11b-tetramethyl-1,2,3,3a,4,5a,6,6a,11,11a,11b,11c-dodecahydroindeno[1',2':3,4]naphtho[1,8-bc]furan-3-yl 2-methylpropanoate"
_symmetry_cell_setting           orthorhombic
_symmetry_space_group_name_H-M   'P 21 21 21'
_symmetry_Int_Tables_number      19
_space_group_name_Hall           'P 2ac 2ab'
loop_
_symmetry_equiv_pos_site_id
_symmetry_equiv_pos_as_xyz
1 x,y,z
2 1/2+x,1/2-y,-z
3 -x,1/2+y,1/2-z
4 1/2-x,-y,1/2+z
_cell_length_a                   7.45110(10)
_cell_length_b                   12.76940(10)
_cell_length_c                   29.8002(3)
_cell_angle_alpha                90
_cell_angle_beta                 90
_cell_angle_gamma                90
_cell_volume                     2835.37
_exptl_crystal_colour            colorless
_exptl_crystal_description       block
_cell_formula_units_Z            4
loop_
_atom_site_label
_atom_site_type_symbol
_atom_site_fract_x
_atom_site_fract_y
_atom_site_fract_z
C1 C 0.0372(3) 0.71969(14) 0.18909(6)
H1 H -0.0492 0.7728 0.1989
C2 C 0.0519(3) 0.63569(15) 0.22602(6)
H2 H 0.0708 0.6713 0.2544
H3 H -0.0627 0.6000 0.2280
C3 C 0.1984(3) 0.55229(13) 0.22103(6)
H4 H 0.2075 0.5126 0.2491
C4 C 0.3820(2) 0.60208(13) 0.21050(6)
C5 C 0.3513(2) 0.68344(12) 0.17384(5)
H5 H 0.2984 0.6431 0.1492
C6 C 0.5376(2) 0.70864(13) 0.15738(6)
H6 H 0.5973 0.7545 0.1791
C7 C 0.5349(2) 0.76231(14) 0.11134(6)
H7 H 0.6569 0.7830 0.1028
C8 C 0.4154(2) 0.86044(13) 0.11642(6)
C9 C 0.2258(2) 0.82878(13) 0.13430(5)
H8 H 0.1855 0.7746 0.1133
C10 C 0.2199(2) 0.77409(13) 0.18064(5)
C11 C 0.1060(3) 0.92218(14) 0.12381(6)
H9 H -0.0186 0.9015 0.1206
H10 H 0.1154 0.9760 0.1467
C12 C 0.1854(2) 0.95813(13) 0.07949(6)
C13 C 0.1089(3) 1.02318(14) 0.04709(6)
C14 C 0.3567(2) 0.91655(13) 0.07376(6)
C15 C 0.4525(3) 0.93606(15) 0.03485(6)
H11 H 0.5668 0.9082 0.0310
C16 C 0.3753(3) 0.99811(15) 0.00162(6)
C17 C 0.2057(3) 1.04336(14) 0.00775(6)
C18 C -0.0765(3) 1.06656(18) 0.05422(7)
H12 H -0.1489 1.0155 0.0694
H13 H -0.1296 1.0828 0.0257
H14 H -0.0694 1.1290 0.0720
C19 C 0.2586(3) 0.84952(14) 0.21986(6)
H15 H 0.2065 0.8222 0.2469
H16 H 0.2074 0.9168 0.2134
H17 H 0.3859 0.8565 0.2237
C20 C 0.1283(3) 1.11301(15) -0.02746(6)
C21 C 0.0826(3) 1.08634(19) -0.06933(7)
H18 H 0.0970 1.0198 -0.0815
C22 C 0.0845(3) 1.22092(18) -0.02350(7)
H19 H 0.1006 1.2626 0.0018
C23 C 0.0162(3) 1.25141(19) -0.06258(8)
H20 H -0.0229 1.3190 -0.0689
C24 C 0.6075(4) 0.9610(2) -0.05159(8)
H21 H 0.7088 0.9794 -0.0333
H22 H 0.6345 0.9752 -0.0825
H23 H 0.5813 0.8879 -0.0480
C25 C 0.5174(3) 0.94454(15) 0.14374(7)
H24 H 0.6154 0.9712 0.1262
H25 H 0.5631 0.9138 0.1708
H26 H 0.4372 1.0007 0.1511
C26 C 0.5224(3) 0.53541(14) 0.18563(6)
H27 H 0.6011 0.5007 0.2069
H28 H 0.4639 0.4826 0.1674
C27 C 0.4641(3) 0.64181(16) 0.25450(6)
H29 H 0.5678 0.6838 0.2480
H30 H 0.4986 0.5832 0.2727
H31 H 0.3773 0.6833 0.2703
C28 C 0.1740(3) 0.37958(14) 0.19122(6)
C29 C 0.1191(3) 0.31803(15) 0.15057(6)
H32 H 0.1769 0.3507 0.1246
C30 C 0.1873(4) 0.20643(16) 0.15331(8)
H33 H 0.3146 0.2069 0.1583
H34 H 0.1617 0.1707 0.1257
H35 H 0.1289 0.1709 0.1777
C31 C -0.0834(4) 0.3257(2) 0.14338(9)
H36 H -0.1444 0.2905 0.1674
H37 H -0.1146 0.2935 0.1154
H38 H -0.1185 0.3981 0.1429
O1 O -0.02383(17) 0.67661(10) 0.14792(4)
H39 H -0.1122 0.6399 0.1525
O2 O 0.14412(18) 0.48203(9) 0.18528(4)
O3 O 0.2380(3) 0.34414(12) 0.22507(5)
O4 O 0.62433(17) 0.60739(10) 0.15740(4)
O5 O 0.46309(19) 0.69216(10) 0.07888(4)
H40 H 0.5185 0.6984 0.0553
O6 O 0.4583(2) 1.02040(14) -0.03843(5)
O7 O 0.0114(2) 1.17031(15) -0.09193(5)
loop_
_geom_bond_atom_site_label_1
_geom_bond_atom_site_label_2
_geom_bond_site_symmetry_1
_geom_bond_site_symmetry_2
C1 H1 1_555 1_555
C2 C1 1_555 1_555
H2 C2 1_555 1_555
H3 C2 1_555 1_555
C3 C2 1_555 1_555
H4 C3 1_555 1_555
C4 C3 1_555 1_555
C5 C4 1_555 1_555
H5 C5 1_555 1_555
C6 C5 1_555 1_555
H6 C6 1_555 1_555
C7 C6 1_555 1_555
H7 C7 1_555 1_555
C8 C7 1_555 1_555
C9 C8 1_555 1_555
H8 C9 1_555 1_555
C10 C1 1_555 1_555
C11 C9 1_555 1_555
H9 C11 1_555 1_555
H10 C11 1_555 1_555
C12 C11 1_555 1_555
C13 C12 1_555 1_555
C14 C8 1_555 1_555
C15 C14 1_555 1_555
H11 C15 1_555 1_555
C16 C15 1_555 1_555
C17 C13 1_555 1_555
C18 C13 1_555 1_555
H12 C18 1_555 1_555
H13 C18 1_555 1_555
H14 C18 1_555 1_555
C19 C10 1_555 1_555
H15 C19 1_555 1_555
H16 C19 1_555 1_555
H17 C19 1_555 1_555
C20 C17 1_555 1_555
C21 C20 1_555 1_555
H18 C21 1_555 1_555
C22 C20 1_555 1_555
H19 C22 1_555 1_555
C23 C22 1_555 1_555
H20 C23 1_555 1_555
C24 H21 1_555 1_555
H22 C24 1_555 1_555
H23 C24 1_555 1_555
C25 C8 1_555 1_555
H24 C25 1_555 1_555
H25 C25 1_555 1_555
H26 C25 1_555 1_555
C26 C4 1_555 1_555
H27 C26 1_555 1_555
H28 C26 1_555 1_555
C27 C4 1_555 1_555
H29 C27 1_555 1_555
H30 C27 1_555 1_555
H31 C27 1_555 1_555
C28 C29 1_555 1_555
C29 H32 1_555 1_555
C30 C29 1_555 1_555
H33 C30 1_555 1_555
H34 C30 1_555 1_555
H35 C30 1_555 1_555
C31 C29 1_555 1_555
H36 C31 1_555 1_555
H37 C31 1_555 1_555
H38 C31 1_555 1_555
O1 C1 1_555 1_555
H39 O1 1_555 1_555
O2 C3 1_555 1_555
O3 C28 1_555 1_555
O4 C6 1_555 1_555
O5 C7 1_555 1_555
H40 O5 1_555 1_555
O6 C16 1_555 1_555
O7 C21 1_555 1_555
C5 C10 1_555 1_555
C9 C10 1_555 1_555
C12 C14 1_555 1_555
C16 C17 1_555 1_555
C23 O7 1_555 1_555
C24 O6 1_555 1_555
C26 O4 1_555 1_555
C28 O2 1_555 1_555

#END
