
#######################################################################
#
#                 Cambridge Crystallographic Data Centre
#                                CCDC 
#
#######################################################################
#
# If this CIF has been generated from an entry in the Cambridge 
# Structural Database, then it will include bibliographic, chemical, 
# crystal, experimental, refinement or atomic coordinate data resulting 
# from the CCDC's data processing and validation procedures.
#
#######################################################################

data_VAWPOB
_chemical_formula_moiety         'C16 H15 N1 O5 S1'
_chemical_name_systematic        
'methyl 2-formyl-3-{[(4-methylphenyl)sulfonyl]amino}benzoate'
_symmetry_cell_setting           triclinic
_symmetry_space_group_name_H-M   'P -1'
_symmetry_Int_Tables_number      2
_space_group_name_Hall           '-P 1'
loop_
_symmetry_equiv_pos_site_id
_symmetry_equiv_pos_as_xyz
1 x,y,z
2 -x,-y,-z
_cell_length_a                   8.7800(9)
_cell_length_b                   8.8815(7)
_cell_length_c                   11.5174(8)
_cell_angle_alpha                77.869(6)
_cell_angle_beta                 87.177(7)
_cell_angle_gamma                64.169(9)
_cell_volume                     789.419
_exptl_crystal_colour            'light colorless'
_exptl_crystal_description       block
_cell_formula_units_Z            2
loop_
_atom_site_label
_atom_site_type_symbol
_atom_site_fract_x
_atom_site_fract_y
_atom_site_fract_z
S1 S 0.08760(7) 0.21026(7) 0.21271(5)
O1 O 0.0845(2) 0.0476(2) 0.24283(14)
O2 O 0.3542(2) 0.3900(2) 0.67954(14)
C1 C 0.5765(3) 0.0233(4) 0.1401(2)
H1 H 0.6739 -0.0771 0.1660
C2 C 0.4148(4) 0.6495(4) 0.7016(2)
H2 H 0.4257 0.7544 0.6913
H3 H 0.5228 0.5544 0.7264
H4 H 0.3346 0.6478 0.7610
C3 C 0.2802(3) 0.1879(3) 0.14964(17)
C4 C 0.3267(3) 0.2004(3) 0.5271(2)
H5 H 0.4225 0.1839 0.5690
O3 O 0.2972(2) 0.0782(2) 0.53385(15)
O4 O 0.3566(2) 0.6372(2) 0.59029(13)
C5 C 0.2866(3) 0.3194(3) 0.0644(2)
H6 H 0.1887 0.4191 0.0379
C6 C 0.1604(3) 0.6732(3) 0.40354(19)
H7 H 0.1724 0.7667 0.4180
C7 C 0.2373(3) 0.5168(3) 0.48084(18)
C8 C 0.4247(3) 0.0387(3) 0.1865(2)
H8 H 0.4194 -0.0510 0.2424
C9 C 0.4408(4) 0.3005(4) 0.0190(2)
H9 H 0.4458 0.3892 -0.0381
C10 C 0.1188(3) 0.3977(3) 0.35973(17)
N1 N 0.0925(2) 0.2586(2) 0.34193(15)
H10 H 0.0777 0.1937 0.4038
C11 C 0.0426(3) 0.5564(3) 0.28398(19)
H11 H -0.0245 0.5713 0.2187
C12 C 0.3239(3) 0.5032(3) 0.59376(19)
C13 C 0.2226(3) 0.3737(3) 0.45769(17)
C14 C 0.0655(3) 0.6920(3) 0.3048(2)
H12 H 0.0169 0.7973 0.2520
C15 C 0.5879(4) 0.1534(4) 0.0560(2)
C16 C 0.7557(4) 0.1370(6) 0.0066(3)
H13 H 0.8128 0.1690 0.0589
H14 H 0.7366 0.2109 -0.0705
H15 H 0.8244 0.0207 0.0001
O5 O -0.0459(2) 0.3497(2) 0.13881(14)
loop_
_geom_bond_atom_site_label_1
_geom_bond_atom_site_label_2
_geom_bond_site_symmetry_1
_geom_bond_site_symmetry_2
S1 O1 1_555 1_555
O2 C12 1_555 1_555
C1 H1 1_555 1_555
C2 H2 1_555 1_555
H3 C2 1_555 1_555
H4 C2 1_555 1_555
C3 S1 1_555 1_555
C4 H5 1_555 1_555
O3 C4 1_555 1_555
O4 C2 1_555 1_555
C5 C3 1_555 1_555
H6 C5 1_555 1_555
C6 H7 1_555 1_555
C7 C6 1_555 1_555
C8 C1 1_555 1_555
H8 C8 1_555 1_555
C9 C5 1_555 1_555
H9 C9 1_555 1_555
C10 N1 1_555 1_555
N1 S1 1_555 1_555
H10 N1 1_555 1_555
C11 C10 1_555 1_555
H11 C11 1_555 1_555
C12 O4 1_555 1_555
C13 C4 1_555 1_555
C14 C6 1_555 1_555
H12 C14 1_555 1_555
C15 C1 1_555 1_555
C16 C15 1_555 1_555
H13 C16 1_555 1_555
H14 C16 1_555 1_555
H15 C16 1_555 1_555
O5 S1 1_555 1_555
C3 C8 1_555 1_555
C7 C12 1_555 1_555
C7 C13 1_555 1_555
C9 C15 1_555 1_555
C10 C13 1_555 1_555
C11 C14 1_555 1_555

#END
