
#######################################################################
#
#                 Cambridge Crystallographic Data Centre
#                                CCDC 
#
#######################################################################
#
# If this CIF has been generated from an entry in the Cambridge 
# Structural Database, then it will include bibliographic, chemical, 
# crystal, experimental, refinement or atomic coordinate data resulting 
# from the CCDC's data processing and validation procedures.
#
#######################################################################

data_VAWRAO
_chemical_formula_moiety         'C19 H19 Cl1 N2 O4'
_chemical_name_systematic        
4-(2-(4-((2-Chlorobenzyl)oxy)phenyl)ethyl)-2-oxo-1,3-oxazolidine-4-carboxamide
_symmetry_cell_setting           triclinic
_symmetry_space_group_name_H-M   'P -1'
_symmetry_Int_Tables_number      2
_space_group_name_Hall           '-P 1'
loop_
_symmetry_equiv_pos_site_id
_symmetry_equiv_pos_as_xyz
1 x,y,z
2 -x,-y,-z
_cell_length_a                   5.6248(11)
_cell_length_b                   13.406(3)
_cell_length_c                   23.130(5)
_cell_angle_alpha                88.94(3)
_cell_angle_beta                 85.46(3)
_cell_angle_gamma                84.33(3)
_cell_volume                     1730.06
_cell_formula_units_Z            4
loop_
_atom_site_label
_atom_site_type_symbol
_atom_site_fract_x
_atom_site_fract_y
_atom_site_fract_z
Cl1 Cl 0.57740(8) 0.39641(3) 0.05421(2)
N1 N 0.1638(2) 0.93459(9) 0.40804(5)
H1 H 0.048(3) 0.8973(15) 0.4160(8)
N2 N 0.4508(2) 0.83426(10) 0.48459(6)
H2 H 0.536(4) 0.8062(16) 0.5117(9)
H3 H 0.310(3) 0.8603(14) 0.4946(8)
O1 O -0.03614(19) 1.07862(8) 0.44719(5)
O2 O 0.34093(18) 1.07495(8) 0.40661(5)
O3 O 0.76435(17) 0.81248(8) 0.41765(5)
O4 O 0.3199(2) 0.43333(8) 0.18057(5)
C1 C 0.1377(2) 1.03169(11) 0.42335(6)
C2 C 0.5046(2) 1.00379(10) 0.37378(7)
H7 H 0.6686 1.0034 0.3866
H8 H 0.5086 1.0205 0.3319
C3 C 0.4069(2) 0.90091(10) 0.38595(6)
C4 C 0.5533(2) 0.84431(10) 0.43214(6)
C5 C 0.4158(2) 0.83640(11) 0.33179(6)
H9 H 0.3642 0.8790 0.2988
H10 H 0.5828 0.8078 0.3219
C6 C 0.2545(3) 0.75126(12) 0.34088(7)
H11 H 0.2907 0.7159 0.3776
H12 H 0.0859 0.7809 0.3456
C7 C 0.2764(3) 0.67495(11) 0.29315(7)
C8 C 0.4763(3) 0.60453(11) 0.28689(6)
H13 H 0.6077 0.6102 0.3096
C9 C 0.4864(3) 0.52670(11) 0.24823(7)
H14 H 0.6239 0.4794 0.2447
C10 C 0.2956(3) 0.51732(11) 0.21443(6)
C11 C 0.1012(3) 0.58971(12) 0.21710(7)
H15 H -0.0249 0.5865 0.1924
C12 C 0.0940(3) 0.66757(12) 0.25679(7)
H16 H -0.0396 0.7169 0.2589
C13 C 0.1389(3) 0.42211(12) 0.14173(7)
H17 H 0.1370 0.4763 0.1121
H18 H -0.0209 0.4253 0.1633
C14 C 0.1981(3) 0.32193(12) 0.11352(7)
C15 C 0.3958(3) 0.30174(12) 0.07421(7)
C16 C 0.4505(3) 0.20866(12) 0.04874(8)
H19 H 0.5883 0.1964 0.0224
C17 C 0.3023(3) 0.13401(12) 0.06211(8)
H20 H 0.3371 0.0702 0.0446
C18 C 0.1041(3) 0.15168(13) 0.10078(8)
H21 H 0.0025 0.1001 0.1099
C19 C 0.0529(3) 0.24474(13) 0.12643(8)
H22 H -0.0835 0.2561 0.1533
Cl2 Cl 1.03724(9) -0.09536(3) 0.06555(2)
N3 N 0.6875(2) 0.41839(9) 0.42093(6)
H4 H 0.567(4) 0.3864(16) 0.4313(9)
N4 N 0.9705(2) 0.34012(10) 0.50515(6)
H5 H 1.054(3) 0.3161(14) 0.5338(8)
H6 H 0.822(3) 0.3624(14) 0.5124(8)
O5 O 0.49333(19) 0.57596(9) 0.43639(5)
O6 O 0.86674(18) 0.55286(8) 0.39339(5)
O7 O 1.29071(17) 0.31015(8) 0.44056(5)
O8 O 0.7603(2) -0.07219(9) 0.19287(5)
C20 C 0.6633(2) 0.51935(11) 0.41926(6)
C21 C 1.0269(2) 0.46872(11) 0.37202(7)
H23 H 1.1921 0.4747 0.3825
H24 H 1.0282 0.4643 0.3293
C22 C 0.9264(2) 0.37592(10) 0.40178(6)
C23 C 1.0763(2) 0.34026(10) 0.45235(6)
C24 C 0.9313(3) 0.28358(11) 0.36321(7)
H25 H 1.1005 0.2620 0.3505
H26 H 0.8692 0.2286 0.3873
C25 C 0.7902(3) 0.29626(11) 0.30939(7)
H27 H 0.6251 0.3255 0.3209
H28 H 0.8656 0.3439 0.2822
C26 C 0.7786(3) 0.19836(11) 0.27836(7)
C27 C 0.5911(3) 0.18625(12) 0.24418(7)
H29 H 0.4687 0.2398 0.2412
C28 C 0.5769(3) 0.09803(12) 0.21416(7)
H30 H 0.4476 0.0919 0.1908
C29 C 0.7539(3) 0.01938(11) 0.21885(7)
C30 C 0.9425(3) 0.02991(12) 0.25281(7)
H31 H 1.0641 -0.0239 0.2561
C31 C 0.9544(3) 0.11818(12) 0.28182(7)
H32 H 1.0853 0.1243 0.3046
C32 C 0.5915(3) -0.08346(13) 0.15093(7)
H33 H 0.5919 -0.0275 0.1224
H34 H 0.4280 -0.0836 0.1702
C33 C 0.6657(3) -0.18127(12) 0.12118(7)
C34 C 0.8669(3) -0.19484(12) 0.08226(7)
C35 C 0.9352(3) -0.28474(13) 0.05451(8)
H35 H 1.0748 -0.2919 0.0284
C36 C 0.7985(3) -0.36379(12) 0.06512(7)
H36 H 0.8425 -0.4256 0.0459
C37 C 0.5979(3) -0.35338(13) 0.10358(8)
H37 H 0.5043 -0.4081 0.1110
C38 C 0.5328(3) -0.26315(14) 0.13143(8)
H38 H 0.3949 -0.2569 0.1581
loop_
_geom_bond_atom_site_label_1
_geom_bond_atom_site_label_2
_geom_bond_site_symmetry_1
_geom_bond_site_symmetry_2
Cl1 C15 1_555 1_555
Cl2 C34 1_555 1_555
N1 H1 1_555 1_555
N2 H2 1_555 1_555
H3 N2 1_555 1_555
N3 H4 1_555 1_555
N4 H5 1_555 1_555
H6 N4 1_555 1_555
O1 C1 1_555 1_555
O2 C1 1_555 1_555
O3 C4 1_555 1_555
O4 C10 1_555 1_555
O5 C20 1_555 1_555
O6 C20 1_555 1_555
O7 C23 1_555 1_555
O8 C29 1_555 1_555
C1 N1 1_555 1_555
C2 O2 1_555 1_555
H7 C2 1_555 1_555
H8 C2 1_555 1_555
C3 N1 1_555 1_555
C4 N2 1_555 1_555
C5 C3 1_555 1_555
H9 C5 1_555 1_555
H10 C5 1_555 1_555
C6 C5 1_555 1_555
H11 C6 1_555 1_555
H12 C6 1_555 1_555
C7 C6 1_555 1_555
C8 C7 1_555 1_555
H13 C8 1_555 1_555
C9 C8 1_555 1_555
H14 C9 1_555 1_555
C10 C9 1_555 1_555
C11 C10 1_555 1_555
H15 C11 1_555 1_555
C12 C7 1_555 1_555
H16 C12 1_555 1_555
C13 O4 1_555 1_555
H17 C13 1_555 1_555
H18 C13 1_555 1_555
C14 C13 1_555 1_555
C15 C14 1_555 1_555
C16 C15 1_555 1_555
H19 C16 1_555 1_555
C17 C16 1_555 1_555
H20 C17 1_555 1_555
C18 C17 1_555 1_555
H21 C18 1_555 1_555
C19 C14 1_555 1_555
H22 C19 1_555 1_555
C20 N3 1_555 1_555
C21 O6 1_555 1_555
H23 C21 1_555 1_555
H24 C21 1_555 1_555
C22 N3 1_555 1_555
C23 N4 1_555 1_555
C24 C22 1_555 1_555
H25 C24 1_555 1_555
H26 C24 1_555 1_555
C25 C24 1_555 1_555
H27 C25 1_555 1_555
H28 C25 1_555 1_555
C26 C25 1_555 1_555
C27 C26 1_555 1_555
H29 C27 1_555 1_555
C28 C27 1_555 1_555
H30 C28 1_555 1_555
C29 C28 1_555 1_555
C30 C29 1_555 1_555
H31 C30 1_555 1_555
C31 C26 1_555 1_555
H32 C31 1_555 1_555
C32 O8 1_555 1_555
H33 C32 1_555 1_555
H34 C32 1_555 1_555
C33 C32 1_555 1_555
C34 C33 1_555 1_555
C35 C34 1_555 1_555
H35 C35 1_555 1_555
C36 C35 1_555 1_555
H36 C36 1_555 1_555
C37 C36 1_555 1_555
H37 C37 1_555 1_555
C38 C33 1_555 1_555
H38 C38 1_555 1_555
C2 C3 1_555 1_555
C3 C4 1_555 1_555
C11 C12 1_555 1_555
C18 C19 1_555 1_555
C21 C22 1_555 1_555
C22 C23 1_555 1_555
C30 C31 1_555 1_555
C37 C38 1_555 1_555

#END
