
#######################################################################
#
#                 Cambridge Crystallographic Data Centre
#                                CCDC 
#
#######################################################################
#
# If this CIF has been generated from an entry in the Cambridge 
# Structural Database, then it will include bibliographic, chemical, 
# crystal, experimental, refinement or atomic coordinate data resulting 
# from the CCDC's data processing and validation procedures.
#
#######################################################################

data_VAWVUN
_chemical_formula_moiety         'C48 H48 N6'
_chemical_name_systematic        
2,4,6-tris(4-t-butylphenyl)-1,3,5-tris(pyrimidin-5-yl)benzene
_symmetry_cell_setting           triclinic
_symmetry_space_group_name_H-M   'P -1'
_symmetry_Int_Tables_number      2
_space_group_name_Hall           '-P 1'
loop_
_symmetry_equiv_pos_site_id
_symmetry_equiv_pos_as_xyz
1 x,y,z
2 -x,-y,-z
_cell_length_a                   6.1779(12)
_cell_length_b                   18.260(4)
_cell_length_c                   18.962(4)
_cell_angle_alpha                77.28(3)
_cell_angle_beta                 84.37(3)
_cell_angle_gamma                81.29(3)
_cell_volume                     2057.86
_exptl_crystal_colour            colorless
_exptl_crystal_description       needle
_cell_formula_units_Z            2
_exptl_crystal_recrystallization_method 'Dichloromethane/ Methanol'
loop_
_atom_site_label
_atom_site_type_symbol
_atom_site_fract_x
_atom_site_fract_y
_atom_site_fract_z
N1 N 0.2493(3) 0.88347(10) 0.08565(10)
N2 N -0.0751(3) 0.91632(10) 0.02078(9)
N3 N -1.0034(3) 0.99602(11) 0.38978(10)
N4 N -0.7077(3) 1.06100(10) 0.40262(11)
N5 N -0.1737(4) 0.59235(14) 0.47323(13)
N6 N -0.3201(4) 0.55314(12) 0.37731(16)
C1 C -0.2328(3) 0.85869(11) 0.22061(10)
C2 C -0.3718(3) 0.91496(11) 0.24941(10)
C3 C -0.4827(3) 0.89484(11) 0.31749(10)
C4 C -0.4529(3) 0.81985(11) 0.35728(10)
C5 C -0.3175(3) 0.76384(11) 0.32696(10)
C6 C -0.2098(3) 0.78310(11) 0.25827(10)
C7 C -0.1027(3) 0.87848(11) 0.14973(11)
C8 C 0.1242(3) 0.86932(12) 0.14698(11)
H1 H 0.1943 0.8520 0.1912
C9 C 0.1410(4) 0.90666(13) 0.02594(12)
H2 H 0.2279 0.9176 -0.0183
C10 C -0.1950(4) 0.90243(11) 0.08356(11)
H3 H -0.3503 0.9093 0.0828
C11 C -0.6383(3) 0.95243(11) 0.34881(10)
C12 C -0.8603(3) 0.94784(12) 0.35930(11)
H4 H -0.9142 0.9082 0.3440
C13 C -0.9167(4) 1.04996(13) 0.41008(12)
H5 H -1.0159 1.0845 0.4325
C14 C -0.5702(4) 1.01172(12) 0.37164(12)
H6 H -0.4188 1.0176 0.3650
C15 C -0.2897(3) 0.68361(11) 0.36831(11)
C16 C -0.2056(4) 0.66337(13) 0.43598(13)
H7 H -0.1688 0.7022 0.4569
C17 C -0.2366(6) 0.54128(17) 0.4414(2)
H8 H -0.2195 0.4904 0.4679
C18 C -0.3432(4) 0.62470(13) 0.34153(14)
H9 H -0.3996 0.6360 0.2949
C19 C -0.4059(3) 0.99489(11) 0.20747(10)
C20 C -0.5975(3) 1.02234(12) 0.17196(12)
H10 H -0.7054 0.9898 0.1741
C21 C -0.6334(4) 1.09669(12) 0.13332(12)
H11 H -0.7653 1.1137 0.1093
C22 C -0.4823(3) 1.14692(11) 0.12879(10)
C23 C -0.2915(3) 1.11866(12) 0.16418(11)
H12 H -0.1835 1.1511 0.1622
C24 C -0.2538(3) 1.04436(12) 0.20232(11)
H13 H -0.1204 1.0271 0.2254
C25 C -0.5343(4) 1.22940(12) 0.08908(11)
C26 C -0.3336(5) 1.27090(15) 0.07607(15)
H14 H -0.3744 1.3233 0.0505
H15 H -0.2198 1.2454 0.0466
H16 H -0.2773 1.2707 0.1227
C27 C -0.7111(5) 1.26866(13) 0.13582(13)
H17 H -0.7476 1.3218 0.1118
H18 H -0.6561 1.2660 0.1832
H19 H -0.8427 1.2433 0.1424
C28 C -0.6247(4) 1.23415(13) 0.01562(11)
H20 H -0.6560 1.2874 -0.0089
H21 H -0.7601 1.2107 0.0230
H22 H -0.5159 1.2073 -0.0143
C29 C -0.5599(3) 0.79897(11) 0.43215(10)
C30 C -0.5064(3) 0.82962(11) 0.48798(10)
H23 H -0.4102 0.8672 0.4778
C31 C -0.5914(3) 0.80616(11) 0.55820(11)
H24 H -0.5531 0.8282 0.5954
C32 C -0.7319(3) 0.75095(12) 0.57583(10)
C33 C -0.7852(4) 0.72058(12) 0.51925(11)
H25 H -0.8800 0.6826 0.5293
C34 C -0.7021(3) 0.74488(12) 0.44895(11)
H26 H -0.7434 0.7240 0.4114
C35 C -0.8196(4) 0.72029(13) 0.65334(11)
C36 C -0.7733(5) 0.76827(17) 0.70549(13)
H27 H -0.8465 0.8202 0.6905
H28 H -0.6147 0.7688 0.7048
H29 H -0.8290 0.7466 0.7547
C37 C -0.7042(5) 0.63963(16) 0.67781(14)
H30 H -0.7328 0.6082 0.6449
H31 H -0.7599 0.6185 0.7271
H32 H -0.5457 0.6406 0.6771
C38 C -1.0665(4) 0.71944(16) 0.65651(13)
H33 H -1.1399 0.7712 0.6407
H34 H -1.1195 0.6990 0.7063
H35 H -1.0989 0.6876 0.6245
C39 C -0.0762(3) 0.72243(11) 0.22454(11)
C40 C 0.1053(4) 0.67711(12) 0.25679(12)
H36 H 0.1547 0.6877 0.2989
C41 C 0.2141(4) 0.61709(12) 0.22839(12)
H37 H 0.3354 0.5866 0.2521
C42 C 0.1509(3) 0.60013(11) 0.16597(11)
C43 C -0.0246(3) 0.64704(11) 0.13296(11)
H38 H -0.0694 0.6381 0.0894
C44 C -0.1367(3) 0.70666(11) 0.16166(11)
H39 H -0.2573 0.7373 0.1377
C45 C 0.2684(4) 0.53023(11) 0.13959(11)
C46 C 0.2305(5) 0.46024(13) 0.19830(13)
H40 H 0.0728 0.4570 0.2065
H41 H 0.2886 0.4642 0.2434
H42 H 0.3058 0.4147 0.1826
C47 C 0.5149(4) 0.53524(15) 0.12609(16)
H43 H 0.5386 0.5803 0.0886
H44 H 0.5893 0.4899 0.1099
H45 H 0.5745 0.5388 0.1711
C48 C 0.1830(4) 0.52140(13) 0.06933(12)
H46 H 0.0255 0.5177 0.0768
H47 H 0.2608 0.4753 0.0553
H48 H 0.2079 0.5655 0.0309
loop_
_geom_bond_atom_site_label_1
_geom_bond_atom_site_label_2
_geom_bond_site_symmetry_1
_geom_bond_site_symmetry_2
N1 C8 1_555 1_555
N2 C9 1_555 1_555
N3 C12 1_555 1_555
N4 C13 1_555 1_555
N5 C16 1_555 1_555
N6 C17 1_555 1_555
C1 C2 1_555 1_555
C2 C3 1_555 1_555
C3 C4 1_555 1_555
C4 C5 1_555 1_555
C5 C6 1_555 1_555
C6 C1 1_555 1_555
C7 C1 1_555 1_555
C8 C7 1_555 1_555
H1 C8 1_555 1_555
C9 N1 1_555 1_555
H2 C9 1_555 1_555
C10 N2 1_555 1_555
H3 C10 1_555 1_555
C11 C3 1_555 1_555
C12 C11 1_555 1_555
H4 C12 1_555 1_555
C13 N3 1_555 1_555
H5 C13 1_555 1_555
C14 N4 1_555 1_555
H6 C14 1_555 1_555
C15 C5 1_555 1_555
C16 C15 1_555 1_555
H7 C16 1_555 1_555
C17 N5 1_555 1_555
H8 C17 1_555 1_555
C18 N6 1_555 1_555
H9 C18 1_555 1_555
C19 C2 1_555 1_555
C20 C19 1_555 1_555
H10 C20 1_555 1_555
C21 C20 1_555 1_555
H11 C21 1_555 1_555
C22 C21 1_555 1_555
C23 C22 1_555 1_555
H12 C23 1_555 1_555
C24 C19 1_555 1_555
H13 C24 1_555 1_555
C25 C22 1_555 1_555
C26 C25 1_555 1_555
H14 C26 1_555 1_555
H15 C26 1_555 1_555
H16 C26 1_555 1_555
C27 C25 1_555 1_555
H17 C27 1_555 1_555
H18 C27 1_555 1_555
H19 C27 1_555 1_555
C28 C25 1_555 1_555
H20 C28 1_555 1_555
H21 C28 1_555 1_555
H22 C28 1_555 1_555
C29 C4 1_555 1_555
C30 C29 1_555 1_555
H23 C30 1_555 1_555
C31 C30 1_555 1_555
H24 C31 1_555 1_555
C32 C31 1_555 1_555
C33 C32 1_555 1_555
H25 C33 1_555 1_555
C34 C29 1_555 1_555
H26 C34 1_555 1_555
C35 C32 1_555 1_555
C36 C35 1_555 1_555
H27 C36 1_555 1_555
H28 C36 1_555 1_555
H29 C36 1_555 1_555
C37 C35 1_555 1_555
H30 C37 1_555 1_555
H31 C37 1_555 1_555
H32 C37 1_555 1_555
C38 C35 1_555 1_555
H33 C38 1_555 1_555
H34 C38 1_555 1_555
H35 C38 1_555 1_555
C39 C6 1_555 1_555
C40 C39 1_555 1_555
H36 C40 1_555 1_555
C41 C40 1_555 1_555
H37 C41 1_555 1_555
C42 C41 1_555 1_555
C43 C42 1_555 1_555
H38 C43 1_555 1_555
C44 C39 1_555 1_555
H39 C44 1_555 1_555
C45 C42 1_555 1_555
C46 C45 1_555 1_555
H40 C46 1_555 1_555
H41 C46 1_555 1_555
H42 C46 1_555 1_555
C47 C45 1_555 1_555
H43 C47 1_555 1_555
H44 C47 1_555 1_555
H45 C47 1_555 1_555
C48 C45 1_555 1_555
H46 C48 1_555 1_555
H47 C48 1_555 1_555
H48 C48 1_555 1_555
C7 C10 1_555 1_555
C11 C14 1_555 1_555
C15 C18 1_555 1_555
C23 C24 1_555 1_555
C33 C34 1_555 1_555
C43 C44 1_555 1_555

#END
