
#######################################################################
#
#                 Cambridge Crystallographic Data Centre
#                                CCDC 
#
#######################################################################
#
# If this CIF has been generated from an entry in the Cambridge 
# Structural Database, then it will include bibliographic, chemical, 
# crystal, experimental, refinement or atomic coordinate data resulting 
# from the CCDC's data processing and validation procedures.
#
#######################################################################

data_VAWWAU
_chemical_formula_moiety         'C22 H22 Br1 N1 O3'
_chemical_name_systematic        
'tricyclo[3.3.1.1^3,7^]decan-1-yl 7-bromo-2-cyano-1-oxo-1,2,3,4-tetrahydronaphthalene-2-carboxylate'
_symmetry_cell_setting           monoclinic
_symmetry_space_group_name_H-M   'P 21'
_symmetry_Int_Tables_number      4
_space_group_name_Hall           'P 2yb'
loop_
_symmetry_equiv_pos_site_id
_symmetry_equiv_pos_as_xyz
1 x,y,z
2 -x,1/2+y,-z
_cell_length_a                   7.0403(16)
_cell_length_b                   7.0157(15)
_cell_length_c                   19.045(4)
_cell_angle_alpha                90
_cell_angle_beta                 95.770(3)
_cell_angle_gamma                90
_cell_volume                     935.917
_cell_formula_units_Z            2
loop_
_atom_site_label
_atom_site_type_symbol
_atom_site_fract_x
_atom_site_fract_y
_atom_site_fract_z
Br1 Br 0.4603 0.2621(1) 0.6102
O1 O 0.4435(2) 0.2251(3) 0.3247(1)
O2 O 0.5673(2) 0.4910(2) 0.2203(1)
O3 O 0.6471(2) 0.2254(3) 0.1626(1)
N1 N 0.8986(3) -0.0757(3) 0.2827(1)
C1 C 0.5639(3) 0.2603(5) 0.4688(1)
H1 H 0.4350 0.2247 0.4558
C2 C 0.6281(3) 0.2897(4) 0.5391(1)
C3 C 0.8188(4) 0.3380(3) 0.5585(1)
H2 H 0.8632 0.3560 0.6068
C4 C 0.9408(4) 0.3593(3) 0.5077(2)
H3 H 1.0699 0.3933 0.5214
C5 C 0.8809(4) 0.3324(3) 0.4363(1)
C6 C 1.0172(3) 0.3571(4) 0.3809(1)
H4 H 1.0883 0.2367 0.3763
H5 H 1.1109 0.4577 0.3963
C7 C 0.9165(4) 0.4105(3) 0.3096(1)
H6 H 1.0101 0.4122 0.2741
H7 H 0.8625 0.5403 0.3121
C8 C 0.7547(3) 0.2685(5) 0.2860(1)
C9 C 0.6092(3) 0.2567(5) 0.3429(1)
C10 C 0.6890(3) 0.2831(5) 0.4175(1)
C11 C 0.6492(4) 0.3218(4) 0.2144(1)
C12 C 0.4334(4) 0.5706(4) 0.1626(1)
C13 C 0.3617(3) 0.7549(4) 0.1935(1)
H8 H 0.4707 0.8411 0.2068
H9 H 0.2990 0.7260 0.2365
C14 C 0.2194(3) 0.8525(4) 0.1390(1)
H10 H 0.1727 0.9734 0.1591
C15 C 0.0508(3) 0.7174(4) 0.1204(1)
H11 H -0.0131 0.6895 0.1632
H12 H -0.0433 0.7788 0.0853
C16 C 0.1217(4) 0.5328(4) 0.0901(2)
H13 H 0.0109 0.4457 0.0776
C17 C 0.2661(3) 0.4344(3) 0.1440(1)
H14 H 0.2047 0.4019 0.1870
H15 H 0.3124 0.3151 0.1238
C18 C 0.5340(3) 0.6165(4) 0.0978(1)
H16 H 0.5847 0.4982 0.0783
H17 H 0.6422 0.7042 0.1106
C19 C 0.3880(3) 0.7111(3) 0.0423(1)
H18 H 0.4512 0.7401 -0.0012
C20 C 0.2206(4) 0.5754(3) 0.0238(1)
H19 H 0.2675 0.4553 0.0044
H20 H 0.1284 0.6341 -0.0126
C21 C 0.3165(3) 0.8967(3) 0.0730(1)
H21 H 0.4253 0.9842 0.0849
H22 H 0.2250 0.9601 0.0376
C22 C 0.8360(4) 0.0724(4) 0.2819(1)
loop_
_geom_bond_atom_site_label_1
_geom_bond_atom_site_label_2
_geom_bond_site_symmetry_1
_geom_bond_site_symmetry_2
Br1 C2 1_555 1_555
O1 C9 1_555 1_555
O2 C11 1_555 1_555
O3 C11 1_555 1_555
N1 C22 1_555 1_555
C1 H1 1_555 1_555
C2 C1 1_555 1_555
C3 C2 1_555 1_555
H2 C3 1_555 1_555
C4 C3 1_555 1_555
H3 C4 1_555 1_555
C5 C4 1_555 1_555
C6 C5 1_555 1_555
H4 C6 1_555 1_555
H5 C6 1_555 1_555
C7 C6 1_555 1_555
H6 C7 1_555 1_555
H7 C7 1_555 1_555
C8 C7 1_555 1_555
C9 C8 1_555 1_555
C10 C1 1_555 1_555
C11 C8 1_555 1_555
C12 O2 1_555 1_555
C13 C12 1_555 1_555
H8 C13 1_555 1_555
H9 C13 1_555 1_555
C14 C13 1_555 1_555
H10 C14 1_555 1_555
C15 C14 1_555 1_555
H11 C15 1_555 1_555
H12 C15 1_555 1_555
C16 C15 1_555 1_555
H13 C16 1_555 1_555
C17 C12 1_555 1_555
H14 C17 1_555 1_555
H15 C17 1_555 1_555
C18 C12 1_555 1_555
H16 C18 1_555 1_555
H17 C18 1_555 1_555
C19 C18 1_555 1_555
H18 C19 1_555 1_555
C20 C16 1_555 1_555
H19 C20 1_555 1_555
H20 C20 1_555 1_555
C21 C14 1_555 1_555
H21 C21 1_555 1_555
H22 C21 1_555 1_555
C22 C8 1_555 1_555
C5 C10 1_555 1_555
C9 C10 1_555 1_555
C16 C17 1_555 1_555
C19 C20 1_555 1_555
C19 C21 1_555 1_555

#END
