
#######################################################################
#
#                 Cambridge Crystallographic Data Centre
#                                CCDC 
#
#######################################################################
#
# If this CIF has been generated from an entry in the Cambridge 
# Structural Database, then it will include bibliographic, chemical, 
# crystal, experimental, refinement or atomic coordinate data resulting 
# from the CCDC's data processing and validation procedures.
#
#######################################################################

data_VAWWEV03
_chemical_name_common            Nimodipine
_chemical_formula_moiety         'C21 H26 N2 O7'
_chemical_name_systematic        
'isopropyl 2-methoxyethyl 2,6-dimethyl-4-(3-nitrophenyl)-1,4-dihydropyridine-3,5-dicarboxylate'
_symmetry_cell_setting           orthorhombic
_symmetry_space_group_name_H-M   'P 21 21 21'
_symmetry_Int_Tables_number      19
_space_group_name_Hall           'P 2ac 2ab'
loop_
_symmetry_equiv_pos_site_id
_symmetry_equiv_pos_as_xyz
1 x,y,z
2 1/2-x,-y,1/2+z
3 -x,1/2+y,1/2-z
4 1/2+x,1/2-y,-z
_cell_length_a                   11.41850(10)
_cell_length_b                   12.48660(10)
_cell_length_c                   14.47210(10)
_cell_angle_alpha                90
_cell_angle_beta                 90
_cell_angle_gamma                90
_cell_volume                     2063.41
_exptl_crystal_colour            yellow
_exptl_crystal_description       block
_chemical_melting_point          '397-401.5 K'
_cell_formula_units_Z            4
loop_
_atom_site_label
_atom_site_type_symbol
_atom_site_fract_x
_atom_site_fract_y
_atom_site_fract_z
O1 O 0.15850(10) 0.67184(9) 1.10465(7)
O2 O 0.16891(11) 0.68246(9) 0.66794(8)
O3 O 0.09306(10) 0.58804(9) 0.78569(8)
O4 O 0.31529(13) 0.21814(9) 0.97338(9)
O5 O 0.14654(12) 0.29442(10) 0.98836(9)
O6 O 0.02416(10) 0.49091(9) 1.17094(9)
N1 N 0.25259(13) 0.29779(11) 0.97671(10)
O7 O 0.20681(11) 0.83947(9) 1.14679(8)
N2 N 0.33528(12) 0.87503(11) 0.87222(9)
C1 C 0.47845(15) 0.51161(13) 0.95417(11)
H1 H 0.5595 0.5193 0.9548
C2 C 0.30485(15) 0.86453(12) 0.70814(11)
H2 H 0.3680 0.8269 0.6787
H3 H 0.3252 0.9388 0.7144
H4 H 0.2353 0.8581 0.6712
C3 C 0.28606(14) 0.59275(12) 0.94013(10)
C4 C 0.15942(13) 0.66833(12) 0.75023(11)
C5 C 0.40732(14) 0.60140(12) 0.94181(10)
H5 H 0.4418 0.6684 0.9346
C6 C 0.30832(15) 0.40409(12) 0.96478(11)
C7 C 0.28305(13) 0.81737(12) 0.80204(11)
C8 C 0.20802(14) 0.69094(12) 0.92399(10)
H6 H 0.1267 0.6696 0.9353
C9 C 0.30709(13) 0.86411(12) 0.96417(11)
C10 C 0.42873(15) 0.41053(13) 0.96560(12)
H7 H 0.4750 0.3499 0.9735
C11 C 0.00996(17) 0.37829(13) 1.18322(13)
H8 H 0.0730 0.3412 1.1531
H9 H -0.0633 0.3561 1.1568
H10 H 0.0106 0.3617 1.2480
C12 C 0.20179(14) 0.77156(12) 1.08741(11)
C13 C 0.23793(13) 0.78114(12) 0.99077(11)
C14 C 0.23553(14) 0.49204(12) 0.95325(10)
H11 H 0.1546 0.4841 0.9542
C15 C 0.35878(15) 0.95000(13) 1.02408(12)
H12 H 0.3035 1.0074 1.0308
H13 H 0.4291 0.9768 0.9960
H14 H 0.3769 0.9208 1.0838
C16 C 0.13547(15) 0.64899(13) 1.20053(11)
H15 H 0.0620 0.6814 1.2193
H16 H 0.1976 0.6778 1.2389
C17 C 0.21720(14) 0.72979(12) 0.82367(11)
C18 C 0.12921(14) 0.52919(13) 1.21096(12)
H17 H 0.1959 0.4963 1.1807
H18 H 0.1316 0.5103 1.2759
C19 C 0.03570(15) 0.51719(13) 0.71816(12)
H19 H 0.0863 0.5093 0.6639
C20 C 0.02389(17) 0.40980(14) 0.76615(13)
H20 H 0.0997 0.3856 0.7857
H21 H -0.0093 0.3587 0.7241
H22 H -0.0262 0.4172 0.8190
C21 C -0.07968(16) 0.56603(16) 0.68896(13)
H23 H -0.1276 0.5780 0.7425
H24 H -0.1192 0.5181 0.6475
H25 H -0.0655 0.6330 0.6583
H26 H 0.3838(19) 0.9211(17) 0.8579(14)
loop_
_geom_bond_atom_site_label_1
_geom_bond_atom_site_label_2
_geom_bond_site_symmetry_1
_geom_bond_site_symmetry_2
O1 C12 1_555 1_555
O2 C4 1_555 1_555
O3 C4 1_555 1_555
O4 N1 1_555 1_555
O5 N1 1_555 1_555
O6 C11 1_555 1_555
N1 C6 1_555 1_555
O7 C12 1_555 1_555
N2 C7 1_555 1_555
C1 H1 1_555 1_555
C2 H2 1_555 1_555
H3 C2 1_555 1_555
H4 C2 1_555 1_555
C3 C5 1_555 1_555
C4 C17 1_555 1_555
C5 C1 1_555 1_555
H5 C5 1_555 1_555
C6 C10 1_555 1_555
C7 C2 1_555 1_555
C8 C3 1_555 1_555
H6 C8 1_555 1_555
C9 N2 1_555 1_555
C10 C1 1_555 1_555
H7 C10 1_555 1_555
C11 H8 1_555 1_555
H9 C11 1_555 1_555
H10 C11 1_555 1_555
C12 C13 1_555 1_555
C13 C8 1_555 1_555
C14 C3 1_555 1_555
H11 C14 1_555 1_555
C15 C9 1_555 1_555
H12 C15 1_555 1_555
H13 C15 1_555 1_555
H14 C15 1_555 1_555
C16 O1 1_555 1_555
H15 C16 1_555 1_555
H16 C16 1_555 1_555
C17 C7 1_555 1_555
C18 O6 1_555 1_555
H17 C18 1_555 1_555
H18 C18 1_555 1_555
C19 O3 1_555 1_555
H19 C19 1_555 1_555
C20 C19 1_555 1_555
H20 C20 1_555 1_555
H21 C20 1_555 1_555
H22 C20 1_555 1_555
C21 C19 1_555 1_555
H23 C21 1_555 1_555
H24 C21 1_555 1_555
H25 C21 1_555 1_555
H26 N2 1_555 1_555
C6 C14 1_555 1_555
C8 C17 1_555 1_555
C9 C13 1_555 1_555
C16 C18 1_555 1_555

#END
