
#######################################################################
#
#                 Cambridge Crystallographic Data Centre
#                                CCDC 
#
#######################################################################
#
# If this CIF has been generated from an entry in the Cambridge 
# Structural Database, then it will include bibliographic, chemical, 
# crystal, experimental, refinement or atomic coordinate data resulting 
# from the CCDC's data processing and validation procedures.
#
#######################################################################

data_VAWYEA
_chemical_name_common            
'N-benzyl-N,N-dimethylphenylmethanaminium  octabutyl zorb[4]arene hexafluorophosphate'
_chemical_formula_moiety         'C80 H104 O12,C16 H20 N1 1+,F6 P1 1-'
_chemical_name_systematic        
'N-benzyl-N,N-dimethylphenylmethanaminium 45,46,47,48,49,50,51,52-octabutoxy-3,14,25,36-tetraoxanonacyclo[36.6.2.2^5,12^.2^16,23^.2^27,34^.0^6,11^.0^17,22^.0^28,33^.0^39,44^]dopentaconta-1(45),5(52),6(11),7,9,12(51),16(50),17(22),18,20,23(49),27(48),28(33),29,31,34(47),38(46),39(44),40,42-icosaene hexafluorophosphate'
_symmetry_cell_setting           orthorhombic
_symmetry_space_group_name_H-M   'P b c n'
_symmetry_Int_Tables_number      60
_space_group_name_Hall           '-P 2n 2ab'
loop_
_symmetry_equiv_pos_site_id
_symmetry_equiv_pos_as_xyz
1 x,y,z
2 1/2-x,1/2-y,1/2+z
3 -x,y,1/2-z
4 1/2+x,1/2-y,-z
5 -x,-y,-z
6 1/2+x,1/2+y,1/2-z
7 x,-y,1/2+z
8 1/2-x,1/2+y,z
_cell_length_a                   13.4092(2)
_cell_length_b                   21.9603(4)
_cell_length_c                   31.2865(7)
_cell_angle_alpha                90
_cell_angle_beta                 90
_cell_angle_gamma                90
_cell_volume                     9212.94
_exptl_crystal_colour            colorless
_exptl_crystal_description       block
_cell_formula_units_Z            4
loop_
_atom_site_label
_atom_site_type_symbol
_atom_site_fract_x
_atom_site_fract_y
_atom_site_fract_z
O1 O 0.5000 0.30624(16) 0.7500
O2 O 0.6122(2) 0.29697(13) 0.64463(10)
O3 O 0.7365(2) 0.38847(13) 0.61850(9)
O4 O 0.8123(2) 0.50906(11) 0.68946(10)
O5 O 0.7373(2) 0.62874(13) 0.61939(9)
O6 O 0.6120(2) 0.72058(13) 0.64449(9)
O7 O 0.5000 0.71234(16) 0.7500
C1 C 0.5780(3) 0.26984(16) 0.73210(14)
H1 H 0.5531 0.2462 0.7082
H2 H 0.6045 0.2421 0.7534
C2 C 0.6574(3) 0.31356(16) 0.71748(14)
C3 C 0.6680(3) 0.32679(16) 0.67493(13)
C4 C 0.7367(3) 0.37223(17) 0.66068(13)
C5 C 0.7958(3) 0.40317(16) 0.68951(14)
C6 C 0.7878(3) 0.38939(17) 0.73386(14)
C7 C 0.7181(3) 0.34449(17) 0.74801(13)
C8 C 0.7086(3) 0.3339(2) 0.79250(15)
H3 H 0.6629 0.3053 0.8022
C9 C 0.7654(3) 0.3651(2) 0.82135(15)
H4 H 0.7582 0.3573 0.8504
C10 C 0.8350(3) 0.4090(2) 0.80727(17)
H5 H 0.8734 0.4302 0.8270
C11 C 0.8456(3) 0.4201(2) 0.76500(15)
H6 H 0.8922 0.4488 0.7561
C12 C 0.5233(4) 0.3299(3) 0.63235(18)
H7 H 0.5405 0.3708 0.6233
H8 H 0.4777 0.3327 0.6563
C13 C 0.7987(5) 0.3525(3) 0.59113(17)
H9 H 0.7767 0.3104 0.5913
H10 H 0.8672 0.3538 0.6011
C14 C 0.7918(5) 0.3782(3) 0.5468(2)
H11 H 0.8420 0.3594 0.5288
H12 H 0.8046 0.4216 0.5476
C15 C 0.6890(7) 0.3666(5) 0.5280(3)
H13 H 0.6799 0.3231 0.5247
H14 H 0.6392 0.3809 0.5481
C16 C 0.6716(9) 0.3961(5) 0.4866(3)
H15 H 0.6981 0.3711 0.4641
H16 H 0.7040 0.4351 0.4861
H17 H 0.6012 0.4015 0.4823
C17 C 0.8594(3) 0.45494(18) 0.67448(15)
H18 H 0.9263 0.4516 0.6861
H19 H 0.8637 0.4551 0.6435
C18 C 0.8605(3) 0.56361(17) 0.67553(15)
H20 H 0.8667 0.5641 0.6446
H21 H 0.9265 0.5668 0.6880
C19 C 0.7955(3) 0.61487(17) 0.69040(14)
C20 C 0.7367(3) 0.64554(17) 0.66132(13)
C21 C 0.6679(3) 0.69094(17) 0.67502(13)
C22 C 0.6568(3) 0.70503(16) 0.71743(13)
C23 C 0.7171(3) 0.67384(17) 0.74837(13)
C24 C 0.7869(3) 0.62899(17) 0.73468(13)
C25 C 0.8443(3) 0.5987(2) 0.76605(15)
H22 H 0.8902 0.5693 0.7576
C26 C 0.8338(3) 0.6115(2) 0.80837(16)
H23 H 0.8725 0.5911 0.8284
C27 C 0.7652(3) 0.6553(2) 0.82182(15)
H24 H 0.7583 0.6637 0.8508
C28 C 0.7080(3) 0.68591(19) 0.79254(14)
H25 H 0.6626 0.7150 0.8019
C29 C 0.5777(3) 0.74856(17) 0.73190(14)
H26 H 0.6043 0.7765 0.7530
H27 H 0.5527 0.7720 0.7079
C30 C 0.7896(5) 0.6678(3) 0.59076(17)
H28 H 0.8543 0.6781 0.6026
H29 H 0.7523 0.7052 0.5866
C31 C 0.6949(17) 0.5977(11) 0.4889(6)
H30 H 0.6310 0.5947 0.4752
H31 H 0.7413 0.6173 0.4699
H32 H 0.7187 0.5577 0.4957
C32 C 0.5254(4) 0.6870(2) 0.63064(17)
H33 H 0.5449 0.6467 0.6212
H34 H 0.4788 0.6826 0.6541
C33 C 0.4760(10) 0.2958(6) 0.5965(4)
H35 H 0.4222 0.3202 0.5848
H36 H 0.5250 0.2901 0.5740
C34 C 0.4358(9) 0.2357(5) 0.6090(4)
H37 H 0.3871 0.2410 0.6316
H38 H 0.4895 0.2106 0.6201
C35 C 0.3861(14) 0.2028(8) 0.5706(5)
H39 H 0.3413 0.2303 0.5564
H40 H 0.3497 0.1680 0.5806
H41 H 0.4367 0.1898 0.5508
C36 C 0.8022(10) 0.6357(6) 0.5493(3)
H42 H 0.8275 0.5948 0.5535
H43 H 0.8472 0.6578 0.5306
C37 C 0.6852(11) 0.6344(7) 0.5289(4)
H44 H 0.6392 0.6152 0.5487
H45 H 0.6619 0.6752 0.5227
C38 C 0.480(3) 0.7195(10) 0.5964(7)
H46 H 0.4311 0.6927 0.5832
H47 H 0.5308 0.7274 0.5751
C39 C 0.4283(10) 0.7791(9) 0.6060(4)
H48 H 0.3723 0.7704 0.6247
H49 H 0.4745 0.8041 0.6221
C40 C 0.3902(18) 0.8165(9) 0.5698(7)
H50 H 0.3492 0.8488 0.5807
H51 H 0.3516 0.7913 0.5510
H52 H 0.4455 0.8335 0.5544
O2B O 0.3878(2) 0.29697(13) 0.85537(10)
O3B O 0.2635(2) 0.38847(13) 0.88150(9)
O4B O 0.1877(2) 0.50906(11) 0.81054(10)
O5B O 0.2627(2) 0.62874(13) 0.88061(9)
O6B O 0.3880(2) 0.72058(13) 0.85551(9)
C1B C 0.4220(3) 0.26984(16) 0.76790(14)
H1B H 0.4469 0.2462 0.7918
H2B H 0.3955 0.2421 0.7466
C2B C 0.3426(3) 0.31356(16) 0.78252(14)
C3B C 0.3320(3) 0.32679(16) 0.82507(13)
C4B C 0.2633(3) 0.37223(17) 0.83932(13)
C5B C 0.2042(3) 0.40317(16) 0.81049(14)
C6B C 0.2122(3) 0.38939(17) 0.76614(14)
C7B C 0.2819(3) 0.34449(17) 0.75199(13)
C8B C 0.2914(3) 0.3339(2) 0.70750(15)
H3B H 0.3371 0.3053 0.6978
C9B C 0.2346(3) 0.3651(2) 0.67865(15)
H4B H 0.2418 0.3573 0.6496
C10B C 0.1650(3) 0.4090(2) 0.69273(17)
H5B H 0.1266 0.4302 0.6730
C11B C 0.1544(3) 0.4201(2) 0.73500(15)
H6B H 0.1078 0.4488 0.7439
C12B C 0.4767(4) 0.3299(3) 0.86765(18)
H7B H 0.4595 0.3708 0.8767
H8B H 0.5223 0.3327 0.8437
C13B C 0.2013(5) 0.3525(3) 0.90887(17)
H9B H 0.2233 0.3104 0.9087
H10B H 0.1328 0.3538 0.8989
C14B C 0.2082(5) 0.3782(3) 0.9532(2)
H11B H 0.1580 0.3594 0.9712
H12B H 0.1954 0.4216 0.9524
C15B C 0.3110(7) 0.3666(5) 0.9720(3)
H13B H 0.3201 0.3231 0.9753
H14B H 0.3608 0.3809 0.9519
C16B C 0.3284(9) 0.3961(5) 1.0134(3)
H15B H 0.3019 0.3711 1.0359
H16B H 0.2960 0.4351 1.0139
H17B H 0.3988 0.4015 1.0177
C17B C 0.1406(3) 0.45494(18) 0.82552(15)
H18B H 0.0737 0.4516 0.8139
H19B H 0.1363 0.4551 0.8565
C18B C 0.1395(3) 0.56361(17) 0.82447(15)
H20B H 0.1333 0.5641 0.8554
H21B H 0.0735 0.5668 0.8120
C19B C 0.2045(3) 0.61487(17) 0.80960(14)
C20B C 0.2633(3) 0.64554(17) 0.83868(13)
C21B C 0.3321(3) 0.69094(17) 0.82498(13)
C22B C 0.3432(3) 0.70503(16) 0.78257(13)
C23B C 0.2829(3) 0.67384(17) 0.75163(13)
C24B C 0.2131(3) 0.62899(17) 0.76532(13)
C25B C 0.1557(3) 0.5987(2) 0.73395(15)
H22B H 0.1098 0.5693 0.7424
C26B C 0.1662(3) 0.6115(2) 0.69163(16)
H23B H 0.1275 0.5911 0.6716
C27B C 0.2348(3) 0.6553(2) 0.67818(15)
H24B H 0.2417 0.6637 0.6492
C28B C 0.2920(3) 0.68591(19) 0.70746(14)
H25B H 0.3374 0.7150 0.6981
C29B C 0.4223(3) 0.74856(17) 0.76810(14)
H26B H 0.3957 0.7765 0.7470
H27B H 0.4473 0.7720 0.7921
C30B C 0.2104(5) 0.6678(3) 0.90924(17)
H28B H 0.1457 0.6781 0.8974
H29B H 0.2477 0.7052 0.9134
C31B C 0.3051(17) 0.5977(11) 1.0111(6)
H30B H 0.3690 0.5947 1.0248
H31B H 0.2587 0.6173 1.0301
H32B H 0.2813 0.5577 1.0043
C32B C 0.4746(4) 0.6870(2) 0.86936(17)
H33B H 0.4551 0.6467 0.8788
H34B H 0.5212 0.6826 0.8459
C33B C 0.5240(10) 0.2958(6) 0.9035(4)
H35B H 0.5778 0.3202 0.9152
H36B H 0.4750 0.2901 0.9260
C34B C 0.5642(9) 0.2357(5) 0.8910(4)
H37B H 0.6129 0.2410 0.8684
H38B H 0.5105 0.2106 0.8799
C35B C 0.6139(14) 0.2028(8) 0.9294(5)
H39B H 0.6587 0.2303 0.9436
H40B H 0.6503 0.1680 0.9194
H41B H 0.5633 0.1898 0.9492
C36B C 0.1978(10) 0.6357(6) 0.9507(3)
H42B H 0.1725 0.5948 0.9465
H43B H 0.1528 0.6578 0.9694
C37B C 0.3148(11) 0.6344(7) 0.9711(4)
H44B H 0.3608 0.6152 0.9513
H45B H 0.3381 0.6752 0.9773
C38B C 0.520(3) 0.7195(10) 0.9036(7)
H46B H 0.5689 0.6927 0.9168
H47B H 0.4692 0.7274 0.9249
C39B C 0.5717(10) 0.7791(9) 0.8940(4)
H48B H 0.6277 0.7704 0.8753
H49B H 0.5255 0.8041 0.8779
C40B C 0.6098(18) 0.8165(9) 0.9302(7)
H50B H 0.6508 0.8488 0.9193
H51B H 0.6484 0.7913 0.9490
H52B H 0.5545 0.8335 0.9456
N1 N 0.5000 0.5141(3) 0.7500
C53 C 0.4921(5) 0.5603(2) 0.7111(2)
H89 H 0.4338 0.5858 0.7153
H90 H 0.5502 0.5866 0.7114
C54 C 0.4848(4) 0.5307(2) 0.66819(14)
C55 C 0.3921(3) 0.5190(3) 0.6501(2)
H91 H 0.3342 0.5266 0.6655
C56 C 0.3859(4) 0.4958(3) 0.6088(2)
H92 H 0.3239 0.4880 0.5967
C57 C 0.4724(6) 0.4844(3) 0.58566(16)
H93 H 0.4683 0.4689 0.5581
C58 C 0.5651(4) 0.4960(3) 0.60379(19)
H94 H 0.6229 0.4884 0.5883
C59 C 0.5713(3) 0.5192(3) 0.64505(19)
H95 H 0.6333 0.5270 0.6572
C60 C 0.4096(4) 0.4794(3) 0.7537(2)
H96 H 0.3545 0.5064 0.7587
H97 H 0.4154 0.4514 0.7771
H98 H 0.3984 0.4571 0.7277
C53B C 0.5079(5) 0.5603(2) 0.7889(2)
H89B H 0.5662 0.5858 0.7847
H90B H 0.4498 0.5866 0.7886
C54B C 0.5152(4) 0.5307(2) 0.83181(14)
C55B C 0.6079(3) 0.5190(3) 0.8499(2)
H91B H 0.6658 0.5266 0.8345
C56B C 0.6141(4) 0.4958(3) 0.8912(2)
H92B H 0.6761 0.4880 0.9033
C57B C 0.5276(6) 0.4844(3) 0.91434(16)
H93B H 0.5317 0.4689 0.9419
C58B C 0.4349(4) 0.4960(3) 0.89621(19)
H94B H 0.3771 0.4884 0.9117
C59B C 0.4287(3) 0.5192(3) 0.85495(19)
H95B H 0.3667 0.5270 0.8428
C60B C 0.5904(4) 0.4794(3) 0.7463(2)
H96B H 0.6455 0.5064 0.7413
H97B H 0.5846 0.4514 0.7229
H98B H 0.6016 0.4571 0.7723
P1 P 1.0690(3) 0.5255(2) 0.57603(10)
F1 F 1.0627(7) 0.5074(3) 0.6196(2)
F2 F 0.9663(8) 0.5046(5) 0.5679(3)
F3 F 1.1642(7) 0.5573(6) 0.5869(4)
F4 F 1.0193(11) 0.5821(6) 0.5925(5)
F5 F 1.0993(9) 0.4708(5) 0.5665(4)
F6 F 1.0598(13) 0.5574(9) 0.5348(4)
H53? H 0.5404 0.3615 0.6120
H54? H 0.4939 0.3490 0.6573
H55? H 0.8596 0.6569 0.5910
H56? H 0.7841 0.7094 0.6010
H57? H 0.4784 0.6814 0.6539
H58? H 0.5438 0.6475 0.6192
H59? H 0.4963 0.6656 0.6547
H60? H 0.5446 0.6571 0.6093
C41? C 0.4454(19) 0.2836(12) 0.6114(7)
H61? H 0.4397 0.2474 0.6289
H62? H 0.3802 0.3026 0.6096
C42? C 0.4796(14) 0.2672(8) 0.5689(6)
H63? H 0.5393 0.2424 0.5707
H64? H 0.4948 0.3035 0.5524
C43? C 0.393(3) 0.2303(13) 0.5470(8)
H65? H 0.3299 0.2493 0.5535
H66? H 0.3924 0.1893 0.5576
H67? H 0.4024 0.2299 0.5166
C44? C 0.7529(15) 0.6652(8) 0.5466(4)
H68? H 0.7908 0.6929 0.5288
H69? H 0.6833 0.6772 0.5456
C45? C 0.7652(14) 0.5966(10) 0.5295(5)
H70? H 0.7615 0.5671 0.5526
H71? H 0.8271 0.5911 0.5139
C46? C 0.477(6) 0.733(2) 0.5915(18)
H72? H 0.5262 0.7419 0.5695
H73? H 0.4186 0.7154 0.5784
C47? C 0.450(2) 0.7909(18) 0.6162(9)
H74? H 0.5087 0.8085 0.6297
H75? H 0.4005 0.7825 0.6379
C48? C 0.406(4) 0.836(2) 0.5793(15)
H76? H 0.3381 0.8251 0.5735
H77? H 0.4450 0.8311 0.5537
H78? H 0.4097 0.8771 0.5889
C49? C 0.4478(19) 0.7319(13) 0.6113(7)
H79? H 0.3826 0.7129 0.6098
H80? H 0.4429 0.7683 0.6288
C50? C 0.4862(15) 0.7479(12) 0.5659(7)
H81? H 0.5513 0.7669 0.5678
H82? H 0.4928 0.7110 0.5491
C51? C 0.414(3) 0.7905(16) 0.5444(10)
H83? H 0.3511 0.7889 0.5588
H84? H 0.4058 0.7786 0.5151
H85? H 0.4400 0.8312 0.5456
C52? C 0.669(2) 0.5927(18) 0.4985(11)
H86? H 0.6097 0.5917 0.5154
H87? H 0.6734 0.5563 0.4815
H88? H 0.6681 0.6276 0.4800
C61? C 0.4933(15) 0.4541(6) 0.7115(6)
H99? H 0.5524 0.4287 0.7128
H100? H 0.4350 0.4288 0.7164
C62? C 0.5677(12) 0.5175(9) 0.6033(5)
H101? H 0.6259 0.5253 0.5881
C63? C 0.4754(16) 0.5254(9) 0.5839(4)
H102? H 0.4717 0.5385 0.5557
C64? C 0.3884(12) 0.5137(10) 0.6067(6)
H103? H 0.3267 0.5190 0.5937
C65? C 0.3938(9) 0.4941(9) 0.6489(6)
H104? H 0.3357 0.4863 0.6641
C66? C 0.4862(11) 0.4863(7) 0.6683(4)
C67? C 0.5731(9) 0.4980(8) 0.6455(5)
H105? H 0.6349 0.4927 0.6585
C68? C 0.4033(12) 0.5347(13) 0.7542(7)
H106? H 0.3917 0.5671 0.7341
H107? H 0.3931 0.5495 0.7827
H108? H 0.3578 0.5019 0.7486
loop_
_geom_bond_atom_site_label_1
_geom_bond_atom_site_label_2
_geom_bond_site_symmetry_1
_geom_bond_site_symmetry_2
O1 C1 1_555 1_555
O2 C3 1_555 1_555
O3 C4 1_555 1_555
O4 C17 1_555 1_555
O5 C20 1_555 1_555
O6 C21 1_555 1_555
O7 C29 1_555 1_555
C1 H1 1_555 1_555
H2 C1 1_555 1_555
C2 C1 1_555 1_555
C3 C2 1_555 1_555
C4 C3 1_555 1_555
C5 C4 1_555 1_555
C6 C5 1_555 1_555
C7 C2 1_555 1_555
C8 C7 1_555 1_555
H3 C8 1_555 1_555
C9 C8 1_555 1_555
H4 C9 1_555 1_555
C10 C9 1_555 1_555
H5 C10 1_555 1_555
C11 C6 1_555 1_555
H6 C11 1_555 1_555
C12 O2 1_555 1_555
H7 C12 1_555 1_555
H8 C12 1_555 1_555
C13 O3 1_555 1_555
H9 C13 1_555 1_555
H10 C13 1_555 1_555
C14 C13 1_555 1_555
H11 C14 1_555 1_555
H12 C14 1_555 1_555
C15 C14 1_555 1_555
H13 C15 1_555 1_555
H14 C15 1_555 1_555
C16 C15 1_555 1_555
H15 C16 1_555 1_555
H16 C16 1_555 1_555
H17 C16 1_555 1_555
C17 C5 1_555 1_555
H18 C17 1_555 1_555
H19 C17 1_555 1_555
C18 O4 1_555 1_555
H20 C18 1_555 1_555
H21 C18 1_555 1_555
C19 C18 1_555 1_555
C20 C19 1_555 1_555
C21 C20 1_555 1_555
C22 C21 1_555 1_555
C23 C22 1_555 1_555
C24 C19 1_555 1_555
C25 C24 1_555 1_555
H22 C25 1_555 1_555
C26 C25 1_555 1_555
H23 C26 1_555 1_555
C27 C26 1_555 1_555
H24 C27 1_555 1_555
C28 C23 1_555 1_555
H25 C28 1_555 1_555
C29 C22 1_555 1_555
H26 C29 1_555 1_555
H27 C29 1_555 1_555
C30 O5 1_555 1_555
H28 C30 1_555 1_555
H29 C30 1_555 1_555
C31 H30 1_555 1_555
H31 C31 1_555 1_555
H32 C31 1_555 1_555
C32 O6 1_555 1_555
H33 C32 1_555 1_555
H34 C32 1_555 1_555
C33 C12 1_555 1_555
H35 C33 1_555 1_555
H36 C33 1_555 1_555
C34 C33 1_555 1_555
H37 C34 1_555 1_555
H38 C34 1_555 1_555
C35 C34 1_555 1_555
H39 C35 1_555 1_555
H40 C35 1_555 1_555
H41 C35 1_555 1_555
C36 C30 1_555 1_555
H42 C36 1_555 1_555
H43 C36 1_555 1_555
C37 C31 1_555 1_555
H44 C37 1_555 1_555
H45 C37 1_555 1_555
C38 C32 1_555 1_555
H46 C38 1_555 1_555
H47 C38 1_555 1_555
C39 C38 1_555 1_555
H48 C39 1_555 1_555
H49 C39 1_555 1_555
C40 C39 1_555 1_555
H50 C40 1_555 1_555
H51 C40 1_555 1_555
H52 C40 1_555 1_555
N1 C53 1_555 1_555
C53 H89 1_555 1_555
H90 C53 1_555 1_555
C54 C53 1_555 1_555
C55 C54 1_555 1_555
H91 C55 1_555 1_555
C56 C55 1_555 1_555
H92 C56 1_555 1_555
C57 C56 1_555 1_555
H93 C57 1_555 1_555
C58 C57 1_555 1_555
H94 C58 1_555 1_555
C59 C54 1_555 1_555
H95 C59 1_555 1_555
C60 N1 1_555 1_555
H96 C60 1_555 1_555
H97 C60 1_555 1_555
H98 C60 1_555 1_555
P1 F1 1_555 1_555
F2 P1 1_555 1_555
F3 P1 1_555 1_555
F4 P1 1_555 1_555
F5 P1 1_555 1_555
F6 P1 1_555 1_555
O2B C3B 1_555 1_555
O3B C4B 1_555 1_555
O4B C17B 1_555 1_555
O5B C20B 1_555 1_555
O6B C21B 1_555 1_555
C1B O1 1_555 1_555
H1B C1B 1_555 1_555
H2B C1B 1_555 1_555
C2B C1B 1_555 1_555
C3B C2B 1_555 1_555
C4B C3B 1_555 1_555
C5B C4B 1_555 1_555
C6B C5B 1_555 1_555
C7B C2B 1_555 1_555
C8B C7B 1_555 1_555
H3B C8B 1_555 1_555
C9B C8B 1_555 1_555
H4B C9B 1_555 1_555
C10B C9B 1_555 1_555
H5B C10B 1_555 1_555
C11B C6B 1_555 1_555
H6B C11B 1_555 1_555
C12B O2B 1_555 1_555
H7B C12B 1_555 1_555
H8B C12B 1_555 1_555
C13B O3B 1_555 1_555
H9B C13B 1_555 1_555
H10B C13B 1_555 1_555
C14B C13B 1_555 1_555
H11B C14B 1_555 1_555
H12B C14B 1_555 1_555
C15B C14B 1_555 1_555
H13B C15B 1_555 1_555
H14B C15B 1_555 1_555
C16B C15B 1_555 1_555
H15B C16B 1_555 1_555
H16B C16B 1_555 1_555
H17B C16B 1_555 1_555
C17B C5B 1_555 1_555
H18B C17B 1_555 1_555
H19B C17B 1_555 1_555
C18B O4B 1_555 1_555
H20B C18B 1_555 1_555
H21B C18B 1_555 1_555
C19B C18B 1_555 1_555
C20B C19B 1_555 1_555
C21B C20B 1_555 1_555
C22B C21B 1_555 1_555
C23B C22B 1_555 1_555
C24B C19B 1_555 1_555
C25B C24B 1_555 1_555
H22B C25B 1_555 1_555
C26B C25B 1_555 1_555
H23B C26B 1_555 1_555
C27B C26B 1_555 1_555
H24B C27B 1_555 1_555
C28B C23B 1_555 1_555
H25B C28B 1_555 1_555
C29B O7 1_555 1_555
H26B C29B 1_555 1_555
H27B C29B 1_555 1_555
C30B O5B 1_555 1_555
H28B C30B 1_555 1_555
H29B C30B 1_555 1_555
C31B H30B 1_555 1_555
H31B C31B 1_555 1_555
H32B C31B 1_555 1_555
C32B O6B 1_555 1_555
H33B C32B 1_555 1_555
H34B C32B 1_555 1_555
C33B C12B 1_555 1_555
H35B C33B 1_555 1_555
H36B C33B 1_555 1_555
C34B C33B 1_555 1_555
H37B C34B 1_555 1_555
H38B C34B 1_555 1_555
C35B C34B 1_555 1_555
H39B C35B 1_555 1_555
H40B C35B 1_555 1_555
H41B C35B 1_555 1_555
C36B C30B 1_555 1_555
H42B C36B 1_555 1_555
H43B C36B 1_555 1_555
C37B C31B 1_555 1_555
H44B C37B 1_555 1_555
H45B C37B 1_555 1_555
C38B C32B 1_555 1_555
H46B C38B 1_555 1_555
H47B C38B 1_555 1_555
C39B C38B 1_555 1_555
H48B C39B 1_555 1_555
H49B C39B 1_555 1_555
C40B C39B 1_555 1_555
H50B C40B 1_555 1_555
H51B C40B 1_555 1_555
H52B C40B 1_555 1_555
C53B N1 1_555 1_555
H89B C53B 1_555 1_555
H90B C53B 1_555 1_555
C54B C53B 1_555 1_555
C55B C54B 1_555 1_555
H91B C55B 1_555 1_555
C56B C55B 1_555 1_555
H92B C56B 1_555 1_555
C57B C56B 1_555 1_555
H93B C57B 1_555 1_555
C58B C57B 1_555 1_555
H94B C58B 1_555 1_555
C59B C54B 1_555 1_555
H95B C59B 1_555 1_555
C60B N1 1_555 1_555
H96B C60B 1_555 1_555
H97B C60B 1_555 1_555
H98B C60B 1_555 1_555
C6 C7 1_555 1_555
C10 C11 1_555 1_555
C23 C24 1_555 1_555
C27 C28 1_555 1_555
C36 C37 1_555 1_555
C58 C59 1_555 1_555
C6B C7B 1_555 1_555
C10B C11B 1_555 1_555
C22B C29B 1_555 1_555
C23B C24B 1_555 1_555
C27B C28B 1_555 1_555
C36B C37B 1_555 1_555
C58B C59B 1_555 1_555

#END
