
#######################################################################
#
#                 Cambridge Crystallographic Data Centre
#                                CCDC 
#
#######################################################################
#
# If this CIF has been generated from an entry in the Cambridge 
# Structural Database, then it will include bibliographic, chemical, 
# crystal, experimental, refinement or atomic coordinate data resulting 
# from the CCDC's data processing and validation procedures.
#
#######################################################################

data_VAWYIE
_chemical_name_common            
'tetraethylammonium octabutyl zorb[4]arene hexafluorophosphate'
_chemical_formula_moiety         'C80 H104 O12,C8 H20 N1 1+,F6 P1 1-'
_chemical_name_systematic        
'tetraethylammonium 45,46,47,48,49,50,51,52-octabutoxy-3,14,25,36-tetraoxanonacyclo[36.6.2.2^5,12^.2^16,23^.2^27,34^.0^6,11^.0^17,22^.0^28,33^.0^39,44^]dopentaconta-1(45),5(52),6(11),7,9,12(51),16(50),17(22),18,20,23(49),27(48),28(33),29,31,34(47),38(46),39(44),40,42-icosaene hexafluorophosphate'
_symmetry_cell_setting           monoclinic
_symmetry_space_group_name_H-M   'I 2/c'
_symmetry_Int_Tables_number      15
_space_group_name_Hall           '-I 2yc'
loop_
_symmetry_equiv_pos_site_id
_symmetry_equiv_pos_as_xyz
1 x,y,z
2 -x,y,1/2-z
3 1/2+x,1/2+y,1/2+z
4 1/2-x,1/2+y,-z
5 -x,-y,-z
6 x,-y,1/2+z
7 1/2-x,1/2-y,1/2-z
8 1/2+x,1/2-y,z
_cell_length_a                   25.866(2)
_cell_length_b                   27.0528(14)
_cell_length_c                   26.846(3)
_cell_angle_alpha                90
_cell_angle_beta                 118.334(14)
_cell_angle_gamma                90
_cell_volume                     16534.9
_exptl_crystal_colour            colorless
_exptl_crystal_description       block
_cell_formula_units_Z            8
loop_
_atom_site_label
_atom_site_type_symbol
_atom_site_fract_x
_atom_site_fract_y
_atom_site_fract_z
C1 C 0.06692(16) 0.66184(15) 0.32005(16)
C2 C 0.08153(16) 0.63598(15) 0.28497(15)
C3 C 0.09397(15) 0.58367(15) 0.29316(16)
C4 C 0.08932(16) 0.55855(15) 0.33457(16)
C5 C 0.07204(16) 0.58475(15) 0.37086(16)
C6 C 0.06009(15) 0.63657(16) 0.36288(15)
C7 C 0.04281(16) 0.66139(16) 0.39935(16)
H1 H 0.0357 0.6952 0.3952
C8 C 0.03647(18) 0.63677(19) 0.44004(18)
H2 H 0.0239 0.6535 0.4626
C9 C 0.04903(17) 0.58558(18) 0.44830(18)
H3 H 0.0455 0.5689 0.4768
C10 C 0.06605(17) 0.56105(17) 0.41489(17)
H4 H 0.0741 0.5274 0.4209
C11 C 0.10397(17) 0.50429(15) 0.34406(17)
H5 H 0.0715 0.4860 0.3435
H6 H 0.1119 0.4913 0.3147
C12 C 0.17056(17) 0.44987(14) 0.41570(16)
H7 H 0.1784 0.4321 0.3887
H8 H 0.1391 0.4333 0.4189
C13 C 0.22505(16) 0.45241(14) 0.47250(16)
C14 C 0.22307(17) 0.44128(14) 0.52117(17)
C15 C 0.27225(17) 0.45091(14) 0.57587(16)
C16 C 0.32331(17) 0.46998(14) 0.58043(16)
C17 C 0.32702(17) 0.48021(14) 0.53063(16)
C18 C 0.27795(17) 0.47136(14) 0.47595(17)
C19 C 0.28422(18) 0.48223(15) 0.42746(18)
H9 H 0.2524 0.4771 0.3918
C20 C 0.3353(2) 0.49991(16) 0.43152(19)
H10 H 0.3384 0.5062 0.3990
C21 C 0.38357(19) 0.50870(15) 0.48530(19)
H11 H 0.4186 0.5207 0.4882
C22 C 0.37922(18) 0.49973(14) 0.53242(18)
H12 H 0.4113 0.5065 0.5674
C23 C 0.37399(17) 0.48218(14) 0.63741(17)
H13 H 0.3662 0.4706 0.6674
H14 H 0.4097 0.4666 0.6418
C24 C 0.43179(16) 0.55164(14) 0.68873(16)
H15 H 0.4668 0.5385 0.6890
H16 H 0.4312 0.5411 0.7230
C25 C 0.43054(15) 0.60694(14) 0.68463(15)
C26 C 0.46839(16) 0.63184(15) 0.67142(15)
C27 C 0.46169(17) 0.68418(15) 0.65946(16)
C28 C 0.41783(16) 0.71042(15) 0.66193(16)
C29 C 0.37892(16) 0.68585(15) 0.67726(16)
C30 C 0.38502(16) 0.63388(15) 0.68887(15)
C31 C 0.34432(17) 0.61067(17) 0.70311(16)
H17 H 0.3471 0.5768 0.7098
C32 C 0.30151(18) 0.63682(18) 0.70719(17)
H18 H 0.2760 0.6209 0.7173
C33 C 0.29587(19) 0.68749(18) 0.69621(18)
H19 H 0.2666 0.7053 0.6990
C34 C 0.33346(17) 0.71102(16) 0.68131(17)
H20 H 0.3288 0.7447 0.6736
C35 C 0.40944(17) 0.76452(15) 0.64797(16)
H21 H 0.4086 0.7829 0.6786
H22 H 0.4413 0.7771 0.6422
C36 C 0.33719(16) 0.81936(14) 0.58134(16)
H23 H 0.3671 0.8372 0.5766
H24 H 0.3306 0.8360 0.6099
C37 C 0.28086(17) 0.81644(14) 0.52590(16)
C38 C 0.22851(18) 0.82769(14) 0.52392(16)
C39 C 0.17429(17) 0.81756(14) 0.47366(16)
C40 C 0.17348(17) 0.79798(14) 0.42649(16)
C41 C 0.22818(18) 0.78701(14) 0.42759(16)
C42 C 0.28202(17) 0.79673(14) 0.47774(16)
C43 C 0.33480(19) 0.78558(15) 0.47670(19)
H25 H 0.3703 0.7919 0.5088
C44 C 0.3357(2) 0.76610(16) 0.4307(2)
H26 H 0.3714 0.7595 0.4316
C45 C 0.2828(2) 0.75579(16) 0.3818(2)
H27 H 0.2832 0.7421 0.3502
C46 C 0.23082(19) 0.76609(16) 0.38109(18)
H28 H 0.1959 0.7590 0.3486
C47 C 0.11692(18) 0.78652(15) 0.37472(18)
H29 H 0.0840 0.7990 0.3788
H30 H 0.1162 0.8018 0.3417
C48 C 0.06373(17) 0.71720(15) 0.31750(16)
H31 H 0.0356 0.7366 0.2889
C49 C 0.14141(18) 0.67010(17) 0.24739(19)
H32 H 0.1649 0.6402 0.2566
H33 H 0.1612 0.6937 0.2779
C50 C 0.1337(2) 0.69136(17) 0.1929(2)
H34 H 0.1134 0.6673 0.1631
H35 H 0.1722 0.6967 0.1960
C51 C 0.0994(2) 0.74028(17) 0.17553(18)
H36 H 0.0900 0.7477 0.1368
H37 H 0.0627 0.7360 0.1765
C52 C 0.1319(2) 0.78431(18) 0.2127(2)
H38 H 0.1407 0.7778 0.2510
H39 H 0.1077 0.8133 0.1992
H40 H 0.1678 0.7896 0.2111
C53 C 0.07134(17) 0.54750(16) 0.20455(16)
H41 H 0.0481 0.5762 0.1851
H42 H 0.0454 0.5226 0.2065
C54 C 0.10183(18) 0.52766(15) 0.17346(17)
H43 H 0.1285 0.5527 0.1732
H44 H 0.0728 0.5215 0.1345
C55 C 0.1363(2) 0.48039(16) 0.19820(19)
H45 H 0.1661 0.4866 0.2369
H46 H 0.1099 0.4554 0.1992
C56 C 0.1656(2) 0.46072(19) 0.1650(2)
H47 H 0.1820 0.4287 0.1791
H48 H 0.1963 0.4829 0.1690
H49 H 0.1371 0.4581 0.1257
C57 C 0.13654(17) 0.44938(16) 0.53107(19)
H50 H 0.1190 0.4750 0.5026
H51 H 0.1589 0.4651 0.5677
C58 C 0.08946(18) 0.41659(18) 0.53138(19)
H52 H 0.0652 0.4363 0.5423
H53 H 0.1082 0.3913 0.5600
C59 C 0.04992(19) 0.39149(17) 0.47526(19)
H54 H 0.0744 0.3744 0.4624
H55 H 0.0263 0.3668 0.4814
C60 C 0.0095(2) 0.42615(18) 0.4293(2)
H56 H -0.0125 0.4454 0.4428
H57 H -0.0170 0.4074 0.3968
H58 H 0.0324 0.4478 0.4190
C61 C 0.27167(18) 0.39314(15) 0.64191(17)
H59 H 0.3113 0.3817 0.6533
H60 H 0.2444 0.3721 0.6115
C62 C 0.25934(18) 0.39085(16) 0.69117(17)
H61 H 0.2598 0.3565 0.7018
H62 H 0.2201 0.4036 0.6792
C63 C 0.3023(2) 0.41942(18) 0.74253(18)
H63 H 0.3012 0.4540 0.7325
H64 H 0.3416 0.4072 0.7545
C64 C 0.2885(2) 0.4151(2) 0.79128(19)
H65 H 0.3168 0.4336 0.8230
H66 H 0.2901 0.3810 0.8018
H67 H 0.2498 0.4278 0.7799
C65 C 0.51019(18) 0.59587(16) 0.61791(17)
H68 H 0.5012 0.6253 0.5947
H69 H 0.4790 0.5719 0.5986
C66 C 0.56883(19) 0.57447(17) 0.6285(2)
H70 H 0.5671 0.5681 0.5921
H71 H 0.5989 0.5993 0.6476
C67 C 0.58774(19) 0.52733(17) 0.6630(2)
H72 H 0.6287 0.5211 0.6739
H73 H 0.5849 0.5322 0.6974
C68 C 0.5522(2) 0.48246(18) 0.6328(2)
H74 H 0.5675 0.4540 0.6567
H75 H 0.5545 0.4774 0.5985
H76 H 0.5120 0.4874 0.6238
C69 C 0.55515(16) 0.71887(16) 0.68384(17)
H77 H 0.5754 0.6898 0.7054
H78 H 0.5525 0.7428 0.7095
C70 C 0.58808(17) 0.74066(17) 0.65552(18)
H79 H 0.5874 0.7171 0.6280
H80 H 0.6288 0.7452 0.6838
C71 C 0.56429(19) 0.78952(17) 0.6260(2)
H81 H 0.5643 0.8132 0.6532
H82 H 0.5240 0.7850 0.5968
C72 C 0.6000(2) 0.8102(2) 0.5995(2)
H83 H 0.6397 0.8157 0.6284
H84 H 0.5831 0.8408 0.5809
H85 H 0.5999 0.7870 0.5724
C73 C 0.2126(2) 0.81920(17) 0.60389(18)
H86 H 0.2431 0.7946 0.6225
H87 H 0.1757 0.8023 0.5811
C74 C 0.2079(2) 0.85180(16) 0.64724(19)
H88 H 0.1957 0.8315 0.6696
H89 H 0.1772 0.8760 0.6274
C75 C 0.2637(2) 0.87902(16) 0.68716(18)
H90 H 0.2789 0.8958 0.6649
H91 H 0.2539 0.9041 0.7072
C76 C 0.3111(2) 0.84638(18) 0.7298(2)
H92 H 0.3430 0.8664 0.7560
H93 H 0.3249 0.8244 0.7107
H94 H 0.2955 0.8275 0.7499
C77 C 0.10191(18) 0.87456(14) 0.47003(19)
H95 H 0.0929 0.8870 0.4329
H96 H 0.1319 0.8954 0.4984
C78 C 0.04756(18) 0.87471(16) 0.47719(19)
H97 H 0.0362 0.9087 0.4781
H98 H 0.0571 0.8600 0.5135
C79 C -0.00455(19) 0.84745(17) 0.4314(2)
H99 H -0.0141 0.8617 0.3949
H100 H 0.0060 0.8131 0.4310
C80 C -0.0581(2) 0.8500(2) 0.4404(3)
H101 H -0.0494 0.8345 0.4757
H102 H -0.0902 0.8331 0.4100
H103 H -0.0685 0.8839 0.4411
O1 O 0.15507(11) 0.49988(9) 0.39829(11)
O2 O 0.38006(11) 0.53504(10) 0.63961(11)
O3 O 0.35452(11) 0.76941(10) 0.59713(11)
O4 O 0.11314(11) 0.73399(10) 0.36842(11)
O5 O 0.08387(11) 0.65909(10) 0.24031(11)
O6 O 0.11584(11) 0.56096(10) 0.26104(10)
O7 O 0.17407(11) 0.41859(10) 0.51864(11)
O8 O 0.26513(11) 0.44384(9) 0.62278(11)
O9 O 0.51548(11) 0.60776(10) 0.67236(11)
O10 O 0.49674(11) 0.70566(10) 0.63983(11)
O11 O 0.22664(11) 0.85049(10) 0.56913(11)
O12 O 0.12255(11) 0.82370(9) 0.47640(11)
C81 C 0.29930(17) 0.67066(14) 0.51065(18)
H104 H 0.2862 0.6912 0.4772
H105 H 0.3052 0.6921 0.5419
C82 C 0.35758(17) 0.64745(17) 0.52346(19)
H106 H 0.3530 0.6282 0.4916
H107 H 0.3706 0.6265 0.5561
H108 H 0.3861 0.6730 0.5308
C83 C 0.26732(17) 0.60707(16) 0.55565(17)
H109 H 0.2781 0.6314 0.5855
H110 H 0.3018 0.5870 0.5649
C84 C 0.21966(18) 0.57403(15) 0.55542(18)
H111 H 0.2050 0.5525 0.5232
H112 H 0.1882 0.5941 0.5535
H113 H 0.2357 0.5546 0.5894
C85 C 0.24314(18) 0.59690(15) 0.45611(17)
H114 H 0.2095 0.5764 0.4486
H115 H 0.2774 0.5756 0.4710
C86 C 0.23438(18) 0.61823(16) 0.40047(16)
H116 H 0.2285 0.5918 0.3744
H117 H 0.2685 0.6369 0.4067
H118 H 0.2006 0.6395 0.3850
C87 C 0.19436(17) 0.66206(15) 0.48164(17)
H119 H 0.1626 0.6384 0.4706
H120 H 0.1871 0.6810 0.4483
C88 C 0.19254(19) 0.69706(16) 0.52503(18)
H121 H 0.1576 0.7168 0.5074
H122 H 0.2264 0.7182 0.5398
H123 H 0.1925 0.6783 0.5554
N1 N 0.25103(13) 0.63385(11) 0.50098(13)
F1 F 0.44051(13) 0.88490(10) 0.69195(12)
F2 F 0.52570(15) 0.84314(16) 0.72789(16)
F3 F 0.52458(17) 0.92713(17) 0.72791(17)
P1 P 0.5000 0.88484(6) 0.7500
F1A F 0.55949(13) 0.88490(10) 0.80805(12)
F2A F 0.47430(15) 0.84314(16) 0.77211(16)
F3A F 0.47542(17) 0.92713(17) 0.77209(17)
F4 F 0.0000 0.94239(14) 0.2500
F5 F 0.0000 0.82525(14) 0.2500
F6 F 0.0210(2) 0.88423(13) 0.31515(14)
F7 F 0.06663(14) 0.88401(13) 0.26674(19)
P2 P 0.0000 0.88395(6) 0.2500
F6A F -0.0210(2) 0.88423(13) 0.18485(14)
F7A F -0.06663(14) 0.88401(13) 0.23326(19)
loop_
_geom_bond_atom_site_label_1
_geom_bond_atom_site_label_2
_geom_bond_site_symmetry_1
_geom_bond_site_symmetry_2
C1 C2 1_555 1_555
C2 C3 1_555 1_555
C3 C4 1_555 1_555
C4 C5 1_555 1_555
C5 C6 1_555 1_555
C6 C1 1_555 1_555
C7 C6 1_555 1_555
H1 C7 1_555 1_555
C8 C7 1_555 1_555
H2 C8 1_555 1_555
C9 C8 1_555 1_555
H3 C9 1_555 1_555
C10 C5 1_555 1_555
H4 C10 1_555 1_555
C11 C4 1_555 1_555
H5 C11 1_555 1_555
H6 C11 1_555 1_555
C12 H7 1_555 1_555
H8 C12 1_555 1_555
C13 C12 1_555 1_555
C14 C13 1_555 1_555
C15 C14 1_555 1_555
C16 C15 1_555 1_555
C17 C16 1_555 1_555
C18 C13 1_555 1_555
C19 C18 1_555 1_555
H9 C19 1_555 1_555
C20 C19 1_555 1_555
H10 C20 1_555 1_555
C21 C20 1_555 1_555
H11 C21 1_555 1_555
C22 C17 1_555 1_555
H12 C22 1_555 1_555
C23 C16 1_555 1_555
H13 C23 1_555 1_555
H14 C23 1_555 1_555
C24 H15 1_555 1_555
H16 C24 1_555 1_555
C25 C24 1_555 1_555
C26 C25 1_555 1_555
C27 C26 1_555 1_555
C28 C27 1_555 1_555
C29 C28 1_555 1_555
C30 C25 1_555 1_555
C31 C30 1_555 1_555
H17 C31 1_555 1_555
C32 C31 1_555 1_555
H18 C32 1_555 1_555
C33 C32 1_555 1_555
H19 C33 1_555 1_555
C34 C29 1_555 1_555
H20 C34 1_555 1_555
C35 C28 1_555 1_555
H21 C35 1_555 1_555
H22 C35 1_555 1_555
C36 H23 1_555 1_555
H24 C36 1_555 1_555
C37 C36 1_555 1_555
C38 C37 1_555 1_555
C39 C38 1_555 1_555
C40 C39 1_555 1_555
C41 C40 1_555 1_555
C42 C37 1_555 1_555
C43 C42 1_555 1_555
H25 C43 1_555 1_555
C44 C43 1_555 1_555
H26 C44 1_555 1_555
C45 C44 1_555 1_555
H27 C45 1_555 1_555
C46 C41 1_555 1_555
H28 C46 1_555 1_555
C47 C40 1_555 1_555
H29 C47 1_555 1_555
H30 C47 1_555 1_555
C48 C1 1_555 1_555
H31 C48 1_555 1_555
C49 H32 1_555 1_555
H33 C49 1_555 1_555
C50 C49 1_555 1_555
H34 C50 1_555 1_555
H35 C50 1_555 1_555
C51 C50 1_555 1_555
H36 C51 1_555 1_555
H37 C51 1_555 1_555
C52 C51 1_555 1_555
H38 C52 1_555 1_555
H39 C52 1_555 1_555
H40 C52 1_555 1_555
C53 H41 1_555 1_555
H42 C53 1_555 1_555
C54 C53 1_555 1_555
H43 C54 1_555 1_555
H44 C54 1_555 1_555
C55 C54 1_555 1_555
H45 C55 1_555 1_555
H46 C55 1_555 1_555
C56 C55 1_555 1_555
H47 C56 1_555 1_555
H48 C56 1_555 1_555
H49 C56 1_555 1_555
C57 H50 1_555 1_555
H51 C57 1_555 1_555
C58 C57 1_555 1_555
H52 C58 1_555 1_555
H53 C58 1_555 1_555
C59 C58 1_555 1_555
H54 C59 1_555 1_555
H55 C59 1_555 1_555
C60 C59 1_555 1_555
H56 C60 1_555 1_555
H57 C60 1_555 1_555
H58 C60 1_555 1_555
C61 H59 1_555 1_555
H60 C61 1_555 1_555
C62 C61 1_555 1_555
H61 C62 1_555 1_555
H62 C62 1_555 1_555
C63 C62 1_555 1_555
H63 C63 1_555 1_555
H64 C63 1_555 1_555
C64 C63 1_555 1_555
H65 C64 1_555 1_555
H66 C64 1_555 1_555
H67 C64 1_555 1_555
C65 H68 1_555 1_555
H69 C65 1_555 1_555
C66 C65 1_555 1_555
H70 C66 1_555 1_555
H71 C66 1_555 1_555
C67 C66 1_555 1_555
H72 C67 1_555 1_555
H73 C67 1_555 1_555
C68 C67 1_555 1_555
H74 C68 1_555 1_555
H75 C68 1_555 1_555
H76 C68 1_555 1_555
C69 H77 1_555 1_555
H78 C69 1_555 1_555
C70 C69 1_555 1_555
H79 C70 1_555 1_555
H80 C70 1_555 1_555
C71 C70 1_555 1_555
H81 C71 1_555 1_555
H82 C71 1_555 1_555
C72 C71 1_555 1_555
H83 C72 1_555 1_555
H84 C72 1_555 1_555
H85 C72 1_555 1_555
C73 H86 1_555 1_555
H87 C73 1_555 1_555
C74 C73 1_555 1_555
H88 C74 1_555 1_555
H89 C74 1_555 1_555
C75 C74 1_555 1_555
H90 C75 1_555 1_555
H91 C75 1_555 1_555
C76 C75 1_555 1_555
H92 C76 1_555 1_555
H93 C76 1_555 1_555
H94 C76 1_555 1_555
C77 H95 1_555 1_555
H96 C77 1_555 1_555
C78 C77 1_555 1_555
H97 C78 1_555 1_555
H98 C78 1_555 1_555
C79 C78 1_555 1_555
H99 C79 1_555 1_555
H100 C79 1_555 1_555
C80 C79 1_555 1_555
H101 C80 1_555 1_555
H102 C80 1_555 1_555
H103 C80 1_555 1_555
O1 C11 1_555 1_555
O2 C23 1_555 1_555
O3 C35 1_555 1_555
O4 C47 1_555 1_555
O5 C2 1_555 1_555
O6 C3 1_555 1_555
O7 C14 1_555 1_555
O8 C15 1_555 1_555
O9 C26 1_555 1_555
O10 C27 1_555 1_555
O11 C38 1_555 1_555
O12 C39 1_555 1_555
C81 H104 1_555 1_555
H105 C81 1_555 1_555
C82 C81 1_555 1_555
H106 C82 1_555 1_555
H107 C82 1_555 1_555
H108 C82 1_555 1_555
C83 H109 1_555 1_555
H110 C83 1_555 1_555
C84 C83 1_555 1_555
H111 C84 1_555 1_555
H112 C84 1_555 1_555
H113 C84 1_555 1_555
C85 H114 1_555 1_555
H115 C85 1_555 1_555
C86 C85 1_555 1_555
H116 C86 1_555 1_555
H117 C86 1_555 1_555
H118 C86 1_555 1_555
C87 H119 1_555 1_555
H120 C87 1_555 1_555
C88 C87 1_555 1_555
H121 C88 1_555 1_555
H122 C88 1_555 1_555
H123 C88 1_555 1_555
N1 C81 1_555 1_555
F1 P1 1_555 1_555
F2 P1 1_555 1_555
F3 P1 1_555 1_555
P1 F1A 1_555 1_555
F4 P2 1_555 1_555
F5 P2 1_555 1_555
F6 P2 1_555 1_555
F7 P2 1_555 1_555
P2 F6A 1_555 1_555
F2A P1 1_555 1_555
F3A P1 1_555 1_555
F7A P2 1_555 1_555
C9 C10 1_555 1_555
C12 O1 1_555 1_555
C17 C18 1_555 1_555
C21 C22 1_555 1_555
C24 O2 1_555 1_555
C29 C30 1_555 1_555
C33 C34 1_555 1_555
C36 O3 1_555 1_555
C41 C42 1_555 1_555
C45 C46 1_555 1_555
C48 O4 1_555 1_555
C49 O5 1_555 1_555
C53 O6 1_555 1_555
C57 O7 1_555 1_555
C61 O8 1_555 1_555
C65 O9 1_555 1_555
C69 O10 1_555 1_555
C73 O11 1_555 1_555
C77 O12 1_555 1_555
C83 N1 1_555 1_555
C85 N1 1_555 1_555
C87 N1 1_555 1_555

#END
