
#######################################################################
#
#                 Cambridge Crystallographic Data Centre
#                                CCDC 
#
#######################################################################
#
# If this CIF has been generated from an entry in the Cambridge 
# Structural Database, then it will include bibliographic, chemical, 
# crystal, experimental, refinement or atomic coordinate data resulting 
# from the CCDC's data processing and validation procedures.
#
#######################################################################

data_VAXBUU
_chemical_formula_moiety         'C42 H32 N2 O4 P2'
_chemical_name_systematic        
2,5-dianilino-3,6-bis(diphenylphosphoryl)-1,4-benzoquinone
_symmetry_cell_setting           monoclinic
_symmetry_space_group_name_H-M   'P 21/c'
_symmetry_Int_Tables_number      14
_space_group_name_Hall           '-P 2ybc'
loop_
_symmetry_equiv_pos_site_id
_symmetry_equiv_pos_as_xyz
1 x,y,z
2 -x,1/2+y,1/2-z
3 -x,-y,-z
4 x,1/2-y,1/2+z
_cell_length_a                   34.7887(10)
_cell_length_b                   10.9061(2)
_cell_length_c                   18.7051(5)
_cell_angle_alpha                90
_cell_angle_beta                 104.744(3)
_cell_angle_gamma                90
_cell_volume                     6863.2
_exptl_crystal_colour            black
_exptl_crystal_description       parallelepiped
_cell_formula_units_Z            8
loop_
_atom_site_label
_atom_site_type_symbol
_atom_site_fract_x
_atom_site_fract_y
_atom_site_fract_z
P1 P 0.33167(2) 0.57262(7) 0.23964(4)
P2 P 0.42853(2) 1.09191(7) 0.27503(4)
O1 O 0.31226(6) 0.80410(18) 0.15248(11)
O2 O 0.44141(5) 0.87079(19) 0.37261(11)
O3 O 0.35306(6) 0.48516(18) 0.29856(11)
O4 O 0.40688(6) 1.18267(17) 0.21802(11)
N1 N 0.39421(7) 0.6720(2) 0.37865(13)
H1 H 0.3820(10) 0.605(3) 0.3670(18)
N2 N 0.35596(7) 1.0158(2) 0.15147(13)
H2 H 0.3698(9) 1.086(3) 0.1638(17)
C1 C 0.34405(8) 0.8129(3) 0.19984(15)
C2 C 0.35705(8) 0.7194(3) 0.25465(15)
C3 C 0.38520(8) 0.7471(2) 0.31991(15)
C4 C 0.41039(8) 0.8634(3) 0.32300(15)
C5 C 0.39896(8) 0.9537(2) 0.26629(15)
C6 C 0.36775(8) 0.9314(3) 0.20446(15)
C7 C 0.33059(8) 0.5153(3) 0.14825(16)
C8 C 0.30474(9) 0.5586(3) 0.08357(17)
H3 H 0.2865 0.6226 0.0855
C9 C 0.30598(11) 0.5066(3) 0.01570(19)
H4 H 0.2885 0.5354 -0.0287
C10 C 0.33251(11) 0.4136(3) 0.0131(2)
H5 H 0.3335 0.3801 -0.0333
C11 C 0.35756(11) 0.3689(3) 0.0771(2)
H6 H 0.3754 0.3039 0.0750
C12 C 0.35653(9) 0.4195(3) 0.14486(18)
H7 H 0.3736 0.3885 0.1891
C13 C 0.28034(8) 0.5900(3) 0.24168(15)
C14 C 0.26770(9) 0.6870(3) 0.27823(16)
H8 H 0.2852 0.7532 0.2967
C15 C 0.22918(9) 0.6867(3) 0.28767(17)
H9 H 0.2204 0.7526 0.3127
C16 C 0.20379(9) 0.5900(3) 0.26052(17)
H10 H 0.1776 0.5899 0.2673
C17 C 0.21608(9) 0.4941(3) 0.22391(17)
H11 H 0.1985 0.4283 0.2053
C18 C 0.25448(9) 0.4941(3) 0.21440(17)
H12 H 0.2631 0.4281 0.1891
C19 C 0.41069(8) 0.7040(3) 0.45448(16)
C20 C 0.43620(9) 0.6220(3) 0.49950(18)
H13 H 0.4442 0.5495 0.4791
C21 C 0.45012(10) 0.6463(3) 0.57470(18)
H14 H 0.4672 0.5892 0.6057
C22 C 0.43932(11) 0.7528(3) 0.60467(19)
H15 H 0.4493 0.7696 0.6559
C23 C 0.41381(10) 0.8349(3) 0.55922(18)
H16 H 0.4062 0.9081 0.5795
C24 C 0.39944(9) 0.8105(3) 0.48469(17)
H17 H 0.3818 0.8667 0.4540
C25 C 0.43470(8) 1.1558(3) 0.36609(16)
C26 C 0.46701(9) 1.1329(3) 0.42597(17)
H18 H 0.4872 1.0769 0.4213
C27 C 0.46950(11) 1.1927(3) 0.49279(19)
H19 H 0.4917 1.1783 0.5335
C28 C 0.44002(11) 1.2728(3) 0.50045(19)
H20 H 0.4419 1.3118 0.5466
C29 C 0.40768(11) 1.2966(3) 0.44091(19)
H21 H 0.3873 1.3513 0.4462
C30 C 0.40543(9) 1.2395(3) 0.37359(17)
H22 H 0.3839 1.2573 0.3323
C31 C 0.47637(8) 1.0571(3) 0.25802(16)
C32 C 0.50224(9) 0.9650(3) 0.2926(2)
H23 H 0.4959 0.9166 0.3302
C33 C 0.53723(10) 0.9443(3) 0.2719(2)
H24 H 0.5546 0.8809 0.2955
C34 C 0.54713(9) 1.0135(3) 0.2180(2)
H25 H 0.5713 0.9987 0.2048
C35 C 0.52164(9) 1.1053(3) 0.18300(18)
H26 H 0.5282 1.1532 0.1454
C36 C 0.48654(9) 1.1269(3) 0.20300(17)
H27 H 0.4692 1.1899 0.1790
C37 C 0.33042(8) 1.0067(3) 0.07830(15)
C38 C 0.30247(9) 1.0968(3) 0.05573(17)
H28 H 0.2989 1.1584 0.0894
C39 C 0.27920(10) 1.0976(3) -0.01721(18)
H29 H 0.2596 1.1594 -0.0333
C40 C 0.28482(9) 1.0082(3) -0.06575(17)
H30 H 0.2692 1.0084 -0.1155
C41 C 0.31304(10) 0.9186(3) -0.04198(17)
H31 H 0.3167 0.8571 -0.0756
C42 C 0.33609(9) 0.9165(3) 0.02993(16)
H32 H 0.3555 0.8543 0.0459
P3 P 0.07415(2) 0.63182(7) 0.23307(4)
P4 P 0.17028(2) 1.15093(7) 0.28235(4)
O5 O 0.05638(6) 0.86497(19) 0.15116(11)
O6 O 0.18875(6) 0.91682(18) 0.36555(11)
O7 O 0.09314(6) 0.54040(18) 0.29122(11)
O8 O 0.14995(6) 1.24130(18) 0.22452(12)
N3 N 0.14390(7) 0.7083(2) 0.36512(13)
H33 H 0.1335(9) 0.638(3) 0.3562(17)
N4 N 0.10471(7) 1.0637(2) 0.14434(14)
H34 H 0.1154(11) 1.145(3) 0.152(2)
C43 C 0.08909(8) 0.8687(3) 0.19600(15)
C44 C 0.10279(8) 0.7715(3) 0.24829(15)
C45 C 0.13289(8) 0.7917(3) 0.31137(15)
C46 C 0.15694(8) 0.9100(3) 0.31799(15)
C47 C 0.14384(8) 1.0071(3) 0.26575(16)
C48 C 0.11407(8) 0.9845(3) 0.20061(16)
C49 C 0.07357(8) 0.5716(3) 0.14256(16)
C50 C 0.04987(10) 0.6168(3) 0.07577(18)
H35 H 0.0326 0.6844 0.0756
C51 C 0.05179(11) 0.5616(3) 0.00911(19)
H36 H 0.0359 0.5923 -0.0364
C52 C 0.07643(11) 0.4636(3) 0.0093(2)
H37 H 0.0772 0.4254 -0.0360
C53 C 0.10052(11) 0.4195(3) 0.0760(2)
H38 H 0.1182 0.3531 0.0759
C54 C 0.09850(9) 0.4725(3) 0.14152(18)
H39 H 0.1144 0.4410 0.1868
C55 C 0.02418(8) 0.6702(3) 0.23609(17)
C56 C -0.00887(10) 0.6076(4) 0.1952(2)
H40 H -0.0057 0.5464 0.1610
C57 C -0.04670(10) 0.6332(4) 0.2036(2)
H41 H -0.0692 0.5906 0.1749
C58 C -0.05138(10) 0.7205(4) 0.2539(2)
H42 H -0.0771 0.7378 0.2600
C59 C -0.01908(11) 0.7825(4) 0.2953(3)
H43 H -0.0224 0.8417 0.3304
C60 C 0.01869(10) 0.7589(3) 0.2858(2)
H44 H 0.0409 0.8039 0.3135
C61 C 0.16615(8) 0.7248(3) 0.43993(16)
C62 C 0.19682(9) 0.6451(3) 0.46885(17)
H45 H 0.2036 0.5828 0.4387
C63 C 0.21792(11) 0.6562(4) 0.54253(19)
H46 H 0.2396 0.6030 0.5624
C64 C 0.20728(11) 0.7442(4) 0.58647(18)
H47 H 0.2216 0.7515 0.6368
C65 C 0.17572(11) 0.8226(3) 0.55766(18)
H48 H 0.1683 0.8827 0.5885
C66 C 0.15496(9) 0.8134(3) 0.48407(18)
H49 H 0.1334 0.8670 0.4641
C67 C 0.17081(8) 1.2050(3) 0.37406(17)
C68 C 0.19551(10) 1.1557(3) 0.43898(17)
H50 H 0.2127 1.0893 0.4362
C69 C 0.19472(11) 1.2045(3) 0.5077(2)
H51 H 0.2113 1.1714 0.5519
C70 C 0.16937(12) 1.3020(4) 0.5109(2)
H52 H 0.1686 1.3350 0.5575
C71 C 0.14540(12) 1.3511(3) 0.4473(2)
H53 H 0.1283 1.4179 0.4503
C72 C 0.14606(10) 1.3034(3) 0.3787(2)
H54 H 0.1296 1.3380 0.3349
C73 C 0.22127(8) 1.1285(3) 0.28072(16)
C74 C 0.24910(9) 1.2164(3) 0.31427(17)
H55 H 0.2414 1.2800 0.3424
C75 C 0.28786(9) 1.2129(3) 0.30727(19)
H56 H 0.3068 1.2724 0.3310
C76 C 0.29840(10) 1.1205(3) 0.2649(2)
H57 H 0.3248 1.1169 0.2594
C77 C 0.27091(10) 1.0336(3) 0.2306(2)
H58 H 0.2786 0.9710 0.2017
C78 C 0.23225(9) 1.0372(3) 0.23811(19)
H59 H 0.2134 0.9776 0.2142
C79 C 0.08261(8) 1.0388(3) 0.07005(16)
C80 C 0.05443(10) 1.1224(3) 0.03484(19)
H60 H 0.0491 1.1931 0.0604
C81 C 0.03387(11) 1.1026(4) -0.0385(2)
H61 H 0.0150 1.1612 -0.0636
C82 C 0.04088(11) 0.9976(4) -0.07486(19)
H62 H 0.0261 0.9828 -0.1243
C83 C 0.06927(10) 0.9144(3) -0.03946(17)
H63 H 0.0740 0.8424 -0.0645
C84 C 0.09089(9) 0.9359(3) 0.03274(17)
H64 H 0.1112 0.8806 0.0565
loop_
_geom_bond_atom_site_label_1
_geom_bond_atom_site_label_2
_geom_bond_site_symmetry_1
_geom_bond_site_symmetry_2
P1 O3 1_555 1_555
P2 O4 1_555 1_555
O1 C1 1_555 1_555
O2 C4 1_555 1_555
N1 H1 1_555 1_555
N2 H2 1_555 1_555
C1 C2 1_555 1_555
C2 P1 1_555 1_555
C3 N1 1_555 1_555
C4 C3 1_555 1_555
C5 P2 1_555 1_555
C6 N2 1_555 1_555
C7 P1 1_555 1_555
C8 C7 1_555 1_555
H3 C8 1_555 1_555
C9 C8 1_555 1_555
H4 C9 1_555 1_555
C10 C9 1_555 1_555
H5 C10 1_555 1_555
C11 C10 1_555 1_555
H6 C11 1_555 1_555
C12 C7 1_555 1_555
H7 C12 1_555 1_555
C13 P1 1_555 1_555
C14 C13 1_555 1_555
H8 C14 1_555 1_555
C15 C14 1_555 1_555
H9 C15 1_555 1_555
C16 C15 1_555 1_555
H10 C16 1_555 1_555
C17 C16 1_555 1_555
H11 C17 1_555 1_555
C18 C13 1_555 1_555
H12 C18 1_555 1_555
C19 N1 1_555 1_555
C20 C19 1_555 1_555
H13 C20 1_555 1_555
C21 C20 1_555 1_555
H14 C21 1_555 1_555
C22 C21 1_555 1_555
H15 C22 1_555 1_555
C23 C22 1_555 1_555
H16 C23 1_555 1_555
C24 C19 1_555 1_555
H17 C24 1_555 1_555
C25 P2 1_555 1_555
C26 C25 1_555 1_555
H18 C26 1_555 1_555
C27 C26 1_555 1_555
H19 C27 1_555 1_555
C28 C27 1_555 1_555
H20 C28 1_555 1_555
C29 C28 1_555 1_555
H21 C29 1_555 1_555
C30 C25 1_555 1_555
H22 C30 1_555 1_555
C31 P2 1_555 1_555
C32 C31 1_555 1_555
H23 C32 1_555 1_555
C33 C32 1_555 1_555
H24 C33 1_555 1_555
C34 C33 1_555 1_555
H25 C34 1_555 1_555
C35 C34 1_555 1_555
H26 C35 1_555 1_555
C36 C31 1_555 1_555
H27 C36 1_555 1_555
C37 N2 1_555 1_555
C38 C37 1_555 1_555
H28 C38 1_555 1_555
C39 C38 1_555 1_555
H29 C39 1_555 1_555
C40 C39 1_555 1_555
H30 C40 1_555 1_555
C41 C40 1_555 1_555
H31 C41 1_555 1_555
C42 C37 1_555 1_555
H32 C42 1_555 1_555
P3 O7 1_555 1_555
P4 O8 1_555 1_555
O5 C43 1_555 1_555
O6 C46 1_555 1_555
N3 H33 1_555 1_555
N4 H34 1_555 1_555
C43 C44 1_555 1_555
C44 P3 1_555 1_555
C45 N3 1_555 1_555
C46 C45 1_555 1_555
C47 P4 1_555 1_555
C48 N4 1_555 1_555
C49 P3 1_555 1_555
C50 C49 1_555 1_555
H35 C50 1_555 1_555
C51 C50 1_555 1_555
H36 C51 1_555 1_555
C52 C51 1_555 1_555
H37 C52 1_555 1_555
C53 C52 1_555 1_555
H38 C53 1_555 1_555
C54 C49 1_555 1_555
H39 C54 1_555 1_555
C55 P3 1_555 1_555
C56 C55 1_555 1_555
H40 C56 1_555 1_555
C57 C56 1_555 1_555
H41 C57 1_555 1_555
C58 C57 1_555 1_555
H42 C58 1_555 1_555
C59 C58 1_555 1_555
H43 C59 1_555 1_555
C60 C55 1_555 1_555
H44 C60 1_555 1_555
C61 N3 1_555 1_555
C62 C61 1_555 1_555
H45 C62 1_555 1_555
C63 C62 1_555 1_555
H46 C63 1_555 1_555
C64 C63 1_555 1_555
H47 C64 1_555 1_555
C65 C64 1_555 1_555
H48 C65 1_555 1_555
C66 C61 1_555 1_555
H49 C66 1_555 1_555
C67 P4 1_555 1_555
C68 C67 1_555 1_555
H50 C68 1_555 1_555
C69 C68 1_555 1_555
H51 C69 1_555 1_555
C70 C69 1_555 1_555
H52 C70 1_555 1_555
C71 C70 1_555 1_555
H53 C71 1_555 1_555
C72 C67 1_555 1_555
H54 C72 1_555 1_555
C73 P4 1_555 1_555
C74 C73 1_555 1_555
H55 C74 1_555 1_555
C75 C74 1_555 1_555
H56 C75 1_555 1_555
C76 C75 1_555 1_555
H57 C76 1_555 1_555
C77 C76 1_555 1_555
H58 C77 1_555 1_555
C78 C73 1_555 1_555
H59 C78 1_555 1_555
C79 N4 1_555 1_555
C80 C79 1_555 1_555
H60 C80 1_555 1_555
C81 C80 1_555 1_555
H61 C81 1_555 1_555
C82 C81 1_555 1_555
H62 C82 1_555 1_555
C83 C82 1_555 1_555
H63 C83 1_555 1_555
C84 C79 1_555 1_555
H64 C84 1_555 1_555
C1 C6 1_555 1_555
C2 C3 1_555 1_555
C4 C5 1_555 1_555
C5 C6 1_555 1_555
C11 C12 1_555 1_555
C17 C18 1_555 1_555
C23 C24 1_555 1_555
C29 C30 1_555 1_555
C35 C36 1_555 1_555
C41 C42 1_555 1_555
C43 C48 1_555 1_555
C44 C45 1_555 1_555
C46 C47 1_555 1_555
C47 C48 1_555 1_555
C53 C54 1_555 1_555
C59 C60 1_555 1_555
C65 C66 1_555 1_555
C71 C72 1_555 1_555
C77 C78 1_555 1_555
C83 C84 1_555 1_555

#END
