
#######################################################################
#
#                 Cambridge Crystallographic Data Centre
#                                CCDC 
#
#######################################################################
#
# If this CIF has been generated from an entry in the Cambridge 
# Structural Database, then it will include bibliographic, chemical, 
# crystal, experimental, refinement or atomic coordinate data resulting 
# from the CCDC's data processing and validation procedures.
#
#######################################################################

data_VAXCUV
_chemical_formula_moiety         'C30 H24 N1 O3 P1'
_chemical_name_systematic        
2-anilino-3-(bis(4-methylphenyl)phosphoryl)-1,4-naphthoquinone
_symmetry_cell_setting           triclinic
_symmetry_space_group_name_H-M   'P -1'
_symmetry_Int_Tables_number      2
_space_group_name_Hall           '-P 1'
loop_
_symmetry_equiv_pos_site_id
_symmetry_equiv_pos_as_xyz
1 x,y,z
2 -x,-y,-z
_cell_length_a                   9.7650(9)
_cell_length_b                   9.8291(9)
_cell_length_c                   13.5327(11)
_cell_angle_alpha                78.081(7)
_cell_angle_beta                 82.755(7)
_cell_angle_gamma                67.963(9)
_cell_volume                     1176.34
_exptl_crystal_colour            red
_exptl_crystal_description       parallelepiped
_cell_formula_units_Z            2
loop_
_atom_site_label
_atom_site_type_symbol
_atom_site_fract_x
_atom_site_fract_y
_atom_site_fract_z
P1 P 0.71202(6) 0.41320(6) 0.23041(4)
O1 O 0.41031(18) 0.72649(19) 0.50075(11)
O2 O 0.41259(17) 0.55513(18) 0.15113(11)
O3 O 0.83420(16) 0.35253(17) 0.30245(11)
N1 N 0.6806(2) 0.5568(2) 0.41887(13)
H1 H 0.761(3) 0.474(3) 0.3980(19)
C1 C 0.4129(2) 0.7002(2) 0.41638(15)
C2 C 0.2772(2) 0.7583(2) 0.35905(15)
C3 C 0.1478(3) 0.8600(3) 0.39600(18)
H2 H 0.1473 0.8936 0.4571
C4 C 0.0193(3) 0.9121(3) 0.34322(19)
H3 H -0.0683 0.9834 0.3671
C5 C 0.0201(3) 0.8592(3) 0.25513(19)
H4 H -0.0679 0.8936 0.2196
C6 C 0.1469(3) 0.7576(3) 0.21915(17)
H5 H 0.1457 0.7216 0.1594
C7 C 0.2776(2) 0.7068(2) 0.27005(15)
C8 C 0.4138(2) 0.5959(2) 0.23084(15)
C9 C 0.5486(2) 0.5412(2) 0.28588(14)
C10 C 0.5545(2) 0.5992(2) 0.36973(14)
C11 C 0.6600(2) 0.2701(2) 0.19923(15)
C12 C 0.5654(2) 0.2147(2) 0.26680(15)
H6 H 0.5265 0.2552 0.3267
C13 C 0.5280(2) 0.1007(2) 0.24664(16)
H7 H 0.4627 0.0648 0.2930
C14 C 0.5841(2) 0.0376(2) 0.16008(16)
C15 C 0.6793(2) 0.0925(2) 0.09336(16)
H8 H 0.7192 0.0510 0.0339
C16 C 0.7169(2) 0.2076(2) 0.11250(16)
H9 H 0.7819 0.2439 0.0660
C17 C 0.5402(3) -0.0851(3) 0.13918(19)
H10 H 0.5898 -0.1159 0.0755
H11 H 0.5696 -0.1704 0.1945
H12 H 0.4328 -0.0486 0.1339
C18 C 0.7615(2) 0.5208(2) 0.11601(15)
C19 C 0.6950(2) 0.5536(3) 0.02415(15)
H13 H 0.6236 0.5122 0.0176
C20 C 0.7330(2) 0.6465(3) -0.05751(16)
H14 H 0.6887 0.6659 -0.1200
C21 C 0.8346(2) 0.7119(2) -0.04988(16)
C22 C 0.9017(2) 0.6768(3) 0.04187(16)
H15 H 0.9728 0.7185 0.0485
C23 C 0.8665(2) 0.5821(3) 0.12354(16)
H16 H 0.9143 0.5590 0.1850
C24 C 0.8726(3) 0.8154(3) -0.13841(17)
H17 H 0.8149 0.8267 -0.1958
H18 H 0.8492 0.9130 -0.1194
H19 H 0.9784 0.7738 -0.1575
C25 C 0.7222(2) 0.6393(2) 0.47684(14)
C26 C 0.8207(2) 0.5601(3) 0.55191(16)
H20 H 0.8540 0.4544 0.5661
C27 C 0.8703(3) 0.6364(3) 0.60627(17)
H21 H 0.9383 0.5822 0.6575
C28 C 0.8221(3) 0.7895(3) 0.58679(17)
H22 H 0.8556 0.8409 0.6249
C29 C 0.7245(3) 0.8684(3) 0.51127(17)
H23 H 0.6901 0.9742 0.4980
C30 C 0.6768(3) 0.7932(3) 0.45503(17)
H24 H 0.6129 0.8473 0.4015
loop_
_geom_bond_atom_site_label_1
_geom_bond_atom_site_label_2
_geom_bond_site_symmetry_1
_geom_bond_site_symmetry_2
P1 O3 1_555 1_555
O1 C1 1_555 1_555
O2 C8 1_555 1_555
N1 H1 1_555 1_555
C1 C2 1_555 1_555
C2 C3 1_555 1_555
C3 H2 1_555 1_555
C4 C3 1_555 1_555
H3 C4 1_555 1_555
C5 C4 1_555 1_555
H4 C5 1_555 1_555
C6 C5 1_555 1_555
H5 C6 1_555 1_555
C7 C2 1_555 1_555
C8 C7 1_555 1_555
C9 P1 1_555 1_555
C10 N1 1_555 1_555
C11 P1 1_555 1_555
C12 C11 1_555 1_555
H6 C12 1_555 1_555
C13 C12 1_555 1_555
H7 C13 1_555 1_555
C14 C13 1_555 1_555
C15 C14 1_555 1_555
H8 C15 1_555 1_555
C16 C11 1_555 1_555
H9 C16 1_555 1_555
C17 C14 1_555 1_555
H10 C17 1_555 1_555
H11 C17 1_555 1_555
H12 C17 1_555 1_555
C18 P1 1_555 1_555
C19 C18 1_555 1_555
H13 C19 1_555 1_555
C20 C19 1_555 1_555
H14 C20 1_555 1_555
C21 C20 1_555 1_555
C22 C21 1_555 1_555
H15 C22 1_555 1_555
C23 C18 1_555 1_555
H16 C23 1_555 1_555
C24 C21 1_555 1_555
H17 C24 1_555 1_555
H18 C24 1_555 1_555
H19 C24 1_555 1_555
C25 N1 1_555 1_555
C26 C25 1_555 1_555
H20 C26 1_555 1_555
C27 C26 1_555 1_555
H21 C27 1_555 1_555
C28 C27 1_555 1_555
H22 C28 1_555 1_555
C29 C28 1_555 1_555
H23 C29 1_555 1_555
C30 C25 1_555 1_555
H24 C30 1_555 1_555
C1 C10 1_555 1_555
C6 C7 1_555 1_555
C8 C9 1_555 1_555
C9 C10 1_555 1_555
C15 C16 1_555 1_555
C22 C23 1_555 1_555
C29 C30 1_555 1_555

#END
