
#######################################################################
#
#                 Cambridge Crystallographic Data Centre
#                                CCDC 
#
#######################################################################
#
# If this CIF has been generated from an entry in the Cambridge 
# Structural Database, then it will include bibliographic, chemical, 
# crystal, experimental, refinement or atomic coordinate data resulting 
# from the CCDC's data processing and validation procedures.
#
#######################################################################

data_VAXCIJ
_chemical_formula_moiety         'C42 H30 F2 N2 O4 P2'
_chemical_name_systematic        
2,5-bis(diphenylphosphoryl)-3,6-bis((3-fluorophenyl)amino)-1,4-benzoquinone
_symmetry_cell_setting           triclinic
_symmetry_space_group_name_H-M   'P -1'
_symmetry_Int_Tables_number      2
_space_group_name_Hall           '-P 1'
loop_
_symmetry_equiv_pos_site_id
_symmetry_equiv_pos_as_xyz
1 x,y,z
2 -x,-y,-z
_cell_length_a                   9.1437(5)
_cell_length_b                   9.8578(9)
_cell_length_c                   10.1600(11)
_cell_angle_alpha                96.397(8)
_cell_angle_beta                 98.310(7)
_cell_angle_gamma                101.954(6)
_cell_volume                     877.021
_exptl_crystal_colour            black
_exptl_crystal_description       parallelepiped
_cell_formula_units_Z            1
loop_
_atom_site_label
_atom_site_type_symbol
_atom_site_fract_x
_atom_site_fract_y
_atom_site_fract_z
P1 P 0.37997(12) 0.79084(11) 0.71580(11)
F1 F 1.1704(3) 1.1870(4) 0.9879(3)
O1 O 0.3093(3) 0.7556(3) 0.9881(3)
O2 O 0.4424(4) 0.8551(3) 0.6026(3)
N1 N 0.6465(4) 1.0538(4) 0.7815(3)
H1 H 0.5949 1.0217 0.7001
C1 C 0.3876(4) 0.8728(4) 0.9879(4)
C2 C 0.4543(5) 0.9074(4) 0.8723(4)
C3 C 0.5725(4) 1.0222(4) 0.8840(4)
C4 C 0.4250(4) 0.6238(4) 0.7296(4)
C5 C 0.5254(5) 0.6037(5) 0.8393(5)
H2 H 0.5640 0.6771 0.9127
C6 C 0.5692(5) 0.4771(5) 0.8417(5)
H3 H 0.6368 0.4637 0.9169
C7 C 0.5141(6) 0.3707(5) 0.7342(5)
H4 H 0.5436 0.2839 0.7356
C8 C 0.4156(6) 0.3905(5) 0.6242(5)
H5 H 0.3790 0.3176 0.5500
C9 C 0.3707(5) 0.5162(5) 0.6222(5)
H6 H 0.3025 0.5288 0.5471
C10 C 0.1780(5) 0.7695(4) 0.6980(4)
C11 C 0.0814(5) 0.6546(5) 0.7310(5)
H7 H 0.1208 0.5787 0.7594
C12 C -0.0724(6) 0.6506(6) 0.7226(6)
H8 H -0.1381 0.5726 0.7465
C13 C -0.1298(6) 0.7605(7) 0.6794(6)
H9 H -0.2351 0.7576 0.6734
C14 C -0.0355(6) 0.8739(6) 0.6451(5)
H10 H -0.0758 0.9489 0.6155
C15 C 0.1175(6) 0.8790(5) 0.6534(5)
H11 H 0.1821 0.9572 0.6289
C16 C 0.7975(5) 1.1324(4) 0.7890(4)
C17 C 0.8303(5) 1.2057(4) 0.6845(5)
H12 H 0.7517 1.2085 0.6133
C18 C 0.9791(5) 1.2753(5) 0.6844(5)
H13 H 1.0018 1.3255 0.6126
C19 C 1.0942(6) 1.2723(5) 0.7877(5)
H14 H 1.1958 1.3204 0.7884
C20 C 1.0572(5) 1.1974(5) 0.8893(5)
C21 C 0.9120(5) 1.1255(5) 0.8930(5)
H15 H 0.8906 1.0732 0.9637
P1A P 0.62003(12) 1.20916(11) 1.28420(11)
F1A F -0.1704(3) 0.8130(4) 1.0121(3)
O1A O 0.6907(3) 1.2444(3) 1.0119(3)
O2A O 0.5576(4) 1.1449(3) 1.3974(3)
N1A N 0.3535(4) 0.9462(4) 1.2185(3)
H1A H 0.4051 0.9783 1.2999
C1A C 0.6124(4) 1.1272(4) 1.0121(4)
C2A C 0.5457(5) 1.0926(4) 1.1277(4)
C3A C 0.4275(4) 0.9778(4) 1.1160(4)
C4A C 0.5750(4) 1.3762(4) 1.2704(4)
C5A C 0.4746(5) 1.3963(5) 1.1607(5)
H2A H 0.4360 1.3229 1.0873
C6A C 0.4308(5) 1.5229(5) 1.1583(5)
H3A H 0.3632 1.5363 1.0831
C7A C 0.4859(6) 1.6293(5) 1.2658(5)
H4A H 0.4564 1.7161 1.2644
C8A C 0.5844(6) 1.6095(5) 1.3758(5)
H5A H 0.6210 1.6824 1.4500
C9A C 0.6293(5) 1.4838(5) 1.3778(5)
H6A H 0.6975 1.4712 1.4529
C10A C 0.8220(5) 1.2305(4) 1.3020(4)
C11A C 0.9186(5) 1.3454(5) 1.2690(5)
H7A H 0.8792 1.4213 1.2406
C12A C 1.0724(6) 1.3494(6) 1.2774(6)
H8A H 1.1381 1.4274 1.2535
C13A C 1.1298(6) 1.2395(7) 1.3206(6)
H9A H 1.2351 1.2424 1.3266
C14A C 1.0355(6) 1.1261(6) 1.3549(5)
H10A H 1.0758 1.0511 1.3845
C15A C 0.8825(6) 1.1210(5) 1.3466(5)
H11A H 0.8179 1.0428 1.3711
C16A C 0.2025(5) 0.8676(4) 1.2110(4)
C17A C 0.1697(5) 0.7943(4) 1.3155(5)
H12A H 0.2483 0.7915 1.3867
C18A C 0.0209(5) 0.7247(5) 1.3156(5)
H13A H -0.0018 0.6745 1.3874
C19A C -0.0942(6) 0.7277(5) 1.2123(5)
H14A H -0.1958 0.6796 1.2116
C20A C -0.0572(5) 0.8026(5) 1.1107(5)
C21A C 0.0880(5) 0.8745(5) 1.1070(5)
H15A H 0.1094 0.9268 1.0363
loop_
_geom_bond_atom_site_label_1
_geom_bond_atom_site_label_2
_geom_bond_site_symmetry_1
_geom_bond_site_symmetry_2
P1 O2 1_555 1_555
F1 C20 1_555 1_555
O1 C1 1_555 1_555
N1 H1 1_555 1_555
C1 C2 1_555 1_555
C2 P1 1_555 1_555
C3 N1 1_555 1_555
C4 P1 1_555 1_555
C5 C4 1_555 1_555
H2 C5 1_555 1_555
C6 C5 1_555 1_555
H3 C6 1_555 1_555
C7 C6 1_555 1_555
H4 C7 1_555 1_555
C8 C7 1_555 1_555
H5 C8 1_555 1_555
C9 C4 1_555 1_555
H6 C9 1_555 1_555
C10 P1 1_555 1_555
C11 C10 1_555 1_555
H7 C11 1_555 1_555
C12 C11 1_555 1_555
H8 C12 1_555 1_555
C13 C12 1_555 1_555
H9 C13 1_555 1_555
C14 C13 1_555 1_555
H10 C14 1_555 1_555
C15 C10 1_555 1_555
H11 C15 1_555 1_555
C16 N1 1_555 1_555
C17 C16 1_555 1_555
H12 C17 1_555 1_555
C18 C17 1_555 1_555
H13 C18 1_555 1_555
C19 C18 1_555 1_555
H14 C19 1_555 1_555
C20 C19 1_555 1_555
C21 C16 1_555 1_555
H15 C21 1_555 1_555
P1A O2A 1_555 1_555
F1A C20A 1_555 1_555
O1A C1A 1_555 1_555
N1A H1A 1_555 1_555
C1A C3 1_555 1_555
C2A P1A 1_555 1_555
C3A C1 1_555 1_555
C4A P1A 1_555 1_555
C5A C4A 1_555 1_555
H2A C5A 1_555 1_555
C6A C5A 1_555 1_555
H3A C6A 1_555 1_555
C7A C6A 1_555 1_555
H4A C7A 1_555 1_555
C8A C7A 1_555 1_555
H5A C8A 1_555 1_555
C9A C4A 1_555 1_555
H6A C9A 1_555 1_555
C10A P1A 1_555 1_555
C11A C10A 1_555 1_555
H7A C11A 1_555 1_555
C12A C11A 1_555 1_555
H8A C12A 1_555 1_555
C13A C12A 1_555 1_555
H9A C13A 1_555 1_555
C14A C13A 1_555 1_555
H10A C14A 1_555 1_555
C15A C10A 1_555 1_555
H11A C15A 1_555 1_555
C16A N1A 1_555 1_555
C17A C16A 1_555 1_555
H12A C17A 1_555 1_555
C18A C17A 1_555 1_555
H13A C18A 1_555 1_555
C19A C18A 1_555 1_555
H14A C19A 1_555 1_555
C20A C19A 1_555 1_555
C21A C16A 1_555 1_555
H15A C21A 1_555 1_555
C2 C3 1_555 1_555
C8 C9 1_555 1_555
C14 C15 1_555 1_555
C20 C21 1_555 1_555
N1A C3A 1_555 1_555
C1A C2A 1_555 1_555
C2A C3A 1_555 1_555
C8A C9A 1_555 1_555
C14A C15A 1_555 1_555
C20A C21A 1_555 1_555

#END
