
#######################################################################
#
#                 Cambridge Crystallographic Data Centre
#                                CCDC 
#
#######################################################################
#
# If this CIF has been generated from an entry in the Cambridge 
# Structural Database, then it will include bibliographic, chemical, 
# crystal, experimental, refinement or atomic coordinate data resulting 
# from the CCDC's data processing and validation procedures.
#
#######################################################################

data_VAXDOP
_chemical_formula_moiety         'C23 H13 N1 O3 S3'
_chemical_name_systematic        
Indolizine-1,2,3-triyltris(2-thienylmethanone)
_symmetry_cell_setting           monoclinic
_symmetry_space_group_name_H-M   'P 21/n'
_symmetry_Int_Tables_number      14
_space_group_name_Hall           '-P 2yn'
loop_
_symmetry_equiv_pos_site_id
_symmetry_equiv_pos_as_xyz
1 x,y,z
2 1/2-x,1/2+y,1/2-z
3 -x,-y,-z
4 1/2+x,1/2-y,1/2+z
_cell_length_a                   12.8393(11)
_cell_length_b                   9.5740(9)
_cell_length_c                   16.4523(15)
_cell_angle_alpha                90
_cell_angle_beta                 92.112(2)
_cell_angle_gamma                90
_cell_volume                     2021
_exptl_crystal_colour            yellow
_exptl_crystal_description       block
_cell_formula_units_Z            4
loop_
_atom_site_label
_atom_site_type_symbol
_atom_site_fract_x
_atom_site_fract_y
_atom_site_fract_z
C1 C 0.8642(2) 0.9024(3) 0.42704(16)
H1 H 0.9348 0.8821 0.4246
C2 C 0.8168(2) 0.8951(3) 0.49804(17)
H2 H 0.8550 0.8703 0.5450
C3 C 0.7102(2) 0.9244(3) 0.50234(16)
H3 H 0.6786 0.9212 0.5523
C4 C 0.6530(2) 0.9574(3) 0.43432(16)
H4 H 0.5821 0.9755 0.4373
C5 C 0.70153(19) 0.9642(3) 0.35887(15)
C6 C 0.66708(19) 0.9977(3) 0.27894(15)
C7 C 0.75518(19) 0.9948(3) 0.23070(14)
C8 C 0.84214(19) 0.9570(3) 0.27825(14)
C9 C 0.9520(2) 0.9473(3) 0.25915(16)
C10 C 0.97558(19) 0.8999(3) 0.17657(16)
C11 C 0.9191(2) 0.8143(3) 0.12521(15)
H5 H 0.8553 0.7754 0.1377
C12 C 0.9684(2) 0.7915(3) 0.05117(17)
H6 H 0.9406 0.7360 0.0094
C13 C 1.0602(2) 0.8593(3) 0.04775(18)
H7 H 1.1023 0.8569 0.0030
C14 C 0.7537(2) 1.0355(3) 0.14256(15)
C15 C 0.6889(2) 0.9501(3) 0.08753(15)
C16 C 0.6397(2) 0.8257(3) 0.10353(16)
H8 H 0.6398 0.7835 0.1544
C17 C 0.5891(2) 0.7704(4) 0.03330(19)
H9 H 0.5518 0.6871 0.0328
C18 C 0.6002(3) 0.8504(4) -0.03299(19)
H10 H 0.5717 0.8283 -0.0842
C19 C 0.5640(2) 1.0458(3) 0.24905(15)
C20 C 0.4702(2) 0.9798(3) 0.27849(16)
C21 C 0.4566(2) 0.8514(3) 0.31453(16)
H11 H 0.5109 0.7909 0.3289
C22 C 0.3507(2) 0.8227(4) 0.32697(19)
H12 H 0.3275 0.7407 0.3507
C23 C 0.2869(2) 0.9257(4) 0.30115(18)
H13 H 0.2149 0.9231 0.3052
N1 N 0.80799(16) 0.9402(2) 0.35778(12)
O1 O 1.02168(15) 0.9789(3) 0.30854(12)
O2 O 0.80516(14) 1.1339(2) 0.12009(10)
O3 O 0.55755(14) 1.1375(2) 0.19689(10)
S1 S 1.09001(6) 0.94924(9) 0.13405(5)
S2 S 0.67188(6) 0.99584(10) -0.01293(4)
S3 S 0.35193(6) 1.06091(10) 0.26036(5)
loop_
_geom_bond_atom_site_label_1
_geom_bond_atom_site_label_2
_geom_bond_site_symmetry_1
_geom_bond_site_symmetry_2
C1 H1 1_555 1_555
C2 C1 1_555 1_555
H2 C2 1_555 1_555
C3 C2 1_555 1_555
H3 C3 1_555 1_555
C4 C3 1_555 1_555
H4 C4 1_555 1_555
C5 C4 1_555 1_555
C6 C5 1_555 1_555
C7 C6 1_555 1_555
C8 C7 1_555 1_555
C9 C8 1_555 1_555
C10 C9 1_555 1_555
C11 C10 1_555 1_555
H5 C11 1_555 1_555
C12 C11 1_555 1_555
H6 C12 1_555 1_555
C13 C12 1_555 1_555
H7 C13 1_555 1_555
C14 C7 1_555 1_555
C15 C14 1_555 1_555
C16 C15 1_555 1_555
H8 C16 1_555 1_555
C17 C16 1_555 1_555
H9 C17 1_555 1_555
C18 C17 1_555 1_555
H10 C18 1_555 1_555
C19 C6 1_555 1_555
C20 C19 1_555 1_555
C21 C20 1_555 1_555
H11 C21 1_555 1_555
C22 C21 1_555 1_555
H12 C22 1_555 1_555
C23 C22 1_555 1_555
H13 C23 1_555 1_555
N1 C1 1_555 1_555
O1 C9 1_555 1_555
O2 C14 1_555 1_555
O3 C19 1_555 1_555
S1 C10 1_555 1_555
S2 C15 1_555 1_555
S3 C20 1_555 1_555
C5 N1 1_555 1_555
C8 N1 1_555 1_555
C13 S1 1_555 1_555
C18 S2 1_555 1_555
C23 S3 1_555 1_555

#END
