
#######################################################################
#
#                 Cambridge Crystallographic Data Centre
#                                CCDC 
#
#######################################################################
#
# If this CIF has been generated from an entry in the Cambridge 
# Structural Database, then it will include bibliographic, chemical, 
# crystal, experimental, refinement or atomic coordinate data resulting 
# from the CCDC's data processing and validation procedures.
#
#######################################################################

data_VAXKUC
_chemical_formula_moiety         'C21 H31 N5 O10'
_chemical_name_systematic        
'Tri-t-butyl (2,4-dinitrobenzene-1,3,5-triyl)triscarbamate'
_symmetry_cell_setting           orthorhombic
_symmetry_space_group_name_H-M   'P b c a'
_symmetry_Int_Tables_number      61
_space_group_name_Hall           '-P 2ac 2ab'
loop_
_symmetry_equiv_pos_site_id
_symmetry_equiv_pos_as_xyz
1 x,y,z
2 1/2+x,1/2-y,-z
3 -x,1/2+y,1/2-z
4 1/2-x,-y,1/2+z
5 -x,-y,-z
6 1/2-x,1/2+y,z
7 x,1/2-y,1/2+z
8 1/2+x,y,1/2-z
_cell_length_a                   14.0085(6)
_cell_length_b                   9.1163(4)
_cell_length_c                   42.3260(17)
_cell_angle_alpha                90
_cell_angle_beta                 90
_cell_angle_gamma                90
_cell_volume                     5405.27
_exptl_crystal_colour            orange
_exptl_crystal_description       needle
_chemical_melting_point          '426 K'
_cell_formula_units_Z            8
loop_
_atom_site_label
_atom_site_type_symbol
_atom_site_fract_x
_atom_site_fract_y
_atom_site_fract_z
O1 O -0.00858(13) 0.88182(18) 0.20869(4)
N1 N 0.05339(13) 0.7314(2) 0.17411(4)
O2 O 0.06612(10) 0.35567(17) 0.02994(3)
O3 O 0.51714(10) 0.67025(18) 0.11699(4)
O4 O 0.42157(12) 0.5131(2) 0.09065(5)
O5 O 0.32125(11) 0.85518(18) 0.17360(4)
O6 O 0.22913(12) 0.72654(19) 0.20367(3)
O7 O 0.11209(12) 0.96498(17) 0.17758(4)
O8 O -0.07329(11) 0.5664(2) 0.09969(4)
O9 O -0.06909(12) 0.5436(2) 0.15004(4)
N2 N 0.08812(12) 0.47461(19) 0.07423(4)
H1 H 0.0268 0.4735 0.0737
C1 C 0.6141(2) 0.4506(4) 0.11547(13)
H2 H 0.608 0.4447 0.138
H3 H 0.6747 0.4111 0.1092
H4 H 0.5638 0.3953 0.1057
N3 N 0.36391(11) 0.68792(19) 0.12428(4)
H5 H 0.3821 0.7623 0.1352
N4 N 0.25559(13) 0.7670(2) 0.17771(4)
N5 N -0.02946(13) 0.5686(2) 0.12481(5)
O10 O 0.21775(11) 0.3812(2) 0.04790(4)
C2 C -0.0194(3) 1.0198(3) 0.22737(7)
C3 C 0.05785(17) 0.8716(3) 0.18629(5)
C4 C 0.11184(14) 0.6783(2) 0.15004(4)
C5 C 0.07203(13) 0.5998(2) 0.12460(4)
C6 C 0.12901(13) 0.5502(2) 0.09924(4)
C7 C 0.13396(16) 0.4009(2) 0.05012(5)
C8 C 0.09134(18) 0.2755(3) 0.00071(5)
C9 C 0.1425(2) 0.1350(3) 0.00913(7)
H6 H 0.2056 0.1574 0.0166
H7 H 0.1467 0.0735 -0.0092
H8 H 0.1077 0.0848 0.0254
C10 C 0.60748(16) 0.6077(3) 0.10533(7)
C11 C 0.68096(18) 0.6997(4) 0.12191(9)
H9 H 0.6709 0.6945 0.1443
H10 H 0.6754 0.7997 0.1151
H11 H 0.7436 0.6637 0.117
C12 C 0.43369(15) 0.6122(3) 0.10853(5)
C13 C 0.26702(13) 0.6571(2) 0.12439(4)
C14 C 0.20973(13) 0.7044(2) 0.14976(4)
C15 C 0.0713(3) 1.0483(4) 0.24571(8)
H12 H 0.088 0.9623 0.2576
H13 H 0.0615 1.129 0.2599
H14 H 0.122 1.0716 0.2313
C16 C -0.0463(3) 1.1433(4) 0.20514(8)
H15 H 0.0063 1.1638 0.1913
H16 H -0.0612 1.2296 0.2172
H17 H -0.1009 1.115 0.1929
C17 C -0.0057(2) 0.2452(3) -0.01352(6)
H18 H -0.042 0.1846 0.0006
H19 H 0.002 0.1955 -0.0334
H20 H -0.0388 0.3362 -0.0168
C18 C 0.1477(2) 0.3756(4) -0.02048(6)
H21 H 0.1153 0.4679 -0.0224
H22 H 0.1539 0.3315 -0.041
H23 H 0.21 0.3911 -0.0116
C19 C 0.22566(13) 0.5799(2) 0.09983(4)
H24 H 0.2639 0.5472 0.0833
C20 C 0.6129(2) 0.6300(5) 0.07060(8)
H25 H 0.6716 0.5896 0.0628
H26 H 0.6106 0.733 0.066
H27 H 0.56 0.5817 0.0606
C21 C -0.1023(3) 0.9800(4) 0.24883(10)
H28 H -0.1574 0.9573 0.2362
H29 H -0.1165 1.0613 0.2625
H30 H -0.0855 0.8961 0.2614
H31 H 0.0053(17) 0.675(3) 0.1784(5)
loop_
_geom_bond_atom_site_label_1
_geom_bond_atom_site_label_2
_geom_bond_site_symmetry_1
_geom_bond_site_symmetry_2
O1 C2 1_555 1_555
N1 C3 1_555 1_555
O2 C7 1_555 1_555
O3 C10 1_555 1_555
O4 C12 1_555 1_555
O5 N4 1_555 1_555
O6 N4 1_555 1_555
O7 C3 1_555 1_555
O8 N5 1_555 1_555
O9 N5 1_555 1_555
N2 H1 1_555 1_555
C1 H2 1_555 1_555
H3 C1 1_555 1_555
H4 C1 1_555 1_555
N3 H5 1_555 1_555
N4 C14 1_555 1_555
N5 C5 1_555 1_555
O10 C7 1_555 1_555
C2 C15 1_555 1_555
C3 O1 1_555 1_555
C4 N1 1_555 1_555
C5 C4 1_555 1_555
C6 N2 1_555 1_555
C7 N2 1_555 1_555
C8 O2 1_555 1_555
C9 C8 1_555 1_555
H6 C9 1_555 1_555
H7 C9 1_555 1_555
H8 C9 1_555 1_555
C10 C1 1_555 1_555
C11 C10 1_555 1_555
H9 C11 1_555 1_555
H10 C11 1_555 1_555
H11 C11 1_555 1_555
C12 O3 1_555 1_555
C13 N3 1_555 1_555
C14 C4 1_555 1_555
C15 H12 1_555 1_555
H13 C15 1_555 1_555
H14 C15 1_555 1_555
C16 C2 1_555 1_555
H15 C16 1_555 1_555
H16 C16 1_555 1_555
H17 C16 1_555 1_555
C17 C8 1_555 1_555
H18 C17 1_555 1_555
H19 C17 1_555 1_555
H20 C17 1_555 1_555
C18 C8 1_555 1_555
H21 C18 1_555 1_555
H22 C18 1_555 1_555
H23 C18 1_555 1_555
C19 C6 1_555 1_555
H24 C19 1_555 1_555
C20 C10 1_555 1_555
H25 C20 1_555 1_555
H26 C20 1_555 1_555
H27 C20 1_555 1_555
C21 C2 1_555 1_555
H28 C21 1_555 1_555
H29 C21 1_555 1_555
H30 C21 1_555 1_555
H31 N1 1_555 1_555
N3 C12 1_555 1_555
C5 C6 1_555 1_555
C13 C14 1_555 1_555
C13 C19 1_555 1_555

#END
