
#######################################################################
#
#                 Cambridge Crystallographic Data Centre
#                                CCDC 
#
#######################################################################
#
# If this CIF has been generated from an entry in the Cambridge 
# Structural Database, then it will include bibliographic, chemical, 
# crystal, experimental, refinement or atomic coordinate data resulting 
# from the CCDC's data processing and validation procedures.
#
#######################################################################

data_VAXLEN
_chemical_formula_moiety         'C18 H18 N2 O2'
_chemical_name_systematic        
3,4-Dimethoxy-6-methyl-5,6-dihydrobenzimidazo[2,1-a]isoquinoline
_symmetry_cell_setting           monoclinic
_symmetry_space_group_name_H-M   'P 21'
_symmetry_Int_Tables_number      4
_space_group_name_Hall           'P 2yb'
loop_
_symmetry_equiv_pos_site_id
_symmetry_equiv_pos_as_xyz
1 x,y,z
2 -x,1/2+y,-z
_cell_length_a                   6.7204(9)
_cell_length_b                   8.6319(11)
_cell_length_c                   13.1308(17)
_cell_angle_alpha                90
_cell_angle_beta                 90.268(2)
_cell_angle_gamma                90
_cell_volume                     761.707
_exptl_crystal_colour            colorless
_cell_formula_units_Z            2
loop_
_atom_site_label
_atom_site_type_symbol
_atom_site_fract_x
_atom_site_fract_y
_atom_site_fract_z
O1 O 0.0977(2) 0.6921(2) 0.92663(10)
O2 O 0.3106(2) 0.45529(19) 0.85579(9)
N1 N 0.09669(19) 0.68436(18) 0.43108(10)
N2 N 0.33957(19) 0.51850(15) 0.47683(10)
C1 C -0.0232(5) 0.8131(4) 0.96729(18)
H1 H 0.0314 0.9117 0.9485
H2 H -0.0265 0.8047 1.0402
H3 H -0.1559 0.8041 0.9405
C2 C 0.1071(3) 0.6785(2) 0.82318(13)
C3 C 0.0146(3) 0.7781(2) 0.75497(14)
H4 H -0.0631 0.8595 0.7787
C4 C 0.0387(2) 0.7560(2) 0.65140(13)
H5 H -0.0207 0.8242 0.6056
C5 C 0.1508(2) 0.63271(19) 0.61526(12)
C6 C 0.1870(2) 0.61274(18) 0.50740(12)
C7 C 0.2013(2) 0.6374(2) 0.34528(12)
C8 C 0.1749(3) 0.6799(2) 0.24364(13)
H6 H 0.0731 0.7468 0.2242
C9 C 0.3052(3) 0.6193(3) 0.17278(14)
H7 H 0.2906 0.6457 0.1045
C10 C 0.4573(3) 0.5196(3) 0.20173(14)
H8 H 0.5430 0.4822 0.1521
C11 C 0.4860(3) 0.4740(2) 0.30132(14)
H9 H 0.5873 0.4062 0.3199
C12 C 0.3551(2) 0.5353(2) 0.37241(12)
C13 C 0.4749(2) 0.43808(19) 0.54737(12)
H10 H 0.5215 0.3430 0.5144
C14 C 0.3553(2) 0.39351(19) 0.64095(13)
H11 H 0.2622 0.3120 0.6229
H12 H 0.4447 0.3533 0.6928
C15 C 0.2422(2) 0.52910(19) 0.68368(13)
C16 C 0.2217(3) 0.5547(2) 0.78692(13)
C17 C 0.4962(4) 0.5123(4) 0.89410(18)
H13 H 0.5869 0.5267 0.8386
H14 H 0.5512 0.4391 0.9415
H15 H 0.4752 0.6095 0.9279
C18 C 0.6545(2) 0.5381(2) 0.57215(13)
H16 H 0.7213 0.5656 0.5102
H17 H 0.7441 0.4815 0.6155
H18 H 0.6118 0.6305 0.6064
loop_
_geom_bond_atom_site_label_1
_geom_bond_atom_site_label_2
_geom_bond_site_symmetry_1
_geom_bond_site_symmetry_2
O1 C1 1_555 1_555
O2 C16 1_555 1_555
N1 C6 1_555 1_555
N2 C6 1_555 1_555
C1 H1 1_555 1_555
H2 C1 1_555 1_555
H3 C1 1_555 1_555
C2 O1 1_555 1_555
C3 C2 1_555 1_555
H4 C3 1_555 1_555
C4 C3 1_555 1_555
H5 C4 1_555 1_555
C5 C4 1_555 1_555
C6 C5 1_555 1_555
C7 N1 1_555 1_555
C8 C7 1_555 1_555
H6 C8 1_555 1_555
C9 C8 1_555 1_555
H7 C9 1_555 1_555
C10 C9 1_555 1_555
H8 C10 1_555 1_555
C11 C10 1_555 1_555
H9 C11 1_555 1_555
C12 N2 1_555 1_555
C13 N2 1_555 1_555
H10 C13 1_555 1_555
C14 C13 1_555 1_555
H11 C14 1_555 1_555
H12 C14 1_555 1_555
C15 C5 1_555 1_555
C16 C2 1_555 1_555
C17 O2 1_555 1_555
H13 C17 1_555 1_555
H14 C17 1_555 1_555
H15 C17 1_555 1_555
C18 C13 1_555 1_555
H16 C18 1_555 1_555
H17 C18 1_555 1_555
H18 C18 1_555 1_555
C7 C12 1_555 1_555
C11 C12 1_555 1_555
C14 C15 1_555 1_555
C15 C16 1_555 1_555

#END
