
#######################################################################
#
#                 Cambridge Crystallographic Data Centre
#                                CCDC 
#
#######################################################################
#
# If this CIF has been generated from an entry in the Cambridge 
# Structural Database, then it will include bibliographic, chemical, 
# crystal, experimental, refinement or atomic coordinate data resulting 
# from the CCDC's data processing and validation procedures.
#
#######################################################################

data_VAXMIS
_chemical_formula_moiety         'C16 H15 N3 O1'
_chemical_name_systematic        
4-Methoxy-6-methyl-5,6-dihydropyrido[2',3':4,5]imidazo[2,1-a]isoquinoline
_symmetry_cell_setting           monoclinic
_symmetry_space_group_name_H-M   'P 21'
_symmetry_Int_Tables_number      4
_space_group_name_Hall           'P 2yb'
loop_
_symmetry_equiv_pos_site_id
_symmetry_equiv_pos_as_xyz
1 x,y,z
2 -x,1/2+y,-z
_cell_length_a                   7.4870(14)
_cell_length_b                   6.6303(12)
_cell_length_c                   13.487(3)
_cell_angle_alpha                90
_cell_angle_beta                 105.544(9)
_cell_angle_gamma                90
_cell_volume                     645.022
_exptl_crystal_colour            brown
_exptl_crystal_description       tabular
_cell_formula_units_Z            2
loop_
_atom_site_label
_atom_site_type_symbol
_atom_site_fract_x
_atom_site_fract_y
_atom_site_fract_z
O1 O -0.30857(13) 1.01868(17) 0.58085(8)
N1 N 0.15799(16) 0.55147(18) 0.78948(9)
N2 N 0.59807(17) 0.3274(2) 0.84064(10)
C1 C 0.4161(2) 0.1103(3) 0.92171(12)
H1 H 0.4140 -0.0085 0.9608
C2 C 0.2597(2) 0.2307(3) 0.89208(11)
H2 H 0.1479 0.1991 0.9092
C3 C 0.2779(2) 0.4000(2) 0.83574(11)
C4 C 0.25715(19) 0.6788(2) 0.74409(11)
C5 C 0.1655(2) 0.8562(2) 0.68890(11)
C6 C -0.0287(2) 0.8628(2) 0.66373(11)
C7 C -0.11907(19) 1.0281(2) 0.60724(11)
C8 C -0.4073(2) 1.1864(2) 0.52584(12)
H3 H -0.3782 1.3080 0.5684
H4 H -0.5408 1.1600 0.5093
H5 H -0.3705 1.2064 0.4620
C9 C -0.0183(2) 1.1846(2) 0.57932(11)
H6 H -0.0807 1.2967 0.5416
C10 C 0.1742(2) 1.1755(2) 0.60711(11)
H7 H 0.2429 1.2833 0.5890
C11 C 0.2673(2) 1.0125(2) 0.66056(11)
H8 H 0.3988 1.0065 0.6779
C12 C 0.5770(2) 0.1632(2) 0.89425(12)
H9 H 0.6804 0.0752 0.9154
C13 C 0.4464(2) 0.4450(2) 0.81222(12)
N3 N 0.43084(17) 0.6208(2) 0.75557(9)
C14 C -0.03655(19) 0.5828(2) 0.79027(11)
H10 H -0.0953 0.4480 0.7924
C15 C -0.13651(19) 0.6876(2) 0.68985(11)
H11 H -0.1595 0.5881 0.6331
H12 H -0.2583 0.7368 0.6954
C16 C -0.0472(2) 0.7020(3) 0.88493(12)
H13 H 0.0223 0.6310 0.9471
H14 H -0.1771 0.7154 0.8859
H15 H 0.0064 0.8362 0.8828
loop_
_geom_bond_atom_site_label_1
_geom_bond_atom_site_label_2
_geom_bond_site_symmetry_1
_geom_bond_site_symmetry_2
O1 C7 1_555 1_555
N1 C3 1_555 1_555
N2 C12 1_555 1_555
C1 H1 1_555 1_555
C2 C1 1_555 1_555
H2 C2 1_555 1_555
C3 C2 1_555 1_555
C4 N1 1_555 1_555
C5 C4 1_555 1_555
C6 C5 1_555 1_555
C7 C6 1_555 1_555
C8 O1 1_555 1_555
H3 C8 1_555 1_555
H4 C8 1_555 1_555
H5 C8 1_555 1_555
C9 C7 1_555 1_555
H6 C9 1_555 1_555
C10 C9 1_555 1_555
H7 C10 1_555 1_555
C11 C5 1_555 1_555
H8 C11 1_555 1_555
C12 C1 1_555 1_555
H9 C12 1_555 1_555
C13 N2 1_555 1_555
N3 C4 1_555 1_555
C14 N1 1_555 1_555
H10 C14 1_555 1_555
C15 C6 1_555 1_555
H11 C15 1_555 1_555
H12 C15 1_555 1_555
C16 C14 1_555 1_555
H13 C16 1_555 1_555
H14 C16 1_555 1_555
H15 C16 1_555 1_555
C3 C13 1_555 1_555
C10 C11 1_555 1_555
C13 N3 1_555 1_555
C14 C15 1_555 1_555

#END
