
#######################################################################
#
#                 Cambridge Crystallographic Data Centre
#                                CCDC 
#
#######################################################################
#
# If this CIF has been generated from an entry in the Cambridge 
# Structural Database, then it will include bibliographic, chemical, 
# crystal, experimental, refinement or atomic coordinate data resulting 
# from the CCDC's data processing and validation procedures.
#
#######################################################################

data_VAXMAK
_chemical_formula_moiety         'C19 H20 N2 O1'
_chemical_name_systematic        
4-Methoxy-6,9,10-trimethyl-5,6-dihydrobenzimidazo[2,1-a]isoquinoline
_symmetry_cell_setting           monoclinic
_symmetry_space_group_name_H-M   'P 21/c'
_symmetry_Int_Tables_number      14
_space_group_name_Hall           '-P 2ybc'
loop_
_symmetry_equiv_pos_site_id
_symmetry_equiv_pos_as_xyz
1 x,y,z
2 -x,1/2+y,1/2-z
3 -x,-y,-z
4 x,1/2-y,1/2+z
_cell_length_a                   9.9894(6)
_cell_length_b                   12.4040(7)
_cell_length_c                   12.4447(7)
_cell_angle_alpha                90
_cell_angle_beta                 92.7910(10)
_cell_angle_gamma                90
_cell_volume                     1540.18
_exptl_crystal_colour            colorless
_cell_formula_units_Z            4
loop_
_atom_site_label
_atom_site_type_symbol
_atom_site_fract_x
_atom_site_fract_y
_atom_site_fract_z
C1 C 0.08810(16) 0.07796(15) 0.10846(16)
H1 H 0.0958 0.0008 0.1097
H2 H 0.0338 0.0996 0.0464
H3 H 0.0472 0.1020 0.1724
C2 C 0.30946(15) 0.10164(13) 0.18540(13)
C3 C 0.43609(15) 0.14788(12) 0.17652(12)
C4 C 0.46628(15) 0.22200(14) 0.08410(13)
H4 H 0.4450 0.2955 0.1036
H5 H 0.4094 0.2026 0.0217
C5 C 0.61243(15) 0.21648(13) 0.05459(12)
H6 H 0.6308 0.2783 0.0085
C6 C 0.82335(14) 0.26789(12) 0.16941(12)
C7 C 0.90644(15) 0.32297(12) 0.10172(13)
H7 H 0.8790 0.3375 0.0307
C8 C 1.03143(15) 0.35562(13) 0.14300(13)
C9 C 1.12634(17) 0.41165(16) 0.07064(16)
H8 H 1.0844 0.4193 0.0000
H9 H 1.2067 0.3697 0.0665
H10 H 1.1483 0.4816 0.0994
C10 C 0.28262(17) 0.03666(14) 0.27243(14)
H11 H 0.1982 0.0060 0.2777
C11 C 0.38179(19) 0.01769(16) 0.35122(14)
H12 H 0.3633 -0.0259 0.4095
C12 C 0.50773(17) 0.06203(14) 0.34525(13)
H13 H 0.5740 0.0483 0.3986
C13 C 0.53408(15) 0.12796(12) 0.25781(12)
C14 C 0.66520(15) 0.17915(12) 0.24951(12)
C15 C 0.64677(19) 0.11432(16) -0.00486(15)
H14 H 0.7406 0.1141 -0.0182
H15 H 0.5955 0.1114 -0.0721
H16 H 0.6259 0.0528 0.0380
C16 C 0.86194(15) 0.24408(13) 0.27647(12)
C17 C 0.98782(16) 0.27794(14) 0.31741(13)
H17 H 1.0150 0.2629 0.3883
C18 C 1.07155(16) 0.33385(13) 0.25220(14)
C19 C 1.20694(18) 0.37126(18) 0.29750(17)
H18 H 1.2165 0.3527 0.3724
H19 H 1.2138 0.4480 0.2896
H20 H 1.2764 0.3368 0.2593
N1 N 0.69577(12) 0.22663(10) 0.15443(10)
N2 N 0.76122(13) 0.18751(11) 0.32547(10)
O1 O 0.21787(11) 0.12460(10) 0.10377(10)
loop_
_geom_bond_atom_site_label_1
_geom_bond_atom_site_label_2
_geom_bond_site_symmetry_1
_geom_bond_site_symmetry_2
C1 H1 1_555 1_555
H2 C1 1_555 1_555
H3 C1 1_555 1_555
C2 C3 1_555 1_555
C3 C4 1_555 1_555
C4 H4 1_555 1_555
H5 C4 1_555 1_555
C5 C4 1_555 1_555
H6 C5 1_555 1_555
C6 C7 1_555 1_555
C7 H7 1_555 1_555
C8 C7 1_555 1_555
C9 C8 1_555 1_555
H8 C9 1_555 1_555
H9 C9 1_555 1_555
H10 C9 1_555 1_555
C10 C2 1_555 1_555
H11 C10 1_555 1_555
C11 C10 1_555 1_555
H12 C11 1_555 1_555
C12 C11 1_555 1_555
H13 C12 1_555 1_555
C13 C3 1_555 1_555
C14 C13 1_555 1_555
C15 C5 1_555 1_555
H14 C15 1_555 1_555
H15 C15 1_555 1_555
H16 C15 1_555 1_555
C16 C6 1_555 1_555
C17 C16 1_555 1_555
H17 C17 1_555 1_555
C18 C8 1_555 1_555
C19 C18 1_555 1_555
H18 C19 1_555 1_555
H19 C19 1_555 1_555
H20 C19 1_555 1_555
N1 C5 1_555 1_555
N2 C14 1_555 1_555
O1 C1 1_555 1_555
C2 O1 1_555 1_555
C6 N1 1_555 1_555
C12 C13 1_555 1_555
C14 N1 1_555 1_555
C16 N2 1_555 1_555
C17 C18 1_555 1_555

#END
