
#######################################################################
#
#                 Cambridge Crystallographic Data Centre
#                                CCDC 
#
#######################################################################
#
# If this CIF has been generated from an entry in the Cambridge 
# Structural Database, then it will include bibliographic, chemical, 
# crystal, experimental, refinement or atomic coordinate data resulting 
# from the CCDC's data processing and validation procedures.
#
#######################################################################

data_VAXNAM
_chemical_formula_moiety         'C21 H28 N4 S1,2(C1 H4 O1)'
_chemical_name_systematic        
'N-cyclohexyl-5-(cyclohexylimino)-2-(phenylimino)-2,5-dihydro-1,3-thiazol-4-amine methanol solvate'
_symmetry_cell_setting           triclinic
_symmetry_space_group_name_H-M   'P -1'
_symmetry_Int_Tables_number      2
_space_group_name_Hall           '-P 1'
loop_
_symmetry_equiv_pos_site_id
_symmetry_equiv_pos_as_xyz
1 x,y,z
2 -x,-y,-z
_cell_length_a                   9.942(2)
_cell_length_b                   11.124(2)
_cell_length_c                   11.990(2)
_cell_angle_alpha                79.49(3)
_cell_angle_beta                 75.36(3)
_cell_angle_gamma                71.02(3)
_cell_volume                     1205.93
_exptl_crystal_colour            colorless
_exptl_crystal_description       block
_cell_formula_units_Z            2
loop_
_atom_site_label
_atom_site_type_symbol
_atom_site_fract_x
_atom_site_fract_y
_atom_site_fract_z
S1 S 0.84687(4) 0.69469(3) 0.48661(3)
N1 N 0.80701(13) 0.55352(11) 0.70021(10)
N2 N 0.75638(12) 0.37071(10) 0.59093(9)
H1 H 0.748582 0.359605 0.664908
N3 N 0.78241(12) 0.50588(10) 0.42080(9)
N4 N 0.79374(13) 0.67606(11) 0.27885(10)
C1 C 0.83618(16) 0.65138(13) 0.75035(11)
H2 H 0.903367 0.689368 0.691390
C2 C 0.69520(19) 0.75598(15) 0.78513(14)
H3 H 0.625596 0.718804 0.840144
H4 H 0.654311 0.795352 0.717252
C3 C 0.7221(2) 0.85784(16) 0.83976(16)
H5 H 0.782602 0.901808 0.781754
H6 H 0.630016 0.920372 0.866001
C4 C 0.7961(2) 0.79929(17) 0.94175(14)
H7 H 0.818852 0.865087 0.970202
H8 H 0.730287 0.765266 1.004087
C5 C 0.9341(2) 0.69364(18) 0.90701(17)
H9 H 0.975396 0.654476 0.974729
H10 H 1.004168 0.729687 0.851321
C6 C 0.9064(2) 0.59128(15) 0.85371(15)
H11 H 0.997693 0.527025 0.829192
H12 H 0.843160 0.549581 0.911313
C7 C 0.74258(14) 0.27147(12) 0.53280(11)
H13 H 0.797644 0.277716 0.452756
C8 C 0.58537(16) 0.28997(14) 0.52851(15)
H14 H 0.545226 0.374159 0.490104
H15 H 0.527978 0.283963 0.606715
C9 C 0.57848(18) 0.18722(15) 0.46240(17)
H16 H 0.477697 0.196688 0.463418
H17 H 0.627962 0.199087 0.382205
C10 C 0.64869(17) 0.05298(14) 0.51558(15)
H18 H 0.591746 0.036944 0.592288
H19 H 0.649490 -0.009293 0.468178
C11 C 0.80331(16) 0.03735(13) 0.52437(13)
H20 H 0.862957 0.043127 0.447032
H21 H 0.842953 -0.046637 0.563341
C12 C 0.80917(16) 0.13957(13) 0.59109(13)
H22 H 0.756033 0.130004 0.670418
H23 H 0.909346 0.129459 0.592684
C13 C 0.78051(14) 0.47665(12) 0.53204(11)
C14 C 0.80922(14) 0.56950(12) 0.59291(11)
C15 C 0.80661(14) 0.62217(12) 0.38071(11)
C16 C 0.81964(16) 0.79677(13) 0.24097(11)
C17 C 0.95883(18) 0.80843(16) 0.21654(14)
H24 H 1.036783 0.737457 0.229222
C18 C 0.9819(2) 0.92629(18) 0.17306(15)
H25 H 1.075559 0.933987 0.156190
C19 C 0.8666(2) 1.03181(16) 0.15485(15)
H26 H 0.882239 1.110713 0.126022
C20 C 0.7278(2) 1.02011(16) 0.17952(15)
H27 H 0.649874 1.091504 0.167846
C21 C 0.70398(18) 0.90291(15) 0.22145(13)
H28 H 0.610494 0.895234 0.236557
O1 O 0.63272(15) 0.57980(13) 0.16978(11)
H29 H 0.682668 0.603174 0.201353
C22 C 0.6398(3) 0.4516(2) 0.21032(19)
H30 H 0.715252 0.396675 0.158888
H31 H 0.548272 0.438221 0.213133
H32 H 0.660693 0.432205 0.286616
O2 O 0.34895(14) 0.70566(13) 0.16545(10)
H33 H 0.433845 0.678889 0.172640
C23 C 0.3379(2) 0.6699(2) 0.06126(16)
H34 H 0.409690 0.693053 -0.001726
H35 H 0.242701 0.713356 0.045938
H36 H 0.353947 0.579196 0.069003
loop_
_geom_bond_atom_site_label_1
_geom_bond_atom_site_label_2
_geom_bond_site_symmetry_1
_geom_bond_site_symmetry_2
S1 C14 1_555 1_555
N1 C1 1_555 1_555
N2 H1 1_555 1_555
N3 C13 1_555 1_555
N4 C15 1_555 1_555
C1 H2 1_555 1_555
C2 C1 1_555 1_555
H3 C2 1_555 1_555
H4 C2 1_555 1_555
C3 C2 1_555 1_555
H5 C3 1_555 1_555
H6 C3 1_555 1_555
C4 C3 1_555 1_555
H7 C4 1_555 1_555
H8 C4 1_555 1_555
C5 C4 1_555 1_555
H9 C5 1_555 1_555
H10 C5 1_555 1_555
C6 C1 1_555 1_555
H11 C6 1_555 1_555
H12 C6 1_555 1_555
C7 N2 1_555 1_555
H13 C7 1_555 1_555
C8 C7 1_555 1_555
H14 C8 1_555 1_555
H15 C8 1_555 1_555
C9 C8 1_555 1_555
H16 C9 1_555 1_555
H17 C9 1_555 1_555
C10 C9 1_555 1_555
H18 C10 1_555 1_555
H19 C10 1_555 1_555
C11 C10 1_555 1_555
H20 C11 1_555 1_555
H21 C11 1_555 1_555
C12 C7 1_555 1_555
H22 C12 1_555 1_555
H23 C12 1_555 1_555
C13 N2 1_555 1_555
C14 N1 1_555 1_555
C15 S1 1_555 1_555
C16 N4 1_555 1_555
C17 C16 1_555 1_555
H24 C17 1_555 1_555
C18 C17 1_555 1_555
H25 C18 1_555 1_555
C19 C18 1_555 1_555
H26 C19 1_555 1_555
C20 C19 1_555 1_555
H27 C20 1_555 1_555
C21 C16 1_555 1_555
H28 C21 1_555 1_555
O1 H29 1_555 1_555
C22 O1 1_555 1_555
H30 C22 1_555 1_555
H31 C22 1_555 1_555
H32 C22 1_555 1_555
O2 H33 1_555 1_555
C23 O2 1_555 1_555
H34 C23 1_555 1_555
H35 C23 1_555 1_555
H36 C23 1_555 1_555
N3 C15 1_555 1_555
C5 C6 1_555 1_555
C11 C12 1_555 1_555
C13 C14 1_555 1_555
C20 C21 1_555 1_555

#END
