
#######################################################################
#
#                 Cambridge Crystallographic Data Centre
#                                CCDC 
#
#######################################################################
#
# If this CIF has been generated from an entry in the Cambridge 
# Structural Database, then it will include bibliographic, chemical, 
# crystal, experimental, refinement or atomic coordinate data resulting 
# from the CCDC's data processing and validation procedures.
#
#######################################################################

data_VAXPIV
_chemical_formula_moiety         'C17 H12 N2 O3'
_chemical_name_systematic        
2-(1H-Indol-3-yl)-3-(4-nitrophenyl)acrylaldehyde
_symmetry_cell_setting           monoclinic
_symmetry_space_group_name_H-M   'P 21/c'
_symmetry_Int_Tables_number      14
_space_group_name_Hall           '-P 2ybc'
loop_
_symmetry_equiv_pos_site_id
_symmetry_equiv_pos_as_xyz
1 x,y,z
2 -x,1/2+y,1/2-z
3 -x,-y,-z
4 x,1/2-y,1/2+z
_cell_length_a                   16.9797(8)
_cell_length_b                   11.6330(5)
_cell_length_c                   7.2322(3)
_cell_angle_alpha                90
_cell_angle_beta                 90.007(2)
_cell_angle_gamma                90
_cell_volume                     1428.54
_exptl_crystal_colour            orange
_exptl_crystal_description       cut-prism
_cell_formula_units_Z            4
loop_
_atom_site_label
_atom_site_type_symbol
_atom_site_fract_x
_atom_site_fract_y
_atom_site_fract_z
C1 C 0.71233(5) 0.02340(7) -0.10711(12)
H1 H 0.7647 -0.0022 -0.0867
C2 C 0.65780(5) -0.05003(7) -0.18817(13)
H2 H 0.6723 -0.1259 -0.2229
C3 C 0.58193(5) -0.01042(7) -0.21741(13)
N1 N 0.52521(5) -0.08676(7) -0.30770(13)
O1 O 0.54865(6) -0.18091(7) -0.36157(17)
O2 O 0.45730(5) -0.05244(8) -0.32827(16)
C4 C 0.55817(5) 0.09927(8) -0.16881(16)
H3 H 0.5057 0.1242 -0.1901
C5 C 0.61298(5) 0.17154(7) -0.08845(14)
H4 H 0.5979 0.2474 -0.0551
C6 C 0.69048(5) 0.13515(6) -0.05518(12)
C7 C 0.74537(5) 0.21845(7) 0.02301(12)
H5 H 0.7289 0.2962 0.0129
C8 C 0.81605(5) 0.20376(6) 0.10788(11)
C9 C 0.85793(6) 0.31341(7) 0.13991(13)
H6 H 0.8314 0.3824 0.1075
O3 O 0.92352(5) 0.32204(7) 0.20433(15)
C10 C 0.85276(5) 0.09763(7) 0.17259(12)
C11 C 0.93298(5) 0.07721(8) 0.17503(16)
H7 H 0.9718 0.1275 0.1259
N2 N 0.94826(5) -0.02566(8) 0.25826(15)
H8 H 0.9953 -0.0559 0.2734
C12 C 0.87880(6) -0.07450(8) 0.31453(13)
C13 C 0.86598(8) -0.17671(8) 0.41151(16)
H9 H 0.9086 -0.2245 0.4480
C14 C 0.78930(8) -0.20551(8) 0.45221(16)
H10 H 0.7786 -0.2752 0.5159
C15 C 0.72664(7) -0.13363(8) 0.40123(14)
H11 H 0.6743 -0.1559 0.4306
C16 C 0.73922(5) -0.03099(7) 0.30911(13)
H12 H 0.6963 0.0176 0.2777
C17 C 0.81665(5) -0.00019(7) 0.26299(11)
loop_
_geom_bond_atom_site_label_1
_geom_bond_atom_site_label_2
_geom_bond_site_symmetry_1
_geom_bond_site_symmetry_2
C1 H1 1_555 1_555
C2 C1 1_555 1_555
H2 C2 1_555 1_555
C3 C2 1_555 1_555
N1 C3 1_555 1_555
O1 N1 1_555 1_555
O2 N1 1_555 1_555
C4 C3 1_555 1_555
H3 C4 1_555 1_555
C5 C4 1_555 1_555
H4 C5 1_555 1_555
C6 C1 1_555 1_555
C7 C6 1_555 1_555
H5 C7 1_555 1_555
C8 C7 1_555 1_555
C9 C8 1_555 1_555
H6 C9 1_555 1_555
O3 C9 1_555 1_555
C10 C8 1_555 1_555
C11 C10 1_555 1_555
H7 C11 1_555 1_555
N2 C11 1_555 1_555
H8 N2 1_555 1_555
C12 N2 1_555 1_555
C13 C12 1_555 1_555
H9 C13 1_555 1_555
C14 C13 1_555 1_555
H10 C14 1_555 1_555
C15 C14 1_555 1_555
H11 C15 1_555 1_555
C16 C15 1_555 1_555
H12 C16 1_555 1_555
C17 C10 1_555 1_555
C5 C6 1_555 1_555
C12 C17 1_555 1_555
C16 C17 1_555 1_555

#END
