
#######################################################################
#
#                 Cambridge Crystallographic Data Centre
#                                CCDC 
#
#######################################################################
#
# If this CIF has been generated from an entry in the Cambridge 
# Structural Database, then it will include bibliographic, chemical, 
# crystal, experimental, refinement or atomic coordinate data resulting 
# from the CCDC's data processing and validation procedures.
#
#######################################################################

data_VAXQAO
_chemical_formula_moiety         'C8 H7 F2 N1 O1'
_chemical_name_systematic        N-(2,5-Difluorophenyl)acetamide
_symmetry_cell_setting           monoclinic
_symmetry_space_group_name_H-M   'P 21/c'
_symmetry_Int_Tables_number      14
_space_group_name_Hall           '-P 2ybc'
loop_
_symmetry_equiv_pos_site_id
_symmetry_equiv_pos_as_xyz
1 x,y,z
2 -x,1/2+y,1/2-z
3 -x,-y,-z
4 x,1/2-y,1/2+z
_cell_length_a                   7.3663(9)
_cell_length_b                   11.9295(13)
_cell_length_c                   9.5034(11)
_cell_angle_alpha                90
_cell_angle_beta                 111.016(7)
_cell_angle_gamma                90
_cell_volume                     779.571
_cell_formula_units_Z            4
loop_
_atom_site_label
_atom_site_type_symbol
_atom_site_fract_x
_atom_site_fract_y
_atom_site_fract_z
F1 F 0.81562(18) 0.01114(9) 1.18415(12)
C1 C 0.7585(2) 0.05575(13) 0.93137(18)
N1 N 0.8346(2) 0.16257(11) 0.98220(15)
C2 C 0.8862(3) 0.24282(12) 0.90270(18)
O1 O 0.8655(2) 0.23073(10) 0.77006(13)
C3 C 0.7486(3) -0.02100(14) 1.03791(19)
F2 F 0.5508(2) -0.11747(11) 0.60083(14)
C4 C 0.6900(3) 0.02120(14) 0.7818(2)
H1 H 0.6939 0.0692 0.7058
C5 C 0.6730(3) -0.12659(16) 1.0013(3)
H2 H 0.6676 -0.1752 1.0762
C6 C 0.6052(3) -0.16014(16) 0.8530(3)
H3 H 0.5534 -0.2314 0.8253
C7 C 0.6165(3) -0.08551(16) 0.7484(2)
C8 C 0.9690(3) 0.34782(15) 0.9871(2)
H4 H 1.0679 0.3767 0.9532
H5 H 1.0246 0.3317 1.0930
H6 H 0.8676 0.4025 0.9693
H7 H 0.855(2) 0.1771(14) 1.075(2)
loop_
_geom_bond_atom_site_label_1
_geom_bond_atom_site_label_2
_geom_bond_site_symmetry_1
_geom_bond_site_symmetry_2
F1 C3 1_555 1_555
C1 N1 1_555 1_555
N1 C2 1_555 1_555
C2 O1 1_555 1_555
C3 C1 1_555 1_555
F2 C7 1_555 1_555
C4 C1 1_555 1_555
H1 C4 1_555 1_555
C5 C3 1_555 1_555
H2 C5 1_555 1_555
C6 C5 1_555 1_555
H3 C6 1_555 1_555
C7 C4 1_555 1_555
C8 C2 1_555 1_555
H4 C8 1_555 1_555
H5 C8 1_555 1_555
H6 C8 1_555 1_555
H7 N1 1_555 1_555
C6 C7 1_555 1_555

#END
