
#######################################################################
#
#                 Cambridge Crystallographic Data Centre
#                                CCDC 
#
#######################################################################
#
# If this CIF has been generated from an entry in the Cambridge 
# Structural Database, then it will include bibliographic, chemical, 
# crystal, experimental, refinement or atomic coordinate data resulting 
# from the CCDC's data processing and validation procedures.
#
#######################################################################

data_VAXZAW
_chemical_formula_moiety         'C11 H11 Cl1 O6'
_chemical_name_systematic        
'3-Chloro-5-oxofuran-2(5H)-ylidenemalonic acid diethyl ester'
_symmetry_cell_setting           triclinic
_symmetry_space_group_name_H-M   'P -1'
_symmetry_Int_Tables_number      2
_space_group_name_Hall           '-P 1'
loop_
_symmetry_equiv_pos_site_id
_symmetry_equiv_pos_as_xyz
1 x,y,z
2 -x,-y,-z
_cell_length_a                   8.417(3)
_cell_length_b                   8.982(3)
_cell_length_c                   10.245(4)
_cell_angle_alpha                70.426(5)
_cell_angle_beta                 68.827(5)
_cell_angle_gamma                62.193(5)
_cell_volume                     625.692
_exptl_crystal_colour            yellow-brown
_cell_formula_units_Z            2
loop_
_atom_site_label
_atom_site_type_symbol
_atom_site_fract_x
_atom_site_fract_y
_atom_site_fract_z
Cl1 Cl 0.19870(10) 0.19224(7) 0.71907(5)
O1 O 0.32032(17) 0.43211(14) 0.32369(12)
O2 O 0.32037(17) 0.47549(16) 0.73690(13)
O3 O 0.23935(19) 0.76725(15) 0.30833(13)
O4 O 0.4032(2) 0.24604(18) 0.18554(14)
C1 C 0.2677(2) 0.42776(19) 0.46749(16)
O5 O 0.2792(3) 0.80616(19) 0.49592(17)
C2 C 0.2363(2) 0.55805(19) 0.52186(16)
C3 C 0.2583(2) 0.2593(2) 0.53935(17)
C4 C 0.2544(3) 0.7231(2) 0.44020(19)
O6 O 0.01876(19) 0.6091(2) 0.74311(15)
C5 C 0.1776(2) 0.5499(2) 0.68026(17)
C6 C 0.3484(2) 0.2750(2) 0.30214(19)
C7 C 0.3030(3) 0.1706(2) 0.4424(2)
C8 C 0.2798(3) 0.4587(3) 0.8909(2)
H1 H 0.3876 0.3711 0.9248
H2 H 0.1785 0.4206 0.9375
C9 C 0.2527(4) 0.9315(2) 0.2282(2)
H3 H 0.3716 0.9286 0.2226
H4 H 0.1557 1.0238 0.2755
C10 C 0.2296(4) 0.6204(4) 0.9326(2)
H5 H 0.3257 0.6630 0.8822
H6 H 0.2153 0.5993 1.0337
H7 H 0.1152 0.7041 0.9091
C11 C 0.2327(4) 0.9606(3) 0.0837(2)
H8 H 0.3295 0.8690 0.0376
H9 H 0.2410 1.0680 0.0290
H10 H 0.1145 0.9638 0.0903
H11 H 0.306(3) 0.061(3) 0.455(2)
loop_
_geom_bond_atom_site_label_1
_geom_bond_atom_site_label_2
_geom_bond_site_symmetry_1
_geom_bond_site_symmetry_2
Cl1 C3 1_555 1_555
O1 C1 1_555 1_555
O2 C5 1_555 1_555
O3 C4 1_555 1_555
O4 C6 1_555 1_555
C1 C2 1_555 1_555
O5 C4 1_555 1_555
C2 C4 1_555 1_555
C3 C1 1_555 1_555
O6 C5 1_555 1_555
C5 C2 1_555 1_555
C6 O1 1_555 1_555
C7 C3 1_555 1_555
C8 O2 1_555 1_555
H1 C8 1_555 1_555
H2 C8 1_555 1_555
C9 O3 1_555 1_555
H3 C9 1_555 1_555
H4 C9 1_555 1_555
C10 C8 1_555 1_555
H5 C10 1_555 1_555
H6 C10 1_555 1_555
H7 C10 1_555 1_555
C11 C9 1_555 1_555
H8 C11 1_555 1_555
H9 C11 1_555 1_555
H10 C11 1_555 1_555
H11 C7 1_555 1_555
C6 C7 1_555 1_555

#END
