
#######################################################################
#
#                 Cambridge Crystallographic Data Centre
#                                CCDC 
#
#######################################################################
#
# If this CIF has been generated from an entry in the Cambridge 
# Structural Database, then it will include bibliographic, chemical, 
# crystal, experimental, refinement or atomic coordinate data resulting 
# from the CCDC's data processing and validation procedures.
#
#######################################################################

data_VAYDUV
_chemical_name_common            N-Acetylbornane-10,2-sultam
_chemical_formula_moiety         'C12 H19 N1 O3 S1'
_chemical_name_systematic        
'4-Acetyl-10,10-dimethyl-4-aza-3-thiatricyclo(5.2.1.0^1,5^)decane 3,3-dioxide'
_symmetry_cell_setting           orthorhombic
_symmetry_space_group_name_H-M   'P 21 21 21'
_symmetry_Int_Tables_number      19
_space_group_name_Hall           'P 2ac 2ab'
loop_
_symmetry_equiv_pos_site_id
_symmetry_equiv_pos_as_xyz
1 x,y,z
2 1/2-x,-y,1/2+z
3 1/2+x,1/2-y,-z
4 -x,1/2+y,1/2-z
_cell_length_a                   9.244
_cell_length_b                   6.878
_cell_length_c                   20.124
_cell_angle_alpha                90
_cell_angle_beta                 90
_cell_angle_gamma                90
_cell_volume                     1279.49
_cell_formula_units_Z            4
loop_
_atom_site_label
_atom_site_type_symbol
_atom_site_fract_x
_atom_site_fract_y
_atom_site_fract_z
S1 S 0.5761(1) 0.2023(1) 0.8581(1)
C1 C 0.4286(3) 0.3698(3) 0.8618(2)
O1 O 0.6936(2) 0.2715(3) 0.8980(1)
C2 C 0.1954(3) 0.1725(4) 0.8262(1)
C3 C 0.5603(3) -0.1395(4) 0.9259(1)
O2 O 0.6094(2) 0.1417(3) 0.7924(1)
C4 C 0.2953(3) 0.2554(3) 0.8818(1)
C5 C 0.0588(3) 0.2051(5) 0.9275(2)
O3 O 0.4952(2) -0.2400(3) 0.9646(1)
C6 C 0.7129(3) -0.1817(5) 0.9053(2)
C7 C 0.3441(3) 0.0729(4) 0.9214(1)
C8 C 0.2220(3) -0.0760(4) 0.9080(2)
C9 C 0.1852(3) 0.3530(4) 0.9282(2)
C10 C 0.1064(3) 0.0525(4) 0.8759(1)
N1 N 0.4899(2) 0.0198(3) 0.8976(1)
C11 C 0.1079(4) 0.3300(6) 0.7900(2)
C12 C 0.2720(3) 0.0531(5) 0.7728(1)
H1 H 0.4483(3) 0.4709(3) 0.8941(2)
H2 H 0.4140(3) 0.4303(3) 0.8187(2)
H3 H 0.0460(3) 0.1462(5) 0.9709(2)
H4 H -0.0309(3) 0.2671(5) 0.9143(2)
H5 H 0.7785(3) -0.1258(26) 0.9369(6)
H6 H 0.7305(8) -0.1267(27) 0.8622(5)
H7 H 0.7273(7) -0.3199(5) 0.9035(10)
H8 H 0.3478(3) 0.1034(4) 0.9689(1)
H9 H 0.2536(3) -0.1779(4) 0.8780(2)
H10 H 0.1873(3) -0.1341(4) 0.9489(2)
H11 H 0.1550(3) 0.4785(4) 0.9112(2)
H12 H 0.2242(3) 0.3693(4) 0.9726(2)
H13 H 0.0262(3) -0.0199(4) 0.8558(1)
H14 H 0.0498(22) 0.2707(7) 0.7560(9)
H15 H 0.1729(4) 0.4220(22) 0.7701(11)
H16 H 0.0464(22) 0.3956(27) 0.8212(3)
H17 H 0.3306(17) -0.0449(19) 0.7935(1)
H18 H 0.3323(17) 0.1370(7) 0.7465(6)
H19 H 0.2014(3) -0.0078(23) 0.7447(6)
loop_
_geom_bond_atom_site_label_1
_geom_bond_atom_site_label_2
_geom_bond_site_symmetry_1
_geom_bond_site_symmetry_2
S1 C1 1_555 1_555
C1 C4 1_555 1_555
O1 S1 1_555 1_555
C2 C4 1_555 1_555
C3 O3 1_555 1_555
O2 S1 1_555 1_555
C4 C7 1_555 1_555
C5 C9 1_555 1_555
C6 C3 1_555 1_555
C7 C8 1_555 1_555
C8 C10 1_555 1_555
C9 C4 1_555 1_555
C10 C2 1_555 1_555
N1 S1 1_555 1_555
C11 C2 1_555 1_555
C12 C2 1_555 1_555
H1 C1 1_555 1_555
H2 C1 1_555 1_555
H3 C5 1_555 1_555
H4 C5 1_555 1_555
H5 C6 1_555 1_555
H6 C6 1_555 1_555
H7 C6 1_555 1_555
H8 C7 1_555 1_555
H9 C8 1_555 1_555
H10 C8 1_555 1_555
H11 C9 1_555 1_555
H12 C9 1_555 1_555
H13 C10 1_555 1_555
H14 C11 1_555 1_555
H15 C11 1_555 1_555
H16 C11 1_555 1_555
H17 C12 1_555 1_555
H18 C12 1_555 1_555
H19 C12 1_555 1_555
C3 N1 1_555 1_555
C5 C10 1_555 1_555
C7 N1 1_555 1_555

#END
