
#######################################################################
#
#                 Cambridge Crystallographic Data Centre
#                                CCDC 
#
#######################################################################
#
# If this CIF has been generated from an entry in the Cambridge 
# Structural Database, then it will include bibliographic, chemical, 
# crystal, experimental, refinement or atomic coordinate data resulting 
# from the CCDC's data processing and validation procedures.
#
#######################################################################

data_VAYFIL
_chemical_name_common            N-(2-Bromobutanoyl)bornane-10,2-sultam
_chemical_formula_moiety         'C14 H22 Br1 N1 O3 S1'
_chemical_name_systematic        
'4-(2-Bromobutanoyl)-10,10-dimethyl-4-aza-3-thiatricyclo(5.2.1.0^1,5^)decane 3,3-dioxide'
_symmetry_cell_setting           orthorhombic
_symmetry_space_group_name_H-M   'P 21 21 2'
_symmetry_Int_Tables_number      18
_space_group_name_Hall           'P 2 2ab'
loop_
_symmetry_equiv_pos_site_id
_symmetry_equiv_pos_as_xyz
1 x,y,z
2 -x,-y,z
3 1/2+x,1/2-y,-z
4 1/2-x,1/2+y,-z
_cell_length_a                   13.994(3)
_cell_length_b                   14.779(4)
_cell_length_c                   7.745(6)
_cell_angle_alpha                90
_cell_angle_beta                 90
_cell_angle_gamma                90
_cell_volume                     1601.8
_cell_formula_units_Z            4
loop_
_atom_site_label
_atom_site_type_symbol
_atom_site_fract_x
_atom_site_fract_y
_atom_site_fract_z
Br1 Br 0.0820(1) 0.1371(1) 0.9396(1)
S1 S -0.0558(1) 0.1434(1) 1.4388(2)
N1 N -0.1258(3) 0.1252(3) 1.2632(5)
O1 O -0.0594(3) 0.2379(2) 1.4813(5)
O2 O 0.0376(2) 0.1052(2) 1.4079(5)
O3 O -0.1467(3) 0.1157(3) 0.9760(5)
C1 C -0.2190(4) 0.0532(3) 1.4934(7)
C2 C -0.2628(4) -0.0399(3) 1.5227(7)
C3 C -0.3634(4) -0.0298(4) 1.4385(8)
C4 C -0.3669(4) 0.0715(4) 1.3828(7)
C5 C -0.3029(4) 0.0819(4) 1.2220(8)
C6 C -0.2030(4) 0.0586(3) 1.2939(7)
C7 C -0.3058(4) 0.1183(3) 1.5242(7)
C8 C -0.3488(4) 0.1093(4) 1.7080(8)
C9 C -0.2893(4) 0.2199(3) 1.4941(8)
C10 C -0.1246(4) 0.0746(3) 1.5825(7)
C11 C -0.0990(4) 0.1452(4) 1.0959(7)
C12 C -0.0139(4) 0.2072(4) 1.0668(8)
C13 C -0.0428(4) 0.2906(4) 0.9654(8)
C14 C -0.1173(5) 0.3466(4) 1.0640(10)
H1 H -0.2677(4) -0.0536(3) 1.6448(7)
H2 H -0.2257(4) -0.0868(3) 1.4662(7)
H3 H -0.4136(4) -0.0434(4) 1.5209(8)
H4 H -0.3700(4) -0.0695(4) 1.3395(8)
H5 H -0.4315(4) 0.0962(4) 1.3696(7)
H6 H -0.3049(4) 0.1432(4) 1.1775(8)
H7 H -0.3216(4) 0.0402(4) 1.1314(8)
H8 H -0.1831(4) -0.0008(3) 1.2505(7)
H9 H -0.3049(13) 0.1339(25) 1.7910(10)
H10 H -0.3601(26) 0.0467(5) 1.7333(21)
H11 H -0.4081(15) 0.1420(23) 1.7136(17)
H12 H -0.2513(22) 0.2441(6) 1.5865(26)
H13 H -0.3497(4) 0.2506(5) 1.4904(45)
H14 H -0.2564(23) 0.2286(4) 1.3865(24)
H15 H -0.0905(4) 0.0191(3) 1.6086(7)
H16 H -0.1362(4) 0.1066(3) 1.6898(7)
H17 H 0.0125(4) 0.2257(4) 1.1786(8)
H18 H -0.0690(4) 0.2724(4) 0.8548(8)
H19 H 0.0132(4) 0.3276(4) 0.9437(8)
H20 H -0.1788(8) 0.3182(18) 1.0537(52)
H21 H -0.1202(25) 0.4065(11) 1.0163(42)
H22 H -0.0997(19) 0.3500(27) 1.1836(16)
loop_
_geom_bond_atom_site_label_1
_geom_bond_atom_site_label_2
_geom_bond_site_symmetry_1
_geom_bond_site_symmetry_2
Br1 C12 1_555 1_555
S1 N1 1_555 1_555
N1 C6 1_555 1_555
O1 S1 1_555 1_555
O2 S1 1_555 1_555
O3 C11 1_555 1_555
C1 C2 1_555 1_555
C2 C3 1_555 1_555
C3 C4 1_555 1_555
C4 C5 1_555 1_555
C5 C6 1_555 1_555
C6 C1 1_555 1_555
C7 C1 1_555 1_555
C8 C7 1_555 1_555
C9 C7 1_555 1_555
C10 S1 1_555 1_555
C11 N1 1_555 1_555
C12 C11 1_555 1_555
C13 C12 1_555 1_555
C14 C13 1_555 1_555
H1 C2 1_555 1_555
H2 C2 1_555 1_555
H3 C3 1_555 1_555
H4 C3 1_555 1_555
H5 C4 1_555 1_555
H6 C5 1_555 1_555
H7 C5 1_555 1_555
H8 C6 1_555 1_555
H9 C8 1_555 1_555
H10 C8 1_555 1_555
H11 C8 1_555 1_555
H12 C9 1_555 1_555
H13 C9 1_555 1_555
H14 C9 1_555 1_555
H15 C10 1_555 1_555
H16 C10 1_555 1_555
H17 C12 1_555 1_555
H18 C13 1_555 1_555
H19 C13 1_555 1_555
H20 C14 1_555 1_555
H21 C14 1_555 1_555
H22 C14 1_555 1_555
C1 C10 1_555 1_555
C4 C7 1_555 1_555

#END
