
#######################################################################
#
#                 Cambridge Crystallographic Data Centre
#                                CCDC 
#
#######################################################################
#
# If this CIF has been generated from an entry in the Cambridge 
# Structural Database, then it will include bibliographic, chemical, 
# crystal, experimental, refinement or atomic coordinate data resulting 
# from the CCDC's data processing and validation procedures.
#
#######################################################################

data_VAYGUA
_chemical_formula_moiety         'C18 H17 N1 O2'
_chemical_name_systematic        
6,6-diphenyltetrahydro-1H,3H-pyrrolo[1,2-c][1,3]oxazol-3-one
_symmetry_cell_setting           triclinic
_symmetry_space_group_name_H-M   'P -1'
_symmetry_Int_Tables_number      2
_space_group_name_Hall           '-P 1'
loop_
_symmetry_equiv_pos_site_id
_symmetry_equiv_pos_as_xyz
1 x,y,z
2 -x,-y,-z
_cell_length_a                   6.3952(13)
_cell_length_b                   9.4580(19)
_cell_length_c                   12.085(2)
_cell_angle_alpha                102.98(3)
_cell_angle_beta                 94.15(3)
_cell_angle_gamma                90.64(3)
_cell_volume                     710.143
_exptl_crystal_colour            colorless
_exptl_crystal_description       plate
_cell_formula_units_Z            2
loop_
_atom_site_label
_atom_site_type_symbol
_atom_site_fract_x
_atom_site_fract_y
_atom_site_fract_z
O1 O 0.25299(12) 0.62084(10) 0.88672(7)
O2 O 0.57422(12) 0.71912(8) 0.94662(7)
N1 N 0.54691(13) 0.48026(10) 0.87016(7)
C1 C 0.68365(16) 0.33639(11) 0.70340(9)
C2 C 0.44015(16) 0.60602(12) 0.89948(9)
C3 C 0.79575(16) 0.20828(11) 0.73883(9)
C4 C 0.47875(16) 0.37442(11) 0.76402(9)
H1 H 0.3788 0.4166 0.7173
H2 H 0.4147 0.2886 0.7803
C5 C 0.63691(16) 0.30306(11) 0.57461(9)
C6 C 0.82090(16) 0.47625(11) 0.75182(9)
H3 H 0.9686 0.4579 0.7437
H4 H 0.7801 0.5535 0.7145
C7 C 0.74344(19) 0.15386(12) 0.83129(9)
H5 H 0.6310 0.1918 0.8719
C8 C 0.75459(19) 0.36338(13) 0.50369(10)
H6 H 0.8650 0.4282 0.5351
C9 C 1.0253(2) -0.01438(13) 0.80494(12)
H7 H 1.1014 -0.0880 0.8269
C10 C 0.77346(16) 0.51294(11) 0.87643(9)
H8 H 0.8516 0.4508 0.9187
C11 C 0.47330(18) 0.20618(13) 0.52460(10)
H9 H 0.3947 0.1628 0.5704
C12 C 0.5440(2) 0.23428(13) 0.33817(10)
H10 H 0.5124 0.2123 0.2598
C13 C 0.96539(18) 0.14877(13) 0.68004(11)
H11 H 1.0029 0.1834 0.6178
C14 C 0.78823(17) 0.67129(12) 0.94304(11)
H12 H 0.8523 0.6785 1.0194
H13 H 0.8711 0.7297 0.9049
C15 C 0.42523(19) 0.17310(13) 0.40776(10)
H14 H 0.3133 0.1098 0.3761
C16 C 0.8575(2) 0.04318(13) 0.86377(10)
H15 H 0.8201 0.0078 0.9257
C17 C 0.7092(2) 0.32800(14) 0.38616(11)
H16 H 0.7911 0.3679 0.3397
C18 C 1.0790(2) 0.03903(14) 0.71263(13)
H17 H 1.1919 0.0010 0.6724
loop_
_geom_bond_atom_site_label_1
_geom_bond_atom_site_label_2
_geom_bond_site_symmetry_1
_geom_bond_site_symmetry_2
O1 C2 1_555 1_555
O2 C2 1_555 1_555
N1 C2 1_555 1_555
C1 C3 1_555 1_555
C3 C7 1_555 1_555
C4 N1 1_555 1_555
H1 C4 1_555 1_555
H2 C4 1_555 1_555
C5 C1 1_555 1_555
C6 C1 1_555 1_555
H3 C6 1_555 1_555
H4 C6 1_555 1_555
C7 H5 1_555 1_555
C8 C5 1_555 1_555
H6 C8 1_555 1_555
C9 H7 1_555 1_555
C10 N1 1_555 1_555
H8 C10 1_555 1_555
C11 C5 1_555 1_555
H9 C11 1_555 1_555
C12 H10 1_555 1_555
C13 C3 1_555 1_555
H11 C13 1_555 1_555
C14 O2 1_555 1_555
H12 C14 1_555 1_555
H13 C14 1_555 1_555
C15 C11 1_555 1_555
H14 C15 1_555 1_555
C16 C7 1_555 1_555
H15 C16 1_555 1_555
C17 C8 1_555 1_555
H16 C17 1_555 1_555
C18 C9 1_555 1_555
H17 C18 1_555 1_555
C1 C4 1_555 1_555
C6 C10 1_555 1_555
C9 C16 1_555 1_555
C10 C14 1_555 1_555
C12 C15 1_555 1_555
C12 C17 1_555 1_555
C13 C18 1_555 1_555

#END
