
#######################################################################
#
#                 Cambridge Crystallographic Data Centre
#                                CCDC 
#
#######################################################################
#
# If this CIF has been generated from an entry in the Cambridge 
# Structural Database, then it will include bibliographic, chemical, 
# crystal, experimental, refinement or atomic coordinate data resulting 
# from the CCDC's data processing and validation procedures.
#
#######################################################################

data_VAYGUY01
_chemical_formula_moiety         'C12 H23 N1,0.5(H2 O2)'
_chemical_name_systematic        'Dicyclohexylamine hydrogen peroxide solvate'
_symmetry_cell_setting           triclinic
_symmetry_space_group_name_H-M   'P -1'
_symmetry_Int_Tables_number      2
_space_group_name_Hall           '-P 1'
loop_
_symmetry_equiv_pos_site_id
_symmetry_equiv_pos_as_xyz
1 x,y,z
2 -x,-y,-z
_cell_length_a                   5.2113(2)
_cell_length_b                   10.2567(4)
_cell_length_c                   11.4044(5)
_cell_angle_alpha                84.0340(10)
_cell_angle_beta                 80.0110(10)
_cell_angle_gamma                79.4000(10)
_cell_volume                     588.453
_exptl_crystal_colour            colorless
_exptl_crystal_description       block
_cell_formula_units_Z            2
_chemical_properties_physical    air-sensitive
loop_
_atom_site_label
_atom_site_type_symbol
_atom_site_fract_x
_atom_site_fract_y
_atom_site_fract_z
O1 O -0.02665(17) 0.45770(9) 0.55559(7)
H23 H 0.102(4) 0.4736(18) 0.5937(15)
O1A O 0.02665(17) 0.54230(9) 0.44441(7)
H23A H -0.102(4) 0.5264(18) 0.4063(15)
N1 N 0.35999(19) 0.49679(9) 0.68121(8)
C1 C 0.3104(2) 0.63840(10) 0.70704(9)
C2 C 0.3710(2) 0.72101(11) 0.58902(10)
C3 C 0.3087(2) 0.87000(12) 0.60482(11)
C4 C 0.0221(2) 0.91188(12) 0.66185(11)
C5 C -0.0372(3) 0.83146(12) 0.78098(11)
C6 C 0.0241(2) 0.68175(11) 0.76548(10)
C7 C 0.3732(2) 0.39791(10) 0.78521(9)
C8 C 0.3926(2) 0.25921(11) 0.74285(10)
C9 C 0.4090(2) 0.15064(12) 0.84557(11)
C10 C 0.6419(2) 0.15434(11) 0.90936(11)
C11 C 0.6217(3) 0.29192(11) 0.95341(10)
C12 C 0.6050(2) 0.40046(11) 0.85117(10)
H1 H 0.207(3) 0.4184(13) 0.8420(11)
H2 H 0.554(3) 0.2418(13) 0.6803(12)
H3 H 0.425(3) 0.6570(14) 0.7637(12)
H4 H 0.262(3) 0.7010(15) 0.5310(13)
H5 H 0.429(3) 0.8914(15) 0.6553(13)
H6 H -0.091(3) 0.8943(15) 0.6059(13)
H7 H 0.554(3) 0.6934(15) 0.5552(13)
H8 H -0.090(3) 0.6583(15) 0.7140(13)
H9 H 0.243(3) 0.1638(14) 0.9028(12)
H10 H -0.014(3) 0.6294(15) 0.8456(13)
H11 H 0.462(3) 0.3095(14) 1.0150(13)
H12 H 0.769(3) 0.3890(14) 0.7917(12)
H13 H 0.350(3) 0.9203(15) 0.5246(13)
H14 H 0.068(3) 0.8541(14) 0.8390(13)
H15 H 0.775(3) 0.2960(15) 0.9926(14)
H16 H 0.513(3) 0.4825(15) 0.6357(13)
H17 H 0.807(3) 0.1335(15) 0.8507(13)
H18 H 0.589(3) 0.4886(16) 0.8811(13)
H19 H 0.643(3) 0.0839(16) 0.9786(14)
H20 H 0.419(3) 0.0646(16) 0.8135(13)
H21 H -0.219(3) 0.8541(16) 0.8172(14)
H22 H 0.241(3) 0.2549(15) 0.7033(12)
H24 H -0.016(3) 1.0087(17) 0.6736(14)
loop_
_geom_bond_atom_site_label_1
_geom_bond_atom_site_label_2
_geom_bond_site_symmetry_1
_geom_bond_site_symmetry_2
O1 H23 1_555 1_555
N1 C1 1_555 1_555
C1 C2 1_555 1_555
C2 C3 1_555 1_555
C3 C4 1_555 1_555
C4 C5 1_555 1_555
C5 C6 1_555 1_555
C6 C1 1_555 1_555
C7 N1 1_555 1_555
C8 C7 1_555 1_555
C9 C8 1_555 1_555
C10 C9 1_555 1_555
C11 C10 1_555 1_555
C12 C7 1_555 1_555
H1 C7 1_555 1_555
H2 C8 1_555 1_555
H3 C1 1_555 1_555
H4 C2 1_555 1_555
H5 C3 1_555 1_555
H6 C4 1_555 1_555
H7 C2 1_555 1_555
H8 C6 1_555 1_555
H9 C9 1_555 1_555
H10 C6 1_555 1_555
H11 C11 1_555 1_555
H12 C12 1_555 1_555
H13 C3 1_555 1_555
H14 C5 1_555 1_555
H15 C11 1_555 1_555
H16 N1 1_555 1_555
H17 C10 1_555 1_555
H18 C12 1_555 1_555
H19 C10 1_555 1_555
H20 C9 1_555 1_555
H21 C5 1_555 1_555
H22 C8 1_555 1_555
H24 C4 1_555 1_555
O1A O1 1_555 1_555
H23A O1A 1_555 1_555
C11 C12 1_555 1_555

#END
