
#######################################################################
#
#                 Cambridge Crystallographic Data Centre
#                                CCDC 
#
#######################################################################
#
# If this CIF has been generated from an entry in the Cambridge 
# Structural Database, then it will include bibliographic, chemical, 
# crystal, experimental, refinement or atomic coordinate data resulting 
# from the CCDC's data processing and validation procedures.
#
#######################################################################

data_VAYJUC
_chemical_formula_moiety         'C21 H21 N3 O2'
_chemical_name_systematic        
1-Cyclohexyl-3-phenyl-2-(phenylimino)imidazolidine-4,5-dione
_symmetry_cell_setting           triclinic
_symmetry_space_group_name_H-M   'P -1'
_symmetry_Int_Tables_number      2
_space_group_name_Hall           '-P 1'
loop_
_symmetry_equiv_pos_site_id
_symmetry_equiv_pos_as_xyz
1 x,y,z
2 -x,-y,-z
_cell_length_a                   11.086(2)
_cell_length_b                   12.727(3)
_cell_length_c                   13.649(3)
_cell_angle_alpha                73.23(3)
_cell_angle_beta                 84.08(3)
_cell_angle_gamma                83.37(3)
_cell_volume                     1826.58
_exptl_crystal_colour            yellow
_exptl_crystal_description       block
_cell_formula_units_Z            4
loop_
_atom_site_label
_atom_site_type_symbol
_atom_site_fract_x
_atom_site_fract_y
_atom_site_fract_z
O1 O 1.00417(15) 0.53083(13) 0.10203(13)
O2 O 1.20299(15) 0.35121(14) 0.15966(13)
N1 N 0.88708(17) 0.38741(15) 0.18518(14)
N2 N 0.84171(18) 0.20355(16) 0.29002(15)
N3 N 1.03871(17) 0.25418(16) 0.23504(15)
C1 C 0.7693(2) 0.44835(17) 0.16880(17)
C2 C 0.7352(2) 0.48709(19) 0.06926(18)
H1 H 0.7884 0.4749 0.0137
C3 C 0.6216(2) 0.5441(2) 0.0523(2)
H2 H 0.5965 0.5721 -0.0155
C4 C 0.5448(2) 0.5603(2) 0.1340(2)
H3 H 0.4663 0.5981 0.1221
C5 C 0.5811(2) 0.5221(2) 0.2326(2)
H4 H 0.5278 0.5336 0.2884
C6 C 0.6953(2) 0.46689(19) 0.25022(19)
H5 H 0.7221 0.4422 0.3177
C7 C 0.7128(2) 0.21735(18) 0.28916(18)
C8 C 0.6559(2) 0.23146(19) 0.1996(2)
H6 H 0.7029 0.2337 0.1368
C9 C 0.5302(3) 0.2422(2) 0.2028(2)
H7 H 0.4910 0.2534 0.1414
C10 C 0.4608(3) 0.2368(2) 0.2937(3)
H8 H 0.3745 0.2452 0.2947
C11 C 0.5172(3) 0.2192(2) 0.3832(2)
H9 H 0.4700 0.2144 0.4462
C12 C 0.6432(2) 0.20859(19) 0.3806(2)
H10 H 0.6822 0.1951 0.4425
C13 C 0.9113(2) 0.27517(18) 0.24056(17)
C14 C 0.9937(2) 0.43571(19) 0.14795(18)
C15 C 1.0954(2) 0.34382(19) 0.17960(18)
C16 C 1.1077(2) 0.14617(19) 0.27625(18)
H11 H 1.1948 0.1560 0.2513
C17 C 1.1033(3) 0.1138(2) 0.39190(19)
H12 H 1.0182 0.1039 0.4204
H13 H 1.1319 0.1733 0.4145
C18 C 1.1835(3) 0.0065(2) 0.4328(2)
H14 H 1.1735 -0.0170 0.5087
H15 H 1.2701 0.0191 0.4121
C19 C 1.1487(3) -0.0845(2) 0.3908(2)
H16 H 1.2052 -0.1514 0.4140
H17 H 1.0654 -0.1033 0.4187
C20 C 1.1533(2) -0.0493(2) 0.27539(19)
H18 H 1.1272 -0.1088 0.2512
H19 H 1.2381 -0.0372 0.2474
C21 C 1.0711(2) 0.05618(18) 0.23550(18)
H20 H 1.0788 0.0795 0.1596
H21 H 0.9851 0.0428 0.2583
O3 O 1.25184(15) 0.65219(15) 0.11136(13)
O4 O 1.07447(15) 0.77561(14) -0.03552(12)
N4 N 1.09519(17) 0.68827(16) 0.22726(14)
N5 N 0.91023(17) 0.74925(16) 0.29857(15)
N6 N 0.95969(17) 0.78354(15) 0.11431(14)
C22 C 0.8558(2) 0.85077(19) 0.06696(17)
C23 C 0.7823(2) 0.8045(2) 0.01771(19)
H22 H 0.7978 0.7295 0.0174
C24 C 0.6854(2) 0.8706(3) -0.0313(2)
H23 H 0.6336 0.8404 -0.0653
C25 C 0.6630(2) 0.9795(3) -0.0313(2)
H24 H 0.5962 1.0237 -0.0651
C26 C 0.7375(2) 1.0240(2) 0.0177(2)
H25 H 0.7216 1.0988 0.0182
C27 C 0.8358(2) 0.95981(19) 0.06630(18)
H26 H 0.8887 0.9907 0.0987
C28 C 0.7880(2) 0.79638(19) 0.29855(17)
C29 C 0.6974(2) 0.7525(2) 0.26416(19)
H27 H 0.7172 0.6912 0.2371
C30 C 0.5786(2) 0.7978(2) 0.2692(2)
H28 H 0.5168 0.7675 0.2453
C31 C 0.5483(3) 0.8868(2) 0.3085(2)
H29 H 0.4664 0.9182 0.3110
C32 C 0.6379(3) 0.9293(2) 0.3439(2)
H30 H 0.6177 0.9904 0.3712
C33 C 0.7567(2) 0.8841(2) 0.34020(19)
H31 H 0.8176 0.9131 0.3663
C34 C 0.9768(2) 0.74226(18) 0.22003(17)
C35 C 1.0601(2) 0.75406(19) 0.05672(17)
C36 C 1.1512(2) 0.68979(19) 0.13312(18)
C37 C 1.1420(2) 0.6274(2) 0.32774(17)
H32 H 1.0904 0.6538 0.3819
C38 C 1.1314(3) 0.5040(2) 0.3502(2)
H33 H 1.1812 0.4756 0.2973
H34 H 1.0455 0.4910 0.3477
C39 C 1.1749(3) 0.4426(3) 0.4564(2)
H35 H 1.1194 0.4654 0.5097
H36 H 1.1723 0.3624 0.4682
C40 C 1.3037(3) 0.4662(2) 0.4659(2)
H37 H 1.3269 0.4300 0.5368
H38 H 1.3608 0.4349 0.4187
C41 C 1.3142(3) 0.5892(2) 0.4407(2)
H39 H 1.3999 0.6022 0.4440
H40 H 1.2635 0.6191 0.4922
C42 C 1.2730(2) 0.6493(2) 0.33360(19)
H41 H 1.2785 0.7294 0.3195
H42 H 1.3267 0.6230 0.2813
loop_
_geom_bond_atom_site_label_1
_geom_bond_atom_site_label_2
_geom_bond_site_symmetry_1
_geom_bond_site_symmetry_2
O1 C14 1_555 1_555
O2 C15 1_555 1_555
O3 C36 1_555 1_555
O4 C35 1_555 1_555
N1 C1 1_555 1_555
N2 C7 1_555 1_555
N3 C13 1_555 1_555
N4 C34 1_555 1_555
N5 C28 1_555 1_555
N6 C22 1_555 1_555
C1 C2 1_555 1_555
C2 H1 1_555 1_555
C3 C2 1_555 1_555
H2 C3 1_555 1_555
C4 C3 1_555 1_555
H3 C4 1_555 1_555
C5 C4 1_555 1_555
H4 C5 1_555 1_555
C6 C1 1_555 1_555
H5 C6 1_555 1_555
C7 C8 1_555 1_555
C8 H6 1_555 1_555
C9 C8 1_555 1_555
H7 C9 1_555 1_555
C10 C9 1_555 1_555
H8 C10 1_555 1_555
C11 C10 1_555 1_555
H9 C11 1_555 1_555
C12 C7 1_555 1_555
H10 C12 1_555 1_555
C13 N1 1_555 1_555
C14 N1 1_555 1_555
C15 N3 1_555 1_555
C16 N3 1_555 1_555
H11 C16 1_555 1_555
C17 C16 1_555 1_555
H12 C17 1_555 1_555
H13 C17 1_555 1_555
C18 C17 1_555 1_555
H14 C18 1_555 1_555
H15 C18 1_555 1_555
C19 C18 1_555 1_555
H16 C19 1_555 1_555
H17 C19 1_555 1_555
C20 C19 1_555 1_555
H18 C20 1_555 1_555
H19 C20 1_555 1_555
C21 C16 1_555 1_555
H20 C21 1_555 1_555
H21 C21 1_555 1_555
C22 C23 1_555 1_555
C23 H22 1_555 1_555
C24 C23 1_555 1_555
H23 C24 1_555 1_555
C25 C24 1_555 1_555
H24 C25 1_555 1_555
C26 C25 1_555 1_555
H25 C26 1_555 1_555
C27 C22 1_555 1_555
H26 C27 1_555 1_555
C28 C29 1_555 1_555
C29 H27 1_555 1_555
C30 C29 1_555 1_555
H28 C30 1_555 1_555
C31 C30 1_555 1_555
H29 C31 1_555 1_555
C32 C31 1_555 1_555
H30 C32 1_555 1_555
C33 C28 1_555 1_555
H31 C33 1_555 1_555
C34 N5 1_555 1_555
C35 N6 1_555 1_555
C36 N4 1_555 1_555
C37 N4 1_555 1_555
H32 C37 1_555 1_555
C38 C37 1_555 1_555
H33 C38 1_555 1_555
H34 C38 1_555 1_555
C39 C38 1_555 1_555
H35 C39 1_555 1_555
H36 C39 1_555 1_555
C40 C39 1_555 1_555
H37 C40 1_555 1_555
H38 C40 1_555 1_555
C41 C40 1_555 1_555
H39 C41 1_555 1_555
H40 C41 1_555 1_555
C42 C37 1_555 1_555
H41 C42 1_555 1_555
H42 C42 1_555 1_555
N2 C13 1_555 1_555
N6 C34 1_555 1_555
C5 C6 1_555 1_555
C11 C12 1_555 1_555
C14 C15 1_555 1_555
C20 C21 1_555 1_555
C26 C27 1_555 1_555
C32 C33 1_555 1_555
C35 C36 1_555 1_555
C41 C42 1_555 1_555

#END
