
#######################################################################
#
#                 Cambridge Crystallographic Data Centre
#                                CCDC 
#
#######################################################################
#
# If this CIF has been generated from an entry in the Cambridge 
# Structural Database, then it will include bibliographic, chemical, 
# crystal, experimental, refinement or atomic coordinate data resulting 
# from the CCDC's data processing and validation procedures.
#
#######################################################################

data_VAYKAJ
_chemical_formula_moiety         'C15 H18 Br1 N3 O2'
_chemical_name_systematic        
1-(4-Bromophenyl)-3-isopropyl-2-(isopropylimino)imidazolidine-4,5-dione
_symmetry_cell_setting           orthorhombic
_symmetry_space_group_name_H-M   'P 21 21 21'
_symmetry_Int_Tables_number      19
_space_group_name_Hall           'P 2ac 2ab'
loop_
_symmetry_equiv_pos_site_id
_symmetry_equiv_pos_as_xyz
1 x,y,z
2 1/2-x,-y,1/2+z
3 -x,1/2+y,1/2-z
4 1/2+x,1/2-y,-z
_cell_length_a                   8.8707(18)
_cell_length_b                   10.082(2)
_cell_length_c                   18.499(4)
_cell_angle_alpha                90
_cell_angle_beta                 90
_cell_angle_gamma                90
_cell_volume                     1654.45
_cell_formula_units_Z            4
loop_
_atom_site_label
_atom_site_type_symbol
_atom_site_fract_x
_atom_site_fract_y
_atom_site_fract_z
Br1 Br 1.06189(9) 0.41319(7) 0.84258(3)
C1 C 0.9114(6) 0.4829(6) 0.4712(3)
C2 C 1.0889(6) 0.3803(6) 0.3975(3)
C3 C 1.1425(7) 0.3776(6) 0.4766(3)
C4 C 0.8552(6) 0.4711(6) 0.3375(2)
H1 H 0.7607 0.5079 0.3563
C5 C 0.8162(8) 0.3500(6) 0.2959(3)
H2 H 0.7595 0.2906 0.3260
H3 H 0.9070 0.3070 0.2801
H4 H 0.7568 0.3741 0.2545
C6 C 0.9282(7) 0.5770(6) 0.2919(3)
H5 H 1.0281 0.5494 0.2786
H6 H 0.9338 0.6582 0.3189
H7 H 0.8694 0.5910 0.2490
C7 C 0.7352(6) 0.5979(6) 0.5496(2)
H8 H 0.8161 0.5978 0.5857
C8 C 0.6039(6) 0.5130(6) 0.5758(3)
H9 H 0.6396 0.4255 0.5870
H10 H 0.5288 0.5077 0.5386
H11 H 0.5607 0.5522 0.6183
C9 C 0.6860(7) 0.7379(5) 0.5342(3)
H12 H 0.6198 0.7384 0.4931
H13 H 0.7728 0.7916 0.5241
H14 H 0.6339 0.7729 0.5755
C10 C 1.0379(6) 0.4392(6) 0.5936(2)
C11 C 1.1362(6) 0.5206(5) 0.6296(2)
H15 H 1.1971 0.5791 0.6039
C12 C 1.1448(6) 0.5154(5) 0.7055(2)
H16 H 1.2093 0.5706 0.7313
C13 C 1.0538(7) 0.4253(6) 0.7397(2)
C14 C 0.9541(7) 0.3426(6) 0.7047(3)
H17 H 0.8906 0.2860 0.7301
C15 C 0.9529(7) 0.3479(5) 0.6288(2)
H18 H 0.8938 0.2887 0.6027
N1 N 0.9522(5) 0.4410(4) 0.40037(19)
N2 N 0.7905(5) 0.5428(4) 0.4810(2)
N3 N 1.0346(4) 0.4428(4) 0.51547(19)
O1 O 1.1529(4) 0.3348(4) 0.34587(17)
O2 O 1.2581(4) 0.3279(4) 0.49784(17)
loop_
_geom_bond_atom_site_label_1
_geom_bond_atom_site_label_2
_geom_bond_site_symmetry_1
_geom_bond_site_symmetry_2
Br1 C13 1_555 1_555
C1 N1 1_555 1_555
C2 C3 1_555 1_555
C3 N3 1_555 1_555
C4 H1 1_555 1_555
C5 C4 1_555 1_555
H2 C5 1_555 1_555
H3 C5 1_555 1_555
H4 C5 1_555 1_555
C6 C4 1_555 1_555
H5 C6 1_555 1_555
H6 C6 1_555 1_555
H7 C6 1_555 1_555
C7 H8 1_555 1_555
C8 C7 1_555 1_555
H9 C8 1_555 1_555
H10 C8 1_555 1_555
H11 C8 1_555 1_555
C9 C7 1_555 1_555
H12 C9 1_555 1_555
H13 C9 1_555 1_555
H14 C9 1_555 1_555
C10 C11 1_555 1_555
C11 H15 1_555 1_555
C12 C11 1_555 1_555
H16 C12 1_555 1_555
C13 C12 1_555 1_555
C14 C13 1_555 1_555
H17 C14 1_555 1_555
C15 C10 1_555 1_555
H18 C15 1_555 1_555
N1 C2 1_555 1_555
N2 C1 1_555 1_555
N3 C1 1_555 1_555
O1 C2 1_555 1_555
O2 C3 1_555 1_555
C4 N1 1_555 1_555
C7 N2 1_555 1_555
C10 N3 1_555 1_555
C14 C15 1_555 1_555

#END
