
#######################################################################
#
#                 Cambridge Crystallographic Data Centre
#                                CCDC 
#
#######################################################################
#
# If this CIF has been generated from an entry in the Cambridge 
# Structural Database, then it will include bibliographic, chemical, 
# crystal, experimental, refinement or atomic coordinate data resulting 
# from the CCDC's data processing and validation procedures.
#
#######################################################################

data_VAYKIR
_chemical_formula_moiety         'C31 H35 N7 O2,0.5(H2 O1)'
_chemical_name_systematic        
'2-((2-(bis(pyridin-2-ylmethyl)amino)ethyl)amino)-5-(3,6,6-trimethyl-4-oxo-4,5,6,7-tetrahydro-2H-indazol-2-yl)benzamide hemihydrate'
_symmetry_cell_setting           orthorhombic
_symmetry_space_group_name_H-M   'P b c n'
_symmetry_Int_Tables_number      60
_space_group_name_Hall           '-P 2n 2ab'
loop_
_symmetry_equiv_pos_site_id
_symmetry_equiv_pos_as_xyz
1 x,y,z
2 1/2+x,1/2-y,-z
3 -x,y,1/2-z
4 1/2-x,1/2-y,1/2+z
5 -x,-y,-z
6 1/2-x,1/2+y,z
7 x,-y,1/2+z
8 1/2+x,1/2+y,1/2-z
_cell_length_a                   18.9880(12)
_cell_length_b                   18.1378(11)
_cell_length_c                   16.5208(10)
_cell_angle_alpha                90
_cell_angle_beta                 90
_cell_angle_gamma                90
_cell_volume                     5689.77
_exptl_crystal_colour            yellow
_exptl_crystal_description       block
_cell_formula_units_Z            8
loop_
_atom_site_label
_atom_site_type_symbol
_atom_site_fract_x
_atom_site_fract_y
_atom_site_fract_z
C1 C 0.81169(8) 0.14650(8) 0.41879(9)
C2 C 0.79981(9) 0.18122(8) 0.33776(9)
H1 H 0.8296 0.2258 0.3327
H2 H 0.7500 0.1966 0.3331
C3 C 0.81768(8) 0.12696(8) 0.26864(9)
C4 C 0.76080(9) 0.06752(9) 0.26238(10)
H3 H 0.7154 0.0906 0.2498
H4 H 0.7573 0.0411 0.3140
H5 H 0.7732 0.0327 0.2193
C5 C 0.82208(10) 0.16992(9) 0.18886(9)
H6 H 0.8316 0.1357 0.1443
H7 H 0.8601 0.2063 0.1923
H8 H 0.7773 0.1952 0.1790
C6 C 0.89003(9) 0.09123(9) 0.28517(9)
H9 H 0.8997 0.0550 0.2418
H10 H 0.9266 0.1300 0.2817
C7 C 0.89708(8) 0.05273(9) 0.36613(9)
C8 C 0.85847(8) 0.08735(8) 0.43114(9)
C9 C 0.85659(8) 0.07255(8) 0.51380(9)
C10 C 0.89413(9) 0.01504(9) 0.56143(9)
H11 H 0.9381 0.0355 0.5828
H12 H 0.9047 -0.0271 0.5264
H13 H 0.8643 -0.0011 0.6065
C11 C 0.78716(8) 0.12728(8) 0.62723(9)
C12 C 0.71574(8) 0.13171(8) 0.64196(9)
H14 H 0.6840 0.1327 0.5975
C13 C 0.68902(7) 0.13482(8) 0.72055(9)
C14 C 0.61165(8) 0.14428(8) 0.73271(9)
C15 C 0.73680(7) 0.13127(8) 0.78734(9)
C16 C 0.80957(8) 0.13027(8) 0.76957(9)
H15 H 0.8424 0.1309 0.8130
C17 C 0.83445(8) 0.12837(8) 0.69156(9)
H16 H 0.8837 0.1278 0.6816
C18 C 0.75655(8) 0.12164(9) 0.93706(9)
H17 H 0.7670 0.1714 0.9585
H18 H 0.8017 0.0971 0.9240
C19 C 0.71654(8) 0.07698(10) 0.99989(9)
H19 H 0.7137 0.0250 0.9820
H20 H 0.7425 0.0783 1.0518
C20 C 0.59665(9) 0.04777(10) 1.03907(10)
H21 H 0.5501 0.0698 1.0512
H22 H 0.6148 0.0250 1.0894
C21 C 0.58841(8) -0.01069(9) 0.97497(10)
C22 C 0.57246(9) 0.00874(10) 0.89545(11)
H23 H 0.5630 0.0587 0.8821
C23 C 0.57050(9) -0.04473(12) 0.83634(11)
H24 H 0.5607 -0.0321 0.7817
C24 C 0.58308(10) -0.11720(12) 0.85805(11)
H25 H 0.5824 -0.1555 0.8188
C25 C 0.59661(10) -0.13223(10) 0.93825(11)
H26 H 0.6045 -0.1821 0.9532
C26 C 0.64407(9) 0.16821(10) 1.06836(10)
H27 H 0.6867 0.1985 1.0593
H28 H 0.6460 0.1493 1.1245
C27 C 0.57980(9) 0.21671(10) 1.05951(11)
C28 C 0.55533(10) 0.23810(10) 0.98419(13)
H29 H 0.5756 0.2183 0.9363
C29 C 0.50087(11) 0.28886(11) 0.97955(17)
H30 H 0.4835 0.3047 0.9285
C30 C 0.47236(12) 0.31590(12) 1.0501(2)
H31 H 0.4359 0.3518 1.0490
C31 C 0.49787(12) 0.28976(14) 1.12177(19)
H32 H 0.4767 0.3073 1.1702
N1 N 0.78183(7) 0.16804(7) 0.48713(7)
N2 N 0.81119(6) 0.12197(7) 0.54526(7)
N3 N 0.56868(7) 0.13455(8) 0.66949(8)
H33 H 0.5230 0.1412 0.6751
H34 H 0.5860 0.1215 0.6222
N4 N 0.71358(6) 0.12744(7) 0.86488(7)
H35 H 0.6677 0.1286 0.8721
N5 N 0.64516(7) 0.10568(7) 1.01232(8)
N6 N 0.59931(7) -0.08071(8) 0.99679(8)
N7 N 0.55125(9) 0.24064(10) 1.12896(11)
O1 O 0.93378(6) -0.00265(7) 0.37469(7)
O2 O 0.58674(5) 0.16285(6) 0.79963(6)
O3 O 0.0000 0.07896(10) 0.7500
H36 H 0.0194(11) 0.0480(10) 0.7121(11)
H36B H -0.0194(11) 0.0480(10) 0.7879(11)
loop_
_geom_bond_atom_site_label_1
_geom_bond_atom_site_label_2
_geom_bond_site_symmetry_1
_geom_bond_site_symmetry_2
C1 C2 1_555 1_555
C2 H1 1_555 1_555
H2 C2 1_555 1_555
C3 C2 1_555 1_555
C4 C3 1_555 1_555
H3 C4 1_555 1_555
H4 C4 1_555 1_555
H5 C4 1_555 1_555
C5 C3 1_555 1_555
H6 C5 1_555 1_555
H7 C5 1_555 1_555
H8 C5 1_555 1_555
C6 C3 1_555 1_555
H9 C6 1_555 1_555
H10 C6 1_555 1_555
C7 C6 1_555 1_555
C8 C1 1_555 1_555
C9 C8 1_555 1_555
C10 C9 1_555 1_555
H11 C10 1_555 1_555
H12 C10 1_555 1_555
H13 C10 1_555 1_555
C11 C12 1_555 1_555
C12 H14 1_555 1_555
C13 C12 1_555 1_555
C14 C13 1_555 1_555
C15 C13 1_555 1_555
C16 C15 1_555 1_555
H15 C16 1_555 1_555
C17 C11 1_555 1_555
H16 C17 1_555 1_555
C18 H17 1_555 1_555
H18 C18 1_555 1_555
C19 C18 1_555 1_555
H19 C19 1_555 1_555
H20 C19 1_555 1_555
C20 H21 1_555 1_555
H22 C20 1_555 1_555
C21 C20 1_555 1_555
C22 C21 1_555 1_555
H23 C22 1_555 1_555
C23 C22 1_555 1_555
H24 C23 1_555 1_555
C24 C23 1_555 1_555
H25 C24 1_555 1_555
C25 C24 1_555 1_555
H26 C25 1_555 1_555
C26 H27 1_555 1_555
H28 C26 1_555 1_555
C27 C26 1_555 1_555
C28 C27 1_555 1_555
H29 C28 1_555 1_555
C29 C28 1_555 1_555
H30 C29 1_555 1_555
C30 C29 1_555 1_555
H31 C30 1_555 1_555
C31 C30 1_555 1_555
H32 C31 1_555 1_555
N1 C1 1_555 1_555
N2 C9 1_555 1_555
N3 C14 1_555 1_555
H33 N3 1_555 1_555
H34 N3 1_555 1_555
N4 C15 1_555 1_555
H35 N4 1_555 1_555
N5 C19 1_555 1_555
N6 C21 1_555 1_555
N7 C27 1_555 1_555
O1 C7 1_555 1_555
O2 C14 1_555 1_555
O3 H36 1_555 1_555
H36B O3 1_555 1_555
C7 C8 1_555 1_555
C11 N2 1_555 1_555
C16 C17 1_555 1_555
C18 N4 1_555 1_555
C20 N5 1_555 1_555
C25 N6 1_555 1_555
C26 N5 1_555 1_555
C31 N7 1_555 1_555
N1 N2 1_555 1_555

#END
