
#######################################################################
#
#                 Cambridge Crystallographic Data Centre
#                                CCDC 
#
#######################################################################
#
# If this CIF has been generated from an entry in the Cambridge 
# Structural Database, then it will include bibliographic, chemical, 
# crystal, experimental, refinement or atomic coordinate data resulting 
# from the CCDC's data processing and validation procedures.
#
#######################################################################

data_VAYLUF
_chemical_formula_moiety         'C56 H24 F8 N8'
_chemical_name_systematic        
'2^6^,2^7^,4^6^,4^7^,6^6^,6^7^,8^6^,8^7^-Octafluoro-2,4,6,8(2,3)-tetraquinoxalina-1,3,5,7(1,4)-tetrabenzaenacyclooctaphane unknown solvate'
_symmetry_cell_setting           monoclinic
_symmetry_space_group_name_H-M   'C 2/c'
_symmetry_Int_Tables_number      15
_space_group_name_Hall           '-C 2yn'
loop_
_symmetry_equiv_pos_site_id
_symmetry_equiv_pos_as_xyz
1 x,y,z
2 -x,y,1/2-z
3 1/2+x,1/2+y,z
4 1/2-x,1/2+y,1/2-z
5 -x,-y,-z
6 x,-y,1/2+z
7 1/2-x,1/2-y,-z
8 1/2+x,1/2-y,1/2+z
_cell_length_a                   8.3101(5)
_cell_length_b                   33.443(2)
_cell_length_c                   18.5442(10)
_cell_angle_alpha                90
_cell_angle_beta                 99.135(4)
_cell_angle_gamma                90
_cell_volume                     5088.34
_exptl_crystal_colour            brown
_cell_formula_units_Z            4
loop_
_atom_site_label
_atom_site_type_symbol
_atom_site_fract_x
_atom_site_fract_y
_atom_site_fract_z
F1 F 1.1639(3) 0.82706(9) 0.29479(12)
F2 F 1.2983(3) 0.87747(7) 0.39658(14)
F3 F 0.0979(3) 0.49162(9) 0.44830(17)
F4 F 0.1603(3) 0.44700(8) 0.5665(2)
N1 N 0.9849(3) 0.74453(9) 0.47439(12)
N2 N 1.1220(3) 0.79914(8) 0.58139(14)
N3 N 0.5254(3) 0.58062(9) 0.53974(16)
N4 N 0.6063(3) 0.53005(8) 0.66083(17)
C1 C 1.1508(5) 0.81879(14) 0.3654(2)
C2 C 1.2247(5) 0.84488(12) 0.4180(2)
C3 C 1.2193(4) 0.83871(11) 0.4901(2)
H1 H 1.2696 0.8569 0.5262
C4 C 1.1373(4) 0.80465(10) 0.50974(17)
C5 C 1.0630(4) 0.77764(11) 0.45688(17)
C6 C 1.0710(4) 0.78528(13) 0.38112(19)
H2 H 1.0225 0.7676 0.3437
C7 C 0.9722(4) 0.73857(10) 0.54419(15)
C8 C 1.0379(4) 0.76782(9) 0.59815(16)
C9 C 1.0170(4) 0.76705(9) 0.67600(16)
C10 C 0.8623(4) 0.76760(10) 0.69615(16)
H3 H 0.7678 0.7677 0.6598
C11 C 0.8473(4) 0.76796(10) 0.76959(16)
H4 H 0.7417 0.7689 0.7830
C12 C 0.8933(3) 0.70053(10) 0.55934(15)
C13 C 0.8052(4) 0.67869(10) 0.50123(16)
H5 H 0.7968 0.6890 0.4530
C14 C 0.7315(4) 0.64329(11) 0.51184(17)
H6 H 0.6738 0.6296 0.4708
C15 C 0.7381(4) 0.62657(10) 0.58077(16)
C16 C 0.8252(4) 0.64777(10) 0.63938(16)
H7 H 0.8320 0.6373 0.6874
C17 C 0.9012(4) 0.68338(10) 0.62919(15)
H8 H 0.9605 0.6967 0.6702
C18 C 0.6532(4) 0.58864(10) 0.59000(17)
C19 C 0.6974(4) 0.56094(10) 0.64954(18)
C20 C 0.8533(4) 0.56352(9) 0.70148(18)
C21 C 1.0028(4) 0.56390(9) 0.67565(18)
H9 H 1.0049 0.5647 0.6246
C22 C 1.1464(4) 0.56306(9) 0.72392(18)
H10 H 1.2470 0.5621 0.7058
C23 C 0.4714(4) 0.52307(11) 0.6095(2)
C24 C 0.4375(4) 0.54744(12) 0.5478(2)
C25 C 0.3055(4) 0.53683(13) 0.4912(2)
H11 H 0.2788 0.5528 0.4485
C26 C 0.2206(4) 0.50318(15) 0.5010(3)
C27 C 0.2520(5) 0.47972(14) 0.5626(4)
C28 C 0.3757(5) 0.48885(12) 0.6184(3)
H12 H 0.3964 0.4729 0.6613
F1A F 0.8361(3) 0.82706(9) 1.20521(12)
F2A F 0.7017(3) 0.87747(7) 1.10342(14)
F3A F 1.9021(3) 0.49162(9) 1.05170(17)
F4A F 1.8397(3) 0.44700(8) 0.9335(2)
N1A N 1.0151(3) 0.74453(9) 1.02561(12)
N2A N 0.8780(3) 0.79914(8) 0.91861(14)
N3A N 1.4746(3) 0.58062(9) 0.96026(16)
N4A N 1.3937(3) 0.53005(8) 0.83917(17)
C1A C 0.8492(5) 0.81879(14) 1.1346(2)
C2A C 0.7753(5) 0.84488(12) 1.0820(2)
C3A C 0.7807(4) 0.83871(11) 1.0099(2)
H1A H 0.7304 0.8569 0.9738
C4A C 0.8627(4) 0.80465(10) 0.99026(17)
C5A C 0.9370(4) 0.77764(11) 1.04312(17)
C6A C 0.9290(4) 0.78528(13) 1.11888(19)
H2A H 0.9775 0.7676 1.1563
C7A C 1.0278(4) 0.73857(10) 0.95581(15)
C8A C 0.9621(4) 0.76782(9) 0.90185(16)
C9A C 0.9830(4) 0.76705(9) 0.82400(16)
C10A C 1.1377(4) 0.76760(10) 0.80385(16)
H3A H 1.2322 0.7677 0.8402
C11A C 1.1527(4) 0.76796(10) 0.73041(16)
H4A H 1.2583 0.7689 0.7170
C12A C 1.1067(3) 0.70053(10) 0.94066(15)
C13A C 1.1948(4) 0.67869(10) 0.99877(16)
H5A H 1.2032 0.6890 1.0470
C14A C 1.2685(4) 0.64329(11) 0.98816(17)
H6A H 1.3262 0.6296 1.0292
C15A C 1.2619(4) 0.62657(10) 0.91923(16)
C16A C 1.1748(4) 0.64777(10) 0.86062(16)
H7A H 1.1680 0.6373 0.8126
C17A C 1.0988(4) 0.68338(10) 0.87081(15)
H8A H 1.0395 0.6967 0.8298
C18A C 1.3468(4) 0.58864(10) 0.91000(17)
C19A C 1.3026(4) 0.56094(10) 0.85046(18)
C20A C 1.1467(4) 0.56352(9) 0.79852(18)
C21A C 0.9972(4) 0.56390(9) 0.82435(18)
H9A H 0.9951 0.5647 0.8754
C22A C 0.8536(4) 0.56306(9) 0.77608(18)
H10A H 0.7530 0.5621 0.7942
C23A C 1.5286(4) 0.52307(11) 0.8905(2)
C24A C 1.5625(4) 0.54744(12) 0.9522(2)
C25A C 1.6945(4) 0.53683(13) 1.0088(2)
H11A H 1.7212 0.5528 1.0515
C26A C 1.7794(4) 0.50318(15) 0.9990(3)
C27A C 1.7480(5) 0.47972(14) 0.9374(4)
C28A C 1.6243(5) 0.48885(12) 0.8816(3)
H12A H 1.6036 0.4729 0.8387
loop_
_geom_bond_atom_site_label_1
_geom_bond_atom_site_label_2
_geom_bond_site_symmetry_1
_geom_bond_site_symmetry_2
F1 C1 1_555 1_555
F2 C2 1_555 1_555
F3 C26 1_555 1_555
F4 C27 1_555 1_555
N1 C5 1_555 1_555
N2 C4 1_555 1_555
N3 C18 1_555 1_555
N4 C19 1_555 1_555
C1 C2 1_555 1_555
C2 C3 1_555 1_555
C3 H1 1_555 1_555
C4 C3 1_555 1_555
C5 C4 1_555 1_555
C6 C1 1_555 1_555
H2 C6 1_555 1_555
C7 N1 1_555 1_555
C8 N2 1_555 1_555
C9 C8 1_555 1_555
C10 C9 1_555 1_555
H3 C10 1_555 1_555
C11 C10 1_555 1_555
H4 C11 1_555 1_555
C12 C7 1_555 1_555
C13 C12 1_555 1_555
H5 C13 1_555 1_555
C14 C13 1_555 1_555
H6 C14 1_555 1_555
C15 C14 1_555 1_555
C16 C15 1_555 1_555
H7 C16 1_555 1_555
C17 C12 1_555 1_555
H8 C17 1_555 1_555
C18 C15 1_555 1_555
C19 C18 1_555 1_555
C20 C19 1_555 1_555
C21 C20 1_555 1_555
H9 C21 1_555 1_555
C22 C21 1_555 1_555
H10 C22 1_555 1_555
C23 N4 1_555 1_555
C24 N3 1_555 1_555
C25 C24 1_555 1_555
H11 C25 1_555 1_555
C26 C25 1_555 1_555
C27 C26 1_555 1_555
C28 C23 1_555 1_555
H12 C28 1_555 1_555
F1A C1A 1_555 1_555
F2A C2A 1_555 1_555
F3A C26A 1_555 1_555
F4A C27A 1_555 1_555
N1A C5A 1_555 1_555
N2A C4A 1_555 1_555
N3A C18A 1_555 1_555
N4A C19A 1_555 1_555
C1A C2A 1_555 1_555
C2A C3A 1_555 1_555
C3A H1A 1_555 1_555
C4A C3A 1_555 1_555
C5A C4A 1_555 1_555
C6A C1A 1_555 1_555
H2A C6A 1_555 1_555
C7A N1A 1_555 1_555
C8A N2A 1_555 1_555
C9A C11 1_555 1_555
C10A C9A 1_555 1_555
H3A C10A 1_555 1_555
C11A C9 1_555 1_555
H4A C11A 1_555 1_555
C12A C7A 1_555 1_555
C13A C12A 1_555 1_555
H5A C13A 1_555 1_555
C14A C13A 1_555 1_555
H6A C14A 1_555 1_555
C15A C14A 1_555 1_555
C16A C15A 1_555 1_555
H7A C16A 1_555 1_555
C17A C12A 1_555 1_555
H8A C17A 1_555 1_555
C18A C15A 1_555 1_555
C19A C18A 1_555 1_555
C20A C22 1_555 1_555
C21A C20A 1_555 1_555
H9A C21A 1_555 1_555
C22A C20 1_555 1_555
H10A C22A 1_555 1_555
C23A N4A 1_555 1_555
C24A N3A 1_555 1_555
C25A C24A 1_555 1_555
H11A C25A 1_555 1_555
C26A C25A 1_555 1_555
C27A C26A 1_555 1_555
C28A C23A 1_555 1_555
H12A C28A 1_555 1_555
C5 C6 1_555 1_555
C7 C8 1_555 1_555
C16 C17 1_555 1_555
C23 C24 1_555 1_555
C27 C28 1_555 1_555
C5A C6A 1_555 1_555
C7A C8A 1_555 1_555
C8A C9A 1_555 1_555
C10A C11A 1_555 1_555
C16A C17A 1_555 1_555
C19A C20A 1_555 1_555
C21A C22A 1_555 1_555
C23A C24A 1_555 1_555
C27A C28A 1_555 1_555

#END
