
#######################################################################
#
#                 Cambridge Crystallographic Data Centre
#                                CCDC 
#
#######################################################################
#
# If this CIF has been generated from an entry in the Cambridge 
# Structural Database, then it will include bibliographic, chemical, 
# crystal, experimental, refinement or atomic coordinate data resulting 
# from the CCDC's data processing and validation procedures.
#
#######################################################################

data_VAYMUG
_chemical_formula_moiety         'C42 H54 N2 Si2'
_chemical_name_systematic        
2,3-diphenyl-5,8-bis{[triisopropylsilyl]ethynyl}quinoxaline
_symmetry_cell_setting           monoclinic
_symmetry_space_group_name_H-M   'P 21/c'
_symmetry_Int_Tables_number      14
_space_group_name_Hall           '-P 2ybc'
loop_
_symmetry_equiv_pos_site_id
_symmetry_equiv_pos_as_xyz
1 x,y,z
2 -x,1/2+y,1/2-z
3 -x,-y,-z
4 x,1/2-y,1/2+z
_cell_length_a                   23.688(2)
_cell_length_b                   10.9235(10)
_cell_length_c                   15.5551(11)
_cell_angle_alpha                90
_cell_angle_beta                 105.605(7)
_cell_angle_gamma                90
_cell_volume                     3876.61
_exptl_crystal_colour            colorless
_exptl_crystal_description       plate
_cell_formula_units_Z            4
loop_
_atom_site_label
_atom_site_type_symbol
_atom_site_fract_x
_atom_site_fract_y
_atom_site_fract_z
Si1 Si 0.30836(9) 0.9063(2) 0.47908(13)
C1 C 0.1346(3) 0.2961(7) 0.6659(4)
C2 C 0.1069(3) 0.2175(7) 0.6905(4)
C3 C 0.2575(3) 0.6788(7) 0.5423(4)
C4 C 0.2781(3) 0.7677(7) 0.5166(4)
C5 C 0.1667(3) 0.3915(6) 0.6345(4)
C6 C 0.2290(3) 0.3885(6) 0.6551(4)
N1 N 0.2591(2) 0.3004(5) 0.7108(3)
C7 C 0.3170(3) 0.3002(6) 0.7287(4)
C8 C 0.3466(3) 0.3821(6) 0.6835(4)
N2 N 0.3185(2) 0.4737(5) 0.6344(3)
C9 C 0.2591(3) 0.4799(6) 0.6216(4)
C10 C 0.2269(3) 0.5802(6) 0.5729(4)
C11 C 0.1670(3) 0.5812(7) 0.5558(4)
H1 H 0.1455 0.6476 0.5234
C12 C 0.1370(3) 0.4874(7) 0.5847(4)
H2 H 0.0954 0.4894 0.5699
C13 C 0.3475(3) 0.2145(6) 0.8014(4)
C14 C 0.4014(3) 0.2436(6) 0.8609(4)
H3 H 0.4219 0.3150 0.8517
C15 C 0.4251(3) 0.1680(7) 0.9333(4)
H4 H 0.4618 0.1883 0.9734
C16 C 0.3963(3) 0.0650(7) 0.9478(4)
H5 H 0.4127 0.0147 0.9981
C17 C 0.3433(3) 0.0344(7) 0.8891(4)
H6 H 0.3235 -0.0380 0.8986
C18 C 0.3186(3) 0.1089(6) 0.8161(4)
H7 H 0.2820 0.0875 0.7762
C19 C 0.4093(3) 0.3691(6) 0.6836(4)
C20 C 0.4441(3) 0.4741(6) 0.6899(4)
H8 H 0.4284 0.5520 0.6976
C21 C 0.5014(3) 0.4641(8) 0.6850(4)
H9 H 0.5245 0.5357 0.6872
C22 C 0.5252(4) 0.3502(7) 0.6768(4)
H10 H 0.5650 0.3434 0.6757
C23 C 0.4908(3) 0.2464(7) 0.6702(4)
H11 H 0.5066 0.1686 0.6622
C24 C 0.4331(3) 0.2550(6) 0.6752(4)
H12 H 0.4102 0.1831 0.6730
Si2 Si 0.0571(3) 0.1133(7) 0.7219(5)
C25 C 0.0956(6) -0.0368(11) 0.7370(8)
H13 H 0.0714 -0.0941 0.7625
C26 C 0.1002(8) -0.0935(15) 0.6489(10)
H14 H 0.0613 -0.0964 0.6065
H15 H 0.1264 -0.0436 0.6240
H16 H 0.1160 -0.1767 0.6599
C27 C 0.1558(6) -0.0323(16) 0.8024(10)
H17 H 0.1528 0.0039 0.8587
H18 H 0.1715 -0.1155 0.8135
H19 H 0.1819 0.0176 0.7775
C28 C -0.0093(6) 0.1076(14) 0.6226(10)
H20 H 0.0042 0.0731 0.5721
C29 C -0.0558(8) 0.022(2) 0.6365(17)
H21 H -0.0383 -0.0580 0.6556
H22 H -0.0727 0.0556 0.6825
H23 H -0.0866 0.0132 0.5805
C30 C -0.0342(8) 0.2332(14) 0.5929(12)
H24 H -0.0028 0.2866 0.5845
H25 H -0.0648 0.2260 0.5365
H26 H -0.0509 0.2684 0.6385
C31 C 0.0368(6) 0.1707(12) 0.8218(8)
H27 H 0.0041 0.2298 0.7980
C32 C 0.0114(9) 0.0754(16) 0.8709(12)
H28 H -0.0187 0.0284 0.8280
H29 H 0.0425 0.0201 0.9030
H30 H -0.0063 0.1158 0.9136
C33 C 0.0831(8) 0.2440(18) 0.8864(12)
H31 H 0.0992 0.3055 0.8537
H32 H 0.0657 0.2851 0.9292
H33 H 0.1145 0.1894 0.9186
C34 C 0.2779(3) 0.9110(6) 0.3552(4)
H34 H 0.2935 0.9860 0.3327
C35 C 0.2954(5) 0.8001(8) 0.3081(6)
H35 H 0.3382 0.7928 0.3245
H36 H 0.2784 0.7258 0.3261
H37 H 0.2808 0.8107 0.2433
C36 C 0.2112(4) 0.9193(8) 0.3280(5)
H38 H 0.1989 0.9898 0.3574
H39 H 0.1971 0.9291 0.2631
H40 H 0.1947 0.8442 0.3459
C37 C 0.3876(4) 0.8673(15) 0.4986(8)
H41 H 0.3889 0.7817 0.4764
C38 C 0.4229(5) 0.9416(17) 0.4539(9)
H42 H 0.4040 0.9432 0.3895
H43 H 0.4260 1.0253 0.4774
H44 H 0.4621 0.9060 0.4647
C39 C 0.4161(5) 0.8634(19) 0.5990(7)
H45 H 0.3921 0.8135 0.6279
H46 H 0.4554 0.8275 0.6104
H47 H 0.4192 0.9468 0.6232
C40 C 0.2855(3) 1.0411(6) 0.5358(4)
H48 H 0.3149 1.0471 0.5954
C41 C 0.2890(4) 1.1631(6) 0.4890(4)
H49 H 0.3274 1.1702 0.4768
H50 H 0.2581 1.1663 0.4327
H51 H 0.2839 1.2308 0.5275
C42 C 0.2263(3) 1.0284(8) 0.5554(5)
H52 H 0.2246 0.9500 0.5854
H53 H 0.2209 1.0956 0.5942
H54 H 0.1951 1.0312 0.4993
Si3? Si 0.0743(4) 0.0969(8) 0.7462(5)
C43? C 0.0779(8) -0.0545(12) 0.6968(10)
H55? H 0.0431 -0.0990 0.7062
C44? C 0.1291(11) -0.139(2) 0.7370(14)
H56? H 0.1364 -0.1399 0.8021
H57? H 0.1198 -0.2219 0.7136
H58? H 0.1641 -0.1093 0.7214
C45? C 0.0683(11) -0.056(2) 0.5973(10)
H59? H 0.0354 -0.0020 0.5694
H60? H 0.1038 -0.0269 0.5828
H61? H 0.0595 -0.1394 0.5750
C46? C -0.0030(5) 0.1476(14) 0.7344(10)
H62? H -0.0008 0.2292 0.7643
C47? C -0.0356(8) 0.062(2) 0.7821(16)
H63? H -0.0123 0.0498 0.8439
H64? H -0.0736 0.0979 0.7817
H65? H -0.0419 -0.0173 0.7513
C48? C -0.0400(8) 0.164(2) 0.6392(10)
H66? H -0.0198 0.2192 0.6075
H67? H -0.0462 0.0847 0.6091
H68? H -0.0780 0.1999 0.6395
C49? C 0.1185(7) 0.1025(16) 0.8651(8)
H69? H 0.1064 0.0326 0.8976
C50? C 0.1107(12) 0.2188(19) 0.9113(13)
H70? H 0.0691 0.2302 0.9078
H71? H 0.1333 0.2145 0.9741
H72? H 0.1246 0.2879 0.8824
C51? C 0.1844(7) 0.090(2) 0.8731(13)
H73? H 0.1915 0.0150 0.8436
H74? H 0.1975 0.1610 0.8446
H75? H 0.2061 0.0876 0.9363
C52? C 0.3875(6) 0.8970(19) 0.5384(19)
H76? H 0.3856 0.9266 0.5984
C53? C 0.4239(9) 0.995(2) 0.517(2)
H77? H 0.4001 1.0693 0.4997
H78? H 0.4566 1.0130 0.5693
H79? H 0.4394 0.9695 0.4673
C54? C 0.4178(10) 0.779(2) 0.5658(19)
H80? H 0.3899 0.7195 0.5786
H81? H 0.4330 0.7472 0.5175
H82? H 0.4502 0.7908 0.6195
loop_
_geom_bond_atom_site_label_1
_geom_bond_atom_site_label_2
_geom_bond_site_symmetry_1
_geom_bond_site_symmetry_2
Si1 C4 1_555 1_555
C1 C2 1_555 1_555
C2 Si2 1_555 1_555
C3 C4 1_555 1_555
C5 C1 1_555 1_555
C6 C5 1_555 1_555
N1 C6 1_555 1_555
C7 N1 1_555 1_555
C8 C7 1_555 1_555
N2 C8 1_555 1_555
C9 C6 1_555 1_555
C10 C3 1_555 1_555
C11 C10 1_555 1_555
H1 C11 1_555 1_555
C12 C5 1_555 1_555
H2 C12 1_555 1_555
C13 C7 1_555 1_555
C14 C13 1_555 1_555
H3 C14 1_555 1_555
C15 C14 1_555 1_555
H4 C15 1_555 1_555
C16 C15 1_555 1_555
H5 C16 1_555 1_555
C17 C16 1_555 1_555
H6 C17 1_555 1_555
C18 C13 1_555 1_555
H7 C18 1_555 1_555
C19 C8 1_555 1_555
C20 C19 1_555 1_555
H8 C20 1_555 1_555
C21 C20 1_555 1_555
H9 C21 1_555 1_555
C22 C21 1_555 1_555
H10 C22 1_555 1_555
C23 C22 1_555 1_555
H11 C23 1_555 1_555
C24 C19 1_555 1_555
H12 C24 1_555 1_555
Si2 C25 1_555 1_555
C25 H13 1_555 1_555
C26 C25 1_555 1_555
H14 C26 1_555 1_555
H15 C26 1_555 1_555
H16 C26 1_555 1_555
C27 C25 1_555 1_555
H17 C27 1_555 1_555
H18 C27 1_555 1_555
H19 C27 1_555 1_555
C28 Si2 1_555 1_555
H20 C28 1_555 1_555
C29 C28 1_555 1_555
H21 C29 1_555 1_555
H22 C29 1_555 1_555
H23 C29 1_555 1_555
C30 C28 1_555 1_555
H24 C30 1_555 1_555
H25 C30 1_555 1_555
H26 C30 1_555 1_555
C31 Si2 1_555 1_555
H27 C31 1_555 1_555
C32 C31 1_555 1_555
H28 C32 1_555 1_555
H29 C32 1_555 1_555
H30 C32 1_555 1_555
C33 C31 1_555 1_555
H31 C33 1_555 1_555
H32 C33 1_555 1_555
H33 C33 1_555 1_555
C34 Si1 1_555 1_555
H34 C34 1_555 1_555
C35 C34 1_555 1_555
H35 C35 1_555 1_555
H36 C35 1_555 1_555
H37 C35 1_555 1_555
C36 C34 1_555 1_555
H38 C36 1_555 1_555
H39 C36 1_555 1_555
H40 C36 1_555 1_555
C37 Si1 1_555 1_555
H41 C37 1_555 1_555
C38 C37 1_555 1_555
H42 C38 1_555 1_555
H43 C38 1_555 1_555
H44 C38 1_555 1_555
C39 C37 1_555 1_555
H45 C39 1_555 1_555
H46 C39 1_555 1_555
H47 C39 1_555 1_555
C40 Si1 1_555 1_555
H48 C40 1_555 1_555
C41 C40 1_555 1_555
H49 C41 1_555 1_555
H50 C41 1_555 1_555
H51 C41 1_555 1_555
C42 C40 1_555 1_555
H52 C42 1_555 1_555
H53 C42 1_555 1_555
H54 C42 1_555 1_555
N2 C9 1_555 1_555
C9 C10 1_555 1_555
C11 C12 1_555 1_555
C17 C18 1_555 1_555
C23 C24 1_555 1_555

#END
