
#######################################################################
#
#                 Cambridge Crystallographic Data Centre
#                                CCDC 
#
#######################################################################
#
# If this CIF has been generated from an entry in the Cambridge 
# Structural Database, then it will include bibliographic, chemical, 
# crystal, experimental, refinement or atomic coordinate data resulting 
# from the CCDC's data processing and validation procedures.
#
#######################################################################

data_VAYVAT
_chemical_formula_moiety         'C19 H19 Cl2 N3 O2'
_chemical_name_systematic        
'r-2,c-6-bis(2-chlorophenyl)-t-3,t-5-dimethyl-N-nitroso-piperidin-4-one oxime'
_symmetry_cell_setting           triclinic
_symmetry_space_group_name_H-M   'P -1'
_symmetry_Int_Tables_number      2
_space_group_name_Hall           '-P 1'
loop_
_symmetry_equiv_pos_site_id
_symmetry_equiv_pos_as_xyz
1 x,y,z
2 -x,-y,-z
_cell_length_a                   7.9168(7)
_cell_length_b                   8.5941(8)
_cell_length_c                   14.1572(13)
_cell_angle_alpha                90.225(2)
_cell_angle_beta                 101.459(2)
_cell_angle_gamma                94.810(2)
_cell_volume                     940.491
_exptl_crystal_colour            colorless
_exptl_crystal_description       Block
_chemical_melting_point          '475-477 K'
_cell_formula_units_Z            2
_exptl_crystal_recrystallization_method ethanol
loop_
_atom_site_label
_atom_site_type_symbol
_atom_site_fract_x
_atom_site_fract_y
_atom_site_fract_z
Cl1 Cl -0.28911(7) 0.69334(7) 0.05545(4)
Cl2 Cl 0.17287(8) 0.87254(7) 0.50968(4)
N1 N 0.09785(17) 0.91367(16) 0.27903(10)
N2 N -0.0258(2) 0.99265(18) 0.30342(12)
N3 N 0.40854(19) 0.96741(17) 0.08402(11)
O1 O -0.17098(18) 0.95549(18) 0.25574(12)
O2 O 0.51706(18) 1.10777(15) 0.09550(10)
H1 H 0.5727 1.1137 0.0524
C1 C 0.2749(2) 0.97996(19) 0.32025(12)
H2 H 0.2634 1.0651 0.3642
C2 C 0.3496(2) 1.0565(2) 0.23774(13)
H3 H 0.4728 1.0870 0.2616
C3 C 0.3320(2) 0.9430(2) 0.15440(12)
C4 C 0.2229(2) 0.7894(2) 0.15403(13)
H4 H 0.2911 0.7221 0.1997
C5 C 0.0567(2) 0.81217(19) 0.19219(12)
H5 H -0.0218 0.8646 0.1424
C6 C 0.1824(3) 0.7036(3) 0.05703(17)
H6 H 0.1186 0.7673 0.0095
H7 H 0.1147 0.6071 0.0619
H8 H 0.2885 0.6823 0.0384
C7 C 0.2589(3) 1.2033(2) 0.20598(16)
H9 H 0.3077 1.2517 0.1554
H10 H 0.2743 1.2751 0.2598
H11 H 0.1376 1.1754 0.1829
C8 C -0.0362(2) 0.65809(19) 0.21299(12)
C9 C -0.1899(2) 0.5945(2) 0.15543(13)
C10 C -0.2689(3) 0.4517(2) 0.17451(15)
H12 H -0.3714 0.4121 0.1346
C11 C -0.1959(3) 0.3688(2) 0.25217(16)
H13 H -0.2480 0.2722 0.2648
C12 C -0.0451(3) 0.4290(2) 0.31155(16)
H14 H 0.0042 0.3738 0.3649
C13 C 0.0330(2) 0.5720(2) 0.29161(14)
H15 H 0.1349 0.6114 0.3322
C14 C 0.3865(2) 0.8666(2) 0.38052(13)
C15 C 0.5340(2) 0.8172(2) 0.35496(16)
H16 H 0.5616 0.8486 0.2967
C16 C 0.6409(3) 0.7227(3) 0.4135(2)
H17 H 0.7390 0.6914 0.3945
C17 C 0.6025(3) 0.6753(3) 0.49956(19)
H18 H 0.6748 0.6120 0.5392
C18 C 0.4573(3) 0.7211(3) 0.52759(16)
H19 H 0.4305 0.6883 0.5858
C19 C 0.3518(3) 0.8157(2) 0.46886(13)
loop_
_geom_bond_atom_site_label_1
_geom_bond_atom_site_label_2
_geom_bond_site_symmetry_1
_geom_bond_site_symmetry_2
Cl1 C9 1_555 1_555
Cl2 C19 1_555 1_555
N1 N2 1_555 1_555
N2 O1 1_555 1_555
N3 O2 1_555 1_555
O2 H1 1_555 1_555
C1 N1 1_555 1_555
H2 C1 1_555 1_555
C2 C1 1_555 1_555
H3 C2 1_555 1_555
C3 N3 1_555 1_555
C4 C3 1_555 1_555
H4 C4 1_555 1_555
C5 N1 1_555 1_555
H5 C5 1_555 1_555
C6 C4 1_555 1_555
H6 C6 1_555 1_555
H7 C6 1_555 1_555
H8 C6 1_555 1_555
C7 C2 1_555 1_555
H9 C7 1_555 1_555
H10 C7 1_555 1_555
H11 C7 1_555 1_555
C8 C5 1_555 1_555
C9 C8 1_555 1_555
C10 C9 1_555 1_555
H12 C10 1_555 1_555
C11 C10 1_555 1_555
H13 C11 1_555 1_555
C12 C11 1_555 1_555
H14 C12 1_555 1_555
C13 C8 1_555 1_555
H15 C13 1_555 1_555
C14 C1 1_555 1_555
C15 C14 1_555 1_555
H16 C15 1_555 1_555
C16 C15 1_555 1_555
H17 C16 1_555 1_555
C17 C16 1_555 1_555
H18 C17 1_555 1_555
C18 C17 1_555 1_555
H19 C18 1_555 1_555
C19 C14 1_555 1_555
C2 C3 1_555 1_555
C4 C5 1_555 1_555
C12 C13 1_555 1_555
C18 C19 1_555 1_555

#END
