
#######################################################################
#
#                 Cambridge Crystallographic Data Centre
#                                CCDC 
#
#######################################################################
#
# If this CIF has been generated from an entry in the Cambridge 
# Structural Database, then it will include bibliographic, chemical, 
# crystal, experimental, refinement or atomic coordinate data resulting 
# from the CCDC's data processing and validation procedures.
#
#######################################################################

data_VAYXID
_chemical_formula_moiety         'C18 H19 N3 O2,H2 O1'
_chemical_name_systematic        
't-3-methyl-N-nitroso-r-2,c-6-diphenylpiperidin-4-one oxime monohydrate'
_symmetry_cell_setting           monoclinic
_symmetry_space_group_name_H-M   'P 21'
_symmetry_Int_Tables_number      4
_space_group_name_Hall           'P 2yb'
loop_
_symmetry_equiv_pos_site_id
_symmetry_equiv_pos_as_xyz
1 x,y,z
2 -x,1/2+y,-z
_cell_length_a                   7.9578(13)
_cell_length_b                   7.0567(12)
_cell_length_c                   15.642(3)
_cell_angle_alpha                90
_cell_angle_beta                 100.483(3)
_cell_angle_gamma                90
_cell_volume                     863.728
_exptl_crystal_colour            colorless
_exptl_crystal_description       Block
_chemical_melting_point          '445-447 K'
_cell_formula_units_Z            2
_exptl_crystal_recrystallization_method ethanol
loop_
_atom_site_label
_atom_site_type_symbol
_atom_site_fract_x
_atom_site_fract_y
_atom_site_fract_z
O1 O 0.9311(3) 0.2590(5) 0.15111(19)
O2 O 0.2842(3) 0.8051(3) 0.12109(16)
H1 H 0.2169 0.8667 0.0859
N1 N 0.6840(3) 0.2866(4) 0.18680(15)
N2 N 0.7978(3) 0.1772(5) 0.16049(19)
N3 N 0.2642(3) 0.6139(4) 0.10156(16)
C1 C 0.7090(3) 0.4937(4) 0.19281(18)
H2 H 0.7400 0.5369 0.1382
C2 C 0.5412(4) 0.5908(4) 0.2020(2)
H3 H 0.5225 0.5744 0.2611
H4 H 0.5513 0.7256 0.1919
C3 C 0.3887(3) 0.5149(4) 0.14017(17)
C4 C 0.3815(4) 0.3047(4) 0.12035(18)
H5 H 0.2681 0.2581 0.1261
C5 C 0.5152(4) 0.1968(4) 0.18555(19)
H6 H 0.5225 0.0697 0.1612
C6 C 0.4070(5) 0.2660(5) 0.0274(2)
H7 H 0.3239 0.3358 -0.0126
H8 H 0.3934 0.1329 0.0153
H9 H 0.5198 0.3048 0.0212
C7 C 0.4809(4) 0.1687(4) 0.27671(19)
C8 C 0.5957(5) 0.0583(5) 0.3331(2)
H10 H 0.6914 0.0091 0.3146
C9 C 0.5704(7) 0.0211(7) 0.4153(3)
H11 H 0.6489 -0.0533 0.4520
C10 C 0.4304(7) 0.0920(8) 0.4443(3)
H12 H 0.4140 0.0675 0.5007
C11 C 0.3159(6) 0.1991(7) 0.3893(3)
H13 H 0.2207 0.2473 0.4087
C12 C 0.3378(5) 0.2375(5) 0.3055(2)
H14 H 0.2572 0.3091 0.2686
C13 C 0.8504(3) 0.5547(4) 0.26659(19)
C14 C 0.9748(4) 0.6789(6) 0.2478(2)
H15 H 0.9740 0.7161 0.1907
C15 C 1.0992(5) 0.7470(6) 0.3140(3)
H16 H 1.1841 0.8267 0.3009
C16 C 1.0984(5) 0.6979(7) 0.3982(3)
H17 H 1.1802 0.7479 0.4425
C17 C 0.9767(5) 0.5744(7) 0.4178(2)
H18 H 0.9782 0.5378 0.4750
C18 C 0.8519(4) 0.5047(6) 0.3515(2)
H19 H 0.7684 0.4234 0.3648
O3 O 1.0323(4) 0.0041(5) 0.0310(3)
H20 H 0.971(7) 0.022(8) -0.020(4)
H21 H 0.990(10) 0.074(14) 0.061(5)
loop_
_geom_bond_atom_site_label_1
_geom_bond_atom_site_label_2
_geom_bond_site_symmetry_1
_geom_bond_site_symmetry_2
O1 N2 1_555 1_555
O2 H1 1_555 1_555
N1 N2 1_555 1_555
N3 O2 1_555 1_555
C1 N1 1_555 1_555
H2 C1 1_555 1_555
C2 C1 1_555 1_555
H3 C2 1_555 1_555
H4 C2 1_555 1_555
C3 N3 1_555 1_555
C4 C3 1_555 1_555
H5 C4 1_555 1_555
C5 N1 1_555 1_555
H6 C5 1_555 1_555
C6 C4 1_555 1_555
H7 C6 1_555 1_555
H8 C6 1_555 1_555
H9 C6 1_555 1_555
C7 C5 1_555 1_555
C8 C7 1_555 1_555
H10 C8 1_555 1_555
C9 C8 1_555 1_555
H11 C9 1_555 1_555
C10 C9 1_555 1_555
H12 C10 1_555 1_555
C11 C10 1_555 1_555
H13 C11 1_555 1_555
C12 C7 1_555 1_555
H14 C12 1_555 1_555
C13 C1 1_555 1_555
C14 C13 1_555 1_555
H15 C14 1_555 1_555
C15 C14 1_555 1_555
H16 C15 1_555 1_555
C16 C15 1_555 1_555
H17 C16 1_555 1_555
C17 C16 1_555 1_555
H18 C17 1_555 1_555
C18 C13 1_555 1_555
H19 C18 1_555 1_555
O3 H20 1_555 1_555
H21 O3 1_555 1_555
C2 C3 1_555 1_555
C4 C5 1_555 1_555
C11 C12 1_555 1_555
C17 C18 1_555 1_555

#END
