
#######################################################################
#
#                 Cambridge Crystallographic Data Centre
#                                CCDC 
#
#######################################################################
#
# If this CIF has been generated from an entry in the Cambridge 
# Structural Database, then it will include bibliographic, chemical, 
# crystal, experimental, refinement or atomic coordinate data resulting 
# from the CCDC's data processing and validation procedures.
#
#######################################################################

data_VAYYAV
_chemical_formula_moiety         
'C12 H18 N4 O1 S1 2+,0.5(O4 S1 2-),Cl1 1-,H2 O1'
_chemical_name_systematic        'Thiamin hydrochloride hemisulfate monohydrate'
_symmetry_cell_setting           monoclinic
_symmetry_space_group_name_H-M   'C 2/c'
_symmetry_Int_Tables_number      15
_space_group_name_Hall           '-C 2yn'
loop_
_symmetry_equiv_pos_site_id
_symmetry_equiv_pos_as_xyz
1 x,y,z
2 1/2+x,1/2+y,z
3 -x,y,1/2-z
4 1/2-x,1/2+y,1/2-z
5 -x,-y,-z
6 1/2-x,1/2-y,-z
7 x,-y,1/2+z
8 1/2+x,1/2-y,1/2+z
_cell_length_a                   20.776(6)
_cell_length_b                   11.825(2)
_cell_length_c                   13.367(2)
_cell_angle_alpha                90
_cell_angle_beta                 101.15(2)
_cell_angle_gamma                90
_cell_volume                     3221.97
_exptl_crystal_colour            colorless
_cell_formula_units_Z            8
loop_
_atom_site_label
_atom_site_type_symbol
_atom_site_fract_x
_atom_site_fract_y
_atom_site_fract_z
S1 S 0.3457(1) 0.2148(1) 0.2162(1)
C1 C 0.3932(2) 0.2459(3) 0.1316(2)
N1 N 0.3645(1) 0.3183(2) 0.0621(2)
C2 C 0.3027(2) 0.3539(3) 0.0740(2)
C3 C 0.2846(2) 0.3035(3) 0.1556(2)
C4 C 0.2238(2) 0.3264(4) 0.1972(3)
C5 C 0.2338(2) 0.4234(4) 0.2750(3)
O1 O 0.2474(2) 0.5272(3) 0.2323(3)
C6 C 0.2655(2) 0.4378(4) 0.0028(3)
C7 C 0.3964(2) 0.3654(3) -0.0207(3)
C8 C 0.4646(2) 0.3238(3) -0.0147(2)
C9 C 0.4790(2) 0.2484(3) -0.0841(3)
N2 N 0.5411(1) 0.2141(3) -0.0805(2)
C10 C 0.5906(2) 0.2570(3) -0.0108(3)
N3 N 0.5811(1) 0.3320(2) 0.0578(2)
C11 C 0.5186(2) 0.3651(3) 0.0581(2)
C12 C 0.6581(2) 0.2167(4) -0.0121(4)
N4 N 0.5110(2) 0.4392(3) 0.1296(2)
H1 H 0.436(2) 0.213(3) 0.138(2)
H2 H 0.211(2) 0.261(3) 0.220(3)
H3 H 0.184(2) 0.348(3) 0.137(3)
H4 H 0.277(2) 0.406(3) 0.341(3)
H5 H 0.192(2) 0.433(4) 0.302(3)
H6 H 0.285(2) 0.529(4) 0.223(3)
H7 H 0.219(2) 0.446(4) 0.013(3)
H8 H 0.263(2) 0.415(4) -0.073(3)
H9 H 0.287(2) 0.508(4) 0.016(3)
H10 H 0.393(2) 0.444(3) -0.016(2)
H11 H 0.367(2) 0.345(3) -0.090(3)
H12 H 0.445(2) 0.219(3) -0.135(3)
H13 H 0.549(2) 0.163(4) -0.122(3)
H14 H 0.659(3) 0.159(5) -0.054(5)
H15 H 0.687(3) 0.271(6) -0.013(5)
H16 H 0.677(3) 0.169(6) 0.050(5)
H17 H 0.473(2) 0.466(4) 0.132(3)
H18 H 0.548(2) 0.464(3) 0.172(3)
S2 S 0.5000 0.0163(1) 0.2500
O2 O 0.5565(1) -0.0562(3) 0.2842(3)
O3 O 0.5149(2) 0.0855(3) 0.1683(2)
O2B O 0.4435(1) -0.0562(3) 0.2158(3)
O3B O 0.4851(2) 0.0855(3) 0.3317(2)
Cl1 Cl 0.611(2) 0.5697(1) 0.2985(1)
O4 O 0.0923(2) 0.4650(3) 0.0336(3)
H19? H 0.431(3) 0.029(6) 0.009(5)
H20? H 0.397(4) -0.010(8) 0.104(7)
loop_
_geom_bond_atom_site_label_1
_geom_bond_atom_site_label_2
_geom_bond_site_symmetry_1
_geom_bond_site_symmetry_2
S1 C1 1_555 1_555
C1 N1 1_555 1_555
N1 C2 1_555 1_555
C2 C3 1_555 1_555
C3 S1 1_555 1_555
C4 C3 1_555 1_555
C5 C4 1_555 1_555
O1 C5 1_555 1_555
C6 C2 1_555 1_555
C7 N1 1_555 1_555
C8 C7 1_555 1_555
C9 C8 1_555 1_555
N2 C9 1_555 1_555
C10 N2 1_555 1_555
N3 C10 1_555 1_555
C11 C8 1_555 1_555
C12 C10 1_555 1_555
N4 C11 1_555 1_555
S2 O2 1_555 1_555
O3 S2 1_555 1_555
H1 C1 1_555 1_555
H2 C4 1_555 1_555
H3 C4 1_555 1_555
H4 C5 1_555 1_555
H5 C5 1_555 1_555
H6 O1 1_555 1_555
H7 C6 1_555 1_555
H8 C6 1_555 1_555
H9 C6 1_555 1_555
H10 C7 1_555 1_555
H11 C7 1_555 1_555
H12 C9 1_555 1_555
H13 N2 1_555 1_555
H14 C12 1_555 1_555
H15 C12 1_555 1_555
H16 C12 1_555 1_555
H17 N4 1_555 1_555
H18 N4 1_555 1_555
O2B S2 1_555 1_555
O3B S2 1_555 1_555
N3 C11 1_555 1_555

#END
