
#######################################################################
#
#                 Cambridge Crystallographic Data Centre
#                                CCDC 
#
#######################################################################
#
# If this CIF has been generated from an entry in the Cambridge 
# Structural Database, then it will include bibliographic, chemical, 
# crystal, experimental, refinement or atomic coordinate data resulting 
# from the CCDC's data processing and validation procedures.
#
#######################################################################

data_VAZBAA
_chemical_formula_moiety         'C20 H32 N6 O6'
_chemical_name_systematic        
'dimethyl 2,6-di-t-butyl-4,8-dioxo-1,2,5,6-tetrahydro-2,3a,4a,6,7a,8a-hexaazacyclopenta(def)fluorene-8b,8c-dicarboxylate'
_symmetry_cell_setting           monoclinic
_symmetry_space_group_name_H-M   'P 21/c'
_symmetry_Int_Tables_number      14
_space_group_name_Hall           '-P 2ybc'
loop_
_symmetry_equiv_pos_site_id
_symmetry_equiv_pos_as_xyz
1 x,y,z
2 -x,1/2+y,1/2-z
3 -x,-y,-z
4 x,1/2-y,1/2+z
_cell_length_a                   14.6448(15)
_cell_length_b                   12.4388(12)
_cell_length_c                   13.2805(14)
_cell_angle_alpha                90
_cell_angle_beta                 98.362(2)
_cell_angle_gamma                90
_cell_volume                     2393.51
_exptl_crystal_colour            colorless
_exptl_crystal_description       block
_cell_formula_units_Z            4
_exptl_crystal_recrystallization_method 'ethyl acetate'
loop_
_atom_site_label
_atom_site_type_symbol
_atom_site_fract_x
_atom_site_fract_y
_atom_site_fract_z
C1 C 0.83215(16) 0.4581(2) 0.4295(2)
H1 H 0.8324 0.4487 0.3578
H2 H 0.8916 0.4396 0.4657
H3 H 0.8185 0.5317 0.4430
C2 C 0.7582(2) 0.4003(4) 0.5777(2)
H4 H 0.7532 0.4754 0.5927
H5 H 0.8142 0.3721 0.6147
H6 H 0.7063 0.3625 0.5973
C3 C 0.7835(2) 0.2693(2) 0.4462(3)
H7 H 0.7342 0.2236 0.4606
H8 H 0.8392 0.2507 0.4901
H9 H 0.7925 0.2601 0.3765
C4 C 0.75919(15) 0.38580(19) 0.46419(17)
C5 C 0.61554(14) 0.50307(17) 0.43265(15)
H10 H 0.6400 0.5278 0.5005
H11 H 0.5507 0.4866 0.4320
C6 C 0.63598(14) 0.37425(14) 0.30666(16)
H12 H 0.5729 0.3483 0.2987
H13 H 0.6748 0.3151 0.2913
C7 C 0.69046(13) 0.66836(15) 0.37287(15)
C8 C 0.71746(13) 0.47652(15) 0.18419(14)
C9 C 0.60002(11) 0.56193(13) 0.25381(12)
C10 C 0.49423(12) 0.56513(14) 0.22493(14)
C11 C 0.36259(15) 0.4787(2) 0.1400(2)
H14 H 0.3312 0.4874 0.1981
H15 H 0.3452 0.4113 0.1075
H16 H 0.3458 0.5364 0.0929
C12 C 0.65264(12) 0.64724(14) 0.19753(13)
C13 C 0.59147(12) 0.71849(15) 0.12043(14)
C14 C 0.48085(15) 0.71400(19) -0.02712(16)
H17 H 0.4418 0.7588 0.0073
H18 H 0.4438 0.6621 -0.0681
H19 H 0.5133 0.7577 -0.0698
C15 C 0.78498(15) 0.76223(18) 0.26212(19)
H20 H 0.7725 0.8167 0.2097
H21 H 0.8139 0.7969 0.3241
C16 C 0.80235(14) 0.63383(19) 0.13433(17)
H22 H 0.7903 0.6895 0.0830
H23 H 0.8433 0.5813 0.1107
C17 C 0.94283(16) 0.7210(3) 0.2276(2)
C18 C 0.9999(2) 0.6272(4) 0.1981(4)
H24 H 0.9912 0.5662 0.2400
H25 H 1.0639 0.6468 0.2076
H26 H 0.9805 0.6092 0.1279
C19 C 0.9458(2) 0.8134(3) 0.1522(3)
H27 H 0.9204 0.7897 0.0851
H28 H 1.0085 0.8357 0.1525
H29 H 0.9102 0.8727 0.1717
C20 C 0.9822(2) 0.7592(4) 0.3345(3)
H30 H 0.9484 0.8210 0.3518
H31 H 1.0460 0.7779 0.3363
H32 H 0.9769 0.7026 0.3825
N1 N 0.66325(11) 0.40597(13) 0.41153(12)
N2 N 0.62353(10) 0.59089(12) 0.35964(11)
N3 N 0.64217(10) 0.46123(11) 0.23258(11)
N4 N 0.69911(11) 0.71167(12) 0.27947(12)
N5 N 0.71602(10) 0.58219(13) 0.14928(12)
N6 N 0.84655(11) 0.68123(15) 0.23076(14)
O1 O 0.73199(11) 0.69780(13) 0.45408(11)
O2 O 0.77349(11) 0.40908(12) 0.16918(12)
O3 O 0.45034(10) 0.63920(12) 0.24816(13)
O4 O 0.46132(9) 0.48030(11) 0.17243(12)
O5 O 0.58570(10) 0.81389(11) 0.12794(11)
O6 O 0.54676(9) 0.65869(10) 0.04739(10)
loop_
_geom_bond_atom_site_label_1
_geom_bond_atom_site_label_2
_geom_bond_site_symmetry_1
_geom_bond_site_symmetry_2
C1 H1 1_555 1_555
H2 C1 1_555 1_555
H3 C1 1_555 1_555
C2 H4 1_555 1_555
H5 C2 1_555 1_555
H6 C2 1_555 1_555
C3 H7 1_555 1_555
H8 C3 1_555 1_555
H9 C3 1_555 1_555
C4 C1 1_555 1_555
C5 H10 1_555 1_555
H11 C5 1_555 1_555
C6 H12 1_555 1_555
H13 C6 1_555 1_555
C7 N2 1_555 1_555
C8 N3 1_555 1_555
C9 C10 1_555 1_555
C10 O3 1_555 1_555
C11 H14 1_555 1_555
H15 C11 1_555 1_555
H16 C11 1_555 1_555
C12 C9 1_555 1_555
C13 C12 1_555 1_555
C14 H17 1_555 1_555
H18 C14 1_555 1_555
H19 C14 1_555 1_555
C15 H20 1_555 1_555
H21 C15 1_555 1_555
C16 H22 1_555 1_555
H23 C16 1_555 1_555
C17 C18 1_555 1_555
C18 H24 1_555 1_555
H25 C18 1_555 1_555
H26 C18 1_555 1_555
C19 C17 1_555 1_555
H27 C19 1_555 1_555
H28 C19 1_555 1_555
H29 C19 1_555 1_555
C20 C17 1_555 1_555
H30 C20 1_555 1_555
H31 C20 1_555 1_555
H32 C20 1_555 1_555
N1 C4 1_555 1_555
N2 C5 1_555 1_555
N3 C6 1_555 1_555
N4 C7 1_555 1_555
N5 C8 1_555 1_555
N6 C15 1_555 1_555
O1 C7 1_555 1_555
O2 C8 1_555 1_555
O4 C10 1_555 1_555
O5 C13 1_555 1_555
O6 C13 1_555 1_555
C2 C4 1_555 1_555
C3 C4 1_555 1_555
C5 N1 1_555 1_555
C6 N1 1_555 1_555
C9 N2 1_555 1_555
C9 N3 1_555 1_555
C11 O4 1_555 1_555
C12 N4 1_555 1_555
C12 N5 1_555 1_555
C14 O6 1_555 1_555
C15 N4 1_555 1_555
C16 N5 1_555 1_555
C16 N6 1_555 1_555
C17 N6 1_555 1_555

#END
