
#######################################################################
#
#                 Cambridge Crystallographic Data Centre
#                                CCDC 
#
#######################################################################
#
# If this CIF has been generated from an entry in the Cambridge 
# Structural Database, then it will include bibliographic, chemical, 
# crystal, experimental, refinement or atomic coordinate data resulting 
# from the CCDC's data processing and validation procedures.
#
#######################################################################

data_VAZBII
_chemical_formula_moiety         'C16 H22 N2 O2 S1'
_chemical_name_systematic        
3-Isopropyl-2-propoxy-5,6,7,8-tetrahydro-1-benzothieno(2,3-d)pyrimidin-4(3H)-one
_symmetry_cell_setting           monoclinic
_symmetry_space_group_name_H-M   'P 21/n'
_symmetry_Int_Tables_number      14
_space_group_name_Hall           '-P 2yn'
loop_
_symmetry_equiv_pos_site_id
_symmetry_equiv_pos_as_xyz
1 x,y,z
2 1/2-x,1/2+y,1/2-z
3 -x,-y,-z
4 1/2+x,1/2-y,1/2+z
_cell_length_a                   10.1586(9)
_cell_length_b                   14.4156(13)
_cell_length_c                   11.9245(11)
_cell_angle_alpha                90
_cell_angle_beta                 113.675(2)
_cell_angle_gamma                90
_cell_volume                     1599.28
_exptl_crystal_colour            colorless
_exptl_crystal_description       block
_chemical_melting_point          '370 K'
_cell_formula_units_Z            4
_exptl_crystal_recrystallization_method dichloromethane/hexane
loop_
_atom_site_label
_atom_site_type_symbol
_atom_site_fract_x
_atom_site_fract_y
_atom_site_fract_z
C1 C 0.7080(2) 1.08157(14) 0.18118(18)
C2 C 0.8181(2) 1.12025(15) 0.1394(2)
H1 H 0.8835 1.1608 0.2018
H2 H 0.7709 1.1562 0.0651
C3 C 0.9012(2) 1.04025(15) 0.1153(2)
H3 H 0.9582 1.0633 0.0727
H4 H 0.9662 1.0141 0.1927
C4 C 0.8009(2) 0.96590(16) 0.0395(2)
H5 H 0.8565 0.9182 0.0210
H6 H 0.7357 0.9926 -0.0375
C5 C 0.7140(2) 0.92179(14) 0.10299(19)
H7 H 0.6324 0.8894 0.0430
H8 H 0.7730 0.8766 0.1620
C6 C 0.6609(2) 0.99311(13) 0.16769(17)
C7 C 0.55744(19) 0.97881(13) 0.22007(17)
C8 C 0.5283(2) 1.05851(12) 0.27015(17)
C9 C 0.3667(2) 0.99094(13) 0.32644(18)
C10 C 0.4844(2) 0.89520(14) 0.22598(17)
C11 C 0.3034(2) 0.82151(14) 0.2881(2)
H9 H 0.3413 0.7732 0.2513
C12 C 0.1500(2) 0.82618(17) 0.2048(2)
H10 H 0.1010 0.8676 0.2380
H11 H 0.1083 0.7655 0.1959
H12 H 0.1411 0.8485 0.1262
C13 C 0.3397(3) 0.78673(19) 0.4135(2)
H13 H 0.3064 0.8300 0.4575
H14 H 0.4420 0.7799 0.4548
H15 H 0.2943 0.7277 0.4097
C14 C 0.2452(2) 1.07632(15) 0.42559(19)
H16 H 0.2085 1.1228 0.3616
H17 H 0.3345 1.0989 0.4879
C15 C 0.1381(2) 1.05858(15) 0.48011(18)
H18 H 0.1740 1.0101 0.5414
H19 H 0.0488 1.0371 0.4166
C16 C 0.1099(3) 1.14533(15) 0.5386(2)
H20 H 0.1978 1.1657 0.6030
H21 H 0.0402 1.1320 0.5719
H22 H 0.0739 1.1933 0.4780
N1 N 0.43320(17) 1.06688(11) 0.32377(14)
N2 N 0.38591(16) 0.90596(10) 0.28235(14)
O1 O 0.50040(17) 0.81948(10) 0.18727(15)
O2 O 0.26968(14) 0.98975(9) 0.37519(13)
S1 S 0.62818(6) 1.15096(3) 0.25581(6)
loop_
_geom_bond_atom_site_label_1
_geom_bond_atom_site_label_2
_geom_bond_site_symmetry_1
_geom_bond_site_symmetry_2
C1 C2 1_555 1_555
C2 H1 1_555 1_555
H2 C2 1_555 1_555
C3 C2 1_555 1_555
H3 C3 1_555 1_555
H4 C3 1_555 1_555
C4 C3 1_555 1_555
H5 C4 1_555 1_555
H6 C4 1_555 1_555
C5 C4 1_555 1_555
H7 C5 1_555 1_555
H8 C5 1_555 1_555
C6 C1 1_555 1_555
C7 C6 1_555 1_555
C8 C7 1_555 1_555
C9 N1 1_555 1_555
C10 C7 1_555 1_555
C11 H9 1_555 1_555
C12 C11 1_555 1_555
H10 C12 1_555 1_555
H11 C12 1_555 1_555
H12 C12 1_555 1_555
C13 C11 1_555 1_555
H13 C13 1_555 1_555
H14 C13 1_555 1_555
H15 C13 1_555 1_555
C14 H16 1_555 1_555
H17 C14 1_555 1_555
C15 C14 1_555 1_555
H18 C15 1_555 1_555
H19 C15 1_555 1_555
C16 C15 1_555 1_555
H20 C16 1_555 1_555
H21 C16 1_555 1_555
H22 C16 1_555 1_555
N1 C8 1_555 1_555
N2 C9 1_555 1_555
O1 C10 1_555 1_555
O2 C9 1_555 1_555
S1 C1 1_555 1_555
C5 C6 1_555 1_555
C8 S1 1_555 1_555
C10 N2 1_555 1_555
C11 N2 1_555 1_555
C14 O2 1_555 1_555

#END
