
#######################################################################
#
#                 Cambridge Crystallographic Data Centre
#                                CCDC 
#
#######################################################################
#
# If this CIF has been generated from an entry in the Cambridge 
# Structural Database, then it will include bibliographic, chemical, 
# crystal, experimental, refinement or atomic coordinate data resulting 
# from the CCDC's data processing and validation procedures.
#
#######################################################################

data_VAZBOQ
_chemical_formula_moiety         
'2(C10 H8 S8 1+),C10 H8 S8,2(Cl1 1-),1.5(C2 H2 O4),H2 O1'
_chemical_name_systematic        
'bis(2-(5,6-dihydro-2H-[1,3]dithiolo[4,5-b][1,4]dithiin-2-ylidene)-5,6-dihydro-2H-[1,3]dithiolo[4,5-b][1,4]dithiin-1-ium) 2-(5,6-dihydro-2H-[1,3]dithiolo[4,5-b][1,4]dithiin-2-ylidene)-5,6-dihydro-2H-[1,3]dithiolo[4,5-b][1,4]dithiine bis(chloride) sesquikis(oxalic acid) monohydrate'
_symmetry_cell_setting           triclinic
_symmetry_space_group_name_H-M   'P -1'
_symmetry_Int_Tables_number      2
_space_group_name_Hall           '-P 1'
loop_
_symmetry_equiv_pos_site_id
_symmetry_equiv_pos_as_xyz
1 x,y,z
2 -x,-y,-z
_cell_length_a                   10.914(3)
_cell_length_b                   12.943(3)
_cell_length_c                   18.541(4)
_cell_angle_alpha                71.363(6)
_cell_angle_beta                 82.229(8)
_cell_angle_gamma                87.943(9)
_cell_volume                     2458.89
_exptl_crystal_colour            black
_exptl_crystal_description       plate
_cell_formula_units_Z            2
loop_
_atom_site_label
_atom_site_type_symbol
_atom_site_fract_x
_atom_site_fract_y
_atom_site_fract_z
C1 C 0.4410(3) 0.7184(2) 0.08786(16)
C2 C 0.4889(3) 0.7480(2) 0.01172(16)
C3 C 0.3673(3) 0.7157(2) 0.22696(16)
C4 C 0.3606(3) 0.6105(2) 0.22881(16)
C5 C 0.5864(3) 0.8531(2) -0.12668(15)
C6 C 0.5764(3) 0.7487(2) -0.12549(15)
C7 C 0.3349(3) 0.6460(2) 0.38475(16)
H1 H 0.4216 0.6218 0.3883
H2 H 0.3039 0.6639 0.4320
C8 C 0.2584(3) 0.5524(2) 0.38171(17)
H3 H 0.1734 0.5784 0.3737
H4 H 0.2533 0.4942 0.4320
C9 C 0.7006(3) 0.9099(2) -0.27783(17)
H5 H 0.7078 0.9694 -0.3276
H6 H 0.7844 0.8805 -0.2699
C10 C 0.6194(3) 0.8203(2) -0.28251(16)
H7 H 0.6491 0.8025 -0.3300
H8 H 0.5339 0.8478 -0.2863
S1 S 0.41603(7) 0.81191(6) 0.13748(4)
S2 S 0.40256(7) 0.58455(6) 0.14172(4)
S3 S 0.52947(7) 0.88207(6) -0.04224(4)
S4 S 0.51054(7) 0.65467(6) -0.03886(4)
S5 S 0.33274(7) 0.76858(6) 0.30299(4)
S6 S 0.31846(7) 0.49426(6) 0.30700(4)
S7 S 0.64441(8) 0.96638(6) -0.20205(4)
S8 S 0.61664(7) 0.69636(6) -0.20102(4)
C11 C 0.7684(3) 0.5500(2) 0.09456(16)
C12 C 0.8172(3) 0.5827(2) 0.01872(16)
C13 C 0.6912(3) 0.5407(2) 0.23476(15)
C14 C 0.6762(3) 0.4381(2) 0.23169(15)
C15 C 0.9200(3) 0.6914(2) -0.11686(15)
C16 C 0.9106(3) 0.5878(2) -0.11800(15)
C17 C 0.6218(3) 0.4664(2) 0.39308(16)
H9 H 0.6484 0.4768 0.4393
H10 H 0.5308 0.4570 0.4025
C18 C 0.6790(3) 0.3632(2) 0.38335(16)
H11 H 0.6615 0.3032 0.4325
H12 H 0.7698 0.3732 0.3715
C19 C 1.0333(3) 0.7545(2) -0.26887(16)
H13 H 1.0371 0.8157 -0.3176
H14 H 1.1183 0.7262 -0.2637
C20 C 0.9518(3) 0.6647(2) -0.27378(16)
H15 H 0.9786 0.6496 -0.3226
H16 H 0.8653 0.6905 -0.2746
S9 S 0.75268(7) 0.63827(6) 0.14882(4)
S10 S 0.72258(7) 0.41675(5) 0.14399(4)
S11 S 0.86045(7) 0.71697(5) -0.03178(4)
S12 S 0.83911(7) 0.49249(6) -0.03410(4)
S13 S 0.65974(7) 0.58927(5) 0.31253(4)
S14 S 0.62279(7) 0.32417(6) 0.30851(4)
S15 S 0.98126(7) 0.80637(6) -0.18965(4)
S16 S 0.95686(8) 0.53911(6) -0.19456(4)
C21 C 0.8353(3) 0.0865(2) 0.00364(16)
C22 C 0.8829(3) 0.1197(2) -0.07238(15)
C23 C 0.7485(3) 0.0802(2) 0.14124(15)
C24 C 0.7449(3) -0.0246(2) 0.14170(15)
C25 C 0.9614(3) 0.2352(2) -0.21176(15)
C26 C 0.9497(2) 0.1315(2) -0.21372(15)
C27 C 0.7051(3) 0.0088(2) 0.29748(16)
H17 H 0.7923 -0.0135 0.3013
H18 H 0.6719 0.0250 0.3451
C28 C 0.6322(3) -0.0850(2) 0.29197(16)
H19 H 0.5472 -0.0599 0.2830
H20 H 0.6263 -0.1440 0.3419
C29 C 1.0780(3) 0.2938(2) -0.35930(16)
H21 H 1.0970 0.3534 -0.4085
H22 H 1.1570 0.2586 -0.3448
C30 C 0.9956(3) 0.2106(2) -0.37138(15)
H23 H 1.0313 0.1939 -0.4184
H24 H 0.9134 0.2435 -0.3802
S17 S 0.81082(7) 0.17712(6) 0.05577(4)
S18 S 0.79684(7) -0.04847(5) 0.05504(4)
S19 S 0.92321(7) 0.25443(6) -0.12231(4)
S20 S 0.90460(7) 0.03090(6) -0.12552(4)
S21 S 0.70007(7) 0.13162(6) 0.21631(4)
S22 S 0.69647(8) -0.14085(6) 0.21725(4)
S23 S 1.01089(7) 0.35191(6) -0.28645(4)
S24 S 0.97480(7) 0.08388(5) -0.29223(4)
C31 C 1.1513(3) 1.0006(2) -0.49342(16)
C32 C 1.1649(3) 0.8873(2) -0.50451(16)
O1 O 1.2065(2) 1.07588(18) -0.55337(13)
H25 H 1.194(4) 1.135(4) -0.549(3)
O2 O 1.2348(2) 0.86937(17) -0.55536(12)
O3 O 1.0958(2) 1.01405(16) -0.43637(11)
O4 O 1.0903(2) 0.81646(17) -0.45121(12)
H26 H 1.091(4) 0.752(4) -0.458(3)
C33 C 0.4958(3) -0.0625(2) 0.51089(16)
O5 O 0.5617(2) -0.09539(18) 0.45808(13)
H27 H 0.567(4) -0.168(4) 0.468(2)
O6 O 0.4365(2) -0.11833(17) 0.56820(12)
C33A C 0.5042(3) 0.0625(2) 0.48911(16)
O5A O 0.4383(2) 0.09539(18) 0.54192(13)
H27A H 0.433(4) 0.168(4) 0.532(2)
O6A O 0.5635(2) 0.11833(17) 0.43180(12)
O7 O 1.1946(3) 1.27512(18) -0.55849(14)
H28 H 1.245(4) 1.291(3) -0.536(2)
H29 H 1.137(5) 1.308(4) -0.554(3)
Cl1 Cl 0.60798(7) 0.67717(5) 0.46940(4)
Cl2 Cl 0.94759(7) 0.40485(6) 0.45245(4)
loop_
_geom_bond_atom_site_label_1
_geom_bond_atom_site_label_2
_geom_bond_site_symmetry_1
_geom_bond_site_symmetry_2
C1 C2 1_555 1_555
C2 S3 1_555 1_555
C3 C4 1_555 1_555
C4 S2 1_555 1_555
C5 C6 1_555 1_555
C6 S4 1_555 1_555
C7 H1 1_555 1_555
H2 C7 1_555 1_555
C8 C7 1_555 1_555
H3 C8 1_555 1_555
H4 C8 1_555 1_555
C9 H5 1_555 1_555
H6 C9 1_555 1_555
C10 C9 1_555 1_555
H7 C10 1_555 1_555
H8 C10 1_555 1_555
S1 C1 1_555 1_555
S2 C1 1_555 1_555
S3 C5 1_555 1_555
S4 C2 1_555 1_555
S5 C3 1_555 1_555
S6 C4 1_555 1_555
S7 C5 1_555 1_555
S8 C6 1_555 1_555
C11 C12 1_555 1_555
C12 S11 1_555 1_555
C13 C14 1_555 1_555
C14 S10 1_555 1_555
C15 C16 1_555 1_555
C16 S12 1_555 1_555
C17 H9 1_555 1_555
H10 C17 1_555 1_555
C18 C17 1_555 1_555
H11 C18 1_555 1_555
H12 C18 1_555 1_555
C19 H13 1_555 1_555
H14 C19 1_555 1_555
C20 C19 1_555 1_555
H15 C20 1_555 1_555
H16 C20 1_555 1_555
S9 C11 1_555 1_555
S10 C11 1_555 1_555
S11 C15 1_555 1_555
S12 C12 1_555 1_555
S13 C13 1_555 1_555
S14 C14 1_555 1_555
S15 C15 1_555 1_555
S16 C16 1_555 1_555
C21 C22 1_555 1_555
C22 S19 1_555 1_555
C23 C24 1_555 1_555
C24 S18 1_555 1_555
C25 C26 1_555 1_555
C26 S20 1_555 1_555
C27 H17 1_555 1_555
H18 C27 1_555 1_555
C28 C27 1_555 1_555
H19 C28 1_555 1_555
H20 C28 1_555 1_555
C29 H21 1_555 1_555
H22 C29 1_555 1_555
C30 C29 1_555 1_555
H23 C30 1_555 1_555
H24 C30 1_555 1_555
S17 C21 1_555 1_555
S18 C21 1_555 1_555
S19 C25 1_555 1_555
S20 C22 1_555 1_555
S21 C23 1_555 1_555
S22 C24 1_555 1_555
S23 C25 1_555 1_555
S24 C26 1_555 1_555
C31 C32 1_555 1_555
C32 O2 1_555 1_555
O1 C31 1_555 1_555
H25 O1 1_555 1_555
O3 C31 1_555 1_555
O4 C32 1_555 1_555
H26 O4 1_555 1_555
C33 O5 1_555 1_555
O5 H27 1_555 1_555
O6 C33 1_555 1_555
O7 H28 1_555 1_555
H29 O7 1_555 1_555
C33A C33 1_555 1_555
O5A C33A 1_555 1_555
H27A O5A 1_555 1_555
O6A C33A 1_555 1_555
C3 S1 1_555 1_555
C7 S5 1_555 1_555
C8 S6 1_555 1_555
C9 S7 1_555 1_555
C10 S8 1_555 1_555
C13 S9 1_555 1_555
C17 S13 1_555 1_555
C18 S14 1_555 1_555
C19 S15 1_555 1_555
C20 S16 1_555 1_555
C23 S17 1_555 1_555
C27 S21 1_555 1_555
C28 S22 1_555 1_555
C29 S23 1_555 1_555
C30 S24 1_555 1_555

#END
