
#######################################################################
#
#                 Cambridge Crystallographic Data Centre
#                                CCDC 
#
#######################################################################
#
# If this CIF has been generated from an entry in the Cambridge 
# Structural Database, then it will include bibliographic, chemical, 
# crystal, experimental, refinement or atomic coordinate data resulting 
# from the CCDC's data processing and validation procedures.
#
#######################################################################

data_VAZCUW
_chemical_formula_moiety         'C22 H40 Br2 Mg2 N6 O1 Si2'
_chemical_name_systematic        
(\m~2~-tetrahydrofuran)-bis(\m~2~-N,N,1,1-tetramethyl-N'-(pyridin-2-yl)silanediaminato)-dibromo-di-magnesium
_symmetry_cell_setting           orthorhombic
_symmetry_space_group_name_H-M   'P b c n'
_symmetry_Int_Tables_number      60
_space_group_name_Hall           '-P 2n 2ab'
loop_
_symmetry_equiv_pos_site_id
_symmetry_equiv_pos_as_xyz
1 x,y,z
2 1/2-x,1/2-y,1/2+z
3 -x,y,1/2-z
4 1/2+x,1/2-y,-z
5 -x,-y,-z
6 1/2+x,1/2+y,1/2-z
7 x,-y,1/2+z
8 1/2-x,1/2+y,z
_cell_length_a                   16.527(7)
_cell_length_b                   14.789(6)
_cell_length_c                   13.593(6)
_cell_angle_alpha                90
_cell_angle_beta                 90
_cell_angle_gamma                90
_cell_volume                     3322.37
_exptl_crystal_colour            colorless
_exptl_crystal_description       block
_chemical_melting_point          '423-425 K'
_cell_formula_units_Z            4
loop_
_atom_site_label
_atom_site_type_symbol
_atom_site_fract_x
_atom_site_fract_y
_atom_site_fract_z
Mg1 Mg 0.41509(10) 0.23714(14) 0.30909(12)
Br1 Br 0.31033(4) 0.12237(6) 0.36008(6)
N1 N 0.5104(3) 0.2548(3) 0.0681(3)
N2 N 0.3419(3) 0.3660(4) 0.3344(3)
N3 N 0.4065(3) 0.3013(4) 0.1725(3)
O1 O 0.5000 0.1307(4) 0.2500
Si1 Si 0.32583(11) 0.37036(14) 0.20418(12)
C1 C 0.5416(4) 0.2441(5) -0.0239(4)
H1 H 0.5934 0.2183 -0.0295
C2 C 0.5025(4) 0.2683(6) -0.1089(5)
H2 H 0.5267 0.2610 -0.1710
C3 C 0.4250(4) 0.3043(6) -0.0987(4)
H3 H 0.3956 0.3209 -0.1551
C4 C 0.3914(4) 0.3157(5) -0.0085(4)
H4 H 0.3392 0.3407 -0.0032
C5 C 0.4345(3) 0.2902(4) 0.0791(4)
C6 C 0.2250(4) 0.3190(8) 0.1768(6)
H5 H 0.2150 0.3214 0.1066
H6 H 0.1832 0.3523 0.2112
H7 H 0.2246 0.2565 0.1985
C7 C 0.3317(7) 0.4885(7) 0.1541(6)
H8 H 0.3861 0.5117 0.1627
H9 H 0.2938 0.5269 0.1890
H10 H 0.3183 0.4879 0.0846
C8 C 0.2690(5) 0.3632(5) 0.4004(5)
H11 H 0.2857 0.3483 0.4668
H12 H 0.2315 0.3177 0.3767
H13 H 0.2427 0.4219 0.4002
C9 C 0.3983(5) 0.4362(6) 0.3702(5)
H14 H 0.3720 0.4948 0.3675
H15 H 0.4462 0.4369 0.3290
H16 H 0.4136 0.4229 0.4376
C10 C 0.4638(5) 0.0732(6) 0.1727(6)
H17 H 0.4943 0.0780 0.1111
H18 H 0.4074 0.0904 0.1603
C11 C 0.4689(9) -0.0210(8) 0.2143(12)
H19 H 0.4173 -0.0381 0.2444
H20 H 0.4814 -0.0645 0.1619
Mg1B Mg 0.58491(10) 0.23714(14) 0.19091(12)
Br1B Br 0.68967(4) 0.12237(6) 0.13992(6)
N1B N 0.4896(3) 0.2548(3) 0.4319(3)
N2B N 0.6581(3) 0.3660(4) 0.1656(3)
N3B N 0.5935(3) 0.3013(4) 0.3275(3)
Si1B Si 0.67417(11) 0.37036(14) 0.29582(12)
C1B C 0.4584(4) 0.2441(5) 0.5239(4)
H1B H 0.4066 0.2183 0.5295
C2B C 0.4975(4) 0.2683(6) 0.6089(5)
H2B H 0.4733 0.2610 0.6710
C3B C 0.5750(4) 0.3043(6) 0.5987(4)
H3B H 0.6044 0.3209 0.6551
C4B C 0.6086(4) 0.3157(5) 0.5085(4)
H4B H 0.6608 0.3407 0.5032
C5B C 0.5655(3) 0.2902(4) 0.4209(4)
C6B C 0.7750(4) 0.3190(8) 0.3232(6)
H5B H 0.7850 0.3214 0.3934
H6B H 0.8168 0.3523 0.2888
H7B H 0.7754 0.2565 0.3015
C7B C 0.6683(7) 0.4885(7) 0.3459(6)
H8B H 0.6139 0.5117 0.3373
H9B H 0.7062 0.5269 0.3110
H10B H 0.6817 0.4879 0.4154
C8B C 0.7310(5) 0.3632(5) 0.0996(5)
H11B H 0.7143 0.3483 0.0332
H12B H 0.7685 0.3177 0.1233
H13B H 0.7573 0.4219 0.0998
C9B C 0.6017(5) 0.4362(6) 0.1298(5)
H14B H 0.6280 0.4948 0.1325
H15B H 0.5538 0.4369 0.1710
H16B H 0.5864 0.4229 0.0624
C10B C 0.5362(5) 0.0732(6) 0.3273(6)
H17B H 0.5057 0.0780 0.3889
H18B H 0.5926 0.0904 0.3397
C11B C 0.5311(9) -0.0210(8) 0.2857(12)
H19B H 0.5827 -0.0381 0.2556
H20B H 0.5186 -0.0645 0.3381
loop_
_geom_bond_atom_site_label_1
_geom_bond_atom_site_label_2
_geom_bond_site_symmetry_1
_geom_bond_site_symmetry_2
Mg1 Br1 1_555 1_555
N1 C1 1_555 1_555
N2 Mg1 1_555 1_555
N3 Mg1 1_555 1_555
O1 Mg1 1_555 1_555
Si1 N2 1_555 1_555
C1 H1 1_555 1_555
C2 C1 1_555 1_555
H2 C2 1_555 1_555
C3 C2 1_555 1_555
H3 C3 1_555 1_555
C4 C3 1_555 1_555
H4 C4 1_555 1_555
C5 N1 1_555 1_555
C6 Si1 1_555 1_555
H5 C6 1_555 1_555
H6 C6 1_555 1_555
H7 C6 1_555 1_555
C7 Si1 1_555 1_555
H8 C7 1_555 1_555
H9 C7 1_555 1_555
H10 C7 1_555 1_555
C8 N2 1_555 1_555
H11 C8 1_555 1_555
H12 C8 1_555 1_555
H13 C8 1_555 1_555
C9 N2 1_555 1_555
H14 C9 1_555 1_555
H15 C9 1_555 1_555
H16 C9 1_555 1_555
C10 O1 1_555 1_555
H17 C10 1_555 1_555
H18 C10 1_555 1_555
C11 C10 1_555 1_555
H19 C11 1_555 1_555
H20 C11 1_555 1_555
Mg1B N1 1_555 1_555
Br1B Mg1B 1_555 1_555
N1B Mg1 1_555 1_555
N2B Mg1B 1_555 1_555
N3B Mg1B 1_555 1_555
Si1B N2B 1_555 1_555
C1B N1B 1_555 1_555
H1B C1B 1_555 1_555
C2B C1B 1_555 1_555
H2B C2B 1_555 1_555
C3B C2B 1_555 1_555
H3B C3B 1_555 1_555
C4B C3B 1_555 1_555
H4B C4B 1_555 1_555
C5B N1B 1_555 1_555
C6B Si1B 1_555 1_555
H5B C6B 1_555 1_555
H6B C6B 1_555 1_555
H7B C6B 1_555 1_555
C7B Si1B 1_555 1_555
H8B C7B 1_555 1_555
H9B C7B 1_555 1_555
H10B C7B 1_555 1_555
C8B N2B 1_555 1_555
H11B C8B 1_555 1_555
H12B C8B 1_555 1_555
H13B C8B 1_555 1_555
C9B N2B 1_555 1_555
H14B C9B 1_555 1_555
H15B C9B 1_555 1_555
H16B C9B 1_555 1_555
C10B O1 1_555 1_555
H17B C10B 1_555 1_555
H18B C10B 1_555 1_555
C11B C11 1_555 1_555
H19B C11B 1_555 1_555
H20B C11B 1_555 1_555
N3 Si1 1_555 1_555
N3 C5 1_555 1_555
O1 Mg1B 1_555 1_555
C4 C5 1_555 1_555
N3B Si1B 1_555 1_555
N3B C5B 1_555 1_555
C4B C5B 1_555 1_555
C10B C11B 1_555 1_555

#END
