
#######################################################################
#
#                 Cambridge Crystallographic Data Centre
#                                CCDC 
#
#######################################################################
#
# If this CIF has been generated from an entry in the Cambridge 
# Structural Database, then it will include bibliographic, chemical, 
# crystal, experimental, refinement or atomic coordinate data resulting 
# from the CCDC's data processing and validation procedures.
#
#######################################################################

data_VAZGIN
_chemical_formula_moiety         'C6 H14 N1 1+,C2 H1 Cl2 O2 1-'
_chemical_name_systematic        'Cyclohexylammonium dichloroacetate'
_symmetry_cell_setting           orthorhombic
_symmetry_space_group_name_H-M   'P 21 21 21'
_symmetry_Int_Tables_number      19
_space_group_name_Hall           'P 2ac 2ab'
loop_
_symmetry_equiv_pos_site_id
_symmetry_equiv_pos_as_xyz
1 x,y,z
2 1/2-x,-y,1/2+z
3 -x,1/2+y,1/2-z
4 1/2+x,1/2-y,-z
_cell_length_a                   6.6435(8)
_cell_length_b                   8.5960(10)
_cell_length_c                   19.135(2)
_cell_angle_alpha                90
_cell_angle_beta                 90
_cell_angle_gamma                90
_cell_volume                     1092.75
_exptl_crystal_colour            colorless
_exptl_crystal_description       block
_cell_formula_units_Z            4
_exptl_crystal_recrystallization_method ethanol/petroleum
loop_
_atom_site_label
_atom_site_type_symbol
_atom_site_fract_x
_atom_site_fract_y
_atom_site_fract_z
Cl1 Cl 0.79188(9) 0.84051(6) 0.09568(4)
Cl2 Cl 0.40787(7) 0.68190(5) 0.10149(3)
O1 O 0.6319(2) 0.43221(14) 0.02881(8)
O2 O 0.9293(2) 0.54366(16) 0.04601(10)
C1 C 0.7440(3) 0.54286(18) 0.04346(9)
C2 C 0.6372(2) 0.70105(18) 0.05455(10)
H4 H 0.6034 0.7418 0.0082
N1 N 0.2368(2) 0.32573(16) 0.05461(8)
H1 H 0.3514 0.3734 0.0436
H2 H 0.1346 0.3918 0.0497
H3 H 0.2186 0.2446 0.0264
C3 C 0.2462(3) 0.2710(2) 0.12862(10)
H5 H 0.2684 0.3613 0.1589
C4 C 0.4200(3) 0.1595(3) 0.13795(12)
H6 H 0.5452 0.2116 0.1264
H7 H 0.4040 0.0719 0.1065
C5 C 0.4285(4) 0.1012(3) 0.21307(14)
H8 H 0.5355 0.0251 0.2175
H9 H 0.4593 0.1875 0.2439
C6 C 0.2320(5) 0.0283(3) 0.23508(14)
H10 H 0.2104 -0.0663 0.2085
H11 H 0.2392 0.0005 0.2841
C7 C 0.0571(5) 0.1366(4) 0.22380(14)
H12 H 0.0690 0.2244 0.2554
H13 H -0.0671 0.0825 0.2347
C8 C 0.0481(3) 0.1958(3) 0.14873(13)
H14 H 0.0200 0.1098 0.1174
H15 H -0.0598 0.2711 0.1442
loop_
_geom_bond_atom_site_label_1
_geom_bond_atom_site_label_2
_geom_bond_site_symmetry_1
_geom_bond_site_symmetry_2
Cl1 C2 1_555 1_555
Cl2 C2 1_555 1_555
O1 C1 1_555 1_555
O2 C1 1_555 1_555
N1 H1 1_555 1_555
H2 N1 1_555 1_555
H3 N1 1_555 1_555
C1 C2 1_555 1_555
C2 H4 1_555 1_555
C3 N1 1_555 1_555
H5 C3 1_555 1_555
C4 C3 1_555 1_555
H6 C4 1_555 1_555
H7 C4 1_555 1_555
C5 C4 1_555 1_555
H8 C5 1_555 1_555
H9 C5 1_555 1_555
C6 C5 1_555 1_555
H10 C6 1_555 1_555
H11 C6 1_555 1_555
C7 C6 1_555 1_555
H12 C7 1_555 1_555
H13 C7 1_555 1_555
C8 C3 1_555 1_555
H14 C8 1_555 1_555
H15 C8 1_555 1_555
C7 C8 1_555 1_555

#END
