
#######################################################################
#
#                 Cambridge Crystallographic Data Centre
#                                CCDC 
#
#######################################################################
#
# If this CIF has been generated from an entry in the Cambridge 
# Structural Database, then it will include bibliographic, chemical, 
# crystal, experimental, refinement or atomic coordinate data resulting 
# from the CCDC's data processing and validation procedures.
#
#######################################################################

data_VAZHOU
_chemical_formula_moiety         'C16 H18 N3 O5 P1'
_chemical_name_systematic        
5,5-dimethyl-4-(3-nitrophenyl)-2-oxo-2-(2-pyridylamino)-1,3,2-dioxaphosphorinane
_symmetry_cell_setting           triclinic
_symmetry_space_group_name_H-M   'P -1'
_symmetry_Int_Tables_number      2
_space_group_name_Hall           '-P 1'
loop_
_symmetry_equiv_pos_site_id
_symmetry_equiv_pos_as_xyz
1 x,y,z
2 -x,-y,-z
_cell_length_a                   8.5644(14)
_cell_length_b                   9.4816(16)
_cell_length_c                   11.7155(19)
_cell_angle_alpha                79.093(3)
_cell_angle_beta                 73.925(3)
_cell_angle_gamma                75.318(3)
_cell_volume                     877.02
_exptl_crystal_colour            colorless
_exptl_crystal_description       block
_chemical_melting_point          '521 K'
_cell_formula_units_Z            2
_exptl_crystal_recrystallization_method dimethylformamide/dioxane
loop_
_atom_site_label
_atom_site_type_symbol
_atom_site_fract_x
_atom_site_fract_y
_atom_site_fract_z
C1 C 0.3028(2) 0.7915(2) 0.10802(17)
H1 H 0.2423 0.7756 0.1868
C2 C 0.2261(2) 0.8208(2) 0.01492(19)
C3 C 0.3090(3) 0.8486(2) -0.10312(19)
H2 H 0.2535 0.8698 -0.1642
C4 C 0.4770(3) 0.8440(2) -0.12742(19)
H3 H 0.5361 0.8628 -0.2062
C5 C 0.5578(2) 0.8122(2) -0.03692(18)
H4 H 0.6715 0.8080 -0.0553
C6 C 0.4725(2) 0.78590(19) 0.08221(16)
C7 C 0.5616(2) 0.7536(2) 0.18064(17)
H5 H 0.6601 0.7970 0.1526
C8 C 0.6173(3) 0.5895(2) 0.2259(2)
C9 C 0.7553(3) 0.5168(3) 0.1289(2)
H6 H 0.8436 0.5694 0.1049
H7 H 0.7124 0.5178 0.0612
H8 H 0.7970 0.4170 0.1594
C10 C 0.4737(3) 0.5086(2) 0.2653(2)
H9 H 0.4332 0.5063 0.1972
H10 H 0.3855 0.5588 0.3238
H11 H 0.5123 0.4099 0.2997
C11 C 0.6915(3) 0.5805(3) 0.3328(2)
H12 H 0.7276 0.4780 0.3626
H13 H 0.7885 0.6241 0.3062
C12 C 0.1878(3) 0.8332(2) 0.53301(18)
C13 C 0.0689(3) 0.8925(3) 0.62833(19)
H14 H 0.0906 0.9573 0.6696
C14 C -0.0816(3) 0.8526(4) 0.6598(3)
H15 H -0.1642 0.8899 0.7236
C15 C -0.1103(3) 0.7577(4) 0.5973(3)
H16 H -0.2119 0.7294 0.6177
C16 C 0.0152(3) 0.7053(3) 0.5033(3)
H17 H -0.0052 0.6421 0.4599
N1 N 0.0482(2) 0.8226(2) 0.0431(2)
N2 N 0.3423(2) 0.8738(2) 0.49873(16)
N3 N 0.1649(2) 0.7402(2) 0.47072(18)
O1 O -0.0251(2) 0.8031(3) 0.1470(2)
O2 O -0.0189(2) 0.8434(2) -0.03985(19)
O3 O 0.5740(2) 0.65488(16) 0.42942(13)
O4 O 0.44636(16) 0.83104(14) 0.27859(12)
O5 O 0.62783(18) 0.91445(18) 0.38021(13)
P1 P 0.50643(6) 0.82346(6) 0.39535(4)
H18 H 0.351(3) 0.939(2) 0.5372(17)
loop_
_geom_bond_atom_site_label_1
_geom_bond_atom_site_label_2
_geom_bond_site_symmetry_1
_geom_bond_site_symmetry_2
C1 H1 1_555 1_555
C2 C1 1_555 1_555
C3 C2 1_555 1_555
H2 C3 1_555 1_555
C4 C3 1_555 1_555
H3 C4 1_555 1_555
C5 C4 1_555 1_555
H4 C5 1_555 1_555
C6 C1 1_555 1_555
C7 C6 1_555 1_555
H5 C7 1_555 1_555
C8 C7 1_555 1_555
C9 C8 1_555 1_555
H6 C9 1_555 1_555
H7 C9 1_555 1_555
H8 C9 1_555 1_555
C10 C8 1_555 1_555
H9 C10 1_555 1_555
H10 C10 1_555 1_555
H11 C10 1_555 1_555
C11 C8 1_555 1_555
H12 C11 1_555 1_555
H13 C11 1_555 1_555
C12 C13 1_555 1_555
C13 H14 1_555 1_555
C14 C13 1_555 1_555
H15 C14 1_555 1_555
C15 C14 1_555 1_555
H16 C15 1_555 1_555
C16 C15 1_555 1_555
H17 C16 1_555 1_555
N1 C2 1_555 1_555
N2 C12 1_555 1_555
N3 C12 1_555 1_555
O1 N1 1_555 1_555
O2 N1 1_555 1_555
O3 C11 1_555 1_555
O4 C7 1_555 1_555
O5 P1 1_555 1_555
P1 N2 1_555 1_555
H18 N2 1_555 1_555
C5 C6 1_555 1_555
C16 N3 1_555 1_555
O3 P1 1_555 1_555
O4 P1 1_555 1_555

#END
