
#######################################################################
#
#                 Cambridge Crystallographic Data Centre
#                                CCDC 
#
#######################################################################
#
# If this CIF has been generated from an entry in the Cambridge 
# Structural Database, then it will include bibliographic, chemical, 
# crystal, experimental, refinement or atomic coordinate data resulting 
# from the CCDC's data processing and validation procedures.
#
#######################################################################

data_VAZJUE
_chemical_formula_moiety         'C20 H22 Cl1 N1 O1'
_chemical_name_systematic        
2-chloro-8-methoxy-4b,10,10-trimethyl-5,10,10a,11-tetrahydro-4bH-indeno[1,2-b]quinoline
_symmetry_cell_setting           monoclinic
_symmetry_space_group_name_H-M   'C c'
_symmetry_Int_Tables_number      9
_space_group_name_Hall           'C -2yc'
loop_
_symmetry_equiv_pos_site_id
_symmetry_equiv_pos_as_xyz
1 x,y,z
2 x,-y,1/2+z
3 1/2+x,1/2+y,z
4 1/2+x,1/2-y,1/2+z
_cell_length_a                   17.84657(11)
_cell_length_b                   10.57803(6)
_cell_length_c                   17.93905(9)
_cell_angle_alpha                90
_cell_angle_beta                 94.2637(5)
_cell_angle_gamma                90
_cell_volume                     3377.19
_exptl_crystal_colour            colorless
_cell_formula_units_Z            8
_exptl_crystal_recrystallization_method 'Ethyl acetate/Petroleum ether'
loop_
_atom_site_label
_atom_site_type_symbol
_atom_site_fract_x
_atom_site_fract_y
_atom_site_fract_z
Cl1 Cl 0.77051(3) 0.78751(6) 0.29276(3)
O1 O 0.45577(10) 0.10836(15) 0.13845(9)
N1 N 0.45346(10) 0.47972(18) 0.35786(11)
C1 C 0.63494(12) 0.3751(2) 0.38458(13)
C2 C 0.64125(13) 0.5138(2) 0.36676(12)
C3 C 0.44528(14) 0.2290(2) 0.44357(14)
C4 C 0.48678(12) 0.2708(2) 0.31668(12)
C5 C 0.57774(13) 0.5786(2) 0.38483(13)
C6 C 0.42994(12) 0.4196(2) 0.22671(13)
C7 C 0.56178(14) 0.1259(2) 0.40748(13)
C8 C 0.56133(12) 0.3623(2) 0.42450(12)
C9 C 0.63188(15) 0.7729(2) 0.34525(16)
C10 C 0.48968(14) 0.5404(3) 0.48618(13)
C11 C 0.51428(13) 0.2461(2) 0.39776(13)
C12 C 0.57269(15) 0.7091(2) 0.37388(16)
C13 C 0.48723(12) 0.1819(2) 0.26000(13)
C14 C 0.45771(12) 0.3924(2) 0.29950(13)
C15 C 0.45702(13) 0.2088(2) 0.18807(13)
C16 C 0.51910(13) 0.4911(2) 0.41400(13)
C17 C 0.46227(16) 0.1367(2) 0.06185(14)
C18 C 0.69504(14) 0.7063(2) 0.32747(14)
C19 C 0.70071(13) 0.5760(2) 0.33709(12)
C20 C 0.42805(13) 0.3283(2) 0.17079(13)
H1 H 0.74296(13) 0.5321(2) 0.32408(12)
H2 H 0.52992(15) 0.7527(2) 0.38572(16)
H3 H 0.62930(15) 0.8599(2) 0.33800(16)
H4 H 0.40781(13) 0.3467(2) 0.12275(13)
H5 H 0.41227(12) 0.5005(2) 0.21521(13)
H6 H 0.50816(12) 0.1027(2) 0.27027(13)
H7 H 0.43910(10) 0.55263(18) 0.34109(11)
H8 H 0.63247(12) 0.3249(2) 0.33919(13)
H9 H 0.67772(12) 0.3473(2) 0.41699(13)
H10 H 0.4123(5) 0.3002(9) 0.4355(9)
H11 H 0.4192(6) 0.1531(10) 0.4280(8)
H12 H 0.46142(16) 0.2232(18) 0.49571(17)
H13 H 0.5820(9) 0.1194(10) 0.4584(3)
H14 H 0.5310(3) 0.0535(3) 0.3950(11)
H15 H 0.6022(7) 0.1295(9) 0.3751(8)
H16 H 0.57513(12) 0.3516(2) 0.47803(12)
H17 H 0.4624(10) 0.6175(11) 0.4762(3)
H18 H 0.4569(9) 0.4785(9) 0.5057(6)
H19 H 0.53116(16) 0.5561(19) 0.5222(4)
H20 H 0.4677(12) 0.0596(3) 0.0345(2)
H21 H 0.5055(7) 0.1892(16) 0.05704(17)
H22 H 0.4180(5) 0.1805(17) 0.0422(3)
O2 O 0.32842(10) 0.30182(16) 0.93370(9)
C21 C 0.29007(15) 0.4179(2) 0.94449(15)
C22 C 0.28388(12) 0.3058(2) 0.80075(13)
C23 C 0.36738(13) 0.0883(2) 0.78342(14)
C24 C 0.14051(13) 0.1190(2) 0.66635(13)
C25 C 0.29161(17) 0.3644(3) 0.61026(15)
C26 C 0.20030(13) 0.1822(2) 0.62070(12)
C27 C 0.09385(13) -0.1134(2) 0.66027(12)
C28 C 0.27898(16) 0.0832(3) 0.52090(14)
C29 C 0.14506(13) -0.0187(2) 0.64673(12)
C30 C 0.25576(13) 0.0754(2) 0.60064(13)
N2 N 0.32461(10) 0.08057(19) 0.65199(11)
C31 C 0.20942(13) -0.0442(2) 0.61112(12)
C32 C 0.32630(13) 0.2545(2) 0.86170(13)
C33 C 0.28263(13) 0.2482(2) 0.73068(13)
C34 C 0.22514(14) -0.1671(2) 0.58920(14)
C35 C 0.17662(16) 0.3920(2) 0.67934(16)
C36 C 0.32418(12) 0.1368(2) 0.72191(13)
C37 C 0.36856(13) 0.1463(2) 0.85268(13)
Cl2 Cl 0.04560(3) -0.35527(5) 0.65105(3)
C38 C 0.23795(14) 0.2981(2) 0.66128(14)
C39 C 0.17457(15) -0.2628(2) 0.60229(14)
C40 C 0.11001(14) -0.2350(2) 0.63722(13)
H23 H 0.39765(13) 0.1127(2) 0.89309(13)
H24 H 0.39585(13) 0.0158(2) 0.77778(14)
H25 H 0.25617(12) 0.3791(2) 0.80680(13)
H26 H 0.05037(13) -0.0960(2) 0.68390(12)
H27 H 0.18405(15) -0.3453(2) 0.58765(14)
H28 H 0.26891(14) -0.1847(2) 0.56611(14)
H29 H 0.3099(9) 0.4824(6) 0.9138(9)
H30 H 0.2374(2) 0.4071(6) 0.9309(12)
H31 H 0.2971(11) 0.4424(11) 0.9961(3)
H32 H 0.15189(13) 0.1321(2) 0.71951(13)
H33 H 0.09087(13) 0.1525(2) 0.65225(13)
H34 H 0.3346(6) 0.3117(10) 0.6048(10)
H35 H 0.2660(4) 0.3792(19) 0.5621(4)
H36 H 0.3076(10) 0.4437(10) 0.6322(6)
H37 H 0.17478(13) 0.2125(2) 0.57382(12)
H38 H 0.23513(19) 0.078(2) 0.48663(14)
H39 H 0.3044(11) 0.1619(9) 0.5140(4)
H40 H 0.3121(10) 0.0143(12) 0.5118(4)
H41 H 0.36559(10) 0.04817(19) 0.63827(11)
H42 H 0.19940(16) 0.4665(9) 0.7016(11)
H43 H 0.1475(8) 0.4145(16) 0.6342(2)
H44 H 0.1445(7) 0.3539(8) 0.7136(9)
loop_
_geom_bond_atom_site_label_1
_geom_bond_atom_site_label_2
_geom_bond_site_symmetry_1
_geom_bond_site_symmetry_2
Cl1 C18 1_555 1_555
O1 C15 1_555 1_555
N1 C14 1_555 1_555
C1 C2 1_555 1_555
C2 C5 1_555 1_555
C3 C11 1_555 1_555
C4 C11 1_555 1_555
C5 C12 1_555 1_555
C6 C14 1_555 1_555
C7 C11 1_555 1_555
C8 C1 1_555 1_555
C9 C12 1_555 1_555
C10 C16 1_555 1_555
C11 C8 1_555 1_555
C12 H2 1_555 1_555
C13 C4 1_555 1_555
C14 C4 1_555 1_555
C15 C13 1_555 1_555
C16 N1 1_555 1_555
C17 O1 1_555 1_555
C18 C9 1_555 1_555
C19 C2 1_555 1_555
C20 C6 1_555 1_555
H1 C19 1_555 1_555
H3 C9 1_555 1_555
H4 C20 1_555 1_555
H5 C6 1_555 1_555
H6 C13 1_555 1_555
H7 N1 1_555 1_555
H8 C1 1_555 1_555
H9 C1 1_555 1_555
H10 C3 1_555 1_555
H11 C3 1_555 1_555
H12 C3 1_555 1_555
H13 C7 1_555 1_555
H14 C7 1_555 1_555
H15 C7 1_555 1_555
H16 C8 1_555 1_555
H17 C10 1_555 1_555
H18 C10 1_555 1_555
H19 C10 1_555 1_555
H20 C17 1_555 1_555
H21 C17 1_555 1_555
H22 C17 1_555 1_555
O2 C21 1_555 1_555
C21 H29 1_555 1_555
C22 C32 1_555 1_555
C23 C36 1_555 1_555
C24 C26 1_555 1_555
C25 C38 1_555 1_555
C26 C30 1_555 1_555
C27 C29 1_555 1_555
C28 C30 1_555 1_555
C29 C24 1_555 1_555
C30 N2 1_555 1_555
N2 C36 1_555 1_555
C31 C29 1_555 1_555
C32 O2 1_555 1_555
C33 C22 1_555 1_555
C34 C31 1_555 1_555
C35 C38 1_555 1_555
C36 C33 1_555 1_555
C37 C23 1_555 1_555
Cl2 C40 1_555 1_555
C38 C26 1_555 1_555
C39 C34 1_555 1_555
C40 C27 1_555 1_555
H23 C37 1_555 1_555
H24 C23 1_555 1_555
H25 C22 1_555 1_555
H26 C27 1_555 1_555
H27 C39 1_555 1_555
H28 C34 1_555 1_555
H30 C21 1_555 1_555
H31 C21 1_555 1_555
H32 C24 1_555 1_555
H33 C24 1_555 1_555
H34 C25 1_555 1_555
H35 C25 1_555 1_555
H36 C25 1_555 1_555
H37 C26 1_555 1_555
H38 C28 1_555 1_555
H39 C28 1_555 1_555
H40 C28 1_555 1_555
H41 N2 1_555 1_555
H42 C35 1_555 1_555
H43 C35 1_555 1_555
H44 C35 1_555 1_555
C5 C16 1_555 1_555
C8 C16 1_555 1_555
C15 C20 1_555 1_555
C18 C19 1_555 1_555
C30 C31 1_555 1_555
C32 C37 1_555 1_555
C33 C38 1_555 1_555
C39 C40 1_555 1_555

#END
