
#######################################################################
#
#                 Cambridge Crystallographic Data Centre
#                                CCDC 
#
#######################################################################
#
# If this CIF has been generated from an entry in the Cambridge 
# Structural Database, then it will include bibliographic, chemical, 
# crystal, experimental, refinement or atomic coordinate data resulting 
# from the CCDC's data processing and validation procedures.
#
#######################################################################

data_VAZJIP
_chemical_formula_moiety         'C10 H10 S8'
_chemical_name_systematic        
6,10-Diethylbenzo(1,2,3)trithiolo(5,4-h)benzopentathiepin
_symmetry_cell_setting           monoclinic
_symmetry_space_group_name_H-M   'P 21/n'
_symmetry_Int_Tables_number      14
_space_group_name_Hall           '-P 2yn'
loop_
_symmetry_equiv_pos_site_id
_symmetry_equiv_pos_as_xyz
1 x,y,z
2 1/2-x,1/2+y,1/2-z
3 -x,-y,-z
4 1/2+x,1/2-y,1/2+z
_cell_length_a                   14.211(1)
_cell_length_b                   9.515(1)
_cell_length_c                   11.254(1)
_cell_angle_alpha                90
_cell_angle_beta                 93.31(1)
_cell_angle_gamma                90
_cell_volume                     1519.2
_exptl_crystal_colour            reddish-brown
_chemical_melting_point          116deg.C
_cell_formula_units_Z            4
loop_
_atom_site_label
_atom_site_type_symbol
_atom_site_fract_x
_atom_site_fract_y
_atom_site_fract_z
S1 S 0.0400(1) -0.0008(1) 0.3171(1)
S2 S 0.0860(1) 0.1371(1) 0.4471(1)
S3 S 0.1991(1) 0.0370(1) 0.5318(1)
S4 S 0.3002(1) 0.0472(1) 0.4085(1)
S5 S 0.2570(1) -0.0937(1) 0.2800(1)
S6 S 0.2247(1) 0.1424(1) -0.1640(1)
S7 S 0.0292(1) 0.2529(1) -0.1204(1)
S8 S 0.1472(1) 0.3206(1) -0.2004(1)
C1 C 0.0996(2) 0.0547(3) 0.1896(2)
C2 C 0.1922(2) 0.0113(3) 0.1726(2)
C3 C 0.2359(2) 0.0430(3) 0.0664(2)
C4 C 0.1831(2) 0.1186(3) -0.0198(2)
C5 C 0.0926(2) 0.1657(3) -0.0011(2)
C6 C 0.0484(2) 0.1342(3) 0.1033(2)
C7 C 0.3362(2) 0.0026(3) 0.0448(3)
C8 C -0.0489(2) 0.1917(4) 0.1208(3)
C9 C 0.4051(2) 0.1162(5) 0.0860(4)
C10 C -0.0442(3) 0.3349(4) 0.1781(4)
H1 H 0.336(3) -0.022(4) -0.036(3)
H2 H 0.353(2) -0.091(4) 0.083(3)
H3 H -0.080(2) 0.122(4) 0.165(3)
H4 H -0.086(2) 0.198(4) 0.047(3)
H5 H 0.387(3) 0.213(4) 0.044(3)
H6 H 0.466(3) 0.112(5) 0.061(4)
H7 H 0.398(3) 0.152(5) 0.175(4)
H8 H -0.105(2) 0.378(4) 0.184(3)
H9 H -0.012(3) 0.409(4) 0.125(3)
H10 H -0.015(3) 0.330(5) 0.255(4)
loop_
_geom_bond_atom_site_label_1
_geom_bond_atom_site_label_2
_geom_bond_site_symmetry_1
_geom_bond_site_symmetry_2
S1 S2 1_555 1_555
S2 S3 1_555 1_555
S3 S4 1_555 1_555
S4 S5 1_555 1_555
S5 C2 1_555 1_555
S6 S8 1_555 1_555
S7 S8 1_555 1_555
C1 S1 1_555 1_555
C2 C1 1_555 1_555
C3 C2 1_555 1_555
C4 S6 1_555 1_555
C5 S7 1_555 1_555
C6 C1 1_555 1_555
C7 C3 1_555 1_555
C8 C6 1_555 1_555
C9 C7 1_555 1_555
C10 C8 1_555 1_555
H1 C7 1_555 1_555
H2 C7 1_555 1_555
H3 C8 1_555 1_555
H4 C8 1_555 1_555
H5 C9 1_555 1_555
H6 C9 1_555 1_555
H7 C9 1_555 1_555
H8 C10 1_555 1_555
H9 C10 1_555 1_555
H10 C10 1_555 1_555
C3 C4 1_555 1_555
C4 C5 1_555 1_555
C5 C6 1_555 1_555

#END
