
#######################################################################
#
#                 Cambridge Crystallographic Data Centre
#                                CCDC 
#
#######################################################################
#
# If this CIF has been generated from an entry in the Cambridge 
# Structural Database, then it will include bibliographic, chemical, 
# crystal, experimental, refinement or atomic coordinate data resulting 
# from the CCDC's data processing and validation procedures.
#
#######################################################################

data_VAZJOW
_chemical_formula_moiety         'C24 H19 N1 O5'
_chemical_name_systematic        
N-(2-Hydroxyethyl)-13c-methoxy-1-oxo-1,13c-dihydrodibenzo(a,kl)xanthene-2-carboxamide
_symmetry_cell_setting           monoclinic
_symmetry_space_group_name_H-M   'P 21/c'
_symmetry_Int_Tables_number      14
_space_group_name_Hall           '-P 2ybc'
loop_
_symmetry_equiv_pos_site_id
_symmetry_equiv_pos_as_xyz
1 x,y,z
2 -x,1/2+y,1/2-z
3 -x,-y,-z
4 x,1/2-y,1/2+z
_cell_length_a                   7.275(2)
_cell_length_b                   17.270(6)
_cell_length_c                   15.342(5)
_cell_angle_alpha                90
_cell_angle_beta                 91.475(6)
_cell_angle_gamma                90
_cell_volume                     1926.92
_exptl_crystal_colour            yellow
_exptl_crystal_description       block
_chemical_melting_point          '431-433 K'
_cell_formula_units_Z            4
_exptl_crystal_recrystallization_method acetone
loop_
_atom_site_label
_atom_site_type_symbol
_atom_site_fract_x
_atom_site_fract_y
_atom_site_fract_z
O1 O 0.27705(15) 0.44410(7) 0.04984(8)
O2 O 0.03364(14) 0.56562(6) -0.15352(7)
O3 O 0.26850(16) 0.95111(6) 0.02364(8)
O4 O 0.43608(13) 0.69069(5) -0.00303(6)
O5 O 0.03379(12) 0.74957(5) 0.05927(6)
N1 N 0.31400(15) 0.55419(6) -0.08883(8)
C1 C 0.31305(19) 0.82445(8) 0.09153(9)
C2 C 0.3418(2) 0.90331(9) 0.08747(10)
C3 C 0.4498(3) 0.94380(10) 0.14998(13)
C4 C 0.5277(2) 0.90545(11) 0.21769(12)
C5 C 0.5757(2) 0.78562(13) 0.30169(11)
C6 C 0.5459(2) 0.70891(13) 0.31376(11)
C7 C 0.4349(2) 0.66784(11) 0.25349(10)
C8 C 0.3574(2) 0.70431(9) 0.18232(9)
C9 C 0.38887(19) 0.78366(8) 0.16615(9)
C10 C 0.4993(2) 0.82494(10) 0.22894(10)
C11 C 0.19553(17) 0.78483(7) 0.02249(8)
C12 C 0.14157(18) 0.84018(7) -0.05058(9)
C13 C 0.1715(2) 0.91869(8) -0.04450(10)
C14 C 0.1080(2) 0.96913(9) -0.10974(13)
C15 C 0.0158(2) 0.94033(10) -0.18111(13)
C16 C -0.0091(2) 0.86119(10) -0.19087(11)
C17 C 0.05605(19) 0.81061(8) -0.12670(10)
C18 C 0.05682(18) 0.72718(8) -0.14008(9)
C19 C 0.16465(17) 0.67947(7) -0.09239(8)
C20 C 0.28394(17) 0.71401(7) -0.02202(8)
C21 C 0.16733(18) 0.59490(8) -0.11409(8)
C22 C 0.3247(2) 0.47051(8) -0.10002(10)
C23 C 0.2118(2) 0.42688(9) -0.03558(11)
C24 C -0.0958(2) 0.80189(10) 0.09404(12)
H1 H 0.4061 0.5781 -0.0650
H2 H 0.1915 0.4421 0.0835
H3 H 0.4671 0.9969 0.1444
H4 H 0.6015 0.9322 0.2579
H5 H 0.6479 0.8128 0.3422
H6 H 0.5988 0.6836 0.3617
H7 H 0.4138 0.6153 0.2620
H8 H 0.2825 0.6762 0.1438
H9 H 0.1284 1.0221 -0.1045
H10 H -0.0306 0.9740 -0.2236
H11 H -0.0696 0.8419 -0.2404
H12 H -0.0202 0.7062 -0.1832
H13 H 0.4520 0.4544 -0.0936
H14 H 0.2824 0.4573 -0.1586
H15 H 0.0836 0.4417 -0.0421
H16 H 0.2213 0.3717 -0.0462
H17 H -0.1973 0.7733 0.1167
H18 H -0.1398 0.8362 0.0489
H19 H -0.0381 0.8315 0.1401
loop_
_geom_bond_atom_site_label_1
_geom_bond_atom_site_label_2
_geom_bond_site_symmetry_1
_geom_bond_site_symmetry_2
O1 C23 1_555 1_555
O2 C21 1_555 1_555
O3 C2 1_555 1_555
O4 C20 1_555 1_555
O5 C11 1_555 1_555
N1 C21 1_555 1_555
C1 C2 1_555 1_555
C2 C3 1_555 1_555
C3 C4 1_555 1_555
C4 C10 1_555 1_555
C5 C6 1_555 1_555
C6 C7 1_555 1_555
C7 C8 1_555 1_555
C8 C9 1_555 1_555
C9 C1 1_555 1_555
C10 C5 1_555 1_555
C11 C1 1_555 1_555
C12 C11 1_555 1_555
C13 O3 1_555 1_555
C14 C13 1_555 1_555
C15 C14 1_555 1_555
C16 C15 1_555 1_555
C17 C12 1_555 1_555
C18 C17 1_555 1_555
C19 C18 1_555 1_555
C20 C11 1_555 1_555
C21 C19 1_555 1_555
C22 N1 1_555 1_555
C23 C22 1_555 1_555
C24 O5 1_555 1_555
H1 N1 1_555 1_555
H2 O1 1_555 1_555
H3 C3 1_555 1_555
H4 C4 1_555 1_555
H5 C5 1_555 1_555
H6 C6 1_555 1_555
H7 C7 1_555 1_555
H8 C8 1_555 1_555
H9 C14 1_555 1_555
H10 C15 1_555 1_555
H11 C16 1_555 1_555
H12 C18 1_555 1_555
H13 C22 1_555 1_555
H14 C22 1_555 1_555
H15 C23 1_555 1_555
H16 C23 1_555 1_555
H17 C24 1_555 1_555
H18 C24 1_555 1_555
H19 C24 1_555 1_555
C9 C10 1_555 1_555
C12 C13 1_555 1_555
C16 C17 1_555 1_555
C19 C20 1_555 1_555

#END
