
#######################################################################
#
#                 Cambridge Crystallographic Data Centre
#                                CCDC 
#
#######################################################################
#
# If this CIF has been generated from an entry in the Cambridge 
# Structural Database, then it will include bibliographic, chemical, 
# crystal, experimental, refinement or atomic coordinate data resulting 
# from the CCDC's data processing and validation procedures.
#
#######################################################################

data_VAZLAK
_chemical_formula_moiety         'C14 H11 N3 O1'
_chemical_name_systematic        2-(2H-Benzotriazol-2-yl)-1-phenylethanone
_symmetry_cell_setting           tetragonal
_symmetry_space_group_name_H-M   'P 43 21 2'
_symmetry_Int_Tables_number      96
_space_group_name_Hall           'P 4nw 2abw'
loop_
_symmetry_equiv_pos_site_id
_symmetry_equiv_pos_as_xyz
1 x,y,z
2 -x,-y,1/2+z
3 1/2-y,1/2+x,3/4+z
4 1/2+y,1/2-x,1/4+z
5 1/2-x,1/2+y,3/4-z
6 1/2+x,1/2-y,1/4-z
7 y,x,-z
8 -y,-x,1/2-z
_cell_length_a                   8.1925(3)
_cell_length_b                   8.1925(3)
_cell_length_c                   35.462(3)
_cell_angle_alpha                90
_cell_angle_beta                 90
_cell_angle_gamma                90
_cell_volume                     2380.11
_exptl_crystal_colour            colorless
_exptl_crystal_description       block
_cell_formula_units_Z            8
_exptl_crystal_recrystallization_method 'ethyl acetate/petroleum ether'
loop_
_atom_site_label
_atom_site_type_symbol
_atom_site_fract_x
_atom_site_fract_y
_atom_site_fract_z
O1 O 0.6220(2) 0.3125(2) 0.18567(5)
N1 N 0.9236(2) 0.4583(3) 0.13742(5)
N2 N 0.8248(2) 0.3416(2) 0.12580(5)
N3 N 0.7341(2) 0.3708(2) 0.09566(5)
C1 C 0.7796(3) -0.0940(3) 0.19595(6)
H1 H 0.8278 -0.1051 0.1723
C2 C 0.7812(4) -0.2244(4) 0.22049(7)
H2 H 0.8276 -0.3230 0.2132
C3 C 0.7143(3) -0.2085(4) 0.25572(7)
H3 H 0.7173 -0.2954 0.2726
C4 C 0.6428(3) -0.0631(4) 0.26602(7)
H4 H 0.5975 -0.0520 0.2899
C5 C 0.6379(3) 0.0656(3) 0.24126(6)
H5 H 0.5872 0.1625 0.2483
C6 C 0.7082(3) 0.0523(3) 0.20563(6)
C7 C 0.7053(3) 0.1952(3) 0.18001(6)
C8 C 0.8161(3) 0.1872(3) 0.14561(6)
H6 H 0.9250 0.1557 0.1535
H7 H 0.7759 0.1039 0.1285
C9 C 0.8969(3) 0.5781(3) 0.11209(6)
C10 C 0.9659(4) 0.7347(4) 0.10883(8)
H8 H 1.0432 0.7723 0.1259
C11 C 0.9146(5) 0.8285(4) 0.07957(9)
H9 H 0.9583 0.9325 0.0766
C12 C 0.7974(5) 0.7727(4) 0.05374(8)
H10 H 0.7657 0.8417 0.0342
C13 C 0.7285(4) 0.6226(4) 0.05602(7)
H11 H 0.6517 0.5870 0.0385
C14 C 0.7792(3) 0.5235(3) 0.08620(6)
loop_
_geom_bond_atom_site_label_1
_geom_bond_atom_site_label_2
_geom_bond_site_symmetry_1
_geom_bond_site_symmetry_2
O1 C7 1_555 1_555
N1 N2 1_555 1_555
N2 N3 1_555 1_555
N3 C14 1_555 1_555
C1 H1 1_555 1_555
C2 C1 1_555 1_555
H2 C2 1_555 1_555
C3 C2 1_555 1_555
H3 C3 1_555 1_555
C4 C3 1_555 1_555
H4 C4 1_555 1_555
C5 C4 1_555 1_555
H5 C5 1_555 1_555
C6 C1 1_555 1_555
C7 C6 1_555 1_555
C8 N2 1_555 1_555
H6 C8 1_555 1_555
H7 C8 1_555 1_555
C9 N1 1_555 1_555
C10 C9 1_555 1_555
H8 C10 1_555 1_555
C11 C10 1_555 1_555
H9 C11 1_555 1_555
C12 C11 1_555 1_555
H10 C12 1_555 1_555
C13 C12 1_555 1_555
H11 C13 1_555 1_555
C14 C9 1_555 1_555
C5 C6 1_555 1_555
C7 C8 1_555 1_555
C13 C14 1_555 1_555

#END
