
#######################################################################
#
#                 Cambridge Crystallographic Data Centre
#                                CCDC 
#
#######################################################################
#
# If this CIF has been generated from an entry in the Cambridge 
# Structural Database, then it will include bibliographic, chemical, 
# crystal, experimental, refinement or atomic coordinate data resulting 
# from the CCDC's data processing and validation procedures.
#
#######################################################################

data_VAZLIU
_chemical_formula_moiety         'C192 H223 N9 O12,3(C1 H4 O1),7(C1 H2 Cl2)'
_chemical_name_systematic        
"N-(3'-((5,6-bis(2,6-diisopropylphenoxy)isoindolin-1-ylidene)amino)-5,5',6,6'-tetrakis(2,6-diisopropylphenoxy)-[1,1'-biisoindolylidene]-3-yl)-3-(3-((5,6-bis(2,6-diisopropylphenoxy)isoindolin-1-ylidene)amino)-5,6-bis(2,6-diisopropylphenoxy)-1H-isoindol-1-ylidene)-5,6-bis(2,6-diisopropylphenoxy)isoindolin-1-imine methanol dichloromethane solvate"
_symmetry_cell_setting           triclinic
_symmetry_space_group_name_H-M   'P -1'
_symmetry_Int_Tables_number      2
_space_group_name_Hall           '-P 1'
loop_
_symmetry_equiv_pos_site_id
_symmetry_equiv_pos_as_xyz
1 x,y,z
2 -x,-y,-z
_cell_length_a                   18.0089(5)
_cell_length_b                   19.4187(5)
_cell_length_c                   29.7417(7)
_cell_angle_alpha                90.357(2)
_cell_angle_beta                 95.539(2)
_cell_angle_gamma                107.328(2)
_cell_volume                     9875.85
_exptl_crystal_colour            green
_exptl_crystal_description       block
_cell_formula_units_Z            2
loop_
_atom_site_label
_atom_site_type_symbol
_atom_site_fract_x
_atom_site_fract_y
_atom_site_fract_z
C1 C 0.8169(2) 0.8012(2) 0.35675(12)
H1 H 0.7959 0.8349 0.3686
C2 C 0.8090(2) 0.5355(2) 0.15599(13)
H2 H 0.8531 0.5750 0.1628
C3 C 0.4254(2) 0.38172(19) 0.22698(12)
C4 C 0.7424(2) 0.52584(19) 0.17823(12)
C5 C 0.4371(2) 0.34218(19) 0.18818(12)
C6 C 0.6742(2) 0.4136(2) 0.13719(12)
H3 H 0.6308 0.3731 0.1313
C7 C 0.7602(2) 0.6697(2) 0.26370(12)
C8 C 0.7409(2) 0.4226(2) 0.11538(13)
C9 C 0.5423(2) 0.43561(19) 0.20077(12)
C10 C 0.6162(2) 0.47753(18) 0.19632(12)
C11 C 0.5628(2) 1.1242(2) 0.38774(13)
C12 C 0.5944(2) 0.7822(2) 0.24876(12)
C13 C 0.1811(2) 0.0037(2) -0.00863(13)
C14 C 0.6362(2) 0.9719(2) 0.34955(13)
C15 C 0.6142(2) 0.8814(2) 0.29481(13)
C16 C 0.4855(2) 0.8106(2) 0.18568(13)
C17 C 0.6749(2) 0.46759(19) 0.16821(12)
C18 C 0.3847(2) 0.25085(19) 0.13393(12)
C19 C 0.4890(2) 0.4433(2) 0.23426(12)
C20 C 0.5616(2) 0.7322(2) 0.21232(12)
H4 H 0.5756 0.6901 0.2094
C21 C 0.2611(3) 0.2911(3) 0.35256(16)
C22 C 0.8871(2) 0.7936(2) 0.37551(13)
C23 C 0.7284(2) 0.5711(2) 0.21340(13)
C24 C 0.4773(2) 0.5870(2) 0.34210(13)
C25 C 0.3671(2) 0.4131(2) 0.28839(14)
C26 C 0.6650(2) 1.1049(2) 0.44127(14)
H5 H 0.6974 1.1167 0.4682
C27 C 0.2531(2) 0.3369(2) 0.31754(15)
C28 C 0.8840(2) 0.7006(2) 0.32063(14)
H6 H 0.9061 0.6681 0.3084
C29 C 0.6209(2) 1.0330(2) 0.37211(13)
C30 C 0.3634(2) 0.3646(2) 0.25352(13)
H7 H 0.3216 0.3228 0.2480
C31 C 0.4922(2) 0.4924(2) 0.26933(12)
H8 H 0.5340 0.5344 0.2745
C32 C 0.6117(2) 1.1412(2) 0.42873(13)
C33 C 0.9123(2) 0.8900(2) 0.43162(13)
C34 C 0.2007(2) 0.0971(2) 0.10045(12)
C35 C 0.6569(2) 0.78778(19) 0.28488(12)
C36 C 0.5478(3) 0.5955(2) 0.36775(14)
C37 C 0.2220(2) 0.0787(2) 0.05861(12)
C38 C 0.9203(2) 0.7437(2) 0.35796(15)
C39 C 0.5697(2) 0.8421(2) 0.25375(13)
C40 C 0.2508(2) 0.1528(2) 0.12781(12)
H9 H 0.2373 0.1654 0.1554
C41 C 0.3434(2) 0.1715(2) 0.07191(13)
C42 C 0.7785(2) 0.75638(19) 0.31929(12)
C43 C 0.3217(2) 0.18905(19) 0.11276(12)
C44 C 0.1893(2) 0.3199(2) 0.28458(16)
C45 C 0.8135(2) 0.7073(2) 0.30195(13)
C46 C 0.5666(2) 1.0694(2) 0.35922(13)
H10 H 0.5340 1.0571 0.3323
C47 C 0.7040(2) 0.3022(2) 0.08521(14)
C48 C 0.7057(2) 0.74631(19) 0.28980(12)
C49 C 0.5144(2) 0.8584(2) 0.22262(14)
H11 H 0.4980 0.8990 0.2265
C50 C 0.1400(4) 0.2065(3) 0.3200(2)
H12 H 0.1019 0.1621 0.3207
C51 C 1.0199(2) 0.6869(2) 0.37020(16)
C52 C 0.8070(2) 0.4840(2) 0.12345(13)
C53 C 0.9864(3) 0.5810(3) 0.1152(2)
C54 C 0.4230(3) 0.8874(2) 0.14484(14)
C55 C 0.2161(2) -0.0508(2) -0.01023(15)
C56 C 0.9438(3) 0.9584(2) 0.41599(15)
C57 C 0.1334(3) 0.2531(3) 0.28619(19)
H13 H 0.0910 0.2396 0.2641
C58 C 0.0538(2) 0.1368(2) 0.12273(15)
C59 C 0.9359(3) 1.0160(3) 0.4411(2)
H14 H 0.9576 1.0630 0.4322
C60 C 0.4307(2) 0.4764(2) 0.29621(13)
C61 C 0.5078(2) 0.7485(2) 0.18105(12)
C62 C 0.0880(2) 0.0856(2) 0.13918(13)
C63 C 0.5041(3) 1.2099(2) 0.30663(17)
C64 C 0.4860(2) 0.6414(2) 0.13389(13)
C65 C 0.7379(3) 1.2726(3) 0.57199(19)
H15 H 0.7685 1.2906 0.5989
C66 C 0.4229(2) 0.2207(3) 0.06527(15)
H16 H 0.4602 0.1939 0.0632
H17 H 0.4216 0.2484 0.0384
C67 C 0.5781(3) 0.5333(3) 0.38102(17)
H18 H 0.5433 0.4901 0.3646
C68 C -0.0056(3) 0.1287(3) 0.19252(19)
H19 H -0.0392 0.1421 0.2102
C69 C 0.3646(3) 1.0611(3) 0.36803(19)
H20 H 0.4084 1.0479 0.3840
C70 C 0.4481(3) 0.6436(2) 0.32901(14)
C71 C 0.0803(2) 0.0570(2) 0.18198(14)
C72 C 1.0030(3) 0.6259(3) 0.39613(18)
C73 C 0.1135(3) 0.0920(3) -0.04179(17)
H21 H 0.1149 0.1016 -0.0093
C74 C 0.6686(2) 1.0496(2) 0.41206(14)
C75 C 0.9152(2) 0.5556(2) 0.08899(16)
C76 C 1.0853(3) 0.5816(3) 0.3517(2)
H22 H 1.1079 0.5457 0.3456
C77 C 0.2937(2) 0.1160(2) 0.04412(13)
H23 H 0.3080 0.1040 0.0166
C78 C 0.1545(2) 0.0347(2) -0.04594(15)
C79 C 0.7191(3) 1.0002(3) 0.41681(16)
H24 H 0.7742 1.0269 0.4179
H25 H 0.7102 0.9719 0.4436
C80 C 0.3968(3) 1.1104(3) 0.33078(17)
C81 C 0.6069(3) 0.1972(3) 0.0542(2)
H26 H 0.5677 0.1725 0.0320
C82 C 0.5556(4) 0.5717(4) 0.10042(17)
H27 H 0.5992 0.5677 0.0875
C83 C 0.6487(3) 1.2193(2) 0.49433(14)
C84 C 0.7948(4) 0.2952(3) 0.15660(18)
H28 H 0.8208 0.3446 0.1481
C85 C 0.7348(3) 1.3137(3) 0.4470(2)
H29 H 0.7212 1.2747 0.4238
C86 C 0.4674(3) 0.9325(3) 0.11516(17)
C87 C 0.4935(3) 0.7128(2) 0.34415(16)
H30 H 0.4763 0.7523 0.3364
C88 C 1.1000(3) 0.6416(3) 0.3267(2)
H31 H 1.1322 0.6460 0.3036
C89 C 0.1224(3) 0.0036(3) 0.19787(16)
H32 H 0.1749 0.0201 0.1878
C90 C 0.5907(3) 0.6664(2) 0.38186(15)
H33 H 0.6385 0.6747 0.3993
C91 C 0.1799(3) 0.3722(3) 0.24858(18)
H34 H 0.2310 0.4087 0.2483
C92 C 0.4254(3) 0.5797(2) 0.14090(15)
C93 C 0.6475(3) 0.2734(3) 0.04973(17)
C94 C 0.6268(3) 0.1617(3) 0.0914(3)
H35 H 0.5982 0.1136 0.0939
C95 C 0.6829(3) 0.1907(3) 0.1233(2)
H36 H 0.6944 0.1637 0.1472
C96 C 0.7250(3) 0.2628(2) 0.12065(18)
C97 C 0.2390(3) -0.0846(3) 0.03235(16)
H37 H 0.2624 -0.0454 0.0550
C98 C 0.3482(5) 0.9664(4) 0.1561(2)
H38 H 0.3090 0.9780 0.1699
C99 C 0.8691(3) 0.8765(3) 0.46814(16)
C100 C 0.7159(3) 1.2791(3) 0.49129(17)
C101 C -0.0106(3) 0.1618(3) 0.0477(2)
H39 H -0.0396 0.1877 0.0626
H40 H -0.0406 0.1118 0.0438
H41 H 0.0000 0.1816 0.0187
C102 C 0.5640(3) 0.7235(3) 0.37058(17)
H42 H 0.5934 0.7699 0.3807
C103 C 0.4714(2) 1.1602(2) 0.33767(14)
C104 C 1.0679(3) 0.6964(3) 0.33506(17)
C105 C 0.6243(3) 1.1863(3) 0.53283(16)
C106 C 1.0375(3) 0.5732(3) 0.3860(2)
H43 H 1.0281 0.5316 0.4026
C107 C 0.4592(3) 1.2087(3) 0.26552(18)
H44 H 0.4793 1.2410 0.2436
C108 C 0.4321(4) 0.5140(3) 0.12602(19)
H45 H 0.3928 0.4715 0.1301
C109 C 0.1647(3) 0.0082(3) -0.08830(16)
H46 H 0.1478 0.0274 -0.1145
C110 C 0.6165(3) 0.7071(4) 0.10820(18)
H47 H 0.6035 0.7476 0.1217
C111 C 0.5495(4) 1.1236(3) 0.5324(2)
H48 H 0.5294 1.1117 0.5006
C112 C 0.5532(3) 0.6405(3) 0.11417(15)
C113 C 1.0856(3) 0.7653(3) 0.30911(19)
H49 H 1.0397 0.7828 0.3074
C114 C 0.6725(4) 1.2145(3) 0.57323(18)
H50 H 0.6598 1.1935 0.6006
C115 C 0.1324(4) -0.0014(4) 0.24921(19)
H51 H 0.1512 0.0463 0.2629
H52 H 0.1693 -0.0272 0.2574
H53 H 0.0829 -0.0264 0.2596
C116 C 0.3635(3) 0.9026(3) 0.16566(18)
C117 C 0.3547(3) 1.1118(3) 0.2892(2)
H54 H 0.3048 1.0795 0.2830
C118 C 0.9373(5) 0.6584(4) 0.0448(3)
H55 H 0.9212 0.6839 0.0214
C119 C 0.8632(3) 0.9371(4) 0.49146(18)
H56 H 0.8352 0.9303 0.5166
C120 C 0.2243(3) -0.0747(3) -0.05351(16)
H57 H 0.2474 -0.1112 -0.0566
C121 C 0.1987(3) -0.0447(3) -0.09152(16)
H58 H 0.2049 -0.0612 -0.1199
C122 C 0.2013(4) 0.2249(3) 0.35219(19)
H59 H 0.2042 0.1928 0.3749
C123 C 0.3694(3) 0.6283(3) 0.30148(17)
H60 H 0.3667 0.5911 0.2784
C124 C 0.3019(3) 0.5970(4) 0.3305(2)
H61 H 0.3088 0.5550 0.3450
H62 H 0.2531 0.5840 0.3116
H63 H 0.3017 0.6325 0.3531
C125 C 0.3271(4) 0.3083(5) 0.3897(2)
H64 H 0.3144 0.2660 0.4086
C126 C 0.2986(4) -0.1240(4) 0.0273(2)
H65 H 0.2776 -0.1627 0.0051
H66 H 0.3107 -0.1433 0.0558
H67 H 0.3452 -0.0911 0.0179
C127 C 0.4048(3) 0.3104(4) 0.3747(2)
H68 H 0.3976 0.2731 0.3519
H69 H 0.4384 0.3031 0.4000
H70 H 0.4281 0.3566 0.3624
C128 C 0.5309(4) 0.9123(4) 0.0941(2)
H71 H 0.5165 0.8595 0.0927
C129 C 0.3556(3) 0.5874(3) 0.1625(2)
H72 H 0.3761 0.6240 0.1871
C130 C 0.7540(6) 0.5952(7) 0.0308(4)
H73 H 0.7739 0.6445 0.0225
H74 H 0.7441 0.5939 0.0620
H75 H 0.7063 0.5720 0.0123
C131 C 0.8963(3) 1.0039(4) 0.4790(2)
H76 H 0.8926 1.0429 0.4961
C132 C 0.4870(6) 1.1433(4) 0.5546(4)
H77 H 0.5060 1.1595 0.5853
H78 H 0.4417 1.1019 0.5543
H79 H 0.4733 1.1813 0.5386
C133 C 0.9860(4) 0.9715(4) 0.37349(18)
H80 H 0.9796 0.9240 0.3594
C134 C 0.6860(4) 1.3624(4) 0.4341(2)
H81 H 0.6321 1.3378 0.4374
H82 H 0.6912 1.3754 0.4032
H83 H 0.7034 1.4053 0.4533
C135 C 0.6247(4) 0.7212(5) 0.0571(2)
H84 H 0.6448 0.6857 0.0442
H85 H 0.6599 0.7685 0.0539
H86 H 0.5744 0.7179 0.0416
C136 C 0.0063(3) 0.1580(3) 0.15066(19)
H87 H -0.0178 0.1924 0.1410
C137 C 1.0128(3) 0.5375(4) 0.1501(2)
H88 H 0.9663 0.5071 0.1628
C138 C 0.8895(3) 0.5900(3) 0.05324(19)
C139 C 1.0067(5) 0.6888(4) 0.0696(3)
H89 H 1.0368 0.7352 0.0636
C140 C 1.0724(4) 1.0083(4) 0.3824(2)
H90 H 1.0811 1.0540 0.3980
H91 H 1.0950 1.0160 0.3542
H92 H 1.0962 0.9786 0.4007
C141 C 0.7599(3) 1.3051(3) 0.5328(2)
H93 H 0.8044 1.3448 0.5336
C142 C 0.5396(5) 0.9379(5) 0.0456(2)
H94 H 0.4888 0.9288 0.0293
H95 H 0.5689 0.9122 0.0308
H96 H 0.5666 0.9887 0.0464
C143 C 0.0668(3) 0.1685(3) 0.07647(17)
H97 H 0.0950 0.1412 0.0607
C144 C 0.5842(3) 1.2638(3) 0.3164(2)
H98 H 0.5991 1.2618 0.3488
C145 C 0.9494(4) 0.6185(4) 0.4334(2)
H99 H 0.9475 0.6673 0.4404
C146 C 0.8542(5) 0.2542(5) 0.1577(3)
H100 H 0.9012 0.2813 0.1756
H101 H 0.8656 0.2471 0.1274
H102 H 0.8334 0.2082 0.1707
C147 C 0.6962(4) 0.7045(5) 0.1318(2)
H103 H 0.6904 0.6913 0.1626
H104 H 0.7341 0.7512 0.1311
H105 H 0.7134 0.6695 0.1162
C148 C 0.4956(4) 0.5111(3) 0.10557(19)
H106 H 0.4980 0.4668 0.0949
C149 C 1.0668(6) 0.5824(5) 0.1887(3)
H107 H 1.1140 0.6112 0.1774
H108 H 1.0793 0.5511 0.2111
H109 H 1.0414 0.6133 0.2020
C150 C 0.5893(3) 0.3713(3) 0.02236(19)
H110 H 0.5357 0.3459 0.0257
H111 H 0.5917 0.4044 -0.0017
H112 H 0.6136 0.3976 0.0500
C151 C 0.0311(3) 0.0804(3) 0.20816(17)
H113 H 0.0235 0.0626 0.2368
C152 C 0.1652(3) -0.1351(4) 0.0507(2)
H114 H 0.1285 -0.1089 0.0544
H115 H 0.1797 -0.1526 0.0794
H116 H 0.1417 -0.1752 0.0297
C153 C 0.4469(4) 0.9969(3) 0.1064(2)
H117 H 0.4733 1.0293 0.0861
C154 C 0.3582(4) 0.6933(4) 0.2766(2)
H118 H 0.3572 0.7300 0.2982
H119 H 0.3097 0.6790 0.2574
H120 H 0.4007 0.7121 0.2585
C155 C 0.3009(4) 0.6147(4) 0.1305(3)
H121 H 0.3299 0.6588 0.1179
H122 H 0.2609 0.6235 0.1467
H123 H 0.2774 0.5792 0.1066
C156 C 0.3876(5) 1.0117(3) 0.1278(3)
H124 H 0.3756 1.0544 0.1220
C157 C 0.6086(4) 0.9398(5) 0.1238(3)
H125 H 0.6219 0.9912 0.1283
H126 H 0.6488 0.9281 0.1092
H127 H 0.6039 0.9173 0.1525
C158 C 0.1172(4) 0.2473(3) 0.0807(2)
H128 H 0.0890 0.2759 0.0938
H129 H 0.1297 0.2643 0.0513
H130 H 0.1646 0.2513 0.0998
C159 C 0.5753(5) 0.5196(4) 0.4313(2)
H131 H 0.6157 0.5570 0.4484
H132 H 0.5831 0.4737 0.4374
H133 H 0.5252 0.5196 0.4399
C160 C 0.5849(4) 1.3410(3) 0.3081(3)
H134 H 0.6319 1.3736 0.3232
H135 H 0.5403 1.3494 0.3198
H136 H 0.5829 1.3489 0.2763
C161 C 0.7675(6) 0.3000(6) 0.2030(2)
H137 H 0.7335 0.2538 0.2100
H138 H 0.7398 0.3352 0.2031
H139 H 0.8121 0.3139 0.2253
C162 C 1.0326(3) 0.6513(4) 0.1036(3)
H140 H 1.0814 0.6721 0.1195
C163 C 0.3308(4) 0.3688(4) 0.4209(2)
H141 H 0.3444 0.4131 0.4052
H142 H 0.3697 0.3712 0.4459
H143 H 0.2808 0.3614 0.4320
C164 C 0.3851(3) 1.1598(3) 0.2569(2)
H144 H 0.3559 1.1594 0.2293
C165 C 0.3301(7) 1.0976(5) 0.4027(3)
H145 H 0.3687 1.1411 0.4146
H146 H 0.3146 1.0655 0.4268
H147 H 0.2854 1.1090 0.3884
C166 C 0.8216(4) 1.3554(5) 0.4452(4)
H148 H 0.8359 1.3970 0.4655
H149 H 0.8301 1.3706 0.4150
H150 H 0.8531 1.3247 0.4540
C167 C 0.0820(4) -0.0708(3) 0.1759(2)
H151 H 0.0290 -0.0872 0.1833
H152 H 0.1093 -0.1040 0.1869
H153 H 0.0823 -0.0682 0.1437
C168 C 0.5629(6) 1.0553(4) 0.5522(3)
H154 H 0.5968 1.0392 0.5345
H155 H 0.5138 1.0182 0.5519
H156 H 0.5868 1.0657 0.5828
C169 C 0.5888(5) 0.2678(6) -0.0298(3)
H157 H 0.6204 0.2395 -0.0393
H158 H 0.5782 0.2968 -0.0541
H159 H 0.5404 0.2362 -0.0214
C170 C 0.0325(5) 0.0661(6) -0.0583(6)
H160 H 0.0167 0.1043 -0.0726
H161 H 0.0021 0.0497 -0.0335
H162 H 0.0244 0.0268 -0.0798
C171 C 1.0527(6) 0.4881(6) 0.1300(3)
H163 H 1.0152 0.4521 0.1104
H164 H 1.0750 0.4649 0.1539
H165 H 1.0934 0.5157 0.1130
C172 C 0.8130(4) 0.5566(4) 0.0243(2)
H166 H 0.7916 0.5069 0.0337
C173 C 1.1537(5) 0.8225(4) 0.3324(2)
H167 H 1.1464 0.8264 0.3638
H168 H 1.1576 0.8678 0.3186
H169 H 1.2008 0.8099 0.3298
C174 C 0.7443(5) 0.7853(7) 0.4855(4)
H170 H 0.7367 0.8091 0.5123
H171 H 0.7201 0.7342 0.4869
H172 H 0.7211 0.8030 0.4594
C175 C 0.1577(5) 0.3381(4) 0.2017(2)
H173 H 0.1940 0.3128 0.1952
H174 H 0.1590 0.3749 0.1802
H175 H 0.1059 0.3048 0.1999
C176 C 0.6602(3) 0.5441(4) 0.3668(2)
H176 H 0.6588 0.5480 0.3346
H177 H 0.6778 0.5037 0.3757
H178 H 0.6955 0.5875 0.3812
C177 C 0.8756(5) 0.7824(5) 0.5260(3)
H179 H 0.8745 0.8146 0.5504
H180 H 0.9289 0.7885 0.5206
H181 H 0.8516 0.7335 0.5338
C178 C 0.1230(5) 0.4113(5) 0.2615(3)
H182 H 0.0710 0.3782 0.2590
H183 H 0.1245 0.4504 0.2417
H184 H 0.1374 0.4300 0.2921
C179 C 0.3101(4) 0.5178(4) 0.1840(3)
H185 H 0.2904 0.4799 0.1612
H186 H 0.2672 0.5259 0.1978
H187 H 0.3442 0.5040 0.2066
C180 C 0.8296(5) 0.7999(4) 0.4822(2)
H188 H 0.8344 0.7674 0.4580
C181 C 0.8671(4) 0.5748(5) 0.4175(3)
H189 H 0.8509 0.5923 0.3892
H190 H 0.8330 0.5790 0.4395
H191 H 0.8648 0.5250 0.4134
C182 C 0.6327(3) 0.3171(4) 0.01127(19)
H192 H 0.6837 0.3451 0.0024
C183 C 0.6443(5) 1.2456(5) 0.2934(5)
H193 H 0.6459 1.1982 0.3014
H194 H 0.6942 1.2801 0.3023
H195 H 0.6322 1.2464 0.2613
C184 C 0.3034(5) 0.9918(4) 0.3510(3)
H196 H 0.2567 1.0022 0.3391
H197 H 0.2920 0.9596 0.3755
H198 H 0.3227 0.9695 0.3277
C185 C 0.3173(4) 0.8495(5) 0.1964(2)
H199 H 0.3499 0.8190 0.2066
C186 C 0.2420(4) 0.7987(5) 0.1713(3)
H200 H 0.2120 0.8269 0.1562
H201 H 0.2117 0.7685 0.1925
H202 H 0.2554 0.7691 0.1493
C187 C 0.9469(5) 1.0123(8) 0.3398(3)
H203 H 0.8913 0.9960 0.3410
H204 H 0.9585 1.0035 0.3098
H205 H 0.9663 1.0631 0.3473
C188 C 0.8252(6) 0.5531(5) -0.0252(3)
H206 H 0.7759 0.5305 -0.0425
H207 H 0.8605 0.5255 -0.0291
H208 H 0.8468 0.6011 -0.0353
C189 C 0.3027(6) 0.8846(8) 0.2380(3)
H209 H 0.3489 0.8966 0.2591
H210 H 0.2602 0.8519 0.2515
H211 H 0.2895 0.9277 0.2302
C190 C 0.1530(10) 0.1590(7) -0.0597(8)
H212 H 0.1321 0.1608 -0.0904
H213 H 0.2078 0.1638 -0.0587
H214 H 0.1459 0.1977 -0.0421
C191 C 0.9800(5) 0.5929(7) 0.4753(3)
H215 H 0.9458 0.5922 0.4982
H216 H 1.0312 0.6247 0.4851
H217 H 0.9832 0.5451 0.4701
C192 C 1.1055(8) 0.7562(5) 0.2606(3)
H218 H 1.1223 0.8026 0.2475
H219 H 1.0600 0.7261 0.2428
H220 H 1.1467 0.7340 0.2614
N1 N 0.6923(2) 0.9549(2) 0.37574(13)
H221 H 0.7108 0.9206 0.3690
N2 N 0.59982(19) 0.94134(18) 0.31056(11)
N3 N 0.66658(18) 0.85010(17) 0.31227(10)
N4 N 0.69664(17) 0.68957(16) 0.25795(10)
N5 N 0.78141(17) 0.62566(17) 0.23455(11)
N6 N 0.65256(17) 0.54204(16) 0.22136(10)
H222 H 0.6295 0.5611 0.2397
N7 N 0.50638(17) 0.37231(16) 0.17357(10)
N8 N 0.37924(17) 0.28175(16) 0.17201(10)
N9 N 0.44180(19) 0.26731(19) 0.10655(11)
H223 H 0.4849 0.3015 0.1125
O1 O 0.60115(17) 1.19635(15) 0.45366(10)
O2 O 0.51288(16) 1.16463(15) 0.38080(10)
O3 O 0.43226(17) 0.81955(15) 0.15116(10)
O4 O 0.47390(16) 0.70733(15) 0.14252(9)
O5 O 0.93132(18) 0.83233(17) 0.41260(10)
O6 O 0.98997(18) 0.74241(17) 0.38101(12)
O7 O 0.74817(16) 0.37488(15) 0.08282(9)
O8 O 0.86757(16) 0.48582(15) 0.09836(10)
O9 O 0.31018(16) 0.40430(17) 0.31787(11)
O10 O 0.42613(16) 0.51635(15) 0.33319(10)
O11 O 0.12894(15) 0.05568(15) 0.11086(9)
O12 O 0.16629(15) 0.02425(16) 0.03433(9)
C193 C 0.4237(4) 0.6398(3) 0.45318(18)
H224 H 0.4481 0.6465 0.4252
H225 H 0.3916 0.6719 0.4536
Cl1 Cl 0.49588(12) 0.66343(12) 0.49817(6)
Cl2 Cl 0.36419(15) 0.55121(10) 0.45414(6)
C194 C 0.8901(4) 0.5040(4) 0.2822(3)
H226 H 0.8868 0.5339 0.2566
H227 H 0.9211 0.5354 0.3071
Cl3 Cl 0.79745(14) 0.46591(15) 0.29747(9)
Cl4 Cl 0.9379(2) 0.4451(2) 0.2686(2)
C195 C 0.8364(6) 0.1845(7) 0.3087(3)
H228 H 0.8115 0.2184 0.2953
H229 H 0.8137 0.1391 0.2916
Cl5 Cl 0.81003(19) 0.1715(2) 0.35757(11)
Cl6 Cl 0.93370(15) 0.2151(2) 0.29882(10)
C196 C 0.8942(5) 0.3810(5) 0.0126(3)
H230 H 0.9426 0.4089 0.0014
H231 H 0.8781 0.4125 0.0325
Cl7 Cl 0.82098(14) 0.3499(2) -0.03373(10)
Cl8 Cl 0.9093(3) 0.3134(2) 0.04140(11)
C197 C 0.8800(7) 0.9015(8) 0.2086(4)
H232 H 0.9030 0.8819 0.1853
H233 H 0.8993 0.9537 0.2077
Cl9 Cl 0.7711(7) 0.8731(4) 0.1938(3)
Cl10 Cl 0.9085(7) 0.8795(5) 0.2535(3)
C198 C 0.0788(7) 0.3554(6) 0.3818(4)
H234 H 0.0783 0.3546 0.3491
H235 H 0.0905 0.3123 0.3924
Cl11 Cl -0.0068(3) 0.3519(3) 0.3941(2)
Cl12 Cl 0.15056(18) 0.42724(18) 0.40318(13)
C199 C 0.5367(6) 0.0619(4) 0.2259(3)
H236 H 0.5074 0.0749 0.2482
H237 H 0.5062 0.0173 0.2106
H238 H 0.5488 0.0993 0.2044
O13 O 0.6037(3) 0.0539(3) 0.2465(2)
H239 H 0.5949 0.0135 0.2567
C200 C 0.8833(4) 0.1816(4) 0.5382(2)
H240 H 0.9307 0.1744 0.5531
H241 H 0.8762 0.2244 0.5519
Cl13 Cl 0.89311(12) 0.19443(10) 0.47961(7)
Cl14 Cl 0.80371(9) 0.10695(10) 0.54619(5)
C201 C 0.9179(4) 0.7480(4) 0.1633(3)
H242 H 0.8733 0.7627 0.1692
H243 H 0.9091 0.7257 0.1335
H244 H 0.9635 0.7894 0.1651
O14 O 0.9329(3) 0.6826(4) 0.2056(2)
H245 H 0.8905 0.6543 0.2099
C202 C 0.7752(7) 0.0504(7) 0.2311(4)
H246 H 0.8313 0.0677 0.2341
H247 H 0.7571 0.0190 0.2047
H248 H 0.7579 0.0243 0.2573
O15 O 0.7439(5) 0.1111(5) 0.2268(3)
H249 H 0.7799 0.1486 0.2259
loop_
_geom_bond_atom_site_label_1
_geom_bond_atom_site_label_2
_geom_bond_site_symmetry_1
_geom_bond_site_symmetry_2
C1 H1 1_555 1_555
C2 H2 1_555 1_555
C3 C5 1_555 1_555
C4 C2 1_555 1_555
C5 N7 1_555 1_555
C6 H3 1_555 1_555
C7 C45 1_555 1_555
C8 C6 1_555 1_555
C9 C10 1_555 1_555
C10 C17 1_555 1_555
C11 C32 1_555 1_555
C12 C20 1_555 1_555
C13 C55 1_555 1_555
C14 C29 1_555 1_555
C15 C39 1_555 1_555
C16 C49 1_555 1_555
C17 C4 1_555 1_555
C18 C43 1_555 1_555
C19 C3 1_555 1_555
C20 H4 1_555 1_555
C21 C27 1_555 1_555
C22 C1 1_555 1_555
C23 C4 1_555 1_555
C24 C36 1_555 1_555
C25 C30 1_555 1_555
C26 H5 1_555 1_555
C27 C44 1_555 1_555
C28 H6 1_555 1_555
C29 C46 1_555 1_555
C30 C3 1_555 1_555
H7 C30 1_555 1_555
C31 C19 1_555 1_555
H8 C31 1_555 1_555
C32 C26 1_555 1_555
C33 C56 1_555 1_555
C34 C37 1_555 1_555
C35 C12 1_555 1_555
C36 C67 1_555 1_555
C37 C77 1_555 1_555
C38 C22 1_555 1_555
C39 C12 1_555 1_555
C40 C34 1_555 1_555
H9 C40 1_555 1_555
C41 C43 1_555 1_555
C42 C1 1_555 1_555
C43 C40 1_555 1_555
C44 C57 1_555 1_555
C45 C28 1_555 1_555
C46 C11 1_555 1_555
H10 C46 1_555 1_555
C47 C93 1_555 1_555
C48 C35 1_555 1_555
C49 C39 1_555 1_555
H11 C49 1_555 1_555
C50 H12 1_555 1_555
C51 C72 1_555 1_555
C52 C2 1_555 1_555
C53 C75 1_555 1_555
C54 C86 1_555 1_555
C55 C97 1_555 1_555
C56 C59 1_555 1_555
C57 C50 1_555 1_555
H13 C57 1_555 1_555
C58 C62 1_555 1_555
C59 H14 1_555 1_555
C60 C25 1_555 1_555
C61 C16 1_555 1_555
C62 C71 1_555 1_555
C63 C103 1_555 1_555
C64 C92 1_555 1_555
C65 H15 1_555 1_555
C66 C41 1_555 1_555
H16 C66 1_555 1_555
H17 C66 1_555 1_555
C67 H18 1_555 1_555
C68 H19 1_555 1_555
C69 H20 1_555 1_555
C70 C24 1_555 1_555
C71 C89 1_555 1_555
C72 C106 1_555 1_555
C73 H21 1_555 1_555
C74 C26 1_555 1_555
C75 C138 1_555 1_555
C76 H22 1_555 1_555
C77 C41 1_555 1_555
H23 C77 1_555 1_555
C78 C13 1_555 1_555
C79 C74 1_555 1_555
H24 C79 1_555 1_555
H25 C79 1_555 1_555
C80 C69 1_555 1_555
C81 H26 1_555 1_555
C82 H27 1_555 1_555
C83 C100 1_555 1_555
C84 H28 1_555 1_555
C85 H29 1_555 1_555
C86 C128 1_555 1_555
C87 C70 1_555 1_555
H30 C87 1_555 1_555
C88 C76 1_555 1_555
H31 C88 1_555 1_555
C89 H32 1_555 1_555
C90 C36 1_555 1_555
H33 C90 1_555 1_555
C91 C44 1_555 1_555
H34 C91 1_555 1_555
C92 C108 1_555 1_555
C93 C81 1_555 1_555
C94 C81 1_555 1_555
H35 C94 1_555 1_555
C95 C94 1_555 1_555
H36 C95 1_555 1_555
C96 C47 1_555 1_555
C97 H37 1_555 1_555
C98 H38 1_555 1_555
C99 C33 1_555 1_555
C100 C85 1_555 1_555
C101 H39 1_555 1_555
H40 C101 1_555 1_555
H41 C101 1_555 1_555
C102 C87 1_555 1_555
H42 C102 1_555 1_555
C103 C80 1_555 1_555
C104 C51 1_555 1_555
C105 C83 1_555 1_555
C106 C76 1_555 1_555
H43 C106 1_555 1_555
C107 C63 1_555 1_555
H44 C107 1_555 1_555
C108 H45 1_555 1_555
C109 C78 1_555 1_555
H46 C109 1_555 1_555
C110 H47 1_555 1_555
C111 C105 1_555 1_555
H48 C111 1_555 1_555
C112 C64 1_555 1_555
C113 C104 1_555 1_555
H49 C113 1_555 1_555
C114 C65 1_555 1_555
H50 C114 1_555 1_555
C115 C89 1_555 1_555
H51 C115 1_555 1_555
H52 C115 1_555 1_555
H53 C115 1_555 1_555
C116 C54 1_555 1_555
C117 C80 1_555 1_555
H54 C117 1_555 1_555
C118 H55 1_555 1_555
C119 C99 1_555 1_555
H56 C119 1_555 1_555
C120 C55 1_555 1_555
H57 C120 1_555 1_555
C121 C109 1_555 1_555
H58 C121 1_555 1_555
C122 C21 1_555 1_555
H59 C122 1_555 1_555
C123 C70 1_555 1_555
H60 C123 1_555 1_555
C124 C123 1_555 1_555
H61 C124 1_555 1_555
H62 C124 1_555 1_555
H63 C124 1_555 1_555
C125 C21 1_555 1_555
H64 C125 1_555 1_555
C126 C97 1_555 1_555
H65 C126 1_555 1_555
H66 C126 1_555 1_555
H67 C126 1_555 1_555
C127 C125 1_555 1_555
H68 C127 1_555 1_555
H69 C127 1_555 1_555
H70 C127 1_555 1_555
C128 H71 1_555 1_555
C129 C92 1_555 1_555
H72 C129 1_555 1_555
C130 H73 1_555 1_555
H74 C130 1_555 1_555
H75 C130 1_555 1_555
C131 C59 1_555 1_555
H76 C131 1_555 1_555
C132 C111 1_555 1_555
H77 C132 1_555 1_555
H78 C132 1_555 1_555
H79 C132 1_555 1_555
C133 C56 1_555 1_555
H80 C133 1_555 1_555
C134 C85 1_555 1_555
H81 C134 1_555 1_555
H82 C134 1_555 1_555
H83 C134 1_555 1_555
C135 C110 1_555 1_555
H84 C135 1_555 1_555
H85 C135 1_555 1_555
H86 C135 1_555 1_555
C136 C58 1_555 1_555
H87 C136 1_555 1_555
C137 C53 1_555 1_555
H88 C137 1_555 1_555
C138 C118 1_555 1_555
C139 C118 1_555 1_555
H89 C139 1_555 1_555
C140 C133 1_555 1_555
H90 C140 1_555 1_555
H91 C140 1_555 1_555
H92 C140 1_555 1_555
C141 C65 1_555 1_555
H93 C141 1_555 1_555
C142 C128 1_555 1_555
H94 C142 1_555 1_555
H95 C142 1_555 1_555
H96 C142 1_555 1_555
C143 C58 1_555 1_555
H97 C143 1_555 1_555
C144 C63 1_555 1_555
H98 C144 1_555 1_555
C145 C72 1_555 1_555
H99 C145 1_555 1_555
C146 C84 1_555 1_555
H100 C146 1_555 1_555
H101 C146 1_555 1_555
H102 C146 1_555 1_555
C147 C110 1_555 1_555
H103 C147 1_555 1_555
H104 C147 1_555 1_555
H105 C147 1_555 1_555
C148 C82 1_555 1_555
H106 C148 1_555 1_555
C149 C137 1_555 1_555
H107 C149 1_555 1_555
H108 C149 1_555 1_555
H109 C149 1_555 1_555
C150 H110 1_555 1_555
H111 C150 1_555 1_555
H112 C150 1_555 1_555
C151 C68 1_555 1_555
H113 C151 1_555 1_555
C152 C97 1_555 1_555
H114 C152 1_555 1_555
H115 C152 1_555 1_555
H116 C152 1_555 1_555
C153 C86 1_555 1_555
H117 C153 1_555 1_555
C154 C123 1_555 1_555
H118 C154 1_555 1_555
H119 C154 1_555 1_555
H120 C154 1_555 1_555
C155 C129 1_555 1_555
H121 C155 1_555 1_555
H122 C155 1_555 1_555
H123 C155 1_555 1_555
C156 C98 1_555 1_555
H124 C156 1_555 1_555
C157 C128 1_555 1_555
H125 C157 1_555 1_555
H126 C157 1_555 1_555
H127 C157 1_555 1_555
C158 C143 1_555 1_555
H128 C158 1_555 1_555
H129 C158 1_555 1_555
H130 C158 1_555 1_555
C159 C67 1_555 1_555
H131 C159 1_555 1_555
H132 C159 1_555 1_555
H133 C159 1_555 1_555
C160 C144 1_555 1_555
H134 C160 1_555 1_555
H135 C160 1_555 1_555
H136 C160 1_555 1_555
C161 C84 1_555 1_555
H137 C161 1_555 1_555
H138 C161 1_555 1_555
H139 C161 1_555 1_555
C162 C53 1_555 1_555
H140 C162 1_555 1_555
C163 C125 1_555 1_555
H141 C163 1_555 1_555
H142 C163 1_555 1_555
H143 C163 1_555 1_555
C164 C107 1_555 1_555
H144 C164 1_555 1_555
C165 C69 1_555 1_555
H145 C165 1_555 1_555
H146 C165 1_555 1_555
H147 C165 1_555 1_555
C166 C85 1_555 1_555
H148 C166 1_555 1_555
H149 C166 1_555 1_555
H150 C166 1_555 1_555
C167 C89 1_555 1_555
H151 C167 1_555 1_555
H152 C167 1_555 1_555
H153 C167 1_555 1_555
C168 C111 1_555 1_555
H154 C168 1_555 1_555
H155 C168 1_555 1_555
H156 C168 1_555 1_555
C169 H157 1_555 1_555
H158 C169 1_555 1_555
H159 C169 1_555 1_555
C170 C73 1_555 1_555
H160 C170 1_555 1_555
H161 C170 1_555 1_555
H162 C170 1_555 1_555
C171 C137 1_555 1_555
H163 C171 1_555 1_555
H164 C171 1_555 1_555
H165 C171 1_555 1_555
C172 C130 1_555 1_555
H166 C172 1_555 1_555
C173 C113 1_555 1_555
H167 C173 1_555 1_555
H168 C173 1_555 1_555
H169 C173 1_555 1_555
C174 H170 1_555 1_555
H171 C174 1_555 1_555
H172 C174 1_555 1_555
C175 C91 1_555 1_555
H173 C175 1_555 1_555
H174 C175 1_555 1_555
H175 C175 1_555 1_555
C176 C67 1_555 1_555
H176 C176 1_555 1_555
H177 C176 1_555 1_555
H178 C176 1_555 1_555
C177 H179 1_555 1_555
H180 C177 1_555 1_555
H181 C177 1_555 1_555
C178 C91 1_555 1_555
H182 C178 1_555 1_555
H183 C178 1_555 1_555
H184 C178 1_555 1_555
C179 C129 1_555 1_555
H185 C179 1_555 1_555
H186 C179 1_555 1_555
H187 C179 1_555 1_555
C180 C99 1_555 1_555
H188 C180 1_555 1_555
C181 C145 1_555 1_555
H189 C181 1_555 1_555
H190 C181 1_555 1_555
H191 C181 1_555 1_555
C182 C93 1_555 1_555
H192 C182 1_555 1_555
C183 C144 1_555 1_555
H193 C183 1_555 1_555
H194 C183 1_555 1_555
H195 C183 1_555 1_555
C184 C69 1_555 1_555
H196 C184 1_555 1_555
H197 C184 1_555 1_555
H198 C184 1_555 1_555
C185 C116 1_555 1_555
H199 C185 1_555 1_555
C186 C185 1_555 1_555
H200 C186 1_555 1_555
H201 C186 1_555 1_555
H202 C186 1_555 1_555
C187 C133 1_555 1_555
H203 C187 1_555 1_555
H204 C187 1_555 1_555
H205 C187 1_555 1_555
C188 C172 1_555 1_555
H206 C188 1_555 1_555
H207 C188 1_555 1_555
H208 C188 1_555 1_555
C189 C185 1_555 1_555
H209 C189 1_555 1_555
H210 C189 1_555 1_555
H211 C189 1_555 1_555
C190 C73 1_555 1_555
H212 C190 1_555 1_555
H213 C190 1_555 1_555
H214 C190 1_555 1_555
C191 C145 1_555 1_555
H215 C191 1_555 1_555
H216 C191 1_555 1_555
H217 C191 1_555 1_555
C192 C113 1_555 1_555
H218 C192 1_555 1_555
H219 C192 1_555 1_555
H220 C192 1_555 1_555
N1 C14 1_555 1_555
H221 N1 1_555 1_555
N2 C14 1_555 1_555
N3 C15 1_555 1_555
N4 C7 1_555 1_555
N5 C7 1_555 1_555
N6 C10 1_555 1_555
H222 N6 1_555 1_555
N7 C9 1_555 1_555
N8 C5 1_555 1_555
N9 C18 1_555 1_555
H223 N9 1_555 1_555
O1 C32 1_555 1_555
O2 C11 1_555 1_555
O3 C16 1_555 1_555
O4 C61 1_555 1_555
O5 C22 1_555 1_555
O6 C38 1_555 1_555
O7 C8 1_555 1_555
O8 C52 1_555 1_555
O9 C25 1_555 1_555
O10 C24 1_555 1_555
O11 C34 1_555 1_555
O12 C13 1_555 1_555
C193 H224 1_555 1_555
H225 C193 1_555 1_555
Cl1 C193 1_555 1_555
Cl2 C193 1_555 1_555
C194 H226 1_555 1_555
H227 C194 1_555 1_555
Cl3 C194 1_555 1_555
Cl4 C194 1_555 1_555
C195 H228 1_555 1_555
H229 C195 1_555 1_555
Cl5 C195 1_555 1_555
Cl6 C195 1_555 1_555
C196 H230 1_555 1_555
H231 C196 1_555 1_555
Cl7 C196 1_555 1_555
Cl8 C196 1_555 1_555
C197 H232 1_555 1_555
H233 C197 1_555 1_555
Cl9 C197 1_555 1_555
Cl10 C197 1_555 1_555
C198 H234 1_555 1_555
H235 C198 1_555 1_555
Cl11 C198 1_555 1_555
Cl12 C198 1_555 1_555
C199 H236 1_555 1_555
H237 C199 1_555 1_555
H238 C199 1_555 1_555
O13 C199 1_555 1_555
H239 O13 1_555 1_555
C200 H240 1_555 1_555
H241 C200 1_555 1_555
Cl13 C200 1_555 1_555
Cl14 C200 1_555 1_555
C201 H242 1_555 1_555
H243 C201 1_555 1_555
H244 C201 1_555 1_555
O14 C201 1_555 1_555
H245 O14 1_555 1_555
C202 H246 1_555 1_555
H247 C202 1_555 1_555
H248 C202 1_555 1_555
O15 C202 1_555 1_555
H249 O15 1_555 1_555
C6 C17 1_555 1_555
C8 C52 1_555 1_555
C9 C19 1_555 1_555
C15 N2 1_555 1_555
C18 N8 1_555 1_555
C20 C61 1_555 1_555
C23 N5 1_555 1_555
C23 N6 1_555 1_555
C27 O9 1_555 1_555
C28 C38 1_555 1_555
C29 C74 1_555 1_555
C31 C60 1_555 1_555
C33 O5 1_555 1_555
C35 N3 1_555 1_555
C37 O12 1_555 1_555
C42 C45 1_555 1_555
C42 C48 1_555 1_555
C47 O7 1_555 1_555
C48 N4 1_555 1_555
C50 C122 1_555 1_555
C51 O6 1_555 1_555
C54 O3 1_555 1_555
C60 O10 1_555 1_555
C62 O11 1_555 1_555
C64 O4 1_555 1_555
C66 N9 1_555 1_555
C68 C136 1_555 1_555
C71 C151 1_555 1_555
C73 C78 1_555 1_555
C75 O8 1_555 1_555
C79 N1 1_555 1_555
C82 C112 1_555 1_555
C83 O1 1_555 1_555
C84 C96 1_555 1_555
C88 C104 1_555 1_555
C90 C102 1_555 1_555
C95 C96 1_555 1_555
C98 C116 1_555 1_555
C100 C141 1_555 1_555
C101 C143 1_555 1_555
C103 O2 1_555 1_555
C105 C114 1_555 1_555
C108 C148 1_555 1_555
C110 C112 1_555 1_555
C117 C164 1_555 1_555
C119 C131 1_555 1_555
C120 C121 1_555 1_555
C138 C172 1_555 1_555
C139 C162 1_555 1_555
C150 C182 1_555 1_555
C153 C156 1_555 1_555
C169 C182 1_555 1_555
C174 C180 1_555 1_555
C177 C180 1_555 1_555

#END
