
#######################################################################
#
#                 Cambridge Crystallographic Data Centre
#                                CCDC 
#
#######################################################################
#
# If this CIF has been generated from an entry in the Cambridge 
# Structural Database, then it will include bibliographic, chemical, 
# crystal, experimental, refinement or atomic coordinate data resulting 
# from the CCDC's data processing and validation procedures.
#
#######################################################################

data_VAZLEQ
_chemical_formula_moiety         
'H18 B69 Mg7 O126 13-,6(C2 H8 N1 1+),7(C1 H6 N1 1+),5(H2 O1)'
_chemical_name_systematic        
'hexakis(dimethylammonium) heptakis(methylammonium) (\m-octadecahydroxynonahexacontaborato)-hepta-magnesium pentahydrate'
_symmetry_cell_setting           trigonal
_symmetry_space_group_name_H-M   'P -3 1 c'
_symmetry_Int_Tables_number      163
_space_group_name_Hall           "-P 3 2'c"
loop_
_symmetry_equiv_pos_site_id
_symmetry_equiv_pos_as_xyz
1 x,y,z
2 -y,x-y,z
3 -x+y,-x,z
4 -y,-x,1/2-z
5 -x+y,y,1/2-z
6 x,x-y,1/2-z
7 -x,-y,-z
8 y,-x+y,-z
9 x-y,x,-z
10 y,x,1/2+z
11 x-y,-y,1/2+z
12 -x,-x+y,1/2+z
_cell_length_a                   26.1715(2)
_cell_length_b                   26.1715(2)
_cell_length_c                   15.38620(10)
_cell_angle_alpha                90
_cell_angle_beta                 90
_cell_angle_gamma                120
_cell_volume                     9126.81
_exptl_crystal_colour            colorless
_exptl_crystal_description       prism
_cell_formula_units_Z            2
loop_
_atom_site_label
_atom_site_type_symbol
_atom_site_fract_x
_atom_site_fract_y
_atom_site_fract_z
Mg1 Mg 0.6667 0.3333 0.2500
Mg2 Mg 0.52777(3) 0.20704(3) 0.41979(4)
B1 B 0.43717(13) -0.00315(12) 0.3584(2)
B2 B 0.33877(13) 0.14186(17) 0.5670(2)
B3 B 0.51645(11) 0.15880(12) 0.61352(14)
B4 B 0.52333(10) 0.30037(10) 0.53041(14)
B5 B 0.39200(11) 0.12864(12) 0.45137(15)
B6 B 0.49091(10) 0.17012(9) 0.23115(13)
B7 B 0.56377(9) 0.33394(9) 0.38299(12)
B8 B 0.44675(10) 0.19432(11) 0.57513(14)
B9 B 0.55303(13) 0.27652(6) 0.2500
B10 B 0.51529(11) 0.08479(11) 0.42206(16)
B11 B 0.59406(10) 0.17325(11) 0.49771(14)
B12 B 0.43401(10) 0.08806(10) 0.33826(14)
O1 O 0.40931(10) -0.06270(9) 0.3464(3)
H1 H 0.4339 -0.0733 0.3427
O2 O 0.28512(10) 0.12823(17) 0.59903(18)
H2 H 0.2659 0.0915 0.6099
O3 O 0.33955(8) 0.11401(11) 0.49104(13)
O4 O 0.53153(10) 0.12873(13) 0.67091(13)
H3 H 0.5655 0.1523 0.6915
O5 O 0.49073(8) 0.02559(7) 0.40084(15)
O6 O 0.41058(7) 0.02504(6) 0.32789(10)
O7 O 0.56350(6) 0.10927(7) 0.47342(10)
O8 O 0.54145(7) 0.35697(7) 0.55266(9)
O9 O 0.38817(7) 0.17976(7) 0.60697(9)
O10 O 0.48519(7) 0.25716(7) 0.58451(9)
O11 O 0.44712(7) 0.11497(6) 0.25345(8)
O12 O 0.54957(6) 0.18447(7) 0.54138(8)
O13 O 0.38934(7) 0.09638(7) 0.38193(10)
O14 O 0.46722(7) 0.16211(7) 0.63006(9)
O15 O 0.50968(6) 0.17802(6) 0.14823(8)
O16 O 0.44353(6) 0.17491(6) 0.48223(8)
O17 O 0.54304(6) 0.28761(6) 0.45484(8)
O18 O 0.48978(6) 0.11571(6) 0.39173(8)
O19 O 0.60907(6) 0.21174(6) 0.42188(8)
O20 O 0.59098(5) 0.31705(5) 0.31593(7)
O21 O 0.51374(6) 0.21642(5) 0.29001(7)
B1A B 1.00315(12) 0.44032(18) 0.3584(2)
B2A B 0.85814(17) 0.19691(21) 0.5670(2)
B3A B 0.84120(12) 0.35765(16) 0.61352(14)
B4A B 0.69963(10) 0.22296(14) 0.53041(14)
B5A B 0.87136(12) 0.26336(16) 0.45137(15)
B6A B 0.82988(9) 0.32079(13) 0.23115(13)
B7A B 0.66606(9) 0.22983(13) 0.38299(12)
B8A B 0.80568(11) 0.25243(15) 0.57513(14)
B9A B 0.72348(6) 0.27651(14) 0.2500
B10A B 0.91521(11) 0.43050(16) 0.42206(16)
B11A B 0.82675(11) 0.42081(15) 0.49771(14)
B12A B 0.91194(10) 0.34595(14) 0.33826(14)
O1A O 1.06270(9) 0.47201(13) 0.3464(3)
H1A H 1.0733 0.5072 0.3427
O2A O 0.87177(17) 0.15689(20) 0.59903(18)
H2A H 0.9085 0.1744 0.6099
O3A O 0.88599(11) 0.22554(14) 0.49104(13)
O4A O 0.87127(13) 0.40280(16) 0.67091(13)
H3A H 0.8477 0.4132 0.6915
O5A O 0.97441(7) 0.46514(11) 0.40084(15)
O6A O 0.97496(6) 0.38554(9) 0.32789(10)
O7A O 0.89073(7) 0.45423(9) 0.47342(10)
O8A O 0.64303(7) 0.18448(10) 0.55266(9)
O9A O 0.82024(7) 0.20841(10) 0.60697(9)
O10A O 0.74284(7) 0.22803(10) 0.58451(9)
O11A O 0.88503(6) 0.33215(9) 0.25345(8)
O12A O 0.81553(7) 0.36510(9) 0.54138(8)
O13A O 0.90362(7) 0.29296(10) 0.38193(10)
O14A O 0.83789(7) 0.30511(10) 0.63006(9)
O15A O 0.82198(6) 0.33166(8) 0.14823(8)
O16A O 0.82509(6) 0.26862(8) 0.48223(8)
O17A O 0.71239(6) 0.25543(8) 0.45484(8)
O18A O 0.88429(6) 0.37407(8) 0.39173(8)
O19A O 0.78826(6) 0.39733(8) 0.42188(8)
O20A O 0.68295(5) 0.27393(7) 0.31593(7)
O21A O 0.78358(5) 0.29732(8) 0.29001(7)
B1B B 0.55968(18) 0.56283(13) 0.3584(2)
B2B B 0.80309(21) 0.66123(13) 0.5670(2)
B3B B 0.64235(16) 0.48355(11) 0.61352(14)
B4B B 0.77704(14) 0.47667(10) 0.53041(14)
B5B B 0.73664(16) 0.60800(11) 0.45137(15)
B6B B 0.67921(13) 0.50909(10) 0.23115(13)
B7B B 0.77017(13) 0.43623(9) 0.38299(12)
B8B B 0.74757(15) 0.55325(10) 0.57513(14)
B9B B 0.72349(14) 0.44697(13) 0.2500
B10B B 0.56950(16) 0.48471(11) 0.42206(16)
B11B B 0.57919(15) 0.40594(10) 0.49771(14)
B12B B 0.65405(14) 0.56599(10) 0.33826(14)
O1B O 0.52799(13) 0.59069(10) 0.3464(3)
H1B H 0.4928 0.5661 0.3427
O2B O 0.84311(20) 0.71488(10) 0.59903(18)
H2B H 0.8256 0.7341 0.6099
O3B O 0.77446(14) 0.66045(8) 0.49104(13)
O4B O 0.59720(16) 0.46847(10) 0.67091(13)
H3B H 0.5868 0.4345 0.6915
O5B O 0.53486(11) 0.50927(8) 0.40084(15)
O6B O 0.61446(9) 0.58942(7) 0.32789(10)
O7B O 0.54577(9) 0.43650(6) 0.47342(10)
O8B O 0.81552(10) 0.45855(7) 0.55266(9)
O9B O 0.79159(10) 0.61183(7) 0.60697(9)
O10B O 0.77197(10) 0.51481(7) 0.58451(9)
O11B O 0.66785(9) 0.55288(7) 0.25345(8)
O12B O 0.63490(9) 0.45043(6) 0.54138(8)
O13B O 0.70704(10) 0.61066(7) 0.38193(10)
O14B O 0.69489(10) 0.53278(7) 0.63006(9)
O15B O 0.66834(8) 0.49032(6) 0.14823(8)
O16B O 0.73138(8) 0.55647(6) 0.48223(8)
O17B O 0.74457(8) 0.45696(6) 0.45484(8)
O18B O 0.62593(8) 0.51022(6) 0.39173(8)
O19B O 0.60267(8) 0.39093(6) 0.42188(8)
O20B O 0.72607(7) 0.40902(5) 0.31593(7)
O21B O 0.70268(8) 0.48626(6) 0.29001(7)
B1C B 1.00315(12) 0.56283(13) 0.1416(2)
B2C B 0.85814(17) 0.66123(13) -0.0670(2)
B3C B 0.84120(12) 0.48355(11) -0.11352(14)
B4C B 0.69963(10) 0.47667(10) -0.03041(14)
B5C B 0.87136(12) 0.60800(11) 0.04863(15)
B6C B 0.82988(9) 0.50909(10) 0.26885(13)
B7C B 0.66606(9) 0.43623(9) 0.11701(12)
B8C B 0.80568(11) 0.55325(10) -0.07513(14)
B10C B 0.91521(11) 0.48471(11) 0.07794(16)
B11C B 0.82675(11) 0.40594(10) 0.00229(14)
B12C B 0.91194(10) 0.56599(10) 0.16174(14)
O1C O 1.06270(9) 0.59069(10) 0.1536(3)
H1C H 1.0733 0.5661 0.1573
O2C O 0.87177(17) 0.71488(10) -0.09903(18)
H2C H 0.9085 0.7341 -0.1099
O3C O 0.88599(11) 0.66045(8) 0.00896(13)
O4C O 0.87127(13) 0.46847(10) -0.17091(13)
H3C H 0.8477 0.4345 -0.1915
O5C O 0.97441(7) 0.50927(8) 0.09916(15)
O6C O 0.97496(6) 0.58942(7) 0.17211(10)
O7C O 0.89073(7) 0.43650(6) 0.02658(10)
O8C O 0.64303(7) 0.45855(7) -0.05266(9)
O9C O 0.82024(7) 0.61183(7) -0.10697(9)
O10C O 0.74284(7) 0.51481(7) -0.08451(9)
O11C O 0.88503(6) 0.55288(7) 0.24655(8)
O12C O 0.81553(7) 0.45043(6) -0.04138(8)
O13C O 0.90362(7) 0.61066(7) 0.11807(10)
O14C O 0.83789(7) 0.53278(7) -0.13006(9)
O15C O 0.82198(6) 0.49032(6) 0.35177(8)
O16C O 0.82509(6) 0.55647(6) 0.01777(8)
O17C O 0.71239(6) 0.45696(6) 0.04516(8)
O18C O 0.88429(6) 0.51022(6) 0.10827(8)
O19C O 0.78826(6) 0.39093(6) 0.07812(8)
O20C O 0.68295(5) 0.40902(5) 0.18407(7)
O21C O 0.78358(5) 0.48626(6) 0.20999(7)
B1D B 0.55968(18) -0.00315(12) 0.1416(2)
B2D B 0.80309(21) 0.14186(17) -0.0670(2)
B3D B 0.64235(16) 0.15880(12) -0.11352(14)
B4D B 0.77704(14) 0.30037(10) -0.03041(14)
B5D B 0.73664(16) 0.12864(12) 0.04863(15)
B6D B 0.67921(13) 0.17012(9) 0.26885(13)
B7D B 0.77017(13) 0.33394(9) 0.11701(12)
B8D B 0.74757(15) 0.19432(11) -0.07513(14)
B10D B 0.56950(16) 0.08479(11) 0.07794(16)
B11D B 0.57919(15) 0.17325(11) 0.00229(14)
B12D B 0.65405(14) 0.08806(10) 0.16174(14)
O1D O 0.52799(13) -0.06270(9) 0.1536(3)
H1D H 0.4928 -0.0733 0.1573
O2D O 0.84311(20) 0.12823(17) -0.09903(18)
H2D H 0.8256 0.0915 -0.1099
O3D O 0.77446(14) 0.11401(11) 0.00896(13)
O4D O 0.59720(16) 0.12873(13) -0.17091(13)
H3D H 0.5868 0.1523 -0.1915
O5D O 0.53486(11) 0.02559(7) 0.09916(15)
O6D O 0.61446(9) 0.02504(6) 0.17211(10)
O7D O 0.54577(9) 0.10927(7) 0.02658(10)
O8D O 0.81552(10) 0.35697(7) -0.05266(9)
O9D O 0.79159(10) 0.17976(7) -0.10697(9)
O10D O 0.77197(10) 0.25716(7) -0.08451(9)
O11D O 0.66785(9) 0.11497(6) 0.24655(8)
O12D O 0.63490(9) 0.18447(7) -0.04138(8)
O13D O 0.70704(10) 0.09638(7) 0.11807(10)
O14D O 0.69489(10) 0.16211(7) -0.13006(9)
O15D O 0.66834(8) 0.17802(6) 0.35177(8)
O16D O 0.73138(8) 0.17491(6) 0.01777(8)
O17D O 0.74457(8) 0.28761(6) 0.04516(8)
O18D O 0.62593(8) 0.11571(6) 0.10827(8)
O19D O 0.60267(8) 0.21174(6) 0.07812(8)
O20D O 0.72607(7) 0.31705(5) 0.18407(7)
O21D O 0.70268(8) 0.21642(5) 0.20999(7)
B1E B 0.43717(13) 0.44032(18) 0.1416(2)
B2E B 0.33877(13) 0.19691(21) -0.0670(2)
B3E B 0.51645(11) 0.35765(16) -0.11352(14)
B4E B 0.52333(10) 0.22296(14) -0.03041(14)
B5E B 0.39200(11) 0.26336(16) 0.04863(15)
B6E B 0.49091(10) 0.32079(13) 0.26885(13)
B7E B 0.56377(9) 0.22983(13) 0.11701(12)
B8E B 0.44675(10) 0.25243(15) -0.07513(14)
B10E B 0.51529(11) 0.43050(16) 0.07794(16)
B11E B 0.59406(10) 0.42081(15) 0.00229(14)
B12E B 0.43401(10) 0.34595(14) 0.16174(14)
O1E O 0.40931(10) 0.47201(13) 0.1536(3)
H1E H 0.4339 0.5072 0.1573
O2E O 0.28512(10) 0.15689(20) -0.09903(18)
H2E H 0.2659 0.1744 -0.1099
O3E O 0.33955(8) 0.22554(14) 0.00896(13)
O4E O 0.53153(10) 0.40280(16) -0.17091(13)
H3E H 0.5655 0.4132 -0.1915
O5E O 0.49073(8) 0.46514(11) 0.09916(15)
O6E O 0.41058(7) 0.38554(9) 0.17211(10)
O7E O 0.56350(6) 0.45423(9) 0.02658(10)
O8E O 0.54145(7) 0.18448(10) -0.05266(9)
O9E O 0.38817(7) 0.20841(10) -0.10697(9)
O10E O 0.48519(7) 0.22803(10) -0.08451(9)
O11E O 0.44712(7) 0.33215(9) 0.24655(8)
O12E O 0.54957(6) 0.36510(9) -0.04138(8)
O13E O 0.38934(7) 0.29296(10) 0.11807(10)
O14E O 0.46722(7) 0.30511(10) -0.13006(9)
O15E O 0.50968(6) 0.33166(8) 0.35177(8)
O16E O 0.44353(6) 0.26862(8) 0.01777(8)
O17E O 0.54304(6) 0.25543(8) 0.04516(8)
O18E O 0.48978(6) 0.37407(8) 0.10827(8)
O19E O 0.60907(6) 0.39733(8) 0.07812(8)
O20E O 0.59098(5) 0.27393(7) 0.18407(7)
O21E O 0.51374(6) 0.29732(8) 0.20999(7)
Mg2A Mg 0.79296(3) 0.32073(4) 0.41979(4)
Mg2B Mg 0.67927(4) 0.47223(3) 0.41979(4)
Mg2C Mg 0.79296(3) 0.47223(3) 0.08021(4)
Mg2D Mg 0.67927(4) 0.20704(3) 0.08021(4)
Mg2E Mg 0.52777(3) 0.32073(4) 0.08021(4)
loop_
_geom_bond_atom_site_label_1
_geom_bond_atom_site_label_2
_geom_bond_site_symmetry_1
_geom_bond_site_symmetry_2
Mg1 O20 1_555 1_555
Mg2 O12 1_555 1_555
B1 O1 1_555 1_555
B2 O2 1_555 1_555
B3 O4 1_555 1_555
B4 O8 1_555 1_555
B5 O3 1_555 1_555
B6 O11 1_555 1_555
B7 O17 1_555 1_555
B8 O9 1_555 1_555
B9 O20 1_555 1_555
B10 O5 1_555 1_555
B11 O7 1_555 1_555
B12 O6 1_555 1_555
O1 H1 1_555 1_555
O2 H2 1_555 1_555
O3 B2 1_555 1_555
O4 H3 1_555 1_555
O5 B1 1_555 1_555
O6 B1 1_555 1_555
O7 B10 1_555 1_555
O8 B11B 1_555 1_555
O9 B2 1_555 1_555
O10 B4 1_555 1_555
O11 B12 1_555 1_555
O12 B3 1_555 1_555
O13 B5 1_555 1_555
O14 B3 1_555 1_555
O15 B6 1_555 1_555
O16 Mg2 1_555 1_555
O17 Mg2 1_555 1_555
O18 Mg2 1_555 1_555
O19 Mg2 1_555 1_555
O20 B7 1_555 1_555
O21 Mg2 1_555 1_555
B1A O1A 1_555 1_555
B2A O2A 1_555 1_555
B3A O4A 1_555 1_555
B4A O8A 1_555 1_555
B5A O3A 1_555 1_555
B6A O11A 1_555 1_555
B7A O19 1_555 1_555
B8A O9A 1_555 1_555
B9A O20A 1_555 1_555
B10A O5A 1_555 1_555
B11A O7A 1_555 1_555
B12A O6A 1_555 1_555
O1A H1A 1_555 1_555
O2A H2A 1_555 1_555
O3A B2A 1_555 1_555
O4A H3A 1_555 1_555
O5A B1A 1_555 1_555
O6A B1A 1_555 1_555
O7A B10A 1_555 1_555
O8A B11 1_555 1_555
O9A B2A 1_555 1_555
O10A B4A 1_555 1_555
O11A B12A 1_555 1_555
O12A B3A 1_555 1_555
O13A B5A 1_555 1_555
O14A B3A 1_555 1_555
O15A B6A 1_555 1_555
O16A B5A 1_555 1_555
O17A B4A 1_555 1_555
O18A B10A 1_555 1_555
O19A B11A 1_555 1_555
O20A Mg1 1_555 1_555
O21A B6A 1_555 1_555
B1B O1B 1_555 1_555
B2B O2B 1_555 1_555
B3B O4B 1_555 1_555
B4B O8B 1_555 1_555
B5B O3B 1_555 1_555
B6B O11B 1_555 1_555
B7B O19A 1_555 1_555
B8B O9B 1_555 1_555
B9B O20B 1_555 1_555
B10B O5B 1_555 1_555
B11B O7B 1_555 1_555
B12B O6B 1_555 1_555
O1B H1B 1_555 1_555
O2B H2B 1_555 1_555
O3B B2B 1_555 1_555
O4B H3B 1_555 1_555
O5B B1B 1_555 1_555
O6B B1B 1_555 1_555
O7B B10B 1_555 1_555
O8B B11A 1_555 1_555
O9B B2B 1_555 1_555
O10B B4B 1_555 1_555
O11B B12B 1_555 1_555
O12B B3B 1_555 1_555
O13B B5B 1_555 1_555
O14B B3B 1_555 1_555
O15B B6B 1_555 1_555
O16B B5B 1_555 1_555
O17B B4B 1_555 1_555
O18B B10B 1_555 1_555
O19B B7 1_555 1_555
O20B Mg1 1_555 1_555
O21B B6B 1_555 1_555
B1C O1C 1_555 1_555
B2C O2C 1_555 1_555
B3C O4C 1_555 1_555
B4C O8C 1_555 1_555
B5C O3C 1_555 1_555
B6C O11C 1_555 1_555
B7C O15B 1_555 1_555
B8C O9C 1_555 1_555
B10C O5C 1_555 1_555
B11C O7C 1_555 1_555
B12C O6C 1_555 1_555
O1C H1C 1_555 1_555
O2C H2C 1_555 1_555
O3C B2C 1_555 1_555
O4C H3C 1_555 1_555
O5C B1C 1_555 1_555
O6C B1C 1_555 1_555
O7C B10C 1_555 1_555
O8C B11E 1_555 1_555
O9C B2C 1_555 1_555
O10C B4C 1_555 1_555
O11C B12C 1_555 1_555
O12C B3C 1_555 1_555
O13C B5C 1_555 1_555
O14C B3C 1_555 1_555
O15C B7B 1_555 1_555
O16C B5C 1_555 1_555
O17C B4C 1_555 1_555
O18C B10C 1_555 1_555
O19C B11C 1_555 1_555
O20C Mg1 1_555 1_555
O21C B9B 1_555 1_555
B1D O1D 1_555 1_555
B2D O2D 1_555 1_555
B3D O4D 1_555 1_555
B4D O8D 1_555 1_555
B5D O3D 1_555 1_555
B6D O11D 1_555 1_555
B7D O15A 1_555 1_555
B8D O9D 1_555 1_555
B10D O5D 1_555 1_555
B11D O7D 1_555 1_555
B12D O6D 1_555 1_555
O1D H1D 1_555 1_555
O2D H2D 1_555 1_555
O3D B2D 1_555 1_555
O4D H3D 1_555 1_555
O5D B1D 1_555 1_555
O6D B1D 1_555 1_555
O7D B10D 1_555 1_555
O8D B11C 1_555 1_555
O9D B2D 1_555 1_555
O10D B4D 1_555 1_555
O11D B12D 1_555 1_555
O12D B3D 1_555 1_555
O13D B5D 1_555 1_555
O14D B3D 1_555 1_555
O15D B7A 1_555 1_555
O16D B5D 1_555 1_555
O17D B4D 1_555 1_555
O18D B10D 1_555 1_555
O19D B11D 1_555 1_555
O20D Mg1 1_555 1_555
O21D B9A 1_555 1_555
B1E O1E 1_555 1_555
B2E O2E 1_555 1_555
B3E O4E 1_555 1_555
B4E O8E 1_555 1_555
B5E O3E 1_555 1_555
B6E O11E 1_555 1_555
B7E O15 1_555 1_555
B8E O9E 1_555 1_555
B10E O5E 1_555 1_555
B11E O7E 1_555 1_555
B12E O6E 1_555 1_555
O1E H1E 1_555 1_555
O2E H2E 1_555 1_555
O3E B2E 1_555 1_555
O4E H3E 1_555 1_555
O5E B1E 1_555 1_555
O6E B1E 1_555 1_555
O7E B10E 1_555 1_555
O8E B11D 1_555 1_555
O9E B2E 1_555 1_555
O10E B4E 1_555 1_555
O11E B12E 1_555 1_555
O12E B3E 1_555 1_555
O13E B5E 1_555 1_555
O14E B3E 1_555 1_555
O15E B7 1_555 1_555
O16E B5E 1_555 1_555
O17E B4E 1_555 1_555
O18E B10E 1_555 1_555
O19E B7C 1_555 1_555
O20E Mg1 1_555 1_555
O21E B9 1_555 1_555
Mg2A O12A 1_555 1_555
Mg2B O12B 1_555 1_555
Mg2C O12C 1_555 1_555
Mg2D O12D 1_555 1_555
Mg2E O12E 1_555 1_555
B4 O17 1_555 1_555
B5 O16 1_555 1_555
B6 O21 1_555 1_555
B8 O10 1_555 1_555
B8 O14 1_555 1_555
B8 O16 1_555 1_555
B9 O21 1_555 1_555
B9 O20E 1_555 1_555
B10 O18 1_555 1_555
B11 O12 1_555 1_555
B11 O19 1_555 1_555
B12 O13 1_555 1_555
B12 O18 1_555 1_555
B7A O17A 1_555 1_555
B7A O20A 1_555 1_555
B8A O10A 1_555 1_555
B8A O14A 1_555 1_555
B8A O16A 1_555 1_555
B9A O21A 1_555 1_555
B9A O20D 1_555 1_555
B11A O12A 1_555 1_555
B12A O13A 1_555 1_555
B12A O18A 1_555 1_555
O16A Mg2A 1_555 1_555
O17A Mg2A 1_555 1_555
O18A Mg2A 1_555 1_555
O19A Mg2A 1_555 1_555
O21A Mg2A 1_555 1_555
B7B O17B 1_555 1_555
B7B O20B 1_555 1_555
B8B O10B 1_555 1_555
B8B O14B 1_555 1_555
B8B O16B 1_555 1_555
B9B O21B 1_555 1_555
B9B O20C 1_555 1_555
B11B O12B 1_555 1_555
B11B O19B 1_555 1_555
B12B O13B 1_555 1_555
B12B O18B 1_555 1_555
O16B Mg2B 1_555 1_555
O17B Mg2B 1_555 1_555
O18B Mg2B 1_555 1_555
O19B Mg2B 1_555 1_555
O21B Mg2B 1_555 1_555
B6C O15C 1_555 1_555
B6C O21C 1_555 1_555
B7C O17C 1_555 1_555
B7C O20C 1_555 1_555
B8C O10C 1_555 1_555
B8C O14C 1_555 1_555
B8C O16C 1_555 1_555
B11C O12C 1_555 1_555
B12C O13C 1_555 1_555
B12C O18C 1_555 1_555
O16C Mg2C 1_555 1_555
O17C Mg2C 1_555 1_555
O18C Mg2C 1_555 1_555
O19C B7D 1_555 1_555
O19C Mg2C 1_555 1_555
O21C Mg2C 1_555 1_555
B6D O15D 1_555 1_555
B6D O21D 1_555 1_555
B7D O17D 1_555 1_555
B7D O20D 1_555 1_555
B8D O10D 1_555 1_555
B8D O14D 1_555 1_555
B8D O16D 1_555 1_555
B11D O12D 1_555 1_555
B12D O13D 1_555 1_555
B12D O18D 1_555 1_555
O16D Mg2D 1_555 1_555
O17D Mg2D 1_555 1_555
O18D Mg2D 1_555 1_555
O19D B7E 1_555 1_555
O19D Mg2D 1_555 1_555
O21D Mg2D 1_555 1_555
B6E O15E 1_555 1_555
B6E O21E 1_555 1_555
B7E O17E 1_555 1_555
B7E O20E 1_555 1_555
B8E O10E 1_555 1_555
B8E O14E 1_555 1_555
B8E O16E 1_555 1_555
B11E O12E 1_555 1_555
B11E O19E 1_555 1_555
B12E O13E 1_555 1_555
B12E O18E 1_555 1_555
O16E Mg2E 1_555 1_555
O17E Mg2E 1_555 1_555
O18E Mg2E 1_555 1_555
O19E Mg2E 1_555 1_555
O21E Mg2E 1_555 1_555

#END
