
#######################################################################
#
#                 Cambridge Crystallographic Data Centre
#                                CCDC 
#
#######################################################################
#
# If this CIF has been generated from an entry in the Cambridge 
# Structural Database, then it will include bibliographic, chemical, 
# crystal, experimental, refinement or atomic coordinate data resulting 
# from the CCDC's data processing and validation procedures.
#
#######################################################################

data_VAZTIC
_chemical_formula_moiety         'C34 H22 N6 O7,2(C2 H6 O1 S1)'
_chemical_name_systematic        
"N',N''-((3',6'-dihydroxy-3-oxo-3H-spiro[2-benzofuran-1,9'-xanthene]-4',5'-diyl)dimethylylidene)bis(pyridine-4-carbohydrazide) dimethyl sulfoxide solvate"
_symmetry_cell_setting           triclinic
_symmetry_space_group_name_H-M   'P -1'
_symmetry_Int_Tables_number      2
_space_group_name_Hall           '-P 1'
loop_
_symmetry_equiv_pos_site_id
_symmetry_equiv_pos_as_xyz
1 x,y,z
2 -x,-y,-z
_cell_length_a                   8.2956(8)
_cell_length_b                   15.1849(14)
_cell_length_c                   16.4901(16)
_cell_angle_alpha                83.140(8)
_cell_angle_beta                 81.044(8)
_cell_angle_gamma                87.483(8)
_cell_volume                     2036.53
_exptl_crystal_colour            'light red'
_exptl_crystal_description       block
_cell_formula_units_Z            2
loop_
_atom_site_label
_atom_site_type_symbol
_atom_site_fract_x
_atom_site_fract_y
_atom_site_fract_z
O1 O 1.0914(4) 0.6102(3) 0.00003(19)
O2 O 0.9149(3) 0.6183(2) 0.11636(17)
O3 O 0.5660(6) 0.9473(2) 0.2735(2)
H1 H 0.6101 0.9887 0.2429
O4 O 0.5359(3) 0.63665(17) 0.30265(14)
O5 O 0.5307(3) 0.32347(16) 0.36724(17)
H2 H 0.4693 0.3376 0.4078
O6 O 0.1605(3) 0.62805(18) 0.52346(17)
O7 O 0.2127(4) 0.29372(18) 0.55383(18)
N1 N 0.3601(4) 0.7374(2) 0.41022(19)
N2 N 0.2590(4) 0.7653(2) 0.4780(2)
H3 H 0.2553 0.8203 0.4861
N3 N -0.1188(7) 0.8090(3) 0.7413(3)
N4 N 0.3534(4) 0.42947(19) 0.45638(18)
N5 N 0.2389(4) 0.4421(2) 0.52290(18)
H4 H 0.2103 0.4946 0.5350
N6 N -0.2093(5) 0.4063(4) 0.7724(2)
C1 C 0.9519(5) 0.6134(3) 0.0338(3)
C2 C 0.7996(4) 0.6132(3) 0.0000(2)
C3 C 0.7758(5) 0.6057(3) -0.0804(3)
H5 H 0.8638 0.6032 -0.1226
C4 C 0.6190(6) 0.6022(4) -0.0956(3)
H6 H 0.5993 0.5960 -0.1486
C5 C 0.4886(5) 0.6078(4) -0.0318(3)
H7 H 0.3828 0.6057 -0.0434
C6 C 0.5115(5) 0.6165(3) 0.0480(3)
H8 H 0.4240 0.6215 0.0901
C7 C 0.6720(5) 0.6174(3) 0.0622(2)
C8 C 0.7353(4) 0.6228(3) 0.1439(2)
C9 C 0.6920(5) 0.7084(3) 0.1793(2)
C10 C 0.7488(7) 0.7887(3) 0.1363(3)
H9 H 0.8148 0.7880 0.0853
C11 C 0.7118(7) 0.8662(4) 0.1657(3)
H10 H 0.7534 0.9181 0.1355
C12 C 0.6107(6) 0.8703(3) 0.2415(3)
C13 C 0.5483(5) 0.7913(3) 0.2877(2)
C14 C 0.5945(5) 0.7103(3) 0.2545(2)
C15 C 0.5884(4) 0.5545(2) 0.2791(2)
C16 C 0.5295(4) 0.4830(2) 0.3359(2)
C17 C 0.5823(5) 0.3979(2) 0.3170(2)
C18 C 0.6877(5) 0.3857(3) 0.2462(3)
H11 H 0.7241 0.3288 0.2357
C19 C 0.7398(5) 0.4579(3) 0.1907(2)
H12 H 0.8097 0.4491 0.1423
C20 C 0.6888(4) 0.5445(3) 0.2061(2)
C21 C 0.4374(5) 0.8007(3) 0.3642(3)
H13 H 0.4217 0.8572 0.3809
C22 C 0.1672(5) 0.7072(3) 0.5310(2)
C23 C 0.0689(5) 0.7449(2) 0.6029(2)
C24 C -0.0837(6) 0.7132(3) 0.6345(3)
H14 H -0.1274 0.6690 0.6106
C25 C -0.1714(7) 0.7483(4) 0.7028(3)
H15 H -0.2752 0.7269 0.7226
C26 C 0.0317(8) 0.8392(4) 0.7106(3)
H16 H 0.0727 0.8824 0.7368
C27 C 0.1278(6) 0.8099(3) 0.6428(3)
H17 H 0.2306 0.8331 0.6239
C28 C 0.4123(4) 0.4971(3) 0.4092(2)
H18 H 0.3812 0.5542 0.4214
C29 C 0.1711(4) 0.3693(3) 0.5697(2)
C30 C 0.0434(5) 0.3852(3) 0.6410(2)
C31 C -0.0342(6) 0.3137(3) 0.6872(3)
H19 H -0.0037 0.2564 0.6754
C32 C -0.1575(7) 0.3273(4) 0.7513(3)
H20 H -0.2077 0.2777 0.7817
C33 C -0.1312(6) 0.4724(4) 0.7295(3)
H21 H -0.1614 0.5285 0.7448
C34 C -0.0079(5) 0.4682(3) 0.6636(2)
H22 H 0.0396 0.5195 0.6351
O8 O 0.6889(10) 0.0846(4) 0.1872(4)
C35 C 0.461(2) 0.1492(12) 0.0920(11)
H23 H 0.4214 0.2023 0.0629
H24 H 0.4967 0.1068 0.0537
H25 H 0.3755 0.1246 0.1333
C36 C 0.8055(16) 0.1954(8) 0.0697(9)
H26 H 0.7911 0.2500 0.0354
H27 H 0.8969 0.1998 0.0981
H28 H 0.8253 0.1475 0.0360
S1 S 0.6314(9) 0.1754(3) 0.1410(3)
S3 S 0.79158(17) 0.94889(8) 0.53086(10)
O9 O 0.7458(5) 1.04423(19) 0.5274(2)
C37 C 0.6089(7) 0.8898(3) 0.5639(4)
H35 H 0.5669 0.8993 0.6198
H36 H 0.6312 0.8276 0.5609
H37 H 0.5297 0.9104 0.5288
C38 C 0.8360(9) 0.9236(4) 0.4276(4)
H38 H 0.7408 0.9353 0.4012
H39 H 0.8678 0.8620 0.4272
H40 H 0.9235 0.9596 0.3983
H29? H 0.4536 0.1671 0.0349
H30? H 0.3887 0.1013 0.1126
H31? H 0.4314 0.1984 0.1232
H32? H 0.8056 0.2099 0.0114
H33? H 0.7615 0.2448 0.0981
H34? H 0.9153 0.1824 0.0801
S2? S 0.6933(11) 0.1085(5) 0.1032(6)
loop_
_geom_bond_atom_site_label_1
_geom_bond_atom_site_label_2
_geom_bond_site_symmetry_1
_geom_bond_site_symmetry_2
O1 C1 1_555 1_555
O2 C1 1_555 1_555
O3 H1 1_555 1_555
O4 C14 1_555 1_555
O5 H2 1_555 1_555
O6 C22 1_555 1_555
O7 C29 1_555 1_555
N1 N2 1_555 1_555
N2 H3 1_555 1_555
N3 C25 1_555 1_555
N4 N5 1_555 1_555
N5 H4 1_555 1_555
N6 C32 1_555 1_555
C1 C2 1_555 1_555
C2 C3 1_555 1_555
C3 H5 1_555 1_555
C4 C3 1_555 1_555
H6 C4 1_555 1_555
C5 C4 1_555 1_555
H7 C5 1_555 1_555
C6 C5 1_555 1_555
H8 C6 1_555 1_555
C7 C2 1_555 1_555
C8 O2 1_555 1_555
C9 C8 1_555 1_555
C10 C9 1_555 1_555
H9 C10 1_555 1_555
C11 C10 1_555 1_555
H10 C11 1_555 1_555
C12 O3 1_555 1_555
C13 C12 1_555 1_555
C14 C9 1_555 1_555
C15 O4 1_555 1_555
C16 C15 1_555 1_555
C17 O5 1_555 1_555
C18 C17 1_555 1_555
H11 C18 1_555 1_555
C19 C18 1_555 1_555
H12 C19 1_555 1_555
C20 C8 1_555 1_555
C21 N1 1_555 1_555
H13 C21 1_555 1_555
C22 N2 1_555 1_555
C23 C22 1_555 1_555
C24 C23 1_555 1_555
H14 C24 1_555 1_555
C25 C24 1_555 1_555
H15 C25 1_555 1_555
C26 N3 1_555 1_555
H16 C26 1_555 1_555
C27 C23 1_555 1_555
H17 C27 1_555 1_555
C28 N4 1_555 1_555
H18 C28 1_555 1_555
C29 N5 1_555 1_555
C30 C29 1_555 1_555
C31 C30 1_555 1_555
H19 C31 1_555 1_555
C32 C31 1_555 1_555
H20 C32 1_555 1_555
C33 N6 1_555 1_555
H21 C33 1_555 1_555
C34 C30 1_555 1_555
H22 C34 1_555 1_555
O8 S1 1_555 1_555
C35 H23 1_555 1_555
H24 C35 1_555 1_555
H25 C35 1_555 1_555
C36 H26 1_555 1_555
H27 C36 1_555 1_555
H28 C36 1_555 1_555
S1 C35 1_555 1_555
S3 O9 1_555 1_555
C37 S3 1_555 1_555
H35 C37 1_555 1_555
H36 C37 1_555 1_555
H37 C37 1_555 1_555
C38 S3 1_555 1_555
H38 C38 1_555 1_555
H39 C38 1_555 1_555
H40 C38 1_555 1_555
C6 C7 1_555 1_555
C7 C8 1_555 1_555
C11 C12 1_555 1_555
C13 C14 1_555 1_555
C13 C21 1_555 1_555
C15 C20 1_555 1_555
C16 C17 1_555 1_555
C16 C28 1_555 1_555
C19 C20 1_555 1_555
C26 C27 1_555 1_555
C33 C34 1_555 1_555
C36 S1 1_555 1_555

#END
