
#######################################################################
#
#                 Cambridge Crystallographic Data Centre
#                                CCDC 
#
#######################################################################
#
# If this CIF has been generated from an entry in the Cambridge 
# Structural Database, then it will include bibliographic, chemical, 
# crystal, experimental, refinement or atomic coordinate data resulting 
# from the CCDC's data processing and validation procedures.
#
#######################################################################

data_VAZVAU
_chemical_compound_source        
"red resin of Dracaena cochinchinensis (Agavaceae), Chinese dragon's blood"
_chemical_name_common            'Dracaenogenin A monohydrate'
_chemical_formula_moiety         'C27 H40 O5,H2 O1'
_chemical_name_systematic        
'(14S,25R)12(13-14)abeospirosta-5,13(18)diene-1\b,3\b,15\a-triol monohydrate'
_chemical_properties_biological  
'Source material used as a traditional Arabian medicine to treat wounds, leucorrhea, fractures, diarrhoea, piles and stomach ulcers. Also used in China to promote blood circulation, treat inflammation, diabetes and bleeding'
_symmetry_cell_setting           monoclinic
_symmetry_space_group_name_H-M   'P 21'
_symmetry_Int_Tables_number      4
_space_group_name_Hall           'P 2yb'
loop_
_symmetry_equiv_pos_site_id
_symmetry_equiv_pos_as_xyz
1 x,y,z
2 -x,1/2+y,-z
_cell_length_a                   11.473(2)
_cell_length_b                   7.9330(16)
_cell_length_c                   13.948(3)
_cell_angle_alpha                90
_cell_angle_beta                 98.06(3)
_cell_angle_gamma                90
_cell_volume                     1256.94
_exptl_crystal_colour            colorless
_exptl_crystal_description       plate
_chemical_melting_point          '145-146 deg.C'
_cell_formula_units_Z            2
loop_
_atom_site_label
_atom_site_type_symbol
_atom_site_fract_x
_atom_site_fract_y
_atom_site_fract_z
O1 O 0.5494(7) 0.2659(13) 0.6005(6)
H41 H 0.6398 0.2914 0.6122
O2 O 0.5679(11) -0.0799(14) 0.2564(8)
H1 H 0.5127 -0.1224 0.2209
C1 C 0.5618(11) 0.0975(18) 0.2478(9)
H2 H 0.4914 0.1253 0.2023
O3 O 0.5206(9) 0.4360(14) 0.4318(5)
H3 H 0.4626 0.3958 0.4516
C2 C 0.5505(11) 0.182(2) 0.3431(11)
H4 H 0.4849 0.1309 0.3693
H5 H 0.6211 0.1582 0.3878
O4 O 0.5836(9) 0.1768(16) -0.1621(8)
H6 H 0.5516 0.2588 -0.1903
C3 C 0.5326(11) 0.365(2) 0.3404(10)
H7 H 0.4624 0.3911 0.2943
O5 O 0.7833(7) 0.2148(16) -0.3058(7)
C4 C 0.6443(13) 0.4403(18) 0.3021(10)
H8 H 0.6368 0.5618 0.2971
H9 H 0.7140 0.4148 0.3476
C5 C 0.6578(11) 0.3666(15) 0.2027(11)
O6 O 0.8924(9) 0.4475(18) -0.2388(8)
C6 C 0.6574(13) 0.460(2) 0.1271(11)
H10 H 0.6411 0.5745 0.1333
C7 C 0.6814(14) 0.3986(14) 0.0290(11)
H11 H 0.7331 0.4770 0.0022
H12 H 0.6082 0.3920 -0.0150
C8 C 0.7396(12) 0.2227(18) 0.0401(9)
H13 H 0.8163 0.2365 0.0801
C9 C 0.6646(14) 0.1094(18) 0.0966(10)
H14 H 0.5827 0.1193 0.0659
C10 C 0.6700(12) 0.1699(19) 0.2066(7)
C11 C 0.7067(12) -0.0655(18) 0.0752(9)
H15 H 0.6519 -0.1514 0.0904
H16 H 0.7840 -0.0886 0.1105
C12 C 0.7099(13) -0.0534(19) -0.0328(10)
H17 H 0.6315 -0.0665 -0.0683
H18 H 0.7602 -0.1406 -0.0536
C13 C 0.7606(13) 0.1271(15) -0.0514(8)
C14 C 0.7073(8) 0.2016(16) -0.1469(8)
H19 H 0.7250 0.3224 -0.1479
C15 C 0.7672(12) 0.113(2) -0.2200(9)
H20 H 0.7277 0.0062 -0.2393
C16 C 0.8984(13) 0.0810(18) -0.1711(9)
H21 H 0.9154 -0.0389 -0.1791
C17 C 0.8899(13) 0.110(2) -0.0641(13)
C18 C 0.9895(16) 0.133(3) -0.0007(15)
H22 H 0.9844 0.1654 0.0628
H23 H 1.0627 0.1173 -0.0205
C19 C 0.7813(10) 0.114(2) 0.2672(12)
H24 H 0.8477 0.1572 0.2401
H25 H 0.7845 -0.0069 0.2685
H26 H 0.7832 0.1559 0.3320
C20 C 0.9772(15) 0.178(3) -0.2263(11)
H27 H 1.0283 0.2499 -0.1814
C21 C 1.0527(18) 0.062(4) -0.2775(16)
H28 H 1.1010 -0.0055 -0.2308
H29 H 1.1019 0.1285 -0.3132
H30 H 1.0032 -0.0094 -0.3213
C22 C 0.8907(15) 0.292(2) -0.2962(10)
C23 C 0.9331(16) 0.332(2) -0.3893(9)
H31 H 1.0130 0.3752 -0.3767
H32 H 0.9339 0.2304 -0.4276
C24 C 0.8577(11) 0.457(3) -0.4430(8)
H33 H 0.7784 0.4126 -0.4567
H34 H 0.8857 0.4788 -0.5043
C25 C 0.8557(17) 0.623(3) -0.3862(15)
H35 H 0.9363 0.6671 -0.3739
C26 C 0.817(2) 0.577(3) -0.2884(14)
H36 H 0.8198 0.6768 -0.2480
H37 H 0.7364 0.5369 -0.2990
C27 C 0.774(2) 0.765(3) -0.4389(16)
H38 H 0.8034 0.7977 -0.4974
H39 H 0.7739 0.8609 -0.3970
H40 H 0.6954 0.7225 -0.4544
loop_
_geom_bond_atom_site_label_1
_geom_bond_atom_site_label_2
_geom_bond_site_symmetry_1
_geom_bond_site_symmetry_2
O1 H41 1_555 1_555
O2 H1 1_555 1_555
C1 O2 1_555 1_555
H2 C1 1_555 1_555
O3 H3 1_555 1_555
C2 C1 1_555 1_555
H4 C2 1_555 1_555
H5 C2 1_555 1_555
O4 H6 1_555 1_555
C3 O3 1_555 1_555
H7 C3 1_555 1_555
O5 C15 1_555 1_555
C4 C3 1_555 1_555
H8 C4 1_555 1_555
H9 C4 1_555 1_555
C5 C4 1_555 1_555
O6 C22 1_555 1_555
C6 C5 1_555 1_555
H10 C6 1_555 1_555
C7 C6 1_555 1_555
H11 C7 1_555 1_555
H12 C7 1_555 1_555
C8 C7 1_555 1_555
H13 C8 1_555 1_555
C9 C8 1_555 1_555
H14 C9 1_555 1_555
C10 C1 1_555 1_555
C11 C9 1_555 1_555
H15 C11 1_555 1_555
H16 C11 1_555 1_555
C12 C11 1_555 1_555
H17 C12 1_555 1_555
H18 C12 1_555 1_555
C13 C8 1_555 1_555
C14 O4 1_555 1_555
H19 C14 1_555 1_555
C15 C14 1_555 1_555
H20 C15 1_555 1_555
C16 C15 1_555 1_555
H21 C16 1_555 1_555
C17 C13 1_555 1_555
C18 C17 1_555 1_555
H22 C18 1_555 1_555
H23 C18 1_555 1_555
C19 C10 1_555 1_555
H24 C19 1_555 1_555
H25 C19 1_555 1_555
H26 C19 1_555 1_555
C20 C16 1_555 1_555
H27 C20 1_555 1_555
C21 C20 1_555 1_555
H28 C21 1_555 1_555
H29 C21 1_555 1_555
H30 C21 1_555 1_555
C22 O5 1_555 1_555
C23 C22 1_555 1_555
H31 C23 1_555 1_555
H32 C23 1_555 1_555
C24 C23 1_555 1_555
H33 C24 1_555 1_555
H34 C24 1_555 1_555
C25 C24 1_555 1_555
H35 C25 1_555 1_555
C26 O6 1_555 1_555
H36 C26 1_555 1_555
H37 C26 1_555 1_555
C27 C25 1_555 1_555
H38 C27 1_555 1_555
H39 C27 1_555 1_555
H40 C27 1_555 1_555
C2 C3 1_555 1_555
C5 C10 1_555 1_555
C9 C10 1_555 1_555
C12 C13 1_555 1_555
C13 C14 1_555 1_555
C16 C17 1_555 1_555
C20 C22 1_555 1_555
C25 C26 1_555 1_555

#END
