
#######################################################################
#
#                 Cambridge Crystallographic Data Centre
#                                CCDC 
#
#######################################################################
#
# If this CIF has been generated from an entry in the Cambridge 
# Structural Database, then it will include bibliographic, chemical, 
# crystal, experimental, refinement or atomic coordinate data resulting 
# from the CCDC's data processing and validation procedures.
#
#######################################################################

data_VEBGUE01
_chemical_formula_moiety         'C12 H20 Ca1 N4 O6 2+,2(Cl1 1-)'
_chemical_name_systematic        
'tetra-aqua-bis(isonicotinamide)-calcium dichloride'
_symmetry_cell_setting           triclinic
_symmetry_space_group_name_H-M   'P -1'
_symmetry_Int_Tables_number      2
_space_group_name_Hall           '-P 1'
loop_
_symmetry_equiv_pos_site_id
_symmetry_equiv_pos_as_xyz
1 x,y,z
2 -x,-y,-z
_cell_length_a                   7.2742(15)
_cell_length_b                   8.555(3)
_cell_length_c                   9.352(2)
_cell_angle_alpha                65.97(3)
_cell_angle_beta                 85.061(18)
_cell_angle_gamma                65.64(3)
_cell_volume                     481.871
_cell_formula_units_Z            1
loop_
_atom_site_label
_atom_site_type_symbol
_atom_site_fract_x
_atom_site_fract_y
_atom_site_fract_z
Ca1 Ca 0.5000 1.0000 0.5000
O1 O 0.22141(18) 0.98126(17) 0.41289(16)
O2 O 0.26659(18) 1.28846(16) 0.50051(15)
O3 O 0.45829(18) 0.87390(18) 0.76263(14)
N1 N 0.2891(2) 0.9320(2) 0.96112(17)
H1 H 0.1939 1.0331 0.8974
H2 H 0.2841 0.8972 1.0610
C1 C 0.6058(2) 0.6538(2) 1.02160(19)
C2 C 0.4439(2) 0.8299(2) 0.90523(19)
C3 C 0.8830(3) 0.3564(2) 1.0765(2)
H3 H 0.9695 0.2673 1.0407
N2 N 0.9080(2) 0.3200(2) 1.22871(18)
C4 C 0.6309(3) 0.6195(2) 1.1788(2)
H4 H 0.5478 0.7072 1.2173
C5 C 0.7355(3) 0.5194(2) 0.9698(2)
H5 H 0.7233 0.5388 0.8651
C6 C 0.7833(3) 0.4512(3) 1.2770(2)
H6 H 0.7995 0.4284 1.3822
H7 H 0.233(3) 1.3958(15) 0.4308(19)
H8 H 0.172(2) 1.289(2) 0.562(2)
H9 H 0.214(3) 0.895(2) 0.396(3)
H10 H 0.114(2) 1.0814(18) 0.363(2)
O1A O 0.77859(18) 1.01874(17) 0.58711(16)
O2A O 0.73341(18) 0.71154(16) 0.49949(15)
O3A O 0.54171(18) 1.12610(18) 0.23737(14)
N1A N 0.7109(2) 1.0680(2) 0.03888(17)
H1A H 0.8061 0.9669 0.1026
H2A H 0.7159 1.1028 -0.0610
C1A C 0.3942(2) 1.3462(2) -0.02160(19)
C2A C 0.5561(2) 1.1701(2) 0.09477(19)
C3A C 0.1170(3) 1.6436(2) -0.0765(2)
H3A H 0.0305 1.7327 -0.0407
N2A N 0.0920(2) 1.6800(2) -0.22871(18)
C4A C 0.3691(3) 1.3805(2) -0.1788(2)
H4A H 0.4522 1.2928 -0.2173
C5A C 0.2645(3) 1.4806(2) 0.0302(2)
H5A H 0.2767 1.4612 0.1349
C6A C 0.2167(3) 1.5488(3) -0.2770(2)
H6A H 0.2005 1.5716 -0.3822
H7A H 0.767(3) 0.6042(15) 0.5692(19)
H8A H 0.828(2) 0.711(2) 0.438(2)
H9A H 0.786(3) 1.105(2) 0.604(3)
H10A H 0.886(2) 0.9186(18) 0.637(2)
Cl1 Cl 0.10235(6) 0.72712(5) 1.29095(4)
loop_
_geom_bond_atom_site_label_1
_geom_bond_atom_site_label_2
_geom_bond_site_symmetry_1
_geom_bond_site_symmetry_2
Ca1 O1 1_555 1_555
O1 H9 1_555 1_555
O2 Ca1 1_555 1_555
O3 Ca1 1_555 1_555
N1 H1 1_555 1_555
H2 N1 1_555 1_555
C1 C2 1_555 1_555
C2 O3 1_555 1_555
C3 H3 1_555 1_555
N2 C3 1_555 1_555
C4 C1 1_555 1_555
H4 C4 1_555 1_555
C5 C1 1_555 1_555
H5 C5 1_555 1_555
C6 N2 1_555 1_555
H6 C6 1_555 1_555
H7 O2 1_555 1_555
H8 O2 1_555 1_555
H10 O1 1_555 1_555
O1A Ca1 1_555 1_555
O2A Ca1 1_555 1_555
O3A Ca1 1_555 1_555
N1A H1A 1_555 1_555
H2A N1A 1_555 1_555
C1A C2A 1_555 1_555
C2A O3A 1_555 1_555
C3A H3A 1_555 1_555
N2A C3A 1_555 1_555
C4A C1A 1_555 1_555
H4A C4A 1_555 1_555
C5A C1A 1_555 1_555
H5A C5A 1_555 1_555
C6A N2A 1_555 1_555
H6A C6A 1_555 1_555
H7A O2A 1_555 1_555
H8A O2A 1_555 1_555
H9A O1A 1_555 1_555
H10A O1A 1_555 1_555
N1 C2 1_555 1_555
C3 C5 1_555 1_555
C4 C6 1_555 1_555
N1A C2A 1_555 1_555
C3A C5A 1_555 1_555
C4A C6A 1_555 1_555

#END
