
#######################################################################
#
#                 Cambridge Crystallographic Data Centre
#                                CCDC 
#
#######################################################################
#
# If this CIF has been generated from an entry in the Cambridge 
# Structural Database, then it will include bibliographic, chemical, 
# crystal, experimental, refinement or atomic coordinate data resulting 
# from the CCDC's data processing and validation procedures.
#
#######################################################################

data_VEBKOF
_chemical_formula_moiety         'C13 H10 O2'
_chemical_name_systematic        3-methylnaphtho[2,3-c]furan-1(3H)-one
_symmetry_cell_setting           monoclinic
_symmetry_space_group_name_H-M   'P 21'
_symmetry_Int_Tables_number      4
_space_group_name_Hall           'P 2yb'
loop_
_symmetry_equiv_pos_site_id
_symmetry_equiv_pos_as_xyz
1 x,y,z
2 -x,1/2+y,-z
_cell_length_a                   4.6275(2)
_cell_length_b                   17.8673(11)
_cell_length_c                   6.0549(4)
_cell_angle_alpha                90
_cell_angle_beta                 94.237(3)
_cell_angle_gamma                90
_cell_volume                     499.257
_exptl_crystal_colour            white
_exptl_crystal_description       block
_chemical_melting_point          '382.75-384.35 K'
_cell_formula_units_Z            2
loop_
_atom_site_label
_atom_site_type_symbol
_atom_site_fract_x
_atom_site_fract_y
_atom_site_fract_z
C1 C 0.1790(4) 0.57696(15) 0.5138(4)
C2 C 0.3709(4) 0.52326(13) 0.4109(3)
C3 C 0.4430(4) 0.55387(12) 0.2093(3)
C4 C 0.2910(4) 0.62761(14) 0.1758(3)
H1 H 0.1451 0.6236 0.0506
C5 C 0.4747(5) 0.45545(13) 0.4858(4)
H2 H 0.4219 0.4361 0.6196
C6 C 0.6639(5) 0.41548(13) 0.3556(4)
C7 C 0.7415(4) 0.44720(12) 0.1512(3)
C8 C 0.6266(4) 0.51746(12) 0.0792(3)
H3 H 0.6753 0.5383 -0.0539
C9 C 0.7792(5) 0.34439(13) 0.4190(4)
H4 H 0.7279 0.3227 0.5501
C10 C 0.9631(6) 0.30742(14) 0.2922(5)
H5 H 1.0361 0.2609 0.3369
C11 C 1.0431(5) 0.33948(14) 0.0933(5)
H6 H 1.1707 0.3142 0.0080
C12 C 0.9352(5) 0.40718(12) 0.0246(4)
H7 H 0.9897 0.4274 -0.1076
C13 C 0.4850(5) 0.69340(14) 0.1396(4)
H8 H 0.3715 0.7384 0.1306
H9 H 0.5773 0.6866 0.0042
H10 H 0.6299 0.6971 0.2611
O1 O 0.1452(3) 0.63797(10) 0.3807(3)
O2 O 0.0636(4) 0.57280(12) 0.6862(3)
loop_
_geom_bond_atom_site_label_1
_geom_bond_atom_site_label_2
_geom_bond_site_symmetry_1
_geom_bond_site_symmetry_2
C1 C2 1_555 1_555
C2 C3 1_555 1_555
C3 C4 1_555 1_555
C4 H1 1_555 1_555
C5 C2 1_555 1_555
H2 C5 1_555 1_555
C6 C5 1_555 1_555
C7 C6 1_555 1_555
C8 C3 1_555 1_555
H3 C8 1_555 1_555
C9 C6 1_555 1_555
H4 C9 1_555 1_555
C10 C9 1_555 1_555
H5 C10 1_555 1_555
C11 C10 1_555 1_555
H6 C11 1_555 1_555
C12 C7 1_555 1_555
H7 C12 1_555 1_555
C13 C4 1_555 1_555
H8 C13 1_555 1_555
H9 C13 1_555 1_555
H10 C13 1_555 1_555
O1 C1 1_555 1_555
O2 C1 1_555 1_555
C4 O1 1_555 1_555
C7 C8 1_555 1_555
C11 C12 1_555 1_555

#END
