
#######################################################################
#
#                 Cambridge Crystallographic Data Centre
#                                CCDC 
#
#######################################################################
#
# If this CIF has been generated from an entry in the Cambridge 
# Structural Database, then it will include bibliographic, chemical, 
# crystal, experimental, refinement or atomic coordinate data resulting 
# from the CCDC's data processing and validation procedures.
#
#######################################################################

data_VEBPOK
_chemical_formula_moiety         'C24 H18 Br1 Cl1 O2'
_chemical_name_systematic        
(S)-2-(6-bromo-3-(2-chlorophenyl)-1H-inden-1-yl)-1-(2-methoxyphenyl)ethan-1-one
_symmetry_cell_setting           monoclinic
_symmetry_space_group_name_H-M   'P 21'
_symmetry_Int_Tables_number      4
_space_group_name_Hall           'P 2yb'
loop_
_symmetry_equiv_pos_site_id
_symmetry_equiv_pos_as_xyz
1 x,y,z
2 -x,1/2+y,-z
_cell_length_a                   9.5385(4)
_cell_length_b                   7.8621(3)
_cell_length_c                   13.4830(7)
_cell_angle_alpha                90
_cell_angle_beta                 96.183(4)
_cell_angle_gamma                90
_cell_volume                     1005.24
_exptl_crystal_colour            'pale yellow'
_exptl_crystal_description       needle
_cell_formula_units_Z            2
_exptl_crystal_recrystallization_method 'dichloromethane / hexanes'
loop_
_atom_site_label
_atom_site_type_symbol
_atom_site_fract_x
_atom_site_fract_y
_atom_site_fract_z
Br1 Br -0.22409(4) -0.54650(5) 0.13581(3)
Cl1 Cl -0.87237(8) -1.00084(9) 0.12123(6)
O1 O -0.6321(3) -0.9212(3) 0.56883(19)
O2 O -0.8483(2) -0.5357(4) 0.41703(16)
C1 C -0.5301(3) -0.9027(4) 0.3862(2)
H1 H -0.4503 -0.9276 0.4386
C2 C -0.4746(3) -0.8587(4) 0.2883(2)
C3 C -0.3842(4) -0.7290(4) 0.2666(3)
H2 H -0.3473 -0.6499 0.3159
C4 C -0.3505(4) -0.7205(5) 0.1694(3)
C5 C -0.4023(4) -0.8331(5) 0.0952(3)
H3 H -0.3761 -0.8222 0.0295
C6 C -0.4925(4) -0.9614(5) 0.1179(3)
H4 H -0.5299 -1.0393 0.0681
C7 C -0.5275(3) -0.9745(4) 0.2147(2)
C8 C -0.6150(3) -1.0986(4) 0.2615(3)
C9 C -0.6135(3) -1.0625(5) 0.3587(2)
H5 H -0.6592 -1.1290 0.4046
C10 C -0.6903(4) -1.2389(4) 0.2051(2)
C11 C -0.8090(4) -1.2087(4) 0.1370(2)
C12 C -0.8790(4) -1.3379(5) 0.0823(3)
H6 H -0.9602 -1.3137 0.0373
C13 C -0.8291(4) -1.5033(5) 0.0941(3)
H7 H -0.8755 -1.5929 0.0564
C14 C -0.7115(3) -1.5382(6) 0.1608(2)
H8 H -0.6779 -1.6516 0.1692
C15 C -0.6431(4) -1.4068(5) 0.2154(3)
H9 H -0.5624 -1.4318 0.2608
C16 C -0.6239(4) -0.7599(4) 0.4210(2)
H10 H -0.5708 -0.6515 0.4233
H11 H -0.7079 -0.7468 0.3716
C17 C -0.6717(3) -0.7937(4) 0.5226(2)
C18 C -0.7630(3) -0.6683(4) 0.5688(3)
C19 C -0.8490(3) -0.5446(6) 0.5178(2)
C20 C -0.9322(4) -0.4381(5) 0.5697(3)
H12 H -0.9906 -0.3552 0.5347
C21 C -0.9301(4) -0.4526(5) 0.6726(3)
H13 H -0.9866 -0.3791 0.7076
C22 C -0.8462(3) -0.5736(5) 0.7241(2)
H14 H -0.8453 -0.5840 0.7944
C23 C -0.7638(3) -0.6789(5) 0.6730(3)
H15 H -0.7058 -0.7612 0.7090
C24 C -0.9481(4) -0.4256(6) 0.3618(3)
H16 H -0.9407 -0.4388 0.2903
H17 H -0.9280 -0.3073 0.3814
H18 H -1.0437 -0.4555 0.3760
loop_
_geom_bond_atom_site_label_1
_geom_bond_atom_site_label_2
_geom_bond_site_symmetry_1
_geom_bond_site_symmetry_2
Br1 C4 1_555 1_555
Cl1 C11 1_555 1_555
O1 C17 1_555 1_555
O2 C19 1_555 1_555
C1 H1 1_555 1_555
C2 C1 1_555 1_555
C3 C2 1_555 1_555
H2 C3 1_555 1_555
C4 C3 1_555 1_555
C5 C4 1_555 1_555
H3 C5 1_555 1_555
C6 C5 1_555 1_555
H4 C6 1_555 1_555
C7 C2 1_555 1_555
C8 C7 1_555 1_555
C9 C1 1_555 1_555
H5 C9 1_555 1_555
C10 C8 1_555 1_555
C11 C10 1_555 1_555
C12 C11 1_555 1_555
H6 C12 1_555 1_555
C13 C12 1_555 1_555
H7 C13 1_555 1_555
C14 C13 1_555 1_555
H8 C14 1_555 1_555
C15 C10 1_555 1_555
H9 C15 1_555 1_555
C16 C1 1_555 1_555
H10 C16 1_555 1_555
H11 C16 1_555 1_555
C17 C16 1_555 1_555
C18 C17 1_555 1_555
C19 C18 1_555 1_555
C20 C19 1_555 1_555
H12 C20 1_555 1_555
C21 C20 1_555 1_555
H13 C21 1_555 1_555
C22 C21 1_555 1_555
H14 C22 1_555 1_555
C23 C18 1_555 1_555
H15 C23 1_555 1_555
C24 O2 1_555 1_555
H16 C24 1_555 1_555
H17 C24 1_555 1_555
H18 C24 1_555 1_555
C6 C7 1_555 1_555
C8 C9 1_555 1_555
C14 C15 1_555 1_555
C22 C23 1_555 1_555

#END
