
#######################################################################
#
#                 Cambridge Crystallographic Data Centre
#                                CCDC 
#
#######################################################################
#
# If this CIF has been generated from an entry in the Cambridge 
# Structural Database, then it will include bibliographic, chemical, 
# crystal, experimental, refinement or atomic coordinate data resulting 
# from the CCDC's data processing and validation procedures.
#
#######################################################################

data_VEBTUU
_chemical_formula_moiety         'C23 H21 F1 N2 O2 S1'
_chemical_name_systematic        
N-[3-fluoro-1-methyl-3-(4-methylphenyl)-1,3-dihydro-2H-indol-2-ylidene]-4-methylbenzene-1-sulfonamide
_symmetry_cell_setting           monoclinic
_symmetry_space_group_name_H-M   'P 21/n'
_symmetry_Int_Tables_number      14
_space_group_name_Hall           '-P 2yn'
loop_
_symmetry_equiv_pos_site_id
_symmetry_equiv_pos_as_xyz
1 x,y,z
2 1/2-x,1/2+y,1/2-z
3 -x,-y,-z
4 1/2+x,1/2-y,1/2+z
_cell_length_a                   8.5856(5)
_cell_length_b                   26.6604(15)
_cell_length_c                   9.0241(6)
_cell_angle_alpha                90
_cell_angle_beta                 98.396(2)
_cell_angle_gamma                90
_cell_volume                     2043.44
_exptl_crystal_description       chunk
_cell_formula_units_Z            4
loop_
_atom_site_label
_atom_site_type_symbol
_atom_site_fract_x
_atom_site_fract_y
_atom_site_fract_z
C1 C 0.5217(3) 0.17333(11) 0.5576(3)
C2 C 0.3074(3) 0.12299(11) 0.5683(3)
C3 C 0.1539(4) 0.10686(12) 0.5607(3)
H1 H 0.0696 0.1291 0.5437
C4 C 0.1313(4) 0.05582(13) 0.5799(4)
H2 H 0.0292 0.0436 0.5742
C5 C 0.2555(4) 0.02287(13) 0.6070(4)
H3 H 0.2363 -0.0111 0.6185
C6 C 0.4091(4) 0.04004(11) 0.6171(4)
H4 H 0.4935 0.0181 0.6385
C7 C 0.4338(3) 0.09027(10) 0.5949(3)
C8 C 0.5838(3) 0.11987(10) 0.6023(3)
C9 C 0.2618(4) 0.21541(12) 0.5104(4)
H5 H 0.3251 0.2436 0.4900
H6 H 0.2055 0.2235 0.5917
H7 H 0.1881 0.2077 0.4228
C10 C 0.6851(3) 0.11582(10) 0.7536(3)
C11 C 0.7800(4) 0.07402(11) 0.7838(4)
H8 H 0.7858 0.0502 0.7097
C12 C 0.8664(4) 0.06780(13) 0.9251(4)
H9 H 0.9300 0.0396 0.9442
C13 C 0.8602(4) 0.10233(13) 1.0378(3)
C14 C 0.7650(4) 0.14349(13) 1.0066(3)
H10 H 0.7590 0.1673 1.0810
C15 C 0.6775(4) 0.15026(12) 0.8662(3)
H11 H 0.6132 0.1783 0.8479
C16 C 0.9555(5) 0.09551(17) 1.1921(4)
H12 H 0.9951 0.0618 1.2020
H13 H 0.8896 0.1017 1.2674
H14 H 1.0421 0.1187 1.2044
C17 C 0.8010(3) 0.28391(10) 0.5350(3)
C18 C 0.9118(4) 0.30125(12) 0.6498(3)
H15 H 0.9677 0.2789 0.7166
C19 C 0.9386(4) 0.35205(13) 0.6643(4)
H16 H 1.0125 0.3637 0.7424
C20 C 0.8591(4) 0.38615(12) 0.5662(4)
C21 C 0.7480(4) 0.36791(12) 0.4529(4)
H17 H 0.6919 0.3904 0.3865
C22 C 0.7183(4) 0.31756(12) 0.4358(3)
H18 H 0.6433 0.3061 0.3585
C23 C 0.8944(6) 0.44175(14) 0.5795(6)
H19 H 0.8608 0.4546 0.6691
H20 H 0.8393 0.4589 0.4941
H21 H 1.0056 0.4470 0.5838
F1 F 0.67189(19) 0.10338(6) 0.49047(17)
N1 N 0.5915(3) 0.21370(9) 0.5255(3)
N2 N 0.3630(3) 0.17216(9) 0.5509(3)
O1 O 0.8805(2) 0.19356(8) 0.6232(3)
O2 O 0.7919(3) 0.20770(8) 0.3552(3)
S1 S 0.77627(9) 0.21885(3) 0.50828(9)
loop_
_geom_bond_atom_site_label_1
_geom_bond_atom_site_label_2
_geom_bond_site_symmetry_1
_geom_bond_site_symmetry_2
C1 C8 1_555 1_555
C2 C3 1_555 1_555
C3 H1 1_555 1_555
C4 C3 1_555 1_555
H2 C4 1_555 1_555
C5 C4 1_555 1_555
H3 C5 1_555 1_555
C6 C5 1_555 1_555
H4 C6 1_555 1_555
C7 C2 1_555 1_555
C8 C7 1_555 1_555
C9 H5 1_555 1_555
H6 C9 1_555 1_555
H7 C9 1_555 1_555
C10 C8 1_555 1_555
C11 C10 1_555 1_555
H8 C11 1_555 1_555
C12 C11 1_555 1_555
H9 C12 1_555 1_555
C13 C12 1_555 1_555
C14 C13 1_555 1_555
H10 C14 1_555 1_555
C15 C10 1_555 1_555
H11 C15 1_555 1_555
C16 C13 1_555 1_555
H12 C16 1_555 1_555
H13 C16 1_555 1_555
H14 C16 1_555 1_555
C17 C18 1_555 1_555
C18 H15 1_555 1_555
C19 C18 1_555 1_555
H16 C19 1_555 1_555
C20 C19 1_555 1_555
C21 C20 1_555 1_555
H17 C21 1_555 1_555
C22 C17 1_555 1_555
H18 C22 1_555 1_555
C23 C20 1_555 1_555
H19 C23 1_555 1_555
H20 C23 1_555 1_555
H21 C23 1_555 1_555
F1 C8 1_555 1_555
N1 C1 1_555 1_555
N2 C1 1_555 1_555
O1 S1 1_555 1_555
O2 S1 1_555 1_555
S1 C17 1_555 1_555
C2 N2 1_555 1_555
C6 C7 1_555 1_555
C9 N2 1_555 1_555
C14 C15 1_555 1_555
C21 C22 1_555 1_555
N1 S1 1_555 1_555

#END
