
#######################################################################
#
#                 Cambridge Crystallographic Data Centre
#                                CCDC 
#
#######################################################################
#
# If this CIF has been generated from an entry in the Cambridge 
# Structural Database, then it will include bibliographic, chemical, 
# crystal, experimental, refinement or atomic coordinate data resulting 
# from the CCDC's data processing and validation procedures.
#
#######################################################################

data_VEBTOO
_chemical_formula_moiety         'C16 H14 N2 O3 S1'
_chemical_name_systematic        
4-methyl-N-(1-methyl-3-oxo-1,3-dihydro-2H-indol-2-ylidene)benzene-1-sulfonamide
_symmetry_cell_setting           triclinic
_symmetry_space_group_name_H-M   'P -1'
_symmetry_Int_Tables_number      2
_space_group_name_Hall           '-P 1'
loop_
_symmetry_equiv_pos_site_id
_symmetry_equiv_pos_as_xyz
1 x,y,z
2 -x,-y,-z
_cell_length_a                   6.8692(7)
_cell_length_b                   7.4511(9)
_cell_length_c                   15.6394(18)
_cell_angle_alpha                85.058(9)
_cell_angle_beta                 80.243(9)
_cell_angle_gamma                68.404(10)
_cell_volume                     733.269
_exptl_crystal_colour            yellow
_exptl_crystal_description       plate
_cell_formula_units_Z            2
loop_
_atom_site_label
_atom_site_type_symbol
_atom_site_fract_x
_atom_site_fract_y
_atom_site_fract_z
S1 S 0.53595(18) 0.64851(13) 0.22845(7)
O1 O 0.3741(4) 0.5983(3) 0.42476(17)
O2 O 0.3610(6) 0.5956(4) 0.2191(2)
O3 O 0.7024(5) 0.5161(4) 0.27174(19)
N1 N 0.3197(4) 1.0775(4) 0.38089(19)
N2 N 0.4495(5) 0.8627(4) 0.2688(2)
C1 C 0.2121(6) 0.8603(6) 0.5888(3)
H1 H 0.221474 0.737039 0.609556
C2 C 0.1396(6) 1.0128(6) 0.6446(3)
H2 H 0.098347 0.993419 0.703342
C3 C 0.1288(6) 1.1944(6) 0.6125(3)
H3 H 0.081175 1.295545 0.650858
C4 C 0.1859(6) 1.2318(5) 0.5257(3)
H4 H 0.178248 1.354783 0.505172
C5 C 0.2550(5) 1.0776(5) 0.4705(2)
C6 C 0.2698(5) 0.8934(5) 0.5027(2)
C7 C 0.3452(5) 0.7665(5) 0.4283(2)
C8 C 0.3824(5) 0.8967(5) 0.3500(2)
C9 C 0.6510(7) 0.6993(5) 0.1255(3)
C10 C 0.8390(8) 0.7306(7) 0.1142(3)
H5 H 0.905991 0.724615 0.161842
C11 C 0.9281(8) 0.7705(7) 0.0333(3)
H6 H 1.054051 0.793320 0.027250
C12 C 0.8372(8) 0.7778(6) -0.0391(3)
C13 C 0.6528(9) 0.7442(8) -0.0276(3)
H7 H 0.588144 0.747594 -0.075697
C14 C 0.5592(8) 0.7053(7) 0.0531(3)
H8 H 0.433035 0.682861 0.058816
C15 C 0.9377(9) 0.8231(8) -0.1275(3)
H9 H 1.056104 0.857920 -0.121696
H10 H 0.835676 0.928673 -0.154265
H11 H 0.985383 0.711629 -0.162949
C16 C 0.3134(7) 1.2471(5) 0.3271(3)
H12 H 0.169903 1.320670 0.318905
H13 H 0.398498 1.208210 0.271720
H14 H 0.367745 1.324873 0.354865
loop_
_geom_bond_atom_site_label_1
_geom_bond_atom_site_label_2
_geom_bond_site_symmetry_1
_geom_bond_site_symmetry_2
S1 O2 1_555 1_555
O1 C7 1_555 1_555
O3 S1 1_555 1_555
N1 C5 1_555 1_555
N2 S1 1_555 1_555
C1 H1 1_555 1_555
C2 C1 1_555 1_555
H2 C2 1_555 1_555
C3 C2 1_555 1_555
H3 C3 1_555 1_555
C4 C3 1_555 1_555
H4 C4 1_555 1_555
C5 C4 1_555 1_555
C6 C1 1_555 1_555
C7 C6 1_555 1_555
C8 N1 1_555 1_555
C9 S1 1_555 1_555
C10 C9 1_555 1_555
H5 C10 1_555 1_555
C11 C10 1_555 1_555
H6 C11 1_555 1_555
C12 C11 1_555 1_555
C13 C12 1_555 1_555
H7 C13 1_555 1_555
C14 C9 1_555 1_555
H8 C14 1_555 1_555
C15 C12 1_555 1_555
H9 C15 1_555 1_555
H10 C15 1_555 1_555
H11 C15 1_555 1_555
C16 N1 1_555 1_555
H12 C16 1_555 1_555
H13 C16 1_555 1_555
H14 C16 1_555 1_555
N2 C8 1_555 1_555
C5 C6 1_555 1_555
C7 C8 1_555 1_555
C13 C14 1_555 1_555

#END
