
#######################################################################
#
#                 Cambridge Crystallographic Data Centre
#                                CCDC 
#
#######################################################################
#
# If this CIF has been generated from an entry in the Cambridge 
# Structural Database, then it will include bibliographic, chemical, 
# crystal, experimental, refinement or atomic coordinate data resulting 
# from the CCDC's data processing and validation procedures.
#
#######################################################################

data_VEBTEC
_chemical_formula_moiety         'C19 H25 N1 O6'
_chemical_name_systematic        
"(R,S)-Methyl 8-hydroxy-3-morpholinospiro[1,4-benzodioxine-2,1'-cyclohexane]-7-carboxylate"
_symmetry_cell_setting           triclinic
_symmetry_space_group_name_H-M   'P -1'
_symmetry_Int_Tables_number      2
_space_group_name_Hall           '-P 1'
loop_
_symmetry_equiv_pos_site_id
_symmetry_equiv_pos_as_xyz
1 x,y,z
2 -x,-y,-z
_cell_length_a                   11.468(3)
_cell_length_b                   12.662(4)
_cell_length_c                   13.310(4)
_cell_angle_alpha                76.23(2)
_cell_angle_beta                 80.61(2)
_cell_angle_gamma                89.87(2)
_cell_volume                     1850.67
_exptl_crystal_colour            colorless
_exptl_crystal_description       prism
_chemical_melting_point          '468 K'
_cell_formula_units_Z            4
loop_
_atom_site_label
_atom_site_type_symbol
_atom_site_fract_x
_atom_site_fract_y
_atom_site_fract_z
O1 O 0.60905(8) 0.11267(8) 0.31787(8)
C1 C 0.62946(12) 0.22029(12) 0.24323(11)
H1 H 0.5507 0.2476 0.2350
C2 C 0.68685(12) 0.20690(12) 0.13471(11)
O2 O 0.79501(8) 0.14704(8) 0.14331(7)
C3 C 0.78150(12) 0.05294(11) 0.22105(11)
C4 C 0.86378(11) -0.02690(11) 0.21286(11)
C5 C 0.85618(12) -0.12319(11) 0.29254(11)
C6 C 0.76425(13) -0.13742(12) 0.37848(11)
H2 H 0.7581 -0.2012 0.4312
C7 C 0.68304(13) -0.05875(12) 0.38610(12)
H3 H 0.6223 -0.0694 0.4435
C8 C 0.69215(12) 0.03696(11) 0.30757(11)
O3 O 0.94805(9) -0.00544(9) 0.12618(9)
H4 H 0.9938(15) -0.0620(15) 0.1339(13)
C9 C 0.94596(14) -0.20411(12) 0.28279(12)
O4 O 1.03036(10) -0.19141(9) 0.21197(9)
O5 O 0.92830(11) -0.29459(9) 0.35974(9)
C10 C 1.0148(2) -0.37733(15) 0.35451(17)
H5 H 1.0291 -0.3891 0.2850
H6 H 0.9855 -0.4439 0.4039
H7 H 1.0873 -0.3539 0.3712
N1 N 0.68564(10) 0.29728(10) 0.28351(9)
C11 C 0.80550(13) 0.27624(14) 0.30628(14)
H8 H 0.8556 0.2603 0.2460
H9 H 0.8036 0.2138 0.3653
C12 C 0.85451(16) 0.37514(16) 0.33163(16)
H10 H 0.9339 0.3614 0.3466
H11 H 0.8598 0.4360 0.2708
O6 O 0.78441(11) 0.40342(11) 0.41838(10)
C13 C 0.66815(16) 0.42253(15) 0.39656(15)
H12 H 0.6705 0.4835 0.3362
H13 H 0.6195 0.4415 0.4560
C14 C 0.61356(14) 0.32406(14) 0.37484(12)
H14 H 0.6094 0.2630 0.4354
H15 H 0.5338 0.3389 0.3613
C15 C 0.72497(15) 0.31551(13) 0.05874(12)
H16 H 0.7842 0.3510 0.0851
H17 H 0.6574 0.3617 0.0548
C16 C 0.77555(17) 0.30328(16) -0.05085(13)
H18 H 0.7920 0.3749 -0.0979
H19 H 0.8496 0.2663 -0.0489
C17 C 0.69117(19) 0.2397(2) -0.09273(14)
H20 H 0.6209 0.2810 -0.1030
H21 H 0.7285 0.2291 -0.1603
C18 C 0.65614(17) 0.13030(18) -0.01816(14)
H22 H 0.7253 0.0863 -0.0132
H23 H 0.5991 0.0929 -0.0452
C19 C 0.60247(14) 0.14337(14) 0.09052(13)
H24 H 0.5842 0.0720 0.1376
H25 H 0.5292 0.1813 0.0865
O7 O 0.11139(8) 0.23468(9) 0.31469(8)
C20 C 0.12879(12) 0.16087(12) 0.24330(11)
H26 H 0.0492 0.1373 0.2379
C21 C 0.18329(12) 0.22440(12) 0.13267(11)
O8 O 0.29344(8) 0.27991(8) 0.13656(7)
C22 C 0.28288(11) 0.33899(11) 0.21124(10)
C23 C 0.36638(11) 0.42319(11) 0.19822(10)
C24 C 0.36149(12) 0.48333(11) 0.27487(11)
C25 C 0.27142(13) 0.45837(12) 0.36236(11)
H27 H 0.2672 0.4984 0.4130
C26 C 0.18934(13) 0.37597(12) 0.37460(11)
H28 H 0.1297 0.3605 0.4330
C27 C 0.19548(12) 0.31541(11) 0.29916(11)
O9 O 0.44882(9) 0.44117(9) 0.11051(8)
H29 H 0.4936(15) 0.4950(14) 0.1168(13)
C28 C 0.45242(13) 0.56888(12) 0.26049(12)
O10 O 0.53530(10) 0.58915(9) 0.18810(9)
O11 O 0.43751(10) 0.62350(9) 0.33535(9)
C29 C 0.52368(19) 0.71010(16) 0.32531(17)
H30 H 0.5990 0.6797 0.3347
H31 H 0.4989 0.7498 0.3777
H32 H 0.5304 0.7583 0.2568
N2 N 0.18504(10) 0.06434(10) 0.28602(9)
C30 C 0.30615(14) 0.07461(13) 0.30538(14)
H33 H 0.3064 0.1100 0.3625
H34 H 0.3550 0.1187 0.2432
C31 C 0.35508(18) -0.03664(15) 0.33311(18)
H35 H 0.3585 -0.0696 0.2740
H36 H 0.4351 -0.0299 0.3463
O12 O 0.28619(13) -0.10524(11) 0.42239(12)
C32 C 0.16925(19) -0.11492(17) 0.40362(17)
H37 H 0.1217 -0.1616 0.4650
H38 H 0.1699 -0.1485 0.3452
C33 C 0.11491(15) -0.00574(15) 0.37918(13)
H39 H 0.0347 -0.0144 0.3672
H40 H 0.1119 0.0273 0.4382
C34 C 0.21794(15) 0.14923(13) 0.06007(12)
H41 H 0.1494 0.1047 0.0597
H42 H 0.2777 0.1011 0.0866
C35 C 0.26590(17) 0.21230(15) -0.05193(13)
H43 H 0.3409 0.2482 -0.0532
H44 H 0.2799 0.1618 -0.0968
C36 C 0.18126(19) 0.29626(19) -0.09427(14)
H45 H 0.1097 0.2598 -0.1012
H46 H 0.2171 0.3379 -0.1634
C37 C 0.14979(17) 0.37257(16) -0.02304(14)
H47 H 0.0924 0.4231 -0.0504
H48 H 0.2200 0.4143 -0.0214
C38 C 0.09855(14) 0.30926(14) 0.08791(12)
H49 H 0.0243 0.2733 0.0871
H50 H 0.0825 0.3595 0.1329
loop_
_geom_bond_atom_site_label_1
_geom_bond_atom_site_label_2
_geom_bond_site_symmetry_1
_geom_bond_site_symmetry_2
O1 C1 1_555 1_555
C1 H1 1_555 1_555
C2 C1 1_555 1_555
O2 C2 1_555 1_555
C3 O2 1_555 1_555
C4 C3 1_555 1_555
C5 C4 1_555 1_555
C6 C5 1_555 1_555
H2 C6 1_555 1_555
C7 C6 1_555 1_555
H3 C7 1_555 1_555
C8 O1 1_555 1_555
O3 C4 1_555 1_555
H4 O3 1_555 1_555
C9 C5 1_555 1_555
O4 C9 1_555 1_555
O5 C9 1_555 1_555
C10 O5 1_555 1_555
H5 C10 1_555 1_555
H6 C10 1_555 1_555
H7 C10 1_555 1_555
N1 C1 1_555 1_555
C11 N1 1_555 1_555
H8 C11 1_555 1_555
H9 C11 1_555 1_555
C12 C11 1_555 1_555
H10 C12 1_555 1_555
H11 C12 1_555 1_555
O6 C12 1_555 1_555
C13 O6 1_555 1_555
H12 C13 1_555 1_555
H13 C13 1_555 1_555
C14 N1 1_555 1_555
H14 C14 1_555 1_555
H15 C14 1_555 1_555
C15 C2 1_555 1_555
H16 C15 1_555 1_555
H17 C15 1_555 1_555
C16 C15 1_555 1_555
H18 C16 1_555 1_555
H19 C16 1_555 1_555
C17 C16 1_555 1_555
H20 C17 1_555 1_555
H21 C17 1_555 1_555
C18 C17 1_555 1_555
H22 C18 1_555 1_555
H23 C18 1_555 1_555
C19 C2 1_555 1_555
H24 C19 1_555 1_555
H25 C19 1_555 1_555
O7 C20 1_555 1_555
C20 H26 1_555 1_555
C21 C20 1_555 1_555
O8 C21 1_555 1_555
C22 O8 1_555 1_555
C23 C22 1_555 1_555
C24 C23 1_555 1_555
C25 C24 1_555 1_555
H27 C25 1_555 1_555
C26 C25 1_555 1_555
H28 C26 1_555 1_555
C27 O7 1_555 1_555
O9 C23 1_555 1_555
H29 O9 1_555 1_555
C28 C24 1_555 1_555
O10 C28 1_555 1_555
O11 C28 1_555 1_555
C29 O11 1_555 1_555
H30 C29 1_555 1_555
H31 C29 1_555 1_555
H32 C29 1_555 1_555
N2 C20 1_555 1_555
C30 N2 1_555 1_555
H33 C30 1_555 1_555
H34 C30 1_555 1_555
C31 C30 1_555 1_555
H35 C31 1_555 1_555
H36 C31 1_555 1_555
O12 C31 1_555 1_555
C32 O12 1_555 1_555
H37 C32 1_555 1_555
H38 C32 1_555 1_555
C33 N2 1_555 1_555
H39 C33 1_555 1_555
H40 C33 1_555 1_555
C34 C21 1_555 1_555
H41 C34 1_555 1_555
H42 C34 1_555 1_555
C35 C34 1_555 1_555
H43 C35 1_555 1_555
H44 C35 1_555 1_555
C36 C35 1_555 1_555
H45 C36 1_555 1_555
H46 C36 1_555 1_555
C37 C36 1_555 1_555
H47 C37 1_555 1_555
H48 C37 1_555 1_555
C38 C21 1_555 1_555
H49 C38 1_555 1_555
H50 C38 1_555 1_555
C3 C8 1_555 1_555
C7 C8 1_555 1_555
C13 C14 1_555 1_555
C18 C19 1_555 1_555
C22 C27 1_555 1_555
C26 C27 1_555 1_555
C32 C33 1_555 1_555
C37 C38 1_555 1_555

#END
