
#######################################################################
#
#                 Cambridge Crystallographic Data Centre
#                                CCDC 
#
#######################################################################
#
# If this CIF has been generated from an entry in the Cambridge 
# Structural Database, then it will include bibliographic, chemical, 
# crystal, experimental, refinement or atomic coordinate data resulting 
# from the CCDC's data processing and validation procedures.
#
#######################################################################

data_VEBWOR
_chemical_compound_source        'root barks of Walsura robusta'
_chemical_name_common            'Walrobsin A'
_chemical_formula_moiety         'C33 H42 O8'
_chemical_name_systematic        
'4-(acetyloxy)-9-(furan-3-yl)-6-hydroxy-8a,11b-dimethyl-1-oxo-3-(propan-2-yl)-1,2,3,5,6,7a,8,8a,9,10,11b,11c-dodecahydro-4H-3a,6-methanocyclopenta[3,4]naphtho[1,8-bc]oxepin-5-yl 2-methylbut-2-enoate'
_chemical_properties_biological  'significant anti-inflammatory activity'
_symmetry_cell_setting           orthorhombic
_symmetry_space_group_name_H-M   'P 21 21 21'
_symmetry_Int_Tables_number      19
_space_group_name_Hall           'P 2ac 2ab'
loop_
_symmetry_equiv_pos_site_id
_symmetry_equiv_pos_as_xyz
1 x,y,z
2 1/2-x,-y,1/2+z
3 1/2+x,1/2-y,-z
4 -x,1/2+y,1/2-z
_cell_length_a                   9.54080(10)
_cell_length_b                   16.31220(10)
_cell_length_c                   18.8674(2)
_cell_angle_alpha                90
_cell_angle_beta                 90
_cell_angle_gamma                90
_cell_volume                     2936.36
_exptl_crystal_colour            colorless
_exptl_crystal_description       block
_cell_formula_units_Z            4
loop_
_atom_site_label
_atom_site_type_symbol
_atom_site_fract_x
_atom_site_fract_y
_atom_site_fract_z
O1 O 0.28833(17) 0.06154(10) 0.46535(10)
O2 O 0.1484(2) 0.14025(13) 0.25058(10)
O3 O 0.4368(2) 0.16627(11) 0.44216(12)
H1 H 0.4992 0.1320 0.4462
O4 O 0.3931(2) 0.02936(11) 0.32394(11)
O5 O -0.0647(3) -0.36134(15) 0.57293(15)
C1 C 0.1650(3) 0.09773(14) 0.31714(13)
H2 H 0.1390 0.0400 0.3114
O6 O -0.3091(2) 0.08296(16) 0.45909(16)
C2 C 0.1925(3) 0.18758(14) 0.41812(14)
H3 H 0.2144 0.2372 0.3920
H4 H 0.1640 0.2019 0.4659
C3 C 0.1722(2) 0.01050(13) 0.44575(13)
H5 H 0.2000 -0.0211 0.4039
C4 C 0.0396(2) 0.06036(14) 0.42609(12)
H6 H -0.0114 0.0246 0.3933
C5 C 0.0791(3) 0.13659(14) 0.38011(12)
O7 O 0.5816(3) 0.10139(16) 0.28981(19)
C6 C -0.0324(3) -0.13511(17) 0.57801(14)
H7 H 0.0311 -0.1165 0.6155
C7 C -0.0002(3) -0.08261(15) 0.50991(13)
C8 C -0.0546(3) 0.18243(16) 0.35567(14)
H8 H -0.0979 0.1476 0.3195
C9 C -0.0644(3) 0.07345(15) 0.48872(13)
C10 C -0.1949(3) -0.02576(19) 0.56974(17)
H9 H -0.2640 0.0114 0.5832
C11 C -0.0968(3) -0.00954(15) 0.52185(13)
C12 C 0.3155(3) 0.12846(14) 0.41848(14)
C13 C -0.0361(3) -0.13101(16) 0.44228(14)
H10 H 0.0220 -0.1790 0.4396
H11 H -0.0199 -0.0971 0.4015
H12 H -0.1329 -0.1471 0.4436
C14 C 0.3192(3) 0.10414(15) 0.33931(14)
H13 H 0.3629 0.1488 0.3125
C15 C 0.1043(4) -0.27260(19) 0.55092(19)
H14 H 0.1910 -0.2511 0.5383
C16 C -0.0301(3) 0.26733(18) 0.31970(17)
H15 H 0.0602 0.2646 0.2951
C17 C -0.1642(3) 0.19105(17) 0.41519(17)
H16 H -0.1322 0.2323 0.4485
H17 H -0.2514 0.2104 0.3947
C18 C 0.5235(3) 0.03698(18) 0.29632(16)
C19 C 0.1510(3) -0.05018(14) 0.50716(13)
H18 H 0.1729 -0.0231 0.5516
H19 H 0.2150 -0.0959 0.5016
C20 C -0.0156(3) -0.22681(17) 0.57143(14)
C21 C 0.5859(3) -0.04331(19) 0.27676(16)
C22 C 0.5068(4) -0.1080(2) 0.26397(18)
H20 H 0.4103 -0.1011 0.2678
C23 C -0.1821(4) -0.1106(2) 0.59974(17)
H21 H -0.2511 -0.1473 0.5792
H22 H -0.1927 -0.1103 0.6509
C24 C -0.1144(4) -0.2846(2) 0.5834(2)
H23 H -0.2059 -0.2730 0.5973
C25 C -0.1927(3) 0.11296(17) 0.45511(16)
C26 C -0.0112(3) 0.12985(18) 0.54936(15)
H24 H 0.0769 0.1096 0.5667
H25 H -0.0784 0.1302 0.5872
H26 H 0.0008 0.1846 0.5317
C27 C -0.1435(5) 0.2820(3) 0.2632(2)
H27 H -0.1434 0.2374 0.2300
H28 H -0.1244 0.3323 0.2387
H29 H -0.2336 0.2854 0.2857
C28 C 0.0705(4) -0.3521(2) 0.55297(19)
H30 H 0.1312 -0.3949 0.5422
C29 C -0.0237(5) 0.34015(19) 0.3704(2)
H31 H -0.1144 0.3489 0.3910
H32 H 0.0044 0.3883 0.3449
H33 H 0.0431 0.3290 0.4073
C30 C 0.7425(4) -0.0422(3) 0.2708(3)
H34 H 0.7689 -0.0219 0.2250
H35 H 0.7781 -0.0968 0.2768
H36 H 0.7808 -0.0072 0.3069
O8 O 0.0238(7) 0.0398(3) 0.2053(2)
C31 C 0.0884(5) 0.1023(3) 0.19744(18)
C32 C 0.5585(5) -0.1917(2) 0.2437(2)
H37 H 0.5065 -0.2113 0.2036
H38 H 0.5460 -0.2286 0.2829
H39 H 0.6562 -0.1888 0.2318
C33 C 0.0852(5) 0.1497(4) 0.13164(19)
H40 H 0.0132 0.1906 0.1346
H41 H 0.0661 0.1138 0.0925
H42 H 0.1743 0.1758 0.1246
loop_
_geom_bond_atom_site_label_1
_geom_bond_atom_site_label_2
_geom_bond_site_symmetry_1
_geom_bond_site_symmetry_2
O1 C3 1_555 1_555
O2 C1 1_555 1_555
O3 H1 1_555 1_555
O4 C14 1_555 1_555
O5 C24 1_555 1_555
C1 H2 1_555 1_555
O6 C25 1_555 1_555
C2 H3 1_555 1_555
H4 C2 1_555 1_555
C3 H5 1_555 1_555
C4 C3 1_555 1_555
H6 C4 1_555 1_555
C5 C1 1_555 1_555
O7 C18 1_555 1_555
C6 H7 1_555 1_555
C7 C6 1_555 1_555
C8 C5 1_555 1_555
H8 C8 1_555 1_555
C9 C4 1_555 1_555
C10 H9 1_555 1_555
C11 C7 1_555 1_555
C12 O1 1_555 1_555
C13 C7 1_555 1_555
H10 C13 1_555 1_555
H11 C13 1_555 1_555
H12 C13 1_555 1_555
C14 C1 1_555 1_555
H13 C14 1_555 1_555
C15 H14 1_555 1_555
C16 C8 1_555 1_555
H15 C16 1_555 1_555
C17 C8 1_555 1_555
H16 C17 1_555 1_555
H17 C17 1_555 1_555
C18 O4 1_555 1_555
C19 C3 1_555 1_555
H18 C19 1_555 1_555
H19 C19 1_555 1_555
C20 C6 1_555 1_555
C21 C18 1_555 1_555
C22 C21 1_555 1_555
H20 C22 1_555 1_555
C23 C6 1_555 1_555
H21 C23 1_555 1_555
H22 C23 1_555 1_555
C24 C20 1_555 1_555
H23 C24 1_555 1_555
C25 C9 1_555 1_555
C26 C9 1_555 1_555
H24 C26 1_555 1_555
H25 C26 1_555 1_555
H26 C26 1_555 1_555
C27 C16 1_555 1_555
H27 C27 1_555 1_555
H28 C27 1_555 1_555
H29 C27 1_555 1_555
C28 O5 1_555 1_555
H30 C28 1_555 1_555
C29 C16 1_555 1_555
H31 C29 1_555 1_555
H32 C29 1_555 1_555
H33 C29 1_555 1_555
C30 C21 1_555 1_555
H34 C30 1_555 1_555
H35 C30 1_555 1_555
H36 C30 1_555 1_555
O8 C31 1_555 1_555
C31 O2 1_555 1_555
C32 C22 1_555 1_555
H37 C32 1_555 1_555
H38 C32 1_555 1_555
H39 C32 1_555 1_555
C33 C31 1_555 1_555
H40 C33 1_555 1_555
H41 C33 1_555 1_555
H42 C33 1_555 1_555
O3 C12 1_555 1_555
C2 C5 1_555 1_555
C2 C12 1_555 1_555
C4 C5 1_555 1_555
C7 C19 1_555 1_555
C9 C11 1_555 1_555
C10 C11 1_555 1_555
C10 C23 1_555 1_555
C12 C14 1_555 1_555
C15 C20 1_555 1_555
C15 C28 1_555 1_555
C17 C25 1_555 1_555

#END
