
#######################################################################
#
#                 Cambridge Crystallographic Data Centre
#                                CCDC 
#
#######################################################################
#
# If this CIF has been generated from an entry in the Cambridge 
# Structural Database, then it will include bibliographic, chemical, 
# crystal, experimental, refinement or atomic coordinate data resulting 
# from the CCDC's data processing and validation procedures.
#
#######################################################################

data_VEBXEG01
_chemical_formula_moiety         'C14 H12 N4'
_chemical_name_systematic        5-(4-Methyl-1,1'-biphenyl-2'-yl)-1H-tetrazole
_symmetry_cell_setting           monoclinic
_symmetry_space_group_name_H-M   'P 21/c'
_symmetry_Int_Tables_number      14
_space_group_name_Hall           '-P 2ybc'
loop_
_symmetry_equiv_pos_site_id
_symmetry_equiv_pos_as_xyz
1 x,y,z
2 -x,1/2+y,1/2-z
3 -x,-y,-z
4 x,1/2-y,1/2+z
_cell_length_a                   5.0146(18)
_cell_length_b                   16.599(6)
_cell_length_c                   15.090(5)
_cell_angle_alpha                90.00
_cell_angle_beta                 108.969(10)
_cell_angle_gamma                90.00
_cell_volume                     1187.84
_cell_formula_units_Z            4
loop_
_atom_site_label
_atom_site_type_symbol
_atom_site_fract_x
_atom_site_fract_y
_atom_site_fract_z
N1 N 0.0661(8) -0.1573(3) 0.2697(3)
H1 H 0.2500 -0.1673 0.2797
N2 N -0.0830(11) -0.0973(2) 0.2163(2)
N3 N -0.3351(9) -0.1027(2) 0.2211(2)
N4 N -0.3539(8) -0.1661(3) 0.2764(3)
C1 C -0.0043(9) -0.2723(3) 0.3636(4)
C2 C 0.1343(9) -0.3306(4) 0.3286(3)
H2 H 0.1674 -0.3200 0.2705
C3 C 0.2224(9) -0.4017(3) 0.3751(4)
H3 H 0.3185 -0.4414 0.3504
C4 C 0.1697(10) -0.4148(3) 0.4579(4)
H4 H 0.2275 -0.4648 0.4905
C5 C 0.0378(9) -0.3570(4) 0.4939(3)
H5 H 0.0049 -0.3679 0.5519
C6 C -0.0509(8) -0.2838(3) 0.4490(4)
C7 C -0.1703(9) -0.2221(3) 0.4978(3)
C8 C -0.3379(9) -0.2447(3) 0.5512(3)
H6 H -0.3880 -0.3005 0.5514
C9 C -0.4282(9) -0.1890(4) 0.6030(3)
H7 H -0.5458 -0.2064 0.6383
C10 C -0.3554(9) -0.1085(3) 0.6046(3)
C11 C -0.1932(9) -0.0866(3) 0.5498(3)
H8 H -0.1447 -0.0307 0.5491
C12 C -0.1002(8) -0.1414(4) 0.4986(3)
H9 H 0.0165 -0.1242 0.4628
C13 C -0.0983(11) -0.2000(3) 0.3067(3)
C14 C -0.4474(11) -0.0488(3) 0.6645(3)
H10 H -0.3779 0.0038 0.6569
H11 H -0.3724 -0.0647 0.7290
H12 H -0.6495 -0.0474 0.6457
loop_
_geom_bond_atom_site_label_1
_geom_bond_atom_site_label_2
_geom_bond_site_symmetry_1
_geom_bond_site_symmetry_2
N1 H1 1_555 1_555
N2 N1 1_555 1_555
N3 N2 1_555 1_555
N4 N3 1_555 1_555
C1 C2 1_555 1_555
C2 H2 1_555 1_555
C3 C2 1_555 1_555
H3 C3 1_555 1_555
C4 C3 1_555 1_555
H4 C4 1_555 1_555
C5 C4 1_555 1_555
H5 C5 1_555 1_555
C6 C1 1_555 1_555
C7 C6 1_555 1_555
C8 C7 1_555 1_555
H6 C8 1_555 1_555
C9 C8 1_555 1_555
H7 C9 1_555 1_555
C10 C9 1_555 1_555
C11 C10 1_555 1_555
H8 C11 1_555 1_555
C12 C7 1_555 1_555
H9 C12 1_555 1_555
C13 N1 1_555 1_555
C14 C10 1_555 1_555
H10 C14 1_555 1_555
H11 C14 1_555 1_555
H12 C14 1_555 1_555
N4 C13 1_555 1_555
C1 C13 1_555 1_555
C5 C6 1_555 1_555
C11 C12 1_555 1_555

#END
