
#######################################################################
#
#                 Cambridge Crystallographic Data Centre
#                                CCDC 
#
#######################################################################
#
# If this CIF has been generated from an entry in the Cambridge 
# Structural Database, then it will include bibliographic, chemical, 
# crystal, experimental, refinement or atomic coordinate data resulting 
# from the CCDC's data processing and validation procedures.
#
#######################################################################

data_VEBZEK
_chemical_formula_moiety         'C12 H14 Cl1 N1 O2'
_chemical_name_systematic        
(S,R)-2-amino-2-(2-chlorophenyl)-5-hydroxycyclohexan-1-one
_symmetry_cell_setting           orthorhombic
_symmetry_space_group_name_H-M   'P 21 21 21'
_symmetry_Int_Tables_number      19
_space_group_name_Hall           'P 2ac 2ab'
loop_
_symmetry_equiv_pos_site_id
_symmetry_equiv_pos_as_xyz
1 x,y,z
2 1/2-x,-y,1/2+z
3 -x,1/2+y,1/2-z
4 1/2+x,1/2-y,-z
_cell_length_a                   7.2277(3)
_cell_length_b                   7.3744(3)
_cell_length_c                   21.3606(8)
_cell_angle_alpha                90
_cell_angle_beta                 90
_cell_angle_gamma                90
_cell_volume                     1138.52
_exptl_crystal_colour            colorless
_exptl_crystal_description       Rod
_cell_formula_units_Z            4
loop_
_atom_site_label
_atom_site_type_symbol
_atom_site_fract_x
_atom_site_fract_y
_atom_site_fract_z
Cl1 Cl 0.64242(8) 0.55801(9) 0.43404(3)
O1 O 0.5325(3) 0.6082(3) 0.28601(9)
O2 O 0.0857(2) 1.0239(2) 0.33136(8)
H1 H 0.177(4) 1.112(4) 0.3285(15)
N1 N 0.3618(4) 0.3003(3) 0.33270(11)
H2 H 0.466(4) 0.267(5) 0.3544(14)
H3 H 0.398(4) 0.295(4) 0.2906(11)
C1 C 0.4217(3) 0.5106(3) 0.46346(12)
C2 C 0.4052(4) 0.4999(3) 0.52804(12)
H4 H 0.509754 0.519812 0.554116
C3 C 0.2353(4) 0.4599(4) 0.55395(12)
H5 H 0.221650 0.454856 0.598151
C4 C 0.0846(4) 0.4273(4) 0.51566(12)
H6 H -0.032418 0.399103 0.533437
C5 C 0.1052(3) 0.4360(3) 0.45104(11)
H7 H 0.001302 0.410807 0.425208
C6 C 0.2733(3) 0.4804(3) 0.42282(11)
C7 C 0.2949(3) 0.4807(3) 0.35131(11)
C8 C 0.4157(3) 0.6359(3) 0.32602(11)
C9 C 0.3532(4) 0.8233(3) 0.34369(12)
H8 H 0.444078 0.914389 0.329099
H9 H 0.341510 0.833531 0.389731
C10 C 0.1635(4) 0.8556(3) 0.31209(12)
H10 H 0.180892 0.857652 0.265649
C11 C 0.0288(4) 0.7054(4) 0.32869(12)
H11 H -0.085885 0.720754 0.303892
H12 H -0.004344 0.715088 0.373535
C12 C 0.1096(3) 0.5165(3) 0.31602(12)
H13 H 0.130918 0.503002 0.270482
H14 H 0.017991 0.423781 0.328764
loop_
_geom_bond_atom_site_label_1
_geom_bond_atom_site_label_2
_geom_bond_site_symmetry_1
_geom_bond_site_symmetry_2
Cl1 C1 1_555 1_555
O1 C8 1_555 1_555
O2 H1 1_555 1_555
N1 H2 1_555 1_555
H3 N1 1_555 1_555
C1 C2 1_555 1_555
C2 H4 1_555 1_555
C3 C2 1_555 1_555
H5 C3 1_555 1_555
C4 C3 1_555 1_555
H6 C4 1_555 1_555
C5 C4 1_555 1_555
H7 C5 1_555 1_555
C6 C1 1_555 1_555
C7 N1 1_555 1_555
C8 C7 1_555 1_555
C9 C8 1_555 1_555
H8 C9 1_555 1_555
H9 C9 1_555 1_555
C10 O2 1_555 1_555
H10 C10 1_555 1_555
C11 C10 1_555 1_555
H11 C11 1_555 1_555
H12 C11 1_555 1_555
C12 C7 1_555 1_555
H13 C12 1_555 1_555
H14 C12 1_555 1_555
C5 C6 1_555 1_555
C6 C7 1_555 1_555
C9 C10 1_555 1_555
C11 C12 1_555 1_555

#END
