
#######################################################################
#
#                 Cambridge Crystallographic Data Centre
#                                CCDC 
#
#######################################################################
#
# If this CIF has been generated from an entry in the Cambridge 
# Structural Database, then it will include bibliographic, chemical, 
# crystal, experimental, refinement or atomic coordinate data resulting 
# from the CCDC's data processing and validation procedures.
#
#######################################################################

data_VEBZAG
_chemical_formula_moiety         'C12 H15 Cl1 N1 O2 1+,H2 O1,Cl1 1-'
_chemical_name_systematic        
'(R,S)-1-(2-chlorophenyl)-5-hydroxy-2-oxocyclohexan-1-aminium chloride monohydrate'
_symmetry_cell_setting           monoclinic
_symmetry_space_group_name_H-M   'P 21'
_symmetry_Int_Tables_number      4
_space_group_name_Hall           'P 2yb'
loop_
_symmetry_equiv_pos_site_id
_symmetry_equiv_pos_as_xyz
1 x,y,z
2 -x,1/2+y,-z
_cell_length_a                   7.4047(4)
_cell_length_b                   8.7079(5)
_cell_length_c                   11.7729(6)
_cell_angle_alpha                90
_cell_angle_beta                 107.542(2)
_cell_angle_gamma                90
_cell_volume                     723.808
_exptl_crystal_colour            colorless
_exptl_crystal_description       Block
_cell_formula_units_Z            2
loop_
_atom_site_label
_atom_site_type_symbol
_atom_site_fract_x
_atom_site_fract_y
_atom_site_fract_z
Cl1 Cl 0.10823(6) 0.30654(6) 0.32532(4)
O1 O 0.09644(19) 0.37364(16) 0.05381(12)
O2 O 0.6786(2) 0.68861(16) 0.10046(12)
H1 H 0.709(4) 0.783(3) 0.130(2)
N1 N 0.3939(2) 0.20403(18) 0.15135(15)
H2 H 0.289(3) 0.158(3) 0.165(2)
H3 H 0.505(3) 0.150(3) 0.180(2)
H4 H 0.369(4) 0.200(3) 0.0686(18)
C1 C 0.3447(3) 0.3534(2) 0.39454(17)
C2 C 0.4003(3) 0.3647(3) 0.51817(18)
H5 H 0.310783 0.351614 0.560637
C3 C 0.5897(3) 0.3955(3) 0.57864(18)
H6 H 0.629847 0.404843 0.662961
C4 C 0.7184(3) 0.4125(3) 0.51617(19)
H7 H 0.848023 0.430917 0.557663
C5 C 0.6596(3) 0.4028(2) 0.39277(17)
H8 H 0.750215 0.415292 0.351042
C6 C 0.4700(3) 0.3752(2) 0.32805(16)
C7 C 0.4082(3) 0.3674(2) 0.19166(16)
C8 C 0.2158(3) 0.4436(2) 0.12969(16)
C9 C 0.2056(3) 0.6122(2) 0.15424(18)
H9 H 0.237584 0.630763 0.241009
H10 H 0.076413 0.651692 0.115211
C10 C 0.3504(3) 0.6928(2) 0.10325(17)
H11 H 0.310285 0.681018 0.015536
H12 H 0.353734 0.803848 0.121684
C11 C 0.5483(3) 0.6248(2) 0.15584(16)
H13 H 0.594084 0.646250 0.243317
C12 C 0.5458(3) 0.4511(2) 0.13538(16)
H14 H 0.675240 0.409823 0.170394
H15 H 0.506820 0.430312 0.048696
Cl2 Cl 0.75077(6) 0.99800(5) 0.23260(4)
O3 O 0.12099(18) -0.00020(18) 0.16143(12)
H16 H 0.066(4) -0.038(3) 0.090(2)
H17 H 0.029(4) 0.015(4) 0.196(3)
loop_
_geom_bond_atom_site_label_1
_geom_bond_atom_site_label_2
_geom_bond_site_symmetry_1
_geom_bond_site_symmetry_2
Cl1 C1 1_555 1_555
O1 C8 1_555 1_555
O2 H1 1_555 1_555
N1 H2 1_555 1_555
H3 N1 1_555 1_555
H4 N1 1_555 1_555
C1 C2 1_555 1_555
C2 H5 1_555 1_555
C3 C2 1_555 1_555
H6 C3 1_555 1_555
C4 C3 1_555 1_555
H7 C4 1_555 1_555
C5 C4 1_555 1_555
H8 C5 1_555 1_555
C6 C1 1_555 1_555
C7 N1 1_555 1_555
C8 C7 1_555 1_555
C9 C8 1_555 1_555
H9 C9 1_555 1_555
H10 C9 1_555 1_555
C10 C9 1_555 1_555
H11 C10 1_555 1_555
H12 C10 1_555 1_555
C11 O2 1_555 1_555
H13 C11 1_555 1_555
C12 C7 1_555 1_555
H14 C12 1_555 1_555
H15 C12 1_555 1_555
O3 H16 1_555 1_555
H17 O3 1_555 1_555
C5 C6 1_555 1_555
C6 C7 1_555 1_555
C10 C11 1_555 1_555
C11 C12 1_555 1_555

#END
