
#######################################################################
#
#                 Cambridge Crystallographic Data Centre
#                                CCDC 
#
#######################################################################
#
# If this CIF has been generated from an entry in the Cambridge 
# Structural Database, then it will include bibliographic, chemical, 
# crystal, experimental, refinement or atomic coordinate data resulting 
# from the CCDC's data processing and validation procedures.
#
#######################################################################

data_VECCUE
_chemical_formula_moiety         'C14 H14 N2 O3'
_chemical_name_systematic        
3-ethoxy-1'-methyl-2'H,5'H-spiro[isoindole-1,3'-pyrrolidine]-2',5'-dione
_symmetry_cell_setting           monoclinic
_symmetry_space_group_name_H-M   'P 21/c'
_symmetry_Int_Tables_number      14
_space_group_name_Hall           '-P 2ybc'
loop_
_symmetry_equiv_pos_site_id
_symmetry_equiv_pos_as_xyz
1 x,y,z
2 -x,1/2+y,1/2-z
3 -x,-y,-z
4 x,1/2-y,1/2+z
_cell_length_a                   5.6185(6)
_cell_length_b                   22.7525(18)
_cell_length_c                   10.3579(7)
_cell_angle_alpha                90
_cell_angle_beta                 99.399(8)
_cell_angle_gamma                90
_cell_volume                     1306.33
_exptl_crystal_colour            colorless
_exptl_crystal_description       needle
_cell_formula_units_Z            4
loop_
_atom_site_label
_atom_site_type_symbol
_atom_site_fract_x
_atom_site_fract_y
_atom_site_fract_z
O1 O 0.3401(4) 0.46349(10) 0.1902(2)
O2 O 0.3583(4) 0.31009(11) 0.4583(2)
O3 O -0.1847(5) 0.36618(12) 0.7118(2)
N1 N 0.2087(4) 0.43112(11) 0.3804(2)
N2 N 0.1125(4) 0.33086(11) 0.6067(2)
C1 C -0.0139(7) 0.37394(16) 0.0527(3)
H1 H 0.0626 0.3924 -0.0092
C2 C -0.1897(7) 0.33176(17) 0.0170(3)
H2 H -0.2306 0.3213 -0.0706
C3 C -0.3050(7) 0.30503(18) 0.1088(3)
H3 H -0.4248 0.2774 0.0819
C4 C -0.2464(5) 0.31852(15) 0.2400(3)
H4 H -0.3241 0.3001 0.3017
C5 C -0.0693(5) 0.36001(14) 0.2773(3)
C6 C 0.0433(5) 0.38750(14) 0.1841(3)
C7 C 0.2088(5) 0.42981(13) 0.2576(3)
C8 C 0.0412(5) 0.38498(12) 0.4089(3)
C9 C 0.1933(5) 0.33717(12) 0.4907(3)
C10 C -0.0806(5) 0.36674(13) 0.6187(3)
C11 C -0.1341(5) 0.40432(13) 0.4993(3)
H5 H -0.1103 0.4455 0.5222
H6 H -0.2997 0.3988 0.4568
C12 C 0.4975(6) 0.50631(15) 0.2612(3)
H7 H 0.6080 0.4872 0.3303
H8 H 0.4037 0.5349 0.3009
C13 C 0.6324(8) 0.53556(19) 0.1705(4)
H9 H 0.5233 0.5576 0.1077
H10 H 0.7136 0.5066 0.1261
H11 H 0.7492 0.5617 0.2183
C14 C 0.2261(6) 0.29103(16) 0.7100(3)
H12 H 0.1853 0.2512 0.6853
H13 H 0.1695 0.3000 0.7902
H14 H 0.3981 0.2958 0.7219
loop_
_geom_bond_atom_site_label_1
_geom_bond_atom_site_label_2
_geom_bond_site_symmetry_1
_geom_bond_site_symmetry_2
O1 C7 1_555 1_555
O2 C9 1_555 1_555
O3 C10 1_555 1_555
N1 C7 1_555 1_555
N2 C9 1_555 1_555
C1 H1 1_555 1_555
C2 C1 1_555 1_555
H2 C2 1_555 1_555
C3 C2 1_555 1_555
H3 C3 1_555 1_555
C4 C3 1_555 1_555
H4 C4 1_555 1_555
C5 C4 1_555 1_555
C6 C1 1_555 1_555
C7 C6 1_555 1_555
C8 N1 1_555 1_555
C9 C8 1_555 1_555
C10 N2 1_555 1_555
C11 C8 1_555 1_555
H5 C11 1_555 1_555
H6 C11 1_555 1_555
C12 O1 1_555 1_555
H7 C12 1_555 1_555
H8 C12 1_555 1_555
C13 C12 1_555 1_555
H9 C13 1_555 1_555
H10 C13 1_555 1_555
H11 C13 1_555 1_555
C14 N2 1_555 1_555
H12 C14 1_555 1_555
H13 C14 1_555 1_555
H14 C14 1_555 1_555
C5 C6 1_555 1_555
C5 C8 1_555 1_555
C10 C11 1_555 1_555

#END
