
#######################################################################
#
#                 Cambridge Crystallographic Data Centre
#                                CCDC 
#
#######################################################################
#
# If this CIF has been generated from an entry in the Cambridge 
# Structural Database, then it will include bibliographic, chemical, 
# crystal, experimental, refinement or atomic coordinate data resulting 
# from the CCDC's data processing and validation procedures.
#
#######################################################################

data_VECDUF
_chemical_formula_moiety         'C16 H22 O4'
_chemical_name_systematic        
10-(methoxymethoxy)-6-methyl-6-(prop-2-yn-1-yl)spiro[4.5]decane-1,7-dione
_symmetry_cell_setting           monoclinic
_symmetry_space_group_name_H-M   'P 21/c'
_symmetry_Int_Tables_number      14
_space_group_name_Hall           '-P 2ybc'
loop_
_symmetry_equiv_pos_site_id
_symmetry_equiv_pos_as_xyz
1 x,y,z
2 -x,1/2+y,1/2-z
3 -x,-y,-z
4 x,1/2-y,1/2+z
_cell_length_a                   8.4594(19)
_cell_length_b                   9.840(2)
_cell_length_c                   17.995(3)
_cell_angle_alpha                90
_cell_angle_beta                 94.074(19)
_cell_angle_gamma                90
_cell_volume                     1494.13
_exptl_crystal_colour            colorless
_exptl_crystal_description       block
_cell_formula_units_Z            4
loop_
_atom_site_label
_atom_site_type_symbol
_atom_site_fract_x
_atom_site_fract_y
_atom_site_fract_z
O1 O 0.2977(4) 0.8947(3) -0.05122(14)
O2 O 0.1161(4) 0.5478(3) 0.16437(16)
O3 O 0.3792(3) 0.7705(3) 0.22995(12)
O4 O 0.6006(4) 0.6558(3) 0.28436(14)
C1 C 0.2077(5) 0.7237(4) 0.03096(18)
C2 C 0.3328(5) 0.8143(4) -0.00173(19)
C3 C 0.4989(5) 0.8026(4) 0.03275(19)
H1 H 0.5657 0.8689 0.0104
H2 H 0.5401 0.7128 0.0230
C4 C 0.5039(4) 0.8263(4) 0.11743(18)
H3 H 0.6088 0.8051 0.1396
H4 H 0.4824 0.9212 0.1273
C5 C 0.3825(4) 0.7382(4) 0.15229(17)
H5 H 0.4120 0.6426 0.1472
C6 C 0.2144(4) 0.7596(4) 0.11590(18)
C7 C 0.1537(5) 0.9060(5) 0.1299(2)
H6 H 0.2228 0.9512 0.1675
H7 H 0.1513 0.9589 0.0844
C8 C -0.0153(5) 0.8921(6) 0.1568(3)
H8 H -0.0363 0.9636 0.1919
H9 H -0.0943 0.8966 0.1150
C9 C -0.0169(6) 0.7549(6) 0.1937(3)
H10 H 0.0103 0.7635 0.2467
H11 H -0.1213 0.7142 0.1864
C10 C 0.1025(5) 0.6695(5) 0.1584(2)
C11 C 0.2536(5) 0.5733(4) 0.01743(19)
H12 H 0.3498 0.5519 0.0477
H13 H 0.1701 0.5145 0.0330
C12 C 0.2786(5) 0.5465(5) -0.0611(2)
C13 C 0.2977(5) 0.5277(5) -0.1238(2)
H14 H 0.3130 0.5126 -0.1738
C14 C 0.0443(5) 0.7495(4) -0.00816(19)
H15 H -0.0336 0.6974 0.0156
H16 H 0.0447 0.7229 -0.0595
H17 H 0.0192 0.8444 -0.0052
C15 C 0.4356(5) 0.6670(5) 0.2787(2)
H18 H 0.3996 0.6846 0.3278
H19 H 0.3904 0.5810 0.2615
C16 C 0.6736(5) 0.7641(5) 0.3266(2)
H20 H 0.6565 0.8480 0.3001
H21 H 0.7854 0.7471 0.3344
H22 H 0.6283 0.7700 0.3739
loop_
_geom_bond_atom_site_label_1
_geom_bond_atom_site_label_2
_geom_bond_site_symmetry_1
_geom_bond_site_symmetry_2
O1 C2 1_555 1_555
O2 C10 1_555 1_555
O3 C5 1_555 1_555
O4 C15 1_555 1_555
C1 C2 1_555 1_555
C2 C3 1_555 1_555
C3 H1 1_555 1_555
H2 C3 1_555 1_555
C4 C3 1_555 1_555
H3 C4 1_555 1_555
H4 C4 1_555 1_555
C5 C4 1_555 1_555
H5 C5 1_555 1_555
C6 C1 1_555 1_555
C7 C6 1_555 1_555
H6 C7 1_555 1_555
H7 C7 1_555 1_555
C8 C7 1_555 1_555
H8 C8 1_555 1_555
H9 C8 1_555 1_555
C9 C8 1_555 1_555
H10 C9 1_555 1_555
H11 C9 1_555 1_555
C10 C6 1_555 1_555
C11 C1 1_555 1_555
H12 C11 1_555 1_555
H13 C11 1_555 1_555
C12 C11 1_555 1_555
C13 C12 1_555 1_555
H14 C13 1_555 1_555
C14 C1 1_555 1_555
H15 C14 1_555 1_555
H16 C14 1_555 1_555
H17 C14 1_555 1_555
C15 O3 1_555 1_555
H18 C15 1_555 1_555
H19 C15 1_555 1_555
C16 O4 1_555 1_555
H20 C16 1_555 1_555
H21 C16 1_555 1_555
H22 C16 1_555 1_555
C5 C6 1_555 1_555
C9 C10 1_555 1_555

#END
