
#######################################################################
#
#                 Cambridge Crystallographic Data Centre
#                                CCDC 
#
#######################################################################
#
# If this CIF has been generated from an entry in the Cambridge 
# Structural Database, then it will include bibliographic, chemical, 
# crystal, experimental, refinement or atomic coordinate data resulting 
# from the CCDC's data processing and validation procedures.
#
#######################################################################

data_VECFAN
_chemical_formula_moiety         'C16 H22 O4'
_chemical_name_systematic        
10-(methoxymethoxy)-6-methyl-6-(prop-2-yn-1-yl)spiro[4.5]decane-1,7-dione
_symmetry_cell_setting           monoclinic
_symmetry_space_group_name_H-M   'P 21/n'
_symmetry_Int_Tables_number      14
_space_group_name_Hall           '-P 2yn'
loop_
_symmetry_equiv_pos_site_id
_symmetry_equiv_pos_as_xyz
1 x,y,z
2 1/2-x,1/2+y,1/2-z
3 -x,-y,-z
4 1/2+x,1/2-y,1/2+z
_cell_length_a                   10.7343(9)
_cell_length_b                   13.3055(8)
_cell_length_c                   11.7856(11)
_cell_angle_alpha                90
_cell_angle_beta                 114.177(10)
_cell_angle_gamma                90
_cell_volume                     1535.63
_cell_formula_units_Z            4
loop_
_atom_site_label
_atom_site_type_symbol
_atom_site_fract_x
_atom_site_fract_y
_atom_site_fract_z
O1 O 1.33608(18) 0.16458(14) 0.75171(18)
O2 O 1.18906(19) 0.31867(14) 0.87130(18)
O3 O 0.86073(19) 0.23367(14) 0.76714(18)
O4 O 0.6697(2) 0.12956(17) 0.6799(3)
C1 C 1.1151(2) 0.23064(18) 0.6211(2)
C2 C 1.2134(3) 0.15769(19) 0.7153(3)
C3 C 1.1488(3) 0.0742(2) 0.7578(3)
H1 H 1.2192 0.0375 0.8245
H2 H 1.1045 0.0279 0.6894
C4 C 1.0438(3) 0.1133(2) 0.8036(3)
H3 H 0.9944 0.0569 0.8172
H4 H 1.0909 0.1473 0.8826
C5 C 0.9430(3) 0.18539(19) 0.7122(3)
H5 H 0.8831 0.1479 0.6384
C6 C 1.0118(2) 0.27265(17) 0.6711(2)
C7 C 1.0851(3) 0.34110(19) 0.7834(3)
C8 C 1.0114(3) 0.4386(2) 0.7688(3)
H6 H 1.0657 0.4933 0.7586
H7 H 0.9930 0.4521 0.8413
C9 C 0.9015(3) 0.34208(19) 0.5780(2)
H8 H 0.9326 0.3683 0.5173
H9 H 0.8178 0.3048 0.5342
C10 C 1.0367(3) 0.1711(2) 0.4975(3)
H10 H 0.9717 0.1262 0.5091
H11 H 0.9855 0.2183 0.4323
C11 C 1.1268(3) 0.1120(2) 0.4571(3)
C12 C 1.1992(3) 0.0633(2) 0.4286(3)
H12 H 1.2572 0.0243 0.4058
C13 C 1.1977(3) 0.31459(19) 0.5951(3)
H13 H 1.1367 0.3600 0.5344
H14 H 1.2595 0.2858 0.5640
H15 H 1.2486 0.3505 0.6707
C14 C 0.7664(3) 0.1697(2) 0.7870(3)
H16 H 0.8162 0.1152 0.8414
H17 H 0.7207 0.2073 0.8293
C15 C 0.5683(4) 0.1995(3) 0.6101(4)
H18 H 0.5040 0.1676 0.5363
H19 H 0.6102 0.2551 0.5874
H20 H 0.5217 0.2233 0.6592
C16 C 0.8763(6) 0.4281(4) 0.6516(6)
H21 H 0.8012 0.4123 0.6743
H22 H 0.8552 0.4898 0.6035
H23? H 1.0747 0.4934 0.8054
H24? H 0.9466 0.4359 0.8068
H25? H 0.8115 0.3239 0.5720
H26? H 0.9020 0.3371 0.4960
C17? C 0.9398(11) 0.4502(8) 0.6306(11)
H27? H 0.9994 0.4818 0.5977
H28? H 0.8584 0.4911 0.6088
loop_
_geom_bond_atom_site_label_1
_geom_bond_atom_site_label_2
_geom_bond_site_symmetry_1
_geom_bond_site_symmetry_2
O1 C2 1_555 1_555
O2 C7 1_555 1_555
O3 C5 1_555 1_555
O4 C14 1_555 1_555
C1 C2 1_555 1_555
C2 C3 1_555 1_555
C3 H1 1_555 1_555
H2 C3 1_555 1_555
C4 C3 1_555 1_555
H3 C4 1_555 1_555
H4 C4 1_555 1_555
C5 C4 1_555 1_555
H5 C5 1_555 1_555
C6 C1 1_555 1_555
C7 C6 1_555 1_555
C8 C7 1_555 1_555
H6 C8 1_555 1_555
H7 C8 1_555 1_555
C9 C6 1_555 1_555
H8 C9 1_555 1_555
H9 C9 1_555 1_555
C10 C1 1_555 1_555
H10 C10 1_555 1_555
H11 C10 1_555 1_555
C11 C10 1_555 1_555
C12 C11 1_555 1_555
H12 C12 1_555 1_555
C13 C1 1_555 1_555
H13 C13 1_555 1_555
H14 C13 1_555 1_555
H15 C13 1_555 1_555
C14 O3 1_555 1_555
H16 C14 1_555 1_555
H17 C14 1_555 1_555
C15 O4 1_555 1_555
H18 C15 1_555 1_555
H19 C15 1_555 1_555
H20 C15 1_555 1_555
C16 C8 1_555 1_555
H21 C16 1_555 1_555
H22 C16 1_555 1_555
C5 C6 1_555 1_555
C9 C16 1_555 1_555

#END
