
#######################################################################
#
#                 Cambridge Crystallographic Data Centre
#                                CCDC 
#
#######################################################################
#
# If this CIF has been generated from an entry in the Cambridge 
# Structural Database, then it will include bibliographic, chemical, 
# crystal, experimental, refinement or atomic coordinate data resulting 
# from the CCDC's data processing and validation procedures.
#
#######################################################################

data_VECQUP
_chemical_formula_moiety         'C17 H16 O3'
_chemical_name_systematic        
4,5-Dimethyl-4,5-diphenyl-1,3-dioxacyclopentan-2-one
_symmetry_cell_setting           monoclinic
_symmetry_space_group_name_H-M   'P 21/n'
_symmetry_Int_Tables_number      14
_space_group_name_Hall           '-P 2yn'
loop_
_symmetry_equiv_pos_site_id
_symmetry_equiv_pos_as_xyz
1 x,y,z
2 1/2-x,1/2+y,1/2-z
3 -x,-y,-z
4 1/2+x,1/2-y,1/2+z
_cell_length_a                   13.602(4)
_cell_length_b                   7.015(3)
_cell_length_c                   15.040(4)
_cell_angle_alpha                90
_cell_angle_beta                 96.90(3)
_cell_angle_gamma                90
_cell_volume                     1424.69
_exptl_crystal_colour            white
_chemical_melting_point          105-106deg.C
_cell_formula_units_Z            4
loop_
_atom_site_label
_atom_site_type_symbol
_atom_site_fract_x
_atom_site_fract_y
_atom_site_fract_z
O1 O 0.90932(15) 0.0301(3) 0.05124(13)
O2 O 1.03583(13) -0.0377(3) 0.15581(12)
O3 O 0.93739(14) -0.2692(3) 0.09908(12)
C1 C 0.95753(20) -0.0815(4) 0.09769(18)
C2 C 1.08350(19) -0.2120(4) 0.19218(17)
C3 C 0.99532(20) -0.3569(4) 0.17652(18)
C4 C 1.16594(21) -0.2567(5) 0.13586(19)
C5 C 1.0244(3) -0.5553(5) 0.1487(3)
C6 C 1.12111(19) -0.1722(4) 0.28973(17)
C7 C 1.19979(23) -0.2718(5) 0.33193(20)
C8 C 1.2336(3) -0.2429(5) 0.42196(21)
C9 C 1.1872(3) -0.1095(6) 0.46888(20)
C10 C 1.1087(3) -0.0050(6) 0.42781(21)
C11 C 1.07542(21) -0.0369(5) 0.33798(20)
C12 C 0.93088(20) -0.3643(4) 0.25254(18)
C13 C 0.84495(23) -0.2601(5) 0.25100(22)
C14 C 0.7877(3) -0.2687(6) 0.3219(3)
C15 C 0.8162(3) -0.3811(7) 0.39447(25)
C16 C 0.9016(3) -0.4849(6) 0.39713(24)
C17 C 0.95949(24) -0.4781(5) 0.32747(23)
H1 H 1.2014(20) -0.375(4) 0.1584(18)
H2 H 1.2201(20) -0.161(4) 0.1444(19)
H3 H 1.1337(23) -0.271(5) 0.0715(22)
H4 H 1.066(3) -0.542(5) 0.0986(23)
H5 H 0.9687(23) -0.627(5) 0.1365(21)
H6 H 1.077(3) -0.619(5) 0.2008(23)
H7 H 1.2308(25) -0.361(5) 0.2993(22)
H8 H 1.303(3) -0.306(5) 0.4543(24)
H9 H 1.2150(25) -0.082(5) 0.5339(22)
H10 H 1.0722(20) 0.085(4) 0.4573(18)
H11 H 1.0130(18) 0.032(4) 0.3114(17)
H12 H 0.812(3) -0.190(6) 0.198(3)
H13 H 0.719(3) -0.183(6) 0.313(3)
H14 H 0.771(3) -0.369(6) 0.4427(24)
H15 H 0.929(3) -0.566(6) 0.4489(25)
H16 H 1.0213(21) -0.556(4) 0.3255(20)
loop_
_geom_bond_atom_site_label_1
_geom_bond_atom_site_label_2
_geom_bond_site_symmetry_1
_geom_bond_site_symmetry_2
O1 C1 1_555 1_555
O2 C1 1_555 1_555
O3 C1 1_555 1_555
C2 O2 1_555 1_555
C3 O3 1_555 1_555
C4 C2 1_555 1_555
C5 C3 1_555 1_555
C6 C2 1_555 1_555
C7 C6 1_555 1_555
C8 C7 1_555 1_555
C9 C8 1_555 1_555
C10 C9 1_555 1_555
C11 C6 1_555 1_555
C12 C3 1_555 1_555
C13 C12 1_555 1_555
C14 C13 1_555 1_555
C15 C14 1_555 1_555
C16 C15 1_555 1_555
C17 C12 1_555 1_555
H1 C4 1_555 1_555
H2 C4 1_555 1_555
H3 C4 1_555 1_555
H4 C5 1_555 1_555
H5 C5 1_555 1_555
H6 C5 1_555 1_555
H7 C7 1_555 1_555
H8 C8 1_555 1_555
H9 C9 1_555 1_555
H10 C10 1_555 1_555
H11 C11 1_555 1_555
H12 C13 1_555 1_555
H13 C14 1_555 1_555
H14 C15 1_555 1_555
H15 C16 1_555 1_555
H16 C17 1_555 1_555
C2 C3 1_555 1_555
C10 C11 1_555 1_555
C16 C17 1_555 1_555

#END
