
#######################################################################
#
#                 Cambridge Crystallographic Data Centre
#                                CCDC 
#
#######################################################################
#
# If this CIF has been generated from an entry in the Cambridge 
# Structural Database, then it will include bibliographic, chemical, 
# crystal, experimental, refinement or atomic coordinate data resulting 
# from the CCDC's data processing and validation procedures.
#
#######################################################################

data_VECXIM
_chemical_formula_moiety         'C20 H16 N2 O3'
_chemical_name_systematic        
4-((5-(Benzyloxy)-1H-indol-3-yl)methylene)-3-methyl-1,2-oxazol-5(4H)-one
_symmetry_cell_setting           monoclinic
_symmetry_space_group_name_H-M   'P 21/n'
_symmetry_Int_Tables_number      14
_space_group_name_Hall           '-P 2yn'
loop_
_symmetry_equiv_pos_site_id
_symmetry_equiv_pos_as_xyz
1 x,y,z
2 1/2-x,1/2+y,1/2-z
3 -x,-y,-z
4 1/2+x,1/2-y,1/2+z
_cell_length_a                   7.3056(19)
_cell_length_b                   19.681(5)
_cell_length_c                   11.445(3)
_cell_angle_alpha                90
_cell_angle_beta                 105.063(4)
_cell_angle_gamma                90
_cell_volume                     1589.04
_exptl_crystal_colour            red
_chemical_melting_point          240-242deg.C
_cell_formula_units_Z            4
loop_
_atom_site_label
_atom_site_type_symbol
_atom_site_fract_x
_atom_site_fract_y
_atom_site_fract_z
N1 N 0.1561(3) 1.17069(10) 0.36528(19)
H1 H 0.1256 1.2083 0.3268
N2 N 0.6610(4) 1.09103(12) 0.9276(2)
O1 O 0.0264(3) 0.90197(8) 0.25159(16)
O2 O 0.5201(3) 1.21629(9) 0.71281(17)
O3 O 0.6463(3) 1.16054(9) 0.88410(16)
C1 C -0.0789(5) 0.76796(15) 0.2526(3)
H2 H -0.0387 0.7914 0.3253
C2 C -0.1070(5) 0.69852(16) 0.2537(3)
H3 H -0.0841 0.6755 0.3271
C3 C -0.1684(5) 0.66340(15) 0.1475(3)
H4 H -0.1895 0.6168 0.1485
C4 C -0.1987(5) 0.69730(15) 0.0396(3)
H5 H -0.2388 0.6735 -0.0327
C5 C -0.1701(5) 0.76639(14) 0.0376(3)
H6 H -0.1914 0.7889 -0.0362
C6 C -0.1100(4) 0.80273(13) 0.1444(2)
C7 C -0.0876(4) 0.87868(13) 0.1384(2)
H7 H -0.0281 0.8902 0.0745
H8 H -0.2110 0.9004 0.1207
C8 C 0.0470(4) 0.97104(12) 0.2691(2)
C9 C -0.0281(4) 1.01931(13) 0.1799(2)
H9 H -0.0974 1.0051 0.1037
C10 C -0.0004(4) 1.08780(13) 0.2037(2)
H10 H -0.0510 1.1202 0.1451
C11 C 0.1044(4) 1.10637(12) 0.3169(2)
C12 C 0.1815(4) 1.05916(12) 0.4078(2)
C13 C 0.1504(4) 0.99022(12) 0.3832(2)
H11 H 0.1982 0.9578 0.4424
C14 C 0.2591(4) 1.16573(12) 0.4793(2)
H12 H 0.3083 1.2023 0.5290
C15 C 0.2826(4) 1.09720(12) 0.5135(2)
C16 C 0.3779(4) 1.06802(12) 0.6240(2)
H13 H 0.3652 1.0210 0.6247
C17 C 0.4857(4) 1.09336(12) 0.7313(2)
C18 C 0.5437(4) 1.16228(13) 0.7663(2)
C19 C 0.5682(4) 1.05450(14) 0.8378(2)
C20 C 0.5566(4) 0.97953(14) 0.8507(2)
H14 H 0.6321 0.9660 0.9291
H15 H 0.6030 0.9576 0.7892
H16 H 0.4271 0.9666 0.8423
loop_
_geom_bond_atom_site_label_1
_geom_bond_atom_site_label_2
_geom_bond_site_symmetry_1
_geom_bond_site_symmetry_2
N1 H1 1_555 1_555
N2 O3 1_555 1_555
O1 C7 1_555 1_555
O2 C18 1_555 1_555
O3 C18 1_555 1_555
C1 H2 1_555 1_555
C2 C1 1_555 1_555
H3 C2 1_555 1_555
C3 C2 1_555 1_555
H4 C3 1_555 1_555
C4 C3 1_555 1_555
H5 C4 1_555 1_555
C5 C4 1_555 1_555
H6 C5 1_555 1_555
C6 C1 1_555 1_555
C7 C6 1_555 1_555
H7 C7 1_555 1_555
H8 C7 1_555 1_555
C8 O1 1_555 1_555
C9 C8 1_555 1_555
H9 C9 1_555 1_555
C10 C9 1_555 1_555
H10 C10 1_555 1_555
C11 N1 1_555 1_555
C12 C11 1_555 1_555
C13 C8 1_555 1_555
H11 C13 1_555 1_555
C14 N1 1_555 1_555
H12 C14 1_555 1_555
C15 C12 1_555 1_555
C16 C15 1_555 1_555
H13 C16 1_555 1_555
C17 C16 1_555 1_555
C18 C17 1_555 1_555
C19 N2 1_555 1_555
C20 C19 1_555 1_555
H14 C20 1_555 1_555
H15 C20 1_555 1_555
H16 C20 1_555 1_555
C5 C6 1_555 1_555
C10 C11 1_555 1_555
C12 C13 1_555 1_555
C14 C15 1_555 1_555
C17 C19 1_555 1_555

#END
