
#######################################################################
#
#                 Cambridge Crystallographic Data Centre
#                                CCDC 
#
#######################################################################
#
# If this CIF has been generated from an entry in the Cambridge 
# Structural Database, then it will include bibliographic, chemical, 
# crystal, experimental, refinement or atomic coordinate data resulting 
# from the CCDC's data processing and validation procedures.
#
#######################################################################

data_VEDBEN
_chemical_formula_moiety         'C40 H66 Li2 N4 O2 Si2,C4 H8 O1'
_chemical_name_systematic        
"bis(\m~2~-N-Cyclohexyl-N'-trimethylsilylbenzamidinato)-bis(tetrahydrofuran)-di-lithium tetrahydrofuran solvate"
_symmetry_cell_setting           orthorhombic
_symmetry_space_group_name_H-M   'P n a 21'
_symmetry_Int_Tables_number      33
_space_group_name_Hall           'P 2c -2n'
loop_
_symmetry_equiv_pos_site_id
_symmetry_equiv_pos_as_xyz
1 x,y,z
2 -x,-y,1/2+z
3 1/2+x,1/2-y,z
4 1/2-x,1/2+y,1/2+z
_cell_length_a                   32.031(19)
_cell_length_b                   9.999(6)
_cell_length_c                   15.155(9)
_cell_angle_alpha                90
_cell_angle_beta                 90
_cell_angle_gamma                90
_cell_volume                     4853.81
_exptl_crystal_colour            colorless
_exptl_crystal_description       block
_cell_formula_units_Z            4
loop_
_atom_site_label
_atom_site_type_symbol
_atom_site_fract_x
_atom_site_fract_y
_atom_site_fract_z
Li1 Li 0.0939(3) -0.0442(11) 0.1035(7)
Li2 Li 0.1338(3) 0.1065(13) 0.0048(8)
N1 N 0.14776(16) -0.1032(5) 0.0323(3)
N2 N 0.13710(16) -0.0068(6) -0.1034(4)
N3 N 0.09658(16) 0.0716(6) 0.2126(4)
N4 N 0.07925(15) 0.1669(5) 0.0788(3)
O1 O 0.04542(13) -0.1529(5) 0.0925(4)
O2 O 0.18057(15) 0.2244(5) 0.0165(4)
Si1 Si 0.13454(6) 0.0113(2) -0.21540(16)
Si2 Si 0.04971(6) 0.2584(2) 0.00609(16)
C1 C 0.15348(19) -0.1049(7) -0.0530(4)
C2 C 0.1803(2) -0.2079(8) -0.0982(4)
C3 C 0.1621(3) -0.3224(8) -0.1303(6)
H1 H 0.1334 -0.3381 -0.1233
C4 C 0.1878(5) -0.4153(10) -0.1740(7)
H2 H 0.1762 -0.4951 -0.1958
C5 C 0.2294(5) -0.3912(15) -0.1852(8)
H3 H 0.2459 -0.4534 -0.2158
C6 C 0.2466(4) -0.2815(14) -0.1534(8)
H4 H 0.2753 -0.2655 -0.1613
C7 C 0.2225(2) -0.1914(10) -0.1089(6)
H5 H 0.2353 -0.1152 -0.0847
C8 C 0.17227(18) -0.1977(7) 0.0870(4)
H6 H 0.1826 -0.2700 0.0481
C9 C 0.1461(2) -0.2606(8) 0.1582(5)
H7 H 0.1235 -0.3117 0.1306
H8 H 0.1333 -0.1895 0.1936
C10 C 0.1707(3) -0.3538(8) 0.2198(5)
H9 H 0.1527 -0.3828 0.2684
H10 H 0.1795 -0.4335 0.1870
C11 C 0.2090(3) -0.2841(9) 0.2572(6)
H11 H 0.2257 -0.3486 0.2907
H12 H 0.2002 -0.2131 0.2977
C12 C 0.2355(3) -0.2242(9) 0.1837(6)
H13 H 0.2464 -0.2962 0.1463
H14 H 0.2593 -0.1766 0.2095
C13 C 0.2099(2) -0.1274(8) 0.1272(5)
H15 H 0.2004 -0.0525 0.1637
H16 H 0.2275 -0.0913 0.0800
C14 C 0.1823(2) -0.0351(10) -0.2805(5)
H17 H 0.2070 -0.0032 -0.2501
H18 H 0.1809 0.0056 -0.3386
H19 H 0.1837 -0.1315 -0.2866
C15 C 0.1259(3) 0.1918(9) -0.2395(6)
H20 H 0.1037 0.2258 -0.2022
H21 H 0.1181 0.2025 -0.3010
H22 H 0.1514 0.2412 -0.2280
C16 C 0.0902(2) -0.0868(10) -0.2629(5)
H23 H 0.0960 -0.1816 -0.2571
H24 H 0.0870 -0.0644 -0.3248
H25 H 0.0647 -0.0652 -0.2314
C17 C 0.07944(18) 0.1711(7) 0.1676(4)
C18 C 0.05806(19) 0.2870(7) 0.2138(4)
C19 C 0.0191(2) 0.2718(8) 0.2541(5)
H26 H 0.0067 0.1866 0.2560
C20 C -0.0013(2) 0.3778(9) 0.2909(5)
H27 H -0.0275 0.3648 0.3176
C21 C 0.0162(3) 0.5035(10) 0.2893(6)
H28 H 0.0016 0.5772 0.3126
C22 C 0.0547(3) 0.5195(8) 0.2533(6)
H29 H 0.0676 0.6039 0.2549
C23 C 0.0756(2) 0.4114(8) 0.2137(5)
H30 H 0.1017 0.4249 0.1871
C24 C 0.0995(2) 0.0737(7) 0.3091(4)
H31 H 0.0827 0.1490 0.3322
C25 C 0.0822(3) -0.0564(10) 0.3446(5)
H32 H 0.0961 -0.1312 0.3149
H33 H 0.0523 -0.0614 0.3306
C26 C 0.0879(3) -0.0712(12) 0.4455(5)
H34 H 0.0717 -0.0024 0.4762
H35 H 0.0778 -0.1590 0.4646
C27 C 0.1329(3) -0.0570(11) 0.4682(6)
H36 H 0.1487 -0.1301 0.4409
H37 H 0.1363 -0.0641 0.5323
C28 C 0.1503(3) 0.0738(13) 0.4376(6)
H38 H 0.1802 0.0778 0.4513
H39 H 0.1364 0.1470 0.4690
C29 C 0.1439(2) 0.0914(10) 0.3371(5)
H40 H 0.1533 0.1809 0.3198
H41 H 0.1613 0.0261 0.3058
C30 C 0.0339(2) 0.1401(8) -0.0832(5)
H42 H 0.0585 0.0952 -0.1062
H43 H 0.0204 0.1893 -0.1303
H44 H 0.0147 0.0742 -0.0595
C31 C 0.0823(3) 0.3969(8) -0.0425(6)
H45 H 0.0909 0.4576 0.0040
H46 H 0.0659 0.4454 -0.0859
H47 H 0.1068 0.3591 -0.0707
C32 C -0.0001(3) 0.3356(10) 0.0461(6)
H48 H -0.0168 0.2681 0.0754
H49 H -0.0155 0.3715 -0.0037
H50 H 0.0063 0.4070 0.0873
C33 C 0.0372(3) -0.2405(9) 0.0200(7)
H51 H 0.0509 -0.3269 0.0302
H52 H 0.0486 -0.2021 -0.0344
C34 C -0.0076(3) -0.2596(11) 0.0111(7)
H53 H -0.0143 -0.3526 -0.0035
H54 H -0.0192 -0.2009 -0.0346
C35 C -0.0243(3) -0.2221(11) 0.1026(6)
H55 H -0.0522 -0.1821 0.0988
H56 H -0.0254 -0.3001 0.1417
C36 C 0.0069(2) -0.1236(10) 0.1334(6)
H57 H -0.0020 -0.0329 0.1180
H58 H 0.0098 -0.1289 0.1977
C37 C 0.2162(3) 0.2262(12) -0.0368(7)
H59 H 0.2089 0.2581 -0.0960
H60 H 0.2275 0.1355 -0.0423
C38 C 0.2465(3) 0.3112(14) 0.0007(10)
H61 H 0.2721 0.2610 0.0140
H62 H 0.2534 0.3840 -0.0400
C39 C 0.2293(4) 0.3616(16) 0.0773(10)
H63 H 0.2284 0.4594 0.0741
H64 H 0.2467 0.3365 0.1278
C40 C 0.1870(3) 0.3098(14) 0.0903(9)
H65 H 0.1849 0.2597 0.1458
H66 H 0.1665 0.3826 0.0910
O3 O 0.3183(8) -0.050(4) 0.001(3)
C41 C 0.3522(11) -0.041(4) -0.055(2)
H67 H 0.3519 0.0428 -0.0886
H68 H 0.3537 -0.1168 -0.0954
C42 C 0.3873(8) -0.043(3) 0.011(2)
H69 H 0.3966 -0.1352 0.0214
H70 H 0.4111 0.0089 -0.0107
C43 C 0.3715(10) 0.016(4) 0.096(2)
H71 H 0.3842 -0.0239 0.1487
H72 H 0.3741 0.1141 0.0981
C44 C 0.3281(9) -0.030(4) 0.080(2)
H73 H 0.3237 -0.1134 0.1124
H74 H 0.3088 0.0366 0.1040
C45? C 0.3416(10) 0.088(4) 0.088(3)
C46? C 0.3827(9) 0.033(5) 0.057(2)
C47? C 0.3821(9) 0.021(4) -0.041(2)
C48? C 0.3357(10) 0.015(5) -0.047(2)
H75? H 0.3322 0.0452 0.1423
H76? H 0.3430 0.1853 0.0969
H77? H 0.4054 0.0926 0.0754
H78? H 0.3874 -0.0550 0.0838
H79? H 0.3939 0.0994 -0.0711
H80? H 0.3957 -0.0608 -0.0625
H81? H 0.3269 0.0661 -0.0991
H82? H 0.3276 -0.0787 -0.0576
O4? O 0.3162(7) 0.056(4) 0.018(3)
loop_
_geom_bond_atom_site_label_1
_geom_bond_atom_site_label_2
_geom_bond_site_symmetry_1
_geom_bond_site_symmetry_2
Li1 N1 1_555 1_555
Li2 N1 1_555 1_555
N1 C1 1_555 1_555
N2 Li2 1_555 1_555
N3 Li1 1_555 1_555
N4 Li1 1_555 1_555
O1 Li1 1_555 1_555
O2 Li2 1_555 1_555
Si1 N2 1_555 1_555
Si2 N4 1_555 1_555
C1 N2 1_555 1_555
C2 C1 1_555 1_555
C3 C2 1_555 1_555
H1 C3 1_555 1_555
C4 C3 1_555 1_555
H2 C4 1_555 1_555
C5 C4 1_555 1_555
H3 C5 1_555 1_555
C6 C5 1_555 1_555
H4 C6 1_555 1_555
C7 C2 1_555 1_555
H5 C7 1_555 1_555
C8 N1 1_555 1_555
H6 C8 1_555 1_555
C9 C8 1_555 1_555
H7 C9 1_555 1_555
H8 C9 1_555 1_555
C10 C9 1_555 1_555
H9 C10 1_555 1_555
H10 C10 1_555 1_555
C11 C10 1_555 1_555
H11 C11 1_555 1_555
H12 C11 1_555 1_555
C12 C11 1_555 1_555
H13 C12 1_555 1_555
H14 C12 1_555 1_555
C13 C8 1_555 1_555
H15 C13 1_555 1_555
H16 C13 1_555 1_555
C14 Si1 1_555 1_555
H17 C14 1_555 1_555
H18 C14 1_555 1_555
H19 C14 1_555 1_555
C15 Si1 1_555 1_555
H20 C15 1_555 1_555
H21 C15 1_555 1_555
H22 C15 1_555 1_555
C16 Si1 1_555 1_555
H23 C16 1_555 1_555
H24 C16 1_555 1_555
H25 C16 1_555 1_555
C17 N3 1_555 1_555
C18 C17 1_555 1_555
C19 C18 1_555 1_555
H26 C19 1_555 1_555
C20 C19 1_555 1_555
H27 C20 1_555 1_555
C21 C20 1_555 1_555
H28 C21 1_555 1_555
C22 C21 1_555 1_555
H29 C22 1_555 1_555
C23 C18 1_555 1_555
H30 C23 1_555 1_555
C24 N3 1_555 1_555
H31 C24 1_555 1_555
C25 C24 1_555 1_555
H32 C25 1_555 1_555
H33 C25 1_555 1_555
C26 C25 1_555 1_555
H34 C26 1_555 1_555
H35 C26 1_555 1_555
C27 C26 1_555 1_555
H36 C27 1_555 1_555
H37 C27 1_555 1_555
C28 C27 1_555 1_555
H38 C28 1_555 1_555
H39 C28 1_555 1_555
C29 C24 1_555 1_555
H40 C29 1_555 1_555
H41 C29 1_555 1_555
C30 Si2 1_555 1_555
H42 C30 1_555 1_555
H43 C30 1_555 1_555
H44 C30 1_555 1_555
C31 Si2 1_555 1_555
H45 C31 1_555 1_555
H46 C31 1_555 1_555
H47 C31 1_555 1_555
C32 Si2 1_555 1_555
H48 C32 1_555 1_555
H49 C32 1_555 1_555
H50 C32 1_555 1_555
C33 O1 1_555 1_555
H51 C33 1_555 1_555
H52 C33 1_555 1_555
C34 C33 1_555 1_555
H53 C34 1_555 1_555
H54 C34 1_555 1_555
C35 C34 1_555 1_555
H55 C35 1_555 1_555
H56 C35 1_555 1_555
C36 O1 1_555 1_555
H57 C36 1_555 1_555
H58 C36 1_555 1_555
C37 O2 1_555 1_555
H59 C37 1_555 1_555
H60 C37 1_555 1_555
C38 C37 1_555 1_555
H61 C38 1_555 1_555
H62 C38 1_555 1_555
C39 C38 1_555 1_555
H63 C39 1_555 1_555
H64 C39 1_555 1_555
C40 O2 1_555 1_555
H65 C40 1_555 1_555
H66 C40 1_555 1_555
O3 C41 1_555 1_555
C41 H67 1_555 1_555
H68 C41 1_555 1_555
C42 C41 1_555 1_555
H69 C42 1_555 1_555
H70 C42 1_555 1_555
C43 C42 1_555 1_555
H71 C43 1_555 1_555
H72 C43 1_555 1_555
C44 O3 1_555 1_555
H73 C44 1_555 1_555
H74 C44 1_555 1_555
Li2 N4 1_555 1_555
N4 C17 1_555 1_555
C6 C7 1_555 1_555
C12 C13 1_555 1_555
C22 C23 1_555 1_555
C28 C29 1_555 1_555
C35 C36 1_555 1_555
C39 C40 1_555 1_555
C43 C44 1_555 1_555

#END
