
#######################################################################
#
#                 Cambridge Crystallographic Data Centre
#                                CCDC 
#
#######################################################################
#
# If this CIF has been generated from an entry in the Cambridge 
# Structural Database, then it will include bibliographic, chemical, 
# crystal, experimental, refinement or atomic coordinate data resulting 
# from the CCDC's data processing and validation procedures.
#
#######################################################################

data_VEDCOY
_chemical_formula_moiety         
'C50 H64 O20,C16 H14 N2 2+,2(C2 H3 N1),2(F6 P1 1-)'
_chemical_name_systematic        
'(2)-(bis(5-(3,4,5-Trimethoxybenzoatomethyl)-m-phenylene)-32-crown-10)-(2,7-dimethyl-2,7-diazaazapyrenium)-pseudorotaxane bis(hexafluorophosphate) acetonitrile solvate'
_symmetry_cell_setting           triclinic
_symmetry_space_group_name_H-M   'P -1'
_symmetry_Int_Tables_number      2
_space_group_name_Hall           '-P 1'
loop_
_symmetry_equiv_pos_site_id
_symmetry_equiv_pos_as_xyz
1 x,y,z
2 -x,-y,-z
_cell_length_a                   11.1390(9)
_cell_length_b                   11.9736(7)
_cell_length_c                   15.3398(10)
_cell_angle_alpha                110.014(6)
_cell_angle_beta                 106.655(7)
_cell_angle_gamma                94.675(6)
_cell_volume                     1804.7
_exptl_crystal_colour            yellow
_exptl_crystal_description       block
_cell_formula_units_Z            1
loop_
_atom_site_label
_atom_site_type_symbol
_atom_site_fract_x
_atom_site_fract_y
_atom_site_fract_z
P1 P 0.62995(7) 0.76985(7) 0.29764(6)
F1 F 0.53872(19) 0.71332(16) 0.34129(14)
F2 F 0.71181(19) 0.66663(17) 0.29979(17)
F3 F 0.5406(2) 0.68581(18) 0.18880(14)
F4 F 0.7236(2) 0.82731(19) 0.25607(18)
F5 F 0.7212(2) 0.85419(19) 0.40806(15)
F6 F 0.55013(19) 0.87413(17) 0.29775(17)
O1 O -0.23620(19) 0.59020(18) -0.02681(15)
O2 O -0.0861(2) 0.57503(17) -0.13806(14)
O3 O 0.1679(2) 0.64558(18) -0.05798(15)
O4 O 0.07172(19) 0.80555(17) 0.32991(14)
O5 O 0.26234(18) 0.79756(16) 0.30854(13)
O6 O 0.2118(2) 0.9239(2) 0.86770(16)
O7 O 0.31254(19) 0.78453(17) 0.71013(14)
O8 O 0.31617(19) 0.45650(16) 0.42683(14)
O9 O 0.24865(19) 0.20176(16) 0.33486(15)
O10 O 0.0447(2) 0.02022(18) 0.18881(14)
C1 C -0.3183(3) 0.6057(3) 0.0315(2)
H1 H -0.4052 0.5710 -0.0108
H2 H -0.3106 0.6906 0.0676
H3 H -0.2940 0.5658 0.0767
C2 C -0.1245(3) 0.6681(3) -0.1727(2)
H4 H -0.1652 0.6331 -0.2429
H5 H -0.0506 0.7285 -0.1560
H6 H -0.1833 0.7049 -0.1424
C3 C 0.2999(3) 0.7003(3) -0.0169(3)
H7 H 0.3357 0.6873 -0.0687
H8 H 0.3436 0.6648 0.0275
H9 H 0.3098 0.7858 0.0184
C4 C 0.1575(3) 0.7070(2) 0.1087(2)
H10 H 0.2459 0.7307 0.1380
C5 C 0.1014(3) 0.6586(2) 0.0064(2)
C6 C -0.0305(3) 0.6219(2) -0.0365(2)
C7 C -0.1080(3) 0.6310(2) 0.0225(2)
C8 C -0.0526(3) 0.6826(2) 0.1247(2)
H11 H -0.1032 0.6923 0.1645
C9 C 0.0792(3) 0.7194(2) 0.1662(2)
C10 C 0.1341(3) 0.7775(2) 0.2758(2)
C11 C 0.3239(3) 0.8559(2) 0.4139(2)
H12 H 0.2849 0.9240 0.4391
H13 H 0.4134 0.8875 0.4281
C12 C 0.3148(3) 0.7712(2) 0.4669(2)
C13 C 0.3119(3) 0.6488(2) 0.4220(2)
H14 H 0.3099 0.6161 0.3570
C14 C 0.3120(2) 0.5746(2) 0.4758(2)
C15 C 0.3113(2) 0.6225(2) 0.5717(2)
H15 H 0.3090 0.5726 0.6064
C16 C 0.3141(2) 0.7459(2) 0.61563(19)
C17 C 0.3170(3) 0.8211(2) 0.5642(2)
H16 H 0.3205 0.9037 0.5942
C18 C 0.3478(3) 0.9129(3) 0.7670(2)
H17 H 0.2906 0.9549 0.7351
H18 H 0.4344 0.9435 0.7731
C19 C 0.3387(3) 0.9334(3) 0.8675(2)
H19 H 0.3772 0.8745 0.8906
H20 H 0.3871 1.0135 0.9133
C20 C 0.1769(4) 1.0453(3) 0.8935(2)
H21 H 0.2396 1.1021 0.9547
H22 H 0.1750 1.0755 0.8421
C21 C 0.3334(3) 0.3796(2) 0.4823(2)
H23 H 0.2576 0.3651 0.4990
H24 H 0.4055 0.4184 0.5428
C22 C 0.3569(3) 0.2626(3) 0.4204(2)
H25 H 0.4307 0.2781 0.4017
H26 H 0.3749 0.2117 0.4582
C23 C 0.2672(3) 0.0867(3) 0.2780(2)
H27 H 0.2627 0.0312 0.3110
H28 H 0.3511 0.0952 0.2713
C24 C 0.1666(3) 0.0373(3) 0.1788(2)
H29 H 0.1704 0.0933 0.1461
H30 H 0.1812 -0.0394 0.1389
C25 C 0.0522(3) 1.0333(3) 0.9041(2)
H31 H 0.0385 1.1128 0.9396
H32 H 0.0483 0.9837 0.9420
O1A O 0.23620(19) 0.40980(18) 1.02681(15)
O2A O 0.0861(2) 0.42497(17) 1.13806(14)
O3A O -0.1679(2) 0.35442(18) 1.05798(15)
O4A O -0.07172(19) 0.19445(17) 0.67009(14)
O5A O -0.26234(18) 0.20244(16) 0.69146(13)
O6A O -0.2118(2) 0.0761(2) 0.13230(16)
O7A O -0.31254(19) 0.21547(17) 0.28987(14)
O8A O -0.31617(19) 0.54350(16) 0.57317(14)
O9A O -0.24865(19) 0.79824(16) 0.66514(15)
O10A O -0.0447(2) 0.97978(18) 0.81119(14)
C1A C 0.3183(3) 0.3943(3) 0.9685(2)
H1A H 0.4052 0.4290 1.0108
H2A H 0.3106 0.3094 0.9324
H3A H 0.2940 0.4342 0.9233
C2A C 0.1245(3) 0.3319(3) 1.1727(2)
H4A H 0.1652 0.3669 1.2429
H5A H 0.0506 0.2715 1.1560
H6A H 0.1833 0.2951 1.1424
C3A C -0.2999(3) 0.2997(3) 1.0169(3)
H7A H -0.3357 0.3127 1.0687
H8A H -0.3436 0.3352 0.9725
H9A H -0.3098 0.2142 0.9816
C4A C -0.1575(3) 0.2930(2) 0.8913(2)
H10A H -0.2459 0.2693 0.8620
C5A C -0.1014(3) 0.3414(2) 0.9936(2)
C6A C 0.0305(3) 0.3781(2) 1.0365(2)
C7A C 0.1080(3) 0.3690(2) 0.9775(2)
C8A C 0.0526(3) 0.3174(2) 0.8753(2)
H11A H 0.1032 0.3077 0.8355
C9A C -0.0792(3) 0.2806(2) 0.8338(2)
C10A C -0.1341(3) 0.2225(2) 0.7242(2)
C11A C -0.3239(3) 0.1441(2) 0.5861(2)
H12A H -0.2849 0.0760 0.5609
H13A H -0.4134 0.1125 0.5719
C12A C -0.3148(3) 0.2288(2) 0.5331(2)
C13A C -0.3119(3) 0.3512(2) 0.5780(2)
H14A H -0.3099 0.3839 0.6430
C14A C -0.3120(2) 0.4254(2) 0.5242(2)
C15A C -0.3113(2) 0.3775(2) 0.4283(2)
H15A H -0.3090 0.4274 0.3936
C16A C -0.3141(2) 0.2541(2) 0.38437(19)
C17A C -0.3170(3) 0.1789(2) 0.4358(2)
H16A H -0.3205 0.0963 0.4058
C18A C -0.3478(3) 0.0871(3) 0.2330(2)
H17A H -0.2906 0.0451 0.2649
H18A H -0.4344 0.0565 0.2269
C19A C -0.3387(3) 0.0666(3) 0.1325(2)
H19A H -0.3772 0.1255 0.1094
H20A H -0.3871 -0.0135 0.0867
C20A C -0.1769(4) -0.0453(3) 0.1065(2)
H21A H -0.2396 -0.1021 0.0453
H22A H -0.1750 -0.0755 0.1579
C21A C -0.3334(3) 0.6204(2) 0.5177(2)
H23A H -0.2576 0.6349 0.5010
H24A H -0.4055 0.5816 0.4572
C22A C -0.3569(3) 0.7374(3) 0.5796(2)
H25A H -0.4307 0.7219 0.5983
H26A H -0.3749 0.7883 0.5418
C23A C -0.2672(3) 0.9133(3) 0.7220(2)
H27A H -0.2627 0.9688 0.6890
H28A H -0.3511 0.9048 0.7287
C24A C -0.1666(3) 0.9627(3) 0.8212(2)
H29A H -0.1704 0.9067 0.8539
H30A H -0.1812 1.0394 0.8611
C25A C -0.0522(3) -0.0333(3) 0.0959(2)
H31A H -0.0385 -0.1128 0.0604
H32A H -0.0483 0.0163 0.0580
N1 N 0.0059(2) 0.19537(19) 0.43038(16)
C26 C 0.0072(3) 0.0644(2) 0.4008(2)
H33 H -0.0703 0.0226 0.4005
H34 H 0.0793 0.0527 0.4466
H35 H 0.0134 0.0330 0.3360
C27 C -0.0209(2) 0.2430(2) 0.3606(2)
H36 H -0.0363 0.1933 0.2952
C28 C -0.0258(2) 0.3644(2) 0.3848(2)
C29 C 0.0013(2) 0.4377(2) 0.4857(2)
C30 C 0.0285(2) 0.3854(2) 0.5577(2)
C31 C 0.0292(2) 0.2629(2) 0.5264(2)
H37 H 0.0460 0.2264 0.5720
C32 C 0.0570(3) 0.4616(2) 0.6598(2)
H38 H 0.0758 0.4277 0.7072
C33 C -0.0569(3) 0.4183(2) 0.3123(2)
H39 H -0.0770 0.3702 0.2460
N1A N -0.0059(2) 0.80463(19) 0.56962(16)
C26A C -0.0072(3) 0.9356(2) 0.5992(2)
H33A H 0.0703 0.9774 0.5995
H34A H -0.0793 0.9473 0.5534
H35A H -0.0134 0.9670 0.6640
C27A C 0.0209(2) 0.7570(2) 0.6394(2)
H36A H 0.0363 0.8067 0.7048
C28A C 0.0258(2) 0.6356(2) 0.6152(2)
C29A C -0.0013(2) 0.5623(2) 0.5143(2)
C30A C -0.0285(2) 0.6146(2) 0.4423(2)
C31A C -0.0292(2) 0.7371(2) 0.4736(2)
H37A H -0.0460 0.7736 0.4280
C32A C -0.0570(3) 0.5384(2) 0.3402(2)
H38A H -0.0758 0.5723 0.2928
C33A C 0.0569(3) 0.5817(2) 0.6877(2)
H39A H 0.0770 0.6298 0.7540
N2 N 0.4111(3) 0.1995(3) 0.1233(3)
C34 C 0.4530(3) 0.4284(3) 0.2295(2)
H40 H 0.3908 0.4646 0.1966
H41 H 0.5373 0.4671 0.2390
H42 H 0.4451 0.4383 0.2923
C35 C 0.4317(3) 0.3002(3) 0.1700(2)
loop_
_geom_bond_atom_site_label_1
_geom_bond_atom_site_label_2
_geom_bond_site_symmetry_1
_geom_bond_site_symmetry_2
P1 F1 1_555 1_555
F2 P1 1_555 1_555
F3 P1 1_555 1_555
F4 P1 1_555 1_555
F5 P1 1_555 1_555
F6 P1 1_555 1_555
O1 C1 1_555 1_555
O2 C2 1_555 1_555
O3 C3 1_555 1_555
O4 C10 1_555 1_555
O5 C10 1_555 1_555
O6 C19 1_555 1_555
O7 C16 1_555 1_555
O8 C14 1_555 1_555
O9 C22 1_555 1_555
O10 C24 1_555 1_555
N1 C26 1_555 1_555
N2 C35 1_555 1_555
C1 H1 1_555 1_555
H2 C1 1_555 1_555
H3 C1 1_555 1_555
C2 H4 1_555 1_555
H5 C2 1_555 1_555
H6 C2 1_555 1_555
C3 H7 1_555 1_555
H8 C3 1_555 1_555
H9 C3 1_555 1_555
C4 H10 1_555 1_555
C5 O3 1_555 1_555
C6 O2 1_555 1_555
C7 O1 1_555 1_555
C8 C7 1_555 1_555
H11 C8 1_555 1_555
C9 C4 1_555 1_555
C10 C9 1_555 1_555
C11 O5 1_555 1_555
H12 C11 1_555 1_555
H13 C11 1_555 1_555
C12 C11 1_555 1_555
C13 C12 1_555 1_555
H14 C13 1_555 1_555
C14 C13 1_555 1_555
C15 C14 1_555 1_555
H15 C15 1_555 1_555
C16 C15 1_555 1_555
C17 C12 1_555 1_555
H16 C17 1_555 1_555
C18 O7 1_555 1_555
H17 C18 1_555 1_555
H18 C18 1_555 1_555
C19 C18 1_555 1_555
H19 C19 1_555 1_555
H20 C19 1_555 1_555
C20 O6 1_555 1_555
H21 C20 1_555 1_555
H22 C20 1_555 1_555
C21 O8 1_555 1_555
H23 C21 1_555 1_555
H24 C21 1_555 1_555
C22 C21 1_555 1_555
H25 C22 1_555 1_555
H26 C22 1_555 1_555
C23 O9 1_555 1_555
H27 C23 1_555 1_555
H28 C23 1_555 1_555
C24 C23 1_555 1_555
H29 C24 1_555 1_555
H30 C24 1_555 1_555
C25 C20 1_555 1_555
H31 C25 1_555 1_555
H32 C25 1_555 1_555
C26 H33 1_555 1_555
H34 C26 1_555 1_555
H35 C26 1_555 1_555
C27 N1 1_555 1_555
H36 C27 1_555 1_555
C28 C27 1_555 1_555
C29 C28 1_555 1_555
C30 C29 1_555 1_555
C31 N1 1_555 1_555
H37 C31 1_555 1_555
C32 C30 1_555 1_555
H38 C32 1_555 1_555
C33 C28 1_555 1_555
H39 C33 1_555 1_555
C34 H40 1_555 1_555
H41 C34 1_555 1_555
H42 C34 1_555 1_555
C35 C34 1_555 1_555
O1A C1A 1_555 1_555
O2A C2A 1_555 1_555
O3A C3A 1_555 1_555
O4A C10A 1_555 1_555
O5A C10A 1_555 1_555
O6A C19A 1_555 1_555
O7A C16A 1_555 1_555
O8A C14A 1_555 1_555
O9A C22A 1_555 1_555
O10A C25 1_555 1_555
N1A C26A 1_555 1_555
C1A H1A 1_555 1_555
H2A C1A 1_555 1_555
H3A C1A 1_555 1_555
C2A H4A 1_555 1_555
H5A C2A 1_555 1_555
H6A C2A 1_555 1_555
C3A H7A 1_555 1_555
H8A C3A 1_555 1_555
H9A C3A 1_555 1_555
C4A H10A 1_555 1_555
C5A O3A 1_555 1_555
C6A O2A 1_555 1_555
C7A O1A 1_555 1_555
C8A C7A 1_555 1_555
H11A C8A 1_555 1_555
C9A C4A 1_555 1_555
C10A C9A 1_555 1_555
C11A O5A 1_555 1_555
H12A C11A 1_555 1_555
H13A C11A 1_555 1_555
C12A C11A 1_555 1_555
C13A C12A 1_555 1_555
H14A C13A 1_555 1_555
C14A C13A 1_555 1_555
C15A C14A 1_555 1_555
H15A C15A 1_555 1_555
C16A C15A 1_555 1_555
C17A C12A 1_555 1_555
H16A C17A 1_555 1_555
C18A O7A 1_555 1_555
H17A C18A 1_555 1_555
H18A C18A 1_555 1_555
C19A C18A 1_555 1_555
H19A C19A 1_555 1_555
H20A C19A 1_555 1_555
C20A O6A 1_555 1_555
H21A C20A 1_555 1_555
H22A C20A 1_555 1_555
C21A O8A 1_555 1_555
H23A C21A 1_555 1_555
H24A C21A 1_555 1_555
C22A C21A 1_555 1_555
H25A C22A 1_555 1_555
H26A C22A 1_555 1_555
C23A O9A 1_555 1_555
H27A C23A 1_555 1_555
H28A C23A 1_555 1_555
C24A O10A 1_555 1_555
H29A C24A 1_555 1_555
H30A C24A 1_555 1_555
C25A O10 1_555 1_555
H31A C25A 1_555 1_555
H32A C25A 1_555 1_555
C26A H33A 1_555 1_555
H34A C26A 1_555 1_555
H35A C26A 1_555 1_555
C27A N1A 1_555 1_555
H36A C27A 1_555 1_555
C28A C27A 1_555 1_555
C29A C29 1_555 1_555
C30A C29A 1_555 1_555
C31A N1A 1_555 1_555
H37A C31A 1_555 1_555
C32A C33 1_555 1_555
H38A C32A 1_555 1_555
C33A C32 1_555 1_555
H39A C33A 1_555 1_555
C4 C5 1_555 1_555
C5 C6 1_555 1_555
C6 C7 1_555 1_555
C8 C9 1_555 1_555
C16 C17 1_555 1_555
C30 C31 1_555 1_555
C4A C5A 1_555 1_555
C5A C6A 1_555 1_555
C6A C7A 1_555 1_555
C8A C9A 1_555 1_555
C16A C17A 1_555 1_555
C20A C25A 1_555 1_555
C23A C24A 1_555 1_555
C28A C29A 1_555 1_555
C28A C33A 1_555 1_555
C30A C31A 1_555 1_555
C30A C32A 1_555 1_555

#END
