
#######################################################################
#
#                 Cambridge Crystallographic Data Centre
#                                CCDC 
#
#######################################################################
#
# If this CIF has been generated from an entry in the Cambridge 
# Structural Database, then it will include bibliographic, chemical, 
# crystal, experimental, refinement or atomic coordinate data resulting 
# from the CCDC's data processing and validation procedures.
#
#######################################################################

data_VEDCAI
_chemical_formula_moiety         'C21 H36 O5 Si1'
_chemical_name_systematic        
4-((t-Butyldimethylsilyl)oxy)methyl-9,9-dimethyl-8-methoxymethoxytricyclo(5.3.0.0^1,4^)decan-2,5-dione
_symmetry_cell_setting           triclinic
_symmetry_space_group_name_H-M   'P -1'
_symmetry_Int_Tables_number      2
_space_group_name_Hall           '-P 1'
loop_
_symmetry_equiv_pos_site_id
_symmetry_equiv_pos_as_xyz
1 x,y,z
2 -x,-y,-z
_cell_length_a                   11.353(3)
_cell_length_b                   11.683(3)
_cell_length_c                   10.134(2)
_cell_angle_alpha                110.10(1)
_cell_angle_beta                 91.81(1)
_cell_angle_gamma                65.44(1)
_cell_volume                     1138.29
_exptl_crystal_colour            colorless
_chemical_melting_point          45-46deg.C
_cell_formula_units_Z            2
loop_
_atom_site_label
_atom_site_type_symbol
_atom_site_fract_x
_atom_site_fract_y
_atom_site_fract_z
C1 C 0.8511(2) -0.2710(2) 0.7407(2)
C2 C 0.7784(2) -0.1271(2) 0.7403(2)
C3 C 0.7878(2) -0.0335(2) 0.8855(2)
C4 C 0.8724(2) 0.0405(2) 0.8986(2)
C5 C 0.7756(2) 0.1660(2) 1.0156(2)
C6 C 0.6725(2) 0.1068(2) 0.9725(2)
C7 C 0.6188(2) 0.0869(2) 1.0919(2)
C8 C 0.7233(2) -0.0298(2) 1.1216(2)
C9 C 0.8201(2) -0.1174(2) 0.9855(2)
C10 C 0.8092(2) -0.2471(2) 0.8941(2)
O1 O 0.8876(1) -0.3609(1) 0.9325(1)
C11 C 0.8189(2) -0.3988(2) 1.0094(2)
O2 O 0.7706(1) -0.3077(1) 1.1497(1)
C12 C 0.8719(3) -0.2986(3) 1.2344(3)
C13 C 0.8093(3) -0.3709(2) 0.6340(2)
C14 C 0.9991(2) -0.3195(2) 0.7129(3)
O3 O 0.9726(1) 0.0144(1) 0.8334(1)
O4 O 0.5084(1) 0.1538(2) 1.1539(2)
C15 C 0.5719(2) 0.1772(2) 0.8911(2)
O5 O 0.6394(1) 0.1890(1) 0.7844(1)
Si1 Si 0.5756(1) 0.2685(1) 0.6758(1)
C16 C 0.4838(3) 0.1851(5) 0.5577(4)
C17 C 0.4614(4) 0.4466(3) 0.7770(4)
C18 C 0.7224(2) 0.2492(2) 0.5746(2)
C19 C 0.7971(4) 0.3165(4) 0.6757(4)
C20 C 0.8121(3) 0.0983(3) 0.5013(3)
C21 C 0.6801(3) 0.3146(3) 0.4625(3)
H1 H 0.817(2) -0.116(2) 0.663(2)
H2 H 0.690(2) -0.108(2) 0.730(2)
H3 H 0.758(2) 0.252(2) 1.007(2)
H4 H 0.799(2) 0.170(2) 1.109(2)
H5 H 0.767(2) 0.005(2) 1.196(2)
H6 H 0.687(2) -0.080(2) 1.151(2)
H7 H 0.910(2) -0.144(2) 1.005(2)
H8 H 0.720(2) -0.237(2) 0.898(2)
H9 H 0.741(2) -0.403(2) 0.963(2)
H10 H 0.881(2) -0.488(2) 1.008(2)
H11 H 0.932(2) -0.388(2) 1.232(2)
H12 H 0.919(2) -0.256(2) 1.203(2)
H13 H 0.830(2) -0.242(2) 1.332(2)
H14 H 0.715(2) -0.345(2) 0.652(2)
H15 H 0.828(2) -0.375(2) 0.539(3)
H16 H 0.856(2) -0.461(2) 0.639(2)
H17 H 1.022(2) -0.332(2) 0.617(2)
H18 H 1.029(2) -0.253(2) 0.777(2)
H19 H 1.048(2) -0.407(2) 0.725(2)
H20 H 0.511(2) 0.267(2) 0.957(2)
H21 H 0.525(2) 0.122(2) 0.847(2)
H22 H 0.443(4) 0.239(4) 0.498(4)
H23 H 0.546(4) 0.090(4) 0.502(4)
H24 H 0.411(3) 0.196(3) 0.617(4)
H25 H 0.527(3) 0.474(3) 0.827(3)
H26 H 0.438(3) 0.499(4) 0.718(4)
H27 H 0.397(3) 0.453(3) 0.835(4)
H28 H 0.874(3) 0.305(3) 0.626(3)
H29 H 0.744(3) 0.413(4) 0.723(4)
H30 H 0.826(3) 0.277(3) 0.747(3)
H31 H 0.763(3) 0.049(3) 0.437(3)
H32 H 0.881(3) 0.091(3) 0.444(3)
H33 H 0.851(3) 0.057(3) 0.568(3)
H34 H 0.756(3) 0.302(3) 0.407(3)
H35 H 0.628(2) 0.277(2) 0.398(2)
H36 H 0.626(2) 0.409(3) 0.507(2)
loop_
_geom_bond_atom_site_label_1
_geom_bond_atom_site_label_2
_geom_bond_site_symmetry_1
_geom_bond_site_symmetry_2
C1 C2 1_555 1_555
C2 C3 1_555 1_555
C3 C4 1_555 1_555
C4 C5 1_555 1_555
C5 C6 1_555 1_555
C6 C3 1_555 1_555
C7 C6 1_555 1_555
C8 C7 1_555 1_555
C9 C3 1_555 1_555
C10 C1 1_555 1_555
O1 C10 1_555 1_555
C11 O1 1_555 1_555
O2 C11 1_555 1_555
C12 O2 1_555 1_555
C13 C1 1_555 1_555
C14 C1 1_555 1_555
O3 C4 1_555 1_555
O4 C7 1_555 1_555
C15 C6 1_555 1_555
O5 C15 1_555 1_555
Si1 O5 1_555 1_555
C16 Si1 1_555 1_555
C17 Si1 1_555 1_555
C18 Si1 1_555 1_555
C19 C18 1_555 1_555
C20 C18 1_555 1_555
C21 C18 1_555 1_555
H1 C2 1_555 1_555
H2 C2 1_555 1_555
H3 C5 1_555 1_555
H4 C5 1_555 1_555
H5 C8 1_555 1_555
H6 C8 1_555 1_555
H7 C9 1_555 1_555
H8 C10 1_555 1_555
H9 C11 1_555 1_555
H10 C11 1_555 1_555
H11 C12 1_555 1_555
H12 C12 1_555 1_555
H13 C12 1_555 1_555
H14 C13 1_555 1_555
H15 C13 1_555 1_555
H16 C13 1_555 1_555
H17 C14 1_555 1_555
H18 C14 1_555 1_555
H19 C14 1_555 1_555
H20 C15 1_555 1_555
H21 C15 1_555 1_555
H22 C16 1_555 1_555
H23 C16 1_555 1_555
H24 C16 1_555 1_555
H25 C17 1_555 1_555
H26 C17 1_555 1_555
H27 C17 1_555 1_555
H28 C19 1_555 1_555
H29 C19 1_555 1_555
H30 C19 1_555 1_555
H31 C20 1_555 1_555
H32 C20 1_555 1_555
H33 C20 1_555 1_555
H34 C21 1_555 1_555
H35 C21 1_555 1_555
H36 C21 1_555 1_555
C8 C9 1_555 1_555
C9 C10 1_555 1_555

#END
