
#######################################################################
#
#                 Cambridge Crystallographic Data Centre
#                                CCDC 
#
#######################################################################
#
# If this CIF has been generated from an entry in the Cambridge 
# Structural Database, then it will include bibliographic, chemical, 
# crystal, experimental, refinement or atomic coordinate data resulting 
# from the CCDC's data processing and validation procedures.
#
#######################################################################

data_VEDDUF
_chemical_formula_moiety         'C66 H72 F8 Si2,C7 H8'
_chemical_name_systematic        
'((1,2,3,4,9,10,11,12-Octafluorohexacene-6,15-diyl)diethyne-2,1-diyl)bis(tricyclohexylsilane) toluene solvate'
_symmetry_cell_setting           triclinic
_symmetry_space_group_name_H-M   'P 1'
_symmetry_Int_Tables_number      1
_space_group_name_Hall           'P 1'
loop_
_symmetry_equiv_pos_site_id
_symmetry_equiv_pos_as_xyz
1 x,y,z
_cell_length_a                   9.5223(1)
_cell_length_b                   10.2081(1)
_cell_length_c                   18.3986(3)
_cell_angle_alpha                89.2381(6)
_cell_angle_beta                 80.7371(6)
_cell_angle_gamma                63.7452(6)
_cell_volume                     1579.62
_exptl_crystal_colour            green
_exptl_crystal_description       block
_cell_formula_units_Z            1
loop_
_atom_site_label
_atom_site_type_symbol
_atom_site_fract_x
_atom_site_fract_y
_atom_site_fract_z
Si1 Si 0.73424(11) 0.36137(10) 0.18033(5)
F1 F 1.4352(2) 0.1698(2) 0.41300(12)
F2 F 1.6418(2) 0.1144(2) 0.50884(13)
F3 F 1.5382(2) 0.1883(2) 0.65375(12)
F4 F 1.2193(2) 0.3232(2) 0.70865(11)
F5 F -0.1601(2) 0.7594(2) 0.60574(11)
F6 F -0.3686(3) 0.8184(3) 0.51089(13)
F7 F -0.2646(3) 0.7515(3) 0.36540(13)
F8 F 0.0527(3) 0.6240(3) 0.30936(11)
C1 C 0.5557(4) 0.4718(4) 0.42251(19)
Si2 Si 0.26613(11) 0.62981(10) 0.82009(5)
C2 C 0.6664(4) 0.4472(4) 0.4703(2)
C3 C 0.8298(5) 0.3898(4) 0.4440(2)
H1 H 0.8670 0.3674 0.3925
C4 C 0.9399(4) 0.3643(4) 0.4905(2)
C5 C 1.1040(4) 0.3009(4) 0.4646(2)
H2 H 1.1420 0.2757 0.4133
C6 C 1.2128(4) 0.2738(4) 0.5114(2)
C7 C 1.3796(5) 0.2061(4) 0.4867(2)
C8 C 1.4833(4) 0.1795(4) 0.5329(2)
C9 C 1.4292(4) 0.2179(4) 0.6100(2)
C10 C 1.2716(4) 0.2828(4) 0.6358(2)
C11 C 1.1565(4) 0.3133(4) 0.5889(2)
C12 C 0.9964(4) 0.3749(4) 0.6163(2)
H3 H 0.9604 0.4001 0.6677
C13 C 0.8833(4) 0.4016(4) 0.5687(2)
C14 C 0.7194(5) 0.4600(4) 0.5964(2)
H4 H 0.6820 0.4846 0.6478
C15 C 0.6097(4) 0.4823(4) 0.5485(2)
C16 C 0.4444(4) 0.5398(4) 0.57638(19)
C17 C 0.3341(4) 0.5653(4) 0.52758(19)
C18 C 0.1687(4) 0.6280(4) 0.5553(2)
H5 H 0.1312 0.6498 0.6069
C19 C 0.0613(4) 0.6576(4) 0.5072(2)
C20 C -0.1069(5) 0.7245(4) 0.5330(2)
C21 C -0.2111(4) 0.7553(4) 0.4863(2)
C22 C -0.1544(5) 0.7187(4) 0.4093(2)
C23 C 0.0023(5) 0.6558(4) 0.3826(2)
C24 C 0.1183(4) 0.6227(4) 0.4290(2)
C25 C 0.2787(5) 0.5594(4) 0.4025(2)
H6 H 0.3153 0.5344 0.3511
C26 C 0.3907(4) 0.5306(4) 0.44983(19)
C27 C 0.6129(4) 0.4353(4) 0.34561(19)
C28 C 0.6627(4) 0.4029(4) 0.2800(2)
C29 C 0.5872(4) 0.5153(4) 0.13395(19)
H7 H 0.6183 0.4899 0.0796
C30 C 0.5899(4) 0.6622(4) 0.1480(2)
H8 H 0.6981 0.6522 0.1297
H9 H 0.5645 0.6881 0.2018
C31 C 0.4697(5) 0.7853(4) 0.1093(3)
H10 H 0.4707 0.8790 0.1216
H11 H 0.5018 0.7644 0.0552
C32 C 0.3026(5) 0.8001(4) 0.1324(2)
H12 H 0.2654 0.8329 0.1853
H13 H 0.2298 0.8754 0.1039
C33 C 0.2975(5) 0.6562(4) 0.1194(3)
H14 H 0.3203 0.6305 0.0657
H15 H 0.1894 0.6673 0.1388
C34 C 0.4179(4) 0.5322(4) 0.1568(2)
H16 H 0.4160 0.4393 0.1439
H17 H 0.3864 0.5517 0.2110
C35 C 0.7275(4) 0.1847(4) 0.15847(17)
H18 H 0.6139 0.2047 0.1739
C36 C 0.7684(5) 0.1376(4) 0.07576(19)
H19 H 0.6991 0.2190 0.0489
H20 H 0.8799 0.1178 0.0571
C37 C 0.7478(5) 0.0010(4) 0.0597(2)
H21 H 0.7810 -0.0278 0.0062
H22 H 0.6343 0.0233 0.0734
C38 C 0.8474(4) -0.1259(4) 0.10317(19)
H23 H 0.8289 -0.2117 0.0938
H24 H 0.9617 -0.1539 0.0865
C39 C 0.8028(5) -0.0814(4) 0.1856(2)
H25 H 0.8709 -0.1631 0.2128
H26 H 0.6909 -0.0616 0.2030
C40 C 0.8231(5) 0.0551(4) 0.2023(2)
H27 H 0.9371 0.0316 0.1900
H28 H 0.7877 0.0838 0.2558
C41 C 0.9345(4) 0.3612(4) 0.16144(19)
H29 H 0.9178 0.4596 0.1798
C42 C 1.0034(5) 0.3441(5) 0.0791(2)
H30 H 0.9259 0.4210 0.0532
H31 H 1.0217 0.2478 0.0584
C43 C 1.1620(5) 0.3561(5) 0.0659(2)
H32 H 1.2068 0.3389 0.0126
H33 H 1.1418 0.4561 0.0818
C44 C 1.2824(4) 0.2446(5) 0.1087(2)
H34 H 1.3116 0.1444 0.0891
H35 H 1.3800 0.2586 0.1018
C45 C 1.2150(5) 0.2612(6) 0.1898(3)
H36 H 1.1963 0.3577 0.2105
H37 H 1.2928 0.1844 0.2157
C46 C 1.0573(5) 0.2486(5) 0.2029(2)
H38 H 1.0780 0.1489 0.1863
H39 H 1.0138 0.2638 0.2564
C47 C 0.3879(4) 0.5704(4) 0.65429(19)
C48 C 0.3378(4) 0.5921(4) 0.72007(19)
C49 C 0.0661(4) 0.6297(4) 0.83850(18)
H40 H 0.0863 0.5279 0.8242
C50 C -0.0547(5) 0.7298(5) 0.7923(3)
H41 H -0.0783 0.8327 0.8036
H42 H -0.0084 0.7050 0.7392
C51 C -0.2091(5) 0.7141(5) 0.8078(2)
H43 H -0.2862 0.7831 0.7787
H44 H -0.1873 0.6135 0.7922
C52 C -0.2804(5) 0.7452(5) 0.8887(2)
H45 H -0.3788 0.7325 0.8976
H46 H -0.3086 0.8478 0.9037
C53 C -0.1633(5) 0.6426(5) 0.9342(2)
H47 H -0.1410 0.5405 0.9216
H48 H -0.2103 0.6658 0.9873
C54 C -0.0089(5) 0.6567(5) 0.9201(2)
H49 H 0.0671 0.5855 0.9488
H50 H -0.0302 0.7562 0.9375
C55 C 0.2704(4) 0.8074(3) 0.84287(18)
H51 H 0.3824 0.7905 0.8253
C56 C 0.1670(5) 0.9373(4) 0.8011(2)
H52 H 0.1982 0.9104 0.7474
H53 H 0.0541 0.9576 0.8155
C57 C 0.1839(6) 1.0748(4) 0.8172(2)
H54 H 0.2938 1.0586 0.7974
H55 H 0.1105 1.1568 0.7920
C58 C 0.1471(5) 1.1154(4) 0.8996(2)
H56 H 0.1635 1.2027 0.9085
H57 H 0.0343 1.1404 0.9186
C59 C 0.2520(5) 0.9911(4) 0.9402(2)
H58 H 0.2235 1.0191 0.9937
H59 H 0.3641 0.9716 0.9240
C60 C 0.2350(5) 0.8521(4) 0.9261(2)
H60 H 0.1255 0.8686 0.9469
H61 H 0.3093 0.7715 0.9517
C61 C 0.4131(4) 0.4779(4) 0.86597(19)
H62 H 0.3846 0.5051 0.9202
C62 C 0.4102(4) 0.3304(4) 0.8546(2)
H63 H 0.3025 0.3409 0.8744
H64 H 0.4328 0.3031 0.8011
C63 C 0.5316(5) 0.2077(4) 0.8924(2)
H65 H 0.5011 0.2288 0.9466
H66 H 0.5298 0.1142 0.8806
C64 C 0.6987(5) 0.1916(4) 0.8684(2)
H67 H 0.7354 0.1567 0.8156
H68 H 0.7715 0.1176 0.8973
C65 C 0.7046(5) 0.3362(4) 0.8793(2)
H69 H 0.8128 0.3243 0.8594
H70 H 0.6819 0.3642 0.9327
C66 C 0.5840(4) 0.4583(4) 0.8407(2)
H71 H 0.6139 0.4351 0.7867
H72 H 0.5877 0.5514 0.8513
C67 C -0.8290(6) 0.9499(5) 0.4950(3)
C68 C -0.9822(6) 1.0047(5) 0.4798(3)
H73 H -1.0703 1.0392 0.5192
C69 C -1.0070(6) 1.0092(5) 0.4092(3)
H74 H -1.1130 1.0475 0.4000
C70 C -0.8829(6) 0.9597(5) 0.3500(3)
H75 H -0.9038 0.9636 0.3011
C71 C -0.7366(6) 0.9076(5) 0.3619(3)
H76 H -0.6518 0.8735 0.3209
C72 C -0.7005(6) 0.9006(5) 0.4359(3)
H77 H -0.5941 0.8640 0.4441
C73 C -0.7942(7) 0.9464(7) 0.5711(3)
H78 H -0.8798 1.0304 0.6016
H79 H -0.6932 0.9511 0.5696
H80 H -0.7868 0.8555 0.5923
C74? C -0.980(2) 0.9949(19) 0.4630(12)
C75? C -0.819(2) 0.935(2) 0.4333(12)
C76? C -0.708(2) 0.903(2) 0.4782(14)
C77? C -0.755(3) 0.931(3) 0.5535(14)
C78? C -0.906(3) 0.988(2) 0.5843(11)
C79? C -1.029(3) 1.025(2) 0.5401(12)
C80? C -1.104(3) 1.030(3) 0.4164(14)
H81? H -0.7857 0.9149 0.3814
H82? H -0.5984 0.8623 0.4573
H83? H -0.6766 0.9090 0.5839
H84? H -0.9347 1.0058 0.6364
H85? H -1.1384 1.0668 0.5618
H86? H -1.1781 0.9911 0.4373
H87? H -1.0541 0.9863 0.3662
H88? H -1.1625 1.1367 0.4148
loop_
_geom_bond_atom_site_label_1
_geom_bond_atom_site_label_2
_geom_bond_site_symmetry_1
_geom_bond_site_symmetry_2
Si1 C28 1_555 1_555
F1 C7 1_555 1_555
F2 C8 1_555 1_555
F3 C9 1_555 1_555
F4 C10 1_555 1_555
F5 C20 1_555 1_555
F6 C21 1_555 1_555
F7 C22 1_555 1_555
F8 C23 1_555 1_555
C1 C2 1_555 1_555
Si2 C48 1_555 1_555
C2 C3 1_555 1_555
C3 H1 1_555 1_555
C4 C3 1_555 1_555
C5 C4 1_555 1_555
H2 C5 1_555 1_555
C6 C5 1_555 1_555
C7 C6 1_555 1_555
C8 C7 1_555 1_555
C9 C8 1_555 1_555
C10 C9 1_555 1_555
C11 C6 1_555 1_555
C12 C11 1_555 1_555
H3 C12 1_555 1_555
C13 C4 1_555 1_555
C14 C13 1_555 1_555
H4 C14 1_555 1_555
C15 C2 1_555 1_555
C16 C15 1_555 1_555
C17 C16 1_555 1_555
C18 C17 1_555 1_555
H5 C18 1_555 1_555
C19 C18 1_555 1_555
C20 C19 1_555 1_555
C21 C20 1_555 1_555
C22 C21 1_555 1_555
C23 C22 1_555 1_555
C24 C19 1_555 1_555
C25 C24 1_555 1_555
H6 C25 1_555 1_555
C26 C1 1_555 1_555
C27 C1 1_555 1_555
C28 C27 1_555 1_555
C29 Si1 1_555 1_555
H7 C29 1_555 1_555
C30 C29 1_555 1_555
H8 C30 1_555 1_555
H9 C30 1_555 1_555
C31 C30 1_555 1_555
H10 C31 1_555 1_555
H11 C31 1_555 1_555
C32 C31 1_555 1_555
H12 C32 1_555 1_555
H13 C32 1_555 1_555
C33 C32 1_555 1_555
H14 C33 1_555 1_555
H15 C33 1_555 1_555
C34 C29 1_555 1_555
H16 C34 1_555 1_555
H17 C34 1_555 1_555
C35 Si1 1_555 1_555
H18 C35 1_555 1_555
C36 C35 1_555 1_555
H19 C36 1_555 1_555
H20 C36 1_555 1_555
C37 C36 1_555 1_555
H21 C37 1_555 1_555
H22 C37 1_555 1_555
C38 C37 1_555 1_555
H23 C38 1_555 1_555
H24 C38 1_555 1_555
C39 C38 1_555 1_555
H25 C39 1_555 1_555
H26 C39 1_555 1_555
C40 C35 1_555 1_555
H27 C40 1_555 1_555
H28 C40 1_555 1_555
C41 Si1 1_555 1_555
H29 C41 1_555 1_555
C42 C41 1_555 1_555
H30 C42 1_555 1_555
H31 C42 1_555 1_555
C43 C42 1_555 1_555
H32 C43 1_555 1_555
H33 C43 1_555 1_555
C44 C43 1_555 1_555
H34 C44 1_555 1_555
H35 C44 1_555 1_555
C45 C44 1_555 1_555
H36 C45 1_555 1_555
H37 C45 1_555 1_555
C46 C41 1_555 1_555
H38 C46 1_555 1_555
H39 C46 1_555 1_555
C47 C16 1_555 1_555
C48 C47 1_555 1_555
C49 Si2 1_555 1_555
H40 C49 1_555 1_555
C50 C49 1_555 1_555
H41 C50 1_555 1_555
H42 C50 1_555 1_555
C51 C50 1_555 1_555
H43 C51 1_555 1_555
H44 C51 1_555 1_555
C52 C51 1_555 1_555
H45 C52 1_555 1_555
H46 C52 1_555 1_555
C53 C52 1_555 1_555
H47 C53 1_555 1_555
H48 C53 1_555 1_555
C54 C49 1_555 1_555
H49 C54 1_555 1_555
H50 C54 1_555 1_555
C55 Si2 1_555 1_555
H51 C55 1_555 1_555
C56 C55 1_555 1_555
H52 C56 1_555 1_555
H53 C56 1_555 1_555
C57 C56 1_555 1_555
H54 C57 1_555 1_555
H55 C57 1_555 1_555
C58 C57 1_555 1_555
H56 C58 1_555 1_555
H57 C58 1_555 1_555
C59 C58 1_555 1_555
H58 C59 1_555 1_555
H59 C59 1_555 1_555
C60 C55 1_555 1_555
H60 C60 1_555 1_555
H61 C60 1_555 1_555
C61 Si2 1_555 1_555
H62 C61 1_555 1_555
C62 C61 1_555 1_555
H63 C62 1_555 1_555
H64 C62 1_555 1_555
C63 C62 1_555 1_555
H65 C63 1_555 1_555
H66 C63 1_555 1_555
C64 C63 1_555 1_555
H67 C64 1_555 1_555
H68 C64 1_555 1_555
C65 C64 1_555 1_555
H69 C65 1_555 1_555
H70 C65 1_555 1_555
C66 C61 1_555 1_555
H71 C66 1_555 1_555
H72 C66 1_555 1_555
C67 C68 1_555 1_555
C68 H73 1_555 1_555
C69 C68 1_555 1_555
H74 C69 1_555 1_555
C70 C69 1_555 1_555
H75 C70 1_555 1_555
C71 C70 1_555 1_555
H76 C71 1_555 1_555
C72 C67 1_555 1_555
H77 C72 1_555 1_555
C73 C67 1_555 1_555
H78 C73 1_555 1_555
H79 C73 1_555 1_555
H80 C73 1_555 1_555
C10 C11 1_555 1_555
C12 C13 1_555 1_555
C14 C15 1_555 1_555
C17 C26 1_555 1_555
C23 C24 1_555 1_555
C25 C26 1_555 1_555
C33 C34 1_555 1_555
C39 C40 1_555 1_555
C45 C46 1_555 1_555
C53 C54 1_555 1_555
C59 C60 1_555 1_555
C65 C66 1_555 1_555
C71 C72 1_555 1_555

#END
