
#######################################################################
#
#                 Cambridge Crystallographic Data Centre
#                                CCDC 
#
#######################################################################
#
# If this CIF has been generated from an entry in the Cambridge 
# Structural Database, then it will include bibliographic, chemical, 
# crystal, experimental, refinement or atomic coordinate data resulting 
# from the CCDC's data processing and validation procedures.
#
#######################################################################

data_VEDJUM
_chemical_formula_moiety         'C39 H28 N2'
_chemical_name_systematic        
1-phenyl-2-(4-(triphenylethenyl)phenyl)-1H-benzimidazole
_symmetry_cell_setting           monoclinic
_symmetry_space_group_name_H-M   'P 21/c'
_symmetry_Int_Tables_number      14
_space_group_name_Hall           '-P 2ybc'
loop_
_symmetry_equiv_pos_site_id
_symmetry_equiv_pos_as_xyz
1 x,y,z
2 -x,1/2+y,1/2-z
3 -x,-y,-z
4 x,1/2-y,1/2+z
_cell_length_a                   9.615(2)
_cell_length_b                   9.266(2)
_cell_length_c                   31.827(7)
_cell_angle_alpha                90
_cell_angle_beta                 94.472(5)
_cell_angle_gamma                90
_cell_volume                     2826.92
_exptl_crystal_colour            colorless
_exptl_crystal_description       block
_cell_formula_units_Z            4
loop_
_atom_site_label
_atom_site_type_symbol
_atom_site_fract_x
_atom_site_fract_y
_atom_site_fract_z
N1 N 0.1186(3) 0.7517(2) -0.04831(8)
N2 N -0.1069(3) 0.7684(3) -0.03575(8)
C1 C 0.0199(3) 0.7444(3) -0.01895(10)
C2 C 0.0544(3) 0.7193(3) 0.02587(9)
C3 C -0.0062(3) 0.8071(3) 0.05456(10)
H1 H -0.0706 0.8770 0.0450
C4 C 0.0283(3) 0.7914(3) 0.09703(10)
H2 H -0.0155 0.8492 0.1159
C5 C 0.1262(3) 0.6921(3) 0.11231(9)
C6 C 0.1823(3) 0.6019(3) 0.08371(10)
H3 H 0.2452 0.5308 0.0934
C7 C 0.1471(3) 0.6148(3) 0.04106(10)
H4 H 0.1863 0.5524 0.0224
C8 C 0.1664(3) 0.6845(3) 0.15813(9)
C9 C 0.2968(3) 0.7066(3) 0.17494(9)
C10 C 0.4123(3) 0.7526(3) 0.14900(9)
C11 C 0.3946(3) 0.8676(3) 0.12149(10)
H5 H 0.3084 0.9136 0.1180
C12 C 0.5023(4) 0.9151(4) 0.09923(10)
H6 H 0.4884 0.9927 0.0809
C13 C 0.6296(4) 0.8495(4) 0.10377(10)
H7 H 0.7026 0.8823 0.0888
C14 C 0.6487(4) 0.7347(4) 0.13070(11)
H8 H 0.7348 0.6885 0.1338
C15 C 0.5409(3) 0.6872(3) 0.15331(10)
H9 H 0.5554 0.6098 0.1717
C16 C 0.3383(3) 0.6920(3) 0.22091(10)
C17 C 0.4259(3) 0.7912(3) 0.24132(10)
H10 H 0.4581 0.8682 0.2261
C18 C 0.4674(3) 0.7802(4) 0.28356(11)
H11 H 0.5272 0.8489 0.2964
C19 C 0.4213(4) 0.6693(5) 0.30657(11)
H12 H 0.4489 0.6615 0.3351
C20 C 0.3339(4) 0.5690(4) 0.28721(11)
H13 H 0.3012 0.4931 0.3028
C21 C 0.2934(3) 0.5790(3) 0.24474(11)
H14 H 0.2352 0.5089 0.2320
C22 C 0.0462(3) 0.6543(3) 0.18373(9)
C23 C -0.0289(3) 0.5291(3) 0.17768(9)
H15 H -0.0035 0.4639 0.1574
C24 C -0.1399(3) 0.4971(4) 0.20044(11)
H16 H -0.1874 0.4102 0.1962
C25 C -0.1799(3) 0.5940(4) 0.22929(10)
H17 H -0.2558 0.5739 0.2448
C26 C -0.1091(4) 0.7202(4) 0.23550(9)
H18 H -0.1369 0.7861 0.2552
C27 C 0.0035(3) 0.7512(3) 0.21289(10)
H19 H 0.0510 0.8379 0.2173
C28 C 0.0474(3) 0.7846(3) -0.08654(10)
C29 C 0.0927(3) 0.8146(3) -0.12576(10)
H20 H 0.1869 0.8125 -0.1305
C30 C -0.0061(4) 0.8473(3) -0.15708(10)
H21 H 0.0213 0.8704 -0.1836
C31 C -0.1483(4) 0.8471(3) -0.15043(11)
H22 H -0.2140 0.8660 -0.1728
C32 C -0.1911(3) 0.8192(3) -0.11123(11)
H23 H -0.2856 0.8180 -0.1068
C33 C -0.0924(3) 0.7927(3) -0.07838(10)
C34 C 0.2664(3) 0.7285(4) -0.04248(9)
C35 C 0.3214(4) 0.6155(4) -0.06342(11)
H24 H 0.2638 0.5555 -0.0805
C36 C 0.4626(5) 0.5920(5) -0.05888(13)
H25 H 0.5015 0.5172 -0.0735
C37 C 0.5464(4) 0.6785(5) -0.03279(13)
H26 H 0.6418 0.6609 -0.0294
C38 C 0.4914(4) 0.7900(4) -0.01173(11)
H27 H 0.5490 0.8482 0.0059
C39 C 0.3487(4) 0.8168(4) -0.01664(10)
H28 H 0.3100 0.8932 -0.0026
loop_
_geom_bond_atom_site_label_1
_geom_bond_atom_site_label_2
_geom_bond_site_symmetry_1
_geom_bond_site_symmetry_2
N1 C1 1_555 1_555
N2 C1 1_555 1_555
C1 C2 1_555 1_555
C2 C3 1_555 1_555
C3 H1 1_555 1_555
C4 C3 1_555 1_555
H2 C4 1_555 1_555
C5 C4 1_555 1_555
C6 C5 1_555 1_555
H3 C6 1_555 1_555
C7 C2 1_555 1_555
H4 C7 1_555 1_555
C8 C5 1_555 1_555
C9 C8 1_555 1_555
C10 C9 1_555 1_555
C11 C10 1_555 1_555
H5 C11 1_555 1_555
C12 C11 1_555 1_555
H6 C12 1_555 1_555
C13 C12 1_555 1_555
H7 C13 1_555 1_555
C14 C13 1_555 1_555
H8 C14 1_555 1_555
C15 C10 1_555 1_555
H9 C15 1_555 1_555
C16 C9 1_555 1_555
C17 C16 1_555 1_555
H10 C17 1_555 1_555
C18 C17 1_555 1_555
H11 C18 1_555 1_555
C19 C18 1_555 1_555
H12 C19 1_555 1_555
C20 C19 1_555 1_555
H13 C20 1_555 1_555
C21 C16 1_555 1_555
H14 C21 1_555 1_555
C22 C8 1_555 1_555
C23 C22 1_555 1_555
H15 C23 1_555 1_555
C24 C23 1_555 1_555
H16 C24 1_555 1_555
C25 C24 1_555 1_555
H17 C25 1_555 1_555
C26 C25 1_555 1_555
H18 C26 1_555 1_555
C27 C22 1_555 1_555
H19 C27 1_555 1_555
C28 N1 1_555 1_555
C29 C28 1_555 1_555
H20 C29 1_555 1_555
C30 C29 1_555 1_555
H21 C30 1_555 1_555
C31 C30 1_555 1_555
H22 C31 1_555 1_555
C32 C31 1_555 1_555
H23 C32 1_555 1_555
C33 N2 1_555 1_555
C34 N1 1_555 1_555
C35 C34 1_555 1_555
H24 C35 1_555 1_555
C36 C35 1_555 1_555
H25 C36 1_555 1_555
C37 C36 1_555 1_555
H26 C37 1_555 1_555
C38 C37 1_555 1_555
H27 C38 1_555 1_555
C39 C34 1_555 1_555
H28 C39 1_555 1_555
C6 C7 1_555 1_555
C14 C15 1_555 1_555
C20 C21 1_555 1_555
C26 C27 1_555 1_555
C28 C33 1_555 1_555
C32 C33 1_555 1_555
C38 C39 1_555 1_555

#END
