
#######################################################################
#
#                 Cambridge Crystallographic Data Centre
#                                CCDC 
#
#######################################################################
#
# If this CIF has been generated from an entry in the Cambridge 
# Structural Database, then it will include bibliographic, chemical, 
# crystal, experimental, refinement or atomic coordinate data resulting 
# from the CCDC's data processing and validation procedures.
#
#######################################################################

data_VEDKEW
_chemical_formula_moiety         'C20 H20 Cl1 N1 O5'
_chemical_name_systematic        
'(R)-Diethyl 3-(2-chlorophenyl)-3,4-dihydrobenzo[b][1,4]oxazine-2,2-dicarboxylate'
_symmetry_cell_setting           tetragonal
_symmetry_space_group_name_H-M   'P 43'
_symmetry_Int_Tables_number      78
_space_group_name_Hall           'P 4cw'
loop_
_symmetry_equiv_pos_site_id
_symmetry_equiv_pos_as_xyz
1 x,y,z
2 -x,-y,1/2+z
3 -y,x,3/4+z
4 y,-x,1/4+z
_cell_length_a                   9.0853(7)
_cell_length_b                   9.0853(7)
_cell_length_c                   23.592(4)
_cell_angle_alpha                90
_cell_angle_beta                 90
_cell_angle_gamma                90
_cell_volume                     1947.35
_exptl_crystal_colour            colorless
_exptl_crystal_description       prism
_cell_formula_units_Z            4
loop_
_atom_site_label
_atom_site_type_symbol
_atom_site_fract_x
_atom_site_fract_y
_atom_site_fract_z
Cl1 Cl 0.1367(2) 0.65274(19) 0.22227(6)
C1 C -0.0446(4) 0.8404(4) 0.13711(16)
H1 H -0.0720 0.7622 0.1637
C2 C -0.0874(4) 0.7923(4) 0.07712(15)
C3 C -0.1489(4) 1.0341(4) 0.05244(17)
C4 C -0.1892(5) 1.1283(6) 0.0090(2)
H2 H -0.1676 1.1062 -0.0286
C5 C -0.2629(7) 1.2565(7) 0.0234(3)
H3 H -0.2896 1.3228 -0.0048
C6 C -0.2967(7) 1.2866(6) 0.0787(3)
H4 H -0.3495 1.3712 0.0875
C7 C -0.2541(5) 1.1947(5) 0.1208(2)
H5 H -0.2758 1.2181 0.1582
C8 C -0.1774(4) 1.0639(4) 0.10841(17)
C9 C 0.1202(4) 0.8695(5) 0.14261(16)
C10 C 0.2109(6) 0.7895(5) 0.17891(18)
C11 C 0.3607(6) 0.8175(7) 0.1834(2)
H6 H 0.4181 0.7609 0.2077
C12 C 0.4242(6) 0.9265(7) 0.1527(2)
H7 H 0.5247 0.9449 0.1553
C13 C 0.3380(5) 1.0069(6) 0.1186(2)
H8 H 0.3796 1.0838 0.0981
C14 C 0.1912(5) 0.9794(5) 0.11299(19)
H9 H 0.1366 1.0372 0.0882
C15 C 0.0114(5) 0.6673(5) 0.05582(17)
C16 C 0.0881(7) 0.4236(6) 0.0793(3)
H10 H 0.0456 0.3424 0.1004
H11 H 0.0786 0.4019 0.0392
C17 C 0.2418(8) 0.4370(8) 0.0936(4)
H12 H 0.2918 0.3471 0.0843
H13 H 0.2516 0.4561 0.1334
H14 H 0.2843 0.5167 0.0725
C18 C -0.2453(5) 0.7306(5) 0.0767(2)
C19 C -0.4505(9) 0.6742(11) 0.0230(5)
H15 H -0.4519 0.5676 0.0209
H16 H -0.5024 0.7035 0.0571
C20 C -0.5149(10) 0.7265(18) -0.0195(6)
H17 H -0.6144 0.6912 -0.0206
H18 H -0.4644 0.6964 -0.0534
H19 H -0.5152 0.8320 -0.0172
N1 N -0.1308(4) 0.9726(4) 0.15054(14)
H20 H -0.1519 0.9925 0.1852
O1 O -0.0728(3) 0.9078(3) 0.03689(11)
O2 O 0.0076(4) 0.5583(3) 0.09233(13)
O3 O 0.0783(4) 0.6698(3) 0.01234(13)
O4 O -0.3097(4) 0.6912(4) 0.1176(2)
O5 O -0.2965(4) 0.7260(6) 0.02597(18)
loop_
_geom_bond_atom_site_label_1
_geom_bond_atom_site_label_2
_geom_bond_site_symmetry_1
_geom_bond_site_symmetry_2
Cl1 C10 1_555 1_555
C1 H1 1_555 1_555
C2 C1 1_555 1_555
C3 C4 1_555 1_555
C4 H2 1_555 1_555
C5 C4 1_555 1_555
H3 C5 1_555 1_555
C6 C5 1_555 1_555
H4 C6 1_555 1_555
C7 C6 1_555 1_555
H5 C7 1_555 1_555
C8 C3 1_555 1_555
C9 C1 1_555 1_555
C10 C9 1_555 1_555
C11 C10 1_555 1_555
H6 C11 1_555 1_555
C12 C11 1_555 1_555
H7 C12 1_555 1_555
C13 C12 1_555 1_555
H8 C13 1_555 1_555
C14 C9 1_555 1_555
H9 C14 1_555 1_555
C15 C2 1_555 1_555
C16 H10 1_555 1_555
H11 C16 1_555 1_555
C17 C16 1_555 1_555
H12 C17 1_555 1_555
H13 C17 1_555 1_555
H14 C17 1_555 1_555
C18 C2 1_555 1_555
C19 H15 1_555 1_555
H16 C19 1_555 1_555
C20 C19 1_555 1_555
H17 C20 1_555 1_555
H18 C20 1_555 1_555
H19 C20 1_555 1_555
N1 C1 1_555 1_555
H20 N1 1_555 1_555
O1 C2 1_555 1_555
O2 C15 1_555 1_555
O3 C15 1_555 1_555
O4 C18 1_555 1_555
O5 C18 1_555 1_555
C3 O1 1_555 1_555
C7 C8 1_555 1_555
C8 N1 1_555 1_555
C13 C14 1_555 1_555
C16 O2 1_555 1_555
C19 O5 1_555 1_555

#END
