
#######################################################################
#
#                 Cambridge Crystallographic Data Centre
#                                CCDC 
#
#######################################################################
#
# If this CIF has been generated from an entry in the Cambridge 
# Structural Database, then it will include bibliographic, chemical, 
# crystal, experimental, refinement or atomic coordinate data resulting 
# from the CCDC's data processing and validation procedures.
#
#######################################################################

data_VEDKIA
_chemical_formula_moiety         'C18 H15 N1 O5'
_chemical_name_systematic        
'Ethyl 6-oxo-6,6a,12,12a-tetrahydrobenzo[b]chromeno[4,3-e]-[1,4]oxazine-6a-carboxylate'
_symmetry_cell_setting           monoclinic
_symmetry_space_group_name_H-M   'C c'
_symmetry_Int_Tables_number      9
_space_group_name_Hall           'C -2yc'
loop_
_symmetry_equiv_pos_site_id
_symmetry_equiv_pos_as_xyz
1 x,y,z
2 x,-y,1/2+z
3 1/2+x,1/2+y,z
4 1/2+x,1/2-y,1/2+z
_cell_length_a                   12.4785(4)
_cell_length_b                   13.3392(5)
_cell_length_c                   10.0137(4)
_cell_angle_alpha                90
_cell_angle_beta                 103.019(2)
_cell_angle_gamma                90
_cell_volume                     1623.97
_exptl_crystal_colour            colorless
_exptl_crystal_description       prism
_cell_formula_units_Z            4
loop_
_atom_site_label
_atom_site_type_symbol
_atom_site_fract_x
_atom_site_fract_y
_atom_site_fract_z
C1 C 0.70978(16) 0.04256(13) 0.1770(2)
H1 H 0.6841 0.0066 0.0903
C2 C 0.68775(15) 0.15570(13) 0.1578(2)
C3 C 0.50128(16) 0.11596(15) 0.1629(2)
C4 C 0.39132(18) 0.14061(18) 0.1255(2)
H2 H 0.3683 0.1959 0.0698
C5 C 0.3157(2) 0.0820(2) 0.1719(3)
H3 H 0.2412 0.0975 0.1463
C6 C 0.3503(2) 0.0005(2) 0.2561(3)
H4 H 0.2991 -0.0378 0.2883
C7 C 0.4596(2) -0.02395(18) 0.2923(3)
H5 H 0.4821 -0.0787 0.3491
C8 C 0.53718(16) 0.03222(14) 0.24508(19)
C9 C 0.83062(17) 0.02756(15) 0.2310(2)
C10 C 0.8883(2) -0.0537(2) 0.1931(3)
H6 H 0.8519 -0.1002 0.1296
C11 C 0.9983(3) -0.0645(3) 0.2495(4)
H7 H 1.0365 -0.1183 0.2237
C12 C 1.0520(3) 0.0028(4) 0.3432(4)
H8 H 1.1264 -0.0066 0.3817
C13 C 0.9982(2) 0.0855(2) 0.3827(3)
H9 H 1.0355 0.1322 0.4452
C14 C 0.88729(15) 0.09517(17) 0.3251(2)
C15 C 0.73387(15) 0.20747(14) 0.2964(2)
C16 C 0.74135(17) 0.19721(13) 0.0457(2)
C17 C 0.8994(4) 0.2859(4) 0.0052(4)
H10 H 0.8769 0.2541 -0.0838
H11 H 0.8908 0.3578 -0.0073
C18 C 1.0117(4) 0.2625(4) 0.0643(6)
H12 H 1.0571 0.2862 0.0052
H13 H 1.0199 0.1913 0.0754
H14 H 1.0336 0.2945 0.1522
N1 N 0.64947(14) 0.01088(13) 0.27794(19)
H15 H 0.6808 -0.0189 0.3527
O1 O 0.57421(11) 0.17669(10) 0.11289(16)
O2 O 0.83291(11) 0.17642(11) 0.36928(14)
O3 O 0.68822(14) 0.27264(12) 0.34193(18)
O4 O 0.70660(18) 0.18155(14) -0.07284(17)
O5 O 0.82938(16) 0.24948(16) 0.09746(17)
loop_
_geom_bond_atom_site_label_1
_geom_bond_atom_site_label_2
_geom_bond_site_symmetry_1
_geom_bond_site_symmetry_2
C1 H1 1_555 1_555
C2 C1 1_555 1_555
C3 C4 1_555 1_555
C4 H2 1_555 1_555
C5 C4 1_555 1_555
H3 C5 1_555 1_555
C6 C5 1_555 1_555
H4 C6 1_555 1_555
C7 C6 1_555 1_555
H5 C7 1_555 1_555
C8 C3 1_555 1_555
C9 C1 1_555 1_555
C10 C9 1_555 1_555
H6 C10 1_555 1_555
C11 C10 1_555 1_555
H7 C11 1_555 1_555
C12 C11 1_555 1_555
H8 C12 1_555 1_555
C13 C12 1_555 1_555
H9 C13 1_555 1_555
C14 C9 1_555 1_555
C15 C2 1_555 1_555
C16 C2 1_555 1_555
C17 H10 1_555 1_555
H11 C17 1_555 1_555
C18 C17 1_555 1_555
H12 C18 1_555 1_555
H13 C18 1_555 1_555
H14 C18 1_555 1_555
N1 C1 1_555 1_555
H15 N1 1_555 1_555
O1 C2 1_555 1_555
O2 C14 1_555 1_555
O3 C15 1_555 1_555
O4 C16 1_555 1_555
O5 C16 1_555 1_555
C3 O1 1_555 1_555
C7 C8 1_555 1_555
C8 N1 1_555 1_555
C13 C14 1_555 1_555
C15 O2 1_555 1_555
C17 O5 1_555 1_555

#END
