
#######################################################################
#
#                 Cambridge Crystallographic Data Centre
#                                CCDC 
#
#######################################################################
#
# If this CIF has been generated from an entry in the Cambridge 
# Structural Database, then it will include bibliographic, chemical, 
# crystal, experimental, refinement or atomic coordinate data resulting 
# from the CCDC's data processing and validation procedures.
#
#######################################################################

data_VEDKAT
_chemical_formula_moiety         'C43 H36 N2'
_chemical_name_systematic        
1-(4-t-butylphenyl)-2-(4-(triphenylethenyl)phenyl)-1H-benzimidazole
_symmetry_cell_setting           triclinic
_symmetry_space_group_name_H-M   'P -1'
_symmetry_Int_Tables_number      2
_space_group_name_Hall           '-P 1'
loop_
_symmetry_equiv_pos_site_id
_symmetry_equiv_pos_as_xyz
1 x,y,z
2 -x,-y,-z
_cell_length_a                   11.642(5)
_cell_length_b                   12.233(5)
_cell_length_c                   12.851(5)
_cell_angle_alpha                100.569(10)
_cell_angle_beta                 100.503(9)
_cell_angle_gamma                108.522(9)
_cell_volume                     1648.16
_exptl_crystal_colour            colorless
_exptl_crystal_description       Block
_cell_formula_units_Z            2
loop_
_atom_site_label
_atom_site_type_symbol
_atom_site_fract_x
_atom_site_fract_y
_atom_site_fract_z
N1 N 0.3242(4) 0.4826(4) 1.0535(3)
N2 N 0.3075(4) 0.6648(4) 1.0830(4)
C1 C 0.2636(5) 0.5569(5) 1.0177(4)
C2 C 0.1670(5) 0.5188(4) 0.9159(4)
C3 C 0.1638(5) 0.4439(4) 0.8203(4)
H1 H 0.2273 0.4134 0.8186
C4 C 0.0679(5) 0.4133(4) 0.7267(4)
H2 H 0.0678 0.3619 0.6637
C5 C -0.0276(5) 0.4573(4) 0.7247(4)
C6 C -0.0216(5) 0.5366(4) 0.8197(5)
H3 H -0.0835 0.5693 0.8204
C7 C 0.0736(5) 0.5678(4) 0.9127(4)
H4 H 0.0758 0.6223 0.9746
C8 C -0.1354(5) 0.4210(5) 0.6282(4)
C9 C -0.1987(5) 0.3075(5) 0.5704(4)
C10 C -0.1753(4) 0.2083(5) 0.6111(5)
C11 C -0.1812(5) 0.1980(5) 0.7154(5)
H5 H -0.2018 0.2534 0.7607
C12 C -0.1574(5) 0.1079(6) 0.7533(5)
H6 H -0.1586 0.1045 0.8248
C13 C -0.1317(6) 0.0227(6) 0.6864(7)
H7 H -0.1153 -0.0383 0.7126
C14 C -0.1303(6) 0.0274(6) 0.5814(7)
H8 H -0.1139 -0.0307 0.5353
C15 C -0.1535(5) 0.1190(5) 0.5443(4)
H9 H -0.1545 0.1207 0.4721
C16 C -0.2983(5) 0.2704(5) 0.4666(5)
C17 C -0.4090(5) 0.1756(5) 0.4499(5)
H10 H -0.4213 0.1344 0.5035
C18 C -0.5032(6) 0.1414(5) 0.3512(6)
H11 H -0.5790 0.0791 0.3398
C19 C -0.4815(6) 0.2009(6) 0.2736(5)
H12 H -0.5437 0.1793 0.2088
C20 C -0.3713(6) 0.2912(5) 0.2879(5)
H13 H -0.3575 0.3292 0.2324
C21 C -0.2803(5) 0.3264(5) 0.3844(5)
H14 H -0.2053 0.3891 0.3943
C22 C -0.1771(5) 0.5181(5) 0.6060(4)
C23 C -0.2968(5) 0.5134(5) 0.6069(4)
H15 H -0.3537 0.4445 0.6151
C24 C -0.3347(5) 0.6067(6) 0.5961(4)
H16 H -0.4155 0.6017 0.5985
C25 C -0.2526(6) 0.7069(5) 0.5818(4)
H17 H -0.2775 0.7707 0.5740
C26 C -0.1341(6) 0.7140(5) 0.5788(4)
H18 H -0.0787 0.7821 0.5678
C27 C -0.0965(5) 0.6200(5) 0.5921(4)
H19 H -0.0149 0.6261 0.5915
C28 C 0.4007(5) 0.6650(6) 1.1658(5)
C29 C 0.4793(5) 0.7582(5) 1.2546(5)
H20 H 0.4714 0.8325 1.2670
C30 C 0.5691(6) 0.7362(6) 1.3236(5)
H21 H 0.6240 0.7973 1.3834
C31 C 0.5801(5) 0.6261(6) 1.3065(5)
H22 H 0.6431 0.6157 1.3551
C32 C 0.5024(5) 0.5312(5) 1.2214(5)
H23 H 0.5088 0.4562 1.2115
C33 C 0.4127(5) 0.5553(5) 1.1502(5)
C34 C 0.2967(6) 0.3582(5) 1.0131(4)
C35 C 0.3920(5) 0.3205(5) 0.9969(4)
H24 H 0.4731 0.3756 1.0113
C36 C 0.3681(5) 0.2018(5) 0.9594(4)
H25 H 0.4342 0.1777 0.9487
C37 C 0.2498(6) 0.1157(5) 0.9365(4)
C38 C 0.1569(5) 0.1580(5) 0.9541(4)
H26 H 0.0753 0.1038 0.9388
C39 C 0.1802(5) 0.2782(5) 0.9939(4)
H27 H 0.1156 0.3034 1.0072
C40 C 0.2259(5) -0.0130(5) 0.8918(5)
C41 C 0.2250(7) -0.0370(6) 0.7718(5)
H28 H 0.1620 -0.0140 0.7323
H29 H 0.2068 -0.1205 0.7428
H30 H 0.3056 0.0083 0.7641
C42 C 0.3196(6) -0.0551(6) 0.9521(6)
H31 H 0.3974 -0.0259 0.9325
H32 H 0.2884 -0.1407 0.9329
H33 H 0.3331 -0.0255 1.0296
C43 C 0.0987(6) -0.0973(5) 0.8943(5)
H34 H 0.0889 -0.0817 0.9675
H35 H 0.0934 -0.1784 0.8713
H36 H 0.0335 -0.0850 0.8458
loop_
_geom_bond_atom_site_label_1
_geom_bond_atom_site_label_2
_geom_bond_site_symmetry_1
_geom_bond_site_symmetry_2
N1 C1 1_555 1_555
N2 C1 1_555 1_555
C1 C2 1_555 1_555
C2 C3 1_555 1_555
C3 H1 1_555 1_555
C4 C3 1_555 1_555
H2 C4 1_555 1_555
C5 C4 1_555 1_555
C6 C5 1_555 1_555
H3 C6 1_555 1_555
C7 C2 1_555 1_555
H4 C7 1_555 1_555
C8 C5 1_555 1_555
C9 C8 1_555 1_555
C10 C9 1_555 1_555
C11 C10 1_555 1_555
H5 C11 1_555 1_555
C12 C11 1_555 1_555
H6 C12 1_555 1_555
C13 C12 1_555 1_555
H7 C13 1_555 1_555
C14 C13 1_555 1_555
H8 C14 1_555 1_555
C15 C10 1_555 1_555
H9 C15 1_555 1_555
C16 C9 1_555 1_555
C17 C16 1_555 1_555
H10 C17 1_555 1_555
C18 C17 1_555 1_555
H11 C18 1_555 1_555
C19 C18 1_555 1_555
H12 C19 1_555 1_555
C20 C19 1_555 1_555
H13 C20 1_555 1_555
C21 C16 1_555 1_555
H14 C21 1_555 1_555
C22 C8 1_555 1_555
C23 C22 1_555 1_555
H15 C23 1_555 1_555
C24 C23 1_555 1_555
H16 C24 1_555 1_555
C25 C24 1_555 1_555
H17 C25 1_555 1_555
C26 C25 1_555 1_555
H18 C26 1_555 1_555
C27 C22 1_555 1_555
H19 C27 1_555 1_555
C28 N2 1_555 1_555
C29 C28 1_555 1_555
H20 C29 1_555 1_555
C30 C29 1_555 1_555
H21 C30 1_555 1_555
C31 C30 1_555 1_555
H22 C31 1_555 1_555
C32 C31 1_555 1_555
H23 C32 1_555 1_555
C33 N1 1_555 1_555
C34 N1 1_555 1_555
C35 C34 1_555 1_555
H24 C35 1_555 1_555
C36 C35 1_555 1_555
H25 C36 1_555 1_555
C37 C36 1_555 1_555
C38 C37 1_555 1_555
H26 C38 1_555 1_555
C39 C34 1_555 1_555
H27 C39 1_555 1_555
C40 C37 1_555 1_555
C41 C40 1_555 1_555
H28 C41 1_555 1_555
H29 C41 1_555 1_555
H30 C41 1_555 1_555
C42 C40 1_555 1_555
H31 C42 1_555 1_555
H32 C42 1_555 1_555
H33 C42 1_555 1_555
C43 C40 1_555 1_555
H34 C43 1_555 1_555
H35 C43 1_555 1_555
H36 C43 1_555 1_555
C6 C7 1_555 1_555
C14 C15 1_555 1_555
C20 C21 1_555 1_555
C26 C27 1_555 1_555
C28 C33 1_555 1_555
C32 C33 1_555 1_555
C38 C39 1_555 1_555

#END
