
#######################################################################
#
#                 Cambridge Crystallographic Data Centre
#                                CCDC 
#
#######################################################################
#
# If this CIF has been generated from an entry in the Cambridge 
# Structural Database, then it will include bibliographic, chemical, 
# crystal, experimental, refinement or atomic coordinate data resulting 
# from the CCDC's data processing and validation procedures.
#
#######################################################################

data_VEDKAS
_chemical_formula_moiety         'C19 H19 N1 O4'
_chemical_name_systematic        
'Ethyl 2-acetyl-3-phenyl-3,4-dihydro-2H-benzo[b][1,4]oxazine-2-carboxylate'
_symmetry_cell_setting           triclinic
_symmetry_space_group_name_H-M   'P -1'
_symmetry_Int_Tables_number      2
_space_group_name_Hall           '-P 1'
loop_
_symmetry_equiv_pos_site_id
_symmetry_equiv_pos_as_xyz
1 x,y,z
2 -x,-y,-z
_cell_length_a                   8.9397(6)
_cell_length_b                   11.7671(8)
_cell_length_c                   17.0494(12)
_cell_angle_alpha                96.720(3)
_cell_angle_beta                 97.088(3)
_cell_angle_gamma                103.400(3)
_cell_volume                     1711.53
_exptl_crystal_colour            colorless
_exptl_crystal_description       prism
_cell_formula_units_Z            4
loop_
_atom_site_label
_atom_site_type_symbol
_atom_site_fract_x
_atom_site_fract_y
_atom_site_fract_z
C1 C 1.2137(3) 0.57364(18) 0.28252(12)
H1 H 1.1868 0.6389 0.2645
C2 C 1.3653(3) 0.5803(2) 0.31324(14)
H2 H 1.4415 0.6502 0.3165
C3 C 1.4039(3) 0.4825(2) 0.33918(14)
H3 H 1.5067 0.4867 0.3597
C4 C 1.2921(3) 0.3790(2) 0.33496(13)
H4 H 1.3200 0.3141 0.3530
C5 C 1.1372(2) 0.36989(17) 0.30397(11)
C6 C 1.1013(2) 0.46985(16) 0.27852(11)
C7 C 0.8571(2) 0.35406(14) 0.21326(11)
C8 C 0.8617(2) 0.26302(15) 0.27171(11)
H5 H 0.8117 0.1842 0.2418
C9 C 0.7746(2) 0.28287(16) 0.34128(11)
C10 C 0.6439(3) 0.19810(19) 0.34843(14)
H6 H 0.6092 0.1310 0.3100
C11 C 0.5634(3) 0.2112(2) 0.41196(16)
H7 H 0.4750 0.1533 0.4155
C12 C 0.6132(3) 0.3087(3) 0.46934(14)
H8 H 0.5591 0.3173 0.5120
C13 C 0.7429(3) 0.3935(2) 0.46356(14)
H9 H 0.7773 0.4602 0.5024
C14 C 0.8232(3) 0.3806(2) 0.40006(13)
H10 H 0.9117 0.4387 0.3969
C15 C 0.9152(3) 0.31610(18) 0.13411(12)
C16 C 0.9725(4) 0.4120(2) 0.08687(14)
H11 H 1.0059 0.3791 0.0399
H12 H 1.0583 0.4702 0.1189
H13 H 0.8899 0.4484 0.0715
C17 C 0.6927(2) 0.36905(17) 0.19179(12)
C18 C 0.4112(7) 0.2580(5) 0.1460(3)
H14 H 0.3493 0.1781 0.1447
H15 H 0.3828 0.3127 0.1851
C19 C 0.4110(7) 0.2904(7) 0.0771(4)
H16 H 0.3075 0.2930 0.0558
H17 H 0.4452 0.2351 0.0420
H18 H 0.4800 0.3675 0.0817
N1 N 1.0224(2) 0.26666(14) 0.29866(11)
H37 H 1.0470 0.2041 0.3115
O1 O 0.94852(15) 0.46859(10) 0.24885(8)
O2 O 0.6556(2) 0.45852(14) 0.20681(12)
O3 O 0.5987(2) 0.26843(15) 0.15616(13)
O4 O 0.9101(2) 0.21476(14) 0.11284(10)
C20 C 0.5788(3) 0.95945(19) 0.11915(12)
H19 H 0.6285 1.0376 0.1172
C21 C 0.4270(3) 0.9126(2) 0.08206(14)
H20 H 0.3738 0.9593 0.0551
C22 C 0.3542(3) 0.7967(2) 0.08501(14)
H21 H 0.2520 0.7654 0.0599
C23 C 0.4318(3) 0.7262(2) 0.12502(12)
H22 H 0.3813 0.6480 0.1263
C24 C 0.5854(2) 0.77141(16) 0.16361(10)
C25 C 0.6563(2) 0.88931(16) 0.15923(10)
C26 C 0.8999(2) 0.85640(14) 0.20396(10)
C27 C 0.8230(2) 0.75303(15) 0.24531(10)
H23 H 0.8796 0.6915 0.2382
C28 C 0.8299(2) 0.78871(16) 0.33462(11)
C29 C 0.8967(4) 0.7287(3) 0.38733(14)
H24 H 0.9376 0.6669 0.3681
C30 C 0.9039(5) 0.7591(3) 0.46919(17)
H25 H 0.9501 0.7176 0.5042
C31 C 0.8446(3) 0.8483(3) 0.49867(14)
H26 H 0.8497 0.8684 0.5535
C32 C 0.7779(4) 0.9074(3) 0.44668(15)
H27 H 0.7369 0.9689 0.4661
C33 C 0.7699(3) 0.8778(2) 0.36572(13)
H28 H 0.7225 0.9193 0.3312
C34 C 1.0573(2) 0.92530(15) 0.25099(11)
C35 C 1.3122(3) 0.9056(2) 0.29467(13)
H29 H 1.3439 0.9888 0.2899
H30 H 1.3830 0.8661 0.2707
C36 C 1.3205(3) 0.8920(2) 0.38026(14)
H31 H 1.4249 0.9261 0.4073
H32 H 1.2913 0.8095 0.3850
H33 H 1.2507 0.9315 0.4040
C37 C 0.9288(2) 0.81119(17) 0.11869(11)
C38 C 0.9644(3) 0.9028(2) 0.06553(13)
H34 H 0.9798 0.8664 0.0148
H35 H 1.0572 0.9617 0.0897
H36 H 0.8791 0.9392 0.0579
N2 N 0.66590(19) 0.70521(14) 0.20419(10)
H38 H 0.6213 0.6324 0.2052
O5 O 0.80813(14) 0.94000(10) 0.19736(7)
O6 O 1.09015(18) 1.02661(12) 0.28072(10)
O7 O 1.15489(15) 0.85561(11) 0.25268(8)
O8 O 0.9260(2) 0.70975(13) 0.09924(9)
loop_
_geom_bond_atom_site_label_1
_geom_bond_atom_site_label_2
_geom_bond_site_symmetry_1
_geom_bond_site_symmetry_2
C1 H1 1_555 1_555
C2 C1 1_555 1_555
H2 C2 1_555 1_555
C3 C2 1_555 1_555
H3 C3 1_555 1_555
C4 C3 1_555 1_555
H4 C4 1_555 1_555
C5 C4 1_555 1_555
C6 C1 1_555 1_555
C7 C8 1_555 1_555
C8 H5 1_555 1_555
C9 C8 1_555 1_555
C10 C9 1_555 1_555
H6 C10 1_555 1_555
C11 C10 1_555 1_555
H7 C11 1_555 1_555
C12 C11 1_555 1_555
H8 C12 1_555 1_555
C13 C12 1_555 1_555
H9 C13 1_555 1_555
C14 C9 1_555 1_555
H10 C14 1_555 1_555
C15 C7 1_555 1_555
C16 C15 1_555 1_555
H11 C16 1_555 1_555
H12 C16 1_555 1_555
H13 C16 1_555 1_555
C17 C7 1_555 1_555
C18 H14 1_555 1_555
H15 C18 1_555 1_555
C19 C18 1_555 1_555
H16 C19 1_555 1_555
H17 C19 1_555 1_555
H18 C19 1_555 1_555
C20 H19 1_555 1_555
C21 C20 1_555 1_555
H20 C21 1_555 1_555
C22 C21 1_555 1_555
H21 C22 1_555 1_555
C23 C22 1_555 1_555
H22 C23 1_555 1_555
C24 C23 1_555 1_555
C25 C20 1_555 1_555
C26 C27 1_555 1_555
C27 H23 1_555 1_555
C28 C27 1_555 1_555
C29 C28 1_555 1_555
H24 C29 1_555 1_555
C30 C29 1_555 1_555
H25 C30 1_555 1_555
C31 C30 1_555 1_555
H26 C31 1_555 1_555
C32 C31 1_555 1_555
H27 C32 1_555 1_555
C33 C28 1_555 1_555
H28 C33 1_555 1_555
C34 C26 1_555 1_555
C35 H29 1_555 1_555
H30 C35 1_555 1_555
C36 C35 1_555 1_555
H31 C36 1_555 1_555
H32 C36 1_555 1_555
H33 C36 1_555 1_555
C37 C26 1_555 1_555
C38 C37 1_555 1_555
H34 C38 1_555 1_555
H35 C38 1_555 1_555
H36 C38 1_555 1_555
N1 C5 1_555 1_555
H37 N1 1_555 1_555
N2 C24 1_555 1_555
H38 N2 1_555 1_555
O1 C6 1_555 1_555
O2 C17 1_555 1_555
O3 C17 1_555 1_555
O4 C15 1_555 1_555
O5 C25 1_555 1_555
O6 C34 1_555 1_555
O7 C34 1_555 1_555
O8 C37 1_555 1_555
C5 C6 1_555 1_555
C7 O1 1_555 1_555
C8 N1 1_555 1_555
C13 C14 1_555 1_555
C18 O3 1_555 1_555
C24 C25 1_555 1_555
C26 O5 1_555 1_555
C27 N2 1_555 1_555
C32 C33 1_555 1_555
C35 O7 1_555 1_555

#END
