
#######################################################################
#
#                 Cambridge Crystallographic Data Centre
#                                CCDC 
#
#######################################################################
#
# If this CIF has been generated from an entry in the Cambridge 
# Structural Database, then it will include bibliographic, chemical, 
# crystal, experimental, refinement or atomic coordinate data resulting 
# from the CCDC's data processing and validation procedures.
#
#######################################################################

data_VEDMOJ
_chemical_formula_moiety         'C10 H10 N6 2+,C10 H6 O6 S2 2-'
_chemical_name_systematic        
"1,1'-(pyridazine-3,6-diyl)bis(1H-imidazol-3-ium) naphthalene-1,5-disulfonate"
_symmetry_cell_setting           triclinic
_symmetry_space_group_name_H-M   'P -1'
_symmetry_Int_Tables_number      2
_space_group_name_Hall           '-P 1'
loop_
_symmetry_equiv_pos_site_id
_symmetry_equiv_pos_as_xyz
1 x,y,z
2 -x,-y,-z
_cell_length_a                   7.2322(6)
_cell_length_b                   11.6236(9)
_cell_length_c                   13.6507(11)
_cell_angle_alpha                75.9560(10)
_cell_angle_beta                 78.1080(10)
_cell_angle_gamma                80.842(2)
_cell_volume                     1082.12
_exptl_crystal_colour            colorless
_exptl_crystal_description       block
_cell_formula_units_Z            2
loop_
_atom_site_label
_atom_site_type_symbol
_atom_site_fract_x
_atom_site_fract_y
_atom_site_fract_z
N1 N 0.7452(4) 0.8773(2) 0.84649(19)
N2 N 0.6938(4) 0.9946(2) 0.8435(2)
N3 N 0.7927(4) 0.7113(2) 0.77592(17)
N4 N 0.8751(4) 0.5285(2) 0.84531(19)
H1 H 0.9036 0.4654 0.8901
N5 N 0.5866(4) 1.1851(2) 0.7652(2)
N6 N 0.4973(5) 1.3429(3) 0.8266(3)
H2 H 0.4650 1.3901 0.8686
C1 C 0.7385(4) 0.8359(3) 0.7649(2)
C2 C 0.6832(4) 0.9050(3) 0.6749(2)
H3 H 0.6817 0.8719 0.6195
C3 C 0.6314(4) 1.0236(3) 0.6720(2)
H4 H 0.5921 1.0753 0.6146
C4 C 0.6401(4) 1.0637(3) 0.7590(2)
C5 C 0.8268(4) 0.6355(3) 0.8631(2)
H5 H 0.8177 0.6559 0.9259
C6 C 0.8736(6) 0.5320(3) 0.7450(3)
H6 H 0.9035 0.4678 0.7127
C7 C 0.8206(6) 0.6456(3) 0.7019(3)
H7 H 0.8053 0.6748 0.6340
C8 C 0.5513(5) 1.2266(3) 0.8514(3)
H8 H 0.5626 1.1820 0.9168
C9 C 0.5019(6) 1.3751(4) 0.7226(3)
H9 H 0.4722 1.4517 0.6850
C10 C 0.5555(6) 1.2790(3) 0.6861(3)
H10 H 0.5700 1.2752 0.6176
O1 O 0.2990(3) 1.2021(2) 0.53313(15)
O2 O 0.0755(4) 1.3300(2) 0.62868(17)
O3 O -0.0385(4) 1.1843(2) 0.56235(18)
O4 O 0.3128(4) 0.5518(2) 0.89820(17)
O5 O 0.4427(3) 0.6961(2) 0.95874(16)
O6 O 0.1067(3) 0.6772(2) 1.00225(15)
S1 S 0.11533(13) 1.21449(8) 0.60106(6)
S2 S 0.28140(12) 0.66635(8) 0.92676(6)
C11 C 0.1403(4) 1.1073(3) 0.7176(2)
C12 C 0.1316(5) 1.1479(3) 0.8050(2)
H11 H 0.1059 1.2292 0.8035
C13 C 0.1616(4) 1.0668(3) 0.8969(2)
H12 H 0.1563 1.0951 0.9556
C14 C 0.1983(4) 0.9471(3) 0.9006(2)
H13 H 0.2186 0.8952 0.9620
C15 C 0.2062(4) 0.9002(3) 0.8127(2)
C16 C 0.1774(4) 0.9832(3) 0.7177(2)
C17 C 0.1861(4) 0.9365(3) 0.6294(2)
H14 H 0.1643 0.9882 0.5682
C18 C 0.2259(5) 0.8169(3) 0.6335(2)
H15 H 0.2332 0.7885 0.5746
C19 C 0.2562(5) 0.7355(3) 0.7256(2)
H16 H 0.2842 0.6543 0.7267
C20 C 0.2444(4) 0.7757(3) 0.8129(2)
loop_
_geom_bond_atom_site_label_1
_geom_bond_atom_site_label_2
_geom_bond_site_symmetry_1
_geom_bond_site_symmetry_2
N1 N2 1_555 1_555
N2 C4 1_555 1_555
N3 C1 1_555 1_555
N4 H1 1_555 1_555
N5 C4 1_555 1_555
N6 H2 1_555 1_555
C1 N1 1_555 1_555
C2 C1 1_555 1_555
H3 C2 1_555 1_555
C3 C2 1_555 1_555
H4 C3 1_555 1_555
C4 C3 1_555 1_555
C5 N3 1_555 1_555
H5 C5 1_555 1_555
C6 N4 1_555 1_555
H6 C6 1_555 1_555
C7 N3 1_555 1_555
H7 C7 1_555 1_555
C8 N5 1_555 1_555
H8 C8 1_555 1_555
C9 N6 1_555 1_555
H9 C9 1_555 1_555
C10 N5 1_555 1_555
H10 C10 1_555 1_555
O1 S1 1_555 1_555
O2 S1 1_555 1_555
O3 S1 1_555 1_555
O4 S2 1_555 1_555
O5 S2 1_555 1_555
O6 S2 1_555 1_555
S1 C11 1_555 1_555
S2 C20 1_555 1_555
C11 C12 1_555 1_555
C12 H11 1_555 1_555
C13 C12 1_555 1_555
H12 C13 1_555 1_555
C14 C13 1_555 1_555
H13 C14 1_555 1_555
C15 C14 1_555 1_555
C16 C11 1_555 1_555
C17 C16 1_555 1_555
H14 C17 1_555 1_555
C18 C17 1_555 1_555
H15 C18 1_555 1_555
C19 C18 1_555 1_555
H16 C19 1_555 1_555
C20 C15 1_555 1_555
N4 C5 1_555 1_555
N6 C8 1_555 1_555
C6 C7 1_555 1_555
C9 C10 1_555 1_555
C15 C16 1_555 1_555
C19 C20 1_555 1_555

#END
