
#######################################################################
#
#                 Cambridge Crystallographic Data Centre
#                                CCDC 
#
#######################################################################
#
# If this CIF has been generated from an entry in the Cambridge 
# Structural Database, then it will include bibliographic, chemical, 
# crystal, experimental, refinement or atomic coordinate data resulting 
# from the CCDC's data processing and validation procedures.
#
#######################################################################

data_VEDMAV
_chemical_formula_moiety         'C10 H16 N4 2+,2(C8 H4 N1 O6 1-),2(H2 O1)'
_chemical_name_systematic        
"1,1'-(butane-1,4-diyl)bis(1H-imidazol-3-ium) bis(2-carboxy-6-nitrobenzoate) dihydrate"
_symmetry_cell_setting           monoclinic
_symmetry_space_group_name_H-M   'P 21/c'
_symmetry_Int_Tables_number      14
_space_group_name_Hall           '-P 2ybc'
loop_
_symmetry_equiv_pos_site_id
_symmetry_equiv_pos_as_xyz
1 x,y,z
2 -x,1/2+y,1/2-z
3 -x,-y,-z
4 x,1/2-y,1/2+z
_cell_length_a                   12.6368(11)
_cell_length_b                   15.1058(13)
_cell_length_c                   7.8401(7)
_cell_angle_alpha                90
_cell_angle_beta                 98.437(3)
_cell_angle_gamma                90
_cell_volume                     1480.39
_exptl_crystal_colour            colorless
_exptl_crystal_description       block
_cell_formula_units_Z            2
loop_
_atom_site_label
_atom_site_type_symbol
_atom_site_fract_x
_atom_site_fract_y
_atom_site_fract_z
N1 N 0.4760(2) 0.30339(15) 0.1115(4)
N2 N 0.5299(2) 0.17022(16) 0.0758(4)
H1 H 0.5713 0.1257 0.0678
C1 C 0.5612(3) 0.2528(2) 0.1078(5)
H2 H 0.6318 0.2723 0.1250
C2 C 0.4215(3) 0.1676(2) 0.0576(5)
H3 H 0.3788 0.1176 0.0348
C3 C 0.3870(3) 0.2508(2) 0.0788(5)
H4 H 0.3162 0.2691 0.0725
C4 C 0.4797(3) 0.39983(18) 0.1417(5)
H5 H 0.5385 0.4134 0.2321
H6 H 0.4139 0.4185 0.1808
C5 C 0.4940(3) 0.45060(18) -0.0185(5)
H7 H 0.4326 0.4408 -0.1063
H8 H 0.5570 0.4291 -0.0626
N1B N 0.5240(2) 0.69661(15) -0.1115(4)
N2B N 0.4701(2) 0.82978(16) -0.0758(4)
H1B H 0.4287 0.8743 -0.0678
C1B C 0.4388(3) 0.7472(2) -0.1078(5)
H2B H 0.3682 0.7277 -0.1250
C2B C 0.5785(3) 0.8324(2) -0.0576(5)
H3B H 0.6212 0.8824 -0.0348
C3B C 0.6130(3) 0.7492(2) -0.0788(5)
H4B H 0.6838 0.7309 -0.0725
C4B C 0.5203(3) 0.60017(18) -0.1417(5)
H5B H 0.4615 0.5866 -0.2321
H6B H 0.5861 0.5815 -0.1808
C5B C 0.5060(3) 0.54940(18) 0.0185(5)
H7B H 0.5674 0.5592 0.1063
H8B H 0.4430 0.5709 0.0626
N3 N 0.8255(2) 0.5852(2) 0.7475(4)
O1 O 0.9112(2) 0.40031(14) 0.1089(3)
H9 H 0.8912 0.3588 0.0448
O2 O 0.7447(2) 0.39180(15) 0.1711(3)
O3 O 0.77821(19) 0.35841(13) 0.5512(3)
O4 O 0.65427(19) 0.46402(13) 0.5282(3)
O5 O 0.8075(3) 0.51751(17) 0.8222(3)
O6 O 0.8201(3) 0.65861(17) 0.8112(4)
C6 C 0.8324(3) 0.4255(2) 0.1914(5)
C7 C 0.7475(3) 0.4357(2) 0.5222(4)
C8 C 0.8623(3) 0.50078(18) 0.3120(4)
C9 C 0.8242(3) 0.50480(18) 0.4708(4)
C10 C 0.8545(3) 0.57824(19) 0.5732(5)
C11 C 0.9166(3) 0.6467(2) 0.5225(5)
H10 H 0.9337 0.6955 0.5935
C12 C 0.9522(3) 0.6408(2) 0.3658(5)
H11 H 0.9930 0.6863 0.3289
C13 C 0.9276(3) 0.5673(2) 0.2629(5)
H12 H 0.9551 0.5622 0.1595
O7 O 0.8594(2) 0.28245(13) 0.8735(3)
H13 H 0.8260 0.2983 0.7763
H14 H 0.8259 0.2396 0.9115
loop_
_geom_bond_atom_site_label_1
_geom_bond_atom_site_label_2
_geom_bond_site_symmetry_1
_geom_bond_site_symmetry_2
N1 C1 1_555 1_555
N2 H1 1_555 1_555
C1 N2 1_555 1_555
H2 C1 1_555 1_555
C2 N2 1_555 1_555
H3 C2 1_555 1_555
C3 N1 1_555 1_555
H4 C3 1_555 1_555
C4 N1 1_555 1_555
H5 C4 1_555 1_555
H6 C4 1_555 1_555
C5 C4 1_555 1_555
H7 C5 1_555 1_555
H8 C5 1_555 1_555
N3 O5 1_555 1_555
O1 H9 1_555 1_555
O2 C6 1_555 1_555
O3 C7 1_555 1_555
O4 C7 1_555 1_555
O6 N3 1_555 1_555
C6 O1 1_555 1_555
C7 C9 1_555 1_555
C8 C6 1_555 1_555
C9 C8 1_555 1_555
C10 N3 1_555 1_555
C11 C10 1_555 1_555
H10 C11 1_555 1_555
C12 C11 1_555 1_555
H11 C12 1_555 1_555
C13 C8 1_555 1_555
H12 C13 1_555 1_555
O7 H13 1_555 1_555
H14 O7 1_555 1_555
N1B C1B 1_555 1_555
N2B H1B 1_555 1_555
C1B N2B 1_555 1_555
H2B C1B 1_555 1_555
C2B N2B 1_555 1_555
H3B C2B 1_555 1_555
C3B N1B 1_555 1_555
H4B C3B 1_555 1_555
C4B N1B 1_555 1_555
H5B C4B 1_555 1_555
H6B C4B 1_555 1_555
C5B C5 1_555 1_555
H7B C5B 1_555 1_555
H8B C5B 1_555 1_555
C2 C3 1_555 1_555
C9 C10 1_555 1_555
C12 C13 1_555 1_555
C2B C3B 1_555 1_555
C4B C5B 1_555 1_555

#END
