
#######################################################################
#
#                 Cambridge Crystallographic Data Centre
#                                CCDC 
#
#######################################################################
#
# If this CIF has been generated from an entry in the Cambridge 
# Structural Database, then it will include bibliographic, chemical, 
# crystal, experimental, refinement or atomic coordinate data resulting 
# from the CCDC's data processing and validation procedures.
#
#######################################################################

data_VEDSIJ
_chemical_formula_moiety         'C18 H27 N1 O4'
_chemical_name_systematic        
'ethyl 5,10,13,13-tetramethyl-8-oxo-7-oxa-12-azatetracyclo[7.2.1.1^2,5^.0^1,6^]tridecane-11-carboxylate'
_symmetry_cell_setting           orthorhombic
_symmetry_space_group_name_H-M   'P 21 21 21'
_symmetry_Int_Tables_number      19
_space_group_name_Hall           'P 2ac 2ab'
loop_
_symmetry_equiv_pos_site_id
_symmetry_equiv_pos_as_xyz
1 x,y,z
2 1/2-x,-y,1/2+z
3 1/2+x,1/2-y,-z
4 -x,1/2+y,1/2-z
_cell_length_a                   7.0462(3)
_cell_length_b                   14.9347(9)
_cell_length_c                   16.4046(10)
_cell_angle_alpha                90
_cell_angle_beta                 90
_cell_angle_gamma                90
_cell_volume                     1726.3
_exptl_crystal_colour            colorless
_exptl_crystal_description       block
_cell_formula_units_Z            4
loop_
_atom_site_label
_atom_site_type_symbol
_atom_site_fract_x
_atom_site_fract_y
_atom_site_fract_z
O1 O -0.3052(3) -0.67603(16) -0.41763(14)
O2 O -0.0739(3) -0.6625(2) -0.50741(17)
O3 O -0.5951(4) -0.35883(17) -0.4768(2)
O4 O -0.8848(3) -0.41613(16) -0.46829(16)
N1 N -0.3347(3) -0.50256(19) -0.41337(17)
H1 H -0.3275 -0.4456 -0.4062
C1 C -0.4965(4) -0.6464(2) -0.39767(19)
H2 H -0.5852 -0.6737 -0.4364
C2 C -0.5573(4) -0.6724(2) -0.3103(2)
C3 C -0.7764(4) -0.6632(3) -0.3146(2)
H3 H -0.8360 -0.6902 -0.2673
H4 H -0.8261 -0.6912 -0.3634
C4 C -0.8104(4) -0.5605(3) -0.3161(2)
H5 H -0.8789 -0.5425 -0.3647
H6 H -0.8801 -0.5409 -0.2683
C5 C -0.6069(4) -0.5231(2) -0.31619(19)
H7 H -0.5977 -0.4602 -0.2997
C6 C -0.5216(4) -0.5431(2) -0.40067(18)
C7 C -0.5041(5) -0.5886(3) -0.25862(19)
C8 C -0.5867(6) -0.5895(3) -0.1717(2)
H8 H -0.7196 -0.6034 -0.1741
H9 H -0.5698 -0.5317 -0.1472
H10 H -0.5223 -0.6339 -0.1397
C9 C -0.2880(5) -0.5759(3) -0.2476(2)
H11 H -0.2409 -0.6193 -0.2096
H12 H -0.2632 -0.5167 -0.2274
H13 H -0.2257 -0.5836 -0.2992
C10 C -0.4895(6) -0.7642(3) -0.2829(2)
H14 H -0.5384 -0.8091 -0.3192
H15 H -0.5339 -0.7757 -0.2286
H16 H -0.3533 -0.7658 -0.2837
C11 C -0.2141(5) -0.6299(3) -0.4771(2)
C12 C -0.2876(4) -0.5371(2) -0.4948(2)
H17 H -0.1878 -0.5006 -0.5198
C13 C -0.4742(5) -0.5317(2) -0.5465(2)
H18 H -0.4686 -0.4769 -0.5793
C14 C -0.6306(4) -0.5188(2) -0.4807(2)
H19 H -0.7374 -0.5596 -0.4898
C15 C -0.5068(6) -0.6101(3) -0.6044(2)
H20 H -0.5179 -0.6645 -0.5736
H21 H -0.4015 -0.6149 -0.6414
H22 H -0.6213 -0.6004 -0.6348
C16 C -0.6972(5) -0.4224(2) -0.4755(2)
C17 C -0.9656(6) -0.3273(3) -0.4590(3)
H23 H -1.0871 -0.3248 -0.4867
H24 H -0.8822 -0.2836 -0.4841
C18 C -0.9915(9) -0.3052(4) -0.3726(3)
H25 H -1.0701 -0.2529 -0.3679
H26 H -0.8701 -0.2935 -0.3482
H27 H -1.0511 -0.3545 -0.3453
loop_
_geom_bond_atom_site_label_1
_geom_bond_atom_site_label_2
_geom_bond_site_symmetry_1
_geom_bond_site_symmetry_2
O1 C1 1_555 1_555
O2 C11 1_555 1_555
O3 C16 1_555 1_555
O4 C16 1_555 1_555
N1 H1 1_555 1_555
C1 H2 1_555 1_555
C2 C1 1_555 1_555
C3 C2 1_555 1_555
H3 C3 1_555 1_555
H4 C3 1_555 1_555
C4 C3 1_555 1_555
H5 C4 1_555 1_555
H6 C4 1_555 1_555
C5 C4 1_555 1_555
H7 C5 1_555 1_555
C6 N1 1_555 1_555
C7 C2 1_555 1_555
C8 C7 1_555 1_555
H8 C8 1_555 1_555
H9 C8 1_555 1_555
H10 C8 1_555 1_555
C9 C7 1_555 1_555
H11 C9 1_555 1_555
H12 C9 1_555 1_555
H13 C9 1_555 1_555
C10 C2 1_555 1_555
H14 C10 1_555 1_555
H15 C10 1_555 1_555
H16 C10 1_555 1_555
C11 O1 1_555 1_555
C12 N1 1_555 1_555
H17 C12 1_555 1_555
C13 C12 1_555 1_555
H18 C13 1_555 1_555
C14 C6 1_555 1_555
H19 C14 1_555 1_555
C15 C13 1_555 1_555
H20 C15 1_555 1_555
H21 C15 1_555 1_555
H22 C15 1_555 1_555
C16 C14 1_555 1_555
C17 O4 1_555 1_555
H23 C17 1_555 1_555
H24 C17 1_555 1_555
C18 C17 1_555 1_555
H25 C18 1_555 1_555
H26 C18 1_555 1_555
H27 C18 1_555 1_555
C1 C6 1_555 1_555
C5 C6 1_555 1_555
C5 C7 1_555 1_555
C11 C12 1_555 1_555
C13 C14 1_555 1_555

#END
