
#######################################################################
#
#                 Cambridge Crystallographic Data Centre
#                                CCDC 
#
#######################################################################
#
# If this CIF has been generated from an entry in the Cambridge 
# Structural Database, then it will include bibliographic, chemical, 
# crystal, experimental, refinement or atomic coordinate data resulting 
# from the CCDC's data processing and validation procedures.
#
#######################################################################

data_VEDSAB
_chemical_formula_moiety         'C20 H31 N1 O4'
_chemical_name_systematic        
't-butyl 3-(8,11,11-trimethyl-4-oxo-3-oxa-6-azatricyclo[6.2.1.0^2,7^]undec-6-en-5-yl)butanoate'
_symmetry_cell_setting           monoclinic
_symmetry_space_group_name_H-M   'P 21'
_symmetry_Int_Tables_number      4
_space_group_name_Hall           'P 2yb'
loop_
_symmetry_equiv_pos_site_id
_symmetry_equiv_pos_as_xyz
1 x,y,z
2 -x,1/2+y,-z
_cell_length_a                   10.1183(7)
_cell_length_b                   6.5997(6)
_cell_length_c                   15.6889(8)
_cell_angle_alpha                90
_cell_angle_beta                 96.969(6)
_cell_angle_gamma                90
_cell_volume                     1039.93
_exptl_crystal_colour            colorless
_exptl_crystal_description       block
_cell_formula_units_Z            2
loop_
_atom_site_label
_atom_site_type_symbol
_atom_site_fract_x
_atom_site_fract_y
_atom_site_fract_z
O1 O -0.4571(3) -0.6086(5) -0.43712(17)
O2 O -0.6672(3) -0.5967(7) -0.4168(2)
O3 O -0.8106(4) -0.3409(11) -0.1706(2)
O4 O -0.6487(3) -0.4695(7) -0.08155(17)
N1 N -0.3982(3) -0.2922(6) -0.31608(18)
C1 C -0.2087(4) -0.6169(8) -0.4354(3)
H1 H -0.2183 -0.7436 -0.4682
C2 C -0.3361(4) -0.4910(7) -0.4369(2)
H2 H -0.3442 -0.3976 -0.4858
C3 C -0.3097(4) -0.3751(6) -0.3546(2)
C4 C -0.1658(4) -0.4103(7) -0.3198(3)
C5 C -0.1588(4) -0.6408(7) -0.3389(3)
C6 C -0.1072(5) -0.4653(8) -0.4643(3)
H3 H -0.1435 -0.3944 -0.5161
H4 H -0.0255 -0.5331 -0.4746
C7 C -0.0831(5) -0.3193(8) -0.3876(3)
H5 H -0.1136 -0.1838 -0.4038
H6 H 0.0107 -0.3138 -0.3656
C8 C -0.1283(4) -0.3394(8) -0.2281(3)
H7 H -0.1452 -0.1968 -0.2245
H8 H -0.0354 -0.3652 -0.2110
H9 H -0.1804 -0.4114 -0.1908
C9 C -0.0171(5) -0.7293(8) -0.3205(4)
H10 H -0.0176 -0.8678 -0.3392
H11 H 0.0118 -0.7229 -0.2600
H12 H 0.0426 -0.6521 -0.3509
C10 C -0.2510(5) -0.7681(8) -0.2899(3)
H13 H -0.3357 -0.7019 -0.2916
H14 H -0.2121 -0.7829 -0.2313
H15 H -0.2629 -0.8994 -0.3161
C11 C -0.5612(5) -0.5151(8) -0.4075(2)
C12 C -0.5344(4) -0.3146(8) -0.3610(2)
H16 H -0.5468 -0.2075 -0.4045
C13 C -0.6345(4) -0.2746(8) -0.2971(2)
H17 H -0.7240 -0.3062 -0.3251
C14 C -0.6300(5) -0.0507(9) -0.2720(3)
H18 H -0.5438 -0.0188 -0.2425
H19 H -0.6968 -0.0238 -0.2350
H20 H -0.6465 0.0311 -0.3228
C15 C -0.6034(4) -0.4140(9) -0.2205(2)
H21 H -0.5990 -0.5520 -0.2413
H22 H -0.5160 -0.3795 -0.1917
C16 C -0.7011(4) -0.4070(10) -0.1560(3)
C17 C -0.7250(6) -0.4889(14) -0.0070(3)
C18 C -0.8412(9) -0.6148(19) -0.0261(5)
H23 H -0.8938 -0.5657 -0.0769
H24 H -0.8931 -0.6110 0.0212
H25 H -0.8141 -0.7517 -0.0352
C19 C -0.6267(8) -0.563(2) 0.0598(4)
H26 H -0.5973 -0.6946 0.0447
H27 H -0.6649 -0.5706 0.1128
H28 H -0.5521 -0.4715 0.0666
C20 C -0.7685(11) -0.273(2) 0.0131(5)
H29 H -0.6913 -0.1919 0.0302
H30 H -0.8235 -0.2777 0.0589
H31 H -0.8181 -0.2157 -0.0371
loop_
_geom_bond_atom_site_label_1
_geom_bond_atom_site_label_2
_geom_bond_site_symmetry_1
_geom_bond_site_symmetry_2
O1 C2 1_555 1_555
O2 C11 1_555 1_555
O3 C16 1_555 1_555
O4 C16 1_555 1_555
N1 C3 1_555 1_555
C1 H1 1_555 1_555
C2 C1 1_555 1_555
H2 C2 1_555 1_555
C3 C2 1_555 1_555
C4 C3 1_555 1_555
C5 C1 1_555 1_555
C6 C1 1_555 1_555
H3 C6 1_555 1_555
H4 C6 1_555 1_555
C7 C4 1_555 1_555
H5 C7 1_555 1_555
H6 C7 1_555 1_555
C8 C4 1_555 1_555
H7 C8 1_555 1_555
H8 C8 1_555 1_555
H9 C8 1_555 1_555
C9 C5 1_555 1_555
H10 C9 1_555 1_555
H11 C9 1_555 1_555
H12 C9 1_555 1_555
C10 C5 1_555 1_555
H13 C10 1_555 1_555
H14 C10 1_555 1_555
H15 C10 1_555 1_555
C11 O1 1_555 1_555
C12 N1 1_555 1_555
H16 C12 1_555 1_555
C13 C12 1_555 1_555
H17 C13 1_555 1_555
C14 C13 1_555 1_555
H18 C14 1_555 1_555
H19 C14 1_555 1_555
H20 C14 1_555 1_555
C15 C13 1_555 1_555
H21 C15 1_555 1_555
H22 C15 1_555 1_555
C16 C15 1_555 1_555
C17 O4 1_555 1_555
C18 C17 1_555 1_555
H23 C18 1_555 1_555
H24 C18 1_555 1_555
H25 C18 1_555 1_555
C19 C17 1_555 1_555
H26 C19 1_555 1_555
H27 C19 1_555 1_555
H28 C19 1_555 1_555
C20 C17 1_555 1_555
H29 C20 1_555 1_555
H30 C20 1_555 1_555
H31 C20 1_555 1_555
C4 C5 1_555 1_555
C6 C7 1_555 1_555
C11 C12 1_555 1_555

#END
