
#######################################################################
#
#                 Cambridge Crystallographic Data Centre
#                                CCDC 
#
#######################################################################
#
# If this CIF has been generated from an entry in the Cambridge 
# Structural Database, then it will include bibliographic, chemical, 
# crystal, experimental, refinement or atomic coordinate data resulting 
# from the CCDC's data processing and validation procedures.
#
#######################################################################

data_VEDSEF
_chemical_formula_moiety         'C24 H29 Cl2 N1 O4'
_chemical_name_systematic        
'2,6-dichlorobenzyl (2R,3S)-2-methyl-3-((1S,2R,5S,8R)-8,11,11-trimethyl-4-oxo-3-oxa-6-azatricyclo[6.2.1.0^2,7^]undec-6-en-5-yl)butanoate'
_symmetry_cell_setting           triclinic
_symmetry_space_group_name_H-M   'P 1'
_symmetry_Int_Tables_number      1
_space_group_name_Hall           'P 1'
loop_
_symmetry_equiv_pos_site_id
_symmetry_equiv_pos_as_xyz
1 x,y,z
_cell_length_a                   7.3804(17)
_cell_length_b                   9.680(2)
_cell_length_c                   16.898(4)
_cell_angle_alpha                87.64(2)
_cell_angle_beta                 86.23(2)
_cell_angle_gamma                89.091(19)
_cell_volume                     1203.49
_exptl_crystal_colour            colorless
_exptl_crystal_description       block
_cell_formula_units_Z            2
loop_
_atom_site_label
_atom_site_type_symbol
_atom_site_fract_x
_atom_site_fract_y
_atom_site_fract_z
Cl1 Cl -0.7131(3) -0.8039(4) -0.9670(2)
Cl2 Cl -0.1300(4) -1.1170(3) -0.88605(18)
O1 O -1.1810(5) -0.6480(4) -0.4980(2)
O2 O -1.1649(6) -0.8713(5) -0.5146(3)
O3 O -0.7082(7) -1.0794(5) -0.7246(4)
O4 O -0.5645(8) -0.9175(5) -0.8022(3)
N1 N -0.9437(6) -0.6051(5) -0.6351(3)
C1 C -1.0853(8) -0.5201(6) -0.5113(4)
H1 H -0.9852 -0.5166 -0.4761
C2 C -1.2063(8) -0.3886(6) -0.5041(4)
H2 H -1.3049 -0.3944 -0.4624
C3 C -1.0693(10) -0.2736(7) -0.4951(5)
H3 H -0.9856 -0.2992 -0.4549
H4 H -1.1303 -0.1875 -0.4815
C4 C -0.9706(10) -0.2618(8) -0.5781(5)
H5 H -0.8433 -0.2872 -0.5758
H6 H -0.9796 -0.1682 -0.6005
C5 C -1.0696(9) -0.3642(7) -0.6280(4)
C6 C -1.0148(7) -0.5044(6) -0.5964(4)
C7 C -1.2670(8) -0.3572(7) -0.5876(4)
C8 C -1.3594(11) -0.2151(9) -0.6005(5)
H7 H -1.4770 -0.2149 -0.5726
H8 H -1.3724 -0.1972 -0.6561
H9 H -1.2864 -0.1447 -0.5807
C9 C -1.3910(10) -0.4676(8) -0.6170(5)
H10 H -1.3248 -0.5534 -0.6215
H11 H -1.4314 -0.4384 -0.6679
H12 H -1.4941 -0.4801 -0.5799
C10 C -1.0396(14) -0.3400(9) -0.7175(4)
H13 H -0.9125 -0.3274 -0.7313
H14 H -1.1061 -0.2589 -0.7339
H15 H -1.0813 -0.4186 -0.7437
C11 C -1.1019(8) -0.7616(7) -0.5314(4)
C12 C -0.9321(7) -0.7344(6) -0.5867(4)
H16 H -0.8289 -0.7272 -0.5535
C13 C -0.8925(7) -0.8541(6) -0.6414(4)
H17 H -0.8998 -0.9401 -0.6087
C14 C -1.0338(9) -0.8603(9) -0.7033(5)
H18 H -1.1517 -0.8747 -0.6770
H19 H -1.0041 -0.9353 -0.7375
H20 H -1.0343 -0.7749 -0.7342
C15 C -0.7015(7) -0.8456(6) -0.6810(4)
H21 H -0.6906 -0.7579 -0.7119
C16 C -0.5533(9) -0.8529(9) -0.6211(5)
H22 H -0.5703 -0.7779 -0.5857
H23 H -0.4361 -0.8461 -0.6490
H24 H -0.5611 -0.9392 -0.5910
C17 C -0.6632(9) -0.9629(8) -0.7364(4)
C18 C -0.5276(13) -1.0221(10) -0.8614(6)
H25 H -0.6409 -1.0551 -0.8791
H26 H -0.4627 -1.1001 -0.8383
C19 C -0.4168(11) -0.9599(8) -0.9296(5)
C20 C -0.4870(10) -0.8586(9) -0.9817(5)
C21 C -0.3848(15) -0.8022(10) -1.0457(6)
H27 H -0.4336 -0.7341 -1.0788
C22 C -0.2120(14) -0.8480(11) -1.0595(6)
H28 H -0.1428 -0.8142 -1.1038
C23 C -0.1398(11) -0.9415(11) -1.0097(7)
H29 H -0.0194 -0.9694 -1.0191
C24 C -0.2395(11) -0.9968(8) -0.9455(4)
Cl3 Cl -0.6487(4) -0.2477(3) -0.01689(15)
Cl4 Cl -0.1107(3) -0.5833(3) 0.08722(18)
O5 O -0.6881(5) -0.6995(4) -0.4122(3)
O6 O -0.6841(6) -0.4747(5) -0.3994(3)
O7 O -0.2335(8) -0.2820(6) -0.1814(3)
O8 O -0.2784(7) -0.4564(5) -0.0940(3)
N2 N -0.5118(6) -0.7375(5) -0.2697(3)
C25 C -0.5963(8) -0.8312(6) -0.3933(4)
H30 H -0.4802 -0.8388 -0.4246
C26 C -0.7102(9) -0.9584(7) -0.4010(4)
H31 H -0.7892 -0.9534 -0.4455
C27 C -0.5706(11) -1.0778(8) -0.4032(5)
H32 H -0.4680 -1.0567 -0.4403
H33 H -0.6250 -1.1631 -0.4175
C28 C -0.5130(11) -1.0877(8) -0.3168(6)
H34 H -0.5356 -1.1792 -0.2930
H35 H -0.3851 -1.0674 -0.3148
C29 C -0.6318(9) -0.9782(7) -0.2738(4)
C30 C -0.5678(7) -0.8400(6) -0.3056(4)
C31 C -0.8102(9) -0.9807(7) -0.3183(4)
C32 C -0.9474(10) -0.8669(8) -0.2975(5)
H36 H -1.0322 -0.8569 -0.3381
H37 H -0.8851 -0.7814 -0.2935
H38 H -1.0114 -0.8905 -0.2476
C33 C -0.9078(11) -1.1197(8) -0.3083(5)
H39 H -1.0052 -1.1202 -0.3432
H40 H -0.9560 -1.1327 -0.2544
H41 H -0.8233 -1.1932 -0.3209
C34 C -0.6503(14) -0.9913(9) -0.1836(5)
H42 H -0.5320 -0.9897 -0.1632
H43 H -0.7080 -1.0770 -0.1674
H44 H -0.7224 -0.9156 -0.1634
C35 C -0.6231(7) -0.5884(7) -0.3799(4)
C36 C -0.4794(7) -0.6139(6) -0.3216(3)
H45 H -0.3651 -0.6303 -0.3529
C37 C -0.4500(7) -0.4879(6) -0.2713(4)
H46 H -0.4375 -0.4057 -0.3070
C38 C -0.6168(8) -0.4651(7) -0.2114(5)
H47 H -0.6335 -0.5459 -0.1770
H48 H -0.7237 -0.4484 -0.2400
H49 H -0.5958 -0.3868 -0.1802
C39 C -0.2720(7) -0.5093(6) -0.2292(4)
H50 H -0.2736 -0.6011 -0.2025
C40 C -0.1039(7) -0.5001(8) -0.2868(4)
H51 H -0.1069 -0.5718 -0.3243
H52 H 0.0033 -0.5112 -0.2578
H53 H -0.1024 -0.4115 -0.3146
C41 C -0.2584(8) -0.4009(7) -0.1669(4)
C42 C -0.2635(11) -0.3627(9) -0.0286(5)
H54 H -0.3020 -0.2700 -0.0445
H55 H -0.1387 -0.3594 -0.0141
C43 C -0.3828(10) -0.4170(8) 0.0400(4)
C44 C -0.5632(13) -0.3663(8) 0.0512(5)
C45 C -0.6748(12) -0.4080(9) 0.1139(6)
H56 H -0.7920 -0.3716 0.1201
C46 C -0.6157(14) -0.5027(11) 0.1675(6)
H57 H -0.6931 -0.5309 0.2106
C47 C -0.4454(14) -0.5577(10) 0.1597(5)
H58 H -0.4076 -0.6240 0.1967
C48 C -0.3255(11) -0.5139(9) 0.0951(6)
loop_
_geom_bond_atom_site_label_1
_geom_bond_atom_site_label_2
_geom_bond_site_symmetry_1
_geom_bond_site_symmetry_2
Cl1 C20 1_555 1_555
Cl2 C24 1_555 1_555
O1 C1 1_555 1_555
O2 C11 1_555 1_555
O3 C17 1_555 1_555
O4 C17 1_555 1_555
N1 C6 1_555 1_555
C1 H1 1_555 1_555
C2 C1 1_555 1_555
H2 C2 1_555 1_555
C3 C2 1_555 1_555
H3 C3 1_555 1_555
H4 C3 1_555 1_555
C4 C3 1_555 1_555
H5 C4 1_555 1_555
H6 C4 1_555 1_555
C5 C4 1_555 1_555
C6 C1 1_555 1_555
C7 C2 1_555 1_555
C8 C7 1_555 1_555
H7 C8 1_555 1_555
H8 C8 1_555 1_555
H9 C8 1_555 1_555
C9 C7 1_555 1_555
H10 C9 1_555 1_555
H11 C9 1_555 1_555
H12 C9 1_555 1_555
C10 C5 1_555 1_555
H13 C10 1_555 1_555
H14 C10 1_555 1_555
H15 C10 1_555 1_555
C11 O1 1_555 1_555
C12 N1 1_555 1_555
H16 C12 1_555 1_555
C13 C12 1_555 1_555
H17 C13 1_555 1_555
C14 C13 1_555 1_555
H18 C14 1_555 1_555
H19 C14 1_555 1_555
H20 C14 1_555 1_555
C15 C13 1_555 1_555
H21 C15 1_555 1_555
C16 C15 1_555 1_555
H22 C16 1_555 1_555
H23 C16 1_555 1_555
H24 C16 1_555 1_555
C17 C15 1_555 1_555
C18 O4 1_555 1_555
H25 C18 1_555 1_555
H26 C18 1_555 1_555
C19 C18 1_555 1_555
C20 C19 1_555 1_555
C21 C20 1_555 1_555
H27 C21 1_555 1_555
C22 C21 1_555 1_555
H28 C22 1_555 1_555
C23 C22 1_555 1_555
H29 C23 1_555 1_555
C24 C19 1_555 1_555
Cl3 C44 1_555 1_555
Cl4 C48 1_555 1_555
O5 C25 1_555 1_555
O6 C35 1_555 1_555
O7 C41 1_555 1_555
O8 C41 1_555 1_555
N2 C30 1_555 1_555
C25 H30 1_555 1_555
C26 C25 1_555 1_555
H31 C26 1_555 1_555
C27 C26 1_555 1_555
H32 C27 1_555 1_555
H33 C27 1_555 1_555
C28 C27 1_555 1_555
H34 C28 1_555 1_555
H35 C28 1_555 1_555
C29 C28 1_555 1_555
C30 C25 1_555 1_555
C31 C26 1_555 1_555
C32 C31 1_555 1_555
H36 C32 1_555 1_555
H37 C32 1_555 1_555
H38 C32 1_555 1_555
C33 C31 1_555 1_555
H39 C33 1_555 1_555
H40 C33 1_555 1_555
H41 C33 1_555 1_555
C34 C29 1_555 1_555
H42 C34 1_555 1_555
H43 C34 1_555 1_555
H44 C34 1_555 1_555
C35 O5 1_555 1_555
C36 N2 1_555 1_555
H45 C36 1_555 1_555
C37 C36 1_555 1_555
H46 C37 1_555 1_555
C38 C37 1_555 1_555
H47 C38 1_555 1_555
H48 C38 1_555 1_555
H49 C38 1_555 1_555
C39 C37 1_555 1_555
H50 C39 1_555 1_555
C40 C39 1_555 1_555
H51 C40 1_555 1_555
H52 C40 1_555 1_555
H53 C40 1_555 1_555
C41 C39 1_555 1_555
C42 O8 1_555 1_555
H54 C42 1_555 1_555
H55 C42 1_555 1_555
C43 C42 1_555 1_555
C44 C43 1_555 1_555
C45 C44 1_555 1_555
H56 C45 1_555 1_555
C46 C45 1_555 1_555
H57 C46 1_555 1_555
C47 C46 1_555 1_555
H58 C47 1_555 1_555
C48 C43 1_555 1_555
C5 C6 1_555 1_555
C5 C7 1_555 1_555
C11 C12 1_555 1_555
C23 C24 1_555 1_555
C29 C30 1_555 1_555
C29 C31 1_555 1_555
C35 C36 1_555 1_555
C47 C48 1_555 1_555

#END
