
#######################################################################
#
#                 Cambridge Crystallographic Data Centre
#                                CCDC 
#
#######################################################################
#
# If this CIF has been generated from an entry in the Cambridge 
# Structural Database, then it will include bibliographic, chemical, 
# crystal, experimental, refinement or atomic coordinate data resulting 
# from the CCDC's data processing and validation procedures.
#
#######################################################################

data_VEDTOQ
_chemical_formula_moiety         'C40 H36 Cl4 N8,C4 H12 N1 1+,5(H2 O1),F1 1-'
_chemical_name_systematic        
'tetramethylammonium fluoride 5,15-bis(5,6-dichloro-1H-benzimidazol-2-yl)-5,10,10,15,20,20-hexamethyl-5,10,15,20,22,24-hexahydroporphyrin pentahydrate'
_symmetry_cell_setting           orthorhombic
_symmetry_space_group_name_H-M   'P b c a'
_symmetry_Int_Tables_number      61
_space_group_name_Hall           '-P 2ac 2ab'
loop_
_symmetry_equiv_pos_site_id
_symmetry_equiv_pos_as_xyz
1 x,y,z
2 1/2-x,-y,1/2+z
3 -x,1/2+y,1/2-z
4 1/2+x,1/2-y,-z
5 -x,-y,-z
6 1/2+x,y,1/2-z
7 x,1/2-y,1/2+z
8 1/2-x,1/2+y,z
_cell_length_a                   20.4311(12)
_cell_length_b                   19.9681(7)
_cell_length_c                   23.3131(10)
_cell_angle_alpha                90
_cell_angle_beta                 90
_cell_angle_gamma                90
_cell_volume                     9511.05
_exptl_crystal_colour            colorless
_exptl_crystal_description       block
_cell_formula_units_Z            8
loop_
_atom_site_label
_atom_site_type_symbol
_atom_site_fract_x
_atom_site_fract_y
_atom_site_fract_z
C1 C 0.2734(4) 0.6059(3) 0.4299(2)
Cl1 Cl 0.54470(12) 0.86824(10) 0.44351(11)
N1 N 0.3361(3) 0.5573(2) 0.3473(2)
H1 H 0.3337 0.5932 0.3271
C2 C 0.3089(3) 0.5501(3) 0.4001(2)
Cl2 Cl 0.42005(10) 0.95213(7) 0.47569(7)
N2 N 0.3309(3) 0.5541(2) 0.20572(19)
H2 H 0.3327 0.5917 0.2237
C3 C 0.3227(4) 0.4863(3) 0.4175(2)
H3 H 0.3099 0.4667 0.4519
Cl3 Cl 0.42597(11) 0.93547(8) 0.07703(8)
N3 N 0.2035(3) 0.6567(2) 0.2078(2)
H4 H 0.2391 0.6657 0.2258
C4 C 0.3601(4) 0.4554(3) 0.3739(3)
H5 H 0.3766 0.4120 0.3748
Cl4 Cl 0.54034(11) 0.83351(9) 0.05112(9)
N4 N 0.2097(3) 0.6623(2) 0.3496(2)
H6 H 0.2440 0.6770 0.3323
C5 C 0.3678(3) 0.5001(3) 0.3302(2)
N5 N 0.3706(3) 0.6500(2) 0.1059(2)
C6 C 0.4064(3) 0.4952(3) 0.2756(2)
N6 N 0.2935(3) 0.7284(2) 0.4482(2)
H7 H 0.2533 0.7387 0.4549
C7 C 0.3619(3) 0.4963(3) 0.2230(2)
C8 C 0.3453(4) 0.4479(3) 0.1839(2)
H8 H 0.3587 0.4035 0.1848
C9 C 0.3047(4) 0.4768(3) 0.1424(2)
H9 H 0.2863 0.4547 0.1112
C10 C 0.2967(4) 0.5436(3) 0.1558(2)
C11 C 0.2602(3) 0.5991(3) 0.1252(2)
C12 C 0.1997(3) 0.6222(3) 0.1569(2)
C13 C 0.1352(4) 0.6180(3) 0.1420(3)
H10 H 0.1182 0.5974 0.1095
C14 C 0.0990(4) 0.6509(3) 0.1854(3)
H11 H 0.0537 0.6555 0.1865
C15 C 0.1418(3) 0.6748(3) 0.2255(2)
C16 C 0.1315(3) 0.7146(3) 0.2798(3)
C17 C 0.1474(4) 0.6728(3) 0.3317(3)
C18 C 0.1068(4) 0.6405(3) 0.3706(3)
H12 H 0.0613 0.6387 0.3690
C19 C 0.1466(4) 0.6107(3) 0.4131(3)
H13 H 0.1319 0.5863 0.4445
C20 C 0.2104(4) 0.6242(3) 0.4001(2)
C21 C 0.3170(4) 0.6680(3) 0.4342(2)
C22 C 0.3466(3) 0.7705(3) 0.4497(2)
C23 C 0.3515(4) 0.8386(3) 0.4614(2)
H14 H 0.3147 0.8640 0.4701
C24 C 0.4131(4) 0.8673(3) 0.4597(3)
C25 C 0.4682(4) 0.8301(3) 0.4458(3)
C26 C 0.4644(4) 0.7621(4) 0.4337(3)
H15 H 0.5014 0.7374 0.4242
C27 C 0.4036(4) 0.7330(3) 0.4364(3)
N7 N 0.3820(3) 0.6673(2) 0.4276(2)
C28 C 0.2561(4) 0.5845(3) 0.4920(2)
H16 H 0.2342 0.6207 0.5111
H17 H 0.2955 0.5735 0.5123
H18 H 0.2279 0.5461 0.4909
C29 C 0.4443(3) 0.4293(3) 0.2759(3)
H19 H 0.4148 0.3930 0.2833
H20 H 0.4772 0.4307 0.3053
H21 H 0.4649 0.4229 0.2393
C30 C 0.4547(4) 0.5539(3) 0.2722(3)
H22 H 0.4778 0.5522 0.2363
H23 H 0.4855 0.5509 0.3032
H24 H 0.4312 0.5954 0.2749
C31 C 0.2407(4) 0.5747(3) 0.0650(2)
H25 H 0.2106 0.5380 0.0683
H26 H 0.2790 0.5602 0.0447
H27 H 0.2203 0.6106 0.0443
C32 C 0.3076(4) 0.6571(3) 0.1170(2)
N8 N 0.2878(3) 0.7215(2) 0.1159(2)
H28 H 0.2489 0.7364 0.1220
C33 C 0.3431(3) 0.7588(3) 0.1031(2)
C34 C 0.3510(4) 0.8278(3) 0.0975(3)
H29 H 0.3164 0.8573 0.1030
C35 C 0.4123(4) 0.8499(3) 0.0834(3)
C36 C 0.4654(4) 0.8052(3) 0.0740(3)
C37 C 0.4572(4) 0.7356(3) 0.0805(3)
H30 H 0.4914 0.7057 0.0746
C38 C 0.3953(3) 0.7142(3) 0.0962(2)
C39 C 0.1757(3) 0.7763(3) 0.2792(3)
H31 H 0.1685 0.8021 0.3134
H32 H 0.1658 0.8032 0.2462
H33 H 0.2207 0.7625 0.2777
C40 C 0.0597(4) 0.7375(3) 0.2821(3)
H34 H 0.0315 0.6991 0.2802
H35 H 0.0508 0.7665 0.2501
H36 H 0.0519 0.7612 0.3172
N9 N 0.1594(3) 0.4469(2) 0.2818(2)
C41 C 0.1849(4) 0.5163(4) 0.2771(4)
H37 H 0.1513 0.5450 0.2621
H38 H 0.2220 0.5169 0.2519
H39 H 0.1978 0.5319 0.3144
C42 C 0.2106(5) 0.4064(5) 0.3097(6)
H40 H 0.2438 0.3954 0.2821
H41 H 0.1917 0.3660 0.3245
H42 H 0.2298 0.4315 0.3405
C43 C 0.1433(7) 0.4208(7) 0.2253(4)
H43 H 0.1161 0.4523 0.2054
H44 H 0.1203 0.3791 0.2293
H45 H 0.1828 0.4137 0.2039
C44 C 0.1008(4) 0.4456(5) 0.3201(4)
H46 H 0.1126 0.4620 0.3574
H47 H 0.0850 0.4005 0.3233
H48 H 0.0671 0.4735 0.3041
F1 F 0.31581(19) 0.66687(15) 0.27412(13)
O1 O 0.1668(2) 0.78065(19) 0.11236(17)
H49 H 0.1346 0.7592 0.1261
H50 H 0.1672 0.7765 0.0761
O2 O 0.1716(2) 0.7462(2) -0.00340(17)
H51 H 0.1706 0.7089 -0.0209
H52 H 0.1729 0.7394 0.0326
O3 O 0.47374(19) 0.5586(2) 0.42772(16)
H53 H 0.5080 0.5478 0.4462
H54 H 0.4486 0.5248 0.4250
O4 O 0.4644(2) 0.5400(2) 0.11981(16)
H55 H 0.4432 0.5126 0.1406
H56 H 0.4651 0.5260 0.0854
O5 O 0.1106(3) 0.27249(16) 0.2886(3)
H57 H 0.1147 0.2684 0.2525
H58 H 0.0705 0.2680 0.2977
H59? H 0.3922 0.6130 0.1048
H60? H 0.4059 0.6332 0.4195
loop_
_geom_bond_atom_site_label_1
_geom_bond_atom_site_label_2
_geom_bond_site_symmetry_1
_geom_bond_site_symmetry_2
C1 C2 1_555 1_555
Cl1 C25 1_555 1_555
N1 H1 1_555 1_555
C2 N1 1_555 1_555
Cl2 C24 1_555 1_555
N2 H2 1_555 1_555
C3 C2 1_555 1_555
H3 C3 1_555 1_555
Cl3 C35 1_555 1_555
N3 H4 1_555 1_555
C4 C3 1_555 1_555
H5 C4 1_555 1_555
Cl4 C36 1_555 1_555
N4 H6 1_555 1_555
C5 N1 1_555 1_555
N5 C32 1_555 1_555
C6 C5 1_555 1_555
N6 H7 1_555 1_555
C7 N2 1_555 1_555
C8 C7 1_555 1_555
H8 C8 1_555 1_555
C9 C8 1_555 1_555
H9 C9 1_555 1_555
C10 N2 1_555 1_555
C11 C10 1_555 1_555
C12 N3 1_555 1_555
C13 C12 1_555 1_555
H10 C13 1_555 1_555
C14 C13 1_555 1_555
H11 C14 1_555 1_555
C15 N3 1_555 1_555
C16 C15 1_555 1_555
C17 N4 1_555 1_555
C18 C17 1_555 1_555
H12 C18 1_555 1_555
C19 C18 1_555 1_555
H13 C19 1_555 1_555
C20 C1 1_555 1_555
C21 C1 1_555 1_555
C22 N6 1_555 1_555
C23 C22 1_555 1_555
H14 C23 1_555 1_555
C24 C23 1_555 1_555
C25 C24 1_555 1_555
C26 C25 1_555 1_555
H15 C26 1_555 1_555
C27 C22 1_555 1_555
N7 C21 1_555 1_555
C28 C1 1_555 1_555
H16 C28 1_555 1_555
H17 C28 1_555 1_555
H18 C28 1_555 1_555
C29 C6 1_555 1_555
H19 C29 1_555 1_555
H20 C29 1_555 1_555
H21 C29 1_555 1_555
C30 C6 1_555 1_555
H22 C30 1_555 1_555
H23 C30 1_555 1_555
H24 C30 1_555 1_555
C31 C11 1_555 1_555
H25 C31 1_555 1_555
H26 C31 1_555 1_555
H27 C31 1_555 1_555
C32 C11 1_555 1_555
N8 C32 1_555 1_555
H28 N8 1_555 1_555
C33 N8 1_555 1_555
C34 C33 1_555 1_555
H29 C34 1_555 1_555
C35 C34 1_555 1_555
C36 C35 1_555 1_555
C37 C36 1_555 1_555
H30 C37 1_555 1_555
C38 N5 1_555 1_555
C39 C16 1_555 1_555
H31 C39 1_555 1_555
H32 C39 1_555 1_555
H33 C39 1_555 1_555
C40 C16 1_555 1_555
H34 C40 1_555 1_555
H35 C40 1_555 1_555
H36 C40 1_555 1_555
N9 C41 1_555 1_555
C41 H37 1_555 1_555
H38 C41 1_555 1_555
H39 C41 1_555 1_555
C42 N9 1_555 1_555
H40 C42 1_555 1_555
H41 C42 1_555 1_555
H42 C42 1_555 1_555
C43 N9 1_555 1_555
H43 C43 1_555 1_555
H44 C43 1_555 1_555
H45 C43 1_555 1_555
C44 N9 1_555 1_555
H46 C44 1_555 1_555
H47 C44 1_555 1_555
H48 C44 1_555 1_555
O1 H49 1_555 1_555
H50 O1 1_555 1_555
O2 H51 1_555 1_555
H52 O2 1_555 1_555
O3 H53 1_555 1_555
H54 O3 1_555 1_555
O4 H55 1_555 1_555
H56 O4 1_555 1_555
O5 H57 1_555 1_555
H58 O5 1_555 1_555
C4 C5 1_555 1_555
N4 C20 1_555 1_555
C6 C7 1_555 1_555
N6 C21 1_555 1_555
C9 C10 1_555 1_555
C11 C12 1_555 1_555
C14 C15 1_555 1_555
C16 C17 1_555 1_555
C19 C20 1_555 1_555
C26 C27 1_555 1_555
C27 N7 1_555 1_555
C33 C38 1_555 1_555
C37 C38 1_555 1_555

#END
