
#######################################################################
#
#                 Cambridge Crystallographic Data Centre
#                                CCDC 
#
#######################################################################
#
# If this CIF has been generated from an entry in the Cambridge 
# Structural Database, then it will include bibliographic, chemical, 
# crystal, experimental, refinement or atomic coordinate data resulting 
# from the CCDC's data processing and validation procedures.
#
#######################################################################

data_VEDVAE
_chemical_formula_moiety         'C29 H28 N2 O6 S1'
_chemical_name_systematic        
'diethyl 3-benzylidene-4-(phenylsulfonyl)-3,3a,4,8b-tetrahydropyrrolo[3,2-b]indole-2,2(1H)-dicarboxylate'
_symmetry_cell_setting           monoclinic
_symmetry_space_group_name_H-M   'P 21/c'
_symmetry_Int_Tables_number      14
_space_group_name_Hall           '-P 2ybc'
loop_
_symmetry_equiv_pos_site_id
_symmetry_equiv_pos_as_xyz
1 x,y,z
2 -x,1/2+y,1/2-z
3 -x,-y,-z
4 x,1/2-y,1/2+z
_cell_length_a                   12.4154(13)
_cell_length_b                   10.9297(11)
_cell_length_c                   19.168(2)
_cell_angle_alpha                90
_cell_angle_beta                 100.793(2)
_cell_angle_gamma                90
_cell_volume                     2555.02
_exptl_crystal_colour            colorless
_exptl_crystal_description       Prism
_cell_formula_units_Z            4
loop_
_atom_site_label
_atom_site_type_symbol
_atom_site_fract_x
_atom_site_fract_y
_atom_site_fract_z
S1 S 0.69330(2) 0.37399(3) 0.118910(15)
O1 O 0.77891(8) 0.33394(9) 0.08374(5)
O2 O 0.60231(8) 0.29526(8) 0.12215(5)
O3 O 0.93212(7) 0.47249(8) 0.39580(5)
O4 O 0.87502(7) 0.65833(8) 0.42420(5)
O5 O 0.58387(7) 0.51670(9) 0.43342(5)
O6 O 0.75285(7) 0.48037(8) 0.49672(5)
N1 N 0.75324(8) 0.40323(9) 0.20309(5)
N2 N 0.68446(8) 0.61940(9) 0.32972(5)
C1 C 0.64280(10) 0.51407(11) 0.08107(6)
C2 C 0.53721(10) 0.55042(12) 0.08635(6)
H1 H 0.4922 0.4998 0.1093
C3 C 0.49902(11) 0.66202(12) 0.05751(7)
H2 H 0.4274 0.6886 0.0610
C4 C 0.56433(11) 0.73503(12) 0.02361(7)
H3 H 0.5372 0.8112 0.0037
C5 C 0.66927(11) 0.69746(12) 0.01852(7)
H4 H 0.7138 0.7478 -0.0049
C6 C 0.70930(11) 0.58664(12) 0.04749(7)
H5 H 0.7813 0.5607 0.0444
C7 C 0.83518(9) 0.49910(11) 0.20852(6)
C8 C 0.93557(10) 0.49118(13) 0.18719(7)
H6 H 0.9584 0.4178 0.1677
C9 C 1.00138(11) 0.59468(14) 0.19543(8)
H7 H 1.0706 0.5922 0.1811
C10 C 0.96816(12) 0.70168(14) 0.22409(8)
H8 H 1.0144 0.7716 0.2287
C11 C 0.86770(11) 0.70751(12) 0.24611(7)
H9 H 0.8453 0.7803 0.2664
C12 C 0.80094(10) 0.60478(11) 0.23786(6)
C13 C 0.68897(9) 0.58591(10) 0.25667(6)
H10 H 0.6304 0.6282 0.2221
C14 C 0.67737(9) 0.44424(10) 0.25079(6)
H11 H 0.5999 0.4190 0.2321
C15 C 0.71596(9) 0.40258(10) 0.32734(6)
C16 C 0.72626(9) 0.29107(11) 0.35664(6)
H12 H 0.7579 0.2910 0.4058
C17 C 0.69777(9) 0.16851(11) 0.32702(6)
C18 C 0.63057(10) 0.14733(11) 0.26112(7)
H13 H 0.6028 0.2147 0.2319
C19 C 0.60375(10) 0.02902(11) 0.23776(7)
H14 H 0.5583 0.0161 0.1927
C20 C 0.64304(10) -0.07039(11) 0.27986(7)
H15 H 0.6246 -0.1512 0.2636
C21 C 0.70913(10) -0.05159(11) 0.34558(7)
H16 H 0.7365 -0.1195 0.3745
C22 C 0.73541(10) 0.06682(11) 0.36916(7)
H17 H 0.7797 0.0791 0.4147
C23 C 0.73724(9) 0.51840(10) 0.37362(6)
C24 C 0.86060(9) 0.54470(11) 0.39852(6)
C25 C 0.98813(10) 0.69572(12) 0.44911(7)
H18 H 1.0262 0.7061 0.4085
H19 H 1.0277 0.6332 0.4815
C26 C 0.98483(13) 0.81470(16) 0.48742(10)
H20 H 0.9390 0.8731 0.4563
H21 H 1.0593 0.8474 0.5008
H22 H 0.9540 0.8014 0.5303
C27 C 0.68135(10) 0.50554(10) 0.43813(6)
C28 C 0.71151(11) 0.46950(12) 0.56341(7)
H23 H 0.6931 0.3832 0.5717
H24 H 0.6446 0.5197 0.5612
C29 C 0.79894(15) 0.5131(2) 0.62116(9)
H25 H 0.8653 0.4641 0.6220
H26 H 0.7747 0.5049 0.6667
H27 H 0.8149 0.5992 0.6131
H28 H 0.6145(8) 0.6212(14) 0.3355(8)
loop_
_geom_bond_atom_site_label_1
_geom_bond_atom_site_label_2
_geom_bond_site_symmetry_1
_geom_bond_site_symmetry_2
S1 O1 1_555 1_555
O2 S1 1_555 1_555
O3 C24 1_555 1_555
O4 C24 1_555 1_555
O5 C27 1_555 1_555
O6 C27 1_555 1_555
N1 S1 1_555 1_555
N2 C13 1_555 1_555
C1 S1 1_555 1_555
C2 C1 1_555 1_555
H1 C2 1_555 1_555
C3 C2 1_555 1_555
H2 C3 1_555 1_555
C4 C3 1_555 1_555
H3 C4 1_555 1_555
C5 C4 1_555 1_555
H4 C5 1_555 1_555
C6 C1 1_555 1_555
H5 C6 1_555 1_555
C7 N1 1_555 1_555
C8 C7 1_555 1_555
H6 C8 1_555 1_555
C9 C8 1_555 1_555
H7 C9 1_555 1_555
C10 C9 1_555 1_555
H8 C10 1_555 1_555
C11 C10 1_555 1_555
H9 C11 1_555 1_555
C12 C7 1_555 1_555
C13 C12 1_555 1_555
H10 C13 1_555 1_555
C14 N1 1_555 1_555
H11 C14 1_555 1_555
C15 C14 1_555 1_555
C16 C15 1_555 1_555
H12 C16 1_555 1_555
C17 C16 1_555 1_555
C18 C17 1_555 1_555
H13 C18 1_555 1_555
C19 C18 1_555 1_555
H14 C19 1_555 1_555
C20 C19 1_555 1_555
H15 C20 1_555 1_555
C21 C20 1_555 1_555
H16 C21 1_555 1_555
C22 C17 1_555 1_555
H17 C22 1_555 1_555
C23 N2 1_555 1_555
C24 C23 1_555 1_555
C25 O4 1_555 1_555
H18 C25 1_555 1_555
H19 C25 1_555 1_555
C26 C25 1_555 1_555
H20 C26 1_555 1_555
H21 C26 1_555 1_555
H22 C26 1_555 1_555
C27 C23 1_555 1_555
C28 O6 1_555 1_555
H23 C28 1_555 1_555
H24 C28 1_555 1_555
C29 C28 1_555 1_555
H25 C29 1_555 1_555
H26 C29 1_555 1_555
H27 C29 1_555 1_555
H28 N2 1_555 1_555
C5 C6 1_555 1_555
C11 C12 1_555 1_555
C13 C14 1_555 1_555
C15 C23 1_555 1_555
C21 C22 1_555 1_555

#END
