
#######################################################################
#
#                 Cambridge Crystallographic Data Centre
#                                CCDC 
#
#######################################################################
#
# If this CIF has been generated from an entry in the Cambridge 
# Structural Database, then it will include bibliographic, chemical, 
# crystal, experimental, refinement or atomic coordinate data resulting 
# from the CCDC's data processing and validation procedures.
#
#######################################################################

data_VEDWOT
_chemical_formula_moiety         'C16 H25 N1 O3'
_chemical_name_systematic        
3-(1-hydroxy-2-methylpropyl)-8,9,9-trimethyl-3,5,6,7,8,8a-hexahydro-2H-5,8-methano-1,4-benzoxazin-2-one
_symmetry_cell_setting           triclinic
_symmetry_space_group_name_H-M   'P 1'
_symmetry_Int_Tables_number      1
_space_group_name_Hall           'P 1'
loop_
_symmetry_equiv_pos_site_id
_symmetry_equiv_pos_as_xyz
1 x,y,z
_cell_length_a                   10.9576(3)
_cell_length_b                   10.9859(3)
_cell_length_c                   13.5339(5)
_cell_angle_alpha                99.194(3)
_cell_angle_beta                 98.907(3)
_cell_angle_gamma                102.923(2)
_cell_volume                     1536.48
_exptl_crystal_colour            colorless
_exptl_crystal_description       block
_cell_formula_units_Z            4
loop_
_atom_site_label
_atom_site_type_symbol
_atom_site_fract_x
_atom_site_fract_y
_atom_site_fract_z
O1 O 0.2368(3) 0.9426(3) 0.2480(2)
O2 O 0.2023(3) 0.8865(2) 0.0793(2)
O3 O 0.3943(3) 0.7825(3) 0.3275(2)
H1 H 0.449820 0.743322 0.328259
N1 N 0.3132(3) 0.6840(3) 0.1057(2)
C1 C 0.2813(3) 0.7079(3) 0.0171(3)
C2 C 0.1450(4) 0.9249(4) -0.1315(3)
H2 H 0.159623 0.940708 -0.197009
H3 H 0.186348 0.999916 -0.080027
H4 H 0.054841 0.903917 -0.132560
C3 C 0.2242(4) 0.8598(4) 0.1736(3)
C4 C 0.1748(4) 0.6992(4) 0.3503(3)
H5 H 0.151854 0.780906 0.354757
C5 C 0.2742(4) 0.6976(4) 0.2825(3)
H6 H 0.287466 0.611542 0.272621
C6 C 0.1384(4) 0.6842(4) -0.1831(3)
H7 H 0.129099 0.695448 -0.253314
H8 H 0.055302 0.644609 -0.170645
C7 C 0.3411(4) 0.6935(4) -0.0746(3)
H9 H 0.422845 0.670440 -0.064215
C8 C 0.1995(4) 0.8134(4) -0.1076(3)
C9 C 0.1799(4) 0.7784(3) -0.0048(3)
H10 H 0.094733 0.721764 -0.011980
C10 C 0.3862(4) 0.8371(4) -0.2066(3)
H11 H 0.474165 0.835410 -0.201109
H12 H 0.375489 0.915783 -0.224282
H13 H 0.333969 0.766879 -0.258607
C11 C 0.4332(4) 0.9375(4) -0.0229(3)
H14 H 0.416399 0.927489 0.043283
H15 H 0.417113 1.016064 -0.036792
H16 H 0.520807 0.938812 -0.024297
C12 C 0.2292(3) 0.7220(3) 0.1755(3)
H17 H 0.142680 0.667243 0.148687
C13 C 0.3460(4) 0.8260(4) -0.1040(3)
C14 C 0.2325(5) 0.6872(5) 0.4585(3)
H18 H 0.250702 0.605291 0.455764
H19 H 0.172768 0.695582 0.502418
H20 H 0.310110 0.753059 0.484606
C15 C 0.0545(4) 0.5921(4) 0.3070(3)
H21 H 0.014854 0.603834 0.242056
H22 H -0.003812 0.593047 0.353145
H23 H 0.076377 0.511686 0.298583
C16 C 0.2354(5) 0.6029(4) -0.1602(3)
H24 H 0.195677 0.527059 -0.137384
H25 H 0.269378 0.577775 -0.220134
O4 O 0.7430(3) 0.4872(2) 0.35971(19)
O5 O 0.7142(3) 0.4371(3) 0.1913(2)
O6 O 0.5141(3) 0.5541(3) 0.1123(2)
H26 H 0.475477 0.609970 0.112156
N2 N 0.5259(3) 0.5827(3) 0.3352(2)
C17 C 0.5942(3) 0.5949(3) 0.4231(3)
C18 C 0.6683(4) 0.4614(3) 0.2654(3)
C19 C 0.8872(4) 0.5329(4) 0.5693(3)
H27 H 0.935815 0.579737 0.634906
H28 H 0.936002 0.550082 0.517722
H29 H 0.867829 0.443305 0.569488
C20 C 0.4173(4) 0.3241(4) 0.0898(3)
H30 H 0.496676 0.298714 0.084650
C21 C 0.6713(4) 0.5473(4) 0.6218(3)
H31 H 0.717677 0.572140 0.691989
H32 H 0.626532 0.457748 0.608224
C22 C 0.4507(4) 0.4567(4) 0.1587(3)
H33 H 0.369791 0.475603 0.169276
C23 C 0.6767(4) 0.5041(4) 0.4440(3)
H34 H 0.623981 0.422040 0.450255
C24 C 0.6252(4) 0.6980(4) 0.5163(3)
H35 H 0.595864 0.774277 0.507640
C25 C 0.7628(4) 0.5737(4) 0.5467(3)
C26 C 0.5772(4) 0.6309(4) 0.6006(3)
H36 H 0.490300 0.578776 0.576775
H37 H 0.580670 0.692651 0.661437
C27 C 0.5290(4) 0.4649(3) 0.2636(3)
H38 H 0.488222 0.391438 0.290099
C28 C 0.8434(4) 0.7689(4) 0.4653(3)
H39 H 0.803316 0.718012 0.398889
H40 H 0.930572 0.764244 0.480876
H41 H 0.841176 0.855896 0.466209
C29 C 0.8340(5) 0.8076(4) 0.6489(3)
H42 H 0.823779 0.891670 0.646660
H43 H 0.923383 0.810760 0.663991
H44 H 0.793687 0.775846 0.701092
C30 C 0.3501(5) 0.3275(4) -0.0176(3)
H45 H 0.268609 0.344954 -0.014539
H46 H 0.337977 0.246475 -0.061990
H47 H 0.401662 0.393064 -0.043529
C31 C 0.7721(4) 0.7187(4) 0.5451(3)
C32 C 0.3322(4) 0.2257(4) 0.1334(3)
H48 H 0.377364 0.217908 0.197840
H49 H 0.309028 0.144795 0.086901
H50 H 0.256381 0.252234 0.143078
O7 O 0.6506(3) 0.4403(3) 0.87518(19)
O8 O 0.7007(3) 0.8313(3) 1.0059(3)
H51 H 0.657055 0.806238 0.948098
O9 O 0.6126(3) 0.6226(3) 0.8485(2)
N3 N 0.8825(3) 0.5832(3) 1.0068(3)
C33 C 0.7182(4) 0.3823(4) 0.9498(3)
H52 H 0.675686 0.376868 1.008126
C34 C 0.8978(4) 0.8413(4) 1.1140(3)
H53 H 0.972577 0.805928 1.117125
C35 C 0.7748(4) 0.2008(4) 1.0036(3)
H54 H 0.717506 0.211319 1.050383
H55 H 0.774592 0.111491 0.987336
C36 C 0.8534(4) 0.4620(4) 0.9841(3)
C37 C 0.8087(4) 0.7784(4) 1.0132(3)
H56 H 0.853420 0.798280 0.958162
C38 C 0.6210(5) 0.1657(4) 0.8278(3)
H57 H 0.546298 0.158789 0.857513
H58 H 0.635230 0.082679 0.809517
H59 H 0.608746 0.201378 0.767782
C39 C 0.7680(4) 0.6328(4) 1.0013(3)
H60 H 0.728402 0.613840 1.059096
C40 C 0.6707(4) 0.5681(4) 0.9035(3)
C41 C 0.9385(4) 0.3734(4) 0.9725(3)
H61 H 1.028697 0.413917 0.975774
C42 C 0.9110(4) 0.2848(4) 1.0495(3)
H62 H 0.971956 0.233168 1.055062
H63 H 0.914784 0.334131 1.116586
C43 C 0.8375(5) 0.8153(4) 1.2065(3)
H64 H 0.757079 0.837467 1.200049
H65 H 0.893650 0.865807 1.268086
H66 H 0.824104 0.726599 1.209056
C44 C 0.7354(4) 0.2513(4) 0.9041(3)
C45 C 0.8649(5) 0.3527(4) 0.7785(3)
H67 H 0.838953 0.430079 0.795118
H68 H 0.806228 0.297794 0.719920
H69 H 0.949144 0.372320 0.763640
C46 C 0.9445(4) 0.9851(4) 1.1208(4)
H70 H 0.984994 1.000343 1.064281
H71 H 1.004766 1.022692 1.183635
H72 H 0.873185 1.022519 1.118668
C47 C 0.8655(4) 0.2856(4) 0.8689(3)
C48 C 0.9186(6) 0.1684(5) 0.8396(4)
H73 H 1.001700 0.196110 0.824070
H74 H 0.862179 0.111472 0.780822
H75 H 0.924801 0.125055 0.895636
O10 O 0.3992(3) 0.0444(3) 0.5680(2)
O11 O 0.7254(3) 0.0237(3) 0.4361(3)
H76 H 0.702023 -0.010602 0.481846
O12 O 0.5942(3) 0.0168(3) 0.5932(2)
N4 N 0.4744(3) 0.2035(3) 0.4306(2)
C49 C 0.3652(4) 0.1875(3) 0.4547(3)
C50 C 0.0944(4) 0.1019(4) 0.4399(3)
H77 H 0.080122 0.019394 0.395498
H78 H 0.013738 0.111920 0.456590
C51 C 0.6799(4) 0.1634(4) 0.3247(3)
H79 H 0.642373 0.235836 0.320414
C52 C 0.1510(5) 0.0469(5) 0.6197(3)
H80 H 0.077549 0.071889 0.637846
H81 H 0.218256 0.068206 0.678929
H82 H 0.128736 -0.043461 0.593666
C53 C 0.1956(4) 0.1162(4) 0.5385(3)
C54 C 0.2830(4) 0.2791(4) 0.4637(3)
H83 H 0.321971 0.366169 0.457135
C55 C 0.5284(4) 0.0916(3) 0.4386(3)
H84 H 0.480869 0.021415 0.381983
C56 C 0.6676(4) 0.1266(4) 0.4272(3)
H85 H 0.714410 0.199748 0.481642
C57 C 0.3041(4) 0.0727(4) 0.4935(3)
H86 H 0.268280 -0.000688 0.436832
C58 C 0.8202(4) 0.2068(4) 0.3177(3)
H87 H 0.862506 0.278731 0.371801
H88 H 0.825954 0.230748 0.253029
H89 H 0.860247 0.138391 0.323797
C59 C 0.1548(4) 0.2110(4) 0.3888(3)
H90 H 0.100429 0.268843 0.381296
H91 H 0.169357 0.177237 0.322134
C60 C 0.3634(4) 0.3117(4) 0.6578(3)
H92 H 0.339218 0.286968 0.718400
H93 H 0.391777 0.402903 0.669251
H94 H 0.431271 0.274956 0.641535
C61 C 0.5129(4) 0.0479(4) 0.5392(3)
C62 C 0.2492(4) 0.2645(4) 0.5698(3)
C63 C 0.6074(5) 0.0554(5) 0.2340(3)
H95 H 0.635868 -0.020082 0.240248
H96 H 0.623607 0.080364 0.171484
H97 H 0.517517 0.038396 0.233606
C64 C 0.1483(5) 0.3352(5) 0.5968(4)
H98 H 0.072453 0.304547 0.544495
H99 H 0.181541 0.424984 0.601707
H100 H 0.128082 0.319962 0.661007
loop_
_geom_bond_atom_site_label_1
_geom_bond_atom_site_label_2
_geom_bond_site_symmetry_1
_geom_bond_site_symmetry_2
O1 C3 1_555 1_555
O2 C3 1_555 1_555
O3 H1 1_555 1_555
N1 C1 1_555 1_555
C1 C7 1_555 1_555
C2 H2 1_555 1_555
H3 C2 1_555 1_555
H4 C2 1_555 1_555
C3 C12 1_555 1_555
C4 H5 1_555 1_555
C5 O3 1_555 1_555
H6 C5 1_555 1_555
C6 H7 1_555 1_555
H8 C6 1_555 1_555
C7 H9 1_555 1_555
C8 C2 1_555 1_555
C9 O2 1_555 1_555
H10 C9 1_555 1_555
C10 H11 1_555 1_555
H12 C10 1_555 1_555
H13 C10 1_555 1_555
C11 H14 1_555 1_555
H15 C11 1_555 1_555
H16 C11 1_555 1_555
C12 N1 1_555 1_555
H17 C12 1_555 1_555
C13 C7 1_555 1_555
C14 C4 1_555 1_555
H18 C14 1_555 1_555
H19 C14 1_555 1_555
H20 C14 1_555 1_555
C15 C4 1_555 1_555
H21 C15 1_555 1_555
H22 C15 1_555 1_555
H23 C15 1_555 1_555
C16 C6 1_555 1_555
H24 C16 1_555 1_555
H25 C16 1_555 1_555
O4 C18 1_555 1_555
O5 C18 1_555 1_555
O6 H26 1_555 1_555
N2 C17 1_555 1_555
C17 C23 1_555 1_555
C18 C27 1_555 1_555
C19 H27 1_555 1_555
H28 C19 1_555 1_555
H29 C19 1_555 1_555
C20 H30 1_555 1_555
C21 H31 1_555 1_555
H32 C21 1_555 1_555
C22 O6 1_555 1_555
H33 C22 1_555 1_555
C23 O4 1_555 1_555
H34 C23 1_555 1_555
C24 C17 1_555 1_555
H35 C24 1_555 1_555
C25 C19 1_555 1_555
C26 C21 1_555 1_555
H36 C26 1_555 1_555
H37 C26 1_555 1_555
C27 N2 1_555 1_555
H38 C27 1_555 1_555
C28 H39 1_555 1_555
H40 C28 1_555 1_555
H41 C28 1_555 1_555
C29 H42 1_555 1_555
H43 C29 1_555 1_555
H44 C29 1_555 1_555
C30 C20 1_555 1_555
H45 C30 1_555 1_555
H46 C30 1_555 1_555
H47 C30 1_555 1_555
C31 C24 1_555 1_555
C32 C20 1_555 1_555
H48 C32 1_555 1_555
H49 C32 1_555 1_555
H50 C32 1_555 1_555
O7 C33 1_555 1_555
O8 H51 1_555 1_555
O9 C40 1_555 1_555
N3 C36 1_555 1_555
C33 H52 1_555 1_555
C34 H53 1_555 1_555
C35 H54 1_555 1_555
H55 C35 1_555 1_555
C36 C33 1_555 1_555
C37 O8 1_555 1_555
H56 C37 1_555 1_555
C38 H57 1_555 1_555
H58 C38 1_555 1_555
H59 C38 1_555 1_555
C39 N3 1_555 1_555
H60 C39 1_555 1_555
C40 O7 1_555 1_555
C41 C36 1_555 1_555
H61 C41 1_555 1_555
C42 C35 1_555 1_555
H62 C42 1_555 1_555
H63 C42 1_555 1_555
C43 C34 1_555 1_555
H64 C43 1_555 1_555
H65 C43 1_555 1_555
H66 C43 1_555 1_555
C44 C33 1_555 1_555
C45 H67 1_555 1_555
H68 C45 1_555 1_555
H69 C45 1_555 1_555
C46 C34 1_555 1_555
H70 C46 1_555 1_555
H71 C46 1_555 1_555
H72 C46 1_555 1_555
C47 C41 1_555 1_555
C48 C47 1_555 1_555
H73 C48 1_555 1_555
H74 C48 1_555 1_555
H75 C48 1_555 1_555
O10 C57 1_555 1_555
O11 H76 1_555 1_555
O12 C61 1_555 1_555
N4 C49 1_555 1_555
C49 C54 1_555 1_555
C50 H77 1_555 1_555
H78 C50 1_555 1_555
C51 H79 1_555 1_555
C52 H80 1_555 1_555
H81 C52 1_555 1_555
H82 C52 1_555 1_555
C53 C50 1_555 1_555
C54 H83 1_555 1_555
C55 N4 1_555 1_555
H84 C55 1_555 1_555
C56 O11 1_555 1_555
H85 C56 1_555 1_555
C57 C49 1_555 1_555
H86 C57 1_555 1_555
C58 C51 1_555 1_555
H87 C58 1_555 1_555
H88 C58 1_555 1_555
H89 C58 1_555 1_555
C59 C50 1_555 1_555
H90 C59 1_555 1_555
H91 C59 1_555 1_555
C60 H92 1_555 1_555
H93 C60 1_555 1_555
H94 C60 1_555 1_555
C61 O10 1_555 1_555
C62 C53 1_555 1_555
C63 C51 1_555 1_555
H95 C63 1_555 1_555
H96 C63 1_555 1_555
H97 C63 1_555 1_555
C64 C62 1_555 1_555
H98 C64 1_555 1_555
H99 C64 1_555 1_555
H100 C64 1_555 1_555
C1 C9 1_555 1_555
C4 C5 1_555 1_555
C5 C12 1_555 1_555
C6 C8 1_555 1_555
C7 C16 1_555 1_555
C8 C9 1_555 1_555
C8 C13 1_555 1_555
C10 C13 1_555 1_555
C11 C13 1_555 1_555
C20 C22 1_555 1_555
C21 C25 1_555 1_555
C22 C27 1_555 1_555
C23 C25 1_555 1_555
C24 C26 1_555 1_555
C25 C31 1_555 1_555
C28 C31 1_555 1_555
C29 C31 1_555 1_555
C34 C37 1_555 1_555
C35 C44 1_555 1_555
C37 C39 1_555 1_555
C38 C44 1_555 1_555
C39 C40 1_555 1_555
C41 C42 1_555 1_555
C44 C47 1_555 1_555
C45 C47 1_555 1_555
C51 C56 1_555 1_555
C52 C53 1_555 1_555
C53 C57 1_555 1_555
C54 C59 1_555 1_555
C54 C62 1_555 1_555
C55 C56 1_555 1_555
C55 C61 1_555 1_555
C60 C62 1_555 1_555

#END
