
#######################################################################
#
#                 Cambridge Crystallographic Data Centre
#                                CCDC 
#
#######################################################################
#
# If this CIF has been generated from an entry in the Cambridge 
# Structural Database, then it will include bibliographic, chemical, 
# crystal, experimental, refinement or atomic coordinate data resulting 
# from the CCDC's data processing and validation procedures.
#
#######################################################################

data_VEDXAG
_chemical_formula_moiety         'C18 H15 Br1 O5'
_chemical_name_systematic        
2-[(4-bromophenyl)methyl]-7-hydroxy-2-methyl-3a,4,7,7a-tetrahydro-1H-4,7-(epoxymethano)indene-1,3,8(2H)-trione
_symmetry_cell_setting           monoclinic
_symmetry_space_group_name_H-M   'P 21'
_symmetry_Int_Tables_number      4
_space_group_name_Hall           'P 2yb'
loop_
_symmetry_equiv_pos_site_id
_symmetry_equiv_pos_as_xyz
1 x,y,z
2 -x,1/2+y,-z
_cell_length_a                   6.5833(14)
_cell_length_b                   9.956(2)
_cell_length_c                   24.640(5)
_cell_angle_alpha                90
_cell_angle_beta                 95.324(4)
_cell_angle_gamma                90
_cell_volume                     1608.02
_exptl_crystal_colour            colorless
_exptl_crystal_description       block
_cell_formula_units_Z            4
loop_
_atom_site_label
_atom_site_type_symbol
_atom_site_fract_x
_atom_site_fract_y
_atom_site_fract_z
Br1 Br 0.63040(8) 0.31601(5) 0.82060(2)
C1 C 0.4322(7) 0.4556(4) 0.81623(17)
C2 C 0.4540(7) 0.5607(4) 0.78280(18)
H1 H 0.5663 0.5657 0.7626
C3 C 0.3089(7) 0.6605(5) 0.77879(18)
H2 H 0.3236 0.7333 0.7558
C4 C 0.1418(7) 0.6536(5) 0.80857(18)
C5 C 0.1238(7) 0.5468(4) 0.8424(2)
H3 H 0.0123 0.5413 0.8628
C6 C 0.2704(8) 0.4461(5) 0.8466(2)
H4 H 0.2581 0.3734 0.8697
C7 C -0.0173(7) 0.7663(5) 0.8031(2)
H5 H -0.1517 0.7259 0.8021
H6 H -0.0081 0.8108 0.7684
C8 C 0.0001(6) 0.8736(4) 0.84821(17)
C9 C 0.2170(6) 0.9247(4) 0.85691(18)
C10 C 0.3157(6) 0.8877(4) 0.91257(18)
H7 H 0.4311 0.8272 0.9089
C11 C 0.1539(7) 0.8160(5) 0.94216(16)
H8 H 0.1985 0.7245 0.9518
C12 C -0.0376(6) 0.8124(5) 0.90227(17)
C13 C -0.1478(8) 0.9891(6) 0.8319(2)
H9 H -0.2830 0.9538 0.8240
H10 H -0.1059 1.0335 0.8003
H11 H -0.1471 1.0521 0.8615
C14 C 0.1203(9) 0.8957(6) 0.9936(2)
H12 H 0.0180 0.8521 1.0141
C15 C 0.3209(12) 0.9052(7) 1.0271(2)
H13 H 0.3440 0.8699 1.0621
C16 C 0.4600(11) 0.9676(7) 1.0027(3)
H14 H 0.5918 0.9823 1.0187
C17 C 0.3887(7) 1.0124(5) 0.9475(2)
C18 C 0.1932(7) 1.0944(5) 0.95191(17)
O1 O 0.2985(6) 0.9927(4) 0.82508(15)
O2 O -0.1977(5) 0.7646(4) 0.91308(15)
O3 O 0.1653(7) 1.2047(4) 0.93455(15)
O4 O 0.0530(5) 1.0274(4) 0.97533(14)
O5 O 0.5384(5) 1.0863(5) 0.92471(17)
H15 H 0.4882 1.1246 0.8972
Br2 Br -0.12009(8) 0.58370(4) 0.66628(2)
C19 C 0.0697(6) 0.4406(4) 0.67343(16)
C20 C 0.2363(7) 0.4427(4) 0.64353(18)
H16 H 0.2553 0.5131 0.6197
C21 C 0.3755(6) 0.3378(5) 0.64963(18)
H17 H 0.4875 0.3378 0.6292
C22 C 0.3513(6) 0.2335(4) 0.68531(16)
C23 C 0.1833(7) 0.2372(4) 0.71526(17)
H18 H 0.1654 0.1690 0.7402
C24 C 0.0422(7) 0.3397(4) 0.70900(17)
H19 H -0.0709 0.3396 0.7290
C25 C 0.5001(7) 0.1194(4) 0.69307(17)
H20 H 0.4939 0.0829 0.7294
H21 H 0.6366 0.1544 0.6910
C26 C 0.4640(6) 0.0044(4) 0.65146(16)
C27 C 0.4995(6) 0.0499(4) 0.59439(16)
C28 C 0.3096(5) 0.0348(4) 0.55518(14)
H22 H 0.2719 0.1220 0.5388
C29 C 0.1414(5) -0.0136(4) 0.58930(16)
H23 H 0.0346 0.0549 0.5899
C30 C 0.2398(6) -0.0380(4) 0.64621(16)
C31 C 0.6028(7) -0.1142(5) 0.6692(2)
H24 H 0.5726 -0.1885 0.6449
H25 H 0.5799 -0.1402 0.7056
H26 H 0.7428 -0.0883 0.6680
C32 C 0.3350(5) -0.0713(4) 0.50897(15)
C33 C 0.1281(6) -0.0834(5) 0.47687(17)
H27 H 0.1073 -0.0656 0.4397
C34 C -0.0186(6) -0.1209(5) 0.50581(19)
H28 H -0.1532 -0.1322 0.4914
C35 C 0.0523(6) -0.1435(4) 0.56396(17)
H29 H -0.0592 -0.1768 0.5841
C36 C 0.3750(6) -0.2016(4) 0.53759(15)
O6 O 0.6603(4) 0.0942(4) 0.58193(11)
O7 O 0.1539(5) -0.0860(3) 0.68272(12)
O8 O 0.5270(4) -0.2702(3) 0.53792(12)
O9 O 0.2223(4) -0.2398(2) 0.56702(11)
O10 O 0.4957(4) -0.0440(3) 0.47747(12)
H30 H 0.4856 0.0332 0.4660
loop_
_geom_bond_atom_site_label_1
_geom_bond_atom_site_label_2
_geom_bond_site_symmetry_1
_geom_bond_site_symmetry_2
Br1 C1 1_555 1_555
C1 C2 1_555 1_555
C2 H1 1_555 1_555
C3 C2 1_555 1_555
H2 C3 1_555 1_555
C4 C3 1_555 1_555
C5 C4 1_555 1_555
H3 C5 1_555 1_555
C6 C1 1_555 1_555
H4 C6 1_555 1_555
C7 C4 1_555 1_555
H5 C7 1_555 1_555
H6 C7 1_555 1_555
C8 C7 1_555 1_555
C9 C8 1_555 1_555
C10 C9 1_555 1_555
H7 C10 1_555 1_555
C11 C10 1_555 1_555
H8 C11 1_555 1_555
C12 C8 1_555 1_555
C13 C8 1_555 1_555
H9 C13 1_555 1_555
H10 C13 1_555 1_555
H11 C13 1_555 1_555
C14 C11 1_555 1_555
H12 C14 1_555 1_555
C15 C14 1_555 1_555
H13 C15 1_555 1_555
C16 C15 1_555 1_555
H14 C16 1_555 1_555
C17 C10 1_555 1_555
C18 C17 1_555 1_555
O1 C9 1_555 1_555
O2 C12 1_555 1_555
O3 C18 1_555 1_555
O4 C14 1_555 1_555
O5 C17 1_555 1_555
H15 O5 1_555 1_555
Br2 C19 1_555 1_555
C19 C20 1_555 1_555
C20 H16 1_555 1_555
C21 C20 1_555 1_555
H17 C21 1_555 1_555
C22 C21 1_555 1_555
C23 C22 1_555 1_555
H18 C23 1_555 1_555
C24 C19 1_555 1_555
H19 C24 1_555 1_555
C25 C22 1_555 1_555
H20 C25 1_555 1_555
H21 C25 1_555 1_555
C26 C25 1_555 1_555
C27 C26 1_555 1_555
C28 C27 1_555 1_555
H22 C28 1_555 1_555
C29 C28 1_555 1_555
H23 C29 1_555 1_555
C30 C26 1_555 1_555
C31 C26 1_555 1_555
H24 C31 1_555 1_555
H25 C31 1_555 1_555
H26 C31 1_555 1_555
C32 C28 1_555 1_555
C33 C32 1_555 1_555
H27 C33 1_555 1_555
C34 C33 1_555 1_555
H28 C34 1_555 1_555
C35 C29 1_555 1_555
H29 C35 1_555 1_555
C36 C32 1_555 1_555
O6 C27 1_555 1_555
O7 C30 1_555 1_555
O8 C36 1_555 1_555
O9 C35 1_555 1_555
O10 C32 1_555 1_555
H30 O10 1_555 1_555
C5 C6 1_555 1_555
C11 C12 1_555 1_555
C16 C17 1_555 1_555
C18 O4 1_555 1_555
C23 C24 1_555 1_555
C29 C30 1_555 1_555
C34 C35 1_555 1_555
C36 O9 1_555 1_555

#END
