
#######################################################################
#
#                 Cambridge Crystallographic Data Centre
#                                CCDC 
#
#######################################################################
#
# If this CIF has been generated from an entry in the Cambridge 
# Structural Database, then it will include bibliographic, chemical, 
# crystal, experimental, refinement or atomic coordinate data resulting 
# from the CCDC's data processing and validation procedures.
#
#######################################################################

data_VEDXOU
_chemical_formula_moiety         'C20 H15 Cl2 N1 O3 S1'
_chemical_name_systematic        
'ethyl 2-amino-4-(4-chlorobenzoyl)-5-(3-chlorophenyl)thiophene-3-carboxylate'
_symmetry_cell_setting           triclinic
_symmetry_space_group_name_H-M   'P -1'
_symmetry_Int_Tables_number      2
_space_group_name_Hall           '-P 1'
loop_
_symmetry_equiv_pos_site_id
_symmetry_equiv_pos_as_xyz
1 x,y,z
2 -x,-y,-z
_cell_length_a                   8.1715(6)
_cell_length_b                   9.5381(7)
_cell_length_c                   13.8371(10)
_cell_angle_alpha                74.718(2)
_cell_angle_beta                 78.453(2)
_cell_angle_gamma                70.740(2)
_cell_volume                     974.489
_exptl_crystal_colour            yellow
_exptl_crystal_description       block
_cell_formula_units_Z            2
loop_
_atom_site_label
_atom_site_type_symbol
_atom_site_fract_x
_atom_site_fract_y
_atom_site_fract_z
S1 S 0.39581(7) 0.69905(7) 1.08638(5)
Cl1 Cl 0.79398(14) 1.28829(10) 0.52327(6)
Cl2 Cl 0.91347(17) 0.56789(13) 1.33999(8)
O1 O 0.9094(2) 0.6393(2) 0.87267(14)
C1 C 0.7765(3) 0.7449(3) 0.85714(18)
C2 C 0.7793(3) 0.8822(3) 0.77634(18)
O2 O 0.3224(3) 0.6753(2) 0.77383(16)
C3 C 0.4509(3) 0.6902(3) 0.7963(2)
C4 C 0.6103(3) 0.7344(3) 0.92455(18)
C5 C 0.7066(3) 0.7619(3) 1.08249(18)
C6 C 0.4653(3) 0.7073(3) 0.89518(18)
N1 N 0.1888(3) 0.6541(3) 0.97691(18)
H1 H 0.1606 0.6489 0.9216
H2 H 0.1207 0.6409 1.0324
C7 C 0.7650(3) 0.8911(3) 1.04942(19)
H3 H 0.7350 0.9581 0.9890
O3 O 0.5979(3) 0.6873(3) 0.73260(16)
C8 C 0.7539(3) 0.6625(3) 1.17260(19)
H4 H 0.7169 0.5758 1.1958
C9 C 0.3401(3) 0.6831(3) 0.97660(19)
C10 C 0.9324(3) 0.8853(3) 0.7112(2)
H5 H 1.0321 0.8026 0.7196
C11 C 0.6316(3) 1.0069(3) 0.7631(2)
H6 H 0.5290 1.0060 0.8066
C12 C 0.8669(4) 0.9196(3) 1.1061(2)
H7 H 0.9042 1.0062 1.0838
C13 C 0.7889(4) 1.1324(3) 0.6220(2)
C14 C 0.9372(4) 1.0107(3) 0.6340(2)
H8 H 1.0396 1.0127 0.5907
C15 C 0.5918(3) 0.7340(3) 1.02438(18)
C16 C 0.6359(4) 1.1325(3) 0.6857(2)
H9 H 0.5368 1.2158 0.6770
C17 C 0.8564(4) 0.6939(3) 1.2273(2)
C18 C 0.9141(4) 0.8209(3) 1.1955(2)
H10 H 0.9834 0.8397 1.2335
C19 C 0.5974(6) 0.6735(6) 0.6305(3)
H11 H 0.6841 0.5800 0.6182
H12 H 0.4840 0.6673 0.6242
C20 C 0.6322(14) 0.7924(9) 0.5598(4)
H13 H 0.7453 0.7979 0.5650
H14 H 0.5452 0.8850 0.5707
H15 H 0.6308 0.7785 0.4938
loop_
_geom_bond_atom_site_label_1
_geom_bond_atom_site_label_2
_geom_bond_site_symmetry_1
_geom_bond_site_symmetry_2
S1 C9 1_555 1_555
Cl1 C13 1_555 1_555
Cl2 C17 1_555 1_555
O1 C1 1_555 1_555
C1 C2 1_555 1_555
C2 C10 1_555 1_555
O2 C3 1_555 1_555
C3 C6 1_555 1_555
C4 C1 1_555 1_555
C5 C7 1_555 1_555
C6 C4 1_555 1_555
N1 H1 1_555 1_555
H2 N1 1_555 1_555
C7 H3 1_555 1_555
O3 C3 1_555 1_555
C8 C5 1_555 1_555
H4 C8 1_555 1_555
C9 C6 1_555 1_555
C10 H5 1_555 1_555
C11 C2 1_555 1_555
H6 C11 1_555 1_555
C12 C7 1_555 1_555
H7 C12 1_555 1_555
C13 C14 1_555 1_555
C14 C10 1_555 1_555
H8 C14 1_555 1_555
C15 S1 1_555 1_555
C16 C11 1_555 1_555
H9 C16 1_555 1_555
C17 C8 1_555 1_555
C18 C12 1_555 1_555
H10 C18 1_555 1_555
C19 O3 1_555 1_555
H11 C19 1_555 1_555
H12 C19 1_555 1_555
C20 C19 1_555 1_555
H13 C20 1_555 1_555
H14 C20 1_555 1_555
H15 C20 1_555 1_555
C4 C15 1_555 1_555
C5 C15 1_555 1_555
N1 C9 1_555 1_555
C13 C16 1_555 1_555
C17 C18 1_555 1_555

#END
