
#######################################################################
#
#                 Cambridge Crystallographic Data Centre
#                                CCDC 
#
#######################################################################
#
# If this CIF has been generated from an entry in the Cambridge 
# Structural Database, then it will include bibliographic, chemical, 
# crystal, experimental, refinement or atomic coordinate data resulting 
# from the CCDC's data processing and validation procedures.
#
#######################################################################

data_VEFBEN
_chemical_formula_moiety         'C28 H28 N4 O4'
_chemical_name_systematic        
8,21,24,27-Tetraoxa-33,34,35,36-tetra-azapentacyclo(27.3.1.1^2,6^.1^10,14^.1^15,19^)hexatriaconta-1(33),2,4,6(34),10,12,14(35),15,17,19(36),29,31-dodecaene
_symmetry_cell_setting           monoclinic
_symmetry_space_group_name_H-M   'P 21/n'
_symmetry_Int_Tables_number      14
_space_group_name_Hall           '-P 2yn'
loop_
_symmetry_equiv_pos_site_id
_symmetry_equiv_pos_as_xyz
1 x,y,z
2 1/2-x,1/2+y,1/2-z
3 -x,-y,-z
4 1/2+x,1/2-y,1/2+z
_cell_length_a                   14.555(3)
_cell_length_b                   15.459(4)
_cell_length_c                   21.979(4)
_cell_angle_alpha                90
_cell_angle_beta                 93.27(2)
_cell_angle_gamma                90
_cell_volume                     4937.35
_exptl_crystal_colour            colorless
_chemical_melting_point          148-150deg.C
_cell_formula_units_Z            8
loop_
_atom_site_label
_atom_site_type_symbol
_atom_site_fract_x
_atom_site_fract_y
_atom_site_fract_z
O1 O 0.3123(4) 0.3201(4) 0.2234(3)
O2 O 0.4001(5) 0.1738(5) 0.2859(4)
O3 O 0.3041(5) 0.0359(6) 0.2331(4)
O4 O -0.3777(4) 0.1328(5) 0.1998(3)
N1 N -0.1690(5) 0.2534(5) 0.1950(3)
N2 N 0.0692(5) 0.2870(5) 0.2359(3)
N3 N 0.0618(5) 0.0338(5) 0.2431(3)
N4 N -0.1792(5) 0.0409(5) 0.1969(3)
C1 C -0.2437(6) 0.2285(6) 0.2231(4)
C2 C -0.2503(7) 0.2223(6) 0.2860(4)
C3 C -0.1740(7) 0.2459(7) 0.3224(5)
C4 C -0.0946(6) 0.2710(6) 0.2957(4)
C5 C -0.0941(6) 0.2732(6) 0.2322(4)
C6 C -0.0095(6) 0.2931(6) 0.2008(4)
C7 C -0.0105(6) 0.3149(6) 0.1397(4)
C8 C 0.0736(7) 0.3298(7) 0.1140(5)
C9 C 0.1547(6) 0.3216(6) 0.1485(4)
C10 C 0.1484(6) 0.3013(6) 0.2099(4)
C11 C 0.2338(7) 0.2924(6) 0.2514(5)
C12 C 0.3938(7) 0.3217(7) 0.2627(5)
C13 C 0.4477(7) 0.2412(7) 0.2609(5)
C14 C 0.4422(7) 0.0946(8) 0.2678(7)
C15 C 0.3881(8) 0.0281(9) 0.2701(8)
C16 C 0.2254(7) 0.0369(7) 0.2643(5)
C17 C 0.1432(6) 0.0531(6) 0.2203(4)
C18 C 0.1512(7) 0.0834(6) 0.1622(5)
C19 C 0.0753(7) 0.0969(7) 0.1261(5)
C20 C -0.0115(7) 0.0786(6) 0.1491(5)
C21 C -0.0146(6) 0.0468(6) 0.2071(4)
C22 C -0.1031(6) 0.0237(6) 0.2330(4)
C23 C -0.1049(7) -0.0129(7) 0.2893(5)
C24 C -0.1915(8) -0.0356(7) 0.3122(5)
C25 C -0.2662(8) -0.0172(7) 0.2745(5)
C26 C -0.2606(7) 0.0211(7) 0.2197(5)
C27 C -0.3432(8) 0.0521(8) 0.1814(5)
C28 C -0.3274(7) 0.2060(7) 0.1809(5)
H1 H -0.3079 0.2021 0.3024
H2 H -0.1755 0.2434 0.3678
H3 H -0.0398 0.2888 0.3210
H4 H -0.0695 0.3217 0.1152
H5 H 0.0742 0.3440 0.0702
H6 H 0.2130 0.3318 0.1304
H7 H 0.2396 0.2329 0.2668
H8 H 0.2238 0.3265 0.2894
H9 H 0.4328 0.3699 0.2523
H10 H 0.3807 0.3294 0.3050
H11 H 0.5087 0.2476 0.2769
H12 H 0.4535 0.2274 0.2161
H13 H 0.5058 0.0878 0.2787
H14 H 0.4470 0.1001 0.2182
H15 H 0.3753 0.0241 0.3177
H16 H 0.4191 -0.0303 0.2676
H17 H 0.2257 0.0801 0.2985
H18 H 0.2147 -0.0186 0.2879
H19 H 0.2116 0.0973 0.1471
H20 H 0.0778 0.1184 0.0832
H21 H -0.0687 0.0864 0.1240
H22 H -0.0478 -0.0233 0.3146
H23 H -0.1972 -0.0641 0.3534
H24 H -0.3289 -0.0306 0.2876
H25 H -0.3935 0.0090 0.1809
H26 H -0.3277 0.0553 0.1384
H27 H -0.3681 0.2556 0.1736
H28 H -0.3062 0.1936 0.1384
O5 O 0.1658(4) 0.1553(5) 0.9563(3)
O6 O 0.0517(4) 0.2921(5) 0.9125(3)
O7 O 0.1335(4) 0.4457(5) 0.9740(3)
O8 O 0.8340(4) 0.2514(4) 1.0057(3)
N5 N 0.6442(5) 0.1419(5) 1.0127(3)
N6 N 0.4050(5) 0.1129(5) 0.9676(3)
N7 N 0.3731(5) 0.3895(5) 0.9669(3)
N8 N 0.6128(5) 0.3541(5) 1.0066(3)
C29 C 0.7287(6) 0.1296(6) 0.9902(4)
C30 C 0.7394(7) 0.0857(7) 0.9362(5)
C31 C 0.6629(7) 0.0561(7) 0.9038(5)
C32 C 0.5754(7) 0.0705(6) 0.9248(5)
C33 C 0.5699(6) 0.1143(6) 0.9797(4)
C34 C 0.4788(6) 0.1342(6) 1.0038(4)
C35 C 0.4729(6) 0.1756(6) 1.0594(4)
C36 C 0.3854(7) 0.1965(6) 1.0780(4)
C37 C 0.3096(6) 0.1745(6) 1.0401(4)
C38 C 0.3232(6) 0.1329(6) 0.9862(4)
C39 C 0.2431(7) 0.1063(7) 0.9435(5)
C40 C 0.0885(7) 0.1438(8) 0.9140(5)
C41 C 0.0186(7) 0.2124(8) 0.9289(5)
C42 C 0.0016(7) 0.3591(8) 0.9359(5)
C43 C 0.0536(7) 0.4433(8) 0.9332(5)
C44 C 0.2127(8) 0.4080(7) 0.9493(5)
C45 C 0.2953(6) 0.4167(6) 0.9918(4)
C46 C 0.2960(6) 0.4467(6) 1.0519(4)
C47 C 0.3761(6) 0.4473(6) 1.0859(4)
C48 C 0.4565(6) 0.4189(6) 1.0616(4)
C49 C 0.4513(6) 0.3917(6) 1.0012(4)
C50 C 0.5353(6) 0.3628(6) 0.9715(4)
C51 C 0.5316(6) 0.3467(6) 0.9094(4)
C52 C 0.6120(6) 0.3215(6) 0.8831(4)
C53 C 0.6908(6) 0.3117(6) 0.9180(4)
C54 C 0.6891(6) 0.3288(6) 0.9808(4)
C55 C 0.7735(7) 0.3169(7) 1.0232(5)
C56 C 0.8093(7) 0.1682(7) 1.0264(5)
H29 H 0.8011 0.0752 0.9207
H30 H 0.6695 0.0261 0.8648
H31 H 0.5203 0.0504 0.8997
H32 H 0.5285 0.1917 1.0843
H33 H 0.3774 0.2268 1.1168
H34 H 0.2478 0.1853 1.0534
H35 H 0.2291 0.0435 0.9472
H36 H 0.2566 0.1122 0.9001
H37 H 0.0615 0.0867 0.9118
H38 H 0.1035 0.1552 0.8699
H39 H 0.0136 0.2091 0.9740
H40 H -0.0423 0.2006 0.9121
H41 H -0.0105 0.3511 0.9788
H42 H -0.0588 0.3666 0.9150
H43 H 0.0141 0.4925 0.9405
H44 H 0.0707 0.4505 0.8906
H45 H 0.2259 0.4347 0.9093
H46 H 0.2030 0.3465 0.9385
H47 H 0.2384 0.4678 1.0689
H48 H 0.3781 0.4659 1.1297
H49 H 0.5154 0.4169 1.0858
H50 H 0.4727 0.3522 0.8847
H51 H 0.6115 0.3105 0.8388
H52 H 0.7480 0.2939 0.9001
H53 H 0.7547 0.3060 1.0643
H54 H 0.8077 0.3721 1.0264
H55 H 0.7962 0.1721 1.0695
H56 H 0.8632 0.1307 1.0254
loop_
_geom_bond_atom_site_label_1
_geom_bond_atom_site_label_2
_geom_bond_site_symmetry_1
_geom_bond_site_symmetry_2
O1 C11 1_555 1_555
O2 C13 1_555 1_555
O3 C15 1_555 1_555
O4 C27 1_555 1_555
N1 C1 1_555 1_555
N2 C6 1_555 1_555
N3 C17 1_555 1_555
N4 C22 1_555 1_555
C1 C2 1_555 1_555
C2 C3 1_555 1_555
C3 C4 1_555 1_555
C4 C5 1_555 1_555
C5 N1 1_555 1_555
C6 C5 1_555 1_555
C7 C6 1_555 1_555
C8 C7 1_555 1_555
C9 C8 1_555 1_555
C10 N2 1_555 1_555
C11 C10 1_555 1_555
C12 O1 1_555 1_555
C13 C12 1_555 1_555
C14 O2 1_555 1_555
C15 C14 1_555 1_555
C16 O3 1_555 1_555
C17 C16 1_555 1_555
C18 C17 1_555 1_555
C19 C18 1_555 1_555
C20 C19 1_555 1_555
C21 N3 1_555 1_555
C22 C21 1_555 1_555
C23 C22 1_555 1_555
C24 C23 1_555 1_555
C25 C24 1_555 1_555
C26 N4 1_555 1_555
C27 C26 1_555 1_555
C28 O4 1_555 1_555
O5 C39 1_555 1_555
O6 C41 1_555 1_555
O7 C43 1_555 1_555
O8 C55 1_555 1_555
N5 C29 1_555 1_555
N6 C34 1_555 1_555
N7 C45 1_555 1_555
N8 C50 1_555 1_555
C29 C30 1_555 1_555
C30 C31 1_555 1_555
C31 C32 1_555 1_555
C32 C33 1_555 1_555
C33 N5 1_555 1_555
C34 C33 1_555 1_555
C35 C34 1_555 1_555
C36 C35 1_555 1_555
C37 C36 1_555 1_555
C38 N6 1_555 1_555
C39 C38 1_555 1_555
C40 O5 1_555 1_555
C41 C40 1_555 1_555
C42 O6 1_555 1_555
C43 C42 1_555 1_555
C44 O7 1_555 1_555
C45 C44 1_555 1_555
C46 C45 1_555 1_555
C47 C46 1_555 1_555
C48 C47 1_555 1_555
C49 N7 1_555 1_555
C50 C49 1_555 1_555
C51 C50 1_555 1_555
C52 C51 1_555 1_555
C53 C52 1_555 1_555
C54 N8 1_555 1_555
C55 C54 1_555 1_555
C56 O8 1_555 1_555
H1 C2 1_555 1_555
H2 C3 1_555 1_555
H3 C4 1_555 1_555
H4 C7 1_555 1_555
H5 C8 1_555 1_555
H6 C9 1_555 1_555
H7 C11 1_555 1_555
H8 C11 1_555 1_555
H9 C12 1_555 1_555
H10 C12 1_555 1_555
H11 C13 1_555 1_555
H12 C13 1_555 1_555
H13 C14 1_555 1_555
H14 C14 1_555 1_555
H15 C15 1_555 1_555
H16 C15 1_555 1_555
H17 C16 1_555 1_555
H18 C16 1_555 1_555
H19 C18 1_555 1_555
H20 C19 1_555 1_555
H21 C20 1_555 1_555
H22 C23 1_555 1_555
H23 C24 1_555 1_555
H24 C25 1_555 1_555
H25 C27 1_555 1_555
H26 C27 1_555 1_555
H27 C28 1_555 1_555
H28 C28 1_555 1_555
H29 C30 1_555 1_555
H30 C31 1_555 1_555
H31 C32 1_555 1_555
H32 C35 1_555 1_555
H33 C36 1_555 1_555
H34 C37 1_555 1_555
H35 C39 1_555 1_555
H36 C39 1_555 1_555
H37 C40 1_555 1_555
H38 C40 1_555 1_555
H39 C41 1_555 1_555
H40 C41 1_555 1_555
H41 C42 1_555 1_555
H42 C42 1_555 1_555
H43 C43 1_555 1_555
H44 C43 1_555 1_555
H45 C44 1_555 1_555
H46 C44 1_555 1_555
H47 C46 1_555 1_555
H48 C47 1_555 1_555
H49 C48 1_555 1_555
H50 C51 1_555 1_555
H51 C52 1_555 1_555
H52 C53 1_555 1_555
H53 C55 1_555 1_555
H54 C55 1_555 1_555
H55 C56 1_555 1_555
H56 C56 1_555 1_555
C1 C28 1_555 1_555
C9 C10 1_555 1_555
C20 C21 1_555 1_555
C25 C26 1_555 1_555
C29 C56 1_555 1_555
C37 C38 1_555 1_555
C48 C49 1_555 1_555
C53 C54 1_555 1_555

#END
