
#######################################################################
#
#                 Cambridge Crystallographic Data Centre
#                                CCDC 
#
#######################################################################
#
# If this CIF has been generated from an entry in the Cambridge 
# Structural Database, then it will include bibliographic, chemical, 
# crystal, experimental, refinement or atomic coordinate data resulting 
# from the CCDC's data processing and validation procedures.
#
#######################################################################

data_VEFDER
_chemical_formula_moiety         'C20 H19 Cl1 N2 O6'
_chemical_name_systematic        
'Methyl 6-(4-chlorophenyl)-4-(4-methoxyphenyl)-5-nitro-2-oxopiperidine-3-carboxylate'
_symmetry_cell_setting           monoclinic
_symmetry_space_group_name_H-M   'P 21/c'
_symmetry_Int_Tables_number      14
_space_group_name_Hall           '-P 2ybc'
loop_
_symmetry_equiv_pos_site_id
_symmetry_equiv_pos_as_xyz
1 x,y,z
2 -x,1/2+y,1/2-z
3 -x,-y,-z
4 x,1/2-y,1/2+z
_cell_length_a                   5.7650(8)
_cell_length_b                   13.6284(19)
_cell_length_c                   26.630(4)
_cell_angle_alpha                90
_cell_angle_beta                 90.00
_cell_angle_gamma                90
_cell_volume                     2092.26
_exptl_crystal_colour            white
_chemical_melting_point          '220-221 deg.C'
_cell_formula_units_Z            4
_exptl_crystal_recrystallization_method 'ethyl acetate/dichloromethane'
loop_
_atom_site_label
_atom_site_type_symbol
_atom_site_fract_x
_atom_site_fract_y
_atom_site_fract_z
Cl1 Cl 0.23689(15) 0.37813(7) 0.44605(3)
O1 O 1.0660(3) -0.08552(12) 0.54929(6)
O2 O 1.4137(3) -0.05486(12) 0.64235(7)
N1 N 0.7488(4) 0.21967(15) 0.66729(7)
N2 N 0.9380(3) 0.06958(13) 0.55745(7)
H1 H 0.9293 0.0732 0.5253
C1 C 0.9898(4) 0.06746(15) 0.66287(8)
H2 H 1.1366 0.1026 0.6582
C2 C 1.0051(4) -0.02972(15) 0.63293(8)
H3 H 0.8700 -0.0698 0.6417
C3 C 0.8757(4) 0.15796(15) 0.58513(8)
H4 H 1.0157 0.1982 0.5885
C4 C 0.7984(4) 0.12809(15) 0.63769(8)
H5 H 0.6568 0.0886 0.6353
C5 C 1.0071(4) -0.01659(16) 0.57633(8)
C6 C 0.9598(4) 0.04963(15) 0.71842(8)
C7 C 1.2201(4) -0.08666(16) 0.64670(8)
C8 C 0.9170(5) 0.01093(18) 0.82109(9)
C9 C 0.4154(4) 0.31570(19) 0.48772(9)
C10 C 0.7021(4) 0.21520(16) 0.55388(8)
C11 C 0.7720(4) -0.00153(18) 0.73741(9)
H6 H 0.6573 -0.0230 0.7155
O3 O 1.1711(3) -0.17475(13) 0.66423(8)
C12 C 0.7499(4) -0.02184(18) 0.78831(9)
H7 H 0.6232 -0.0573 0.8001
C13 C 0.7495(5) 0.31082(17) 0.54024(11)
H8 H 0.8798 0.3419 0.5533
C14 C 0.5054(4) 0.17095(18) 0.53381(9)
H9 H 0.4697 0.1066 0.5426
C15 C 1.1235(4) 0.0821(2) 0.75263(9)
H10 H 1.2496 0.1184 0.7413
O4 O 0.9118(4) -0.00586(16) 0.87208(7)
C16 C 0.3629(4) 0.22106(19) 0.50117(10)
H11 H 0.2311 0.1908 0.4883
O5 O 0.5514(4) 0.23270(16) 0.68180(9)
O6 O 0.9090(4) 0.27534(14) 0.67456(9)
C17 C 0.7250(6) -0.0553(3) 0.89176(11)
H12 H 0.5853 -0.0196 0.8846
H13 H 0.7435 -0.0614 0.9275
H14 H 0.7157 -0.1194 0.8770
C18 C 0.6067(5) 0.3612(2) 0.50742(12)
H15 H 0.6405 0.4257 0.4988
C19 C 1.1039(5) 0.0618(2) 0.80293(10)
H16 H 1.2188 0.0829 0.8249
C20 C 1.3688(7) -0.2358(2) 0.67803(19)
H17 H 1.4671 -0.2447 0.6493
H18 H 1.3146 -0.2985 0.6895
H19 H 1.4549 -0.2043 0.7043
loop_
_geom_bond_atom_site_label_1
_geom_bond_atom_site_label_2
_geom_bond_site_symmetry_1
_geom_bond_site_symmetry_2
Cl1 C9 1_555 1_555
O1 C5 1_555 1_555
O2 C7 1_555 1_555
N1 C4 1_555 1_555
N2 H1 1_555 1_555
C1 H2 1_555 1_555
C2 C1 1_555 1_555
H3 C2 1_555 1_555
C3 N2 1_555 1_555
H4 C3 1_555 1_555
C4 C1 1_555 1_555
H5 C4 1_555 1_555
C5 N2 1_555 1_555
C6 C1 1_555 1_555
C7 C2 1_555 1_555
C8 C12 1_555 1_555
C9 C16 1_555 1_555
C10 C3 1_555 1_555
C11 C6 1_555 1_555
H6 C11 1_555 1_555
O3 C7 1_555 1_555
C12 C11 1_555 1_555
H7 C12 1_555 1_555
C13 C10 1_555 1_555
H8 C13 1_555 1_555
C14 C10 1_555 1_555
H9 C14 1_555 1_555
C15 C6 1_555 1_555
H10 C15 1_555 1_555
O4 C8 1_555 1_555
C16 C14 1_555 1_555
H11 C16 1_555 1_555
O5 N1 1_555 1_555
O6 N1 1_555 1_555
C17 O4 1_555 1_555
H12 C17 1_555 1_555
H13 C17 1_555 1_555
H14 C17 1_555 1_555
C18 C9 1_555 1_555
H15 C18 1_555 1_555
C19 C8 1_555 1_555
H16 C19 1_555 1_555
C20 O3 1_555 1_555
H17 C20 1_555 1_555
H18 C20 1_555 1_555
H19 C20 1_555 1_555
C2 C5 1_555 1_555
C3 C4 1_555 1_555
C13 C18 1_555 1_555
C15 C19 1_555 1_555

#END
