
#######################################################################
#
#                 Cambridge Crystallographic Data Centre
#                                CCDC 
#
#######################################################################
#
# If this CIF has been generated from an entry in the Cambridge 
# Structural Database, then it will include bibliographic, chemical, 
# crystal, experimental, refinement or atomic coordinate data resulting 
# from the CCDC's data processing and validation procedures.
#
#######################################################################

data_VEFDAN
_chemical_formula_moiety         'C21 H22 N2 O7'
_chemical_name_systematic        
'Methyl 4,6-bis(2-methoxyphenyl)-5-nitro-2-oxopiperidine-3-carboxylate'
_symmetry_cell_setting           monoclinic
_symmetry_space_group_name_H-M   'C 2/c'
_symmetry_Int_Tables_number      15
_space_group_name_Hall           '-C 2yn'
loop_
_symmetry_equiv_pos_site_id
_symmetry_equiv_pos_as_xyz
1 x,y,z
2 -x,y,1/2-z
3 1/2+x,1/2+y,z
4 1/2-x,1/2+y,1/2-z
5 -x,-y,-z
6 x,-y,1/2+z
7 1/2-x,1/2-y,-z
8 1/2+x,1/2-y,1/2+z
_cell_length_a                   31.609(5)
_cell_length_b                   8.1047(12)
_cell_length_c                   20.542(3)
_cell_angle_alpha                90
_cell_angle_beta                 105.929(2)
_cell_angle_gamma                90
_cell_volume                     5060.41
_cell_formula_units_Z            8
_chemical_properties_physical    moisture-sensitive
loop_
_atom_site_label
_atom_site_type_symbol
_atom_site_fract_x
_atom_site_fract_y
_atom_site_fract_z
C1 C 0.19823(5) 0.7306(2) 1.03897(8)
C2 C 0.16055(5) 0.7248(2) 1.07238(8)
H1 H 0.1468 0.6156 1.0638
C3 C 0.12481(5) 0.85441(19) 1.04419(8)
H2 H 0.1380 0.9622 1.0590
C4 C 0.11161(5) 0.8558(2) 0.96581(8)
H3 H 0.0907 0.9464 0.9504
C5 C 0.15190(5) 0.8881(2) 0.93947(8)
H4 H 0.1592 1.0052 0.9477
C6 C 0.18116(5) 0.7409(2) 1.14817(9)
C7 C 0.22133(7) 0.9189(3) 1.23411(10)
H5 H 0.2060 0.8741 1.2645
H6 H 0.2263 1.0346 1.2429
H7 H 0.2491 0.8636 1.2409
C8 C 0.08459(5) 0.8388(2) 1.07140(8)
C9 C 0.07328(6) 0.6937(2) 1.09831(9)
H8 H 0.0909 0.6009 1.1008
C10 C 0.03584(6) 0.6848(2) 1.12176(9)
H9 H 0.0283 0.5862 1.1389
C11 C 0.01012(6) 0.8234(3) 1.11929(10)
H10 H -0.0147 0.8179 1.1352
C12 C 0.02080(5) 0.9711(2) 1.09324(9)
H11 H 0.0034 1.0642 1.0921
C13 C 0.05773(5) 0.9785(2) 1.06886(8)
C14 C 0.04794(7) 1.2676(2) 1.04394(11)
H12 H 0.0176 1.2552 1.0194
H13 H 0.0608 1.3548 1.0241
H14 H 0.0501 1.2942 1.0903
C15 C 0.14311(5) 0.8613(2) 0.86345(8)
C16 C 0.12262(5) 0.9886(2) 0.81973(8)
C17 C 0.11525(6) 0.9736(2) 0.74995(9)
H15 H 0.1020 1.0587 0.7212
C18 C 0.12808(6) 0.8291(3) 0.72386(9)
H16 H 0.1232 0.8180 0.6773
C19 C 0.14804(6) 0.7018(2) 0.76609(10)
H17 H 0.1565 0.6060 0.7481
C20 C 0.15545(6) 0.7182(2) 0.83604(9)
H18 H 0.1688 0.6327 0.8645
C21 C 0.09691(9) 1.2689(2) 0.81075(11)
H19 H 0.1184 1.2969 0.7875
H20 H 0.0939 1.3587 0.8396
H21 H 0.0692 1.2482 0.7783
N1 N 0.19059(4) 0.79518(19) 0.97713(7)
H22 H 0.2131(7) 0.801(2) 0.9603(10)
N2 N 0.08865(4) 0.69662(18) 0.93854(7)
O1 O 0.23413(4) 0.67070(16) 1.06992(6)
O2 O 0.19503(4) 0.89522(17) 1.16459(6)
O3 O 0.18548(5) 0.62858(19) 1.18782(7)
O4 O 0.07085(4) 1.11668(14) 1.04113(6)
O5 O 0.10998(4) 0.56870(16) 0.94655(7)
O6 O 0.04938(4) 0.70272(19) 0.91045(8)
O7 O 0.11077(4) 1.12407(15) 0.85081(6)
loop_
_geom_bond_atom_site_label_1
_geom_bond_atom_site_label_2
_geom_bond_site_symmetry_1
_geom_bond_site_symmetry_2
C1 C2 1_555 1_555
C2 H1 1_555 1_555
C3 C2 1_555 1_555
H2 C3 1_555 1_555
C4 C3 1_555 1_555
H3 C4 1_555 1_555
C5 C4 1_555 1_555
H4 C5 1_555 1_555
C6 C2 1_555 1_555
C7 H5 1_555 1_555
H6 C7 1_555 1_555
H7 C7 1_555 1_555
C8 C3 1_555 1_555
C9 C8 1_555 1_555
H8 C9 1_555 1_555
C10 C9 1_555 1_555
H9 C10 1_555 1_555
C11 C10 1_555 1_555
H10 C11 1_555 1_555
C12 C11 1_555 1_555
H11 C12 1_555 1_555
C13 C8 1_555 1_555
C14 H12 1_555 1_555
H13 C14 1_555 1_555
H14 C14 1_555 1_555
C15 C5 1_555 1_555
C16 C15 1_555 1_555
C17 C16 1_555 1_555
H15 C17 1_555 1_555
C18 C17 1_555 1_555
H16 C18 1_555 1_555
C19 C18 1_555 1_555
H17 C19 1_555 1_555
C20 C15 1_555 1_555
H18 C20 1_555 1_555
C21 H19 1_555 1_555
H20 C21 1_555 1_555
H21 C21 1_555 1_555
N1 C1 1_555 1_555
H22 N1 1_555 1_555
N2 C4 1_555 1_555
O1 C1 1_555 1_555
O2 C6 1_555 1_555
O3 C6 1_555 1_555
O4 C13 1_555 1_555
O5 N2 1_555 1_555
O6 N2 1_555 1_555
O7 C16 1_555 1_555
C5 N1 1_555 1_555
C7 O2 1_555 1_555
C12 C13 1_555 1_555
C14 O4 1_555 1_555
C19 C20 1_555 1_555
C21 O7 1_555 1_555

#END
