
#######################################################################
#
#                 Cambridge Crystallographic Data Centre
#                                CCDC 
#
#######################################################################
#
# If this CIF has been generated from an entry in the Cambridge 
# Structural Database, then it will include bibliographic, chemical, 
# crystal, experimental, refinement or atomic coordinate data resulting 
# from the CCDC's data processing and validation procedures.
#
#######################################################################

data_VEFHUM
_chemical_formula_moiety         'C68 H84 B2 N4,C4 H8 O1'
_chemical_name_systematic        
"2,2'-(5,10-dihydro-5,10-ethano-5,10-boranthrene-5,10-diylidene)bis(1,3-bis[2,6-bis(propan-2-yl)phenyl]-1H-3-imidazole) tetrahydrofuran solvate"
_symmetry_cell_setting           monoclinic
_symmetry_space_group_name_H-M   'P 21/c'
_symmetry_Int_Tables_number      14
_space_group_name_Hall           '-P 2ybc'
loop_
_symmetry_equiv_pos_site_id
_symmetry_equiv_pos_as_xyz
1 x,y,z
2 -x,1/2+y,1/2-z
3 -x,-y,-z
4 x,1/2-y,1/2+z
_cell_length_a                   13.8441(5)
_cell_length_b                   40.4583(14)
_cell_length_c                   12.3400(4)
_cell_angle_alpha                90
_cell_angle_beta                 114.3143(5)
_cell_angle_gamma                90
_cell_volume                     6298.67
_exptl_crystal_colour            colorless
_exptl_crystal_description       'prism fragment'
_cell_formula_units_Z            4
loop_
_atom_site_label
_atom_site_type_symbol
_atom_site_fract_x
_atom_site_fract_y
_atom_site_fract_z
B1 B 0.62788(8) 0.88466(3) 0.30536(9)
C1 C 0.52487(7) 0.88509(2) 0.18125(8)
C2 C 0.52366(8) 0.89069(3) 0.06896(9)
H1 H 0.5891 0.8909 0.0610
C3 C 0.43023(9) 0.89598(3) -0.03183(10)
H2 H 0.4321 0.8990 -0.1073
C4 C 0.33443(9) 0.89685(3) -0.02085(10)
H3 H 0.2700 0.9005 -0.0886
C5 C 0.33400(8) 0.89232(3) 0.09105(9)
H4 H 0.2685 0.8935 0.0985
C6 C 0.42678(7) 0.88604(2) 0.19295(8)
B2 B 0.44007(8) 0.88681(3) 0.33012(9)
C7 C 0.52267(7) 0.85970(2) 0.41289(8)
C8 C 0.51602(8) 0.84313(2) 0.50889(9)
H5 H 0.4535 0.8455 0.5221
C9 C 0.59751(8) 0.82316(3) 0.58623(9)
H6 H 0.5890 0.8115 0.6485
C10 C 0.69138(8) 0.82063(3) 0.57100(9)
H7 H 0.7474 0.8069 0.6219
C11 C 0.70202(7) 0.83855(2) 0.47989(9)
H8 H 0.7675 0.8376 0.4722
C12 C 0.61976(7) 0.85787(2) 0.39940(8)
C13 C 0.61718(7) 0.91989(2) 0.37023(9)
H9 H 0.6750 0.9212 0.4510
H10 H 0.6245 0.9389 0.3236
C14 C 0.50753(7) 0.92183(2) 0.37867(9)
H11 H 0.4661 0.9406 0.3302
H12 H 0.5189 0.9257 0.4623
C15 C 0.74278(7) 0.87806(2) 0.29894(8)
N1 N 0.77146(6) 0.85205(2) 0.24640(7)
C16 C 0.88110(7) 0.84914(3) 0.29147(9)
H13 H 0.9197 0.8327 0.2709
C17 C 0.92223(8) 0.87393(3) 0.36956(9)
H14 H 0.9954 0.8784 0.4143
N2 N 0.83727(6) 0.89178(2) 0.37251(7)
C18 C 0.70663(7) 0.83425(3) 0.13766(9)
C19 C 0.65481(8) 0.80505(3) 0.14212(9)
C20 C 0.59464(9) 0.78921(3) 0.03395(10)
H15 H 0.5568 0.7696 0.0340
C21 C 0.58952(9) 0.80160(3) -0.07271(10)
H16 H 0.5468 0.7909 -0.1452
C22 C 0.64662(9) 0.82964(3) -0.07401(10)
H17 H 0.6446 0.8375 -0.1475
C23 C 0.70700(8) 0.84654(3) 0.03057(9)
C24 C 0.66633(8) 0.78868(3) 0.25700(10)
H18 H 0.7085 0.8038 0.3238
C25 C 0.55943(10) 0.78276(3) 0.26271(12)
H19 H 0.5206 0.8037 0.2496
H20 H 0.5711 0.7739 0.3411
H21 H 0.5181 0.7669 0.2011
C26 C 0.72845(10) 0.75625(3) 0.27434(11)
H22 H 0.6911 0.7415 0.2070
H23 H 0.7345 0.7456 0.3482
H24 H 0.7995 0.7610 0.2789
C27 C 0.77421(9) 0.87587(3) 0.02571(9)
H25 H 0.7966 0.8883 0.1023
C28 C 0.87447(9) 0.86329(4) 0.01461(11)
H26 H 0.9120 0.8478 0.0795
H27 H 0.9209 0.8820 0.0192
H28 H 0.8545 0.8520 -0.0619
C29 C 0.71513(10) 0.89995(3) -0.07658(11)
H29 H 0.6943 0.8884 -0.1527
H30 H 0.7617 0.9185 -0.0732
H31 H 0.6517 0.9082 -0.0690
C30 C 0.85522(8) 0.92297(3) 0.43603(9)
C31 C 0.83107(8) 0.95243(3) 0.36949(10)
C32 C 0.85559(10) 0.98209(3) 0.43272(13)
H32 H 0.8405 1.0024 0.3904
C33 C 0.90144(11) 0.98251(3) 0.55580(14)
H33 H 0.9171 1.0030 0.5970
C34 C 0.92445(10) 0.95332(3) 0.61884(12)
H34 H 0.9561 0.9540 0.7033
C35 C 0.90197(8) 0.92269(3) 0.56067(10)
C36 C 0.78400(9) 0.95309(3) 0.23469(11)
H35 H 0.7466 0.9316 0.2055
C37 C 0.70312(12) 0.98095(4) 0.18068(14)
H36 H 0.6511 0.9805 0.2156
H37 H 0.6668 0.9778 0.0945
H38 H 0.7398 1.0023 0.1975
C38 C 0.87230(11) 0.95576(4) 0.19079(13)
H39 H 0.9116 0.9764 0.2200
H40 H 0.8412 0.9557 0.1036
H41 H 0.9206 0.9369 0.2206
C39 C 0.92577(10) 0.89131(3) 0.63389(10)
H42 H 0.9030 0.8722 0.5777
C40 C 1.04488(12) 0.88761(4) 0.71123(14)
H43 H 1.0692 0.9061 0.7673
H44 H 1.0837 0.8876 0.6603
H45 H 1.0578 0.8668 0.7554
C41 C 0.86219(14) 0.89012(5) 0.71048(13)
H46 H 0.8758 0.8691 0.7538
H47 H 0.7864 0.8920 0.6592
H48 H 0.8838 0.9085 0.7673
C42 C 0.31995(7) 0.88588(2) 0.32786(8)
N3 N 0.25890(6) 0.91273(2) 0.32417(7)
C43 C 0.15427(8) 0.90372(3) 0.29412(9)
H49 H 0.0973 0.9181 0.2850
C44 C 0.14894(8) 0.87063(3) 0.28027(9)
H50 H 0.0874 0.8573 0.2591
N4 N 0.25057(6) 0.85979(2) 0.30281(7)
C45 C 0.29438(8) 0.94600(2) 0.36508(10)
C46 C 0.27377(9) 0.97133(3) 0.28153(11)
C47 C 0.30430(11) 1.00333(3) 0.32590(15)
H51 H 0.2913 1.0212 0.2718
C48 C 0.35253(11) 1.00937(3) 0.44573(16)
H52 H 0.3726 1.0313 0.4736
C49 C 0.37221(10) 0.98379(3) 0.52627(13)
H53 H 0.4061 0.9884 0.6090
C50 C 0.34312(8) 0.95131(3) 0.48813(10)
C51 C 0.22358(11) 0.96554(3) 0.14911(12)
H54 H 0.2121 0.9412 0.1354
C52 C 0.11542(14) 0.98251(5) 0.09109(17)
H55 H 0.0685 0.9740 0.1262
H56 H 0.0842 0.9780 0.0055
H57 H 0.1243 1.0064 0.1045
C53 C 0.29671(15) 0.97694(4) 0.09086(16)
H58 H 0.3090 1.0008 0.1027
H59 H 0.2633 0.9721 0.0055
H60 H 0.3645 0.9652 0.1271
C54 C 0.36289(9) 0.92364(3) 0.57746(10)
H61 H 0.3621 0.9024 0.5356
C55 C 0.47035(11) 0.92610(6) 0.68345(13)
H62 H 0.4701 0.9450 0.7331
H63 H 0.5261 0.9292 0.6548
H64 H 0.4838 0.9057 0.7305
C56 C 0.27397(11) 0.92186(4) 0.61985(14)
H65 H 0.2736 0.9421 0.6631
H66 H 0.2854 0.9028 0.6726
H67 H 0.2058 0.9195 0.5511
C57 C 0.27531(7) 0.82469(2) 0.31694(9)
C58 C 0.29264(8) 0.81002(2) 0.42727(9)
C59 C 0.32274(9) 0.77690(3) 0.44243(10)
H68 H 0.3383 0.7666 0.5169
C60 C 0.33049(9) 0.75868(3) 0.35094(11)
H69 H 0.3544 0.7364 0.3641
C61 C 0.30321(9) 0.77307(3) 0.24056(11)
H70 H 0.3046 0.7600 0.1772
C62 C 0.27368(8) 0.80635(2) 0.21995(9)
C63 C 0.27125(8) 0.82804(3) 0.52407(9)
H71 H 0.2721 0.8523 0.5097
C64 C 0.35147(9) 0.82094(3) 0.65181(10)
H72 H 0.3345 0.8345 0.7074
H73 H 0.4231 0.8263 0.6595
H74 H 0.3481 0.7975 0.6700
C65 C 0.16001(9) 0.81877(3) 0.51360(11)
H75 H 0.1580 0.7951 0.5301
H76 H 0.1076 0.8236 0.4330
H77 H 0.1435 0.8316 0.5711
C66 C 0.23023(10) 0.82004(3) 0.09443(10)
H78 H 0.2240 0.8446 0.0997
C67 C 0.11826(13) 0.80620(4) 0.02488(12)
H79 H 0.1224 0.7823 0.0138
H80 H 0.0859 0.8170 -0.0529
H81 H 0.0750 0.8104 0.0694
C68 C 0.30065(14) 0.81326(3) 0.02868(13)
H82 H 0.3709 0.8229 0.0732
H83 H 0.2686 0.8231 -0.0508
H84 H 0.3076 0.7893 0.0215
O1 O 0.95956(8) 0.71587(2) 0.69020(8)
C69 C 1.02966(11) 0.74041(4) 0.76438(12)
H85 H 1.1030 0.7362 0.7734
H86 H 1.0288 0.7401 0.8442
C70 C 0.99113(12) 0.77352(4) 0.70477(14)
H87 H 0.9413 0.7840 0.7334
H88 H 1.0511 0.7887 0.7190
C71 C 0.93589(11) 0.76428(3) 0.57464(12)
H89 H 0.8794 0.7803 0.5304
H90 H 0.9867 0.7630 0.5372
C72 C 0.89002(10) 0.73064(3) 0.57928(11)
H91 H 0.8175 0.7329 0.5757
H92 H 0.8867 0.7169 0.5115
loop_
_geom_bond_atom_site_label_1
_geom_bond_atom_site_label_2
_geom_bond_site_symmetry_1
_geom_bond_site_symmetry_2
B1 C1 1_555 1_555
C1 C2 1_555 1_555
C2 H1 1_555 1_555
C3 C2 1_555 1_555
H2 C3 1_555 1_555
C4 C3 1_555 1_555
H3 C4 1_555 1_555
C5 C4 1_555 1_555
H4 C5 1_555 1_555
C6 C1 1_555 1_555
B2 C6 1_555 1_555
C7 B2 1_555 1_555
C8 C7 1_555 1_555
H5 C8 1_555 1_555
C9 C8 1_555 1_555
H6 C9 1_555 1_555
C10 C9 1_555 1_555
H7 C10 1_555 1_555
C11 C10 1_555 1_555
H8 C11 1_555 1_555
C12 B1 1_555 1_555
C13 B1 1_555 1_555
H9 C13 1_555 1_555
H10 C13 1_555 1_555
C14 B2 1_555 1_555
H11 C14 1_555 1_555
H12 C14 1_555 1_555
C15 B1 1_555 1_555
N1 C15 1_555 1_555
C16 N1 1_555 1_555
H13 C16 1_555 1_555
C17 C16 1_555 1_555
H14 C17 1_555 1_555
N2 C15 1_555 1_555
C18 N1 1_555 1_555
C19 C18 1_555 1_555
C20 C19 1_555 1_555
H15 C20 1_555 1_555
C21 C20 1_555 1_555
H16 C21 1_555 1_555
C22 C21 1_555 1_555
H17 C22 1_555 1_555
C23 C18 1_555 1_555
C24 C19 1_555 1_555
H18 C24 1_555 1_555
C25 C24 1_555 1_555
H19 C25 1_555 1_555
H20 C25 1_555 1_555
H21 C25 1_555 1_555
C26 C24 1_555 1_555
H22 C26 1_555 1_555
H23 C26 1_555 1_555
H24 C26 1_555 1_555
C27 C23 1_555 1_555
H25 C27 1_555 1_555
C28 C27 1_555 1_555
H26 C28 1_555 1_555
H27 C28 1_555 1_555
H28 C28 1_555 1_555
C29 C27 1_555 1_555
H29 C29 1_555 1_555
H30 C29 1_555 1_555
H31 C29 1_555 1_555
C30 N2 1_555 1_555
C31 C30 1_555 1_555
C32 C31 1_555 1_555
H32 C32 1_555 1_555
C33 C32 1_555 1_555
H33 C33 1_555 1_555
C34 C33 1_555 1_555
H34 C34 1_555 1_555
C35 C30 1_555 1_555
C36 C31 1_555 1_555
H35 C36 1_555 1_555
C37 C36 1_555 1_555
H36 C37 1_555 1_555
H37 C37 1_555 1_555
H38 C37 1_555 1_555
C38 C36 1_555 1_555
H39 C38 1_555 1_555
H40 C38 1_555 1_555
H41 C38 1_555 1_555
C39 C35 1_555 1_555
H42 C39 1_555 1_555
C40 C39 1_555 1_555
H43 C40 1_555 1_555
H44 C40 1_555 1_555
H45 C40 1_555 1_555
C41 C39 1_555 1_555
H46 C41 1_555 1_555
H47 C41 1_555 1_555
H48 C41 1_555 1_555
C42 B2 1_555 1_555
N3 C42 1_555 1_555
C43 N3 1_555 1_555
H49 C43 1_555 1_555
C44 C43 1_555 1_555
H50 C44 1_555 1_555
N4 C42 1_555 1_555
C45 N3 1_555 1_555
C46 C45 1_555 1_555
C47 C46 1_555 1_555
H51 C47 1_555 1_555
C48 C47 1_555 1_555
H52 C48 1_555 1_555
C49 C48 1_555 1_555
H53 C49 1_555 1_555
C50 C45 1_555 1_555
C51 C46 1_555 1_555
H54 C51 1_555 1_555
C52 C51 1_555 1_555
H55 C52 1_555 1_555
H56 C52 1_555 1_555
H57 C52 1_555 1_555
C53 C51 1_555 1_555
H58 C53 1_555 1_555
H59 C53 1_555 1_555
H60 C53 1_555 1_555
C54 C50 1_555 1_555
H61 C54 1_555 1_555
C55 C54 1_555 1_555
H62 C55 1_555 1_555
H63 C55 1_555 1_555
H64 C55 1_555 1_555
C56 C54 1_555 1_555
H65 C56 1_555 1_555
H66 C56 1_555 1_555
H67 C56 1_555 1_555
C57 N4 1_555 1_555
C58 C57 1_555 1_555
C59 C58 1_555 1_555
H68 C59 1_555 1_555
C60 C59 1_555 1_555
H69 C60 1_555 1_555
C61 C60 1_555 1_555
H70 C61 1_555 1_555
C62 C57 1_555 1_555
C63 C58 1_555 1_555
H71 C63 1_555 1_555
C64 C63 1_555 1_555
H72 C64 1_555 1_555
H73 C64 1_555 1_555
H74 C64 1_555 1_555
C65 C63 1_555 1_555
H75 C65 1_555 1_555
H76 C65 1_555 1_555
H77 C65 1_555 1_555
C66 C62 1_555 1_555
H78 C66 1_555 1_555
C67 C66 1_555 1_555
H79 C67 1_555 1_555
H80 C67 1_555 1_555
H81 C67 1_555 1_555
C68 C66 1_555 1_555
H82 C68 1_555 1_555
H83 C68 1_555 1_555
H84 C68 1_555 1_555
O1 C69 1_555 1_555
C69 H85 1_555 1_555
H86 C69 1_555 1_555
C70 C69 1_555 1_555
H87 C70 1_555 1_555
H88 C70 1_555 1_555
C71 C70 1_555 1_555
H89 C71 1_555 1_555
H90 C71 1_555 1_555
C72 O1 1_555 1_555
H91 C72 1_555 1_555
H92 C72 1_555 1_555
C5 C6 1_555 1_555
C7 C12 1_555 1_555
C11 C12 1_555 1_555
C13 C14 1_555 1_555
C17 N2 1_555 1_555
C22 C23 1_555 1_555
C34 C35 1_555 1_555
C44 N4 1_555 1_555
C49 C50 1_555 1_555
C61 C62 1_555 1_555
C71 C72 1_555 1_555

#END
