
#######################################################################
#
#                 Cambridge Crystallographic Data Centre
#                                CCDC 
#
#######################################################################
#
# If this CIF has been generated from an entry in the Cambridge 
# Structural Database, then it will include bibliographic, chemical, 
# crystal, experimental, refinement or atomic coordinate data resulting 
# from the CCDC's data processing and validation procedures.
#
#######################################################################

data_VEFHIA
_chemical_formula_moiety         'C66 H80 B2 Br2 N4,2.75(C4 H10 O1)'
_chemical_name_systematic        
"2,2'-(5,10-dibromo-5,10-dihydro-5,10-boranthrene-5,10-diylidene)bis(1,3-bis[2,6-bis(propan-2-yl)phenyl]-1H-3-imidazole) diethyl ether solvate"
_symmetry_cell_setting           triclinic
_symmetry_space_group_name_H-M   'P -1'
_symmetry_Int_Tables_number      2
_space_group_name_Hall           '-P 1'
loop_
_symmetry_equiv_pos_site_id
_symmetry_equiv_pos_as_xyz
1 x,y,z
2 -x,-y,-z
_cell_length_a                   14.0685(10)
_cell_length_b                   15.0125(10)
_cell_length_c                   17.8170(12)
_cell_angle_alpha                90.7365(11)
_cell_angle_beta                 106.7863(11)
_cell_angle_gamma                95.7848(11)
_cell_volume                     3580.84
_exptl_crystal_colour            colorless
_exptl_crystal_description       'needle fragment'
_cell_formula_units_Z            2
loop_
_atom_site_label
_atom_site_type_symbol
_atom_site_fract_x
_atom_site_fract_y
_atom_site_fract_z
Br1 Br 0.74379(2) 0.20944(2) 0.40958(2)
Br2 Br 0.79017(3) 0.21877(2) 0.07508(2)
N1 N 0.53003(16) 0.31742(14) 0.37831(13)
N2 N 0.54038(17) 0.40075(14) 0.28250(13)
N3 N 0.96238(17) 0.16356(14) 0.26620(13)
N4 N 0.84964(17) 0.05081(14) 0.23060(12)
B1 B 0.6735(2) 0.27790(19) 0.30832(17)
B2 B 0.7777(3) 0.2118(2) 0.19233(17)
C1 C 0.6180(2) 0.20054(17) 0.24199(15)
C2 C 0.5203(2) 0.16398(18) 0.23484(17)
H1 H 0.4895 0.1818 0.2727
C3 C 0.4659(2) 0.10274(19) 0.17491(18)
H2 H 0.3997 0.0790 0.1720
C4 C 0.5109(2) 0.0773(2) 0.11945(18)
H3 H 0.4751 0.0363 0.0773
C5 C 0.6075(2) 0.11146(19) 0.12565(17)
H4 H 0.6369 0.0932 0.0870
C6 C 0.6650(2) 0.17226(17) 0.18663(15)
C7 C 0.8057(2) 0.31271(17) 0.23121(15)
C8 C 0.8743(2) 0.37550(19) 0.21114(17)
H5 H 0.9025 0.3591 0.1712
C9 C 0.9025(2) 0.46010(18) 0.24702(18)
H6 H 0.9489 0.5008 0.2316
C10 C 0.8627(2) 0.48498(18) 0.30570(18)
H7 H 0.8835 0.5418 0.3326
C11 C 0.7924(2) 0.42574(17) 0.32433(16)
H8 H 0.7645 0.4435 0.3640
C12 C 0.7603(2) 0.34066(17) 0.28759(15)
C13 C 0.58671(19) 0.33540(16) 0.32816(15)
C14 C 0.4560(2) 0.41838(18) 0.30205(18)
H9 H 0.4106 0.4593 0.2775
C15 C 0.4497(2) 0.36761(18) 0.36179(18)
H10 H 0.3996 0.3662 0.3880
C16 C 0.5485(2) 0.26521(17) 0.44878(16)
C17 C 0.4815(2) 0.19025(18) 0.44969(18)
C18 C 0.4997(2) 0.14403(19) 0.5193(2)
H11 H 0.4578 0.0909 0.5214
C19 C 0.5763(2) 0.1735(2) 0.58452(19)
H12 H 0.5877 0.1403 0.6308
C20 C 0.6374(2) 0.25144(19) 0.58324(17)
H13 H 0.6884 0.2728 0.6295
C21 C 0.6250(2) 0.29891(18) 0.51524(16)
C22 C 0.3870(2) 0.16172(18) 0.38373(19)
H14 H 0.3887 0.1986 0.3377
C23 C 0.3780(3) 0.0626(2) 0.3575(2)
H15 H 0.4368 0.0510 0.3415
H16 H 0.3177 0.0485 0.3132
H17 H 0.3737 0.0249 0.4012
C24 C 0.2954(2) 0.1811(2) 0.4088(2)
H18 H 0.2890 0.1421 0.4511
H19 H 0.2353 0.1697 0.3639
H20 H 0.3033 0.2439 0.4273
C25 C 0.6895(2) 0.38665(17) 0.51569(16)
H21 H 0.6939 0.3950 0.4612
C26 C 0.6386(2) 0.46448(18) 0.53761(18)
H22 H 0.5722 0.4648 0.5001
H23 H 0.6790 0.5212 0.5362
H24 H 0.6321 0.4572 0.5905
C27 C 0.7959(2) 0.38865(19) 0.57042(18)
H25 H 0.7945 0.3910 0.6251
H26 H 0.8368 0.4417 0.5610
H27 H 0.8246 0.3345 0.5603
C28 C 0.5767(2) 0.46409(18) 0.23251(16)
C29 C 0.6141(2) 0.55097(18) 0.26588(17)
C30 C 0.6431(2) 0.61296(19) 0.21763(18)
H28 H 0.6686 0.6722 0.2380
C31 C 0.6359(3) 0.5907(2) 0.14033(19)
H29 H 0.6587 0.6337 0.1089
C32 C 0.5956(3) 0.5062(2) 0.10919(18)
H30 H 0.5899 0.4919 0.0559
C33 C 0.5631(2) 0.44127(19) 0.15376(17)
C34 C 0.6219(2) 0.58047(18) 0.34986(17)
H31 H 0.6086 0.5260 0.3785
C35 C 0.5430(3) 0.6436(2) 0.3504(2)
H32 H 0.5562 0.6985 0.3242
H33 H 0.5459 0.6587 0.4048
H34 H 0.4766 0.6139 0.3227
C36 C 0.7243(2) 0.62774(19) 0.39469(19)
H35 H 0.7750 0.5862 0.3996
H36 H 0.7234 0.6476 0.4471
H37 H 0.7403 0.6798 0.3662
C37 C 0.5086(3) 0.3518(2) 0.11617(18)
H38 H 0.5239 0.3060 0.1570
C38 C 0.5421(3) 0.3204(2) 0.04685(19)
H39 H 0.5178 0.3581 0.0023
H40 H 0.5148 0.2579 0.0319
H41 H 0.6152 0.3251 0.0619
C39 C 0.3958(3) 0.3564(2) 0.0918(2)
H42 H 0.3789 0.4033 0.0539
H43 H 0.3750 0.3704 0.1382
H44 H 0.3613 0.2986 0.0677
C40 C 0.8621(2) 0.14254(17) 0.22990(14)
C41 C 0.9385(2) 0.01706(18) 0.26597(16)
H45 H 0.9483 -0.0443 0.2735
C42 C 1.0083(2) 0.08705(18) 0.28761(17)
H46 H 1.0772 0.0846 0.3132
C43 C 1.0277(2) 0.24703(17) 0.27704(16)
C44 C 1.0508(2) 0.29588(18) 0.34881(16)
C45 C 1.1218(2) 0.37015(19) 0.36022(18)
H47 H 1.1390 0.4053 0.4079
C46 C 1.1679(2) 0.3937(2) 0.3035(2)
H48 H 1.2152 0.4454 0.3123
C47 C 1.1459(3) 0.3430(2) 0.2342(2)
H49 H 1.1788 0.3598 0.1961
C48 C 1.0758(2) 0.26720(19) 0.21974(18)
C49 C 1.0029(2) 0.26901(18) 0.41228(16)
H50 H 0.9332 0.2414 0.3861
C50 C 1.0589(2) 0.1989(2) 0.46404(18)
H51 H 1.0569 0.1450 0.4318
H52 H 1.0270 0.1835 0.5050
H53 H 1.1285 0.2234 0.4884
C51 C 0.9971(2) 0.3491(2) 0.46460(17)
H54 H 1.0641 0.3698 0.4988
H55 H 0.9532 0.3308 0.4968
H56 H 0.9703 0.3978 0.4316
C52 C 1.0592(3) 0.2079(2) 0.14638(19)
H57 H 0.9963 0.1670 0.1389
C53 C 1.0482(3) 0.2632(3) 0.0728(2)
H58 H 0.9966 0.3035 0.0692
H59 H 1.0291 0.2227 0.0261
H60 H 1.1120 0.2985 0.0764
C54 C 1.1462(3) 0.1504(3) 0.1566(2)
H61 H 1.2082 0.1894 0.1622
H62 H 1.1328 0.1096 0.1105
H63 H 1.1528 0.1155 0.2036
C55 C 0.7643(2) -0.01461(17) 0.19429(16)
C56 C 0.7543(2) -0.04732(18) 0.11799(16)
C57 C 0.6776(2) -0.1155(2) 0.08668(18)
H64 H 0.6674 -0.1386 0.0347
C58 C 0.6162(2) -0.1502(2) 0.12915(19)
H65 H 0.5637 -0.1959 0.1060
C59 C 0.6306(2) -0.11885(19) 0.20564(18)
H66 H 0.5885 -0.1443 0.2348
C60 C 0.7059(2) -0.05050(17) 0.24020(16)
C61 C 0.8255(2) -0.0145(2) 0.07205(17)
H67 H 0.8607 0.0448 0.0962
C62 C 0.7718(3) -0.0010(2) -0.01402(18)
H68 H 0.7431 -0.0593 -0.0406
H69 H 0.8194 0.0276 -0.0394
H70 H 0.7183 0.0372 -0.0173
C63 C 0.9049(3) -0.0794(2) 0.0780(2)
H71 H 0.9424 -0.0842 0.1332
H72 H 0.9508 -0.0568 0.0487
H73 H 0.8722 -0.1386 0.0559
C64 C 0.7247(2) -0.02033(18) 0.32534(16)
H74 H 0.7595 0.0420 0.3328
C65 C 0.7934(3) -0.0801(2) 0.38011(19)
H75 H 0.7614 -0.1420 0.3734
H76 H 0.8061 -0.0587 0.4346
H77 H 0.8569 -0.0781 0.3674
C66 C 0.6294(2) -0.0187(2) 0.34849(19)
H78 H 0.5824 0.0140 0.3100
H79 H 0.6447 0.0112 0.4005
H80 H 0.5994 -0.0802 0.3499
C67 C 1.1145(3) 0.2611(3) 0.7704(3)
H81 H 1.0917 0.2444 0.8158
H82 H 1.1501 0.3216 0.7800
H83 H 1.1595 0.2186 0.7622
C68 C 1.0276(3) 0.2593(2) 0.7000(2)
H84 H 0.9785 0.2969 0.7103
H85 H 1.0494 0.2844 0.6558
O1 O 0.98195(16) 0.17026(13) 0.67926(14)
C69 C 0.8929(2) 0.1660(2) 0.6173(2)
H86 H 0.9055 0.1979 0.5723
H87 H 0.8425 0.1958 0.6344
C70 C 0.8538(3) 0.0708(2) 0.5926(3)
H88 H 0.9044 0.0409 0.5770
H89 H 0.7931 0.0687 0.5482
H90 H 0.8381 0.0400 0.6365
C71 C 0.8831(13) 0.4106(10) 0.8287(8)
H91 H 0.8951 0.3522 0.8103
H92 H 0.9342 0.4567 0.8222
H93 H 0.8169 0.4249 0.7980
C72 C 0.888(2) 0.4074(13) 0.9174(10)
H94 H 0.8487 0.3522 0.9268
H95 H 0.9578 0.4074 0.9503
O2 O 0.8456(17) 0.4873(9) 0.9377(7)
C73 C 0.839(3) 0.4816(15) 1.0122(12)
H96 H 0.8917 0.4468 1.0428
H97 H 0.7735 0.4482 1.0103
C74 C 0.8476(19) 0.5707(11) 1.0540(10)
H98 H 0.8356 0.5617 1.1051
H99 H 0.7982 0.6073 1.0225
H100 H 0.9149 0.6012 1.0619
C75 C 0.7881(12) 0.1372(9) 0.8006(9)
H101 H 0.7903 0.0723 0.8045
H102 H 0.8514 0.1685 0.8331
H103 H 0.7775 0.1530 0.7458
C76 C 0.7030(11) 0.1645(6) 0.8291(6)
H104 H 0.6383 0.1336 0.7968
H105 H 0.7127 0.1493 0.8845
O3 O 0.7050(9) 0.2586(5) 0.8214(6)
C77 C 0.6315(9) 0.2895(6) 0.8559(6)
H106 H 0.6432 0.2679 0.9097
H107 H 0.5637 0.2642 0.8245
C78 C 0.6378(8) 0.3899(6) 0.8586(7)
H108 H 0.5708 0.4085 0.8501
H109 H 0.6658 0.4132 0.8174
H110 H 0.6809 0.4137 0.9100
C79? C 0.790(2) 0.1095(12) 0.7848(17)
H111? H 0.7768 0.0569 0.8140
H112? H 0.8415 0.0991 0.7599
H113? H 0.7281 0.1196 0.7444
C80? C 0.8247(17) 0.1917(9) 0.8412(10)
H114? H 0.8057 0.1811 0.8900
H115? H 0.8982 0.2051 0.8552
O4? O 0.7778(12) 0.2631(6) 0.8020(5)
C81? C 0.802(2) 0.3438(9) 0.8500(11)
H116? H 0.8754 0.3613 0.8644
H117? H 0.7837 0.3337 0.8989
C82? C 0.7463(17) 0.4204(9) 0.8053(13)
H118? H 0.7044 0.4429 0.8351
H119? H 0.7042 0.3973 0.7534
H120? H 0.7949 0.4692 0.7993
C83? C 0.8450(15) 0.504(4) 1.029(2)
H121? H 0.8193 0.5006 1.0749
H122? H 0.8289 0.4453 1.0004
H123? H 0.8142 0.5496 0.9948
C84? C 0.9580(13) 0.5272(15) 1.0567(11)
H124? H 0.9743 0.5930 1.0631
H125? H 0.9864 0.5009 1.1080
O5? O 0.9998(16) 0.492(3) 1.000(2)
C85? C 1.1064(15) 0.5075(17) 1.0209(13)
H126? H 1.1356 0.4761 1.0693
H127? H 1.1284 0.5724 1.0313
C86? C 1.142(2) 0.472(4) 0.954(2)
H128? H 1.1706 0.4157 0.9679
H129? H 1.1934 0.5164 0.9443
H130? H 1.0857 0.4624 0.9060
loop_
_geom_bond_atom_site_label_1
_geom_bond_atom_site_label_2
_geom_bond_site_symmetry_1
_geom_bond_site_symmetry_2
Br1 B1 1_555 1_555
Br2 B2 1_555 1_555
N1 C13 1_555 1_555
N2 C13 1_555 1_555
N3 C40 1_555 1_555
N4 C40 1_555 1_555
B1 C1 1_555 1_555
B2 C6 1_555 1_555
C1 C2 1_555 1_555
C2 H1 1_555 1_555
C3 C2 1_555 1_555
H2 C3 1_555 1_555
C4 C3 1_555 1_555
H3 C4 1_555 1_555
C5 C4 1_555 1_555
H4 C5 1_555 1_555
C6 C1 1_555 1_555
C7 B2 1_555 1_555
C8 C7 1_555 1_555
H5 C8 1_555 1_555
C9 C8 1_555 1_555
H6 C9 1_555 1_555
C10 C9 1_555 1_555
H7 C10 1_555 1_555
C11 C10 1_555 1_555
H8 C11 1_555 1_555
C12 B1 1_555 1_555
C13 B1 1_555 1_555
C14 N2 1_555 1_555
H9 C14 1_555 1_555
C15 N1 1_555 1_555
H10 C15 1_555 1_555
C16 N1 1_555 1_555
C17 C16 1_555 1_555
C18 C17 1_555 1_555
H11 C18 1_555 1_555
C19 C18 1_555 1_555
H12 C19 1_555 1_555
C20 C19 1_555 1_555
H13 C20 1_555 1_555
C21 C16 1_555 1_555
C22 C17 1_555 1_555
H14 C22 1_555 1_555
C23 C22 1_555 1_555
H15 C23 1_555 1_555
H16 C23 1_555 1_555
H17 C23 1_555 1_555
C24 C22 1_555 1_555
H18 C24 1_555 1_555
H19 C24 1_555 1_555
H20 C24 1_555 1_555
C25 C21 1_555 1_555
H21 C25 1_555 1_555
C26 C25 1_555 1_555
H22 C26 1_555 1_555
H23 C26 1_555 1_555
H24 C26 1_555 1_555
C27 C25 1_555 1_555
H25 C27 1_555 1_555
H26 C27 1_555 1_555
H27 C27 1_555 1_555
C28 N2 1_555 1_555
C29 C28 1_555 1_555
C30 C29 1_555 1_555
H28 C30 1_555 1_555
C31 C30 1_555 1_555
H29 C31 1_555 1_555
C32 C31 1_555 1_555
H30 C32 1_555 1_555
C33 C28 1_555 1_555
C34 C29 1_555 1_555
H31 C34 1_555 1_555
C35 C34 1_555 1_555
H32 C35 1_555 1_555
H33 C35 1_555 1_555
H34 C35 1_555 1_555
C36 C34 1_555 1_555
H35 C36 1_555 1_555
H36 C36 1_555 1_555
H37 C36 1_555 1_555
C37 C33 1_555 1_555
H38 C37 1_555 1_555
C38 C37 1_555 1_555
H39 C38 1_555 1_555
H40 C38 1_555 1_555
H41 C38 1_555 1_555
C39 C37 1_555 1_555
H42 C39 1_555 1_555
H43 C39 1_555 1_555
H44 C39 1_555 1_555
C40 B2 1_555 1_555
C41 N4 1_555 1_555
H45 C41 1_555 1_555
C42 N3 1_555 1_555
H46 C42 1_555 1_555
C43 N3 1_555 1_555
C44 C43 1_555 1_555
C45 C44 1_555 1_555
H47 C45 1_555 1_555
C46 C45 1_555 1_555
H48 C46 1_555 1_555
C47 C46 1_555 1_555
H49 C47 1_555 1_555
C48 C43 1_555 1_555
C49 C44 1_555 1_555
H50 C49 1_555 1_555
C50 C49 1_555 1_555
H51 C50 1_555 1_555
H52 C50 1_555 1_555
H53 C50 1_555 1_555
C51 C49 1_555 1_555
H54 C51 1_555 1_555
H55 C51 1_555 1_555
H56 C51 1_555 1_555
C52 C48 1_555 1_555
H57 C52 1_555 1_555
C53 C52 1_555 1_555
H58 C53 1_555 1_555
H59 C53 1_555 1_555
H60 C53 1_555 1_555
C54 C52 1_555 1_555
H61 C54 1_555 1_555
H62 C54 1_555 1_555
H63 C54 1_555 1_555
C55 N4 1_555 1_555
C56 C55 1_555 1_555
C57 C56 1_555 1_555
H64 C57 1_555 1_555
C58 C57 1_555 1_555
H65 C58 1_555 1_555
C59 C58 1_555 1_555
H66 C59 1_555 1_555
C60 C55 1_555 1_555
C61 C56 1_555 1_555
H67 C61 1_555 1_555
C62 C61 1_555 1_555
H68 C62 1_555 1_555
H69 C62 1_555 1_555
H70 C62 1_555 1_555
C63 C61 1_555 1_555
H71 C63 1_555 1_555
H72 C63 1_555 1_555
H73 C63 1_555 1_555
C64 C60 1_555 1_555
H74 C64 1_555 1_555
C65 C64 1_555 1_555
H75 C65 1_555 1_555
H76 C65 1_555 1_555
H77 C65 1_555 1_555
C66 C64 1_555 1_555
H78 C66 1_555 1_555
H79 C66 1_555 1_555
H80 C66 1_555 1_555
C67 H81 1_555 1_555
H82 C67 1_555 1_555
H83 C67 1_555 1_555
C68 C67 1_555 1_555
H84 C68 1_555 1_555
H85 C68 1_555 1_555
O1 C68 1_555 1_555
C69 O1 1_555 1_555
H86 C69 1_555 1_555
H87 C69 1_555 1_555
C70 C69 1_555 1_555
H88 C70 1_555 1_555
H89 C70 1_555 1_555
H90 C70 1_555 1_555
C71 H91 1_555 1_555
H92 C71 1_555 1_555
H93 C71 1_555 1_555
C72 C71 1_555 1_555
H94 C72 1_555 1_555
H95 C72 1_555 1_555
O2 C72 1_555 1_555
C73 O2 1_555 1_555
H96 C73 1_555 1_555
H97 C73 1_555 1_555
C74 C73 1_555 1_555
H98 C74 1_555 1_555
H99 C74 1_555 1_555
H100 C74 1_555 1_555
C75 H101 1_555 1_555
H102 C75 1_555 1_555
H103 C75 1_555 1_555
C76 C75 1_555 1_555
H104 C76 1_555 1_555
H105 C76 1_555 1_555
O3 C76 1_555 1_555
C77 O3 1_555 1_555
H106 C77 1_555 1_555
H107 C77 1_555 1_555
C78 C77 1_555 1_555
H108 C78 1_555 1_555
H109 C78 1_555 1_555
H110 C78 1_555 1_555
C5 C6 1_555 1_555
C7 C12 1_555 1_555
C11 C12 1_555 1_555
C14 C15 1_555 1_555
C20 C21 1_555 1_555
C32 C33 1_555 1_555
C41 C42 1_555 1_555
C47 C48 1_555 1_555
C59 C60 1_555 1_555

#END
