
#######################################################################
#
#                 Cambridge Crystallographic Data Centre
#                                CCDC 
#
#######################################################################
#
# If this CIF has been generated from an entry in the Cambridge 
# Structural Database, then it will include bibliographic, chemical, 
# crystal, experimental, refinement or atomic coordinate data resulting 
# from the CCDC's data processing and validation procedures.
#
#######################################################################

data_VEFHEW
_chemical_formula_moiety         'C66 H80 B2 N4 1+,5(C4 H8 O1),Br1 1-'
_chemical_name_systematic        
"2,2'-(5,10-dihydro-5,10-boranthrene-5,10-diylidene)bis{1,3-bis[2,6-bis(propan-2-yl)phenyl]-2,3-dihydro-1H-imidazole} radical cation bromide tetrahydrofuran solvate"
_symmetry_cell_setting           monoclinic
_symmetry_space_group_name_H-M   'P 21/c'
_symmetry_Int_Tables_number      14
_space_group_name_Hall           '-P 2ybc'
loop_
_symmetry_equiv_pos_site_id
_symmetry_equiv_pos_as_xyz
1 x,y,z
2 -x,1/2+y,1/2-z
3 -x,-y,-z
4 x,1/2-y,1/2+z
_cell_length_a                   13.9529(12)
_cell_length_b                   36.527(3)
_cell_length_c                   16.6593(14)
_cell_angle_alpha                90
_cell_angle_beta                 113.4464(12)
_cell_angle_gamma                90
_cell_volume                     7789.5
_exptl_crystal_colour            green
_exptl_crystal_description       'prism fragment'
_cell_formula_units_Z            4
loop_
_atom_site_label
_atom_site_type_symbol
_atom_site_fract_x
_atom_site_fract_y
_atom_site_fract_z
Br1 Br 0.23412(2) 0.40929(2) 0.27122(2)
B1 B 0.64409(17) 0.36413(6) 0.68971(14)
C1 C 0.61396(14) 0.35866(5) 0.76808(12)
C2 C 0.50884(14) 0.35616(5) 0.75893(12)
H1 H 0.4548 0.3589 0.7023
C3 C 0.48194(15) 0.34990(5) 0.82848(13)
H2 H 0.4105 0.3478 0.8195
C4 C 0.56029(15) 0.34662(5) 0.91285(13)
H3 H 0.5422 0.3427 0.9615
C5 C 0.66330(15) 0.34902(5) 0.92484(12)
H4 H 0.7156 0.3468 0.9825
C6 C 0.69468(14) 0.35461(5) 0.85486(12)
B2 B 0.80881(17) 0.35759(6) 0.86791(14)
C7 C 0.83883(14) 0.35803(5) 0.78879(12)
C8 C 0.94295(15) 0.35434(5) 0.79743(12)
H5 H 0.9967 0.3524 0.8544
C9 C 0.96969(15) 0.35349(6) 0.72635(13)
H6 H 1.0405 0.3503 0.7345
C10 C 0.89179(15) 0.35737(5) 0.64186(12)
H7 H 0.9097 0.3575 0.5925
C11 C 0.78943(15) 0.36095(5) 0.63093(12)
H8 H 0.7375 0.3636 0.5733
C12 C 0.75806(14) 0.36093(5) 0.70180(11)
N1 N 0.49728(12) 0.40517(4) 0.57681(10)
C13 C 0.55359(14) 0.37364(5) 0.59645(12)
N2 N 0.51248(12) 0.35280(4) 0.52277(10)
C14 C 0.42993(15) 0.37116(5) 0.45912(12)
H9 H 0.3873 0.3622 0.4026
C15 C 0.42141(14) 0.40373(5) 0.49186(12)
H10 H 0.3727 0.4224 0.4626
C16 C 0.52008(15) 0.43882(5) 0.62779(12)
C17 C 0.60803(15) 0.45920(5) 0.63235(12)
C18 C 0.62528(16) 0.49274(5) 0.67598(13)
H11 H 0.6846 0.5069 0.6815
C19 C 0.55732(16) 0.50556(6) 0.71117(13)
H12 H 0.5707 0.5284 0.7411
C20 C 0.46981(17) 0.48553(5) 0.70330(13)
H13 H 0.4233 0.4950 0.7271
C21 C 0.44890(15) 0.45169(5) 0.66103(12)
C22 C 0.34834(16) 0.43165(6) 0.64911(14)
H14 H 0.3532 0.4061 0.6298
C23 C 0.25383(17) 0.45033(6) 0.57786(16)
H15 H 0.2620 0.4497 0.5221
H16 H 0.2496 0.4758 0.5945
H17 H 0.1898 0.4374 0.5716
C24 C 0.33102(19) 0.42983(6) 0.73436(16)
H18 H 0.3943 0.4205 0.7815
H19 H 0.2723 0.4134 0.7265
H20 H 0.3154 0.4544 0.7496
C25 C 0.67620(15) 0.44780(6) 0.58481(13)
H21 H 0.6703 0.4206 0.5770
C26 C 0.6336(2) 0.46523(7) 0.49347(16)
H22 H 0.5611 0.4575 0.4611
H23 H 0.6762 0.4574 0.4619
H24 H 0.6363 0.4920 0.4991
C27 C 0.79140(17) 0.45700(7) 0.63510(17)
H25 H 0.8161 0.4460 0.6935
H26 H 0.8000 0.4836 0.6405
H27 H 0.8320 0.4473 0.6036
C28 C 0.55014(14) 0.31830(5) 0.50252(12)
C29 C 0.59208(15) 0.31950(6) 0.43812(12)
C30 C 0.61760(16) 0.28606(6) 0.41136(13)
H28 H 0.6448 0.2858 0.3673
C31 C 0.60451(16) 0.25332(6) 0.44706(14)
H29 H 0.6225 0.2309 0.4277
C32 C 0.56526(15) 0.25328(6) 0.51088(13)
H30 H 0.5578 0.2307 0.5359
C33 C 0.53611(14) 0.28571(5) 0.53986(12)
C34 C 0.60859(16) 0.35455(6) 0.39574(13)
H31 H 0.5996 0.3758 0.4299
C35 C 0.52696(18) 0.35774(7) 0.30128(14)
H32 H 0.4567 0.3574 0.3012
H33 H 0.5346 0.3371 0.2667
H34 H 0.5375 0.3807 0.2756
C36 C 0.71827(17) 0.35665(7) 0.39547(14)
H35 H 0.7707 0.3526 0.4549
H36 H 0.7288 0.3809 0.3750
H37 H 0.7255 0.3378 0.3563
C37 C 0.48836(15) 0.28356(6) 0.60711(13)
H38 H 0.4715 0.3090 0.6194
C38 C 0.38650(17) 0.26151(6) 0.57137(16)
H39 H 0.3365 0.2735 0.5188
H40 H 0.3571 0.2603 0.6158
H41 H 0.4008 0.2367 0.5567
C39 C 0.56532(19) 0.26692(6) 0.69322(14)
H42 H 0.6306 0.2809 0.7143
H43 H 0.5797 0.2414 0.6833
H44 H 0.5348 0.2678 0.7370
N3 N 0.93812(12) 0.34195(4) 1.03540(10)
C40 C 0.89992(14) 0.36364(5) 0.96311(12)
N4 N 0.95719(12) 0.39505(4) 0.98641(10)
C41 C 1.03006(14) 0.39286(5) 1.07179(12)
H45 H 1.0786 0.4113 1.1032
C42 C 1.01910(15) 0.35975(5) 1.10168(12)
H46 H 1.0595 0.3502 1.1581
C43 C 0.90161(14) 0.30639(5) 1.05073(12)
C44 C 0.85970(15) 0.30435(5) 1.11463(12)
C45 C 0.83227(16) 0.26982(6) 1.13398(13)
H47 H 0.8030 0.2676 1.1764
C46 C 0.84654(16) 0.23869(6) 1.09295(14)
H48 H 0.8280 0.2154 1.1077
C47 C 0.88778(16) 0.24162(6) 1.03062(14)
H49 H 0.8967 0.2201 1.0024
C48 C 0.91680(15) 0.27526(5) 1.00776(12)
C49 C 0.84308(16) 0.33695(6) 1.16432(12)
H50 H 0.8528 0.3598 1.1355
C50 C 0.73336(17) 0.33749(6) 1.16408(14)
H51 H 0.6814 0.3362 1.1037
H52 H 0.7235 0.3602 1.1912
H53 H 0.7249 0.3165 1.1972
C51 C 0.92364(18) 0.33688(6) 1.25981(13)
H54 H 0.9940 0.3397 1.2609
H55 H 0.9192 0.3137 1.2877
H56 H 0.9090 0.3572 1.2916
C52 C 0.96269(16) 0.27654(6) 0.93958(13)
H57 H 0.9848 0.3023 0.9357
C53 C 0.8805(2) 0.26565(6) 0.84983(14)
H58 H 0.8195 0.2817 0.8346
H59 H 0.8592 0.2402 0.8518
H60 H 0.9101 0.2681 0.8057
C54 C 1.05925(19) 0.25174(7) 0.96481(18)
H61 H 1.1122 0.2596 1.0212
H62 H 1.0878 0.2534 0.9199
H63 H 1.0393 0.2264 0.9694
C55 C 0.93681(15) 0.42923(5) 0.93730(12)
C56 C 0.84615(15) 0.44867(5) 0.92758(12)
C57 C 0.82991(16) 0.48212(5) 0.88403(12)
H64 H 0.7679 0.4955 0.8741
C58 C 0.90252(16) 0.49623(6) 0.85489(13)
H65 H 0.8905 0.5192 0.8259
C59 C 0.99205(16) 0.47690(5) 0.86799(13)
H66 H 1.0416 0.4870 0.8484
C60 C 1.01225(15) 0.44283(5) 0.90923(12)
C61 C 0.77217(15) 0.43589(5) 0.96865(12)
H67 H 0.7757 0.4086 0.9714
C62 C 0.65818(15) 0.44641(6) 0.91555(14)
H68 H 0.6378 0.4387 0.8547
H69 H 0.6503 0.4730 0.9177
H70 H 0.6134 0.4343 0.9403
C63 C 0.80983(16) 0.44994(6) 1.06265(13)
H71 H 0.8833 0.4433 1.0947
H72 H 0.7676 0.4389 1.0913
H73 H 0.8027 0.4766 1.0622
C64 C 1.11250(15) 0.42276(6) 0.92222(13)
H74 H 1.1030 0.3964 0.9338
C65 C 1.13798(18) 0.42463(6) 0.84087(15)
H75 H 1.0755 0.4185 0.7889
H76 H 1.1938 0.4072 0.8470
H77 H 1.1609 0.4494 0.8347
C66 C 1.20623(16) 0.43763(6) 1.00109(14)
H78 H 1.1939 0.4341 1.0545
H79 H 1.2149 0.4638 0.9927
H80 H 1.2696 0.4245 1.0063
O1 O 0.33478(11) 0.97542(4) 0.31290(10)
C67 C 0.34856(18) 0.93840(6) 0.29085(15)
H81 H 0.3760 0.9379 0.2444
H82 H 0.2813 0.9250 0.2698
C68 C 0.42610(18) 0.92123(6) 0.37415(15)
H83 H 0.4656 0.9011 0.3614
H84 H 0.3911 0.9118 0.4113
C69 C 0.49653(18) 0.95369(7) 0.41672(16)
H85 H 0.5324 0.9504 0.4808
H86 H 0.5494 0.9575 0.3918
C70 C 0.41894(18) 0.98517(6) 0.39394(15)
H87 H 0.3927 0.9886 0.4406
H88 H 0.4524 1.0082 0.3872
O2 O 0.09143(13) 0.92141(4) 0.14280(11)
C71 C 0.1023(2) 0.95174(8) 0.0938(2)
H89 H 0.0819 0.9448 0.0317
H90 H 0.1756 0.9604 0.1175
C72 C 0.0302(5) 0.98156(17) 0.1019(4)
H91 H 0.0561 1.0064 0.0974
H92 H -0.0423 0.9787 0.0581
C73 C 0.0395(6) 0.97318(12) 0.1932(3)
H93 H -0.0163 0.9852 0.2061
H94 H 0.1086 0.9804 0.2378
C74 C 0.0265(2) 0.93181(7) 0.18730(17)
H95 H 0.0509 0.9205 0.2461
H96 H -0.0472 0.9248 0.1533
O3 O 0.17497(11) 0.33628(4) -0.00133(10)
C77 C 0.25602(18) 0.33363(7) 0.08443(14)
H105 H 0.2623 0.3082 0.1063
H106 H 0.2409 0.3498 0.1256
C78 C 0.35514(18) 0.34534(7) 0.07615(15)
H107 H 0.4146 0.3297 0.1124
H108 H 0.3719 0.3712 0.0943
C79 C 0.33140(17) 0.34059(7) -0.02131(16)
H109 H 0.3330 0.3644 -0.0491
H110 H 0.3821 0.3238 -0.0300
C80 C 0.22235(16) 0.32438(7) -0.05814(14)
H111 H 0.1824 0.3333 -0.1185
H112 H 0.2255 0.2973 -0.0591
O4 O 0.26823(11) 0.15294(4) 0.05254(10)
C81 C 0.18011(19) 0.14934(8) -0.02838(15)
H113 H 0.1911 0.1290 -0.0631
H114 H 0.1692 0.1722 -0.0628
C82 C 0.08715(18) 0.14167(7) -0.00734(16)
H115 H 0.0682 0.1154 -0.0156
H116 H 0.0262 0.1564 -0.0449
C83 C 0.12190(18) 0.15256(7) 0.08831(15)
H117 H 0.0731 0.1705 0.0960
H118 H 0.1264 0.1309 0.1254
C84 C 0.22803(17) 0.16928(7) 0.11042(15)
H119 H 0.2222 0.1961 0.1019
H120 H 0.2745 0.1641 0.1720
O5 O 0.2111(6) 0.2281(2) 0.2537(6)
C85 C 0.3183(7) 0.23589(19) 0.3066(8)
H121 H 0.3651 0.2239 0.2828
H122 H 0.3374 0.2276 0.3676
C86 C 0.3242(4) 0.27678(16) 0.3018(4)
H123 H 0.3376 0.2844 0.2503
H124 H 0.3797 0.2868 0.3554
C87 C 0.2176(5) 0.2890(2) 0.2938(5)
H125 H 0.2125 0.2890 0.3514
H126 H 0.2006 0.3137 0.2676
C88 C 0.1485(6) 0.2607(3) 0.2349(6)
H127 H 0.0854 0.2570 0.2472
H128 H 0.1266 0.2679 0.1728
H97? H 0.0524 0.9501 0.0319
H98? H 0.1742 0.9533 0.0962
C75? C 0.0769(7) 0.98517(18) 0.1406(8)
H99? H 0.1364 0.9914 0.1959
H100? H 0.0569 1.0070 0.1023
C76? C -0.0140(6) 0.97022(16) 0.1572(6)
H101? H -0.0789 0.9698 0.1033
H102? H -0.0260 0.9841 0.2033
H103? H 0.0672 0.9315 0.2514
H104? H -0.0326 0.9145 0.1731
O6? O 0.2373(6) 0.2185(2) 0.2783(5)
C89? C 0.3152(9) 0.2465(4) 0.2952(12)
H129? H 0.3371 0.2481 0.2456
H130? H 0.3774 0.2404 0.3486
C90? C 0.2716(11) 0.2823(3) 0.3071(7)
H131? H 0.3042 0.3029 0.2888
H132? H 0.2807 0.2859 0.3686
C91? C 0.1587(10) 0.2782(3) 0.2478(11)
H133? H 0.1447 0.2883 0.1891
H134? H 0.1136 0.2908 0.2722
C92? C 0.1399(6) 0.2374(3) 0.2430(5)
H135? H 0.0975 0.2309 0.2766
H136? H 0.1007 0.2300 0.1814
loop_
_geom_bond_atom_site_label_1
_geom_bond_atom_site_label_2
_geom_bond_site_symmetry_1
_geom_bond_site_symmetry_2
B1 C1 1_555 1_555
C1 C2 1_555 1_555
C2 H1 1_555 1_555
C3 C2 1_555 1_555
H2 C3 1_555 1_555
C4 C3 1_555 1_555
H3 C4 1_555 1_555
C5 C4 1_555 1_555
H4 C5 1_555 1_555
C6 C1 1_555 1_555
B2 C6 1_555 1_555
C7 B2 1_555 1_555
C8 C7 1_555 1_555
H5 C8 1_555 1_555
C9 C8 1_555 1_555
H6 C9 1_555 1_555
C10 C9 1_555 1_555
H7 C10 1_555 1_555
C11 C10 1_555 1_555
H8 C11 1_555 1_555
C12 B1 1_555 1_555
N1 C13 1_555 1_555
C13 B1 1_555 1_555
N2 C13 1_555 1_555
C14 N2 1_555 1_555
H9 C14 1_555 1_555
C15 N1 1_555 1_555
H10 C15 1_555 1_555
C16 N1 1_555 1_555
C17 C16 1_555 1_555
C18 C17 1_555 1_555
H11 C18 1_555 1_555
C19 C18 1_555 1_555
H12 C19 1_555 1_555
C20 C19 1_555 1_555
H13 C20 1_555 1_555
C21 C16 1_555 1_555
C22 C21 1_555 1_555
H14 C22 1_555 1_555
C23 C22 1_555 1_555
H15 C23 1_555 1_555
H16 C23 1_555 1_555
H17 C23 1_555 1_555
C24 C22 1_555 1_555
H18 C24 1_555 1_555
H19 C24 1_555 1_555
H20 C24 1_555 1_555
C25 C17 1_555 1_555
H21 C25 1_555 1_555
C26 C25 1_555 1_555
H22 C26 1_555 1_555
H23 C26 1_555 1_555
H24 C26 1_555 1_555
C27 C25 1_555 1_555
H25 C27 1_555 1_555
H26 C27 1_555 1_555
H27 C27 1_555 1_555
C28 N2 1_555 1_555
C29 C28 1_555 1_555
C30 C29 1_555 1_555
H28 C30 1_555 1_555
C31 C30 1_555 1_555
H29 C31 1_555 1_555
C32 C31 1_555 1_555
H30 C32 1_555 1_555
C33 C28 1_555 1_555
C34 C29 1_555 1_555
H31 C34 1_555 1_555
C35 C34 1_555 1_555
H32 C35 1_555 1_555
H33 C35 1_555 1_555
H34 C35 1_555 1_555
C36 C34 1_555 1_555
H35 C36 1_555 1_555
H36 C36 1_555 1_555
H37 C36 1_555 1_555
C37 C33 1_555 1_555
H38 C37 1_555 1_555
C38 C37 1_555 1_555
H39 C38 1_555 1_555
H40 C38 1_555 1_555
H41 C38 1_555 1_555
C39 C37 1_555 1_555
H42 C39 1_555 1_555
H43 C39 1_555 1_555
H44 C39 1_555 1_555
N3 C40 1_555 1_555
C40 B2 1_555 1_555
N4 C40 1_555 1_555
C41 N4 1_555 1_555
H45 C41 1_555 1_555
C42 N3 1_555 1_555
H46 C42 1_555 1_555
C43 N3 1_555 1_555
C44 C43 1_555 1_555
C45 C44 1_555 1_555
H47 C45 1_555 1_555
C46 C45 1_555 1_555
H48 C46 1_555 1_555
C47 C46 1_555 1_555
H49 C47 1_555 1_555
C48 C43 1_555 1_555
C49 C44 1_555 1_555
H50 C49 1_555 1_555
C50 C49 1_555 1_555
H51 C50 1_555 1_555
H52 C50 1_555 1_555
H53 C50 1_555 1_555
C51 C49 1_555 1_555
H54 C51 1_555 1_555
H55 C51 1_555 1_555
H56 C51 1_555 1_555
C52 C48 1_555 1_555
H57 C52 1_555 1_555
C53 C52 1_555 1_555
H58 C53 1_555 1_555
H59 C53 1_555 1_555
H60 C53 1_555 1_555
C54 C52 1_555 1_555
H61 C54 1_555 1_555
H62 C54 1_555 1_555
H63 C54 1_555 1_555
C55 N4 1_555 1_555
C56 C55 1_555 1_555
C57 C56 1_555 1_555
H64 C57 1_555 1_555
C58 C57 1_555 1_555
H65 C58 1_555 1_555
C59 C58 1_555 1_555
H66 C59 1_555 1_555
C60 C55 1_555 1_555
C61 C56 1_555 1_555
H67 C61 1_555 1_555
C62 C61 1_555 1_555
H68 C62 1_555 1_555
H69 C62 1_555 1_555
H70 C62 1_555 1_555
C63 C61 1_555 1_555
H71 C63 1_555 1_555
H72 C63 1_555 1_555
H73 C63 1_555 1_555
C64 C60 1_555 1_555
H74 C64 1_555 1_555
C65 C64 1_555 1_555
H75 C65 1_555 1_555
H76 C65 1_555 1_555
H77 C65 1_555 1_555
C66 C64 1_555 1_555
H78 C66 1_555 1_555
H79 C66 1_555 1_555
H80 C66 1_555 1_555
O1 C67 1_555 1_555
C67 H81 1_555 1_555
H82 C67 1_555 1_555
C68 C67 1_555 1_555
H83 C68 1_555 1_555
H84 C68 1_555 1_555
C69 C68 1_555 1_555
H85 C69 1_555 1_555
H86 C69 1_555 1_555
C70 O1 1_555 1_555
H87 C70 1_555 1_555
H88 C70 1_555 1_555
O2 C71 1_555 1_555
C71 H89 1_555 1_555
H90 C71 1_555 1_555
C72 C71 1_555 1_555
H91 C72 1_555 1_555
H92 C72 1_555 1_555
C73 C72 1_555 1_555
H93 C73 1_555 1_555
H94 C73 1_555 1_555
C74 O2 1_555 1_555
H95 C74 1_555 1_555
H96 C74 1_555 1_555
O3 C77 1_555 1_555
C77 H105 1_555 1_555
H106 C77 1_555 1_555
C78 C77 1_555 1_555
H107 C78 1_555 1_555
H108 C78 1_555 1_555
C79 C78 1_555 1_555
H109 C79 1_555 1_555
H110 C79 1_555 1_555
C80 O3 1_555 1_555
H111 C80 1_555 1_555
H112 C80 1_555 1_555
O4 C81 1_555 1_555
C81 H113 1_555 1_555
H114 C81 1_555 1_555
C82 C81 1_555 1_555
H115 C82 1_555 1_555
H116 C82 1_555 1_555
C83 C82 1_555 1_555
H117 C83 1_555 1_555
H118 C83 1_555 1_555
C84 O4 1_555 1_555
H119 C84 1_555 1_555
H120 C84 1_555 1_555
O5 C85 1_555 1_555
C85 H121 1_555 1_555
H122 C85 1_555 1_555
C86 C85 1_555 1_555
H123 C86 1_555 1_555
H124 C86 1_555 1_555
C87 C86 1_555 1_555
H125 C87 1_555 1_555
H126 C87 1_555 1_555
C88 O5 1_555 1_555
H127 C88 1_555 1_555
H128 C88 1_555 1_555
C5 C6 1_555 1_555
C7 C12 1_555 1_555
C11 C12 1_555 1_555
C14 C15 1_555 1_555
C20 C21 1_555 1_555
C32 C33 1_555 1_555
C41 C42 1_555 1_555
C47 C48 1_555 1_555
C59 C60 1_555 1_555
C69 C70 1_555 1_555
C73 C74 1_555 1_555
C79 C80 1_555 1_555
C83 C84 1_555 1_555
C87 C88 1_555 1_555

#END
