
#######################################################################
#
#                 Cambridge Crystallographic Data Centre
#                                CCDC 
#
#######################################################################
#
# If this CIF has been generated from an entry in the Cambridge 
# Structural Database, then it will include bibliographic, chemical, 
# crystal, experimental, refinement or atomic coordinate data resulting 
# from the CCDC's data processing and validation procedures.
#
#######################################################################

data_VEFJUM
_chemical_formula_moiety         'C13 H7 F3 N2 O5'
_chemical_name_systematic        
'Phenyl 6-trifluoromethyl-2,4-dinitrophenyl ether'
_symmetry_cell_setting           orthorhombic
_symmetry_space_group_name_H-M   'P 21 21 21'
_symmetry_Int_Tables_number      19
_space_group_name_Hall           'P 2ac 2ab'
loop_
_symmetry_equiv_pos_site_id
_symmetry_equiv_pos_as_xyz
1 x,y,z
2 1/2-x,-y,1/2+z
3 1/2+x,1/2-y,-z
4 -x,1/2+y,1/2-z
_cell_length_a                   5.6276(6)
_cell_length_b                   13.2382(11)
_cell_length_c                   35.711(2)
_cell_angle_alpha                90
_cell_angle_beta                 90
_cell_angle_gamma                90
_cell_volume                     2660.44
_exptl_crystal_colour            yellowish
_exptl_crystal_description       prism
_chemical_melting_point          '356 K'
_cell_formula_units_Z            8
_exptl_crystal_recrystallization_method ethanol
loop_
_atom_site_label
_atom_site_type_symbol
_atom_site_fract_x
_atom_site_fract_y
_atom_site_fract_z
O1 O 0.5453(3) 0.79380(10) 0.18741(4)
O2 O 0.2070(3) 0.90826(12) 0.14988(5)
O3 O 0.3897(4) 1.02583(12) 0.11898(5)
O4 O 0.9024(3) 0.57062(11) 0.16010(4)
O5 O 0.9678(3) 0.68963(13) 0.20085(4)
N1 N 0.3762(3) 0.94073(13) 0.13250(5)
N2 N 0.9035(3) 0.65947(13) 0.17031(5)
F1 F 1.2110(4) 0.8322(3) 0.04848(6)
F2 F 0.8873(6) 0.8756(2) 0.02108(6)
F3 F 0.9745(5) 0.72001(16) 0.02769(5)
C1 C 0.6475(4) 0.80316(15) 0.15316(5)
C2 C 0.5778(4) 0.87229(15) 0.12583(5)
C3 C 0.6855(4) 0.87686(16) 0.09106(5)
H1 H 0.6412 0.9277 0.0736
C4 C 0.8588(4) 0.80708(16) 0.08195(5)
C5 C 0.9251(4) 0.73310(15) 0.10765(5)
H2 H 1.0383 0.6829 0.1012
C6 C 0.8229(4) 0.73463(15) 0.14269(5)
C7 C 0.5490(4) 0.87868(15) 0.21124(5)
C8 C 0.3619(4) 0.88540(17) 0.23622(6)
H3 H 0.2363 0.8375 0.2359
C9 C 0.3632(5) 0.96439(18) 0.26173(6)
H4 H 0.2368 0.9707 0.2792
C10 C 0.5461(5) 1.03385(18) 0.26203(6)
H5 H 0.5454 1.0875 0.2797
C11 C 0.7308(5) 1.02532(17) 0.23665(6)
H6 H 0.8564 1.0733 0.2369
C12 C 0.7333(4) 0.94671(17) 0.21076(6)
H7 H 0.8593 0.9404 0.1932
C13 C 0.9824(4) 0.8098(2) 0.04465(6)
O6 O 0.8024(3) 0.45255(11) 0.08394(4)
O7 O 1.0714(3) 0.27982(13) 0.09191(4)
O8 O 0.8365(4) 0.14960(12) 0.09155(5)
O9 O 0.3839(3) 0.61142(11) 0.14441(4)
O10 O 0.4229(4) 0.57980(12) 0.08517(4)
N3 N 0.8818(4) 0.23796(14) 0.09848(5)
N4 N 0.4282(3) 0.55494(13) 0.11816(5)
F7 F 0.0788(5) 0.31190(15) 0.20721(7)
F8 F 0.3482(4) 0.2040(2) 0.21587(6)
F9 F 0.0893(4) 0.18076(17) 0.17341(5)
C14 C 0.6627(4) 0.39962(15) 0.10791(5)
C15 C 0.6939(4) 0.29751(16) 0.11683(5)
C16 C 0.5542(4) 0.24876(16) 0.14281(5)
H8 H 0.5763 0.1788 0.1476
C17 C 0.3806(4) 0.30259(16) 0.16200(5)
C18 C 0.3454(4) 0.40417(15) 0.15470(5)
H9 H 0.2298 0.4419 0.1682
C19 C 0.4830(4) 0.44928(15) 0.12731(5)
C20 C 0.8106(4) 0.42274(15) 0.04608(5)
C21 C 1.0084(4) 0.45387(16) 0.02637(6)
H10 H 1.1311 0.4913 0.0383
C22 C 1.0231(4) 0.42906(16) -0.01140(6)
H11 H 1.1582 0.4491 -0.0255
C23 C 0.8423(4) 0.37523(16) -0.02855(6)
H12 H 0.8530 0.3596 -0.0545
C24 C 0.6474(4) 0.34424(16) -0.00823(6)
H13 H 0.5252 0.3064 -0.0201
C25 C 0.6285(4) 0.36843(16) 0.02977(6)
H14 H 0.4942 0.3479 0.0440
C26 C 0.2249(5) 0.24893(17) 0.18971(6)
F4? F 0.855(4) 0.8444(13) 0.0199(7)
F5? F 1.080(3) 0.7314(12) 0.0355(5)
F6? F 1.151(3) 0.8758(12) 0.0483(6)
F10? F 0.216(3) 0.1474(9) 0.1853(4)
F11? F 0.005(2) 0.2745(13) 0.1885(5)
F12? F 0.276(3) 0.2534(12) 0.2242(4)
loop_
_geom_bond_atom_site_label_1
_geom_bond_atom_site_label_2
_geom_bond_site_symmetry_1
_geom_bond_site_symmetry_2
O1 C1 1_555 1_555
O2 N1 1_555 1_555
O3 N1 1_555 1_555
O4 N2 1_555 1_555
O5 N2 1_555 1_555
N1 C2 1_555 1_555
N2 C6 1_555 1_555
F1 C13 1_555 1_555
F2 C13 1_555 1_555
F3 C13 1_555 1_555
C1 C2 1_555 1_555
C2 C3 1_555 1_555
C3 H1 1_555 1_555
C4 C3 1_555 1_555
C5 C4 1_555 1_555
H2 C5 1_555 1_555
C6 C1 1_555 1_555
C7 O1 1_555 1_555
C8 C7 1_555 1_555
H3 C8 1_555 1_555
C9 C8 1_555 1_555
H4 C9 1_555 1_555
C10 C9 1_555 1_555
H5 C10 1_555 1_555
C11 C10 1_555 1_555
H6 C11 1_555 1_555
C12 C7 1_555 1_555
H7 C12 1_555 1_555
C13 C4 1_555 1_555
O6 C14 1_555 1_555
O7 N3 1_555 1_555
O8 N3 1_555 1_555
O9 N4 1_555 1_555
O10 N4 1_555 1_555
N3 C15 1_555 1_555
N4 C19 1_555 1_555
F7 C26 1_555 1_555
F8 C26 1_555 1_555
F9 C26 1_555 1_555
C14 C15 1_555 1_555
C15 C16 1_555 1_555
C16 H8 1_555 1_555
C17 C16 1_555 1_555
C18 C17 1_555 1_555
H9 C18 1_555 1_555
C19 C14 1_555 1_555
C20 O6 1_555 1_555
C21 C20 1_555 1_555
H10 C21 1_555 1_555
C22 C21 1_555 1_555
H11 C22 1_555 1_555
C23 C22 1_555 1_555
H12 C23 1_555 1_555
C24 C23 1_555 1_555
H13 C24 1_555 1_555
C25 C20 1_555 1_555
H14 C25 1_555 1_555
C26 C17 1_555 1_555
C5 C6 1_555 1_555
C11 C12 1_555 1_555
C18 C19 1_555 1_555
C24 C25 1_555 1_555

#END
