
#######################################################################
#
#                 Cambridge Crystallographic Data Centre
#                                CCDC 
#
#######################################################################
#
# If this CIF has been generated from an entry in the Cambridge 
# Structural Database, then it will include bibliographic, chemical, 
# crystal, experimental, refinement or atomic coordinate data resulting 
# from the CCDC's data processing and validation procedures.
#
#######################################################################

data_VEFKAV
_chemical_formula_moiety         'C19 H25 N3 O4'
_chemical_name_systematic        
't-butyl 4-[5-cyano-2-(ethoxycarbonyl)phenyl]piperazine-1-carboxylate'
_symmetry_cell_setting           triclinic
_symmetry_space_group_name_H-M   'P -1'
_symmetry_Int_Tables_number      2
_space_group_name_Hall           '-P 1'
loop_
_symmetry_equiv_pos_site_id
_symmetry_equiv_pos_as_xyz
1 x,y,z
2 -x,-y,-z
_cell_length_a                   11.3187(3)
_cell_length_b                   12.1229(3)
_cell_length_c                   14.6266(4)
_cell_angle_alpha                85.2769(14)
_cell_angle_beta                 75.3317(14)
_cell_angle_gamma                75.7870(14)
_cell_volume                     1881.72
_exptl_crystal_colour            colorless
_exptl_crystal_description       plate
_cell_formula_units_Z            4
loop_
_atom_site_label
_atom_site_type_symbol
_atom_site_fract_x
_atom_site_fract_y
_atom_site_fract_z
O1 O 0.93592(9) 0.40963(8) 0.42047(7)
O2 O 0.76383(9) 0.36284(8) 0.40064(7)
O3 O 0.67740(8) 0.62577(8) 0.01890(6)
O4 O 0.46559(8) 0.68090(7) 0.07444(6)
N1 N 0.41324(13) 0.84392(11) 0.71928(9)
N2 N 0.61167(10) 0.58496(9) 0.36414(7)
N3 N 0.58635(10) 0.60996(9) 0.17511(7)
C1 C 0.73395(12) 0.52921(11) 0.48381(9)
C2 C 0.63004(12) 0.59905(10) 0.45382(9)
C3 C 0.54816(12) 0.68190(11) 0.51543(9)
H1 H 0.4771 0.7295 0.4976
C4 C 0.57009(13) 0.69514(11) 0.60300(9)
C5 C 0.67506(13) 0.62963(11) 0.63070(9)
H2 H 0.6902 0.6408 0.6899
C6 C 0.75651(13) 0.54800(11) 0.56982(9)
H3 H 0.8297 0.5036 0.587
C7 C 0.82356(12) 0.42956(11) 0.43051(9)
C8 C 0.84189(14) 0.25889(12) 0.35333(11)
H4 H 0.9218 0.274 0.3143
H5 H 0.798 0.2342 0.311
C9 C 0.86892(16) 0.16607(13) 0.42516(13)
H6 H 0.9141 0.0948 0.3927
H7 H 0.7897 0.1558 0.4672
H8 H 0.9206 0.1871 0.4624
C10 C 0.48217(14) 0.77947(12) 0.66675(10)
C11 C 0.71779(12) 0.59578(11) 0.28460(9)
H9 H 0.7973 0.5534 0.2999
H10 H 0.7207 0.6769 0.2742
C12 C 0.70518(12) 0.54971(12) 0.19568(9)
H11 H 0.7756 0.5601 0.1422
H12 H 0.7081 0.4673 0.2042
C13 C 0.47704(12) 0.60620(11) 0.25304(9)
H13 H 0.4665 0.5271 0.2634
H14 H 0.4006 0.6542 0.2366
C14 C 0.49322(12) 0.64886(11) 0.34329(9)
H15 H 0.4929 0.7308 0.3356
H16 H 0.4222 0.6396 0.3966
C15 C 0.58358(12) 0.63775(10) 0.08371(9)
C16 C 0.44425(12) 0.72062(10) -0.01977(9)
C17 C 0.30244(12) 0.76249(12) 0.00184(10)
H17 H 0.2632 0.6998 0.0293
H18 H 0.2767 0.7902 -0.0567
H19 H 0.2758 0.8245 0.0469
C18 C 0.48677(15) 0.62293(12) -0.08772(10)
H20 H 0.5782 0.5955 -0.1001
H21 H 0.463 0.6491 -0.1472
H22 H 0.4466 0.561 -0.0598
C19 C 0.50608(13) 0.81836(11) -0.05643(9)
H23 H 0.4818 0.8759 -0.0076
H24 H 0.4789 0.8524 -0.113
H25 H 0.5975 0.79 -0.0724
O5 O 1.14971(9) 0.61220(8) 0.25483(7)
O6 O 1.00447(8) 0.60769(8) 0.17576(6)
O7 O 0.97191(9) 0.89194(8) -0.17836(6)
O8 O 0.76251(8) 0.97328(7) -0.13122(6)
N4 N 0.60644(12) 1.03434(11) 0.54332(8)
N5 N 0.86262(9) 0.83991(9) 0.16930(7)
N6 N 0.86691(10) 0.89038(9) -0.02352(7)
C20 C 0.94845(11) 0.73896(10) 0.29966(9)
C21 C 0.86285(11) 0.82825(10) 0.26538(8)
C22 C 0.77437(12) 0.90266(11) 0.33116(9)
H26 H 0.7171 0.9643 0.3098
C23 C 0.76881(12) 0.88786(11) 0.42743(9)
C24 C 0.85306(13) 0.80006(11) 0.46096(9)
H27 H 0.849 0.79 0.5267
C25 C 0.94261(12) 0.72792(11) 0.39622(9)
H28 H 1.0021 0.6689 0.4181
C26 C 1.04606(12) 0.64798(11) 0.24108(9)
C27 C 1.09338(13) 0.51574(11) 0.11810(10)
H29 H 1.1801 0.5236 0.1116
H30 H 1.0777 0.521 0.0541
C28 C 1.07992(15) 0.40184(12) 0.16275(11)
H31 H 1.0962 0.3965 0.2259
H32 H 1.1404 0.3413 0.1235
H33 H 0.9945 0.3935 0.168
C29 C 0.67658(13) 0.96834(11) 0.49218(9)
C30 C 0.97894(12) 0.85093(11) 0.10116(9)
H34 H 1.0518 0.8005 0.1209
H35 H 0.9879 0.9303 0.0996
C31 C 0.97712(12) 0.81907(12) 0.00352(9)
H36 H 1.0542 0.8299 -0.0428
H37 H 0.9747 0.738 0.0038
C32 C 0.74873(11) 0.88944(11) 0.04570(9)
H38 H 0.7308 0.8132 0.0482
H39 H 0.6795 0.9455 0.026
C33 C 0.75522(12) 0.91829(11) 0.14292(9)
H40 H 0.7642 0.9975 0.1424
H41 H 0.6768 0.912 0.1897
C34 C 0.87500(12) 0.91540(10) -0.11721(9)
C35 C 0.74593(12) 0.99946(11) -0.22818(9)
C36 C 0.82536(14) 1.08108(12) -0.27861(10)
H42 H 0.9145 1.0441 -0.2864
H43 H 0.8047 1.1496 -0.2411
H44 H 0.808 1.1022 -0.3409
C37 C 0.60736(12) 1.05767(11) -0.21117(9)
H45 H 0.5908 1.1282 -0.177
H46 H 0.5572 1.0069 -0.1735
H47 H 0.5846 1.0754 -0.272
C38 C 0.77360(14) 0.88936(12) -0.28016(10)
H48 H 0.7267 0.8371 -0.2412
H49 H 0.8638 0.8543 -0.2928
H50 H 0.7483 0.9054 -0.3401
loop_
_geom_bond_atom_site_label_1
_geom_bond_atom_site_label_2
_geom_bond_site_symmetry_1
_geom_bond_site_symmetry_2
O1 C7 1_555 1_555
O2 C7 1_555 1_555
O3 C15 1_555 1_555
O4 C15 1_555 1_555
N1 C10 1_555 1_555
N2 C2 1_555 1_555
N3 C12 1_555 1_555
C1 C2 1_555 1_555
C2 C3 1_555 1_555
C3 H1 1_555 1_555
C4 C3 1_555 1_555
C5 C4 1_555 1_555
H2 C5 1_555 1_555
C6 C1 1_555 1_555
H3 C6 1_555 1_555
C7 C1 1_555 1_555
C8 O2 1_555 1_555
H4 C8 1_555 1_555
H5 C8 1_555 1_555
C9 C8 1_555 1_555
H6 C9 1_555 1_555
H7 C9 1_555 1_555
H8 C9 1_555 1_555
C10 C4 1_555 1_555
C11 N2 1_555 1_555
H9 C11 1_555 1_555
H10 C11 1_555 1_555
C12 C11 1_555 1_555
H11 C12 1_555 1_555
H12 C12 1_555 1_555
C13 N3 1_555 1_555
H13 C13 1_555 1_555
H14 C13 1_555 1_555
C14 N2 1_555 1_555
H15 C14 1_555 1_555
H16 C14 1_555 1_555
C15 N3 1_555 1_555
C16 O4 1_555 1_555
C17 C16 1_555 1_555
H17 C17 1_555 1_555
H18 C17 1_555 1_555
H19 C17 1_555 1_555
C18 C16 1_555 1_555
H20 C18 1_555 1_555
H21 C18 1_555 1_555
H22 C18 1_555 1_555
C19 C16 1_555 1_555
H23 C19 1_555 1_555
H24 C19 1_555 1_555
H25 C19 1_555 1_555
O5 C26 1_555 1_555
O6 C26 1_555 1_555
O7 C34 1_555 1_555
O8 C34 1_555 1_555
N4 C29 1_555 1_555
N5 C21 1_555 1_555
N6 C31 1_555 1_555
C20 C21 1_555 1_555
C21 C22 1_555 1_555
C22 H26 1_555 1_555
C23 C22 1_555 1_555
C24 C23 1_555 1_555
H27 C24 1_555 1_555
C25 C20 1_555 1_555
H28 C25 1_555 1_555
C26 C20 1_555 1_555
C27 O6 1_555 1_555
H29 C27 1_555 1_555
H30 C27 1_555 1_555
C28 C27 1_555 1_555
H31 C28 1_555 1_555
H32 C28 1_555 1_555
H33 C28 1_555 1_555
C29 C23 1_555 1_555
C30 N5 1_555 1_555
H34 C30 1_555 1_555
H35 C30 1_555 1_555
C31 C30 1_555 1_555
H36 C31 1_555 1_555
H37 C31 1_555 1_555
C32 N6 1_555 1_555
H38 C32 1_555 1_555
H39 C32 1_555 1_555
C33 N5 1_555 1_555
H40 C33 1_555 1_555
H41 C33 1_555 1_555
C34 N6 1_555 1_555
C35 O8 1_555 1_555
C36 C35 1_555 1_555
H42 C36 1_555 1_555
H43 C36 1_555 1_555
H44 C36 1_555 1_555
C37 C35 1_555 1_555
H45 C37 1_555 1_555
H46 C37 1_555 1_555
H47 C37 1_555 1_555
C38 C35 1_555 1_555
H48 C38 1_555 1_555
H49 C38 1_555 1_555
H50 C38 1_555 1_555
C5 C6 1_555 1_555
C13 C14 1_555 1_555
C24 C25 1_555 1_555
C32 C33 1_555 1_555

#END
