
#######################################################################
#
#                 Cambridge Crystallographic Data Centre
#                                CCDC 
#
#######################################################################
#
# If this CIF has been generated from an entry in the Cambridge 
# Structural Database, then it will include bibliographic, chemical, 
# crystal, experimental, refinement or atomic coordinate data resulting 
# from the CCDC's data processing and validation procedures.
#
#######################################################################

data_VEFKAT
_chemical_formula_moiety         'C13 H7 F3 N2 O5'
_chemical_name_systematic        
'Phenyl 6-trifluoromethyl-2,4-dinitrophenyl ether'
_symmetry_cell_setting           monoclinic
_symmetry_space_group_name_H-M   'P c'
_symmetry_Int_Tables_number      7
_space_group_name_Hall           'P -2yc'
loop_
_symmetry_equiv_pos_site_id
_symmetry_equiv_pos_as_xyz
1 x,y,z
2 x,-y,1/2+z
_cell_length_a                   15.779(3)
_cell_length_b                   5.5901(9)
_cell_length_c                   15.736(3)
_cell_angle_alpha                90.00
_cell_angle_beta                 108.80(1)
_cell_angle_gamma                90.00
_cell_volume                     1313.96
_exptl_crystal_colour            colorless
_exptl_crystal_description       prism
_chemical_melting_point          '354 K'
_cell_formula_units_Z            4
_exptl_crystal_recrystallization_method ethanol
loop_
_atom_site_label
_atom_site_type_symbol
_atom_site_fract_x
_atom_site_fract_y
_atom_site_fract_z
F1 F 0.96624(19) 0.6534(7) 0.47273(18)
F2 F 0.83980(18) 0.5069(6) 0.47080(16)
F3 F 0.9406(2) 0.2799(6) 0.44686(18)
O1 O 0.76716(15) 0.2207(4) 0.31676(17)
O2 O 0.6865(2) 0.1002(5) 0.1436(2)
O3 O 0.6457(2) 0.4046(5) 0.0562(2)
O4 O 0.8707(3) 1.0172(7) 0.0871(3)
O5 O 0.9498(2) 1.1233(5) 0.2207(3)
N1 N 0.69368(18) 0.3092(5) 0.1239(2)
N2 N 0.8978(2) 0.9894(6) 0.1682(3)
C1 C 0.7964(2) 0.4067(6) 0.2769(2)
C2 C 0.76461(19) 0.4560(5) 0.1859(2)
C3 C 0.7971(2) 0.6445(6) 0.1485(2)
H1 H 0.7741 0.6781 0.0861
C4 C 0.8645(2) 0.7827(6) 0.2061(2)
C5 C 0.8993(2) 0.7391(6) 0.2964(3)
H2 H 0.9458 0.8364 0.3339
C6 C 0.8651(2) 0.5498(7) 0.3317(2)
C7 C 0.68558(19) 0.2492(6) 0.3344(2)
C8 C 0.6656(2) 0.0659(6) 0.3840(2)
H3 H 0.7047 -0.0670 0.4030
C9 C 0.5869(2) 0.0814(6) 0.4054(2)
H4 H 0.5720 -0.0421 0.4396
C10 C 0.5298(2) 0.2754(6) 0.3773(2)
H5 H 0.4760 0.2843 0.3920
C11 C 0.5516(2) 0.4553(6) 0.3280(2)
H6 H 0.5125 0.5881 0.3089
C12 C 0.6300(2) 0.4447(6) 0.3058(2)
H7 H 0.6450 0.5686 0.2718
C13 C 0.9026(3) 0.4954(9) 0.4315(3)
F4 F 0.31018(19) 0.0492(5) 0.95477(16)
F5 F 0.38846(15) 0.1650(5) 0.87385(17)
F6 F 0.28091(18) 0.3817(4) 0.88425(18)
O6 O 0.28059(15) 0.3009(4) 0.69847(17)
O7 O 0.1699(2) 0.2631(6) 0.52776(19)
O8 O 0.1409(4) -0.1041(8) 0.4864(2)
O11 O 0.04944(17) -0.6172(4) 0.6869(2)
O12 O 0.08413(18) -0.5251(5) 0.82714(19)
N3 N 0.1613(2) 0.0528(6) 0.5437(2)
N4 N 0.08614(17) -0.4895(5) 0.7520(2)
C15 C 0.2339(2) 0.1042(6) 0.7092(2)
C16 C 0.1762(2) -0.0227(6) 0.6367(2)
C17 C 0.1289(2) -0.2210(6) 0.6503(2)
H8 H 0.0921 -0.3114 0.6011
C18 C 0.13709(19) -0.2822(6) 0.7372(2)
C19 C 0.19146(19) -0.1587(6) 0.8108(2)
H9 H 0.1946 -0.2032 0.8700
C20 C 0.2412(2) 0.0310(6) 0.7960(2)
C21 C 0.35026(19) 0.2666(5) 0.6617(2)
C22 C 0.3660(2) 0.4486(6) 0.6099(2)
H10 H 0.3279 0.5844 0.5957
C23 C 0.4389(2) 0.4306(6) 0.5786(2)
H11 H 0.4504 0.5544 0.5424
C24 C 0.4950(2) 0.2316(6) 0.6002(2)
H12 H 0.5452 0.2204 0.5795
C25 C 0.4771(2) 0.0492(6) 0.6523(2)
H13 H 0.5151 -0.0868 0.6669
C26 C 0.4041(2) 0.0650(6) 0.6829(2)
H14 H 0.3912 -0.0601 0.7177
C27 C 0.3048(2) 0.1574(6) 0.8747(2)
F7? F 0.2118(14) 0.000(4) 0.5062(15)
F8? F 0.0718(15) -0.053(4) 0.4824(14)
F9? F 0.1245(15) 0.290(4) 0.5251(14)
O9? O 0.3541(11) 0.035(3) 0.9235(11)
O10? O 0.3112(18) 0.394(5) 0.8552(18)
C14? C 0.1613(2) 0.0528(6) 0.5437(2)
N5? N 0.3048(2) 0.1574(6) 0.8747(2)
loop_
_geom_bond_atom_site_label_1
_geom_bond_atom_site_label_2
_geom_bond_site_symmetry_1
_geom_bond_site_symmetry_2
F1 C13 1_555 1_555
F2 C13 1_555 1_555
F3 C13 1_555 1_555
O1 C1 1_555 1_555
O2 N1 1_555 1_555
O3 N1 1_555 1_555
O4 N2 1_555 1_555
O5 N2 1_555 1_555
N1 C2 1_555 1_555
N2 C4 1_555 1_555
C1 C2 1_555 1_555
C2 C3 1_555 1_555
C3 H1 1_555 1_555
C4 C3 1_555 1_555
C5 C4 1_555 1_555
H2 C5 1_555 1_555
C6 C1 1_555 1_555
C7 O1 1_555 1_555
C8 C7 1_555 1_555
H3 C8 1_555 1_555
C9 C8 1_555 1_555
H4 C9 1_555 1_555
C10 C9 1_555 1_555
H5 C10 1_555 1_555
C11 C10 1_555 1_555
H6 C11 1_555 1_555
C12 C7 1_555 1_555
H7 C12 1_555 1_555
C13 C6 1_555 1_555
F4 C27 1_555 1_555
F5 C27 1_555 1_555
F6 C27 1_555 1_555
O6 C15 1_555 1_555
O7 N3 1_555 1_555
O8 N3 1_555 1_555
O11 N4 1_555 1_555
O12 N4 1_555 1_555
N3 C16 1_555 1_555
N4 C18 1_555 1_555
C15 C16 1_555 1_555
C16 C17 1_555 1_555
C17 H8 1_555 1_555
C18 C17 1_555 1_555
C19 C18 1_555 1_555
H9 C19 1_555 1_555
C20 C15 1_555 1_555
C21 O6 1_555 1_555
C22 C21 1_555 1_555
H10 C22 1_555 1_555
C23 C22 1_555 1_555
H11 C23 1_555 1_555
C24 C23 1_555 1_555
H12 C24 1_555 1_555
C25 C24 1_555 1_555
H13 C25 1_555 1_555
C26 C21 1_555 1_555
H14 C26 1_555 1_555
C27 C20 1_555 1_555
C5 C6 1_555 1_555
C11 C12 1_555 1_555
C19 C20 1_555 1_555
C25 C26 1_555 1_555

#END
