
#######################################################################
#
#                 Cambridge Crystallographic Data Centre
#                                CCDC 
#
#######################################################################
#
# If this CIF has been generated from an entry in the Cambridge 
# Structural Database, then it will include bibliographic, chemical, 
# crystal, experimental, refinement or atomic coordinate data resulting 
# from the CCDC's data processing and validation procedures.
#
#######################################################################

data_VEFQUV
_chemical_formula_moiety         'C21 H19 Br1 N2 O2'
_chemical_name_systematic        
5-bromo-N-(4-t-butylphenyl)-2-cyano-1-oxo-2,3-dihydro-1H-indene-2-carboxamide
_symmetry_cell_setting           monoclinic
_symmetry_space_group_name_H-M   'C 2'
_symmetry_Int_Tables_number      5
_space_group_name_Hall           'C 2y'
loop_
_symmetry_equiv_pos_site_id
_symmetry_equiv_pos_as_xyz
1 x,y,z
2 -x,y,-z
3 1/2+x,1/2+y,z
4 1/2-x,1/2+y,-z
_cell_length_a                   20.508(7)
_cell_length_b                   7.052(2)
_cell_length_c                   15.829(6)
_cell_angle_alpha                90
_cell_angle_beta                 120.795(15)
_cell_angle_gamma                90
_cell_volume                     1966.46
_exptl_crystal_colour            colorless
_exptl_crystal_description       cubic
_chemical_melting_point          '171-173 deg.C'
_cell_formula_units_Z            4
loop_
_atom_site_label
_atom_site_type_symbol
_atom_site_fract_x
_atom_site_fract_y
_atom_site_fract_z
Br1 Br 0.31322(3) -0.07406(19) 0.82498(5)
O1 O 0.5623(3) 0.6764(8) 0.9082(4)
O2 O 0.6051(4) 0.2711(8) 0.7491(4)
N1 N 0.6288(3) 0.5808(9) 0.7851(4)
H1 H 0.6393 0.6606 0.8315
C1 C 0.5095(3) 0.1937(9) 0.8829(4)
C2 C 0.5890(4) 0.1675(10) 0.9043(5)
H2 H 0.6162 0.0550 0.9172
C3 C 0.6155(3) 0.3725(7) 0.9000(4)
C4 C 0.5545(4) 0.5093(10) 0.8971(4)
C5 C 0.4909(3) 0.3875(10) 0.8769(4)
C6 C 0.6270(3) 0.6543(9) 0.6996(4)
C7 C 0.3653(3) 0.3021(9) 0.8362(4)
H3 H 0.3161 0.3356 0.8184
C8 C 0.4576(3) 0.0565(8) 0.8685(4)
H4 H 0.4703 -0.0714 0.8746
C9 C 0.3865(3) 0.1129(10) 0.8449(4)
C10 C 0.6910(3) 0.4177(15) 0.9833(4)
C11 C 0.6214(3) 0.8189(9) 0.5360(4)
C12 C 0.4176(3) 0.4361(15) 0.8539(4)
H5 H 0.4047 0.5633 0.8507
C13 C 0.6159(3) 0.4005(13) 0.8012(4)
C14 C 0.6431(3) 0.8406(9) 0.7001(4)
H6 H 0.6558 0.9143 0.7551
N2 N 0.7491(3) 0.4544(14) 1.0475(4)
C15 C 0.6060(4) 0.6273(10) 0.5378(4)
H7 H 0.5942 0.5529 0.4832
C16 C 0.6189(3) 0.9152(17) 0.4458(4)
C17 C 0.6408(3) 0.9214(14) 0.6194(4)
H8 H 0.6527 1.0492 0.6215
C18 C 0.6076(4) 0.5448(8) 0.6167(5)
H9 H 0.5958 0.4170 0.6152
C19 C 0.6969(4) 0.9689(16) 0.4724(5)
H10 H 0.7282 0.8575 0.4909
H11 H 0.7175 1.0562 0.5266
H12 H 0.6958 1.0279 0.4170
C20 C 0.5911(6) 0.7724(13) 0.3614(6)
H13 H 0.6245 0.6649 0.3826
H14 H 0.5906 0.8312 0.3063
H15 H 0.5407 0.7315 0.3422
C21 C 0.5700(6) 1.0802(15) 0.4169(7)
H16 H 0.5198 1.0420 0.4001
H17 H 0.5681 1.1392 0.3611
H18 H 0.5897 1.1687 0.4706
loop_
_geom_bond_atom_site_label_1
_geom_bond_atom_site_label_2
_geom_bond_site_symmetry_1
_geom_bond_site_symmetry_2
Br1 C9 1_555 1_555
O1 C4 1_555 1_555
O2 C13 1_555 1_555
N1 H1 1_555 1_555
C1 C2 1_555 1_555
C2 H2 1_555 1_555
C3 C2 1_555 1_555
C4 C3 1_555 1_555
C5 C1 1_555 1_555
C6 N1 1_555 1_555
C7 H3 1_555 1_555
C8 C1 1_555 1_555
H4 C8 1_555 1_555
C9 C7 1_555 1_555
C10 C3 1_555 1_555
C11 C15 1_555 1_555
C12 C5 1_555 1_555
H5 C12 1_555 1_555
C13 N1 1_555 1_555
C14 C6 1_555 1_555
H6 C14 1_555 1_555
N2 C10 1_555 1_555
C15 H7 1_555 1_555
C16 C11 1_555 1_555
C17 C11 1_555 1_555
H8 C17 1_555 1_555
C18 C6 1_555 1_555
H9 C18 1_555 1_555
C19 C16 1_555 1_555
H10 C19 1_555 1_555
H11 C19 1_555 1_555
H12 C19 1_555 1_555
C20 C16 1_555 1_555
H13 C20 1_555 1_555
H14 C20 1_555 1_555
H15 C20 1_555 1_555
C21 C16 1_555 1_555
H16 C21 1_555 1_555
H17 C21 1_555 1_555
H18 C21 1_555 1_555
C3 C13 1_555 1_555
C4 C5 1_555 1_555
C7 C12 1_555 1_555
C8 C9 1_555 1_555
C14 C17 1_555 1_555
C15 C18 1_555 1_555

#END
