
#######################################################################
#
#                 Cambridge Crystallographic Data Centre
#                                CCDC 
#
#######################################################################
#
# If this CIF has been generated from an entry in the Cambridge 
# Structural Database, then it will include bibliographic, chemical, 
# crystal, experimental, refinement or atomic coordinate data resulting 
# from the CCDC's data processing and validation procedures.
#
#######################################################################

data_VEFRAZ
_chemical_formula_moiety         'C56 H68 N4 O18'
_chemical_name_systematic        
'Tetramethyl (2R,3R,11R,12R)-alphabenzyl-1,4,7,10,13,16-hexaoxacyclo-octadecane-2,3,11,12-tetra((2S)-carboxamidoacetate)'
_symmetry_cell_setting           monoclinic
_symmetry_space_group_name_H-M   'P 21'
_symmetry_Int_Tables_number      4
_space_group_name_Hall           'P 2yb'
loop_
_symmetry_equiv_pos_site_id
_symmetry_equiv_pos_as_xyz
1 x,y,z
2 -x,1/2+y,-z
_cell_length_a                   9.750(3)
_cell_length_b                   21.389(6)
_cell_length_c                   13.999(5)
_cell_angle_alpha                90
_cell_angle_beta                 93.22(3)
_cell_angle_gamma                90
_cell_volume                     2914.78
_cell_formula_units_Z            2
loop_
_atom_site_label
_atom_site_type_symbol
_atom_site_fract_x
_atom_site_fract_y
_atom_site_fract_z
C1 C 0.0939(5) 0.0118 -0.1107(3)
C2 C 0.1654(5) -0.0439(3) -0.0939(4)
C3 C 0.1494(6) -0.0761(3) -0.0114(4)
C4 C 0.0627(6) -0.0538(3) 0.0556(4)
C5 C -0.0058(5) 0.0022(3) 0.0383(4)
C6 C 0.0066(4) 0.0361(2) -0.0442(3)
C7 C -0.0683(5) 0.0954(2) -0.0611(3)
C8 C 0.0110(4) 0.1535(2) -0.0230(3)
C9 C -0.0648(6) 0.2125(3) -0.0526(4)
O1 O -0.1058(6) 0.2513(2) -0.0008(3)
O2 O -0.0889(6) 0.2174(3) -0.1442(3)
C10 C -0.1576(9) 0.2716(4) -0.1824(5)
N1 N 0.0366(3) 0.1521(2) 0.0795(2)
C11 C 0.1568(4) 0.1697(2) 0.1215(3)
O3 O 0.2567(3) 0.1835(2) 0.0765(2)
C12 C 0.1660(4) 0.1732(2) 0.2291(2)
O4 O 0.0548(3) 0.1436(1) 0.2731(2)
C13 C 0.0755(5) 0.0799(2) 0.2942(3)
C14 C 0.1835(5) 0.0672(3) 0.3733(4)
O5 O 0.3169(3) 0.0700(2) 0.3343(2)
C15 C 0.4247(5) 0.0840(2) 0.4015(3)
C16 C 0.5509(5) 0.0977(2) 0.3489(3)
O6 O 0.5363(3) 0.1571(1) 0.3022(2)
C17 C 0.6538(4) 0.1733(2) 0.2518(3)
C18 C 0.6540(4) 0.1408(2) 0.1552(3)
O7 O 0.7625(3) 0.1200(2) 0.1267(2)
N2 N 0.5340(3) 0.1346(2) 0.1070(2)
C19 C 0.5166(4) 0.1038(2) 0.0151(3)
C20 C 0.4591(6) 0.1469(3) -0.0623(4)
O8 O 0.3779(5) 0.1292(2) -0.1255(3)
O9 O 0.5046(4) 0.2046(2) -0.0543(2)
C21 C 0.4495(9) 0.2486(3) -0.1247(4)
C22 C 0.4314(5) 0.0446(3) 0.0197(4)
C23 C 0.4872(5) -0.0035(2) 0.0898(4)
C24 C 0.6155(5) -0.0295(2) 0.0820(4)
C25 C 0.6640(7) -0.0752(3) 0.1455(5)
C26 C 0.5852(7) -0.0953(3) 0.2168(4)
C27 C 0.4583(9) -0.0704(4) 0.2247(4)
C28 C 0.4116(7) -0.0251(3) 0.1629(4)
C29 C 0.6181(7) 0.4504(3) 0.4195(5)
C30 C 0.6426(11) 0.4957(4) 0.3556(8)
C31 C 0.5493(9) 0.5126(3) 0.2883(5)
C32 C 0.4221(14) 0.4839(5) 0.2820(7)
C33 C 0.3961(8) 0.4354(4) 0.3478(5)
C34 C 0.4945(5) 0.4183(2) 0.4148(4)
C35 C 0.4704(5) 0.3669(2) 0.4848(3)
C36 C 0.5705(4) 0.3132(2) 0.4799(3)
C37 C 0.5551(6) 0.2680(3) 0.5596(4)
O10 O 0.5134(9) 0.2810(3) 0.6347(3)
O11 O 0.5936(4) 0.2106(2) 0.5413(3)
C38 C 0.5849(10) 0.1645(3) 0.6154(4)
N3 N 0.5664(3) 0.2842(2) 0.3871(2)
C39 C 0.6778(4) 0.2764(2) 0.3363(3)
O12 O 0.7927(3) 0.2946(2) 0.3643(2)
C40 C 0.6557(4) 0.2440(2) 0.2400(3)
O13 O 0.5301(3) 0.2622(1) 0.1915(2)
C41 C 0.5367(5) 0.3221(2) 0.1476(3)
C42 C 0.4019(5) 0.3356(3) 0.0954(3)
O14 O 0.3036(3) 0.3473(2) 0.1634(2)
C43 C 0.1660(5) 0.3496(3) 0.1228(4)
C44 C 0.0694(5) 0.3363(2) 0.2007(3)
O15 O 0.0522(2) 0.2721(1) 0.2199(2)
C45 C 0.1717(4) 0.2414(2) 0.2601(3)
C46 C 0.1876(4) 0.2467(2) 0.3677(3)
O16 O 0.2979(3) 0.2327(1) 0.4099(2)
N4 N 0.0805(3) 0.2676(2) 0.4138(2)
C47 C 0.0891(4) 0.2720(2) 0.5170(3)
C48 C 0.0612(5) 0.2095(3) 0.5622(3)
O17 O -0.0116(6) 0.1699(2) 0.5288(3)
O18 O 0.1299(4) 0.2035(2) 0.6455(3)
C49 C 0.1155(9) 0.1454(4) 0.6969(5)
C50 C -0.0077(4) 0.3219(2) 0.5524(3)
C51 C 0.0360(4) 0.3870(2) 0.5291(3)
C52 C -0.0093(6) 0.4164(3) 0.4446(4)
C53 C 0.0363(7) 0.4763(3) 0.4261(5)
C54 C 0.1245(8) 0.5066(4) 0.4897(7)
C55 C 0.1679(7) 0.4776(3) 0.5714(7)
C56 C 0.1251(5) 0.4186(3) 0.5909(4)
H1 H 0.1052 0.0340 -0.1693
H2 H 0.2254 -0.0594 -0.1405
H3 H 0.1985 -0.1144 0.0007
H4 H 0.0497 -0.0766 0.1134
H5 H -0.0639 0.0177 0.0862
H6 H -0.0863 0.1002 -0.1288
H7 H -0.1537 0.0929 -0.0303
H8 H 0.0988 0.1531 -0.0508
H9 H -0.1737 0.2705 -0.2506
H10 H -0.0976 0.3059 -0.1651
H11 H -0.2434 0.2769 -0.1529
H12 H 0.2482 0.1510 0.2495
H13 H -0.0101 0.0625 0.3122
H14 H 0.1035 0.0594 0.2374
H15 H 0.1692 0.0265 0.3999
H16 H 0.1775 0.0983 0.4224
H17 H 0.4008 0.1198 0.4385
H18 H 0.4416 0.0489 0.4433
H19 H 0.5634 0.0657 0.3021
H20 H 0.6293 0.0987 0.3936
H21 H 0.7351 0.1593 0.2873
H22 H 0.6071 0.0918 -0.0014
H23 H 0.4848 0.2898 -0.1112
H24 H 0.3517 0.2486 -0.1200
H25 H 0.4710 0.2366 -0.1882
H26 H 0.4248 0.0260 -0.0428
H27 H 0.3413 0.0561 0.0378
H28 H 0.6718 -0.0158 0.0319
H29 H 0.7534 -0.0929 0.1389
H30 H 0.6197 -0.1264 0.2614
H31 H 0.4012 -0.0851 0.2737
H32 H 0.3224 -0.0074 0.1709
H33 H 0.6862 0.4404 0.4693
H34 H 0.7301 0.5164 0.3592
H35 H 0.5711 0.5442 0.2429
H36 H 0.3524 0.4971 0.2352
H37 H 0.3091 0.4143 0.3443
H38 H 0.4777 0.3840 0.5483
H39 H 0.3793 0.3509 0.4717
H40 H 0.6610 0.3307 0.4884
H41 H 0.6140 0.1250 0.5912
H42 H 0.4941 0.1605 0.6378
H43 H 0.6471 0.1774 0.6673
H44 H 0.7311 0.2566 0.2032
H45 H 0.5553 0.3533 0.1957
H46 H 0.6085 0.3223 0.1034
H47 H 0.3740 0.3004 0.0564
H48 H 0.4106 0.3717 0.0555
H49 H 0.1474 0.3903 0.0960
H50 H 0.1542 0.3186 0.0734
H51 H -0.0187 0.3536 0.1816
H52 H 0.1046 0.3564 0.2583
H53 H 0.2510 0.2616 0.2367
H54 H 0.1815 0.2839 0.5362
H55 H 0.1557 0.1500 0.7607
H56 H 0.1621 0.1127 0.6647
H57 H 0.0201 0.1348 0.6997
H58 H -0.0110 0.3181 0.6206
H59 H -0.0976 0.3148 0.5229
H60 H -0.0719 0.3956 0.3998
H61 H 0.0056 0.4968 0.3678
H62 H 0.1562 0.5479 0.4760
H63 H 0.2282 0.4991 0.6170
H64 H 0.1590 0.3984 0.6488
H65 H -0.0231(34) 0.1464(17) 0.1167(23)
H66 H 0.4656(39) 0.1542(18) 0.1269(24)
H67 H 0.4899(34) 0.2661(17) 0.3721(23)
H68 H 0.0057(34) 0.2702(17) 0.3827(22)
loop_
_geom_bond_atom_site_label_1
_geom_bond_atom_site_label_2
_geom_bond_site_symmetry_1
_geom_bond_site_symmetry_2
C1 C2 1_555 1_555
C2 C3 1_555 1_555
C3 C4 1_555 1_555
C4 C5 1_555 1_555
C5 C6 1_555 1_555
C6 C1 1_555 1_555
C7 C6 1_555 1_555
C8 C7 1_555 1_555
C9 C8 1_555 1_555
O1 C9 1_555 1_555
O2 C9 1_555 1_555
C10 O2 1_555 1_555
N1 C8 1_555 1_555
C11 N1 1_555 1_555
O3 C11 1_555 1_555
C12 C11 1_555 1_555
O4 C12 1_555 1_555
C13 O4 1_555 1_555
C14 C13 1_555 1_555
O5 C14 1_555 1_555
C15 O5 1_555 1_555
C16 C15 1_555 1_555
O6 C16 1_555 1_555
C17 O6 1_555 1_555
C18 C17 1_555 1_555
O7 C18 1_555 1_555
N2 C18 1_555 1_555
C19 N2 1_555 1_555
C20 C19 1_555 1_555
O8 C20 1_555 1_555
O9 C20 1_555 1_555
C21 O9 1_555 1_555
C22 C19 1_555 1_555
C23 C22 1_555 1_555
C24 C23 1_555 1_555
C25 C24 1_555 1_555
C26 C25 1_555 1_555
C27 C26 1_555 1_555
C28 C23 1_555 1_555
C29 C30 1_555 1_555
C30 C31 1_555 1_555
C31 C32 1_555 1_555
C32 C33 1_555 1_555
C33 C34 1_555 1_555
C34 C29 1_555 1_555
C35 C34 1_555 1_555
C36 C35 1_555 1_555
C37 C36 1_555 1_555
O10 C37 1_555 1_555
O11 C37 1_555 1_555
C38 O11 1_555 1_555
N3 C36 1_555 1_555
C39 N3 1_555 1_555
O12 C39 1_555 1_555
C40 C17 1_555 1_555
O13 C40 1_555 1_555
C41 O13 1_555 1_555
C42 C41 1_555 1_555
O14 C42 1_555 1_555
C43 O14 1_555 1_555
C44 C43 1_555 1_555
O15 C44 1_555 1_555
C45 C12 1_555 1_555
C46 C45 1_555 1_555
O16 C46 1_555 1_555
N4 C46 1_555 1_555
C47 N4 1_555 1_555
C48 C47 1_555 1_555
O17 C48 1_555 1_555
O18 C48 1_555 1_555
C49 O18 1_555 1_555
C50 C47 1_555 1_555
C51 C50 1_555 1_555
C52 C51 1_555 1_555
C53 C52 1_555 1_555
C54 C53 1_555 1_555
C55 C54 1_555 1_555
C56 C51 1_555 1_555
H1 C1 1_555 1_555
H2 C2 1_555 1_555
H3 C3 1_555 1_555
H4 C4 1_555 1_555
H5 C5 1_555 1_555
H6 C7 1_555 1_555
H7 C7 1_555 1_555
H8 C8 1_555 1_555
H9 C10 1_555 1_555
H10 C10 1_555 1_555
H11 C10 1_555 1_555
H12 C12 1_555 1_555
H13 C13 1_555 1_555
H14 C13 1_555 1_555
H15 C14 1_555 1_555
H16 C14 1_555 1_555
H17 C15 1_555 1_555
H18 C15 1_555 1_555
H19 C16 1_555 1_555
H20 C16 1_555 1_555
H21 C17 1_555 1_555
H22 C19 1_555 1_555
H23 C21 1_555 1_555
H24 C21 1_555 1_555
H25 C21 1_555 1_555
H26 C22 1_555 1_555
H27 C22 1_555 1_555
H28 C24 1_555 1_555
H29 C25 1_555 1_555
H30 C26 1_555 1_555
H31 C27 1_555 1_555
H32 C28 1_555 1_555
H33 C29 1_555 1_555
H34 C30 1_555 1_555
H35 C31 1_555 1_555
H36 C32 1_555 1_555
H37 C33 1_555 1_555
H38 C35 1_555 1_555
H39 C35 1_555 1_555
H40 C36 1_555 1_555
H41 C38 1_555 1_555
H42 C38 1_555 1_555
H43 C38 1_555 1_555
H44 C40 1_555 1_555
H45 C41 1_555 1_555
H46 C41 1_555 1_555
H47 C42 1_555 1_555
H48 C42 1_555 1_555
H49 C43 1_555 1_555
H50 C43 1_555 1_555
H51 C44 1_555 1_555
H52 C44 1_555 1_555
H53 C45 1_555 1_555
H54 C47 1_555 1_555
H55 C49 1_555 1_555
H56 C49 1_555 1_555
H57 C49 1_555 1_555
H58 C50 1_555 1_555
H59 C50 1_555 1_555
H60 C52 1_555 1_555
H61 C53 1_555 1_555
H62 C54 1_555 1_555
H63 C55 1_555 1_555
H64 C56 1_555 1_555
H65 N1 1_555 1_555
H66 N2 1_555 1_555
H67 N3 1_555 1_555
H68 N4 1_555 1_555
C27 C28 1_555 1_555
C39 C40 1_555 1_555
O15 C45 1_555 1_555
C55 C56 1_555 1_555

#END
