
#######################################################################
#
#                 Cambridge Crystallographic Data Centre
#                                CCDC 
#
#######################################################################
#
# If this CIF has been generated from an entry in the Cambridge 
# Structural Database, then it will include bibliographic, chemical, 
# crystal, experimental, refinement or atomic coordinate data resulting 
# from the CCDC's data processing and validation procedures.
#
#######################################################################

data_VEFSEF
_chemical_formula_moiety         'C16 H6 N4 S2'
_chemical_name_systematic        
2,3-bis(2-Thienyl)buta-1,3-diene-1,1,4,4-tetracarbonitrile
_symmetry_cell_setting           triclinic
_symmetry_space_group_name_H-M   'P -1'
_symmetry_Int_Tables_number      2
_space_group_name_Hall           '-P 1'
loop_
_symmetry_equiv_pos_site_id
_symmetry_equiv_pos_as_xyz
1 x,y,z
2 -x,-y,-z
_cell_length_a                   8.4001(2)
_cell_length_b                   8.5650(2)
_cell_length_c                   10.8960(3)
_cell_angle_alpha                81.033(2)
_cell_angle_beta                 81.365(1)
_cell_angle_gamma                74.127(1)
_cell_volume                     740.042
_exptl_crystal_colour            yellow
_cell_formula_units_Z            2
_exptl_crystal_recrystallization_method hexane/dichloromethane
loop_
_atom_site_label
_atom_site_type_symbol
_atom_site_fract_x
_atom_site_fract_y
_atom_site_fract_z
C1 C 0.71493(16) 0.26207(15) 0.31891(11)
C2 C 0.57618(16) 0.19061(16) 0.33015(12)
C3 C 0.55915(17) 0.08495(17) 0.24968(12)
H1 H 0.6376 0.0518 0.1815
C4 C 0.41100(19) 0.03431(18) 0.28286(14)
H2 H 0.3798 -0.0370 0.2393
C5 C 0.31749(19) 0.09973(19) 0.38501(14)
H3 H 0.2147 0.0788 0.4190
S1 S 0.40665(4) 0.22287(4) 0.44396(3)
C6 C 0.82777(16) 0.24875(16) 0.19698(11)
C7 C 0.78134(17) 0.37783(17) 0.09800(12)
S2 S 0.86816(5) 0.37546(5) -0.05706(3)
C8 C 0.7400(2) 0.5619(2) -0.09852(15)
H4 H 0.7406 0.6150 -0.1808
C9 C 0.6366(2) 0.6260(2) -0.00015(14)
H5 H 0.5592 0.7288 -0.0066
C10 C 0.65860(19) 0.52133(18) 0.11218(13)
H6 H 0.5964 0.5461 0.1891
C11 C 0.96019(17) 0.11362(17) 0.19361(12)
C12 C 1.08525(17) 0.08216(18) 0.08896(13)
N1 N 1.18949(17) 0.05005(19) 0.00975(13)
C13 C 0.98237(17) -0.00999(17) 0.29945(13)
N2 N 1.00125(18) -0.10908(17) 0.38371(13)
C14 C 0.75658(16) 0.33848(16) 0.40601(12)
C15 C 0.89418(18) 0.41245(18) 0.37688(13)
N3 N 1.00229(19) 0.4733(2) 0.35168(13)
C16 C 0.66941(17) 0.35158(16) 0.52946(12)
N4 N 0.60221(17) 0.36445(16) 0.62771(11)
loop_
_geom_bond_atom_site_label_1
_geom_bond_atom_site_label_2
_geom_bond_site_symmetry_1
_geom_bond_site_symmetry_2
C1 C2 1_555 1_555
C2 C3 1_555 1_555
C3 H1 1_555 1_555
C4 C3 1_555 1_555
H2 C4 1_555 1_555
C5 C4 1_555 1_555
H3 C5 1_555 1_555
S1 C2 1_555 1_555
C6 C1 1_555 1_555
C7 C6 1_555 1_555
S2 C7 1_555 1_555
C8 S2 1_555 1_555
H4 C8 1_555 1_555
C9 C8 1_555 1_555
H5 C9 1_555 1_555
C10 C7 1_555 1_555
H6 C10 1_555 1_555
C11 C6 1_555 1_555
C12 C11 1_555 1_555
N1 C12 1_555 1_555
C13 C11 1_555 1_555
N2 C13 1_555 1_555
C14 C1 1_555 1_555
C15 C14 1_555 1_555
N3 C15 1_555 1_555
C16 C14 1_555 1_555
N4 C16 1_555 1_555
C5 S1 1_555 1_555
C9 C10 1_555 1_555

#END
