
#######################################################################
#
#                 Cambridge Crystallographic Data Centre
#                                CCDC 
#
#######################################################################
#
# If this CIF has been generated from an entry in the Cambridge 
# Structural Database, then it will include bibliographic, chemical, 
# crystal, experimental, refinement or atomic coordinate data resulting 
# from the CCDC's data processing and validation procedures.
#
#######################################################################

data_VEFYOX
_chemical_formula_moiety         'C20 H17 N1 O3'
_chemical_name_systematic        
2-(((bis(2-hydroxyphenyl)methyl)iminio)methyl)phenolate
_symmetry_cell_setting           monoclinic
_symmetry_space_group_name_H-M   'P 21/c'
_symmetry_Int_Tables_number      14
_space_group_name_Hall           '-P 2ybc'
loop_
_symmetry_equiv_pos_site_id
_symmetry_equiv_pos_as_xyz
1 x,y,z
2 -x,1/2+y,1/2-z
3 -x,-y,-z
4 x,1/2-y,1/2+z
_cell_length_a                   15.0129(9)
_cell_length_b                   6.7964(4)
_cell_length_c                   16.6082(10)
_cell_angle_alpha                90
_cell_angle_beta                 107.3358(19)
_cell_angle_gamma                90
_cell_volume                     1617.62
_exptl_crystal_colour            yellow
_exptl_crystal_description       platy
_cell_formula_units_Z            4
loop_
_atom_site_label
_atom_site_type_symbol
_atom_site_fract_x
_atom_site_fract_y
_atom_site_fract_z
N1 N 0.20678(7) 0.76245(15) 0.05821(6)
O1 O 0.19896(6) 0.51422(13) 0.17542(5)
O2 O 0.22875(6) 1.17140(14) 0.10678(6)
O3 O 0.24197(7) 0.93913(13) -0.15767(6)
C1 C 0.11757(9) 0.77464(18) 0.04052(8)
H1 H 0.0853 0.8570 -0.0051
C2 C 0.06411(9) 0.67193(19) 0.08524(8)
C3 C 0.10797(9) 0.54216(19) 0.15193(8)
C4 C 0.05046(11) 0.4434(2) 0.19290(10)
H2 H 0.0776 0.3543 0.2375
C5 C -0.04420(11) 0.4757(3) 0.16857(11)
H3 H -0.0814 0.4084 0.1971
C6 C -0.08700(11) 0.6039(2) 0.10357(11)
H4 H -0.1525 0.6253 0.0883
C7 C -0.03377(10) 0.6995(2) 0.06155(10)
H5 H -0.0628 0.7851 0.0161
C8 C 0.26317(8) 0.86523(18) 0.01159(7)
H6 H 0.2221 0.9649 -0.0260
C9 C 0.34251(9) 0.97492(18) 0.07321(7)
C10 C 0.32088(9) 1.13200(18) 0.11889(7)
C11 C 0.39134(10) 1.24357(19) 0.17259(8)
H7 H 0.3761 1.3492 0.2036
C12 C 0.48407(10) 1.2006(2) 0.18098(8)
H8 H 0.5322 1.2772 0.2177
C13 C 0.50670(9) 1.0472(2) 0.13618(8)
H9 H 0.5702 1.0185 0.1420
C14 C 0.43633(9) 0.9348(2) 0.08264(8)
H10 H 0.4522 0.8293 0.0520
C15 C 0.29192(8) 0.71711(18) -0.04416(7)
C16 C 0.27487(8) 0.75701(17) -0.13005(7)
C17 C 0.29227(10) 0.6126(2) -0.18324(8)
H11 H 0.2785 0.6374 -0.2420
C18 C 0.32956(11) 0.4337(2) -0.15033(9)
H12 H 0.3408 0.3355 -0.1869
C19 C 0.35078(10) 0.3956(2) -0.06462(9)
H13 H 0.3783 0.2740 -0.0420
C20 C 0.33130(10) 0.53729(19) -0.01261(8)
H14 H 0.3451 0.5112 0.0460
H15 H 0.2228(10) 1.283(2) 0.1359(10)
H16 H 0.2302(10) 0.953(2) -0.2157(10)
H17 H 0.2330(10) 0.680(2) 0.0981(10)
loop_
_geom_bond_atom_site_label_1
_geom_bond_atom_site_label_2
_geom_bond_site_symmetry_1
_geom_bond_site_symmetry_2
N1 C1 1_555 1_555
O1 C3 1_555 1_555
O2 C10 1_555 1_555
O3 C16 1_555 1_555
C1 H1 1_555 1_555
C2 C1 1_555 1_555
C3 C2 1_555 1_555
C4 C3 1_555 1_555
H2 C4 1_555 1_555
C5 C4 1_555 1_555
H3 C5 1_555 1_555
C6 C5 1_555 1_555
H4 C6 1_555 1_555
C7 C2 1_555 1_555
H5 C7 1_555 1_555
C8 N1 1_555 1_555
H6 C8 1_555 1_555
C9 C8 1_555 1_555
C10 C9 1_555 1_555
C11 C10 1_555 1_555
H7 C11 1_555 1_555
C12 C11 1_555 1_555
H8 C12 1_555 1_555
C13 C12 1_555 1_555
H9 C13 1_555 1_555
C14 C9 1_555 1_555
H10 C14 1_555 1_555
C15 C8 1_555 1_555
C16 C15 1_555 1_555
C17 C16 1_555 1_555
H11 C17 1_555 1_555
C18 C17 1_555 1_555
H12 C18 1_555 1_555
C19 C18 1_555 1_555
H13 C19 1_555 1_555
C20 C15 1_555 1_555
H14 C20 1_555 1_555
H15 O2 1_555 1_555
H16 O3 1_555 1_555
H17 N1 1_555 1_555
C6 C7 1_555 1_555
C13 C14 1_555 1_555
C19 C20 1_555 1_555

#END
