
#######################################################################
#
#                 Cambridge Crystallographic Data Centre
#                                CCDC 
#
#######################################################################
#
# If this CIF has been generated from an entry in the Cambridge 
# Structural Database, then it will include bibliographic, chemical, 
# crystal, experimental, refinement or atomic coordinate data resulting 
# from the CCDC's data processing and validation procedures.
#
#######################################################################

data_VEFZEM
_chemical_name_common            
"tris(N,N'-(p-phenylene)cyclohexane-1,2-diamine) methyl benzoate clathrate"
_chemical_formula_moiety         'C42 H60 N6,C8 H8 O2'
_chemical_name_systematic        
'3,10,17,24,31,38-hexaazaheptacyclo[38.2.2.2^12,15^.2^26,29^.0^4,9^.0^18,23^.0^32,37^] octatetraconta-1(42),12,14,26,28,40,43,45,47-nonaene methyl benzoate clathrate'
_symmetry_cell_setting           monoclinic
_symmetry_space_group_name_H-M   'P 21'
_symmetry_Int_Tables_number      4
_space_group_name_Hall           'P 2yb'
loop_
_symmetry_equiv_pos_site_id
_symmetry_equiv_pos_as_xyz
1 x,y,z
2 -x,1/2+y,-z
_cell_length_a                   8.628(2)
_cell_length_b                   15.043(3)
_cell_length_c                   17.755(4)
_cell_angle_alpha                90
_cell_angle_beta                 100.27(3)
_cell_angle_gamma                90
_cell_volume                     2267.52
_exptl_crystal_colour            colorless
_exptl_crystal_description       plate
_chemical_melting_point          132-135deg.C
_cell_formula_units_Z            2
loop_
_atom_site_label
_atom_site_type_symbol
_atom_site_fract_x
_atom_site_fract_y
_atom_site_fract_z
N1 N -0.8950(3) -0.12414(19) -0.45940(16)
H1 H -0.9258 -0.0688 -0.4658
N2 N -1.0744(3) -0.01410(18) -0.56884(17)
H2 H -1.1565 -0.0335 -0.5544
C1 C -0.9824(4) -0.1615(2) -0.5313(2)
H3 H -1.0867 -0.1764 -0.5238
C2 C -0.9963(4) -0.0919(2) -0.59436(19)
H4 H -0.8919 -0.0742 -0.5996
C3 C -1.0768(4) -0.1316(3) -0.6706(2)
H5 H -1.0750 -0.0885 -0.7103
H6 H -1.1849 -0.1439 -0.6681
C4 C -0.9986(5) -0.2163(3) -0.6905(2)
H7 H -0.8934 -0.2034 -0.6979
H8 H -1.0562 -0.2402 -0.7373
C5 C -0.9919(5) -0.2845(2) -0.6273(2)
H9 H -0.9415 -0.3378 -0.6402
H10 H -1.0972 -0.2992 -0.6212
C6 C -0.9044(4) -0.2460(2) -0.5527(2)
H11 H -0.9008 -0.2892 -0.5126
H12 H -0.7982 -0.2331 -0.5584
C7 C -1.0895(4) 0.0624(2) -0.6204(2)
H13 H -1.1643 0.1035 -0.6060
H14 H -1.1296 0.0425 -0.6715
C8 C -0.9348(4) 0.1096(2) -0.6197(2)
C9 C -0.8371(4) 0.1323(2) -0.5512(2)
H15 H -0.8649 0.1139 -0.5035
C10 C -0.6999(4) 0.1802(2) -0.5510(2)
H16 H -0.6360 0.1967 -0.5031
C11 C -0.6533(4) 0.2059(2) -0.6190(2)
C12 C -0.7527(5) 0.1841(3) -0.6868(2)
H17 H -0.7247 0.2018 -0.7345
C13 C -0.8898(5) 0.1360(2) -0.6869(2)
H18 H -0.9554 0.1213 -0.7348
C14 C -0.4985(4) 0.2512(2) -0.6200(2)
H19 H -0.4927 0.2681 -0.6716
H20 H -0.4147 0.2099 -0.6031
N3 N -0.4765(3) 0.33023(18) -0.57091(17)
H21 H -0.3938 0.3427 -0.5605
N4 N -0.5797(3) 0.44199(19) -0.46470(16)
H22 H -0.5558 0.3822 -0.4658
C15 C -0.5760(4) 0.4069(2) -0.5987(2)
H23 H -0.6837 0.3883 -0.6030
C16 C -0.5455(4) 0.4780(2) -0.53692(19)
H24 H -0.4361 0.4939 -0.5297
C17 C -0.6426(4) 0.5613(2) -0.5604(2)
H25 H -0.6180 0.6054 -0.5210
H26 H -0.7526 0.5473 -0.5659
C18 C -0.6098(5) 0.5982(3) -0.6359(2)
H27 H -0.5004 0.6137 -0.6302
H28 H -0.6711 0.6509 -0.6498
C19 C -0.6476(5) 0.5290(3) -0.6982(2)
H29 H -0.6247 0.5517 -0.7455
H30 H -0.7582 0.5160 -0.7055
C20 C -0.5538(5) 0.4434(3) -0.6763(2)
H31 H -0.5868 0.3990 -0.7147
H32 H -0.4441 0.4550 -0.6752
C21 C -0.4863(5) 0.4839(3) -0.3968(2)
H33 H -0.5206 0.5442 -0.3937
H34 H -0.3775 0.4849 -0.4020
C22 C -0.5005(4) 0.4356(3) -0.3239(2)
C23 C -0.4753(5) 0.3443(3) -0.3159(2)
H35 H -0.4473 0.3112 -0.3577
C24 C -0.4895(5) 0.3003(3) -0.2484(2)
H36 H -0.4726 0.2372 -0.2444
C25 C -0.5270(5) 0.3460(3) -0.1879(2)
C26 C -0.5542(5) 0.4365(3) -0.1953(2)
H37 H -0.5833 0.4688 -0.1533
C27 C -0.5404(4) 0.4815(3) -0.2627(2)
H38 H -0.5593 0.5444 -0.2667
C28 C -0.5379(5) 0.2982(3) -0.1135(2)
H39 H -0.4697 0.3269 -0.0719
H40 H -0.5023 0.2380 -0.1164
N5 N -0.6958(4) 0.2979(2) -0.09801(18)
H41 H -0.7476 0.2693 -0.1375
N6 N -0.7351(4) 0.1046(2) -0.09761(18)
H42 H -0.8183 0.1034 -0.0960
C29 C -0.7136(5) 0.2479(3) -0.0292(2)
H43 H -0.8241 0.2477 -0.0272
C30 C -0.6623(5) 0.1499(3) -0.0268(2)
H44 H -0.5503 0.1485 -0.0247
C31 C -0.6976(5) 0.1053(3) 0.0462(2)
H45 H -0.6612 0.0449 0.0482
H46 H -0.8095 0.1045 0.0444
C32 C -0.6173(6) 0.1548(3) 0.1183(2)
H47 H -0.5050 0.1510 0.1224
H48 H -0.6453 0.1272 0.1627
C33 C -0.6656(6) 0.2514(3) 0.1160(2)
H49 H -0.6098 0.2818 0.1601
H50 H -0.7763 0.2554 0.1170
C34 C -0.6320(5) 0.2953(3) 0.0430(2)
H51 H -0.6667 0.3560 0.0417
H52 H -0.5204 0.2953 0.0441
C35 C -0.6598(6) 0.0221(3) -0.1121(3)
H53 H -0.6589 -0.0172 -0.0694
H54 H -0.5524 0.0345 -0.1160
C36 C -0.7384(5) -0.0237(3) -0.1843(2)
C37 C -0.8158(5) 0.0214(3) -0.2472(2)
H55 H -0.8257 0.0849 -0.2452
C38 C -0.8795(5) -0.0233(3) -0.3129(2)
H56 H -0.9312 0.0099 -0.3564
C39 C -0.8711(4) -0.1148(2) -0.3190(2)
C40 C -0.7947(5) -0.1599(3) -0.2557(2)
H57 H -0.7867 -0.2234 -0.2576
C41 C -0.7291(5) -0.1153(3) -0.1892(2)
H58 H -0.6767 -0.1486 -0.1460
C42 C -0.9392(4) -0.1637(3) -0.3908(2)
H59 H -0.9032 -0.2242 -0.3866
H60 H -1.0519 -0.1643 -0.3959
O1 O -0.1286(6) -0.6363(3) -0.0012(3)
O2 O -0.1312(4) -0.6874(3) -0.1176(2)
C43 C -0.1551(5) -0.7929(4) -0.0214(4)
C44 C -0.1682(6) -0.8605(5) -0.0731(4)
H61 H -0.1647 -0.8473 -0.1257
C45 C -0.1866(8) -0.9469(5) -0.0520(5)
H62 H -0.1966 -0.9937 -0.0894
C46 C -0.1919(7) -0.9654(5) 0.0226(5)
H63 H -0.2064 -1.0259 0.0370
C47 C -0.1756(7) -0.8983(6) 0.0778(4)
H64 H -0.1769 -0.9125 0.1304
C48 C -0.1564(6) -0.8088(5) 0.0531(4)
H65 H -0.1445 -0.7610 0.0896
C49 C -0.1365(6) -0.6954(5) -0.0442(5)
C50 C -0.1173(7) -0.5981(4) -0.1442(3)
H66 H -0.1144 -0.5995 -0.1979
H67 H -0.2059 -0.5634 -0.1356
H68 H -0.0219 -0.5719 -0.1172
loop_
_geom_bond_atom_site_label_1
_geom_bond_atom_site_label_2
_geom_bond_site_symmetry_1
_geom_bond_site_symmetry_2
N1 H1 1_555 1_555
N2 H2 1_555 1_555
C1 N1 1_555 1_555
H3 C1 1_555 1_555
C2 N2 1_555 1_555
H4 C2 1_555 1_555
C3 C2 1_555 1_555
H5 C3 1_555 1_555
H6 C3 1_555 1_555
C4 C3 1_555 1_555
H7 C4 1_555 1_555
H8 C4 1_555 1_555
C5 C4 1_555 1_555
H9 C5 1_555 1_555
H10 C5 1_555 1_555
C6 C1 1_555 1_555
H11 C6 1_555 1_555
H12 C6 1_555 1_555
C7 N2 1_555 1_555
H13 C7 1_555 1_555
H14 C7 1_555 1_555
C8 C7 1_555 1_555
C9 C8 1_555 1_555
H15 C9 1_555 1_555
C10 C9 1_555 1_555
H16 C10 1_555 1_555
C11 C10 1_555 1_555
C12 C11 1_555 1_555
H17 C12 1_555 1_555
C13 C8 1_555 1_555
H18 C13 1_555 1_555
C14 C11 1_555 1_555
H19 C14 1_555 1_555
H20 C14 1_555 1_555
N3 C14 1_555 1_555
H21 N3 1_555 1_555
N4 H22 1_555 1_555
C15 N3 1_555 1_555
H23 C15 1_555 1_555
C16 N4 1_555 1_555
H24 C16 1_555 1_555
C17 C16 1_555 1_555
H25 C17 1_555 1_555
H26 C17 1_555 1_555
C18 C17 1_555 1_555
H27 C18 1_555 1_555
H28 C18 1_555 1_555
C19 C18 1_555 1_555
H29 C19 1_555 1_555
H30 C19 1_555 1_555
C20 C15 1_555 1_555
H31 C20 1_555 1_555
H32 C20 1_555 1_555
C21 N4 1_555 1_555
H33 C21 1_555 1_555
H34 C21 1_555 1_555
C22 C21 1_555 1_555
C23 C22 1_555 1_555
H35 C23 1_555 1_555
C24 C23 1_555 1_555
H36 C24 1_555 1_555
C25 C24 1_555 1_555
C26 C25 1_555 1_555
H37 C26 1_555 1_555
C27 C22 1_555 1_555
H38 C27 1_555 1_555
C28 C25 1_555 1_555
H39 C28 1_555 1_555
H40 C28 1_555 1_555
N5 C28 1_555 1_555
H41 N5 1_555 1_555
N6 H42 1_555 1_555
C29 N5 1_555 1_555
H43 C29 1_555 1_555
C30 N6 1_555 1_555
H44 C30 1_555 1_555
C31 C30 1_555 1_555
H45 C31 1_555 1_555
H46 C31 1_555 1_555
C32 C31 1_555 1_555
H47 C32 1_555 1_555
H48 C32 1_555 1_555
C33 C32 1_555 1_555
H49 C33 1_555 1_555
H50 C33 1_555 1_555
C34 C29 1_555 1_555
H51 C34 1_555 1_555
H52 C34 1_555 1_555
C35 N6 1_555 1_555
H53 C35 1_555 1_555
H54 C35 1_555 1_555
C36 C35 1_555 1_555
C37 C36 1_555 1_555
H55 C37 1_555 1_555
C38 C37 1_555 1_555
H56 C38 1_555 1_555
C39 C38 1_555 1_555
C40 C39 1_555 1_555
H57 C40 1_555 1_555
C41 C36 1_555 1_555
H58 C41 1_555 1_555
C42 N1 1_555 1_555
H59 C42 1_555 1_555
H60 C42 1_555 1_555
O1 C49 1_555 1_555
O2 C49 1_555 1_555
C43 C44 1_555 1_555
C44 H61 1_555 1_555
C45 C44 1_555 1_555
H62 C45 1_555 1_555
C46 C45 1_555 1_555
H63 C46 1_555 1_555
C47 C46 1_555 1_555
H64 C47 1_555 1_555
C48 C43 1_555 1_555
H65 C48 1_555 1_555
C49 C43 1_555 1_555
C50 O2 1_555 1_555
H66 C50 1_555 1_555
H67 C50 1_555 1_555
H68 C50 1_555 1_555
C1 C2 1_555 1_555
C5 C6 1_555 1_555
C12 C13 1_555 1_555
C15 C16 1_555 1_555
C19 C20 1_555 1_555
C26 C27 1_555 1_555
C29 C30 1_555 1_555
C33 C34 1_555 1_555
C39 C42 1_555 1_555
C40 C41 1_555 1_555
C47 C48 1_555 1_555

#END
