
#######################################################################
#
#                 Cambridge Crystallographic Data Centre
#                                CCDC 
#
#######################################################################
#
# If this CIF has been generated from an entry in the Cambridge 
# Structural Database, then it will include bibliographic, chemical, 
# crystal, experimental, refinement or atomic coordinate data resulting 
# from the CCDC's data processing and validation procedures.
#
#######################################################################

data_VEGDUI
_chemical_formula_moiety         'C18 H30 O8 S1'
_chemical_name_systematic        
'1-((Methoxymethoxy)methyl)-5,8a-dimethyl-4-((methylsulfonyl)oxy)-6-oxodecahydronaphthalen-2-yl acetate'
_symmetry_cell_setting           monoclinic
_symmetry_space_group_name_H-M   'P 21/n'
_symmetry_Int_Tables_number      14
_space_group_name_Hall           '-P 2yn'
loop_
_symmetry_equiv_pos_site_id
_symmetry_equiv_pos_as_xyz
1 x,y,z
2 1/2-x,1/2+y,1/2-z
3 -x,-y,-z
4 1/2+x,1/2-y,1/2+z
_cell_length_a                   14.724(7)
_cell_length_b                   6.790(3)
_cell_length_c                   22.394(10)
_cell_angle_alpha                90
_cell_angle_beta                 108.516(9)
_cell_angle_gamma                90
_cell_volume                     2122.97
_exptl_crystal_colour            colorless
_exptl_crystal_description       block
_cell_formula_units_Z            4
loop_
_atom_site_label
_atom_site_type_symbol
_atom_site_fract_x
_atom_site_fract_y
_atom_site_fract_z
S1 S -0.11781(5) -0.9825(2) -0.23138(4)
O1 O 0.23337(14) -0.7671(3) -0.28073(9)
O2 O -0.01297(12) -1.0617(3) -0.20330(8)
O3 O -0.1519(2) -1.0585(8) -0.29214(12)
O4 O -0.11862(17) -0.7747(6) -0.22430(19)
O5 O 0.16612(12) -1.2791(2) 0.00264(7)
O6 O 0.05576(19) -1.1904(4) 0.04599(11)
O7 O 0.31471(12) -0.9229(3) 0.05308(8)
O8 O 0.47443(18) -0.8614(6) 0.10669(14)
C1 C 0.22890(18) -0.7691(4) -0.22723(12)
C2 C 0.13434(16) -0.8007(4) -0.21524(10)
H1 H 0.0925 -0.8695 -0.2523
C3 C 0.14771(14) -0.9405(3) -0.15846(9)
H2 H 0.1663 -1.0673 -0.1720
C4 C 0.05462(14) -0.9815(3) -0.14474(9)
H3 H 0.0293 -0.8603 -0.1323
C5 C 0.06610(16) -1.1408(3) -0.09511(10)
H4 H 0.0078 -1.1488 -0.0839
H5 H 0.0754 -1.2668 -0.1127
C6 C 0.15003(15) -1.1017(3) -0.03614(10)
H6 H 0.1358 -0.9899 -0.0129
C7 C 0.24268(15) -1.0640(3) -0.05121(10)
H7 H 0.2519 -1.1799 -0.0747
C8 C 0.23075(14) -0.8867(3) -0.09740(10)
C9 C 0.32310(16) -0.8701(4) -0.11617(12)
H8 H 0.3749 -0.8252 -0.0799
H9 H 0.3399 -1.0001 -0.1272
C10 C 0.31461(18) -0.7302(4) -0.17126(13)
H10 H 0.3115 -0.5959 -0.1573
H11 H 0.3718 -0.7420 -0.1837
C11 C 0.08892(19) -0.5965(4) -0.21393(13)
H12 H 0.0848 -0.5265 -0.2519
H13 H 0.1278 -0.5233 -0.1783
H14 H 0.0259 -0.6128 -0.2107
C12 C -0.1801(2) -1.0852(7) -0.18525(17)
H15 H -0.2455 -1.0417 -0.2001
H16 H -0.1514 -1.0446 -0.1423
H17 H -0.1781 -1.2262 -0.1878
C13 C 0.1154(2) -1.3038(4) 0.04214(11)
C14 C 0.1421(3) -1.4896(5) 0.07921(14)
H18 H 0.1042 -1.5029 0.1068
H19 H 0.2087 -1.4854 0.1036
H20 H 0.1306 -1.5999 0.0510
C15 C 0.32958(17) -1.0587(4) 0.00870(12)
H21 H 0.3405 -1.1891 0.0273
H22 H 0.3861 -1.0207 -0.0020
C16 C 0.3888(3) -0.9233(7) 0.11040(15)
H23 H 0.3707 -0.8392 0.1398
H24 H 0.3962 -1.0559 0.1274
C17 C 0.4757(4) -0.6563(11) 0.0939(3)
H25 H 0.5372 -0.6207 0.0909
H26 H 0.4638 -0.5829 0.1273
H27 H 0.4270 -0.6269 0.0548
C18 C 0.21295(18) -0.6925(4) -0.06703(11)
H28 H 0.2054 -0.5867 -0.0966
H29 H 0.2665 -0.6655 -0.0302
H30 H 0.1559 -0.7046 -0.0553
loop_
_geom_bond_atom_site_label_1
_geom_bond_atom_site_label_2
_geom_bond_site_symmetry_1
_geom_bond_site_symmetry_2
S1 O2 1_555 1_555
O1 C1 1_555 1_555
O2 C4 1_555 1_555
O3 S1 1_555 1_555
O4 S1 1_555 1_555
O5 C6 1_555 1_555
O6 C13 1_555 1_555
O7 C15 1_555 1_555
O8 C16 1_555 1_555
C1 C2 1_555 1_555
C2 H1 1_555 1_555
C3 C2 1_555 1_555
H2 C3 1_555 1_555
C4 C3 1_555 1_555
H3 C4 1_555 1_555
C5 C4 1_555 1_555
H4 C5 1_555 1_555
H5 C5 1_555 1_555
C6 C5 1_555 1_555
H6 C6 1_555 1_555
C7 C6 1_555 1_555
H7 C7 1_555 1_555
C8 C3 1_555 1_555
C9 C8 1_555 1_555
H8 C9 1_555 1_555
H9 C9 1_555 1_555
C10 C1 1_555 1_555
H10 C10 1_555 1_555
H11 C10 1_555 1_555
C11 C2 1_555 1_555
H12 C11 1_555 1_555
H13 C11 1_555 1_555
H14 C11 1_555 1_555
C12 S1 1_555 1_555
H15 C12 1_555 1_555
H16 C12 1_555 1_555
H17 C12 1_555 1_555
C13 O5 1_555 1_555
C14 C13 1_555 1_555
H18 C14 1_555 1_555
H19 C14 1_555 1_555
H20 C14 1_555 1_555
C15 C7 1_555 1_555
H21 C15 1_555 1_555
H22 C15 1_555 1_555
C16 O7 1_555 1_555
H23 C16 1_555 1_555
H24 C16 1_555 1_555
C17 O8 1_555 1_555
H25 C17 1_555 1_555
H26 C17 1_555 1_555
H27 C17 1_555 1_555
C18 C8 1_555 1_555
H28 C18 1_555 1_555
H29 C18 1_555 1_555
H30 C18 1_555 1_555
C7 C8 1_555 1_555
C9 C10 1_555 1_555

#END
