
#######################################################################
#
#                 Cambridge Crystallographic Data Centre
#                                CCDC 
#
#######################################################################
#
# If this CIF has been generated from an entry in the Cambridge 
# Structural Database, then it will include bibliographic, chemical, 
# crystal, experimental, refinement or atomic coordinate data resulting 
# from the CCDC's data processing and validation procedures.
#
#######################################################################

data_VEGHOG
_chemical_formula_moiety         'C19 H17 P1 S1'
_chemical_name_systematic        'Benzyl(diphenyl)phosphine sulfide'
_symmetry_cell_setting           orthorhombic
_symmetry_space_group_name_H-M   'P n a 21'
_symmetry_Int_Tables_number      33
_space_group_name_Hall           'P 2c -2n'
loop_
_symmetry_equiv_pos_site_id
_symmetry_equiv_pos_as_xyz
1 x,y,z
2 -x,-y,1/2+z
3 1/2+x,1/2-y,z
4 1/2-x,1/2+y,1/2+z
_cell_length_a                   10.469(4)
_cell_length_b                   9.553(3)
_cell_length_c                   15.723(5)
_cell_angle_alpha                90
_cell_angle_beta                 90
_cell_angle_gamma                90
_cell_volume                     1572.46
_exptl_crystal_colour            colorless
_exptl_crystal_description       prismatic
_cell_formula_units_Z            4
loop_
_atom_site_label
_atom_site_type_symbol
_atom_site_fract_x
_atom_site_fract_y
_atom_site_fract_z
P1 P 0.72728(5) 0.06352(6) 0.43709(5)
S1 S 0.85382(6) 0.12683(7) 0.51858(5)
C1 C 0.6301(2) 0.2047(3) 0.3942(2)
H1 H 0.5656 0.1656 0.3568
H2 H 0.5866 0.2519 0.4405
C2 C 0.7084(2) 0.3093(3) 0.3458(2)
C3 C 0.7582(3) 0.4251(3) 0.3855(2)
H3 H 0.7440 0.4393 0.4433
C4 C 0.8294(3) 0.5207(3) 0.3396(2)
H4 H 0.8628 0.5991 0.3667
C5 C 0.8508(3) 0.5012(4) 0.2556(2)
H5 H 0.8988 0.5658 0.2251
C6 C 0.8013(4) 0.3856(4) 0.2159(2)
H6 H 0.8157 0.3723 0.1581
C7 C 0.7313(3) 0.2901(4) 0.2603(2)
H7 H 0.6988 0.2116 0.2328
C8 C 0.7916(3) -0.0210(3) 0.34427(19)
C9 C 0.9191(3) -0.0117(3) 0.3266(2)
H8 H 0.9740 0.0299 0.3656
C10 C 0.9668(4) -0.0638(4) 0.2512(3)
H9 H 1.0533 -0.0555 0.2389
C11 C 0.8872(5) -0.1271(4) 0.1951(3)
H10 H 0.9195 -0.1622 0.1444
C12 C 0.7589(4) -0.1397(4) 0.2127(2)
H11 H 0.7047 -0.1843 0.1744
C13 C 0.7120(3) -0.0862(4) 0.2869(2)
H12 H 0.6253 -0.0939 0.2989
C14 C 0.6150(2) -0.0592(3) 0.48230(17)
C15 C 0.6376(3) -0.2008(3) 0.4766(2)
H13 H 0.7082 -0.2336 0.4467
C16 C 0.5557(3) -0.2937(3) 0.5152(3)
H14 H 0.5704 -0.3895 0.5109
C17 C 0.4529(3) -0.2456(4) 0.5597(2)
H15 H 0.3980 -0.3084 0.5863
C18 C 0.4309(3) -0.1063(4) 0.5652(2)
H16 H 0.3602 -0.0741 0.5951
C19 C 0.5113(3) -0.0121(3) 0.5271(2)
H17 H 0.4956 0.0834 0.5316
loop_
_geom_bond_atom_site_label_1
_geom_bond_atom_site_label_2
_geom_bond_site_symmetry_1
_geom_bond_site_symmetry_2
P1 S1 1_555 1_555
C1 P1 1_555 1_555
H1 C1 1_555 1_555
H2 C1 1_555 1_555
C2 C1 1_555 1_555
C3 C2 1_555 1_555
H3 C3 1_555 1_555
C4 C3 1_555 1_555
H4 C4 1_555 1_555
C5 C4 1_555 1_555
H5 C5 1_555 1_555
C6 C5 1_555 1_555
H6 C6 1_555 1_555
C7 C2 1_555 1_555
H7 C7 1_555 1_555
C8 P1 1_555 1_555
C9 C8 1_555 1_555
H8 C9 1_555 1_555
C10 C9 1_555 1_555
H9 C10 1_555 1_555
C11 C10 1_555 1_555
H10 C11 1_555 1_555
C12 C11 1_555 1_555
H11 C12 1_555 1_555
C13 C8 1_555 1_555
H12 C13 1_555 1_555
C14 P1 1_555 1_555
C15 C14 1_555 1_555
H13 C15 1_555 1_555
C16 C15 1_555 1_555
H14 C16 1_555 1_555
C17 C16 1_555 1_555
H15 C17 1_555 1_555
C18 C17 1_555 1_555
H16 C18 1_555 1_555
C19 C14 1_555 1_555
H17 C19 1_555 1_555
C6 C7 1_555 1_555
C12 C13 1_555 1_555
C18 C19 1_555 1_555

#END
