
#######################################################################
#
#                 Cambridge Crystallographic Data Centre
#                                CCDC 
#
#######################################################################
#
# If this CIF has been generated from an entry in the Cambridge 
# Structural Database, then it will include bibliographic, chemical, 
# crystal, experimental, refinement or atomic coordinate data resulting 
# from the CCDC's data processing and validation procedures.
#
#######################################################################

data_VEGJEY
_chemical_formula_moiety         'C32 H22 S2 Si1'
_chemical_name_systematic        
2,4,4,6-Tetraphenyl-4H-thieno[2',3':4,5]silolo[3,2-b]thiophene
_symmetry_cell_setting           monoclinic
_symmetry_space_group_name_H-M   'C 2/c'
_symmetry_Int_Tables_number      15
_space_group_name_Hall           '-C 2yn'
loop_
_symmetry_equiv_pos_site_id
_symmetry_equiv_pos_as_xyz
1 x,y,z
2 -x,y,1/2-z
3 1/2+x,1/2+y,z
4 1/2-x,1/2+y,1/2-z
5 -x,-y,-z
6 x,-y,1/2+z
7 1/2-x,1/2-y,-z
8 1/2+x,1/2-y,1/2+z
_cell_length_a                   19.549(7)
_cell_length_b                   19.718(6)
_cell_length_c                   6.618(2)
_cell_angle_alpha                90
_cell_angle_beta                 101.413(5)
_cell_angle_gamma                90
_cell_volume                     2500.58
_exptl_crystal_colour            yellow
_exptl_crystal_description       needle
_cell_formula_units_Z            4
loop_
_atom_site_label
_atom_site_type_symbol
_atom_site_fract_x
_atom_site_fract_y
_atom_site_fract_z
S1 S 0.447130(16) 0.881713(15) 0.48238(5)
Si1 Si 0.5000 0.68777(2) 0.7500
C1 C 0.40911(6) 0.82501(6) 0.29050(18)
C2 C 0.42191(6) 0.75915(6) 0.35566(18)
C3 C 0.46162(6) 0.75339(6) 0.55807(19)
C4 C 0.47916(6) 0.81657(6) 0.64562(18)
C5 C 0.43242(6) 0.63379(6) 0.83468(18)
C6 C 0.36093(7) 0.64269(7) 0.7593(2)
C7 C 0.31194(7) 0.60302(7) 0.8330(3)
C8 C 0.33377(8) 0.55382(7) 0.9805(3)
C9 C 0.40432(8) 0.54407(7) 1.0566(2)
C10 C 0.45299(7) 0.58388(7) 0.9843(2)
C11 C 0.36897(6) 0.84932(7) 0.09267(19)
C12 C 0.32616(8) 0.80454(7) -0.0390(2)
C13 C 0.28653(9) 0.82709(8) -0.2245(3)
C14 C 0.28805(8) 0.89460(8) -0.2800(3)
C15 C 0.33030(7) 0.93968(8) -0.1518(3)
C16 C 0.37116(7) 0.91721(7) 0.0322(2)
H1 H 0.4056 0.7210 0.2722
H2 H 0.3455 0.6761 0.6569
H3 H 0.2635 0.6099 0.7816
H4 H 0.3004 0.5267 1.0297
H5 H 0.4194 0.5103 1.1579
H6 H 0.5013 0.5770 1.0378
H7 H 0.3241 0.7582 -0.0014
H8 H 0.2582 0.7960 -0.3138
H9 H 0.2602 0.9100 -0.4058
H10 H 0.3314 0.9861 -0.1896
H11 H 0.4009 0.9482 0.1178
S1A S 0.552870(16) 0.881713(15) 1.01762(5)
C1A C 0.59089(6) 0.82501(6) 1.20950(18)
C2A C 0.57809(6) 0.75915(6) 1.14434(18)
C3A C 0.53838(6) 0.75339(6) 0.94193(19)
C4A C 0.52084(6) 0.81657(6) 0.85438(18)
C5A C 0.56758(6) 0.63379(6) 0.66532(18)
C6A C 0.63907(7) 0.64269(7) 0.7407(2)
C7A C 0.68806(7) 0.60302(7) 0.6670(3)
C8A C 0.66623(8) 0.55382(7) 0.5195(3)
C9A C 0.59568(8) 0.54407(7) 0.4434(2)
C10A C 0.54701(7) 0.58388(7) 0.5157(2)
C11A C 0.63103(6) 0.84932(7) 1.40733(19)
C12A C 0.67384(8) 0.80454(7) 1.5390(2)
C13A C 0.71347(9) 0.82709(8) 1.7245(3)
C14A C 0.71195(8) 0.89460(8) 1.7800(3)
C15A C 0.66970(7) 0.93968(8) 1.6518(3)
C16A C 0.62884(7) 0.91721(7) 1.4678(2)
H1A H 0.5944 0.7210 1.2278
H2A H 0.6545 0.6761 0.8431
H3A H 0.7365 0.6099 0.7184
H4A H 0.6996 0.5267 0.4703
H5A H 0.5806 0.5103 0.3421
H6A H 0.4987 0.5770 0.4622
H7A H 0.6759 0.7582 1.5014
H8A H 0.7418 0.7960 1.8138
H9A H 0.7398 0.9100 1.9058
H10A H 0.6686 0.9861 1.6896
H11A H 0.5991 0.9482 1.3822
loop_
_geom_bond_atom_site_label_1
_geom_bond_atom_site_label_2
_geom_bond_site_symmetry_1
_geom_bond_site_symmetry_2
S1 C1 1_555 1_555
Si1 C3 1_555 1_555
C1 C2 1_555 1_555
C2 C3 1_555 1_555
C3 C4 1_555 1_555
C4 S1 1_555 1_555
C5 Si1 1_555 1_555
C6 C5 1_555 1_555
C7 C6 1_555 1_555
C8 C7 1_555 1_555
C9 C8 1_555 1_555
C10 C5 1_555 1_555
C11 C1 1_555 1_555
C12 C11 1_555 1_555
C13 C12 1_555 1_555
C14 C13 1_555 1_555
C15 C14 1_555 1_555
C16 C11 1_555 1_555
H1 C2 1_555 1_555
H2 C6 1_555 1_555
H3 C7 1_555 1_555
H4 C8 1_555 1_555
H5 C9 1_555 1_555
H6 C10 1_555 1_555
H7 C12 1_555 1_555
H8 C13 1_555 1_555
H9 C14 1_555 1_555
H10 C15 1_555 1_555
H11 C16 1_555 1_555
S1A C1A 1_555 1_555
C1A C2A 1_555 1_555
C2A C3A 1_555 1_555
C3A Si1 1_555 1_555
C4A C4 1_555 1_555
C5A Si1 1_555 1_555
C6A C5A 1_555 1_555
C7A C6A 1_555 1_555
C8A C7A 1_555 1_555
C9A C8A 1_555 1_555
C10A C5A 1_555 1_555
C11A C1A 1_555 1_555
C12A C11A 1_555 1_555
C13A C12A 1_555 1_555
C14A C13A 1_555 1_555
C15A C14A 1_555 1_555
C16A C11A 1_555 1_555
H1A C2A 1_555 1_555
H2A C6A 1_555 1_555
H3A C7A 1_555 1_555
H4A C8A 1_555 1_555
H5A C9A 1_555 1_555
H6A C10A 1_555 1_555
H7A C12A 1_555 1_555
H8A C13A 1_555 1_555
H9A C14A 1_555 1_555
H10A C15A 1_555 1_555
H11A C16A 1_555 1_555
C9 C10 1_555 1_555
C15 C16 1_555 1_555
S1A C4A 1_555 1_555
C3A C4A 1_555 1_555
C9A C10A 1_555 1_555
C15A C16A 1_555 1_555

#END
