
#######################################################################
#
#                 Cambridge Crystallographic Data Centre
#                                CCDC 
#
#######################################################################
#
# If this CIF has been generated from an entry in the Cambridge 
# Structural Database, then it will include bibliographic, chemical, 
# crystal, experimental, refinement or atomic coordinate data resulting 
# from the CCDC's data processing and validation procedures.
#
#######################################################################

data_VEGLIE
_chemical_formula_moiety         'C16 H13 N1 O2'
_chemical_name_systematic        
1-(((2-Furylmethyl)iminio)methyl)naphthalen-2-olate
_symmetry_cell_setting           monoclinic
_symmetry_space_group_name_H-M   'P 21/c'
_symmetry_Int_Tables_number      14
_space_group_name_Hall           '-P 2ybc'
loop_
_symmetry_equiv_pos_site_id
_symmetry_equiv_pos_as_xyz
1 x,y,z
2 -x,1/2+y,1/2-z
3 -x,-y,-z
4 x,1/2-y,1/2+z
_cell_length_a                   9.7368(5)
_cell_length_b                   9.5514(4)
_cell_length_c                   13.8091(7)
_cell_angle_alpha                90
_cell_angle_beta                 107.501(5)
_cell_angle_gamma                90
_cell_volume                     1224.8
_cell_formula_units_Z            4
loop_
_atom_site_label
_atom_site_type_symbol
_atom_site_fract_x
_atom_site_fract_y
_atom_site_fract_z
O1 O 0.85874(12) 0.65641(12) 0.23103(9)
C1 C 0.94603(16) 0.47421(15) 0.14799(11)
C2 C 0.83996(17) 0.57563(16) 0.15499(12)
C3 C 0.70834(17) 0.58278(17) 0.07191(12)
H1 H 0.6368 0.6491 0.0746
C4 C 0.68415(17) 0.49776(17) -0.00943(12)
H2 H 0.5959 0.5062 -0.0625
C5 C 0.78651(17) 0.39525(16) -0.01873(11)
C6 C 0.75717(18) 0.30779(17) -0.10483(12)
H3 H 0.6683 0.3172 -0.1571
C7 C 0.85480(19) 0.20937(18) -0.11431(13)
H4 H 0.8342 0.1508 -0.1725
C8 C 0.98464(18) 0.19663(17) -0.03721(12)
H5 H 1.0527 0.1285 -0.0432
C9 C 1.01617(17) 0.28081(17) 0.04742(12)
H6 H 1.1058 0.2698 0.0987
C10 C 0.91859(16) 0.38292(16) 0.05989(11)
C11 C 1.07522(17) 0.46479(16) 0.22700(11)
H7 H 1.1428 0.3960 0.2213
N1 N 1.10994(14) 0.54380(14) 0.30828(10)
H8 H 1.0489 0.6092 0.3135
C12 C 1.24503(18) 0.52928(19) 0.39111(12)
H9 H 1.2568(2) 0.4326(13) 0.4116(3)
H10 H 1.2378(2) 0.5831(7) 0.4483(8)
C13 C 1.37523(17) 0.57513(17) 0.36515(11)
O2 O 1.44225(17) 0.48315(15) 0.32060(11)
C14 C 1.5597(2) 0.5561(3) 0.30719(17)
H11 H 1.6300 0.5170 0.2800
C15 C 1.5591(2) 0.6858(2) 0.33740(14)
H12 H 1.6264 0.7569 0.3353
C16 C 1.4386(2) 0.69975(18) 0.37371(14)
H13 H 1.4086 0.7827 0.3994
loop_
_geom_bond_atom_site_label_1
_geom_bond_atom_site_label_2
_geom_bond_site_symmetry_1
_geom_bond_site_symmetry_2
O1 C2 1_555 1_555
C1 C2 1_555 1_555
C2 C3 1_555 1_555
C3 H1 1_555 1_555
C4 C3 1_555 1_555
H2 C4 1_555 1_555
C5 C4 1_555 1_555
C6 C5 1_555 1_555
H3 C6 1_555 1_555
C7 C6 1_555 1_555
H4 C7 1_555 1_555
C8 C7 1_555 1_555
H5 C8 1_555 1_555
C9 C8 1_555 1_555
H6 C9 1_555 1_555
C10 C1 1_555 1_555
C11 C1 1_555 1_555
H7 C11 1_555 1_555
N1 C11 1_555 1_555
H8 N1 1_555 1_555
C12 N1 1_555 1_555
H9 C12 1_555 1_555
H10 C12 1_555 1_555
C13 C12 1_555 1_555
O2 C13 1_555 1_555
C14 O2 1_555 1_555
H11 C14 1_555 1_555
C15 C14 1_555 1_555
H12 C15 1_555 1_555
C16 C13 1_555 1_555
H13 C16 1_555 1_555
C5 C10 1_555 1_555
C9 C10 1_555 1_555
C15 C16 1_555 1_555

#END
