
#######################################################################
#
#                 Cambridge Crystallographic Data Centre
#                                CCDC 
#
#######################################################################
#
# If this CIF has been generated from an entry in the Cambridge 
# Structural Database, then it will include bibliographic, chemical, 
# crystal, experimental, refinement or atomic coordinate data resulting 
# from the CCDC's data processing and validation procedures.
#
#######################################################################

data_VEGLEZ
_chemical_formula_moiety         'C2 H10 N2 2+,2(C7 H4 N1 O3 S1 1-)'
_chemical_name_systematic        'Ethylenediammonium disaccharinate'
_symmetry_cell_setting           triclinic
_symmetry_space_group_name_H-M   'P -1'
_symmetry_Int_Tables_number      2
_space_group_name_Hall           '-P 1'
loop_
_symmetry_equiv_pos_site_id
_symmetry_equiv_pos_as_xyz
1 x,y,z
2 -x,-y,-z
_cell_length_a                   7.3344(9)
_cell_length_b                   10.0494(12)
_cell_length_c                   13.2454(16)
_cell_angle_alpha                84.741(2)
_cell_angle_beta                 86.943(2)
_cell_angle_gamma                73.305(2)
_cell_volume                     930.808
_exptl_crystal_colour            colorless
_exptl_crystal_description       needle
_cell_formula_units_Z            2
_exptl_crystal_recrystallization_method water
loop_
_atom_site_label
_atom_site_type_symbol
_atom_site_fract_x
_atom_site_fract_y
_atom_site_fract_z
S1 S 0.26054(9) 0.42458(7) 0.69397(4)
N1 N 0.2815(3) 0.4573(2) 0.80964(13)
O1 O 0.1359(3) 0.3377(2) 0.69091(14)
O2 O 0.4447(3) 0.3753(2) 0.64614(13)
O3 O 0.2158(2) 0.64616(19) 0.90294(12)
C1 C 0.1436(3) 0.5968(3) 0.64886(17)
C2 C 0.0775(4) 0.6506(3) 0.55359(19)
H7 H 0.0962 0.5949 0.4994
C3 C -0.0175(4) 0.7907(4) 0.5427(2)
H8 H -0.0659 0.8303 0.4799
C4 C -0.0425(4) 0.8732(3) 0.6223(3)
H9 H -0.1079 0.9673 0.6125
C5 C 0.0284(4) 0.8187(3) 0.7177(2)
H10 H 0.0132 0.8749 0.7713
C6 C 0.1216(3) 0.6784(3) 0.72950(17)
C7 C 0.2097(3) 0.5940(3) 0.82257(16)
S2 S 0.48411(9) 0.06234(6) 0.13583(4)
N2 N 0.3586(3) 0.20223(19) 0.07813(13)
O4 O 0.3861(4) -0.0425(2) 0.14816(16)
O5 O 0.6700(3) 0.0211(2) 0.08873(15)
O6 O 0.2165(3) 0.42760(17) 0.11134(13)
C8 C 0.4929(3) 0.1296(2) 0.25307(16)
C9 C 0.5735(4) 0.0645(3) 0.34250(19)
H11 H 0.6375 -0.0302 0.3486
C10 C 0.5551(4) 0.1461(3) 0.42258(18)
H12 H 0.6073 0.1057 0.4844
C11 C 0.4611(4) 0.2861(3) 0.41301(18)
H13 H 0.4536 0.3392 0.4678
C12 C 0.3770(4) 0.3495(3) 0.32259(16)
H14 H 0.3113 0.4438 0.3166
C13 C 0.3938(3) 0.2690(2) 0.24250(15)
C14 C 0.3136(3) 0.3098(2) 0.13856(16)
N3 N 0.3815(3) 0.6931(2) 0.08137(14)
H1 H 0.3533 0.6461 0.0336
H2 H 0.4894 0.6431 0.1102
H3 H 0.3956 0.7737 0.0536
N4 N -0.0543(3) 0.7217(2) 0.06211(14)
H4 H 0.0254 0.6760 0.0155
H5 H -0.1573 0.7778 0.0322
H6 H -0.0883 0.6609 0.1068
C15 C 0.2265(3) 0.7201(2) 0.15874(16)
H15 H 0.2598 0.7685 0.2119
H16 H 0.2120 0.6320 0.1891
C16 C 0.0414(3) 0.8057(2) 0.11504(19)
H17 H -0.0424 0.8495 0.1692
H18 H 0.0644 0.8790 0.0676
loop_
_geom_bond_atom_site_label_1
_geom_bond_atom_site_label_2
_geom_bond_site_symmetry_1
_geom_bond_site_symmetry_2
S1 N1 1_555 1_555
S2 N2 1_555 1_555
N1 C7 1_555 1_555
N2 C14 1_555 1_555
N3 H1 1_555 1_555
H2 N3 1_555 1_555
H3 N3 1_555 1_555
N4 H4 1_555 1_555
H5 N4 1_555 1_555
H6 N4 1_555 1_555
O1 S1 1_555 1_555
O2 S1 1_555 1_555
O3 C7 1_555 1_555
O4 S2 1_555 1_555
O5 S2 1_555 1_555
O6 C14 1_555 1_555
C1 S1 1_555 1_555
C2 C1 1_555 1_555
H7 C2 1_555 1_555
C3 C2 1_555 1_555
H8 C3 1_555 1_555
C4 C3 1_555 1_555
H9 C4 1_555 1_555
C5 C4 1_555 1_555
H10 C5 1_555 1_555
C6 C1 1_555 1_555
C7 C6 1_555 1_555
C8 S2 1_555 1_555
C9 C8 1_555 1_555
H11 C9 1_555 1_555
C10 C9 1_555 1_555
H12 C10 1_555 1_555
C11 C10 1_555 1_555
H13 C11 1_555 1_555
C12 C11 1_555 1_555
H14 C12 1_555 1_555
C13 C8 1_555 1_555
C14 C13 1_555 1_555
C15 N3 1_555 1_555
H15 C15 1_555 1_555
H16 C15 1_555 1_555
C16 N4 1_555 1_555
H17 C16 1_555 1_555
H18 C16 1_555 1_555
C5 C6 1_555 1_555
C12 C13 1_555 1_555
C15 C16 1_555 1_555

#END
