
#######################################################################
#
#                 Cambridge Crystallographic Data Centre
#                                CCDC 
#
#######################################################################
#
# If this CIF has been generated from an entry in the Cambridge 
# Structural Database, then it will include bibliographic, chemical, 
# crystal, experimental, refinement or atomic coordinate data resulting 
# from the CCDC's data processing and validation procedures.
#
#######################################################################

data_VEHDIW
_chemical_formula_moiety         'C10 F8,C14 H12'
_chemical_name_systematic        
'Octafluoronaphthalene 9,10-dihydrophenanthrene'
_symmetry_cell_setting           orthorhombic
_symmetry_space_group_name_H-M   'P 21 21 21'
_symmetry_Int_Tables_number      19
_space_group_name_Hall           'P 2ac 2ab'
loop_
_symmetry_equiv_pos_site_id
_symmetry_equiv_pos_as_xyz
1 x,y,z
2 1/2-x,-y,1/2+z
3 -x,1/2+y,1/2-z
4 1/2+x,1/2-y,-z
_cell_length_a                   6.457(2)
_cell_length_b                   8.808(2)
_cell_length_c                   32.253(8)
_cell_angle_alpha                90
_cell_angle_beta                 90
_cell_angle_gamma                90
_cell_volume                     1834.33
_exptl_crystal_colour            colorless
_exptl_crystal_description       plate
_chemical_melting_point          '327 K'
_cell_formula_units_Z            4
loop_
_atom_site_label
_atom_site_type_symbol
_atom_site_fract_x
_atom_site_fract_y
_atom_site_fract_z
C1 C 0.4979(4) 0.8157(3) 0.09671(7)
C2 C 0.4500(4) 0.8830(3) 0.13330(8)
C3 C 0.2611(4) 0.8536(3) 0.15243(7)
C4 C 0.1231(4) 0.7581(3) 0.13442(7)
C5 C 0.0306(4) 0.5816(3) 0.07718(7)
C6 C 0.0788(4) 0.5110(3) 0.04110(7)
C7 C 0.2714(4) 0.5378(3) 0.02237(7)
C8 C 0.4065(4) 0.6369(3) 0.03967(7)
C9 C 0.3619(4) 0.7136(3) 0.07707(7)
C10 C 0.1664(3) 0.6841(3) 0.09664(7)
F1 F 0.6820(2) 0.84947(16) 0.07914(4)
F2 F 0.5842(2) 0.97747(16) 0.15187(5)
F3 F 0.2176(2) 0.92029(17) 0.18870(4)
F4 F -0.0577(2) 0.73196(17) 0.15421(4)
F5 F -0.1548(2) 0.55020(16) 0.09422(4)
F6 F -0.0533(2) 0.41469(17) 0.02304(4)
F7 F 0.3180(2) 0.46298(18) -0.01241(4)
F8 F 0.5895(2) 0.66020(18) 0.02035(4)
C11 C 0.2683(4) 0.4879(3) 0.24830(7)
H1 H 0.184(4) 0.470(3) 0.2729(7)
C12 C 0.4260(4) 0.5939(3) 0.24818(7)
H2 H 0.460(4) 0.654(3) 0.2734(7)
C13 C 0.5466(4) 0.6129(3) 0.21290(7)
H3 H 0.662(4) 0.684(3) 0.2129(7)
C14 C 0.5054(3) 0.5257(3) 0.17808(7)
H4 H 0.593(4) 0.536(3) 0.1539(7)
C15 C 0.4510(4) 0.3005(3) 0.10916(7)
H5 H 0.591(4) 0.349(3) 0.1107(7)
C16 C 0.4041(4) 0.2140(3) 0.07437(7)
H6 H 0.504(4) 0.203(3) 0.0523(7)
C17 C 0.2110(4) 0.1467(3) 0.07054(7)
H7 H 0.178(4) 0.089(3) 0.0459(7)
C18 C 0.0665(4) 0.1648(3) 0.10178(7)
H8 H -0.067(4) 0.116(3) 0.0991(8)
C19 C -0.0469(4) 0.2741(3) 0.17098(7)
H9 H -0.151(4) 0.190(3) 0.1679(7)
H10 H -0.124(3) 0.372(3) 0.1671(7)
C20 C 0.0566(4) 0.2825(3) 0.21347(7)
H11 H 0.115(4) 0.186(3) 0.2208(7)
H12 H -0.047(4) 0.310(3) 0.2361(8)
C21 C 0.2265(3) 0.3987(2) 0.21341(7)
C22 C 0.3489(3) 0.4174(3) 0.17766(7)
C23 C 0.3046(3) 0.3215(3) 0.14058(7)
C24 C 0.1105(3) 0.2509(3) 0.13705(7)
loop_
_geom_bond_atom_site_label_1
_geom_bond_atom_site_label_2
_geom_bond_site_symmetry_1
_geom_bond_site_symmetry_2
C1 C2 1_555 1_555
C2 C3 1_555 1_555
C3 C4 1_555 1_555
C4 C10 1_555 1_555
C5 C6 1_555 1_555
C6 C7 1_555 1_555
C7 C8 1_555 1_555
C8 C9 1_555 1_555
C9 C1 1_555 1_555
C10 C5 1_555 1_555
F1 C1 1_555 1_555
F2 C2 1_555 1_555
F3 C3 1_555 1_555
F4 C4 1_555 1_555
F5 C5 1_555 1_555
F6 C6 1_555 1_555
F7 C7 1_555 1_555
F8 C8 1_555 1_555
C11 H1 1_555 1_555
C12 C11 1_555 1_555
H2 C12 1_555 1_555
C13 C12 1_555 1_555
H3 C13 1_555 1_555
C14 C13 1_555 1_555
H4 C14 1_555 1_555
C15 H5 1_555 1_555
C16 C15 1_555 1_555
H6 C16 1_555 1_555
C17 C16 1_555 1_555
H7 C17 1_555 1_555
C18 C17 1_555 1_555
H8 C18 1_555 1_555
C19 H9 1_555 1_555
H10 C19 1_555 1_555
C20 C19 1_555 1_555
H11 C20 1_555 1_555
H12 C20 1_555 1_555
C21 C11 1_555 1_555
C22 C14 1_555 1_555
C23 C15 1_555 1_555
C24 C18 1_555 1_555
C9 C10 1_555 1_555
C19 C24 1_555 1_555
C20 C21 1_555 1_555
C21 C22 1_555 1_555
C22 C23 1_555 1_555
C23 C24 1_555 1_555

#END
