
#######################################################################
#
#                 Cambridge Crystallographic Data Centre
#                                CCDC 
#
#######################################################################
#
# If this CIF has been generated from an entry in the Cambridge 
# Structural Database, then it will include bibliographic, chemical, 
# crystal, experimental, refinement or atomic coordinate data resulting 
# from the CCDC's data processing and validation procedures.
#
#######################################################################

data_VEHGAT
_chemical_name_common            'ilamycin D'
_chemical_formula_moiety         'C54 H75 N9 O13'
_chemical_name_systematic        
'3-(8-(but-2-en-1-yl)-17-(4-hydroxy-3-nitrobenzyl)-5,14-di-isobutyl-1,13,20-trimethyl-11-((1-(2-(oxiran-2-yl)propan-2-yl)-1H-indol-3-yl)methyl)-3,6,9,12,15,18,21-heptaoxo-1,4,7,10,13,16,19-hepta-azacyclohenicosan-2-yl)-2-methylpropanoic acid'
_chemical_properties_biological  'anti-mycobacterial activity'
_symmetry_cell_setting           orthorhombic
_symmetry_space_group_name_H-M   'P 21 21 21'
_symmetry_Int_Tables_number      19
_space_group_name_Hall           'P 2ac 2ab'
loop_
_symmetry_equiv_pos_site_id
_symmetry_equiv_pos_as_xyz
1 x,y,z
2 1/2-x,-y,1/2+z
3 1/2+x,1/2-y,-z
4 -x,1/2+y,1/2-z
_cell_length_a                   15.8709(2)
_cell_length_b                   18.8030(3)
_cell_length_c                   22.3506(3)
_cell_angle_alpha                90
_cell_angle_beta                 90
_cell_angle_gamma                90
_cell_volume                     6669.88
_exptl_crystal_colour            yellow
_exptl_crystal_description       block
_cell_formula_units_Z            4
loop_
_atom_site_label
_atom_site_type_symbol
_atom_site_fract_x
_atom_site_fract_y
_atom_site_fract_z
O1 O -0.4029(2) -0.1479(2) -0.26229(19)
O2 O -0.5261(3) -0.0131(2) -0.22892(19)
O3 O -0.5748(3) 0.1229(2) -0.1335(2)
N1 N -0.3662(3) -0.2457(3) -0.3154(2)
H1 H -0.3819 -0.2879 -0.3283
N2 N -0.5612(3) -0.1822(2) -0.25105(19)
H2 H -0.5379 -0.1418 -0.2398
O4 O -0.6723(3) -0.2556(2) -0.2414(2)
N3 N -0.4351(3) 0.0551(3) -0.1781(2)
H3 H -0.3947 0.0872 -0.1798
N4 N -0.3544(3) -0.0103(3) -0.2935(2)
H4 H -0.3604 -0.0508 -0.2743
N5 N -0.0029(3) -0.2381(3) -0.3811(2)
O5 O -0.7189(3) -0.1349(3) -0.0827(2)
N6 N -0.6451(3) -0.0928(3) -0.1635(2)
H5 H -0.6046 -0.0642 -0.1756
C1 C -0.5135(3) -0.2300(3) -0.2885(2)
H6 H -0.5161 -0.2789 -0.2710
N7 N -0.5424(4) 0.2946(5) -0.3839(3)
C2 C -0.4177(3) 0.0457(3) -0.2857(3)
H7 H -0.3888 0.0926 -0.2806
N8 N -0.6167(3) 0.0254(3) -0.0838(3)
C3 C -0.4683(4) 0.0332(3) -0.1207(3)
H8 H -0.4691 -0.0199 -0.1181
C4 C -0.2778(3) -0.2217(4) -0.3252(3)
H9 H -0.2581 -0.1908 -0.2916
C5 C -0.0700(4) -0.2566(3) -0.2922(3)
C6 C -0.4763(4) 0.0492(3) -0.3397(3)
H10 H -0.4416 0.0518 -0.3765
H11 H -0.5095 0.0047 -0.3415
C7 C -0.4652(3) 0.0271(3) -0.2285(3)
O6 O -0.7115(4) 0.2764(4) -0.3364(3)
H12 H -0.6964 0.3097 -0.3590
N9 N -0.2626(4) -0.1094(4) -0.3864(3)
C8 C -0.5477(3) -0.2322(3) -0.3526(2)
H13 H -0.5153 -0.2680 -0.3756
H14 H -0.6071 -0.2483 -0.3514
C9 C -0.5774(5) 0.2300(3) -0.3589(3)
O7 O -0.5856(6) 0.3487(3) -0.3860(3)
C10 C -0.6402(3) -0.1969(3) -0.2326(3)
O8 O -0.2989(4) -0.2132(4) -0.4296(2)
C11 C -0.5438(4) -0.1616(4) -0.3855(3)
H15 H -0.4901 -0.1411 -0.3929
C12 C -0.5586(4) 0.0626(3) -0.1139(3)
C13 C -0.6637(4) -0.0964(3) -0.1042(3)
O9 O -0.4702(4) 0.3028(4) -0.4020(3)
C14 C -0.4222(4) -0.2042(3) -0.2872(2)
C15 C -0.0863(4) -0.2540(4) -0.3920(3)
H16 H -0.1108 -0.2564 -0.4307
O10 O -0.2740(3) 0.0544(3) -0.3549(3)
C16 C -0.6909(3) -0.1354(4) -0.2080(3)
H17 H -0.7413 -0.1560 -0.1874
C17 C 0.0083(3) -0.2397(4) -0.3192(2)
C18 C 0.0617(4) -0.2185(4) -0.4259(3)
C19 C -0.6002(6) -0.1266(5) 0.0264(3)
H18 H -0.6273 -0.1618 -0.0011
C20 C -0.6094(4) -0.0477(3) -0.0645(3)
H19 H -0.5494 -0.0621 -0.0704
C21 C -0.0755(5) -0.2623(4) -0.2310(3)
H20 H -0.1278 -0.2731 -0.2125
C22 C -0.7010(5) 0.0573(4) -0.0784(4)
H21 H -0.7012 0.1042 -0.0976
H22 H -0.7154 0.0626 -0.0360
H23 H -0.7425 0.0265 -0.0980
C23 C -0.2876(4) -0.0010(4) -0.3294(4)
C24 C -0.1292(4) -0.2659(4) -0.3399(3)
C25 C -0.2235(4) -0.2850(4) -0.3317(4)
H24 H -0.2426 -0.3129 -0.3667
H25 H -0.2297 -0.3153 -0.2958
C26 C -0.2798(4) -0.1803(5) -0.3842(3)
C27 C 0.0727(5) -0.2360(5) -0.2244(3)
H26 H 0.1212 -0.2305 -0.2000
C28 C -0.6100(5) -0.1281(4) -0.4040(3)
H27 H -0.6636 -0.1482 -0.3954
C29 C -0.2308(4) -0.0663(4) -0.3365(3)
H28 H -0.2351 -0.0953 -0.2991
C30 C 0.0798(4) -0.2280(4) -0.2846(3)
H29 H 0.1319 -0.2150 -0.3024
C31 C -0.6298(5) -0.0581(4) 0.0018(3)
H30 H -0.6037 -0.0189 0.0249
H31 H -0.6915 -0.0548 0.0073
C32 C -0.0054(5) -0.2523(5) -0.1973(3)
H32 H -0.0089 -0.2562 -0.1550
C33 C -0.7231(4) -0.0890(4) -0.2582(4)
H33 H -0.6742 -0.0718 -0.2815
H34 H -0.7577 -0.1188 -0.2852
C34 C -0.4154(5) 0.0637(5) -0.0701(3)
H35 H -0.3576 0.0457 -0.0732
H36 H -0.4396 0.0495 -0.0316
H37 H -0.4148 0.1157 -0.0729
C35 C -0.6555(6) 0.2271(5) -0.3370(4)
C36 C 0.0307(5) -0.2358(6) -0.4887(3)
H38 H 0.0766 -0.2285 -0.5174
H39 H -0.0165 -0.2045 -0.4989
H40 H 0.0121 -0.2854 -0.4903
C37 C 0.1397(4) -0.2607(6) -0.4156(3)
H41 H 0.1281 -0.3114 -0.4047
C38 C -0.6183(5) 0.1012(4) -0.3134(4)
H42 H -0.6340 0.0567 -0.2966
C39 C -0.5121(5) 0.1735(6) -0.3594(3)
H43 H -0.4566 0.1818 -0.3737
C40 C -0.5361(6) 0.1114(4) -0.3389(3)
C41 C -0.7749(5) -0.0257(5) -0.2395(4)
H44 H -0.7360 0.0092 -0.2200
C42 C -0.6428(8) -0.1446(7) 0.0878(4)
H45 H -0.6218 -0.1905 0.1023
H46 H -0.7041 -0.1472 0.0825
H47 H -0.6293 -0.1074 0.1169
C43 C -0.1403(5) -0.0454(6) -0.3449(5)
H48 H -0.1059 -0.0886 -0.3518
H49 H -0.1352 -0.0146 -0.3807
C44 C 0.2203(5) -0.2510(7) -0.4461(4)
H50 H 0.2541 -0.2940 -0.4551
H51 H 0.2246 -0.2124 -0.4760
C45 C -0.2693(7) -0.0738(7) -0.4455(4)
H52 H -0.2224 -0.0889 -0.4710
H53 H -0.2670 -0.0221 -0.4400
H54 H -0.3228 -0.0868 -0.4644
C46 C -0.6076(9) -0.0575(6) -0.4393(5)
H55 H -0.6462 -0.0605 -0.4734
H56 H -0.5502 -0.0489 -0.4537
H57 H -0.6249 -0.0184 -0.4131
C47 C -0.6755(5) 0.1592(5) -0.3139(4)
H58 H -0.7302 0.1519 -0.2978
C48 C 0.0812(7) -0.1372(5) -0.4204(4)
H59 H 0.0298 -0.1099 -0.4284
H60 H 0.1247 -0.1241 -0.4494
H61 H 0.1012 -0.1268 -0.3798
C49 C -0.1082(6) -0.0077(5) -0.2930(6)
H62 H -0.1544 0.0239 -0.2783
C50 C -0.8448(6) -0.0407(7) -0.1967(6)
H63 H -0.8791 0.0022 -0.1915
H64 H -0.8212 -0.0550 -0.1580
H65 H -0.8801 -0.0791 -0.2125
C51 C -0.8123(8) 0.0095(7) -0.2935(6)
H66 H -0.7672 0.0309 -0.3175
H67 H -0.8517 0.0467 -0.2807
H68 H -0.8423 -0.0259 -0.3175
C52 C -0.0322(8) 0.0397(8) -0.3067(11)
H69 H -0.0479 0.0752 -0.3368
H70 H 0.0141 0.0105 -0.3221
H71 H -0.0141 0.0639 -0.2700
C53 C -0.0862(9) -0.0602(7) -0.2414(7)
H72 H -0.0399 -0.0913 -0.2539
H73 H -0.1358 -0.0892 -0.2319
H74 H -0.0692 -0.0332 -0.2059
O11 O 0.2097(3) -0.2313(5) -0.3841(3)
O12 O -0.4679(11) -0.0958(13) 0.0279(8)
H75 H -0.4195 -0.1070 0.0160
O13 O -0.4909(10) -0.2128(10) 0.0367(6)
C54 C -0.515(2) -0.152(4) 0.0291(8)
H76? H -0.6103 -0.1658 -0.0030
O14? O -0.4572(12) -0.1687(12) 0.0512(7)
O15? O -0.4571(10) -0.0543(16) 0.0282(8)
H77? H -0.4123 -0.0622 0.0093
C55? C -0.497(2) -0.116(3) 0.0381(15)
loop_
_geom_bond_atom_site_label_1
_geom_bond_atom_site_label_2
_geom_bond_site_symmetry_1
_geom_bond_site_symmetry_2
O1 C14 1_555 1_555
O2 C7 1_555 1_555
O3 C12 1_555 1_555
N1 H1 1_555 1_555
N2 H2 1_555 1_555
O4 C10 1_555 1_555
N3 H3 1_555 1_555
N4 H4 1_555 1_555
N5 C15 1_555 1_555
O5 C13 1_555 1_555
N6 H5 1_555 1_555
C1 N2 1_555 1_555
H6 C1 1_555 1_555
N7 C9 1_555 1_555
C2 N4 1_555 1_555
H7 C2 1_555 1_555
N8 C12 1_555 1_555
C3 N3 1_555 1_555
H8 C3 1_555 1_555
C4 N1 1_555 1_555
H9 C4 1_555 1_555
C5 C17 1_555 1_555
C6 C2 1_555 1_555
H10 C6 1_555 1_555
H11 C6 1_555 1_555
C7 N3 1_555 1_555
O6 H12 1_555 1_555
N9 C26 1_555 1_555
C8 C1 1_555 1_555
H13 C8 1_555 1_555
H14 C8 1_555 1_555
C9 C35 1_555 1_555
O7 N7 1_555 1_555
C10 N2 1_555 1_555
O8 C26 1_555 1_555
C11 C8 1_555 1_555
H15 C11 1_555 1_555
C12 C3 1_555 1_555
C13 N6 1_555 1_555
O9 N7 1_555 1_555
C14 N1 1_555 1_555
C15 H16 1_555 1_555
O10 C23 1_555 1_555
C16 N6 1_555 1_555
H17 C16 1_555 1_555
C17 N5 1_555 1_555
C18 N5 1_555 1_555
C19 H18 1_555 1_555
C20 N8 1_555 1_555
H19 C20 1_555 1_555
C21 C5 1_555 1_555
H20 C21 1_555 1_555
C22 N8 1_555 1_555
H21 C22 1_555 1_555
H22 C22 1_555 1_555
H23 C22 1_555 1_555
C23 N4 1_555 1_555
C24 C5 1_555 1_555
C25 C4 1_555 1_555
H24 C25 1_555 1_555
H25 C25 1_555 1_555
C26 C4 1_555 1_555
C27 H26 1_555 1_555
C28 C11 1_555 1_555
H27 C28 1_555 1_555
C29 N9 1_555 1_555
H28 C29 1_555 1_555
C30 C17 1_555 1_555
H29 C30 1_555 1_555
C31 C19 1_555 1_555
H30 C31 1_555 1_555
H31 C31 1_555 1_555
C32 C21 1_555 1_555
H32 C32 1_555 1_555
C33 C16 1_555 1_555
H33 C33 1_555 1_555
H34 C33 1_555 1_555
C34 C3 1_555 1_555
H35 C34 1_555 1_555
H36 C34 1_555 1_555
H37 C34 1_555 1_555
C35 O6 1_555 1_555
C36 C18 1_555 1_555
H38 C36 1_555 1_555
H39 C36 1_555 1_555
H40 C36 1_555 1_555
C37 C18 1_555 1_555
H41 C37 1_555 1_555
C38 H42 1_555 1_555
C39 C9 1_555 1_555
H43 C39 1_555 1_555
C40 C6 1_555 1_555
C41 C33 1_555 1_555
H44 C41 1_555 1_555
C42 C19 1_555 1_555
H45 C42 1_555 1_555
H46 C42 1_555 1_555
H47 C42 1_555 1_555
C43 C29 1_555 1_555
H48 C43 1_555 1_555
H49 C43 1_555 1_555
C44 C37 1_555 1_555
H50 C44 1_555 1_555
H51 C44 1_555 1_555
C45 N9 1_555 1_555
H52 C45 1_555 1_555
H53 C45 1_555 1_555
H54 C45 1_555 1_555
C46 C28 1_555 1_555
H55 C46 1_555 1_555
H56 C46 1_555 1_555
H57 C46 1_555 1_555
C47 C35 1_555 1_555
H58 C47 1_555 1_555
C48 C18 1_555 1_555
H59 C48 1_555 1_555
H60 C48 1_555 1_555
H61 C48 1_555 1_555
C49 C43 1_555 1_555
H62 C49 1_555 1_555
C50 C41 1_555 1_555
H63 C50 1_555 1_555
H64 C50 1_555 1_555
H65 C50 1_555 1_555
C51 C41 1_555 1_555
H66 C51 1_555 1_555
H67 C51 1_555 1_555
H68 C51 1_555 1_555
C52 C49 1_555 1_555
H69 C52 1_555 1_555
H70 C52 1_555 1_555
H71 C52 1_555 1_555
C53 C49 1_555 1_555
H72 C53 1_555 1_555
H73 C53 1_555 1_555
H74 C53 1_555 1_555
O11 C37 1_555 1_555
O12 H75 1_555 1_555
O13 C54 1_555 1_555
C54 C19 1_555 1_555
C1 C14 1_555 1_555
C2 C7 1_555 1_555
C10 C16 1_555 1_555
C13 C20 1_555 1_555
C15 C24 1_555 1_555
C20 C31 1_555 1_555
C23 C29 1_555 1_555
C24 C25 1_555 1_555
C27 C30 1_555 1_555
C27 C32 1_555 1_555
C38 C40 1_555 1_555
C38 C47 1_555 1_555
C39 C40 1_555 1_555
C44 O11 1_555 1_555
O12 C54 1_555 1_555

#END
