
#######################################################################
#
#                 Cambridge Crystallographic Data Centre
#                                CCDC 
#
#######################################################################
#
# If this CIF has been generated from an entry in the Cambridge 
# Structural Database, then it will include bibliographic, chemical, 
# crystal, experimental, refinement or atomic coordinate data resulting 
# from the CCDC's data processing and validation procedures.
#
#######################################################################

data_VEHKUR
_chemical_compound_source        
'air-dried stem bark of Toona ciliata Roem. var. yunnanensis'
_chemical_name_common            'Tooniliatone A'
_chemical_formula_moiety         'C31 H38 O9'
_chemical_name_systematic        
'3-(furan-3-yl)-1-hydroxy-7-(2-methoxy-2-oxoethyl)-3a,8,8-trimethyl-6-methylidene-9-oxo-1,2,3,3a,4,5,5a,5b,6,7,8,9,9a,10-tetradecahydrocyclopenta[a]fluorene-4,5-diyl diacetate'
_symmetry_cell_setting           monoclinic
_symmetry_space_group_name_H-M   'P 21'
_symmetry_Int_Tables_number      4
_space_group_name_Hall           'P 2yb'
loop_
_symmetry_equiv_pos_site_id
_symmetry_equiv_pos_as_xyz
1 x,y,z
2 -x,1/2+y,-z
_cell_length_a                   7.90440(10)
_cell_length_b                   11.5678(2)
_cell_length_c                   15.8146(2)
_cell_angle_alpha                90
_cell_angle_beta                 98.2670(10)
_cell_angle_gamma                90
_cell_volume                     1431.01
_exptl_crystal_colour            white
_exptl_crystal_description       block
_cell_formula_units_Z            2
loop_
_atom_site_label
_atom_site_type_symbol
_atom_site_fract_x
_atom_site_fract_y
_atom_site_fract_z
O1 O 0.3936(2) 0.61461(12) 0.76489(10)
O2 O 0.10948(18) 0.53131(14) 0.82343(10)
O3 O -0.1172(2) 0.01809(18) 0.64612(12)
O4 O -0.1144(2) 0.4736(2) 0.73018(16)
O5 O 0.4404(3) 0.09438(14) 0.83765(12)
H1 H 0.3437 0.0977 0.8109
O6 O 0.0958(3) 0.07301(19) 0.74565(12)
O7 O 0.6012(3) 0.1443(2) 0.50864(14)
C1 C 0.4515(3) 0.30754(17) 0.83080(13)
C2 C 0.3287(2) 0.38983(18) 0.86622(13)
C3 C 0.2197(2) 0.44798(17) 0.79035(13)
H2 H 0.1472 0.3887 0.7592
C4 C 0.6135(3) 0.2497(2) 0.70852(14)
H3 H 0.5844 0.1693 0.7163
H4 H 0.7347 0.2602 0.7277
C5 C 0.2210(3) 0.3022(2) 0.91101(14)
H5 H 0.1504 0.2598 0.8652
O8 O 0.1756(3) 0.72163(18) 0.69873(17)
C6 C 0.2500(3) 0.33522(19) 0.58543(13)
C7 C 0.4286(3) 0.38251(18) 0.60976(14)
H6 H 0.4505 0.4423 0.5688
C8 C 0.4607(3) 0.43297(17) 0.70187(14)
H7 H 0.5631 0.4815 0.7054
C9 C 0.5089(2) 0.32820(17) 0.75726(14)
C10 C 0.3285(3) 0.13328(19) 0.55634(14)
C11 C -0.0548(3) 0.5351(2) 0.78692(17)
C12 C 0.3176(3) 0.50920(17) 0.72706(14)
H8 H 0.2381 0.5288 0.6756
C13 C 0.0403(3) 0.1785(2) 0.61322(16)
H9 H -0.0219 0.2467 0.6268
H10 H -0.0082 0.1535 0.5563
C14 C 0.5079(3) 0.1847(2) 0.55518(14)
C15 C 0.4763(3) 0.19855(19) 0.88569(14)
H11 H 0.5945 0.1960 0.9146
C16 C 0.3063(4) 0.7141(2) 0.74719(18)
C17 C 0.4248(3) 0.4773(2) 0.92886(15)
H12 H 0.3440 0.5278 0.9500
H13 H 0.5011 0.5221 0.8999
H14 H 0.4891 0.4367 0.9758
C18 C 0.5667(3) 0.2862(2) 0.61255(15)
H15 H 0.6687 0.3195 0.5934
C19 C 0.3560(3) 0.2162(2) 0.95254(15)
H16 H 0.4175 0.2476 1.0050
H17 H 0.3033 0.1437 0.9653
C20 C 0.2279(3) 0.21136(19) 0.61253(13)
H18 H 0.2854 0.2045 0.6715
C21 C 0.0146(3) 0.0849(2) 0.67550(14)
C22 C 0.1300(3) 0.3982(2) 0.54007(17)
H19 H 0.1551 0.4723 0.5228
H20 H 0.0204 0.3683 0.5254
C23 C 0.1328(4) 0.4114(3) 1.04570(19)
H21 H 0.2393 0.4328 1.0743
O9 O -0.1470(3) 0.3913(3) 1.01457(18)
C24 C 0.2406(4) 0.1259(3) 0.46337(16)
H22 H 0.1280 0.0941 0.4620
H23 H 0.3063 0.0770 0.4313
H24 H 0.2325 0.2018 0.4387
C25 C 0.1005(3) 0.3489(2) 0.96752(16)
C26 C 0.3514(4) 0.0105(2) 0.59328(18)
H25 H 0.4056 0.0144 0.6516
H26 H 0.4212 -0.0338 0.5604
H27 H 0.2416 -0.0258 0.5910
C27 C -0.1482(4) 0.6271(3) 0.8281(3)
H28 H -0.1051 0.7016 0.8151
H29 H -0.1312 0.6159 0.8889
H30 H -0.2680 0.6228 0.8068
C28 C -0.0698(4) 0.3407(4) 0.9527(2)
H31 H -0.1292 0.3042 0.9050
C29 C 0.3943(5) 0.8115(2) 0.7983(3)
H32 H 0.4965 0.7832 0.8322
H33 H 0.3194 0.8428 0.8352
H34 H 0.4233 0.8707 0.7604
C30 C -0.1596(5) -0.0740(3) 0.7009(2)
H35 H -0.2571 -0.1155 0.6730
H36 H -0.1857 -0.0420 0.7535
H37 H -0.0642 -0.1258 0.7127
C31 C -0.0179(5) 0.4337(4) 1.0702(2)
H38 H -0.0320 0.4737 1.1197
loop_
_geom_bond_atom_site_label_1
_geom_bond_atom_site_label_2
_geom_bond_site_symmetry_1
_geom_bond_site_symmetry_2
O1 C12 1_555 1_555
O2 C3 1_555 1_555
O3 C21 1_555 1_555
O4 C11 1_555 1_555
O5 H1 1_555 1_555
O6 C21 1_555 1_555
O7 C14 1_555 1_555
C1 C2 1_555 1_555
C2 C3 1_555 1_555
C3 H2 1_555 1_555
C4 H3 1_555 1_555
H4 C4 1_555 1_555
C5 C2 1_555 1_555
H5 C5 1_555 1_555
O8 C16 1_555 1_555
C6 C7 1_555 1_555
C7 H6 1_555 1_555
C8 C7 1_555 1_555
H7 C8 1_555 1_555
C9 C1 1_555 1_555
C10 C14 1_555 1_555
C11 O2 1_555 1_555
C12 C3 1_555 1_555
H8 C12 1_555 1_555
C13 H9 1_555 1_555
H10 C13 1_555 1_555
C14 C18 1_555 1_555
C15 O5 1_555 1_555
H11 C15 1_555 1_555
C16 O1 1_555 1_555
C17 C2 1_555 1_555
H12 C17 1_555 1_555
H13 C17 1_555 1_555
H14 C17 1_555 1_555
C18 C4 1_555 1_555
H15 C18 1_555 1_555
C19 C5 1_555 1_555
H16 C19 1_555 1_555
H17 C19 1_555 1_555
C20 C6 1_555 1_555
H18 C20 1_555 1_555
C21 C13 1_555 1_555
C22 C6 1_555 1_555
H19 C22 1_555 1_555
H20 C22 1_555 1_555
C23 H21 1_555 1_555
O9 C28 1_555 1_555
C24 C10 1_555 1_555
H22 C24 1_555 1_555
H23 C24 1_555 1_555
H24 C24 1_555 1_555
C25 C5 1_555 1_555
C26 C10 1_555 1_555
H25 C26 1_555 1_555
H26 C26 1_555 1_555
H27 C26 1_555 1_555
C27 C11 1_555 1_555
H28 C27 1_555 1_555
H29 C27 1_555 1_555
H30 C27 1_555 1_555
C28 C25 1_555 1_555
H31 C28 1_555 1_555
C29 C16 1_555 1_555
H32 C29 1_555 1_555
H33 C29 1_555 1_555
H34 C29 1_555 1_555
C30 O3 1_555 1_555
H35 C30 1_555 1_555
H36 C30 1_555 1_555
H37 C30 1_555 1_555
C31 C23 1_555 1_555
H38 C31 1_555 1_555
C1 C15 1_555 1_555
C4 C9 1_555 1_555
C7 C18 1_555 1_555
C8 C9 1_555 1_555
C8 C12 1_555 1_555
C10 C20 1_555 1_555
C13 C20 1_555 1_555
C15 C19 1_555 1_555
C23 C25 1_555 1_555
O9 C31 1_555 1_555

#END
