
#######################################################################
#
#                 Cambridge Crystallographic Data Centre
#                                CCDC 
#
#######################################################################
#
# If this CIF has been generated from an entry in the Cambridge 
# Structural Database, then it will include bibliographic, chemical, 
# crystal, experimental, refinement or atomic coordinate data resulting 
# from the CCDC's data processing and validation procedures.
#
#######################################################################

data_VEHLOL
_chemical_formula_moiety         'C31 H22 N6'
_chemical_name_systematic        
4'-(4-(2-(4-(1H-1,2,4-Triazol-1-yl)phenyl)vinyl)phenyl)-2,2':6',2''-terpyridine
_symmetry_cell_setting           monoclinic
_symmetry_space_group_name_H-M   'P 21/c'
_symmetry_Int_Tables_number      14
_space_group_name_Hall           '-P 2ybc'
loop_
_symmetry_equiv_pos_site_id
_symmetry_equiv_pos_as_xyz
1 x,y,z
2 -x,1/2+y,1/2-z
3 -x,-y,-z
4 x,1/2-y,1/2+z
_cell_length_a                   9.5127(19)
_cell_length_b                   46.843(9)
_cell_length_c                   11.521(2)
_cell_angle_alpha                90
_cell_angle_beta                 113.441(3)
_cell_angle_gamma                90
_cell_volume                     4710.11
_exptl_crystal_colour            yellow
_exptl_crystal_description       cuboid
_cell_formula_units_Z            8
loop_
_atom_site_label
_atom_site_type_symbol
_atom_site_fract_x
_atom_site_fract_y
_atom_site_fract_z
N1 N 0.6996(4) 0.18382(7) 0.4337(3)
C1 C 0.4378(5) 0.12134(9) 0.1588(4)
C2 C 0.6163(5) 0.16403(10) 0.4616(4)
N4 N -0.1870(4) -0.05224(8) -0.4474(3)
C3 C 0.6968(5) 0.18353(9) 0.3167(4)
N5 N 0.7795(4) 0.20692(8) 0.1691(4)
C6 C 0.5261(5) 0.14335(9) 0.2529(4)
C9 C 0.2777(5) 0.07865(9) -0.0157(4)
C10 C 0.5274(5) 0.14379(9) 0.3747(4)
H1 H 0.4695 0.1307 0.3975
C11 C -0.1086(4) -0.03071(9) -0.3579(4)
C14 C 0.0334(5) -0.01634(9) -0.1455(4)
H3 H 0.0765 -0.0209 -0.0600
C18 C -0.0428(5) -0.03732(9) -0.2312(4)
H6 H -0.0497 -0.0557 -0.2038
C21 C 0.7879(5) 0.20585(9) 0.2874(5)
C23 C 0.1889(5) 0.05743(9) -0.1095(4)
H9 H 0.1654 0.0620 -0.1937
C24 C -0.1004(5) -0.00326(9) -0.3982(4)
H10 H -0.1470 0.0013 -0.4837
N6 N 0.5404(5) 0.14457(8) 0.6223(4)
C27 C 0.6220(5) 0.16458(10) 0.5936(4)
C28 C 0.6138(5) 0.16381(9) 0.2259(4)
H12 H 0.6169 0.1643 0.1463
C30 C 0.3968(5) 0.12481(10) 0.0311(4)
H14 H 0.4228 0.1417 0.0019
C31 C 0.0485(5) 0.01142(9) -0.1815(4)
C36 C 0.9493(6) 0.24692(10) 0.2281(6)
H18 H 1.0025 0.2608 0.2044
C37 C 0.1385(5) 0.03257(9) -0.0885(4)
H19 H 0.1632 0.0279 -0.0042
C38 C 0.3967(5) 0.09568(10) 0.1978(4)
H20 H 0.4225 0.0926 0.2835
C39 C 0.3190(5) 0.10419(10) -0.0546(4)
H21 H 0.2933 0.1073 -0.1403
N9 N -0.2166(5) -0.07824(9) -0.4123(4)
C41 C 0.8762(5) 0.22488(10) 0.3787(4)
H23 H 0.8800 0.2236 0.4605
C43 C -0.0223(5) 0.01745(9) -0.3105(4)
H25 H -0.0168 0.0359 -0.3384
C46 C 0.3187(5) 0.07481(10) 0.1121(4)
H28 H 0.2932 0.0579 0.1411
N10 N -0.3019(5) -0.07617(10) -0.6233(4)
C47 C -0.2384(6) -0.05169(11) -0.5724(5)
H29 H -0.2307 -0.0360 -0.6187
C49 C 0.7110(6) 0.18424(11) 0.6809(5)
H31 H 0.7647 0.1982 0.6582
C51 C -0.2837(6) -0.09146(11) -0.5206(5)
H33 H -0.3165 -0.1103 -0.5256
C52 C 0.8596(6) 0.22720(11) 0.1421(5)
H34 H 0.8547 0.2281 0.0599
C55 C 0.9582(6) 0.24560(11) 0.3496(6)
H37 H 1.0184 0.2585 0.4107
C58 C 0.5510(6) 0.14388(12) 0.7413(5)
H40 H 0.4947 0.1301 0.7623
C60 C 0.7186(7) 0.18277(12) 0.8031(5)
H42 H 0.7777 0.1959 0.8634
C62 C 0.6401(7) 0.16225(13) 0.8352(5)
H44 H 0.6461 0.1606 0.9175
N2 N 1.2054(4) 0.18572(7) 0.3832(3)
N3 N 0.3078(4) -0.05754(8) -0.4346(3)
C4 C 1.0290(5) 0.14444(9) 0.2101(4)
C5 C 0.9385(5) 0.12241(9) 0.1201(4)
C7 C 0.3870(5) -0.03483(10) -0.3539(4)
C8 C 1.1254(5) 0.16590(10) 0.4159(4)
C12 C 0.3397(5) -0.02569(10) -0.2610(4)
H2 H 0.2589 -0.0348 -0.2500
C13 C 0.7723(5) 0.07879(10) -0.0480(4)
C15 C 1.1107(5) 0.16518(9) 0.1765(4)
H4 H 1.1067 0.1656 0.0945
C16 C 1.2884(5) 0.20737(9) 0.2324(4)
C17 C 1.0384(5) 0.14544(9) 0.3331(4)
H5 H 0.9852 0.1321 0.3600
C19 C 1.1335(5) 0.16804(10) 0.5471(4)
C20 C 0.8215(5) 0.10793(9) 0.1373(4)
H7 H 0.7977 0.1127 0.2057
C22 C 0.5081(5) -0.02148(10) -0.3677(4)
H8 H 0.5419 -0.0278 -0.4288
C25 C 0.5321(5) 0.01145(9) -0.1988(4)
C26 C 0.9672(5) 0.11501(10) 0.0153(4)
H11 H 1.0432 0.1247 -0.0005
N7 N 0.1845(5) -0.06999(9) -0.4235(4)
N8 N 1.0523(5) 0.14928(8) 0.5808(4)
C29 C 0.8864(5) 0.09372(10) -0.0664(4)
H13 H 0.9094 0.0893 -0.1356
C32 C 0.6002(5) 0.03660(10) -0.1197(4)
H15 H 0.5689 0.0400 -0.0541
C33 C 0.7387(5) 0.08656(9) 0.0559(4)
H16 H 0.6605 0.0773 0.0701
C34 C 0.6984(5) 0.05456(10) -0.1300(4)
H17 H 0.7253 0.0517 -0.1984
C35 C 1.1979(5) 0.18515(9) 0.2643(4)
C40 C 0.4137(5) -0.00299(10) -0.1848(4)
H22 H 0.3824 0.0028 -0.1216
C42 C 1.4728(6) 0.24460(10) 0.2936(5)
H24 H 1.5399 0.2566 0.3551
C44 C 0.3269(6) -0.06946(11) -0.5332(5)
H26 H 0.4034 -0.0643 -0.5603
C45 C 1.0535(6) 0.15111(11) 0.6954(5)
H27 H 0.9959 0.1380 0.7184
N11 N 0.2233(5) -0.08937(9) -0.5866(4)
C48 C 1.3880(5) 0.22477(10) 0.3253(4)
H30 H 1.3975 0.2231 0.4086
N12 N 1.2706(5) 0.20925(9) 0.1116(4)
C50 C 1.2192(6) 0.19019(12) 0.7495(5)
H32 H 1.2772 0.2039 0.8068
C53 C 1.4581(6) 0.24666(10) 0.1710(5)
H35 H 1.5149 0.2598 0.1472
C54 C 0.5794(5) 0.00120(10) -0.2910(4)
H36 H 0.6616 0.0100 -0.3010
C56 C 1.2185(6) 0.18889(10) 0.6296(5)
H38 H 1.2749 0.2019 0.6048
C57 C 0.1392(7) -0.08876(12) -0.5168(5)
H39 H 0.0553 -0.1007 -0.5328
C59 C 1.3577(7) 0.22882(12) 0.0857(5)
H41 H 1.3481 0.2302 0.0024
C61 C 1.1346(6) 0.17122(12) 0.7824(5)
H43 H 1.1315 0.1718 0.8621
loop_
_geom_bond_atom_site_label_1
_geom_bond_atom_site_label_2
_geom_bond_site_symmetry_1
_geom_bond_site_symmetry_2
N1 C2 1_555 1_555
N2 C8 1_555 1_555
N3 C7 1_555 1_555
C1 C6 1_555 1_555
C2 C10 1_555 1_555
N4 C11 1_555 1_555
C3 N1 1_555 1_555
C4 C5 1_555 1_555
C5 C20 1_555 1_555
N5 C21 1_555 1_555
C6 C10 1_555 1_555
C7 C12 1_555 1_555
C8 C17 1_555 1_555
C9 C23 1_555 1_555
C10 H1 1_555 1_555
C11 C18 1_555 1_555
C12 H2 1_555 1_555
C13 C29 1_555 1_555
C14 H3 1_555 1_555
C15 C4 1_555 1_555
H4 C15 1_555 1_555
C16 C35 1_555 1_555
C17 C4 1_555 1_555
H5 C17 1_555 1_555
C18 C14 1_555 1_555
H6 C18 1_555 1_555
C19 C8 1_555 1_555
C20 H7 1_555 1_555
C21 C3 1_555 1_555
C22 C7 1_555 1_555
H8 C22 1_555 1_555
C23 H9 1_555 1_555
C24 C11 1_555 1_555
H10 C24 1_555 1_555
N6 C27 1_555 1_555
C25 C32 1_555 1_555
C26 C5 1_555 1_555
H11 C26 1_555 1_555
N7 N3 1_555 1_555
C27 C2 1_555 1_555
C28 C3 1_555 1_555
H12 C28 1_555 1_555
N8 C19 1_555 1_555
C29 C26 1_555 1_555
H13 C29 1_555 1_555
C30 C1 1_555 1_555
H14 C30 1_555 1_555
C31 C14 1_555 1_555
C32 H15 1_555 1_555
C33 C13 1_555 1_555
H16 C33 1_555 1_555
C34 C13 1_555 1_555
H17 C34 1_555 1_555
C35 N2 1_555 1_555
C36 H18 1_555 1_555
C37 C23 1_555 1_555
H19 C37 1_555 1_555
C38 C1 1_555 1_555
H20 C38 1_555 1_555
C39 C9 1_555 1_555
H21 C39 1_555 1_555
C40 C12 1_555 1_555
H22 C40 1_555 1_555
N9 N4 1_555 1_555
C41 C21 1_555 1_555
H23 C41 1_555 1_555
C42 H24 1_555 1_555
C43 C24 1_555 1_555
H25 C43 1_555 1_555
C44 N3 1_555 1_555
H26 C44 1_555 1_555
C45 N8 1_555 1_555
H27 C45 1_555 1_555
C46 C9 1_555 1_555
H28 C46 1_555 1_555
N10 C47 1_555 1_555
N11 C44 1_555 1_555
C47 N4 1_555 1_555
H29 C47 1_555 1_555
C48 C16 1_555 1_555
H30 C48 1_555 1_555
N12 C16 1_555 1_555
C49 C27 1_555 1_555
H31 C49 1_555 1_555
C50 H32 1_555 1_555
C51 N9 1_555 1_555
H33 C51 1_555 1_555
C52 N5 1_555 1_555
H34 C52 1_555 1_555
C53 C42 1_555 1_555
H35 C53 1_555 1_555
C54 C22 1_555 1_555
H36 C54 1_555 1_555
C55 C36 1_555 1_555
H37 C55 1_555 1_555
C56 C19 1_555 1_555
H38 C56 1_555 1_555
C57 N7 1_555 1_555
H39 C57 1_555 1_555
C58 N6 1_555 1_555
H40 C58 1_555 1_555
C59 N12 1_555 1_555
H41 C59 1_555 1_555
C60 C49 1_555 1_555
H42 C60 1_555 1_555
C61 C45 1_555 1_555
H43 C61 1_555 1_555
C62 C58 1_555 1_555
H44 C62 1_555 1_555
C6 C28 1_555 1_555
C15 C35 1_555 1_555
C20 C33 1_555 1_555
C25 C40 1_555 1_555
C25 C54 1_555 1_555
C30 C39 1_555 1_555
C31 C37 1_555 1_555
C31 C43 1_555 1_555
C32 C34 1_555 1_555
C36 C52 1_555 1_555
C38 C46 1_555 1_555
C41 C55 1_555 1_555
C42 C48 1_555 1_555
N10 C51 1_555 1_555
N11 C57 1_555 1_555
C50 C56 1_555 1_555
C50 C61 1_555 1_555
C53 C59 1_555 1_555
C60 C62 1_555 1_555

#END
