
#######################################################################
#
#                 Cambridge Crystallographic Data Centre
#                                CCDC 
#
#######################################################################
#
# If this CIF has been generated from an entry in the Cambridge 
# Structural Database, then it will include bibliographic, chemical, 
# crystal, experimental, refinement or atomic coordinate data resulting 
# from the CCDC's data processing and validation procedures.
#
#######################################################################

data_VEHLAY
_chemical_compound_source        'roots of Pieris formosa (Wall) D. Don'
_chemical_name_common            'Pieristoxinlactone A monohydrate'
_chemical_formula_moiety         'C33 H44 O15,H2 O1'
_chemical_name_systematic        
'5,6,7,8,11-pentakis(acetyloxy)-4-hydroxy-8,11b-dimethyl-2-oxo-4-(prop-1-en-2-yl)dodecahydro-4H-6a,9-methanoheptaleno[1,2-b]furan-12-yl propanoate monohydrate'
_chemical_properties_biological  'significant analgesic activity'
_symmetry_cell_setting           triclinic
_symmetry_space_group_name_H-M   'P 1'
_symmetry_Int_Tables_number      1
_space_group_name_Hall           'P 1'
loop_
_symmetry_equiv_pos_site_id
_symmetry_equiv_pos_as_xyz
1 x,y,z
_cell_length_a                   8.6705(4)
_cell_length_b                   18.6150(9)
_cell_length_c                   18.7494(7)
_cell_angle_alpha                64.176(4)
_cell_angle_beta                 89.183(3)
_cell_angle_gamma                76.713(4)
_cell_volume                     2638.29
_cell_formula_units_Z            3
loop_
_atom_site_label
_atom_site_type_symbol
_atom_site_fract_x
_atom_site_fract_y
_atom_site_fract_z
O1 O -0.0594(2) 0.98534(10) 0.08553(10)
O2 O -0.2323(2) 1.07086(11) -0.02090(11)
O3 O -0.2217(2) 0.76954(10) 0.18334(10)
H1 H -0.2391 0.7236 0.2037
O4 O 0.0621(2) 0.62937(10) 0.21932(11)
O5 O 0.3276(2) 0.59615(12) 0.21380(14)
O6 O 0.1458(2) 0.64838(10) 0.33617(10)
O7 O -0.0986(3) 0.64571(13) 0.37955(14)
O8 O 0.2876(2) 0.84953(10) 0.08326(10)
O9 O 0.3957(2) 0.94632(12) -0.00670(11)
O10 O 0.1933(2) 0.73972(10) 0.40680(10)
O11 O 0.1466(2) 0.82752(11) 0.46209(11)
O12 O 0.4612(2) 0.77252(10) 0.40220(10)
O13 O 0.6802(2) 0.82255(12) 0.37179(12)
O14 O 0.4289(2) 0.67107(10) 0.32350(10)
O15 O 0.6352(2) 0.63862(11) 0.25910(12)
C1 C -0.0695(3) 0.85699(14) 0.09644(14)
H2 H 0.0222 0.8550 0.0656
C2 C -0.2085(3) 0.92243(15) 0.03725(15)
H3 H -0.2091 0.9192 -0.0130
H4 H -0.3099 0.9167 0.0586
C3 C -0.1740(3) 1.00164(15) 0.02754(15)
C4 C -0.0895(3) 0.76866(14) 0.13852(15)
C5 C -0.1125(3) 0.73948(14) 0.07558(15)
C6 C 0.0664(3) 0.71376(14) 0.19373(15)
H5 H 0.1586 0.7244 0.1636
C7 C 0.0828(3) 0.72756(14) 0.26909(14)
H6 H -0.0232 0.7519 0.2790
C8 C 0.1928(3) 0.78475(14) 0.26139(15)
C9 C 0.1366(3) 0.87390(14) 0.18601(15)
H7 H 0.1315 0.9110 0.2108
C10 C -0.0367(3) 0.89939(14) 0.14773(15)
C11 C 0.2617(3) 0.89799(14) 0.12774(15)
H8 H 0.2236 0.9563 0.0900
C12 C 0.4182(3) 0.88641(14) 0.17404(14)
H9 H 0.5065 0.8776 0.1439
H10 H 0.4159 0.9366 0.1786
C13 C 0.4476(3) 0.81388(14) 0.25786(15)
H11 H 0.5624 0.7903 0.2724
C14 C 0.3703(3) 0.74946(14) 0.25493(14)
H12 H 0.3845 0.7448 0.2050
C15 C 0.2043(3) 0.80635(14) 0.33235(15)
H13 H 0.1176 0.8545 0.3237
C16 C 0.3702(3) 0.83135(15) 0.32618(15)
C17 C 0.3483(3) 0.91864(15) 0.31694(16)
H14 H 0.3166 0.9205 0.3655
H15 H 0.2676 0.9558 0.2742
H16 H 0.4468 0.9347 0.3053
C18 C -0.2518(3) 0.72688(17) 0.06181(17)
H17 H -0.2656 0.7106 0.0225
H18 H -0.3354 0.7344 0.0915
C19 C 0.0236(3) 0.72792(16) 0.02895(16)
H19 H 0.0571 0.7782 0.0034
H20 H -0.0091 0.7133 -0.0106
H21 H 0.1105 0.6847 0.0641
C20 C -0.1594(3) 0.90763(14) 0.20526(15)
H22 H -0.1423 0.9470 0.2225
H23 H -0.1480 0.8551 0.2506
H24 H -0.2648 0.9259 0.1787
C21 C 0.2065(3) 0.57544(16) 0.23282(16)
C22 C 0.1941(4) 0.48769(16) 0.27298(19)
H25 H 0.0880 0.4863 0.2877
H26 H 0.2684 0.4574 0.3198
H27 H 0.2181 0.4633 0.2371
C23 C 0.0414(3) 0.61535(16) 0.38640(16)
C24 C 0.1275(4) 0.53367(18) 0.45262(19)
H28 H 0.1525 0.4931 0.4329
H29 H 0.0608 0.5170 0.4952
H30 H 0.2241 0.5390 0.4720
C25 C 0.3545(3) 0.88369(16) 0.01343(15)
C26 C 0.3680(3) 0.83297(17) -0.03108(16)
H31 H 0.3949 0.7756 0.0060
H32 H 0.4497 0.8443 -0.0666
H33 H 0.2682 0.8464 -0.0612
C27 C 0.1594(3) 0.75943(16) 0.46749(15)
C28 C 0.1416(3) 0.68630(18) 0.54123(16)
H34 H 0.0788 0.6569 0.5277
H35 H 0.0896 0.7044 0.5782
H36 H 0.2448 0.6507 0.5651
C29 C 0.6123(3) 0.77377(16) 0.41677(16)
C30 C 0.6820(3) 0.70543(17) 0.49721(16)
H37 H 0.5981 0.6923 0.5309
H38 H 0.7549 0.7227 0.5207
H39 H 0.7376 0.6576 0.4915
C31 C 0.5591(3) 0.62114(15) 0.31576(16)
C32 C 0.5973(4) 0.53938(18) 0.38992(19)
H40 H 0.6326 0.5477 0.4340
H41 H 0.5009 0.5202 0.4028
C33 C 0.7228(5) 0.4743(2) 0.3813(3)
H42 H 0.6851 0.4621 0.3409
H43 H 0.7466 0.4253 0.4310
H44 H 0.8174 0.4936 0.3664
O16 O -0.6070(2) 0.65490(10) -0.07154(11)
O17 O -0.8028(2) 0.76643(10) -0.14295(11)
O18 O -0.7729(2) 0.46408(11) -0.07604(11)
H45 H -0.7987 0.4264 -0.0805
O19 O -0.5153(2) 0.35479(11) -0.10874(12)
O20 O -0.2637(3) 0.33249(13) -0.14152(15)
O21 O -0.3760(2) 0.30104(10) 0.02856(11)
O22 O -0.5920(3) 0.26789(13) 0.09005(15)
O23 O -0.2778(2) 0.57629(11) -0.14483(11)
O24 O -0.1923(3) 0.69224(13) -0.19092(14)
O25 O -0.2962(2) 0.31765(10) 0.15728(11)
O26 O -0.3451(3) 0.34436(14) 0.26238(13)
O27 O -0.0342(2) 0.34710(10) 0.17273(11)
O28 O 0.1803(2) 0.40029(11) 0.15899(12)
O29 O -0.0954(2) 0.32519(10) 0.02905(11)
O30 O 0.0753(2) 0.34299(11) -0.06554(13)
C34 C -0.6294(3) 0.56734(14) -0.12742(15)
H46 H -0.5455 0.5831 -0.1623
C35 C -0.7741(3) 0.64113(14) -0.16030(16)
H47 H -0.7846 0.6682 -0.2180
H48 H -0.8713 0.6247 -0.1420
C36 C -0.7367(3) 0.69639(14) -0.12666(15)
C37 C -0.6522(3) 0.48809(15) -0.12639(16)
C38 C -0.6964(3) 0.50387(15) -0.21161(16)
C39 C -0.4922(3) 0.42126(14) -0.09303(16)
H49 H -0.4054 0.4429 -0.1220
C40 C -0.4505(3) 0.38788(14) -0.00233(16)
H50 H -0.5491 0.3951 0.0228
C41 C -0.3353(3) 0.43000(14) 0.01905(15)
C42 C -0.3997(3) 0.52881(14) -0.01716(15)
H51 H -0.3947 0.5376 0.0306
C43 C -0.5790(3) 0.56564(14) -0.04778(16)
C44 C -0.2869(3) 0.57836(14) -0.06790(16)
H52 H -0.3274 0.6358 -0.0776
C45 C -0.1202(3) 0.54553(14) -0.02181(16)
H53 H -0.0412 0.5575 -0.0596
H54 H -0.1147 0.5743 0.0102
C46 C -0.0794(3) 0.45210(14) 0.03291(15)
H55 H 0.0358 0.4292 0.0381
C47 C -0.1650(3) 0.41317(14) -0.00586(16)
H56 H -0.1639 0.4390 -0.0639
C48 C -0.3043(3) 0.40351(15) 0.10986(15)
H57 H -0.3892 0.4366 0.1260
C49 C -0.1400(3) 0.42596(15) 0.11723(16)
C50 C -0.1586(3) 0.48629(16) 0.15290(17)
H58 H -0.1782 0.4596 0.2077
H59 H -0.2467 0.5327 0.1242
H60 H -0.0629 0.5048 0.1494
C51 C -0.8391(4) 0.50141(18) -0.23382(19)
H61 H -0.8637 0.5112 -0.2859
H62 H -0.9144 0.4899 -0.1973
C52 C -0.5737(4) 0.52238(17) -0.27000(17)
H63 H -0.5565 0.5754 -0.2816
H64 H -0.6105 0.5227 -0.3182
H65 H -0.4755 0.4810 -0.2475
C53 C -0.6836(3) 0.53765(15) 0.02011(16)
H66 H -0.6569 0.5533 0.0600
H67 H -0.6663 0.4789 0.0432
H68 H -0.7934 0.5632 0.0000
C54 C -0.3919(3) 0.31665(16) -0.13466(17)
C55 C -0.4377(4) 0.25352(18) -0.1531(2)
H69 H -0.4193 0.2022 -0.1057
H70 H -0.3748 0.2460 -0.1930
H71 H -0.5484 0.2717 -0.1724
C56 C -0.4594(4) 0.24789(16) 0.07414(17)
C57 C -0.3616(4) 0.16087(17) 0.1023(2)
H72 H -0.3342 0.1507 0.0571
H73 H -0.4220 0.1233 0.1347
H74 H -0.2660 0.1529 0.1329
C58 C -0.2284(3) 0.63937(17) -0.20291(18)
C59 C -0.2260(4) 0.6346(2) -0.28029(19)
H75 H -0.1958 0.5779 -0.2705
H76 H -0.1508 0.6628 -0.3114
H77 H -0.3301 0.6599 -0.3088
C60 C -0.3180(4) 0.29626(17) 0.23380(17)
C61 C -0.3049(4) 0.20550(18) 0.2795(2)
H78 H -0.3930 0.1922 0.2618
H79 H -0.3064 0.1910 0.3353
H80 H -0.2070 0.1753 0.2707
C62 C 0.1208(3) 0.34344(16) 0.18707(16)
C63 C 0.2075(4) 0.25682(18) 0.24398(18)
H81 H 0.2609 0.2289 0.2145
H82 H 0.1325 0.2279 0.2744
H83 H 0.2843 0.2585 0.2793
C64 C 0.0196(3) 0.29856(16) -0.00818(17)
C65 C 0.0666(4) 0.20554(18) 0.0294(2)
H84 H -0.0204 0.1860 0.0182
H85 H 0.0842 0.1844 0.0867
C66 C 0.2167(4) 0.1719(2) -0.0011(3)
H86 H 0.2004 0.1933 -0.0579
H87 H 0.2395 0.1129 0.0230
H88 H 0.3045 0.1885 0.0125
O31 O 0.2443(2) 0.80827(10) -0.33587(10)
O32 O 0.4090(2) 0.72245(11) -0.37236(12)
O33 O 0.4040(2) 1.02537(11) -0.43591(11)
H89 H 0.4217 1.0712 -0.4579
O34 O 0.1324(2) 1.16338(10) -0.51341(11)
O35 O -0.1295(2) 1.20682(12) -0.55500(13)
O36 O 0.0285(2) 1.14772(10) -0.38212(11)
O37 O 0.2690(3) 1.15207(14) -0.34255(18)
O38 O -0.1026(2) 0.93947(10) -0.45427(10)
O39 O -0.2006(2) 0.83836(12) -0.45591(12)
O40 O -0.0265(2) 1.05849(10) -0.23184(11)
O41 O 0.0260(2) 0.97256(12) -0.10019(11)
O42 O -0.2942(2) 1.02326(10) -0.20591(11)
O43 O -0.5113(2) 0.97264(11) -0.19601(11)
O44 O -0.2557(2) 1.12304(10) -0.37428(12)
O45 O -0.4432(2) 1.15557(12) -0.47245(14)
C67 C 0.2507(3) 0.93557(14) -0.43890(15)
H90 H 0.1590 0.9360 -0.4692
C68 C 0.3904(3) 0.87047(15) -0.44277(15)
H91 H 0.3916 0.8728 -0.4955
H92 H 0.4915 0.8765 -0.4277
C69 C 0.3539(3) 0.79188(15) -0.38231(15)
C70 C 0.2675(3) 1.02470(14) -0.47561(15)
C71 C 0.2841(3) 1.05222(14) -0.56512(15)
C72 C 0.1157(3) 1.08077(14) -0.46590(15)
H93 H 0.0219 1.0731 -0.4876
C73 C 0.0954(3) 1.06767(14) -0.37850(15)
H94 H 0.2003 1.0445 -0.3479
C74 C -0.0153(3) 1.00984(14) -0.33624(14)
C75 C 0.0455(3) 0.91993(13) -0.33223(14)
H95 H 0.0509 0.8840 -0.2751
C76 C 0.2197(3) 0.89528(13) -0.35071(15)
C77 C -0.0774(3) 0.89326(14) -0.36702(15)
H96 H -0.0373 0.8346 -0.3530
C78 C -0.2354(3) 0.90501(14) -0.33115(14)
H97 H -0.2334 0.8558 -0.2823
H98 H -0.3212 0.9117 -0.3679
C79 C -0.2701(3) 0.97981(14) -0.31302(14)
H99 H -0.3853 1.0031 -0.3190
C80 C -0.1910(3) 1.04355(14) -0.37316(15)
H100 H -0.2014 1.0462 -0.4263
C81 C -0.0321(3) 0.98986(14) -0.24687(15)
H101 H 0.0544 0.9425 -0.2135
C82 C -0.1972(3) 0.96449(14) -0.23041(15)
C83 C -0.1752(3) 0.87726(14) -0.16342(15)
H102 H -0.1422 0.8759 -0.1141
H103 H -0.0955 0.8396 -0.1750
H104 H -0.2742 0.8615 -0.1591
C84 C 0.4188(3) 1.06782(17) -0.59536(18)
H105 H 0.4280 1.0836 -0.6493
H106 H 0.5040 1.0630 -0.5626
C85 C 0.1441(3) 1.05924(16) -0.61555(16)
H107 H 0.1167 1.0072 -0.5950
H108 H 0.1705 1.0745 -0.6693
H109 H 0.0552 1.1005 -0.6147
C86 C 0.3432(3) 0.89088(15) -0.28979(16)
H110 H 0.3206 0.8576 -0.2369
H111 H 0.3383 0.9454 -0.2961
H112 H 0.4479 0.8669 -0.2984
C87 C -0.0030(3) 1.22120(16) -0.55499(16)
C88 C 0.0329(4) 1.30375(17) -0.59989(19)
H113 H 0.0185 1.3325 -0.5675
H114 H -0.0379 1.3353 -0.6479
H115 H 0.1409 1.2963 -0.6130
C89 C 0.1305(4) 1.18236(17) -0.36192(18)
C90 C 0.0420(6) 1.2649(2) -0.3685(2)
H116 H 0.0428 1.3067 -0.4215
H117 H 0.0927 1.2768 -0.3311
H118 H -0.0660 1.2639 -0.3570
C91 C -0.1679(3) 0.90320(16) -0.49119(16)
C92 C -0.1924(3) 0.95457(18) -0.58009(17)
H119 H -0.2110 1.0118 -0.5923
H120 H -0.2826 0.9458 -0.6013
H121 H -0.0991 0.9389 -0.6034
C93 C 0.0075(3) 1.04008(16) -0.15476(16)
C94 C 0.0198(4) 1.11559(19) -0.14712(19)
H122 H 0.0864 1.1435 -0.1855
H123 H 0.0653 1.0999 -0.0945
H124 H -0.0844 1.1517 -0.1565
C95 C -0.4468(3) 1.02034(15) -0.19038(15)
C96 C -0.5210(3) 1.08638(16) -0.16567(18)
H125 H -0.4504 1.0845 -0.1256
H126 H -0.6203 1.0775 -0.1447
H127 H -0.5398 1.1394 -0.2110
C97 C -0.3779(3) 1.17298(16) -0.4281(2)
C98 C -0.425(2) 1.2511(6) -0.4224(6)
H128 H -0.3326 1.2735 -0.4288
H129 H -0.4548 1.2391 -0.3690
C99 C -0.5607(11) 1.3174(4) -0.4812(12)
H130 H -0.5292 1.3346 -0.5343
H131 H -0.5860 1.3637 -0.4693
H132 H -0.6526 1.2958 -0.4773
O46 O 0.0325(5) 0.3285(3) -0.2149(2)
O47 O 0.4308(4) 0.2927(2) 0.37590(19)
O48 O -0.0473(11) 0.4605(5) -0.3677(4)
C100? C -0.422(5) 1.2639(18) -0.4406(12)
H133? H -0.3477 1.2933 -0.4725
H134? H -0.5286 1.2918 -0.4677
C101? C -0.4144(16) 1.2608(6) -0.3576(10)
H135? H -0.4421 1.3159 -0.3626
H136? H -0.3084 1.2336 -0.3317
H137? H -0.4879 1.2311 -0.3265
O49? O -0.2123(15) 0.4650(7) -0.3823(6)
loop_
_geom_bond_atom_site_label_1
_geom_bond_atom_site_label_2
_geom_bond_site_symmetry_1
_geom_bond_site_symmetry_2
O1 C3 1_555 1_555
O2 C3 1_555 1_555
O3 H1 1_555 1_555
O4 C6 1_555 1_555
O5 C21 1_555 1_555
O6 C7 1_555 1_555
O7 C23 1_555 1_555
O8 C11 1_555 1_555
O9 C25 1_555 1_555
O10 C15 1_555 1_555
O11 C27 1_555 1_555
O12 C16 1_555 1_555
O13 C29 1_555 1_555
O14 C14 1_555 1_555
O15 C31 1_555 1_555
C1 H2 1_555 1_555
C2 C1 1_555 1_555
H3 C2 1_555 1_555
H4 C2 1_555 1_555
C3 C2 1_555 1_555
C4 O3 1_555 1_555
C5 C4 1_555 1_555
C6 C4 1_555 1_555
H5 C6 1_555 1_555
C7 C6 1_555 1_555
H6 C7 1_555 1_555
C8 C7 1_555 1_555
C9 C8 1_555 1_555
H7 C9 1_555 1_555
C10 O1 1_555 1_555
C11 C9 1_555 1_555
H8 C11 1_555 1_555
C12 C11 1_555 1_555
H9 C12 1_555 1_555
H10 C12 1_555 1_555
C13 C12 1_555 1_555
H11 C13 1_555 1_555
C14 C8 1_555 1_555
H12 C14 1_555 1_555
C15 C8 1_555 1_555
H13 C15 1_555 1_555
C16 C13 1_555 1_555
C17 C16 1_555 1_555
H14 C17 1_555 1_555
H15 C17 1_555 1_555
H16 C17 1_555 1_555
C18 C5 1_555 1_555
H17 C18 1_555 1_555
H18 C18 1_555 1_555
C19 C5 1_555 1_555
H19 C19 1_555 1_555
H20 C19 1_555 1_555
H21 C19 1_555 1_555
C20 C10 1_555 1_555
H22 C20 1_555 1_555
H23 C20 1_555 1_555
H24 C20 1_555 1_555
C21 O4 1_555 1_555
C22 C21 1_555 1_555
H25 C22 1_555 1_555
H26 C22 1_555 1_555
H27 C22 1_555 1_555
C23 O6 1_555 1_555
C24 C23 1_555 1_555
H28 C24 1_555 1_555
H29 C24 1_555 1_555
H30 C24 1_555 1_555
C25 O8 1_555 1_555
C26 C25 1_555 1_555
H31 C26 1_555 1_555
H32 C26 1_555 1_555
H33 C26 1_555 1_555
C27 O10 1_555 1_555
C28 C27 1_555 1_555
H34 C28 1_555 1_555
H35 C28 1_555 1_555
H36 C28 1_555 1_555
C29 O12 1_555 1_555
C30 C29 1_555 1_555
H37 C30 1_555 1_555
H38 C30 1_555 1_555
H39 C30 1_555 1_555
C31 O14 1_555 1_555
C32 C31 1_555 1_555
H40 C32 1_555 1_555
H41 C32 1_555 1_555
C33 C32 1_555 1_555
H42 C33 1_555 1_555
H43 C33 1_555 1_555
H44 C33 1_555 1_555
O16 C36 1_555 1_555
O17 C36 1_555 1_555
O18 H45 1_555 1_555
O19 C39 1_555 1_555
O20 C54 1_555 1_555
O21 C40 1_555 1_555
O22 C56 1_555 1_555
O23 C44 1_555 1_555
O24 C58 1_555 1_555
O25 C48 1_555 1_555
O26 C60 1_555 1_555
O27 C49 1_555 1_555
O28 C62 1_555 1_555
O29 C47 1_555 1_555
O30 C64 1_555 1_555
C34 H46 1_555 1_555
C35 C34 1_555 1_555
H47 C35 1_555 1_555
H48 C35 1_555 1_555
C36 C35 1_555 1_555
C37 O18 1_555 1_555
C38 C37 1_555 1_555
C39 C37 1_555 1_555
H49 C39 1_555 1_555
C40 C39 1_555 1_555
H50 C40 1_555 1_555
C41 C40 1_555 1_555
C42 C41 1_555 1_555
H51 C42 1_555 1_555
C43 O16 1_555 1_555
C44 C42 1_555 1_555
H52 C44 1_555 1_555
C45 C44 1_555 1_555
H53 C45 1_555 1_555
H54 C45 1_555 1_555
C46 C45 1_555 1_555
H55 C46 1_555 1_555
C47 C41 1_555 1_555
H56 C47 1_555 1_555
C48 C41 1_555 1_555
H57 C48 1_555 1_555
C49 C46 1_555 1_555
C50 C49 1_555 1_555
H58 C50 1_555 1_555
H59 C50 1_555 1_555
H60 C50 1_555 1_555
C51 C38 1_555 1_555
H61 C51 1_555 1_555
H62 C51 1_555 1_555
C52 C38 1_555 1_555
H63 C52 1_555 1_555
H64 C52 1_555 1_555
H65 C52 1_555 1_555
C53 C43 1_555 1_555
H66 C53 1_555 1_555
H67 C53 1_555 1_555
H68 C53 1_555 1_555
C54 O19 1_555 1_555
C55 C54 1_555 1_555
H69 C55 1_555 1_555
H70 C55 1_555 1_555
H71 C55 1_555 1_555
C56 O21 1_555 1_555
C57 C56 1_555 1_555
H72 C57 1_555 1_555
H73 C57 1_555 1_555
H74 C57 1_555 1_555
C58 O23 1_555 1_555
C59 C58 1_555 1_555
H75 C59 1_555 1_555
H76 C59 1_555 1_555
H77 C59 1_555 1_555
C60 O25 1_555 1_555
C61 C60 1_555 1_555
H78 C61 1_555 1_555
H79 C61 1_555 1_555
H80 C61 1_555 1_555
C62 O27 1_555 1_555
C63 C62 1_555 1_555
H81 C63 1_555 1_555
H82 C63 1_555 1_555
H83 C63 1_555 1_555
C64 O29 1_555 1_555
C65 C64 1_555 1_555
H84 C65 1_555 1_555
H85 C65 1_555 1_555
C66 C65 1_555 1_555
H86 C66 1_555 1_555
H87 C66 1_555 1_555
H88 C66 1_555 1_555
O31 C69 1_555 1_555
O32 C69 1_555 1_555
O33 H89 1_555 1_555
O34 C72 1_555 1_555
O35 C87 1_555 1_555
O36 C73 1_555 1_555
O37 C89 1_555 1_555
O38 C77 1_555 1_555
O39 C91 1_555 1_555
O40 C81 1_555 1_555
O41 C93 1_555 1_555
O42 C82 1_555 1_555
O43 C95 1_555 1_555
O44 C80 1_555 1_555
O45 C97 1_555 1_555
C67 H90 1_555 1_555
C68 C67 1_555 1_555
H91 C68 1_555 1_555
H92 C68 1_555 1_555
C69 C68 1_555 1_555
C70 O33 1_555 1_555
C71 C70 1_555 1_555
C72 C70 1_555 1_555
H93 C72 1_555 1_555
C73 C72 1_555 1_555
H94 C73 1_555 1_555
C74 C73 1_555 1_555
C75 C74 1_555 1_555
H95 C75 1_555 1_555
C76 O31 1_555 1_555
C77 C75 1_555 1_555
H96 C77 1_555 1_555
C78 C77 1_555 1_555
H97 C78 1_555 1_555
H98 C78 1_555 1_555
C79 C78 1_555 1_555
H99 C79 1_555 1_555
C80 C74 1_555 1_555
H100 C80 1_555 1_555
C81 C74 1_555 1_555
H101 C81 1_555 1_555
C82 C79 1_555 1_555
C83 C82 1_555 1_555
H102 C83 1_555 1_555
H103 C83 1_555 1_555
H104 C83 1_555 1_555
C84 C71 1_555 1_555
H105 C84 1_555 1_555
H106 C84 1_555 1_555
C85 C71 1_555 1_555
H107 C85 1_555 1_555
H108 C85 1_555 1_555
H109 C85 1_555 1_555
C86 C76 1_555 1_555
H110 C86 1_555 1_555
H111 C86 1_555 1_555
H112 C86 1_555 1_555
C87 O34 1_555 1_555
C88 C87 1_555 1_555
H113 C88 1_555 1_555
H114 C88 1_555 1_555
H115 C88 1_555 1_555
C89 O36 1_555 1_555
C90 C89 1_555 1_555
H116 C90 1_555 1_555
H117 C90 1_555 1_555
H118 C90 1_555 1_555
C91 O38 1_555 1_555
C92 C91 1_555 1_555
H119 C92 1_555 1_555
H120 C92 1_555 1_555
H121 C92 1_555 1_555
C93 O40 1_555 1_555
C94 C93 1_555 1_555
H122 C94 1_555 1_555
H123 C94 1_555 1_555
H124 C94 1_555 1_555
C95 O42 1_555 1_555
C96 C95 1_555 1_555
H125 C96 1_555 1_555
H126 C96 1_555 1_555
H127 C96 1_555 1_555
C97 O44 1_555 1_555
C98 C97 1_555 1_555
H128 C98 1_555 1_555
H129 C98 1_555 1_555
C99 C98 1_555 1_555
H130 C99 1_555 1_555
H131 C99 1_555 1_555
H132 C99 1_555 1_555
C1 C4 1_555 1_555
C1 C10 1_555 1_555
C9 C10 1_555 1_555
C13 C14 1_555 1_555
C15 C16 1_555 1_555
C34 C37 1_555 1_555
C34 C43 1_555 1_555
C42 C43 1_555 1_555
C46 C47 1_555 1_555
C48 C49 1_555 1_555
C67 C70 1_555 1_555
C67 C76 1_555 1_555
C75 C76 1_555 1_555
C79 C80 1_555 1_555
C81 C82 1_555 1_555

#END
