
#######################################################################
#
#                 Cambridge Crystallographic Data Centre
#                                CCDC 
#
#######################################################################
#
# If this CIF has been generated from an entry in the Cambridge 
# Structural Database, then it will include bibliographic, chemical, 
# crystal, experimental, refinement or atomic coordinate data resulting 
# from the CCDC's data processing and validation procedures.
#
#######################################################################

data_VEHLOM
_chemical_compound_source        'roots of Pieris formosa (Wall) D. Don'
_chemical_name_common            'Pieristoxinlactone G methanol solvate hydrate'
_chemical_formula_moiety         'C31 H42 O14,C1 H4 O1,0.26(H2 O1)'
_chemical_name_systematic        
'5,6,7,8-tetrakis(acetyloxy)-4-hydroxy-8,11b-dimethyl-4-(2-methyloxiran-2-yl)-2-oxododecahydro-4H-6a,9-methanoheptaleno[1,2-b]furan-12-yl propanoate methanol solvate hydrate'
_chemical_properties_biological  'significant analgesic activity'
_symmetry_cell_setting           orthorhombic
_symmetry_space_group_name_H-M   'P 21 21 21'
_symmetry_Int_Tables_number      19
_space_group_name_Hall           'P 2ac 2ab'
loop_
_symmetry_equiv_pos_site_id
_symmetry_equiv_pos_as_xyz
1 x,y,z
2 1/2-x,-y,1/2+z
3 1/2+x,1/2-y,-z
4 -x,1/2+y,1/2-z
_cell_length_a                   12.7605(3)
_cell_length_b                   15.5108(5)
_cell_length_c                   16.9324(4)
_cell_angle_alpha                90
_cell_angle_beta                 90
_cell_angle_gamma                90
_cell_volume                     3351.35
_cell_formula_units_Z            4
loop_
_atom_site_label
_atom_site_type_symbol
_atom_site_fract_x
_atom_site_fract_y
_atom_site_fract_z
O1 O 0.76431(14) 0.81442(12) 0.13323(10)
O2 O 0.76235(14) 1.07812(12) -0.04023(11)
O3 O 0.72226(13) 0.72265(12) 0.00467(10)
H1 H 0.7161 0.6773 -0.0221
O4 O 0.98934(13) 0.96671(12) 0.09391(10)
O5 O 0.90037(15) 0.81389(14) 0.21878(11)
O6 O 0.60667(14) 0.96422(13) 0.05619(12)
O7 O 0.77957(13) 0.96778(12) 0.08336(10)
O8 O 0.92216(14) 1.12179(12) 0.04901(11)
O9 O 1.14518(16) 0.90074(14) 0.10648(11)
O10 O 0.92965(14) 0.76298(12) -0.18801(10)
O11 O 0.82649(15) 0.58149(12) 0.05912(11)
O12 O 1.08328(16) 1.16652(14) 0.08644(13)
O13 O 0.69070(15) 1.00793(14) -0.14354(12)
C1 C 1.0734(2) 0.93979(16) 0.13511(15)
C2 C 0.86852(19) 0.80086(16) -0.12153(14)
C3 C 0.80060(19) 0.90526(16) 0.02191(14)
H2 H 0.7354 0.8937 -0.0091
C4 C 0.95346(19) 1.09680(17) -0.03100(15)
C5 C 0.6784(2) 0.98874(17) 0.09622(15)
C6 C 0.9051(2) 0.65206(17) -0.09593(15)
H3 H 0.9554 0.6131 -0.0693
H4 H 0.8358 0.6236 -0.0987
C7 C 0.9382(2) 1.1764(2) 0.17633(17)
H5 H 0.8766 1.2123 0.1659
H6 H 0.9868 1.2078 0.2107
H7 H 0.9163 1.1229 0.2024
C8 C 0.83501(18) 0.82251(17) 0.06683(14)
H8 H 0.9079 0.8307 0.0871
C9 C 0.75501(19) 0.79772(17) -0.14995(15)
H9 H 0.7498 0.8251 -0.2019
H10 H 0.7102 0.8285 -0.1123
H11 H 0.7322 0.7375 -0.1538
C10 C 0.82955(18) 0.73740(16) 0.02141(14)
C11 C 0.99481(19) 0.95210(17) 0.00896(14)
H12 H 1.0373 0.8993 -0.0021
C12 C 0.7997(2) 0.62554(18) 0.13235(15)
H13 H 0.8291 0.6024 0.1821
H14 H 0.7286 0.6505 0.1370
C13 C 0.9434(2) 0.67719(18) -0.17660(15)
C14 C 0.86177(19) 1.04064(16) -0.06024(15)
H15 H 0.8659 1.0404 -0.1192
C15 C 0.90626(19) 0.89537(17) -0.11385(14)
H16 H 0.8650 0.9281 -0.1541
C16 C 0.9887(2) 0.66259(18) 0.09363(16)
H17 H 1.0035 0.6157 0.1308
H18 H 1.0105 0.7176 0.1169
H19 H 1.0273 0.6528 0.0444
O14 O 0.98227(18) 0.63214(14) -0.22640(12)
C17 C 0.6820(2) 1.05896(17) -0.09041(16)
C18 C 1.0664(2) 0.99787(18) -0.11946(15)
H20 H 1.0361 1.0399 -0.1571
H21 H 1.1432 0.9972 -0.1276
C19 C 0.8721(2) 0.66523(17) 0.07630(15)
C20 C 0.6686(2) 1.0479(2) 0.16581(19)
H22 H 0.6825 1.1073 0.1491
H23 H 0.7195 1.0312 0.2064
H24 H 0.5976 1.0440 0.1875
C21 C 0.89818(19) 0.73939(17) -0.05345(15)
H25 H 0.9708 0.7549 -0.0364
C22 C 0.88545(19) 0.94441(16) -0.03219(14)
C23 C 0.7241(3) 0.7969(2) 0.26715(16)
H26 H 0.6786 0.8478 0.2686
H27 H 0.7568 0.7887 0.3190
H28 H 0.6823 0.7459 0.2538
C24 C 1.0223(2) 0.90761(18) -0.13814(15)
H29 H 1.0654 0.8639 -0.1105
H30 H 1.0289 0.8970 -0.1956
C25 C 0.9916(2) 1.15520(18) 0.09996(17)
C26 C 1.0667(2) 0.96692(19) 0.22053(15)
H31 H 0.9951 0.9555 0.2403
H32 H 1.0794 1.0297 0.2243
C27 C 0.5852(2) 1.1087(2) -0.07100(18)
H33 H 0.5976 1.1440 -0.0239
H34 H 0.5274 1.0687 -0.0609
H35 H 0.5670 1.1463 -0.1155
C28 C 0.8075(2) 0.80950(18) 0.20605(15)
C29 C 1.04283(19) 1.02899(18) -0.03312(15)
H36 H 1.1074 1.0501 -0.0058
C30 C 1.1451(3) 0.9200(2) 0.27225(17)
H37 H 1.2162 0.9309 0.2528
H38 H 1.1307 0.8579 0.2707
H39 H 1.1390 0.9407 0.3267
C31 C 0.9705(2) 1.17880(18) -0.07789(17)
H40 H 0.9082 1.2155 -0.0737
H41 H 0.9828 1.1643 -0.1335
H42 H 1.0315 1.2096 -0.0569
O16 O 1.3469(8) 1.0744(6) 0.1244(9)
C33 C 1.3459(11) 1.0777(7) 0.0277(7)
O17 O 0.7441(7) 1.2687(7) 0.0279(7)
O15? O 1.2613(5) 1.0996(4) 0.1744(4)
C32? C 1.3500(12) 1.0469(8) 0.1959(6)
loop_
_geom_bond_atom_site_label_1
_geom_bond_atom_site_label_2
_geom_bond_site_symmetry_1
_geom_bond_site_symmetry_2
O1 C8 1_555 1_555
O2 C14 1_555 1_555
O3 H1 1_555 1_555
O4 C1 1_555 1_555
O5 C28 1_555 1_555
O6 C5 1_555 1_555
O7 C3 1_555 1_555
O8 C4 1_555 1_555
O9 C1 1_555 1_555
O10 C2 1_555 1_555
O11 C12 1_555 1_555
O12 C25 1_555 1_555
O13 C17 1_555 1_555
C1 C26 1_555 1_555
C2 C9 1_555 1_555
C3 H2 1_555 1_555
C4 C14 1_555 1_555
C5 O7 1_555 1_555
C6 H3 1_555 1_555
H4 C6 1_555 1_555
C7 H5 1_555 1_555
H6 C7 1_555 1_555
H7 C7 1_555 1_555
C8 C3 1_555 1_555
H8 C8 1_555 1_555
C9 H9 1_555 1_555
H10 C9 1_555 1_555
H11 C9 1_555 1_555
C10 O3 1_555 1_555
C11 O4 1_555 1_555
H12 C11 1_555 1_555
C12 H13 1_555 1_555
H14 C12 1_555 1_555
C13 O10 1_555 1_555
C14 H15 1_555 1_555
C15 C2 1_555 1_555
H16 C15 1_555 1_555
C16 H17 1_555 1_555
H18 C16 1_555 1_555
H19 C16 1_555 1_555
O14 C13 1_555 1_555
C17 O2 1_555 1_555
C18 H20 1_555 1_555
H21 C18 1_555 1_555
C19 O11 1_555 1_555
C20 C5 1_555 1_555
H22 C20 1_555 1_555
H23 C20 1_555 1_555
H24 C20 1_555 1_555
C21 C2 1_555 1_555
H25 C21 1_555 1_555
C22 C3 1_555 1_555
C23 H26 1_555 1_555
H27 C23 1_555 1_555
H28 C23 1_555 1_555
C24 C15 1_555 1_555
H29 C24 1_555 1_555
H30 C24 1_555 1_555
C25 O8 1_555 1_555
C26 H31 1_555 1_555
H32 C26 1_555 1_555
C27 C17 1_555 1_555
H33 C27 1_555 1_555
H34 C27 1_555 1_555
H35 C27 1_555 1_555
C28 O1 1_555 1_555
C29 C4 1_555 1_555
H36 C29 1_555 1_555
C30 C26 1_555 1_555
H37 C30 1_555 1_555
H38 C30 1_555 1_555
H39 C30 1_555 1_555
C31 C4 1_555 1_555
H40 C31 1_555 1_555
H41 C31 1_555 1_555
H42 C31 1_555 1_555
O16 C33 1_555 1_555
C6 C13 1_555 1_555
C6 C21 1_555 1_555
C7 C25 1_555 1_555
C8 C10 1_555 1_555
C10 C19 1_555 1_555
C10 C21 1_555 1_555
C11 C22 1_555 1_555
C11 C29 1_555 1_555
C12 C19 1_555 1_555
C14 C22 1_555 1_555
C15 C22 1_555 1_555
C16 C19 1_555 1_555
C18 C24 1_555 1_555
C18 C29 1_555 1_555
C23 C28 1_555 1_555

#END
