
#######################################################################
#
#                 Cambridge Crystallographic Data Centre
#                                CCDC 
#
#######################################################################
#
# If this CIF has been generated from an entry in the Cambridge 
# Structural Database, then it will include bibliographic, chemical, 
# crystal, experimental, refinement or atomic coordinate data resulting 
# from the CCDC's data processing and validation procedures.
#
#######################################################################

data_VEHNOO
_chemical_name_common            'Tooniliatone B'
_chemical_formula_moiety         'C31 H38 O9'
_chemical_name_systematic        
'3-(furan-3-yl)-7-(2-methoxy-2-oxoethyl)-3a,6a,8,8-tetramethyl-11-methylidene-1,9-dioxododecahydro-1H-6,10b-methanobenzo[e]azulene-4,5-diyl diacetate'
_symmetry_cell_setting           orthorhombic
_symmetry_space_group_name_H-M   'P 21 21 21'
_symmetry_Int_Tables_number      19
_space_group_name_Hall           'P 2ac 2ab'
loop_
_symmetry_equiv_pos_site_id
_symmetry_equiv_pos_as_xyz
1 x,y,z
2 1/2-x,-y,1/2+z
3 -x,1/2+y,1/2-z
4 1/2+x,1/2-y,-z
_cell_length_a                   14.68150(10)
_cell_length_b                   17.2043(2)
_cell_length_c                   23.1115(2)
_cell_angle_alpha                90
_cell_angle_beta                 90
_cell_angle_gamma                90
_cell_volume                     5837.62
_exptl_crystal_colour            colorless
_exptl_crystal_description       block
_cell_formula_units_Z            8
loop_
_atom_site_label
_atom_site_type_symbol
_atom_site_fract_x
_atom_site_fract_y
_atom_site_fract_z
O1 O 0.29865(19) 0.51076(15) 0.45619(12)
O2 O 0.11849(19) 0.47993(17) 0.44620(12)
O3 O 0.3662(2) 0.14495(18) 0.56879(13)
O4 O 0.2568(2) 0.20875(17) 0.33437(13)
O5 O 0.1917(2) 0.4504(2) 0.63793(15)
C1 C 0.1439(2) 0.3170(2) 0.41323(16)
C2 C 0.1738(2) 0.2809(2) 0.51044(15)
C3 C 0.2553(2) 0.25499(19) 0.47012(14)
H1 H 0.2409 0.2014 0.4590
C4 C 0.2726(2) 0.4299(2) 0.46190(15)
H2 H 0.3095 0.4071 0.4929
O6 O 0.1270(3) 0.3791(3) 0.70608(15)
C5 C 0.2927(2) 0.38505(19) 0.40633(15)
C6 C 0.2906(3) 0.2596(2) 0.36300(16)
C7 C 0.3301(2) 0.2064(2) 0.55864(16)
C8 C 0.1281(2) 0.3468(2) 0.47395(15)
H3 H 0.0627 0.3494 0.4823
C9 C 0.2456(2) 0.30363(19) 0.41203(14)
C10 C 0.3948(2) 0.3610(2) 0.39598(16)
H4 H 0.4188 0.3420 0.4329
C11 C 0.3468(2) 0.2492(2) 0.50265(16)
H5 H 0.3910 0.2214 0.4793
H6 H 0.3704 0.3008 0.5105
C12 C 0.2066(2) 0.3070(2) 0.57115(15)
H7 H 0.2439 0.3534 0.5647
C13 C 0.1470(3) 0.3880(3) 0.65700(18)
O7 O 0.5454(4) 0.4977(3) 0.3173(2)
C14 C 0.1720(2) 0.4271(2) 0.48121(16)
H8 H 0.1678 0.4428 0.5219
C15 C 0.2701(2) 0.2476(2) 0.60273(15)
C16 C 0.2568(3) 0.4275(2) 0.35258(16)
H9 H 0.1943 0.4419 0.3586
H10 H 0.2611 0.3938 0.3196
H11 H 0.2925 0.4734 0.3459
O8 O 0.3717(5) 0.5047(3) 0.5402(2)
C17 C 0.1248(3) 0.3342(3) 0.60841(17)
H12 H 0.0813 0.3598 0.5832
H13 H 0.0951 0.2886 0.6243
C18 C 0.4587(3) 0.4231(3) 0.3747(2)
C19 C 0.1069(3) 0.2133(2) 0.51492(18)
H14 H 0.0763 0.2066 0.4786
H15 H 0.0629 0.2241 0.5446
H16 H 0.1394 0.1666 0.5245
C20 C 0.3861(3) 0.2908(2) 0.3555(2)
H17 H 0.3962 0.3064 0.3157
H18 H 0.4306 0.2514 0.3656
O9 O 0.1033(6) 0.5599(4) 0.5206(2)
C21 C 0.3376(3) 0.2925(3) 0.64190(18)
H19 H 0.3795 0.2566 0.6593
H20 H 0.3044 0.3192 0.6717
H21 H 0.3707 0.3296 0.6190
C22 C 0.0821(3) 0.3027(3) 0.37308(19)
H22 H 0.0207 0.3110 0.3809
H23 H 0.1000 0.2843 0.3370
C23 C 0.2211(3) 0.1871(3) 0.6410(2)
H24 H 0.1722 0.1639 0.6196
H25 H 0.1970 0.2123 0.6748
H26 H 0.2635 0.1476 0.6525
C24 C 0.3451(4) 0.5421(3) 0.4999(3)
C25 C 0.0823(5) 0.5402(4) 0.4717(2)
C26 C 0.5121(4) 0.4734(4) 0.4094(3)
H27 H 0.5123 0.4754 0.4496
C27 C 0.5620(5) 0.5172(4) 0.3739(4)
H28 H 0.6024 0.5556 0.3858
C28 C 0.2224(5) 0.5048(4) 0.6806(4)
H29 H 0.2585 0.5443 0.6623
H30 H 0.2585 0.4782 0.7090
H31 H 0.1708 0.5283 0.6991
C29 C 0.4824(5) 0.4401(5) 0.3203(3)
H32 H 0.4584 0.4152 0.2880
C30 C 0.3643(7) 0.6266(4) 0.4883(4)
H33 H 0.3866 0.6325 0.4495
H34 H 0.4093 0.6451 0.5152
H35 H 0.3092 0.6561 0.4929
C31 C 0.0224(7) 0.5840(6) 0.4311(3)
H36 H 0.0592 0.6167 0.4068
H37 H -0.0193 0.6156 0.4527
H38 H -0.0110 0.5480 0.4075
O10 O 0.7728(3) 0.73694(16) 0.63302(12)
O11 O 0.9030(3) 0.4107(2) 0.59974(19)
C32 C 0.9080(3) 0.5972(2) 0.67250(18)
H39 H 0.8748 0.5889 0.7088
O12 O 0.6918(4) 0.6750(3) 0.53902(17)
C33 C 0.7515(3) 0.6546(2) 0.63518(17)
H40 H 0.7313 0.6425 0.6746
C34 C 0.8891(3) 0.4740(3) 0.6210(2)
C35 C 0.8349(3) 0.6051(2) 0.62260(16)
O13 O 0.6667(4) 0.4199(3) 0.7942(3)
O14 O 1.0927(4) 0.7414(4) 0.6817(3)
C36 C 0.7416(3) 0.5027(3) 0.72741(18)
H41 H 0.7966 0.4787 0.7423
H42 H 0.7456 0.5583 0.7337
C37 C 0.7316(3) 0.4853(2) 0.66219(18)
H43 H 0.7374 0.4288 0.6589
C38 C 0.8012(3) 0.5194(2) 0.61615(18)
C39 C 0.9711(3) 0.6646(3) 0.6817(2)
O15 O 0.6975(6) 0.7541(3) 0.7154(2)
C40 C 0.6337(3) 0.5043(3) 0.6384(2)
C41 C 0.9539(4) 0.7314(3) 0.7160(2)
H44 H 0.9002 0.7419 0.7358
C42 C 0.6590(4) 0.4701(3) 0.7582(3)
C43 C 0.7417(4) 0.5143(3) 0.56322(19)
C44 C 0.7367(5) 0.7803(3) 0.6760(2)
C45 C 1.0272(6) 0.7763(4) 0.7151(3)
H45 H 1.0332 0.8238 0.7340
C46 C 0.5735(3) 0.5467(3) 0.6835(3)
H46 H 0.6041 0.5964 0.6908
C47 C 0.8843(5) 0.6319(3) 0.5673(2)
H47 H 0.9086 0.6831 0.5731
H48 H 0.8420 0.6328 0.5356
H49 H 0.9331 0.5966 0.5587
C48 C 0.6713(4) 0.6390(3) 0.5942(2)
H50 H 0.6160 0.6623 0.6103
C49 C 0.5677(4) 0.5058(4) 0.7436(3)
C50 C 0.9556(3) 0.5206(3) 0.6572(3)
H51 H 1.0109 0.5306 0.6356
H52 H 0.9713 0.4923 0.6922
C51 C 0.7601(6) 0.4839(3) 0.5122(2)
H53 H 0.7160 0.4839 0.4833
H54 H 0.8172 0.4625 0.5050
C52 C 0.6546(4) 0.5513(3) 0.5832(2)
H55 H 0.6064 0.5439 0.5544
C53 C 0.7599(7) 0.8642(3) 0.6675(3)
H56 H 0.8248 0.8708 0.6694
H57 H 0.7315 0.8947 0.6972
H58 H 0.7384 0.8810 0.6303
C54 C 1.0569(5) 0.6737(4) 0.6629(3)
H59 H 1.0877 0.6380 0.6399
C55 C 0.5886(4) 0.4272(3) 0.6194(3)
H60 H 0.6205 0.4065 0.5866
H61 H 0.5262 0.4366 0.6091
H62 H 0.5910 0.3905 0.6507
C56 C 0.5539(5) 0.5701(6) 0.7910(3)
H63 H 0.5593 0.5471 0.8287
H64 H 0.4945 0.5927 0.7869
H65 H 0.5994 0.6097 0.7865
C57 C 0.4802(4) 0.5683(5) 0.6572(4)
H66 H 0.4849 0.5671 0.6153
H67 H 0.4357 0.5295 0.6686
C58 C 0.6212(10) 0.7058(7) 0.5084(5)
C59 C 0.4921(6) 0.4450(7) 0.7515(5)
H68 H 0.4923 0.4100 0.7191
H69 H 0.4342 0.4707 0.7538
H70 H 0.5027 0.4163 0.7865
C60 C 0.6512(13) 0.7370(7) 0.4552(5)
H71 H 0.6575 0.7924 0.4587
H72 H 0.6075 0.7253 0.4256
H73 H 0.7089 0.7146 0.4452
C61 C 0.4465(5) 0.6472(6) 0.6754(5)
O16 O 0.5522(9) 0.7188(10) 0.5352(7)
O17 O 0.3606(5) 0.6519(5) 0.6894(5)
O18 O 0.4904(7) 0.7040(5) 0.6808(6)
C62 C 0.3337(12) 0.7348(6) 0.6960(9)
H74 H 0.2970 0.7502 0.6636
H75 H 0.3873 0.7666 0.6977
H76 H 0.2993 0.7410 0.7311
loop_
_geom_bond_atom_site_label_1
_geom_bond_atom_site_label_2
_geom_bond_site_symmetry_1
_geom_bond_site_symmetry_2
O1 C4 1_555 1_555
O2 C14 1_555 1_555
O3 C7 1_555 1_555
O4 C6 1_555 1_555
O5 C13 1_555 1_555
C1 C8 1_555 1_555
C2 C3 1_555 1_555
C3 H1 1_555 1_555
C4 H2 1_555 1_555
O6 C13 1_555 1_555
C5 C4 1_555 1_555
C6 C9 1_555 1_555
C7 C11 1_555 1_555
C8 C2 1_555 1_555
H3 C8 1_555 1_555
C9 C1 1_555 1_555
C10 C5 1_555 1_555
H4 C10 1_555 1_555
C11 C3 1_555 1_555
H5 C11 1_555 1_555
H6 C11 1_555 1_555
C12 C2 1_555 1_555
H7 C12 1_555 1_555
C13 C17 1_555 1_555
O7 C27 1_555 1_555
C14 C4 1_555 1_555
H8 C14 1_555 1_555
C15 C7 1_555 1_555
C16 C5 1_555 1_555
H9 C16 1_555 1_555
H10 C16 1_555 1_555
H11 C16 1_555 1_555
O8 C24 1_555 1_555
C17 C12 1_555 1_555
H12 C17 1_555 1_555
H13 C17 1_555 1_555
C18 C10 1_555 1_555
C19 C2 1_555 1_555
H14 C19 1_555 1_555
H15 C19 1_555 1_555
H16 C19 1_555 1_555
C20 C6 1_555 1_555
H17 C20 1_555 1_555
H18 C20 1_555 1_555
O9 C25 1_555 1_555
C21 C15 1_555 1_555
H19 C21 1_555 1_555
H20 C21 1_555 1_555
H21 C21 1_555 1_555
C22 C1 1_555 1_555
H22 C22 1_555 1_555
H23 C22 1_555 1_555
C23 C15 1_555 1_555
H24 C23 1_555 1_555
H25 C23 1_555 1_555
H26 C23 1_555 1_555
C24 O1 1_555 1_555
C25 O2 1_555 1_555
C26 C18 1_555 1_555
H27 C26 1_555 1_555
C27 C26 1_555 1_555
H28 C27 1_555 1_555
C28 O5 1_555 1_555
H29 C28 1_555 1_555
H30 C28 1_555 1_555
H31 C28 1_555 1_555
C29 O7 1_555 1_555
H32 C29 1_555 1_555
C30 C24 1_555 1_555
H33 C30 1_555 1_555
H34 C30 1_555 1_555
H35 C30 1_555 1_555
C31 C25 1_555 1_555
H36 C31 1_555 1_555
H37 C31 1_555 1_555
H38 C31 1_555 1_555
O10 C33 1_555 1_555
O11 C34 1_555 1_555
C32 H39 1_555 1_555
O12 C48 1_555 1_555
C33 H40 1_555 1_555
C34 C38 1_555 1_555
C35 C32 1_555 1_555
O13 C42 1_555 1_555
O14 C45 1_555 1_555
C36 H41 1_555 1_555
H42 C36 1_555 1_555
C37 C36 1_555 1_555
H43 C37 1_555 1_555
C38 C35 1_555 1_555
C39 C32 1_555 1_555
O15 C44 1_555 1_555
C40 C37 1_555 1_555
C41 C39 1_555 1_555
H44 C41 1_555 1_555
C42 C36 1_555 1_555
C43 C38 1_555 1_555
C44 O10 1_555 1_555
C45 C41 1_555 1_555
H45 C45 1_555 1_555
C46 C40 1_555 1_555
H46 C46 1_555 1_555
C47 C35 1_555 1_555
H47 C47 1_555 1_555
H48 C47 1_555 1_555
H49 C47 1_555 1_555
C48 C33 1_555 1_555
H50 C48 1_555 1_555
C49 C42 1_555 1_555
C50 C32 1_555 1_555
H51 C50 1_555 1_555
H52 C50 1_555 1_555
C51 C43 1_555 1_555
H53 C51 1_555 1_555
H54 C51 1_555 1_555
C52 C40 1_555 1_555
H55 C52 1_555 1_555
C53 C44 1_555 1_555
H56 C53 1_555 1_555
H57 C53 1_555 1_555
H58 C53 1_555 1_555
C54 O14 1_555 1_555
H59 C54 1_555 1_555
C55 C40 1_555 1_555
H60 C55 1_555 1_555
H61 C55 1_555 1_555
H62 C55 1_555 1_555
C56 C49 1_555 1_555
H63 C56 1_555 1_555
H64 C56 1_555 1_555
H65 C56 1_555 1_555
C57 C46 1_555 1_555
H66 C57 1_555 1_555
H67 C57 1_555 1_555
C58 O12 1_555 1_555
C59 C49 1_555 1_555
H68 C59 1_555 1_555
H69 C59 1_555 1_555
H70 C59 1_555 1_555
C60 C58 1_555 1_555
H71 C60 1_555 1_555
H72 C60 1_555 1_555
H73 C60 1_555 1_555
C61 C57 1_555 1_555
O16 C58 1_555 1_555
O17 C61 1_555 1_555
O18 C61 1_555 1_555
C62 O17 1_555 1_555
H74 C62 1_555 1_555
H75 C62 1_555 1_555
H76 C62 1_555 1_555
C3 C9 1_555 1_555
C5 C9 1_555 1_555
C8 C14 1_555 1_555
C10 C20 1_555 1_555
C12 C15 1_555 1_555
C18 C29 1_555 1_555
C33 C35 1_555 1_555
C34 C50 1_555 1_555
C37 C38 1_555 1_555
C39 C54 1_555 1_555
C43 C52 1_555 1_555
C46 C49 1_555 1_555
C48 C52 1_555 1_555

#END
