
#######################################################################
#
#                 Cambridge Crystallographic Data Centre
#                                CCDC 
#
#######################################################################
#
# If this CIF has been generated from an entry in the Cambridge 
# Structural Database, then it will include bibliographic, chemical, 
# crystal, experimental, refinement or atomic coordinate data resulting 
# from the CCDC's data processing and validation procedures.
#
#######################################################################

data_VEHQII
_chemical_formula_moiety         'C84 H21 O4 P1'
_chemical_name_systematic        
'Dimethyl 2,2-C60fullerenediyl-1-(triphenylphosphonium)acetylide-1,2-dicarboxylate'
_symmetry_cell_setting           orthorhombic
_symmetry_space_group_name_H-M   'P b c a'
_symmetry_Int_Tables_number      61
_space_group_name_Hall           '-P 2ac 2ab'
loop_
_symmetry_equiv_pos_site_id
_symmetry_equiv_pos_as_xyz
1 x,y,z
2 1/2-x,-y,1/2+z
3 1/2+x,1/2-y,-z
4 -x,1/2+y,1/2-z
5 -x,-y,-z
6 1/2+x,y,1/2-z
7 1/2-x,1/2+y,z
8 x,1/2-y,1/2+z
_cell_length_a                   18.0063(11)
_cell_length_b                   20.0537(12)
_cell_length_c                   27.985(2)
_cell_angle_alpha                90
_cell_angle_beta                 90
_cell_angle_gamma                90
_cell_volume                     10105.2
_cell_formula_units_Z            8
loop_
_atom_site_label
_atom_site_type_symbol
_atom_site_fract_x
_atom_site_fract_y
_atom_site_fract_z
P1 P 0.1120(2) 0.2128(2) 0.5763(1)
O1 O 0.2598(5) 0.2257(5) 0.6029(3)
O2 O 0.3115(5) 0.1392(6) 0.5624(3)
O3 O 0.1939(7) 0.0303(6) 0.5807(4)
O4 O 0.0930(7) 0.0123(6) 0.5402(5)
C1 C 0.1903(10) 0.1250(8) 0.2173(5)
C2 C 0.1872(12) 0.2725(8) 0.2957(6)
C3 C 0.3543(9) 0.0083(8) 0.3127(6)
C4 C 0.3171(11) 0.2442(8) 0.3056(6)
C5 C 0.1548(9) 0.0133(8) 0.2447(5)
C6 C 0.3500(9) 0.0493(9) 0.2725(5)
C7 C 0.0297(9) 0.1877(9) 0.3298(6)
C8 C 0.2550(12) 0.2798(7) 0.3277(6)
C9 C 0.2126(15) 0.2353(9) 0.2531(6)
C10 C 0.3915(9) 0.1454(11) 0.3183(7)
C11 C 0.3179(9) 0.1552(10) 0.2456(6)
C12 C 0.1181(11) 0.2646(8) 0.3147(6)
C13 C 0.1080(10) 0.2628(8) 0.3653(6)
C14 C 0.0315(9) 0.0821(8) 0.2867(6)
C15 C 0.2958(10) -0.0406(9) 0.3238(6)
C16 C 0.2955(9) 0.2409(7) 0.4054(5)
C17 C 0.0692(10) 0.2189(8) 0.2925(6)
C18 C 0.1643(10) 0.1892(8) 0.2339(5)
C19 C 0.3694(9) 0.1185(10) 0.2749(5)
C20 C 0.1610(8) -0.0537(7) 0.3118(5)
C21 C 0.0533(10) 0.0157(9) 0.3031(6)
C22 C 0.0723(9) 0.1133(9) 0.2502(6)
C23 C 0.1119(10) -0.0178(9) 0.2828(6)
C24 C 0.2652(11) 0.1079(8) 0.2245(5)
C25 C 0.0097(8) 0.1205(10) 0.3278(6)
C26 C 0.0894(9) 0.1824(8) 0.2538(5)
C27 C 0.3744(7) 0.1426(10) 0.4005(5)
C28 C 0.1541(8) -0.0563(7) 0.3613(5)
C29 C 0.0155(8) 0.0778(10) 0.3692(5)
C30 C 0.3549(9) 0.2089(8) 0.3854(5)
C31 C 0.2316(9) -0.0033(8) 0.2505(5)
C32 C 0.3658(10) 0.2095(9) 0.3345(6)
C33 C 0.2938(12) 0.2182(10) 0.2600(5)
C34 C 0.2869(9) -0.0424(7) 0.3740(5)
C35 C 0.3379(8) 0.0041(8) 0.3948(5)
C36 C 0.1928(8) -0.0111(7) 0.4340(5)
C37 C 0.0523(8) 0.2158(8) 0.3753(5)
C38 C 0.3811(8) 0.0368(10) 0.3567(6)
C39 C 0.2456(11) 0.2766(8) 0.3763(6)
C40 C 0.3351(7) 0.1115(7) 0.4372(5)
C41 C 0.1731(10) 0.2679(6) 0.3963(5)
C42 C 0.2380(10) -0.0456(6) 0.2925(5)
C43 C 0.0899(7) 0.0668(7) 0.4428(5)
C44 C 0.3980(8) 0.1028(10) 0.3602(6)
C45 C 0.2856(9) 0.0418(9) 0.2406(5)
C46 C 0.2203(7) 0.0970(7) 0.4780(5)
C47 C 0.1344(9) 0.0773(7) 0.2286(4)
C48 C 0.2546(8) 0.2102(8) 0.4428(5)
C49 C 0.0918(8) -0.0203(8) 0.3838(5)
C50 C 0.2170(9) -0.0497(7) 0.3936(5)
C51 C 0.0597(7) 0.1747(8) 0.4152(5)
C52 C 0.1156(8) 0.0060(7) 0.4280(5)
C53 C 0.3146(8) 0.0421(7) 0.4343(5)
C54 C 0.0433(9) 0.0140(10) 0.3550(5)
C55 C 0.1345(7) 0.1170(6) 0.4708(4)
C56 C 0.1202(7) 0.1809(7) 0.4482(5)
C57 C 0.2737(7) 0.1466(8) 0.4609(5)
C58 C 0.0415(8) 0.1052(8) 0.4126(5)
C59 C 0.2428(8) 0.0330(7) 0.4557(5)
C60 C 0.1773(10) 0.2256(6) 0.4375(5)
C61 C 0.1705(7) 0.1081(7) 0.5201(4)
C62 C 0.1467(9) 0.0438(7) 0.5456(5)
C63 C 0.1726(11) -0.0253(10) 0.6139(7)
C64 C 0.1833(7) 0.1666(7) 0.5505(4)
C65 C 0.2566(9) 0.1740(8) 0.5704(4)
C66 C 0.3308(10) 0.2354(11) 0.6295(6)
C67 C 0.0863(8) 0.1828(7) 0.6353(5)
C68 C 0.1368(9) 0.1461(8) 0.6616(5)
C69 C 0.1161(9) 0.1200(8) 0.7067(5)
C70 C 0.0485(9) 0.1302(8) 0.7247(5)
C71 C -0.0021(8) 0.1673(8) 0.6987(5)
C72 C 0.0151(8) 0.1934(7) 0.6537(5)
C73 C 0.1332(8) 0.3004(7) 0.5778(5)
C74 C 0.0946(8) 0.3405(7) 0.6119(5)
C75 C 0.1037(9) 0.4106(9) 0.6095(6)
C76 C 0.1490(10) 0.4396(8) 0.5728(7)
C77 C 0.1856(10) 0.3984(8) 0.5416(7)
C78 C 0.1767(8) 0.3269(8) 0.5427(5)
C79 C 0.0288(7) 0.2067(7) 0.5418(5)
C80 C -0.0008(9) 0.2627(8) 0.5173(5)
C81 C -0.1043(8) 0.1975(8) 0.4896(5)
C82 C -0.0683(8) 0.2591(8) 0.4922(6)
C83 C -0.0774(9) 0.1423(9) 0.5114(5)
C84 C -0.0095(8) 0.1453(8) 0.5399(5)
loop_
_geom_bond_atom_site_label_1
_geom_bond_atom_site_label_2
_geom_bond_site_symmetry_1
_geom_bond_site_symmetry_2
P1 C64 1_555 1_555
O1 C65 1_555 1_555
O2 C65 1_555 1_555
O3 C62 1_555 1_555
O4 C62 1_555 1_555
C1 C18 1_555 1_555
C2 C8 1_555 1_555
C3 C6 1_555 1_555
C4 C8 1_555 1_555
C5 C23 1_555 1_555
C6 C19 1_555 1_555
C7 C17 1_555 1_555
C8 C39 1_555 1_555
C9 C2 1_555 1_555
C10 C19 1_555 1_555
C11 C19 1_555 1_555
C12 C2 1_555 1_555
C13 C12 1_555 1_555
C14 C21 1_555 1_555
C15 C3 1_555 1_555
C16 C30 1_555 1_555
C17 C12 1_555 1_555
C18 C9 1_555 1_555
C20 C23 1_555 1_555
C21 C23 1_555 1_555
C22 C14 1_555 1_555
C24 C1 1_555 1_555
C25 C7 1_555 1_555
C26 C17 1_555 1_555
C27 C30 1_555 1_555
C28 C20 1_555 1_555
C29 C25 1_555 1_555
C30 C32 1_555 1_555
C31 C5 1_555 1_555
C32 C4 1_555 1_555
C33 C4 1_555 1_555
C34 C15 1_555 1_555
C35 C34 1_555 1_555
C36 C50 1_555 1_555
C37 C7 1_555 1_555
C38 C3 1_555 1_555
C39 C16 1_555 1_555
C40 C27 1_555 1_555
C41 C13 1_555 1_555
C42 C15 1_555 1_555
C43 C52 1_555 1_555
C44 C10 1_555 1_555
C45 C6 1_555 1_555
C46 C55 1_555 1_555
C47 C1 1_555 1_555
C48 C16 1_555 1_555
C49 C28 1_555 1_555
C50 C28 1_555 1_555
C51 C37 1_555 1_555
C52 C36 1_555 1_555
C53 C35 1_555 1_555
C54 C21 1_555 1_555
C55 C43 1_555 1_555
C56 C51 1_555 1_555
C57 C40 1_555 1_555
C58 C29 1_555 1_555
C59 C36 1_555 1_555
C60 C41 1_555 1_555
C61 C46 1_555 1_555
C62 C61 1_555 1_555
C63 O3 1_555 1_555
C64 C61 1_555 1_555
C65 C64 1_555 1_555
C66 O1 1_555 1_555
C67 P1 1_555 1_555
C68 C67 1_555 1_555
C69 C68 1_555 1_555
C70 C69 1_555 1_555
C71 C70 1_555 1_555
C72 C67 1_555 1_555
C73 P1 1_555 1_555
C74 C73 1_555 1_555
C75 C74 1_555 1_555
C76 C75 1_555 1_555
C77 C76 1_555 1_555
C78 C73 1_555 1_555
C79 P1 1_555 1_555
C80 C79 1_555 1_555
C81 C82 1_555 1_555
C82 C80 1_555 1_555
C83 C81 1_555 1_555
C84 C79 1_555 1_555
C5 C47 1_555 1_555
C9 C33 1_555 1_555
C10 C32 1_555 1_555
C11 C24 1_555 1_555
C11 C33 1_555 1_555
C13 C37 1_555 1_555
C14 C25 1_555 1_555
C18 C26 1_555 1_555
C20 C42 1_555 1_555
C22 C47 1_555 1_555
C22 C26 1_555 1_555
C24 C45 1_555 1_555
C27 C44 1_555 1_555
C29 C54 1_555 1_555
C31 C42 1_555 1_555
C31 C45 1_555 1_555
C34 C50 1_555 1_555
C35 C38 1_555 1_555
C38 C44 1_555 1_555
C39 C41 1_555 1_555
C40 C53 1_555 1_555
C43 C58 1_555 1_555
C46 C57 1_555 1_555
C46 C59 1_555 1_555
C48 C57 1_555 1_555
C48 C60 1_555 1_555
C49 C54 1_555 1_555
C49 C52 1_555 1_555
C51 C58 1_555 1_555
C53 C59 1_555 1_555
C55 C56 1_555 1_555
C55 C61 1_555 1_555
C56 C60 1_555 1_555
C71 C72 1_555 1_555
C77 C78 1_555 1_555
C83 C84 1_555 1_555

#END
