
#######################################################################
#
#                 Cambridge Crystallographic Data Centre
#                                CCDC 
#
#######################################################################
#
# If this CIF has been generated from an entry in the Cambridge 
# Structural Database, then it will include bibliographic, chemical, 
# crystal, experimental, refinement or atomic coordinate data resulting 
# from the CCDC's data processing and validation procedures.
#
#######################################################################

data_VEHRIK
_chemical_formula_moiety         'C19 H29 N1 O3 Si2'
_chemical_name_systematic        
(Z)-1-(4-Nitrophenyl)-2,5-bis(trimethylsilyl)hepta-2,3,4-trien-1-ol
_symmetry_cell_setting           monoclinic
_symmetry_space_group_name_H-M   'P 21/c'
_symmetry_Int_Tables_number      14
_space_group_name_Hall           '-P 2ybc'
loop_
_symmetry_equiv_pos_site_id
_symmetry_equiv_pos_as_xyz
1 x,y,z
2 -x,1/2+y,1/2-z
3 -x,-y,-z
4 x,1/2-y,1/2+z
_cell_length_a                   11.355(8)
_cell_length_b                   12.119(8)
_cell_length_c                   32.93(2)
_cell_angle_alpha                90
_cell_angle_beta                 94.501(16)
_cell_angle_gamma                90
_cell_volume                     4517.56
_cell_formula_units_Z            8
loop_
_atom_site_label
_atom_site_type_symbol
_atom_site_fract_x
_atom_site_fract_y
_atom_site_fract_z
Si1 Si 0.21353(14) 1.01467(12) 0.07087(4)
Si2 Si 0.20499(15) 0.55076(13) 0.08729(5)
O1 O 0.1999(4) 1.1116(3) 0.15784(14)
H1 H 0.1830 1.1495 0.1772
O2 O 0.0548(6) 0.7678(4) 0.31464(15)
O3 O -0.1244(6) 0.7923(4) 0.29434(16)
N1 N -0.0191(8) 0.8054(4) 0.29106(18)
C1 C 0.1598(4) 0.9537(4) 0.11840(14)
C2 C 0.1555(4) 0.8446(5) 0.12335(14)
C3 C 0.1503(4) 0.7415(5) 0.12730(15)
C4 C 0.1442(5) 0.6333(4) 0.12895(16)
C5 C 0.0845(6) 0.5756(5) 0.1631(2)
H3 H 0.0449 0.5106 0.1515
H4 H 0.1463 0.5499 0.1829
C6 C 0.0024(8) 0.6339(6) 0.1845(3)
H5 H 0.0430 0.6877 0.2018
H6 H -0.0390 0.5835 0.2008
H7 H -0.0530 0.6704 0.1655
C7 C 0.1104(5) 1.0315(4) 0.14909(15)
H8 H 0.0397 1.0679 0.1364
C8 C 0.0801(5) 0.9766(4) 0.18812(15)
C9 C -0.0365(5) 0.9648(4) 0.19537(15)
H9 H -0.0946 0.9944 0.1770
C10 C -0.0692(5) 0.9101(4) 0.22932(17)
H10 H -0.1486 0.9029 0.2339
C11 C 0.0146(6) 0.8670(4) 0.25576(16)
C12 C 0.1320(6) 0.8782(5) 0.25080(17)
H11 H 0.1888 0.8502 0.2700
C13 C 0.1644(5) 0.9328(4) 0.21619(17)
H12 H 0.2440 0.9400 0.2119
C14 C 0.1010(6) 1.1161(5) 0.05082(18)
H13 H 0.0807 1.1638 0.0725
H14 H 0.0317 1.0777 0.0399
H15 H 0.1324 1.1593 0.0298
C15 C 0.3575(5) 1.0816(5) 0.08257(19)
H16 H 0.4154 1.0268 0.0911
H17 H 0.3513 1.1344 0.1040
H18 H 0.3810 1.1185 0.0587
C16 C 0.2263(6) 0.9034(5) 0.03272(17)
H19 H 0.2403 0.9354 0.0069
H20 H 0.1543 0.8616 0.0301
H21 H 0.2908 0.8556 0.0414
C17 C 0.3497(5) 0.6019(5) 0.07738(19)
H22 H 0.4039 0.5890 0.1008
H23 H 0.3451 0.6797 0.0719
H24 H 0.3770 0.5642 0.0542
C18 C 0.2153(8) 0.4040(5) 0.1023(3)
H25 H 0.2361 0.3606 0.0795
H26 H 0.1405 0.3797 0.1107
H27 H 0.2748 0.3955 0.1245
C19 C 0.1047(6) 0.5625(7) 0.0414(2)
H28 H 0.0978 0.6386 0.0334
H29 H 0.0283 0.5346 0.0467
H30 H 0.1352 0.5205 0.0198
Si3 Si 0.71427(14) 0.77109(12) 0.06950(4)
Si4 Si 0.69766(16) 0.31104(13) 0.09121(5)
O4 O 0.6832(6) 0.8791(4) 0.15411(16)
H2 H 0.6931 0.8901 0.1787
O5 O 0.4937(6) 0.5415(5) 0.30800(16)
O6 O 0.3198(6) 0.5698(5) 0.28148(17)
N2 N 0.4259(7) 0.5798(5) 0.28199(19)
C20 C 0.6599(4) 0.7167(4) 0.11815(13)
C21 C 0.6561(4) 0.6090(5) 0.12531(14)
C22 C 0.6509(5) 0.5053(5) 0.12992(14)
C23 C 0.6437(4) 0.3972(4) 0.13273(15)
C24 C 0.5857(6) 0.3430(5) 0.16769(19)
H31 H 0.5300 0.2887 0.1560
H32 H 0.6466 0.3028 0.1839
C25 C 0.5258(8) 0.4091(6) 0.1944(2)
H33 H 0.5818 0.4534 0.2105
H34 H 0.4836 0.3628 0.2120
H35 H 0.4710 0.4562 0.1790
C26 C 0.6076(6) 0.7973(5) 0.14704(18)
H36 H 0.5379 0.8293 0.1320
C27 C 0.5652(5) 0.7485(4) 0.18493(15)
C28 C 0.4462(5) 0.7320(4) 0.18557(16)
H37 H 0.3959 0.7572 0.1639
C29 C 0.3994(6) 0.6793(5) 0.21741(19)
H38 H 0.3183 0.6685 0.2173
C30 C 0.4726(6) 0.6434(4) 0.24889(17)
C31 C 0.5912(6) 0.6583(4) 0.25050(15)
H39 H 0.6395 0.6337 0.2728
C32 C 0.6388(5) 0.7110(4) 0.21812(16)
H40 H 0.7200 0.7215 0.2185
C33 C 0.6026(5) 0.8661(5) 0.04569(18)
H41 H 0.5813 0.9193 0.0654
H42 H 0.5339 0.8251 0.0359
H43 H 0.6346 0.9035 0.0233
C34 C 0.8511(6) 0.8462(6) 0.0799(2)
H44 H 0.9125 0.7958 0.0894
H45 H 0.8411 0.9010 0.1004
H46 H 0.8724 0.8815 0.0555
C35 C 0.7313(8) 0.6540(5) 0.03460(19)
H47 H 0.7430 0.6815 0.0079
H48 H 0.6614 0.6092 0.0334
H49 H 0.7983 0.6105 0.0443
C36 C 0.8441(5) 0.3569(5) 0.0805(2)
H50 H 0.8401 0.4317 0.0709
H51 H 0.8737 0.3104 0.0600
H52 H 0.8960 0.3529 0.1049
C37 C 0.7051(6) 0.1643(4) 0.1074(2)
H53 H 0.7619 0.1565 0.1304
H54 H 0.7283 0.1194 0.0854
H55 H 0.6289 0.1410 0.1149
C38 C 0.5935(6) 0.3242(6) 0.04540(19)
H56 H 0.5174 0.2968 0.0513
H57 H 0.6223 0.2823 0.0235
H58 H 0.5868 0.4004 0.0376
loop_
_geom_bond_atom_site_label_1
_geom_bond_atom_site_label_2
_geom_bond_site_symmetry_1
_geom_bond_site_symmetry_2
Si1 C1 1_555 1_555
Si2 C4 1_555 1_555
Si3 C20 1_555 1_555
Si4 C23 1_555 1_555
O1 H1 1_555 1_555
O2 N1 1_555 1_555
O3 N1 1_555 1_555
O4 H2 1_555 1_555
O5 N2 1_555 1_555
O6 N2 1_555 1_555
N1 C11 1_555 1_555
N2 C30 1_555 1_555
C1 C2 1_555 1_555
C2 C3 1_555 1_555
C3 C4 1_555 1_555
C4 C5 1_555 1_555
C5 H3 1_555 1_555
H4 C5 1_555 1_555
C6 C5 1_555 1_555
H5 C6 1_555 1_555
H6 C6 1_555 1_555
H7 C6 1_555 1_555
C7 O1 1_555 1_555
H8 C7 1_555 1_555
C8 C7 1_555 1_555
C9 C8 1_555 1_555
H9 C9 1_555 1_555
C10 C9 1_555 1_555
H10 C10 1_555 1_555
C11 C10 1_555 1_555
C12 C11 1_555 1_555
H11 C12 1_555 1_555
C13 C8 1_555 1_555
H12 C13 1_555 1_555
C14 Si1 1_555 1_555
H13 C14 1_555 1_555
H14 C14 1_555 1_555
H15 C14 1_555 1_555
C15 Si1 1_555 1_555
H16 C15 1_555 1_555
H17 C15 1_555 1_555
H18 C15 1_555 1_555
C16 Si1 1_555 1_555
H19 C16 1_555 1_555
H20 C16 1_555 1_555
H21 C16 1_555 1_555
C17 Si2 1_555 1_555
H22 C17 1_555 1_555
H23 C17 1_555 1_555
H24 C17 1_555 1_555
C18 Si2 1_555 1_555
H25 C18 1_555 1_555
H26 C18 1_555 1_555
H27 C18 1_555 1_555
C19 Si2 1_555 1_555
H28 C19 1_555 1_555
H29 C19 1_555 1_555
H30 C19 1_555 1_555
C20 C21 1_555 1_555
C21 C22 1_555 1_555
C22 C23 1_555 1_555
C23 C24 1_555 1_555
C24 H31 1_555 1_555
H32 C24 1_555 1_555
C25 C24 1_555 1_555
H33 C25 1_555 1_555
H34 C25 1_555 1_555
H35 C25 1_555 1_555
C26 O4 1_555 1_555
H36 C26 1_555 1_555
C27 C26 1_555 1_555
C28 C27 1_555 1_555
H37 C28 1_555 1_555
C29 C28 1_555 1_555
H38 C29 1_555 1_555
C30 C29 1_555 1_555
C31 C30 1_555 1_555
H39 C31 1_555 1_555
C32 C27 1_555 1_555
H40 C32 1_555 1_555
C33 Si3 1_555 1_555
H41 C33 1_555 1_555
H42 C33 1_555 1_555
H43 C33 1_555 1_555
C34 Si3 1_555 1_555
H44 C34 1_555 1_555
H45 C34 1_555 1_555
H46 C34 1_555 1_555
C35 Si3 1_555 1_555
H47 C35 1_555 1_555
H48 C35 1_555 1_555
H49 C35 1_555 1_555
C36 Si4 1_555 1_555
H50 C36 1_555 1_555
H51 C36 1_555 1_555
H52 C36 1_555 1_555
C37 Si4 1_555 1_555
H53 C37 1_555 1_555
H54 C37 1_555 1_555
H55 C37 1_555 1_555
C38 Si4 1_555 1_555
H56 C38 1_555 1_555
H57 C38 1_555 1_555
H58 C38 1_555 1_555
C1 C7 1_555 1_555
C12 C13 1_555 1_555
C20 C26 1_555 1_555
C31 C32 1_555 1_555

#END
