
#######################################################################
#
#                 Cambridge Crystallographic Data Centre
#                                CCDC 
#
#######################################################################
#
# If this CIF has been generated from an entry in the Cambridge 
# Structural Database, then it will include bibliographic, chemical, 
# crystal, experimental, refinement or atomic coordinate data resulting 
# from the CCDC's data processing and validation procedures.
#
#######################################################################

data_VEHREI
_chemical_formula_moiety         'C27 H23 N4 O2 S1 1+,B1 F4 1-'
_chemical_name_systematic        
'1-benzyl-3-methyl-4-((((pyren-1-yl)sulfonyl)amino)methyl)-1H-1,2,3-triazol-3-ium tetrafluoroborate'
_symmetry_cell_setting           triclinic
_symmetry_space_group_name_H-M   'P -1'
_symmetry_Int_Tables_number      2
_space_group_name_Hall           '-P 1'
loop_
_symmetry_equiv_pos_site_id
_symmetry_equiv_pos_as_xyz
1 x,y,z
2 -x,-y,-z
_cell_length_a                   10.495(3)
_cell_length_b                   10.849(3)
_cell_length_c                   12.002(4)
_cell_angle_alpha                93.109(7)
_cell_angle_beta                 103.855(7)
_cell_angle_gamma                104.760(8)
_cell_volume                     1273.31
_exptl_crystal_colour            yellow
_exptl_crystal_description       block
_cell_formula_units_Z            2
loop_
_atom_site_label
_atom_site_type_symbol
_atom_site_fract_x
_atom_site_fract_y
_atom_site_fract_z
S1 S 0.71212(10) 0.18113(9) 0.46554(9)
C1 C 0.7013(3) 0.4212(3) 0.5494(3)
C2 C 0.6815(3) 0.5439(3) 0.5287(3)
N1 N 0.8765(3) 0.2039(3) 0.5174(3)
H1 H 0.9053 0.1668 0.5760
C3 C 0.6841(4) 0.3338(4) 0.4521(3)
C4 C 0.6970(3) 0.6366(3) 0.6230(3)
C5 C 0.6780(4) 0.7588(4) 0.6024(4)
O1 O 0.6788(3) 0.1163(3) 0.3515(3)
C6 C 0.7349(4) 0.3953(4) 0.6665(3)
H2 H 0.7484 0.3158 0.6819
O2 O 0.6516(3) 0.1201(3) 0.5491(3)
C7 C 0.7300(4) 0.6066(4) 0.7377(4)
N2 N 0.9434(4) 0.1378(3) 0.2866(3)
C8 C 0.6457(4) 0.5749(4) 0.4144(3)
C9 C 0.9267(4) 0.3261(4) 0.2536(4)
H3 H 0.9236 0.4111 0.2608
C10 C 0.6274(4) 0.4838(5) 0.3224(4)
H4 H 0.6017 0.5029 0.2471
N3 N 0.9105(4) 0.2522(4) 0.1565(3)
C11 C 0.9754(4) 0.2860(4) 0.4663(3)
H5 H 1.0660 0.2800 0.5039
H6 H 0.9745 0.3744 0.4814
C12 C 0.9488(4) 0.2524(4) 0.3404(4)
C13 C 0.7477(4) 0.4826(4) 0.7553(3)
H7 H 0.7686 0.4614 0.8303
C14 C 0.6469(4) 0.3657(4) 0.3413(4)
H8 H 0.6349 0.3059 0.2784
C15 C 0.6438(4) 0.7868(4) 0.4856(5)
H9 H 0.6316 0.8670 0.4713
N4 N 0.9187(4) 0.1356(4) 0.1741(3)
C16 C 0.6291(4) 0.7010(5) 0.3975(4)
H10 H 0.6076 0.7227 0.3227
C17 C 0.7243(6) 0.2458(4) -0.0136(4)
C18 C 0.7430(5) 0.6974(5) 0.8281(4)
H11 H 0.7639 0.6782 0.9037
C19 C 0.6923(5) 0.8475(4) 0.6966(5)
H12 H 0.6796 0.9279 0.6843
C20 C 0.8761(6) 0.2831(6) 0.0370(4)
H13 H 0.9174 0.2377 -0.0098
H14 H 0.9130 0.3745 0.0361
C21 C 0.7251(6) 0.8164(5) 0.8068(6)
H15 H 0.7355 0.8767 0.8687
C22 C 0.9590(6) 0.0217(5) 0.3373(5)
H16 H 0.9508 -0.0442 0.2773
H17 H 0.8893 -0.0068 0.3768
H18 H 1.0472 0.0397 0.3912
C23 C 0.6453(6) 0.3193(6) 0.0156(5)
H19 H 0.6872 0.3955 0.0650
C24 C 0.6647(9) 0.1421(7) -0.0904(7)
H20 H 0.7184 0.0956 -0.1146
C25 C 0.5075(8) 0.2826(9) -0.0264(6)
H21 H 0.4555 0.3330 -0.0053
C26 C 0.5260(13) 0.1019(9) -0.1349(10)
H22 H 0.4861 0.0285 -0.1882
C27 C 0.4455(9) 0.1715(11) -0.0999(8)
H23 H 0.3508 0.1430 -0.1259
F1 F 1.0402(4) 0.7778(3) 0.2140(3)
F2 F 0.9197(4) 0.6184(4) 0.2842(3)
F3 F 0.9344(5) 0.5883(4) 0.1084(4)
B1 B 0.9219(6) 0.6783(6) 0.1861(4)
F4 F 0.8153(7) 0.7140(9) 0.1451(6)
loop_
_geom_bond_atom_site_label_1
_geom_bond_atom_site_label_2
_geom_bond_site_symmetry_1
_geom_bond_site_symmetry_2
S1 N1 1_555 1_555
C1 C2 1_555 1_555
C2 C4 1_555 1_555
N1 H1 1_555 1_555
C3 S1 1_555 1_555
C4 C5 1_555 1_555
C5 C15 1_555 1_555
O1 S1 1_555 1_555
C6 C1 1_555 1_555
H2 C6 1_555 1_555
O2 S1 1_555 1_555
C7 C4 1_555 1_555
N2 C12 1_555 1_555
C8 C2 1_555 1_555
C9 H3 1_555 1_555
C10 C8 1_555 1_555
H4 C10 1_555 1_555
N3 C9 1_555 1_555
C11 N1 1_555 1_555
H5 C11 1_555 1_555
H6 C11 1_555 1_555
C12 C9 1_555 1_555
C13 C6 1_555 1_555
H7 C13 1_555 1_555
C14 C3 1_555 1_555
H8 C14 1_555 1_555
C15 H9 1_555 1_555
N4 N2 1_555 1_555
C16 C8 1_555 1_555
H10 C16 1_555 1_555
C17 C20 1_555 1_555
C18 C7 1_555 1_555
H11 C18 1_555 1_555
C19 C5 1_555 1_555
H12 C19 1_555 1_555
C20 N3 1_555 1_555
H13 C20 1_555 1_555
H14 C20 1_555 1_555
C21 C18 1_555 1_555
H15 C21 1_555 1_555
C22 N2 1_555 1_555
H16 C22 1_555 1_555
H17 C22 1_555 1_555
H18 C22 1_555 1_555
C23 C17 1_555 1_555
H19 C23 1_555 1_555
C24 C17 1_555 1_555
H20 C24 1_555 1_555
C25 C23 1_555 1_555
H21 C25 1_555 1_555
C26 C24 1_555 1_555
H22 C26 1_555 1_555
C27 C25 1_555 1_555
H23 C27 1_555 1_555
F1 B1 1_555 1_555
F2 B1 1_555 1_555
F3 B1 1_555 1_555
B1 F4 1_555 1_555
C1 C3 1_555 1_555
C7 C13 1_555 1_555
C10 C14 1_555 1_555
N3 N4 1_555 1_555
C11 C12 1_555 1_555
C15 C16 1_555 1_555
C19 C21 1_555 1_555
C26 C27 1_555 1_555

#END
