
#######################################################################
#
#                 Cambridge Crystallographic Data Centre
#                                CCDC 
#
#######################################################################
#
# If this CIF has been generated from an entry in the Cambridge 
# Structural Database, then it will include bibliographic, chemical, 
# crystal, experimental, refinement or atomic coordinate data resulting 
# from the CCDC's data processing and validation procedures.
#
#######################################################################

data_VEHXIS
_chemical_formula_moiety         'C27 H23 N3 O1'
_chemical_name_systematic        
11-methyl-9-phenyl-12-propyl-9,13-dihydronaphtho[1',2':5,6]pyrano[2,3-b]pyrazolo[4,3-e]pyridine
_symmetry_cell_setting           triclinic
_symmetry_space_group_name_H-M   'P -1'
_symmetry_Int_Tables_number      2
_space_group_name_Hall           '-P 1'
loop_
_symmetry_equiv_pos_site_id
_symmetry_equiv_pos_as_xyz
1 x,y,z
2 -x,-y,-z
_cell_length_a                   10.8840(9)
_cell_length_b                   14.4830(13)
_cell_length_c                   14.9970(12)
_cell_angle_alpha                104.061(2)
_cell_angle_beta                 106.620(2)
_cell_angle_gamma                100.8970(10)
_cell_volume                     2110.68
_cell_formula_units_Z            4
loop_
_atom_site_label
_atom_site_type_symbol
_atom_site_fract_x
_atom_site_fract_y
_atom_site_fract_z
N1 N 0.35324(17) 0.07712(13) 0.53590(13)
N2 N 0.38174(18) 0.09942(13) 0.70647(13)
N3 N 0.4846(2) 0.14466(14) 0.79610(13)
O1 O 0.34264(14) 0.06286(11) 0.38248(10)
C1 C 0.3977(2) 0.07766(16) 0.31169(16)
C2 C 0.5282(2) 0.12393(16) 0.33324(16)
C3 C 0.6247(2) 0.16271(16) 0.43746(15)
H1 H 0.6657 0.2330 0.4535
H2 H 0.6950 0.1297 0.4426
C4 C 0.5594(2) 0.14723(15) 0.51119(16)
C5 C 0.4236(2) 0.09775(16) 0.48024(16)
C6 C 0.4275(2) 0.11039(16) 0.63192(16)
C7 C 0.5627(2) 0.16223(16) 0.67402(16)
C8 C 0.5914(2) 0.18157(17) 0.77728(17)
C9 C 0.7184(2) 0.23800(18) 0.86151(15)
H3 H 0.7401 0.3063 0.8644
H4 H 0.7894 0.2106 0.8525
H5 H 0.7072 0.2333 0.9216
C10 C 0.6318(2) 0.18158(16) 0.61144(16)
C11 C 0.7781(2) 0.23669(17) 0.65212(16)
H6 H 0.7965 0.2864 0.7143
H7 H 0.7976 0.2710 0.6076
C12 C 0.8716(2) 0.17113(18) 0.66785(18)
H8 H 0.8497 0.1340 0.7097
H9 H 0.8581 0.1241 0.6052
C13 C 1.0171(2) 0.2314(2) 0.71449(19)
H10 H 1.0396 0.2672 0.6726
H11 H 1.0726 0.1877 0.7233
H12 H 1.0311 0.2773 0.7770
C14 C 0.3038(2) 0.03965(17) 0.21538(17)
H13 H 0.2157 0.0072 0.2036
C15 C 0.3442(3) 0.05125(18) 0.13994(17)
H14 H 0.2825 0.0275 0.0764
C16 C 0.4784(3) 0.09873(17) 0.15658(17)
C17 C 0.5713(2) 0.13590(16) 0.25445(17)
C18 C 0.7043(3) 0.18373(18) 0.26936(18)
H15 H 0.7665 0.2084 0.3328
C19 C 0.7446(3) 0.1949(2) 0.1933(2)
H16 H 0.8331 0.2267 0.2053
C20 C 0.6522(3) 0.1582(2) 0.0972(2)
H17 H 0.6796 0.1654 0.0454
C21 C 0.5228(3) 0.11219(19) 0.07963(19)
H18 H 0.4623 0.0891 0.0157
C22 C 0.2549(2) 0.05035(17) 0.70564(17)
C23 C 0.1494(2) 0.00237(17) 0.61830(17)
H19 H 0.1603 0.0018 0.5589
C24 C 0.0274(3) -0.04487(19) 0.6201(2)
H20 H -0.0438 -0.0763 0.5614
C25 C 0.0095(3) -0.04636(19) 0.7067(2)
H21 H -0.0724 -0.0791 0.7072
C26 C 0.1156(3) 0.0017(2) 0.7929(2)
H22 H 0.1047 0.0015 0.8521
C27 C 0.2376(3) 0.05011(19) 0.79323(18)
H23 H 0.3080 0.0825 0.8522
N4 N 0.35701(18) 0.57625(13) 0.44947(14)
N5 N 0.3039(2) 0.54720(14) 0.27537(14)
N6 N 0.3737(2) 0.56299(15) 0.21328(14)
O2 O 0.42218(15) 0.60895(11) 0.61179(11)
C28 C 0.5185(2) 0.64362(17) 0.70604(17)
C29 C 0.6495(2) 0.68451(17) 0.72510(17)
C30 C 0.7009(2) 0.69419(17) 0.64436(16)
H24 H 0.7689 0.6594 0.6452
H25 H 0.7428 0.7636 0.6569
C31 C 0.5948(2) 0.65420(16) 0.54403(17)
C32 C 0.4614(3) 0.61401(17) 0.53319(18)
C33 C 0.3907(2) 0.58025(16) 0.37077(18)
C34 C 0.5189(2) 0.61697(16) 0.37010(17)
C35 C 0.5007(3) 0.60429(18) 0.26896(19)
C36 C 0.5998(3) 0.6292(2) 0.22029(18)
H26 H 0.5551 0.6076 0.1505
H27 H 0.6680 0.5964 0.2360
H28 H 0.6395 0.6996 0.2432
C37 C 0.6250(2) 0.65600(16) 0.46020(18)
C38 C 0.7676(2) 0.69368(18) 0.46743(17)
H29 H 0.8151 0.7473 0.5285
H30 H 0.7689 0.7200 0.4140
C39 C 0.8397(2) 0.6119(2) 0.46341(19)
H31 H 0.8096 0.5690 0.4981
H32 H 0.8152 0.5720 0.3956
C40 C 0.9889(3) 0.6515(2) 0.5074(2)
H33 H 1.0190 0.6970 0.4759
H34 H 1.0284 0.5977 0.4981
H35 H 1.0145 0.6853 0.5762
C41 C 0.4648(3) 0.63270(18) 0.77930(18)
H36 H 0.3740 0.6042 0.7631
C42 C 0.5489(3) 0.66481(18) 0.87436(19)
H37 H 0.5150 0.6570 0.9232
C43 C 0.6862(3) 0.70963(19) 0.90004(18)
C44 C 0.7376(3) 0.72010(17) 0.82492(18)
C45 C 0.8751(3) 0.76747(19) 0.85206(19)
H38 H 0.9104 0.7745 0.8036
C46 C 0.9572(3) 0.8032(2) 0.9483(2)
H39 H 1.0469 0.8352 0.9649
C47 C 0.9061(4) 0.7915(2) 1.0219(2)
H40 H 0.9626 0.8146 1.0870
C48 C 0.7737(3) 0.7463(2) 0.9987(2)
H41 H 0.7409 0.7396 1.0484
C49 C 0.1638(3) 0.50460(17) 0.23400(18)
C50 C 0.0878(3) 0.49291(19) 0.29191(19)
H42 H 0.1286 0.5123 0.3597
C51 C -0.0491(3) 0.4525(2) 0.2497(2)
H43 H -0.0996 0.4443 0.2892
C52 C -0.1108(3) 0.4244(2) 0.1498(2)
H44 H -0.2030 0.3984 0.1215
C53 C -0.0341(3) 0.4352(2) 0.0922(2)
H45 H -0.0752 0.4153 0.0244
C54 C 0.1023(3) 0.47503(19) 0.13322(19)
H46 H 0.1528 0.4820 0.0934
loop_
_geom_bond_atom_site_label_1
_geom_bond_atom_site_label_2
_geom_bond_site_symmetry_1
_geom_bond_site_symmetry_2
N1 C5 1_555 1_555
N2 N3 1_555 1_555
N3 C8 1_555 1_555
O1 C1 1_555 1_555
C1 C2 1_555 1_555
C2 C3 1_555 1_555
C3 H1 1_555 1_555
H2 C3 1_555 1_555
C4 C3 1_555 1_555
C5 O1 1_555 1_555
C6 N1 1_555 1_555
C7 C6 1_555 1_555
C8 C7 1_555 1_555
C9 C8 1_555 1_555
H3 C9 1_555 1_555
H4 C9 1_555 1_555
H5 C9 1_555 1_555
C10 C4 1_555 1_555
C11 C10 1_555 1_555
H6 C11 1_555 1_555
H7 C11 1_555 1_555
C12 C11 1_555 1_555
H8 C12 1_555 1_555
H9 C12 1_555 1_555
C13 C12 1_555 1_555
H10 C13 1_555 1_555
H11 C13 1_555 1_555
H12 C13 1_555 1_555
C14 C1 1_555 1_555
H13 C14 1_555 1_555
C15 C14 1_555 1_555
H14 C15 1_555 1_555
C16 C15 1_555 1_555
C17 C2 1_555 1_555
C18 C17 1_555 1_555
H15 C18 1_555 1_555
C19 C18 1_555 1_555
H16 C19 1_555 1_555
C20 C19 1_555 1_555
H17 C20 1_555 1_555
C21 C16 1_555 1_555
H18 C21 1_555 1_555
C22 N2 1_555 1_555
C23 C22 1_555 1_555
H19 C23 1_555 1_555
C24 C23 1_555 1_555
H20 C24 1_555 1_555
C25 C24 1_555 1_555
H21 C25 1_555 1_555
C26 C25 1_555 1_555
H22 C26 1_555 1_555
C27 C22 1_555 1_555
H23 C27 1_555 1_555
N4 C32 1_555 1_555
N5 N6 1_555 1_555
N6 C35 1_555 1_555
O2 C28 1_555 1_555
C28 C29 1_555 1_555
C29 C30 1_555 1_555
C30 H24 1_555 1_555
H25 C30 1_555 1_555
C31 C30 1_555 1_555
C32 O2 1_555 1_555
C33 N4 1_555 1_555
C34 C33 1_555 1_555
C35 C34 1_555 1_555
C36 C35 1_555 1_555
H26 C36 1_555 1_555
H27 C36 1_555 1_555
H28 C36 1_555 1_555
C37 C31 1_555 1_555
C38 C37 1_555 1_555
H29 C38 1_555 1_555
H30 C38 1_555 1_555
C39 C38 1_555 1_555
H31 C39 1_555 1_555
H32 C39 1_555 1_555
C40 C39 1_555 1_555
H33 C40 1_555 1_555
H34 C40 1_555 1_555
H35 C40 1_555 1_555
C41 C28 1_555 1_555
H36 C41 1_555 1_555
C42 C41 1_555 1_555
H37 C42 1_555 1_555
C43 C42 1_555 1_555
C44 C29 1_555 1_555
C45 C44 1_555 1_555
H38 C45 1_555 1_555
C46 C45 1_555 1_555
H39 C46 1_555 1_555
C47 C46 1_555 1_555
H40 C47 1_555 1_555
C48 C43 1_555 1_555
H41 C48 1_555 1_555
C49 N5 1_555 1_555
C50 C49 1_555 1_555
H42 C50 1_555 1_555
C51 C50 1_555 1_555
H43 C51 1_555 1_555
C52 C51 1_555 1_555
H44 C52 1_555 1_555
C53 C52 1_555 1_555
H45 C53 1_555 1_555
C54 C49 1_555 1_555
H46 C54 1_555 1_555
N2 C6 1_555 1_555
C4 C5 1_555 1_555
C7 C10 1_555 1_555
C16 C17 1_555 1_555
C20 C21 1_555 1_555
C26 C27 1_555 1_555
N5 C33 1_555 1_555
C31 C32 1_555 1_555
C34 C37 1_555 1_555
C43 C44 1_555 1_555
C47 C48 1_555 1_555
C53 C54 1_555 1_555

#END
