
#######################################################################
#
#                 Cambridge Crystallographic Data Centre
#                                CCDC 
#
#######################################################################
#
# If this CIF has been generated from an entry in the Cambridge 
# Structural Database, then it will include bibliographic, chemical, 
# crystal, experimental, refinement or atomic coordinate data resulting 
# from the CCDC's data processing and validation procedures.
#
#######################################################################

data_VEHYAI01
_chemical_formula_moiety         'C21 H14 N4'
_chemical_name_systematic        
2-amino-4,6-diphenylcyclohexa-2,4-diene-1,1,3-tricarbonitrile
_symmetry_cell_setting           monoclinic
_symmetry_space_group_name_H-M   'P 21/c'
_symmetry_Int_Tables_number      14
_space_group_name_Hall           '-P 2ybc'
loop_
_symmetry_equiv_pos_site_id
_symmetry_equiv_pos_as_xyz
1 x,y,z
2 -x,1/2+y,1/2-z
3 -x,-y,-z
4 x,1/2-y,1/2+z
_cell_length_a                   7.995(10)
_cell_length_b                   13.031(16)
_cell_length_c                   16.63(2)
_cell_angle_alpha                90
_cell_angle_beta                 90.763(17)
_cell_angle_gamma                90
_cell_volume                     1732.41
_cell_formula_units_Z            4
loop_
_atom_site_label
_atom_site_type_symbol
_atom_site_fract_x
_atom_site_fract_y
_atom_site_fract_z
C1 C 0.50782(18) 0.07801(11) 0.40004(8)
C2 C 0.62148(19) 0.02379(11) 0.36051(8)
H1 H 0.7268 0.0520 0.3526
C3 C 0.58453(18) -0.08150(11) 0.32842(9)
H2 H 0.5860 -0.1278 0.3748
C4 C 0.22182(19) 0.07291(12) 0.46303(9)
N1 N 0.12493(16) -0.08038(10) 0.35520(8)
H3 H 0.0509 -0.0570 0.3874
H4 H 0.0996 -0.1290 0.3223
C5 C 0.40174(18) -0.08395(11) 0.29334(8)
C6 C 0.33661(18) 0.03584(11) 0.40499(8)
C7 C 0.28032(18) -0.04092(11) 0.35622(8)
C8 C 0.5505(2) 0.17672(11) 0.43994(8)
N2 N 0.12484(18) 0.09786(12) 0.50942(9)
C9 C 0.71418(19) -0.12178(12) 0.27104(9)
C10 C 0.3579(2) -0.19114(13) 0.27377(9)
C11 C 0.7082(2) 0.18992(12) 0.47498(9)
H5 H 0.7864 0.1373 0.4720
C12 C 0.3818(2) -0.02079(13) 0.21985(10)
N3 N 0.3226(2) -0.27444(12) 0.26247(10)
C13 C 0.7834(2) -0.05856(14) 0.21302(10)
H6 H 0.7474 0.0090 0.2079
C14 C 0.4369(2) 0.25726(12) 0.44493(10)
H7 H 0.3319 0.2513 0.4206
C15 C 0.7503(3) 0.27968(13) 0.51404(11)
H8 H 0.8570 0.2878 0.5361
N4 N 0.3610(2) 0.02844(14) 0.16435(9)
C16 C 0.7693(2) -0.22218(13) 0.27735(11)
H9 H 0.7236 -0.2654 0.3158
C17 C 0.8920(3) -0.25873(17) 0.22684(14)
H10 H 0.9282 -0.3263 0.2314
C18 C 0.9058(2) -0.0961(2) 0.16291(11)
H11 H 0.9517 -0.0537 0.1240
C19 C 0.6347(3) 0.35722(14) 0.52048(12)
H12 H 0.6618 0.4170 0.5483
C20 C 0.9599(3) -0.1959(2) 0.17044(14)
H13 H 1.0431 -0.2206 0.1370
C21 C 0.4789(3) 0.34594(14) 0.48565(12)
H14 H 0.4011 0.3987 0.4896
loop_
_geom_bond_atom_site_label_1
_geom_bond_atom_site_label_2
_geom_bond_site_symmetry_1
_geom_bond_site_symmetry_2
C1 C2 1_555 1_555
C2 H1 1_555 1_555
C3 C2 1_555 1_555
H2 C3 1_555 1_555
C4 C6 1_555 1_555
N1 H3 1_555 1_555
H4 N1 1_555 1_555
C5 C3 1_555 1_555
C6 C1 1_555 1_555
C7 N1 1_555 1_555
C8 C1 1_555 1_555
N2 C4 1_555 1_555
C9 C3 1_555 1_555
C10 C5 1_555 1_555
C11 C8 1_555 1_555
H5 C11 1_555 1_555
C12 C5 1_555 1_555
N3 C10 1_555 1_555
C13 C9 1_555 1_555
H6 C13 1_555 1_555
C14 C8 1_555 1_555
H7 C14 1_555 1_555
C15 C11 1_555 1_555
H8 C15 1_555 1_555
N4 C12 1_555 1_555
C16 C9 1_555 1_555
H9 C16 1_555 1_555
C17 C16 1_555 1_555
H10 C17 1_555 1_555
C18 C13 1_555 1_555
H11 C18 1_555 1_555
C19 C15 1_555 1_555
H12 C19 1_555 1_555
C20 C17 1_555 1_555
H13 C20 1_555 1_555
C21 C14 1_555 1_555
H14 C21 1_555 1_555
C5 C7 1_555 1_555
C6 C7 1_555 1_555
C18 C20 1_555 1_555
C19 C21 1_555 1_555

#END
