
#######################################################################
#
#                 Cambridge Crystallographic Data Centre
#                                CCDC 
#
#######################################################################
#
# If this CIF has been generated from an entry in the Cambridge 
# Structural Database, then it will include bibliographic, chemical, 
# crystal, experimental, refinement or atomic coordinate data resulting 
# from the CCDC's data processing and validation procedures.
#
#######################################################################

data_VEJLAZ
_chemical_formula_moiety         'C27 H23 N3 O6'
_chemical_name_systematic        
'Methyl 3,3-dicyano-4-(3-ethoxy-3-oxoprop-1-en-2-yl)-2-(4-methylphenyl)-4-(4-nitrophenyl)cyclopent-1-ene-1-carboxylate'
_symmetry_cell_setting           orthorhombic
_symmetry_space_group_name_H-M   'P 21 21 21'
_symmetry_Int_Tables_number      19
_space_group_name_Hall           'P 2ac 2ab'
loop_
_symmetry_equiv_pos_site_id
_symmetry_equiv_pos_as_xyz
1 x,y,z
2 1/2+x,1/2-y,-z
3 -x,1/2+y,1/2-z
4 1/2-x,-y,1/2+z
_cell_length_a                   10.2839(4)
_cell_length_b                   15.4819(6)
_cell_length_c                   15.8271(5)
_cell_angle_alpha                90
_cell_angle_beta                 90
_cell_angle_gamma                90
_cell_volume                     2519.9
_exptl_crystal_colour            colorless
_exptl_crystal_description       block
_cell_formula_units_Z            4
loop_
_atom_site_label
_atom_site_type_symbol
_atom_site_fract_x
_atom_site_fract_y
_atom_site_fract_z
N1 N -0.0531(2) 0.11782(11) 0.25123(11)
N2 N 0.33473(18) 0.20982(14) 0.28277(14)
N3 N -0.49140(17) 0.40659(14) 0.21992(15)
O1 O 0.0287(2) 0.24053(12) 0.40115(9)
O2 O 0.12181(18) 0.33862(11) 0.48229(9)
O3 O 0.2151(2) 0.44174(11) 0.01180(10)
O4 O 0.10912(14) 0.33019(8) -0.04325(7)
O5 O -0.55298(14) 0.36559(15) 0.16908(13)
O6 O -0.5390(2) 0.4616(2) 0.2632(2)
C1 C 0.06046(15) 0.34169(9) 0.25052(9)
C2 C 0.10480(14) 0.24686(9) 0.22236(9)
C3 C 0.12484(13) 0.25443(9) 0.12532(9)
C4 C 0.13142(13) 0.33759(9) 0.10469(9)
C5 C 0.12081(14) 0.39777(9) 0.17866(9)
H1 H 0.0650 0.4464 0.1653
H2 H 0.2058 0.4193 0.1950
C6 C 0.11302(16) 0.36710(11) 0.33743(10)
C7 C 0.17682(19) 0.43959(13) 0.35154(12)
H3 H 0.2027 0.4537 0.4061
H4 H 0.1959 0.4766 0.3069
C8 C 0.08236(19) 0.30774(12) 0.40898(11)
C9 C 0.1034(4) 0.2843(2) 0.55658(14)
H5 H 0.1436 0.2283 0.5480
H6 H 0.0115 0.2758 0.5675
C10 C 0.1650(4) 0.3294(3) 0.62776(17)
H7 H 0.2560 0.3367 0.6164
H8 H 0.1541 0.2960 0.6784
H9 H 0.1250 0.3850 0.6350
C11 C -0.08797(15) 0.35282(10) 0.24633(9)
C12 C -0.16227(15) 0.31737(11) 0.18141(10)
H10 H -0.1225 0.2808 0.1426
C13 C -0.29301(16) 0.33492(11) 0.17313(11)
H11 H -0.3405 0.3109 0.1290
C14 C -0.35201(17) 0.38789(13) 0.23026(13)
C15 C -0.2819(2) 0.42456(17) 0.29539(16)
H12 H -0.3227 0.4607 0.3341
C16 C -0.15137(19) 0.40733(15) 0.30261(14)
H13 H -0.1043 0.4327 0.3462
C17 C 0.01383(17) 0.17585(10) 0.24207(10)
C18 C 0.23344(16) 0.22518(11) 0.25902(11)
C19 C 0.14923(15) 0.17561(10) 0.07458(9)
C20 C 0.27591(17) 0.15107(12) 0.05719(11)
H14 H 0.3446 0.1860 0.0744
C21 C 0.3010(2) 0.07451(13) 0.01418(13)
H15 H 0.3866 0.0582 0.0038
C22 C 0.2010(2) 0.02245(11) -0.01334(12)
C23 C 0.0748(2) 0.04743(12) 0.00343(12)
H16 H 0.0064 0.0128 -0.0148
C24 C 0.04809(17) 0.12318(12) 0.04694(11)
H17 H -0.0376 0.1389 0.0576
C25 C 0.2288(4) -0.05996(16) -0.06181(19)
H18 H 0.1965 -0.0545 -0.1185
H19 H 0.1865 -0.1076 -0.0344
H20 H 0.3209 -0.0700 -0.0632
C26 C 0.15801(16) 0.37561(10) 0.02006(10)
C27 C 0.1188(2) 0.37047(14) -0.12595(12)
H21 H 0.0793 0.4266 -0.1242
H22 H 0.0749 0.3353 -0.1670
H23 H 0.2087 0.3761 -0.1413
loop_
_geom_bond_atom_site_label_1
_geom_bond_atom_site_label_2
_geom_bond_site_symmetry_1
_geom_bond_site_symmetry_2
N1 C17 1_555 1_555
N2 C18 1_555 1_555
N3 O5 1_555 1_555
O1 C8 1_555 1_555
O2 C8 1_555 1_555
O3 C26 1_555 1_555
O4 C26 1_555 1_555
O6 N3 1_555 1_555
C1 C2 1_555 1_555
C2 C3 1_555 1_555
C3 C4 1_555 1_555
C4 C5 1_555 1_555
C5 C1 1_555 1_555
H1 C5 1_555 1_555
H2 C5 1_555 1_555
C6 C1 1_555 1_555
C7 C6 1_555 1_555
H3 C7 1_555 1_555
H4 C7 1_555 1_555
C8 C6 1_555 1_555
C9 O2 1_555 1_555
H5 C9 1_555 1_555
H6 C9 1_555 1_555
C10 C9 1_555 1_555
H7 C10 1_555 1_555
H8 C10 1_555 1_555
H9 C10 1_555 1_555
C11 C1 1_555 1_555
C12 C11 1_555 1_555
H10 C12 1_555 1_555
C13 C12 1_555 1_555
H11 C13 1_555 1_555
C14 N3 1_555 1_555
C15 C14 1_555 1_555
H12 C15 1_555 1_555
C16 C11 1_555 1_555
H13 C16 1_555 1_555
C17 C2 1_555 1_555
C18 C2 1_555 1_555
C19 C3 1_555 1_555
C20 C19 1_555 1_555
H14 C20 1_555 1_555
C21 C20 1_555 1_555
H15 C21 1_555 1_555
C22 C21 1_555 1_555
C23 C22 1_555 1_555
H16 C23 1_555 1_555
C24 C19 1_555 1_555
H17 C24 1_555 1_555
C25 C22 1_555 1_555
H18 C25 1_555 1_555
H19 C25 1_555 1_555
H20 C25 1_555 1_555
C26 C4 1_555 1_555
C27 O4 1_555 1_555
H21 C27 1_555 1_555
H22 C27 1_555 1_555
H23 C27 1_555 1_555
C13 C14 1_555 1_555
C15 C16 1_555 1_555
C23 C24 1_555 1_555

#END
