
#######################################################################
#
#                 Cambridge Crystallographic Data Centre
#                                CCDC 
#
#######################################################################
#
# If this CIF has been generated from an entry in the Cambridge 
# Structural Database, then it will include bibliographic, chemical, 
# crystal, experimental, refinement or atomic coordinate data resulting 
# from the CCDC's data processing and validation procedures.
#
#######################################################################

data_VEJNEG
_chemical_name_common            flucetosulfuron
_chemical_formula_moiety         'C18 H22 F1 N5 O8 S1'
_chemical_name_systematic        
'1-(3-{[(4,6-dimethoxypyrimidin-2-yl)carbamoyl]sulfamoyl}pyridin-2-yl)-2-fluoropropyl methoxyacetate'
_chemical_properties_biological  herbicide
_symmetry_cell_setting           triclinic
_symmetry_space_group_name_H-M   'P -1'
_symmetry_Int_Tables_number      2
_space_group_name_Hall           '-P 1'
loop_
_symmetry_equiv_pos_site_id
_symmetry_equiv_pos_as_xyz
1 x,y,z
2 -x,-y,-z
_cell_length_a                   8.3993(3)
_cell_length_b                   9.1030(3)
_cell_length_c                   15.6862(5)
_cell_angle_alpha                92.116(2)
_cell_angle_beta                 101.113(2)
_cell_angle_gamma                112.810(2)
_cell_volume                     1076.53
_exptl_crystal_colour            colorless
_exptl_crystal_description       needle
_cell_formula_units_Z            2
loop_
_atom_site_label
_atom_site_type_symbol
_atom_site_fract_x
_atom_site_fract_y
_atom_site_fract_z
S1 S 0.39351(7) 0.10312(6) 0.18674(3)
F1 F 0.2117(2) 0.35690(17) -0.01327(8)
O1 O 1.0327(2) 0.78934(17) 0.56837(9)
O2 O 0.97933(18) 0.63951(17) 0.27393(9)
O3 O 0.34138(19) 0.08587(18) 0.37121(9)
O4 O 0.48165(18) 0.18107(17) 0.12133(9)
O5 O 0.3822(2) -0.05369(17) 0.20150(10)
O6 O 0.26027(17) 0.48834(16) 0.21292(8)
O7 O 0.55822(19) 0.62252(18) 0.24672(9)
O8 O 0.53183(18) 0.72872(16) 0.41130(9)
N1 N 0.8060(2) 0.5524(2) 0.49899(11)
N2 N 0.7821(2) 0.4766(2) 0.34862(10)
N3 N 0.5794(2) 0.3194(2) 0.42532(11)
H1 H 0.5538 0.3064 0.4771
N4 N 0.4990(2) 0.2289(2) 0.27617(10)
H2 H 0.5839 0.3209 0.2718
N5 N -0.0364(2) 0.2072(2) 0.11793(12)
C1 C 0.9641(3) 0.7561(3) 0.64590(14)
H3 H 0.8389 0.7393 0.6326
H4 H 1.0313 0.8472 0.6918
H5 H 0.9752 0.6593 0.6662
C2 C 0.8773(3) 0.5257(3) 0.19662(13)
H6 H 0.8717 0.4188 0.2079
H7 H 0.9342 0.5588 0.1475
H8 H 0.7571 0.5224 0.1821
C3 C 0.9464(3) 0.6843(2) 0.49563(13)
C4 C 0.7292(3) 0.4557(2) 0.42344(13)
C5 C 0.9225(3) 0.6125(2) 0.34821(13)
C6 C 1.0123(3) 0.7244(2) 0.42113(13)
H9 H 1.1113 0.8211 0.4205
C7 C 0.4640(3) 0.2007(2) 0.35825(13)
C8 C 0.1749(3) 0.0953(2) 0.16496(12)
C9 C 0.1326(3) 0.2238(2) 0.13956(13)
C10 C -0.1640(3) 0.0645(3) 0.12140(15)
H10 H -0.2836 0.0525 0.1041
C11 C -0.1331(3) -0.0655(3) 0.14834(15)
H11 H -0.2283 -0.1633 0.1518
C12 C 0.0406(3) -0.0500(3) 0.17037(14)
H12 H 0.0674 -0.1376 0.1889
C13 C 0.2671(3) 0.3930(2) 0.13829(12)
H13 H 0.3884 0.3942 0.1447
C14 C 0.2184(3) 0.4629(3) 0.05544(13)
H14 H 0.0981 0.4629 0.0509
C15 C 0.3463(3) 0.6282(3) 0.04812(15)
H15 H 0.3513 0.7036 0.0959
H16 H 0.3069 0.6609 -0.0082
H17 H 0.4642 0.6286 0.0519
C16 C 0.4167(3) 0.5958(2) 0.26289(13)
C17 C 0.3826(3) 0.6730(3) 0.34038(12)
H18 H 0.3527 0.7642 0.3228
H19 H 0.2799 0.5939 0.3590
C18 C 0.6598(3) 0.8857(3) 0.40752(15)
H20 H 0.7041 0.8858 0.3541
H21 H 0.7587 0.9161 0.4588
H22 H 0.6045 0.9628 0.4071
loop_
_geom_bond_atom_site_label_1
_geom_bond_atom_site_label_2
_geom_bond_site_symmetry_1
_geom_bond_site_symmetry_2
S1 O4 1_555 1_555
F1 C14 1_555 1_555
O1 C1 1_555 1_555
O2 C2 1_555 1_555
O3 C7 1_555 1_555
O5 S1 1_555 1_555
O6 C13 1_555 1_555
O7 C16 1_555 1_555
O8 C17 1_555 1_555
N1 C3 1_555 1_555
N2 C4 1_555 1_555
N3 H1 1_555 1_555
N4 S1 1_555 1_555
H2 N4 1_555 1_555
N5 C9 1_555 1_555
C1 H3 1_555 1_555
H4 C1 1_555 1_555
H5 C1 1_555 1_555
C2 H6 1_555 1_555
H7 C2 1_555 1_555
H8 C2 1_555 1_555
C3 O1 1_555 1_555
C4 N1 1_555 1_555
C5 O2 1_555 1_555
C6 C3 1_555 1_555
H9 C6 1_555 1_555
C7 N3 1_555 1_555
C8 S1 1_555 1_555
C9 C8 1_555 1_555
C10 N5 1_555 1_555
H10 C10 1_555 1_555
C11 C10 1_555 1_555
H11 C11 1_555 1_555
C12 C8 1_555 1_555
H12 C12 1_555 1_555
C13 C9 1_555 1_555
H13 C13 1_555 1_555
C14 C13 1_555 1_555
H14 C14 1_555 1_555
C15 C14 1_555 1_555
H15 C15 1_555 1_555
H16 C15 1_555 1_555
H17 C15 1_555 1_555
C16 O6 1_555 1_555
C17 C16 1_555 1_555
H18 C17 1_555 1_555
H19 C17 1_555 1_555
C18 O8 1_555 1_555
H20 C18 1_555 1_555
H21 C18 1_555 1_555
H22 C18 1_555 1_555
N2 C5 1_555 1_555
N3 C4 1_555 1_555
N4 C7 1_555 1_555
C5 C6 1_555 1_555
C11 C12 1_555 1_555

#END
