
#######################################################################
#
#                 Cambridge Crystallographic Data Centre
#                                CCDC 
#
#######################################################################
#
# If this CIF has been generated from an entry in the Cambridge 
# Structural Database, then it will include bibliographic, chemical, 
# crystal, experimental, refinement or atomic coordinate data resulting 
# from the CCDC's data processing and validation procedures.
#
#######################################################################

data_VEJNAB
_chemical_formula_moiety         'C17 H18 N4 O2'
_chemical_name_systematic        
1,3,7-Trimethyl-8-(1-phenylprop-1-en-2-yl)-3,7-dihydro-1H-purine-2,6-dione
_symmetry_cell_setting           monoclinic
_symmetry_space_group_name_H-M   'P 21/c'
_symmetry_Int_Tables_number      14
_space_group_name_Hall           '-P 2ybc'
loop_
_symmetry_equiv_pos_site_id
_symmetry_equiv_pos_as_xyz
1 x,y,z
2 -x,1/2+y,1/2-z
3 -x,-y,-z
4 x,1/2-y,1/2+z
_cell_length_a                   10.8123(13)
_cell_length_b                   8.4286(10)
_cell_length_c                   17.361(2)
_cell_angle_alpha                90
_cell_angle_beta                 101.872(2)
_cell_angle_gamma                90
_cell_volume                     1548.31
_exptl_crystal_colour            colorless
_exptl_crystal_description       block
_cell_formula_units_Z            4
loop_
_atom_site_label
_atom_site_type_symbol
_atom_site_fract_x
_atom_site_fract_y
_atom_site_fract_z
C1 C 0.7667(2) 0.3338(3) 0.05761(14)
N1 N 0.73910(19) 0.4202(2) -0.00933(11)
C2 C 0.8386(2) 0.3952(3) -0.04323(13)
N2 N 0.85521(19) 0.4611(2) -0.11342(11)
C3 C 0.7606(3) 0.5687(3) -0.15758(15)
H1 H 0.7642 0.6705 -0.1299
H2 H 0.6763 0.5221 -0.1622
H3 H 0.7777 0.5856 -0.2102
C4 C 0.9606(3) 0.4235(3) -0.14257(15)
O1 O 0.97955(17) 0.4805(2) -0.20401(10)
N3 N 1.0462(2) 0.3170(2) -0.09843(12)
C5 C 1.1578(3) 0.2762(3) -0.13125(16)
H4 H 1.1317 0.2085 -0.1776
H5 H 1.2195 0.2195 -0.0915
H6 H 1.1961 0.3736 -0.1464
C6 C 1.0389(3) 0.2482(3) -0.02538(15)
O2 O 1.12158(18) 0.1590(2) 0.00886(10)
C7 C 0.9270(2) 0.2957(3) -0.00079(14)
N4 N 0.8787(2) 0.2560(2) 0.06497(11)
C8 C 0.9387(3) 0.1454(3) 0.12646(14)
H7 H 0.9989 0.2031 0.1667
H8 H 0.9834 0.0629 0.1032
H9 H 0.8739 0.0962 0.1507
C9 C 0.6826(2) 0.3276(3) 0.11423(15)
C10 C 0.5440(3) 0.3295(3) 0.07761(15)
H10 H 0.5113 0.2208 0.0736
H11 H 0.5315 0.3764 0.0249
H12 H 0.4988 0.3927 0.1104
C11 C 0.7307(3) 0.3336(3) 0.19189(15)
H13 H 0.8203 0.3350 0.2071
C12 C 0.6609(2) 0.3381(3) 0.25642(14)
C13 C 0.5484(3) 0.2568(3) 0.25506(15)
H14 H 0.5139 0.1919 0.2111
C14 C 0.4863(3) 0.2693(3) 0.31686(16)
H15 H 0.4090 0.2143 0.3148
C15 C 0.5358(3) 0.3611(3) 0.38130(16)
H16 H 0.4919 0.3712 0.4231
C16 C 0.6493(3) 0.4386(3) 0.38516(15)
H17 H 0.6843 0.5006 0.4300
C17 C 0.7119(3) 0.4258(3) 0.32368(15)
H18 H 0.7910 0.4774 0.3272
loop_
_geom_bond_atom_site_label_1
_geom_bond_atom_site_label_2
_geom_bond_site_symmetry_1
_geom_bond_site_symmetry_2
C1 N1 1_555 1_555
N1 C2 1_555 1_555
C2 N2 1_555 1_555
N2 C3 1_555 1_555
C3 H1 1_555 1_555
H2 C3 1_555 1_555
H3 C3 1_555 1_555
C4 N2 1_555 1_555
O1 C4 1_555 1_555
N3 C4 1_555 1_555
C5 N3 1_555 1_555
H4 C5 1_555 1_555
H5 C5 1_555 1_555
H6 C5 1_555 1_555
C6 N3 1_555 1_555
O2 C6 1_555 1_555
C7 C2 1_555 1_555
N4 C1 1_555 1_555
C8 N4 1_555 1_555
H7 C8 1_555 1_555
H8 C8 1_555 1_555
H9 C8 1_555 1_555
C9 C1 1_555 1_555
C10 C9 1_555 1_555
H10 C10 1_555 1_555
H11 C10 1_555 1_555
H12 C10 1_555 1_555
C11 C9 1_555 1_555
H13 C11 1_555 1_555
C12 C11 1_555 1_555
C13 C12 1_555 1_555
H14 C13 1_555 1_555
C14 C13 1_555 1_555
H15 C14 1_555 1_555
C15 C14 1_555 1_555
H16 C15 1_555 1_555
C16 C15 1_555 1_555
H17 C16 1_555 1_555
C17 C12 1_555 1_555
H18 C17 1_555 1_555
C6 C7 1_555 1_555
C7 N4 1_555 1_555
C16 C17 1_555 1_555

#END
