
#######################################################################
#
#                 Cambridge Crystallographic Data Centre
#                                CCDC 
#
#######################################################################
#
# If this CIF has been generated from an entry in the Cambridge 
# Structural Database, then it will include bibliographic, chemical, 
# crystal, experimental, refinement or atomic coordinate data resulting 
# from the CCDC's data processing and validation procedures.
#
#######################################################################

data_VEJQAD
_chemical_formula_moiety         'C27 H32 N2 O4 S2'
_chemical_name_systematic        
(R~S~,S)-N-(3-(N-(p-Toluenesulfonyl)amino)-1-phenyl-3-(4-methoxyphenyl)propylidene)-t-butylsulfinamide
_symmetry_cell_setting           orthorhombic
_symmetry_space_group_name_H-M   'P 21 21 21'
_symmetry_Int_Tables_number      19
_space_group_name_Hall           'P 2ac 2ab'
loop_
_symmetry_equiv_pos_site_id
_symmetry_equiv_pos_as_xyz
1 x,y,z
2 1/2-x,-y,1/2+z
3 -x,1/2+y,1/2-z
4 1/2+x,1/2-y,-z
_cell_length_a                   10.4322(4)
_cell_length_b                   13.6353(6)
_cell_length_c                   18.3325(7)
_cell_angle_alpha                90
_cell_angle_beta                 90
_cell_angle_gamma                90
_cell_volume                     2607.73
_chemical_melting_point          '134-135 deg.C'
_cell_formula_units_Z            4
loop_
_atom_site_label
_atom_site_type_symbol
_atom_site_fract_x
_atom_site_fract_y
_atom_site_fract_z
S1 S -0.45221(10) -0.81617(7) -0.12344(7)
S2 S -0.21924(10) -0.91236(8) -0.34704(6)
O1 O -0.5712(2) -0.80085(19) -0.16088(18)
O2 O -0.4230(3) -0.76596(19) -0.05676(18)
O3 O -0.1623(3) -0.33721(19) -0.1424(2)
O4 O -0.3155(2) -0.83369(19) -0.33073(16)
N1 N -0.3398(3) -0.7899(2) -0.18043(18)
H1 H -0.3542 -0.8001 -0.2260
N2 N -0.1306(3) -0.9411(2) -0.27459(17)
C1 C -0.4373(5) -1.2465(3) -0.0421(3)
H3 H -0.5193 -1.2751 -0.0525
H4 H -0.4214 -1.2494 0.0095
H5 H -0.3717 -1.2821 -0.0674
C2 C -0.4364(5) -1.1396(3) -0.0670(2)
C3 C -0.5435(4) -1.0991(3) -0.0969(2)
H6 H -0.6146 -1.1386 -0.1056
C4 C -0.5488(4) -1.0016(3) -0.1144(2)
H7 H -0.6241 -0.9749 -0.1329
C5 C -0.4436(4) -0.9433(2) -0.1046(2)
C6 C -0.3335(4) -0.9826(3) -0.0756(2)
H8 H -0.2622 -0.9430 -0.0681
C7 C -0.3289(4) -1.0805(3) -0.0578(2)
H9 H -0.2535 -1.1074 -0.0395
C8 C -0.2145(3) -0.7497(2) -0.1598(2)
H10 H -0.1886 -0.7787 -0.1132
C9 C -0.2134(3) -0.6380(2) -0.1523(2)
C10 C -0.2748(4) -0.5790(3) -0.2021(3)
H11 H -0.3265 -0.6074 -0.2376
C11 C -0.2612(4) -0.4774(3) -0.2004(3)
H12 H -0.3029 -0.4382 -0.2344
C12 C -0.1852(4) -0.4364(3) -0.1477(3)
C13 C -0.1247(4) -0.4946(3) -0.0966(2)
H13 H -0.0736 -0.4664 -0.0607
C14 C -0.1405(3) -0.5938(3) -0.0991(2)
H14 H -0.1010 -0.6326 -0.0639
C15 C -0.1156(3) -0.7778(2) -0.2179(2)
H15 H -0.1455 -0.7544 -0.2649
H16 H -0.0359 -0.7443 -0.2071
C16 C -0.0891(3) -0.8857(3) -0.2238(2)
C17 C -0.0102(3) -0.9325(3) -0.1666(2)
C18 C 0.0466(4) -0.8786(3) -0.1115(2)
H17 H 0.0373 -0.8107 -0.1103
C19 C 0.1180(4) -0.9261(3) -0.0577(3)
H18 H 0.1562 -0.8893 -0.0209
C20 C 0.1328(4) -1.0261(3) -0.0580(3)
H19 H 0.1802 -1.0572 -0.0218
C21 C 0.0765(4) -1.0793(3) -0.1126(3)
H20 H 0.0857 -1.1472 -0.1132
C22 C 0.0068(3) -1.0345(3) -0.1667(2)
H21 H -0.0295 -1.0722 -0.2036
C23 C -0.3091(3) -1.0306(3) -0.3503(2)
C24 C -0.3718(3) -1.0493(3) -0.2772(2)
H22 H -0.4193 -1.1095 -0.2792
H23 H -0.4288 -0.9962 -0.2658
H24 H -0.3070 -1.0540 -0.2401
C25 C -0.4108(3) -1.0147(3) -0.4100(2)
H25 H -0.4619 -1.0729 -0.4150
H26 H -0.3691 -1.0007 -0.4555
H27 H -0.4649 -0.9606 -0.3968
C26 C -0.2120(4) -1.1102(2) -0.3718(2)
H28 H -0.2547 -1.1724 -0.3749
H29 H -0.1455 -1.1136 -0.3357
H30 H -0.1750 -1.0943 -0.4183
C27 C -0.2216(4) -0.2761(3) -0.1959(3)
H31 H -0.1986 -0.2090 -0.1872
H32 H -0.3130 -0.2831 -0.1930
H33 H -0.1930 -0.2952 -0.2436
H2? H -0.1099 -1.0020 -0.2709
loop_
_geom_bond_atom_site_label_1
_geom_bond_atom_site_label_2
_geom_bond_site_symmetry_1
_geom_bond_site_symmetry_2
S1 O1 1_555 1_555
S2 O4 1_555 1_555
O2 S1 1_555 1_555
O3 C12 1_555 1_555
N1 S1 1_555 1_555
H1 N1 1_555 1_555
N2 S2 1_555 1_555
C1 H3 1_555 1_555
H4 C1 1_555 1_555
H5 C1 1_555 1_555
C2 C1 1_555 1_555
C3 C2 1_555 1_555
H6 C3 1_555 1_555
C4 C3 1_555 1_555
H7 C4 1_555 1_555
C5 S1 1_555 1_555
C6 C5 1_555 1_555
H8 C6 1_555 1_555
C7 C2 1_555 1_555
H9 C7 1_555 1_555
C8 N1 1_555 1_555
H10 C8 1_555 1_555
C9 C8 1_555 1_555
C10 C9 1_555 1_555
H11 C10 1_555 1_555
C11 C10 1_555 1_555
H12 C11 1_555 1_555
C12 C11 1_555 1_555
C13 C12 1_555 1_555
H13 C13 1_555 1_555
C14 C9 1_555 1_555
H14 C14 1_555 1_555
C15 C8 1_555 1_555
H15 C15 1_555 1_555
H16 C15 1_555 1_555
C16 N2 1_555 1_555
C17 C16 1_555 1_555
C18 C17 1_555 1_555
H17 C18 1_555 1_555
C19 C18 1_555 1_555
H18 C19 1_555 1_555
C20 C19 1_555 1_555
H19 C20 1_555 1_555
C21 C20 1_555 1_555
H20 C21 1_555 1_555
C22 C17 1_555 1_555
H21 C22 1_555 1_555
C23 S2 1_555 1_555
C24 C23 1_555 1_555
H22 C24 1_555 1_555
H23 C24 1_555 1_555
H24 C24 1_555 1_555
C25 C23 1_555 1_555
H25 C25 1_555 1_555
H26 C25 1_555 1_555
H27 C25 1_555 1_555
C26 C23 1_555 1_555
H28 C26 1_555 1_555
H29 C26 1_555 1_555
H30 C26 1_555 1_555
C27 O3 1_555 1_555
H31 C27 1_555 1_555
H32 C27 1_555 1_555
H33 C27 1_555 1_555
C4 C5 1_555 1_555
C6 C7 1_555 1_555
C13 C14 1_555 1_555
C15 C16 1_555 1_555
C21 C22 1_555 1_555

#END
