
#######################################################################
#
#                 Cambridge Crystallographic Data Centre
#                                CCDC 
#
#######################################################################
#
# If this CIF has been generated from an entry in the Cambridge 
# Structural Database, then it will include bibliographic, chemical, 
# crystal, experimental, refinement or atomic coordinate data resulting 
# from the CCDC's data processing and validation procedures.
#
#######################################################################

data_VEJQEH
_chemical_formula_moiety         'C34 H40 N2 O4 S2'
_chemical_name_systematic        
(S)-N-(1-(4-Methoxyphenyl)-3-(t-butylsulfinylamino)-3,4-diphenylbutyl)-4-methylbenzenesulfonamide
_symmetry_cell_setting           monoclinic
_symmetry_space_group_name_H-M   'P 21'
_symmetry_Int_Tables_number      4
_space_group_name_Hall           'P 2yb'
loop_
_symmetry_equiv_pos_site_id
_symmetry_equiv_pos_as_xyz
1 x,y,z
2 -x,1/2+y,-z
_cell_length_a                   12.088(2)
_cell_length_b                   12.327(3)
_cell_length_c                   22.612(5)
_cell_angle_alpha                90
_cell_angle_beta                 100.46(3)
_cell_angle_gamma                90
_cell_volume                     3313.39
_exptl_crystal_colour            colorless
_exptl_crystal_description       block
_chemical_melting_point          '185-186 deg.C'
_cell_formula_units_Z            4
loop_
_atom_site_label
_atom_site_type_symbol
_atom_site_fract_x
_atom_site_fract_y
_atom_site_fract_z
S1 S 0.47540(8) 0.50682(7) 0.41536(4)
S2 S 0.84181(9) 0.66062(10) 0.41377(5)
O1 O 0.5817(2) 0.48056(17) 0.45872(9)
O2 O 0.8551(2) 0.7696(2) 0.39160(12)
O3 O 0.8387(2) 0.5684(2) 0.37495(13)
O4 O 0.9809(3) 0.7930(2) 0.69478(11)
N1 N 0.4817(2) 0.6302(2) 0.38541(11)
N2 N 0.7225(2) 0.6592(2) 0.43749(11)
C1 C 0.3580(3) 0.7300(3) 0.44510(13)
H1 H 0.3522 0.6613 0.4652
H2 H 0.3621 0.7865 0.4753
C2 C 0.4706(3) 0.7305(3) 0.42071(14)
C3 C 0.5642(3) 0.7403(3) 0.47740(13)
H3 H 0.5453 0.8017 0.5005
H4 H 0.5600 0.6761 0.5017
C4 C 0.6870(3) 0.7538(3) 0.47053(13)
H5 H 0.6927 0.8192 0.4466
C5 C 0.7612(3) 0.7693(3) 0.53176(14)
C6 C 0.8232(3) 0.8632(3) 0.54505(15)
H6 H 0.8146 0.9194 0.5171
C7 C 0.8984(3) 0.8759(3) 0.59940(15)
H7 H 0.9409 0.9388 0.6072
C8 C 0.9084(3) 0.7934(3) 0.64115(17)
C9 C 0.8438(3) 0.7008(3) 0.62881(17)
H8 H 0.8496 0.6457 0.6573
C10 C 0.7710(3) 0.6893(3) 0.57465(15)
H9 H 0.7280 0.6266 0.5671
C11 C 1.0638(4) 0.8760(5) 0.7057(2)
H10 H 1.0983 0.8844 0.6710
H11 H 1.1200 0.8565 0.7397
H12 H 1.0290 0.9430 0.7138
C12 C 0.2510(3) 0.7466(3) 0.39953(16)
C13 C 0.1873(3) 0.6619(3) 0.37247(18)
H13 H 0.2102 0.5909 0.3817
C14 C 0.0890(4) 0.6813(5) 0.3315(2)
H14 H 0.0465 0.6236 0.3130
C15 C 0.0548(4) 0.7868(6) 0.3183(2)
H15 H -0.0115 0.7998 0.2912
C16 C 0.1155(4) 0.8703(4) 0.3439(2)
H16 H 0.0929 0.9412 0.3340
C17 C 0.2123(3) 0.8505(3) 0.3855(2)
H17 H 0.2526 0.9089 0.4045
C18 C 0.4713(3) 0.8255(3) 0.37744(15)
C19 C 0.4469(3) 0.8120(3) 0.31584(16)
H18 H 0.4361 0.7425 0.2998
C20 C 0.4384(4) 0.9007(4) 0.27743(19)
H19 H 0.4234 0.8899 0.2360
C21 C 0.4517(4) 1.0034(4) 0.2999(2)
H20 H 0.4441 1.0626 0.2740
C22 C 0.4764(4) 1.0189(3) 0.3610(2)
H21 H 0.4863 1.0888 0.3765
C23 C 0.4865(3) 0.9310(3) 0.39949(17)
H22 H 0.5038 0.9424 0.4408
C24 C 0.9506(3) 0.6378(4) 0.47544(18)
C25 C 1.0322(4) 0.7133(4) 0.4931(2)
H23 H 1.0315 0.7779 0.4718
C26 C 1.1154(4) 0.6949(5) 0.5421(2)
H24 H 1.1698 0.7480 0.5534
C27 C 1.1213(4) 0.6010(5) 0.5751(2)
C28 C 1.0405(5) 0.5238(5) 0.5566(2)
H25 H 1.0422 0.4590 0.5778
C29 C 0.9553(4) 0.5408(4) 0.5062(2)
H26 H 0.9024 0.4869 0.4936
C30 C 1.2101(4) 0.5818(6) 0.6301(2)
H27 H 1.2828 0.5979 0.6210
H28 H 1.2078 0.5074 0.6423
H29 H 1.1961 0.6281 0.6621
C31 C 0.4834(3) 0.4297(3) 0.34664(15)
C32 C 0.4910(4) 0.3109(3) 0.36746(18)
H30 H 0.4278 0.2941 0.3861
H31 H 0.5594 0.3002 0.3959
H32 H 0.4905 0.2643 0.3334
C33 C 0.3735(4) 0.4463(4) 0.30280(17)
H33 H 0.3634 0.5221 0.2937
H34 H 0.3121 0.4205 0.3205
H35 H 0.3757 0.4068 0.2664
C34 C 0.5845(3) 0.4614(3) 0.31935(16)
H36 H 0.5905 0.4134 0.2867
H37 H 0.6514 0.4564 0.3494
H38 H 0.5754 0.5346 0.3047
H77 H 0.5447 0.6426 0.3683
H78 H 0.7021 0.5801 0.4440
S3 S 0.00098(8) 1.02671(8) 0.09849(4)
S4 S 0.38154(9) 0.95589(10) 0.08198(4)
O5 O 0.0699(2) 1.08025(18) 0.05742(9)
O6 O 0.3864(2) 1.0490(3) 0.12081(11)
O7 O 0.4349(2) 0.8555(3) 0.10352(12)
O8 O 0.3414(2) 0.7875(2) -0.19758(11)
N3 N 0.0541(2) 0.9063(2) 0.12169(11)
N4 N 0.2490(2) 0.9318(2) 0.06087(11)
C35 C -0.0998(3) 0.7962(3) 0.06370(14)
H39 H -0.1301 0.8565 0.0383
H40 H -0.1145 0.7306 0.0399
C36 C 0.0302(3) 0.8112(3) 0.08084(14)
C37 C 0.0782(3) 0.8258(3) 0.02236(13)
H41 H 0.0506 0.7667 -0.0046
H42 H 0.0477 0.8925 0.0032
C38 C 0.2067(3) 0.8299(3) 0.02872(13)
H43 H 0.2379 0.7685 0.0539
C39 C 0.2421(3) 0.8174(3) -0.03212(14)
C40 C 0.2225(3) 0.8984(3) -0.07557(14)
H44 H 0.1859 0.9617 -0.0677
C41 C 0.2565(3) 0.8862(3) -0.13000(15)
H45 H 0.2428 0.9410 -0.1587
C42 C 0.3113(3) 0.7923(3) -0.14198(15)
C43 C 0.3315(3) 0.7112(3) -0.09995(15)
H46 H 0.3682 0.6480 -0.1079
C44 C 0.2960(3) 0.7250(3) -0.04480(14)
H47 H 0.3093 0.6701 -0.0162
C45 C 0.3953(5) 0.6920(4) -0.2123(2)
H48 H 0.4677 0.6857 -0.1867
H49 H 0.4047 0.6953 -0.2535
H50 H 0.3502 0.6301 -0.2066
C46 C -0.1636(3) 0.7891(3) 0.11545(16)
C47 C -0.2371(4) 0.8709(4) 0.1249(2)
H51 H -0.2483 0.9298 0.0988
C48 C -0.2935(4) 0.8660(5) 0.1722(3)
H52 H -0.3429 0.9215 0.1776
C49 C -0.2784(5) 0.7808(6) 0.2116(3)
H53 H -0.3150 0.7794 0.2444
C50 C -0.2083(4) 0.6973(5) 0.2020(2)
H54 H -0.1988 0.6382 0.2281
C51 C -0.1522(3) 0.7003(4) 0.15444(18)
H55 H -0.1061 0.6427 0.1481
C52 C 0.0823(3) 0.7100(3) 0.11378(14)
C53 C 0.1329(3) 0.7100(3) 0.17379(15)
H56 H 0.1399 0.7744 0.1955
C54 C 0.1737(3) 0.6131(4) 0.20178(16)
H57 H 0.2078 0.6142 0.2421
C55 C 0.1647(3) 0.5173(3) 0.17147(18)
H58 H 0.1917 0.4533 0.1906
C56 C 0.1151(3) 0.5176(4) 0.11248(17)
H59 H 0.1079 0.4525 0.0913
C57 C 0.0755(3) 0.6108(3) 0.08351(16)
H60 H 0.0434 0.6082 0.0429
C58 C 0.4367(3) 0.9977(3) 0.01873(15)
C59 C 0.4039(3) 1.0956(3) -0.00867(17)
H61 H 0.3576 1.1422 0.0081
C60 C 0.4404(3) 1.1243(4) -0.06137(17)
H62 H 0.4175 1.1900 -0.0799
C61 C 0.5098(4) 1.0571(4) -0.08646(18)
C62 C 0.5442(3) 0.9619(4) -0.05809(19)
H63 H 0.5927 0.9166 -0.0741
C63 C 0.5077(4) 0.9316(4) -0.00549(19)
H64 H 0.5316 0.8663 0.0132
C64 C 0.5457(4) 1.0887(4) -0.14505(17)
H65 H 0.4839 1.1226 -0.1711
H66 H 0.5684 1.0250 -0.1642
H67 H 0.6077 1.1385 -0.1369
C65 C 0.0386(3) 1.1000(3) 0.17035(15)
C66 C -0.0418(3) 1.0610(3) 0.21106(15)
H68 H -0.0312 0.9847 0.2185
H69 H -0.1181 1.0743 0.1917
H70 H -0.0266 1.0997 0.2485
C67 C 0.0161(3) 1.2198(3) 0.15359(17)
H71 H -0.0619 1.2291 0.1362
H72 H 0.0618 1.2412 0.1250
H73 H 0.0343 1.2638 0.1891
C68 C 0.1604(3) 1.0836(3) 0.19891(15)
H74 H 0.1832 1.1399 0.2279
H75 H 0.2062 1.0863 0.1684
H76 H 0.1691 1.0143 0.2185
H79 H 0.1379 0.9149 0.1411
H80 H 0.2067 0.9996 0.0526
loop_
_geom_bond_atom_site_label_1
_geom_bond_atom_site_label_2
_geom_bond_site_symmetry_1
_geom_bond_site_symmetry_2
S1 O1 1_555 1_555
S2 O2 1_555 1_555
S3 O5 1_555 1_555
S4 O6 1_555 1_555
O3 S2 1_555 1_555
O4 C8 1_555 1_555
O7 S4 1_555 1_555
O8 C42 1_555 1_555
N1 S1 1_555 1_555
N2 S2 1_555 1_555
N3 S3 1_555 1_555
N4 S4 1_555 1_555
C1 H1 1_555 1_555
H2 C1 1_555 1_555
C2 N1 1_555 1_555
C3 C2 1_555 1_555
H3 C3 1_555 1_555
H4 C3 1_555 1_555
C4 N2 1_555 1_555
H5 C4 1_555 1_555
C5 C4 1_555 1_555
C6 C5 1_555 1_555
H6 C6 1_555 1_555
C7 C6 1_555 1_555
H7 C7 1_555 1_555
C8 C7 1_555 1_555
C9 C8 1_555 1_555
H8 C9 1_555 1_555
C10 C5 1_555 1_555
H9 C10 1_555 1_555
C11 O4 1_555 1_555
H10 C11 1_555 1_555
H11 C11 1_555 1_555
H12 C11 1_555 1_555
C12 C1 1_555 1_555
C13 C12 1_555 1_555
H13 C13 1_555 1_555
C14 C13 1_555 1_555
H14 C14 1_555 1_555
C15 C14 1_555 1_555
H15 C15 1_555 1_555
C16 C15 1_555 1_555
H16 C16 1_555 1_555
C17 C12 1_555 1_555
H17 C17 1_555 1_555
C18 C2 1_555 1_555
C19 C18 1_555 1_555
H18 C19 1_555 1_555
C20 C19 1_555 1_555
H19 C20 1_555 1_555
C21 C20 1_555 1_555
H20 C21 1_555 1_555
C22 C21 1_555 1_555
H21 C22 1_555 1_555
C23 C18 1_555 1_555
H22 C23 1_555 1_555
C24 S2 1_555 1_555
C25 C24 1_555 1_555
H23 C25 1_555 1_555
C26 C25 1_555 1_555
H24 C26 1_555 1_555
C27 C26 1_555 1_555
C28 C27 1_555 1_555
H25 C28 1_555 1_555
C29 C24 1_555 1_555
H26 C29 1_555 1_555
C30 C27 1_555 1_555
H27 C30 1_555 1_555
H28 C30 1_555 1_555
H29 C30 1_555 1_555
C31 S1 1_555 1_555
C32 C31 1_555 1_555
H30 C32 1_555 1_555
H31 C32 1_555 1_555
H32 C32 1_555 1_555
C33 C31 1_555 1_555
H33 C33 1_555 1_555
H34 C33 1_555 1_555
H35 C33 1_555 1_555
C34 C31 1_555 1_555
H36 C34 1_555 1_555
H37 C34 1_555 1_555
H38 C34 1_555 1_555
C35 H39 1_555 1_555
H40 C35 1_555 1_555
C36 N3 1_555 1_555
C37 C36 1_555 1_555
H41 C37 1_555 1_555
H42 C37 1_555 1_555
C38 N4 1_555 1_555
H43 C38 1_555 1_555
C39 C38 1_555 1_555
C40 C39 1_555 1_555
H44 C40 1_555 1_555
C41 C40 1_555 1_555
H45 C41 1_555 1_555
C42 C41 1_555 1_555
C43 C42 1_555 1_555
H46 C43 1_555 1_555
C44 C39 1_555 1_555
H47 C44 1_555 1_555
C45 O8 1_555 1_555
H48 C45 1_555 1_555
H49 C45 1_555 1_555
H50 C45 1_555 1_555
C46 C35 1_555 1_555
C47 C46 1_555 1_555
H51 C47 1_555 1_555
C48 C47 1_555 1_555
H52 C48 1_555 1_555
C49 C48 1_555 1_555
H53 C49 1_555 1_555
C50 C49 1_555 1_555
H54 C50 1_555 1_555
C51 C46 1_555 1_555
H55 C51 1_555 1_555
C52 C36 1_555 1_555
C53 C52 1_555 1_555
H56 C53 1_555 1_555
C54 C53 1_555 1_555
H57 C54 1_555 1_555
C55 C54 1_555 1_555
H58 C55 1_555 1_555
C56 C55 1_555 1_555
H59 C56 1_555 1_555
C57 C52 1_555 1_555
H60 C57 1_555 1_555
C58 S4 1_555 1_555
C59 C58 1_555 1_555
H61 C59 1_555 1_555
C60 C59 1_555 1_555
H62 C60 1_555 1_555
C61 C60 1_555 1_555
C62 C61 1_555 1_555
H63 C62 1_555 1_555
C63 C58 1_555 1_555
H64 C63 1_555 1_555
C64 C61 1_555 1_555
H65 C64 1_555 1_555
H66 C64 1_555 1_555
H67 C64 1_555 1_555
C65 S3 1_555 1_555
C66 C65 1_555 1_555
H68 C66 1_555 1_555
H69 C66 1_555 1_555
H70 C66 1_555 1_555
C67 C65 1_555 1_555
H71 C67 1_555 1_555
H72 C67 1_555 1_555
H73 C67 1_555 1_555
C68 C65 1_555 1_555
H74 C68 1_555 1_555
H75 C68 1_555 1_555
H76 C68 1_555 1_555
H77 N1 1_555 1_555
H78 N2 1_555 1_555
H79 N3 1_555 1_555
H80 N4 1_555 1_555
C1 C2 1_555 1_555
C3 C4 1_555 1_555
C9 C10 1_555 1_555
C16 C17 1_555 1_555
C22 C23 1_555 1_555
C28 C29 1_555 1_555
C35 C36 1_555 1_555
C37 C38 1_555 1_555
C43 C44 1_555 1_555
C50 C51 1_555 1_555
C56 C57 1_555 1_555
C62 C63 1_555 1_555

#END
