
#######################################################################
#
#                 Cambridge Crystallographic Data Centre
#                                CCDC 
#
#######################################################################
#
# If this CIF has been generated from an entry in the Cambridge 
# Structural Database, then it will include bibliographic, chemical, 
# crystal, experimental, refinement or atomic coordinate data resulting 
# from the CCDC's data processing and validation procedures.
#
#######################################################################

data_VEJVUE
_chemical_formula_moiety         'C24 H27 B1 O4'
_chemical_name_systematic        
2-(1-benzofuran-2-yl)-2-methyl-1-phenyl-3-(4,4,5,5-tetramethyl-1,3,2-dioxaborolan-2-yl)propan-1-one
_symmetry_cell_setting           monoclinic
_symmetry_space_group_name_H-M   'P 21'
_symmetry_Int_Tables_number      4
_space_group_name_Hall           'P 2yb'
loop_
_symmetry_equiv_pos_site_id
_symmetry_equiv_pos_as_xyz
1 x,y,z
2 -x,1/2+y,-z
_cell_length_a                   12.635(2)
_cell_length_b                   6.3611(12)
_cell_length_c                   13.243(2)
_cell_angle_alpha                90
_cell_angle_beta                 92.831(4)
_cell_angle_gamma                90
_cell_volume                     1063.07
_exptl_crystal_colour            colorless
_exptl_crystal_description       prismatic
_cell_formula_units_Z            2
loop_
_atom_site_label
_atom_site_type_symbol
_atom_site_fract_x
_atom_site_fract_y
_atom_site_fract_z
O1 O 0.28919(17) 0.5376(4) 0.42232(15)
O2 O 0.1369(2) 0.2700(5) 0.2346(3)
O3 O 0.2072(2) 0.4344(5) 0.01977(19)
O4 O 0.3345(2) 0.1908(5) 0.05390(19)
B1 B 0.2811(3) 0.3587(7) 0.0878(3)
C1 C 0.3608(2) 0.8502(6) 0.4701(2)
C2 C 0.4118(3) 0.9869(7) 0.5384(3)
H1 H 0.4275 1.1241 0.5200
C3 C 0.4381(3) 0.9138(8) 0.6329(3)
H2 H 0.4723 1.0031 0.6796
C4 C 0.4154(3) 0.7106(8) 0.6616(3)
H3 H 0.4348 0.6663 0.7268
C5 C 0.3647(3) 0.5725(7) 0.5959(3)
H4 H 0.3487 0.4358 0.6148
C6 C 0.3389(2) 0.6473(6) 0.5006(2)
C7 C 0.2788(2) 0.6769(6) 0.3424(2)
C8 C 0.3203(3) 0.8644(6) 0.3672(3)
H5 H 0.3225 0.9819 0.3256
C9 C 0.2296(3) 0.5918(5) 0.2458(2)
C10 C 0.1364(3) 0.4469(6) 0.2668(3)
C11 C 0.0428(3) 0.5225(6) 0.3213(2)
C12 C 0.0381(3) 0.7111(6) 0.3716(3)
H6 H 0.0953 0.8029 0.3707
C13 C -0.0500(3) 0.7672(8) 0.4235(3)
H7 H -0.0517 0.8952 0.4573
C14 C -0.1338(3) 0.6340(8) 0.4247(3)
H8 H -0.1926 0.6701 0.4605
C15 C -0.1326(3) 0.4481(8) 0.3739(3)
H9 H -0.1913 0.3598 0.3734
C16 C -0.0446(3) 0.3907(7) 0.3234(3)
H10 H -0.0437 0.2620 0.2901
C17 C 0.1904(3) 0.7735(6) 0.1788(3)
H11 H 0.2497 0.8563 0.1597
H12 H 0.1429 0.8597 0.2152
H13 H 0.1538 0.7187 0.1192
C18 C 0.3138(3) 0.4628(6) 0.1922(2)
H14 H 0.3382 0.3520 0.2379
H15 H 0.3738 0.5542 0.1822
C19 C 0.1974(4) 0.2826(7) -0.0620(3)
C20 C 0.3062(4) 0.1735(8) -0.0540(3)
C21 C 0.3057(6) -0.0561(9) -0.0834(4)
H16 H 0.2660 -0.1349 -0.0364
H17 H 0.3772 -0.1075 -0.0822
H18 H 0.2736 -0.0717 -0.1502
C22 C 0.3922(6) 0.2899(11) -0.1070(4)
H19 H 0.4599 0.2296 -0.0880
H20 H 0.3916 0.4354 -0.0878
H21 H 0.3795 0.2784 -0.1789
C23 C 0.1056(4) 0.1418(10) -0.0392(4)
H22 H 0.0422 0.2245 -0.0366
H23 H 0.1196 0.0736 0.0247
H24 H 0.0964 0.0376 -0.0914
C24 C 0.1723(6) 0.4026(10) -0.1594(3)
H25 H 0.2270 0.5041 -0.1694
H26 H 0.1056 0.4735 -0.1551
H27 H 0.1684 0.3062 -0.2152
loop_
_geom_bond_atom_site_label_1
_geom_bond_atom_site_label_2
_geom_bond_site_symmetry_1
_geom_bond_site_symmetry_2
O1 C6 1_555 1_555
O2 C10 1_555 1_555
O3 B1 1_555 1_555
O4 B1 1_555 1_555
B1 C18 1_555 1_555
C1 C2 1_555 1_555
C2 H1 1_555 1_555
C3 C2 1_555 1_555
H2 C3 1_555 1_555
C4 C3 1_555 1_555
H3 C4 1_555 1_555
C5 C4 1_555 1_555
H4 C5 1_555 1_555
C6 C1 1_555 1_555
C7 O1 1_555 1_555
C8 C1 1_555 1_555
H5 C8 1_555 1_555
C9 C7 1_555 1_555
C10 C9 1_555 1_555
C11 C10 1_555 1_555
C12 C11 1_555 1_555
H6 C12 1_555 1_555
C13 C12 1_555 1_555
H7 C13 1_555 1_555
C14 C13 1_555 1_555
H8 C14 1_555 1_555
C15 C14 1_555 1_555
H9 C15 1_555 1_555
C16 C11 1_555 1_555
H10 C16 1_555 1_555
C17 C9 1_555 1_555
H11 C17 1_555 1_555
H12 C17 1_555 1_555
H13 C17 1_555 1_555
C18 C9 1_555 1_555
H14 C18 1_555 1_555
H15 C18 1_555 1_555
C19 O3 1_555 1_555
C20 O4 1_555 1_555
C21 C20 1_555 1_555
H16 C21 1_555 1_555
H17 C21 1_555 1_555
H18 C21 1_555 1_555
C22 C20 1_555 1_555
H19 C22 1_555 1_555
H20 C22 1_555 1_555
H21 C22 1_555 1_555
C23 C19 1_555 1_555
H22 C23 1_555 1_555
H23 C23 1_555 1_555
H24 C23 1_555 1_555
C24 C19 1_555 1_555
H25 C24 1_555 1_555
H26 C24 1_555 1_555
H27 C24 1_555 1_555
C5 C6 1_555 1_555
C7 C8 1_555 1_555
C15 C16 1_555 1_555
C19 C20 1_555 1_555

#END
