
#######################################################################
#
#                 Cambridge Crystallographic Data Centre
#                                CCDC 
#
#######################################################################
#
# If this CIF has been generated from an entry in the Cambridge 
# Structural Database, then it will include bibliographic, chemical, 
# crystal, experimental, refinement or atomic coordinate data resulting 
# from the CCDC's data processing and validation procedures.
#
#######################################################################

data_VEKDAQ
_chemical_formula_moiety         'C25 H22 F3 N3 O8,0.5(C6 H14)'
_chemical_name_systematic        
'sym-(2,4-Dinitro-6-trifluoromethylanilino)dibenzo-14-crown-4 hexane solvate'
_symmetry_cell_setting           monoclinic
_symmetry_space_group_name_H-M   'P 21/n'
_symmetry_Int_Tables_number      14
_space_group_name_Hall           '-P 2yn'
loop_
_symmetry_equiv_pos_site_id
_symmetry_equiv_pos_as_xyz
1 x,y,z
2 1/2-x,1/2+y,1/2-z
3 -x,-y,-z
4 1/2+x,1/2-y,1/2+z
_cell_length_a                   14.895(2)
_cell_length_b                   8.5380(6)
_cell_length_c                   22.751(3)
_cell_angle_alpha                90
_cell_angle_beta                 90.613(7)
_cell_angle_gamma                90
_cell_volume                     2893.16
_exptl_crystal_colour            yellow
_chemical_melting_point          '109-110 deg.C'
_cell_formula_units_Z            4
loop_
_atom_site_label
_atom_site_type_symbol
_atom_site_fract_x
_atom_site_fract_y
_atom_site_fract_z
F1 F 0.2744(2) 0.7203(3) -0.1290(1)
F2 F 0.2331(2) 0.6622(3) -0.0416(1)
F3 F 0.3728(2) 0.7025(3) -0.0604(1)
O1 O 0.5276(2) 1.0362(3) 0.1713(1)
O2 O 0.3369(2) 1.1753(3) 0.1726(1)
O3 O 0.2452(2) 0.9673(3) 0.1017(1)
O4 O 0.5091(2) 0.8183(3) 0.0932(1)
O5 O 0.4318(2) 1.2335(4) 0.0461(1)
O6 O 0.3259(4) 1.4023(4) 0.0359(2)
O7 O 0.1034(2) 1.1571(4) -0.1708(1)
O8 O 0.1429(2) 1.3818(4) -0.1356(1)
N1 N 0.3819(2) 0.9390(3) 0.0236(1)
N2 N 0.3604(3) 1.2761(4) 0.0246(2)
N3 N 0.1470(2) 1.2389(4) -0.1367(2)
C1 C 0.5362(3) 1.1607(5) 0.2134(2)
C2 C 0.4802(3) 1.2971(5) 0.1925(2)
C3 C 0.3816(3) 1.2911(5) 0.2079(2)
C4 C 0.2473(2) 1.1534(4) 0.1826(2)
C5 C 0.2027(2) 1.0435(4) 0.1477(1)
C6 C 0.3178(2) 0.8647(4) 0.1179(1)
C7 C 0.3580(2) 0.8045(4) 0.0607(1)
C8 C 0.4418(2) 0.7086(4) 0.0736(2)
C9 C 0.5607(2) 0.7810(4) 0.1419(1)
C10 C 0.5741(2) 0.9014(4) 0.1829(2)
C11 C 0.6296(2) 0.8744(5) 0.2310(2)
C12 C 0.6706(2) 0.7305(5) 0.2381(2)
C13 C 0.6561(2) 0.6119(5) 0.1985(2)
C14 C 0.6009(2) 0.6384(4) 0.1496(2)
C15 C 0.1984(3) 1.2359(5) 0.2246(2)
C16 C 0.1077(3) 1.2098(5) 0.2307(2)
C17 C 0.0635(2) 1.1014(5) 0.1960(2)
C18 C 0.1117(2) 1.0182(5) 0.1545(2)
C19 C 0.3254(2) 1.0084(4) -0.0158(1)
C20 C 0.3126(2) 1.1738(4) -0.0166(2)
C21 C 0.2544(2) 1.2490(4) -0.0547(2)
C22 C 0.2072(2) 1.1609(4) -0.0952(2)
C23 C 0.2185(2) 1.0017(4) -0.0983(2)
C24 C 0.2768(2) 0.9248(4) -0.0604(1)
C25 C 0.2897(3) 0.7542(5) -0.0721(2)
H1 H 0.4377(2) 0.9784(3) 0.0274(1)
H2 H 0.5999(3) 1.1926(5) 0.2173(2)
H3 H 0.5153(3) 1.1250(5) 0.2524(2)
H4 H 0.4850(3) 1.3039(5) 0.1492(2)
H5 H 0.5061(3) 1.3943(5) 0.2091(2)
H6 H 0.3751(3) 1.2650(5) 0.2500(2)
H7 H 0.3539(3) 1.3949(5) 0.2009(2)
H8 H 0.2954(2) 0.7763(4) 0.1418(1)
H9 H 0.3637(2) 0.9222(4) 0.1412(1)
H10 H 0.3129(2) 0.7380(4) 0.0396(1)
H11 H 0.4299(2) 0.6301(4) 0.1046(2)
H12 H 0.4618(2) 0.6534(4) 0.0378(2)
H13 H 0.6396(2) 0.9550(5) 0.2591(2)
H14 H 0.7093(2) 0.7135(5) 0.2710(2)
H15 H 0.6834(2) 0.5124(5) 0.2043(2)
H16 H 0.5912(2) 0.5574(4) 0.1216(2)
H17 H 0.2278(3) 1.3103(5) 0.2492(2)
H18 H 0.0751(3) 1.2673(5) 0.2591(2)
H19 H 0.0010(2) 1.0839(5) 0.2005(2)
H20 H 0.0819(2) 0.9430(5) 0.1305(2)
H21 H 0.2471(2) 1.3594(4) -0.0531(2)
H22 H 0.1858(2) 0.9433(4) -0.1269(2)
C26 C 0.0685(9) 0.4627(17) 0.0938(6)
C27 C 0.0690(9) 0.3483(17) 0.0495(6)
C28 C 0.0158(15) 0.1033(28) 0.0038(10)
C29 C 0.1287(15) 0.5868(27) 0.1084(10)
C30 C -0.0039(14) 0.2346(26) 0.0405(9)
C31 C 0.1170(16) 0.5855(28) 0.1523(12)
C32? C 0.0314(20) 0.5138(37) 0.0273(14)
C33? C 0.1488(19) 0.5611(32) 0.1180(13)
C34? C 0.1045(16) 0.5925(26) 0.1156(10)
C35? C 0.0291(8) 0.0228(17) 0.0016(6)
loop_
_geom_bond_atom_site_label_1
_geom_bond_atom_site_label_2
_geom_bond_site_symmetry_1
_geom_bond_site_symmetry_2
F1 C25 1_555 1_555
F2 C25 1_555 1_555
F3 C25 1_555 1_555
O1 C1 1_555 1_555
O2 C3 1_555 1_555
O3 C5 1_555 1_555
O4 C8 1_555 1_555
O5 N2 1_555 1_555
O6 N2 1_555 1_555
O7 N3 1_555 1_555
O8 N3 1_555 1_555
N1 C7 1_555 1_555
N2 C20 1_555 1_555
N3 C22 1_555 1_555
C1 C2 1_555 1_555
C2 C3 1_555 1_555
C3 H6 1_555 1_555
C4 O2 1_555 1_555
C5 C4 1_555 1_555
C6 O3 1_555 1_555
C7 C6 1_555 1_555
C8 C7 1_555 1_555
C9 O4 1_555 1_555
C10 O1 1_555 1_555
C11 C10 1_555 1_555
C12 C11 1_555 1_555
C13 C12 1_555 1_555
C14 C9 1_555 1_555
C15 C4 1_555 1_555
C16 C15 1_555 1_555
C17 C16 1_555 1_555
C18 C5 1_555 1_555
C19 N1 1_555 1_555
C20 C19 1_555 1_555
C21 C20 1_555 1_555
C22 C21 1_555 1_555
C23 C22 1_555 1_555
C24 C19 1_555 1_555
C25 C24 1_555 1_555
C26 C27 1_555 1_555
C27 C30 1_555 1_555
C28 C30 1_555 1_555
C29 C26 1_555 1_555
C31 C29 1_555 1_555
H1 N1 1_555 1_555
H2 C1 1_555 1_555
H3 C1 1_555 1_555
H4 C2 1_555 1_555
H5 C2 1_555 1_555
H7 C3 1_555 1_555
H8 C6 1_555 1_555
H9 C6 1_555 1_555
H10 C7 1_555 1_555
H11 C8 1_555 1_555
H12 C8 1_555 1_555
H13 C11 1_555 1_555
H14 C12 1_555 1_555
H15 C13 1_555 1_555
H16 C14 1_555 1_555
H17 C15 1_555 1_555
H18 C16 1_555 1_555
H19 C17 1_555 1_555
H20 C18 1_555 1_555
H21 C21 1_555 1_555
H22 C23 1_555 1_555
C9 C10 1_555 1_555
C13 C14 1_555 1_555
C17 C18 1_555 1_555
C23 C24 1_555 1_555

#END
