
#######################################################################
#
#                 Cambridge Crystallographic Data Centre
#                                CCDC 
#
#######################################################################
#
# If this CIF has been generated from an entry in the Cambridge 
# Structural Database, then it will include bibliographic, chemical, 
# crystal, experimental, refinement or atomic coordinate data resulting 
# from the CCDC's data processing and validation procedures.
#
#######################################################################

data_VEKDIY
_chemical_formula_moiety         'C25 H24 N4 O11,0.5(C1 H2 Cl2)'
_chemical_name_systematic        
'sym-(2,4,6-trinitroanilino)dibenzo-16-crown-5 dichloromethane solvate'
_symmetry_cell_setting           monoclinic
_symmetry_space_group_name_H-M   'P 21/n'
_symmetry_Int_Tables_number      14
_space_group_name_Hall           '-P 2yn'
loop_
_symmetry_equiv_pos_site_id
_symmetry_equiv_pos_as_xyz
1 x,y,z
2 1/2-x,1/2+y,1/2-z
3 -x,-y,-z
4 1/2+x,1/2-y,1/2+z
_cell_length_a                   10.6565(2)
_cell_length_b                   8.1359(2)
_cell_length_c                   32.7249(8)
_cell_angle_alpha                90
_cell_angle_beta                 98.485(1)
_cell_angle_gamma                90
_cell_volume                     2806.2
_exptl_crystal_colour            yellow
_exptl_crystal_description       plate
_chemical_melting_point          '169-170 deg.C'
_cell_formula_units_Z            4
loop_
_atom_site_label
_atom_site_type_symbol
_atom_site_fract_x
_atom_site_fract_y
_atom_site_fract_z
C26 C 0.0136(14) 0.3660(22) 0.0271(5)
Cl1 Cl 0.0248(7) 0.5642(8) 0.0460(2)
Cl2 Cl -0.0117(10) 0.3755(20) -0.0204(3)
H25 H 0.0935(14) 0.3056(22) 0.0362(5)
H26 H -0.0566(14) 0.3071(22) 0.0375(5)
Cl2B Cl 0.0117(10) 0.6245(20) 0.0204(3)
C26B C -0.0136(14) 0.6340(22) -0.0271(5)
Cl1B Cl -0.0248(7) 0.4358(8) -0.0460(2)
H25B H -0.0935(14) 0.6944(22) -0.0362(5)
H26B H 0.0566(14) 0.6929(22) -0.0375(5)
O1 O 0.4824(3) 0.4303(4) 0.2457(1)
O2 O 0.2452(3) 0.5585(4) 0.2204(1)
O3 O 0.1258(3) 0.3720(4) 0.1495(1)
O4 O 0.2266(3) 0.1167(4) 0.1117(1)
O5 O 0.5307(3) 0.1896(4) 0.2027(1)
O6 O 0.4761(3) 0.5536(4) 0.1415(1)
O7 O 0.3540(3) 0.7141(4) 0.1010(1)
O8 O 0.5532(3) -0.0150(4) 0.0681(1)
O9 O 0.3880(3) -0.0725(4) 0.0238(1)
O10 O 0.2949(3) 0.3886(4) -0.0677(1)
O11 O 0.3087(3) 0.6351(4) -0.0431(1)
N1 N 0.4711(3) 0.2372(4) 0.1215(1)
N2 N 0.4121(3) 0.5844(4) 0.1080(1)
N3 N 0.4533(3) 0.0223(4) 0.0470(1)
N4 N 0.3128(3) 0.4856(5) -0.0388(1)
C1 C 0.4382(6) 0.5656(6) 0.2675(2)
C2 C 0.3493(6) 0.6595(6) 0.2362(2)
C3 C 0.1753(5) 0.6244(6) 0.1839(2)
C4 C 0.0712(5) 0.5117(6) 0.1672(2)
C5 C 0.0447(4) 0.2548(6) 0.1316(2)
C6 C 0.0978(4) 0.1218(6) 0.1137(1)
C7 C 0.3066(4) 0.0858(5) 0.1502(1)
C8 C 0.4403(4) 0.0801(5) 0.1396(1)
C9 C 0.5374(4) 0.0494(5) 0.1774(1)
C10 C 0.5963(4) 0.1895(6) 0.2421(1)
C11 C 0.5680(4) 0.3237(6) 0.2660(1)
C12 C 0.6258(5) 0.3375(7) 0.3063(1)
C13 C 0.7144(5) 0.2200(9) 0.3224(2)
C14 C 0.7437(5) 0.0900(9) 0.2988(2)
C15 C 0.6827(4) 0.0730(7) 0.2581(1)
C16 C -0.0877(5) 0.2623(7) 0.1294(2)
C17 C -0.1616(5) 0.1385(9) 0.1100(2)
C18 C -0.1099(6) 0.0070(9) 0.0927(2)
C19 C 0.0230(5) -0.0009(7) 0.0946(2)
C20 C 0.4314(3) 0.2933(5) 0.0831(1)
C21 C 0.4032(4) 0.4635(5) 0.0747(1)
C22 C 0.3634(4) 0.5248(5) 0.0357(1)
C23 C 0.3458(4) 0.4200(5) 0.0025(1)
C24 C 0.3688(4) 0.2540(5) 0.0080(1)
C25 C 0.4122(3) 0.1938(4) 0.0467(1)
H1 H 0.4846(3) 0.3214(4) 0.1416(1)
H2 H 0.5101(6) 0.6359(6) 0.2795(2)
H3 H 0.3936(6) 0.5258(6) 0.2900(2)
H4 H 0.3185(6) 0.7584(6) 0.2493(2)
H5 H 0.3943(6) 0.6957(6) 0.2134(2)
H6 H 0.2324(5) 0.6413(6) 0.1630(2)
H7 H 0.1395(5) 0.7324(6) 0.1900(2)
H8 H 0.0243(5) 0.4757(6) 0.1896(2)
H9 H 0.0111(5) 0.5684(6) 0.1458(2)
H10 H 0.2842(4) -0.0201(5) 0.1622(1)
H11 H 0.2982(4) 0.1748(5) 0.1703(1)
H12 H 0.4459(4) -0.0098(5) 0.1191(1)
H13 H 0.5166(4) -0.0517(5) 0.1919(1)
H14 H 0.6233(4) 0.0377(5) 0.1697(1)
H15 H 0.6053(5) 0.4262(7) 0.3231(1)
H16 H 0.7553(5) 0.2299(9) 0.3501(2)
H17 H 0.8052(5) 0.0116(9) 0.3100(2)
H18 H 0.7010(4) -0.0180(7) 0.2417(1)
H19 H -0.1261(5) 0.3524(7) 0.1413(2)
H20 H -0.2512(5) 0.1446(9) 0.1087(2)
H21 H -0.1625(6) -0.0775(9) 0.0795(2)
H22 H 0.0607(5) -0.0914(7) 0.0827(2)
H23 H 0.3483(4) 0.6392(5) 0.0318(1)
H24 H 0.3545(4) 0.1814(5) -0.0149(1)
loop_
_geom_bond_atom_site_label_1
_geom_bond_atom_site_label_2
_geom_bond_site_symmetry_1
_geom_bond_site_symmetry_2
O1 C1 1_555 1_555
O2 C2 1_555 1_555
O3 C4 1_555 1_555
O4 C6 1_555 1_555
O5 C9 1_555 1_555
O6 N2 1_555 1_555
O7 N2 1_555 1_555
O8 N3 1_555 1_555
O9 N3 1_555 1_555
O10 N4 1_555 1_555
O11 N4 1_555 1_555
N1 C8 1_555 1_555
N2 C21 1_555 1_555
N3 C25 1_555 1_555
N4 C23 1_555 1_555
C1 C2 1_555 1_555
C2 H4 1_555 1_555
C3 O2 1_555 1_555
C4 C3 1_555 1_555
C5 O3 1_555 1_555
C6 C5 1_555 1_555
C7 O4 1_555 1_555
C8 C7 1_555 1_555
C9 C8 1_555 1_555
C10 O5 1_555 1_555
C11 O1 1_555 1_555
C12 C11 1_555 1_555
C13 C12 1_555 1_555
C14 C13 1_555 1_555
C15 C10 1_555 1_555
C16 C5 1_555 1_555
C17 C16 1_555 1_555
C18 C17 1_555 1_555
C19 C6 1_555 1_555
C20 N1 1_555 1_555
C21 C20 1_555 1_555
C22 C21 1_555 1_555
C23 C22 1_555 1_555
C24 C23 1_555 1_555
C25 C20 1_555 1_555
C26 Cl1 1_555 1_555
Cl1 Cl2B 1_555 1_555
Cl2 C26 1_555 1_555
H1 N1 1_555 1_555
H2 C1 1_555 1_555
H3 C1 1_555 1_555
H5 C2 1_555 1_555
H6 C3 1_555 1_555
H7 C3 1_555 1_555
H8 C4 1_555 1_555
H9 C4 1_555 1_555
H10 C7 1_555 1_555
H11 C7 1_555 1_555
H12 C8 1_555 1_555
H13 C9 1_555 1_555
H14 C9 1_555 1_555
H15 C12 1_555 1_555
H16 C13 1_555 1_555
H17 C14 1_555 1_555
H18 C15 1_555 1_555
H19 C16 1_555 1_555
H20 C17 1_555 1_555
H21 C18 1_555 1_555
H22 C19 1_555 1_555
H23 C22 1_555 1_555
H24 C24 1_555 1_555
H25 C26 1_555 1_555
H26 C26 1_555 1_555
Cl2B C26B 1_555 1_555
C26B Cl1B 1_555 1_555
Cl1B Cl2 1_555 1_555
H25B C26B 1_555 1_555
H26B C26B 1_555 1_555
C10 C11 1_555 1_555
C14 C15 1_555 1_555
C18 C19 1_555 1_555
C24 C25 1_555 1_555

#END
