
#######################################################################
#
#                 Cambridge Crystallographic Data Centre
#                                CCDC 
#
#######################################################################
#
# If this CIF has been generated from an entry in the Cambridge 
# Structural Database, then it will include bibliographic, chemical, 
# crystal, experimental, refinement or atomic coordinate data resulting 
# from the CCDC's data processing and validation procedures.
#
#######################################################################

data_VEKKII
_chemical_formula_moiety         'C38 H38 N4,2(C1 H1 Cl3)'
_chemical_name_systematic        
"4,4'-bis((3,5-dimethyl-1H-pyrrol-2-yl)(3,5-dimethyl-2H-pyrrol-2-ylidene)methyl)biphenyl chloroform solvate"
_symmetry_cell_setting           triclinic
_symmetry_space_group_name_H-M   'P -1'
_symmetry_Int_Tables_number      2
_space_group_name_Hall           '-P 1'
loop_
_symmetry_equiv_pos_site_id
_symmetry_equiv_pos_as_xyz
1 x,y,z
2 -x,-y,-z
_cell_length_a                   11.8016(4)
_cell_length_b                   13.1297(5)
_cell_length_c                   13.1384(5)
_cell_angle_alpha                97.3129(13)
_cell_angle_beta                 94.7034(14)
_cell_angle_gamma                95.7811(13)
_cell_volume                     1999.69
_exptl_crystal_colour            orange
_exptl_crystal_description       needle
_cell_formula_units_Z            2
_exptl_crystal_recrystallization_method dichloromethane
_exptl_crystal_preparation       ', Luminescent'
loop_
_atom_site_label
_atom_site_type_symbol
_atom_site_fract_x
_atom_site_fract_y
_atom_site_fract_z
C1 C 0.71833(19) 0.1137(2) 0.26488(18)
H1 H 0.7609 0.0843 0.2094
Cl4 Cl 0.5857(3) 0.1334(3) 0.2090(4)
Cl5 Cl 0.7979(2) 0.22866(18) 0.3231(2)
Cl6 Cl 0.71044(14) 0.02352(17) 0.35670(15)
C2 C 0.3255(2) 0.3897(2) 0.1700(2)
H3 H 0.2984 0.4469 0.2134
Cl10 Cl 0.4459(8) 0.4440(11) 0.1259(9)
Cl11 Cl 0.2135(6) 0.3511(7) 0.0711(4)
Cl12 Cl 0.3399(12) 0.3101(11) 0.2397(10)
C3 C 0.45803(15) 0.12161(13) 0.48146(14)
H5 H 0.4700 0.0604 0.4419
N1 N -0.19207(13) -0.09644(12) 0.09591(11)
H6 H -0.2251 -0.1561 0.1035
C4 C 0.34884(14) 0.15300(12) 0.47830(13)
C5 C 0.63723(15) 0.33605(13) 0.65833(14)
C6 C 0.25143(14) 0.08941(13) 0.41315(12)
C7 C 0.17894(15) -0.03815(15) 0.26701(14)
H7 H 0.1932 -0.0833 0.2102
N2 N -0.15535(14) -0.25920(12) 0.19137(12)
C8 C 0.06752(14) -0.03237(13) 0.29093(13)
C9 C -0.15370(17) 0.05418(15) 0.03914(14)
H8 H -0.1606 0.1087 0.0011
N3 N 0.79729(13) 0.46844(12) 0.65923(13)
C10 C 0.13930(14) 0.09429(14) 0.43712(14)
H9 H 0.1249 0.1381 0.4948
C11 C -0.03221(14) -0.09551(13) 0.22715(13)
C12 C 0.33542(16) 0.24553(15) 0.53775(17)
H10 H 0.2633 0.2682 0.5379
N4 N 0.77442(14) 0.35509(13) 0.81190(13)
H11 H 0.8244 0.3959 0.7883
C13 C -0.06211(15) -0.19579(14) 0.24746(14)
C14 C 0.69804(15) 0.40824(13) 0.60952(14)
C15 C -0.06586(15) 0.04883(14) 0.11469(14)
C16 C 0.53474(14) 0.27246(13) 0.59960(13)
C17 C -0.09073(14) -0.04822(14) 0.15090(13)
C18 C 0.66982(16) 0.31347(14) 0.75926(15)
C19 C 0.42684(16) 0.30459(15) 0.59660(17)
H12 H 0.4156 0.3668 0.6347
C20 C 0.26895(14) 0.02202(15) 0.32615(14)
H13 H 0.3429 0.0177 0.3078
C21 C 0.04862(15) 0.03501(14) 0.37655(14)
H14 H -0.0257 0.0404 0.3935
C22 C 0.83654(17) 0.52650(14) 0.59232(17)
C23 C -0.22975(16) -0.03557(16) 0.02972(14)
C24 C -0.01004(16) -0.25440(15) 0.32119(14)
C25 C 0.67854(17) 0.43454(14) 0.50551(15)
C26 C 0.54896(15) 0.17942(13) 0.54202(15)
H15 H 0.6206 0.1557 0.5442
C27 C -0.07209(19) -0.34945(16) 0.30528(16)
H16 H -0.0585 -0.4047 0.3407
C28 C 0.03190(18) 0.13182(16) 0.14551(17)
H17 H 0.0273 0.1842 0.1011
H18 H 0.1028 0.1026 0.1397
H19 H 0.0283 0.1619 0.2155
C29 C 0.08983(18) -0.22336(17) 0.40045(16)
H20 H 0.1578 -0.2092 0.3668
H21 H 0.0993 -0.2785 0.4408
H22 H 0.0766 -0.1625 0.4446
C30 C -0.16072(19) -0.34976(16) 0.22571(16)
C31 C 0.76613(18) 0.50744(16) 0.49729(17)
H23 H 0.7781 0.5395 0.4393
C32 C -0.33781(19) -0.0645(2) -0.03954(17)
H24 H -0.3202 -0.0753 -0.1099
H25 H -0.3860 -0.0099 -0.0308
H26 H -0.3768 -0.1269 -0.0225
C33 C 0.61437(18) 0.25200(16) 0.82498(17)
C34 C 0.9402(2) 0.60338(18) 0.6192(2)
H27 H 0.9198 0.6714 0.6127
H28 H 0.9971 0.5871 0.5734
H29 H 0.9703 0.6011 0.6890
C35 C 0.7867(2) 0.32304(17) 0.90450(17)
C36 C 0.6889(2) 0.26004(18) 0.91489(18)
H30 H 0.6746 0.2280 0.9724
C37 C -0.2507(2) -0.43656(19) 0.1835(2)
H31 H -0.3154 -0.4094 0.1521
H32 H -0.2742 -0.4731 0.2385
H33 H -0.2204 -0.4830 0.1329
C38 C 0.4987(2) 0.1897(2) 0.8086(2)
H34 H 0.4403 0.2354 0.8051
H35 H 0.4889 0.1508 0.8650
H36 H 0.4931 0.1433 0.7453
C39 C 0.8938(3) 0.3529(2) 0.9744(2)
H37 H 0.9534 0.3151 0.9487
H38 H 0.8809 0.3373 1.0422
H39 H 0.9163 0.4257 0.9774
C40 C 0.5845(2) 0.39583(17) 0.42242(16)
H40 H 0.5771 0.3217 0.4108
H41 H 0.6020 0.4223 0.3600
H42 H 0.5139 0.4186 0.4429
Cl1? Cl 0.7056(8) 0.0497(14) 0.3500(8)
Cl2? Cl 0.5775(5) 0.1303(4) 0.2212(6)
Cl3? Cl 0.7804(12) 0.2354(10) 0.2976(17)
H2? H 0.7560 0.0776 0.2094
Cl7? Cl 0.3269(2) 0.2936(2) 0.2571(2)
Cl8? Cl 0.2164(4) 0.3596(4) 0.0755(3)
Cl9? Cl 0.4565(3) 0.3928(7) 0.1145(4)
H4? H 0.3189 0.4574 0.2087
H43? H -0.2008 -0.2422 0.1434
H44? H 0.8266 0.4675 0.7212
loop_
_geom_bond_atom_site_label_1
_geom_bond_atom_site_label_2
_geom_bond_site_symmetry_1
_geom_bond_site_symmetry_2
C1 H1 1_555 1_555
Cl4 C1 1_555 1_555
Cl5 C1 1_555 1_555
Cl6 C1 1_555 1_555
C2 H3 1_555 1_555
Cl10 C2 1_555 1_555
Cl11 C2 1_555 1_555
Cl12 C2 1_555 1_555
C3 H5 1_555 1_555
N1 H6 1_555 1_555
C4 C3 1_555 1_555
C5 C14 1_555 1_555
C6 C4 1_555 1_555
C7 H7 1_555 1_555
N2 C13 1_555 1_555
C8 C7 1_555 1_555
C9 H8 1_555 1_555
N3 C14 1_555 1_555
C10 C6 1_555 1_555
H9 C10 1_555 1_555
C11 C8 1_555 1_555
C12 C4 1_555 1_555
H10 C12 1_555 1_555
N4 H11 1_555 1_555
C13 C11 1_555 1_555
C14 C25 1_555 1_555
C15 C9 1_555 1_555
C16 C5 1_555 1_555
C17 N1 1_555 1_555
C18 C5 1_555 1_555
C19 C12 1_555 1_555
H12 C19 1_555 1_555
C20 C6 1_555 1_555
H13 C20 1_555 1_555
C21 C8 1_555 1_555
H14 C21 1_555 1_555
C22 N3 1_555 1_555
C23 N1 1_555 1_555
C24 C13 1_555 1_555
C25 C31 1_555 1_555
C26 C3 1_555 1_555
H15 C26 1_555 1_555
C27 C24 1_555 1_555
H16 C27 1_555 1_555
C28 C15 1_555 1_555
H17 C28 1_555 1_555
H18 C28 1_555 1_555
H19 C28 1_555 1_555
C29 C24 1_555 1_555
H20 C29 1_555 1_555
H21 C29 1_555 1_555
H22 C29 1_555 1_555
C30 N2 1_555 1_555
C31 C22 1_555 1_555
H23 C31 1_555 1_555
C32 C23 1_555 1_555
H24 C32 1_555 1_555
H25 C32 1_555 1_555
H26 C32 1_555 1_555
C33 C18 1_555 1_555
C34 C22 1_555 1_555
H27 C34 1_555 1_555
H28 C34 1_555 1_555
H29 C34 1_555 1_555
C35 N4 1_555 1_555
C36 C33 1_555 1_555
H30 C36 1_555 1_555
C37 C30 1_555 1_555
H31 C37 1_555 1_555
H32 C37 1_555 1_555
H33 C37 1_555 1_555
C38 C33 1_555 1_555
H34 C38 1_555 1_555
H35 C38 1_555 1_555
H36 C38 1_555 1_555
C39 C35 1_555 1_555
H37 C39 1_555 1_555
H38 C39 1_555 1_555
H39 C39 1_555 1_555
C40 C25 1_555 1_555
H40 C40 1_555 1_555
H41 C40 1_555 1_555
H42 C40 1_555 1_555
C7 C20 1_555 1_555
C9 C23 1_555 1_555
C10 C21 1_555 1_555
C11 C17 1_555 1_555
N4 C18 1_555 1_555
C15 C17 1_555 1_555
C16 C19 1_555 1_555
C16 C26 1_555 1_555
C27 C30 1_555 1_555
C35 C36 1_555 1_555

#END
