
#######################################################################
#
#                 Cambridge Crystallographic Data Centre
#                                CCDC 
#
#######################################################################
#
# If this CIF has been generated from an entry in the Cambridge 
# Structural Database, then it will include bibliographic, chemical, 
# crystal, experimental, refinement or atomic coordinate data resulting 
# from the CCDC's data processing and validation procedures.
#
#######################################################################

data_VEKLIJ
_chemical_formula_moiety         
'2(C10 H12 N3 1+),2(C10 H11 O3 1-),C1 H4 O1,2(H2 O1)'
_chemical_name_systematic        
'bis(7-amino-2,4-dimethyl-1,8-naphthyridin-8-ium) bis(2-methyl-2-phenoxypropanoate) methanol solvate dihydrate'
_symmetry_cell_setting           triclinic
_symmetry_space_group_name_H-M   'P -1'
_symmetry_Int_Tables_number      2
_space_group_name_Hall           '-P 1'
loop_
_symmetry_equiv_pos_site_id
_symmetry_equiv_pos_as_xyz
1 x,y,z
2 -x,-y,-z
_cell_length_a                   9.4307(10)
_cell_length_b                   15.1724(13)
_cell_length_c                   15.4054(15)
_cell_angle_alpha                104.142(2)
_cell_angle_beta                 91.0730(10)
_cell_angle_gamma                105.515(2)
_cell_volume                     2051.25
_exptl_crystal_colour            colorless
_exptl_crystal_description       block
_cell_formula_units_Z            2
loop_
_atom_site_label
_atom_site_type_symbol
_atom_site_fract_x
_atom_site_fract_y
_atom_site_fract_z
N1 N 0.9025(2) 0.81157(17) 0.42304(16)
H1 H 0.9110 0.7795 0.3700
N2 N 0.7967(3) 0.89994(17) 0.35425(17)
N3 N 1.0227(3) 0.72240(18) 0.48061(17)
H2 H 1.0329 0.6932 0.4268
H3 H 1.0567 0.7078 0.5257
C1 C 0.9551(3) 0.7894(2) 0.4939(2)
C2 C 0.9370(3) 0.8403(2) 0.5818(2)
H4 H 0.9732 0.8264 0.6319
C3 C 0.8678(3) 0.9082(2) 0.5923(2)
H5 H 0.8540 0.9396 0.6500
C4 C 0.8150(3) 0.9334(2) 0.5174(2)
C5 C 0.8353(3) 0.8835(2) 0.4312(2)
C6 C 0.7328(3) 0.9694(2) 0.3608(2)
C7 C 0.7055(3) 1.0217(2) 0.4434(2)
H6 H 0.6592 1.0689 0.4446
C8 C 0.7446(3) 1.0058(2) 0.5224(2)
C9 C 0.6967(4) 0.9925(2) 0.2758(2)
H7 H 0.7751 1.0441 0.2672
H8 H 0.6062 1.0103 0.2795
H9 H 0.6855 0.9381 0.2261
C10 C 0.7173(4) 1.0628(3) 0.6121(2)
H10 H 0.8100 1.1015 0.6443
H11 H 0.6669 1.0208 0.6463
H12 H 0.6575 1.1025 0.6029
N4 N 0.2736(2) 0.38162(16) 0.37505(16)
H13 H 0.2844 0.3393 0.3291
N5 N 0.4114(3) 0.32194(17) 0.45900(16)
N6 N 0.1534(3) 0.44138(18) 0.28188(17)
H14 H 0.1724 0.4024 0.2359
H15 H 0.1051 0.4801 0.2746
C11 C 0.1979(3) 0.4417(2) 0.3625(2)
C12 C 0.1713(3) 0.5068(2) 0.4400(2)
H16 H 0.1133 0.5461 0.4336
C13 C 0.2288(3) 0.5119(2) 0.5217(2)
H17 H 0.2114 0.5554 0.5714
C14 C 0.3161(3) 0.4518(2) 0.5336(2)
C15 C 0.3346(3) 0.3848(2) 0.45807(19)
C16 C 0.4746(3) 0.3266(2) 0.5392(2)
C17 C 0.4648(3) 0.3924(2) 0.6175(2)
H18 H 0.5118 0.3932 0.6714
C18 C 0.3862(3) 0.4564(2) 0.6159(2)
C19 C 0.5592(4) 0.2560(2) 0.5419(2)
H19 H 0.4941 0.2002 0.5532
H20 H 0.6383 0.2833 0.5889
H21 H 0.5991 0.2394 0.4852
C20 C 0.3758(4) 0.5289(3) 0.6998(2)
H22 H 0.4178 0.5913 0.6921
H23 H 0.4291 0.5210 0.7497
H24 H 0.2740 0.5209 0.7112
O1 O -0.0518(3) 0.71016(16) 0.26179(14)
O2 O 0.0316(2) 0.60324(15) 0.30687(14)
O3 O 0.1126(2) 0.54091(14) 0.13650(13)
C21 C -0.0071(3) 0.6377(2) 0.2476(2)
C22 C -0.0081(3) 0.5843(2) 0.14827(19)
C23 C -0.1430(3) 0.4981(2) 0.1258(2)
H25 H -0.1480 0.4651 0.0636
H26 H -0.2307 0.5183 0.1369
H27 H -0.1354 0.4566 0.1626
C24 C -0.0069(4) 0.6441(2) 0.0832(2)
H28 H 0.0859 0.6922 0.0923
H29 H -0.0858 0.6733 0.0931
H30 H -0.0200 0.6048 0.0228
C25 C 0.2571(3) 0.5938(2) 0.1499(2)
C26 C 0.3559(4) 0.5444(3) 0.1129(2)
H31 H 0.3211 0.4814 0.0804
C27 C 0.5043(4) 0.5888(3) 0.1243(3)
H32 H 0.5695 0.5558 0.0982
C28 C 0.5581(4) 0.6804(4) 0.1731(3)
H33 H 0.6593 0.7094 0.1816
C29 C 0.4617(5) 0.7293(3) 0.2096(2)
H34 H 0.4984 0.7920 0.2425
C30 C 0.3103(4) 0.6874(2) 0.1985(2)
H35 H 0.2458 0.7215 0.2233
O4 O 0.3412(3) 0.26818(16) 0.22981(15)
O5 O 0.2001(3) 0.30324(16) 0.13412(15)
O6 O 0.4130(2) 0.13911(16) 0.09530(15)
C31 C 0.2945(4) 0.2649(2) 0.1521(2)
C32 C 0.3651(4) 0.2140(2) 0.0731(2)
C33 C 0.2654(4) 0.1769(3) -0.0136(2)
H36 H 0.3147 0.1454 -0.0602
H37 H 0.2426 0.2287 -0.0306
H38 H 0.1756 0.1330 -0.0052
C34 C 0.5090(4) 0.2842(3) 0.0636(2)
H39 H 0.5729 0.3021 0.1180
H40 H 0.4887 0.3393 0.0524
H41 H 0.5563 0.2554 0.0143
C35 C 0.3132(4) 0.0628(2) 0.1132(2)
C36 C 0.3684(5) -0.0127(3) 0.1129(2)
H42 H 0.4641 -0.0108 0.0980
C37 C 0.2807(6) -0.0909(3) 0.1349(3)
H43 H 0.3186 -0.1414 0.1354
C38 C 0.1389(6) -0.0962(3) 0.1561(3)
H44 H 0.0810 -0.1495 0.1710
C39 C 0.0841(5) -0.0221(3) 0.1550(3)
H45 H -0.0121 -0.0249 0.1695
C40 C 0.1699(4) 0.0574(3) 0.1327(2)
H46 H 0.1306 0.1071 0.1308
O7 O 0.1702(3) 0.71747(18) 0.64650(15)
H47 H 0.2631 0.7427 0.6535
H48 H 0.1348 0.7355 0.6959
O8 O 0.5235(3) 0.19167(18) 0.31835(17)
H49 H 0.4760 0.2041 0.2776
H50 H 0.5072 0.2234 0.3689
O9 O 0.9275(3) 0.2171(2) 0.1871(2)
H51 H 1.0003 0.2522 0.1726
C41 C 0.8274(5) 0.1716(4) 0.1129(3)
H52 H 0.7296 0.1547 0.1319
H53 H 0.8512 0.1155 0.0808
H54 H 0.8316 0.2131 0.0742
loop_
_geom_bond_atom_site_label_1
_geom_bond_atom_site_label_2
_geom_bond_site_symmetry_1
_geom_bond_site_symmetry_2
N1 H1 1_555 1_555
N2 C5 1_555 1_555
N3 H2 1_555 1_555
H3 N3 1_555 1_555
C1 N1 1_555 1_555
C2 C1 1_555 1_555
H4 C2 1_555 1_555
C3 C2 1_555 1_555
H5 C3 1_555 1_555
C4 C3 1_555 1_555
C5 N1 1_555 1_555
C6 N2 1_555 1_555
C7 C6 1_555 1_555
H6 C7 1_555 1_555
C8 C4 1_555 1_555
C9 C6 1_555 1_555
H7 C9 1_555 1_555
H8 C9 1_555 1_555
H9 C9 1_555 1_555
C10 C8 1_555 1_555
H10 C10 1_555 1_555
H11 C10 1_555 1_555
H12 C10 1_555 1_555
N4 H13 1_555 1_555
N5 C15 1_555 1_555
N6 H14 1_555 1_555
H15 N6 1_555 1_555
C11 N4 1_555 1_555
C12 C11 1_555 1_555
H16 C12 1_555 1_555
C13 C12 1_555 1_555
H17 C13 1_555 1_555
C14 C13 1_555 1_555
C15 N4 1_555 1_555
C16 N5 1_555 1_555
C17 C16 1_555 1_555
H18 C17 1_555 1_555
C18 C14 1_555 1_555
C19 C16 1_555 1_555
H19 C19 1_555 1_555
H20 C19 1_555 1_555
H21 C19 1_555 1_555
C20 C18 1_555 1_555
H22 C20 1_555 1_555
H23 C20 1_555 1_555
H24 C20 1_555 1_555
O1 C21 1_555 1_555
O2 C21 1_555 1_555
O3 C22 1_555 1_555
C21 C22 1_555 1_555
C22 C23 1_555 1_555
C23 H25 1_555 1_555
H26 C23 1_555 1_555
H27 C23 1_555 1_555
C24 C22 1_555 1_555
H28 C24 1_555 1_555
H29 C24 1_555 1_555
H30 C24 1_555 1_555
C25 O3 1_555 1_555
C26 C25 1_555 1_555
H31 C26 1_555 1_555
C27 C26 1_555 1_555
H32 C27 1_555 1_555
C28 C27 1_555 1_555
H33 C28 1_555 1_555
C29 C28 1_555 1_555
H34 C29 1_555 1_555
C30 C25 1_555 1_555
H35 C30 1_555 1_555
O4 C31 1_555 1_555
O5 C31 1_555 1_555
O6 C32 1_555 1_555
C31 C32 1_555 1_555
C32 C33 1_555 1_555
C33 H36 1_555 1_555
H37 C33 1_555 1_555
H38 C33 1_555 1_555
C34 C32 1_555 1_555
H39 C34 1_555 1_555
H40 C34 1_555 1_555
H41 C34 1_555 1_555
C35 O6 1_555 1_555
C36 C35 1_555 1_555
H42 C36 1_555 1_555
C37 C36 1_555 1_555
H43 C37 1_555 1_555
C38 C37 1_555 1_555
H44 C38 1_555 1_555
C39 C38 1_555 1_555
H45 C39 1_555 1_555
C40 C35 1_555 1_555
H46 C40 1_555 1_555
O7 H47 1_555 1_555
H48 O7 1_555 1_555
O8 H49 1_555 1_555
H50 O8 1_555 1_555
O9 H51 1_555 1_555
C41 O9 1_555 1_555
H52 C41 1_555 1_555
H53 C41 1_555 1_555
H54 C41 1_555 1_555
N3 C1 1_555 1_555
C4 C5 1_555 1_555
C7 C8 1_555 1_555
N6 C11 1_555 1_555
C14 C15 1_555 1_555
C17 C18 1_555 1_555
C29 C30 1_555 1_555
C39 C40 1_555 1_555

#END
