
#######################################################################
#
#                 Cambridge Crystallographic Data Centre
#                                CCDC 
#
#######################################################################
#
# If this CIF has been generated from an entry in the Cambridge 
# Structural Database, then it will include bibliographic, chemical, 
# crystal, experimental, refinement or atomic coordinate data resulting 
# from the CCDC's data processing and validation procedures.
#
#######################################################################

data_VEKLAZ
_chemical_compound_source        'roots of Patrinia scabra Bunge'
_chemical_formula_moiety         'C17 H24 O7'
_chemical_name_systematic        
1,3-Dimethoxy-7-(hydroxymethyl)-4-(3-methylbutyryloxymethyl)-1-hydrocyclopenta-4,7-diene(c)pyran-6-one
_symmetry_cell_setting           monoclinic
_symmetry_space_group_name_H-M   'P 21/c'
_symmetry_Int_Tables_number      14
_space_group_name_Hall           '-P 2ybc'
loop_
_symmetry_equiv_pos_site_id
_symmetry_equiv_pos_as_xyz
1 x,y,z
2 -x,1/2+y,1/2-z
3 -x,-y,-z
4 x,1/2-y,1/2+z
_cell_length_a                   19.946(3)
_cell_length_b                   10.2729(16)
_cell_length_c                   8.6062(13)
_cell_angle_alpha                90
_cell_angle_beta                 92.652(3)
_cell_angle_gamma                90
_cell_volume                     1761.55
_exptl_crystal_colour            colorless
_exptl_crystal_description       prismatic
_cell_formula_units_Z            4
loop_
_atom_site_label
_atom_site_type_symbol
_atom_site_fract_x
_atom_site_fract_y
_atom_site_fract_z
O1 O 0.39882(11) 0.5507(2) 1.0688(3)
O2 O 0.29521(10) 0.5128(2) 0.9588(3)
O3 O 0.26280(11) 0.4761(2) 0.6980(3)
O4 O 0.37068(12) 1.0565(3) 0.9369(3)
O5 O 0.50031(14) 0.8488(3) 0.9283(4)
H1 H 0.5338 0.8863 0.9646
O6 O 0.11711(10) 0.6445(2) 0.7804(3)
O7 O 0.04589(12) 0.7600(3) 0.6342(4)
C1 C 0.35748(16) 0.5807(3) 0.9408(4)
H2 H 0.3781 0.5502 0.8463
C2 C 0.24665(16) 0.5345(3) 0.8378(4)
H3 H 0.2042 0.4969 0.8694
C3 C 0.23489(15) 0.6771(3) 0.8050(4)
C4 C 0.28122(15) 0.7634(3) 0.8539(4)
C5 C 0.28238(16) 0.9098(3) 0.8433(4)
H4 H 0.2460 0.9480 0.8989
H5 H 0.2789 0.9384 0.7358
C6 C 0.34963(17) 0.9456(4) 0.9188(4)
C7 C 0.38481(16) 0.8251(4) 0.9673(4)
C8 C 0.34498(16) 0.7233(3) 0.9288(4)
C9 C 0.45360(16) 0.8298(4) 1.0486(5)
H6 H 0.4564 0.9010 1.1226
H7 H 0.4631 0.7490 1.1037
C10 C 0.17234(15) 0.7129(3) 0.7144(4)
H8 H 0.1651 0.8061 0.7197
H9 H 0.1759 0.6887 0.6061
C11 C 0.2647(2) 0.3368(4) 0.7053(5)
H10 H 0.3004 0.3098 0.7768
H11 H 0.2722 0.3023 0.6039
H12 H 0.2227 0.3049 0.7402
C12 C 0.42350(19) 0.4188(4) 1.0686(5)
H13 H 0.3873 0.3598 1.0858
H14 H 0.4577 0.4086 1.1498
H15 H 0.4420 0.4002 0.9699
C13 C 0.05548(17) 0.6771(4) 0.7281(4)
C14 C 0.00243(15) 0.6021(3) 0.8050(4)
H16 H 0.0070 0.6181 0.9161
H17 H 0.0105 0.5101 0.7887
C15 C -0.06904(15) 0.6321(3) 0.7507(4)
H18 H -0.0735 0.7267 0.7402
C16 C -0.08597(19) 0.5716(4) 0.5936(4)
H19 H -0.0563 0.6053 0.5187
H20 H -0.1315 0.5924 0.5618
H21 H -0.0809 0.4789 0.6006
C17 C -0.11722(17) 0.5865(4) 0.8718(4)
H22 H -0.1625 0.6063 0.8368
H23 H -0.1069 0.6302 0.9686
H24 H -0.1126 0.4942 0.8863
loop_
_geom_bond_atom_site_label_1
_geom_bond_atom_site_label_2
_geom_bond_site_symmetry_1
_geom_bond_site_symmetry_2
O1 C1 1_555 1_555
O2 C1 1_555 1_555
O3 C2 1_555 1_555
O4 C6 1_555 1_555
O5 H1 1_555 1_555
O6 C10 1_555 1_555
O7 C13 1_555 1_555
C1 H2 1_555 1_555
C2 O2 1_555 1_555
H3 C2 1_555 1_555
C3 C2 1_555 1_555
C4 C3 1_555 1_555
C5 C4 1_555 1_555
H4 C5 1_555 1_555
H5 C5 1_555 1_555
C6 C5 1_555 1_555
C7 C6 1_555 1_555
C8 C1 1_555 1_555
C9 O5 1_555 1_555
H6 C9 1_555 1_555
H7 C9 1_555 1_555
C10 C3 1_555 1_555
H8 C10 1_555 1_555
H9 C10 1_555 1_555
C11 O3 1_555 1_555
H10 C11 1_555 1_555
H11 C11 1_555 1_555
H12 C11 1_555 1_555
C12 O1 1_555 1_555
H13 C12 1_555 1_555
H14 C12 1_555 1_555
H15 C12 1_555 1_555
C13 O6 1_555 1_555
C14 C13 1_555 1_555
H16 C14 1_555 1_555
H17 C14 1_555 1_555
C15 C14 1_555 1_555
H18 C15 1_555 1_555
C16 C15 1_555 1_555
H19 C16 1_555 1_555
H20 C16 1_555 1_555
H21 C16 1_555 1_555
C17 C15 1_555 1_555
H22 C17 1_555 1_555
H23 C17 1_555 1_555
H24 C17 1_555 1_555
C4 C8 1_555 1_555
C7 C8 1_555 1_555
C7 C9 1_555 1_555

#END
