
#######################################################################
#
#                 Cambridge Crystallographic Data Centre
#                                CCDC 
#
#######################################################################
#
# If this CIF has been generated from an entry in the Cambridge 
# Structural Database, then it will include bibliographic, chemical, 
# crystal, experimental, refinement or atomic coordinate data resulting 
# from the CCDC's data processing and validation procedures.
#
#######################################################################

data_VEKMAZ
_chemical_compound_source        'Leaves of Polyalthia longifolia'
_chemical_formula_moiety         'C22 H32 O4'
_chemical_name_systematic        
16\a-Acetoxy-cleroda-3,13(14)Z-dien-15,16-olide
_chemical_properties_biological  'antifeedant activity'
_symmetry_cell_setting           monoclinic
_symmetry_space_group_name_H-M   'P 21'
_symmetry_Int_Tables_number      4
_space_group_name_Hall           'P 2yb'
loop_
_symmetry_equiv_pos_site_id
_symmetry_equiv_pos_as_xyz
1 x,y,z
2 -x,1/2+y,-z
_cell_length_a                   8.963(2)
_cell_length_b                   7.515(2)
_cell_length_c                   15.323(1)
_cell_angle_alpha                90
_cell_angle_beta                 97.38(1)
_cell_angle_gamma                90
_cell_volume                     1023.56
_chemical_melting_point          175deg.C
_cell_formula_units_Z            2
loop_
_atom_site_label
_atom_site_type_symbol
_atom_site_fract_x
_atom_site_fract_y
_atom_site_fract_z
C1 C 0.8870(7) 0.6673(9) 0.2751(5)
C2 C 0.9883(10) 0.6056(13) 0.2079(6)
C3 C 1.0425(10) 0.4198(13) 0.2243(6)
C4 C 0.9930(9) 0.3068(11) 0.2818(5)
C5 C 0.8720(8) 0.3592(10) 0.3381(4)
C6 C 0.7609(9) 0.2020(11) 0.3434(5)
C7 C 0.6222(10) 0.2562(12) 0.3845(5)
C8 C 0.5364(8) 0.4095(11) 0.3397(4)
C9 C 0.6397(8) 0.5753(10) 0.3350(4)
C10 C 0.7798(8) 0.5147 0.2929(4)
C11 C 0.5512(8) 0.7194(11) 0.2782(4)
C12 C 0.4979(8) 0.6833(11) 0.1813(5)
C13 C 0.4299(8) 0.8396(11) 0.1346(4)
C14 C 0.4111(8) 1.0078(12) 0.1622(5)
C15 C 0.3450(9) 1.1109(11) 0.0884(5)
C16 C 0.3645(9) 0.8261(12) 0.0371(5)
C17 C 0.3939(10) 0.4508(16) 0.3829(5)
C18 C 1.0560(11) 0.1229(14) 0.2912(7)
C19 C 0.9541(9) 0.3946(12) 0.4315(5)
C20 C 0.6778(10) 0.6649(14) 0.4257(5)
C21 C 0.2052(10) 0.6197(16) -0.0475(5)
C22 C 0.0671(11) 0.5199(16) -0.0471(6)
O1 O 0.3169(8) 1.2660(11) 0.0818(5)
O2 O 0.3210(7) 1.0087(9) 0.0145(4)
O3 O 0.2395(6) 0.7170(8) 0.0289(3)
O4 O 0.2883(8) 0.6301(17) -0.1026(4)
H1 H 0.954(1) 0.706(2) 0.322(1)
H2 H 0.808(1) 0.794(2) 0.253(1)
H3 H 1.096(1) 0.660(2) 0.206(1)
H4 H 0.929(1) 0.588(2) 0.146(1)
H6 H 0.811(1) 0.107(2) 0.376(1)
H7 H 0.722(1) 0.157(2) 0.277(1)
H8 H 0.663(1) 0.288(2) 0.459(1)
H9 H 0.578(1) 0.150(2) 0.394(1)
H10 H 0.484(1) 0.376(2) 0.279(1)
H11 H 0.716(1) 0.459(2) 0.227(1)
H12 H 0.620(1) 0.777(1) 0.284(1)
H13 H 0.465(1) 0.766(2) 0.294(1)
H14 H 0.425(1) 0.602(2) 0.179(1)
H15 H 0.587(1) 0.640(2) 0.158(1)
H16 H 0.439(1) 1.065(2) 0.227(1)
H17 H 0.431(1) 0.800(2) -0.002(1)
H18 H 0.441(1) 0.482(2) 0.464(1)
H19 H 0.326(1) 0.554(2) 0.347(1)
H20 H 0.344(1) 0.373(2) 0.403(1)
H21 H 0.971(1) 0.028(2) 0.266(1)
H22 H 1.128(1) 0.120(2) 0.254(1)
H23 H 1.091(1) 0.113(2) 0.338(1)
H24 H 0.887(1) 0.399(2) 0.460(1)
H25 H 1.037(1) 0.270(2) 0.440(1)
H26 H 1.015(1) 0.496(2) 0.423(1)
H27 H 0.716(1) 0.601(2) 0.464(1)
H28 H 0.752(1) 0.753(2) 0.425(1)
H29 H 0.604(1) 0.716(2) 0.444(1)
H5? H 1.108(1) 0.367(2) 0.373(1)
H30? H 0.821(1) 0.430(2) 0.518(1)
H31? H 0.940(1) 0.301(2) 0.475(1)
H32? H 0.938(1) 0.561(2) 0.471(1)
loop_
_geom_bond_atom_site_label_1
_geom_bond_atom_site_label_2
_geom_bond_site_symmetry_1
_geom_bond_site_symmetry_2
C1 C2 1_555 1_555
C2 C3 1_555 1_555
C3 C4 1_555 1_555
C4 C5 1_555 1_555
C5 C6 1_555 1_555
C6 C7 1_555 1_555
C7 C8 1_555 1_555
C8 C9 1_555 1_555
C9 C10 1_555 1_555
C10 C1 1_555 1_555
C11 C9 1_555 1_555
C12 C11 1_555 1_555
C13 C12 1_555 1_555
C14 C13 1_555 1_555
C15 C14 1_555 1_555
C16 C13 1_555 1_555
C17 C8 1_555 1_555
C18 C4 1_555 1_555
C19 C5 1_555 1_555
C20 C9 1_555 1_555
C21 C22 1_555 1_555
O1 C15 1_555 1_555
O2 C15 1_555 1_555
O3 C16 1_555 1_555
O4 C21 1_555 1_555
H1 C1 1_555 1_555
H2 C1 1_555 1_555
H3 C2 1_555 1_555
H4 C2 1_555 1_555
H6 C6 1_555 1_555
H7 C6 1_555 1_555
H8 C7 1_555 1_555
H9 C7 1_555 1_555
H10 C8 1_555 1_555
H11 C10 1_555 1_555
H12 C11 1_555 1_555
H13 C11 1_555 1_555
H14 C12 1_555 1_555
H15 C12 1_555 1_555
H16 C14 1_555 1_555
H17 C16 1_555 1_555
H18 C17 1_555 1_555
H19 C17 1_555 1_555
H20 C17 1_555 1_555
H21 C18 1_555 1_555
H22 C18 1_555 1_555
H23 C18 1_555 1_555
H24 C19 1_555 1_555
H25 C19 1_555 1_555
H26 C19 1_555 1_555
H27 C20 1_555 1_555
H28 C20 1_555 1_555
H29 C20 1_555 1_555
C5 C10 1_555 1_555
C16 O2 1_555 1_555
C21 O3 1_555 1_555

#END
