
#######################################################################
#
#                 Cambridge Crystallographic Data Centre
#                                CCDC 
#
#######################################################################
#
# If this CIF has been generated from an entry in the Cambridge 
# Structural Database, then it will include bibliographic, chemical, 
# crystal, experimental, refinement or atomic coordinate data resulting 
# from the CCDC's data processing and validation procedures.
#
#######################################################################

data_VEKMAC
_chemical_formula_moiety         'C10 H12 N3 1+,C10 H11 N3,C8 H4 N1 O6 1-,H2 O1'
_chemical_name_systematic        
'7-amino-2,4-dimethyl-1,8-naphthyridin-8-ium 7-amino-2,4-dimethyl-1,8-naphthyridine 2-carboxy-4-nitrobenzoate monohydrate'
_symmetry_cell_setting           triclinic
_symmetry_space_group_name_H-M   'P -1'
_symmetry_Int_Tables_number      2
_space_group_name_Hall           '-P 1'
loop_
_symmetry_equiv_pos_site_id
_symmetry_equiv_pos_as_xyz
1 x,y,z
2 -x,-y,-z
_cell_length_a                   8.6240(7)
_cell_length_b                   9.1351(8)
_cell_length_c                   19.6792(17)
_cell_angle_alpha                92.3050(10)
_cell_angle_beta                 96.2510(10)
_cell_angle_gamma                106.409(2)
_cell_volume                     1474.26
_exptl_crystal_colour            colorless
_exptl_crystal_description       block
_cell_formula_units_Z            2
loop_
_atom_site_label
_atom_site_type_symbol
_atom_site_fract_x
_atom_site_fract_y
_atom_site_fract_z
O1 O 0.5464(5) -0.0080(4) 0.2609(2)
C1 C 0.8857(6) 0.5123(5) 0.3200(2)
H1 H 0.9200 0.6161 0.3132
C2 C 0.7874(6) 0.2018(5) 0.3422(3)
H2 H 0.7562 0.0981 0.3495
C3 C 0.6860(6) 0.4988(6) 0.2178(3)
C4 C 0.5670(6) 0.1236(6) 0.2433(3)
C5 C 0.9145(6) 0.3009(6) 0.3869(2)
H3 H 0.9659 0.2648 0.4238
C6 C 0.9615(6) 0.4552(5) 0.3743(2)
O2 O 0.5593(4) 0.4280(4) 0.17533(18)
H4 H 0.5281 0.3381 0.1839
O3 O 0.4801(5) 0.1571(4) 0.1924(2)
O4 O 1.1330(7) 0.6996(6) 0.4114(3)
C7 C 0.7044(5) 0.2534(5) 0.2861(2)
C8 C 0.7548(5) 0.4114(5) 0.2744(2)
O5 O 0.7545(5) 0.6377(4) 0.2153(2)
O6 O 1.1663(5) 0.5056(6) 0.4682(2)
N1 N 1.0957(6) 0.5593(7) 0.4218(3)
C9 C 0.2446(5) 0.3150(5) 0.2959(2)
N2 N 0.1261(4) 0.2861(4) 0.23837(17)
C10 C 0.2668(6) 0.1938(5) 0.3376(2)
C11 C 0.3939(6) 0.2333(5) 0.3944(2)
C12 C 0.1608(6) 0.0412(5) 0.3186(3)
H5 H 0.1719 -0.0394 0.3442
C13 C 0.0306(5) 0.1422(5) 0.2228(2)
N3 N 0.3353(4) 0.4644(4) 0.31002(18)
C14 C 0.4537(5) 0.4990(5) 0.3645(2)
C15 C 0.4833(6) 0.3841(6) 0.4071(2)
H6 H 0.5648 0.4121 0.4443
N4 N -0.0824(5) 0.1136(4) 0.1659(2)
H7 H -0.0910 0.1870 0.1410
H8 H -0.1450 0.0223 0.1549
C16 C 0.0428(6) 0.0145(5) 0.2623(2)
H9 H -0.0271 -0.0832 0.2501
C17 C 0.4318(8) 0.1118(6) 0.4400(3)
H10 H 0.5243 0.1592 0.4733
H11 H 0.4556 0.0342 0.4121
H12 H 0.3393 0.0663 0.4630
C18 C 0.5493(6) 0.6653(5) 0.3790(3)
H13 H 0.6012 0.7017 0.3397
H14 H 0.6306 0.6760 0.4178
H15 H 0.4770 0.7240 0.3888
C19 C 1.0406(5) 0.7937(5) 0.0827(2)
H16 H 1.0277 0.8764 0.0590
C20 C 0.9541(5) 0.5208(4) 0.1007(2)
C21 C 0.9315(5) 0.6435(4) 0.0624(2)
C22 C 0.7358(5) 0.3404(5) 0.0362(2)
N5 N 1.0802(4) 0.5486(3) 0.15571(16)
H17 H 1.0938 0.4730 0.1778
C23 C 0.8006(5) 0.6082(5) 0.0074(2)
C24 C 0.7055(5) 0.4550(5) -0.0048(2)
H18 H 0.6208 0.4284 -0.0407
N6 N 0.8610(4) 0.3715(4) 0.08841(17)
C25 C 1.1806(5) 0.6910(5) 0.1749(2)
N7 N 1.2950(4) 0.7111(4) 0.22867(19)
H19 H 1.3045 0.6342 0.2508
H20 H 1.3593 0.8011 0.2412
C26 C 1.1639(5) 0.8178(5) 0.1366(2)
H21 H 1.2355 0.9150 0.1480
C27 C 0.6337(6) 0.1756(5) 0.0243(2)
H22 H 0.7033 0.1112 0.0197
H23 H 0.5589 0.1631 -0.0168
H24 H 0.5738 0.1476 0.0625
C28 C 0.7696(6) 0.7306(6) -0.0378(3)
H25 H 0.8627 0.7717 -0.0611
H26 H 0.7508 0.8111 -0.0099
H27 H 0.6756 0.6865 -0.0708
O7 O 0.6345(4) 0.8295(4) 0.12957(18)
H28 H 0.6743 0.7652 0.1496
H29 H 0.6055 0.8817 0.1599
loop_
_geom_bond_atom_site_label_1
_geom_bond_atom_site_label_2
_geom_bond_site_symmetry_1
_geom_bond_site_symmetry_2
O1 C4 1_555 1_555
C1 H1 1_555 1_555
C2 H2 1_555 1_555
C3 O2 1_555 1_555
C4 O3 1_555 1_555
C5 C2 1_555 1_555
H3 C5 1_555 1_555
C6 C1 1_555 1_555
O2 H4 1_555 1_555
O4 N1 1_555 1_555
C7 C2 1_555 1_555
C8 C1 1_555 1_555
O5 C3 1_555 1_555
O6 N1 1_555 1_555
N1 C6 1_555 1_555
C9 N2 1_555 1_555
N2 C13 1_555 1_555
C10 C9 1_555 1_555
C11 C10 1_555 1_555
C12 C10 1_555 1_555
H5 C12 1_555 1_555
C13 N4 1_555 1_555
N3 C9 1_555 1_555
C14 N3 1_555 1_555
C15 C11 1_555 1_555
H6 C15 1_555 1_555
N4 H7 1_555 1_555
H8 N4 1_555 1_555
C16 C12 1_555 1_555
H9 C16 1_555 1_555
C17 C11 1_555 1_555
H10 C17 1_555 1_555
H11 C17 1_555 1_555
H12 C17 1_555 1_555
C18 C14 1_555 1_555
H13 C18 1_555 1_555
H14 C18 1_555 1_555
H15 C18 1_555 1_555
C19 H16 1_555 1_555
C20 C21 1_555 1_555
C21 C19 1_555 1_555
C22 C24 1_555 1_555
N5 C20 1_555 1_555
H17 N5 1_555 1_555
C23 C21 1_555 1_555
C24 C23 1_555 1_555
H18 C24 1_555 1_555
N6 C20 1_555 1_555
C25 N5 1_555 1_555
N7 C25 1_555 1_555
H19 N7 1_555 1_555
H20 N7 1_555 1_555
C26 C19 1_555 1_555
H21 C26 1_555 1_555
C27 C22 1_555 1_555
H22 C27 1_555 1_555
H23 C27 1_555 1_555
H24 C27 1_555 1_555
C28 C23 1_555 1_555
H25 C28 1_555 1_555
H26 C28 1_555 1_555
H27 C28 1_555 1_555
O7 H28 1_555 1_555
H29 O7 1_555 1_555
C3 C8 1_555 1_555
C4 C7 1_555 1_555
C5 C6 1_555 1_555
C7 C8 1_555 1_555
C13 C16 1_555 1_555
C14 C15 1_555 1_555
C22 N6 1_555 1_555
C25 C26 1_555 1_555

#END
