
#######################################################################
#
#                 Cambridge Crystallographic Data Centre
#                                CCDC 
#
#######################################################################
#
# If this CIF has been generated from an entry in the Cambridge 
# Structural Database, then it will include bibliographic, chemical, 
# crystal, experimental, refinement or atomic coordinate data resulting 
# from the CCDC's data processing and validation procedures.
#
#######################################################################

data_VEKMOO01
_chemical_formula_moiety         'C14 H6 F5 N1 O3'
_chemical_name_systematic        
2-(2-Nitrophenyl)-3-(pentafluorophenyl)oxirane
_symmetry_cell_setting           monoclinic
_symmetry_space_group_name_H-M   'P 21/n'
_symmetry_Int_Tables_number      14
_space_group_name_Hall           '-P 2yn'
loop_
_symmetry_equiv_pos_site_id
_symmetry_equiv_pos_as_xyz
1 x,y,z
2 1/2-x,1/2+y,1/2-z
3 -x,-y,-z
4 1/2+x,1/2-y,1/2+z
_cell_length_a                   7.2975(12)
_cell_length_b                   12.616(2)
_cell_length_c                   13.957(2)
_cell_angle_alpha                90
_cell_angle_beta                 95.331(3)
_cell_angle_gamma                90
_cell_volume                     1279.4
_exptl_crystal_colour            colorless
_chemical_melting_point          '82-84 deg.C'
_cell_formula_units_Z            4
loop_
_atom_site_label
_atom_site_type_symbol
_atom_site_fract_x
_atom_site_fract_y
_atom_site_fract_z
O1 O 0.8589(2) 0.41379(13) 0.73251(11)
O2 O 0.6633(2) 0.45566(15) 0.44928(13)
O3 O 0.5032(3) 0.34367(17) 0.36277(14)
N1 N 0.6076(3) 0.36576(19) 0.43299(15)
F1 F 1.1557(2) 0.54627(11) 0.82448(11)
F2 F 1.2043(2) 0.75476(12) 0.86031(12)
F3 F 1.0622(2) 0.89982(11) 0.73120(12)
F4 F 0.8669(2) 0.83532(12) 0.56672(11)
F5 F 0.8236(2) 0.62785(11) 0.52860(9)
C1 C 1.0832(3) 0.6168(2) 0.75951(17)
C2 C 1.1096(3) 0.7222(2) 0.77788(19)
C3 C 1.0369(3) 0.7958(2) 0.7137(2)
C4 C 0.9391(3) 0.7633(2) 0.62984(19)
C5 C 0.9157(3) 0.6566(2) 0.61312(18)
C6 C 0.9847(3) 0.57976(18) 0.67665(17)
C7 C 0.9584(4) 0.46323(19) 0.66219(17)
C8 C 0.7816(4) 0.41356(19) 0.63399(16)
C9 C 0.7651(3) 0.30506(18) 0.58975(16)
C10 C 0.8324(4) 0.2188(2) 0.6437(2)
C11 C 0.8115(4) 0.1159(2) 0.6113(2)
C12 C 0.7181(4) 0.0957(2) 0.5225(2)
C13 C 0.6485(4) 0.1786(2) 0.4671(2)
C14 C 0.6744(3) 0.28117(19) 0.49936(17)
H1 H 1.061(3) 0.4257(16) 0.6484(15)
H2 H 0.668(3) 0.4573(15) 0.6235(14)
H3 H 0.898(3) 0.2373(19) 0.7033(18)
H4 H 0.869(3) 0.0530(19) 0.6491(18)
H5 H 0.695(3) 0.021(2) 0.5001(18)
H6 H 0.583(3) 0.171(2) 0.4056(19)
loop_
_geom_bond_atom_site_label_1
_geom_bond_atom_site_label_2
_geom_bond_site_symmetry_1
_geom_bond_site_symmetry_2
O1 C7 1_555 1_555
O2 N1 1_555 1_555
O3 N1 1_555 1_555
N1 C14 1_555 1_555
F1 C1 1_555 1_555
F2 C2 1_555 1_555
F3 C3 1_555 1_555
F4 C4 1_555 1_555
F5 C5 1_555 1_555
C1 C2 1_555 1_555
C2 C3 1_555 1_555
C3 C4 1_555 1_555
C4 C5 1_555 1_555
C5 C6 1_555 1_555
C6 C1 1_555 1_555
C7 C6 1_555 1_555
C8 O1 1_555 1_555
C9 C8 1_555 1_555
C10 C9 1_555 1_555
C11 C10 1_555 1_555
C12 C11 1_555 1_555
C13 C12 1_555 1_555
C14 C9 1_555 1_555
H1 C7 1_555 1_555
H2 C8 1_555 1_555
H3 C10 1_555 1_555
H4 C11 1_555 1_555
H5 C12 1_555 1_555
H6 C13 1_555 1_555
C7 C8 1_555 1_555
C13 C14 1_555 1_555

#END
