
#######################################################################
#
#                 Cambridge Crystallographic Data Centre
#                                CCDC 
#
#######################################################################
#
# If this CIF has been generated from an entry in the Cambridge 
# Structural Database, then it will include bibliographic, chemical, 
# crystal, experimental, refinement or atomic coordinate data resulting 
# from the CCDC's data processing and validation procedures.
#
#######################################################################

data_VEKNUV
_chemical_formula_moiety         'C12 H13 N3 O3'
_chemical_name_systematic        
6-Nitro-1,2-dihydro-2,2-(1',4'-butylene)-4-imino-4H-3,1-benzoxazine
_symmetry_cell_setting           monoclinic
_symmetry_space_group_name_H-M   'C 2/c'
_symmetry_Int_Tables_number      15
_space_group_name_Hall           '-C 2yn'
loop_
_symmetry_equiv_pos_site_id
_symmetry_equiv_pos_as_xyz
1 x,y,z
2 1/2+x,1/2+y,z
3 -x,y,1/2-z
4 1/2-x,1/2+y,1/2-z
5 -x,-y,-z
6 1/2-x,1/2-y,-z
7 x,-y,1/2+z
8 1/2+x,1/2-y,1/2+z
_cell_length_a                   19.206(4)
_cell_length_b                   8.7663(18)
_cell_length_c                   13.720(3)
_cell_angle_alpha                90
_cell_angle_beta                 90.03(3)
_cell_angle_gamma                90
_cell_volume                     2309.98
_exptl_crystal_colour            colorless
_exptl_crystal_description       block
_chemical_melting_point          281-283deg.C
_cell_formula_units_Z            8
loop_
_atom_site_label
_atom_site_type_symbol
_atom_site_fract_x
_atom_site_fract_y
_atom_site_fract_z
O1 O 0.67814(12) 0.3412(3) 0.05999(19)
O2 O 0.39760(13) -0.1600(3) 0.1686(2)
O3 O 0.49715(15) -0.2571(3) 0.1338(2)
N1 N 0.56661(13) 0.4444(3) 0.0909(2)
H1 H 0.5377(19) 0.519(4) 0.102(2)
N2 N 0.69111(11) 0.0844(2) 0.03376(17)
H2 H 0.7266 0.1120 0.0192
N3 N 0.45828(13) -0.1458(3) 0.14493(18)
C1 C 0.65563(14) 0.1938(3) 0.0617(2)
C2 C 0.58310(14) 0.1720(3) 0.09513(19)
C3 C 0.55624(15) 0.0251(3) 0.10843(19)
H3 H 0.5851 -0.0597 0.1030
C4 C 0.48632(14) 0.0071(3) 0.12976(19)
C5 C 0.44191(15) 0.1340(3) 0.1365(2)
H4 H 0.3949 0.1201 0.1503
C6 C 0.46778(14) 0.2786(3) 0.1226(2)
H5 H 0.4379 0.3620 0.1256
C7 C 0.53934(14) 0.3015(3) 0.10388(19)
C8 C 0.64116(14) 0.4686(3) 0.1066(2)
C9 C 0.66681(16) 0.6208(3) 0.0643(2)
H6 H 0.6820 0.6073 -0.0026
H7 H 0.6297 0.6959 0.0653
C10 C 0.7270(2) 0.6730(4) 0.1274(3)
H8 H 0.7188 0.7759 0.1508
H9 H 0.7699 0.6723 0.0902
C11 C 0.7321(2) 0.5624(4) 0.2129(3)
H10 H 0.7697 0.4902 0.2031
H11 H 0.7399 0.6168 0.2735
C12 C 0.66225(16) 0.4815(3) 0.2143(2)
H12 H 0.6282 0.5402 0.2506
H13 H 0.6665 0.3813 0.2437
loop_
_geom_bond_atom_site_label_1
_geom_bond_atom_site_label_2
_geom_bond_site_symmetry_1
_geom_bond_site_symmetry_2
O1 C1 1_555 1_555
O2 N3 1_555 1_555
O3 N3 1_555 1_555
N1 H1 1_555 1_555
N2 H2 1_555 1_555
N3 C4 1_555 1_555
C1 N2 1_555 1_555
C2 C1 1_555 1_555
C3 C2 1_555 1_555
H3 C3 1_555 1_555
C4 C3 1_555 1_555
C5 C4 1_555 1_555
H4 C5 1_555 1_555
C6 C5 1_555 1_555
H5 C6 1_555 1_555
C7 N1 1_555 1_555
C8 O1 1_555 1_555
C9 C8 1_555 1_555
H6 C9 1_555 1_555
H7 C9 1_555 1_555
C10 C9 1_555 1_555
H8 C10 1_555 1_555
H9 C10 1_555 1_555
C11 C10 1_555 1_555
H10 C11 1_555 1_555
H11 C11 1_555 1_555
C12 C8 1_555 1_555
H12 C12 1_555 1_555
H13 C12 1_555 1_555
N1 C8 1_555 1_555
C2 C7 1_555 1_555
C6 C7 1_555 1_555
C11 C12 1_555 1_555

#END
