
#######################################################################
#
#                 Cambridge Crystallographic Data Centre
#                                CCDC 
#
#######################################################################
#
# If this CIF has been generated from an entry in the Cambridge 
# Structural Database, then it will include bibliographic, chemical, 
# crystal, experimental, refinement or atomic coordinate data resulting 
# from the CCDC's data processing and validation procedures.
#
#######################################################################

data_VEKNAB
_chemical_formula_moiety         'C37 H24 O1,2(C3 H8 O1),0.5(H2 O1)'
_chemical_name_systematic        
"anti-2-(5-Benzo(b)fluorenyl)-2'-hydroxy-1,1'-binaphthyl isopropanol solvate hemihydrate"
_symmetry_cell_setting           triclinic
_symmetry_space_group_name_H-M   'P -1'
_symmetry_Int_Tables_number      2
_space_group_name_Hall           '-P 1'
loop_
_symmetry_equiv_pos_site_id
_symmetry_equiv_pos_as_xyz
1 x,y,z
2 -x,-y,-z
_cell_length_a                   12.7456(8)
_cell_length_b                   16.0106(11)
_cell_length_c                   17.3524(12)
_cell_angle_alpha                98.1320(10)
_cell_angle_beta                 92.4870(10)
_cell_angle_gamma                99.7860(10)
_cell_volume                     3446.14
_exptl_crystal_colour            'light yellow'
_cell_formula_units_Z            4
_exptl_crystal_recrystallization_method ethanol/dichloromethane
loop_
_atom_site_label
_atom_site_type_symbol
_atom_site_fract_x
_atom_site_fract_y
_atom_site_fract_z
O1 O 0.30106(10) 0.81187(8) 0.48793(8)
H1 H 0.2902(16) 0.8476(13) 0.4591(13)
C1 C 0.17977(12) 0.60773(13) 0.60378(10)
C2 C 0.09592(13) 0.65477(14) 0.59169(10)
C3 C 0.11602(14) 0.74348(14) 0.58730(11)
H2 H 0.1862 0.7727 0.5925
C4 C 0.03550(15) 0.78732(17) 0.57558(13)
H3 H 0.0509 0.8457 0.5727
C5 C -0.06977(16) 0.74461(19) 0.56794(14)
H4 H -0.1244 0.7745 0.5588
C6 C -0.09379(15) 0.66042(19) 0.57351(13)
H5 H -0.1649 0.6335 0.5691
C7 C -0.01233(13) 0.61179(16) 0.58609(11)
C8 C -0.03544(15) 0.52435(17) 0.59404(12)
H6 H -0.1060 0.4961 0.5902
C9 C 0.04422(15) 0.48140(14) 0.60713(11)
C10 C 0.03806(17) 0.39010(15) 0.61938(13)
H7 H -0.0003 0.3790 0.6650
H8 H 0.0027 0.3512 0.5742
C11 C 0.15139(18) 0.38037(14) 0.63080(12)
C12 C 0.1945(2) 0.30906(16) 0.64326(13)
H9 H 0.1496 0.2572 0.6450
C13 C 0.3033(2) 0.31452(16) 0.65301(14)
H10 H 0.3317 0.2665 0.6615
C14 C 0.37076(19) 0.39175(15) 0.65011(12)
H11 H 0.4443 0.3947 0.6558
C15 C 0.33039(15) 0.46385(14) 0.63893(11)
H12 H 0.3762 0.5156 0.6387
C16 C 0.22006(16) 0.45869(13) 0.62799(11)
C17 C 0.15390(14) 0.52290(13) 0.61228(10)
C18 C 0.29269(12) 0.65554(11) 0.61870(10)
C19 C 0.33112(13) 0.67559(13) 0.69781(11)
H13 H 0.2858 0.6593 0.7357
C20 C 0.43136(13) 0.71752(12) 0.72059(11)
H14 H 0.4535 0.7303 0.7734
C21 C 0.50194(12) 0.74175(11) 0.66454(10)
C22 C 0.60864(13) 0.78297(12) 0.68559(12)
H15 H 0.6321 0.7968 0.7381
C23 C 0.67705(14) 0.80256(13) 0.63082(12)
H16 H 0.7475 0.8281 0.6457
C24 C 0.64195(13) 0.78451(13) 0.55209(12)
H17 H 0.6895 0.7984 0.5148
C25 C 0.53897(12) 0.74681(11) 0.52877(11)
H18 H 0.5171 0.7360 0.4759
C26 C 0.46519(12) 0.72401(11) 0.58421(10)
C27 C 0.35814(12) 0.68101(10) 0.56156(10)
C28 C 0.32188(12) 0.66707(11) 0.47615(10)
C29 C 0.32720(11) 0.58897(11) 0.42697(10)
C30 C 0.36780(12) 0.52124(11) 0.45404(11)
H19 H 0.3890 0.5261 0.5067
C31 C 0.37688(14) 0.44847(13) 0.40499(12)
H20 H 0.4044 0.4049 0.4245
C32 C 0.34500(15) 0.43917(13) 0.32572(12)
H21 H 0.3513 0.3896 0.2925
C33 C 0.30481(14) 0.50272(13) 0.29744(12)
H22 H 0.2828 0.4956 0.2448
C34 C 0.29544(13) 0.57947(12) 0.34568(10)
C35 C 0.25989(14) 0.64756(13) 0.31649(11)
H23 H 0.2364 0.6410 0.2641
C36 C 0.25904(14) 0.72284(13) 0.36294(11)
H24 H 0.2356 0.7674 0.3422
C37 C 0.29363(13) 0.73393(12) 0.44285(11)
O2 O 0.82941(10) 0.32272(8) -0.02124(8)
H25 H 0.8933 0.3383 -0.0089
C38 C 0.71441(13) 0.11936(13) 0.10940(10)
C39 C 0.62711(14) 0.16002(14) 0.09070(11)
C40 C 0.64205(16) 0.24668(15) 0.07883(12)
H26 H 0.7110 0.2782 0.0832
C41 C 0.55871(16) 0.28555(18) 0.06112(13)
H27 H 0.5712 0.3425 0.0531
C42 C 0.45571(19) 0.2400(2) 0.05514(15)
H28 H 0.3990 0.2666 0.0430
C43 C 0.43638(16) 0.1579(2) 0.06668(14)
H29 H 0.3662 0.1290 0.0627
C44 C 0.52008(15) 0.11350(18) 0.08480(12)
C45 C 0.50342(16) 0.02826(18) 0.09874(13)
H30 H 0.4342 -0.0027 0.0949
C46 C 0.58621(16) -0.01025(16) 0.11776(12)
C47 C 0.58545(19) -0.09949(16) 0.13635(14)
H31 H 0.5449 -0.1092 0.1813
H32 H 0.5551 -0.1423 0.0923
C48 C 0.70139(19) -0.10196(15) 0.15346(13)
C49 C 0.7493(2) -0.16850(16) 0.17425(15)
H33 H 0.7075 -0.2208 0.1793
C50 C 0.8578(2) -0.15658(18) 0.18718(16)
H34 H 0.8899 -0.2007 0.2012
C51 C 0.9191(2) -0.07972(16) 0.17948(14)
H35 H 0.9929 -0.0725 0.1879
C52 C 0.87386(16) -0.01296(14) 0.15947(12)
H36 H 0.9169 0.0389 0.1549
C53 C 0.76422(16) -0.02301(13) 0.14612(11)
C54 C 0.69379(14) 0.03550(14) 0.12387(11)
C55 C 0.82616(13) 0.16978(12) 0.12042(10)
C56 C 0.87044(14) 0.19465(12) 0.19767(11)
H37 H 0.8293 0.1806 0.2385
C57 C 0.97094(14) 0.23835(12) 0.21414(11)
H38 H 0.9975 0.2543 0.2659
C58 C 1.03602(13) 0.26001(11) 0.15418(11)
C59 C 1.14227(14) 0.30489(13) 0.16951(13)
H39 H 1.1698 0.3217 0.2209
C60 C 1.20427(15) 0.32378(14) 0.11121(14)
H40 H 1.2740 0.3530 0.1227
C61 C 1.16407(14) 0.29947(13) 0.03346(14)
H41 H 1.2075 0.3123 -0.0065
C62 C 1.06149(13) 0.25694(12) 0.01562(12)
H42 H 1.0359 0.2411 -0.0363
C63 C 0.99377(12) 0.23675(11) 0.07554(11)
C64 C 0.88588(12) 0.19235(11) 0.05930(10)
C65 C 0.83932(12) 0.17427(11) -0.02371(10)
C66 C 0.82685(12) 0.09074(11) -0.06821(10)
C67 C 0.86318(13) 0.02173(12) -0.03911(11)
H43 H 0.8938 0.0300 0.0116
C68 C 0.85430(14) -0.05659(13) -0.08395(12)
H44 H 0.8799 -0.1007 -0.0638
C69 C 0.80707(16) -0.07115(14) -0.15995(13)
H45 H 0.8017 -0.1247 -0.1902
C70 C 0.76908(15) -0.00762(14) -0.18969(12)
H46 H 0.7361 -0.0184 -0.2399
C71 C 0.77881(13) 0.07519(13) -0.14545(11)
C72 C 0.74576(15) 0.14394(14) -0.17646(12)
H47 H 0.7121 0.1343 -0.2264
C73 C 0.76206(15) 0.22376(14) -0.13502(12)
H48 H 0.7404 0.2684 -0.1569
C74 C 0.81150(13) 0.23975(12) -0.05897(11)
O3 O 0.44501(16) 0.51042(15) 0.06882(12)
H49 H 0.4528 0.5372 0.0319
C75 C 0.5119(2) 0.5566(2) 0.13502(18)
H50 H 0.4910 0.5260 0.1786
C76 C 0.4860(2) 0.64353(19) 0.1565(2)
H51 H 0.5269 0.6714 0.2036
H52 H 0.4113 0.6388 0.1645
H53 H 0.5031 0.6766 0.1152
C77 C 0.6239(2) 0.5551(3) 0.1299(2)
H54 H 0.6470 0.5756 0.0829
H55 H 0.6361 0.4975 0.1291
H56 H 0.6633 0.5914 0.1742
O4 O 0.26072(12) 0.93307(10) 0.40150(11)
H57 H 0.3129 0.9697 0.3977
C78 C 0.16724(19) 0.97095(18) 0.40323(17)
H58 H 0.1721 1.0120 0.3661
C79 C 0.1602(3) 1.0179(2) 0.4839(2)
H59 H 0.1572 0.9783 0.5208
H60 H 0.0970 1.0431 0.4852
H61 H 0.2218 1.0621 0.4972
C80 C 0.0747(2) 0.9000(2) 0.3770(2)
H62 H 0.0869 0.8700 0.3272
H63 H 0.0107 0.9236 0.3725
H64 H 0.0672 0.8610 0.4144
O5 O 1.0006(2) 0.46118(17) 0.07022(18)
H65 H 1.0078 0.4839 0.0308
C81 C 0.9224(3) 0.4989(2) 0.1180(2)
H66 H 0.8556 0.4969 0.0871
C82 C 0.9731(4) 0.5909(3) 0.1511(3)
H67 H 0.9272 0.6150 0.1871
H68 H 0.9833 0.6242 0.1093
H69 H 1.0409 0.5914 0.1777
C83 C 0.9051(4) 0.4464(3) 0.1815(3)
H70 H 0.8829 0.3872 0.1595
H71 H 0.8508 0.4650 0.2130
H72 H 0.9704 0.4530 0.2133
O7 O 0.4504(2) 1.0313(2) 0.3852(3)
H81 H 0.4566 1.0829 0.3841
C87 C 0.5571(3) 1.0079(3) 0.3908(3)
H82 H 0.5931 1.0229 0.4432
C88 C 0.6147(4) 1.0530(3) 0.3300(3)
H83 H 0.5687 1.0450 0.2833
H84 H 0.6779 1.0297 0.3187
H85 H 0.6342 1.1132 0.3494
C89 C 0.5261(4) 0.9111(3) 0.3634(3)
H86 H 0.4771 0.9008 0.3181
H87 H 0.4930 0.8840 0.4043
H88 H 0.5890 0.8879 0.3506
O9 O 0.76575(15) 0.45937(13) 0.91901(12)
H97 H 0.752(2) 0.477(2) 0.9628(15)
H98 H 0.829(2) 0.4978(18) 0.919(2)
O6? O 0.9898(5) 0.4572(4) 0.0673(3)
H73? H 0.9320 0.4417 0.0423
C84? C 0.9736(5) 0.4978(4) 0.1451(4)
H74? H 1.0337 0.5013 0.1833
C85? C 0.9503(9) 0.5853(5) 0.1303(5)
H75? H 0.8960 0.5772 0.0885
H76? H 1.0142 0.6193 0.1163
H77? H 0.9262 0.6141 0.1767
C86? C 0.8699(6) 0.4506(5) 0.1672(5)
H78? H 0.8755 0.3918 0.1688
H79? H 0.8139 0.4531 0.1293
H80? H 0.8541 0.4766 0.2177
O8? O 0.4651(6) 1.0320(5) 0.4122(4)
H89? H 0.5034 1.0753 0.4356
C90? C 0.5231(5) 0.9928(4) 0.3477(5)
H90? H 0.4818 0.9812 0.2972
C91? C 0.6297(7) 1.0499(7) 0.3463(6)
H91? H 0.6192 1.1075 0.3443
H92? H 0.6645 1.0299 0.3011
H93? H 0.6731 1.0486 0.3926
C92? C 0.5439(8) 0.9108(5) 0.3777(7)
H94? H 0.6060 0.9242 0.4135
H95? H 0.5552 0.8695 0.3345
H96? H 0.4833 0.8874 0.4038
loop_
_geom_bond_atom_site_label_1
_geom_bond_atom_site_label_2
_geom_bond_site_symmetry_1
_geom_bond_site_symmetry_2
O1 H1 1_555 1_555
C1 C2 1_555 1_555
C2 C3 1_555 1_555
C3 H2 1_555 1_555
C4 C3 1_555 1_555
H3 C4 1_555 1_555
C5 C4 1_555 1_555
H4 C5 1_555 1_555
C6 C5 1_555 1_555
H5 C6 1_555 1_555
C7 C2 1_555 1_555
C8 C7 1_555 1_555
H6 C8 1_555 1_555
C9 C8 1_555 1_555
C10 C9 1_555 1_555
H7 C10 1_555 1_555
H8 C10 1_555 1_555
C11 C10 1_555 1_555
C12 C11 1_555 1_555
H9 C12 1_555 1_555
C13 C12 1_555 1_555
H10 C13 1_555 1_555
C14 C13 1_555 1_555
H11 C14 1_555 1_555
C15 C14 1_555 1_555
H12 C15 1_555 1_555
C16 C11 1_555 1_555
C17 C1 1_555 1_555
C18 C1 1_555 1_555
C19 C18 1_555 1_555
H13 C19 1_555 1_555
C20 C19 1_555 1_555
H14 C20 1_555 1_555
C21 C20 1_555 1_555
C22 C21 1_555 1_555
H15 C22 1_555 1_555
C23 C22 1_555 1_555
H16 C23 1_555 1_555
C24 C23 1_555 1_555
H17 C24 1_555 1_555
C25 C24 1_555 1_555
H18 C25 1_555 1_555
C26 C21 1_555 1_555
C27 C18 1_555 1_555
C28 C27 1_555 1_555
C29 C28 1_555 1_555
C30 C29 1_555 1_555
H19 C30 1_555 1_555
C31 C30 1_555 1_555
H20 C31 1_555 1_555
C32 C31 1_555 1_555
H21 C32 1_555 1_555
C33 C32 1_555 1_555
H22 C33 1_555 1_555
C34 C29 1_555 1_555
C35 C34 1_555 1_555
H23 C35 1_555 1_555
C36 C35 1_555 1_555
H24 C36 1_555 1_555
C37 O1 1_555 1_555
O2 H25 1_555 1_555
C38 C39 1_555 1_555
C39 C40 1_555 1_555
C40 H26 1_555 1_555
C41 C40 1_555 1_555
H27 C41 1_555 1_555
C42 C41 1_555 1_555
H28 C42 1_555 1_555
C43 C42 1_555 1_555
H29 C43 1_555 1_555
C44 C39 1_555 1_555
C45 C44 1_555 1_555
H30 C45 1_555 1_555
C46 C45 1_555 1_555
C47 C46 1_555 1_555
H31 C47 1_555 1_555
H32 C47 1_555 1_555
C48 C47 1_555 1_555
C49 C48 1_555 1_555
H33 C49 1_555 1_555
C50 C49 1_555 1_555
H34 C50 1_555 1_555
C51 C50 1_555 1_555
H35 C51 1_555 1_555
C52 C51 1_555 1_555
H36 C52 1_555 1_555
C53 C48 1_555 1_555
C54 C38 1_555 1_555
C55 C38 1_555 1_555
C56 C55 1_555 1_555
H37 C56 1_555 1_555
C57 C56 1_555 1_555
H38 C57 1_555 1_555
C58 C57 1_555 1_555
C59 C58 1_555 1_555
H39 C59 1_555 1_555
C60 C59 1_555 1_555
H40 C60 1_555 1_555
C61 C60 1_555 1_555
H41 C61 1_555 1_555
C62 C61 1_555 1_555
H42 C62 1_555 1_555
C63 C58 1_555 1_555
C64 C55 1_555 1_555
C65 C64 1_555 1_555
C66 C65 1_555 1_555
C67 C66 1_555 1_555
H43 C67 1_555 1_555
C68 C67 1_555 1_555
H44 C68 1_555 1_555
C69 C68 1_555 1_555
H45 C69 1_555 1_555
C70 C69 1_555 1_555
H46 C70 1_555 1_555
C71 C66 1_555 1_555
C72 C71 1_555 1_555
H47 C72 1_555 1_555
C73 C72 1_555 1_555
H48 C73 1_555 1_555
C74 O2 1_555 1_555
O3 H49 1_555 1_555
C75 O3 1_555 1_555
H50 C75 1_555 1_555
C76 C75 1_555 1_555
H51 C76 1_555 1_555
H52 C76 1_555 1_555
H53 C76 1_555 1_555
C77 C75 1_555 1_555
H54 C77 1_555 1_555
H55 C77 1_555 1_555
H56 C77 1_555 1_555
O4 H57 1_555 1_555
C78 O4 1_555 1_555
H58 C78 1_555 1_555
C79 C78 1_555 1_555
H59 C79 1_555 1_555
H60 C79 1_555 1_555
H61 C79 1_555 1_555
C80 C78 1_555 1_555
H62 C80 1_555 1_555
H63 C80 1_555 1_555
H64 C80 1_555 1_555
O5 H65 1_555 1_555
C81 O5 1_555 1_555
H66 C81 1_555 1_555
C82 C81 1_555 1_555
H67 C82 1_555 1_555
H68 C82 1_555 1_555
H69 C82 1_555 1_555
C83 C81 1_555 1_555
H70 C83 1_555 1_555
H71 C83 1_555 1_555
H72 C83 1_555 1_555
O7 H81 1_555 1_555
C87 O7 1_555 1_555
H82 C87 1_555 1_555
C88 C87 1_555 1_555
H83 C88 1_555 1_555
H84 C88 1_555 1_555
H85 C88 1_555 1_555
C89 C87 1_555 1_555
H86 C89 1_555 1_555
H87 C89 1_555 1_555
H88 C89 1_555 1_555
O9 H97 1_555 1_555
H98 O9 1_555 1_555
C6 C7 1_555 1_555
C9 C17 1_555 1_555
C15 C16 1_555 1_555
C16 C17 1_555 1_555
C25 C26 1_555 1_555
C26 C27 1_555 1_555
C28 C37 1_555 1_555
C33 C34 1_555 1_555
C36 C37 1_555 1_555
C43 C44 1_555 1_555
C46 C54 1_555 1_555
C52 C53 1_555 1_555
C53 C54 1_555 1_555
C62 C63 1_555 1_555
C63 C64 1_555 1_555
C65 C74 1_555 1_555
C70 C71 1_555 1_555
C73 C74 1_555 1_555

#END
