
#######################################################################
#
#                 Cambridge Crystallographic Data Centre
#                                CCDC 
#
#######################################################################
#
# If this CIF has been generated from an entry in the Cambridge 
# Structural Database, then it will include bibliographic, chemical, 
# crystal, experimental, refinement or atomic coordinate data resulting 
# from the CCDC's data processing and validation procedures.
#
#######################################################################

data_VEKPOR
_chemical_formula_moiety         'C8 H10 N6 O1,C2 H6 O1 S1'
_chemical_name_systematic        
'7-Allyl-6-amino-3-methyl-1,2,4-triazolo(3,4-f)(1,2,4)triazin-8(7H)-one dimethylsulfoxide solvate'
_symmetry_cell_setting           monoclinic
_symmetry_space_group_name_H-M   'P 21/n'
_symmetry_Int_Tables_number      14
_space_group_name_Hall           '-P 2yn'
loop_
_symmetry_equiv_pos_site_id
_symmetry_equiv_pos_as_xyz
1 x,y,z
2 1/2-x,1/2+y,1/2-z
3 -x,-y,-z
4 1/2+x,1/2-y,1/2+z
_cell_length_a                   10.4850(6)
_cell_length_b                   8.4409(5)
_cell_length_c                   15.5152(9)
_cell_angle_alpha                90
_cell_angle_beta                 95.9630(10)
_cell_angle_gamma                90
_cell_volume                     1365.71
_exptl_crystal_colour            colorless
_exptl_crystal_description       block
_chemical_melting_point          260-261deg.C
_cell_formula_units_Z            4
loop_
_atom_site_label
_atom_site_type_symbol
_atom_site_fract_x
_atom_site_fract_y
_atom_site_fract_z
O1 O 0.75103(15) 0.91007(19) 0.06831(12)
N1 N 0.92427(19) 1.1909(2) 0.09376(13)
N2 N 1.0397(2) 1.2666(2) 0.11268(13)
N3 N 1.07768(17) 1.01413(19) 0.11883(11)
N4 N 1.14099(17) 0.87143(19) 0.12843(12)
N5 N 0.93154(16) 0.75918(18) 0.09596(11)
N6 N 1.11757(19) 0.6060(2) 0.12059(14)
H1 H 1.1992 0.5960 0.1322
H2 H 1.0700 0.5233 0.1124
C1 C 1.1313(2) 1.1599(2) 0.12775(14)
C2 C 0.9506(2) 1.0385(2) 0.09808(13)
C3 C 0.8664(2) 0.9026(2) 0.08579(14)
C4 C 1.0649(2) 0.7493(2) 0.11544(14)
C5 C 0.8527(2) 0.6149(2) 0.08956(16)
H3 H 0.9001 0.5307 0.0646
H4 H 0.7756 0.6345 0.0509
C6 C 0.8162(2) 0.5624(3) 0.1748(2)
H5 H 0.7777 0.4633 0.1766
C7 C 0.8323(3) 0.6405(4) 0.2471(2)
H6 H 0.8702 0.7402 0.2487
H7 H 0.8058 0.5969 0.2973
C8 C 1.2697(3) 1.1875(3) 0.15076(19)
H8 H 1.2861 1.2994 0.1534
H9 H 1.3171 1.1404 0.1076
H10 H 1.2958 1.1407 0.2062
S1 S 1.48347(6) 0.64679(8) 0.08757(5)
O2 O 1.3820(2) 0.5384(2) 0.1119(2)
C9 C 1.4923(4) 0.8029(5) 0.1642(2)
H11 H 1.5292 0.7641 0.2194
H12 H 1.4076 0.8426 0.1695
H13 H 1.5447 0.8866 0.1452
C10 C 1.4159(4) 0.7574(4) -0.0019(2)
H14 H 1.4002 0.6891 -0.0513
H15 H 1.4741 0.8400 -0.0145
H16 H 1.3365 0.8034 0.0113
loop_
_geom_bond_atom_site_label_1
_geom_bond_atom_site_label_2
_geom_bond_site_symmetry_1
_geom_bond_site_symmetry_2
O1 C3 1_555 1_555
N1 N2 1_555 1_555
N2 C1 1_555 1_555
N3 N4 1_555 1_555
N4 C4 1_555 1_555
N5 C3 1_555 1_555
N6 H1 1_555 1_555
H2 N6 1_555 1_555
C1 N3 1_555 1_555
C2 N1 1_555 1_555
C3 C2 1_555 1_555
C4 N5 1_555 1_555
C5 N5 1_555 1_555
H3 C5 1_555 1_555
H4 C5 1_555 1_555
C6 C5 1_555 1_555
H5 C6 1_555 1_555
C7 C6 1_555 1_555
H6 C7 1_555 1_555
H7 C7 1_555 1_555
C8 C1 1_555 1_555
H8 C8 1_555 1_555
H9 C8 1_555 1_555
H10 C8 1_555 1_555
S1 O2 1_555 1_555
C9 S1 1_555 1_555
H11 C9 1_555 1_555
H12 C9 1_555 1_555
H13 C9 1_555 1_555
C10 S1 1_555 1_555
H14 C10 1_555 1_555
H15 C10 1_555 1_555
H16 C10 1_555 1_555
N3 C2 1_555 1_555
N6 C4 1_555 1_555

#END
