
#######################################################################
#
#                 Cambridge Crystallographic Data Centre
#                                CCDC 
#
#######################################################################
#
# If this CIF has been generated from an entry in the Cambridge 
# Structural Database, then it will include bibliographic, chemical, 
# crystal, experimental, refinement or atomic coordinate data resulting 
# from the CCDC's data processing and validation procedures.
#
#######################################################################

data_VEKSOT04
_chemical_formula_moiety         'C19 H17 N3'
_chemical_name_systematic        1,2,3-triphenylguanidine
_symmetry_cell_setting           orthorhombic
_symmetry_space_group_name_H-M   'P n a 21'
_symmetry_Int_Tables_number      33
_space_group_name_Hall           'P 2c -2n'
loop_
_symmetry_equiv_pos_site_id
_symmetry_equiv_pos_as_xyz
1 x,y,z
2 -x,-y,1/2+z
3 1/2-x,1/2+y,1/2+z
4 1/2+x,1/2-y,z
_cell_length_a                   9.185(3)
_cell_length_b                   10.853(3)
_cell_length_c                   16.403(5)
_cell_angle_alpha                90
_cell_angle_beta                 90
_cell_angle_gamma                90
_cell_volume                     1635.13
_exptl_crystal_colour            colorless
_exptl_crystal_description       rectangular
_cell_formula_units_Z            4
loop_
_atom_site_label
_atom_site_type_symbol
_atom_site_fract_x
_atom_site_fract_y
_atom_site_fract_z
C1 C -0.0487(2) 0.7824(2) 0.02467(15)
C2 C 0.0386(3) 0.6268(3) 0.12331(18)
C3 C 0.0591(5) 0.5020(4) 0.1259(2)
C4 C 0.1571(7) 0.4520(6) 0.1803(4)
C5 C 0.2349(5) 0.5264(7) 0.2311(3)
C6 C 0.2134(5) 0.6504(7) 0.2292(3)
C7 C 0.1144(4) 0.7021(4) 0.1765(2)
C8 C -0.1866(3) 0.8729(2) -0.08945(17)
C9 C -0.0855(4) 0.8519(4) -0.1497(2)
C10 C -0.1087(5) 0.8987(5) -0.2267(2)
C11 C -0.2319(6) 0.9667(6) -0.2444(3)
C12 C -0.3311(6) 0.9860(5) -0.1842(3)
C13 C -0.3107(4) 0.9404(3) -0.1073(3)
C14 C 0.0910(3) 0.9618(2) 0.00287(16)
C15 C 0.2075(3) 1.0002(3) -0.04517(19)
C16 C 0.2333(5) 1.1257(4) -0.0538(3)
C17 C 0.1469(6) 1.2107(4) -0.0175(3)
C18 C 0.0307(5) 1.1728(3) 0.0285(3)
C19 C 0.0034(4) 1.0501(3) 0.0391(2)
H1 H -0.138(5) 0.628(4) 0.055(3)
H2 H -0.249(4) 0.784(3) 0.002(2)
H3 H 0.011(5) 0.458(4) 0.096(3)
H4 H 0.165(7) 0.363(6) 0.174(4)
H5 H 0.295(7) 0.498(5) 0.273(4)
H6 H 0.276(6) 0.696(5) 0.257(4)
H7 H 0.112(5) 0.787(4) 0.173(3)
H8 H 0.004(4) 0.811(3) -0.140(2)
H9 H -0.043(5) 0.887(5) -0.266(4)
H10 H -0.243(6) 0.995(6) -0.295(4)
H11 H -0.411(7) 1.030(7) -0.191(5)
H12 H -0.381(5) 0.956(4) -0.060(3)
H13 H 0.268(4) 0.934(3) -0.072(2)
H14 H 0.309(4) 1.132(4) -0.086(3)
H15 H 0.163(5) 1.294(5) -0.022(3)
H16 H -0.034(5) 1.232(5) 0.061(3)
H17 H -0.081(4) 1.024(3) 0.074(3)
N1 N -0.0631(2) 0.6758(2) 0.06877(16)
N2 N -0.1747(2) 0.8196(2) -0.01160(14)
N3 N 0.07621(19) 0.83526(18) 0.02037(14)
loop_
_geom_bond_atom_site_label_1
_geom_bond_atom_site_label_2
_geom_bond_site_symmetry_1
_geom_bond_site_symmetry_2
C1 N1 1_555 1_555
C2 C3 1_555 1_555
C3 C4 1_555 1_555
C4 C5 1_555 1_555
C5 C6 1_555 1_555
C6 C7 1_555 1_555
C7 C2 1_555 1_555
C8 C9 1_555 1_555
C9 C10 1_555 1_555
C10 C11 1_555 1_555
C11 C12 1_555 1_555
C12 C13 1_555 1_555
C13 C8 1_555 1_555
C14 C15 1_555 1_555
C15 C16 1_555 1_555
C16 C17 1_555 1_555
C17 C18 1_555 1_555
C18 C19 1_555 1_555
C19 C14 1_555 1_555
H1 N1 1_555 1_555
H2 N2 1_555 1_555
H3 C3 1_555 1_555
H4 C4 1_555 1_555
H5 C5 1_555 1_555
H6 C6 1_555 1_555
H7 C7 1_555 1_555
H8 C9 1_555 1_555
H9 C10 1_555 1_555
H10 C11 1_555 1_555
H11 C12 1_555 1_555
H12 C13 1_555 1_555
H13 C15 1_555 1_555
H14 C16 1_555 1_555
H15 C17 1_555 1_555
H16 C18 1_555 1_555
H17 C19 1_555 1_555
N1 C2 1_555 1_555
N2 C1 1_555 1_555
N3 C1 1_555 1_555
C8 N2 1_555 1_555
C14 N3 1_555 1_555

#END
