
#######################################################################
#
#                 Cambridge Crystallographic Data Centre
#                                CCDC 
#
#######################################################################
#
# If this CIF has been generated from an entry in the Cambridge 
# Structural Database, then it will include bibliographic, chemical, 
# crystal, experimental, refinement or atomic coordinate data resulting 
# from the CCDC's data processing and validation procedures.
#
#######################################################################

data_VEKTUC
_chemical_formula_moiety         'C34 H29 N3 O3'
_chemical_name_systematic        
(6-(Biphenyl-4-yl)-2,4-dihydroxy-2,4-bis(pyridin-2-yl)cyclohexyl)(pyridin-2-yl)methanone
_symmetry_cell_setting           monoclinic
_symmetry_space_group_name_H-M   'C 2/c'
_symmetry_Int_Tables_number      15
_space_group_name_Hall           '-C 2yn'
loop_
_symmetry_equiv_pos_site_id
_symmetry_equiv_pos_as_xyz
1 x,y,z
2 -x,y,1/2-z
3 1/2+x,1/2+y,z
4 1/2-x,1/2+y,1/2-z
5 -x,-y,-z
6 x,-y,1/2+z
7 1/2-x,1/2-y,-z
8 1/2+x,1/2-y,1/2+z
_cell_length_a                   19.4402(11)
_cell_length_b                   10.4392(7)
_cell_length_c                   27.0384(18)
_cell_angle_alpha                90
_cell_angle_beta                 104.148(3)
_cell_angle_gamma                90
_cell_volume                     5320.74
_exptl_crystal_colour            colorless
_cell_formula_units_Z            8
loop_
_atom_site_label
_atom_site_type_symbol
_atom_site_fract_x
_atom_site_fract_y
_atom_site_fract_z
O1 O 0.24458(9) -0.09362(18) 0.21597(7)
O2 O 0.10637(9) -0.02449(17) 0.24320(6)
H1 H 0.1188 -0.0864 0.2632
O3 O 0.04096(9) 0.20763(19) 0.21187(7)
H2 H 0.0560 0.1529 0.2348
N1 N -0.07430(10) 0.1610(2) 0.08638(8)
N2 N 0.16651(11) -0.2628(2) 0.10454(8)
N3 N 0.09507(11) -0.2682(2) 0.24151(8)
C1 C -0.17225(13) 0.3063(3) 0.07581(11)
H3 H -0.2149 0.3394 0.0547
C2 C -0.13508(13) 0.2114(3) 0.05854(10)
H4 H -0.1534 0.1796 0.0250
C3 C -0.04941(12) 0.2062(2) 0.13405(9)
C4 C 0.02028(12) 0.1451(2) 0.16346(9)
C5 C 0.07812(11) 0.1701(2) 0.13486(9)
H5 H 0.0880 0.2632 0.1352
H6 H 0.0605 0.1432 0.0989
C6 C 0.14753(11) 0.0979(2) 0.15865(9)
H7 H 0.1651 0.1275 0.1947
C7 C 0.20401(11) 0.1279(2) 0.13039(9)
C8 C 0.26446(11) 0.1954(2) 0.15445(9)
H8 H 0.2703 0.2212 0.1889
C9 C 0.31652(12) 0.2259(2) 0.12935(9)
H9 H 0.3572 0.2727 0.1467
C10 C 0.30953(12) 0.1884(2) 0.07875(9)
C11 C 0.36581(12) 0.2213(2) 0.05205(9)
C12 C 0.39390(12) 0.3448(2) 0.05508(9)
H10 H 0.3756 0.4087 0.0733
C13 C 0.44866(12) 0.3767(3) 0.03176(9)
H11 H 0.4674 0.4612 0.0341
C14 C 0.47482(13) 0.2821(3) 0.00518(10)
H12 H 0.5128 0.3012 -0.0100
C15 C 0.13165(11) -0.0460(2) 0.15946(9)
H13 H 0.1092 -0.0739 0.1238
C16 C 0.19788(12) -0.1264(2) 0.17938(9)
C17 C 0.20283(12) -0.2521(2) 0.15355(9)
C18 C 0.16985(14) -0.3754(3) 0.08155(10)
H14 H 0.1453 -0.3844 0.0467
C19 C 0.20766(15) -0.4799(3) 0.10630(12)
H15 H 0.2080 -0.5588 0.0889
C20 C 0.24443(18) -0.4668(3) 0.15630(12)
H16 H 0.2707 -0.5367 0.1740
C21 C 0.24268(15) -0.3510(3) 0.18039(11)
H17 H 0.2683 -0.3392 0.2148
C22 C 0.07793(12) -0.0716(2) 0.19282(9)
C23 C 0.06563(12) -0.2166(2) 0.19594(9)
C24 C 0.03206(13) -0.2893(2) 0.15416(10)
H18 H 0.0110 -0.2500 0.1224
C25 C 0.02994(14) -0.4210(3) 0.15990(11)
H19 H 0.0073 -0.4735 0.1320
C26 C 0.06108(14) -0.4754(3) 0.20657(11)
H20 H 0.0610 -0.5656 0.2112
C27 C 0.09236(15) -0.3949(3) 0.24624(11)
H21 H 0.1130 -0.4319 0.2786
C28 C 0.00911(12) 0.0011(2) 0.16965(9)
H22 H -0.0242 -0.0112 0.1917
H23 H -0.0131 -0.0360 0.1358
C29 C 0.24902(12) 0.1203(2) 0.05446(9)
H24 H 0.2431 0.0944 0.0200
C30 C 0.19721(12) 0.0898(2) 0.07996(9)
H25 H 0.1566 0.0425 0.0628
C31 C 0.44573(13) 0.1589(3) 0.00055(10)
H26 H 0.4627 0.0956 -0.0188
C32 C 0.39237(13) 0.1296(3) 0.02403(10)
H27 H 0.3733 0.0454 0.0211
C33 C -0.08405(13) 0.3008(2) 0.15440(10)
H28 H -0.0656 0.3300 0.1883
C34 C -0.14617(13) 0.3522(3) 0.12451(11)
H29 H -0.1704 0.4184 0.1375
loop_
_geom_bond_atom_site_label_1
_geom_bond_atom_site_label_2
_geom_bond_site_symmetry_1
_geom_bond_site_symmetry_2
O1 C16 1_555 1_555
O2 H1 1_555 1_555
O3 H2 1_555 1_555
N1 C2 1_555 1_555
N2 C17 1_555 1_555
N3 C23 1_555 1_555
C1 H3 1_555 1_555
C2 C1 1_555 1_555
H4 C2 1_555 1_555
C3 N1 1_555 1_555
C4 O3 1_555 1_555
C5 C4 1_555 1_555
H5 C5 1_555 1_555
H6 C5 1_555 1_555
C6 C5 1_555 1_555
H7 C6 1_555 1_555
C7 C6 1_555 1_555
C8 C7 1_555 1_555
H8 C8 1_555 1_555
C9 C8 1_555 1_555
H9 C9 1_555 1_555
C10 C9 1_555 1_555
C11 C10 1_555 1_555
C12 C11 1_555 1_555
H10 C12 1_555 1_555
C13 C12 1_555 1_555
H11 C13 1_555 1_555
C14 C13 1_555 1_555
H12 C14 1_555 1_555
C15 C6 1_555 1_555
H13 C15 1_555 1_555
C16 C15 1_555 1_555
C17 C16 1_555 1_555
C18 N2 1_555 1_555
H14 C18 1_555 1_555
C19 C18 1_555 1_555
H15 C19 1_555 1_555
C20 C19 1_555 1_555
H16 C20 1_555 1_555
C21 C17 1_555 1_555
H17 C21 1_555 1_555
C22 O2 1_555 1_555
C23 C22 1_555 1_555
C24 C23 1_555 1_555
H18 C24 1_555 1_555
C25 C24 1_555 1_555
H19 C25 1_555 1_555
C26 C25 1_555 1_555
H20 C26 1_555 1_555
C27 N3 1_555 1_555
H21 C27 1_555 1_555
C28 C4 1_555 1_555
H22 C28 1_555 1_555
H23 C28 1_555 1_555
C29 C10 1_555 1_555
H24 C29 1_555 1_555
C30 C7 1_555 1_555
H25 C30 1_555 1_555
C31 C14 1_555 1_555
H26 C31 1_555 1_555
C32 C11 1_555 1_555
H27 C32 1_555 1_555
C33 C3 1_555 1_555
H28 C33 1_555 1_555
C34 C1 1_555 1_555
H29 C34 1_555 1_555
C3 C4 1_555 1_555
C15 C22 1_555 1_555
C20 C21 1_555 1_555
C22 C28 1_555 1_555
C26 C27 1_555 1_555
C29 C30 1_555 1_555
C31 C32 1_555 1_555
C33 C34 1_555 1_555

#END
