
#######################################################################
#
#                 Cambridge Crystallographic Data Centre
#                                CCDC 
#
#######################################################################
#
# If this CIF has been generated from an entry in the Cambridge 
# Structural Database, then it will include bibliographic, chemical, 
# crystal, experimental, refinement or atomic coordinate data resulting 
# from the CCDC's data processing and validation procedures.
#
#######################################################################

data_VEKYUF
_chemical_formula_moiety         'C16 H13 N1 O1'
_chemical_name_systematic        3-(4-Methylbenzylidene)isoindol-1-one
_symmetry_cell_setting           triclinic
_symmetry_space_group_name_H-M   'P -1'
_symmetry_Int_Tables_number      2
_space_group_name_Hall           '-P 1'
loop_
_symmetry_equiv_pos_site_id
_symmetry_equiv_pos_as_xyz
1 x,y,z
2 -x,-y,-z
_cell_length_a                   7.711(2)
_cell_length_b                   8.866(2)
_cell_length_c                   9.189(3)
_cell_angle_alpha                95.93(2)
_cell_angle_beta                 92.75(3)
_cell_angle_gamma                98.96(2)
_cell_volume                     615.912
_exptl_crystal_colour            colorless
_exptl_crystal_description       prism
_chemical_melting_point          '209 deg.C'
_cell_formula_units_Z            2
loop_
_atom_site_label
_atom_site_type_symbol
_atom_site_fract_x
_atom_site_fract_y
_atom_site_fract_z
O1 O 0.0600(4) 0.6624(3) 0.4056(3)
N1 N -0.1241(4) 0.4375(3) 0.3125(3)
C1 C -0.0405(5) 0.5838(4) 0.3084(4)
C2 C -0.0967(5) 0.6300(4) 0.1642(4)
C3 C -0.0469(5) 0.7645(4) 0.1037(4)
C4 C -0.1182(6) 0.7755(5) -0.0363(5)
C5 C -0.2350(5) 0.6534(5) -0.1097(4)
C6 C -0.2857(5) 0.5183(4) -0.0496(4)
C7 C -0.2124(4) 0.5074(4) 0.0915(4)
C8 C -0.2353(4) 0.3808(4) 0.1838(4)
C9 C -0.3354(5) 0.2433(4) 0.1515(4)
C10 C -0.3584(5) 0.1089(4) 0.2316(4)
C11 C -0.2267(6) 0.0737(4) 0.3280(4)
C12 C -0.2554(5) -0.0579(5) 0.3981(4)
C13 C -0.4121(5) -0.1592(4) 0.3780(4)
C14 C -0.5432(5) -0.1247(4) 0.2825(4)
C15 C -0.5147(5) 0.0050(4) 0.2103(4)
C16 C -0.4452(6) -0.3028(5) 0.4519(4)
H1 H -0.1274 0.3744 0.4028
H2 H 0.0334 0.8473 0.1558
H3 H -0.0860 0.8676 -0.0811
H4 H -0.2815 0.6646 -0.2047
H5 H -0.3665 0.4365 -0.1015
H6 H -0.4037 0.2302 0.0609
H7 H -0.1173 0.1408 0.3450
H8 H -0.1641 -0.0791 0.4624
H9 H -0.6532 -0.1907 0.2675
H10 H -0.6048 0.0240 0.1436
H11 H -0.3298 -0.3307 0.5005
H12 H -0.4665 -0.4059 0.3783
H13 H -0.5058 -0.2903 0.5478
loop_
_geom_bond_atom_site_label_1
_geom_bond_atom_site_label_2
_geom_bond_site_symmetry_1
_geom_bond_site_symmetry_2
O1 C1 1_555 1_555
N1 C1 1_555 1_555
C1 C2 1_555 1_555
C2 C3 1_555 1_555
C3 C4 1_555 1_555
C4 C5 1_555 1_555
C5 C6 1_555 1_555
C6 C7 1_555 1_555
C7 C2 1_555 1_555
C8 N1 1_555 1_555
C9 C8 1_555 1_555
C10 C9 1_555 1_555
C11 C10 1_555 1_555
C12 C11 1_555 1_555
C13 C12 1_555 1_555
C14 C13 1_555 1_555
C15 C10 1_555 1_555
C16 C13 1_555 1_555
H1 N1 1_555 1_555
H2 C3 1_555 1_555
H3 C4 1_555 1_555
H4 C5 1_555 1_555
H5 C6 1_555 1_555
H6 C9 1_555 1_555
H7 C11 1_555 1_555
H8 C12 1_555 1_555
H9 C14 1_555 1_555
H10 C15 1_555 1_555
H11 C16 1_555 1_555
H12 C16 1_555 1_555
H13 C16 1_555 1_555
C7 C8 1_555 1_555
C14 C15 1_555 1_555

#END
