
#######################################################################
#
#                 Cambridge Crystallographic Data Centre
#                                CCDC 
#
#######################################################################
#
# If this CIF has been generated from an entry in the Cambridge 
# Structural Database, then it will include bibliographic, chemical, 
# crystal, experimental, refinement or atomic coordinate data resulting 
# from the CCDC's data processing and validation procedures.
#
#######################################################################

data_VEKZIV
_chemical_formula_moiety         'C35 H26 O20 S5 4-,2(C12 H14 N2 2+),5.5(H2 O1)'
_chemical_name_systematic        
'bis(Ethane-1,2-bis(pyridinium)) hydrogen 5,11,17,23,29-pentasulfonato-31,32,33,34,35-pentahydroxycalix(5)arene clathrate hydrate'
_symmetry_cell_setting           triclinic
_symmetry_space_group_name_H-M   'P -1'
_symmetry_Int_Tables_number      2
_space_group_name_Hall           '-P 1'
loop_
_symmetry_equiv_pos_site_id
_symmetry_equiv_pos_as_xyz
1 x,y,z
2 -x,-y,-z
_cell_length_a                   11.9113(14)
_cell_length_b                   16.1145(19)
_cell_length_c                   19.514(2)
_cell_angle_alpha                94.990(2)
_cell_angle_beta                 91.308(2)
_cell_angle_gamma                105.576(2)
_cell_volume                     3590.21
_cell_formula_units_Z            2
loop_
_atom_site_label
_atom_site_type_symbol
_atom_site_fract_x
_atom_site_fract_y
_atom_site_fract_z
S1 S -0.0262(2) 0.26108(14) 0.45878(13)
S2 S 0.5164(2) 0.38877(16) 0.31431(12)
S3 S 0.96603(18) 0.91691(15) 0.25521(12)
S4 S 0.50796(14) 0.71084(12) 0.02086(8)
S5 S -0.08108(16) 0.37921(12) 0.09571(9)
O1 O 0.1754(4) 0.6228(3) 0.4053(2)
H1 H 0.1403 0.6366 0.3734
O2 O -0.1446(8) 0.2363(5) 0.4386(6)
O3 O 0.0411(12) 0.2149(5) 0.4178(7)
O4 O -0.0055(6) 0.2560(4) 0.5306(4)
O5 O 0.5053(6) 0.6994(4) 0.4904(3)
H2 H 0.4588 0.6879 0.5208
O6 O 0.4429(17) 0.3240(6) 0.3331(9)
O7 O 0.6337(8) 0.3865(7) 0.3139(6)
O8 O 0.4975(13) 0.4042(6) 0.2469(5)
O9 O 0.5014(4) 0.7623(4) 0.3567(3)
H3 H 0.5007 0.7782 0.3978
O10 O 1.0427(7) 0.8737(7) 0.2784(7)
O11 O 0.9929(8) 1.0005(6) 0.2798(8)
O12 O 0.9587(9) 0.9042(10) 0.1860(5)
O13 O 0.2641(4) 0.8146(3) 0.2593(2)
H4 H 0.2783 0.8675 0.2650
O14 O 0.4948(9) 0.6209(5) 0.0230(4)
O15 O 0.6242(5) 0.7579(6) 0.0291(4)
O16 O 0.4539(7) 0.7295(7) -0.0379(3)
O17 O 0.0771(5) 0.6896(3) 0.2951(2)
H5 H 0.1325 0.7252 0.2811
O18 O 0.0153(7) 0.3397(5) 0.0916(4)
O19 O -0.1069(7) 0.4064(4) 0.0328(3)
O20 O -0.1797(7) 0.3239(5) 0.1229(4)
C1 C 0.1234(5) 0.5399(4) 0.4165(3)
C2 C 0.0122(6) 0.4947(4) 0.3885(3)
C3 C -0.0335(6) 0.4102(5) 0.4016(3)
H6 H -0.1070 0.3793 0.3831
C4 C 0.0303(6) 0.3704(4) 0.4429(3)
C5 C 0.1392(6) 0.4159(4) 0.4707(3)
H7 H 0.1812 0.3887 0.4976
C6 C 0.1864(6) 0.5005(4) 0.4594(3)
C7 C 0.3039(6) 0.5512(4) 0.4916(3)
H8 H 0.3163 0.5273 0.5342
H9 H 0.3017 0.6104 0.5035
C8 C 0.4074(6) 0.5524(4) 0.4476(3)
C9 C 0.4133(6) 0.4794(5) 0.4067(3)
H10 H 0.3532 0.4288 0.4067
C10 C 0.5074(6) 0.4802(5) 0.3655(3)
C11 C 0.5992(6) 0.5556(5) 0.3667(4)
H11 H 0.6621 0.5566 0.3390
C12 C 0.5972(6) 0.6281(5) 0.4084(4)
C13 C 0.5021(6) 0.6255(4) 0.4493(3)
C14 C 0.6988(6) 0.7094(5) 0.4129(4)
H12 H 0.6964 0.7426 0.4565
H13 H 0.7705 0.6918 0.4140
C15 C 0.7055(6) 0.7690(4) 0.3566(3)
C16 C 0.8133(6) 0.8064(4) 0.3310(3)
H14 H 0.8781 0.7896 0.3454
C17 C 0.8262(6) 0.8665(5) 0.2856(3)
C18 C 0.7310(6) 0.8934(5) 0.2622(3)
H15 H 0.7412 0.9353 0.2312
C19 C 0.6210(5) 0.8570(4) 0.2856(3)
C20 C 0.6102(5) 0.7962(4) 0.3334(3)
C21 C 0.5177(6) 0.8855(4) 0.2617(3)
H16 H 0.5449 0.9423 0.2452
H17 H 0.4695 0.8906 0.3004
C22 C 0.4440(5) 0.8229(4) 0.2044(3)
C23 C 0.4985(5) 0.7966(4) 0.1460(3)
H18 H 0.5793 0.8158 0.1443
C24 C 0.4357(5) 0.7439(4) 0.0922(3)
C25 C 0.3136(5) 0.7144(4) 0.0928(3)
H19 H 0.2714 0.6794 0.0554
C26 C 0.2560(5) 0.7376(4) 0.1493(3)
C27 C 0.3231(5) 0.7916(4) 0.2050(3)
C28 C 0.1243(5) 0.7112(4) 0.1492(3)
H20 H 0.1003 0.7569 0.1755
H21 H 0.0946 0.7082 0.1021
C29 C 0.0657(5) 0.6268(4) 0.1774(3)
C30 C 0.0263(5) 0.5505(4) 0.1319(3)
H22 H 0.0422 0.5521 0.0856
C31 C -0.0352(5) 0.4740(4) 0.1552(3)
C32 C -0.0597(5) 0.4705(4) 0.2242(3)
H23 H -0.1000 0.4182 0.2396
C33 C -0.0248(5) 0.5439(5) 0.2703(3)
C34 C 0.0412(5) 0.6205(4) 0.2472(3)
C35 C -0.0596(6) 0.5387(5) 0.3452(3)
H24 H -0.0511 0.5969 0.3665
H25 H -0.1413 0.5073 0.3457
N1 N 0.3217(5) 0.4779(4) 0.1444(3)
N2 N 0.2425(5) 0.4311(4) -0.0453(3)
C36 C 0.4045(7) 0.5532(6) 0.1629(4)
H26 H 0.4608 0.5759 0.1322
C37 C 0.4050(8) 0.5957(6) 0.2266(4)
H27 H 0.4617 0.6474 0.2391
C38 C 0.3230(9) 0.5628(7) 0.2722(4)
H28 H 0.3230 0.5923 0.3154
C39 C 0.2412(8) 0.4862(8) 0.2537(4)
H29 H 0.1855 0.4619 0.2842
C40 C 0.2431(6) 0.4452(6) 0.1879(4)
H30 H 0.1873 0.3933 0.1745
C41 C 0.3187(7) 0.4346(6) 0.0730(3)
H31 H 0.2882 0.3724 0.0732
H32 H 0.3968 0.4467 0.0561
C42 C 0.2409(7) 0.4690(5) 0.0269(3)
H33 H 0.1618 0.4537 0.0423
H34 H 0.2686 0.5316 0.0293
C43 C 0.2954(7) 0.4810(6) -0.0912(4)
H35 H 0.3324 0.5390 -0.0783
C44 C 0.2960(9) 0.4462(9) -0.1607(5)
H36 H 0.3342 0.4797 -0.1941
C45 C 0.2363(12) 0.3591(11) -0.1763(6)
H37 H 0.2348 0.3339 -0.2211
C46 C 0.1820(9) 0.3118(7) -0.1290(5)
H38 H 0.1412 0.2541 -0.1398
C47 C 0.1879(8) 0.3507(7) -0.0635(5)
H39 H 0.1504 0.3175 -0.0297
N3 N 0.3644(10) 0.9313(8) 0.0352(7)
C48 C 0.2844(14) 0.8730(10) -0.0102(8)
H40 H 0.3084 0.8480 -0.0500
C49 C 0.1673(13) 0.8527(9) 0.0052(9)
H41 H 0.1128 0.8121 -0.0240
C50 C 0.1308(14) 0.8916(11) 0.0626(9)
H42 H 0.0518 0.8813 0.0707
C51 C 0.2192(16) 0.9495(10) 0.1105(10)
H43 H 0.1998 0.9738 0.1520
C52 C 0.3265(14) 0.9652(9) 0.0922(7)
H44 H 0.3826 1.0041 0.1216
C53 C 0.4893(12) 0.9550(9) 0.0159(8)
H45 H 0.5031 0.9112 -0.0176
H46 H 0.5409 0.9604 0.0562
N3A N 0.6356(10) 1.0687(8) -0.0352(7)
C48A C 0.7156(14) 1.1270(10) 0.0102(8)
H40A H 0.6916 1.1520 0.0500
C49A C 0.8327(13) 1.1473(9) -0.0052(9)
H41A H 0.8872 1.1879 0.0240
C50A C 0.8692(14) 1.1084(11) -0.0626(9)
H42A H 0.9482 1.1187 -0.0707
C51A C 0.7808(16) 1.0505(10) -0.1105(10)
H43A H 0.8002 1.0262 -0.1520
C52A C 0.6735(14) 1.0348(9) -0.0922(7)
H44A H 0.6174 0.9959 -0.1216
C53A C 0.5107(12) 1.0450(9) -0.0159(8)
H45A H 0.4969 1.0888 0.0176
H46A H 0.4591 1.0396 -0.0562
N4 N 1.1514(15) 0.0398(16) 0.5092(14)
C54 C 1.200(2) 0.0937(15) 0.4596(12)
C55 C 1.320(3) 0.1140(17) 0.4511(13)
C56 C 1.3905(16) 0.080(2) 0.4922(17)
C57 C 1.341(2) 0.0264(17) 0.5418(13)
C58 C 1.222(2) 0.0061(13) 0.5503(11)
C59 C 1.0303(18) 0.045(3) 0.520(2)
N4A N 0.8486(15) -0.0398(16) 0.4908(14)
C54A C 0.800(2) -0.0937(15) 0.5404(12)
C55A C 0.680(3) -0.1140(17) 0.5489(13)
C56A C 0.6095(16) -0.080(2) 0.5078(17)
C57A C 0.659(2) -0.0264(17) 0.4582(13)
C58A C 0.778(2) -0.0061(13) 0.4497(11)
C59A C 0.9697(18) -0.045(3) 0.480(2)
O21 O 0.1539(8) 0.8735(6) 0.4051(5)
O22 O 0.3950(15) 0.2753(11) 0.1485(7)
O23 O 0.6923(14) 0.2678(9) 0.2243(8)
O24 O 0.3720(13) 0.7595(10) 0.5780(8)
O25 O 0.3607(14) 0.8487(11) 0.4233(8)
O26 O 0.3117(16) 0.9872(11) 0.2903(10)
O27 O 0.902(3) 1.008(2) 0.0972(16)
O28 O 0.489(4) 0.112(3) 0.328(2)
O29 O 0.233(4) 0.200(3) 0.346(2)
N5? N 0.8443(10) -0.0311(10) 0.4672(9)
C60? C 0.7586(15) -0.0769(10) 0.5073(8)
C61? C 0.6442(13) -0.0725(13) 0.4991(10)
C62? C 0.6154(11) -0.0223(15) 0.4507(11)
C63? C 0.7010(15) 0.0236(11) 0.4106(8)
C64? C 0.8154(13) 0.0192(10) 0.4188(8)
C65? C 0.9678(15) -0.032(2) 0.4675(18)
loop_
_geom_bond_atom_site_label_1
_geom_bond_atom_site_label_2
_geom_bond_site_symmetry_1
_geom_bond_site_symmetry_2
S1 O2 1_555 1_555
S2 O6 1_555 1_555
S3 O10 1_555 1_555
S4 O14 1_555 1_555
S5 O18 1_555 1_555
O1 H1 1_555 1_555
O3 S1 1_555 1_555
O4 S1 1_555 1_555
O5 H2 1_555 1_555
O7 S2 1_555 1_555
O8 S2 1_555 1_555
O9 H3 1_555 1_555
O11 S3 1_555 1_555
O12 S3 1_555 1_555
O13 H4 1_555 1_555
O15 S4 1_555 1_555
O16 S4 1_555 1_555
O17 H5 1_555 1_555
O19 S5 1_555 1_555
O20 S5 1_555 1_555
C1 O1 1_555 1_555
C2 C1 1_555 1_555
C3 C2 1_555 1_555
H6 C3 1_555 1_555
C4 S1 1_555 1_555
C5 C4 1_555 1_555
H7 C5 1_555 1_555
C6 C1 1_555 1_555
C7 C6 1_555 1_555
H8 C7 1_555 1_555
H9 C7 1_555 1_555
C8 C7 1_555 1_555
C9 C8 1_555 1_555
H10 C9 1_555 1_555
C10 S2 1_555 1_555
C11 C10 1_555 1_555
H11 C11 1_555 1_555
C12 C11 1_555 1_555
C13 O5 1_555 1_555
C14 C12 1_555 1_555
H12 C14 1_555 1_555
H13 C14 1_555 1_555
C15 C14 1_555 1_555
C16 C15 1_555 1_555
H14 C16 1_555 1_555
C17 S3 1_555 1_555
C18 C17 1_555 1_555
H15 C18 1_555 1_555
C19 C18 1_555 1_555
C20 O9 1_555 1_555
C21 C19 1_555 1_555
H16 C21 1_555 1_555
H17 C21 1_555 1_555
C22 C21 1_555 1_555
C23 C22 1_555 1_555
H18 C23 1_555 1_555
C24 S4 1_555 1_555
C25 C24 1_555 1_555
H19 C25 1_555 1_555
C26 C25 1_555 1_555
C27 O13 1_555 1_555
C28 C26 1_555 1_555
H20 C28 1_555 1_555
H21 C28 1_555 1_555
C29 C28 1_555 1_555
C30 C29 1_555 1_555
H22 C30 1_555 1_555
C31 S5 1_555 1_555
C32 C31 1_555 1_555
H23 C32 1_555 1_555
C33 C32 1_555 1_555
C34 O17 1_555 1_555
C35 C2 1_555 1_555
H24 C35 1_555 1_555
H25 C35 1_555 1_555
N1 C36 1_555 1_555
N2 C42 1_555 1_555
C36 H26 1_555 1_555
C37 C36 1_555 1_555
H27 C37 1_555 1_555
C38 C37 1_555 1_555
H28 C38 1_555 1_555
C39 C38 1_555 1_555
H29 C39 1_555 1_555
C40 N1 1_555 1_555
H30 C40 1_555 1_555
C41 N1 1_555 1_555
H31 C41 1_555 1_555
H32 C41 1_555 1_555
C42 C41 1_555 1_555
H33 C42 1_555 1_555
H34 C42 1_555 1_555
C43 N2 1_555 1_555
H35 C43 1_555 1_555
C44 C43 1_555 1_555
H36 C44 1_555 1_555
C45 C44 1_555 1_555
H37 C45 1_555 1_555
C46 C45 1_555 1_555
H38 C46 1_555 1_555
C47 N2 1_555 1_555
H39 C47 1_555 1_555
N3 C48 1_555 1_555
C48 H40 1_555 1_555
C49 C48 1_555 1_555
H41 C49 1_555 1_555
C50 C49 1_555 1_555
H42 C50 1_555 1_555
C51 C50 1_555 1_555
H43 C51 1_555 1_555
C52 N3 1_555 1_555
H44 C52 1_555 1_555
C53 N3 1_555 1_555
H45 C53 1_555 1_555
H46 C53 1_555 1_555
N4 C54 1_555 1_555
C54 C55 1_555 1_555
C55 C56 1_555 1_555
C56 C57 1_555 1_555
C57 C58 1_555 1_555
C58 N4 1_555 1_555
C59 N4 1_555 1_555
N3A C48A 1_555 1_555
C48A H40A 1_555 1_555
C49A C48A 1_555 1_555
H41A C49A 1_555 1_555
C50A C49A 1_555 1_555
H42A C50A 1_555 1_555
C51A C50A 1_555 1_555
H43A C51A 1_555 1_555
C52A N3A 1_555 1_555
H44A C52A 1_555 1_555
C53A C53 1_555 1_555
H45A C53A 1_555 1_555
H46A C53A 1_555 1_555
N4A C54A 1_555 1_555
C54A C55A 1_555 1_555
C55A C56A 1_555 1_555
C56A C57A 1_555 1_555
C57A C58A 1_555 1_555
C58A N4A 1_555 1_555
C59A C59 1_555 1_555
C3 C4 1_555 1_555
C5 C6 1_555 1_555
C8 C13 1_555 1_555
C9 C10 1_555 1_555
C12 C13 1_555 1_555
C15 C20 1_555 1_555
C16 C17 1_555 1_555
C19 C20 1_555 1_555
C22 C27 1_555 1_555
C23 C24 1_555 1_555
C26 C27 1_555 1_555
C29 C34 1_555 1_555
C30 C31 1_555 1_555
C33 C34 1_555 1_555
C33 C35 1_555 1_555
C39 C40 1_555 1_555
C46 C47 1_555 1_555
C51 C52 1_555 1_555
N3A C53A 1_555 1_555
C51A C52A 1_555 1_555
N4A C59A 1_555 1_555

#END
