
#######################################################################
#
#                 Cambridge Crystallographic Data Centre
#                                CCDC 
#
#######################################################################
#
# If this CIF has been generated from an entry in the Cambridge 
# Structural Database, then it will include bibliographic, chemical, 
# crystal, experimental, refinement or atomic coordinate data resulting 
# from the CCDC's data processing and validation procedures.
#
#######################################################################

data_VELCOH
_chemical_formula_moiety         'C22 H28 P1 Si2 1-,C16 H32 Li1 O4 1+'
_chemical_name_systematic        
'tetrakis(tetrahydrofuran)-lithium 3,4-diphenyl-2,5-bis(trimethylsilyl)phospholyl'
_symmetry_cell_setting           orthorhombic
_symmetry_space_group_name_H-M   'P n a 21'
_symmetry_Int_Tables_number      33
_space_group_name_Hall           'P 2c -2n'
loop_
_symmetry_equiv_pos_site_id
_symmetry_equiv_pos_as_xyz
1 x,y,z
2 -x,-y,1/2+z
3 1/2+x,1/2-y,z
4 1/2-x,1/2+y,1/2+z
_cell_length_a                   18.2545(3)
_cell_length_b                   23.6738(3)
_cell_length_c                   36.9721(5)
_cell_angle_alpha                90
_cell_angle_beta                 90
_cell_angle_gamma                90
_cell_volume                     15977.6
_exptl_crystal_colour            colorless
_exptl_crystal_description       block
_cell_formula_units_Z            16
loop_
_atom_site_label
_atom_site_type_symbol
_atom_site_fract_x
_atom_site_fract_y
_atom_site_fract_z
P1 P 0.79948(6) 0.71897(4) 0.74257(3)
Si1 Si 0.77364(8) 0.77610(5) 0.81759(4)
Si2 Si 0.88223(6) 0.69637(5) 0.67070(3)
C1 C 0.8251(2) 0.76970(17) 0.77474(12)
C2 C 0.8900(2) 0.79797(18) 0.76333(11)
C3 C 0.9157(2) 0.78011(16) 0.72893(10)
C4 C 0.8717(2) 0.73679(17) 0.71310(11)
C5 C 0.9234(3) 0.84277(19) 0.78687(12)
C6 C 0.9878(3) 0.8335(2) 0.80648(13)
H1 H 1.0136 0.8001 0.8030
C7 C 1.0145(4) 0.8732(3) 0.83115(16)
H2 H 1.0578 0.8663 0.8436
C8 C 0.9763(4) 0.9229(3) 0.83707(16)
H3 H 0.9935 0.9492 0.8537
C9 C 0.9121(4) 0.9331(2) 0.81798(16)
H4 H 0.8863 0.9664 0.8219
C10 C 0.8861(3) 0.8937(2) 0.79289(14)
H5 H 0.8434 0.9013 0.7800
C11 C 0.9798(2) 0.80466(16) 0.70928(11)
C12 C 1.0507(2) 0.80480(17) 0.72374(12)
H6 H 1.0585 0.7905 0.7469
C13 C 1.1099(2) 0.82600(19) 0.70408(13)
H7 H 1.1565 0.8257 0.7142
C14 C 1.0997(2) 0.84767(18) 0.66935(13)
H8 H 1.1392 0.8618 0.6563
C15 C 1.0296(3) 0.84792(19) 0.65455(12)
H9 H 1.0220 0.8621 0.6314
C16 C 0.9709(2) 0.82702(18) 0.67437(12)
H10 H 0.9243 0.8279 0.6642
C17 C 0.7004(4) 0.7196(3) 0.8181(2)
H11 H 0.6694 0.7239 0.7973
H12 H 0.6716 0.7232 0.8397
H13 H 0.7231 0.6830 0.8176
C18 C 0.8335(4) 0.7646(3) 0.85786(13)
H14 H 0.8526 0.7268 0.8574
H15 H 0.8054 0.7701 0.8795
H16 H 0.8734 0.7911 0.8574
C19 C 0.7253(3) 0.8452(2) 0.82506(16)
H17 H 0.7603 0.8735 0.8321
H18 H 0.6895 0.8409 0.8438
H19 H 0.7016 0.8567 0.8031
C20 C 0.8204(3) 0.6330(2) 0.67218(16)
H20 H 0.8346 0.6089 0.6919
H21 H 0.8243 0.6125 0.6498
H22 H 0.7707 0.6451 0.6756
C21 C 0.9787(2) 0.6704(2) 0.66426(12)
H23 H 1.0108 0.7021 0.6609
H24 H 0.9808 0.6464 0.6434
H25 H 0.9937 0.6496 0.6853
C22 C 0.8557(4) 0.7353(2) 0.62823(14)
H26 H 0.8080 0.7517 0.6313
H27 H 0.8548 0.7094 0.6083
H28 H 0.8908 0.7646 0.6235
P2 P 0.17917(6) -0.06653(5) 0.49475(3)
Si3 Si 0.14109(7) -0.00205(5) 0.56624(3)
Si4 Si 0.26972(7) -0.09142(6) 0.42540(3)
C23 C 0.2008(2) -0.01341(18) 0.52643(11)
C24 C 0.2639(2) 0.01702(17) 0.51466(11)
C25 C 0.2919(2) -0.00146(18) 0.48126(11)
C26 C 0.2530(2) -0.04833(19) 0.46634(12)
C27 C 0.2971(2) 0.06362(18) 0.53649(12)
C28 C 0.3226(3) 0.05394(19) 0.57157(13)
H29 H 0.3185 0.0179 0.5814
C29 C 0.3542(3) 0.0970(2) 0.59221(13)
H30 H 0.3711 0.0891 0.6154
C30 C 0.3604(3) 0.1512(2) 0.57844(14)
H31 H 0.3806 0.1801 0.5923
C31 C 0.3360(3) 0.1615(2) 0.54348(16)
H32 H 0.3408 0.1974 0.5337
C32 C 0.3046(3) 0.11862(19) 0.52301(14)
H33 H 0.2881 0.1267 0.4998
C33 C 0.3559(2) 0.02573(18) 0.46255(12)
C34 C 0.4225(3) 0.0349(2) 0.48065(15)
H34 H 0.4270 0.0251 0.5049
C35 C 0.4821(3) 0.0589(2) 0.46242(17)
H35 H 0.5264 0.0641 0.4744
C36 C 0.4753(3) 0.0749(2) 0.42656(18)
H36 H 0.5150 0.0909 0.4146
C37 C 0.4098(3) 0.0673(2) 0.40849(15)
H37 H 0.4053 0.0783 0.3844
C38 C 0.3503(3) 0.0430(2) 0.42662(13)
H38 H 0.3061 0.0383 0.4144
C39 C 0.0521(3) -0.0409(2) 0.55992(14)
H39 H 0.0279 -0.0271 0.5386
H40 H 0.0213 -0.0348 0.5806
H41 H 0.0616 -0.0805 0.5573
C40 C 0.1810(3) -0.0295(2) 0.60989(13)
H42 H 0.2013 -0.0664 0.6060
H43 H 0.1432 -0.0316 0.6279
H44 H 0.2189 -0.0044 0.6180
C41 C 0.1184(3) 0.0750(2) 0.57199(14)
H45 H 0.1624 0.0958 0.5768
H46 H 0.0850 0.0794 0.5919
H47 H 0.0960 0.0890 0.5503
C42 C 0.2421(3) -0.1663(2) 0.43526(15)
H48 H 0.2735 -0.1816 0.4536
H49 H 0.2464 -0.1885 0.4136
H50 H 0.1923 -0.1671 0.4435
C43 C 0.3677(3) -0.0944(2) 0.40983(13)
H51 H 0.3798 -0.0600 0.3975
H52 H 0.3740 -0.1258 0.3937
H53 H 0.3993 -0.0989 0.4304
C44 C 0.2112(3) -0.0676(3) 0.38615(14)
H54 H 0.1609 -0.0662 0.3935
H55 H 0.2165 -0.0937 0.3665
H56 H 0.2266 -0.0306 0.3785
P3 P 0.71536(6) 0.72074(4) 0.25056(3)
Si5 Si 0.74401(7) 0.78405(5) 0.32313(3)
Si6 Si 0.63282(7) 0.69373(5) 0.17973(3)
C45 C 0.6950(2) 0.77782(17) 0.27957(11)
C46 C 0.6319(2) 0.80689(17) 0.26671(11)
C47 C 0.6028(2) 0.78446(16) 0.23406(11)
C48 C 0.6429(2) 0.73698(17) 0.22110(11)
C49 C 0.6022(2) 0.85633(18) 0.28732(11)
C50 C 0.6413(3) 0.90677(19) 0.28896(13)
H57 H 0.6828 0.9111 0.2747
C51 C 0.6195(3) 0.9511(2) 0.31165(15)
H58 H 0.6471 0.9841 0.3125
C52 C 0.5580(4) 0.9462(2) 0.33256(15)
H59 H 0.5438 0.9755 0.3477
C53 C 0.5175(4) 0.8972(3) 0.33092(16)
H60 H 0.4755 0.8938 0.3450
C54 C 0.5387(3) 0.8524(2) 0.30835(14)
H61 H 0.5102 0.8198 0.3074
C55 C 0.5389(2) 0.80832(17) 0.21385(11)
C56 C 0.5488(2) 0.83121(18) 0.17936(12)
H62 H 0.5960 0.8340 0.1700
C57 C 0.4894(3) 0.8501(2) 0.15852(13)
H63 H 0.4973 0.8654 0.1357
C58 C 0.4186(3) 0.8457(2) 0.17220(15)
H64 H 0.3788 0.8574 0.1584
C59 C 0.4080(3) 0.8239(2) 0.20638(16)
H65 H 0.3608 0.8216 0.2158
C60 C 0.4668(2) 0.80536(19) 0.22694(13)
H66 H 0.4583 0.7907 0.2499
C61 C 0.8149(3) 0.7270(2) 0.32695(15)
H67 H 0.7912 0.6908 0.3271
H68 H 0.8419 0.7319 0.3490
H69 H 0.8477 0.7293 0.3067
C62 C 0.6784(3) 0.7750(3) 0.36157(13)
H70 H 0.6389 0.8015 0.3591
H71 H 0.7034 0.7816 0.3840
H72 H 0.6592 0.7372 0.3613
C63 C 0.7944(3) 0.8523(2) 0.33114(16)
H73 H 0.8316 0.8570 0.3130
H74 H 0.8168 0.8516 0.3546
H75 H 0.7606 0.8833 0.3299
C64 C 0.6658(3) 0.6197(2) 0.18972(14)
H76 H 0.7147 0.6212 0.1993
H77 H 0.6656 0.5979 0.1678
H78 H 0.6339 0.6024 0.2071
C65 C 0.5363(3) 0.6886(2) 0.16218(13)
H79 H 0.5042 0.6777 0.1815
H80 H 0.5342 0.6609 0.1433
H81 H 0.5214 0.7246 0.1528
C66 C 0.6941(3) 0.7198(2) 0.14238(13)
H82 H 0.6811 0.7579 0.1363
H83 H 0.6882 0.6962 0.1215
H84 H 0.7442 0.7186 0.1503
P4 P 0.18449(6) 0.43688(5) 0.50354(3)
Si7 Si 0.17002(7) 0.50978(6) 0.57276(3)
Si8 Si 0.24659(7) 0.40201(5) 0.42847(4)
C67 C 0.2147(2) 0.49610(18) 0.52880(12)
C68 C 0.2707(2) 0.52429(18) 0.50945(12)
C69 C 0.2878(2) 0.49938(18) 0.47563(11)
C70 C 0.2461(2) 0.45002(19) 0.46771(12)
C71 C 0.3093(2) 0.57635(19) 0.52290(12)
C72 C 0.3410(3) 0.5784(2) 0.55685(14)
H85 H 0.3391 0.5466 0.5716
C73 C 0.3758(3) 0.6271(3) 0.56949(16)
H86 H 0.3964 0.6277 0.5925
C74 C 0.3796(3) 0.6750(2) 0.54733(16)
H87 H 0.4028 0.7076 0.5555
C75 C 0.3487(3) 0.6735(2) 0.51349(16)
H88 H 0.3516 0.7051 0.4986
C76 C 0.3131(2) 0.6250(2) 0.50122(14)
H89 H 0.2917 0.6248 0.4784
C77 C 0.3489(2) 0.51909(17) 0.45180(11)
C78 C 0.4206(2) 0.52363(18) 0.46480(12)
H90 H 0.4296 0.5170 0.4892
C79 C 0.4786(3) 0.53771(19) 0.44232(14)
H91 H 0.5257 0.5408 0.4517
C80 C 0.4663(3) 0.54723(19) 0.40571(14)
H92 H 0.5053 0.5551 0.3903
C81 C 0.3951(3) 0.54483(19) 0.39244(13)
H93 H 0.3864 0.5523 0.3681
C82 C 0.3368(2) 0.53148(19) 0.41496(12)
H94 H 0.2895 0.5307 0.4057
C83 C 0.0731(3) 0.4818(3) 0.57115(14)
H95 H 0.0466 0.5004 0.5522
H96 H 0.0494 0.4888 0.5939
H97 H 0.0741 0.4419 0.5666
C84 C 0.1637(3) 0.5867(2) 0.58525(14)
H98 H 0.2111 0.6002 0.5925
H99 H 0.1298 0.5913 0.6049
H100 H 0.1469 0.6080 0.5647
C85 C 0.2176(3) 0.4713(3) 0.61077(14)
H101 H 0.2176 0.4315 0.6059
H102 H 0.1923 0.4784 0.6331
H103 H 0.2672 0.4845 0.6127
C86 C 0.2013(3) 0.3336(2) 0.44244(17)
H104 H 0.2272 0.3177 0.4626
H105 H 0.2022 0.3076 0.4225
H106 H 0.1514 0.3409 0.4493
C87 C 0.1928(3) 0.4296(3) 0.38856(14)
H107 H 0.1449 0.4408 0.3964
H108 H 0.1885 0.4004 0.3707
H109 H 0.2178 0.4615 0.3783
C88 C 0.3406(3) 0.3840(2) 0.41095(14)
H110 H 0.3669 0.4181 0.4057
H111 H 0.3362 0.3619 0.3893
H112 H 0.3667 0.3627 0.4289
O1 O 0.14366(19) 0.01280(14) 0.75585(9)
O2 O 0.0195(2) 0.10421(13) 0.77007(10)
O3 O 0.12274(17) 0.11433(13) 0.70385(8)
O4 O 0.01424(19) 0.01110(13) 0.70479(10)
C89 C 0.1906(3) -0.0223(2) 0.73340(15)
H113 H 0.2212 0.0011 0.7180
H114 H 0.1613 -0.0468 0.7182
C90 C 0.2368(3) -0.0565(2) 0.75836(17)
H115 H 0.2817 -0.0369 0.7646
H116 H 0.2488 -0.0930 0.7480
C91 C 0.1863(4) -0.0626(2) 0.79122(17)
H117 H 0.1512 -0.0930 0.7877
H118 H 0.2142 -0.0698 0.8131
C92 C 0.1486(3) -0.0059(2) 0.79277(14)
H119 H 0.1002 -0.0094 0.8033
H120 H 0.1769 0.0206 0.8071
C93 C -0.0334(6) 0.0830(3) 0.7947(3)
H121 H -0.0091 0.0598 0.8127
H122 H -0.0680 0.0594 0.7818
C94 C -0.0718(5) 0.1276(3) 0.8125(2)
H123 H -0.0716 0.1221 0.8384
H124 H -0.1222 0.1293 0.8042
C95 C -0.0313(3) 0.1811(2) 0.80246(14)
H125 H -0.0653 0.2114 0.7969
H126 H 0.0006 0.1931 0.8220
C96 C 0.0122(3) 0.1648(2) 0.76979(15)
H127 H -0.0128 0.1770 0.7480
H128 H 0.0601 0.1825 0.7705
C97 C 0.1803(3) 0.1489(2) 0.71969(14)
H129 H 0.1940 0.1345 0.7433
H130 H 0.1641 0.1877 0.7223
C98 C 0.2434(3) 0.1454(2) 0.69426(16)
H131 H 0.2714 0.1111 0.6977
H132 H 0.2756 0.1779 0.6966
C99 C 0.2030(4) 0.1454(3) 0.65803(16)
H133 H 0.1874 0.1832 0.6513
H134 H 0.2333 0.1299 0.6389
C100 C 0.1380(3) 0.1076(2) 0.66585(12)
H135 H 0.0960 0.1189 0.6515
H136 H 0.1496 0.0686 0.6604
C101 C -0.0173(3) 0.0143(2) 0.66936(15)
H137 H 0.0177 0.0017 0.6514
H138 H -0.0312 0.0529 0.6639
C102 C -0.0852(3) -0.0242(2) 0.66913(16)
H139 H -0.0783 -0.0560 0.6530
H140 H -0.1285 -0.0034 0.6617
C103 C -0.0918(3) -0.0438(2) 0.70866(16)
H141 H -0.1241 -0.0193 0.7224
H142 H -0.1098 -0.0823 0.7101
C104 C -0.0138(3) -0.03968(19) 0.72201(14)
H143 H -0.0123 -0.0363 0.7481
H144 H 0.0143 -0.0726 0.7148
Li1 Li 0.0711(4) 0.0621(3) 0.7337(2)
O5 O 0.59053(18) 0.76433(14) 0.52898(10)
O6 O 0.44530(18) 0.83250(15) 0.52856(9)
O7 O 0.5607(2) 0.85648(13) 0.46835(9)
O8 O 0.48074(18) 0.74137(13) 0.46526(9)
C105 C 0.6688(3) 0.7716(2) 0.52354(16)
H145 H 0.6810 0.8111 0.5201
H146 H 0.6855 0.7503 0.5027
C106 C 0.7031(4) 0.7486(3) 0.5586(2)
H147 H 0.7515 0.7332 0.5540
H148 H 0.7068 0.7780 0.5767
C107 C 0.6534(3) 0.7049(3) 0.5700(2)
H149 H 0.6548 0.7004 0.5961
H150 H 0.6659 0.6691 0.5588
C108 C 0.5784(3) 0.7244(3) 0.55788(18)
H151 H 0.5496 0.6926 0.5493
H152 H 0.5525 0.7422 0.5777
C109 C 0.4672(3) 0.8602(3) 0.56120(14)
H153 H 0.5166 0.8748 0.5589
H154 H 0.4657 0.8341 0.5814
C110 C 0.4134(3) 0.9081(2) 0.56699(15)
H155 H 0.4055 0.9150 0.5926
H156 H 0.4304 0.9426 0.5556
C111 C 0.3447(3) 0.8866(2) 0.54913(13)
H157 H 0.3135 0.9175 0.5414
H158 H 0.3172 0.8621 0.5652
C112 C 0.3750(3) 0.8542(3) 0.51707(16)
H159 H 0.3424 0.8234 0.5105
H160 H 0.3806 0.8789 0.4963
C113 C 0.5692(4) 0.9159(2) 0.47709(15)
H161 H 0.6039 0.9209 0.4967
H162 H 0.5226 0.9323 0.4841
C114 C 0.5973(4) 0.9426(2) 0.44276(16)
H163 H 0.5572 0.9537 0.4271
H164 H 0.6271 0.9756 0.4480
C115 C 0.6422(3) 0.8967(2) 0.42596(15)
H165 H 0.6906 0.8947 0.4367
H166 H 0.6469 0.9020 0.4000
C116 C 0.5975(5) 0.8449(2) 0.43470(18)
H167 H 0.5621 0.8376 0.4157
H168 H 0.6290 0.8122 0.4371
C117 C 0.4361(3) 0.7517(3) 0.43361(15)
H169 H 0.4368 0.7916 0.4274
H170 H 0.3858 0.7406 0.4381
C118 C 0.4684(4) 0.7169(3) 0.40311(18)
H171 H 0.4824 0.7409 0.3830
H172 H 0.4334 0.6890 0.3946
C119 C 0.5353(3) 0.6883(2) 0.41949(16)
H173 H 0.5413 0.6503 0.4102
H174 H 0.5795 0.7098 0.4148
C120 C 0.5172(3) 0.6877(2) 0.45937(16)
H175 H 0.4851 0.6563 0.4653
H176 H 0.5614 0.6848 0.4739
Li2 Li 0.5177(4) 0.7979(3) 0.4980(2)
O9 O 0.3476(3) 0.0144(2) 0.27029(14)
O10 O 0.4756(2) 0.10823(16) 0.27104(13)
O11 O 0.34398(19) 0.11321(15) 0.21474(12)
O12 O 0.4632(3) 0.01492(19) 0.21291(11)
C121 C 0.2930(7) -0.0219(5) 0.2551(3)
H177 H 0.3118 -0.0408 0.2338
H178 H 0.2499 -0.0003 0.2483
C122 C 0.2748(6) -0.0628(5) 0.2828(2)
H179 H 0.2628 -0.0991 0.2722
H180 H 0.2337 -0.0499 0.2973
C123 C 0.3412(7) -0.0664(4) 0.3046(3)
H181 H 0.3793 -0.0879 0.2926
H182 H 0.3317 -0.0823 0.3283
C124 C 0.3598(6) -0.0022(4) 0.3065(2)
H183 H 0.3275 0.0176 0.3230
H184 H 0.4102 0.0041 0.3136
C125 C 0.5554(4) 0.0997(5) 0.2696(2)
H185 H 0.5766 0.1212 0.2499
H186 H 0.5668 0.0601 0.2660
C126 C 0.5844(4) 0.1198(3) 0.3049(2)
H187 H 0.5825 0.0904 0.3232
H188 H 0.6342 0.1336 0.3028
C127 C 0.5332(5) 0.1652(5) 0.3126(3)
H189 H 0.5170 0.1633 0.3376
H190 H 0.5562 0.2016 0.3086
C128 C 0.4724(7) 0.1579(5) 0.2887(4)
H191 H 0.4272 0.1598 0.3024
H192 H 0.4720 0.1885 0.2712
C129 C 0.3475(3) 0.1741(2) 0.21230(16)
H193 H 0.3979 0.1871 0.2123
H194 H 0.3217 0.1916 0.2323
C130 C 0.3107(3) 0.1877(2) 0.17680(16)
H195 H 0.3434 0.1816 0.1565
H196 H 0.2930 0.2264 0.1763
C131 C 0.2474(3) 0.1455(2) 0.17672(18)
H197 H 0.2067 0.1589 0.1912
H198 H 0.2304 0.1380 0.1523
C132 C 0.2826(3) 0.0934(3) 0.1935(2)
H199 H 0.2477 0.0737 0.2088
H200 H 0.2992 0.0677 0.1748
C133 C 0.4695(3) 0.0133(2) 0.17488(14)
H201 H 0.4538 0.0490 0.1645
H202 H 0.4390 -0.0165 0.1651
C134 C 0.5496(3) 0.0024(3) 0.16592(18)
H203 H 0.5746 0.0372 0.1596
H204 H 0.5543 -0.0242 0.1461
C135 C 0.5798(4) -0.0225(3) 0.20121(19)
H205 H 0.6132 0.0036 0.2129
H206 H 0.6051 -0.0578 0.1968
C136 C 0.5093(4) -0.0321(3) 0.22493(19)
H207 H 0.4867 -0.0683 0.2198
H208 H 0.5203 -0.0296 0.2506
Li3 Li 0.4071(5) 0.0656(3) 0.2424(3)
O13 O 0.5797(2) 0.25093(16) 0.52046(11)
O14 O 0.4413(2) 0.32986(18) 0.52349(10)
O15 O 0.5787(2) 0.35320(15) 0.46956(12)
O16 O 0.4633(2) 0.26029(17) 0.45452(10)
C137 C 0.6497(5) 0.2665(4) 0.5345(3)
H209 H 0.6491 0.3051 0.5433
H210 H 0.6872 0.2632 0.5160
C138 C 0.6633(7) 0.2272(6) 0.5637(4)
H211 H 0.7077 0.2062 0.5586
H212 H 0.6710 0.2483 0.5859
C139 C 0.6070(6) 0.1902(4) 0.5686(2)
H213 H 0.5794 0.1995 0.5902
H214 H 0.6253 0.1519 0.5708
C140 C 0.5591(4) 0.1966(2) 0.53456(19)
H215 H 0.5693 0.1669 0.5172
H216 H 0.5074 0.1957 0.5407
C141 C 0.4447(4) 0.3316(2) 0.56251(14)
H217 H 0.4951 0.3326 0.5707
H218 H 0.4208 0.2988 0.5729
C142 C 0.4046(5) 0.3856(3) 0.57310(17)
H219 H 0.3612 0.3769 0.5872
H220 H 0.4362 0.4098 0.5874
C143 C 0.3849(6) 0.4127(5) 0.5402(2)
H221 H 0.4190 0.4430 0.5349
H222 H 0.3361 0.4287 0.5422
C144 C 0.3870(4) 0.3693(3) 0.51127(18)
H223 H 0.3398 0.3511 0.5086
H224 H 0.4010 0.3859 0.4883
C145 C 0.5614(4) 0.4104(2) 0.46003(19)
H225 H 0.5558 0.4332 0.4816
H226 H 0.5160 0.4117 0.4465
C146 C 0.6240(4) 0.4324(3) 0.4373(2)
H227 H 0.6060 0.4567 0.4181
H228 H 0.6586 0.4534 0.4520
C147 C 0.6583(5) 0.3813(3) 0.4222(3)
H229 H 0.7099 0.3875 0.4174
H230 H 0.6343 0.3697 0.4000
C148 C 0.6476(4) 0.3375(3) 0.4519(3)
H231 H 0.6444 0.2998 0.4417
H232 H 0.6879 0.3385 0.4690
C149 C 0.4893(4) 0.2566(4) 0.41811(19)
H233 H 0.5363 0.2375 0.4176
H234 H 0.4955 0.2941 0.4081
C150 C 0.4355(4) 0.2246(3) 0.39643(16)
H235 H 0.4538 0.1872 0.3908
H236 H 0.4247 0.2442 0.3740
C151 C 0.3683(3) 0.2210(2) 0.41981(17)
H237 H 0.3351 0.2522 0.4150
H238 H 0.3425 0.1857 0.4161
C152 C 0.3993(4) 0.2245(3) 0.45724(18)
H239 H 0.3638 0.2407 0.4738
H240 H 0.4127 0.1873 0.4659
Li4 Li 0.5164(5) 0.2990(4) 0.4926(2)
loop_
_geom_bond_atom_site_label_1
_geom_bond_atom_site_label_2
_geom_bond_site_symmetry_1
_geom_bond_site_symmetry_2
P1 C1 1_555 1_555
Si1 C1 1_555 1_555
Si2 C4 1_555 1_555
C1 C2 1_555 1_555
C2 C3 1_555 1_555
C3 C4 1_555 1_555
C4 P1 1_555 1_555
C5 C2 1_555 1_555
C6 C5 1_555 1_555
H1 C6 1_555 1_555
C7 C6 1_555 1_555
H2 C7 1_555 1_555
C8 C7 1_555 1_555
H3 C8 1_555 1_555
C9 C8 1_555 1_555
H4 C9 1_555 1_555
C10 C5 1_555 1_555
H5 C10 1_555 1_555
C11 C3 1_555 1_555
C12 C11 1_555 1_555
H6 C12 1_555 1_555
C13 C12 1_555 1_555
H7 C13 1_555 1_555
C14 C13 1_555 1_555
H8 C14 1_555 1_555
C15 C14 1_555 1_555
H9 C15 1_555 1_555
C16 C11 1_555 1_555
H10 C16 1_555 1_555
C17 Si1 1_555 1_555
H11 C17 1_555 1_555
H12 C17 1_555 1_555
H13 C17 1_555 1_555
C18 Si1 1_555 1_555
H14 C18 1_555 1_555
H15 C18 1_555 1_555
H16 C18 1_555 1_555
C19 Si1 1_555 1_555
H17 C19 1_555 1_555
H18 C19 1_555 1_555
H19 C19 1_555 1_555
C20 Si2 1_555 1_555
H20 C20 1_555 1_555
H21 C20 1_555 1_555
H22 C20 1_555 1_555
C21 Si2 1_555 1_555
H23 C21 1_555 1_555
H24 C21 1_555 1_555
H25 C21 1_555 1_555
C22 Si2 1_555 1_555
H26 C22 1_555 1_555
H27 C22 1_555 1_555
H28 C22 1_555 1_555
P2 C23 1_555 1_555
Si3 C23 1_555 1_555
Si4 C26 1_555 1_555
C23 C24 1_555 1_555
C24 C25 1_555 1_555
C25 C26 1_555 1_555
C26 P2 1_555 1_555
C27 C24 1_555 1_555
C28 C27 1_555 1_555
H29 C28 1_555 1_555
C29 C28 1_555 1_555
H30 C29 1_555 1_555
C30 C29 1_555 1_555
H31 C30 1_555 1_555
C31 C30 1_555 1_555
H32 C31 1_555 1_555
C32 C27 1_555 1_555
H33 C32 1_555 1_555
C33 C25 1_555 1_555
C34 C33 1_555 1_555
H34 C34 1_555 1_555
C35 C34 1_555 1_555
H35 C35 1_555 1_555
C36 C35 1_555 1_555
H36 C36 1_555 1_555
C37 C36 1_555 1_555
H37 C37 1_555 1_555
C38 C33 1_555 1_555
H38 C38 1_555 1_555
C39 Si3 1_555 1_555
H39 C39 1_555 1_555
H40 C39 1_555 1_555
H41 C39 1_555 1_555
C40 Si3 1_555 1_555
H42 C40 1_555 1_555
H43 C40 1_555 1_555
H44 C40 1_555 1_555
C41 Si3 1_555 1_555
H45 C41 1_555 1_555
H46 C41 1_555 1_555
H47 C41 1_555 1_555
C42 Si4 1_555 1_555
H48 C42 1_555 1_555
H49 C42 1_555 1_555
H50 C42 1_555 1_555
C43 Si4 1_555 1_555
H51 C43 1_555 1_555
H52 C43 1_555 1_555
H53 C43 1_555 1_555
C44 Si4 1_555 1_555
H54 C44 1_555 1_555
H55 C44 1_555 1_555
H56 C44 1_555 1_555
P3 C45 1_555 1_555
Si5 C45 1_555 1_555
Si6 C48 1_555 1_555
C45 C46 1_555 1_555
C46 C47 1_555 1_555
C47 C48 1_555 1_555
C48 P3 1_555 1_555
C49 C46 1_555 1_555
C50 C49 1_555 1_555
H57 C50 1_555 1_555
C51 C50 1_555 1_555
H58 C51 1_555 1_555
C52 C51 1_555 1_555
H59 C52 1_555 1_555
C53 C52 1_555 1_555
H60 C53 1_555 1_555
C54 C49 1_555 1_555
H61 C54 1_555 1_555
C55 C47 1_555 1_555
C56 C55 1_555 1_555
H62 C56 1_555 1_555
C57 C56 1_555 1_555
H63 C57 1_555 1_555
C58 C57 1_555 1_555
H64 C58 1_555 1_555
C59 C58 1_555 1_555
H65 C59 1_555 1_555
C60 C55 1_555 1_555
H66 C60 1_555 1_555
C61 Si5 1_555 1_555
H67 C61 1_555 1_555
H68 C61 1_555 1_555
H69 C61 1_555 1_555
C62 Si5 1_555 1_555
H70 C62 1_555 1_555
H71 C62 1_555 1_555
H72 C62 1_555 1_555
C63 Si5 1_555 1_555
H73 C63 1_555 1_555
H74 C63 1_555 1_555
H75 C63 1_555 1_555
C64 Si6 1_555 1_555
H76 C64 1_555 1_555
H77 C64 1_555 1_555
H78 C64 1_555 1_555
C65 Si6 1_555 1_555
H79 C65 1_555 1_555
H80 C65 1_555 1_555
H81 C65 1_555 1_555
C66 Si6 1_555 1_555
H82 C66 1_555 1_555
H83 C66 1_555 1_555
H84 C66 1_555 1_555
P4 C67 1_555 1_555
Si7 C67 1_555 1_555
Si8 C70 1_555 1_555
C67 C68 1_555 1_555
C68 C69 1_555 1_555
C69 C70 1_555 1_555
C70 P4 1_555 1_555
C71 C68 1_555 1_555
C72 C71 1_555 1_555
H85 C72 1_555 1_555
C73 C72 1_555 1_555
H86 C73 1_555 1_555
C74 C73 1_555 1_555
H87 C74 1_555 1_555
C75 C74 1_555 1_555
H88 C75 1_555 1_555
C76 C71 1_555 1_555
H89 C76 1_555 1_555
C77 C69 1_555 1_555
C78 C77 1_555 1_555
H90 C78 1_555 1_555
C79 C78 1_555 1_555
H91 C79 1_555 1_555
C80 C79 1_555 1_555
H92 C80 1_555 1_555
C81 C80 1_555 1_555
H93 C81 1_555 1_555
C82 C77 1_555 1_555
H94 C82 1_555 1_555
C83 Si7 1_555 1_555
H95 C83 1_555 1_555
H96 C83 1_555 1_555
H97 C83 1_555 1_555
C84 Si7 1_555 1_555
H98 C84 1_555 1_555
H99 C84 1_555 1_555
H100 C84 1_555 1_555
C85 Si7 1_555 1_555
H101 C85 1_555 1_555
H102 C85 1_555 1_555
H103 C85 1_555 1_555
C86 Si8 1_555 1_555
H104 C86 1_555 1_555
H105 C86 1_555 1_555
H106 C86 1_555 1_555
C87 Si8 1_555 1_555
H107 C87 1_555 1_555
H108 C87 1_555 1_555
H109 C87 1_555 1_555
C88 Si8 1_555 1_555
H110 C88 1_555 1_555
H111 C88 1_555 1_555
H112 C88 1_555 1_555
O1 C89 1_555 1_555
O2 C93 1_555 1_555
O3 C97 1_555 1_555
O4 C101 1_555 1_555
C89 H113 1_555 1_555
H114 C89 1_555 1_555
C90 C89 1_555 1_555
H115 C90 1_555 1_555
H116 C90 1_555 1_555
C91 C90 1_555 1_555
H117 C91 1_555 1_555
H118 C91 1_555 1_555
C92 O1 1_555 1_555
H119 C92 1_555 1_555
H120 C92 1_555 1_555
C93 H121 1_555 1_555
H122 C93 1_555 1_555
C94 C93 1_555 1_555
H123 C94 1_555 1_555
H124 C94 1_555 1_555
C95 C94 1_555 1_555
H125 C95 1_555 1_555
H126 C95 1_555 1_555
C96 O2 1_555 1_555
H127 C96 1_555 1_555
H128 C96 1_555 1_555
C97 H129 1_555 1_555
H130 C97 1_555 1_555
C98 C97 1_555 1_555
H131 C98 1_555 1_555
H132 C98 1_555 1_555
C99 C98 1_555 1_555
H133 C99 1_555 1_555
H134 C99 1_555 1_555
C100 O3 1_555 1_555
H135 C100 1_555 1_555
H136 C100 1_555 1_555
C101 H137 1_555 1_555
H138 C101 1_555 1_555
C102 C101 1_555 1_555
H139 C102 1_555 1_555
H140 C102 1_555 1_555
C103 C102 1_555 1_555
H141 C103 1_555 1_555
H142 C103 1_555 1_555
C104 O4 1_555 1_555
H143 C104 1_555 1_555
H144 C104 1_555 1_555
Li1 O1 1_555 1_555
O5 C105 1_555 1_555
O6 C109 1_555 1_555
O7 C113 1_555 1_555
O8 C117 1_555 1_555
C105 H145 1_555 1_555
H146 C105 1_555 1_555
C106 C105 1_555 1_555
H147 C106 1_555 1_555
H148 C106 1_555 1_555
C107 C106 1_555 1_555
H149 C107 1_555 1_555
H150 C107 1_555 1_555
C108 O5 1_555 1_555
H151 C108 1_555 1_555
H152 C108 1_555 1_555
C109 H153 1_555 1_555
H154 C109 1_555 1_555
C110 C109 1_555 1_555
H155 C110 1_555 1_555
H156 C110 1_555 1_555
C111 C110 1_555 1_555
H157 C111 1_555 1_555
H158 C111 1_555 1_555
C112 O6 1_555 1_555
H159 C112 1_555 1_555
H160 C112 1_555 1_555
C113 H161 1_555 1_555
H162 C113 1_555 1_555
C114 C113 1_555 1_555
H163 C114 1_555 1_555
H164 C114 1_555 1_555
C115 C114 1_555 1_555
H165 C115 1_555 1_555
H166 C115 1_555 1_555
C116 O7 1_555 1_555
H167 C116 1_555 1_555
H168 C116 1_555 1_555
C117 H169 1_555 1_555
H170 C117 1_555 1_555
C118 C117 1_555 1_555
H171 C118 1_555 1_555
H172 C118 1_555 1_555
C119 C118 1_555 1_555
H173 C119 1_555 1_555
H174 C119 1_555 1_555
C120 O8 1_555 1_555
H175 C120 1_555 1_555
H176 C120 1_555 1_555
Li2 O5 1_555 1_555
O9 C121 1_555 1_555
O10 C125 1_555 1_555
O11 C129 1_555 1_555
O12 C133 1_555 1_555
C121 H177 1_555 1_555
H178 C121 1_555 1_555
C122 C121 1_555 1_555
H179 C122 1_555 1_555
H180 C122 1_555 1_555
C123 C122 1_555 1_555
H181 C123 1_555 1_555
H182 C123 1_555 1_555
C124 O9 1_555 1_555
H183 C124 1_555 1_555
H184 C124 1_555 1_555
C125 H185 1_555 1_555
H186 C125 1_555 1_555
C126 C125 1_555 1_555
H187 C126 1_555 1_555
H188 C126 1_555 1_555
C127 C126 1_555 1_555
H189 C127 1_555 1_555
H190 C127 1_555 1_555
C128 O10 1_555 1_555
H191 C128 1_555 1_555
H192 C128 1_555 1_555
C129 H193 1_555 1_555
H194 C129 1_555 1_555
C130 C129 1_555 1_555
H195 C130 1_555 1_555
H196 C130 1_555 1_555
C131 C130 1_555 1_555
H197 C131 1_555 1_555
H198 C131 1_555 1_555
C132 O11 1_555 1_555
H199 C132 1_555 1_555
H200 C132 1_555 1_555
C133 H201 1_555 1_555
H202 C133 1_555 1_555
C134 C133 1_555 1_555
H203 C134 1_555 1_555
H204 C134 1_555 1_555
C135 C134 1_555 1_555
H205 C135 1_555 1_555
H206 C135 1_555 1_555
C136 O12 1_555 1_555
H207 C136 1_555 1_555
H208 C136 1_555 1_555
Li3 O9 1_555 1_555
O13 C137 1_555 1_555
O14 C141 1_555 1_555
O15 C145 1_555 1_555
O16 C149 1_555 1_555
C137 H209 1_555 1_555
H210 C137 1_555 1_555
C138 C137 1_555 1_555
H211 C138 1_555 1_555
H212 C138 1_555 1_555
C139 C138 1_555 1_555
H213 C139 1_555 1_555
H214 C139 1_555 1_555
C140 O13 1_555 1_555
H215 C140 1_555 1_555
H216 C140 1_555 1_555
C141 H217 1_555 1_555
H218 C141 1_555 1_555
C142 C141 1_555 1_555
H219 C142 1_555 1_555
H220 C142 1_555 1_555
C143 C142 1_555 1_555
H221 C143 1_555 1_555
H222 C143 1_555 1_555
C144 O14 1_555 1_555
H223 C144 1_555 1_555
H224 C144 1_555 1_555
C145 H225 1_555 1_555
H226 C145 1_555 1_555
C146 C145 1_555 1_555
H227 C146 1_555 1_555
H228 C146 1_555 1_555
C147 C146 1_555 1_555
H229 C147 1_555 1_555
H230 C147 1_555 1_555
C148 O15 1_555 1_555
H231 C148 1_555 1_555
H232 C148 1_555 1_555
C149 H233 1_555 1_555
H234 C149 1_555 1_555
C150 C149 1_555 1_555
H235 C150 1_555 1_555
H236 C150 1_555 1_555
C151 C150 1_555 1_555
H237 C151 1_555 1_555
H238 C151 1_555 1_555
C152 O16 1_555 1_555
H239 C152 1_555 1_555
H240 C152 1_555 1_555
Li4 O13 1_555 1_555
C9 C10 1_555 1_555
C15 C16 1_555 1_555
C31 C32 1_555 1_555
C37 C38 1_555 1_555
C53 C54 1_555 1_555
C59 C60 1_555 1_555
C75 C76 1_555 1_555
C81 C82 1_555 1_555
O2 Li1 1_555 1_555
O3 Li1 1_555 1_555
O4 Li1 1_555 1_555
C91 C92 1_555 1_555
C95 C96 1_555 1_555
C99 C100 1_555 1_555
C103 C104 1_555 1_555
O6 Li2 1_555 1_555
O7 Li2 1_555 1_555
O8 Li2 1_555 1_555
C107 C108 1_555 1_555
C111 C112 1_555 1_555
C115 C116 1_555 1_555
C119 C120 1_555 1_555
O10 Li3 1_555 1_555
O11 Li3 1_555 1_555
O12 Li3 1_555 1_555
C123 C124 1_555 1_555
C127 C128 1_555 1_555
C131 C132 1_555 1_555
C135 C136 1_555 1_555
O14 Li4 1_555 1_555
O15 Li4 1_555 1_555
O16 Li4 1_555 1_555
C139 C140 1_555 1_555
C143 C144 1_555 1_555
C147 C148 1_555 1_555
C151 C152 1_555 1_555

#END
