
#######################################################################
#
#                 Cambridge Crystallographic Data Centre
#                                CCDC 
#
#######################################################################
#
# If this CIF has been generated from an entry in the Cambridge 
# Structural Database, then it will include bibliographic, chemical, 
# crystal, experimental, refinement or atomic coordinate data resulting 
# from the CCDC's data processing and validation procedures.
#
#######################################################################

data_VELCUK
_chemical_formula_moiety         'C38 H50 O9 Si1'
_chemical_name_systematic        
1-O-(t-Butyldiphenylsilyl)-4-O-camphanyl-2,3:5,6-di-O-isopropylidene-D-myo-inositol
_symmetry_cell_setting           monoclinic
_symmetry_space_group_name_H-M   'P 21'
_symmetry_Int_Tables_number      4
_space_group_name_Hall           'P 2yb'
loop_
_symmetry_equiv_pos_site_id
_symmetry_equiv_pos_as_xyz
1 x,y,z
2 -x,1/2+y,-z
_cell_length_a                   11.601(5)
_cell_length_b                   24.699(5)
_cell_length_c                   12.815(4)
_cell_angle_alpha                90
_cell_angle_beta                 97.84(4)
_cell_angle_gamma                90
_cell_volume                     3637.6
_exptl_crystal_colour            colorless
_chemical_melting_point          179-180deg.C
_cell_formula_units_Z            4
loop_
_atom_site_label
_atom_site_type_symbol
_atom_site_fract_x
_atom_site_fract_y
_atom_site_fract_z
Si1 Si 0.3484(1) 0.472 0.7809(1)
O1 O 0.4494(3) 0.4271(2) 0.7624(3)
O2 O 0.6882(3) 0.4250(2) 0.7686(3)
O3 O 0.8377(4) 0.4003(2) 0.8956(4)
O4 O 0.5626(4) 0.2523(2) 0.8759(4)
O5 O 0.4166(3) 0.3086(2) 0.7972(3)
O6 O 0.7845(3) 0.2918(2) 0.9923(3)
O7 O 0.8918(4) 0.2447(2) 0.8893(3)
O8 O 0.8351(3) 0.2121(2) 1.1362(3)
O9 O 0.8427(4) 0.1565(2) 1.2739(3)
C1 C 0.4202(5) 0.5382(2) 0.8176(4)
C2 C 0.3603(5) 0.5837(3) 0.8507(5)
C3 C 0.4190(6) 0.6320(3) 0.8771(5)
C4 C 0.5379(6) 0.6368(3) 0.8735(5)
C5 C 0.5968(5) 0.5932(3) 0.8380(5)
C6 C 0.5410(5) 0.5449(2) 0.8112(4)
C7 C 0.2543(5) 0.4762(3) 0.6505(4)
C8 C 0.2011(6) 0.4207(3) 0.6189(5)
C9 C 0.1561(6) 0.5176(3) 0.6539(6)
C10 C 0.3280(6) 0.4935(3) 0.5642(5)
C11 C 0.2626(5) 0.4472(2) 0.8860(4)
C12 C 0.2206(5) 0.3942(3) 0.8822(5)
C13 C 0.1468(5) 0.3763(3) 0.9531(5)
C14 C 0.1156(5) 0.4109(3) 1.0283(5)
C15 C 0.1590(6) 0.4624(3) 1.0359(5)
C16 C 0.2312(6) 0.4809(3) 0.9637(5)
C17 C 0.5165(5) 0.3953(2) 0.8425(4)
C18 C 0.5246(5) 0.3376(2) 0.8098(4)
C19 C 0.5930(5) 0.3063(3) 0.9006(5)
C20 C 0.7180(5) 0.3198(3) 0.9041(4)
C21 C 0.7334(5) 0.3799(3) 0.9271(5)
C22 C 0.6419(5) 0.4173(2) 0.8660(4)
C23 C 0.8129(5) 0.4272(3) 0.7957(5)
C24 C 0.8637(6) 0.3956(3) 0.7117(6)
C25 C 0.8561(6) 0.4846(3) 0.8059(5)
C26 C 0.4468(5) 0.2529(3) 0.8192(5)
C27 C 0.4506(7) 0.2213(3) 0.7177(6)
C28 C 0.3619(7) 0.2301(3) 0.8869(7)
C29 C 0.8655(5) 0.2563(3) 0.9741(5)
C30 C 0.9250(5) 0.2346(2) 1.0774(4)
C31 C 0.8910(5) 0.1794(2) 1.2115(4)
C32 C 1.0202(5) 0.1824(3) 1.2032(5)
C33 C 1.0516(5) 0.2412(3) 1.2397(5)
C34 C 0.9875(5) 0.2771(3) 1.1520(5)
C35 C 1.0118(5) 0.1862(3) 1.0803(4)
C36 C 0.9605(6) 0.1358(3) 1.0235(5)
C37 C 1.1258(6) 0.2012(3) 1.0398(6)
C38 C 1.0932(6) 0.1383(3) 1.2609(5)
Si2 Si -0.1462(1) 0.53245(6) 1.3068(1)
O10 O -0.0583(3) 0.5832(2) 1.2856(3)
O11 O -0.0601(3) 0.6903(2) 1.3506(3)
O12 O 0.0449(3) 0.7361(2) 1.4877(3)
O13 O 0.3296(3) 0.6382(2) 1.3174(3)
O14 O 0.1862(3) 0.5793(2) 1.2417(3)
O15 O 0.3014(3) 0.7102(2) 1.4991(3)
O16 O 0.3136(6) 0.7933(2) 1.4283(4)
O17 O 0.4966(3) 0.7311(2) 1.6277(3)
O18 O 0.6610(4) 0.7270(2) 1.7410(4)
C39 C -0.2354(5) 0.5511(2) 1.4129(4)
C40 C -0.2789(5) 0.6039(3) 1.4142(5)
C41 C -0.3537(6) 0.6196(3) 1.4857(5)
C42 C -0.3866(6) 0.5828(3) 1.5556(5)
C43 C -0.3458(8) 0.5309(3) 1.5565(5)
C44 C -0.2701(6) 0.5147(3) 1.4851(5)
C45 C -0.0579(5) 0.4694(3) 1.3341(4)
C46 C 0.0551(5) 0.4689(3) 1.3039(5)
C47 C 0.1219(5) 0.4221(3) 1.3118(5)
C48 C 0.0812(6) 0.3747(3) 1.3497(5)
C49 C -0.0296(6) 0.3739(3) 1.3809(5)
C50 C -0.0968(5) 0.4204(3) 1.3727(5)
C51 C -0.2420(5) 0.5249(3) 1.1773(4)
C52 C -0.1647(9) 0.5114(3) 1.0910(5)
C53 C -0.3296(6) 0.4786(3) 1.1824(5)
C54 C -0.3065(6) 0.5777(3) 1.1461(5)
C55 C 0.0375(5) 0.6023(2) 1.3564(4)
C56 C 0.1358(5) 0.6210(2) 1.2971(4)
C57 C 0.2365(5) 0.6390(3) 1.3782(4)
C58 C 0.2080(5) 0.6930(3) 1.4191(4)
C59 C 0.1015(5) 0.6853(3) 1.4773(4)
C60 C 0.0028(5) 0.6515(3) 1.4190(4)
C61 C -0.0546(5) 0.7398(3) 1.4072(5)
C62 C -0.1594(6) 0.7492(3) 1.4613(6)
C63 C -0.0366(7) 0.7849(3) 1.3301(6)
C64 C 0.3097(5) 0.5943(3) 1.2453(5)
C65 C 0.3301(5) 0.6146(3) 1.1380(5)
C66 C 0.3811(6) 0.5457(3) 1.2811(6)
C67 C 0.3389(5) 0.7612(3) 1.4976(5)
C68 C 0.4117(6) 0.7743(3) 1.6012(4)
C69 C 0.5775(5) 0.7526(3) 1.7040(5)
C70 C 0.5387(5) 0.8092(3) 1.7270(5)
C71 C 0.4288(6) 0.7995(4) 1.7829(5)
C72 C 0.3386(5) 0.7754(3) 1.6937(5)
C73 C 0.4853(5) 0.8258(3) 1.6141(5)
C74 C 0.5766(5) 0.8286(3) 1.5365(5)
C75 C 0.4174(7) 0.8789(3) 1.6065(7)
C76 C 0.6319(7) 0.8436(4) 1.7901(8)
loop_
_geom_bond_atom_site_label_1
_geom_bond_atom_site_label_2
_geom_bond_site_symmetry_1
_geom_bond_site_symmetry_2
Si1 O1 1_555 1_555
Si2 O10 1_555 1_555
O1 C17 1_555 1_555
O2 C22 1_555 1_555
O3 C21 1_555 1_555
O4 C19 1_555 1_555
O5 C18 1_555 1_555
O6 C20 1_555 1_555
O7 C29 1_555 1_555
O8 C30 1_555 1_555
O9 C31 1_555 1_555
O10 C55 1_555 1_555
O11 C60 1_555 1_555
O12 C59 1_555 1_555
O13 C57 1_555 1_555
O14 C56 1_555 1_555
O15 C58 1_555 1_555
O16 C67 1_555 1_555
O17 C68 1_555 1_555
O18 C69 1_555 1_555
C1 Si1 1_555 1_555
C2 C1 1_555 1_555
C3 C2 1_555 1_555
C4 C3 1_555 1_555
C5 C4 1_555 1_555
C6 C1 1_555 1_555
C7 Si1 1_555 1_555
C8 C7 1_555 1_555
C9 C7 1_555 1_555
C10 C7 1_555 1_555
C11 Si1 1_555 1_555
C12 C11 1_555 1_555
C13 C12 1_555 1_555
C14 C13 1_555 1_555
C15 C14 1_555 1_555
C16 C11 1_555 1_555
C17 C18 1_555 1_555
C18 C19 1_555 1_555
C19 C20 1_555 1_555
C20 C21 1_555 1_555
C21 C22 1_555 1_555
C22 C17 1_555 1_555
C23 O2 1_555 1_555
C24 C23 1_555 1_555
C25 C23 1_555 1_555
C26 O4 1_555 1_555
C27 C26 1_555 1_555
C28 C26 1_555 1_555
C29 O6 1_555 1_555
C30 C29 1_555 1_555
C31 O8 1_555 1_555
C32 C31 1_555 1_555
C33 C32 1_555 1_555
C34 C30 1_555 1_555
C35 C30 1_555 1_555
C36 C35 1_555 1_555
C37 C35 1_555 1_555
C38 C32 1_555 1_555
C39 Si2 1_555 1_555
C40 C39 1_555 1_555
C41 C40 1_555 1_555
C42 C41 1_555 1_555
C43 C42 1_555 1_555
C44 C39 1_555 1_555
C45 Si2 1_555 1_555
C46 C45 1_555 1_555
C47 C46 1_555 1_555
C48 C47 1_555 1_555
C49 C48 1_555 1_555
C50 C45 1_555 1_555
C51 Si2 1_555 1_555
C52 C51 1_555 1_555
C53 C51 1_555 1_555
C54 C51 1_555 1_555
C55 C56 1_555 1_555
C56 C57 1_555 1_555
C57 C58 1_555 1_555
C58 C59 1_555 1_555
C59 C60 1_555 1_555
C60 C55 1_555 1_555
C61 O11 1_555 1_555
C62 C61 1_555 1_555
C63 C61 1_555 1_555
C64 O13 1_555 1_555
C65 C64 1_555 1_555
C66 C64 1_555 1_555
C67 O15 1_555 1_555
C68 C67 1_555 1_555
C69 O17 1_555 1_555
C70 C69 1_555 1_555
C71 C70 1_555 1_555
C72 C68 1_555 1_555
C73 C68 1_555 1_555
C74 C73 1_555 1_555
C75 C73 1_555 1_555
C76 C70 1_555 1_555
O3 C23 1_555 1_555
O5 C26 1_555 1_555
O12 C61 1_555 1_555
O14 C64 1_555 1_555
C5 C6 1_555 1_555
C15 C16 1_555 1_555
C32 C35 1_555 1_555
C33 C34 1_555 1_555
C43 C44 1_555 1_555
C49 C50 1_555 1_555
C70 C73 1_555 1_555
C71 C72 1_555 1_555

#END
