
#######################################################################
#
#                 Cambridge Crystallographic Data Centre
#                                CCDC 
#
#######################################################################
#
# If this CIF has been generated from an entry in the Cambridge 
# Structural Database, then it will include bibliographic, chemical, 
# crystal, experimental, refinement or atomic coordinate data resulting 
# from the CCDC's data processing and validation procedures.
#
#######################################################################

data_VELHIF
_chemical_formula_moiety         'C48 H32 B1 N3'
_chemical_name_systematic        
1,3,7,9-Tetraphenyl-5,5-bis(phenylethynyl)-5H-dipyrrolo[1,2-c:2',1'-f][1,3,5,2]triazaborinine
_symmetry_cell_setting           monoclinic
_symmetry_space_group_name_H-M   'P 21/n'
_symmetry_Int_Tables_number      14
_space_group_name_Hall           '-P 2yn'
loop_
_symmetry_equiv_pos_site_id
_symmetry_equiv_pos_as_xyz
1 x,y,z
2 1/2-x,1/2+y,1/2-z
3 -x,-y,-z
4 1/2+x,1/2-y,1/2+z
_cell_length_a                   11.4403(2)
_cell_length_b                   37.0303(6)
_cell_length_c                   16.9927(3)
_cell_angle_alpha                90
_cell_angle_beta                 90.756(2)
_cell_angle_gamma                90
_cell_volume                     7198.12
_cell_formula_units_Z            8
loop_
_atom_site_label
_atom_site_type_symbol
_atom_site_fract_x
_atom_site_fract_y
_atom_site_fract_z
C1 C -0.02727(19) 0.03550(6) 0.36190(12)
C2 C -0.1106(2) 0.00921(6) 0.38646(13)
C3 C -0.1253(2) -0.01329(7) 0.32276(14)
H1 H -0.1735 -0.0335 0.3210
C4 C -0.0563(2) -0.00093(6) 0.26114(13)
N1 N 0.02366(16) 0.06070(5) 0.40540(10)
N2 N 0.00360(15) 0.02877(5) 0.28433(10)
N3 N 0.15074(15) 0.07820(5) 0.30057(9)
C5 C 0.2458(2) 0.10026(6) 0.29677(13)
C6 C 0.2645(2) 0.11646(7) 0.37098(13)
H2 H 0.3244 0.1325 0.3834
C7 C 0.1810(2) 0.10487(6) 0.42171(13)
C8 C 0.1091(2) 0.08038(6) 0.37723(12)
B1 B 0.0873(2) 0.05348(7) 0.23645(14)
C9 C -0.1704(2) 0.00703(7) 0.46238(14)
C10 C -0.1415(3) 0.02792(10) 0.52521(16)
H3 H -0.0800 0.0442 0.5210
C11 C -0.2012(3) 0.02569(12) 0.59555(17)
H4 H -0.1802 0.0407 0.6372
C12 C -0.2880(3) 0.00227(11) 0.60389(19)
H5 H -0.3300 0.0014 0.6504
C13 C -0.3144(3) -0.02030(10) 0.5435(2)
H6 H -0.3730 -0.0375 0.5492
C14 C -0.2554(3) -0.01806(8) 0.47392(18)
H7 H -0.2739 -0.0341 0.4336
C15 C -0.0495(2) -0.01779(6) 0.18257(13)
C16 C -0.1066(2) -0.00342(7) 0.11828(15)
H8 H -0.1456 0.0185 0.1227
C17 C -0.1063(3) -0.02128(9) 0.04733(16)
H9 H -0.1459 -0.0115 0.0042
C18 C -0.0478(3) -0.05354(8) 0.03971(16)
H10 H -0.0484 -0.0656 -0.0083
C19 C 0.0110(2) -0.06771(7) 0.10302(17)
H11 H 0.0527 -0.0891 0.0978
C20 C 0.0086(2) -0.05035(7) 0.17407(15)
H12 H 0.0466 -0.0606 0.2174
C21 C 0.1721(2) 0.11281(6) 0.50631(14)
C22 C 0.2671(3) 0.12693(8) 0.54656(16)
H13 H 0.3354 0.1322 0.5198
C23 C 0.2613(4) 0.13335(10) 0.6267(2)
H14 H 0.3254 0.1432 0.6533
C24 C 0.1625(4) 0.12541(9) 0.66673(18)
H15 H 0.1599 0.1292 0.7208
C25 C 0.0675(3) 0.11191(8) 0.62784(16)
H16 H 0.0000 0.1065 0.6554
C26 C 0.0709(3) 0.10620(7) 0.54803(14)
H17 H 0.0046 0.0978 0.5217
C27 C 0.3187(2) 0.10799(6) 0.22847(13)
C28 C 0.4306(2) 0.12078(8) 0.24235(17)
H18 H 0.4588 0.1223 0.2938
C29 C 0.5010(3) 0.13132(10) 0.1815(2)
H19 H 0.5760 0.1398 0.1923
C30 C 0.4616(3) 0.12943(9) 0.10562(19)
H20 H 0.5087 0.1371 0.0647
C31 C 0.3522(2) 0.11623(7) 0.09024(15)
H21 H 0.3257 0.1143 0.0384
C32 C 0.2812(2) 0.10580(7) 0.15048(13)
H22 H 0.2066 0.0971 0.1390
C33 C 0.1813(2) 0.03015(6) 0.19228(12)
C34 C 0.2597(2) 0.01362(6) 0.16324(13)
C35 C 0.3606(2) -0.00427(6) 0.13214(14)
C36 C 0.4695(3) 0.00379(9) 0.16247(18)
H23 H 0.4770 0.0206 0.2029
C37 C 0.5676(3) -0.01286(10) 0.1334(2)
H24 H 0.6408 -0.0073 0.1546
C38 C 0.5582(3) -0.03748(9) 0.0738(2)
H25 H 0.6246 -0.0486 0.0542
C39 C 0.4515(3) -0.04561(7) 0.04352(18)
H26 H 0.4450 -0.0623 0.0027
C40 C 0.3526(2) -0.02950(7) 0.07241(15)
H27 H 0.2798 -0.0357 0.0516
C41 C 0.0123(2) 0.07914(6) 0.17958(12)
C42 C -0.0411(2) 0.09921(6) 0.13632(13)
C43 C -0.0991(2) 0.12297(6) 0.08132(12)
C44 C -0.0479(2) 0.15532(7) 0.05983(16)
H28 H 0.0228 0.1622 0.0829
C45 C -0.1008(3) 0.17742(9) 0.00435(19)
H29 H -0.0658 0.1992 -0.0093
C46 C -0.2035(3) 0.16766(11) -0.03033(18)
H30 H -0.2385 0.1825 -0.0679
C47 C -0.2553(3) 0.13575(11) -0.00958(17)
H31 H -0.3256 0.1290 -0.0333
C48 C -0.2045(2) 0.11365(8) 0.04584(15)
H32 H -0.2411 0.0922 0.0597
C49 C 0.37351(18) 0.33703(6) 0.94824(12)
C50 C 0.34470(19) 0.35852(6) 0.88036(13)
C51 C 0.4200(2) 0.34705(6) 0.82337(13)
H33 H 0.4242 0.3565 0.7728
C52 C 0.49011(18) 0.31877(6) 0.85333(12)
C53 C 0.50355(19) 0.29063(6) 1.14817(13)
C54 C 0.4331(2) 0.30924(6) 1.20151(13)
H34 H 0.4403 0.3083 1.2560
C55 C 0.35141(19) 0.32914(6) 1.16005(13)
C56 C 0.37625(18) 0.32291(6) 1.07942(13)
N4 N 0.33031(15) 0.34096(5) 1.01917(10)
N5 N 0.46276(14) 0.31293(4) 0.92951(10)
N6 N 0.46849(15) 0.29877(5) 1.07368(10)
B2 B 0.5105(2) 0.28452(7) 0.99155(14)
C57 C 0.2562(2) 0.38696(6) 0.87384(14)
C58 C 0.1775(3) 0.39428(11) 0.93185(18)
H35 H 0.1773 0.3800 0.9769
C59 C 0.0986(4) 0.42223(11) 0.9251(2)
H36 H 0.0477 0.4270 0.9660
C60 C 0.0943(3) 0.44286(9) 0.8595(2)
H37 H 0.0399 0.4614 0.8548
C61 C 0.1702(2) 0.43616(8) 0.80050(19)
H38 H 0.1684 0.4503 0.7552
C62 C 0.2501(2) 0.40831(7) 0.80789(16)
H39 H 0.3013 0.4039 0.7669
C63 C 0.57380(18) 0.29862(6) 0.80474(12)
C64 C 0.5940(2) 0.26199(6) 0.81088(14)
H40 H 0.5577 0.2488 0.8502
C65 C 0.6674(2) 0.24464(7) 0.75933(15)
H41 H 0.6788 0.2198 0.7636
C66 C 0.7239(2) 0.26376(8) 0.70166(15)
H42 H 0.7740 0.2520 0.6674
C67 C 0.7057(2) 0.30031(7) 0.69507(14)
H43 H 0.7443 0.3135 0.6567
C68 C 0.6302(2) 0.31749(7) 0.74528(13)
H44 H 0.6166 0.3421 0.7394
C69 C 0.2655(2) 0.35488(6) 1.19016(13)
C70 C 0.2864(3) 0.37331(8) 1.25917(15)
H45 H 0.3528 0.3677 1.2888
C71 C 0.2124(3) 0.39967(9) 1.28569(19)
H46 H 0.2292 0.4117 1.3325
C72 C 0.1148(3) 0.40821(9) 1.2436(2)
H47 H 0.0653 0.4264 1.2609
C73 C 0.0893(3) 0.38980(9) 1.1753(2)
H48 H 0.0219 0.3954 1.1466
C74 C 0.1635(2) 0.36288(8) 1.14885(16)
H49 H 0.1447 0.3502 1.1032
C75 C 0.6002(2) 0.26628(6) 1.16866(13)
C76 C 0.6795(2) 0.27745(7) 1.22591(14)
H50 H 0.6686 0.2993 1.2516
C77 C 0.7748(3) 0.25617(9) 1.24501(17)
H51 H 0.8289 0.2640 1.2825
C78 C 0.7898(3) 0.22354(9) 1.20891(17)
H52 H 0.8548 0.2094 1.2212
C79 C 0.7092(2) 0.21161(7) 1.15475(15)
H53 H 0.7181 0.1890 1.1316
C80 C 0.6155(2) 0.23281(7) 1.13439(14)
H54 H 0.5615 0.2246 1.0971
C81 C 0.44760(19) 0.24699(6) 0.97341(13)
C82 C 0.3994(2) 0.21962(6) 0.95468(13)
C83 C 0.3473(2) 0.18646(6) 0.92718(13)
C84 C 0.2297(2) 0.17927(7) 0.93715(16)
H55 H 0.1825 0.1960 0.9623
C85 C 0.1824(3) 0.14727(8) 0.90988(17)
H56 H 0.1034 0.1426 0.9170
C86 C 0.2504(3) 0.12244(8) 0.87261(15)
H57 H 0.2180 0.1008 0.8550
C87 C 0.3655(3) 0.12945(8) 0.86129(16)
H58 H 0.4115 0.1127 0.8350
C88 C 0.4146(2) 0.16107(7) 0.88847(15)
H59 H 0.4937 0.1655 0.8808
C89 C 0.6477(2) 0.28295(6) 0.98681(12)
C90 C 0.7515(2) 0.28275(6) 0.97860(13)
C91 C 0.8749(2) 0.28239(6) 0.96518(15)
C92 C 0.9545(2) 0.27836(8) 1.02639(18)
H60 H 0.9288 0.2764 1.0779
C93 C 1.0739(3) 0.27723(10) 1.0104(3)
H61 H 1.1277 0.2744 1.0514
C94 C 1.1122(3) 0.28031(10) 0.9351(3)
H62 H 1.1918 0.2795 0.9248
C95 C 1.0343(3) 0.28454(10) 0.8754(2)
H63 H 1.0606 0.2867 0.8241
C96 C 0.9164(2) 0.28575(8) 0.88971(18)
H64 H 0.8640 0.2889 0.8480
loop_
_geom_bond_atom_site_label_1
_geom_bond_atom_site_label_2
_geom_bond_site_symmetry_1
_geom_bond_site_symmetry_2
C1 C2 1_555 1_555
C2 C3 1_555 1_555
C3 H1 1_555 1_555
C4 C3 1_555 1_555
N1 C1 1_555 1_555
N2 C1 1_555 1_555
N3 C5 1_555 1_555
C5 C6 1_555 1_555
C6 H2 1_555 1_555
C7 C6 1_555 1_555
C8 N1 1_555 1_555
B1 N2 1_555 1_555
C9 C2 1_555 1_555
C10 C9 1_555 1_555
H3 C10 1_555 1_555
C11 C10 1_555 1_555
H4 C11 1_555 1_555
C12 C11 1_555 1_555
H5 C12 1_555 1_555
C13 C12 1_555 1_555
H6 C13 1_555 1_555
C14 C9 1_555 1_555
H7 C14 1_555 1_555
C15 C4 1_555 1_555
C16 C15 1_555 1_555
H8 C16 1_555 1_555
C17 C16 1_555 1_555
H9 C17 1_555 1_555
C18 C17 1_555 1_555
H10 C18 1_555 1_555
C19 C18 1_555 1_555
H11 C19 1_555 1_555
C20 C15 1_555 1_555
H12 C20 1_555 1_555
C21 C7 1_555 1_555
C22 C21 1_555 1_555
H13 C22 1_555 1_555
C23 C22 1_555 1_555
H14 C23 1_555 1_555
C24 C23 1_555 1_555
H15 C24 1_555 1_555
C25 C24 1_555 1_555
H16 C25 1_555 1_555
C26 C21 1_555 1_555
H17 C26 1_555 1_555
C27 C5 1_555 1_555
C28 C27 1_555 1_555
H18 C28 1_555 1_555
C29 C28 1_555 1_555
H19 C29 1_555 1_555
C30 C29 1_555 1_555
H20 C30 1_555 1_555
C31 C30 1_555 1_555
H21 C31 1_555 1_555
C32 C27 1_555 1_555
H22 C32 1_555 1_555
C33 B1 1_555 1_555
C34 C33 1_555 1_555
C35 C34 1_555 1_555
C36 C35 1_555 1_555
H23 C36 1_555 1_555
C37 C36 1_555 1_555
H24 C37 1_555 1_555
C38 C37 1_555 1_555
H25 C38 1_555 1_555
C39 C38 1_555 1_555
H26 C39 1_555 1_555
C40 C35 1_555 1_555
H27 C40 1_555 1_555
C41 B1 1_555 1_555
C42 C41 1_555 1_555
C43 C42 1_555 1_555
C44 C43 1_555 1_555
H28 C44 1_555 1_555
C45 C44 1_555 1_555
H29 C45 1_555 1_555
C46 C45 1_555 1_555
H30 C46 1_555 1_555
C47 C46 1_555 1_555
H31 C47 1_555 1_555
C48 C43 1_555 1_555
H32 C48 1_555 1_555
C49 C50 1_555 1_555
C50 C51 1_555 1_555
C51 H33 1_555 1_555
C52 C51 1_555 1_555
C53 C54 1_555 1_555
C54 H34 1_555 1_555
C55 C54 1_555 1_555
C56 C55 1_555 1_555
N4 C49 1_555 1_555
N5 C49 1_555 1_555
N6 C53 1_555 1_555
B2 N5 1_555 1_555
C57 C50 1_555 1_555
C58 C57 1_555 1_555
H35 C58 1_555 1_555
C59 C58 1_555 1_555
H36 C59 1_555 1_555
C60 C59 1_555 1_555
H37 C60 1_555 1_555
C61 C60 1_555 1_555
H38 C61 1_555 1_555
C62 C57 1_555 1_555
H39 C62 1_555 1_555
C63 C52 1_555 1_555
C64 C63 1_555 1_555
H40 C64 1_555 1_555
C65 C64 1_555 1_555
H41 C65 1_555 1_555
C66 C65 1_555 1_555
H42 C66 1_555 1_555
C67 C66 1_555 1_555
H43 C67 1_555 1_555
C68 C63 1_555 1_555
H44 C68 1_555 1_555
C69 C55 1_555 1_555
C70 C69 1_555 1_555
H45 C70 1_555 1_555
C71 C70 1_555 1_555
H46 C71 1_555 1_555
C72 C71 1_555 1_555
H47 C72 1_555 1_555
C73 C72 1_555 1_555
H48 C73 1_555 1_555
C74 C69 1_555 1_555
H49 C74 1_555 1_555
C75 C53 1_555 1_555
C76 C75 1_555 1_555
H50 C76 1_555 1_555
C77 C76 1_555 1_555
H51 C77 1_555 1_555
C78 C77 1_555 1_555
H52 C78 1_555 1_555
C79 C78 1_555 1_555
H53 C79 1_555 1_555
C80 C75 1_555 1_555
H54 C80 1_555 1_555
C81 B2 1_555 1_555
C82 C81 1_555 1_555
C83 C82 1_555 1_555
C84 C83 1_555 1_555
H55 C84 1_555 1_555
C85 C84 1_555 1_555
H56 C85 1_555 1_555
C86 C85 1_555 1_555
H57 C86 1_555 1_555
C87 C86 1_555 1_555
H58 C87 1_555 1_555
C88 C83 1_555 1_555
H59 C88 1_555 1_555
C89 B2 1_555 1_555
C90 C89 1_555 1_555
C91 C90 1_555 1_555
C92 C91 1_555 1_555
H60 C92 1_555 1_555
C93 C92 1_555 1_555
H61 C93 1_555 1_555
C94 C93 1_555 1_555
H62 C94 1_555 1_555
C95 C94 1_555 1_555
H63 C95 1_555 1_555
C96 C91 1_555 1_555
H64 C96 1_555 1_555
C4 N2 1_555 1_555
N3 C8 1_555 1_555
N3 B1 1_555 1_555
C7 C8 1_555 1_555
C13 C14 1_555 1_555
C19 C20 1_555 1_555
C25 C26 1_555 1_555
C31 C32 1_555 1_555
C39 C40 1_555 1_555
C47 C48 1_555 1_555
C52 N5 1_555 1_555
C56 N4 1_555 1_555
C56 N6 1_555 1_555
N6 B2 1_555 1_555
C61 C62 1_555 1_555
C67 C68 1_555 1_555
C73 C74 1_555 1_555
C79 C80 1_555 1_555
C87 C88 1_555 1_555
C95 C96 1_555 1_555

#END
