
#######################################################################
#
#                 Cambridge Crystallographic Data Centre
#                                CCDC 
#
#######################################################################
#
# If this CIF has been generated from an entry in the Cambridge 
# Structural Database, then it will include bibliographic, chemical, 
# crystal, experimental, refinement or atomic coordinate data resulting 
# from the CCDC's data processing and validation procedures.
#
#######################################################################

data_VELLEE
_chemical_formula_moiety         'C14 H18 N6'
_chemical_name_systematic        1,6-Diazidodiamantane
_symmetry_cell_setting           triclinic
_symmetry_space_group_name_H-M   'P -1'
_symmetry_Int_Tables_number      2
_space_group_name_Hall           '-P 1'
loop_
_symmetry_equiv_pos_site_id
_symmetry_equiv_pos_as_xyz
1 x,y,z
2 -x,-y,-z
_cell_length_a                   6.574(9)
_cell_length_b                   7.036(9)
_cell_length_c                   7.478(10)
_cell_angle_alpha                76.36(2)
_cell_angle_beta                 67.78(2)
_cell_angle_gamma                77.75(2)
_cell_volume                     308.253
_exptl_crystal_colour            colorless
_exptl_crystal_description       block
_chemical_melting_point          '362 K'
_cell_formula_units_Z            1
_exptl_crystal_recrystallization_method dichloromethane
loop_
_atom_site_label
_atom_site_type_symbol
_atom_site_fract_x
_atom_site_fract_y
_atom_site_fract_z
N1 N 0.2562(4) 0.1679(4) 0.2526(4)
N2 N 0.2409(4) 0.3394(5) 0.1794(4)
N3 N 0.2209(7) 0.4919(6) 0.0994(5)
C1 C 0.3438(4) 0.1177(4) 0.4136(4)
C2 C 0.3428(4) -0.1005(4) 0.4827(4)
H1 H 0.1907 -0.1301 0.5250
C3 C 0.4895(5) -0.2126(5) 0.3193(4)
H2 H 0.4865 -0.3532 0.3652
H3 H 0.4356 -0.1741 0.2100
C4 C 0.7255(5) 0.0489(5) 0.1835(4)
H4 H 0.8762 0.0776 0.1421
H5 H 0.6759 0.0903 0.0717
C5 C 0.5779(4) 0.1592(4) 0.3446(4)
H6 H 0.5811 0.3011 0.2963
C6 C 0.1982(5) 0.2285(5) 0.5766(4)
H7 H 0.1989 0.3693 0.5299
H8 H 0.0469 0.2012 0.6187
C7 C 0.7198(5) -0.1677(5) 0.2548(4)
H9 H 0.8158 -0.2401 0.1489
N1A N 0.7438(4) -0.1679(4) 0.7474(4)
N2A N 0.7591(4) -0.3394(5) 0.8206(4)
N3A N 0.7791(7) -0.4919(6) 0.9006(5)
C1A C 0.6562(4) -0.1177(4) 0.5864(4)
C2A C 0.6572(4) 0.1005(4) 0.5173(4)
H1A H 0.8093 0.1301 0.4750
C3A C 0.5105(5) 0.2126(5) 0.6807(4)
H2A H 0.5135 0.3532 0.6348
H3A H 0.5644 0.1741 0.7900
C4A C 0.2745(5) -0.0489(5) 0.8165(4)
H4A H 0.1238 -0.0776 0.8579
H5A H 0.3241 -0.0903 0.9283
C5A C 0.4221(4) -0.1592(4) 0.6554(4)
H6A H 0.4189 -0.3011 0.7037
C6A C 0.8018(5) -0.2285(5) 0.4234(4)
H7A H 0.8011 -0.3693 0.4701
H8A H 0.9531 -0.2012 0.3813
C7A C 0.2802(5) 0.1677(5) 0.7452(4)
H9A H 0.1842 0.2401 0.8511
loop_
_geom_bond_atom_site_label_1
_geom_bond_atom_site_label_2
_geom_bond_site_symmetry_1
_geom_bond_site_symmetry_2
N1 N2 1_555 1_555
N2 N3 1_555 1_555
C1 N1 1_555 1_555
C2 C1 1_555 1_555
H1 C2 1_555 1_555
C3 C2 1_555 1_555
H2 C3 1_555 1_555
H3 C3 1_555 1_555
C4 H4 1_555 1_555
H5 C4 1_555 1_555
C5 C1 1_555 1_555
H6 C5 1_555 1_555
C6 C1 1_555 1_555
H7 C6 1_555 1_555
H8 C6 1_555 1_555
C7 C3 1_555 1_555
H9 C7 1_555 1_555
N1A N2A 1_555 1_555
N2A N3A 1_555 1_555
C1A N1A 1_555 1_555
C2A C5 1_555 1_555
H1A C2A 1_555 1_555
C3A C2A 1_555 1_555
H2A C3A 1_555 1_555
H3A C3A 1_555 1_555
C4A H4A 1_555 1_555
H5A C4A 1_555 1_555
C5A C2 1_555 1_555
H6A C5A 1_555 1_555
C6A C7 1_555 1_555
H7A C6A 1_555 1_555
H8A C6A 1_555 1_555
C7A C6 1_555 1_555
H9A C7A 1_555 1_555
C4 C5 1_555 1_555
C4 C7 1_555 1_555
C1A C2A 1_555 1_555
C1A C5A 1_555 1_555
C1A C6A 1_555 1_555
C3A C7A 1_555 1_555
C4A C5A 1_555 1_555
C4A C7A 1_555 1_555

#END
