
#######################################################################
#
#                 Cambridge Crystallographic Data Centre
#                                CCDC 
#
#######################################################################
#
# If this CIF has been generated from an entry in the Cambridge 
# Structural Database, then it will include bibliographic, chemical, 
# crystal, experimental, refinement or atomic coordinate data resulting 
# from the CCDC's data processing and validation procedures.
#
#######################################################################

data_VELLUW
_chemical_formula_moiety         'C12 H28 N1 1+,C1 H1 O3 1-'
_chemical_name_systematic        'tetrapropylammonium hydrogen carbonate'
_symmetry_cell_setting           monoclinic
_symmetry_space_group_name_H-M   'P 21/n'
_symmetry_Int_Tables_number      14
_space_group_name_Hall           '-P 2yn'
loop_
_symmetry_equiv_pos_site_id
_symmetry_equiv_pos_as_xyz
1 x,y,z
2 1/2-x,1/2+y,1/2-z
3 -x,-y,-z
4 1/2+x,1/2-y,1/2+z
_cell_length_a                   8.9493(3)
_cell_length_b                   15.2470(7)
_cell_length_c                   11.3846(5)
_cell_angle_alpha                90
_cell_angle_beta                 93.824(3)
_cell_angle_gamma                90
_cell_volume                     1549.97
_exptl_crystal_colour            colorless
_exptl_crystal_description       block
_cell_formula_units_Z            4
loop_
_atom_site_label
_atom_site_type_symbol
_atom_site_fract_x
_atom_site_fract_y
_atom_site_fract_z
N1 N 0.43982(12) 0.18151(8) 0.33509(11)
C1 C 0.48567(17) 0.27684(10) 0.34774(15)
H1 H 0.4658 0.3054 0.2722
H2 H 0.4225 0.3046 0.4030
C2 C 0.6472(2) 0.29346(13) 0.38875(19)
H3 H 0.7126 0.2707 0.3314
H4 H 0.6708 0.2638 0.4630
C3 C 0.6715(3) 0.39138(14) 0.4038(2)
H5 H 0.7740 0.4023 0.4298
H6 H 0.6488 0.4203 0.3298
H7 H 0.6071 0.4134 0.4611
C4 C 0.46433(16) 0.13174(11) 0.45125(14)
H8 H 0.4263 0.0726 0.4394
H9 H 0.5713 0.1273 0.4705
C5 C 0.3934(2) 0.17040(13) 0.55533(16)
H10 H 0.2855 0.1724 0.5401
H11 H 0.4293 0.2298 0.5689
C6 C 0.4331(2) 0.11458(15) 0.66253(17)
H12 H 0.3880 0.1390 0.7294
H13 H 0.3965 0.0560 0.6488
H14 H 0.5399 0.1132 0.6775
C7 C 0.53310(17) 0.13477(11) 0.24813(15)
H15 H 0.6359 0.1326 0.2809
H16 H 0.4978 0.0748 0.2403
C8 C 0.5321(2) 0.17463(13) 0.12693(17)
H17 H 0.5742 0.2332 0.1321
H18 H 0.4299 0.1791 0.0933
C9 C 0.6232(2) 0.11812(15) 0.04851(19)
H19 H 0.6221 0.1438 -0.0285
H20 H 0.7245 0.1144 0.0816
H21 H 0.5805 0.0604 0.0429
C10 C 0.27477(16) 0.18265(12) 0.29347(15)
H22 H 0.2200 0.2107 0.3539
H23 H 0.2632 0.2191 0.2236
C11 C 0.2029(2) 0.09566(14) 0.2654(2)
H24 H 0.2207 0.0561 0.3315
H25 H 0.2460 0.0699 0.1975
C12 C 0.0357(2) 0.10865(19) 0.2398(2)
H26 H -0.0107 0.0531 0.2217
H27 H -0.0065 0.1336 0.3075
H28 H 0.0188 0.1475 0.1738
O1 O 0.79934(13) 0.15561(9) 0.59696(12)
C13 C 0.87660(16) 0.09700(10) 0.55733(13)
O2 O 1.01890(12) 0.09122(9) 0.59053(12)
H29 H 1.068(3) 0.0488(12) 0.559(2)
O3 O 0.82120(12) 0.03938(9) 0.48362(11)
loop_
_geom_bond_atom_site_label_1
_geom_bond_atom_site_label_2
_geom_bond_site_symmetry_1
_geom_bond_site_symmetry_2
N1 C1 1_555 1_555
C1 H1 1_555 1_555
H2 C1 1_555 1_555
C2 C1 1_555 1_555
H3 C2 1_555 1_555
H4 C2 1_555 1_555
C3 C2 1_555 1_555
H5 C3 1_555 1_555
H6 C3 1_555 1_555
H7 C3 1_555 1_555
C4 N1 1_555 1_555
H8 C4 1_555 1_555
H9 C4 1_555 1_555
C5 C4 1_555 1_555
H10 C5 1_555 1_555
H11 C5 1_555 1_555
C6 C5 1_555 1_555
H12 C6 1_555 1_555
H13 C6 1_555 1_555
H14 C6 1_555 1_555
C7 N1 1_555 1_555
H15 C7 1_555 1_555
H16 C7 1_555 1_555
C8 C7 1_555 1_555
H17 C8 1_555 1_555
H18 C8 1_555 1_555
C9 C8 1_555 1_555
H19 C9 1_555 1_555
H20 C9 1_555 1_555
H21 C9 1_555 1_555
C10 N1 1_555 1_555
H22 C10 1_555 1_555
H23 C10 1_555 1_555
C11 C10 1_555 1_555
H24 C11 1_555 1_555
H25 C11 1_555 1_555
C12 C11 1_555 1_555
H26 C12 1_555 1_555
H27 C12 1_555 1_555
H28 C12 1_555 1_555
O1 C13 1_555 1_555
C13 O2 1_555 1_555
O2 H29 1_555 1_555
O3 C13 1_555 1_555

#END
