
#######################################################################
#
#                 Cambridge Crystallographic Data Centre
#                                CCDC 
#
#######################################################################
#
# If this CIF has been generated from an entry in the Cambridge 
# Structural Database, then it will include bibliographic, chemical, 
# crystal, experimental, refinement or atomic coordinate data resulting 
# from the CCDC's data processing and validation procedures.
#
#######################################################################

data_VELNOR
_chemical_formula_moiety         'C16 H8 N4 O1'
_chemical_name_systematic        
12H-Pyrazino[2',3':3,4]pyrrolo[1,2-a]perimidin-12-one
_symmetry_cell_setting           monoclinic
_symmetry_space_group_name_H-M   'P 21/n'
_symmetry_Int_Tables_number      14
_space_group_name_Hall           '-P 2yn'
loop_
_symmetry_equiv_pos_site_id
_symmetry_equiv_pos_as_xyz
1 x,y,z
2 1/2-x,1/2+y,1/2-z
3 -x,-y,-z
4 1/2+x,1/2-y,1/2+z
_cell_length_a                   6.8721(2)
_cell_length_b                   20.4712(7)
_cell_length_c                   8.5785(3)
_cell_angle_alpha                90
_cell_angle_beta                 108.894(2)
_cell_angle_gamma                90
_cell_volume                     1141.8
_exptl_crystal_colour            orange
_exptl_crystal_description       plate
_cell_formula_units_Z            4
loop_
_atom_site_label
_atom_site_type_symbol
_atom_site_fract_x
_atom_site_fract_y
_atom_site_fract_z
C1 C 0.3491(3) 0.38337(11) -0.2667(3)
H1 H 0.3457 0.3937 -0.3755
C2 C 0.3597(3) 0.43502(11) -0.1564(3)
H2 H 0.3654 0.4784 -0.1941
C3 C 0.3563(3) 0.36341(10) 0.0374(2)
C4 C 0.3480(3) 0.31249(10) -0.0708(3)
C5 C 0.3477(3) 0.25064(10) 0.0155(2)
C6 C 0.3577(3) 0.33635(10) 0.1994(3)
C7 C 0.3537(3) 0.21832(10) 0.2915(2)
C8 C 0.3604(3) 0.23021(11) 0.4511(2)
H3 H 0.3647 0.2737 0.4906
C9 C 0.3608(3) 0.17684(11) 0.5550(3)
H4 H 0.3669 0.1848 0.6656
C10 C 0.3527(3) 0.11388(11) 0.4998(3)
H5 H 0.3542 0.0788 0.5727
C11 C 0.3420(3) 0.10034(10) 0.3350(3)
C12 C 0.3260(3) 0.03626(11) 0.2694(3)
H6 H 0.3234 0.0000 0.3379
C13 C 0.3140(3) 0.02577(11) 0.1087(3)
H7 H 0.3017 -0.0175 0.0668
C14 C 0.3198(3) 0.07851(10) 0.0056(3)
H8 H 0.3138 0.0706 -0.1050
C15 C 0.3341(3) 0.14124(10) 0.0633(3)
C16 C 0.3437(3) 0.15357(10) 0.2295(2)
N1 N 0.3434(2) 0.32060(9) -0.2267(2)
N2 N 0.3622(2) 0.42644(8) -0.0016(2)
N3 N 0.3564(2) 0.26813(8) 0.1774(2)
N4 N 0.3370(2) 0.19309(8) -0.0433(2)
O1 O 0.3572(2) 0.36499(7) 0.32268(18)
loop_
_geom_bond_atom_site_label_1
_geom_bond_atom_site_label_2
_geom_bond_site_symmetry_1
_geom_bond_site_symmetry_2
C1 H1 1_555 1_555
C2 C1 1_555 1_555
H2 C2 1_555 1_555
C3 C4 1_555 1_555
C4 C5 1_555 1_555
C5 N3 1_555 1_555
C6 C3 1_555 1_555
C7 C8 1_555 1_555
C8 H3 1_555 1_555
C9 C8 1_555 1_555
H4 C9 1_555 1_555
C10 C9 1_555 1_555
H5 C10 1_555 1_555
C11 C10 1_555 1_555
C12 C11 1_555 1_555
H6 C12 1_555 1_555
C13 C12 1_555 1_555
H7 C13 1_555 1_555
C14 C13 1_555 1_555
H8 C14 1_555 1_555
C15 C14 1_555 1_555
C16 C7 1_555 1_555
N1 C1 1_555 1_555
N2 C2 1_555 1_555
N3 C6 1_555 1_555
N4 C5 1_555 1_555
O1 C6 1_555 1_555
C3 N2 1_555 1_555
C4 N1 1_555 1_555
C7 N3 1_555 1_555
C11 C16 1_555 1_555
C15 C16 1_555 1_555
C15 N4 1_555 1_555

#END
