
#######################################################################
#
#                 Cambridge Crystallographic Data Centre
#                                CCDC 
#
#######################################################################
#
# If this CIF has been generated from an entry in the Cambridge 
# Structural Database, then it will include bibliographic, chemical, 
# crystal, experimental, refinement or atomic coordinate data resulting 
# from the CCDC's data processing and validation procedures.
#
#######################################################################

data_VELQAH
_chemical_name_common            
'(E)-1-(4-(((E)-5-bromo-2-hydroxybenzylidene)amino)phenyl)ethan-1-one O-methyl oxime'
_chemical_formula_moiety         'C16 H15 Br1 N2 O2'
_chemical_name_systematic        
(E,E)-4-bromo-2-({[4-(N-methoxyethanimidoyl)phenyl]imino}methyl)phenol
_symmetry_cell_setting           monoclinic
_symmetry_space_group_name_H-M   'P 21/c'
_symmetry_Int_Tables_number      14
_space_group_name_Hall           '-P 2ybc'
loop_
_symmetry_equiv_pos_site_id
_symmetry_equiv_pos_as_xyz
1 x,y,z
2 -x,1/2+y,1/2-z
3 -x,-y,-z
4 x,1/2-y,1/2+z
_cell_length_a                   33.758(5)
_cell_length_b                   7.1117(16)
_cell_length_c                   6.2194(9)
_cell_angle_alpha                90
_cell_angle_beta                 92.133(13)
_cell_angle_gamma                90
_cell_volume                     1492.1
_exptl_crystal_colour            'light brown'
_exptl_crystal_description       block
_cell_formula_units_Z            4
loop_
_atom_site_label
_atom_site_type_symbol
_atom_site_fract_x
_atom_site_fract_y
_atom_site_fract_z
Br1 Br 0.46279(2) 0.43180(11) 0.17957(12)
O1 O 0.32194(14) 0.5708(7) 0.7240(7)
H1 H 0.3013 0.5389 0.6608
O2 O 0.05409(13) 0.4841(9) 0.0988(9)
N1 N 0.27678(13) 0.4888(7) 0.3901(7)
N2 N 0.09310(15) 0.4773(9) 0.1846(10)
C1 C 0.35282(17) 0.5387(8) 0.5967(9)
C2 C 0.39104(19) 0.5687(7) 0.6813(9)
H2 H 0.3948 0.6108 0.8222
C3 C 0.42321(18) 0.5366(8) 0.5586(10)
H3 H 0.4486 0.5589 0.6156
C4 C 0.41794(16) 0.4712(8) 0.3505(9)
C5 C 0.38047(16) 0.4412(7) 0.2619(9)
H4 H 0.3773 0.3977 0.1213
C6 C 0.34726(16) 0.4761(7) 0.3825(8)
C7 C 0.30779(16) 0.4581(7) 0.2833(9)
H5 H 0.3050 0.4236 0.1393
C8 C 0.23878(15) 0.4887(7) 0.2919(9)
C9 C 0.22995(17) 0.5684(7) 0.0888(9)
H6 H 0.2502 0.6179 0.0089
C10 C 0.19115(18) 0.5734(8) 0.0068(10)
H7 H 0.1856 0.6267 -0.1276
C11 C 0.16042(16) 0.4996(7) 0.1239(9)
C12 C 0.16946(17) 0.4203(7) 0.3248(10)
H8 H 0.1493 0.3678 0.4033
C13 C 0.20782(17) 0.4188(7) 0.4086(9)
H9 H 0.2130 0.3701 0.5455
C14 C 0.11869(17) 0.5043(9) 0.0416(10)
C15 C 0.1080(2) 0.5419(12) -0.1910(12)
H10 H 0.0962 0.4315 -0.2547
H11 H 0.1315 0.5739 -0.2654
H12 H 0.0895 0.6445 -0.2015
C16 C 0.0286(2) 0.4616(18) 0.2777(16)
H13 H 0.0015 0.4532 0.2253
H14 H 0.0315 0.5677 0.3723
H15 H 0.0356 0.3487 0.3547
loop_
_geom_bond_atom_site_label_1
_geom_bond_atom_site_label_2
_geom_bond_site_symmetry_1
_geom_bond_site_symmetry_2
Br1 C4 1_555 1_555
O1 H1 1_555 1_555
O2 N2 1_555 1_555
N1 C7 1_555 1_555
N2 C14 1_555 1_555
C1 O1 1_555 1_555
C2 C1 1_555 1_555
H2 C2 1_555 1_555
C3 C2 1_555 1_555
H3 C3 1_555 1_555
C4 C3 1_555 1_555
C5 C4 1_555 1_555
H4 C5 1_555 1_555
C6 C1 1_555 1_555
C7 C6 1_555 1_555
H5 C7 1_555 1_555
C8 N1 1_555 1_555
C9 C8 1_555 1_555
H6 C9 1_555 1_555
C10 C9 1_555 1_555
H7 C10 1_555 1_555
C11 C10 1_555 1_555
C12 C11 1_555 1_555
H8 C12 1_555 1_555
C13 C8 1_555 1_555
H9 C13 1_555 1_555
C14 C11 1_555 1_555
C15 C14 1_555 1_555
H10 C15 1_555 1_555
H11 C15 1_555 1_555
H12 C15 1_555 1_555
C16 O2 1_555 1_555
H13 C16 1_555 1_555
H14 C16 1_555 1_555
H15 C16 1_555 1_555
C5 C6 1_555 1_555
C12 C13 1_555 1_555

#END
