
#######################################################################
#
#                 Cambridge Crystallographic Data Centre
#                                CCDC 
#
#######################################################################
#
# If this CIF has been generated from an entry in the Cambridge 
# Structural Database, then it will include bibliographic, chemical, 
# crystal, experimental, refinement or atomic coordinate data resulting 
# from the CCDC's data processing and validation procedures.
#
#######################################################################

data_VELQIN
_chemical_formula_moiety         'C52 H40 O12,8(C3 H7 N1 O1)'
_chemical_name_systematic        
'2,8,14,20-Tetraphenylpyrogallol(4)arene dimethylformamide solvate'
_symmetry_cell_setting           triclinic
_symmetry_space_group_name_H-M   'P -1'
_symmetry_Int_Tables_number      2
_space_group_name_Hall           '-P 1'
loop_
_symmetry_equiv_pos_site_id
_symmetry_equiv_pos_as_xyz
1 x,y,z
2 -x,-y,-z
_cell_length_a                   12.199(4)
_cell_length_b                   12.397(4)
_cell_length_c                   13.712(4)
_cell_angle_alpha                105.282(5)
_cell_angle_beta                 101.099(5)
_cell_angle_gamma                106.854(5)
_cell_volume                     1831.41
_exptl_crystal_colour            colorless
_exptl_crystal_description       plate
_chemical_melting_point          '632-633 K'
_cell_formula_units_Z            1
_exptl_crystal_recrystallization_method 'diethyl ether/dmf'
loop_
_atom_site_label
_atom_site_type_symbol
_atom_site_fract_x
_atom_site_fract_y
_atom_site_fract_z
O1 O 0.31161(14) -0.04065(14) 0.60839(14)
N1 N 0.25617(16) 0.12137(17) 0.64951(15)
C1 C 0.33408(19) 0.0673(2) 0.65680(18)
H1 H 0.4129 0.1137 0.7021
C2 C 0.1351(2) 0.0559(2) 0.5769(2)
H2 H 0.1387 0.0385 0.5038
H3 H 0.0855 0.1049 0.5891
H4 H 0.1000 -0.0194 0.5891
C3 C 0.2873(2) 0.2479(2) 0.70856(19)
H5 H 0.3732 0.2839 0.7456
H6 H 0.2419 0.2557 0.7601
H7 H 0.2676 0.2892 0.6596
O2 O 0.3715(3) 0.2357(4) 0.4735(4)
C4 C 0.3017(3) 0.2879(3) 0.4568(2)
H8 H 0.2300 0.2649 0.4762
N2 N 0.3185(2) 0.3742(2) 0.41351(19)
C5 C 0.2340(3) 0.4366(3) 0.4046(3)
H9 H 0.1650 0.3985 0.4263
H10 H 0.2069 0.4324 0.3312
H11 H 0.2735 0.5207 0.4504
C6 C 0.4232(3) 0.4124(3) 0.3775(3)
H12 H 0.4823 0.3801 0.4046
H13 H 0.4584 0.5001 0.4035
H14 H 0.3995 0.3826 0.3000
O3 O 0.74920(14) 0.90029(14) 0.89433(13)
N3 N 0.67255(15) 0.96148(16) 0.76250(14)
C7 C 0.76129(19) 0.96283(19) 0.83541(17)
H15 H 0.8398 1.0146 0.8441
C8 C 0.54917(19) 0.8842(2) 0.74269(19)
H16 H 0.5196 0.8268 0.6704
H17 H 0.4991 0.9332 0.7514
H18 H 0.5458 0.8408 0.7930
C9 C 0.6923(2) 1.0345(2) 0.69487(19)
H19 H 0.7775 1.0835 0.7154
H20 H 0.6456 1.0869 0.7029
H21 H 0.6670 0.9821 0.6210
O4 O -0.02849(16) 0.91253(15) 0.72569(14)
N4 N 0.08930(17) 0.84605(17) 0.82835(16)
C10 C -0.0153(2) 0.8451(2) 0.77530(19)
H22 H -0.0858 0.7872 0.7758
C11 C 0.2020(2) 0.9313(2) 0.8325(2)
H23 H 0.1864 0.9800 0.7895
H24 H 0.2513 0.8879 0.8050
H25 H 0.2444 0.9834 0.9059
C12 C 0.0940(2) 0.7637(2) 0.8862(2)
H26 H 0.1253 0.8087 0.9622
H27 H 0.1466 0.7213 0.8648
H28 H 0.0133 0.7055 0.8705
C13 C 0.66115(19) 0.25181(19) 0.91647(17)
H29 H 0.7288 0.2446 0.8946
C14 C 0.5985(2) 0.1667(2) 0.95465(19)
H30 H 0.6243 0.1024 0.9593
C15 C 0.4998(2) 0.1754(2) 0.98562(19)
H31 H 0.4573 0.1171 1.0113
C16 C 0.4623(2) 0.2699(2) 0.9792(2)
H32 H 0.3942 0.2763 1.0006
C17 C 0.52493(19) 0.3549(2) 0.94137(19)
H33 H 0.4987 0.4189 0.9368
C18 C 0.62514(17) 0.34758(19) 0.91011(16)
C19 C 0.69330(17) 0.44472(17) 0.87167(16)
H34 H 0.6328 0.4737 0.8378
C20 C 0.74507(17) 0.39330(17) 0.78589(16)
C21 C 0.66703(16) 0.32301(17) 0.68478(16)
C22 C 0.70693(17) 0.26725(17) 0.60476(16)
C23 C 0.82808(17) 0.28056(17) 0.62340(15)
C24 C 0.90828(16) 0.35043(17) 0.72367(16)
C25 C 0.86555(17) 0.40571(17) 0.80272(16)
H35 H 0.9204 0.4535 0.8705
C26 C 1.23977(18) 0.51700(19) 0.75398(17)
H36 H 1.2799 0.4829 0.7968
C27 C 1.3062(2) 0.6099(2) 0.72625(18)
H37 H 1.3912 0.6391 0.7510
C28 C 1.2499(2) 0.6601(2) 0.66308(19)
H38 H 1.2957 0.7234 0.6443
C29 C 1.1258(2) 0.6171(2) 0.62755(19)
H39 H 1.0863 0.6507 0.5838
C30 C 1.05914(19) 0.5250(2) 0.65568(18)
H40 H 0.9742 0.4966 0.6310
C31 C 1.11444(17) 0.47313(18) 0.71952(16)
C32 C 1.04044(16) 0.36534(17) 0.74297(15)
H41 H 1.0418 0.2932 0.6898
C33 C 1.09230(16) 0.35832(17) 0.85051(15)
C34 C 1.06900(16) 0.24441(17) 0.85955(16)
C35 C 1.11424(17) 0.23081(18) 0.95522(17)
C36 C 1.18962(17) 0.33193(18) 1.04200(16)
C37 C 0.78371(17) 0.55274(18) 0.96483(16)
C38 C 1.16358(17) 0.45734(18) 0.93973(16)
H42 H 1.1769 0.5352 0.9355
O5 O 0.54856(12) 0.30995(14) 0.66641(12)
H43 H 0.5127 0.2738 0.6018
O6 O 0.62121(12) 0.20383(14) 0.50824(11)
H44 H 0.6411 0.1496 0.4738
O7 O 0.87216(12) 0.22918(13) 0.54627(11)
H45 H 0.8160 0.1714 0.4986
O8 O 1.00058(13) 0.14664(13) 0.77173(12)
H46 H 1.0080 0.0846 0.7814
O9 O 1.07824(13) 0.11569(13) 0.95740(12)
H47 H 1.1297 0.1102 1.0044
O10 O 1.23926(14) 0.32294(14) 1.13777(11)
H48 H 1.2480 0.2565 1.1273
C13A C 1.33885(19) 0.74819(19) 1.08353(17)
H29A H 1.2712 0.7554 1.1054
C14A C 1.4015(2) 0.8333(2) 1.04535(19)
H30A H 1.3757 0.8976 1.0407
C15A C 1.5002(2) 0.8246(2) 1.01438(19)
H31A H 1.5427 0.8829 0.9887
C16A C 1.5377(2) 0.7301(2) 1.0208(2)
H32A H 1.6058 0.7237 0.9994
C17A C 1.47507(19) 0.6451(2) 1.05863(19)
H33A H 1.5013 0.5811 1.0632
C18A C 1.37486(17) 0.65242(19) 1.08989(16)
C19A C 1.30670(17) 0.55528(17) 1.12833(16)
H34A H 1.3672 0.5263 1.1622
C20A C 1.25493(17) 0.60670(17) 1.21411(16)
C21A C 1.33297(16) 0.67699(17) 1.31522(16)
C22A C 1.29307(17) 0.73275(17) 1.39524(16)
C23A C 1.17192(17) 0.71944(17) 1.37660(15)
C24A C 1.09172(16) 0.64957(17) 1.27633(16)
C25A C 1.13445(17) 0.59429(17) 1.19728(16)
H35A H 1.0796 0.5465 1.1295
C26A C 0.76023(18) 0.48300(19) 1.24602(17)
H36A H 0.7201 0.5171 1.2032
C27A C 0.6938(2) 0.3901(2) 1.27375(18)
H37A H 0.6088 0.3609 1.2490
C28A C 0.7501(2) 0.3399(2) 1.33692(19)
H38A H 0.7043 0.2766 1.3557
C29A C 0.8742(2) 0.3829(2) 1.37245(19)
H39A H 0.9137 0.3493 1.4162
C30A C 0.94086(19) 0.4750(2) 1.34432(18)
H40A H 1.0258 0.5034 1.3690
C31A C 0.88556(17) 0.52687(18) 1.28048(16)
C32A C 0.95956(16) 0.63466(17) 1.25703(15)
H41A H 0.9582 0.7068 1.3102
C33A C 0.90770(16) 0.64168(17) 1.14949(15)
C34A C 0.93100(16) 0.75559(17) 1.14045(16)
C35A C 0.88576(17) 0.76919(18) 1.04478(17)
C36A C 0.81038(17) 0.66807(18) 0.95800(16)
C37A C 1.21629(17) 0.44726(18) 1.03517(16)
C38A C 0.83642(17) 0.54266(18) 1.06027(16)
H42A H 0.8231 0.4648 1.0645
O5A O 1.45144(12) 0.69005(14) 1.33359(12)
H43A H 1.4873 0.7262 1.3982
O6A O 1.37879(12) 0.79617(14) 1.49176(11)
H44A H 1.3589 0.8504 1.5262
O7A O 1.12784(12) 0.77082(13) 1.45373(11)
H45A H 1.1840 0.8286 1.5014
O8A O 0.99942(13) 0.85336(13) 1.22827(12)
H46A H 0.9920 0.9154 1.2186
O9A O 0.92176(13) 0.88431(13) 1.04260(12)
H47A H 0.8703 0.8898 0.9956
O10A O 0.76074(14) 0.67706(14) 0.86223(11)
H48A H 0.7520 0.7435 0.8727
O11? O 0.346(3) 0.226(3) 0.483(3)
C39? C 0.3427(17) 0.2992(18) 0.4379(17)
H49? H 0.4020 0.3192 0.4033
N5? N 0.2618(13) 0.3525(13) 0.4335(12)
C40? C 0.278(2) 0.453(2) 0.396(2)
H50? H 0.3564 0.4762 0.3839
H51? H 0.2731 0.5202 0.4498
H52? H 0.2149 0.4300 0.3304
C41? C 0.1593(14) 0.3203(18) 0.4742(15)
H53? H 0.1419 0.2387 0.4763
H54? H 0.0894 0.3239 0.4280
H55? H 0.1779 0.3765 0.5457
loop_
_geom_bond_atom_site_label_1
_geom_bond_atom_site_label_2
_geom_bond_site_symmetry_1
_geom_bond_site_symmetry_2
O1 C1 1_555 1_555
N1 C1 1_555 1_555
C1 H1 1_555 1_555
C2 N1 1_555 1_555
H2 C2 1_555 1_555
H3 C2 1_555 1_555
H4 C2 1_555 1_555
C3 N1 1_555 1_555
H5 C3 1_555 1_555
H6 C3 1_555 1_555
H7 C3 1_555 1_555
O2 C4 1_555 1_555
C4 H8 1_555 1_555
N2 C4 1_555 1_555
C5 N2 1_555 1_555
H9 C5 1_555 1_555
H10 C5 1_555 1_555
H11 C5 1_555 1_555
C6 N2 1_555 1_555
H12 C6 1_555 1_555
H13 C6 1_555 1_555
H14 C6 1_555 1_555
O3 C7 1_555 1_555
N3 C7 1_555 1_555
C7 H15 1_555 1_555
C8 N3 1_555 1_555
H16 C8 1_555 1_555
H17 C8 1_555 1_555
H18 C8 1_555 1_555
C9 N3 1_555 1_555
H19 C9 1_555 1_555
H20 C9 1_555 1_555
H21 C9 1_555 1_555
O4 C10 1_555 1_555
N4 C10 1_555 1_555
C10 H22 1_555 1_555
C11 N4 1_555 1_555
H23 C11 1_555 1_555
H24 C11 1_555 1_555
H25 C11 1_555 1_555
C12 N4 1_555 1_555
H26 C12 1_555 1_555
H27 C12 1_555 1_555
H28 C12 1_555 1_555
C13 H29 1_555 1_555
C14 C13 1_555 1_555
H30 C14 1_555 1_555
C15 C14 1_555 1_555
H31 C15 1_555 1_555
C16 C15 1_555 1_555
H32 C16 1_555 1_555
C17 C16 1_555 1_555
H33 C17 1_555 1_555
C18 C13 1_555 1_555
C19 C18 1_555 1_555
H34 C19 1_555 1_555
C20 C19 1_555 1_555
C21 C20 1_555 1_555
C22 C21 1_555 1_555
C23 C22 1_555 1_555
C24 C23 1_555 1_555
C25 C20 1_555 1_555
H35 C25 1_555 1_555
C26 H36 1_555 1_555
C27 C26 1_555 1_555
H37 C27 1_555 1_555
C28 C27 1_555 1_555
H38 C28 1_555 1_555
C29 C28 1_555 1_555
H39 C29 1_555 1_555
C30 C29 1_555 1_555
H40 C30 1_555 1_555
C31 C26 1_555 1_555
C32 C24 1_555 1_555
H41 C32 1_555 1_555
C33 C32 1_555 1_555
C34 C33 1_555 1_555
C35 C34 1_555 1_555
C36 C35 1_555 1_555
C37 C19 1_555 1_555
C38 C33 1_555 1_555
H42 C38 1_555 1_555
O5 C21 1_555 1_555
H43 O5 1_555 1_555
O6 C22 1_555 1_555
H44 O6 1_555 1_555
O7 C23 1_555 1_555
H45 O7 1_555 1_555
O8 C34 1_555 1_555
H46 O8 1_555 1_555
O9 C35 1_555 1_555
H47 O9 1_555 1_555
O10 C36 1_555 1_555
H48 O10 1_555 1_555
C13A H29A 1_555 1_555
C14A C13A 1_555 1_555
H30A C14A 1_555 1_555
C15A C14A 1_555 1_555
H31A C15A 1_555 1_555
C16A C15A 1_555 1_555
H32A C16A 1_555 1_555
C17A C16A 1_555 1_555
H33A C17A 1_555 1_555
C18A C13A 1_555 1_555
C19A C18A 1_555 1_555
H34A C19A 1_555 1_555
C20A C19A 1_555 1_555
C21A C20A 1_555 1_555
C22A C21A 1_555 1_555
C23A C22A 1_555 1_555
C24A C23A 1_555 1_555
C25A C20A 1_555 1_555
H35A C25A 1_555 1_555
C26A H36A 1_555 1_555
C27A C26A 1_555 1_555
H37A C27A 1_555 1_555
C28A C27A 1_555 1_555
H38A C28A 1_555 1_555
C29A C28A 1_555 1_555
H39A C29A 1_555 1_555
C30A C29A 1_555 1_555
H40A C30A 1_555 1_555
C31A C26A 1_555 1_555
C32A C24A 1_555 1_555
H41A C32A 1_555 1_555
C33A C32A 1_555 1_555
C34A C33A 1_555 1_555
C35A C34A 1_555 1_555
C36A C37 1_555 1_555
C37A C36 1_555 1_555
C38A C37 1_555 1_555
H42A C38A 1_555 1_555
O5A C21A 1_555 1_555
H43A O5A 1_555 1_555
O6A C22A 1_555 1_555
H44A O6A 1_555 1_555
O7A C23A 1_555 1_555
H45A O7A 1_555 1_555
O8A C34A 1_555 1_555
H46A O8A 1_555 1_555
O9A C35A 1_555 1_555
H47A O9A 1_555 1_555
O10A C36A 1_555 1_555
H48A O10A 1_555 1_555
C17 C18 1_555 1_555
C24 C25 1_555 1_555
C30 C31 1_555 1_555
C31 C32 1_555 1_555
C38 C37A 1_555 1_555
C17A C18A 1_555 1_555
C19A C37A 1_555 1_555
C24A C25A 1_555 1_555
C30A C31A 1_555 1_555
C31A C32A 1_555 1_555
C33A C38A 1_555 1_555
C35A C36A 1_555 1_555

#END
