
#######################################################################
#
#                 Cambridge Crystallographic Data Centre
#                                CCDC 
#
#######################################################################
#
# If this CIF has been generated from an entry in the Cambridge 
# Structural Database, then it will include bibliographic, chemical, 
# crystal, experimental, refinement or atomic coordinate data resulting 
# from the CCDC's data processing and validation procedures.
#
#######################################################################

data_VELQEK
_chemical_formula_moiety         'C20 H13 N3 O2'
_chemical_name_systematic        2-(2-Nitrophenyl)-4-phenylquinazoline
_symmetry_cell_setting           triclinic
_symmetry_space_group_name_H-M   'P -1'
_symmetry_Int_Tables_number      2
_space_group_name_Hall           '-P 1'
loop_
_symmetry_equiv_pos_site_id
_symmetry_equiv_pos_as_xyz
1 x,y,z
2 -x,-y,-z
_cell_length_a                   7.6465(7)
_cell_length_b                   8.4050(8)
_cell_length_c                   12.9308(14)
_cell_angle_alpha                84.270(8)
_cell_angle_beta                 73.021(9)
_cell_angle_gamma                89.007(8)
_cell_volume                     790.791
_exptl_crystal_colour            brown
_exptl_crystal_description       rectangular
_chemical_melting_point          '400.6 K'
_cell_formula_units_Z            2
loop_
_atom_site_label
_atom_site_type_symbol
_atom_site_fract_x
_atom_site_fract_y
_atom_site_fract_z
N1 N 0.46518(17) 0.68519(16) 0.22989(12)
N2 N 0.59084(18) 0.82484(16) 0.05345(12)
C1 C 0.4678(2) 0.74779(19) 0.01732(14)
C2 C 0.7251(2) 0.86369(19) 0.19406(15)
C3 C 0.5853(2) 0.78712(19) 0.15545(15)
C4 C 0.3420(2) 0.61250(19) 0.19660(15)
C5 C 0.3432(2) 0.63341(19) 0.08542(15)
C6 C 0.2322(2) 0.5468(2) 0.04017(16)
H1 H 0.155 0.4659 0.0829
N3 N 0.5097(2) 0.89823(19) 0.37577(14)
C7 C 0.3536(2) 0.7018(2) -0.13161(16)
H2 H 0.352 0.7272 -0.203
C8 C 0.6939(2) 0.9101(2) 0.29753(15)
C9 C 0.4683(2) 0.7821(2) -0.09178(15)
H3 H 0.5476 0.86 -0.1366
O1 O 0.38517(16) 0.96569(17) 0.34898(12)
C10 C 0.9017(2) 0.8886(2) 0.12447(15)
H4 H 0.9296 0.8574 0.0545
C11 C 0.8262(2) 0.9797(2) 0.33224(16)
H5 H 0.7996 1.0092 0.4026
C12 C 0.2069(2) 0.5092(2) 0.28091(15)
C13 C 1.0363(2) 0.9590(2) 0.15717(17)
H6 H 1.1529 0.9754 0.109
C14 C 0.2379(2) 0.5812(2) -0.06601(17)
H7 H 0.1639 0.5238 -0.0951
O2 O 0.49317(19) 0.8266(2) 0.46511(12)
C15 C 0.9989(2) 1.0046(2) 0.26027(18)
H8 H 1.0899 1.0523 0.2817
C16 C 0.2616(3) 0.4074(2) 0.35532(16)
H9 H 0.385 0.4016 0.3514
C17 C 0.0204(2) 0.5183(2) 0.28971(17)
H10 H -0.0197 0.5866 0.2404
C18 C 0.1363(3) 0.3141(2) 0.43551(18)
H11 H 0.1757 0.2442 0.4844
C19 C -0.0463(3) 0.3234(3) 0.44372(19)
H12 H -0.1306 0.2603 0.4982
C20 C -0.1046(3) 0.4257(3) 0.37191(19)
H13 H -0.2287 0.433 0.3783
loop_
_geom_bond_atom_site_label_1
_geom_bond_atom_site_label_2
_geom_bond_site_symmetry_1
_geom_bond_site_symmetry_2
N1 C3 1_555 1_555
N2 C1 1_555 1_555
C1 C5 1_555 1_555
C2 C3 1_555 1_555
C3 N2 1_555 1_555
C4 N1 1_555 1_555
C5 C4 1_555 1_555
C6 C5 1_555 1_555
H1 C6 1_555 1_555
N3 C8 1_555 1_555
C7 H2 1_555 1_555
C8 C2 1_555 1_555
C9 C1 1_555 1_555
H3 C9 1_555 1_555
O1 N3 1_555 1_555
C10 C2 1_555 1_555
H4 C10 1_555 1_555
C11 C8 1_555 1_555
H5 C11 1_555 1_555
C12 C4 1_555 1_555
C13 C10 1_555 1_555
H6 C13 1_555 1_555
C14 C6 1_555 1_555
H7 C14 1_555 1_555
O2 N3 1_555 1_555
C15 C11 1_555 1_555
H8 C15 1_555 1_555
C16 C12 1_555 1_555
H9 C16 1_555 1_555
C17 C12 1_555 1_555
H10 C17 1_555 1_555
C18 C16 1_555 1_555
H11 C18 1_555 1_555
C19 C18 1_555 1_555
H12 C19 1_555 1_555
C20 C17 1_555 1_555
H13 C20 1_555 1_555
C7 C9 1_555 1_555
C7 C14 1_555 1_555
C13 C15 1_555 1_555
C19 C20 1_555 1_555

#END
