
#######################################################################
#
#                 Cambridge Crystallographic Data Centre
#                                CCDC 
#
#######################################################################
#
# If this CIF has been generated from an entry in the Cambridge 
# Structural Database, then it will include bibliographic, chemical, 
# crystal, experimental, refinement or atomic coordinate data resulting 
# from the CCDC's data processing and validation procedures.
#
#######################################################################

data_VELSIR
_chemical_formula_moiety         'C33 H36 B1 N1 O1,C6 H6'
_chemical_name_systematic        
'5-[4-(dimethylamino)phenyl]-1,1-bis(2,4,6-trimethylphenyl)-2,1-benzoxaborol-2-ium-1-ate benzene solvate'
_symmetry_cell_setting           monoclinic
_symmetry_space_group_name_H-M   'C 2/c'
_symmetry_Int_Tables_number      15
_space_group_name_Hall           '-C 2yn'
loop_
_symmetry_equiv_pos_site_id
_symmetry_equiv_pos_as_xyz
1 x,y,z
2 -x,y,1/2-z
3 1/2+x,1/2+y,z
4 1/2-x,1/2+y,1/2-z
5 -x,-y,-z
6 x,-y,1/2+z
7 1/2-x,1/2-y,-z
8 1/2+x,1/2-y,1/2+z
_cell_length_a                   38.4003(15)
_cell_length_b                   9.7146(4)
_cell_length_c                   18.3058(8)
_cell_angle_alpha                90
_cell_angle_beta                 114.338(2)
_cell_angle_gamma                90
_cell_volume                     6221.98
_exptl_crystal_colour            red
_exptl_crystal_description       block
_cell_formula_units_Z            8
loop_
_atom_site_label
_atom_site_type_symbol
_atom_site_fract_x
_atom_site_fract_y
_atom_site_fract_z
O1 O 0.62778(3) 0.51825(13) 0.55051(7)
B1 B 0.64123(5) 0.3673(2) 0.59369(12)
N1 N 0.39016(5) 0.39337(18) 0.65482(11)
C1 C 0.59451(5) 0.54571(18) 0.54333(10)
H1 H 0.5811 0.6250 0.5154
C2 C 0.57811(5) 0.45083(18) 0.57953(10)
C3 C 0.60328(5) 0.33897(18) 0.60936(10)
C4 C 0.59202(5) 0.23920(18) 0.65005(11)
H2 H 0.6083 0.1629 0.6735
C5 C 0.55749(5) 0.24973(19) 0.65672(11)
H3 H 0.5505 0.1787 0.6838
C6 C 0.53223(5) 0.36133(18) 0.62512(10)
C7 C 0.54317(5) 0.46402(18) 0.58623(11)
H4 H 0.5273 0.5419 0.5645
C8 C 0.49553(5) 0.36849(18) 0.63406(10)
C9 C 0.47471(5) 0.25092(19) 0.63351(11)
H5 H 0.4847 0.1634 0.6289
C10 C 0.43980(5) 0.25762(19) 0.63950(11)
H6 H 0.4261 0.1753 0.6373
C11 C 0.42455(5) 0.38482(19) 0.64874(11)
C12 C 0.44601(5) 0.5029(2) 0.65086(12)
H7 H 0.4369 0.5906 0.6579
C13 C 0.48020(5) 0.49402(19) 0.64297(11)
H8 H 0.4937 0.5763 0.6436
C14 C 0.37911(6) 0.5209(2) 0.68031(14)
H9 H 0.3992 0.5496 0.7317
H10 H 0.3552 0.5071 0.6864
H11 H 0.3755 0.5923 0.6400
C15 C 0.36510(6) 0.2765(3) 0.63812(15)
H12 H 0.3592 0.2430 0.5838
H13 H 0.3414 0.3035 0.6423
H14 H 0.3776 0.2032 0.6769
C16 C 0.64985(5) 0.28713(19) 0.52433(10)
C17 C 0.68259(5) 0.3246(2) 0.51147(11)
C18 C 0.70662(6) 0.4485(2) 0.55157(15)
H15 H 0.7242 0.4687 0.5265
H16 H 0.7213 0.4291 0.6087
H17 H 0.6899 0.5280 0.5455
C19 C 0.69330(5) 0.2494(2) 0.45927(11)
H18 H 0.7156 0.2763 0.4527
C20 C 0.67280(5) 0.1376(2) 0.41679(11)
C21 C 0.68583(6) 0.0525(2) 0.36348(13)
H19 H 0.7028 0.1079 0.3473
H20 H 0.6635 0.0235 0.3157
H21 H 0.6996 -0.0289 0.3929
C22 C 0.63938(5) 0.1061(2) 0.42496(11)
H22 H 0.6240 0.0322 0.3945
C23 C 0.62753(5) 0.17896(19) 0.47622(11)
C24 C 0.58966(5) 0.1353(2) 0.47657(13)
H23 H 0.5773 0.0678 0.4338
H24 H 0.5731 0.2159 0.4676
H25 H 0.5941 0.0938 0.5285
C25 C 0.67752(5) 0.37670(18) 0.68130(10)
C26 C 0.69093(5) 0.49692(19) 0.72809(11)
C27 C 0.67472(6) 0.6384(2) 0.69986(13)
H26 H 0.6894 0.7070 0.7400
H27 H 0.6479 0.6412 0.6924
H28 H 0.6763 0.6590 0.6489
C28 C 0.72059(5) 0.4900(2) 0.80472(12)
H29 H 0.7290 0.5725 0.8347
C29 C 0.73812(5) 0.3675(2) 0.83857(11)
C30 C 0.77007(6) 0.3624(2) 0.92218(13)
H30 H 0.7719 0.4514 0.9487
H31 H 0.7943 0.3423 0.9185
H32 H 0.7646 0.2901 0.9534
C31 C 0.72530(5) 0.2495(2) 0.79315(11)
H33 H 0.7371 0.1640 0.8148
C32 C 0.69560(5) 0.25146(19) 0.71639(11)
C33 C 0.68499(5) 0.11416(19) 0.67372(12)
H34 H 0.6960 0.0396 0.7125
H35 H 0.6950 0.1092 0.6324
H36 H 0.6571 0.1048 0.6486
C34 C 0.58368(6) 0.8584(2) 0.63380(14)
H37 H 0.6062 0.8577 0.6245
C35 C 0.58616(7) 0.8480(2) 0.71051(14)
H38 H 0.6104 0.8390 0.7543
C36 C 0.55345(7) 0.8506(3) 0.72391(14)
H39 H 0.5552 0.8446 0.7771
C37 C 0.51833(7) 0.8619(2) 0.66062(16)
H40 H 0.4958 0.8638 0.6702
C38 C 0.51563(6) 0.8704(2) 0.58354(15)
H41 H 0.4913 0.8766 0.5397
C39 C 0.54835(7) 0.8698(2) 0.57011(13)
H42 H 0.5466 0.8773 0.5170
loop_
_geom_bond_atom_site_label_1
_geom_bond_atom_site_label_2
_geom_bond_site_symmetry_1
_geom_bond_site_symmetry_2
O1 B1 1_555 1_555
B1 C3 1_555 1_555
N1 C11 1_555 1_555
C1 O1 1_555 1_555
H1 C1 1_555 1_555
C2 C1 1_555 1_555
C3 C2 1_555 1_555
C4 C3 1_555 1_555
H2 C4 1_555 1_555
C5 C4 1_555 1_555
H3 C5 1_555 1_555
C6 C5 1_555 1_555
C7 C2 1_555 1_555
H4 C7 1_555 1_555
C8 C6 1_555 1_555
C9 C8 1_555 1_555
H5 C9 1_555 1_555
C10 C9 1_555 1_555
H6 C10 1_555 1_555
C11 C10 1_555 1_555
C12 C11 1_555 1_555
H7 C12 1_555 1_555
C13 C8 1_555 1_555
H8 C13 1_555 1_555
C14 N1 1_555 1_555
H9 C14 1_555 1_555
H10 C14 1_555 1_555
H11 C14 1_555 1_555
C15 N1 1_555 1_555
H12 C15 1_555 1_555
H13 C15 1_555 1_555
H14 C15 1_555 1_555
C16 B1 1_555 1_555
C17 C16 1_555 1_555
C18 C17 1_555 1_555
H15 C18 1_555 1_555
H16 C18 1_555 1_555
H17 C18 1_555 1_555
C19 C17 1_555 1_555
H18 C19 1_555 1_555
C20 C19 1_555 1_555
C21 C20 1_555 1_555
H19 C21 1_555 1_555
H20 C21 1_555 1_555
H21 C21 1_555 1_555
C22 C20 1_555 1_555
H22 C22 1_555 1_555
C23 C16 1_555 1_555
C24 C23 1_555 1_555
H23 C24 1_555 1_555
H24 C24 1_555 1_555
H25 C24 1_555 1_555
C25 B1 1_555 1_555
C26 C25 1_555 1_555
C27 C26 1_555 1_555
H26 C27 1_555 1_555
H27 C27 1_555 1_555
H28 C27 1_555 1_555
C28 C26 1_555 1_555
H29 C28 1_555 1_555
C29 C28 1_555 1_555
C30 C29 1_555 1_555
H30 C30 1_555 1_555
H31 C30 1_555 1_555
H32 C30 1_555 1_555
C31 C29 1_555 1_555
H33 C31 1_555 1_555
C32 C25 1_555 1_555
C33 C32 1_555 1_555
H34 C33 1_555 1_555
H35 C33 1_555 1_555
H36 C33 1_555 1_555
C34 H37 1_555 1_555
C35 C34 1_555 1_555
H38 C35 1_555 1_555
C36 C35 1_555 1_555
H39 C36 1_555 1_555
C37 C36 1_555 1_555
H40 C37 1_555 1_555
C38 C37 1_555 1_555
H41 C38 1_555 1_555
C39 C34 1_555 1_555
H42 C39 1_555 1_555
C6 C7 1_555 1_555
C12 C13 1_555 1_555
C22 C23 1_555 1_555
C31 C32 1_555 1_555
C38 C39 1_555 1_555

#END
