
#######################################################################
#
#                 Cambridge Crystallographic Data Centre
#                                CCDC 
#
#######################################################################
#
# If this CIF has been generated from an entry in the Cambridge 
# Structural Database, then it will include bibliographic, chemical, 
# crystal, experimental, refinement or atomic coordinate data resulting 
# from the CCDC's data processing and validation procedures.
#
#######################################################################

data_VELSEM
_chemical_formula_moiety         'C16 H23 N2 O5 P1'
_chemical_name_systematic        
3,8-Diisopropyl-5-phenoxy-1,6-dioxa-4,9-diaza-5-phosphaspiro[4.4]nonane-2,7-dione
_symmetry_cell_setting           orthorhombic
_symmetry_space_group_name_H-M   'P 21 21 21'
_symmetry_Int_Tables_number      19
_space_group_name_Hall           'P 2ac 2ab'
loop_
_symmetry_equiv_pos_site_id
_symmetry_equiv_pos_as_xyz
1 x,y,z
2 1/2-x,-y,1/2+z
3 1/2+x,1/2-y,-z
4 -x,1/2+y,1/2-z
_cell_length_a                   6.1017(7)
_cell_length_b                   16.6900(8)
_cell_length_c                   17.7857(14)
_cell_angle_alpha                90
_cell_angle_beta                 90
_cell_angle_gamma                90
_cell_volume                     1811.25
_cell_formula_units_Z            4
_exptl_crystal_recrystallization_method hexane/water
loop_
_atom_site_label
_atom_site_type_symbol
_atom_site_fract_x
_atom_site_fract_y
_atom_site_fract_z
P1 P 0.16380(9) 0.36124(3) 0.26183(3)
O1 O 0.1761(3) 0.42365(10) 0.19285(9)
O2 O 0.4291(3) 0.38493(10) 0.28904(9)
O3 O 0.6221(3) 0.44288(12) 0.37958(11)
O4 O -0.1031(3) 0.33282(10) 0.23918(9)
O5 O -0.3008(3) 0.23186(13) 0.19527(12)
N1 N 0.0729(3) 0.40097(13) 0.33935(11)
N2 N 0.2424(3) 0.26953(12) 0.24522(12)
C1 C 0.3169(5) 0.35798(18) 0.08270(16)
H1 H 0.4456 0.3453 0.1081
C2 C 0.2887(7) 0.3364(2) 0.00811(17)
H2 H 0.3980 0.3078 -0.0166
C3 C 0.0997(7) 0.35693(19) -0.02977(16)
H3 H 0.0827 0.3432 -0.0801
C4 C -0.0613(6) 0.3973(2) 0.00668(16)
H4 H -0.1887 0.4111 -0.0189
C5 C -0.0384(5) 0.41806(16) 0.08145(15)
H5 H -0.1503 0.4450 0.1064
C6 C 0.1505(4) 0.39862(14) 0.11840(12)
C7 C 0.4478(4) 0.42379(14) 0.35352(14)
C8 C 0.2284(4) 0.43787(15) 0.39017(13)
H6 H 0.2001 0.4956 0.3922
C9 C 0.2262(4) 0.40381(17) 0.47073(13)
H7 H 0.3459 0.4296 0.4984
C10 C 0.2709(7) 0.3144(2) 0.47077(19)
H8 H 0.1565 0.2873 0.4439
H9 H 0.2756 0.2953 0.5216
H10 H 0.4091 0.3042 0.4468
C11 C 0.0161(5) 0.4238(3) 0.51114(17)
H11 H -0.0122 0.4802 0.5070
H12 H 0.0294 0.4095 0.5632
H13 H -0.1027 0.3944 0.4890
C12 C -0.1260(4) 0.25883(16) 0.21375(13)
C13 C 0.0878(4) 0.21413(15) 0.21168(13)
H14 H 0.1292 0.2049 0.1591
C14 C 0.0733(5) 0.13295(16) 0.25229(16)
H15 H -0.0347 0.1003 0.2253
C15 C 0.2896(7) 0.08938(19) 0.2486(2)
H16 H 0.3377 0.0865 0.1972
H17 H 0.2722 0.0362 0.2682
H18 H 0.3965 0.1177 0.2779
C16 C -0.0062(7) 0.14151(19) 0.33257(17)
H19 H 0.1073 0.1652 0.3627
H20 H -0.0425 0.0896 0.3523
H21 H -0.1338 0.1751 0.3336
H22 H 0.372(5) 0.2633(13) 0.2392(14)
H23 H -0.068(6) 0.4042(18) 0.3478(16)
loop_
_geom_bond_atom_site_label_1
_geom_bond_atom_site_label_2
_geom_bond_site_symmetry_1
_geom_bond_site_symmetry_2
P1 O1 1_555 1_555
O1 C6 1_555 1_555
O2 P1 1_555 1_555
O3 C7 1_555 1_555
O4 P1 1_555 1_555
O5 C12 1_555 1_555
N1 P1 1_555 1_555
N2 P1 1_555 1_555
C1 H1 1_555 1_555
C2 C1 1_555 1_555
H2 C2 1_555 1_555
C3 C2 1_555 1_555
H3 C3 1_555 1_555
C4 C3 1_555 1_555
H4 C4 1_555 1_555
C5 C4 1_555 1_555
H5 C5 1_555 1_555
C6 C1 1_555 1_555
C7 O2 1_555 1_555
C8 N1 1_555 1_555
H6 C8 1_555 1_555
C9 C8 1_555 1_555
H7 C9 1_555 1_555
C10 C9 1_555 1_555
H8 C10 1_555 1_555
H9 C10 1_555 1_555
H10 C10 1_555 1_555
C11 C9 1_555 1_555
H11 C11 1_555 1_555
H12 C11 1_555 1_555
H13 C11 1_555 1_555
C12 O4 1_555 1_555
C13 N2 1_555 1_555
H14 C13 1_555 1_555
C14 C13 1_555 1_555
H15 C14 1_555 1_555
C15 C14 1_555 1_555
H16 C15 1_555 1_555
H17 C15 1_555 1_555
H18 C15 1_555 1_555
C16 C14 1_555 1_555
H19 C16 1_555 1_555
H20 C16 1_555 1_555
H21 C16 1_555 1_555
H22 N2 1_555 1_555
H23 N1 1_555 1_555
C5 C6 1_555 1_555
C7 C8 1_555 1_555
C12 C13 1_555 1_555

#END
