
#######################################################################
#
#                 Cambridge Crystallographic Data Centre
#                                CCDC 
#
#######################################################################
#
# If this CIF has been generated from an entry in the Cambridge 
# Structural Database, then it will include bibliographic, chemical, 
# crystal, experimental, refinement or atomic coordinate data resulting 
# from the CCDC's data processing and validation procedures.
#
#######################################################################

data_VELSAI
_chemical_formula_moiety         'C10 H18 Cl1 N2 O4 P1'
_chemical_name_systematic        
5-Chloro-3,8-diisopropyl-1,6-dioxa-4,9-diaza-5-phosphaspiro[4.4]nonane-2,7-dione
_symmetry_cell_setting           tetragonal
_symmetry_space_group_name_H-M   'P 43 21 2'
_symmetry_Int_Tables_number      96
_space_group_name_Hall           'P 4nw 2abw'
loop_
_symmetry_equiv_pos_site_id
_symmetry_equiv_pos_as_xyz
1 x,y,z
2 -x,-y,1/2+z
3 1/2-y,1/2+x,3/4+z
4 1/2+y,1/2-x,1/4+z
5 1/2-x,1/2+y,3/4-z
6 1/2+x,1/2-y,1/4-z
7 y,x,-z
8 -y,-x,1/2-z
_cell_length_a                   8.2039(12)
_cell_length_b                   8.2039(12)
_cell_length_c                   21.191(4)
_cell_angle_alpha                90
_cell_angle_beta                 90
_cell_angle_gamma                90
_cell_volume                     1426.24
_exptl_crystal_colour            colorless
_exptl_crystal_description       prism
_cell_formula_units_Z            4
_exptl_crystal_recrystallization_method hexane/dichloromethane
loop_
_atom_site_label
_atom_site_type_symbol
_atom_site_fract_x
_atom_site_fract_y
_atom_site_fract_z
P1 P 0.96001(6) -0.03999(6) 0.0000
Cl1 Cl 1.13605(7) 0.13605(7) 0.0000
N1 N 0.7899(2) 0.0135(3) 0.03252(9)
O1 O 1.03071(19) -0.11069(18) 0.07130(7)
O2 O 1.1448(3) -0.3244(2) 0.11721(8)
C1 C 1.0907(3) -0.2615(3) 0.07060(11)
C2 C 0.6629(3) 0.0819(3) -0.00636(11)
C3 C 0.5964(3) 0.2465(3) 0.01644(12)
H1 H 0.5103 0.2801 -0.0129
C4 C 0.5205(4) 0.2286(4) 0.08115(14)
H2 H 0.4407 0.1431 0.0802
H3 H 0.4689 0.3292 0.0929
H4 H 0.6036 0.2024 0.1114
C5 C 0.7273(4) 0.3779(3) 0.01589(15)
H5 H 0.6840 0.4767 0.0335
H6 H 0.7618 0.3975 -0.0267
H7 H 0.8188 0.3426 0.0406
H8 H 0.766(3) -0.026(3) 0.0628(11)
H9 H 0.577(2) 0.019(2) -0.0100(9)
N1F N 1.0135(3) -0.2101(2) -0.03252(9)
O1F O 0.88931(18) 0.03071(19) -0.07130(7)
O2F O 0.6756(2) 0.1448(3) -0.11721(8)
C1F C 0.7385(3) 0.0907(3) -0.07060(11)
C2F C 1.0819(3) -0.3371(3) 0.00636(11)
C3F C 1.2465(3) -0.4036(3) -0.01644(12)
H1F H 1.2801 -0.4897 0.0129
C4F C 1.2286(4) -0.4795(4) -0.08115(14)
H2F H 1.1431 -0.5593 -0.0802
H3F H 1.3292 -0.5311 -0.0929
H4F H 1.2024 -0.3964 -0.1114
C5F C 1.3779(3) -0.2727(4) -0.01589(15)
H5F H 1.4767 -0.3160 -0.0335
H6F H 1.3975 -0.2382 0.0267
H7F H 1.3426 -0.1812 -0.0406
H8F H 0.974(3) -0.234(3) -0.0628(11)
H9F H 1.019(2) -0.423(2) 0.0100(9)
loop_
_geom_bond_atom_site_label_1
_geom_bond_atom_site_label_2
_geom_bond_site_symmetry_1
_geom_bond_site_symmetry_2
P1 Cl1 1_555 1_555
N1 P1 1_555 1_555
O1 P1 1_555 1_555
O2 C1 1_555 1_555
C1 O1 1_555 1_555
C2 N1 1_555 1_555
C3 C2 1_555 1_555
H1 C3 1_555 1_555
C4 C3 1_555 1_555
H2 C4 1_555 1_555
H3 C4 1_555 1_555
H4 C4 1_555 1_555
C5 C3 1_555 1_555
H5 C5 1_555 1_555
H6 C5 1_555 1_555
H7 C5 1_555 1_555
H8 N1 1_555 1_555
H9 C2 1_555 1_555
N1F P1 1_555 1_555
O1F P1 1_555 1_555
O2F C1F 1_555 1_555
C1F C2 1_555 1_555
C2F C1 1_555 1_555
C3F C2F 1_555 1_555
H1F C3F 1_555 1_555
C4F C3F 1_555 1_555
H2F C4F 1_555 1_555
H3F C4F 1_555 1_555
H4F C4F 1_555 1_555
C5F C3F 1_555 1_555
H5F C5F 1_555 1_555
H6F C5F 1_555 1_555
H7F C5F 1_555 1_555
H8F N1F 1_555 1_555
H9F C2F 1_555 1_555
N1F C2F 1_555 1_555
O1F C1F 1_555 1_555

#END
