
#######################################################################
#
#                 Cambridge Crystallographic Data Centre
#                                CCDC 
#
#######################################################################
#
# If this CIF has been generated from an entry in the Cambridge 
# Structural Database, then it will include bibliographic, chemical, 
# crystal, experimental, refinement or atomic coordinate data resulting 
# from the CCDC's data processing and validation procedures.
#
#######################################################################

data_VELTEO
_chemical_formula_moiety         'C18 H16 Br1 N1 O3'
_chemical_name_systematic        
'ethyl 3-(4-bromophenyl)-1-methyl-2-oxo-2,3-dihydro-1H-indole-3-carboxylate'
_symmetry_cell_setting           monoclinic
_symmetry_space_group_name_H-M   'P 21/c'
_symmetry_Int_Tables_number      14
_space_group_name_Hall           '-P 2ybc'
loop_
_symmetry_equiv_pos_site_id
_symmetry_equiv_pos_as_xyz
1 x,y,z
2 -x,1/2+y,1/2-z
3 -x,-y,-z
4 x,1/2-y,1/2+z
_cell_length_a                   9.0628(18)
_cell_length_b                   16.105(3)
_cell_length_c                   11.611(2)
_cell_angle_alpha                90
_cell_angle_beta                 101.17(3)
_cell_angle_gamma                90
_cell_volume                     1662.6
_exptl_crystal_colour            colorless
_exptl_crystal_description       block
_cell_formula_units_Z            4
loop_
_atom_site_label
_atom_site_type_symbol
_atom_site_fract_x
_atom_site_fract_y
_atom_site_fract_z
Br1 Br 0.79009(7) 0.22864(3) 0.78166(4)
N1 N 0.7636(3) 0.07561(17) 1.4093(2)
C1 C 0.7139(3) 0.0220(2) 1.2165(3)
C2 C 0.6068(4) 0.07098(19) 1.3742(3)
C3 C 0.5712(3) 0.03716(19) 1.2621(3)
C4 C 0.7316(3) 0.07415(19) 1.1109(3)
C5 C 0.7690(5) 0.1673(2) 0.9175(3)
C6 C 0.8641(4) 0.0705(2) 1.0672(3)
H1 H 0.9415 0.0359 1.1034
O1 O 0.7403(3) -0.11473(16) 1.2906(2)
C7 C 0.6381(4) 0.1734(2) 0.9587(3)
H2 H 0.5618 0.2086 0.9222
O2 O 0.7418(3) -0.10035(16) 1.1002(2)
O3 O 0.9706(3) 0.04559(17) 1.3303(2)
C8 C 0.8354(4) 0.0483(2) 1.3244(3)
C9 C 0.7341(4) -0.0707(2) 1.1930(3)
C10 C 0.6200(4) 0.1269(2) 1.0553(3)
H3 H 0.5309 0.1313 1.0834
C11 C 0.3127(4) 0.0451(2) 1.2744(4)
H4 H 0.2120 0.0363 1.2413
C12 C 0.4225(4) 0.0233(2) 1.2117(3)
H5 H 0.3965 -0.0001 1.1373
C13 C 0.8833(4) 0.1173(2) 0.9710(3)
H6 H 0.9729 0.1146 0.9433
C14 C 0.3498(4) 0.0792(2) 1.3838(4)
H7 H 0.2739 0.0937 1.4237
C15 C 0.4987(4) 0.0928(2) 1.4366(3)
H8 H 0.5243 0.1158 1.5113
C16 C 0.7616(6) -0.2038(3) 1.2821(4)
H9 H 0.8584 -0.2151 1.2615
H10 H 0.6839 -0.2268 1.2211
C17 C 0.8428(4) 0.1094(2) 1.5203(3)
H11 H 0.8217 0.1677 1.5235
H12 H 0.9490 0.1014 1.5267
H13 H 0.8099 0.0816 1.5839
C18 C 0.7547(8) -0.2419(3) 1.3931(5)
H14 H 0.7667 -0.3009 1.3873
H15 H 0.6591 -0.2301 1.4134
H16 H 0.8336 -0.2201 1.4526
loop_
_geom_bond_atom_site_label_1
_geom_bond_atom_site_label_2
_geom_bond_site_symmetry_1
_geom_bond_site_symmetry_2
Br1 C5 1_555 1_555
N1 C2 1_555 1_555
C1 C3 1_555 1_555
C2 C3 1_555 1_555
C3 C12 1_555 1_555
C4 C1 1_555 1_555
C5 C7 1_555 1_555
C6 C4 1_555 1_555
H1 C6 1_555 1_555
O1 C9 1_555 1_555
C7 H2 1_555 1_555
O2 C9 1_555 1_555
O3 C8 1_555 1_555
C8 N1 1_555 1_555
C9 C1 1_555 1_555
C10 C4 1_555 1_555
H3 C10 1_555 1_555
C11 H4 1_555 1_555
C12 C11 1_555 1_555
H5 C12 1_555 1_555
C13 C5 1_555 1_555
H6 C13 1_555 1_555
C14 C11 1_555 1_555
H7 C14 1_555 1_555
C15 C2 1_555 1_555
H8 C15 1_555 1_555
C16 O1 1_555 1_555
H9 C16 1_555 1_555
H10 C16 1_555 1_555
C17 N1 1_555 1_555
H11 C17 1_555 1_555
H12 C17 1_555 1_555
H13 C17 1_555 1_555
C18 C16 1_555 1_555
H14 C18 1_555 1_555
H15 C18 1_555 1_555
H16 C18 1_555 1_555
C1 C8 1_555 1_555
C6 C13 1_555 1_555
C7 C10 1_555 1_555
C14 C15 1_555 1_555

#END
