
#######################################################################
#
#                 Cambridge Crystallographic Data Centre
#                                CCDC 
#
#######################################################################
#
# If this CIF has been generated from an entry in the Cambridge 
# Structural Database, then it will include bibliographic, chemical, 
# crystal, experimental, refinement or atomic coordinate data resulting 
# from the CCDC's data processing and validation procedures.
#
#######################################################################

data_VELVEQ
_chemical_formula_moiety         'C22 H17 N1 O2 S1'
_chemical_name_systematic        6-methyl-4-phenyl-3-(phenylsulfonyl)quinoline
_symmetry_cell_setting           monoclinic
_symmetry_space_group_name_H-M   'P 21/c'
_symmetry_Int_Tables_number      14
_space_group_name_Hall           '-P 2ybc'
loop_
_symmetry_equiv_pos_site_id
_symmetry_equiv_pos_as_xyz
1 x,y,z
2 -x,1/2+y,1/2-z
3 -x,-y,-z
4 x,1/2-y,1/2+z
_cell_length_a                   7.3596(8)
_cell_length_b                   10.4885(12)
_cell_length_c                   23.677(3)
_cell_angle_alpha                90
_cell_angle_beta                 96.831(4)
_cell_angle_gamma                90
_cell_volume                     1814.68
_exptl_crystal_colour            colorless
_exptl_crystal_description       sheet
_cell_formula_units_Z            4
loop_
_atom_site_label
_atom_site_type_symbol
_atom_site_fract_x
_atom_site_fract_y
_atom_site_fract_z
S1 S 0.38173(7) 0.67483(5) 0.69178(2)
O1 O 0.56733(18) 0.71857(16) 0.69516(7)
O2 O 0.3376(2) 0.58080(16) 0.73224(7)
N1 N 0.2579(3) 0.40727(17) 0.57516(10)
C1 C 0.2494(3) 0.47201(19) 0.52486(10)
C2 C 0.2163(3) 0.4017(2) 0.47406(13)
H1 H 0.199932 0.313860 0.475641
C3 C 0.2080(3) 0.4603(3) 0.42306(13)
H2 H 0.188290 0.411490 0.390103
C4 C 0.2285(3) 0.5934(3) 0.41831(10)
C5 C 0.2608(3) 0.6634(2) 0.46736(9)
H3 H 0.275453 0.751235 0.464838
C6 C 0.2726(3) 0.60599(18) 0.52158(9)
C7 C 0.2152(5) 0.6557(3) 0.36077(11)
H4 H 0.251287 0.596000 0.333466
H5 H 0.294513 0.728631 0.362522
H6 H 0.091314 0.682279 0.349586
C8 C 0.3116(2) 0.67528(17) 0.57318(8)
C9 C 0.3380(3) 0.81690(17) 0.57139(7)
C10 C 0.1880(3) 0.89651(19) 0.55977(8)
H7 H 0.071099 0.862105 0.552291
C11 C 0.2124(4) 1.0275(2) 0.55933(10)
H8 H 0.111522 1.080949 0.551868
C12 C 0.3848(4) 1.0790(2) 0.56986(10)
H9 H 0.400394 1.166944 0.569932
C13 C 0.5335(4) 1.0004(2) 0.58023(10)
H10 H 0.650427 1.035095 0.586678
C14 C 0.5104(3) 0.86965(19) 0.58114(9)
H11 H 0.612059 0.816847 0.588395
C15 C 0.3215(3) 0.60723(18) 0.62327(9)
C16 C 0.2916(3) 0.4736(2) 0.62187(11)
H12 H 0.296295 0.430665 0.656368
C17 C 0.2370(2) 0.80656(19) 0.69670(7)
C18 C 0.3109(3) 0.9267(2) 0.70362(8)
H13 H 0.436634 0.938823 0.705266
C19 C 0.1960(3) 1.0289(2) 0.70808(10)
H14 H 0.244249 1.110659 0.712804
C20 C 0.0104(3) 1.0104(2) 0.70558(10)
H15 H -0.066504 1.080076 0.707967
C21 C -0.0626(3) 0.8895(2) 0.69956(10)
H16 H -0.188244 0.877734 0.698453
C22 C 0.0498(3) 0.7864(2) 0.69520(9)
H17 H 0.001501 0.704517 0.691315
loop_
_geom_bond_atom_site_label_1
_geom_bond_atom_site_label_2
_geom_bond_site_symmetry_1
_geom_bond_site_symmetry_2
S1 O1 1_555 1_555
O2 S1 1_555 1_555
N1 C1 1_555 1_555
C1 C2 1_555 1_555
C2 H1 1_555 1_555
C3 C2 1_555 1_555
H2 C3 1_555 1_555
C4 C3 1_555 1_555
C5 C4 1_555 1_555
H3 C5 1_555 1_555
C6 C1 1_555 1_555
C7 C4 1_555 1_555
H4 C7 1_555 1_555
H5 C7 1_555 1_555
H6 C7 1_555 1_555
C8 C6 1_555 1_555
C9 C8 1_555 1_555
C10 C9 1_555 1_555
H7 C10 1_555 1_555
C11 C10 1_555 1_555
H8 C11 1_555 1_555
C12 C11 1_555 1_555
H9 C12 1_555 1_555
C13 C12 1_555 1_555
H10 C13 1_555 1_555
C14 C9 1_555 1_555
H11 C14 1_555 1_555
C15 S1 1_555 1_555
C16 N1 1_555 1_555
H12 C16 1_555 1_555
C17 S1 1_555 1_555
C18 C17 1_555 1_555
H13 C18 1_555 1_555
C19 C18 1_555 1_555
H14 C19 1_555 1_555
C20 C19 1_555 1_555
H15 C20 1_555 1_555
C21 C20 1_555 1_555
H16 C21 1_555 1_555
C22 C17 1_555 1_555
H17 C22 1_555 1_555
C5 C6 1_555 1_555
C8 C15 1_555 1_555
C13 C14 1_555 1_555
C15 C16 1_555 1_555
C21 C22 1_555 1_555

#END
