
#######################################################################
#
#                 Cambridge Crystallographic Data Centre
#                                CCDC 
#
#######################################################################
#
# If this CIF has been generated from an entry in the Cambridge 
# Structural Database, then it will include bibliographic, chemical, 
# crystal, experimental, refinement or atomic coordinate data resulting 
# from the CCDC's data processing and validation procedures.
#
#######################################################################

data_VELWIT01
_chemical_formula_moiety         'C20 H24 N2 O2'
_chemical_name_systematic        
2,2'-(hexane-1,6-diylbis(nitrilomethylylidene))diphenol
_symmetry_cell_setting           monoclinic
_symmetry_space_group_name_H-M   'P 21/c'
_symmetry_Int_Tables_number      14
_space_group_name_Hall           '-P 2ybc'
loop_
_symmetry_equiv_pos_site_id
_symmetry_equiv_pos_as_xyz
1 x,y,z
2 -x,1/2+y,1/2-z
3 -x,-y,-z
4 x,1/2-y,1/2+z
_cell_length_a                   9.3654(12)
_cell_length_b                   5.7915(7)
_cell_length_c                   16.042(2)
_cell_angle_alpha                90
_cell_angle_beta                 91.140(3)
_cell_angle_gamma                90
_cell_volume                     869.941
_cell_formula_units_Z            2
loop_
_atom_site_label
_atom_site_type_symbol
_atom_site_fract_x
_atom_site_fract_y
_atom_site_fract_z
N1 N 0.40856(12) 0.1605(2) 0.57854(7)
O1 O 0.58801(11) 0.49440(19) 0.58620(7)
H1 H 0.50060 0.40870 0.57080
C1 C 0.03161(16) 0.1125(3) 0.48498(11)
H2 H -0.04300 0.22860 0.48280
H3 H 0.06540 0.09090 0.42880
C2 C 0.15527(15) 0.2017(3) 0.54006(11)
H4 H 0.18110 0.35550 0.52170
H5 H 0.12350 0.21340 0.59710
C3 C 0.28629(15) 0.0482(3) 0.53794(10)
H6 H 0.26650 -0.09630 0.56600
H7 H 0.30870 0.01360 0.48050
C4 C 0.47832(14) 0.0557(3) 0.63635(9)
H8 H 0.44830 -0.08920 0.65380
C5 C 0.60479(13) 0.1609(2) 0.67540(8)
C6 C 0.65597(15) 0.3760(3) 0.64736(9)
C7 C 0.77993(15) 0.4693(3) 0.68358(9)
H9 H 0.81480 0.61000 0.66480
C8 C 0.85107(15) 0.3532(3) 0.74722(9)
H10 H 0.93360 0.41640 0.77090
C9 C 0.80063(15) 0.1434(3) 0.77610(9)
H11 H 0.84820 0.06740 0.81950
C10 C 0.67894(15) 0.0480(3) 0.73981(9)
H12 H 0.64600 -0.09370 0.75870
N1B N -0.40856(12) -0.1605(2) 0.42146(7)
O1B O -0.58801(11) -0.49440(19) 0.41380(7)
H1B H -0.50060 -0.40870 0.42920
C1B C -0.03161(16) -0.1125(3) 0.51502(11)
H2B H 0.04300 -0.22860 0.51720
H3B H -0.06540 -0.09090 0.57120
C2B C -0.15527(15) -0.2017(3) 0.45994(11)
H4B H -0.18110 -0.35550 0.47830
H5B H -0.12350 -0.21340 0.40290
C3B C -0.28629(15) -0.0482(3) 0.46206(10)
H6B H -0.26650 0.09630 0.43400
H7B H -0.30870 -0.01360 0.51950
C4B C -0.47832(14) -0.0557(3) 0.36365(9)
H8B H -0.44830 0.08920 0.34620
C5B C -0.60479(13) -0.1609(2) 0.32460(8)
C6B C -0.65597(15) -0.3760(3) 0.35264(9)
C7B C -0.77993(15) -0.4693(3) 0.31642(9)
H9B H -0.81480 -0.61000 0.33520
C8B C -0.85107(15) -0.3532(3) 0.25278(9)
H10B H -0.93360 -0.41640 0.22910
C9B C -0.80063(15) -0.1434(3) 0.22390(9)
H11B H -0.84820 -0.06740 0.18050
C10B C -0.67894(15) -0.0480(3) 0.26019(9)
H12B H -0.64600 0.09370 0.24130
loop_
_geom_bond_atom_site_label_1
_geom_bond_atom_site_label_2
_geom_bond_site_symmetry_1
_geom_bond_site_symmetry_2
N1 C3 1_555 1_555
O1 H1 1_555 1_555
C1 H2 1_555 1_555
H3 C1 1_555 1_555
C2 C1 1_555 1_555
H4 C2 1_555 1_555
H5 C2 1_555 1_555
C3 C2 1_555 1_555
H6 C3 1_555 1_555
H7 C3 1_555 1_555
C4 N1 1_555 1_555
H8 C4 1_555 1_555
C5 C4 1_555 1_555
C6 O1 1_555 1_555
C7 C6 1_555 1_555
H9 C7 1_555 1_555
C8 C7 1_555 1_555
H10 C8 1_555 1_555
C9 C8 1_555 1_555
H11 C9 1_555 1_555
C10 C5 1_555 1_555
H12 C10 1_555 1_555
N1B C3B 1_555 1_555
O1B H1B 1_555 1_555
C1B C1 1_555 1_555
H2B C1B 1_555 1_555
H3B C1B 1_555 1_555
C2B C1B 1_555 1_555
H4B C2B 1_555 1_555
H5B C2B 1_555 1_555
C3B C2B 1_555 1_555
H6B C3B 1_555 1_555
H7B C3B 1_555 1_555
C4B N1B 1_555 1_555
H8B C4B 1_555 1_555
C5B C4B 1_555 1_555
C6B O1B 1_555 1_555
C7B C6B 1_555 1_555
H9B C7B 1_555 1_555
C8B C7B 1_555 1_555
H10B C8B 1_555 1_555
C9B C8B 1_555 1_555
H11B C9B 1_555 1_555
C10B C5B 1_555 1_555
H12B C10B 1_555 1_555
C5 C6 1_555 1_555
C9 C10 1_555 1_555
C5B C6B 1_555 1_555
C9B C10B 1_555 1_555

#END
