
#######################################################################
#
#                 Cambridge Crystallographic Data Centre
#                                CCDC 
#
#######################################################################
#
# If this CIF has been generated from an entry in the Cambridge 
# Structural Database, then it will include bibliographic, chemical, 
# crystal, experimental, refinement or atomic coordinate data resulting 
# from the CCDC's data processing and validation procedures.
#
#######################################################################

data_VELXER
_chemical_formula_moiety         'C37 H32 N2 O2 S1,C4 H8 O1'
_chemical_name_systematic        
'4,5-Diphenyl-12,20-dioxa-3,6-diazapentacyclo[19.2.2.2^8,11^.1^3,6^.1^14,18^]nonacosa-1(23),8,10,14(26),15,17,21,24,27-nonaene-29-thione tetrahydrofuran solvate'
_symmetry_cell_setting           orthorhombic
_symmetry_space_group_name_H-M   'P 21 21 21'
_symmetry_Int_Tables_number      19
_space_group_name_Hall           'P 2ac 2ab'
loop_
_symmetry_equiv_pos_site_id
_symmetry_equiv_pos_as_xyz
1 x,y,z
2 1/2-x,-y,1/2+z
3 -x,1/2+y,1/2-z
4 1/2+x,1/2-y,-z
_cell_length_a                   10.7179(12)
_cell_length_b                   15.099(2)
_cell_length_c                   21.739(3)
_cell_angle_alpha                90
_cell_angle_beta                 90
_cell_angle_gamma                90
_cell_volume                     3518.01
_exptl_crystal_colour            colorless
_exptl_crystal_description       block
_cell_formula_units_Z            4
loop_
_atom_site_label
_atom_site_type_symbol
_atom_site_fract_x
_atom_site_fract_y
_atom_site_fract_z
S1 S -0.06681(10) -0.20032(7) 0.54488(6)
O1 O 0.3749(3) -0.0257(2) 0.31152(12)
O2 O 0.5595(2) -0.0568(2) 0.60861(13)
N1 N -0.0569(3) -0.02925(18) 0.51101(13)
N2 N -0.0290(3) -0.05075(19) 0.61043(14)
C1 C -0.0482(3) -0.0908(2) 0.55528(18)
C2 C -0.0507(3) 0.0613(2) 0.53538(14)
H1 H -0.1353 0.0875 0.5345
C3 C -0.0121(3) 0.0449(2) 0.60341(15)
H2 H 0.0775 0.0592 0.6082
C4 C 0.0373(4) 0.1204(2) 0.49995(16)
C5 C -0.0102(5) 0.1883(3) 0.46470(17)
H3 H -0.0965 0.1993 0.4650
C6 C 0.0670(9) 0.2406(3) 0.4288(2)
H4 H 0.0342 0.2873 0.4051
C7 C 0.1948(9) 0.2225(5) 0.4286(3)
H5 H 0.2483 0.2566 0.4038
C8 C 0.2424(5) 0.1568(4) 0.4633(3)
H6 H 0.3289 0.1467 0.4634
C9 C 0.1653(4) 0.1042(3) 0.4989(2)
H7 H 0.1992 0.0577 0.5222
C10 C -0.0865(3) 0.0981(2) 0.64988(15)
C11 C -0.1987(4) 0.0701(3) 0.67186(18)
H8 H -0.2326 0.0162 0.6581
C12 C -0.2635(4) 0.1210(4) 0.7147(2)
H9 H -0.3398 0.1006 0.7308
C13 C -0.2160(6) 0.2006(4) 0.7334(2)
H10 H -0.2604 0.2355 0.7617
C14 C -0.1052(6) 0.2291(3) 0.7112(2)
H11 H -0.0731 0.2839 0.7243
C15 C -0.0389(4) 0.1789(3) 0.66991(19)
H12 H 0.0385 0.1991 0.6552
C16 C -0.0796(3) -0.0474(3) 0.44546(17)
H13 H -0.1366 -0.0026 0.4289
H14 H -0.1198 -0.1054 0.4412
C17 C 0.0411(3) -0.0466(3) 0.40828(15)
C18 C 0.0588(4) 0.0137(3) 0.36166(16)
H15 H -0.0075 0.0512 0.3506
C19 C 0.1705(4) 0.0209(3) 0.33057(17)
H16 H 0.1807 0.0636 0.2995
C20 C 0.2679(4) -0.0359(3) 0.34598(17)
C21 C 0.2506(4) -0.0977(3) 0.39138(18)
H17 H 0.3152 -0.1373 0.4013
C22 C 0.1385(4) -0.1020(3) 0.42267(18)
H18 H 0.1288 -0.1436 0.4545
C23 C 0.4869(4) -0.0680(3) 0.33283(18)
H19 H 0.5510 -0.0641 0.3008
H20 H 0.4699 -0.1309 0.3404
C24 C 0.5353(3) -0.0258(3) 0.39126(18)
C25 C 0.5555(3) -0.0761(2) 0.44304(18)
H21 H 0.5425 -0.1376 0.4411
C26 C 0.5949(3) -0.0385(3) 0.49848(19)
C27 C 0.6116(4) 0.0520(3) 0.5003(2)
H22 H 0.6358 0.0787 0.5375
C28 C 0.5943(4) 0.1028(3) 0.4505(3)
H23 H 0.6073 0.1642 0.4533
C29 C 0.5570(4) 0.0655(3) 0.3943(2)
H24 H 0.5467 0.1013 0.3593
C30 C 0.6174(3) -0.0938(3) 0.5549(2)
H25 H 0.5846 -0.1536 0.5479
H26 H 0.7075 -0.0988 0.5619
C31 C 0.4329(3) -0.0693(3) 0.61740(16)
C32 C 0.3647(4) -0.1355(3) 0.5906(2)
H27 H 0.4022 -0.1742 0.5621
C33 C 0.2408(4) -0.1447(3) 0.6057(2)
H28 H 0.1939 -0.1901 0.5872
C34 C 0.1830(3) -0.0885(3) 0.64769(17)
C35 C 0.2538(4) -0.0235(3) 0.67358(17)
H29 H 0.2169 0.0151 0.7022
C36 C 0.3781(4) -0.0128(3) 0.65901(19)
H30 H 0.4250 0.0327 0.6774
C37 C 0.0445(4) -0.0948(3) 0.65955(18)
H31 H 0.0203 -0.1573 0.6620
H32 H 0.0252 -0.0672 0.6992
O3 O 0.2966(7) 0.6936(7) 0.2297(5)
C38 C 0.2568(10) 0.7515(10) 0.2750(6)
H33 H 0.3104 0.8040 0.2764
H34 H 0.2586 0.7227 0.3154
C39 C 0.1258(12) 0.7767(8) 0.2581(9)
H35 H 0.1224 0.8162 0.2224
H36 H 0.0798 0.8027 0.2926
C40 C 0.0820(9) 0.6825(10) 0.2429(8)
H37 H 0.0774 0.6447 0.2794
H38 H 0.0018 0.6819 0.2212
C41 C 0.1879(9) 0.6584(11) 0.2020(7)
H39 H 0.1946 0.5939 0.1982
H40 H 0.1759 0.6836 0.1609
C42? C 0.0752(18) 0.755(2) 0.2231(10)
C43? C 0.201(2) 0.7639(16) 0.1960(10)
C44? C 0.248(2) 0.6726(18) 0.2152(11)
C45? C 0.206(2) 0.6717(16) 0.2797(10)
H41? H 0.0276 0.8105 0.2198
H42? H 0.0278 0.7069 0.2042
H43? H 0.2498 0.8118 0.2147
H44? H 0.1991 0.7712 0.1512
H45? H 0.2081 0.6254 0.1911
H46? H 0.3385 0.6676 0.2118
H47? H 0.1754 0.6126 0.2906
H48? H 0.2758 0.6865 0.3069
O4? O 0.1084(16) 0.7353(13) 0.2867(8)
loop_
_geom_bond_atom_site_label_1
_geom_bond_atom_site_label_2
_geom_bond_site_symmetry_1
_geom_bond_site_symmetry_2
S1 C1 1_555 1_555
O1 C20 1_555 1_555
O2 C30 1_555 1_555
N1 C1 1_555 1_555
N2 C1 1_555 1_555
C2 N1 1_555 1_555
H1 C2 1_555 1_555
C3 N2 1_555 1_555
H2 C3 1_555 1_555
C4 C2 1_555 1_555
C5 C4 1_555 1_555
H3 C5 1_555 1_555
C6 C5 1_555 1_555
H4 C6 1_555 1_555
C7 C6 1_555 1_555
H5 C7 1_555 1_555
C8 C7 1_555 1_555
H6 C8 1_555 1_555
C9 C4 1_555 1_555
H7 C9 1_555 1_555
C10 C3 1_555 1_555
C11 C10 1_555 1_555
H8 C11 1_555 1_555
C12 C11 1_555 1_555
H9 C12 1_555 1_555
C13 C12 1_555 1_555
H10 C13 1_555 1_555
C14 C13 1_555 1_555
H11 C14 1_555 1_555
C15 C10 1_555 1_555
H12 C15 1_555 1_555
C16 N1 1_555 1_555
H13 C16 1_555 1_555
H14 C16 1_555 1_555
C17 C16 1_555 1_555
C18 C17 1_555 1_555
H15 C18 1_555 1_555
C19 C18 1_555 1_555
H16 C19 1_555 1_555
C20 C19 1_555 1_555
C21 C20 1_555 1_555
H17 C21 1_555 1_555
C22 C17 1_555 1_555
H18 C22 1_555 1_555
C23 O1 1_555 1_555
H19 C23 1_555 1_555
H20 C23 1_555 1_555
C24 C23 1_555 1_555
C25 C24 1_555 1_555
H21 C25 1_555 1_555
C26 C25 1_555 1_555
C27 C26 1_555 1_555
H22 C27 1_555 1_555
C28 C27 1_555 1_555
H23 C28 1_555 1_555
C29 C24 1_555 1_555
H24 C29 1_555 1_555
C30 C26 1_555 1_555
H25 C30 1_555 1_555
H26 C30 1_555 1_555
C31 O2 1_555 1_555
C32 C31 1_555 1_555
H27 C32 1_555 1_555
C33 C32 1_555 1_555
H28 C33 1_555 1_555
C34 C33 1_555 1_555
C35 C34 1_555 1_555
H29 C35 1_555 1_555
C36 C31 1_555 1_555
H30 C36 1_555 1_555
C37 N2 1_555 1_555
H31 C37 1_555 1_555
H32 C37 1_555 1_555
O3 C38 1_555 1_555
C38 H33 1_555 1_555
H34 C38 1_555 1_555
C39 C38 1_555 1_555
H35 C39 1_555 1_555
H36 C39 1_555 1_555
C40 C39 1_555 1_555
H37 C40 1_555 1_555
H38 C40 1_555 1_555
C41 O3 1_555 1_555
H39 C41 1_555 1_555
H40 C41 1_555 1_555
C2 C3 1_555 1_555
C8 C9 1_555 1_555
C14 C15 1_555 1_555
C21 C22 1_555 1_555
C28 C29 1_555 1_555
C34 C37 1_555 1_555
C35 C36 1_555 1_555
C40 C41 1_555 1_555

#END
