
#######################################################################
#
#                 Cambridge Crystallographic Data Centre
#                                CCDC 
#
#######################################################################
#
# If this CIF has been generated from an entry in the Cambridge 
# Structural Database, then it will include bibliographic, chemical, 
# crystal, experimental, refinement or atomic coordinate data resulting 
# from the CCDC's data processing and validation procedures.
#
#######################################################################

data_VELXOB
_chemical_formula_moiety         'C14 H10 Cl1 N3 O6,C3 H7 N1 O1'
_chemical_name_systematic        
'5-(4-((4-chlorophenyl)amino)-2-oxo-2,5-dihydrofuran-3-yl)-5-hydroxypyrimidine-2,4,6(1H,3H,5H)-trione N,N-dimethylformamide solvate'
_symmetry_cell_setting           orthorhombic
_symmetry_space_group_name_H-M   'P 21 21 21'
_symmetry_Int_Tables_number      19
_space_group_name_Hall           'P 2ac 2ab'
loop_
_symmetry_equiv_pos_site_id
_symmetry_equiv_pos_as_xyz
1 x,y,z
2 1/2-x,-y,1/2+z
3 -x,1/2+y,1/2-z
4 1/2+x,1/2-y,-z
_cell_length_a                   6.9537(6)
_cell_length_b                   12.7504(11)
_cell_length_c                   20.7039(17)
_cell_angle_alpha                90
_cell_angle_beta                 90
_cell_angle_gamma                90
_cell_volume                     1835.66
_exptl_crystal_colour            white
_exptl_crystal_description       block
_cell_formula_units_Z            4
loop_
_atom_site_label
_atom_site_type_symbol
_atom_site_fract_x
_atom_site_fract_y
_atom_site_fract_z
Cl1 Cl 0.5155(2) 0.64833(11) 0.29048(5)
N1 N 0.1871(5) 0.6213(3) 0.78137(18)
H1 H 0.0636 0.6248 0.7805
N2 N 0.4741(5) 0.6352(2) 0.83979(15)
H2 H 0.5298 0.6383 0.8768
N3 N 0.4966(6) 0.6630(2) 0.57549(14)
H3 H 0.4876 0.6006 0.5909
O1 O 0.5829(4) 0.5437(2) 0.68257(13)
H4 H 0.5658 0.4854 0.6983
O2 O 0.1897(5) 0.5639(2) 0.67859(15)
O3 O 0.1844(5) 0.6561(3) 0.88818(15)
O4 O 0.7617(4) 0.6182(2) 0.79284(16)
O5 O 0.5229(5) 0.90005(19) 0.67037(13)
O6 O 0.5049(5) 0.8475(2) 0.77293(13)
C1 C 0.4919(6) 0.6199(3) 0.72130(17)
C2 C 0.2778(7) 0.5972(3) 0.7254(2)
C3 C 0.2764(7) 0.6406(4) 0.8393(2)
C4 C 0.5893(6) 0.6254(3) 0.7873(2)
C5 C 0.5114(7) 0.8242(3) 0.7162(2)
C6 C 0.5093(6) 0.7233(3) 0.68595(17)
C7 C 0.5060(7) 0.7381(3) 0.62132(19)
C8 C 0.5160(7) 0.8530(3) 0.60828(18)
H5 H 0.6302 0.8702 0.5835
H6 H 0.4036 0.8764 0.5846
C9 C 0.4986(7) 0.6663(3) 0.50801(18)
C10 C 0.4858(8) 0.7557(3) 0.47096(19)
H7 H 0.4727 0.8206 0.4910
C11 C 0.4922(7) 0.7500(3) 0.4042(2)
H8 H 0.4825 0.8110 0.3798
C12 C 0.5125(6) 0.6558(3) 0.37431(18)
C13 C 0.5274(7) 0.5652(4) 0.4099(2)
H9 H 0.5415 0.5009 0.3892
C14 C 0.5213(7) 0.5703(3) 0.4767(2)
H10 H 0.5323 0.5091 0.5009
N4 N 0.4719(6) 0.6277(3) 0.06644(17)
O7 O 0.5957(6) 0.6088(3) -0.03344(16)
C15 C 0.4705(9) 0.6410(5) 0.0044(2)
H11 H 0.3674 0.6775 -0.0132
C16 C 0.3193(8) 0.6686(5) 0.1078(2)
H12 H 0.2320 0.7098 0.0824
H13 H 0.3746 0.7117 0.1410
H14 H 0.2510 0.6113 0.1272
C17 C 0.6328(8) 0.5784(5) 0.0976(2)
H15 H 0.6440 0.5073 0.0827
H16 H 0.6135 0.5788 0.1435
H17 H 0.7483 0.6161 0.0873
loop_
_geom_bond_atom_site_label_1
_geom_bond_atom_site_label_2
_geom_bond_site_symmetry_1
_geom_bond_site_symmetry_2
Cl1 C12 1_555 1_555
N1 H1 1_555 1_555
N2 H2 1_555 1_555
N3 H3 1_555 1_555
N4 C15 1_555 1_555
O1 H4 1_555 1_555
O2 C2 1_555 1_555
O3 C3 1_555 1_555
O4 C4 1_555 1_555
O5 C5 1_555 1_555
O6 C5 1_555 1_555
O7 C15 1_555 1_555
C1 O1 1_555 1_555
C2 N1 1_555 1_555
C3 N1 1_555 1_555
C4 N2 1_555 1_555
C5 C6 1_555 1_555
C6 C1 1_555 1_555
C7 N3 1_555 1_555
C8 O5 1_555 1_555
H5 C8 1_555 1_555
H6 C8 1_555 1_555
C9 N3 1_555 1_555
C10 C9 1_555 1_555
H7 C10 1_555 1_555
C11 C10 1_555 1_555
H8 C11 1_555 1_555
C12 C11 1_555 1_555
C13 C12 1_555 1_555
H9 C13 1_555 1_555
C14 C9 1_555 1_555
H10 C14 1_555 1_555
C15 H11 1_555 1_555
C16 N4 1_555 1_555
H12 C16 1_555 1_555
H13 C16 1_555 1_555
H14 C16 1_555 1_555
C17 N4 1_555 1_555
H15 C17 1_555 1_555
H16 C17 1_555 1_555
H17 C17 1_555 1_555
N2 C3 1_555 1_555
C1 C2 1_555 1_555
C1 C4 1_555 1_555
C6 C7 1_555 1_555
C7 C8 1_555 1_555
C13 C14 1_555 1_555

#END
