
#######################################################################
#
#                 Cambridge Crystallographic Data Centre
#                                CCDC 
#
#######################################################################
#
# If this CIF has been generated from an entry in the Cambridge 
# Structural Database, then it will include bibliographic, chemical, 
# crystal, experimental, refinement or atomic coordinate data resulting 
# from the CCDC's data processing and validation procedures.
#
#######################################################################

data_VELZUJ
_chemical_formula_moiety         'C28 H31 N1 O7'
_chemical_name_systematic        
'5-t-Butyl 2-methyl 3-(methoxy(oxo)acetyl)-4-phenyl-2-(2-phenylvinyl)pyrrolidine-2,5-dicarboxylate'
_symmetry_cell_setting           monoclinic
_symmetry_space_group_name_H-M   'P 21/c'
_symmetry_Int_Tables_number      14
_space_group_name_Hall           '-P 2ybc'
loop_
_symmetry_equiv_pos_site_id
_symmetry_equiv_pos_as_xyz
1 x,y,z
2 -x,1/2+y,1/2-z
3 -x,-y,-z
4 x,1/2-y,1/2+z
_cell_length_a                   18.3273(3)
_cell_length_b                   10.84440(10)
_cell_length_c                   14.5421(2)
_cell_angle_alpha                90
_cell_angle_beta                 110.893(2)
_cell_angle_gamma                90
_cell_volume                     2700.18
_exptl_crystal_colour            colorless
_exptl_crystal_description       block
_cell_formula_units_Z            4
loop_
_atom_site_label
_atom_site_type_symbol
_atom_site_fract_x
_atom_site_fract_y
_atom_site_fract_z
O1 O 0.32344(6) -0.34966(9) 0.40395(7)
O2 O 0.15469(6) 0.21755(9) 0.30446(7)
O3 O 0.05825(6) -0.03481(11) 0.25687(9)
O4 O 0.32303(7) -0.21226(10) 0.52022(7)
N1 N 0.29953(6) -0.02263(10) 0.38879(8)
O5 O 0.21366(8) 0.13343(11) 0.45268(8)
O6 O 0.00041(7) 0.13983(13) 0.12296(9)
C1 C 0.20114(7) -0.16150(11) 0.29182(9)
H1 H 0.1734 -0.1649 0.3382
C2 C 0.28462(7) 0.13409(12) 0.26042(9)
H2 H 0.2539 0.1817 0.2076
O7 O 0.09341(9) 0.09782(17) 0.06319(10)
C3 C 0.09871(7) 0.00073(12) 0.21284(10)
C4 C 0.17623(7) -0.27205(11) 0.22473(9)
C5 C 0.18348(7) -0.03612(11) 0.23972(9)
H3 H 0.1955 -0.0409 0.1793
C6 C 0.28931(7) -0.14850(11) 0.35251(9)
H4 H 0.3196 -0.1616 0.3098
C7 C 0.36123(8) 0.13753(12) 0.28434(10)
H5 H 0.3902 0.0925 0.3398
C8 C 0.21665(9) -0.30895(13) 0.16462(10)
H6 H 0.2593 -0.2631 0.1638
C9 C 0.20344(7) 0.13941(12) 0.36674(10)
C10 C 0.24437(7) 0.05616(11) 0.31489(9)
C11 C 0.11185(9) -0.34102(14) 0.22230(11)
H7 H 0.0837 -0.3180 0.2616
C12 C 0.40622(7) 0.20381(13) 0.23404(10)
C13 C 0.06442(8) 0.08526(15) 0.12363(10)
C14 C 0.31496(7) -0.23925(12) 0.43700(9)
C15 C 0.19435(10) -0.41263(15) 0.10623(12)
H8 H 0.2228 -0.4370 0.0677
C16 C 0.48522(9) 0.17746(16) 0.26020(13)
H9 H 0.5086 0.1223 0.3112
C17 C 0.37388(9) 0.28725(16) 0.15885(13)
H10 H 0.3212 0.3071 0.1398
C18 C 0.08877(11) -0.44367(16) 0.16218(14)
H11 H 0.0450 -0.4881 0.1607
C19 C 0.10677(11) 0.29232(17) 0.34382(16)
H12 H 0.0806 0.3549 0.2969
H13 H 0.1393 0.3305 0.4040
H14 H 0.0688 0.2409 0.3565
C20 C 0.13041(12) -0.48013(16) 0.10460(13)
H15 H 0.1154 -0.5498 0.0650
C21 C -0.03740(15) 0.2241(3) 0.04260(16)
H16 H -0.0679 0.1781 -0.0146
H17 H 0.0015 0.2711 0.0280
H18 H -0.0709 0.2790 0.0612
C22 C 0.52972(10) 0.2315(2) 0.21209(15)
H19 H 0.5824 0.2117 0.2302
C23 C 0.41911(11) 0.3417(2) 0.11144(15)
H20 H 0.3965 0.3979 0.0610
C24 C 0.49677(11) 0.3136(2) 0.13823(15)
H21 H 0.5268 0.3504 0.1061
C25 C 0.33907(11) -0.46063(14) 0.46797(12)
C26 C 0.41736(14) -0.4460(2) 0.54923(15)
H22 H 0.4549 -0.4173 0.5220
H23 H 0.4339 -0.5241 0.5809
H24 H 0.4131 -0.3874 0.5965
C27 C 0.34069(19) -0.56178(18) 0.39757(17)
H25 H 0.2914 -0.5646 0.3440
H26 H 0.3501 -0.6395 0.4314
H27 H 0.3816 -0.5457 0.3725
C28 C 0.27269(16) -0.4777(2) 0.5060(2)
H28 H 0.2771 -0.4176 0.5562
H29 H 0.2753 -0.5590 0.5331
H30 H 0.2237 -0.4674 0.4528
H31 H 0.2886(9) -0.0197(15) 0.4438(12)
loop_
_geom_bond_atom_site_label_1
_geom_bond_atom_site_label_2
_geom_bond_site_symmetry_1
_geom_bond_site_symmetry_2
O1 C14 1_555 1_555
O2 C9 1_555 1_555
O3 C3 1_555 1_555
O4 C14 1_555 1_555
N1 C6 1_555 1_555
O5 C9 1_555 1_555
O6 C13 1_555 1_555
C1 H1 1_555 1_555
C2 H2 1_555 1_555
O7 C13 1_555 1_555
C3 C5 1_555 1_555
C4 C1 1_555 1_555
C5 C1 1_555 1_555
H3 C5 1_555 1_555
C6 C1 1_555 1_555
H4 C6 1_555 1_555
C7 C2 1_555 1_555
H5 C7 1_555 1_555
C8 C4 1_555 1_555
H6 C8 1_555 1_555
C9 C10 1_555 1_555
C10 N1 1_555 1_555
C11 C4 1_555 1_555
H7 C11 1_555 1_555
C12 C7 1_555 1_555
C13 C3 1_555 1_555
C14 C6 1_555 1_555
C15 C8 1_555 1_555
H8 C15 1_555 1_555
C16 C12 1_555 1_555
H9 C16 1_555 1_555
C17 C12 1_555 1_555
H10 C17 1_555 1_555
C18 C11 1_555 1_555
H11 C18 1_555 1_555
C19 O2 1_555 1_555
H12 C19 1_555 1_555
H13 C19 1_555 1_555
H14 C19 1_555 1_555
C20 C15 1_555 1_555
H15 C20 1_555 1_555
C21 O6 1_555 1_555
H16 C21 1_555 1_555
H17 C21 1_555 1_555
H18 C21 1_555 1_555
C22 C16 1_555 1_555
H19 C22 1_555 1_555
C23 C17 1_555 1_555
H20 C23 1_555 1_555
C24 C22 1_555 1_555
H21 C24 1_555 1_555
C25 O1 1_555 1_555
C26 C25 1_555 1_555
H22 C26 1_555 1_555
H23 C26 1_555 1_555
H24 C26 1_555 1_555
C27 C25 1_555 1_555
H25 C27 1_555 1_555
H26 C27 1_555 1_555
H27 C27 1_555 1_555
C28 C25 1_555 1_555
H28 C28 1_555 1_555
H29 C28 1_555 1_555
H30 C28 1_555 1_555
H31 N1 1_555 1_555
C2 C10 1_555 1_555
C5 C10 1_555 1_555
C18 C20 1_555 1_555
C23 C24 1_555 1_555

#END
