
#######################################################################
#
#                 Cambridge Crystallographic Data Centre
#                                CCDC 
#
#######################################################################
#
# If this CIF has been generated from an entry in the Cambridge 
# Structural Database, then it will include bibliographic, chemical, 
# crystal, experimental, refinement or atomic coordinate data resulting 
# from the CCDC's data processing and validation procedures.
#
#######################################################################

data_VEMCOI
_chemical_formula_moiety         'C24 H19 Cl1 I1 N1 O1'
_chemical_name_systematic        
(E)-3-(2-(4-chlorophenyl)-2-iodoethenyl)-1-methyl-3-(4-methylphenyl)-1,3-dihydro-2H-indol-2-one
_symmetry_cell_setting           triclinic
_symmetry_space_group_name_H-M   'P -1'
_symmetry_Int_Tables_number      2
_space_group_name_Hall           '-P 1'
loop_
_symmetry_equiv_pos_site_id
_symmetry_equiv_pos_as_xyz
1 x,y,z
2 -x,-y,-z
_cell_length_a                   9.2532(19)
_cell_length_b                   9.542(3)
_cell_length_c                   12.045(3)
_cell_angle_alpha                82.895(3)
_cell_angle_beta                 86.591(3)
_cell_angle_gamma                79.419(3)
_cell_volume                     1036.65
_exptl_crystal_colour            colorless
_exptl_crystal_description       block
_chemical_melting_point          '119-122 deg.C'
_cell_formula_units_Z            2
loop_
_atom_site_label
_atom_site_type_symbol
_atom_site_fract_x
_atom_site_fract_y
_atom_site_fract_z
I1 I 0.74969(2) 0.66037(2) 0.14159(2)
Cl1 Cl 0.73448(12) 0.00280(9) -0.07200(8)
O1 O 0.9888(2) 0.1948(2) 0.38409(17)
N1 N 0.8024(3) 0.0690(2) 0.3709(2)
C1 C 0.7284(3) 0.3053(3) 0.4193(2)
C2 C 0.8593(3) 0.1859(3) 0.3890(2)
C3 C 0.8927(4) -0.0630(3) 0.3406(3)
H1 H 0.867274 -0.080302 0.266278
H2 H 0.875024 -0.143267 0.395672
H3 H 0.996731 -0.054516 0.339506
C4 C 0.6478(3) 0.0978(3) 0.3742(2)
C5 C 0.5535(3) 0.0108(3) 0.3483(2)
H4 H 0.589485 -0.082765 0.327929
C6 C 0.4038(3) 0.0660(3) 0.3532(2)
H5 H 0.335859 0.009099 0.335772
C7 C 0.3515(3) 0.2024(3) 0.3831(2)
H6 H 0.248526 0.237329 0.386455
C8 C 0.4483(3) 0.2885(3) 0.4083(2)
H7 H 0.412357 0.382075 0.428490
C9 C 0.5977(3) 0.2355(3) 0.4033(2)
C10 C 0.7315(3) 0.4444(3) 0.3411(2)
H8 H 0.726211 0.530105 0.374919
C11 C 0.7410(3) 0.4548(3) 0.2308(2)
C12 C 0.7422(3) 0.3400(3) 0.1575(2)
C13 C 0.6095(3) 0.3042(3) 0.1324(2)
H9 H 0.519742 0.351707 0.163554
C14 C 0.6072(4) 0.1996(3) 0.0624(3)
H10 H 0.516645 0.174957 0.045654
C15 C 0.7374(4) 0.1325(3) 0.0179(3)
C16 C 0.8709(4) 0.1666(3) 0.0401(3)
H11 H 0.959863 0.119914 0.007384
C17 C 0.8726(3) 0.2706(3) 0.1113(3)
H12 H 0.963571 0.294134 0.128293
C18 C 0.7464(3) 0.3358(3) 0.5396(2)
C19 C 0.6464(3) 0.3121(3) 0.6271(2)
H13 H 0.566445 0.266342 0.615887
C20 C 0.6625(3) 0.3551(3) 0.7313(2)
H14 H 0.593877 0.336578 0.790672
C21 C 0.7769(3) 0.4245(3) 0.7505(2)
C22 C 0.8807(3) 0.4415(3) 0.6632(2)
H15 H 0.962678 0.484161 0.675035
C23 C 0.8666(3) 0.3973(3) 0.5600(2)
H16 H 0.939419 0.408921 0.502311
C24 C 0.7867(3) 0.4867(3) 0.8577(2)
H17 H 0.769129 0.591637 0.843457
H18 H 0.884933 0.452523 0.887341
H19 H 0.712539 0.456367 0.912395
loop_
_geom_bond_atom_site_label_1
_geom_bond_atom_site_label_2
_geom_bond_site_symmetry_1
_geom_bond_site_symmetry_2
I1 C11 1_555 1_555
Cl1 C15 1_555 1_555
O1 C2 1_555 1_555
N1 C2 1_555 1_555
C1 C2 1_555 1_555
C3 N1 1_555 1_555
H1 C3 1_555 1_555
H2 C3 1_555 1_555
H3 C3 1_555 1_555
C4 N1 1_555 1_555
C5 C4 1_555 1_555
H4 C5 1_555 1_555
C6 C5 1_555 1_555
H5 C6 1_555 1_555
C7 C6 1_555 1_555
H6 C7 1_555 1_555
C8 C7 1_555 1_555
H7 C8 1_555 1_555
C9 C1 1_555 1_555
C10 C1 1_555 1_555
H8 C10 1_555 1_555
C11 C10 1_555 1_555
C12 C11 1_555 1_555
C13 C12 1_555 1_555
H9 C13 1_555 1_555
C14 C13 1_555 1_555
H10 C14 1_555 1_555
C15 C14 1_555 1_555
C16 C15 1_555 1_555
H11 C16 1_555 1_555
C17 C12 1_555 1_555
H12 C17 1_555 1_555
C18 C1 1_555 1_555
C19 C18 1_555 1_555
H13 C19 1_555 1_555
C20 C19 1_555 1_555
H14 C20 1_555 1_555
C21 C20 1_555 1_555
C22 C21 1_555 1_555
H15 C22 1_555 1_555
C23 C18 1_555 1_555
H16 C23 1_555 1_555
C24 C21 1_555 1_555
H17 C24 1_555 1_555
H18 C24 1_555 1_555
H19 C24 1_555 1_555
C4 C9 1_555 1_555
C8 C9 1_555 1_555
C16 C17 1_555 1_555
C22 C23 1_555 1_555

#END
