
#######################################################################
#
#                 Cambridge Crystallographic Data Centre
#                                CCDC 
#
#######################################################################
#
# If this CIF has been generated from an entry in the Cambridge 
# Structural Database, then it will include bibliographic, chemical, 
# crystal, experimental, refinement or atomic coordinate data resulting 
# from the CCDC's data processing and validation procedures.
#
#######################################################################

data_VEMCAS
_chemical_formula_moiety         'C18 H21 Br1 N2 O2 S1'
_chemical_name_systematic        
'Methyl 12-bromo-13,14-(thiodiimino)deisopropyldehydroabietate'
_symmetry_cell_setting           monoclinic
_symmetry_space_group_name_H-M   'C 2'
_symmetry_Int_Tables_number      5
_space_group_name_Hall           'C 2y'
loop_
_symmetry_equiv_pos_site_id
_symmetry_equiv_pos_as_xyz
1 x,y,z
2 -x,y,-z
3 1/2+x,1/2+y,z
4 1/2-x,1/2+y,-z
_cell_length_a                   20.847(2)
_cell_length_b                   12.1800(10)
_cell_length_c                   7.1222(7)
_cell_angle_alpha                90
_cell_angle_beta                 101.738(2)
_cell_angle_gamma                90
_cell_volume                     1770.63
_exptl_crystal_colour            yellow
_exptl_crystal_description       block
_chemical_melting_point          '370-371 K'
_cell_formula_units_Z            4
_exptl_crystal_recrystallization_method 'absolute acetone'
loop_
_atom_site_label
_atom_site_type_symbol
_atom_site_fract_x
_atom_site_fract_y
_atom_site_fract_z
Br1 Br 0.11216(3) 0.50000(5) 0.27189(8)
S1 S -0.09285(7) 0.6869(2) 0.2480(2)
O1 O 0.1121(2) 1.2758(4) -0.0386(6)
O2 O 0.1200(3) 1.1426(5) -0.2391(7)
N1 N -0.0302(2) 0.6076(4) 0.2528(5)
N2 N -0.0606(2) 0.8048(5) 0.2514(5)
C1 C 0.0208(2) 0.6765(4) 0.2580(5)
C2 C 0.0038(2) 0.7899(5) 0.2569(6)
C3 C 0.0513(2) 0.8731(4) 0.2615(6)
C4 C 0.0287(2) 0.9895(6) 0.2601(7)
C5 C 0.0786(2) 1.0757(5) 0.2380(7)
C6 C 0.1337(2) 1.0297(3) 0.1483(6)
C7 C 0.1784(2) 1.1217(4) 0.0905(6)
C8 C 0.2335(2) 1.0691(4) 0.0114(7)
C9 C 0.2700(2) 0.9805(4) 0.1382(7)
C10 C 0.2226(2) 0.8901(4) 0.1721(7)
C11 C 0.1672(2) 0.9317(4) 0.2654(5)
C12 C 0.1144(2) 0.8440(4) 0.2631(5)
C13 C 0.1322(2) 0.7293(4) 0.2694(5)
C14 C 0.0872(3) 0.6489(4) 0.2675(6)
C15 C 0.1324(3) 1.1809(4) -0.0851(9)
C16 C 0.0658(4) 1.3277(7) -0.2060(10)
C17 C 0.2069(3) 1.2041(5) 0.2474(9)
C18 C 0.1952(2) 0.9578(4) 0.4796(6)
H1 H 0.0141 1.0034 0.3789
H2 H -0.0090 0.9981 0.1561
H3 H 0.0973 1.1061 0.3630
H4 H 0.0568 1.1347 0.1582
H5 H 0.1113 0.9976 0.0263
H6 H 0.2153 1.0377 -0.1132
H7 H 0.2643 1.1257 -0.0070
H8 H 0.2913 1.0120 0.2600
H9 H 0.3036 0.9494 0.0777
H10 H 0.2036 0.8561 0.0503
H11 H 0.2470 0.8341 0.2536
H12 H 0.1758 0.7102 0.2749
H13 H 0.0906 1.3676 -0.2833
H14 H 0.0368 1.3770 -0.1590
H15 H 0.0407 1.2714 -0.2820
H16 H 0.2336 1.1660 0.3531
H17 H 0.1718 1.2410 0.2905
H18 H 0.2331 1.2570 0.1971
H19 H 0.2123 0.8918 0.5448
H20 H 0.1610 0.9866 0.5375
H21 H 0.2297 1.0110 0.4889
loop_
_geom_bond_atom_site_label_1
_geom_bond_atom_site_label_2
_geom_bond_site_symmetry_1
_geom_bond_site_symmetry_2
Br1 C14 1_555 1_555
S1 N1 1_555 1_555
O1 C15 1_555 1_555
O2 C15 1_555 1_555
N1 C1 1_555 1_555
N2 S1 1_555 1_555
C1 C2 1_555 1_555
C2 N2 1_555 1_555
C3 C2 1_555 1_555
C4 C3 1_555 1_555
C5 C4 1_555 1_555
C6 C5 1_555 1_555
C7 C6 1_555 1_555
C8 C7 1_555 1_555
C9 C8 1_555 1_555
C10 C9 1_555 1_555
C11 C6 1_555 1_555
C12 C3 1_555 1_555
C13 C12 1_555 1_555
C14 C1 1_555 1_555
C15 C7 1_555 1_555
C16 O1 1_555 1_555
C17 C7 1_555 1_555
C18 C11 1_555 1_555
H1 C4 1_555 1_555
H2 C4 1_555 1_555
H3 C5 1_555 1_555
H4 C5 1_555 1_555
H5 C6 1_555 1_555
H6 C8 1_555 1_555
H7 C8 1_555 1_555
H8 C9 1_555 1_555
H9 C9 1_555 1_555
H10 C10 1_555 1_555
H11 C10 1_555 1_555
H12 C13 1_555 1_555
H13 C16 1_555 1_555
H14 C16 1_555 1_555
H15 C16 1_555 1_555
H16 C17 1_555 1_555
H17 C17 1_555 1_555
H18 C17 1_555 1_555
H19 C18 1_555 1_555
H20 C18 1_555 1_555
H21 C18 1_555 1_555
C10 C11 1_555 1_555
C11 C12 1_555 1_555
C13 C14 1_555 1_555

#END
