
#######################################################################
#
#                 Cambridge Crystallographic Data Centre
#                                CCDC 
#
#######################################################################
#
# If this CIF has been generated from an entry in the Cambridge 
# Structural Database, then it will include bibliographic, chemical, 
# crystal, experimental, refinement or atomic coordinate data resulting 
# from the CCDC's data processing and validation procedures.
#
#######################################################################

data_VEMDID
_chemical_formula_moiety         'C46 H50 O1'
_chemical_name_systematic        
2,7-di-t-butyl-9,11-bis(4-t-butylphenyl)pyreno[4,5-c]furan
_symmetry_cell_setting           monoclinic
_symmetry_space_group_name_H-M   'P 21/c'
_symmetry_Int_Tables_number      14
_space_group_name_Hall           '-P 2ybc'
loop_
_symmetry_equiv_pos_site_id
_symmetry_equiv_pos_as_xyz
1 x,y,z
2 -x,1/2+y,1/2-z
3 -x,-y,-z
4 x,1/2-y,1/2+z
_cell_length_a                   16.677(3)
_cell_length_b                   21.913(3)
_cell_length_c                   9.8620(17)
_cell_angle_alpha                90
_cell_angle_beta                 94.031(14)
_cell_angle_gamma                90
_cell_volume                     3595.08
_exptl_crystal_colour            colorless
_exptl_crystal_description       needle
_cell_formula_units_Z            4
loop_
_atom_site_label
_atom_site_type_symbol
_atom_site_fract_x
_atom_site_fract_y
_atom_site_fract_z
O1 O 0.6162(3) 0.2639(2) 0.3385(5)
C1 C 0.6884(4) 0.2700(3) 0.4141(7)
C2 C 0.7024(4) 0.3310(3) 0.4369(7)
C3 C 0.6355(4) 0.3640(3) 0.3719(7)
C4 C 0.5829(4) 0.3212(3) 0.3125(7)
C5 C 0.7728(4) 0.3631(3) 0.4973(7)
C6 C 0.8434(4) 0.3346(3) 0.5452(7)
H1 H 0.846460 0.291436 0.537955
C7 C 0.9100(4) 0.3658(3) 0.6034(8)
C8 C 0.9033(4) 0.4288(3) 0.6129(7)
H2 H 0.947537 0.451336 0.652735
C9 C 0.8339(4) 0.4602(3) 0.5659(7)
C10 C 0.8293(5) 0.5252(3) 0.5743(8)
H3 H 0.873335 0.547340 0.616101
C11 C 0.7631(4) 0.5560(3) 0.5238(7)
H4 H 0.761179 0.599007 0.534749
C12 C 0.6962(4) 0.5256(3) 0.4546(7)
C13 C 0.6311(4) 0.5572(3) 0.3928(7)
H5 H 0.630116 0.600399 0.400664
C14 C 0.5680(4) 0.5288(3) 0.3209(7)
C15 C 0.5720(4) 0.4647(3) 0.3104(7)
H6 H 0.531238 0.444020 0.256276
C16 C 0.6331(4) 0.4308(3) 0.3758(7)
C17 C 0.6978(4) 0.4607(3) 0.4482(7)
C18 C 0.7675(4) 0.4280(3) 0.5047(7)
C19 C 0.9857(4) 0.3323(3) 0.6558(8)
C20 C 1.0034(9) 0.3487(7) 0.8103(12)
H7 H 1.052092 0.327485 0.846029
H8 H 1.011198 0.392886 0.819774
H9 H 0.957862 0.336062 0.861367
C21 C 1.0577(8) 0.3518(8) 0.5789(17)
H10 H 1.105659 0.329622 0.614536
H11 H 1.047149 0.342632 0.482058
H12 H 1.066497 0.395773 0.590778
C22 C 0.9781(10) 0.2626(5) 0.6516(19)
H13 H 1.028863 0.244162 0.686778
H14 H 0.934862 0.249795 0.707750
H15 H 0.965556 0.249339 0.557611
C23 C 0.4996(4) 0.5634(3) 0.2459(7)
C24 C 0.4858(5) 0.6259(3) 0.3110(9)
H16 H 0.441390 0.646836 0.259992
H17 H 0.472482 0.620145 0.405338
H18 H 0.534788 0.650491 0.309111
C25 C 0.5213(5) 0.5740(4) 0.0982(7)
H19 H 0.477687 0.596354 0.048355
H20 H 0.571060 0.597843 0.098366
H21 H 0.529021 0.534588 0.053992
C26 C 0.4203(4) 0.5281(3) 0.2428(8)
H22 H 0.377860 0.551991 0.193635
H23 H 0.426379 0.488938 0.196830
H24 H 0.405748 0.520913 0.336060
C27 C 0.7281(4) 0.2122(3) 0.4545(7)
C28 C 0.7371(4) 0.1665(3) 0.3598(8)
H25 H 0.716747 0.172121 0.268204
C29 C 0.7754(4) 0.1131(3) 0.3984(8)
H26 H 0.781381 0.082724 0.331143
C30 C 0.8062(4) 0.1011(3) 0.5318(7)
C31 C 0.7940(5) 0.1476(3) 0.6253(8)
H27 H 0.812429 0.141751 0.717710
C32 C 0.7564(5) 0.2012(3) 0.5885(8)
H28 H 0.749422 0.231538 0.655562
C33 C 0.8464(4) 0.0418(3) 0.5752(7)
C34 C 0.7827(5) 0.0003(4) 0.6301(10)
H29 H 0.807318 -0.038593 0.658996
H30 H 0.759886 0.020022 0.707847
H31 H 0.739952 -0.007122 0.558630
C35 C 0.8811(5) 0.0089(4) 0.4548(8)
H32 H 0.906646 -0.029297 0.486432
H33 H 0.837671 -0.000130 0.385521
H34 H 0.921094 0.035095 0.415565
C36 C 0.9148(6) 0.0528(4) 0.6843(10)
H35 H 0.939883 0.013691 0.710769
H36 H 0.955011 0.079723 0.648109
H37 H 0.893242 0.071845 0.763931
C37 C 0.5049(4) 0.3188(3) 0.2355(7)
C38 C 0.4386(4) 0.3510(3) 0.2778(8)
H38 H 0.444258 0.376266 0.356145
C39 C 0.3651(4) 0.3460(3) 0.2059(7)
H39 H 0.321020 0.368578 0.235902
C40 C 0.3525(4) 0.3093(3) 0.0904(7)
C41 C 0.4204(4) 0.2776(3) 0.0507(7)
H40 H 0.414723 0.251828 -0.026884
C42 C 0.4943(4) 0.2824(3) 0.1198(8)
H41 H 0.538756 0.260833 0.088385
C43 C 0.2729(4) 0.3027(3) 0.0096(8)
C44 C 0.2046(4) 0.3342(4) 0.0796(9)
H42 H 0.153919 0.328932 0.024121
H43 H 0.199696 0.316013 0.169369
H44 H 0.216491 0.377834 0.089746
C45 C 0.2791(5) 0.3306(4) -0.1328(8)
H45 H 0.227385 0.326325 -0.185645
H46 H 0.293038 0.373882 -0.123964
H47 H 0.320846 0.309165 -0.179435
C46 C 0.2512(5) 0.2351(3) -0.0082(9)
H48 H 0.199313 0.231360 -0.060878
H49 H 0.292790 0.214378 -0.056512
H50 H 0.247491 0.216193 0.081203
C47? C 1.0181(13) 0.2996(12) 0.5309(18)
H51? H 1.067271 0.277201 0.559540
H52? H 0.977497 0.271091 0.492160
H53? H 1.030080 0.330057 0.462359
C48? C 0.9657(13) 0.2844(11) 0.760(3)
H54? H 1.015026 0.263161 0.793449
H55? H 0.941892 0.304385 0.836944
H56? H 0.927468 0.254909 0.718371
C49? C 1.0510(10) 0.3756(8) 0.715(2)
H57? H 1.098449 0.352032 0.747749
H58? H 1.065674 0.404342 0.645026
H59? H 1.030664 0.398331 0.791418
loop_
_geom_bond_atom_site_label_1
_geom_bond_atom_site_label_2
_geom_bond_site_symmetry_1
_geom_bond_site_symmetry_2
O1 C1 1_555 1_555
C1 C2 1_555 1_555
C2 C3 1_555 1_555
C3 C4 1_555 1_555
C4 O1 1_555 1_555
C5 C2 1_555 1_555
C6 C5 1_555 1_555
H1 C6 1_555 1_555
C7 C6 1_555 1_555
C8 C7 1_555 1_555
H2 C8 1_555 1_555
C9 C8 1_555 1_555
C10 C9 1_555 1_555
H3 C10 1_555 1_555
C11 C10 1_555 1_555
H4 C11 1_555 1_555
C12 C11 1_555 1_555
C13 C12 1_555 1_555
H5 C13 1_555 1_555
C14 C13 1_555 1_555
C15 C14 1_555 1_555
H6 C15 1_555 1_555
C16 C3 1_555 1_555
C17 C12 1_555 1_555
C18 C5 1_555 1_555
C19 C7 1_555 1_555
C20 C19 1_555 1_555
H7 C20 1_555 1_555
H8 C20 1_555 1_555
H9 C20 1_555 1_555
C21 C19 1_555 1_555
H10 C21 1_555 1_555
H11 C21 1_555 1_555
H12 C21 1_555 1_555
C22 C19 1_555 1_555
H13 C22 1_555 1_555
H14 C22 1_555 1_555
H15 C22 1_555 1_555
C23 C14 1_555 1_555
C24 C23 1_555 1_555
H16 C24 1_555 1_555
H17 C24 1_555 1_555
H18 C24 1_555 1_555
C25 C23 1_555 1_555
H19 C25 1_555 1_555
H20 C25 1_555 1_555
H21 C25 1_555 1_555
C26 C23 1_555 1_555
H22 C26 1_555 1_555
H23 C26 1_555 1_555
H24 C26 1_555 1_555
C27 C1 1_555 1_555
C28 C27 1_555 1_555
H25 C28 1_555 1_555
C29 C28 1_555 1_555
H26 C29 1_555 1_555
C30 C29 1_555 1_555
C31 C30 1_555 1_555
H27 C31 1_555 1_555
C32 C27 1_555 1_555
H28 C32 1_555 1_555
C33 C30 1_555 1_555
C34 C33 1_555 1_555
H29 C34 1_555 1_555
H30 C34 1_555 1_555
H31 C34 1_555 1_555
C35 C33 1_555 1_555
H32 C35 1_555 1_555
H33 C35 1_555 1_555
H34 C35 1_555 1_555
C36 C33 1_555 1_555
H35 C36 1_555 1_555
H36 C36 1_555 1_555
H37 C36 1_555 1_555
C37 C4 1_555 1_555
C38 C37 1_555 1_555
H38 C38 1_555 1_555
C39 C38 1_555 1_555
H39 C39 1_555 1_555
C40 C39 1_555 1_555
C41 C40 1_555 1_555
H40 C41 1_555 1_555
C42 C37 1_555 1_555
H41 C42 1_555 1_555
C43 C40 1_555 1_555
C44 C43 1_555 1_555
H42 C44 1_555 1_555
H43 C44 1_555 1_555
H44 C44 1_555 1_555
C45 C43 1_555 1_555
H45 C45 1_555 1_555
H46 C45 1_555 1_555
H47 C45 1_555 1_555
C46 C43 1_555 1_555
H48 C46 1_555 1_555
H49 C46 1_555 1_555
H50 C46 1_555 1_555
C9 C18 1_555 1_555
C15 C16 1_555 1_555
C16 C17 1_555 1_555
C17 C18 1_555 1_555
C31 C32 1_555 1_555
C41 C42 1_555 1_555

#END
