
#######################################################################
#
#                 Cambridge Crystallographic Data Centre
#                                CCDC 
#
#######################################################################
#
# If this CIF has been generated from an entry in the Cambridge 
# Structural Database, then it will include bibliographic, chemical, 
# crystal, experimental, refinement or atomic coordinate data resulting 
# from the CCDC's data processing and validation procedures.
#
#######################################################################

data_VEMDEZ
_chemical_formula_moiety         'C46 H50 O2'
_chemical_name_systematic        
(2,7-di-t-butylpyrene-4,5-diyl)bis[(4-t-butylphenyl)methanone]
_symmetry_cell_setting           monoclinic
_symmetry_space_group_name_H-M   'P 21/c'
_symmetry_Int_Tables_number      14
_space_group_name_Hall           '-P 2ybc'
loop_
_symmetry_equiv_pos_site_id
_symmetry_equiv_pos_as_xyz
1 x,y,z
2 -x,1/2+y,1/2-z
3 -x,-y,-z
4 x,1/2-y,1/2+z
_cell_length_a                   12.4593(17)
_cell_length_b                   16.124(2)
_cell_length_c                   19.566(3)
_cell_angle_alpha                90
_cell_angle_beta                 108.559(5)
_cell_angle_gamma                90
_cell_volume                     3726.28
_exptl_crystal_colour            yellow
_exptl_crystal_description       polyhedron
_cell_formula_units_Z            4
loop_
_atom_site_label
_atom_site_type_symbol
_atom_site_fract_x
_atom_site_fract_y
_atom_site_fract_z
C1 C 0.7258(3) 0.4228(3) 0.3296(2)
C2 C 0.7817(3) 0.4196(2) 0.4013(2)
C3 C 0.7915(3) 0.3433(3) 0.4415(2)
C4 C 0.8544(3) 0.3368(3) 0.5140(2)
H1 H 0.8983 0.3831 0.5370
C5 C 0.8560(4) 0.2653(3) 0.5545(3)
C6 C 0.7943(4) 0.1978(3) 0.5180(3)
H2 H 0.7931 0.1485 0.5443
C7 C 0.7344(4) 0.1991(3) 0.4448(3)
C8 C 0.6709(4) 0.1289(3) 0.4071(3)
H3 H 0.6688 0.0794 0.4330
C9 C 0.6148(4) 0.1322(3) 0.3363(3)
H4 H 0.5731 0.0851 0.3132
C10 C 0.6157(4) 0.2044(3) 0.2943(3)
C11 C 0.5556(4) 0.2091(3) 0.2209(3)
H5 H 0.5146 0.1618 0.1975
C12 C 0.5537(4) 0.2808(3) 0.1807(3)
C13 C 0.6116(4) 0.3500(3) 0.2166(3)
H6 H 0.6097 0.3996 0.1900
C14 C 0.6724(3) 0.3492(3) 0.2903(2)
C15 C 0.6742(3) 0.2757(3) 0.3300(2)
C16 C 0.7336(3) 0.2721(2) 0.4048(2)
C17 C 0.9197(5) 0.2659(3) 0.6347(3)
C18 C 0.9077(5) 0.1857(3) 0.6719(3)
H7 H 0.9487 0.1902 0.7236
H8 H 0.9394 0.1399 0.6515
H9 H 0.8275 0.1749 0.6647
C19 C 1.0448(5) 0.2824(4) 0.6467(4)
H10 H 1.0855 0.2850 0.6985
H11 H 1.0532 0.3353 0.6242
H12 H 1.0761 0.2375 0.6250
C20 C 0.8736(6) 0.3364(4) 0.6706(3)
H13 H 0.9156 0.3377 0.7223
H14 H 0.7932 0.3268 0.6636
H15 H 0.8829 0.3895 0.6487
C21 C 0.4860(4) 0.2808(3) 0.1003(3)
C22 C 0.3616(4) 0.2610(4) 0.0915(3)
H16 H 0.3187 0.2560 0.0401
H17 H 0.3295 0.3057 0.1128
H18 H 0.3573 0.2086 0.1159
C23 C 0.5296(5) 0.2121(4) 0.0617(3)
H19 H 0.4824 0.2099 0.0110
H20 H 0.5261 0.1587 0.0848
H21 H 0.6081 0.2239 0.0647
C24 C 0.4934(5) 0.3624(4) 0.0637(3)
H22 H 0.4509 0.3583 0.0122
H23 H 0.5728 0.3751 0.0698
H24 H 0.4611 0.4067 0.0854
C25 C 0.7031(4) 0.5050(3) 0.2909(2)
O1 O 0.6310(3) 0.5504(2) 0.30130(19)
C26 C 0.7655(4) 0.5293(3) 0.2418(3)
C27 C 0.7201(4) 0.5872(3) 0.1876(3)
H25 H 0.6481 0.6110 0.1822
C28 C 0.7786(4) 0.6103(3) 0.1416(3)
H26 H 0.7445 0.6484 0.1039
C29 C 0.8855(4) 0.5797(3) 0.1485(3)
C30 C 0.9303(4) 0.5237(3) 0.2034(3)
H27 H 1.0039 0.5021 0.2102
C31 C 0.8713(4) 0.4978(3) 0.2491(3)
H28 H 0.9043 0.4581 0.2856
C32 C 0.9467(4) 0.6054(3) 0.0960(3)
C33 C 1.0655(4) 0.5698(4) 0.1150(3)
H29 H 1.1001 0.5871 0.0788
H30 H 1.0617 0.5091 0.1160
H31 H 1.1113 0.5901 0.1625
C34 C 0.8783(5) 0.5741(4) 0.0208(3)
H32 H 0.9144 0.5928 -0.0143
H33 H 0.8011 0.5962 0.0075
H34 H 0.8757 0.5134 0.0210
C35 C 0.9552(5) 0.6993(3) 0.0929(3)
H35 H 0.9936 0.7145 0.0581
H36 H 0.9985 0.7205 0.1406
H37 H 0.8790 0.7234 0.0779
C36 C 0.8317(4) 0.4977(3) 0.4418(2)
O2 O 0.9046(3) 0.5352(2) 0.42435(18)
C37 C 0.7894(4) 0.5272(3) 0.4996(2)
C38 C 0.6870(4) 0.5014(3) 0.5053(3)
H38 H 0.6404 0.4653 0.4697
C39 C 0.6507(4) 0.5269(3) 0.5617(3)
H39 H 0.5790 0.5090 0.5634
C40 C 0.7164(4) 0.5781(3) 0.6159(3)
C41 C 0.8193(4) 0.6046(3) 0.6094(3)
H40 H 0.8662 0.6405 0.6450
C42 C 0.8545(4) 0.5799(3) 0.5526(3)
H41 H 0.9248 0.5994 0.5496
C43 C 0.6772(4) 0.6050(3) 0.6786(3)
C44 C 0.7653(9) 0.5747(8) 0.7498(5)
H42 H 0.7454 0.5963 0.7910
H43 H 0.8408 0.5946 0.7523
H44 H 0.7655 0.5139 0.7511
C45 C 0.6686(12) 0.6996(5) 0.6815(7)
H45 H 0.6487 0.7156 0.7243
H46 H 0.6101 0.7194 0.6381
H47 H 0.7416 0.7244 0.6840
C46 C 0.5636(9) 0.5682(9) 0.6761(7)
H48 H 0.5429 0.5881 0.7176
H49 H 0.5690 0.5076 0.6777
H50 H 0.5055 0.5854 0.6315
C47? C 0.5763(10) 0.6627(8) 0.6479(7)
H51? H 0.5496 0.6826 0.6870
H52? H 0.5152 0.6326 0.6125
H53? H 0.5992 0.7102 0.6244
C48? C 0.6385(13) 0.5299(7) 0.7113(8)
H54? H 0.6111 0.5478 0.7507
H55? H 0.7022 0.4916 0.7301
H56? H 0.5773 0.5018 0.6742
C49? C 0.7685(9) 0.6497(8) 0.7364(6)
H57? H 0.7393 0.6661 0.7754
H58? H 0.7919 0.6993 0.7158
H59? H 0.8338 0.6129 0.7556
loop_
_geom_bond_atom_site_label_1
_geom_bond_atom_site_label_2
_geom_bond_site_symmetry_1
_geom_bond_site_symmetry_2
C1 C2 1_555 1_555
C2 C3 1_555 1_555
C3 C4 1_555 1_555
C4 H1 1_555 1_555
C5 C4 1_555 1_555
C6 C5 1_555 1_555
H2 C6 1_555 1_555
C7 C6 1_555 1_555
C8 C7 1_555 1_555
H3 C8 1_555 1_555
C9 C8 1_555 1_555
H4 C9 1_555 1_555
C10 C9 1_555 1_555
C11 C10 1_555 1_555
H5 C11 1_555 1_555
C12 C11 1_555 1_555
C13 C12 1_555 1_555
H6 C13 1_555 1_555
C14 C1 1_555 1_555
C15 C10 1_555 1_555
C16 C3 1_555 1_555
C17 C5 1_555 1_555
C18 C17 1_555 1_555
H7 C18 1_555 1_555
H8 C18 1_555 1_555
H9 C18 1_555 1_555
C19 C17 1_555 1_555
H10 C19 1_555 1_555
H11 C19 1_555 1_555
H12 C19 1_555 1_555
C20 C17 1_555 1_555
H13 C20 1_555 1_555
H14 C20 1_555 1_555
H15 C20 1_555 1_555
C21 C12 1_555 1_555
C22 C21 1_555 1_555
H16 C22 1_555 1_555
H17 C22 1_555 1_555
H18 C22 1_555 1_555
C23 C21 1_555 1_555
H19 C23 1_555 1_555
H20 C23 1_555 1_555
H21 C23 1_555 1_555
C24 C21 1_555 1_555
H22 C24 1_555 1_555
H23 C24 1_555 1_555
H24 C24 1_555 1_555
C25 C1 1_555 1_555
O1 C25 1_555 1_555
C26 C25 1_555 1_555
C27 C26 1_555 1_555
H25 C27 1_555 1_555
C28 C27 1_555 1_555
H26 C28 1_555 1_555
C29 C28 1_555 1_555
C30 C29 1_555 1_555
H27 C30 1_555 1_555
C31 C26 1_555 1_555
H28 C31 1_555 1_555
C32 C29 1_555 1_555
C33 C32 1_555 1_555
H29 C33 1_555 1_555
H30 C33 1_555 1_555
H31 C33 1_555 1_555
C34 C32 1_555 1_555
H32 C34 1_555 1_555
H33 C34 1_555 1_555
H34 C34 1_555 1_555
C35 C32 1_555 1_555
H35 C35 1_555 1_555
H36 C35 1_555 1_555
H37 C35 1_555 1_555
C36 C2 1_555 1_555
O2 C36 1_555 1_555
C37 C36 1_555 1_555
C38 C37 1_555 1_555
H38 C38 1_555 1_555
C39 C38 1_555 1_555
H39 C39 1_555 1_555
C40 C39 1_555 1_555
C41 C40 1_555 1_555
H40 C41 1_555 1_555
C42 C37 1_555 1_555
H41 C42 1_555 1_555
C43 C40 1_555 1_555
C44 C43 1_555 1_555
H42 C44 1_555 1_555
H43 C44 1_555 1_555
H44 C44 1_555 1_555
C45 C43 1_555 1_555
H45 C45 1_555 1_555
H46 C45 1_555 1_555
H47 C45 1_555 1_555
C46 C43 1_555 1_555
H48 C46 1_555 1_555
H49 C46 1_555 1_555
H50 C46 1_555 1_555
C7 C16 1_555 1_555
C13 C14 1_555 1_555
C14 C15 1_555 1_555
C15 C16 1_555 1_555
C30 C31 1_555 1_555
C41 C42 1_555 1_555

#END
