
#######################################################################
#
#                 Cambridge Crystallographic Data Centre
#                                CCDC 
#
#######################################################################
#
# If this CIF has been generated from an entry in the Cambridge 
# Structural Database, then it will include bibliographic, chemical, 
# crystal, experimental, refinement or atomic coordinate data resulting 
# from the CCDC's data processing and validation procedures.
#
#######################################################################

data_VEMDUO
_chemical_formula_moiety         'C19 H16 O5'
_chemical_name_systematic        
7-(2,3-Dihydro-1,4-benzodioxin-2-ylmethoxy)-4-methyl-2H-chromen-2-one
_symmetry_cell_setting           triclinic
_symmetry_space_group_name_H-M   'P -1'
_symmetry_Int_Tables_number      2
_space_group_name_Hall           '-P 1'
loop_
_symmetry_equiv_pos_site_id
_symmetry_equiv_pos_as_xyz
1 x,y,z
2 -x,-y,-z
_cell_length_a                   6.8031(10)
_cell_length_b                   10.4202(16)
_cell_length_c                   11.2290(17)
_cell_angle_alpha                96.561(7)
_cell_angle_beta                 96.941(6)
_cell_angle_gamma                97.049(7)
_cell_volume                     777.452
_exptl_crystal_colour            white
_cell_formula_units_Z            2
_exptl_crystal_recrystallization_method 'Ethyl acetate/hexane'
loop_
_atom_site_label
_atom_site_type_symbol
_atom_site_fract_x
_atom_site_fract_y
_atom_site_fract_z
O1 O 0.28908(18) 0.71820(13) 0.69984(11)
O2 O -0.04323(18) 0.54967(13) 0.74977(12)
O3 O 0.55119(18) 0.80802(11) 0.93787(12)
O4 O 1.16864(17) 0.68514(11) 1.10173(10)
O5 O 1.4518(2) 0.62103(14) 1.17217(14)
C1 C 0.8650(2) 0.74215(15) 1.01839(15)
H1 H 0.8403 0.6620 0.9696
C2 C 1.0383(2) 0.77668(14) 1.09878(14)
C3 C 1.0829(2) 0.89583(14) 1.17313(14)
C4 C 0.7290(2) 0.83008(15) 1.01242(15)
C5 C 1.2697(3) 0.92128(17) 1.25465(16)
C6 C 0.9418(3) 0.98190(16) 1.16359(16)
H2 H 0.9668 1.0624 1.2118
C7 C 1.3477(3) 0.70688(18) 1.17848(17)
C8 C 1.3915(3) 0.82888(18) 1.25474(17)
H3 H 1.5109 0.8455 1.3074
C9 C 0.2761(3) 0.67598(17) 0.81724(16)
H4 H 0.2107 0.7383 0.8654
C10 C 0.7682(3) 0.95122(16) 1.08563(17)
H5 H 0.6763 1.0102 1.0810
C11 C 0.1096(3) 0.69601(17) 0.62508(15)
C12 C 0.4873(3) 0.67837(16) 0.87822(17)
H6 H 0.4907 0.6163 0.9363
H7 H 0.5740 0.6560 0.8188
C13 C 0.1560(3) 0.54536(19) 0.80448(18)
H8 H 0.2172 0.4832 0.7550
H9 H 0.1533 0.5167 0.8835
C14 C -0.0525(3) 0.61400(16) 0.64958(15)
C15 C -0.2317(3) 0.59847(19) 0.57281(18)
H10 H -0.3422 0.5458 0.5905
C16 C 0.0929(3) 0.7548(2) 0.52098(18)
H11 H 0.2028 0.8073 0.5024
C17 C -0.2476(3) 0.6596(2) 0.47164(18)
H12 H -0.3689 0.6490 0.4211
C18 C -0.0851(4) 0.7365(2) 0.44441(18)
H13 H -0.0951 0.7762 0.3743
C19 C 1.3219(4) 1.0486(2) 1.3369(2)
H14 H 1.4487 1.0499 1.3852
H15 H 1.2208 1.0578 1.3887
H16 H 1.3296 1.1193 1.2891
loop_
_geom_bond_atom_site_label_1
_geom_bond_atom_site_label_2
_geom_bond_site_symmetry_1
_geom_bond_site_symmetry_2
O1 C9 1_555 1_555
O2 C13 1_555 1_555
O3 C4 1_555 1_555
O4 C2 1_555 1_555
O5 C7 1_555 1_555
C1 H1 1_555 1_555
C2 C1 1_555 1_555
C3 C2 1_555 1_555
C4 C1 1_555 1_555
C5 C3 1_555 1_555
C6 C3 1_555 1_555
H2 C6 1_555 1_555
C7 O4 1_555 1_555
C8 C5 1_555 1_555
H3 C8 1_555 1_555
C9 H4 1_555 1_555
C10 C4 1_555 1_555
H5 C10 1_555 1_555
C11 O1 1_555 1_555
C12 O3 1_555 1_555
H6 C12 1_555 1_555
H7 C12 1_555 1_555
C13 C9 1_555 1_555
H8 C13 1_555 1_555
H9 C13 1_555 1_555
C14 O2 1_555 1_555
C15 C14 1_555 1_555
H10 C15 1_555 1_555
C16 C11 1_555 1_555
H11 C16 1_555 1_555
C17 C15 1_555 1_555
H12 C17 1_555 1_555
C18 C16 1_555 1_555
H13 C18 1_555 1_555
C19 C5 1_555 1_555
H14 C19 1_555 1_555
H15 C19 1_555 1_555
H16 C19 1_555 1_555
C6 C10 1_555 1_555
C7 C8 1_555 1_555
C9 C12 1_555 1_555
C11 C14 1_555 1_555
C17 C18 1_555 1_555

#END
