
#######################################################################
#
#                 Cambridge Crystallographic Data Centre
#                                CCDC 
#
#######################################################################
#
# If this CIF has been generated from an entry in the Cambridge 
# Structural Database, then it will include bibliographic, chemical, 
# crystal, experimental, refinement or atomic coordinate data resulting 
# from the CCDC's data processing and validation procedures.
#
#######################################################################

data_VEMKIK
_chemical_formula_moiety         'C32 H18 N2 O1'
_chemical_name_systematic        
spiro[fluorene-9,9'-quinolino[3,2,1-kl]phenoxazine]-2-carbonitrile
_symmetry_cell_setting           triclinic
_symmetry_space_group_name_H-M   'P -1'
_symmetry_Int_Tables_number      2
_space_group_name_Hall           '-P 1'
loop_
_symmetry_equiv_pos_site_id
_symmetry_equiv_pos_as_xyz
1 x,y,z
2 -x,-y,-z
_cell_length_a                   8.581(4)
_cell_length_b                   11.201(6)
_cell_length_c                   12.279(6)
_cell_angle_alpha                90.395(18)
_cell_angle_beta                 104.260(17)
_cell_angle_gamma                105.731(16)
_cell_volume                     1097.56
_exptl_crystal_colour            yellow
_exptl_crystal_description       prism
_cell_formula_units_Z            2
loop_
_atom_site_label
_atom_site_type_symbol
_atom_site_fract_x
_atom_site_fract_y
_atom_site_fract_z
C1 C 0.5076(2) 0.39370(17) 0.27416(16)
C2 C 0.4672(2) 0.36969(19) 0.37570(17)
H1 H 0.4559 0.4339 0.4188
C3 C 0.4433(3) 0.25155(19) 0.41463(18)
H2 H 0.4171 0.2372 0.4834
C4 C 0.4586(3) 0.1557(2) 0.35074(19)
H3 H 0.4398 0.0760 0.3755
C5 C 0.5021(3) 0.17798(18) 0.24983(18)
H4 H 0.5144 0.1137 0.2073
C6 C 0.5268(2) 0.29558(17) 0.21283(16)
C7 C 0.6575(2) 0.43372(16) 0.09735(15)
C8 C 0.7511(2) 0.45059(18) 0.02054(16)
H5 H 0.7600 0.3825 -0.0187
C9 C 0.8328(2) 0.57046(18) 0.00184(17)
H6 H 0.8947 0.5828 -0.0516
C10 C 0.8230(2) 0.67152(18) 0.06173(16)
H7 H 0.8785 0.7515 0.0486
C11 C 0.7306(2) 0.65454(16) 0.14175(15)
C12 C 0.6446(2) 0.53449(16) 0.15731(14)
C13 C 0.4665(2) 0.60640(17) 0.25084(15)
C14 C 0.5483(2) 0.72966(16) 0.23849(15)
C15 C 0.4686(3) 0.82064(19) 0.24761(17)
H8 H 0.5214 0.9031 0.2394
C16 C 0.3125(3) 0.7907(2) 0.26856(19)
H9 H 0.2609 0.8527 0.2744
C17 C 0.2332(3) 0.6692(2) 0.28079(18)
H10 H 0.1278 0.6493 0.2948
C18 C 0.3087(2) 0.57690(19) 0.27242(16)
H11 H 0.2547 0.4949 0.2811
C19 C 0.7228(2) 0.76118(16) 0.21691(15)
C20 C 0.7732(2) 0.88865(16) 0.17070(16)
C21 C 0.6969(3) 0.92951(18) 0.07135(17)
H12 H 0.6034 0.8765 0.0215
C22 C 0.7621(3) 1.0514(2) 0.04685(19)
H13 H 0.7117 1.0803 -0.0197
C23 C 0.9012(3) 1.1296(2) 0.1208(2)
H14 H 0.9423 1.2111 0.1039
C24 C 0.9806(3) 1.08896(18) 0.21955(18)
H15 H 1.0757 1.1417 0.2682
C25 C 0.9153(2) 0.96765(17) 0.24468(16)
C26 C 0.9683(2) 0.89968(16) 0.34236(16)
C27 C 1.1011(2) 0.93762(19) 0.43817(17)
H16 H 1.1740 1.0175 0.4474
C28 C 1.1232(2) 0.85480(18) 0.51950(17)
H17 H 1.2121 0.8789 0.5836
C29 C 1.0132(2) 0.73565(18) 0.50613(16)
C30 C 0.8789(2) 0.69710(18) 0.40984(16)
H18 H 0.8055 0.6175 0.4009
C31 C 0.8582(2) 0.77962(16) 0.32881(15)
C32 C 1.0377(3) 0.6506(2) 0.59209(19)
N1 N 0.54165(19) 0.51279(13) 0.23281(13)
N2 N 1.0571(3) 0.5838(2) 0.66158(18)
O1 O 0.57236(17) 0.31291(11) 0.11209(11)
loop_
_geom_bond_atom_site_label_1
_geom_bond_atom_site_label_2
_geom_bond_site_symmetry_1
_geom_bond_site_symmetry_2
C1 C2 1_555 1_555
C2 H1 1_555 1_555
C3 C2 1_555 1_555
H2 C3 1_555 1_555
C4 C3 1_555 1_555
H3 C4 1_555 1_555
C5 C4 1_555 1_555
H4 C5 1_555 1_555
C6 C1 1_555 1_555
C7 C8 1_555 1_555
C8 H5 1_555 1_555
C9 C8 1_555 1_555
H6 C9 1_555 1_555
C10 C9 1_555 1_555
H7 C10 1_555 1_555
C11 C10 1_555 1_555
C12 C7 1_555 1_555
C13 C14 1_555 1_555
C14 C15 1_555 1_555
C15 H8 1_555 1_555
C16 C15 1_555 1_555
H9 C16 1_555 1_555
C17 C16 1_555 1_555
H10 C17 1_555 1_555
C18 C13 1_555 1_555
H11 C18 1_555 1_555
C19 C11 1_555 1_555
C20 C19 1_555 1_555
C21 C20 1_555 1_555
H12 C21 1_555 1_555
C22 C21 1_555 1_555
H13 C22 1_555 1_555
C23 C22 1_555 1_555
H14 C23 1_555 1_555
C24 C23 1_555 1_555
H15 C24 1_555 1_555
C25 C20 1_555 1_555
C26 C25 1_555 1_555
C27 C26 1_555 1_555
H16 C27 1_555 1_555
C28 C27 1_555 1_555
H17 C28 1_555 1_555
C29 C28 1_555 1_555
C30 C29 1_555 1_555
H18 C30 1_555 1_555
C31 C19 1_555 1_555
C32 C29 1_555 1_555
N1 C1 1_555 1_555
N2 C32 1_555 1_555
O1 C6 1_555 1_555
C5 C6 1_555 1_555
C7 O1 1_555 1_555
C11 C12 1_555 1_555
C12 N1 1_555 1_555
C13 N1 1_555 1_555
C14 C19 1_555 1_555
C17 C18 1_555 1_555
C24 C25 1_555 1_555
C26 C31 1_555 1_555
C30 C31 1_555 1_555

#END
