
#######################################################################
#
#                 Cambridge Crystallographic Data Centre
#                                CCDC 
#
#######################################################################
#
# If this CIF has been generated from an entry in the Cambridge 
# Structural Database, then it will include bibliographic, chemical, 
# crystal, experimental, refinement or atomic coordinate data resulting 
# from the CCDC's data processing and validation procedures.
#
#######################################################################

data_VEMQOV
_chemical_name_common            "Mosher's amide"
_chemical_formula_moiety         'C30 H22 Cl1 F7 N2 O2'
_chemical_name_systematic        
N-(1-(5-Chloropyridin-2-yl)-1-(3-fluoro-5-(trifluoromethyl)phenyl)-2-phenylethyl)-3,3,3-trifluoro-2-methoxy-2-phenylpropanamide
_symmetry_cell_setting           orthorhombic
_symmetry_space_group_name_H-M   'P 21 21 21'
_symmetry_Int_Tables_number      19
_space_group_name_Hall           'P 2ac 2ab'
loop_
_symmetry_equiv_pos_site_id
_symmetry_equiv_pos_as_xyz
1 x,y,z
2 1/2-x,-y,1/2+z
3 1/2+x,1/2-y,-z
4 -x,1/2+y,1/2-z
_cell_length_a                   8.9252(5)
_cell_length_b                   14.5130(7)
_cell_length_c                   21.8534(14)
_cell_angle_alpha                90
_cell_angle_beta                 90
_cell_angle_gamma                90
_cell_volume                     2830.7
_exptl_crystal_colour            colorless
_exptl_crystal_description       prism
_cell_formula_units_Z            4
loop_
_atom_site_label
_atom_site_type_symbol
_atom_site_fract_x
_atom_site_fract_y
_atom_site_fract_z
Cl1 Cl 0.80747(12) 0.89296(7) 0.56961(5)
F1 F 0.5933(2) 0.19447(11) 0.55203(8)
O1 O 0.63466(19) 0.37737(12) 0.54924(7)
F2 F 0.5531(2) 0.18696(12) 0.64817(8)
O2 O 0.4872(2) 0.36311(13) 0.70004(9)
N1 N 0.5828(2) 0.48448(14) 0.64692(9)
H1 H 0.6131 0.5004 0.6111
C1 C 0.6249(3) 0.64590(17) 0.66312(11)
F3 F 0.3943(2) 0.25237(15) 0.58959(10)
C2 C 0.6254(3) 0.33337(17) 0.60618(10)
C3 C 0.7855(3) 0.31054(16) 0.62663(11)
C4 C 0.5402(3) 0.2418(2) 0.59945(12)
C5 C 0.6715(3) 0.53297(19) 0.74694(11)
N2 N 0.6602(3) 0.64206(16) 0.60400(10)
C6 C 0.5536(3) 0.39558(17) 0.65620(11)
C7 C 0.7194(3) 0.48922(19) 0.85173(12)
C8 C 0.5672(3) 0.55752(18) 0.69304(11)
C9 C 0.2930(3) 0.5921(2) 0.66227(12)
C10 C 0.6199(3) 0.51278(18) 0.80535(11)
H2 H 0.5177 0.5150 0.8135
C11 C 0.6410(3) 0.7264(2) 0.69695(13)
H3 H 0.6138 0.7278 0.7380
C12 C 0.8993(3) 0.3071(2) 0.58407(13)
H4 H 0.8795 0.3211 0.5433
C13 C 0.4012(3) 0.5698(2) 0.71329(11)
H5 H 0.3684 0.5135 0.7331
H6 H 0.3966 0.6188 0.7434
C14 C 0.8247(3) 0.5295(2) 0.73637(14)
H7 H 0.8627 0.5432 0.6978
C15 C 0.6629(3) 0.46629(19) 0.91259(12)
F4 F 1.0686(2) 0.5021(3) 0.77143(11)
F5 F 0.7680(3) 0.4437(2) 0.95317(11)
C16 C 0.7335(3) 0.7983(2) 0.60845(15)
C17 C 0.8183(4) 0.2914(2) 0.68715(13)
H8 H 0.7431 0.2944 0.7165
C18 C 0.7130(3) 0.7183(2) 0.57708(14)
H9 H 0.7365 0.7165 0.5356
C19 C 0.2174(3) 0.5224(2) 0.63254(14)
H10 H 0.2353 0.4615 0.6435
C20 C 1.0422(4) 0.2832(3) 0.60162(15)
H11 H 1.1178 0.2800 0.5724
C21 C 0.9189(3) 0.5059(3) 0.78274(15)
C22 C 0.2603(3) 0.6821(2) 0.64596(14)
H12 H 0.3084 0.7306 0.6657
C23 C 0.8717(3) 0.4859(2) 0.84067(14)
H13 H 0.9393 0.4707 0.8714
C24 C 0.4969(4) 0.4060(2) 0.52015(13)
H14 H 0.4549 0.3551 0.4979
H15 H 0.5172 0.4558 0.4924
H16 H 0.4271 0.4262 0.5508
C25 C 1.0744(4) 0.2642(3) 0.66145(18)
H17 H 1.1716 0.2488 0.6730
C26 C 0.1567(4) 0.7005(3) 0.60063(17)
H18 H 0.1359 0.7612 0.5901
C27 C 0.6979(4) 0.8042(2) 0.66891(16)
H19 H 0.7113 0.8588 0.6906
C28 C 0.1150(4) 0.5417(3) 0.58655(17)
H20 H 0.0670 0.4937 0.5663
F6 F 0.5837(4) 0.3881(3) 0.91363(13)
C29 C 0.9630(4) 0.2680(3) 0.70425(16)
H21 H 0.9842 0.2547 0.7450
C30 C 0.0846(4) 0.6303(3) 0.57104(16)
H22 H 0.0151 0.6432 0.5405
F7 F 0.5734(7) 0.5291(3) 0.93717(16)
F8? F 0.6961(11) 0.5367(5) 0.9492(4)
F9? F 0.5143(3) 0.4605(7) 0.9152(5)
F10? F 0.7106(11) 0.3926(4) 0.9430(4)
loop_
_geom_bond_atom_site_label_1
_geom_bond_atom_site_label_2
_geom_bond_site_symmetry_1
_geom_bond_site_symmetry_2
Cl1 C16 1_555 1_555
F1 C4 1_555 1_555
O1 C2 1_555 1_555
F2 C4 1_555 1_555
O2 C6 1_555 1_555
N1 H1 1_555 1_555
C1 N2 1_555 1_555
F3 C4 1_555 1_555
C2 C3 1_555 1_555
C3 C12 1_555 1_555
C4 C2 1_555 1_555
C5 C8 1_555 1_555
N2 C18 1_555 1_555
C6 N1 1_555 1_555
C7 C10 1_555 1_555
C8 N1 1_555 1_555
C9 C13 1_555 1_555
C10 C5 1_555 1_555
H2 C10 1_555 1_555
C11 C1 1_555 1_555
H3 C11 1_555 1_555
C12 H4 1_555 1_555
C13 C8 1_555 1_555
H5 C13 1_555 1_555
H6 C13 1_555 1_555
C14 C5 1_555 1_555
H7 C14 1_555 1_555
C15 C7 1_555 1_555
F4 C21 1_555 1_555
F5 C15 1_555 1_555
C16 C18 1_555 1_555
C17 C3 1_555 1_555
H8 C17 1_555 1_555
C18 H9 1_555 1_555
C19 C9 1_555 1_555
H10 C19 1_555 1_555
C20 C12 1_555 1_555
H11 C20 1_555 1_555
C21 C14 1_555 1_555
C22 C9 1_555 1_555
H12 C22 1_555 1_555
C23 C7 1_555 1_555
H13 C23 1_555 1_555
C24 O1 1_555 1_555
H14 C24 1_555 1_555
H15 C24 1_555 1_555
H16 C24 1_555 1_555
C25 C20 1_555 1_555
H17 C25 1_555 1_555
C26 C22 1_555 1_555
H18 C26 1_555 1_555
C27 C11 1_555 1_555
H19 C27 1_555 1_555
C28 C19 1_555 1_555
H20 C28 1_555 1_555
F6 C15 1_555 1_555
C29 C17 1_555 1_555
H21 C29 1_555 1_555
C30 C26 1_555 1_555
H22 C30 1_555 1_555
F7 C15 1_555 1_555
C1 C8 1_555 1_555
C2 C6 1_555 1_555
C16 C27 1_555 1_555
C21 C23 1_555 1_555
C25 C29 1_555 1_555
C28 C30 1_555 1_555

#END
