
#######################################################################
#
#                 Cambridge Crystallographic Data Centre
#                                CCDC 
#
#######################################################################
#
# If this CIF has been generated from an entry in the Cambridge 
# Structural Database, then it will include bibliographic, chemical, 
# crystal, experimental, refinement or atomic coordinate data resulting 
# from the CCDC's data processing and validation procedures.
#
#######################################################################

data_VEMSUE
_chemical_formula_moiety         'C19 H16 Cl1 N2 1+,I1 1-'
_chemical_name_systematic        
'2-(4-chlorophenyl)-1,3-dimethyl-1H-perimidin-3-ium iodide'
_symmetry_cell_setting           monoclinic
_symmetry_space_group_name_H-M   'P 21/c'
_symmetry_Int_Tables_number      14
_space_group_name_Hall           '-P 2ybc'
loop_
_symmetry_equiv_pos_site_id
_symmetry_equiv_pos_as_xyz
1 x,y,z
2 -x,1/2+y,1/2-z
3 -x,-y,-z
4 x,1/2-y,1/2+z
_cell_length_a                   7.3359(11)
_cell_length_b                   18.424(3)
_cell_length_c                   12.8968(19)
_cell_angle_alpha                90
_cell_angle_beta                 93.230(2)
_cell_angle_gamma                90
_cell_volume                     1740.32
_exptl_crystal_colour            yellow
_exptl_crystal_description       needle
_cell_formula_units_Z            4
loop_
_atom_site_label
_atom_site_type_symbol
_atom_site_fract_x
_atom_site_fract_y
_atom_site_fract_z
I1 I 0.64951(2) 0.681046(9) 0.366570(13)
Cl1 Cl 0.26776(13) 0.51968(4) 0.58110(7)
C1 C 0.2264(3) 0.84342(12) 0.57358(16)
C2 C 0.2538(4) 0.61389(13) 0.57756(18)
C3 C 0.1024(4) 0.64697(14) 0.5296(2)
H1 H 0.0076 0.6192 0.4995
N1 N 0.2568(2) 0.87952(9) 0.48649(13)
C4 C 0.0938(3) 0.72168(13) 0.52721(19)
H2 H -0.0065 0.7446 0.4943
C5 C 0.3953(4) 0.65397(15) 0.62298(19)
H3 H 0.4967 0.6308 0.6542
N2 N 0.1909(2) 0.87785(10) 0.66080(14)
C6 C 0.2343(3) 0.76274(12) 0.57368(17)
C7 C 0.3855(3) 0.72889(14) 0.62181(18)
H4 H 0.4796 0.7564 0.6531
C8 C 0.1961(3) 0.95470(12) 0.66810(17)
C9 C 0.2236(3) 0.99353(12) 0.57629(17)
C10 C 0.3040(4) 0.84112(14) 0.39152(18)
H5 H 0.3300 0.7912 0.4076
H6 H 0.4096 0.8633 0.3642
H7 H 0.2034 0.8439 0.3408
C11 C 0.2246(3) 1.07044(13) 0.5779(2)
C12 C 0.1982(4) 1.10570(15) 0.6740(3)
H8 H 0.1970 1.1561 0.6772
C13 C 0.1372(4) 0.83751(15) 0.75354(19)
H9 H 0.1136 0.7878 0.7352
H10 H 0.0290 0.8588 0.7790
H11 H 0.2343 0.8398 0.8066
C14 C 0.2544(3) 1.10802(14) 0.4853(2)
H12 H 0.2571 1.1585 0.4851
C15 C 0.2776(3) 0.99470(14) 0.3931(2)
H13 H 0.2937 0.9704 0.3311
C16 C 0.2520(3) 0.95667(12) 0.48235(17)
C17 C 0.1737(4) 0.99058(16) 0.7599(2)
H14 H 0.1579 0.9648 0.8207
C18 C 0.2792(4) 1.07100(15) 0.3965(2)
H15 H 0.2978 1.0968 0.3359
C19 C 0.1750(4) 1.06634(17) 0.7606(3)
H16 H 0.1593 1.0905 0.8228
loop_
_geom_bond_atom_site_label_1
_geom_bond_atom_site_label_2
_geom_bond_site_symmetry_1
_geom_bond_site_symmetry_2
Cl1 C2 1_555 1_555
C1 N1 1_555 1_555
C2 C3 1_555 1_555
C3 H1 1_555 1_555
N1 C10 1_555 1_555
C4 C3 1_555 1_555
H2 C4 1_555 1_555
C5 C2 1_555 1_555
H3 C5 1_555 1_555
N2 C1 1_555 1_555
C6 C1 1_555 1_555
C7 C5 1_555 1_555
H4 C7 1_555 1_555
C8 N2 1_555 1_555
C9 C8 1_555 1_555
C10 H5 1_555 1_555
H6 C10 1_555 1_555
H7 C10 1_555 1_555
C11 C9 1_555 1_555
C12 C11 1_555 1_555
H8 C12 1_555 1_555
C13 N2 1_555 1_555
H9 C13 1_555 1_555
H10 C13 1_555 1_555
H11 C13 1_555 1_555
C14 C11 1_555 1_555
H12 C14 1_555 1_555
C15 H13 1_555 1_555
C16 N1 1_555 1_555
C17 C8 1_555 1_555
H14 C17 1_555 1_555
C18 C14 1_555 1_555
H15 C18 1_555 1_555
C19 C12 1_555 1_555
H16 C19 1_555 1_555
C4 C6 1_555 1_555
C6 C7 1_555 1_555
C9 C16 1_555 1_555
C15 C16 1_555 1_555
C15 C18 1_555 1_555
C17 C19 1_555 1_555

#END
