
#######################################################################
#
#                 Cambridge Crystallographic Data Centre
#                                CCDC 
#
#######################################################################
#
# If this CIF has been generated from an entry in the Cambridge 
# Structural Database, then it will include bibliographic, chemical, 
# crystal, experimental, refinement or atomic coordinate data resulting 
# from the CCDC's data processing and validation procedures.
#
#######################################################################

data_VEMYES
_chemical_formula_moiety         'C32 H40 N4 Se2 4+,2(O4 S1 2-),H2 O1'
_chemical_name_systematic        
'10,11,12,13,14,15,25,26,27,28,29,30-dodecahydrotetrabenzo(b,j,m,u)-1,12-diselena-5,8,16,19-tetraazoniacyclodocosine disulfate monohydrate'
_symmetry_cell_setting           monoclinic
_symmetry_space_group_name_H-M   'P 2/n'
_symmetry_Int_Tables_number      13
_space_group_name_Hall           '-P 2yac'
loop_
_symmetry_equiv_pos_site_id
_symmetry_equiv_pos_as_xyz
1 x,y,z
2 1/2-x,y,1/2-z
3 -x,-y,-z
4 1/2+x,-y,1/2+z
_cell_length_a                   14.272(3)
_cell_length_b                   5.3331(10)
_cell_length_c                   26.363(5)
_cell_angle_alpha                90
_cell_angle_beta                 95.749(3)
_cell_angle_gamma                90
_cell_volume                     1996.5
_exptl_crystal_colour            colorless
_exptl_crystal_description       plate
_chemical_melting_point          'decomposes above 235 deg.C'
_cell_formula_units_Z            2
loop_
_atom_site_label
_atom_site_type_symbol
_atom_site_fract_x
_atom_site_fract_y
_atom_site_fract_z
Se1 Se 0.35953(8) -0.99760(15) 0.38166(4)
N1 N 0.1192(5) -0.6997(13) 0.3396(3)
H1 H 0.0904 -0.5527 0.3476
H2 H 0.1710 -0.6599 0.3230
N2 N 0.4244(5) -0.6635(13) 0.2797(3)
H3 H 0.3797 -0.5527 0.2656
H4 H 0.3939 -0.8096 0.2866
C1 C 0.3163(7) -0.7401(14) 0.4253(3)
C2 C 0.3785(7) -0.6113(16) 0.4589(3)
H5 H 0.4440 -0.6464 0.4614
C3 C 0.3423(8) -0.4259(18) 0.4895(3)
H6 H 0.3843 -0.3323 0.5124
C4 C 0.2497(7) -0.3789(17) 0.4868(3)
H7 H 0.2266 -0.2499 0.5070
C5 C 0.1881(7) -0.5192(17) 0.4544(4)
H8 H 0.1222 -0.4921 0.4539
C6 C 0.2213(7) -0.6983(15) 0.4228(3)
C7 C 0.1496(7) -0.8407(17) 0.3870(4)
H9 H 0.1774 -1.0025 0.3778
H10 H 0.0937 -0.8779 0.4051
C8 C 0.0527(6) -0.8533(17) 0.3056(4)
H11 H 0.0013 -0.9117 0.3252
H12 H 0.0863 -1.0035 0.2948
C9 C 0.4924(7) -0.9325(16) 0.3867(4)
C10 C 0.5531(8) -1.0974(17) 0.4146(4)
H13 H 0.5278 -1.2301 0.4330
C11 C 0.6479(8) -1.0714(18) 0.4159(4)
H14 H 0.6889 -1.1829 0.4355
C12 C 0.6839(8) -0.881(2) 0.3883(4)
H15 H 0.7502 -0.8659 0.3882
C13 C 0.6268(8) -0.7161(18) 0.3613(4)
H16 H 0.6535 -0.5837 0.3434
C14 C 0.5284(8) -0.7385(15) 0.3595(4)
C15 C 0.4667(8) -0.5595(15) 0.3276(4)
H17 H 0.4560 -0.3920 0.3379
C16 C 0.0096(7) -0.7177(16) 0.2583(4)
H18 H -0.0428 -0.8207 0.2420
H19 H -0.0176 -0.5575 0.2689
Se1A Se 0.14047(8) -0.99760(15) 0.11834(4)
N1A N 0.3808(5) -0.6997(13) 0.1604(3)
H1A H 0.4096 -0.5527 0.1524
H2A H 0.3290 -0.6599 0.1770
N2A N 0.0756(5) -0.6635(13) 0.2203(3)
H3A H 0.1203 -0.5527 0.2344
H4A H 0.1061 -0.8096 0.2134
C1A C 0.1837(7) -0.7401(14) 0.0747(3)
C2A C 0.1215(7) -0.6113(16) 0.0411(3)
H5A H 0.0560 -0.6464 0.0386
C3A C 0.1577(8) -0.4259(18) 0.0105(3)
H6A H 0.1157 -0.3323 -0.0124
C4A C 0.2503(7) -0.3789(17) 0.0132(3)
H7A H 0.2734 -0.2499 -0.0070
C5A C 0.3119(7) -0.5192(17) 0.0456(4)
H8A H 0.3778 -0.4921 0.0461
C6A C 0.2787(7) -0.6983(15) 0.0772(3)
C7A C 0.3504(7) -0.8407(17) 0.1130(4)
H9A H 0.3226 -1.0025 0.1222
H10A H 0.4063 -0.8779 0.0949
C8A C 0.4473(6) -0.8533(17) 0.1944(4)
H11A H 0.4987 -0.9117 0.1748
H12A H 0.4137 -1.0035 0.2052
C9A C 0.0076(7) -0.9325(16) 0.1133(4)
C10A C -0.0531(8) -1.0974(17) 0.0854(4)
H13A H -0.0278 -1.2301 0.0670
C11A C -0.1479(8) -1.0714(18) 0.0841(4)
H14A H -0.1889 -1.1829 0.0645
C12A C -0.1839(8) -0.881(2) 0.1117(4)
H15A H -0.2502 -0.8659 0.1118
C13A C -0.1268(8) -0.7161(18) 0.1387(4)
H16A H -0.1535 -0.5837 0.1566
C14A C -0.0284(8) -0.7385(15) 0.1405(4)
C15A C 0.0333(8) -0.5595(15) 0.1724(4)
H17A H 0.0440 -0.3920 0.1621
C16A C 0.4904(7) -0.7177(16) 0.2417(4)
H18A H 0.5428 -0.8207 0.2580
H19A H 0.5176 -0.5575 0.2311
S1 S 0.2500 -0.2080(5) 0.2500
O1 O 0.2244(7) -0.3444(14) 0.2931(4)
O2 O 0.3605(7) -0.2070(19) 0.2673(4)
O1A O 0.2756(7) -0.3444(14) 0.2069(4)
O2A O 0.1395(7) -0.2070(19) 0.2327(4)
S2 S -0.0745(3) -0.4007(9) 0.3940(2)
O4 O 0.0005(6) -0.3313(15) 0.3671(3)
O5 O -0.0752(16) -0.276(5) 0.4397(7)
O6 O -0.1553(11) -0.369(4) 0.3664(7)
O7 O -0.0662(14) -0.660(3) 0.4066(10)
O9 O 0.2500 0.209(6) 0.7500
O3? O 0.2663(8) 0.0513(16) 0.2678(4)
O8? O 0.2500 0.732(10) 0.7500
loop_
_geom_bond_atom_site_label_1
_geom_bond_atom_site_label_2
_geom_bond_site_symmetry_1
_geom_bond_site_symmetry_2
Se1 C1 1_555 1_555
S1 O1 1_555 1_555
O2 S1 1_555 1_555
S2 O4 1_555 1_555
O5 S2 1_555 1_555
O6 S2 1_555 1_555
O7 S2 1_555 1_555
N1 H1 1_555 1_555
H2 N1 1_555 1_555
N2 H3 1_555 1_555
H4 N2 1_555 1_555
C1 C2 1_555 1_555
C2 H5 1_555 1_555
C3 C2 1_555 1_555
H6 C3 1_555 1_555
C4 C3 1_555 1_555
H7 C4 1_555 1_555
C5 C4 1_555 1_555
H8 C5 1_555 1_555
C6 C1 1_555 1_555
C7 N1 1_555 1_555
H9 C7 1_555 1_555
H10 C7 1_555 1_555
C8 N1 1_555 1_555
H11 C8 1_555 1_555
H12 C8 1_555 1_555
C9 Se1 1_555 1_555
C10 C9 1_555 1_555
H13 C10 1_555 1_555
C11 C10 1_555 1_555
H14 C11 1_555 1_555
C12 C11 1_555 1_555
H15 C12 1_555 1_555
C13 C12 1_555 1_555
H16 C13 1_555 1_555
C14 C9 1_555 1_555
C15 N2 1_555 1_555
H17 C15 1_555 1_555
C16 C8 1_555 1_555
H18 C16 1_555 1_555
H19 C16 1_555 1_555
Se1A C1A 1_555 1_555
O1A S1 1_555 1_555
O2A S1 1_555 1_555
N1A H1A 1_555 1_555
H2A N1A 1_555 1_555
N2A C16 1_555 1_555
H3A N2A 1_555 1_555
H4A N2A 1_555 1_555
C1A C2A 1_555 1_555
C2A H5A 1_555 1_555
C3A C2A 1_555 1_555
H6A C3A 1_555 1_555
C4A C3A 1_555 1_555
H7A C4A 1_555 1_555
C5A C4A 1_555 1_555
H8A C5A 1_555 1_555
C6A C1A 1_555 1_555
C7A N1A 1_555 1_555
H9A C7A 1_555 1_555
H10A C7A 1_555 1_555
C8A N1A 1_555 1_555
H11A C8A 1_555 1_555
H12A C8A 1_555 1_555
C9A Se1A 1_555 1_555
C10A C9A 1_555 1_555
H13A C10A 1_555 1_555
C11A C10A 1_555 1_555
H14A C11A 1_555 1_555
C12A C11A 1_555 1_555
H15A C12A 1_555 1_555
C13A C12A 1_555 1_555
H16A C13A 1_555 1_555
C14A C9A 1_555 1_555
C15A N2A 1_555 1_555
H17A C15A 1_555 1_555
C16A N2 1_555 1_555
H18A C16A 1_555 1_555
H19A C16A 1_555 1_555
C5 C6 1_555 1_555
C6 C7 1_555 1_555
C13 C14 1_555 1_555
C14 C15 1_555 1_555
C5A C6A 1_555 1_555
C6A C7A 1_555 1_555
C8A C16A 1_555 1_555
C13A C14A 1_555 1_555
C14A C15A 1_555 1_555

#END
