
#######################################################################
#
#                 Cambridge Crystallographic Data Centre
#                                CCDC 
#
#######################################################################
#
# If this CIF has been generated from an entry in the Cambridge 
# Structural Database, then it will include bibliographic, chemical, 
# crystal, experimental, refinement or atomic coordinate data resulting 
# from the CCDC's data processing and validation procedures.
#
#######################################################################

data_VEMZET
_chemical_formula_moiety         'C15 H10 Cl1 N1 O2'
_chemical_name_systematic        N-(4-Chlorobenzyl)phthalimide
_symmetry_cell_setting           monoclinic
_symmetry_space_group_name_H-M   'P 21/c'
_symmetry_Int_Tables_number      14
_space_group_name_Hall           '-P 2ybc'
loop_
_symmetry_equiv_pos_site_id
_symmetry_equiv_pos_as_xyz
1 x,y,z
2 -x,1/2+y,1/2-z
3 -x,-y,-z
4 x,1/2-y,1/2+z
_cell_length_a                   12.796(5)
_cell_length_b                   14.005(5)
_cell_length_c                   7.188(3)
_cell_angle_alpha                90
_cell_angle_beta                 103.763(6)
_cell_angle_gamma                90
_cell_volume                     1251.16
_exptl_crystal_colour            colorless
_exptl_crystal_description       block
_chemical_melting_point          '404-405 K'
_cell_formula_units_Z            4
_exptl_crystal_recrystallization_method ethanol
loop_
_atom_site_label
_atom_site_type_symbol
_atom_site_fract_x
_atom_site_fract_y
_atom_site_fract_z
Cl1 Cl -0.11559(8) 0.38195(8) 0.08860(17)
O1 O 0.3739(2) 0.53077(15) 0.7950(4)
O2 O 0.35779(18) 0.20810(15) 0.7575(3)
N1 N 0.3417(2) 0.37020(17) 0.7861(4)
C1 C 0.4036(3) 0.4509(2) 0.7770(4)
C2 C 0.5061(3) 0.4155(2) 0.7443(4)
C3 C 0.5953(3) 0.4645(2) 0.7231(5)
H1 H 0.5981 0.5309 0.7292
C4 C 0.6794(3) 0.4125(3) 0.6929(5)
H2 H 0.7407 0.4439 0.6769
C5 C 0.6757(3) 0.3148(3) 0.6855(5)
H3 H 0.7351 0.2814 0.6666
C6 C 0.5862(3) 0.2645(2) 0.7055(5)
H4 H 0.5836 0.1982 0.6998
C7 C 0.5013(3) 0.3174(2) 0.7341(4)
C8 C 0.3950(3) 0.2874(2) 0.7598(4)
C9 C 0.2332(3) 0.3732(2) 0.8122(5)
H5 H 0.2253 0.4300 0.8849
H6 H 0.2222 0.3183 0.8876
C10 C 0.1471(3) 0.37373(19) 0.6291(5)
C11 C 0.1703(3) 0.3795(2) 0.4531(5)
H7 H 0.2418 0.3821 0.4455
C12 C 0.0901(3) 0.3816(2) 0.2870(5)
H8 H 0.1076 0.3853 0.1687
C13 C -0.0144(3) 0.3783(2) 0.2968(5)
C14 C -0.0402(3) 0.3724(2) 0.4699(6)
H9 H -0.1119 0.3703 0.4765
C15 C 0.0401(3) 0.3696(2) 0.6338(6)
H10 H 0.0221 0.3649 0.7514
loop_
_geom_bond_atom_site_label_1
_geom_bond_atom_site_label_2
_geom_bond_site_symmetry_1
_geom_bond_site_symmetry_2
Cl1 C13 1_555 1_555
O1 C1 1_555 1_555
O2 C8 1_555 1_555
N1 C1 1_555 1_555
C1 C2 1_555 1_555
C2 C3 1_555 1_555
C3 H1 1_555 1_555
C4 C3 1_555 1_555
H2 C4 1_555 1_555
C5 C4 1_555 1_555
H3 C5 1_555 1_555
C6 C5 1_555 1_555
H4 C6 1_555 1_555
C7 C2 1_555 1_555
C8 N1 1_555 1_555
C9 N1 1_555 1_555
H5 C9 1_555 1_555
H6 C9 1_555 1_555
C10 C9 1_555 1_555
C11 C10 1_555 1_555
H7 C11 1_555 1_555
C12 C11 1_555 1_555
H8 C12 1_555 1_555
C13 C12 1_555 1_555
C14 C13 1_555 1_555
H9 C14 1_555 1_555
C15 C10 1_555 1_555
H10 C15 1_555 1_555
C6 C7 1_555 1_555
C7 C8 1_555 1_555
C14 C15 1_555 1_555

#END
