
#######################################################################
#
#                 Cambridge Crystallographic Data Centre
#                                CCDC 
#
#######################################################################
#
# If this CIF has been generated from an entry in the Cambridge 
# Structural Database, then it will include bibliographic, chemical, 
# crystal, experimental, refinement or atomic coordinate data resulting 
# from the CCDC's data processing and validation procedures.
#
#######################################################################

data_VEMZAP
_chemical_formula_moiety         'C32 H40 N4 Se2 4+,4(Br1 1-),3(H2 O1)'
_chemical_name_systematic        
'10,11,12,13,14,15,25,26,27,28,29,30-dodecahydrotetrabenzo(b,j,m,u)-1,12-diselena-5,8,16,19-tetraazoniacyclodocosine tetrabromide trihydrate'
_symmetry_cell_setting           monoclinic
_symmetry_space_group_name_H-M   'P 2/n'
_symmetry_Int_Tables_number      13
_space_group_name_Hall           '-P 2yac'
loop_
_symmetry_equiv_pos_site_id
_symmetry_equiv_pos_as_xyz
1 x,y,z
2 1/2-x,y,1/2-z
3 -x,-y,-z
4 1/2+x,-y,1/2+z
_cell_length_a                   10.7586(11)
_cell_length_b                   7.3605(8)
_cell_length_c                   24.330(3)
_cell_angle_alpha                90
_cell_angle_beta                 96.406(2)
_cell_angle_gamma                90
_cell_volume                     1914.63
_exptl_crystal_colour            'very pale yellow'
_exptl_crystal_description       chunk
_cell_formula_units_Z            2
loop_
_atom_site_label
_atom_site_type_symbol
_atom_site_fract_x
_atom_site_fract_y
_atom_site_fract_z
Se1 Se 1.23257(3) 0.74800(5) 0.598832(13)
N1 N 1.0134(2) 0.9698(3) 0.70422(9)
H7 H 0.9566 1.0635 0.7024
H8 H 0.9807 0.8785 0.6811
N2 N 0.9398(2) 0.7659(3) 0.84098(9)
H9 H 1.0003 0.6778 0.8405
H10 H 0.8684 0.7104 0.8503
C1 C 1.3549(3) 0.7465(4) 0.54566(12)
C2 C 1.3212(3) 0.6724(4) 0.49318(13)
H11 H 1.2386 0.6283 0.4837
C3 C 1.4072(3) 0.6630(4) 0.45498(12)
H12 H 1.3830 0.6148 0.4192
C4 C 1.5291(3) 0.7241(4) 0.46901(12)
H13 H 1.5887 0.7160 0.4431
C5 C 1.5629(3) 0.7968(4) 0.52108(12)
H14 H 1.6464 0.8372 0.5306
C6 C 1.4765(3) 0.8118(4) 0.55997(12)
C7 C 1.1616(3) 0.9878(4) 0.58278(12)
C8 C 1.1486(3) 1.0529(4) 0.52858(12)
H15 H 1.1761 0.9809 0.4999
C9 C 1.0957(3) 1.2220(4) 0.51629(13)
H16 H 1.0877 1.2649 0.4792
C10 C 1.0545(3) 1.3293(4) 0.55753(13)
H17 H 1.0180 1.4447 0.5489
C11 C 1.0670(3) 1.2661(5) 0.61140(12)
H18 H 1.0395 1.3394 0.6398
C12 C 1.1202(3) 1.0937(4) 0.62480(12)
C13 C 1.1343(3) 1.0359(4) 0.68536(12)
H19 H 1.1974 0.9378 0.6908
H20 H 1.1655 1.1402 0.7086
C14 C 1.0350(3) 0.9003(4) 0.76211(11)
H21 H 1.0762 0.9960 0.7863
H22 H 1.0920 0.7944 0.7634
C15 C 0.9134(3) 0.8443(4) 0.78400(12)
H23 H 0.8581 0.9515 0.7850
H24 H 0.8697 0.7530 0.7589
C16 C 1.5173(3) 0.9033(4) 0.61493(11)
H25 H 1.5865 0.9888 0.6104
H26 H 1.4466 0.9741 0.6267
Se1A Se 1.26743(3) 0.74800(5) 0.901168(13)
N1A N 1.4866(2) 0.9698(3) 0.79578(9)
H7A H 1.5434 1.0635 0.7976
H8A H 1.5193 0.8785 0.8189
N2A N 1.5602(2) 0.7659(3) 0.65902(9)
H9A H 1.4997 0.6778 0.6595
H10A H 1.6316 0.7104 0.6497
C1A C 1.1451(3) 0.7465(4) 0.95434(12)
C2A C 1.1788(3) 0.6724(4) 1.00682(13)
H11A H 1.2614 0.6283 1.0163
C3A C 1.0928(3) 0.6630(4) 1.04502(12)
H12A H 1.1170 0.6148 1.0808
C4A C 0.9709(3) 0.7241(4) 1.03099(12)
H13A H 0.9113 0.7160 1.0569
C5A C 0.9371(3) 0.7968(4) 0.97892(12)
H14A H 0.8536 0.8372 0.9694
C6A C 1.0235(3) 0.8118(4) 0.94003(12)
C7A C 1.3384(3) 0.9878(4) 0.91722(12)
C8A C 1.3514(3) 1.0529(4) 0.97142(12)
H15A H 1.3239 0.9809 1.0001
C9A C 1.4043(3) 1.2220(4) 0.98371(13)
H16A H 1.4123 1.2649 1.0208
C10A C 1.4455(3) 1.3293(4) 0.94247(13)
H17A H 1.4820 1.4447 0.9511
C11A C 1.4330(3) 1.2661(5) 0.88860(12)
H18A H 1.4605 1.3394 0.8602
C12A C 1.3798(3) 1.0937(4) 0.87520(12)
C13A C 1.3657(3) 1.0359(4) 0.81464(12)
H19A H 1.3026 0.9378 0.8092
H20A H 1.3345 1.1402 0.7914
C14A C 1.4650(3) 0.9003(4) 0.73789(11)
H21A H 1.4238 0.9960 0.7137
H22A H 1.4080 0.7944 0.7366
C15A C 1.5866(3) 0.8443(4) 0.71600(12)
H23A H 1.6419 0.9515 0.7150
H24A H 1.6303 0.7530 0.7411
C16A C 0.9827(3) 0.9033(4) 0.88507(11)
H25A H 0.9135 0.9888 0.8896
H26A H 1.0534 0.9741 0.8733
Br1 Br 0.65743(3) 0.64635(5) 0.861479(13)
Br2 Br 1.05763(4) 0.36669(5) 0.815698(15)
O1 O 0.8175(6) 1.2199(9) 0.6957(2)
H1 H 0.834(7) 1.334(3) 0.6992(18)
H2 H 0.811(7) 1.219(6) 0.6606(5)
O2? O 0.8500(6) 1.2659(9) 0.7173(3)
H3? H 0.882(3) 1.341(6) 0.7411(19)
H4? H 0.7749(15) 1.275(8) 0.724(2)
O3? O 1.2698(11) 0.6001(12) 0.7618(4)
H5? H 1.299(3) 0.511(5) 0.745(2)
H6? H 1.218(5) 0.540(7) 0.779(3)
O4? O 1.186(2) 0.593(4) 0.7208(13)
loop_
_geom_bond_atom_site_label_1
_geom_bond_atom_site_label_2
_geom_bond_site_symmetry_1
_geom_bond_site_symmetry_2
Se1 C1 1_555 1_555
O1 H1 1_555 1_555
H2 O1 1_555 1_555
N1 H7 1_555 1_555
H8 N1 1_555 1_555
N2 H9 1_555 1_555
H10 N2 1_555 1_555
C1 C2 1_555 1_555
C2 H11 1_555 1_555
C3 C2 1_555 1_555
H12 C3 1_555 1_555
C4 C3 1_555 1_555
H13 C4 1_555 1_555
C5 C4 1_555 1_555
H14 C5 1_555 1_555
C6 C1 1_555 1_555
C7 Se1 1_555 1_555
C8 C7 1_555 1_555
H15 C8 1_555 1_555
C9 C8 1_555 1_555
H16 C9 1_555 1_555
C10 C9 1_555 1_555
H17 C10 1_555 1_555
C11 C10 1_555 1_555
H18 C11 1_555 1_555
C12 C7 1_555 1_555
C13 N1 1_555 1_555
H19 C13 1_555 1_555
H20 C13 1_555 1_555
C14 N1 1_555 1_555
H21 C14 1_555 1_555
H22 C14 1_555 1_555
C15 N2 1_555 1_555
H23 C15 1_555 1_555
H24 C15 1_555 1_555
C16 C6 1_555 1_555
H25 C16 1_555 1_555
H26 C16 1_555 1_555
Se1A C1A 1_555 1_555
N1A H7A 1_555 1_555
H8A N1A 1_555 1_555
N2A C16 1_555 1_555
H9A N2A 1_555 1_555
H10A N2A 1_555 1_555
C1A C2A 1_555 1_555
C2A H11A 1_555 1_555
C3A C2A 1_555 1_555
H12A C3A 1_555 1_555
C4A C3A 1_555 1_555
H13A C4A 1_555 1_555
C5A C4A 1_555 1_555
H14A C5A 1_555 1_555
C6A C1A 1_555 1_555
C7A Se1A 1_555 1_555
C8A C7A 1_555 1_555
H15A C8A 1_555 1_555
C9A C8A 1_555 1_555
H16A C9A 1_555 1_555
C10A C9A 1_555 1_555
H17A C10A 1_555 1_555
C11A C10A 1_555 1_555
H18A C11A 1_555 1_555
C12A C7A 1_555 1_555
C13A N1A 1_555 1_555
H19A C13A 1_555 1_555
H20A C13A 1_555 1_555
C14A N1A 1_555 1_555
H21A C14A 1_555 1_555
H22A C14A 1_555 1_555
C15A N2A 1_555 1_555
H23A C15A 1_555 1_555
H24A C15A 1_555 1_555
C16A N2 1_555 1_555
H25A C16A 1_555 1_555
H26A C16A 1_555 1_555
C5 C6 1_555 1_555
C11 C12 1_555 1_555
C12 C13 1_555 1_555
C14 C15 1_555 1_555
C5A C6A 1_555 1_555
C6A C16A 1_555 1_555
C11A C12A 1_555 1_555
C12A C13A 1_555 1_555
C14A C15A 1_555 1_555

#END
