
#######################################################################
#
#                 Cambridge Crystallographic Data Centre
#                                CCDC 
#
#######################################################################
#
# If this CIF has been generated from an entry in the Cambridge 
# Structural Database, then it will include bibliographic, chemical, 
# crystal, experimental, refinement or atomic coordinate data resulting 
# from the CCDC's data processing and validation procedures.
#
#######################################################################

data_VENKUV
_chemical_formula_moiety         'C19 H16 Cl2 N1 O5 P1'
_chemical_name_systematic        
'Dimethyl (((3,7-dichloroquinolin-8-yl)carbonyloxy)(phenyl)methyl)phosphonate'
_symmetry_cell_setting           orthorhombic
_symmetry_space_group_name_H-M   'P b c a'
_symmetry_Int_Tables_number      61
_space_group_name_Hall           '-P 2ac 2ab'
loop_
_symmetry_equiv_pos_site_id
_symmetry_equiv_pos_as_xyz
1 x,y,z
2 1/2-x,-y,1/2+z
3 -x,1/2+y,1/2-z
4 1/2+x,1/2-y,-z
5 -x,-y,-z
6 1/2+x,y,1/2-z
7 x,1/2-y,1/2+z
8 1/2-x,1/2+y,z
_cell_length_a                   11.4895(8)
_cell_length_b                   15.7158(11)
_cell_length_c                   22.1792(16)
_cell_angle_alpha                90
_cell_angle_beta                 90
_cell_angle_gamma                90
_cell_volume                     4004.82
_exptl_crystal_colour            colorless
_exptl_crystal_description       block
_cell_formula_units_Z            8
_exptl_crystal_recrystallization_method dichloromethane
loop_
_atom_site_label
_atom_site_type_symbol
_atom_site_fract_x
_atom_site_fract_y
_atom_site_fract_z
C1 C 0.2575(2) 0.44514(18) 0.58392(12)
H1 H 0.2223 0.4028 0.6069
C2 C 0.2970(2) 0.51844(19) 0.61361(12)
C3 C 0.3488(2) 0.58210(18) 0.58174(12)
H2 H 0.3743 0.6314 0.6008
C4 C 0.3624(2) 0.57119(16) 0.51921(12)
C5 C 0.4162(2) 0.63262(19) 0.48180(13)
H3 H 0.4442 0.6829 0.4985
C6 C 0.4273(3) 0.61879(19) 0.42201(14)
H4 H 0.4633 0.6594 0.3979
C7 C 0.3848(2) 0.54377(18) 0.39612(12)
C8 C 0.3317(2) 0.48218(16) 0.43064(12)
C9 C 0.3203(2) 0.49566(16) 0.49308(11)
C10 C 0.2858(2) 0.40170(17) 0.40356(11)
C11 C 0.3395(2) 0.26263(17) 0.37208(12)
H5 H 0.2598 0.2476 0.3836
C12 C 0.3480(2) 0.26742(17) 0.30454(12)
C13 C 0.2597(3) 0.2340(2) 0.26935(14)
H6 H 0.1943 0.2110 0.2878
C14 C 0.2672(4) 0.2344(2) 0.20771(17)
H7 H 0.2074 0.2113 0.1847
C15 C 0.3625(4) 0.2685(3) 0.18016(16)
H8 H 0.3672 0.2690 0.1383
C16 C 0.4515(3) 0.3023(2) 0.21386(16)
H9 H 0.5166 0.3252 0.1949
C17 C 0.4440(3) 0.3021(2) 0.27615(14)
H10 H 0.5038 0.3254 0.2990
C18 C 0.4586(3) 0.1265(2) 0.51246(15)
H11 H 0.4492 0.0678 0.5014
H12 H 0.4278 0.1354 0.5522
H13 H 0.5398 0.1409 0.5121
C19 C 0.4547(3) 0.0603(2) 0.32403(16)
H14 H 0.4485 0.0976 0.2899
H15 H 0.4172 0.0072 0.3150
H16 H 0.5353 0.0503 0.3329
Cl1 Cl 0.27758(8) 0.52559(6) 0.69093(3)
Cl2 Cl 0.39889(8) 0.52853(6) 0.31906(3)
N1 N 0.26745(19) 0.43280(14) 0.52565(10)
O1 O 0.18818(18) 0.38961(13) 0.38776(10)
O2 O 0.37115(15) 0.34359(11) 0.39990(8)
O3 O 0.56228(15) 0.20669(12) 0.39481(8)
O4 O 0.39747(18) 0.17934(13) 0.47027(9)
O5 O 0.39932(18) 0.09899(12) 0.37538(10)
P1 P 0.43981(6) 0.18553(4) 0.40342(3)
loop_
_geom_bond_atom_site_label_1
_geom_bond_atom_site_label_2
_geom_bond_site_symmetry_1
_geom_bond_site_symmetry_2
C1 H1 1_555 1_555
C2 C1 1_555 1_555
C3 C2 1_555 1_555
H2 C3 1_555 1_555
C4 C3 1_555 1_555
C5 C4 1_555 1_555
H3 C5 1_555 1_555
C6 C5 1_555 1_555
H4 C6 1_555 1_555
C7 C6 1_555 1_555
C8 C7 1_555 1_555
C9 C4 1_555 1_555
C10 C8 1_555 1_555
C11 H5 1_555 1_555
C12 C11 1_555 1_555
C13 C12 1_555 1_555
H6 C13 1_555 1_555
C14 C13 1_555 1_555
H7 C14 1_555 1_555
C15 C14 1_555 1_555
H8 C15 1_555 1_555
C16 C15 1_555 1_555
H9 C16 1_555 1_555
C17 C12 1_555 1_555
H10 C17 1_555 1_555
C18 H11 1_555 1_555
H12 C18 1_555 1_555
H13 C18 1_555 1_555
C19 H14 1_555 1_555
H15 C19 1_555 1_555
H16 C19 1_555 1_555
Cl1 C2 1_555 1_555
Cl2 C7 1_555 1_555
N1 C1 1_555 1_555
O1 C10 1_555 1_555
O2 C10 1_555 1_555
O3 P1 1_555 1_555
O4 C18 1_555 1_555
O5 C19 1_555 1_555
P1 C11 1_555 1_555
C8 C9 1_555 1_555
C9 N1 1_555 1_555
C11 O2 1_555 1_555
C16 C17 1_555 1_555
O4 P1 1_555 1_555
O5 P1 1_555 1_555

#END
