
#######################################################################
#
#                 Cambridge Crystallographic Data Centre
#                                CCDC 
#
#######################################################################
#
# If this CIF has been generated from an entry in the Cambridge 
# Structural Database, then it will include bibliographic, chemical, 
# crystal, experimental, refinement or atomic coordinate data resulting 
# from the CCDC's data processing and validation procedures.
#
#######################################################################

data_VENKEF
_chemical_formula_moiety         'C8 H4 F3 I1 N2 O3'
_chemical_name_systematic        2-Iodo-4-nitro-N-(trifluoroacetyl)aniline
_symmetry_cell_setting           monoclinic
_symmetry_space_group_name_H-M   'P 21/n'
_symmetry_Int_Tables_number      14
_space_group_name_Hall           '-P 2yn'
loop_
_symmetry_equiv_pos_site_id
_symmetry_equiv_pos_as_xyz
1 x,y,z
2 1/2-x,1/2+y,1/2-z
3 -x,-y,-z
4 1/2+x,1/2-y,1/2+z
_cell_length_a                   14.6372(3)
_cell_length_b                   5.0029(2)
_cell_length_c                   15.2723(3)
_cell_angle_alpha                90
_cell_angle_beta                 110.318(2)
_cell_angle_gamma                90
_cell_volume                     1048.78
_exptl_crystal_colour            yellow
_exptl_crystal_description       block
_chemical_melting_point          '399-400 K'
_cell_formula_units_Z            4
_exptl_crystal_recrystallization_method ethanol
loop_
_atom_site_label
_atom_site_type_symbol
_atom_site_fract_x
_atom_site_fract_y
_atom_site_fract_z
C1 C 0.41248(14) 0.3324(4) 0.68419(13)
C2 C 0.46717(14) 0.5180(4) 0.65374(12)
C3 C 0.56627(14) 0.5485(4) 0.70208(13)
C4 C 0.60949(14) 0.3870(4) 0.77944(13)
C5 C 0.55859(17) 0.1934(4) 0.80803(15)
C6 C 0.45995(16) 0.1672(4) 0.76057(14)
N1 N 0.31119(13) 0.3194(4) 0.63785(12)
C7 C 0.25016(14) 0.1210(4) 0.64240(13)
O1 O 0.27013(11) -0.0869(3) 0.68607(10)
C8 C 0.14369(16) 0.1693(4) 0.57965(15)
F1 F 0.11944(10) -0.0034(3) 0.50804(9)
F2 F 0.08382(9) 0.1259(3) 0.62684(9)
F3 F 0.12630(9) 0.4152(3) 0.54381(10)
I1 I 0.402878(9) 0.74612(2) 0.532577(8)
N2 N 0.71340(13) 0.4257(4) 0.83326(12)
O2 O 0.75675(11) 0.6106(3) 0.81166(11)
O3 O 0.75250(14) 0.2737(3) 0.89876(13)
H1 H 0.6035 0.6762 0.6828
H2 H 0.5910 0.0805 0.8595
H3 H 0.4239 0.0361 0.7798
H4 H 0.2844 0.4559 0.6017
loop_
_geom_bond_atom_site_label_1
_geom_bond_atom_site_label_2
_geom_bond_site_symmetry_1
_geom_bond_site_symmetry_2
C1 C2 1_555 1_555
C2 C3 1_555 1_555
C3 C4 1_555 1_555
C4 C5 1_555 1_555
C5 C6 1_555 1_555
C6 C1 1_555 1_555
N1 C1 1_555 1_555
C7 N1 1_555 1_555
O1 C7 1_555 1_555
C8 C7 1_555 1_555
F1 C8 1_555 1_555
F2 C8 1_555 1_555
F3 C8 1_555 1_555
I1 C2 1_555 1_555
N2 C4 1_555 1_555
O2 N2 1_555 1_555
O3 N2 1_555 1_555
H1 C3 1_555 1_555
H2 C5 1_555 1_555
H3 C6 1_555 1_555
H4 N1 1_555 1_555

#END
