
#######################################################################
#
#                 Cambridge Crystallographic Data Centre
#                                CCDC 
#
#######################################################################
#
# If this CIF has been generated from an entry in the Cambridge 
# Structural Database, then it will include bibliographic, chemical, 
# crystal, experimental, refinement or atomic coordinate data resulting 
# from the CCDC's data processing and validation procedures.
#
#######################################################################

data_VENLOQ
_chemical_formula_moiety         'C14 H10 N4 O6'
_chemical_name_systematic        N,N'-bis(4-Nitrophenyl)oxamide
_symmetry_cell_setting           monoclinic
_symmetry_space_group_name_H-M   'P 21/c'
_symmetry_Int_Tables_number      14
_space_group_name_Hall           '-P 2ybc'
loop_
_symmetry_equiv_pos_site_id
_symmetry_equiv_pos_as_xyz
1 x,y,z
2 -x,1/2+y,1/2-z
3 -x,-y,-z
4 x,1/2-y,1/2+z
_cell_length_a                   3.7185(8)
_cell_length_b                   13.942(3)
_cell_length_c                   13.571(3)
_cell_angle_alpha                90
_cell_angle_beta                 99.059(6)
_cell_angle_gamma                90
_cell_volume                     694.79
_exptl_crystal_colour            colorless
_exptl_crystal_description       needle
_cell_formula_units_Z            2
_exptl_crystal_recrystallization_method dimethylformamide
loop_
_atom_site_label
_atom_site_type_symbol
_atom_site_fract_x
_atom_site_fract_y
_atom_site_fract_z
O1 O -0.3471(4) -0.12462(12) -0.55005(11)
O2 O -0.0265(4) -0.25422(12) -0.53195(11)
O3 O 0.2323(5) 0.07470(12) -0.08431(11)
N1 N -0.1298(5) -0.17827(13) -0.49971(12)
N2 N 0.4290(5) -0.07814(12) -0.10492(12)
H1 H 0.5556 -0.1229 -0.0726
C1 C 0.3343(5) -0.19258(14) -0.23766(15)
H2 H 0.4597 -0.2372 -0.1942
C2 C 0.2030(5) -0.21848(15) -0.33440(14)
H3 H 0.2405 -0.2800 -0.3573
C3 C 0.0135(5) -0.15098(14) -0.39701(14)
C4 C -0.0466(5) -0.05960(15) -0.36570(14)
H4 H -0.1770 -0.0159 -0.4093
C5 C 0.0890(5) -0.03310(15) -0.26888(14)
H5 H 0.0531 0.0288 -0.2469
C6 C 0.2800(5) -0.09995(14) -0.20447(14)
C7 C 0.3987(6) 0.00299(15) -0.05385(15)
O1B O 1.3471(4) 0.12462(12) 0.55005(11)
O2B O 1.0265(4) 0.25422(12) 0.53195(11)
O3B O 0.7677(5) -0.07470(12) 0.08431(11)
N1B N 1.1298(5) 0.17827(13) 0.49971(12)
N2B N 0.5710(5) 0.07814(12) 0.10492(12)
H1B H 0.4444 0.1229 0.0726
C1B C 0.6657(5) 0.19258(14) 0.23766(15)
H2B H 0.5403 0.2372 0.1942
C2B C 0.7970(5) 0.21848(15) 0.33440(14)
H3B H 0.7595 0.2800 0.3573
C3B C 0.9865(5) 0.15098(14) 0.39701(14)
C4B C 1.0466(5) 0.05960(15) 0.36570(14)
H4B H 1.1770 0.0159 0.4093
C5B C 0.9110(5) 0.03310(15) 0.26888(14)
H5B H 0.9469 -0.0288 0.2469
C6B C 0.7200(5) 0.09995(14) 0.20447(14)
C7B C 0.6013(6) -0.00299(15) 0.05385(15)
loop_
_geom_bond_atom_site_label_1
_geom_bond_atom_site_label_2
_geom_bond_site_symmetry_1
_geom_bond_site_symmetry_2
O1 N1 1_555 1_555
O2 N1 1_555 1_555
O3 C7 1_555 1_555
N1 C3 1_555 1_555
N2 H1 1_555 1_555
C1 H2 1_555 1_555
C2 C1 1_555 1_555
H3 C2 1_555 1_555
C3 C2 1_555 1_555
C4 C3 1_555 1_555
H4 C4 1_555 1_555
C5 C4 1_555 1_555
H5 C5 1_555 1_555
C6 N2 1_555 1_555
C7 N2 1_555 1_555
O1B N1B 1_555 1_555
O2B N1B 1_555 1_555
O3B C7B 1_555 1_555
N1B C3B 1_555 1_555
N2B H1B 1_555 1_555
C1B H2B 1_555 1_555
C2B C1B 1_555 1_555
H3B C2B 1_555 1_555
C3B C2B 1_555 1_555
C4B C3B 1_555 1_555
H4B C4B 1_555 1_555
C5B C4B 1_555 1_555
H5B C5B 1_555 1_555
C6B N2B 1_555 1_555
C7B C7 1_555 1_555
C1 C6 1_555 1_555
C5 C6 1_555 1_555
N2B C7B 1_555 1_555
C1B C6B 1_555 1_555
C5B C6B 1_555 1_555

#END
