
#######################################################################
#
#                 Cambridge Crystallographic Data Centre
#                                CCDC 
#
#######################################################################
#
# If this CIF has been generated from an entry in the Cambridge 
# Structural Database, then it will include bibliographic, chemical, 
# crystal, experimental, refinement or atomic coordinate data resulting 
# from the CCDC's data processing and validation procedures.
#
#######################################################################

data_VENQEK
_chemical_formula_moiety         'C30 H31 N1 O6'
_chemical_name_systematic        
"3-(2'R)-(2,2-Dimethyl-1,3-dioxolan-4-ylmethyl) 5-ethyl 4-(S)-2-methyl-6-phenyl-4-(phenylethynyl)-1,4-dihydropyridine-3,5-dicarboxylate"
_chemical_properties_biological  
'selective activity as an A3 adenosine receptor antagonist'
_symmetry_cell_setting           monoclinic
_symmetry_space_group_name_H-M   'P 21'
_symmetry_Int_Tables_number      4
_space_group_name_Hall           'P 2yb'
loop_
_symmetry_equiv_pos_site_id
_symmetry_equiv_pos_as_xyz
1 x,y,z
2 -x,1/2+y,-z
_cell_length_a                   11.059(2)
_cell_length_b                   8.212(2)
_cell_length_c                   15.629(3)
_cell_angle_alpha                90
_cell_angle_beta                 104.460(10)
_cell_angle_gamma                90
_cell_volume                     1374.41
_exptl_crystal_description       needles
_cell_formula_units_Z            2
_exptl_crystal_recrystallization_method methanol/water
loop_
_atom_site_label
_atom_site_type_symbol
_atom_site_fract_x
_atom_site_fract_y
_atom_site_fract_z
N1 N 0.4795(3) 0.8317(5) 0.8869(2)
C1 C 0.4598(4) 0.7988(6) 0.7976(3)
C2 C 0.3531(4) 0.7245(5) 0.7558(3)
C3 C 0.2499(4) 0.6991(5) 0.8030(2)
C4 C 0.3056(4) 0.6803(5) 0.9016(2)
C5 C 0.4137(4) 0.7585(6) 0.9395(3)
C6 C 0.4707(4) 0.7751(6) 1.0353(3)
C7 C 0.5915(5) 0.7164(6) 1.0715(3)
C8 C 0.6436(5) 0.7343(7) 1.1609(3)
C9 C 0.5845(6) 0.8128(7) 1.2150(3)
C10 C 0.4689(5) 0.8754(7) 1.1793(3)
C11 C 0.4107(4) 0.8541(7) 1.0900(3)
C12 C 0.2452(4) 0.5719(5) 0.9524(3)
O1 O 0.1333(3) 0.5219(4) 0.9049(2)
C13 C 0.0685(5) 0.4002(8) 0.9439(3)
C14 C -0.0347(6) 0.4763(12) 0.9719(5)
O2 O 0.2891(3) 0.5241(4) 1.0275(2)
C15 C 0.1600(4) 0.8357(6) 0.7855(3)
C16 C 0.0875(4) 0.9458(6) 0.7715(3)
C17 C -0.0035(4) 1.0778(6) 0.7534(3)
C18 C 0.0209(4) 1.2195(7) 0.7111(3)
C19 C -0.0666(5) 1.3415(8) 0.6928(3)
C20 C -0.1774(5) 1.3265(8) 0.7161(4)
C21 C -0.2016(5) 1.1889(8) 0.7568(4)
C22 C -0.1155(4) 1.0667(7) 0.7760(4)
C23 C 0.3358(4) 0.6686(6) 0.6636(3)
O3 O 0.2145(3) 0.6340(4) 0.6261(2)
C24 C 0.1850(5) 0.5793(6) 0.5352(3)
C25 C 0.1420(5) 0.4059(6) 0.5286(3)
C26 C 0.1166(6) 0.3397(7) 0.4346(3)
O4 O 0.1673(6) 0.1880(6) 0.4439(3)
C27 C 0.2681(6) 0.1857(7) 0.5200(3)
O5 O 0.2362(3) 0.3020(4) 0.5772(2)
C28 C 0.2642(8) 0.0233(8) 0.5592(5)
C29 C 0.3879(7) 0.2295(15) 0.5056(6)
O6 O 0.4162(3) 0.6565(6) 0.6247(2)
C30 C 0.5664(4) 0.8515(8) 0.7612(3)
H1 H 0.5361(3) 0.9011(5) 0.9110(2)
H2 H 0.2044(4) 0.5994(5) 0.7802(2)
H3 H 0.6350(5) 0.6642(6) 1.0358(3)
H4 H 0.7223(5) 0.6915(7) 1.1861(3)
H5 H 0.6203(6) 0.8231(7) 1.2753(3)
H6 H 0.4295(5) 0.9349(7) 1.2149(3)
H7 H 0.3294(4) 0.8906(7) 1.0672(3)
H8 H 0.0360(5) 0.3149(8) 0.9014(3)
H9 H 0.1268(5) 0.3508(8) 0.9941(3)
H10 H -0.0759(6) 0.3943(12) 0.9980(5)
H11 H -0.0932(6) 0.5237(12) 0.9222(5)
H12 H -0.0025(6) 0.5595(12) 1.0148(5)
H13 H 0.0955(4) 1.2296(7) 0.6947(3)
H14 H -0.0503(5) 1.4371(8) 0.6659(3)
H15 H -0.2375(5) 1.4080(8) 0.7022(4)
H16 H -0.2776(5) 1.1765(8) 0.7711(4)
H17 H -0.1306(4) 0.9743(7) 0.8061(4)
H18 H 0.2599(5) 0.5861(6) 0.5142(3)
H19 H 0.1221(5) 0.6492(6) 0.4985(3)
H20 H 0.0668(5) 0.3969(6) 0.5505(3)
H21 H 0.0277(6) 0.3340(7) 0.4072(3)
H22 H 0.1553(6) 0.4082(7) 0.3985(3)
H23 H 0.3330(8) 0.0156(8) 0.6107(5)
H24 H 0.2718(8) -0.0597(8) 0.5178(5)
H25 H 0.1873(8) 0.0087(8) 0.5760(5)
H26 H 0.4481(7) 0.2228(15) 0.5618(6)
H27 H 0.3858(7) 0.3387(15) 0.4834(6)
H28 H 0.4110(7) 0.1558(15) 0.4649(6)
H29 H 0.6303(4) 0.8995(8) 0.8076(3)
H30 H 0.5378(4) 0.9300(8) 0.7151(3)
H31 H 0.5999(4) 0.7584(8) 0.7379(3)
loop_
_geom_bond_atom_site_label_1
_geom_bond_atom_site_label_2
_geom_bond_site_symmetry_1
_geom_bond_site_symmetry_2
N1 C1 1_555 1_555
C1 C2 1_555 1_555
C2 C3 1_555 1_555
C3 C4 1_555 1_555
C4 C5 1_555 1_555
C5 N1 1_555 1_555
C6 C5 1_555 1_555
C7 C6 1_555 1_555
C8 C7 1_555 1_555
C9 C8 1_555 1_555
C10 C9 1_555 1_555
C11 C6 1_555 1_555
C12 C4 1_555 1_555
O1 C12 1_555 1_555
C13 O1 1_555 1_555
C14 C13 1_555 1_555
O2 C12 1_555 1_555
C15 C3 1_555 1_555
C16 C15 1_555 1_555
C17 C16 1_555 1_555
C18 C17 1_555 1_555
C19 C18 1_555 1_555
C20 C19 1_555 1_555
C21 C20 1_555 1_555
C22 C17 1_555 1_555
C23 C2 1_555 1_555
O3 C23 1_555 1_555
C24 O3 1_555 1_555
C25 C24 1_555 1_555
C26 C25 1_555 1_555
O4 C26 1_555 1_555
C27 O4 1_555 1_555
O5 C25 1_555 1_555
C28 C27 1_555 1_555
C29 C27 1_555 1_555
O6 C23 1_555 1_555
C30 C1 1_555 1_555
H1 N1 1_555 1_555
H2 C3 1_555 1_555
H3 C7 1_555 1_555
H4 C8 1_555 1_555
H5 C9 1_555 1_555
H6 C10 1_555 1_555
H7 C11 1_555 1_555
H8 C13 1_555 1_555
H9 C13 1_555 1_555
H10 C14 1_555 1_555
H11 C14 1_555 1_555
H12 C14 1_555 1_555
H13 C18 1_555 1_555
H14 C19 1_555 1_555
H15 C20 1_555 1_555
H16 C21 1_555 1_555
H17 C22 1_555 1_555
H18 C24 1_555 1_555
H19 C24 1_555 1_555
H20 C25 1_555 1_555
H21 C26 1_555 1_555
H22 C26 1_555 1_555
H23 C28 1_555 1_555
H24 C28 1_555 1_555
H25 C28 1_555 1_555
H26 C29 1_555 1_555
H27 C29 1_555 1_555
H28 C29 1_555 1_555
H29 C30 1_555 1_555
H30 C30 1_555 1_555
H31 C30 1_555 1_555
C10 C11 1_555 1_555
C21 C22 1_555 1_555
C27 O5 1_555 1_555

#END
