
#######################################################################
#
#                 Cambridge Crystallographic Data Centre
#                                CCDC 
#
#######################################################################
#
# If this CIF has been generated from an entry in the Cambridge 
# Structural Database, then it will include bibliographic, chemical, 
# crystal, experimental, refinement or atomic coordinate data resulting 
# from the CCDC's data processing and validation procedures.
#
#######################################################################

data_VENRUB
_chemical_formula_moiety         'C17 H13 N3 O1'
_chemical_name_systematic        1-((2-Naphthyloxy)methyl)-1H-benzotriazole
_symmetry_cell_setting           orthorhombic
_symmetry_space_group_name_H-M   'P c a 21'
_symmetry_Int_Tables_number      29
_space_group_name_Hall           'P 2c -2ac'
loop_
_symmetry_equiv_pos_site_id
_symmetry_equiv_pos_as_xyz
1 x,y,z
2 1/2-x,y,1/2+z
3 1/2+x,-y,z
4 -x,-y,1/2+z
_cell_length_a                   12.022(2)
_cell_length_b                   7.002(1)
_cell_length_c                   32.474(5)
_cell_angle_alpha                90
_cell_angle_beta                 90
_cell_angle_gamma                90
_cell_volume                     2733.6
_chemical_melting_point          97-98deg.C
_cell_formula_units_Z            8
loop_
_atom_site_label
_atom_site_type_symbol
_atom_site_fract_x
_atom_site_fract_y
_atom_site_fract_z
N1 N -0.1206(2) 0.6100(3) 0.3279(1)
N2 N -0.2301(2) 0.6070(4) 0.3390(1)
N3 N -0.2897(2) 0.6142(4) 0.3062(1)
C1 C -0.2205(2) 0.6224(4) 0.2722(1)
C2 C -0.1119(2) 0.6195(4) 0.2861(1)
C3 C -0.0210(2) 0.6271(4) 0.2599(1)
C4 C -0.0452(3) 0.6336(4) 0.2186(1)
C5 C -0.1546(3) 0.6332(4) 0.2044(1)
C6 C -0.2432(3) 0.6280(4) 0.2304(1)
C7 C -0.0361(3) 0.5924(4) 0.3588(1)
O1 O 0.0019(2) 0.7820(3) 0.3676(1)
C8 C 0.0980(2) 0.7961(4) 0.3905(1)
C9 C 0.1434(3) 0.6505(4) 0.4129(1)
C10 C 0.2467(3) 0.6761(4) 0.4337(1)
C11 C 0.3005(3) 0.8561(5) 0.4311(1)
C12 C 0.2478(3) 1.0041(5) 0.4084(1)
C13 C 0.1500(3) 0.9767(5) 0.3894(1)
C14 C 0.2967(3) 0.5311(6) 0.4566(1)
C15 C 0.3974(3) 0.5572(6) 0.4754(1)
C16 C 0.4523(3) 0.7329(7) 0.4716(1)
C17 C 0.4052(3) 0.8783(5) 0.4503(1)
N4 N 0.3362(2) 0.8782(3) 0.1804(1)
N5 N 0.4451(2) 0.8621(4) 0.1691(1)
N6 N 0.5042(2) 0.8488(4) 0.2020(1)
C18 C 0.4350(2) 0.8574(4) 0.2358(1)
C19 C 0.3265(2) 0.8758(4) 0.2218(1)
C20 C 0.2355(2) 0.8902(4) 0.2486(1)
C21 C 0.2600(3) 0.8855(4) 0.2893(1)
C22 C 0.3701(3) 0.8674(4) 0.3043(1)
C23 C 0.4580(3) 0.8535(5) 0.2782(1)
C24 C 0.2527(2) 0.9070(4) 0.1494(1)
O2 O 0.2044(2) 0.7258(3) 0.1409(1)
C25 C 0.1086(2) 0.7280(4) 0.1171(1)
C26 C 0.0717(3) 0.8832(4) 0.0962(1)
C27 C -0.0301(2) 0.8739(4) 0.0737(1)
C28 C -0.0929(3) 0.7049(5) 0.0742(1)
C29 C -0.0496(3) 0.5460(6) 0.0955(1)
C30 C 0.0496(3) 0.5551(5) 0.1162(1)
C31 C -0.0725(3) 1.0329(5) 0.0521(1)
C32 C -0.1718(3) 1.0220(7) 0.0320(1)
C33 C -0.2334(3) 0.8547(6) 0.0323(1)
C34 C -0.1965(3) 0.6974(6) 0.0528(1)
loop_
_geom_bond_atom_site_label_1
_geom_bond_atom_site_label_2
_geom_bond_site_symmetry_1
_geom_bond_site_symmetry_2
N1 N2 1_555 1_555
N2 N3 1_555 1_555
N3 C1 1_555 1_555
C1 C2 1_555 1_555
C2 N1 1_555 1_555
C3 C2 1_555 1_555
C4 C3 1_555 1_555
C5 C4 1_555 1_555
C6 C1 1_555 1_555
C7 N1 1_555 1_555
O1 C7 1_555 1_555
C8 O1 1_555 1_555
C9 C8 1_555 1_555
C10 C9 1_555 1_555
C11 C10 1_555 1_555
C12 C11 1_555 1_555
C13 C8 1_555 1_555
C14 C10 1_555 1_555
C15 C14 1_555 1_555
C16 C15 1_555 1_555
C17 C11 1_555 1_555
N4 N5 1_555 1_555
N5 N6 1_555 1_555
N6 C18 1_555 1_555
C18 C19 1_555 1_555
C19 N4 1_555 1_555
C20 C19 1_555 1_555
C21 C20 1_555 1_555
C22 C21 1_555 1_555
C23 C18 1_555 1_555
C24 N4 1_555 1_555
O2 C24 1_555 1_555
C25 O2 1_555 1_555
C26 C25 1_555 1_555
C27 C26 1_555 1_555
C28 C27 1_555 1_555
C29 C28 1_555 1_555
C30 C25 1_555 1_555
C31 C27 1_555 1_555
C32 C31 1_555 1_555
C33 C32 1_555 1_555
C34 C28 1_555 1_555
C5 C6 1_555 1_555
C12 C13 1_555 1_555
C16 C17 1_555 1_555
C22 C23 1_555 1_555
C29 C30 1_555 1_555
C33 C34 1_555 1_555

#END
