
#######################################################################
#
#                 Cambridge Crystallographic Data Centre
#                                CCDC 
#
#######################################################################
#
# If this CIF has been generated from an entry in the Cambridge 
# Structural Database, then it will include bibliographic, chemical, 
# crystal, experimental, refinement or atomic coordinate data resulting 
# from the CCDC's data processing and validation procedures.
#
#######################################################################

data_VENSAI
_chemical_formula_moiety         'C18 H14 N2 O1,0.5(H2 O1)'
_chemical_name_systematic        
'1-((2-Naphthyloxy)methyl)-1H-benzimidazole hemihydrate'
_symmetry_cell_setting           tetragonal
_symmetry_space_group_name_H-M   'I 41/a'
_symmetry_Int_Tables_number      88
_space_group_name_Hall           '-I 4ad'
loop_
_symmetry_equiv_pos_site_id
_symmetry_equiv_pos_as_xyz
1 x,y,z
2 1/2+x,1/2+y,1/2+z
3 3/4-y,1/4+x,1/4+z
4 1/4-y,3/4+x,3/4+z
5 1/2-x,-y,1/2+z
6 -x,1/2-y,z
7 3/4+y,3/4-x,3/4+z
8 1/4+y,1/4-x,1/4+z
9 -x,-y,-z
10 1/2-x,1/2-y,1/2-z
11 1/4+y,3/4-x,3/4-z
12 3/4+y,1/4-x,1/4-z
13 1/2+x,y,1/2-z
14 x,1/2+y,-z
15 1/4-y,1/4+x,1/4-z
16 3/4-y,3/4+x,3/4-z
_cell_length_a                   15.243(4)
_cell_length_b                   15.243(4)
_cell_length_c                   24.781(6)
_cell_angle_alpha                90
_cell_angle_beta                 90
_cell_angle_gamma                90
_cell_volume                     5757.84
_chemical_melting_point          127-128deg.C
_cell_formula_units_Z            16
loop_
_atom_site_label
_atom_site_type_symbol
_atom_site_fract_x
_atom_site_fract_y
_atom_site_fract_z
N1 N 0.6495(1) 0.5278(1) -0.1104(1)
C1 C 0.6360(1) 0.6102(1) -0.1296(1)
N2 N 0.5948(1) 0.6123(1) -0.1757(1)
C2 C 0.5804(1) 0.5243(1) -0.1882(1)
C3 C 0.6147(1) 0.4711(1) -0.1479(1)
C4 C 0.6131(1) 0.3801(2) -0.1499(1)
C5 C 0.5752(2) 0.3438(2) -0.1947(1)
C6 C 0.5387(2) 0.3961(3) -0.2351(1)
C7 C 0.5403(1) 0.4863(2) -0.2328(1)
C8 C 0.6926(1) 0.5036(1) -0.0612(1)
O1 O 0.6260(1) 0.4798(1) -0.0238(1)
C9 C 0.6540(1) 0.4428(1) 0.0239(1)
C10 C 0.7394(1) 0.4314(1) 0.0382(1)
C11 C 0.7604(1) 0.3923(1) 0.0885(1)
C12 C 0.6923(1) 0.3655(1) 0.1235(1)
C13 C 0.6046(1) 0.3789(1) 0.1067(1)
C14 C 0.5855(1) 0.4165(1) 0.0585(1)
C15 C 0.8484(1) 0.3799(1) 0.1054(1)
C16 C 0.8667(1) 0.3451(1) 0.1549(1)
C17 C 0.7991(1) 0.3204(1) 0.1897(1)
C18 C 0.7142(1) 0.3290(1) 0.1745(1)
O2 O 0.5000 0.7500 -0.2402(1)
loop_
_geom_bond_atom_site_label_1
_geom_bond_atom_site_label_2
_geom_bond_site_symmetry_1
_geom_bond_site_symmetry_2
N1 C1 1_555 1_555
C1 N2 1_555 1_555
N2 C2 1_555 1_555
C2 C3 1_555 1_555
C3 N1 1_555 1_555
C4 C3 1_555 1_555
C5 C4 1_555 1_555
C6 C5 1_555 1_555
C7 C2 1_555 1_555
C8 N1 1_555 1_555
O1 C8 1_555 1_555
C9 O1 1_555 1_555
C10 C9 1_555 1_555
C11 C10 1_555 1_555
C12 C11 1_555 1_555
C13 C12 1_555 1_555
C14 C9 1_555 1_555
C15 C11 1_555 1_555
C16 C15 1_555 1_555
C17 C16 1_555 1_555
C18 C12 1_555 1_555
C6 C7 1_555 1_555
C13 C14 1_555 1_555
C17 C18 1_555 1_555

#END
