
#######################################################################
#
#                 Cambridge Crystallographic Data Centre
#                                CCDC 
#
#######################################################################
#
# If this CIF has been generated from an entry in the Cambridge 
# Structural Database, then it will include bibliographic, chemical, 
# crystal, experimental, refinement or atomic coordinate data resulting 
# from the CCDC's data processing and validation procedures.
#
#######################################################################

data_VENSEM
_chemical_formula_moiety         'C19 H17 N2 O1 1+,I1 1-'
_chemical_name_systematic        
'1-Methyl-3-((2-naphyloxy)methyl)-1H-benzimidazolium iodide'
_symmetry_cell_setting           monoclinic
_symmetry_space_group_name_H-M   'P 21/c'
_symmetry_Int_Tables_number      14
_space_group_name_Hall           '-P 2ybc'
loop_
_symmetry_equiv_pos_site_id
_symmetry_equiv_pos_as_xyz
1 x,y,z
2 -x,1/2+y,1/2-z
3 -x,-y,-z
4 x,1/2-y,1/2+z
_cell_length_a                   7.772(2)
_cell_length_b                   22.435(7)
_cell_length_c                   10.595(3)
_cell_angle_alpha                90
_cell_angle_beta                 111.27(2)
_cell_angle_gamma                90
_cell_volume                     1721.55
_chemical_melting_point          177-178deg.C
_cell_formula_units_Z            4
loop_
_atom_site_label
_atom_site_type_symbol
_atom_site_fract_x
_atom_site_fract_y
_atom_site_fract_z
I1 I 0.8967(1) 0.1270(1) 0.7053(1)
N1 N 1.0346(4) -0.0753(1) 0.8426(3)
C1 C 1.0325(6) -0.1198(2) 0.9245(4)
N2 N 0.9235(5) -0.1629(2) 0.8536(4)
C2 C 0.8513(6) -0.1462(2) 0.7189(4)
C3 C 0.9210(5) -0.0903(2) 0.7109(4)
C4 C 0.8734(7) -0.0588(2) 0.5907(5)
C5 C 0.7519(8) -0.0870(3) 0.4787(5)
C6 C 0.6797(8) -0.1436(3) 0.4859(6)
C7 C 0.7277(6) -0.1747(2) 0.6053(5)
C8 C 1.1384(6) -0.0200(2) 0.8804(4)
O1 O 1.2190(4) -0.0214(1) 1.0215(3)
C9 C 1.3346(5) 0.0253(2) 1.0796(4)
C10 C 1.3639(5) 0.0733(2) 1.0119(4)
C11 C 1.4835(5) 0.1198(2) 1.0822(4)
C12 C 1.5701(5) 0.1158(2) 1.2255(4)
C13 C 1.5337(6) 0.0652(2) 1.2913(4)
C14 C 1.4210(5) 0.0210(2) 1.2221(4)
C15 C 1.5199(6) 0.1700(2) 1.0156(5)
C16 C 1.6289(6) 0.2148(2) 1.0870(5)
C17 C 1.7122(6) 0.2115(2) 1.2288(5)
C18 C 1.6840(6) 0.1634(2) 1.2960(5)
C19 C 0.8872(8) -0.2194(2) 0.9108(6)
loop_
_geom_bond_atom_site_label_1
_geom_bond_atom_site_label_2
_geom_bond_site_symmetry_1
_geom_bond_site_symmetry_2
N1 C1 1_555 1_555
C1 N2 1_555 1_555
N2 C2 1_555 1_555
C2 C3 1_555 1_555
C3 N1 1_555 1_555
C4 C3 1_555 1_555
C5 C4 1_555 1_555
C6 C5 1_555 1_555
C7 C2 1_555 1_555
C8 N1 1_555 1_555
O1 C8 1_555 1_555
C9 O1 1_555 1_555
C10 C9 1_555 1_555
C11 C10 1_555 1_555
C12 C11 1_555 1_555
C13 C12 1_555 1_555
C14 C9 1_555 1_555
C15 C11 1_555 1_555
C16 C15 1_555 1_555
C17 C16 1_555 1_555
C18 C12 1_555 1_555
C19 N2 1_555 1_555
C6 C7 1_555 1_555
C13 C14 1_555 1_555
C17 C18 1_555 1_555

#END
