
#######################################################################
#
#                 Cambridge Crystallographic Data Centre
#                                CCDC 
#
#######################################################################
#
# If this CIF has been generated from an entry in the Cambridge 
# Structural Database, then it will include bibliographic, chemical, 
# crystal, experimental, refinement or atomic coordinate data resulting 
# from the CCDC's data processing and validation procedures.
#
#######################################################################

data_VENVUH
_chemical_formula_moiety         'C5 H18 B11 1-,C4 H12 N1 1+'
_chemical_name_systematic        
'Tetramethylammonium 1,2-(butane-1,4-diyl)-1-carba-closo-dodecaborate'
_symmetry_cell_setting           monoclinic
_symmetry_space_group_name_H-M   'P 21/c'
_symmetry_Int_Tables_number      14
_space_group_name_Hall           '-P 2ybc'
loop_
_symmetry_equiv_pos_site_id
_symmetry_equiv_pos_as_xyz
1 x,y,z
2 -x,1/2+y,1/2-z
3 -x,-y,-z
4 x,1/2-y,1/2+z
_cell_length_a                   8.3503(7)
_cell_length_b                   16.1189(14)
_cell_length_c                   13.5540(12)
_cell_angle_alpha                90
_cell_angle_beta                 91.960(2)
_cell_angle_gamma                90
_cell_volume                     1823.27
_exptl_crystal_colour            colorless
_exptl_crystal_description       block
_cell_formula_units_Z            4
loop_
_atom_site_label
_atom_site_type_symbol
_atom_site_fract_x
_atom_site_fract_y
_atom_site_fract_z
N1 N 0.8824(4) 0.25080(18) 0.4812(2)
C6 C 0.9587(8) 0.3255(3) 0.5232(4)
H9 H 1.0710 0.3248 0.5103
H10 H 0.9446 0.3267 0.5931
H11 H 0.9103 0.3739 0.4935
C7 C 0.8175(15) 0.2022(8) 0.5612(8)
H12 H 0.9032 0.1740 0.5964
H13 H 0.7428 0.1621 0.5345
H14 H 0.7637 0.2383 0.6056
C8 C 0.772(2) 0.2772(11) 0.4117(13)
H15 H 0.8256 0.2919 0.3525
H16 H 0.7170 0.3248 0.4361
H17 H 0.6967 0.2336 0.3975
C9 C 1.0191(17) 0.2012(8) 0.4376(10)
H18 H 1.1164 0.2328 0.4430
H19 H 0.9940 0.1895 0.3694
H20 H 1.0326 0.1499 0.4731
C1 C 1.5128(5) 0.0313(2) 0.7141(3)
C2 C 1.6716(9) 0.0215(5) 0.6657(8)
H1 H 1.7480 0.0606 0.6947
H2 H 1.6586 0.0341 0.5959
C3 C 1.7365(11) -0.0666(6) 0.6784(9)
H3 H 1.6791 -0.1030 0.6325
H4 H 1.8486 -0.0672 0.6619
C4 C 1.7212(12) -0.1002(8) 0.7823(10)
H5 H 1.7647 -0.0603 0.8296
H6 H 1.7822 -0.1512 0.7895
C5 C 1.5455(12) -0.1170(5) 0.8032(9)
H7 H 1.5398 -0.1370 0.8704
H8 H 1.5078 -0.1613 0.7599
B1 B 1.4193(5) -0.0363(2) 0.7893(4)
B2 B 1.4818(6) 0.0595(3) 0.8344(3)
H21 H 1.5788 0.0655 0.8910
B3 B 1.4567(6) 0.1311(3) 0.7387(4)
H22 H 1.5377 0.1844 0.7312
B4 B 1.3738(8) 0.0791(3) 0.6341(4)
H23 H 1.3985 0.0990 0.5585
B5 B 1.3558(5) -0.0262(3) 0.6665(3)
H24 H 1.3716 -0.0761 0.6123
B6 B 1.2935(8) 0.0212(4) 0.8617(5)
H25 H 1.2645 0.0027 0.9371
B7 B 1.3178(6) 0.1245(4) 0.8304(5)
H26 H 1.3058 0.1746 0.8847
B8 B 1.2508(9) 0.1362(4) 0.7102(6)
H27 H 1.1940 0.1945 0.6854
B9 B 1.1889(7) 0.0381(3) 0.6637(5)
H28 H 1.0919 0.0309 0.6074
B10 B 1.2161(6) -0.0332(3) 0.7575(4)
H29 H 1.1381 -0.0878 0.7638
B11 B 1.1516(7) 0.0671(5) 0.7829(7)
H30 H 1.0285 0.0790 0.8057
C10? C 1.6983(16) -0.0086(8) 0.7085(10)
C11? C 1.7228(19) -0.1002(8) 0.7366(10)
C12? C 1.6623(14) -0.1175(9) 0.8390(9)
C13? C 1.4806(13) -0.1157(9) 0.8436(11)
C14? C 0.6960(19) 0.2497(10) 0.5070(17)
C15? C 0.850(3) 0.2587(12) 0.3693(14)
C16? C 0.943(3) 0.1746(10) 0.4982(19)
H31? H 1.7335 -0.0013 0.6416
H32? H 1.7688 0.0244 0.7512
H33? H 1.6659 -0.1351 0.6888
H34? H 1.8359 -0.1138 0.7350
H35? H 1.7071 -0.0766 0.8845
H36? H 1.7006 -0.1716 0.8605
H37? H 1.4490 -0.1148 0.9118
H38? H 1.4349 -0.1647 0.8121
H39? H 0.6678 0.3017 0.5363
H40? H 0.6767 0.2055 0.5525
H41? H 0.6322 0.2413 0.4476
H42? H 0.9494 0.2631 0.3365
H43? H 0.7862 0.3074 0.3558
H44? H 0.7926 0.2106 0.3455
H45? H 1.0558 0.1750 0.4876
H46? H 0.8911 0.1357 0.4539
H47? H 0.9242 0.1588 0.5651
loop_
_geom_bond_atom_site_label_1
_geom_bond_atom_site_label_2
_geom_bond_site_symmetry_1
_geom_bond_site_symmetry_2
N1 C6 1_555 1_555
C1 C2 1_555 1_555
C2 H1 1_555 1_555
H2 C2 1_555 1_555
C3 C2 1_555 1_555
H3 C3 1_555 1_555
H4 C3 1_555 1_555
C4 C3 1_555 1_555
H5 C4 1_555 1_555
H6 C4 1_555 1_555
C5 C4 1_555 1_555
H7 C5 1_555 1_555
H8 C5 1_555 1_555
C6 H9 1_555 1_555
H10 C6 1_555 1_555
H11 C6 1_555 1_555
C7 N1 1_555 1_555
H12 C7 1_555 1_555
H13 C7 1_555 1_555
H14 C7 1_555 1_555
C8 N1 1_555 1_555
H15 C8 1_555 1_555
H16 C8 1_555 1_555
H17 C8 1_555 1_555
C9 N1 1_555 1_555
H18 C9 1_555 1_555
H19 C9 1_555 1_555
H20 C9 1_555 1_555
B1 C1 1_555 1_555
B2 C1 1_555 1_555
H21 B2 1_555 1_555
B3 C1 1_555 1_555
H22 B3 1_555 1_555
B4 C1 1_555 1_555
H23 B4 1_555 1_555
B5 C1 1_555 1_555
H24 B5 1_555 1_555
B6 B1 1_555 1_555
H25 B6 1_555 1_555
B7 B2 1_555 1_555
H26 B7 1_555 1_555
B8 B3 1_555 1_555
H27 B8 1_555 1_555
B9 B4 1_555 1_555
H28 B9 1_555 1_555
B10 B1 1_555 1_555
H29 B10 1_555 1_555
B11 B6 1_555 1_555
H30 B11 1_555 1_555
C5 B1 1_555 1_555
B1 B2 1_555 1_555
B1 B5 1_555 1_555
B2 B3 1_555 1_555
B2 B6 1_555 1_555
B3 B4 1_555 1_555
B3 B7 1_555 1_555
B4 B5 1_555 1_555
B4 B8 1_555 1_555
B5 B9 1_555 1_555
B5 B10 1_555 1_555
B6 B7 1_555 1_555
B6 B10 1_555 1_555
B7 B8 1_555 1_555
B7 B11 1_555 1_555
B8 B9 1_555 1_555
B8 B11 1_555 1_555
B9 B10 1_555 1_555
B9 B11 1_555 1_555
B10 B11 1_555 1_555

#END
