
#######################################################################
#
#                 Cambridge Crystallographic Data Centre
#                                CCDC 
#
#######################################################################
#
# If this CIF has been generated from an entry in the Cambridge 
# Structural Database, then it will include bibliographic, chemical, 
# crystal, experimental, refinement or atomic coordinate data resulting 
# from the CCDC's data processing and validation procedures.
#
#######################################################################

data_VENVAN
_chemical_formula_moiety         'C7 H22 B11 O1 1-,C3 H10 N1 1+'
_chemical_name_systematic        
'Trimethylammonium 1,2-(4-ethoxybutane-1,4-diyl)-1-carba-closo-dodecaborate'
_symmetry_cell_setting           orthorhombic
_symmetry_space_group_name_H-M   'P n a 21'
_symmetry_Int_Tables_number      33
_space_group_name_Hall           'P 2c -2n'
loop_
_symmetry_equiv_pos_site_id
_symmetry_equiv_pos_as_xyz
1 x,y,z
2 -x,-y,1/2+z
3 1/2+x,1/2-y,z
4 1/2-x,1/2+y,1/2+z
_cell_length_a                   19.3435(12)
_cell_length_b                   11.8867(7)
_cell_length_c                   8.0716(5)
_cell_angle_alpha                90
_cell_angle_beta                 90
_cell_angle_gamma                90
_cell_volume                     1855.91
_exptl_crystal_colour            colorless
_exptl_crystal_description       block
_cell_formula_units_Z            4
loop_
_atom_site_label
_atom_site_type_symbol
_atom_site_fract_x
_atom_site_fract_y
_atom_site_fract_z
N1 N 0.35645(8) 0.67812(13) 0.0517(2)
H1 H 0.3342 0.6252 -0.0144
C8 C 0.32567(12) 0.6725(2) 0.2202(3)
H14 H 0.3332 0.5974 0.2669
H15 H 0.2759 0.6876 0.2133
H16 H 0.3476 0.7289 0.2915
C9 C 0.43100(10) 0.64869(18) 0.0584(3)
H17 H 0.4365 0.5744 0.1095
H18 H 0.4558 0.7050 0.1243
H19 H 0.4499 0.6472 -0.0542
C10 C 0.34631(12) 0.79077(18) -0.0246(3)
H20 H 0.3672 0.7917 -0.1352
H21 H 0.3683 0.8482 0.0447
H22 H 0.2967 0.8066 -0.0337
O1 O 0.21861(6) 0.06666(10) 0.29582(16)
C1 C 0.41200(8) 0.18011(14) 0.2705(2)
C2 C 0.43159(9) 0.14303(17) 0.4461(2)
H2 H 0.4817 0.1264 0.4491
H3 H 0.4228 0.2061 0.5234
C3 C 0.39205(10) 0.03986(17) 0.5060(2)
H4 H 0.4032 0.0264 0.6240
H5 H 0.4075 -0.0267 0.4421
C4 C 0.31388(10) 0.05257(17) 0.4876(2)
H6 H 0.2993 0.1265 0.5320
H7 H 0.2903 -0.0068 0.5523
C5 C 0.29282(8) 0.04357(14) 0.3057(2)
H8 H 0.3010 -0.0355 0.2683
C6 C 0.18865(9) 0.01528(16) 0.1526(2)
H9 H 0.1960 -0.0671 0.1570
H10 H 0.2116 0.0443 0.0516
C7 C 0.11282(10) 0.03996(19) 0.1447(3)
H11 H 0.0930 0.0047 0.0457
H12 H 0.1057 0.1215 0.1395
H13 H 0.0901 0.0098 0.2437
B1 B 0.33655(9) 0.12584(16) 0.1892(3)
B2 B 0.34333(10) 0.27054(17) 0.2441(3)
H23 H 0.3122 0.3069 0.3482
B3 B 0.42897(10) 0.31549(17) 0.2063(3)
H24 H 0.4541 0.3811 0.2856
B4 B 0.47664(10) 0.19996(17) 0.1267(3)
H25 H 0.5331 0.1893 0.1533
B5 B 0.41967(10) 0.08291(16) 0.1149(3)
H26 H 0.4388 -0.0051 0.1333
B6 B 0.30503(10) 0.23133(17) 0.0527(2)
H27 H 0.2484 0.2420 0.0285
B7 B 0.36255(10) 0.34833(17) 0.0631(3)
H28 H 0.3436 0.4365 0.0451
B8 B 0.44526(11) 0.30578(19) -0.0093(3)
H29 H 0.4809 0.3656 -0.0742
B9 B 0.43971(11) 0.16116(18) -0.0660(3)
H30 H 0.4719 0.1254 -0.1687
B10 B 0.35288(10) 0.11425(17) -0.0280(3)
H31 H 0.3279 0.0475 -0.1053
B11 B 0.36864(10) 0.25243(19) -0.1056(3)
H32 H 0.3537 0.2767 -0.2348
loop_
_geom_bond_atom_site_label_1
_geom_bond_atom_site_label_2
_geom_bond_site_symmetry_1
_geom_bond_site_symmetry_2
N1 H1 1_555 1_555
O1 C5 1_555 1_555
C1 C2 1_555 1_555
C2 H2 1_555 1_555
H3 C2 1_555 1_555
C3 C2 1_555 1_555
H4 C3 1_555 1_555
H5 C3 1_555 1_555
C4 C3 1_555 1_555
H6 C4 1_555 1_555
H7 C4 1_555 1_555
C5 C4 1_555 1_555
H8 C5 1_555 1_555
C6 O1 1_555 1_555
H9 C6 1_555 1_555
H10 C6 1_555 1_555
C7 C6 1_555 1_555
H11 C7 1_555 1_555
H12 C7 1_555 1_555
H13 C7 1_555 1_555
C8 N1 1_555 1_555
H14 C8 1_555 1_555
H15 C8 1_555 1_555
H16 C8 1_555 1_555
C9 N1 1_555 1_555
H17 C9 1_555 1_555
H18 C9 1_555 1_555
H19 C9 1_555 1_555
C10 N1 1_555 1_555
H20 C10 1_555 1_555
H21 C10 1_555 1_555
H22 C10 1_555 1_555
B1 C1 1_555 1_555
B2 C1 1_555 1_555
H23 B2 1_555 1_555
B3 C1 1_555 1_555
H24 B3 1_555 1_555
B4 C1 1_555 1_555
H25 B4 1_555 1_555
B5 C1 1_555 1_555
H26 B5 1_555 1_555
B6 B1 1_555 1_555
H27 B6 1_555 1_555
B7 B2 1_555 1_555
H28 B7 1_555 1_555
B8 B3 1_555 1_555
H29 B8 1_555 1_555
B9 B4 1_555 1_555
H30 B9 1_555 1_555
B10 B1 1_555 1_555
H31 B10 1_555 1_555
B11 B6 1_555 1_555
H32 B11 1_555 1_555
C5 B1 1_555 1_555
B1 B2 1_555 1_555
B1 B5 1_555 1_555
B2 B3 1_555 1_555
B2 B6 1_555 1_555
B3 B4 1_555 1_555
B3 B7 1_555 1_555
B4 B5 1_555 1_555
B4 B8 1_555 1_555
B5 B9 1_555 1_555
B5 B10 1_555 1_555
B6 B7 1_555 1_555
B6 B10 1_555 1_555
B7 B8 1_555 1_555
B7 B11 1_555 1_555
B8 B9 1_555 1_555
B8 B11 1_555 1_555
B9 B10 1_555 1_555
B9 B11 1_555 1_555
B10 B11 1_555 1_555

#END
