
#######################################################################
#
#                 Cambridge Crystallographic Data Centre
#                                CCDC 
#
#######################################################################
#
# If this CIF has been generated from an entry in the Cambridge 
# Structural Database, then it will include bibliographic, chemical, 
# crystal, experimental, refinement or atomic coordinate data resulting 
# from the CCDC's data processing and validation procedures.
#
#######################################################################

data_VENVER
_chemical_formula_moiety         'C9 H28 B11 N1'
_chemical_name_systematic        
1,2-(4-(t-Butylammonio)butane-1,4-diyl)-1-carba-closo-dodecaborate
_symmetry_cell_setting           monoclinic
_symmetry_space_group_name_H-M   'P 21/n'
_symmetry_Int_Tables_number      14
_space_group_name_Hall           '-P 2yn'
loop_
_symmetry_equiv_pos_site_id
_symmetry_equiv_pos_as_xyz
1 x,y,z
2 1/2-x,1/2+y,1/2-z
3 -x,-y,-z
4 1/2+x,1/2-y,1/2+z
_cell_length_a                   7.6806(3)
_cell_length_b                   11.2799(5)
_cell_length_c                   19.8375(9)
_cell_angle_alpha                90
_cell_angle_beta                 99.6080(10)
_cell_angle_gamma                90
_cell_volume                     1694.54
_exptl_crystal_colour            colorless
_exptl_crystal_description       block
_cell_formula_units_Z            4
loop_
_atom_site_label
_atom_site_type_symbol
_atom_site_fract_x
_atom_site_fract_y
_atom_site_fract_z
N1 N 0.8903(2) 0.70867(12) 0.07253(7)
H1 H 0.8060 0.6685 0.0447
H2 H 0.9855 0.7120 0.0516
C1 C 0.9783(2) 0.39125(15) 0.16742(8)
C2 C 1.1623(2) 0.42059(19) 0.20580(10)
H3 H 1.2490 0.3929 0.1790
H4 H 1.1813 0.3775 0.2487
C3 C 1.1934(3) 0.5523(2) 0.22080(11)
H5 H 1.1260 0.5760 0.2558
H6 H 1.3174 0.5646 0.2389
C4 C 1.1421(3) 0.63096(18) 0.15857(11)
H7 H 1.1943 0.6003 0.1208
H8 H 1.1874 0.7104 0.1688
C5 C 0.9407(2) 0.63563(15) 0.13791(8)
H9 H 0.8928 0.6760 0.1745
C6 C 0.8235(2) 0.83636(14) 0.07870(9)
C7 C 0.6458(3) 0.82915(19) 0.10185(10)
H10 H 0.5648 0.7858 0.0687
H11 H 0.6011 0.9077 0.1064
H12 H 0.6587 0.7893 0.1452
C8 C 0.8048(3) 0.88951(17) 0.00721(10)
H13 H 0.7187 0.8453 -0.0235
H14 H 0.9165 0.8861 -0.0084
H15 H 0.7674 0.9706 0.0084
C9 C 0.9594(3) 0.90467(17) 0.12845(11)
H16 H 0.9696 0.8699 0.1731
H17 H 0.9227 0.9858 0.1303
H18 H 1.0718 0.9014 0.1134
B1 B 0.8544(2) 0.50616(16) 0.12918(9)
B2 B 0.9455(2) 0.39816(17) 0.08031(9)
H19 H 1.0490 0.4207 0.0503
B3 B 0.9460(3) 0.26053(18) 0.12308(10)
H20 H 1.0496 0.1939 0.1211
B4 B 0.8541(3) 0.28316(19) 0.19815(11)
H21 H 0.8984 0.2312 0.2448
B5 B 0.7973(3) 0.43476(18) 0.20217(10)
H22 H 0.8045 0.4809 0.2514
B6 B 0.7243(2) 0.44496(17) 0.05550(10)
H23 H 0.6823 0.4976 0.0090
B7 B 0.7803(3) 0.29200(18) 0.05167(10)
H24 H 0.7745 0.2453 0.0027
B8 B 0.7231(3) 0.22080(18) 0.12471(12)
H25 H 0.6798 0.1277 0.1231
B9 B 0.6326(3) 0.32854(18) 0.17393(11)
H26 H 0.5306 0.3052 0.2045
B10 B 0.6318(2) 0.46821(17) 0.13141(10)
H27 H 0.5301 0.5358 0.1342
B11 B 0.5865(3) 0.33511(18) 0.08353(11)
H28 H 0.4537 0.3165 0.0551
loop_
_geom_bond_atom_site_label_1
_geom_bond_atom_site_label_2
_geom_bond_site_symmetry_1
_geom_bond_site_symmetry_2
N1 H1 1_555 1_555
H2 N1 1_555 1_555
C1 C2 1_555 1_555
C2 H3 1_555 1_555
H4 C2 1_555 1_555
C3 C2 1_555 1_555
H5 C3 1_555 1_555
H6 C3 1_555 1_555
C4 C3 1_555 1_555
H7 C4 1_555 1_555
H8 C4 1_555 1_555
C5 N1 1_555 1_555
H9 C5 1_555 1_555
C6 N1 1_555 1_555
C7 C6 1_555 1_555
H10 C7 1_555 1_555
H11 C7 1_555 1_555
H12 C7 1_555 1_555
C8 C6 1_555 1_555
H13 C8 1_555 1_555
H14 C8 1_555 1_555
H15 C8 1_555 1_555
C9 C6 1_555 1_555
H16 C9 1_555 1_555
H17 C9 1_555 1_555
H18 C9 1_555 1_555
B1 C1 1_555 1_555
B2 C1 1_555 1_555
H19 B2 1_555 1_555
B3 C1 1_555 1_555
H20 B3 1_555 1_555
B4 C1 1_555 1_555
H21 B4 1_555 1_555
B5 C1 1_555 1_555
H22 B5 1_555 1_555
B6 B1 1_555 1_555
H23 B6 1_555 1_555
B7 B2 1_555 1_555
H24 B7 1_555 1_555
B8 B3 1_555 1_555
H25 B8 1_555 1_555
B9 B4 1_555 1_555
H26 B9 1_555 1_555
B10 B1 1_555 1_555
H27 B10 1_555 1_555
B11 B6 1_555 1_555
H28 B11 1_555 1_555
C4 C5 1_555 1_555
C5 B1 1_555 1_555
B1 B2 1_555 1_555
B1 B5 1_555 1_555
B2 B3 1_555 1_555
B2 B6 1_555 1_555
B3 B4 1_555 1_555
B3 B7 1_555 1_555
B4 B5 1_555 1_555
B4 B8 1_555 1_555
B5 B9 1_555 1_555
B5 B10 1_555 1_555
B6 B7 1_555 1_555
B6 B10 1_555 1_555
B7 B8 1_555 1_555
B7 B11 1_555 1_555
B8 B9 1_555 1_555
B8 B11 1_555 1_555
B9 B10 1_555 1_555
B9 B11 1_555 1_555
B10 B11 1_555 1_555

#END
