
#######################################################################
#
#                 Cambridge Crystallographic Data Centre
#                                CCDC 
#
#######################################################################
#
# If this CIF has been generated from an entry in the Cambridge 
# Structural Database, then it will include bibliographic, chemical, 
# crystal, experimental, refinement or atomic coordinate data resulting 
# from the CCDC's data processing and validation procedures.
#
#######################################################################

data_VENWIW
_chemical_formula_moiety         'C19 H35 B11 N2'
_chemical_name_systematic        
'Hydrogen 1,2-(3-(4,6-bis(dimethylamino)naphthalenyl)butane-1,4-diyl)-1-carba-closo-dodecaborate'
_symmetry_cell_setting           monoclinic
_symmetry_space_group_name_H-M   'P 21/c'
_symmetry_Int_Tables_number      14
_space_group_name_Hall           '-P 2ybc'
loop_
_symmetry_equiv_pos_site_id
_symmetry_equiv_pos_as_xyz
1 x,y,z
2 -x,1/2+y,1/2-z
3 -x,-y,-z
4 x,1/2-y,1/2+z
_cell_length_a                   7.0376(5)
_cell_length_b                   13.2110(7)
_cell_length_c                   26.0158(17)
_cell_angle_alpha                90
_cell_angle_beta                 96.547(4)
_cell_angle_gamma                90
_cell_volume                     2403.01
_exptl_crystal_colour            colorless
_exptl_crystal_description       block
_cell_formula_units_Z            4
loop_
_atom_site_label
_atom_site_type_symbol
_atom_site_fract_x
_atom_site_fract_y
_atom_site_fract_z
N1 N 0.5359(10) 0.6499(5) 0.0911(3)
N2 N 0.6272(9) 0.8373(5) 0.0883(3)
C1 C -0.1497(10) 0.7444(5) 0.3492(3)
B1 B 0.0942(12) 0.7334(6) 0.3610(3)
C2 C -0.2330(11) 0.7429(6) 0.2926(3)
H1 H -0.3514 0.7047 0.2896
H2 H -0.2641 0.8118 0.2818
C3 C -0.1038(13) 0.6981(8) 0.2561(3)
H3 H -0.1642 0.7054 0.2209
H4 H -0.0885 0.6263 0.2632
C4 C 0.0920(11) 0.7473(6) 0.2605(3)
H5 H 0.0695 0.8205 0.2602
C5 C 0.2097(11) 0.7240(6) 0.3118(3)
H6 H 0.3180 0.7699 0.3162
H7 H 0.2596 0.6557 0.3104
C6 C 0.2050(13) 0.7255(9) 0.2153(3)
C7 C 0.1898(13) 0.6321(8) 0.1906(4)
H8 H 0.1061 0.5839 0.2012
C8 C 0.2992(14) 0.6089(8) 0.1496(4)
H9 H 0.2881 0.5452 0.1342
C9 C 0.4191(12) 0.6775(9) 0.1324(3)
C10 C 0.4372(12) 0.7741(9) 0.1542(4)
C11 C 0.5483(14) 0.8521(9) 0.1366(3)
C12 C 0.5745(13) 0.9422(9) 0.1623(4)
H10 H 0.6542 0.9913 0.1507
C13 C 0.4800(15) 0.9607(8) 0.2066(4)
H11 H 0.4994 1.0213 0.2247
C14 C 0.3615(13) 0.8898(10) 0.2226(3)
H12 H 0.2967 0.9038 0.2510
C15 C 0.3325(14) 0.7956(9) 0.1978(4)
C16 C 0.4329(13) 0.5969(7) 0.0463(3)
H13 H 0.3237 0.6362 0.0328
H14 H 0.3913 0.5319 0.0570
H15 H 0.5165 0.5883 0.0200
C17 C 0.7040(14) 0.5899(8) 0.1111(4)
H16 H 0.7716 0.6240 0.1402
H17 H 0.7868 0.5820 0.0844
H18 H 0.6634 0.5245 0.1216
C18 C 0.5179(13) 0.8985(6) 0.0457(3)
H19 H 0.3838 0.8838 0.0445
H20 H 0.5613 0.8813 0.0131
H21 H 0.5389 0.9693 0.0524
C19 C 0.8388(13) 0.8596(7) 0.0922(3)
H22 H 0.9047 0.8201 0.1196
H23 H 0.8600 0.9302 0.0993
H24 H 0.8862 0.8426 0.0601
B2 B -0.0229(12) 0.8484(7) 0.3717(4)
H25 H -0.0013 0.9162 0.3484
B3 B -0.2483(13) 0.8182(7) 0.3917(3)
H26 H -0.3747 0.8660 0.3813
B4 B -0.2681(13) 0.6874(7) 0.3947(3)
H27 H -0.4074 0.6495 0.3864
B5 B -0.0585(12) 0.6339(7) 0.3757(4)
H28 H -0.0603 0.5613 0.3550
B6 B 0.1567(13) 0.8030(7) 0.4188(3)
H29 H 0.2961 0.8409 0.4268
B7 B -0.0566(13) 0.8566(7) 0.4375(4)
H30 H -0.0561 0.9298 0.4577
B8 B -0.2092(14) 0.7571(7) 0.4513(4)
H31 H -0.3085 0.7655 0.4807
B9 B -0.0919(14) 0.6406(8) 0.4410(4)
H32 H -0.1147 0.5720 0.4635
B10 B 0.1350(13) 0.6693(7) 0.4213(3)
H33 H 0.2602 0.6202 0.4310
B11 B 0.0410(14) 0.7458(7) 0.4689(4)
H34 H 0.1043 0.7462 0.5096
H35 H 0.597(9) 0.739(6) 0.080(2)
loop_
_geom_bond_atom_site_label_1
_geom_bond_atom_site_label_2
_geom_bond_site_symmetry_1
_geom_bond_site_symmetry_2
N1 C9 1_555 1_555
N2 C11 1_555 1_555
C1 B1 1_555 1_555
B1 C5 1_555 1_555
C2 C1 1_555 1_555
H1 C2 1_555 1_555
H2 C2 1_555 1_555
C3 C2 1_555 1_555
H3 C3 1_555 1_555
H4 C3 1_555 1_555
C4 C3 1_555 1_555
H5 C4 1_555 1_555
C5 C4 1_555 1_555
H6 C5 1_555 1_555
H7 C5 1_555 1_555
C6 C4 1_555 1_555
C7 C6 1_555 1_555
H8 C7 1_555 1_555
C8 C7 1_555 1_555
H9 C8 1_555 1_555
C9 C8 1_555 1_555
C10 C9 1_555 1_555
C11 C10 1_555 1_555
C12 C11 1_555 1_555
H10 C12 1_555 1_555
C13 C12 1_555 1_555
H11 C13 1_555 1_555
C14 C13 1_555 1_555
H12 C14 1_555 1_555
C15 C6 1_555 1_555
C16 N1 1_555 1_555
H13 C16 1_555 1_555
H14 C16 1_555 1_555
H15 C16 1_555 1_555
C17 N1 1_555 1_555
H16 C17 1_555 1_555
H17 C17 1_555 1_555
H18 C17 1_555 1_555
C18 N2 1_555 1_555
H19 C18 1_555 1_555
H20 C18 1_555 1_555
H21 C18 1_555 1_555
C19 N2 1_555 1_555
H22 C19 1_555 1_555
H23 C19 1_555 1_555
H24 C19 1_555 1_555
B2 C1 1_555 1_555
H25 B2 1_555 1_555
B3 C1 1_555 1_555
H26 B3 1_555 1_555
B4 C1 1_555 1_555
H27 B4 1_555 1_555
B5 C1 1_555 1_555
H28 B5 1_555 1_555
B6 B1 1_555 1_555
H29 B6 1_555 1_555
B7 B2 1_555 1_555
H30 B7 1_555 1_555
B8 B3 1_555 1_555
H31 B8 1_555 1_555
B9 B4 1_555 1_555
H32 B9 1_555 1_555
B10 B1 1_555 1_555
H33 B10 1_555 1_555
B11 B6 1_555 1_555
H34 B11 1_555 1_555
H35 N1 1_555 1_555
N2 H35 1_555 1_555
B1 B2 1_555 1_555
B1 B5 1_555 1_555
C10 C15 1_555 1_555
C14 C15 1_555 1_555
B2 B3 1_555 1_555
B2 B6 1_555 1_555
B3 B4 1_555 1_555
B3 B7 1_555 1_555
B4 B5 1_555 1_555
B4 B8 1_555 1_555
B5 B9 1_555 1_555
B5 B10 1_555 1_555
B6 B7 1_555 1_555
B6 B10 1_555 1_555
B7 B8 1_555 1_555
B7 B11 1_555 1_555
B8 B9 1_555 1_555
B8 B11 1_555 1_555
B9 B10 1_555 1_555
B9 B11 1_555 1_555
B10 B11 1_555 1_555

#END
