
#######################################################################
#
#                 Cambridge Crystallographic Data Centre
#                                CCDC 
#
#######################################################################
#
# If this CIF has been generated from an entry in the Cambridge 
# Structural Database, then it will include bibliographic, chemical, 
# crystal, experimental, refinement or atomic coordinate data resulting 
# from the CCDC's data processing and validation procedures.
#
#######################################################################

data_VENWES
_chemical_formula_moiety         'C11 H32 B11 N1'
_chemical_name_systematic        
1,2-(3-(Triethylammonio)butane-1,4-diyl)-1-carba-closo-dodecaborate
_symmetry_cell_setting           orthorhombic
_symmetry_space_group_name_H-M   'P b c a'
_symmetry_Int_Tables_number      61
_space_group_name_Hall           '-P 2ac 2ab'
loop_
_symmetry_equiv_pos_site_id
_symmetry_equiv_pos_as_xyz
1 x,y,z
2 1/2-x,-y,1/2+z
3 -x,1/2+y,1/2-z
4 1/2+x,1/2-y,-z
5 -x,-y,-z
6 1/2+x,y,1/2-z
7 x,1/2-y,1/2+z
8 1/2-x,1/2+y,z
_cell_length_a                   11.3889(7)
_cell_length_b                   14.4573(9)
_cell_length_c                   22.1940(15)
_cell_angle_alpha                90
_cell_angle_beta                 90
_cell_angle_gamma                90
_cell_volume                     3654.3
_exptl_crystal_colour            colorless
_exptl_crystal_description       block
_cell_formula_units_Z            8
loop_
_atom_site_label
_atom_site_type_symbol
_atom_site_fract_x
_atom_site_fract_y
_atom_site_fract_z
N1 N 0.37267(19) 0.29171(15) 0.40880(10)
C1 C 0.6205(3) 0.08242(19) 0.32725(12)
B1 B 0.5531(3) 0.0570(2) 0.39378(14)
C2 C 0.5770(3) 0.1679(2) 0.29423(13)
H1 H 0.5698 0.1534 0.2517
H2 H 0.6353 0.2164 0.2982
C3 C 0.4592(3) 0.2043(2) 0.31697(12)
H3 H 0.3976 0.1608 0.3067
H4 H 0.4416 0.2627 0.2974
C4 C 0.4619(2) 0.21820(17) 0.38528(11)
H5 H 0.5403 0.2419 0.3949
C5 C 0.4517(2) 0.12505(18) 0.41631(12)
H6 H 0.3756 0.0980 0.4075
H7 H 0.4577 0.1333 0.4596
C6 C 0.3814(3) 0.2982(2) 0.47727(13)
H8 H 0.3274 0.3456 0.4909
H9 H 0.3553 0.2399 0.4942
C7 C 0.5000(4) 0.3194(3) 0.50235(16)
H10 H 0.4957 0.3219 0.5455
H11 H 0.5263 0.3781 0.4872
H12 H 0.5543 0.2720 0.4905
C8 C 0.2459(3) 0.2671(3) 0.39706(18)
H13 H 0.2342 0.2037 0.4100
H14 H 0.1978 0.3058 0.4229
C9 C 0.1999(4) 0.2753(4) 0.3356(2)
H15 H 0.1188 0.2573 0.3351
H16 H 0.2440 0.2358 0.3092
H17 H 0.2069 0.3383 0.3223
C10 C 0.4056(3) 0.38400(18) 0.38162(13)
H18 H 0.3960 0.3799 0.3383
H19 H 0.4882 0.3950 0.3895
C11 C 0.3366(3) 0.4670(2) 0.40388(16)
H20 H 0.3644 0.5218 0.3841
H21 H 0.3470 0.4733 0.4466
H22 H 0.2548 0.4583 0.3950
B2 B 0.5325(3) -0.0137(2) 0.32874(15)
H23 H 0.4467 -0.0190 0.3062
B3 B 0.6658(4) -0.0128(3) 0.28731(16)
H24 H 0.6664 -0.0171 0.2378
B4 B 0.7680(3) 0.0571(2) 0.32561(17)
H25 H 0.8344 0.0979 0.3013
B5 B 0.6993(3) 0.0986(2) 0.39169(15)
H26 H 0.7222 0.1667 0.4104
B6 B 0.5598(3) -0.0658(2) 0.39918(16)
H27 H 0.4919 -0.1058 0.4230
B7 B 0.6295(4) -0.1088(2) 0.33309(17)
H28 H 0.6068 -0.1767 0.3140
B8 B 0.7749(3) -0.0654(2) 0.33099(17)
H29 H 0.8468 -0.1053 0.3105
B9 B 0.7961(3) 0.0047(2) 0.39621(17)
H30 H 0.8823 0.0105 0.4183
B10 B 0.6639(3) 0.0045(2) 0.43811(15)
H31 H 0.6637 0.0101 0.4875
B11 B 0.7108(3) -0.0973(2) 0.40096(16)
H32 H 0.7415 -0.1581 0.4263
loop_
_geom_bond_atom_site_label_1
_geom_bond_atom_site_label_2
_geom_bond_site_symmetry_1
_geom_bond_site_symmetry_2
N1 C4 1_555 1_555
C1 B1 1_555 1_555
B1 C5 1_555 1_555
C2 C1 1_555 1_555
H1 C2 1_555 1_555
H2 C2 1_555 1_555
C3 C2 1_555 1_555
H3 C3 1_555 1_555
H4 C3 1_555 1_555
C4 C3 1_555 1_555
H5 C4 1_555 1_555
C5 C4 1_555 1_555
H6 C5 1_555 1_555
H7 C5 1_555 1_555
C6 N1 1_555 1_555
H8 C6 1_555 1_555
H9 C6 1_555 1_555
C7 C6 1_555 1_555
H10 C7 1_555 1_555
H11 C7 1_555 1_555
H12 C7 1_555 1_555
C8 N1 1_555 1_555
H13 C8 1_555 1_555
H14 C8 1_555 1_555
C9 C8 1_555 1_555
H15 C9 1_555 1_555
H16 C9 1_555 1_555
H17 C9 1_555 1_555
C10 N1 1_555 1_555
H18 C10 1_555 1_555
H19 C10 1_555 1_555
C11 C10 1_555 1_555
H20 C11 1_555 1_555
H21 C11 1_555 1_555
H22 C11 1_555 1_555
B2 C1 1_555 1_555
H23 B2 1_555 1_555
B3 C1 1_555 1_555
H24 B3 1_555 1_555
B4 C1 1_555 1_555
H25 B4 1_555 1_555
B5 C1 1_555 1_555
H26 B5 1_555 1_555
B6 B1 1_555 1_555
H27 B6 1_555 1_555
B7 B2 1_555 1_555
H28 B7 1_555 1_555
B8 B3 1_555 1_555
H29 B8 1_555 1_555
B9 B4 1_555 1_555
H30 B9 1_555 1_555
B10 B1 1_555 1_555
H31 B10 1_555 1_555
B11 B6 1_555 1_555
H32 B11 1_555 1_555
B1 B2 1_555 1_555
B1 B5 1_555 1_555
B2 B3 1_555 1_555
B2 B6 1_555 1_555
B3 B4 1_555 1_555
B3 B7 1_555 1_555
B4 B5 1_555 1_555
B4 B8 1_555 1_555
B5 B9 1_555 1_555
B5 B10 1_555 1_555
B6 B7 1_555 1_555
B6 B10 1_555 1_555
B7 B8 1_555 1_555
B7 B11 1_555 1_555
B8 B9 1_555 1_555
B8 B11 1_555 1_555
B9 B10 1_555 1_555
B9 B11 1_555 1_555
B10 B11 1_555 1_555

#END
