
#######################################################################
#
#                 Cambridge Crystallographic Data Centre
#                                CCDC 
#
#######################################################################
#
# If this CIF has been generated from an entry in the Cambridge 
# Structural Database, then it will include bibliographic, chemical, 
# crystal, experimental, refinement or atomic coordinate data resulting 
# from the CCDC's data processing and validation procedures.
#
#######################################################################

data_VENWAO
_chemical_formula_moiety         'C11 H32 B11 N1'
_chemical_name_systematic        
1,2-(4-(Triethylammonio)butane-1,4-diyl)-1-carba-closo-dodecaborate
_symmetry_cell_setting           monoclinic
_symmetry_space_group_name_H-M   'P 21/m'
_symmetry_Int_Tables_number      11
_space_group_name_Hall           '-P 2yb'
loop_
_symmetry_equiv_pos_site_id
_symmetry_equiv_pos_as_xyz
1 x,y,z
2 -x,1/2+y,-z
3 -x,-y,-z
4 x,1/2-y,z
_cell_length_a                   8.2436(8)
_cell_length_b                   11.4715(12)
_cell_length_c                   10.3203(10)
_cell_angle_alpha                90
_cell_angle_beta                 109.448(2)
_cell_angle_gamma                90
_cell_volume                     920.27
_exptl_crystal_colour            colorless
_exptl_crystal_description       block
_cell_formula_units_Z            2
loop_
_atom_site_label
_atom_site_type_symbol
_atom_site_fract_x
_atom_site_fract_y
_atom_site_fract_z
N1 N 0.3840(4) 0.2500 0.1890(3)
C1 C 0.0127(4) 0.2500 -0.2054(3)
C2 C -0.1397(5) 0.2500 -0.1538(4)
H1 H -0.1709 0.3298 -0.1420
H2 H -0.2373 0.2865 -0.2220
C3 C -0.1000(7) 0.3149(7) -0.0176(6)
H3 H -0.2005 0.3151 0.0114
H4 H -0.0690 0.3950 -0.0281
C4 C 0.0565(5) 0.2500 0.0949(4)
H5 H 0.0962 0.3028 0.1725
H6 H 0.0067 0.1835 0.1260
C5 C 0.2236(6) 0.2033(5) 0.0692(5)
H7 H 0.2237 0.1179 0.0706
C6 C 0.3772(7) 0.1970(5) 0.3262(5)
H8 H 0.4824 0.2188 0.3985
H9 H 0.2829 0.2339 0.3470
C7 C 0.3559(14) 0.0661(14) 0.3338(11)
H10 H 0.3534 0.0455 0.4233
H11 H 0.4506 0.0275 0.3175
H12 H 0.2502 0.0426 0.2654
C8 C 0.5406(6) 0.1923(5) 0.1619(5)
H13 H 0.5391 0.1085 0.1741
H14 H 0.5383 0.2085 0.0691
C9 C 0.7127(6) 0.2500 0.2750(5)
H15 H 0.8140 0.2163 0.2642
H16 H 0.7130 0.3327 0.2606
H17 H 0.7115 0.2347 0.3661
C10 C 0.4019(9) 0.3766(6) 0.1928(6)
H18 H 0.5169 0.1059 0.1924
H19 H 0.3223 0.0934 0.1074
C11 C 0.376(3) 0.057(2) 0.3021(17)
H20 H 0.3936 -0.0238 0.2889
H21 H 0.4567 0.0826 0.3883
H22 H 0.2610 0.0694 0.3023
B1 B 0.2180(5) 0.2500 -0.0864(4)
B2 B 0.1321(4) 0.3726(3) -0.1906(4)
H23 H 0.1065 0.4540 -0.1444
B3 B -0.0047(4) 0.3256(4) -0.3516(4)
H24 H -0.1195 0.3756 -0.4103
B4 B 0.3426(4) 0.3268(3) -0.1691(3)
H25 H 0.4563 0.3775 -0.1096
B5 B 0.2044(5) 0.3730(5) -0.3331(5)
H26 H 0.2283 0.4541 -0.3806
B6 B 0.1185(6) 0.2500 -0.4320(5)
H27 H 0.0857 0.2500 -0.5445
B7 B 0.3341(6) 0.2500 -0.3196(4)
H28 H 0.4436 0.2500 -0.3580
H1C H -0.1709 0.1702 -0.1420
H2C H -0.2373 0.2135 -0.2220
C3C C -0.1000(7) 0.1851(7) -0.0176(6)
H3C H -0.2005 0.1849 0.0114
H4C H -0.0690 0.1050 -0.0281
H5C H 0.0962 0.1972 0.1725
H6C H 0.0067 0.3165 0.1260
C5C C 0.2236(6) 0.2967(5) 0.0692(5)
H7C H 0.2237 0.3821 0.0706
C6C C 0.3772(7) 0.3030(5) 0.3262(5)
H8C H 0.4824 0.2812 0.3985
H9C H 0.2829 0.2661 0.3470
C7C C 0.3559(14) 0.4339(14) 0.3338(11)
H10C H 0.3534 0.4545 0.4233
H11C H 0.4506 0.4725 0.3175
H12C H 0.2502 0.4574 0.2654
C8C C 0.5406(6) 0.3077(5) 0.1619(5)
H13C H 0.5391 0.3915 0.1741
H14C H 0.5383 0.2915 0.0691
H15C H 0.8140 0.2837 0.2642
H16C H 0.7130 0.1673 0.2606
H17C H 0.7115 0.2653 0.3661
C10C C 0.4019(9) 0.1234(6) 0.1928(6)
H18C H 0.5169 0.3941 0.1924
H19C H 0.3223 0.4066 0.1074
C11C C 0.376(3) 0.443(2) 0.3021(17)
H20C H 0.3936 0.5238 0.2889
H21C H 0.4567 0.4174 0.3883
H22C H 0.2610 0.4306 0.3023
B2C B 0.1321(4) 0.1274(3) -0.1906(4)
H23C H 0.1065 0.0460 -0.1444
B3C B -0.0047(4) 0.1744(4) -0.3516(4)
H24C H -0.1195 0.1244 -0.4103
B4C B 0.3426(4) 0.1732(3) -0.1691(3)
H25C H 0.4563 0.1225 -0.1096
B5C B 0.2044(5) 0.1270(5) -0.3331(5)
H26C H 0.2283 0.0459 -0.3806
loop_
_geom_bond_atom_site_label_1
_geom_bond_atom_site_label_2
_geom_bond_site_symmetry_1
_geom_bond_site_symmetry_2
N1 C5 1_555 1_555
C1 C2 1_555 1_555
C2 H1 1_555 1_555
H1 C3 1_555 1_555
H2 C2 1_555 1_555
C3 C2 1_555 1_555
H3 C3 1_555 1_555
H4 C3 1_555 1_555
C4 C3 1_555 1_555
H5 C4 1_555 1_555
H6 C4 1_555 1_555
C5 C4 1_555 1_555
H7 C5 1_555 1_555
C6 N1 1_555 1_555
H8 C6 1_555 1_555
H9 C6 1_555 1_555
C7 C6 1_555 1_555
H10 C7 1_555 1_555
H11 C7 1_555 1_555
H12 C7 1_555 1_555
C8 N1 1_555 1_555
H13 C8 1_555 1_555
H14 C8 1_555 1_555
C9 C8 1_555 1_555
H15 C9 1_555 1_555
H16 C9 1_555 1_555
H17 C9 1_555 1_555
C10 N1 1_555 1_555
H18 C8 1_555 1_555
H19 H7 1_555 1_555
C11 C6 1_555 1_555
H20 C7 1_555 1_555
H21 C7 1_555 1_555
H22 C7 1_555 1_555
B1 C1 1_555 1_555
B2 C1 1_555 1_555
H23 B2 1_555 1_555
B3 C1 1_555 1_555
H24 B3 1_555 1_555
B4 B1 1_555 1_555
H25 B4 1_555 1_555
B5 B2 1_555 1_555
H26 B5 1_555 1_555
B6 B3 1_555 1_555
H27 B6 1_555 1_555
B7 B4 1_555 1_555
H28 B7 1_555 1_555
H1C C2 1_555 1_555
H2C C2 1_555 1_555
C3C C2 1_555 1_555
H3C C3C 1_555 1_555
H4C C3C 1_555 1_555
H5C C4 1_555 1_555
H6C C4 1_555 1_555
C5C N1 1_555 1_555
H7C C5C 1_555 1_555
C6C N1 1_555 1_555
H8C H8 1_555 1_555
H9C C6 1_555 1_555
C7C C10 1_555 1_555
H10C C7C 1_555 1_555
H11C C7C 1_555 1_555
H12C C7C 1_555 1_555
C8C N1 1_555 1_555
H13C C10 1_555 1_555
H14C C8C 1_555 1_555
H15C C9 1_555 1_555
H16C C9 1_555 1_555
H17C C9 1_555 1_555
C10C N1 1_555 1_555
H18C C10 1_555 1_555
H19C C10 1_555 1_555
C11C C10 1_555 1_555
H20C C7C 1_555 1_555
H21C C7C 1_555 1_555
H22C C7C 1_555 1_555
B2C C1 1_555 1_555
H23C B2C 1_555 1_555
B3C C1 1_555 1_555
H24C B3C 1_555 1_555
B4C B1 1_555 1_555
H25C B4C 1_555 1_555
B5C B6 1_555 1_555
H26C B5C 1_555 1_555
H2 H2C 1_555 1_555
C3 C3C 1_555 1_555
C4 C3C 1_555 1_555
C4 C5C 1_555 1_555
H5 H6C 1_555 1_555
H6 H5C 1_555 1_555
C5 B1 1_555 1_555
C5 C5C 1_555 1_555
C6 C6C 1_555 1_555
C6 C10C 1_555 1_555
H9 C6C 1_555 1_555
H9 H9C 1_555 1_555
C7 C11 1_555 1_555
C7 C10C 1_555 1_555
H11 C11 1_555 1_555
H11 H20 1_555 1_555
H12 C11 1_555 1_555
H12 H22 1_555 1_555
C8 C8C 1_555 1_555
C8 C10C 1_555 1_555
H13 H18 1_555 1_555
H13 C10C 1_555 1_555
C9 C8C 1_555 1_555
H15 H15C 1_555 1_555
H17 H17C 1_555 1_555
C10 C6C 1_555 1_555
C10 C8C 1_555 1_555
H18 C10C 1_555 1_555
H19 C10C 1_555 1_555
C11 H20 1_555 1_555
C11 H21 1_555 1_555
C11 H22 1_555 1_555
C11 C10C 1_555 1_555
B1 B2 1_555 1_555
B1 C5C 1_555 1_555
B1 B2C 1_555 1_555
B2 B3 1_555 1_555
B2 B4 1_555 1_555
B3 B5 1_555 1_555
B3 B3C 1_555 1_555
B4 B5 1_555 1_555
B4 B4C 1_555 1_555
B5 B6 1_555 1_555
B5 B7 1_555 1_555
B6 B7 1_555 1_555
B6 B3C 1_555 1_555
B7 B4C 1_555 1_555
B7 B5C 1_555 1_555
H1C C3C 1_555 1_555
H7C H19C 1_555 1_555
C6C H8C 1_555 1_555
C6C H9C 1_555 1_555
C6C C7C 1_555 1_555
C6C C11C 1_555 1_555
C7C C11C 1_555 1_555
H11C C11C 1_555 1_555
H11C H20C 1_555 1_555
H12C C11C 1_555 1_555
H12C H22C 1_555 1_555
C8C H13C 1_555 1_555
C8C H18C 1_555 1_555
H13C H18C 1_555 1_555
C11C H20C 1_555 1_555
C11C H21C 1_555 1_555
C11C H22C 1_555 1_555
B2C B3C 1_555 1_555
B2C B4C 1_555 1_555
B2C B5C 1_555 1_555
B3C B5C 1_555 1_555
B4C B5C 1_555 1_555

#END
