
#######################################################################
#
#                 Cambridge Crystallographic Data Centre
#                                CCDC 
#
#######################################################################
#
# If this CIF has been generated from an entry in the Cambridge 
# Structural Database, then it will include bibliographic, chemical, 
# crystal, experimental, refinement or atomic coordinate data resulting 
# from the CCDC's data processing and validation procedures.
#
#######################################################################

data_VEPCUR
_chemical_formula_moiety         'C15 H16 N2 O3 S2'
_chemical_name_systematic        
'{2-methyl-5-[methyl(methylsulfonyl)amino]-4-phenylfuran-3-yl}methyl thiocyanate'
_symmetry_cell_setting           monoclinic
_symmetry_space_group_name_H-M   'C 2/c'
_symmetry_Int_Tables_number      15
_space_group_name_Hall           '-C 2yn'
loop_
_symmetry_equiv_pos_site_id
_symmetry_equiv_pos_as_xyz
1 x,y,z
2 -x,y,1/2-z
3 1/2+x,1/2+y,z
4 1/2-x,1/2+y,1/2-z
5 -x,-y,-z
6 x,-y,1/2+z
7 1/2-x,1/2-y,-z
8 1/2+x,1/2-y,1/2+z
_cell_length_a                   35.3009(9)
_cell_length_b                   6.11730(10)
_cell_length_c                   17.1933(4)
_cell_angle_alpha                90
_cell_angle_beta                 118.1390(10)
_cell_angle_gamma                90
_cell_volume                     3273.99
_exptl_crystal_colour            colorless
_exptl_crystal_description       block
_cell_formula_units_Z            8
loop_
_atom_site_label
_atom_site_type_symbol
_atom_site_fract_x
_atom_site_fract_y
_atom_site_fract_z
S1 S 0.04474(2) 0.58221(13) 0.16341(5)
C1 C 0.15336(8) 0.3689(5) 0.14264(17)
C2 C 0.16072(9) 0.1660(5) 0.11591(19)
H1 H 0.1443 0.1228 0.0575
C3 C 0.19220(11) 0.0270(5) 0.1749(2)
H2 H 0.1971 -0.1066 0.1554
C4 C 0.21596(10) 0.0851(6) 0.2612(2)
H3 H 0.2371 -0.0086 0.3005
C5 C 0.20864(9) 0.2830(6) 0.2901(2)
H4 H 0.2244 0.3215 0.3492
C6 C 0.17769(9) 0.4255(5) 0.23104(18)
H5 H 0.1732 0.5597 0.2508
C7 C 0.12160(8) 0.5214(4) 0.07843(17)
C8 C 0.11412(9) 0.5660(4) -0.01027(17)
C9 C 0.08381(10) 0.7242(5) -0.04345(18)
C10 C 0.09463(9) 0.6559(5) 0.09153(18)
C11 C 0.10274(12) 0.9019(5) 0.2119(2)
H6 H 0.1277 0.9507 0.2081
H7 H 0.1099 0.8815 0.2727
H8 H 0.0804 1.0095 0.1859
C12 C 0.00036(11) 0.7379(6) 0.0921(3)
H9 H -0.0252 0.6784 0.0904
H10 H -0.0022 0.7348 0.0340
H11 H 0.0041 0.8861 0.1128
C13 C 0.13600(9) 0.4695(5) -0.05798(19)
H12 H 0.1214 0.5195 -0.1187
H13 H 0.1330 0.3118 -0.0586
C14 C 0.18821(12) 0.8058(7) -0.0314(2)
C15 C 0.06199(12) 0.8415(6) -0.1294(2)
H14 H 0.0735 0.7923 -0.1671
H15 H 0.0667 0.9959 -0.1195
H16 H 0.0317 0.8120 -0.1569
N1 N 0.08758(7) 0.6919(4) 0.16388(15)
N2 N 0.18540(14) 0.9907(6) -0.0452(3)
O1 O 0.07059(6) 0.7820(3) 0.01717(12)
O2 O 0.04015(7) 0.3686(4) 0.12786(17)
O3 O 0.05024(8) 0.6100(5) 0.25046(15)
S2 S 0.19317(3) 0.53615(15) -0.01106(6)
loop_
_geom_bond_atom_site_label_1
_geom_bond_atom_site_label_2
_geom_bond_site_symmetry_1
_geom_bond_site_symmetry_2
S1 C12 1_555 1_555
C1 C2 1_555 1_555
C2 H1 1_555 1_555
C3 C2 1_555 1_555
H2 C3 1_555 1_555
C4 C3 1_555 1_555
H3 C4 1_555 1_555
C5 C4 1_555 1_555
H4 C5 1_555 1_555
C6 C1 1_555 1_555
H5 C6 1_555 1_555
C7 C1 1_555 1_555
C8 C7 1_555 1_555
C9 C8 1_555 1_555
C10 C7 1_555 1_555
C11 H6 1_555 1_555
H7 C11 1_555 1_555
H8 C11 1_555 1_555
C12 H9 1_555 1_555
H10 C12 1_555 1_555
H11 C12 1_555 1_555
C13 C8 1_555 1_555
H12 C13 1_555 1_555
H13 C13 1_555 1_555
C14 N2 1_555 1_555
C15 C9 1_555 1_555
H14 C15 1_555 1_555
H15 C15 1_555 1_555
H16 C15 1_555 1_555
N1 S1 1_555 1_555
O1 C9 1_555 1_555
O2 S1 1_555 1_555
O3 S1 1_555 1_555
S2 C13 1_555 1_555
C5 C6 1_555 1_555
C10 N1 1_555 1_555
C10 O1 1_555 1_555
C11 N1 1_555 1_555
C14 S2 1_555 1_555

#END
