
#######################################################################
#
#                 Cambridge Crystallographic Data Centre
#                                CCDC 
#
#######################################################################
#
# If this CIF has been generated from an entry in the Cambridge 
# Structural Database, then it will include bibliographic, chemical, 
# crystal, experimental, refinement or atomic coordinate data resulting 
# from the CCDC's data processing and validation procedures.
#
#######################################################################

data_VEPDUS
_chemical_formula_moiety         'C12 H11 F3 N2 O1'
_chemical_name_systematic        
N'-(1,1,1-trifluoropent-4-en-2-ylidene)benzohydrazide
_symmetry_cell_setting           monoclinic
_symmetry_space_group_name_H-M   'P 21/c'
_symmetry_Int_Tables_number      14
_space_group_name_Hall           '-P 2ybc'
loop_
_symmetry_equiv_pos_site_id
_symmetry_equiv_pos_as_xyz
1 x,y,z
2 -x,1/2+y,1/2-z
3 -x,-y,-z
4 x,1/2-y,1/2+z
_cell_length_a                   8.8530(10)
_cell_length_b                   19.2845(11)
_cell_length_c                   8.0635(8)
_cell_angle_alpha                90
_cell_angle_beta                 116.194(13)
_cell_angle_gamma                90
_cell_volume                     1235.27
_exptl_crystal_colour            colorless
_exptl_crystal_description       block
_cell_formula_units_Z            4
loop_
_atom_site_label
_atom_site_type_symbol
_atom_site_fract_x
_atom_site_fract_y
_atom_site_fract_z
F1 F 0.3652(3) 0.29841(13) 0.6881(3)
F2 F 0.2913(4) 0.40153(15) 0.6893(5)
F3 F 0.5035(4) 0.36183(15) 0.9143(4)
O1 O -0.0350(3) 0.16277(12) 0.6716(3)
N1 N 0.0370(3) 0.25170(13) 0.8753(3)
H1 H 0.0241 0.2729 0.9620
N2 N 0.1421(3) 0.27648(13) 0.8060(3)
C1 C -0.2533(4) 0.20613(18) 0.9332(4)
H2 H -0.2528 0.2538 0.9160
C2 C -0.3528(5) 0.1784(2) 1.0091(5)
H3 H -0.4210 0.2071 1.0397
C3 C -0.3507(6) 0.1083(2) 1.0391(5)
H4 H -0.4153 0.0897 1.0931
C4 C -0.2532(6) 0.0657(2) 0.9897(6)
H5 H -0.2521 0.0182 1.0105
C5 C -0.1564(5) 0.09265(18) 0.9089(5)
H6 H -0.0930 0.0634 0.8724
C6 C -0.1550(4) 0.16398(17) 0.8830(4)
C7 C -0.0466(4) 0.19161(16) 0.8000(4)
C8 C 0.2410(4) 0.32625(16) 0.8870(4)
C9 C 0.3495(5) 0.34692(18) 0.7951(5)
C10 C 0.2639(5) 0.36710(17) 1.0554(5)
H7 H 0.2128 0.3420 1.1219
H8 H 0.3832 0.3715 1.1364
C11 C 0.1881(6) 0.4371(2) 1.0087(6)
H9 H 0.0715 0.4389 0.9428
C12 C 0.2643(9) 0.4947(2) 1.0484(7)
H10 H 0.3809 0.4960 1.1141
H11 H 0.2036 0.5359 1.0118
loop_
_geom_bond_atom_site_label_1
_geom_bond_atom_site_label_2
_geom_bond_site_symmetry_1
_geom_bond_site_symmetry_2
F1 C9 1_555 1_555
F2 C9 1_555 1_555
F3 C9 1_555 1_555
O1 C7 1_555 1_555
N1 H1 1_555 1_555
N2 N1 1_555 1_555
C1 H2 1_555 1_555
C2 C1 1_555 1_555
H3 C2 1_555 1_555
C3 C2 1_555 1_555
H4 C3 1_555 1_555
C4 C3 1_555 1_555
H5 C4 1_555 1_555
C5 C4 1_555 1_555
H6 C5 1_555 1_555
C6 C1 1_555 1_555
C7 N1 1_555 1_555
C8 N2 1_555 1_555
C9 C8 1_555 1_555
C10 C8 1_555 1_555
H7 C10 1_555 1_555
H8 C10 1_555 1_555
C11 C10 1_555 1_555
H9 C11 1_555 1_555
C12 C11 1_555 1_555
H10 C12 1_555 1_555
H11 C12 1_555 1_555
C5 C6 1_555 1_555
C6 C7 1_555 1_555

#END
