
#######################################################################
#
#                 Cambridge Crystallographic Data Centre
#                                CCDC 
#
#######################################################################
#
# If this CIF has been generated from an entry in the Cambridge 
# Structural Database, then it will include bibliographic, chemical, 
# crystal, experimental, refinement or atomic coordinate data resulting 
# from the CCDC's data processing and validation procedures.
#
#######################################################################

data_VEPFOO
_chemical_formula_moiety         'C18 H22 N2 O6'
_chemical_name_systematic        
'5-ethyl 3-methyl 1,6-dimethyl-4-(3-nitrophenyl)-1,2,3,4-tetrahydropyridine-3,5-dicarboxylate'
_symmetry_cell_setting           monoclinic
_symmetry_space_group_name_H-M   'P 21/n'
_symmetry_Int_Tables_number      14
_space_group_name_Hall           '-P 2yn'
loop_
_symmetry_equiv_pos_site_id
_symmetry_equiv_pos_as_xyz
1 x,y,z
2 1/2-x,1/2+y,1/2-z
3 -x,-y,-z
4 1/2+x,1/2-y,1/2+z
_cell_length_a                   14.5912(7)
_cell_length_b                   8.4630(4)
_cell_length_c                   14.9815(9)
_cell_angle_alpha                90
_cell_angle_beta                 103.380(5)
_cell_angle_gamma                90
_cell_volume                     1799.78
_exptl_crystal_colour            'dark yellow'
_cell_formula_units_Z            4
loop_
_atom_site_label
_atom_site_type_symbol
_atom_site_fract_x
_atom_site_fract_y
_atom_site_fract_z
O1 O 0.91846(15) -0.1534(3) -0.16891(14)
O2 O 0.82239(13) 0.0561(2) -0.18225(12)
O3 O 0.39734(15) 0.2365(3) -0.18672(19)
O4 O 0.50560(15) 0.3983(3) -0.12244(18)
O5 O 0.78087(12) 0.3664(2) 0.08653(13)
O6 O 0.70866(12) 0.1959(2) 0.16207(12)
N1 N 0.89281(14) -0.1644(2) 0.11340(14)
N2 N 0.47699(16) 0.2651(3) -0.14263(17)
C1 C 0.90700(15) -0.1661(3) 0.02707(17)
C2 C 0.86380(14) -0.0586(3) -0.03817(15)
C3 C 0.80178(14) 0.0708(3) -0.01463(14)
H1 H 0.815397 0.167155 -0.045496
C4 C 0.83013(15) 0.1031(3) 0.08984(15)
H2 H 0.894148 0.146418 0.104218
C5 C 0.83172(17) -0.0490(3) 0.14249(16)
H3 H 0.854136 -0.028420 0.207591
H4 H 0.768339 -0.091159 0.132382
C6 C 0.9401(2) -0.2726(4) 0.1857(2)
H5 H 0.935449 -0.378614 0.162233
H6 H 0.910565 -0.266597 0.236560
H7 H 1.005222 -0.243609 0.205578
C7 C 0.97043(18) -0.2955(3) 0.0084(2)
H8 H 0.944275 -0.396227 0.018503
H9 H 1.031572 -0.284338 0.048806
H10 H 0.975995 -0.288777 -0.054110
C8 C 0.87330(17) -0.0639(3) -0.13273(17)
C9 C 0.8127(2) 0.0598(4) -0.28012(18)
H11 H 0.864004 0.001246 -0.295607
H12 H 0.816351 0.168255 -0.299939
C10 C 0.7227(3) -0.0091(5) -0.3282(2)
H13 H 0.715172 0.003599 -0.393194
H14 H 0.672059 0.043487 -0.309246
H15 H 0.721831 -0.119510 -0.313761
C11 C 0.69665(14) 0.0371(3) -0.04880(14)
C12 C 0.65946(16) -0.1139(3) -0.05091(16)
H16 H 0.699468 -0.198594 -0.030719
C13 C 0.56345(17) -0.1410(3) -0.08266(17)
H17 H 0.540071 -0.243300 -0.082950
C14 C 0.50286(16) -0.0184(3) -0.11358(17)
H18 H 0.438654 -0.035819 -0.135579
C15 C 0.54034(16) 0.1307(3) -0.11089(16)
C16 C 0.63485(15) 0.1609(3) -0.07908(15)
H19 H 0.657310 0.263882 -0.077857
C17 C 0.76651(15) 0.2226(3) 0.11812(16)
C18 C 0.7214(2) 0.4906(3) 0.1077(2)
H20 H 0.656516 0.462069 0.085004
H21 H 0.734183 0.587065 0.079091
H22 H 0.734051 0.505138 0.172910
loop_
_geom_bond_atom_site_label_1
_geom_bond_atom_site_label_2
_geom_bond_site_symmetry_1
_geom_bond_site_symmetry_2
O1 C8 1_555 1_555
O2 C8 1_555 1_555
O3 N2 1_555 1_555
O4 N2 1_555 1_555
O5 C17 1_555 1_555
O6 C17 1_555 1_555
N1 C1 1_555 1_555
N2 C15 1_555 1_555
C1 C2 1_555 1_555
C2 C3 1_555 1_555
C3 H1 1_555 1_555
C4 C3 1_555 1_555
H2 C4 1_555 1_555
C5 N1 1_555 1_555
H3 C5 1_555 1_555
H4 C5 1_555 1_555
C6 N1 1_555 1_555
H5 C6 1_555 1_555
H6 C6 1_555 1_555
H7 C6 1_555 1_555
C7 C1 1_555 1_555
H8 C7 1_555 1_555
H9 C7 1_555 1_555
H10 C7 1_555 1_555
C8 C2 1_555 1_555
C9 O2 1_555 1_555
H11 C9 1_555 1_555
H12 C9 1_555 1_555
C10 C9 1_555 1_555
H13 C10 1_555 1_555
H14 C10 1_555 1_555
H15 C10 1_555 1_555
C11 C3 1_555 1_555
C12 C11 1_555 1_555
H16 C12 1_555 1_555
C13 C12 1_555 1_555
H17 C13 1_555 1_555
C14 C13 1_555 1_555
H18 C14 1_555 1_555
C15 C14 1_555 1_555
C16 C11 1_555 1_555
H19 C16 1_555 1_555
C17 C4 1_555 1_555
C18 O5 1_555 1_555
H20 C18 1_555 1_555
H21 C18 1_555 1_555
H22 C18 1_555 1_555
C4 C5 1_555 1_555
C15 C16 1_555 1_555

#END
