
#######################################################################
#
#                 Cambridge Crystallographic Data Centre
#                                CCDC 
#
#######################################################################
#
# If this CIF has been generated from an entry in the Cambridge 
# Structural Database, then it will include bibliographic, chemical, 
# crystal, experimental, refinement or atomic coordinate data resulting 
# from the CCDC's data processing and validation procedures.
#
#######################################################################

data_VEPGIH
_chemical_compound_source        'stem stele of kenaf, Hibiscus cannabinus'
_chemical_name_common            o-hibiscanone
_chemical_formula_moiety         'C12 H10 O2'
_chemical_name_systematic        3,8-dimethyl-1,2-naphthoquinone
_chemical_properties_biological  
'Activity against Verticillium dahliae and Fusarium oxysporum f. sp. vasinfectum'
_symmetry_cell_setting           monoclinic
_symmetry_space_group_name_H-M   'P 21/n'
_symmetry_Int_Tables_number      14
_space_group_name_Hall           '-P 2yn'
loop_
_symmetry_equiv_pos_site_id
_symmetry_equiv_pos_as_xyz
1 x,y,z
2 1/2-x,1/2+y,1/2-z
3 -x,-y,-z
4 1/2+x,1/2-y,1/2+z
_cell_length_a                   9.065(4)
_cell_length_b                   10.897(6)
_cell_length_c                   18.802(9)
_cell_angle_alpha                90
_cell_angle_beta                 90.36(4)
_cell_angle_gamma                90
_cell_volume                     1857.25
_exptl_crystal_colour            red
_exptl_crystal_description       plate
_chemical_melting_point          '145-146 deg.C'
_cell_formula_units_Z            8
_exptl_crystal_recrystallization_method acetone/hexane
loop_
_atom_site_label
_atom_site_type_symbol
_atom_site_fract_x
_atom_site_fract_y
_atom_site_fract_z
O1 O 0.1833(4) 0.4502(3) 0.5189(2)
O2 O 0.0612(4) 0.3973(3) 0.3925(2)
C1 C 0.1062(5) 0.3589(5) 0.5153(2)
C2 C 0.0317(5) 0.3314(5) 0.4429(2)
C3 C -0.0723(5) 0.2288(5) 0.4379(2)
C4 C -0.0900(5) 0.1568(5) 0.4948(2)
C5 C -0.0166(5) 0.1743(5) 0.5633(2)
C6 C -0.0440(5) 0.0910(5) 0.6182(2)
C7 C 0.0217(6) 0.1074(5) 0.6841(2)
C8 C 0.1170(6) 0.2061(5) 0.6958(3)
C9 C 0.1472(5) 0.2899(5) 0.6426(3)
C10 C 0.0796(5) 0.2739(5) 0.5757(2)
C11 C -0.1476(6) 0.2102(5) 0.3675(2)
C12 C 0.2512(6) 0.3947(5) 0.6599(3)
H1 H -0.1548 0.0875 0.4901
H2 H -0.1111 0.0237 0.6115
H3 H 0.0057 0.0461 0.7199
H4 H 0.1566 0.2181 0.7427
H5 H -0.2154 0.1427 0.3699
H6 H -0.1995 0.2830 0.3532
H7 H -0.0719 0.1922 0.3336
H8 H 0.2863 0.3908 0.7081
H9 H 0.3335 0.3915 0.6281
H10 H 0.1982 0.4700 0.6527
O3 O -0.6222(4) 0.0135(3) 0.5662(2)
O4 O -0.7046(4) 0.1236(3) 0.4438(2)
C13 C -0.5679(5) 0.1133(5) 0.5526(3)
C14 C -0.6065(5) 0.1708(5) 0.4794(2)
C15 C -0.5217(5) 0.2769(5) 0.4547(2)
C16 C -0.4268(5) 0.3294(5) 0.5008(3)
C17 C -0.3996(5) 0.2874(5) 0.5738(2)
C18 C -0.3069(5) 0.3570(5) 0.6178(3)
C19 C -0.2863(6) 0.3228(6) 0.6878(3)
C20 C -0.3547(6) 0.2197(5) 0.7153(3)
C21 C -0.4469(5) 0.1473(5) 0.6726(2)
C22 C -0.4719(5) 0.1820(5) 0.6014(2)
C23 C -0.5517(6) 0.3241(5) 0.3812(3)
C24 C -0.5163(6) 0.0354(5) 0.7057(2)
H11 H -0.3744 0.3987 0.4820
H12 H -0.2583 0.4284 0.5994
H13 H -0.2196 0.3702 0.7166
H14 H -0.3429 0.2006 0.7649
H15 H -0.4924 0.3945 0.3702
H16 H -0.5322 0.2600 0.3475
H17 H -0.6541 0.3462 0.3789
H18 H -0.5744 -0.0058 0.6702
H19 H -0.4388 -0.0180 0.7218
H20 H -0.5779 0.0571 0.7451
loop_
_geom_bond_atom_site_label_1
_geom_bond_atom_site_label_2
_geom_bond_site_symmetry_1
_geom_bond_site_symmetry_2
O1 C1 1_555 1_555
O2 C2 1_555 1_555
C1 C2 1_555 1_555
C2 C3 1_555 1_555
C3 C4 1_555 1_555
C4 C5 1_555 1_555
C5 C6 1_555 1_555
C6 C7 1_555 1_555
C7 C8 1_555 1_555
C8 C9 1_555 1_555
C9 C10 1_555 1_555
C10 C1 1_555 1_555
C11 C3 1_555 1_555
C12 C9 1_555 1_555
O3 C13 1_555 1_555
O4 C14 1_555 1_555
C13 C14 1_555 1_555
C14 C15 1_555 1_555
C15 C16 1_555 1_555
C16 C17 1_555 1_555
C17 C18 1_555 1_555
C18 C19 1_555 1_555
C19 C20 1_555 1_555
C20 C21 1_555 1_555
C21 C22 1_555 1_555
C22 C13 1_555 1_555
C23 C15 1_555 1_555
C24 C21 1_555 1_555
H1 C4 1_555 1_555
H2 C6 1_555 1_555
H3 C7 1_555 1_555
H4 C8 1_555 1_555
H5 C11 1_555 1_555
H6 C11 1_555 1_555
H7 C11 1_555 1_555
H8 C12 1_555 1_555
H9 C12 1_555 1_555
H10 C12 1_555 1_555
H11 C16 1_555 1_555
H12 C18 1_555 1_555
H13 C19 1_555 1_555
H14 C20 1_555 1_555
H15 C23 1_555 1_555
H16 C23 1_555 1_555
H17 C23 1_555 1_555
H18 C24 1_555 1_555
H19 C24 1_555 1_555
H20 C24 1_555 1_555
C5 C10 1_555 1_555
C17 C22 1_555 1_555

#END
