
#######################################################################
#
#                 Cambridge Crystallographic Data Centre
#                                CCDC 
#
#######################################################################
#
# If this CIF has been generated from an entry in the Cambridge 
# Structural Database, then it will include bibliographic, chemical, 
# crystal, experimental, refinement or atomic coordinate data resulting 
# from the CCDC's data processing and validation procedures.
#
#######################################################################

data_VEPLOS
_chemical_formula_moiety         'C16 H24 Cl1 N1 O7'
_chemical_name_systematic        
'Ethyl anti-anti-anti-5-acetoxy-6-t-butoxycarbonylamino-3-chloro-4-hydroxy-1-cyclohexene-1-carboxylate'
_symmetry_cell_setting           monoclinic
_symmetry_space_group_name_H-M   'P 21/c'
_symmetry_Int_Tables_number      14
_space_group_name_Hall           '-P 2ybc'
loop_
_symmetry_equiv_pos_site_id
_symmetry_equiv_pos_as_xyz
1 x,y,z
2 -x,1/2+y,1/2-z
3 -x,-y,-z
4 x,1/2-y,1/2+z
_cell_length_a                   9.902(1)
_cell_length_b                   8.788(1)
_cell_length_c                   22.520(3)
_cell_angle_alpha                90
_cell_angle_beta                 96.14(1)
_cell_angle_gamma                90
_cell_volume                     1948.42
_exptl_crystal_colour            colorless
_exptl_crystal_description       prism
_chemical_melting_point          '431-433 K'
_cell_formula_units_Z            4
loop_
_atom_site_label
_atom_site_type_symbol
_atom_site_fract_x
_atom_site_fract_y
_atom_site_fract_z
Cl1 Cl 0.25890(4) 0.46121(5) 0.316312(16)
O1 O 0.44291(10) 0.69391(11) 0.51782(4)
O2 O 0.34773(13) 0.92373(13) 0.52808(6)
O3 O 0.41133(12) 0.72153(12) 0.39408(5)
H1 H 0.481(2) 0.690(2) 0.3832(9)
O4 O -0.01286(11) 0.23450(12) 0.48153(5)
O5 O 0.16040(11) 0.23450(12) 0.55437(5)
O6 O 0.36777(11) 0.43575(12) 0.63918(5)
O7 O 0.19180(11) 0.57785(12) 0.66610(4)
N1 N 0.21692(13) 0.55529(14) 0.57083(5)
H2 H 0.1510(19) 0.617(2) 0.5671(8)
C1 C 0.16893(14) 0.41218(15) 0.47764(6)
C2 C 0.14534(15) 0.43378(17) 0.41889(6)
H3 H 0.0826(17) 0.3759(19) 0.3955(7)
C3 C 0.22225(15) 0.54625(17) 0.38570(6)
H4 H 0.1667(16) 0.6338(18) 0.3751(7)
C4 C 0.35448(15) 0.59562(16) 0.42124(6)
H5 H 0.4163(15) 0.5097(17) 0.4243(6)
C5 C 0.32147(14) 0.63901(16) 0.48361(6)
H6 H 0.2536(15) 0.7177(17) 0.4814(6)
C6 C 0.27240(15) 0.50250(16) 0.51739(6)
H7 H 0.3469(16) 0.4381(17) 0.5296(7)
C7 C 0.44101(16) 0.83871(17) 0.53921(7)
C8 C 0.5689(2) 0.8714(2) 0.57846(10)
H8 H 0.573(2) 0.976(2) 0.5892(9)
H9 H 0.645(3) 0.852(3) 0.5572(11)
H10 H 0.575(3) 0.804(3) 0.6146(12)
C9 C 0.09419(15) 0.28586(16) 0.50412(7)
C10 C 0.10081(19) 0.10246(19) 0.58139(8)
H11 H 0.0994(18) 0.020(2) 0.5523(8)
H12 H 0.0065(19) 0.132(2) 0.5856(8)
C11 C 0.1883(3) 0.0685(2) 0.63845(9)
H13 H 0.286(3) 0.048(3) 0.6313(12)
H14 H 0.149(2) -0.019(3) 0.6550(10)
H15 H 0.185(2) 0.149(3) 0.6660(11)
C12 C 0.26842(15) 0.51571(16) 0.62642(6)
C13 C 0.23932(17) 0.57709(19) 0.73041(6)
C14 C 0.2467(3) 0.4157(2) 0.75419(9)
H16 H 0.155(2) 0.364(3) 0.7419(10)
H17 H 0.258(2) 0.417(3) 0.7962(12)
H18 H 0.323(2) 0.361(3) 0.7400(10)
C15 C 0.3728(2) 0.6618(3) 0.74077(9)
H19 H 0.444(2) 0.604(2) 0.7268(9)
H20 H 0.398(2) 0.680(3) 0.7825(11)
H21 H 0.364(2) 0.766(3) 0.7211(11)
C16 C 0.1264(2) 0.6635(2) 0.75628(8)
H22 H 0.121(2) 0.769(3) 0.7416(9)
H23 H 0.1483(19) 0.671(2) 0.8004(9)
H24 H 0.041(2) 0.611(3) 0.7482(10)
loop_
_geom_bond_atom_site_label_1
_geom_bond_atom_site_label_2
_geom_bond_site_symmetry_1
_geom_bond_site_symmetry_2
Cl1 C3 1_555 1_555
O1 C5 1_555 1_555
O2 C7 1_555 1_555
O3 H1 1_555 1_555
O4 C9 1_555 1_555
O5 C9 1_555 1_555
O6 C12 1_555 1_555
O7 C12 1_555 1_555
N1 H2 1_555 1_555
C1 C2 1_555 1_555
C2 H3 1_555 1_555
C3 C2 1_555 1_555
H4 C3 1_555 1_555
C4 O3 1_555 1_555
H5 C4 1_555 1_555
C5 C4 1_555 1_555
H6 C5 1_555 1_555
C6 N1 1_555 1_555
H7 C6 1_555 1_555
C7 O1 1_555 1_555
C8 C7 1_555 1_555
H8 C8 1_555 1_555
H9 C8 1_555 1_555
H10 C8 1_555 1_555
C9 C1 1_555 1_555
C10 O5 1_555 1_555
H11 C10 1_555 1_555
H12 C10 1_555 1_555
C11 C10 1_555 1_555
H13 C11 1_555 1_555
H14 C11 1_555 1_555
H15 C11 1_555 1_555
C12 N1 1_555 1_555
C13 O7 1_555 1_555
C14 C13 1_555 1_555
H16 C14 1_555 1_555
H17 C14 1_555 1_555
H18 C14 1_555 1_555
C15 C13 1_555 1_555
H19 C15 1_555 1_555
H20 C15 1_555 1_555
H21 C15 1_555 1_555
C16 C13 1_555 1_555
H22 C16 1_555 1_555
H23 C16 1_555 1_555
H24 C16 1_555 1_555
C1 C6 1_555 1_555
C3 C4 1_555 1_555
C5 C6 1_555 1_555

#END
