
#######################################################################
#
#                 Cambridge Crystallographic Data Centre
#                                CCDC 
#
#######################################################################
#
# If this CIF has been generated from an entry in the Cambridge 
# Structural Database, then it will include bibliographic, chemical, 
# crystal, experimental, refinement or atomic coordinate data resulting 
# from the CCDC's data processing and validation procedures.
#
#######################################################################

data_VEPLAG
_chemical_formula_moiety         'C21 H20 F1 N1 O4'
_chemical_name_systematic        
2-fluoro-6-(6-methoxy-2,2-dimethyltetrahydrofuro[2,3-d][1,3]dioxol-5-yl)phenanthridine
_symmetry_cell_setting           monoclinic
_symmetry_space_group_name_H-M   'P 21'
_symmetry_Int_Tables_number      4
_space_group_name_Hall           'P 2yb'
loop_
_symmetry_equiv_pos_site_id
_symmetry_equiv_pos_as_xyz
1 x,y,z
2 -x,1/2+y,-z
_cell_length_a                   12.8117(6)
_cell_length_b                   5.5768(3)
_cell_length_c                   12.9121(6)
_cell_angle_alpha                90
_cell_angle_beta                 103.001(2)
_cell_angle_gamma                90
_cell_volume                     898.899
_cell_formula_units_Z            2
loop_
_atom_site_label
_atom_site_type_symbol
_atom_site_fract_x
_atom_site_fract_y
_atom_site_fract_z
F1 F -0.31835(9) 0.4235(3) 0.85424(11)
O1 O 0.27679(10) 0.6974(2) 0.68602(10)
O2 O 0.41916(13) 0.5579(3) 0.62014(12)
O3 O 0.38939(11) 0.2486(2) 0.72645(11)
O4 O 0.35593(11) 0.5770(3) 0.95597(10)
N1 N 0.10195(11) 0.5272(3) 0.83887(11)
C1 C -0.19042(17) 0.6307(4) 0.78701(17)
H1 H -0.2443 0.7288 0.7489
C2 C -0.21404(16) 0.4537(5) 0.84963(17)
C3 C -0.13938(18) 0.3012(4) 0.90925(16)
H2 H -0.1592 0.1828 0.9518
C4 C -0.03501(17) 0.3311(4) 0.90335(16)
H3 H 0.0173 0.2303 0.9422
C5 C -0.00555(15) 0.5114(3) 0.83967(14)
C6 C 0.13331(14) 0.6919(3) 0.78163(14)
C7 C 0.06201(15) 0.8649(3) 0.71870(15)
C8 C 0.09888(16) 1.0488(4) 0.66199(15)
H4 H 0.1717 1.0620 0.6643
C9 C 0.02891(18) 1.2091(4) 0.60331(16)
H5 H 0.0542 1.3306 0.5661
C10 C -0.08020(18) 1.1901(4) 0.59938(17)
H6 H -0.1278 1.2968 0.5580
C11 C -0.11789(16) 1.0166(4) 0.65564(16)
H7 H -0.1909 1.0085 0.6532
C12 C -0.04852(15) 0.8498(4) 0.71722(14)
C13 C -0.08296(15) 0.6649(4) 0.78008(15)
C14 C 0.38953(17) 0.6531(4) 0.70778(17)
H8 H 0.4307 0.7977 0.7335
C15 C 0.40714(15) 0.4588(4) 0.79092(15)
H9 H 0.4789 0.4638 0.8377
C16 C 0.31814(14) 0.4977(3) 0.85054(14)
H10 H 0.2744 0.3529 0.8484
C17 C 0.25242(14) 0.7024(4) 0.78938(14)
H11 H 0.2794 0.8537 0.8239
C18 C 0.41679(17) 0.2991(4) 0.62735(16)
C19 C 0.52689(16) 0.2071(4) 0.62591(17)
H12 H 0.5782 0.2751 0.6843
H13 H 0.5448 0.2519 0.5603
H14 H 0.5279 0.0355 0.6322
C20 C 0.33182(18) 0.1990(5) 0.53951(17)
H15 H 0.3241 0.0304 0.5508
H16 H 0.3516 0.2235 0.4729
H17 H 0.2651 0.2786 0.5383
C21 C 0.3887(3) 0.3872(7) 1.0281(2)
H18 H 0.3322 0.2712 1.0206
H19 H 0.4049 0.4487 1.0994
H20 H 0.4514 0.3127 1.0135
loop_
_geom_bond_atom_site_label_1
_geom_bond_atom_site_label_2
_geom_bond_site_symmetry_1
_geom_bond_site_symmetry_2
F1 C2 1_555 1_555
O1 C14 1_555 1_555
O2 C14 1_555 1_555
O3 C15 1_555 1_555
O4 C16 1_555 1_555
N1 C5 1_555 1_555
C1 H1 1_555 1_555
C2 C1 1_555 1_555
C3 C2 1_555 1_555
H2 C3 1_555 1_555
C4 C3 1_555 1_555
H3 C4 1_555 1_555
C5 C4 1_555 1_555
C6 N1 1_555 1_555
C7 C6 1_555 1_555
C8 C7 1_555 1_555
H4 C8 1_555 1_555
C9 C8 1_555 1_555
H5 C9 1_555 1_555
C10 C9 1_555 1_555
H6 C10 1_555 1_555
C11 C10 1_555 1_555
H7 C11 1_555 1_555
C12 C7 1_555 1_555
C13 C1 1_555 1_555
C14 H8 1_555 1_555
C15 C14 1_555 1_555
H9 C15 1_555 1_555
C16 C15 1_555 1_555
H10 C16 1_555 1_555
C17 O1 1_555 1_555
H11 C17 1_555 1_555
C18 O2 1_555 1_555
C19 C18 1_555 1_555
H12 C19 1_555 1_555
H13 C19 1_555 1_555
H14 C19 1_555 1_555
C20 C18 1_555 1_555
H15 C20 1_555 1_555
H16 C20 1_555 1_555
H17 C20 1_555 1_555
C21 O4 1_555 1_555
H18 C21 1_555 1_555
H19 C21 1_555 1_555
H20 C21 1_555 1_555
O3 C18 1_555 1_555
C5 C13 1_555 1_555
C6 C17 1_555 1_555
C11 C12 1_555 1_555
C12 C13 1_555 1_555
C16 C17 1_555 1_555

#END
