
#######################################################################
#
#                 Cambridge Crystallographic Data Centre
#                                CCDC 
#
#######################################################################
#
# If this CIF has been generated from an entry in the Cambridge 
# Structural Database, then it will include bibliographic, chemical, 
# crystal, experimental, refinement or atomic coordinate data resulting 
# from the CCDC's data processing and validation procedures.
#
#######################################################################

data_VEPNEM
_chemical_formula_moiety         'C27 H37 N4 O4 P1,C1 H2 Cl2'
_chemical_name_systematic        
'2-({[2-(furan-2-yl)-4-methyl-5-oxo-4,5-dihydro-1,3-oxazol-4-yl](phenyl)methyl}amino)-1,3-bis(propan-2-yl)octahydro-1H-1,3,2\l^5^-benzodiazaphosphol-2-one dichloromethane solvate'
_symmetry_cell_setting           orthorhombic
_symmetry_space_group_name_H-M   'P 21 21 21'
_symmetry_Int_Tables_number      19
_space_group_name_Hall           'P 2ac 2ab'
loop_
_symmetry_equiv_pos_site_id
_symmetry_equiv_pos_as_xyz
1 x,y,z
2 1/2-x,-y,1/2+z
3 -x,1/2+y,1/2-z
4 1/2+x,1/2-y,-z
_cell_length_a                   10.4345(9)
_cell_length_b                   17.0184(14)
_cell_length_c                   17.4029(15)
_cell_angle_alpha                90
_cell_angle_beta                 90
_cell_angle_gamma                90
_cell_volume                     3090.38
_cell_formula_units_Z            4
loop_
_atom_site_label
_atom_site_type_symbol
_atom_site_fract_x
_atom_site_fract_y
_atom_site_fract_z
P1 P 0.41784(9) 0.52702(6) 0.61649(6)
N1 N 0.5024(3) 0.50100(17) 0.54115(15)
N2 N 0.3246(2) 0.44912(15) 0.61425(16)
N3 N 0.4941(2) 0.51801(16) 0.69849(14)
H1 H 0.5080 0.4710 0.7147
N4 N 0.5342(3) 0.48933(18) 0.85955(16)
O1 O 0.3672(2) 0.60814(13) 0.61260(13)
O2 O 0.3172(2) 0.49761(16) 0.87049(15)
O3 O 0.2749(2) 0.61190(17) 0.81139(15)
O4 O 0.5158(3) 0.33295(19) 0.92285(17)
C1 C 0.4839(3) 0.4174(2) 0.5240(2)
H2 H 0.5358 0.3866 0.5600
C2 C 0.3418(3) 0.4040(2) 0.5433(2)
H3 H 0.2892 0.4277 0.5028
C3 C 0.3150(3) 0.3166(2) 0.5459(2)
H4 H 0.3683 0.2919 0.5847
H5 H 0.2259 0.3075 0.5592
C4 C 0.3435(4) 0.2815(2) 0.4681(2)
H6 H 0.2827 0.3018 0.4309
H7 H 0.3327 0.2250 0.4706
C5 C 0.4788(4) 0.3002(2) 0.4414(2)
H8 H 0.4896 0.2813 0.3892
H9 H 0.5393 0.2723 0.4737
C6 C 0.5096(3) 0.3875(2) 0.4438(2)
H10 H 0.5988 0.3960 0.4304
H11 H 0.4567 0.4156 0.4071
C7 C 0.6259(4) 0.5412(2) 0.5261(2)
H12 H 0.6272 0.5876 0.5595
C8 C 0.7432(4) 0.4914(3) 0.5490(2)
H13 H 0.7347 0.4749 0.6015
H14 H 0.8197 0.5222 0.5435
H15 H 0.7484 0.4461 0.5164
C9 C 0.6359(4) 0.5717(2) 0.4442(2)
H16 H 0.6325 0.5283 0.4090
H17 H 0.7156 0.5992 0.4379
H18 H 0.5660 0.6068 0.4341
C10 C 0.2004(3) 0.4504(2) 0.6556(2)
H19 H 0.2006 0.4984 0.6866
C11 C 0.1892(4) 0.3831(2) 0.7115(2)
H20 H 0.1722 0.3354 0.6839
H21 H 0.1203 0.3932 0.7467
H22 H 0.2680 0.3778 0.7395
C12 C 0.0867(3) 0.4575(2) 0.6011(2)
H23 H 0.0979 0.5027 0.5688
H24 H 0.0092 0.4632 0.6304
H25 H 0.0813 0.4112 0.5699
C13 C 0.5403(3) 0.58211(19) 0.74627(19)
H26 H 0.4964 0.6298 0.7288
C14 C 0.6829(3) 0.5973(2) 0.7383(2)
C15 C 0.7240(4) 0.6674(2) 0.7068(2)
H27 H 0.6643 0.7051 0.6920
C16 C 0.8537(5) 0.6818(3) 0.6971(3)
H28 H 0.8801 0.7290 0.6753
C17 C 0.9427(4) 0.6281(3) 0.7188(3)
H29 H 1.0297 0.6380 0.7121
C18 C 0.9025(4) 0.5602(3) 0.7502(2)
H30 H 0.9632 0.5236 0.7662
C19 C 0.7731(4) 0.5428(2) 0.7597(2)
H31 H 0.7480 0.4948 0.7803
C20 C 0.3513(4) 0.5665(3) 0.8329(2)
C21 C 0.4971(4) 0.5676(2) 0.8302(2)
C22 C 0.5452(3) 0.6312(2) 0.88475(19)
H32 H 0.5180 0.6194 0.9361
H33 H 0.5108 0.6812 0.8695
H34 H 0.6371 0.6332 0.8829
C23 C 0.4321(4) 0.4565(2) 0.8818(2)
C24 C 0.4134(5) 0.3837(2) 0.9200(2)
C25 C 0.3140(5) 0.3531(3) 0.9575(3)
H35 H 0.2342 0.3765 0.9642
C26 C 0.3524(6) 0.2783(3) 0.9853(3)
H36 H 0.3032 0.2430 1.0135
C27 C 0.4731(6) 0.2692(3) 0.9626(3)
H37 H 0.5223 0.2248 0.9726
Cl1 Cl 0.57826(13) 0.31193(7) 0.72486(8)
Cl2 Cl 0.85073(13) 0.31555(9) 0.74982(11)
C28 C 0.7065(4) 0.2846(2) 0.7829(3)
H38 H 0.6932 0.3059 0.8340
H39 H 0.7079 0.2278 0.7871
loop_
_geom_bond_atom_site_label_1
_geom_bond_atom_site_label_2
_geom_bond_site_symmetry_1
_geom_bond_site_symmetry_2
P1 N1 1_555 1_555
N1 C1 1_555 1_555
N2 P1 1_555 1_555
N3 P1 1_555 1_555
H1 N3 1_555 1_555
N4 C21 1_555 1_555
O1 P1 1_555 1_555
O2 C20 1_555 1_555
O3 C20 1_555 1_555
O4 C24 1_555 1_555
C1 H2 1_555 1_555
C2 N2 1_555 1_555
H3 C2 1_555 1_555
C3 C2 1_555 1_555
H4 C3 1_555 1_555
H5 C3 1_555 1_555
C4 C3 1_555 1_555
H6 C4 1_555 1_555
H7 C4 1_555 1_555
C5 C4 1_555 1_555
H8 C5 1_555 1_555
H9 C5 1_555 1_555
C6 C1 1_555 1_555
H10 C6 1_555 1_555
H11 C6 1_555 1_555
C7 N1 1_555 1_555
H12 C7 1_555 1_555
C8 C7 1_555 1_555
H13 C8 1_555 1_555
H14 C8 1_555 1_555
H15 C8 1_555 1_555
C9 C7 1_555 1_555
H16 C9 1_555 1_555
H17 C9 1_555 1_555
H18 C9 1_555 1_555
C10 N2 1_555 1_555
H19 C10 1_555 1_555
C11 C10 1_555 1_555
H20 C11 1_555 1_555
H21 C11 1_555 1_555
H22 C11 1_555 1_555
C12 C10 1_555 1_555
H23 C12 1_555 1_555
H24 C12 1_555 1_555
H25 C12 1_555 1_555
C13 N3 1_555 1_555
H26 C13 1_555 1_555
C14 C13 1_555 1_555
C15 C14 1_555 1_555
H27 C15 1_555 1_555
C16 C15 1_555 1_555
H28 C16 1_555 1_555
C17 C16 1_555 1_555
H29 C17 1_555 1_555
C18 C17 1_555 1_555
H30 C18 1_555 1_555
C19 C14 1_555 1_555
H31 C19 1_555 1_555
C20 C21 1_555 1_555
C21 C13 1_555 1_555
C22 C21 1_555 1_555
H32 C22 1_555 1_555
H33 C22 1_555 1_555
H34 C22 1_555 1_555
C23 N4 1_555 1_555
C24 C23 1_555 1_555
C25 C24 1_555 1_555
H35 C25 1_555 1_555
C26 C25 1_555 1_555
H36 C26 1_555 1_555
C27 O4 1_555 1_555
H37 C27 1_555 1_555
Cl1 C28 1_555 1_555
Cl2 C28 1_555 1_555
C28 H38 1_555 1_555
H39 C28 1_555 1_555
O2 C23 1_555 1_555
C1 C2 1_555 1_555
C5 C6 1_555 1_555
C18 C19 1_555 1_555
C26 C27 1_555 1_555

#END
