
#######################################################################
#
#                 Cambridge Crystallographic Data Centre
#                                CCDC 
#
#######################################################################
#
# If this CIF has been generated from an entry in the Cambridge 
# Structural Database, then it will include bibliographic, chemical, 
# crystal, experimental, refinement or atomic coordinate data resulting 
# from the CCDC's data processing and validation procedures.
#
#######################################################################

data_VEPQUF
_chemical_name_common            
(6S)-3-nitro-6-([4-(trifluoromethoxy)benzyl]oxy)-6,7-dihydro-5H-imidazo[2,1-b][1,3]oxazine
_chemical_formula_moiety         'C14 H12 F3 N3 O5'
_chemical_name_systematic        
3-nitro-6-{[4-(trifluoromethoxy)phenyl]methoxy}-6,7-dihydro-5H-imidazo[2,1-b][1,3]oxazine
_chemical_properties_biological  
'potencies against nitroreductase mutant Mycobacterium tuberculosis, no antitubercular activity'
_symmetry_cell_setting           orthorhombic
_symmetry_space_group_name_H-M   'P 21 21 21'
_symmetry_Int_Tables_number      19
_space_group_name_Hall           'P 2ac 2ab'
loop_
_symmetry_equiv_pos_site_id
_symmetry_equiv_pos_as_xyz
1 x,y,z
2 1/2-x,-y,1/2+z
3 -x,1/2+y,1/2-z
4 1/2+x,1/2-y,-z
_cell_length_a                   5.11813(4)
_cell_length_b                   8.05988(7)
_cell_length_c                   35.4252(3)
_cell_angle_alpha                90
_cell_angle_beta                 90
_cell_angle_gamma                90
_cell_volume                     1461.34
_exptl_crystal_colour            colorless
_exptl_crystal_description       plate
_cell_formula_units_Z            4
_exptl_crystal_recrystallization_method Isopropanol
loop_
_atom_site_label
_atom_site_type_symbol
_atom_site_fract_x
_atom_site_fract_y
_atom_site_fract_z
O1 O 0.2968(2) 0.34426(14) 0.60890(3)
O2 O 0.2432(2) 0.24857(13) 0.53022(3)
F1 F 0.7535(3) 0.95072(15) 0.75193(3)
O3 O 0.7577(3) 0.99747(16) 0.68967(3)
O4 O 1.0094(2) -0.04977(16) 0.59506(3)
F2 F 0.4160(3) 1.05878(19) 0.72599(4)
F3 F 0.7728(4) 1.19798(15) 0.72998(4)
O5 O 0.9171(3) -0.28871(15) 0.56918(4)
N1 N 0.8761(3) -0.13883(17) 0.57419(4)
N2 N 0.5867(2) 0.09705(16) 0.55825(4)
N3 N 0.3182(3) -0.02971(17) 0.51725(4)
C1 C 0.6642(3) -0.06799(19) 0.55465(4)
C2 C 0.4980(3) -0.1415(2) 0.52962(5)
C3 C 0.3801(3) 0.10992(19) 0.53499(4)
C4 C 0.6660(3) 0.8385(2) 0.67864(4)
C5 C 0.4972(3) 0.3746(2) 0.58194(5)
C6 C 0.4552(4) 0.8293(2) 0.65434(5)
C7 C 0.4861(4) 0.5301(2) 0.65691(5)
C8 C 0.3650(4) 0.6735(2) 0.64354(5)
C9 C 0.3655(4) 0.4000(2) 0.54432(5)
C10 C 0.7032(4) 0.5447(2) 0.68028(5)
C11 C 0.7949(4) 0.6994(2) 0.69148(5)
C12 C 0.3808(4) 0.3599(2) 0.64726(5)
C13 C 0.6972(3) 0.2352(2) 0.58017(6)
C14 C 0.6749(5) 1.0485(2) 0.72378(5)
H1 H 0.378(4) 0.930(3) 0.6454(6)
H2 H 0.477(4) 0.437(3) 0.5264(6)
H3 H 0.501(5) 0.269(3) 0.6543(6)
H4 H 0.746(4) 0.194(3) 0.6054(6)
H5 H 0.223(5) 0.337(3) 0.6621(6)
H6 H 0.594(4) 0.476(3) 0.5883(6)
H7 H 0.500(5) -0.255(3) 0.5207(6)
H8 H 0.793(5) 0.451(3) 0.6894(6)
H9 H 0.215(5) 0.671(3) 0.6264(6)
H10 H 0.217(4) 0.479(3) 0.5460(6)
H11 H 0.848(5) 0.272(3) 0.5685(7)
H12 H 0.946(5) 0.713(3) 0.7081(7)
loop_
_geom_bond_atom_site_label_1
_geom_bond_atom_site_label_2
_geom_bond_site_symmetry_1
_geom_bond_site_symmetry_2
O1 C5 1_555 1_555
O2 C3 1_555 1_555
F1 C14 1_555 1_555
O3 C4 1_555 1_555
O4 N1 1_555 1_555
F2 C14 1_555 1_555
F3 C14 1_555 1_555
O5 N1 1_555 1_555
N1 C1 1_555 1_555
N2 C1 1_555 1_555
N3 C2 1_555 1_555
C1 C2 1_555 1_555
C2 H7 1_555 1_555
C3 N2 1_555 1_555
C4 C6 1_555 1_555
C5 C9 1_555 1_555
C6 C8 1_555 1_555
C7 C8 1_555 1_555
C8 H9 1_555 1_555
C9 O2 1_555 1_555
C10 C7 1_555 1_555
C11 C4 1_555 1_555
C12 O1 1_555 1_555
C13 N2 1_555 1_555
C14 O3 1_555 1_555
H1 C6 1_555 1_555
H2 C9 1_555 1_555
H3 C12 1_555 1_555
H4 C13 1_555 1_555
H5 C12 1_555 1_555
H6 C5 1_555 1_555
H8 C10 1_555 1_555
H10 C9 1_555 1_555
H11 C13 1_555 1_555
H12 C11 1_555 1_555
N3 C3 1_555 1_555
C5 C13 1_555 1_555
C7 C12 1_555 1_555
C10 C11 1_555 1_555

#END
