
#######################################################################
#
#                 Cambridge Crystallographic Data Centre
#                                CCDC 
#
#######################################################################
#
# If this CIF has been generated from an entry in the Cambridge 
# Structural Database, then it will include bibliographic, chemical, 
# crystal, experimental, refinement or atomic coordinate data resulting 
# from the CCDC's data processing and validation procedures.
#
#######################################################################

data_VEPVOC
_chemical_formula_moiety         'C19 H27 N1 O4'
_chemical_name_systematic        
"t-Butyl (2S,1'R)-2-(p-methoxyphenylamino)-2-(2'-oxocyclohexyl)acetate"
_symmetry_cell_setting           orthorhombic
_symmetry_space_group_name_H-M   'P 21 21 21'
_symmetry_Int_Tables_number      19
_space_group_name_Hall           'P 2ac 2ab'
loop_
_symmetry_equiv_pos_site_id
_symmetry_equiv_pos_as_xyz
1 x,y,z
2 1/2-x,-y,1/2+z
3 -x,1/2+y,1/2-z
4 1/2+x,1/2-y,-z
_cell_length_a                   8.5930(17)
_cell_length_b                   12.377(3)
_cell_length_c                   17.909(4)
_cell_angle_alpha                90
_cell_angle_beta                 90
_cell_angle_gamma                90
_cell_volume                     1904.72
_exptl_crystal_colour            colorless
_exptl_crystal_description       parallelepiped
_cell_formula_units_Z            4
loop_
_atom_site_label
_atom_site_type_symbol
_atom_site_fract_x
_atom_site_fract_y
_atom_site_fract_z
O1 O 0.8164(2) 0.94761(14) 0.82476(9)
O2 O 0.6428(2) 0.73573(16) 0.76055(10)
O3 O 0.48826(17) 0.82671(13) 0.84032(7)
O4 O 1.0480(2) 0.28912(14) 0.93272(10)
N1 N 0.86860(19) 0.71040(14) 0.86480(9)
H1 H 0.9335 0.7503 0.8408
C1 C 0.7964(2) 0.95386(18) 0.89148(12)
C2 C 0.8261(3) 1.0543(2) 0.93453(14)
H2 H 0.7283 1.0832 0.9528
H3 H 0.8731 1.1080 0.9021
C3 C 0.9343(3) 1.0318(2) 1.00042(15)
H4 H 1.0363 1.0117 0.9818
H5 H 0.9457 1.0969 1.0300
C4 C 0.8719(3) 0.9424(2) 1.04894(13)
H6 H 0.7742 0.9650 1.0711
H7 H 0.9449 0.9279 1.0890
C5 C 0.8462(3) 0.84015(19) 1.00414(12)
H8 H 0.8001 0.7857 1.0362
H9 H 0.9460 0.8130 0.9872
C6 C 0.7402(2) 0.85779(16) 0.93630(11)
H10 H 0.6368 0.8762 0.9555
C7 C 0.7216(2) 0.75608(17) 0.88860(11)
H11 H 0.6716 0.7018 0.9204
C8 C 0.6151(2) 0.77180(19) 0.82084(13)
C9 C 0.3681(3) 0.8560(2) 0.78430(12)
C10 C 0.4365(4) 0.9258(3) 0.72475(16)
H12 H 0.5097 0.8845 0.6960
H13 H 0.4888 0.9861 0.7473
H14 H 0.3551 0.9517 0.6927
C11 C 0.2538(4) 0.9192(4) 0.83078(17)
H15 H 0.3057 0.9799 0.8530
H16 H 0.2125 0.8736 0.8693
H17 H 0.1705 0.9444 0.7996
C12 C 0.2943(4) 0.7563(3) 0.7542(2)
H18 H 0.2634 0.7105 0.7949
H19 H 0.3674 0.7186 0.7232
H20 H 0.2045 0.7755 0.7253
C13 C 0.9075(2) 0.60256(17) 0.87995(11)
C14 C 0.9934(2) 0.54310(17) 0.82925(10)
H21 H 1.0192 0.5742 0.7836
C15 C 1.0421(2) 0.43880(18) 0.84425(11)
H22 H 1.1004 0.4010 0.8092
C16 C 1.0040(3) 0.39127(18) 0.91117(12)
C17 C 0.9178(3) 0.4494(2) 0.96212(13)
H23 H 0.8914 0.4177 1.0075
C18 C 0.8701(3) 0.55332(18) 0.94741(12)
H24 H 0.8124 0.5909 0.9828
C19 C 1.1565(4) 0.2352(2) 0.88795(19)
H25 H 1.2440 0.2816 0.8789
H26 H 1.1090 0.2162 0.8413
H27 H 1.1909 0.1709 0.9129
loop_
_geom_bond_atom_site_label_1
_geom_bond_atom_site_label_2
_geom_bond_site_symmetry_1
_geom_bond_site_symmetry_2
O1 C1 1_555 1_555
O2 C8 1_555 1_555
O3 C8 1_555 1_555
O4 C16 1_555 1_555
N1 H1 1_555 1_555
C1 C2 1_555 1_555
C2 H2 1_555 1_555
H3 C2 1_555 1_555
C3 C2 1_555 1_555
H4 C3 1_555 1_555
H5 C3 1_555 1_555
C4 C3 1_555 1_555
H6 C4 1_555 1_555
H7 C4 1_555 1_555
C5 C4 1_555 1_555
H8 C5 1_555 1_555
H9 C5 1_555 1_555
C6 C1 1_555 1_555
H10 C6 1_555 1_555
C7 N1 1_555 1_555
H11 C7 1_555 1_555
C8 C7 1_555 1_555
C9 O3 1_555 1_555
C10 C9 1_555 1_555
H12 C10 1_555 1_555
H13 C10 1_555 1_555
H14 C10 1_555 1_555
C11 C9 1_555 1_555
H15 C11 1_555 1_555
H16 C11 1_555 1_555
H17 C11 1_555 1_555
C12 C9 1_555 1_555
H18 C12 1_555 1_555
H19 C12 1_555 1_555
H20 C12 1_555 1_555
C13 N1 1_555 1_555
C14 C13 1_555 1_555
H21 C14 1_555 1_555
C15 C14 1_555 1_555
H22 C15 1_555 1_555
C16 C15 1_555 1_555
C17 C16 1_555 1_555
H23 C17 1_555 1_555
C18 C13 1_555 1_555
H24 C18 1_555 1_555
C19 O4 1_555 1_555
H25 C19 1_555 1_555
H26 C19 1_555 1_555
H27 C19 1_555 1_555
C5 C6 1_555 1_555
C6 C7 1_555 1_555
C17 C18 1_555 1_555

#END
