
#######################################################################
#
#                 Cambridge Crystallographic Data Centre
#                                CCDC 
#
#######################################################################
#
# If this CIF has been generated from an entry in the Cambridge 
# Structural Database, then it will include bibliographic, chemical, 
# crystal, experimental, refinement or atomic coordinate data resulting 
# from the CCDC's data processing and validation procedures.
#
#######################################################################

data_VEPVUI
_chemical_formula_moiety         'C15 H21 N1 O4'
_chemical_name_systematic        
'Ethyl (2S,3R)-anti-2-(p-methoxyphenylamino)-3-methyl-4-oxopentanoate'
_symmetry_cell_setting           orthorhombic
_symmetry_space_group_name_H-M   'P 21 21 21'
_symmetry_Int_Tables_number      19
_space_group_name_Hall           'P 2ac 2ab'
loop_
_symmetry_equiv_pos_site_id
_symmetry_equiv_pos_as_xyz
1 x,y,z
2 1/2-x,-y,1/2+z
3 -x,1/2+y,1/2-z
4 1/2+x,1/2-y,-z
_cell_length_a                   5.3458(11)
_cell_length_b                   15.312(3)
_cell_length_c                   18.622(4)
_cell_angle_alpha                90
_cell_angle_beta                 90
_cell_angle_gamma                90
_cell_volume                     1524.3
_exptl_crystal_colour            colorless
_exptl_crystal_description       parallelepiped
_cell_formula_units_Z            4
loop_
_atom_site_label
_atom_site_type_symbol
_atom_site_fract_x
_atom_site_fract_y
_atom_site_fract_z
O1 O -0.0779(4) 0.05087(13) 0.73398(13)
O2 O 0.6087(5) 0.24506(17) 0.85059(15)
O3 O 0.2317(4) 0.30403(16) 0.85044(12)
O4 O 0.5611(5) 0.43125(14) 0.50891(11)
N1 N 0.4488(4) 0.16971(14) 0.71486(12)
H1 H 0.5236 0.1207 0.7080
C1 C 0.2374(7) -0.05483(19) 0.74411(19)
H2 H 0.1291 -0.0880 0.7134
H3 H 0.2636 -0.0861 0.7882
H4 H 0.3951 -0.0459 0.7206
C2 C 0.1211(5) 0.03070(17) 0.75982(14)
C3 C 0.2551(5) 0.09105(17) 0.81226(15)
H5 H 0.4204 0.0665 0.8228
C4 C 0.1048(7) 0.0958(2) 0.88207(16)
H6 H 0.0838 0.0380 0.9012
H7 H -0.0563 0.1209 0.8726
H8 H 0.1926 0.1313 0.9163
C5 C 0.2897(5) 0.18092(16) 0.77686(14)
H9 H 0.1261 0.2023 0.7609
C6 C 0.3980(5) 0.24535(18) 0.83010(16)
C7 C 0.2998(8) 0.3681(3) 0.9047(2)
H10 H 0.4727 0.3596 0.9189
H11 H 0.2835 0.4265 0.8851
C8 C 0.1419(9) 0.3590(3) 0.9653(2)
H12 H 0.1897 0.3080 0.9919
H13 H -0.0284 0.3531 0.9496
H14 H 0.1572 0.4096 0.9953
C9 C 0.4828(5) 0.23838(16) 0.66548(14)
C10 C 0.6815(5) 0.23519(19) 0.61745(17)
H15 H 0.7959 0.1896 0.6209
C11 C 0.7145(5) 0.2976(2) 0.56470(16)
H16 H 0.8490 0.2936 0.5332
C12 C 0.5493(5) 0.36528(18) 0.55891(15)
C13 C 0.3509(6) 0.36970(18) 0.60730(15)
H17 H 0.2378 0.4157 0.6041
C14 C 0.3193(5) 0.30741(18) 0.65963(15)
H18 H 0.1859 0.3120 0.6915
C15 C 0.7486(8) 0.4253(3) 0.45587(19)
H19 H 0.7324 0.3708 0.4308
H20 H 0.9102 0.4283 0.4782
H21 H 0.7308 0.4727 0.4225
loop_
_geom_bond_atom_site_label_1
_geom_bond_atom_site_label_2
_geom_bond_site_symmetry_1
_geom_bond_site_symmetry_2
O1 C2 1_555 1_555
O2 C6 1_555 1_555
O3 C6 1_555 1_555
O4 C12 1_555 1_555
N1 H1 1_555 1_555
C1 H2 1_555 1_555
H3 C1 1_555 1_555
H4 C1 1_555 1_555
C2 C1 1_555 1_555
C3 C2 1_555 1_555
H5 C3 1_555 1_555
C4 C3 1_555 1_555
H6 C4 1_555 1_555
H7 C4 1_555 1_555
H8 C4 1_555 1_555
C5 N1 1_555 1_555
H9 C5 1_555 1_555
C6 C5 1_555 1_555
C7 O3 1_555 1_555
H10 C7 1_555 1_555
H11 C7 1_555 1_555
C8 C7 1_555 1_555
H12 C8 1_555 1_555
H13 C8 1_555 1_555
H14 C8 1_555 1_555
C9 N1 1_555 1_555
C10 C9 1_555 1_555
H15 C10 1_555 1_555
C11 C10 1_555 1_555
H16 C11 1_555 1_555
C12 C11 1_555 1_555
C13 C12 1_555 1_555
H17 C13 1_555 1_555
C14 C9 1_555 1_555
H18 C14 1_555 1_555
C15 O4 1_555 1_555
H19 C15 1_555 1_555
H20 C15 1_555 1_555
H21 C15 1_555 1_555
C3 C5 1_555 1_555
C13 C14 1_555 1_555

#END
