
#######################################################################
#
#                 Cambridge Crystallographic Data Centre
#                                CCDC 
#
#######################################################################
#
# If this CIF has been generated from an entry in the Cambridge 
# Structural Database, then it will include bibliographic, chemical, 
# crystal, experimental, refinement or atomic coordinate data resulting 
# from the CCDC's data processing and validation procedures.
#
#######################################################################

data_VEQFEF
_chemical_formula_moiety         'C17 H15 Br1 N8 O1,C1 H4 O1'
_chemical_name_systematic        
'3-({1-[(4-amino-2-methylpyrimidin-5-yl)methyl]-1H-1,2,3-triazol-4-yl}methyl)-6-bromoquinazolin-4(3H)-one methanol solvate'
_symmetry_cell_setting           monoclinic
_symmetry_space_group_name_H-M   'C 2/c'
_symmetry_Int_Tables_number      15
_space_group_name_Hall           '-C 2yn'
loop_
_symmetry_equiv_pos_site_id
_symmetry_equiv_pos_as_xyz
1 x,y,z
2 -x,y,1/2-z
3 1/2+x,1/2+y,z
4 1/2-x,1/2+y,1/2-z
5 -x,-y,-z
6 x,-y,1/2+z
7 1/2-x,1/2-y,-z
8 1/2+x,1/2-y,1/2+z
_cell_length_a                   15.235(4)
_cell_length_b                   16.300(4)
_cell_length_c                   17.449(5)
_cell_angle_alpha                90
_cell_angle_beta                 108.188(4)
_cell_angle_gamma                90
_cell_volume                     4116.63
_cell_formula_units_Z            8
loop_
_atom_site_label
_atom_site_type_symbol
_atom_site_fract_x
_atom_site_fract_y
_atom_site_fract_z
Br1 Br 0.29763(6) 0.61669(8) 0.74205(6)
C1 C 0.8846(5) 0.6430(5) 0.9389(4)
C2 C 0.9404(5) 0.7230(6) 0.8611(4)
H1 H 0.9808 0.7303 0.8312
C3 C 0.8863(5) 0.7876(4) 0.8658(4)
C4 C 0.8304(4) 0.7762(5) 0.9146(4)
C5 C 0.8781(5) 0.5624(5) 0.9762(5)
H2 H 0.8161 0.5419 0.9551
H3 H 0.8939 0.5687 1.0336
H4 H 0.9200 0.5245 0.9640
C6 C 0.8875(5) 0.8645(5) 0.8188(4)
H5 H 0.8649 0.9099 0.8433
H6 H 0.9505 0.8767 0.8209
C7 C 0.7402(5) 0.8621(4) 0.7006(5)
H7 H 0.6972 0.8801 0.7248
C8 C 0.7224(5) 0.8370(4) 0.6233(4)
C9 C 0.6344(5) 0.8301(5) 0.5554(5)
H8 H 0.5981 0.8795 0.5531
H9 H 0.6482 0.8255 0.5050
C10 C 0.5878(6) 0.6855(6) 0.5293(5)
H10 H 0.6272 0.6849 0.4979
C11 C 0.4884(5) 0.6210(5) 0.5815(4)
C12 C 0.4745(4) 0.6920(4) 0.6197(4)
C13 C 0.5237(5) 0.7672(5) 0.6125(4)
C14 C 0.4153(4) 0.6923(5) 0.6667(4)
H11 H 0.4045 0.7401 0.6914
C15 C 0.3737(5) 0.6200(6) 0.6754(5)
C16 C 0.3872(6) 0.5486(6) 0.6387(5)
H12 H 0.3582 0.5003 0.6457
C17 C 0.4456(6) 0.5500(5) 0.5905(5)
H13 H 0.4551 0.5025 0.5646
N1 N 0.9410(4) 0.6500(5) 0.8955(4)
N2 N 0.8315(4) 0.7023(4) 0.9518(3)
N3 N 0.7748(4) 0.8329(4) 0.9284(3)
H14 H 0.7421 0.8221 0.9594
H15 H 0.7715 0.8805 0.9065
N4 N 0.8303(4) 0.8560(3) 0.7348(3)
N5 N 0.8701(4) 0.8274(4) 0.6822(3)
N6 N 0.8030(4) 0.8172(4) 0.6134(4)
N7 N 0.5798(4) 0.7582(4) 0.5649(3)
N8 N 0.5480(5) 0.6190(4) 0.5340(4)
O1 O 0.5188(4) 0.8319(3) 0.6452(3)
C19 C 0.2770(11) 0.5073(10) 0.9140(10)
H20 H 0.2813 0.5648 0.9266
H21 H 0.3309 0.4903 0.9010
H22 H 0.2726 0.4769 0.9598
O3 O 0.1995(11) 0.4931(9) 0.8491(8)
H23 H 0.1551 0.5168 0.8560
O2? O 0.1090(16) 0.5775(14) 0.8603(13)
H16? H 0.0861 0.6093 0.8963
C18? C 0.2037(14) 0.5669(14) 0.8928(13)
H17? H 0.2350 0.6096 0.8736
H18? H 0.2208 0.5145 0.8766
H19? H 0.2210 0.5692 0.9506
loop_
_geom_bond_atom_site_label_1
_geom_bond_atom_site_label_2
_geom_bond_site_symmetry_1
_geom_bond_site_symmetry_2
Br1 C15 1_555 1_555
C1 C5 1_555 1_555
C2 H1 1_555 1_555
C3 C2 1_555 1_555
C4 C3 1_555 1_555
C5 H2 1_555 1_555
H3 C5 1_555 1_555
H4 C5 1_555 1_555
C6 C3 1_555 1_555
H5 C6 1_555 1_555
H6 C6 1_555 1_555
C7 H7 1_555 1_555
C8 C7 1_555 1_555
C9 C8 1_555 1_555
H8 C9 1_555 1_555
H9 C9 1_555 1_555
C10 H10 1_555 1_555
C11 C12 1_555 1_555
C12 C13 1_555 1_555
C13 N7 1_555 1_555
C14 C12 1_555 1_555
H11 C14 1_555 1_555
C15 C14 1_555 1_555
C16 C15 1_555 1_555
H12 C16 1_555 1_555
C17 C11 1_555 1_555
H13 C17 1_555 1_555
N1 C1 1_555 1_555
N2 C1 1_555 1_555
N3 C4 1_555 1_555
H14 N3 1_555 1_555
H15 N3 1_555 1_555
N4 C6 1_555 1_555
N5 N4 1_555 1_555
N6 C8 1_555 1_555
N7 C9 1_555 1_555
N8 C10 1_555 1_555
O1 C13 1_555 1_555
C19 H20 1_555 1_555
H21 C19 1_555 1_555
H22 C19 1_555 1_555
O3 C19 1_555 1_555
H23 O3 1_555 1_555
C2 N1 1_555 1_555
C4 N2 1_555 1_555
C7 N4 1_555 1_555
C10 N7 1_555 1_555
C11 N8 1_555 1_555
C16 C17 1_555 1_555
N5 N6 1_555 1_555

#END
