
#######################################################################
#
#                 Cambridge Crystallographic Data Centre
#                                CCDC 
#
#######################################################################
#
# If this CIF has been generated from an entry in the Cambridge 
# Structural Database, then it will include bibliographic, chemical, 
# crystal, experimental, refinement or atomic coordinate data resulting 
# from the CCDC's data processing and validation procedures.
#
#######################################################################

data_VEQKIN
_chemical_formula_moiety         'C7 H7 N2 S1 1+,C11 H7 O3 1-'
_chemical_name_systematic        
'1,3-Benzothiazol-2(3H)-iminium 3-hydroxy-2-naphthoate'
_symmetry_cell_setting           monoclinic
_symmetry_space_group_name_H-M   'P 21/c'
_symmetry_Int_Tables_number      14
_space_group_name_Hall           '-P 2ybc'
loop_
_symmetry_equiv_pos_site_id
_symmetry_equiv_pos_as_xyz
1 x,y,z
2 -x,1/2+y,1/2-z
3 -x,-y,-z
4 x,1/2-y,1/2+z
_cell_length_a                   11.758(6)
_cell_length_b                   9.781(4)
_cell_length_c                   14.422(7)
_cell_angle_alpha                90
_cell_angle_beta                 111.253(6)
_cell_angle_gamma                90
_cell_volume                     1545.8
_exptl_crystal_colour            colorless
_exptl_crystal_description       prism
_cell_formula_units_Z            4
_exptl_crystal_preparation       luminescent
loop_
_atom_site_label
_atom_site_type_symbol
_atom_site_fract_x
_atom_site_fract_y
_atom_site_fract_z
S1 S 0.77278(7) 0.00887(9) 0.99124(6)
N1 N 0.9330(2) 0.1649(3) 0.96215(19)
N2 N 0.9000(3) 0.2118(3) 1.1090(2)
C12 C 0.8916(3) 0.0799(3) 0.8778(2)
C13 C 0.9307(3) 0.0803(3) 0.7984(2)
H8 H 0.9920 0.1420 0.7963
C14 C 0.8779(3) -0.0120(3) 0.7217(2)
H9 H 0.9037 -0.0133 0.6664
C15 C 0.7879(3) -0.1028(4) 0.7243(3)
H10 H 0.7528 -0.1648 0.6709
C16 C 0.7490(3) -0.1033(3) 0.8049(3)
H11 H 0.6878 -0.1652 0.8071
C17 C 0.8017(3) -0.0116(3) 0.8816(2)
C18 C 0.8774(3) 0.1419(3) 1.0268(2)
H12 H 0.863(3) 0.188(3) 1.155(2)
H13 H 0.997(3) 0.233(4) 0.978(2)
H14 H 0.967(3) 0.274(4) 1.127(3)
O1 O 0.1171(2) 1.1547(2) 0.50514(16)
O2 O 0.0847(2) 1.1033(2) 0.64483(16)
O3 O 0.1988(2) 0.9178(2) 0.75914(16)
H1 H 0.152(3) 0.993(4) 0.730(3)
C1 C 0.2374(3) 0.9790(3) 0.6105(2)
C2 C 0.2626(3) 0.8964(3) 0.6975(2)
C3 C 0.3490(3) 0.7950(3) 0.7195(2)
H2 H 0.3653 0.7423 0.7783
C4 C 0.4138(3) 0.7680(3) 0.6563(2)
C5 C 0.3911(3) 0.8499(3) 0.5696(2)
C6 C 0.3032(3) 0.9554(3) 0.5502(2)
H3 H 0.2890 1.0119 0.4935
C7 C 0.4526(3) 0.8210(3) 0.5040(2)
H4 H 0.4384 0.8766 0.4469
C8 C 0.5323(3) 0.7138(4) 0.5219(3)
H5 H 0.5723 0.6941 0.4769
C9 C 0.5550(3) 0.6327(4) 0.6078(3)
H6 H 0.6104 0.5582 0.6199
C10 C 0.4987(3) 0.6592(3) 0.6736(3)
H7 H 0.5165 0.6044 0.7315
C11 C 0.1399(3) 1.0871(3) 0.5845(2)
loop_
_geom_bond_atom_site_label_1
_geom_bond_atom_site_label_2
_geom_bond_site_symmetry_1
_geom_bond_site_symmetry_2
S1 C17 1_555 1_555
O1 C11 1_555 1_555
O2 C11 1_555 1_555
O3 H1 1_555 1_555
N1 C12 1_555 1_555
N2 C18 1_555 1_555
C1 C2 1_555 1_555
C2 O3 1_555 1_555
C3 C2 1_555 1_555
H2 C3 1_555 1_555
C4 C3 1_555 1_555
C5 C4 1_555 1_555
C6 C1 1_555 1_555
H3 C6 1_555 1_555
C7 C5 1_555 1_555
H4 C7 1_555 1_555
C8 C7 1_555 1_555
H5 C8 1_555 1_555
C9 C8 1_555 1_555
H6 C9 1_555 1_555
C10 C4 1_555 1_555
H7 C10 1_555 1_555
C11 C1 1_555 1_555
C12 C13 1_555 1_555
C13 H8 1_555 1_555
C14 C13 1_555 1_555
H9 C14 1_555 1_555
C15 C14 1_555 1_555
H10 C15 1_555 1_555
C16 C15 1_555 1_555
H11 C16 1_555 1_555
C17 C12 1_555 1_555
C18 S1 1_555 1_555
H12 N2 1_555 1_555
H13 N1 1_555 1_555
H14 N2 1_555 1_555
N1 C18 1_555 1_555
C5 C6 1_555 1_555
C9 C10 1_555 1_555
C16 C17 1_555 1_555

#END
