
#######################################################################
#
#                 Cambridge Crystallographic Data Centre
#                                CCDC 
#
#######################################################################
#
# If this CIF has been generated from an entry in the Cambridge 
# Structural Database, then it will include bibliographic, chemical, 
# crystal, experimental, refinement or atomic coordinate data resulting 
# from the CCDC's data processing and validation procedures.
#
#######################################################################

data_VEQKIL
_chemical_formula_moiety         '2(C14 H10 O2 S2),C12 H4 N4'
_chemical_name_systematic        
'bis(2-[4,5-dimethyl-1,3-dithiol-2-ylidene]-1,3-indanedione) tetracyanoquinodimethane'
_symmetry_cell_setting           triclinic
_symmetry_space_group_name_H-M   'P -1'
_symmetry_Int_Tables_number      2
_space_group_name_Hall           '-P 1'
loop_
_symmetry_equiv_pos_site_id
_symmetry_equiv_pos_as_xyz
1 x,y,z
2 -x,-y,-z
_cell_length_a                   7.751(2)
_cell_length_b                   8.347(2)
_cell_length_c                   14.049(2)
_cell_angle_alpha                92.50(2)
_cell_angle_beta                 96.44(2)
_cell_angle_gamma                103.30(2)
_cell_volume                     876.708
_exptl_crystal_colour            green-black
_cell_formula_units_Z            1
loop_
_atom_site_label
_atom_site_type_symbol
_atom_site_fract_x
_atom_site_fract_y
_atom_site_fract_z
S1 S 0.4144(1) 0.4384(1) 0.3290(1)
S2 S 0.7788(1) 0.5693(1) 0.4158(1)
O1 O 0.3878(2) 0.1057(2) 0.2425(1)
O2 O 0.9898(2) 0.3338(2) 0.3647(1)
C7 C 0.6737(3) 0.2688(3) 0.3146(2)
C8 C 0.5498(3) 0.1261(3) 0.2633(2)
C9 C 0.6585(3) 0.0056(3) 0.2401(2)
C10 C 0.8371(3) 0.0743(3) 0.2744(2)
C11 C 0.8530(3) 0.2410(3) 0.3239(2)
C12 C 0.6051(4) -0.1518(3) 0.1948(2)
C13 C 0.7357(4) -0.2380(3) 0.1845(2)
C14 C 0.9144(4) -0.1685(3) 0.2175(2)
C15 C 0.9677(3) -0.0111(3) 0.2627(2)
C16 C 0.6290(3) 0.4099(3) 0.3489(2)
C17 C 0.4602(3) 0.6328(3) 0.3905(2)
C18 C 0.6295(3) 0.6933(3) 0.4313(2)
C19 C 0.3069(5) 0.7160(4) 0.3896(3)
C20 C 0.7026(6) 0.8559(4) 0.4875(3)
H3 H 0.4830(36) -0.1934(33) 0.1702(19)
H4 H 0.7014(34) -0.3460(32) 0.1548(18)
H5 H 1.0024(35) -0.2326(32) 0.2046(19)
H6 H 1.0909(36) 0.0384(33) 0.2814(19)
H7 H 0.1908(57) 0.6400(49) 0.3835(28)
H8 H 0.3029(57) 0.7742(54) 0.3396(33)
H9 H 0.3127(57) 0.7603(52) 0.4457(33)
H10 H 0.6164(59) 0.9063(54) 0.4986(31)
H11 H 0.7435(69) 0.9307(63) 0.4483(38)
H12 H 0.7726(62) 0.8521(56) 0.5369(36)
N1 N 0.1369(4) 0.5542(3) 0.1221(2)
N2 N 0.5802(3) 0.3342(3) 0.0681(2)
C1 C 0.1817(3) 0.4403(3) 0.0970(2)
C2 C 0.4300(3) 0.3176(3) 0.0689(2)
C3 C 0.2403(3) 0.2972(3) 0.0669(2)
C4 C 0.1219(3) 0.1501(3) 0.0352(2)
C5 C 0.1840(3) 0.0063(3) 0.0075(2)
C6 C -0.0687(3) 0.1351(3) 0.0267(2)
H1 H 0.3129(34) 0.0176(30) 0.0149(17)
H2 H -0.1146(32) 0.2226(31) 0.0467(18)
C6A C 0.0687(3) -0.1351(3) -0.0267(2)
C4A C -0.1219(3) -0.1501(3) -0.0352(2)
C3A C -0.2403(3) -0.2972(3) -0.0669(2)
C1A C -0.1817(3) -0.4403(3) -0.0970(2)
N1A N -0.1369(4) -0.5542(3) -0.1221(2)
C2A C -0.4300(3) -0.3176(3) -0.0689(2)
N2A N -0.5802(3) -0.3342(3) -0.0681(2)
C5A C -0.1840(3) -0.0063(3) -0.0075(2)
H1A H -0.3129(34) -0.0176(30) -0.0149(17)
H2A H 0.1146(32) -0.2226(31) -0.0467(18)
loop_
_geom_bond_atom_site_label_1
_geom_bond_atom_site_label_2
_geom_bond_site_symmetry_1
_geom_bond_site_symmetry_2
S1 C16 1_555 1_555
S2 C16 1_555 1_555
O1 C8 1_555 1_555
O2 C11 1_555 1_555
N1 C1 1_555 1_555
N2 C2 1_555 1_555
C1 C3 1_555 1_555
C2 C3 1_555 1_555
C3 C4 1_555 1_555
C4 C5 1_555 1_555
C5 H1 1_555 1_555
C6 C4 1_555 1_555
C7 C8 1_555 1_555
C8 C9 1_555 1_555
C9 C10 1_555 1_555
C10 C11 1_555 1_555
C11 C7 1_555 1_555
C12 C9 1_555 1_555
C13 C12 1_555 1_555
C14 C13 1_555 1_555
C15 C10 1_555 1_555
C16 C7 1_555 1_555
C17 S1 1_555 1_555
C18 S2 1_555 1_555
C19 C17 1_555 1_555
C20 C18 1_555 1_555
H2 C6 1_555 1_555
H3 C12 1_555 1_555
H4 C13 1_555 1_555
H5 C14 1_555 1_555
H6 C15 1_555 1_555
H7 C19 1_555 1_555
H8 C19 1_555 1_555
H9 C19 1_555 1_555
H10 C20 1_555 1_555
H11 C20 1_555 1_555
H12 C20 1_555 1_555
C6A C5 1_555 1_555
C4A C6A 1_555 1_555
C3A C4A 1_555 1_555
C1A C3A 1_555 1_555
N1A C1A 1_555 1_555
C2A C3A 1_555 1_555
N2A C2A 1_555 1_555
C5A C6 1_555 1_555
H1A C5A 1_555 1_555
H2A C6A 1_555 1_555
C14 C15 1_555 1_555
C17 C18 1_555 1_555
C4A C5A 1_555 1_555

#END
