
#######################################################################
#
#                 Cambridge Crystallographic Data Centre
#                                CCDC 
#
#######################################################################
#
# If this CIF has been generated from an entry in the Cambridge 
# Structural Database, then it will include bibliographic, chemical, 
# crystal, experimental, refinement or atomic coordinate data resulting 
# from the CCDC's data processing and validation procedures.
#
#######################################################################

data_VEQNOW
_chemical_formula_moiety         'C30 H30 N2 O1'
_chemical_name_systematic        
(2,4-Dimethylphenyl)-(11-(2,4-dimethylphenyl)-1,2,3,4-tetrahydro-5H-dibenzo[b,e][1,4]diazepin-5-yl)methanone
_symmetry_cell_setting           monoclinic
_symmetry_space_group_name_H-M   'P 21/c'
_symmetry_Int_Tables_number      14
_space_group_name_Hall           '-P 2ybc'
loop_
_symmetry_equiv_pos_site_id
_symmetry_equiv_pos_as_xyz
1 x,y,z
2 -x,1/2+y,1/2-z
3 -x,-y,-z
4 x,1/2-y,1/2+z
_cell_length_a                   8.6340(17)
_cell_length_b                   19.872(4)
_cell_length_c                   14.461(3)
_cell_angle_alpha                90
_cell_angle_beta                 104.97(3)
_cell_angle_gamma                90
_cell_volume                     2396.94
_chemical_melting_point          '190-191deg. C'
_cell_formula_units_Z            4
_exptl_crystal_recrystallization_method ethanol
loop_
_atom_site_label
_atom_site_type_symbol
_atom_site_fract_x
_atom_site_fract_y
_atom_site_fract_z
N1 N 0.9721(8) 0.2985(3) 1.1839(4)
N2 N 0.8416(9) 0.1649(3) 1.1445(4)
O1 O 1.1624(8) 0.3516(3) 1.1294(4)
C1 C 0.8101(10) 0.2849(4) 1.1829(5)
C2 C 0.7524(10) 0.2182(4) 1.1655(5)
C3 C 0.9929(11) 0.1559(4) 1.1827(6)
C4 C 1.0947(9) 0.1998(4) 1.2596(5)
C5 C 1.0895(9) 0.2634(4) 1.2593(5)
C6 C 1.0202(11) 0.3407(4) 1.1225(6)
C7 C 0.5942(12) 0.2069(4) 1.1619(5)
H1 H 0.5531 0.1638 1.1478
C8 C 0.4943(11) 0.2564(5) 1.1783(6)
H2 H 0.3891 0.2458 1.1776
C9 C 0.5482(11) 0.3225(5) 1.1959(6)
H3 H 0.4806 0.3567 1.2055
C10 C 0.7059(12) 0.3345(4) 1.1985(5)
H4 H 0.7451 0.3780 1.2112
C11 C 1.0704(11) 0.0968(4) 1.1497(6)
C12 C 1.0190(11) 0.0306(5) 1.1568(6)
C13 C 1.1032(13) -0.0214(4) 1.1284(6)
H5 H 1.0686 -0.0652 1.1343
C14 C 1.2353(13) -0.0130(5) 1.0918(6)
C15 C 1.2792(12) 0.0541(5) 1.0830(6)
H6 H 1.3633 0.0631 1.0555
C16 C 1.2030(12) 0.1071(5) 1.1133(6)
H7 H 1.2406 0.1506 1.1095
C17 C 1.2079(10) 0.1596(4) 1.3402(5)
H8 H 1.1470 0.1251 1.3628
H9 H 1.2883 0.1373 1.3150
C18 C 1.2891(13) 0.2033(5) 1.4219(7)
H10 H 1.2240 0.2032 1.4674
H11 H 1.3903 0.1822 1.4533
C19 C 1.3214(14) 0.2709(5) 1.4044(7)
H12 H 1.4147 0.2720 1.3788
H13 H 1.3494 0.2945 1.4652
C20 C 1.1859(10) 0.3098(4) 1.3359(5)
H14 H 1.1162 0.3296 1.3715
H15 H 1.2310 0.3461 1.3061
C21 C 0.8932(9) 0.3768(4) 1.0481(5)
C22 C 0.8783(11) 0.4453(5) 1.0561(6)
H16 H 0.9447 0.4677 1.1078
C23 C 0.7653(12) 0.4819(5) 0.9878(7)
H17 H 0.7546 0.5280 0.9950
C24 C 0.6688(10) 0.4484(5) 0.9090(6)
C25 C 0.6869(10) 0.3819(5) 0.8999(5)
H18 H 0.6217 0.3603 0.8469
C26 C 0.7993(10) 0.3433(4) 0.9663(6)
C27 C 0.5476(12) 0.4906(5) 0.8368(7)
H19 H 0.5556 0.5367 0.8572
H20 H 0.4414 0.4743 0.8325
H21 H 0.5697 0.4873 0.7752
C28 C 0.8140(11) 0.2693(4) 0.9478(5)
H22 H 0.8959 0.2500 0.9988
H23 H 0.8419 0.2633 0.8882
H24 H 0.7136 0.2475 0.9446
C29 C 0.8768(12) 0.0163(5) 1.1964(7)
H25 H 0.8581 -0.0313 1.1959
H26 H 0.7836 0.0384 1.1576
H27 H 0.8981 0.0328 1.2609
C30 C 1.3240(12) -0.0712(5) 1.0657(6)
H28 H 1.4114 -0.0551 1.0422
H29 H 1.2527 -0.0973 1.0169
H30 H 1.3649 -0.0987 1.1212
loop_
_geom_bond_atom_site_label_1
_geom_bond_atom_site_label_2
_geom_bond_site_symmetry_1
_geom_bond_site_symmetry_2
N1 C1 1_555 1_555
N2 C2 1_555 1_555
O1 C6 1_555 1_555
C1 C2 1_555 1_555
C2 C7 1_555 1_555
C3 N2 1_555 1_555
C4 C3 1_555 1_555
C5 N1 1_555 1_555
C6 N1 1_555 1_555
C7 H1 1_555 1_555
C8 C7 1_555 1_555
H2 C8 1_555 1_555
C9 C8 1_555 1_555
H3 C9 1_555 1_555
C10 C1 1_555 1_555
H4 C10 1_555 1_555
C11 C3 1_555 1_555
C12 C11 1_555 1_555
C13 C12 1_555 1_555
H5 C13 1_555 1_555
C14 C13 1_555 1_555
C15 C14 1_555 1_555
H6 C15 1_555 1_555
C16 C11 1_555 1_555
H7 C16 1_555 1_555
C17 C4 1_555 1_555
H8 C17 1_555 1_555
H9 C17 1_555 1_555
C18 C17 1_555 1_555
H10 C18 1_555 1_555
H11 C18 1_555 1_555
C19 C18 1_555 1_555
H12 C19 1_555 1_555
H13 C19 1_555 1_555
C20 C5 1_555 1_555
H14 C20 1_555 1_555
H15 C20 1_555 1_555
C21 C6 1_555 1_555
C22 C21 1_555 1_555
H16 C22 1_555 1_555
C23 C22 1_555 1_555
H17 C23 1_555 1_555
C24 C23 1_555 1_555
C25 C24 1_555 1_555
H18 C25 1_555 1_555
C26 C21 1_555 1_555
C27 C24 1_555 1_555
H19 C27 1_555 1_555
H20 C27 1_555 1_555
H21 C27 1_555 1_555
C28 C26 1_555 1_555
H22 C28 1_555 1_555
H23 C28 1_555 1_555
H24 C28 1_555 1_555
C29 C12 1_555 1_555
H25 C29 1_555 1_555
H26 C29 1_555 1_555
H27 C29 1_555 1_555
C30 C14 1_555 1_555
H28 C30 1_555 1_555
H29 C30 1_555 1_555
H30 C30 1_555 1_555
C4 C5 1_555 1_555
C9 C10 1_555 1_555
C15 C16 1_555 1_555
C19 C20 1_555 1_555
C25 C26 1_555 1_555

#END
