
#######################################################################
#
#                 Cambridge Crystallographic Data Centre
#                                CCDC 
#
#######################################################################
#
# If this CIF has been generated from an entry in the Cambridge 
# Structural Database, then it will include bibliographic, chemical, 
# crystal, experimental, refinement or atomic coordinate data resulting 
# from the CCDC's data processing and validation procedures.
#
#######################################################################

data_VEQNEN
_chemical_formula_moiety         'C23 H18 O2'
_chemical_name_systematic        
2'-(4-acetylphenyl)-3'-methyl-4H-spiro[cyclohexa-2,5-diene-1,1'-inden]-4-one
_symmetry_cell_setting           monoclinic
_symmetry_space_group_name_H-M   'P 21/n'
_symmetry_Int_Tables_number      14
_space_group_name_Hall           '-P 2yn'
loop_
_symmetry_equiv_pos_site_id
_symmetry_equiv_pos_as_xyz
1 x,y,z
2 1/2-x,1/2+y,1/2-z
3 -x,-y,-z
4 1/2+x,1/2-y,1/2+z
_cell_length_a                   12.009(3)
_cell_length_b                   8.7590(19)
_cell_length_c                   16.669(4)
_cell_angle_alpha                90
_cell_angle_beta                 95.898(4)
_cell_angle_gamma                90
_cell_volume                     1744.08
_exptl_crystal_colour            colorless
_exptl_crystal_description       block
_cell_formula_units_Z            4
loop_
_atom_site_label
_atom_site_type_symbol
_atom_site_fract_x
_atom_site_fract_y
_atom_site_fract_z
O1 O 0.56147(19) 1.2442(3) 0.70965(14)
O2 O 0.6529(2) 0.5194(3) 0.59068(15)
C1 C 0.7407(3) 1.3237(4) 0.76237(19)
H1 H 0.7007 1.3676 0.8037
H2 H 0.7803 1.4025 0.7371
H3 H 0.7931 1.2495 0.7859
C2 C 0.6606(3) 1.2486(3) 0.70125(17)
C3 C 0.7033(2) 1.1745(3) 0.63023(16)
C4 C 0.8147(2) 1.1639(4) 0.61962(17)
H4 H 0.8676 1.2090 0.6570
C5 C 0.8496(2) 1.0872(4) 0.55440(17)
H5 H 0.9258 1.0805 0.5490
C6 C 0.7743(2) 1.0204(3) 0.49707(15)
C7 C 0.6625(2) 1.0347(4) 0.5074(2)
H6 H 0.6093 0.9928 0.4693
C8 C 0.6281(3) 1.1093(4) 0.5728(2)
H7 H 0.5519 1.1159 0.5783
C9 C 0.8122(2) 0.9385(3) 0.42726(15)
C10 C 0.8560(2) 0.9992(3) 0.36363(15)
C11 C 0.8852(2) 0.8776(3) 0.30927(15)
C12 C 0.9321(2) 0.8830(4) 0.23672(16)
H8 H 0.9489 0.9761 0.2140
C13 C 0.9533(3) 0.7481(4) 0.19916(18)
H9 H 0.9842 0.7505 0.1502
C14 C 0.9298(3) 0.6095(4) 0.2325(2)
H10 H 0.9460 0.5196 0.2064
C15 C 0.8821(3) 0.6030(4) 0.30497(19)
H11 H 0.8657 0.5096 0.3275
C16 C 0.8595(2) 0.7373(3) 0.34249(16)
C17 C 0.8056(2) 0.7625(3) 0.41988(15)
C18 C 0.8685(3) 0.6887(4) 0.49191(17)
H12 H 0.9458 0.7013 0.4997
C19 C 0.8198(3) 0.6065(4) 0.54495(19)
H13 H 0.8635 0.5646 0.5887
C20 C 0.6991(3) 0.5798(4) 0.5366(2)
C21 C 0.6376(3) 0.6294(3) 0.46148(19)
H14 H 0.5630 0.6011 0.4502
C22 C 0.6852(2) 0.7136(3) 0.40889(17)
H15 H 0.6416 0.7443 0.3623
C23 C 0.8729(3) 1.1648(3) 0.34737(18)
H16 H 0.8492 1.2242 0.3909
H17 H 0.8296 1.1929 0.2980
H18 H 0.9507 1.1837 0.3428
loop_
_geom_bond_atom_site_label_1
_geom_bond_atom_site_label_2
_geom_bond_site_symmetry_1
_geom_bond_site_symmetry_2
O1 C2 1_555 1_555
O2 C20 1_555 1_555
C1 H1 1_555 1_555
H2 C1 1_555 1_555
H3 C1 1_555 1_555
C2 C1 1_555 1_555
C3 C2 1_555 1_555
C4 C3 1_555 1_555
H4 C4 1_555 1_555
C5 C4 1_555 1_555
H5 C5 1_555 1_555
C6 C5 1_555 1_555
C7 C6 1_555 1_555
H6 C7 1_555 1_555
C8 C3 1_555 1_555
H7 C8 1_555 1_555
C9 C6 1_555 1_555
C10 C9 1_555 1_555
C11 C10 1_555 1_555
C12 C11 1_555 1_555
H8 C12 1_555 1_555
C13 C12 1_555 1_555
H9 C13 1_555 1_555
C14 C13 1_555 1_555
H10 C14 1_555 1_555
C15 C14 1_555 1_555
H11 C15 1_555 1_555
C16 C11 1_555 1_555
C17 C9 1_555 1_555
C18 C17 1_555 1_555
H12 C18 1_555 1_555
C19 C18 1_555 1_555
H13 C19 1_555 1_555
C20 C19 1_555 1_555
C21 C20 1_555 1_555
H14 C21 1_555 1_555
C22 C17 1_555 1_555
H15 C22 1_555 1_555
C23 C10 1_555 1_555
H16 C23 1_555 1_555
H17 C23 1_555 1_555
H18 C23 1_555 1_555
C7 C8 1_555 1_555
C15 C16 1_555 1_555
C16 C17 1_555 1_555
C21 C22 1_555 1_555

#END
