
#######################################################################
#
#                 Cambridge Crystallographic Data Centre
#                                CCDC 
#
#######################################################################
#
# If this CIF has been generated from an entry in the Cambridge 
# Structural Database, then it will include bibliographic, chemical, 
# crystal, experimental, refinement or atomic coordinate data resulting 
# from the CCDC's data processing and validation procedures.
#
#######################################################################

data_VEQPAJ
_chemical_formula_moiety         'C18 H19 Cl1 F8 O4'
_chemical_name_systematic        
'5-exo-(4-chloro-1,1,2,2,3,3,4,4-octafluorobutyl)bicyclo[2.2.1]heptane-2-endo-carboxylic acid 4,4-dimethyl-2-oxo-tetrahydrofuran-3-yl ester'
_symmetry_cell_setting           monoclinic
_symmetry_space_group_name_H-M   'P 21'
_symmetry_Int_Tables_number      4
_space_group_name_Hall           'P 2yb'
loop_
_symmetry_equiv_pos_site_id
_symmetry_equiv_pos_as_xyz
1 x,y,z
2 -x,1/2+y,-z
_cell_length_a                   6.3644(9)
_cell_length_b                   9.8657(14)
_cell_length_c                   16.272(2)
_cell_angle_alpha                90
_cell_angle_beta                 96.461(2)
_cell_angle_gamma                90
_cell_volume                     1015.22
_exptl_crystal_colour            colorless
_chemical_melting_point          '143.6-144.6 deg.C'
_cell_formula_units_Z            2
loop_
_atom_site_label
_atom_site_type_symbol
_atom_site_fract_x
_atom_site_fract_y
_atom_site_fract_z
Cl1 Cl 0.0623(3) 0.7580(3) 1.25472(10)
O1 O 0.0909(7) 0.6323(4) 0.4395(3)
O2 O 0.2016(6) 0.4192(4) 0.4250(2)
O3 O 0.3056(5) 0.6165(4) 0.6017(2)
O4 O 0.0161(5) 0.6362(5) 0.6667(2)
F1 F 0.5202(4) 0.7868(6) 0.98457(19)
F2 F 0.3465(8) 0.5983(4) 0.9776(2)
F3 F -0.0218(5) 0.7663(7) 0.9760(2)
F4 F 0.1950(9) 0.9269(4) 1.0108(3)
F5 F 0.1115(9) 0.6180(4) 1.1032(3)
F6 F 0.3826(5) 0.7445(6) 1.1351(2)
F7 F -0.1493(6) 0.8409(7) 1.1289(3)
F8 F 0.1419(11) 0.9527(5) 1.1706(3)
C1 C 0.1645(7) 0.5282(5) 0.4697(3)
C2 C 0.2276(7) 0.4982(4) 0.5598(3)
H1 H 0.1055 0.4635 0.5850
C3 C 0.3926(6) 0.3861(5) 0.5570(3)
C4 C 0.2960(7) 0.3153(5) 0.4789(3)
H2 H 0.4042 0.2675 0.4529
H3 H 0.1899 0.2504 0.4918
C5 C 0.6095(7) 0.4450(5) 0.5440(4)
H4 H 0.6649 0.4947 0.5924
H5 H 0.5949 0.5046 0.4971
H6 H 0.7045 0.3725 0.5344
C6 C 0.4067(10) 0.2916(7) 0.6313(4)
H7 H 0.2771 0.2417 0.6308
H8 H 0.4301 0.3438 0.6813
H9 H 0.5220 0.2295 0.6287
C7 C 0.1838(6) 0.6777(5) 0.6543(2)
C8 C 0.2938(8) 0.7999(5) 0.6920(3)
H10 H 0.3392 0.8559 0.6475
C9 C 0.1632(10) 0.8890(6) 0.7450(3)
H11 H 0.1464 0.9800 0.7226
H12 H 0.0246 0.8501 0.7488
C10 C 0.2973(9) 0.8895(5) 0.8298(3)
H13 H 0.2634 0.9624 0.8670
C11 C 0.5210(12) 0.8943(7) 0.8049(4)
H14 H 0.6292 0.8865 0.8517
H15 H 0.5465 0.9735 0.7721
C12 C 0.4930(7) 0.7637(6) 0.7533(3)
H16 H 0.6173 0.7378 0.7264
C13 C 0.4305(7) 0.6609(6) 0.8171(3)
H17 H 0.5529 0.6306 0.8533
H18 H 0.3595 0.5830 0.7903
C14 C 0.2787(7) 0.7451(5) 0.8648(3)
H19 H 0.1341 0.7125 0.8495
C15 C 0.3315(7) 0.7302(6) 0.9580(3)
C16 C 0.1705(7) 0.7934(6) 1.0108(3)
C17 C 0.1827(8) 0.7469(7) 1.1011(3)
C18 C 0.0550(11) 0.8337(8) 1.1587(4)
loop_
_geom_bond_atom_site_label_1
_geom_bond_atom_site_label_2
_geom_bond_site_symmetry_1
_geom_bond_site_symmetry_2
Cl1 C18 1_555 1_555
O1 C1 1_555 1_555
O2 C1 1_555 1_555
O3 C2 1_555 1_555
O4 C7 1_555 1_555
F1 C15 1_555 1_555
F2 C15 1_555 1_555
F3 C16 1_555 1_555
F4 C16 1_555 1_555
F5 C17 1_555 1_555
F6 C17 1_555 1_555
F7 C18 1_555 1_555
F8 C18 1_555 1_555
C1 C2 1_555 1_555
C2 H1 1_555 1_555
C3 C2 1_555 1_555
C4 O2 1_555 1_555
H2 C4 1_555 1_555
H3 C4 1_555 1_555
C5 C3 1_555 1_555
H4 C5 1_555 1_555
H5 C5 1_555 1_555
H6 C5 1_555 1_555
C6 C3 1_555 1_555
H7 C6 1_555 1_555
H8 C6 1_555 1_555
H9 C6 1_555 1_555
C7 O3 1_555 1_555
C8 C7 1_555 1_555
H10 C8 1_555 1_555
C9 C8 1_555 1_555
H11 C9 1_555 1_555
H12 C9 1_555 1_555
C10 C9 1_555 1_555
H13 C10 1_555 1_555
C11 C10 1_555 1_555
H14 C11 1_555 1_555
H15 C11 1_555 1_555
C12 C8 1_555 1_555
H16 C12 1_555 1_555
C13 C12 1_555 1_555
H17 C13 1_555 1_555
H18 C13 1_555 1_555
C14 C10 1_555 1_555
H19 C14 1_555 1_555
C15 C14 1_555 1_555
C16 C15 1_555 1_555
C17 C16 1_555 1_555
C18 C17 1_555 1_555
C3 C4 1_555 1_555
C11 C12 1_555 1_555
C13 C14 1_555 1_555

#END
