
#######################################################################
#
#                 Cambridge Crystallographic Data Centre
#                                CCDC 
#
#######################################################################
#
# If this CIF has been generated from an entry in the Cambridge 
# Structural Database, then it will include bibliographic, chemical, 
# crystal, experimental, refinement or atomic coordinate data resulting 
# from the CCDC's data processing and validation procedures.
#
#######################################################################

data_VEQPEN
_chemical_formula_moiety         'C14 H10 F13 I1 O2'
_chemical_name_systematic        
'6-exo-(tridecafluoro-n-hexyl)-5-endo-iodobicyclo[2.2.1]heptane-2-endo-carboxylic acid'
_symmetry_cell_setting           monoclinic
_symmetry_space_group_name_H-M   'P 21'
_symmetry_Int_Tables_number      4
_space_group_name_Hall           'P 2yb'
loop_
_symmetry_equiv_pos_site_id
_symmetry_equiv_pos_as_xyz
1 x,y,z
2 -x,1/2+y,-z
_cell_length_a                   11.333(3)
_cell_length_b                   10.080(3)
_cell_length_c                   15.859(4)
_cell_angle_alpha                90
_cell_angle_beta                 101.279(5)
_cell_angle_gamma                90
_cell_volume                     1776.69
_exptl_crystal_colour            colorless
_chemical_melting_point          '83.4-84.0 deg.C'
_cell_formula_units_Z            4
loop_
_atom_site_label
_atom_site_type_symbol
_atom_site_fract_x
_atom_site_fract_y
_atom_site_fract_z
I1 I 1.18756(5) 0.71368(8) 0.35241(3)
O1 O 0.8476(5) 0.5672(6) 0.3807(4)
O2 O 0.6717(5) 0.6600(7) 0.3807(6)
H1 H 0.6485 0.5828 0.3751
F1 F 0.7967(4) 0.8446(5) 0.1513(3)
F2 F 0.8996(5) 1.0224(4) 0.1934(3)
F3 F 1.0213(4) 0.7249(4) 0.1432(3)
F4 F 1.0962(4) 0.9242(5) 0.1597(3)
F5 F 0.8716(4) 0.7859(5) 0.0039(3)
F6 F 0.8958(5) 0.9979(5) 0.0252(3)
F7 F 1.1287(4) 0.7813(5) 0.0111(3)
F8 F 1.1111(5) 0.9952(6) -0.0026(3)
F9 F 0.9698(5) 0.7387(5) -0.1310(3)
F10 F 0.9196(4) 0.9472(4) -0.1416(3)
F11 F 1.2001(5) 0.8140(7) -0.1421(3)
F12 F 1.0623(5) 0.8577(7) -0.2494(3)
F13 F 1.1391(6) 1.0131(6) -0.1659(4)
C1 C 0.9691(7) 0.8034(10) 0.4646(4)
H3 H 0.9700 0.8226 0.5247
H4 H 1.0109 0.7204 0.4604
C2 C 0.8398(6) 0.7985(8) 0.4122(4)
H5 H 0.7880 0.8408 0.4471
C3 C 0.8441(6) 0.8917(7) 0.3356(4)
H6 H 0.7655 0.9187 0.3024
C4 C 0.9185(9) 1.0028(9) 0.3850(5)
H7 H 0.9385 1.0719 0.3476
H8 H 0.8806 1.0411 0.4291
C5 C 1.0250(7) 0.9165(9) 0.4217(5)
H9 H 1.0906 0.9630 0.4598
C6 C 1.0566(6) 0.8677(7) 0.3369(5)
H10 H 1.0887 0.9433 0.3097
C7 C 0.9329(5) 0.8314(6) 0.2813(4)
H11 H 0.9238 0.7347 0.2788
C8 C 0.9055(5) 0.8879(7) 0.1911(4)
C9 C 0.9953(6) 0.8540(7) 0.1330(4)
C10 C 0.9511(5) 0.8787(7) 0.0365(4)
C11 C 1.0530(6) 0.8785(7) -0.0164(4)
C12 C 1.0091(6) 0.8629(7) -0.1143(4)
C13 C 1.1069(7) 0.8870(8) -0.1688(5)
C14 C 0.7901(6) 0.6633(7) 0.3894(4)
I2 I 0.23946(5) 0.28936(8) 0.35130(4)
O3 O 0.5899(5) 0.4115(6) 0.3836(5)
O4 O 0.7619(6) 0.3126(7) 0.3770(5)
H2 H 0.7807 0.3879 0.3653
F14 F 0.3917(5) -0.0298(4) 0.1895(3)
F15 F 0.3040(4) 0.1595(6) 0.1534(3)
F16 F 0.5944(4) 0.0510(5) 0.1522(3)
F17 F 0.5379(4) 0.2559(4) 0.1432(3)
F18 F 0.3901(5) -0.0030(6) 0.0205(3)
F19 F 0.3747(4) 0.2109(6) 0.0042(3)
F20 F 0.6053(5) -0.0065(6) -0.0093(3)
F21 F 0.6277(4) 0.2051(6) 0.0051(3)
F22 F 0.4127(4) 0.0448(5) -0.1464(3)
F23 F 0.4653(5) 0.2510(5) -0.1359(3)
F24 F 0.5555(5) 0.1333(8) -0.2550(3)
F25 F 0.6947(5) 0.1695(7) -0.1473(3)
F26 F 0.6287(7) -0.0253(7) -0.1728(4)
C15 C 0.5110(6) 0.1715(9) 0.4656(5)
H12 H 0.5427 0.1444 0.5244
H13 H 0.4717 0.2569 0.4662
C16 C 0.6115(6) 0.1775(7) 0.4127(4)
H14 H 0.6820 0.1326 0.4464
C17 C 0.5605(6) 0.0858(7) 0.3346(5)
H15 H 0.6202 0.0560 0.3015
C18 C 0.5083(8) -0.0237(8) 0.3820(6)
H16 H 0.5681 -0.0656 0.4261
H17 H 0.4652 -0.0902 0.3437
C19 C 0.4247(7) 0.0686(8) 0.4190(5)
H18 H 0.3759 0.0241 0.4552
C20 C 0.3518(6) 0.1252(8) 0.3346(4)
H19 H 0.3000 0.0543 0.3057
C21 C 0.4487(6) 0.1546(7) 0.2806(4)
H20 H 0.4627 0.2505 0.2792
C22 C 0.4102(6) 0.1033(7) 0.1900(4)
C23 C 0.4978(6) 0.1302(7) 0.1294(4)
C24 C 0.4493(6) 0.1111(7) 0.0333(4)
C25 C 0.5486(6) 0.1073(7) -0.0217(5)
C26 C 0.5037(6) 0.1261(7) -0.1190(5)
C27 C 0.5987(7) 0.1011(10) -0.1747(5)
C28 C 0.6517(6) 0.3129(8) 0.3907(4)
loop_
_geom_bond_atom_site_label_1
_geom_bond_atom_site_label_2
_geom_bond_site_symmetry_1
_geom_bond_site_symmetry_2
I1 C6 1_555 1_555
I2 C20 1_555 1_555
O1 C14 1_555 1_555
O2 H1 1_555 1_555
O3 C28 1_555 1_555
O4 H2 1_555 1_555
F1 C8 1_555 1_555
F2 C8 1_555 1_555
F3 C9 1_555 1_555
F4 C9 1_555 1_555
F5 C10 1_555 1_555
F6 C10 1_555 1_555
F7 C11 1_555 1_555
F8 C11 1_555 1_555
F9 C12 1_555 1_555
F10 C12 1_555 1_555
F11 C13 1_555 1_555
F12 C13 1_555 1_555
F13 C13 1_555 1_555
F14 C22 1_555 1_555
F15 C22 1_555 1_555
F16 C23 1_555 1_555
F17 C23 1_555 1_555
F18 C24 1_555 1_555
F19 C24 1_555 1_555
F20 C25 1_555 1_555
F21 C25 1_555 1_555
F22 C26 1_555 1_555
F23 C26 1_555 1_555
F24 C27 1_555 1_555
F25 C27 1_555 1_555
F26 C27 1_555 1_555
C1 H3 1_555 1_555
H4 C1 1_555 1_555
C2 C1 1_555 1_555
H5 C2 1_555 1_555
C3 C2 1_555 1_555
H6 C3 1_555 1_555
C4 C3 1_555 1_555
H7 C4 1_555 1_555
H8 C4 1_555 1_555
C5 C1 1_555 1_555
H9 C5 1_555 1_555
C6 C5 1_555 1_555
H10 C6 1_555 1_555
C7 C3 1_555 1_555
H11 C7 1_555 1_555
C8 C7 1_555 1_555
C9 C8 1_555 1_555
C10 C9 1_555 1_555
C11 C10 1_555 1_555
C12 C11 1_555 1_555
C13 C12 1_555 1_555
C14 O2 1_555 1_555
C15 H12 1_555 1_555
H13 C15 1_555 1_555
C16 C15 1_555 1_555
H14 C16 1_555 1_555
C17 C16 1_555 1_555
H15 C17 1_555 1_555
C18 C17 1_555 1_555
H16 C18 1_555 1_555
H17 C18 1_555 1_555
C19 C15 1_555 1_555
H18 C19 1_555 1_555
C20 C19 1_555 1_555
H19 C20 1_555 1_555
C21 C17 1_555 1_555
H20 C21 1_555 1_555
C22 C21 1_555 1_555
C23 C22 1_555 1_555
C24 C23 1_555 1_555
C25 C24 1_555 1_555
C26 C25 1_555 1_555
C27 C26 1_555 1_555
C28 O4 1_555 1_555
C2 C14 1_555 1_555
C4 C5 1_555 1_555
C6 C7 1_555 1_555
C16 C28 1_555 1_555
C18 C19 1_555 1_555
C20 C21 1_555 1_555

#END
