
#######################################################################
#
#                 Cambridge Crystallographic Data Centre
#                                CCDC 
#
#######################################################################
#
# If this CIF has been generated from an entry in the Cambridge 
# Structural Database, then it will include bibliographic, chemical, 
# crystal, experimental, refinement or atomic coordinate data resulting 
# from the CCDC's data processing and validation procedures.
#
#######################################################################

data_VEQPOX
_chemical_formula_moiety         'C18 H18 Cl1 F8 I1 O4'
_chemical_name_systematic        
'6-exo-(4-chloro-1,1,2,2,3,3,4,4-octafluorobutyl)-5-endo-iodobicyclo[2.2.1]heptane-2-endo-carboxylic acid 4,4-dimethyl-2-oxo-tetrahydrofuran-3-yl ester'
_symmetry_cell_setting           monoclinic
_symmetry_space_group_name_H-M   'P 21'
_symmetry_Int_Tables_number      4
_space_group_name_Hall           'P 2yb'
loop_
_symmetry_equiv_pos_site_id
_symmetry_equiv_pos_as_xyz
1 x,y,z
2 -x,1/2+y,-z
_cell_length_a                   11.6529(12)
_cell_length_b                   6.5506(7)
_cell_length_c                   15.0702(15)
_cell_angle_alpha                90
_cell_angle_beta                 95.048(2)
_cell_angle_gamma                90
_cell_volume                     1145.9
_exptl_crystal_colour            colorless
_chemical_melting_point          '98.1-98.4 deg.C'
_cell_formula_units_Z            2
loop_
_atom_site_label
_atom_site_type_symbol
_atom_site_fract_x
_atom_site_fract_y
_atom_site_fract_z
I1 I 0.12232(6) 0.88882(14) 0.97245(4)
Cl1 Cl 0.8256(3) 0.7763(8) 0.7895(5)
O1 O 0.0755(6) 0.8514(12) 0.7062(4)
O2 O 0.1783(5) 0.9933(9) 0.6039(4)
O3 O -0.0130(8) 0.9462(10) 0.4759(6)
O4 O 0.1073(8) 0.7631(13) 0.4006(5)
F1 F 0.4263(5) 0.9416(15) 0.9471(3)
F2 F 0.4684(6) 1.2259(11) 0.8850(5)
F3 F 0.4454(6) 0.7344(11) 0.8002(7)
F4 F 0.4630(6) 0.9911(12) 0.7257(4)
F5 F 0.6616(7) 1.0998(13) 0.7964(6)
F6 F 0.6473(5) 0.917(2) 0.9123(4)
F7 F 0.6547(10) 0.5757(16) 0.8195(12)
F8 F 0.6426(7) 0.7527(18) 0.6969(7)
C1 C 0.0580(8) 1.2353(14) 0.8004(6)
H1 H 0.0012 1.3402 0.7844
H2 H 0.0189 1.1104 0.8147
C2 C 0.1394(7) 1.2001(12) 0.7242(5)
H3 H 0.1233 1.3062 0.6790
C3 C 0.2627(7) 1.2387(12) 0.7714(5)
H4 H 0.3227 1.2631 0.7310
C4 C 0.2354(8) 1.4202(18) 0.8287(6)
H5 H 0.2046 1.5357 0.7940
H6 H 0.3003 1.4624 0.8692
C5 C 0.1415(8) 1.3026(13) 0.8763(6)
H7 H 0.1062 1.3839 0.9211
C6 C 0.2155(8) 1.1304(14) 0.9148(5)
H8 H 0.2676 1.1886 0.9629
C7 C 0.2899(6) 1.0680(11) 0.8403(5)
H9 H 0.2597 0.9393 0.8146
C8 C 0.4152(9) 1.0386(17) 0.8702(6)
C9 C 0.4860(8) 0.9256(16) 0.8075(6)
C10 C 0.6156(10) 0.921(2) 0.8251(7)
C11 C 0.6839(13) 0.760(3) 0.7788(12)
C12 C 0.1245(6) 0.9991(13) 0.6803(5)
C13 C 0.1652(7) 0.8145(12) 0.5501(5)
H10 H 0.1395 0.7011 0.5859
C14 C 0.0771(10) 0.8532(15) 0.4729(7)
C15 C 0.2138(10) 0.652(2) 0.4224(7)
H11 H 0.2639 0.6636 0.3745
H12 H 0.1984 0.5092 0.4326
C16 C 0.2673(8) 0.7495(19) 0.5045(7)
C17 C 0.3410(11) 0.594(3) 0.5595(10)
H13 H 0.3678 0.6529 0.6159
H14 H 0.4059 0.5558 0.5280
H15 H 0.2957 0.4748 0.5693
C18 C 0.3382(13) 0.938(3) 0.4820(9)
H16 H 0.2967 1.0140 0.4351
H17 H 0.4108 0.8947 0.4630
H18 H 0.3513 1.0227 0.5339
loop_
_geom_bond_atom_site_label_1
_geom_bond_atom_site_label_2
_geom_bond_site_symmetry_1
_geom_bond_site_symmetry_2
I1 C6 1_555 1_555
Cl1 C11 1_555 1_555
O1 C12 1_555 1_555
O2 C12 1_555 1_555
O3 C14 1_555 1_555
O4 C14 1_555 1_555
F1 C8 1_555 1_555
F2 C8 1_555 1_555
F3 C9 1_555 1_555
F4 C9 1_555 1_555
F5 C10 1_555 1_555
F6 C10 1_555 1_555
F7 C11 1_555 1_555
F8 C11 1_555 1_555
C1 H1 1_555 1_555
H2 C1 1_555 1_555
C2 C1 1_555 1_555
H3 C2 1_555 1_555
C3 C2 1_555 1_555
H4 C3 1_555 1_555
C4 C3 1_555 1_555
H5 C4 1_555 1_555
H6 C4 1_555 1_555
C5 C1 1_555 1_555
H7 C5 1_555 1_555
C6 C5 1_555 1_555
H8 C6 1_555 1_555
C7 C3 1_555 1_555
H9 C7 1_555 1_555
C8 C7 1_555 1_555
C9 C8 1_555 1_555
C10 C9 1_555 1_555
C11 C10 1_555 1_555
C12 C2 1_555 1_555
C13 O2 1_555 1_555
H10 C13 1_555 1_555
C14 C13 1_555 1_555
C15 O4 1_555 1_555
H11 C15 1_555 1_555
H12 C15 1_555 1_555
C16 C13 1_555 1_555
C17 C16 1_555 1_555
H13 C17 1_555 1_555
H14 C17 1_555 1_555
H15 C17 1_555 1_555
C18 C16 1_555 1_555
H16 C18 1_555 1_555
H17 C18 1_555 1_555
H18 C18 1_555 1_555
C4 C5 1_555 1_555
C6 C7 1_555 1_555
C15 C16 1_555 1_555

#END
