
#######################################################################
#
#                 Cambridge Crystallographic Data Centre
#                                CCDC 
#
#######################################################################
#
# If this CIF has been generated from an entry in the Cambridge 
# Structural Database, then it will include bibliographic, chemical, 
# crystal, experimental, refinement or atomic coordinate data resulting 
# from the CCDC's data processing and validation procedures.
#
#######################################################################

data_VEQRAL
_chemical_formula_moiety         'C19 H20 O3,0.25(C6 H6)'
_chemical_name_systematic        
'R*-(4S,5R)-Tetrahydro-4-hydroxy-5-((R,E)-4-(naphthalen-2-yl)but-3-en-2-yl)pyran-2-one benzene solvate'
_symmetry_cell_setting           monoclinic
_symmetry_space_group_name_H-M   'P 21/n'
_symmetry_Int_Tables_number      14
_space_group_name_Hall           '-P 2yn'
loop_
_symmetry_equiv_pos_site_id
_symmetry_equiv_pos_as_xyz
1 x,y,z
2 1/2-x,1/2+y,1/2-z
3 -x,-y,-z
4 1/2+x,1/2-y,1/2+z
_cell_length_a                   10.3590(5)
_cell_length_b                   21.7109(10)
_cell_length_c                   16.1006(7)
_cell_angle_alpha                90
_cell_angle_beta                 106.2630(10)
_cell_angle_gamma                90
_cell_volume                     3476.18
_chemical_melting_point          117-119deg.C
_cell_formula_units_Z            8
_exptl_crystal_recrystallization_method 'hexanes/ethyl acetate'
loop_
_atom_site_label
_atom_site_type_symbol
_atom_site_fract_x
_atom_site_fract_y
_atom_site_fract_z
O1 O 0.5103(3) 0.18575(11) 0.81349(18)
O2 O 0.4256(3) 0.16789(13) 0.9197(2)
O3 O 0.3413(3) 0.30835(13) 0.75064(18)
H1 H 0.284(5) 0.339(2) 0.760(3)
C1 C 0.4619(4) 0.31318(15) 0.8180(2)
H3 H 0.4761 0.3562 0.8370
C2 C 0.4581(4) 0.27305(16) 0.8937(2)
H4 H 0.5341 0.2834 0.9425
H5 H 0.3767 0.2821 0.9100
C3 C 0.4618(4) 0.20615(19) 0.8761(3)
C4 C 0.5503(4) 0.22637(17) 0.7534(2)
H6 H 0.4800 0.2262 0.6990
H7 H 0.6310 0.2099 0.7425
C5 C 0.5770(3) 0.29220(15) 0.7836(2)
H8 H 0.6603 0.2934 0.8311
C6 C 0.5938(4) 0.33470(17) 0.7102(2)
H9 H 0.5076 0.3360 0.6653
C7 C 0.6253(4) 0.39803(18) 0.7441(2)
H10 H 0.7093 0.4043 0.7832
C8 C 0.5462(4) 0.44603(17) 0.7244(2)
H11 H 0.4648 0.4396 0.6827
C9 C 0.5696(4) 0.50861(17) 0.7595(2)
C10 C 0.4646(4) 0.54852(17) 0.7491(2)
H12 H 0.3798 0.5366 0.7156
C11 C 0.4807(4) 0.60731(18) 0.7877(2)
C12 C 0.3731(5) 0.6480(2) 0.7796(3)
H13 H 0.2876 0.6369 0.7463
C13 C 0.3923(7) 0.7034(2) 0.8199(4)
H14 H 0.3197 0.7301 0.8131
C14 C 0.5179(8) 0.7213(2) 0.8710(4)
H15 H 0.5287 0.7592 0.8988
C15 C 0.6251(6) 0.6833(2) 0.8804(3)
H16 H 0.7092 0.6952 0.9149
C16 C 0.6091(4) 0.62523(17) 0.8377(2)
C17 C 0.7184(4) 0.5848(2) 0.8451(3)
H17 H 0.8046 0.5971 0.8755
C18 C 0.6987(4) 0.52784(19) 0.8082(3)
H18 H 0.7713 0.5013 0.8153
C19 C 0.6993(5) 0.3105(2) 0.6692(3)
H19 H 0.7017 0.3362 0.6211
H20 H 0.6770 0.2691 0.6493
H21 H 0.7859 0.3108 0.7112
O4 O 0.4473(3) -0.09969(11) 0.8336(2)
O5 O 0.2896(3) -0.08936(15) 0.7132(2)
O6 O 0.4358(2) 0.04357(12) 0.88108(16)
H2 H 0.442(5) 0.087(2) 0.884(3)
C20 C 0.5235(3) 0.02580(14) 0.8311(2)
H22 H 0.5687 0.0620 0.8161
C21 C 0.4396(4) -0.00582(16) 0.7495(2)
H23 H 0.3650 0.0208 0.7215
H24 H 0.4945 -0.0110 0.7100
C22 C 0.3856(4) -0.0668(2) 0.7646(3)
C23 C 0.5528(3) -0.07455(15) 0.9042(2)
H25 H 0.6177 -0.1069 0.9271
H26 H 0.5139 -0.0624 0.9500
C24 C 0.6263(3) -0.02006(13) 0.88139(19)
H27 H 0.6787 -0.0346 0.8432
C25 C 0.7251(3) 0.00672(15) 0.9630(2)
H28 H 0.6740 0.0171 1.0039
C26 C 0.7888(3) 0.06425(17) 0.9432(2)
H29 H 0.8352 0.0617 0.9015
C27 C 0.7856(3) 0.11875(16) 0.9795(2)
H30 H 0.7379 0.1207 1.0205
C28 C 0.8477(3) 0.17634(16) 0.9629(2)
C29 C 0.8267(3) 0.22982(17) 1.0026(2)
H31 H 0.7743 0.2284 1.0410
C30 C 0.8815(4) 0.28685(17) 0.9876(2)
C31 C 0.8568(4) 0.3425(2) 1.0254(3)
H32 H 0.8033 0.3423 1.0632
C32 C 0.9100(6) 0.3966(2) 1.0076(4)
H33 H 0.8910 0.4330 1.0321
C33 C 0.9927(6) 0.3975(3) 0.9528(4)
H34 H 1.0298 0.4345 0.9418
C34 C 1.0197(5) 0.3451(3) 0.9155(3)
H35 H 1.0758 0.3464 0.8795
C35 C 0.9634(4) 0.2884(2) 0.9309(3)
C36 C 0.9859(4) 0.2336(2) 0.8920(3)
H36 H 1.0415 0.2341 0.8556
C37 C 0.9289(4) 0.17949(19) 0.9059(2)
H37 H 0.9438 0.1441 0.8773
C38 C 0.8328(4) -0.04028(17) 1.0066(2)
H38 H 0.8895 -0.0231 1.0592
H39 H 0.8861 -0.0503 0.9684
H40 H 0.7904 -0.0769 1.0197
C39 C 0.6398(10) 0.4874(8) 0.0415(6)
C40 C 0.5812(17) 0.5391(5) 0.0387(6)
C41 C 0.5496(14) 0.4485(3) -0.0077(6)
C39B C 0.3602(10) 0.5126(8) -0.0415(6)
C40B C 0.4188(17) 0.4609(5) -0.0387(6)
C41B C 0.4504(14) 0.5515(3) 0.0077(6)
loop_
_geom_bond_atom_site_label_1
_geom_bond_atom_site_label_2
_geom_bond_site_symmetry_1
_geom_bond_site_symmetry_2
O1 C3 1_555 1_555
O2 C3 1_555 1_555
O3 H1 1_555 1_555
O4 C22 1_555 1_555
O5 C22 1_555 1_555
O6 H2 1_555 1_555
C1 O3 1_555 1_555
H3 C1 1_555 1_555
C2 C1 1_555 1_555
H4 C2 1_555 1_555
H5 C2 1_555 1_555
C3 C2 1_555 1_555
C4 O1 1_555 1_555
H6 C4 1_555 1_555
H7 C4 1_555 1_555
C5 C1 1_555 1_555
H8 C5 1_555 1_555
C6 C5 1_555 1_555
H9 C6 1_555 1_555
C7 C6 1_555 1_555
H10 C7 1_555 1_555
C8 C7 1_555 1_555
H11 C8 1_555 1_555
C9 C8 1_555 1_555
C10 C9 1_555 1_555
H12 C10 1_555 1_555
C11 C10 1_555 1_555
C12 C11 1_555 1_555
H13 C12 1_555 1_555
C13 C12 1_555 1_555
H14 C13 1_555 1_555
C14 C13 1_555 1_555
H15 C14 1_555 1_555
C15 C14 1_555 1_555
H16 C15 1_555 1_555
C16 C11 1_555 1_555
C17 C16 1_555 1_555
H17 C17 1_555 1_555
C18 C9 1_555 1_555
H18 C18 1_555 1_555
C19 C6 1_555 1_555
H19 C19 1_555 1_555
H20 C19 1_555 1_555
H21 C19 1_555 1_555
C20 O6 1_555 1_555
H22 C20 1_555 1_555
C21 C20 1_555 1_555
H23 C21 1_555 1_555
H24 C21 1_555 1_555
C22 C21 1_555 1_555
C23 O4 1_555 1_555
H25 C23 1_555 1_555
H26 C23 1_555 1_555
C24 C20 1_555 1_555
H27 C24 1_555 1_555
C25 C24 1_555 1_555
H28 C25 1_555 1_555
C26 C25 1_555 1_555
H29 C26 1_555 1_555
C27 C26 1_555 1_555
H30 C27 1_555 1_555
C28 C27 1_555 1_555
C29 C28 1_555 1_555
H31 C29 1_555 1_555
C30 C29 1_555 1_555
C31 C30 1_555 1_555
H32 C31 1_555 1_555
C32 C31 1_555 1_555
H33 C32 1_555 1_555
C33 C32 1_555 1_555
H34 C33 1_555 1_555
C34 C33 1_555 1_555
H35 C34 1_555 1_555
C35 C30 1_555 1_555
C36 C35 1_555 1_555
H36 C36 1_555 1_555
C37 C28 1_555 1_555
H37 C37 1_555 1_555
C38 C25 1_555 1_555
H38 C38 1_555 1_555
H39 C38 1_555 1_555
H40 C38 1_555 1_555
C39 C40 1_555 1_555
C40 C41B 1_555 1_555
C41 C39 1_555 1_555
C39B C40B 1_555 1_555
C40B C41 1_555 1_555
C41B C39B 1_555 1_555
C4 C5 1_555 1_555
C15 C16 1_555 1_555
C17 C18 1_555 1_555
C23 C24 1_555 1_555
C34 C35 1_555 1_555
C36 C37 1_555 1_555

#END
