
#######################################################################
#
#                 Cambridge Crystallographic Data Centre
#                                CCDC 
#
#######################################################################
#
# If this CIF has been generated from an entry in the Cambridge 
# Structural Database, then it will include bibliographic, chemical, 
# crystal, experimental, refinement or atomic coordinate data resulting 
# from the CCDC's data processing and validation procedures.
#
#######################################################################

data_VEQREP
_chemical_formula_moiety         'C23 H29 B1 O3'
_chemical_name_systematic        
R*-(E,2R,3S)-2-((4,4,5,5-Tetramethyl-1,3,2-dioxaborolan-2-yl)methyl)-3-methyl-5-(naphthalen-2-yl)-pent-4-enal
_symmetry_cell_setting           orthorhombic
_symmetry_space_group_name_H-M   'P c a 21'
_symmetry_Int_Tables_number      29
_space_group_name_Hall           'P 2c -2ac'
loop_
_symmetry_equiv_pos_site_id
_symmetry_equiv_pos_as_xyz
1 x,y,z
2 -x,-y,1/2+z
3 1/2+x,-y,z
4 1/2-x,y,1/2+z
_cell_length_a                   12.5986(6)
_cell_length_b                   8.2876(4)
_cell_length_c                   20.2572(10)
_cell_angle_alpha                90
_cell_angle_beta                 90
_cell_angle_gamma                90
_cell_volume                     2115.1
_exptl_crystal_colour            colorless
_exptl_crystal_description       prism
_cell_formula_units_Z            4
_exptl_crystal_recrystallization_method pentane
loop_
_atom_site_label
_atom_site_type_symbol
_atom_site_fract_x
_atom_site_fract_y
_atom_site_fract_z
B1 B 0.5226(2) 0.8578(3) 0.10432(15)
C1 C 0.0197(2) 1.2945(3) 0.30666(12)
H1 H 0.0162 1.3567 0.2685
O1 O 0.2962(3) 0.8803(4) 0.1122(2)
O2 O 0.54056(16) 0.7171(2) 0.13572(9)
C2 C -0.07091(19) 1.2824(3) 0.34711(12)
O3 O 0.5454(2) 0.8510(3) 0.03964(10)
C3 C -0.1690(2) 1.3565(4) 0.33082(17)
H2 H -0.1748 1.4168 0.2923
C4 C -0.2547(3) 1.3401(4) 0.3713(2)
H3 H -0.3187 1.3885 0.3598
C5 C -0.2477(3) 1.2507(4) 0.4302(2)
H4 H -0.3067 1.2413 0.4576
C6 C -0.1560(2) 1.1791(3) 0.44696(16)
H5 H -0.1521 1.1205 0.4860
C7 C -0.0649(2) 1.1911(3) 0.40601(12)
C8 C 0.0324(2) 1.1138(3) 0.42150(14)
H6 H 0.0377 1.0530 0.4599
C9 C 0.1175(2) 1.1272(3) 0.38124(13)
H7 H 0.1804 1.0759 0.3929
C10 C 0.11344(18) 1.2173(3) 0.32179(11)
C11 C 0.2036(2) 1.2268(3) 0.27655(12)
H8 H 0.1977 1.3003 0.2421
C12 C 0.2926(2) 1.1429(3) 0.27912(12)
H9 H 0.2994 1.0674 0.3128
C13 C 0.3836(2) 1.1601(3) 0.23172(13)
H10 H 0.3645 1.2425 0.1991
C14 C 0.40685(19) 1.0003(3) 0.19414(12)
H11 H 0.4356 0.9238 0.2264
C15 C 0.4897(3) 1.0189(3) 0.13987(16)
H12 H 0.5528 1.0673 0.1589
H13 H 0.4625 1.0931 0.1070
C16 C 0.5606(2) 0.5945(3) 0.08577(13)
C17 C 0.5967(2) 0.6970(3) 0.02653(14)
C18 C 0.4823(3) 1.2180(4) 0.26871(18)
H14 H 0.4680 1.3206 0.2888
H15 H 0.5403 1.2289 0.2383
H16 H 0.5007 1.1411 0.3022
C19 C 0.3083(3) 0.9271(4) 0.1666(2)
H17 H 0.2508 0.9173 0.1952
C20 C 0.4563(3) 0.5081(5) 0.0739(3)
H18 H 0.4277 0.4722 0.1153
H19 H 0.4681 0.4167 0.0457
H20 H 0.4071 0.5806 0.0532
C21 C 0.6433(3) 0.4779(4) 0.11124(18)
H21 H 0.7075 0.5355 0.1211
H22 H 0.6574 0.3975 0.0782
H23 H 0.6175 0.4266 0.1506
C22 C 0.7166(3) 0.7316(5) 0.0277(3)
H24 H 0.7324 0.8184 -0.0021
H25 H 0.7547 0.6367 0.0143
H26 H 0.7377 0.7612 0.0716
C23 C 0.5637(5) 0.6407(7) -0.0410(2)
H27 H 0.4893 0.6162 -0.0409
H28 H 0.6032 0.5458 -0.0525
H29 H 0.5777 0.7243 -0.0726
loop_
_geom_bond_atom_site_label_1
_geom_bond_atom_site_label_2
_geom_bond_site_symmetry_1
_geom_bond_site_symmetry_2
B1 O2 1_555 1_555
C1 H1 1_555 1_555
O1 C19 1_555 1_555
O2 C16 1_555 1_555
C2 C1 1_555 1_555
O3 B1 1_555 1_555
C3 C2 1_555 1_555
H2 C3 1_555 1_555
C4 C3 1_555 1_555
H3 C4 1_555 1_555
C5 C4 1_555 1_555
H4 C5 1_555 1_555
C6 C5 1_555 1_555
H5 C6 1_555 1_555
C7 C2 1_555 1_555
C8 C7 1_555 1_555
H6 C8 1_555 1_555
C9 C8 1_555 1_555
H7 C9 1_555 1_555
C10 C1 1_555 1_555
C11 C10 1_555 1_555
H8 C11 1_555 1_555
C12 C11 1_555 1_555
H9 C12 1_555 1_555
C13 C12 1_555 1_555
H10 C13 1_555 1_555
C14 C13 1_555 1_555
H11 C14 1_555 1_555
C15 B1 1_555 1_555
H12 C15 1_555 1_555
H13 C15 1_555 1_555
C16 C17 1_555 1_555
C17 O3 1_555 1_555
C18 C13 1_555 1_555
H14 C18 1_555 1_555
H15 C18 1_555 1_555
H16 C18 1_555 1_555
C19 C14 1_555 1_555
H17 C19 1_555 1_555
C20 C16 1_555 1_555
H18 C20 1_555 1_555
H19 C20 1_555 1_555
H20 C20 1_555 1_555
C21 C16 1_555 1_555
H21 C21 1_555 1_555
H22 C21 1_555 1_555
H23 C21 1_555 1_555
C22 C17 1_555 1_555
H24 C22 1_555 1_555
H25 C22 1_555 1_555
H26 C22 1_555 1_555
C23 C17 1_555 1_555
H27 C23 1_555 1_555
H28 C23 1_555 1_555
H29 C23 1_555 1_555
C6 C7 1_555 1_555
C9 C10 1_555 1_555
C14 C15 1_555 1_555

#END
