
#######################################################################
#
#                 Cambridge Crystallographic Data Centre
#                                CCDC 
#
#######################################################################
#
# If this CIF has been generated from an entry in the Cambridge 
# Structural Database, then it will include bibliographic, chemical, 
# crystal, experimental, refinement or atomic coordinate data resulting 
# from the CCDC's data processing and validation procedures.
#
#######################################################################

data_VEQROZ
_chemical_formula_moiety         'C34 H24 N2 O2 S2'
_chemical_name_systematic        
1,4-bis(5'-(8''-Methoxyquinolin-5''-yl)-2'-thienyl)benzene
_symmetry_cell_setting           orthorhombic
_symmetry_space_group_name_H-M   'P b c a'
_symmetry_Int_Tables_number      61
_space_group_name_Hall           '-P 2ac 2ab'
loop_
_symmetry_equiv_pos_site_id
_symmetry_equiv_pos_as_xyz
1 x,y,z
2 1/2-x,-y,1/2+z
3 -x,1/2+y,1/2-z
4 1/2+x,1/2-y,-z
5 -x,-y,-z
6 1/2+x,y,1/2-z
7 x,1/2-y,1/2+z
8 1/2-x,1/2+y,z
_cell_length_a                   7.7260(19)
_cell_length_b                   7.977(2)
_cell_length_c                   42.958(11)
_cell_angle_alpha                90
_cell_angle_beta                 90
_cell_angle_gamma                90
_cell_volume                     2647.51
_exptl_crystal_colour            yellow
_cell_formula_units_Z            4
_exptl_crystal_recrystallization_method dichloromethane/hexane
_exptl_crystal_preparation       luminescent
loop_
_atom_site_label
_atom_site_type_symbol
_atom_site_fract_x
_atom_site_fract_y
_atom_site_fract_z
S1 S 0.58643(14) 0.24801(16) 0.08049(3)
N1 N 0.3950(5) 0.7094(4) 0.19442(8)
O1 O 0.6966(4) 0.6135(4) 0.21632(7)
C1 C 0.8555(7) 0.5554(7) 0.23005(11)
H1 H 0.8608 0.5913 0.2518
H2 H 0.9539 0.6026 0.2186
H3 H 0.8600 0.4328 0.2290
C2 C 0.2392(6) 0.7449(6) 0.18421(11)
H4 H 0.1645 0.8057 0.1977
C3 C 0.1754(6) 0.6997(6) 0.15506(11)
H5 H 0.0588 0.7225 0.1495
C4 C 0.2837(6) 0.6226(5) 0.13500(10)
H6 H 0.2431 0.5919 0.1149
C5 C 0.5769(6) 0.5002(5) 0.12363(10)
C6 C 0.7342(6) 0.4577(5) 0.13632(10)
H7 H 0.8163 0.4027 0.1234
C7 C 0.7805(5) 0.4912(5) 0.16738(10)
H8 H 0.8896 0.4560 0.1752
C8 C 0.6670(6) 0.5747(6) 0.18611(10)
C9 C 0.5028(6) 0.6262(6) 0.17429(10)
C10 C 0.4569(5) 0.5868(5) 0.14342(10)
C11 C 0.5317(6) 0.4498(6) 0.09193(10)
C12 C 0.4476(6) 0.5293(6) 0.06833(11)
H9 H 0.4063 0.6412 0.0698
C13 C 0.4275(6) 0.4287(6) 0.04103(11)
H10 H 0.3716 0.4668 0.0226
C14 C 0.4961(5) 0.2737(6) 0.04407(10)
C15 C 0.4983(5) 0.1343(6) 0.02148(9)
C16 C 0.4225(6) 0.1496(6) -0.00766(10)
H11 H 0.3701 0.2529 -0.0134
C17 C 0.5785(6) -0.0195(5) 0.02831(10)
H12 H 0.6349 -0.0333 0.0478
S1D S 0.41357(14) -0.24801(16) -0.08049(3)
N1D N 0.6050(5) -0.7094(4) -0.19442(8)
O1D O 0.3034(4) -0.6135(4) -0.21632(7)
C1D C 0.1445(7) -0.5554(7) -0.23005(11)
H1D H 0.1392 -0.5913 -0.2518
H2D H 0.0461 -0.6026 -0.2186
H3D H 0.1400 -0.4328 -0.2290
C2D C 0.7608(6) -0.7449(6) -0.18421(11)
H4D H 0.8355 -0.8057 -0.1977
C3D C 0.8246(6) -0.6997(6) -0.15506(11)
H5D H 0.9412 -0.7225 -0.1495
C4D C 0.7163(6) -0.6226(5) -0.13500(10)
H6D H 0.7569 -0.5919 -0.1149
C5D C 0.4231(6) -0.5002(5) -0.12363(10)
C6D C 0.2658(6) -0.4577(5) -0.13632(10)
H7D H 0.1837 -0.4027 -0.1234
C7D C 0.2195(5) -0.4912(5) -0.16738(10)
H8D H 0.1104 -0.4560 -0.1752
C8D C 0.3330(6) -0.5747(6) -0.18611(10)
C9D C 0.4972(6) -0.6262(6) -0.17429(10)
C10D C 0.5431(5) -0.5868(5) -0.14342(10)
C11D C 0.4683(6) -0.4498(6) -0.09193(10)
C12D C 0.5524(6) -0.5293(6) -0.06833(11)
H9D H 0.5937 -0.6412 -0.0698
C13D C 0.5725(6) -0.4287(6) -0.04103(11)
H10D H 0.6284 -0.4668 -0.0226
C14D C 0.5039(5) -0.2737(6) -0.04407(10)
C15D C 0.5017(5) -0.1343(6) -0.02148(9)
C16D C 0.5775(6) -0.1496(6) 0.00766(10)
H11D H 0.6299 -0.2529 0.0134
C17D C 0.4215(6) 0.0195(5) -0.02831(10)
H12D H 0.3651 0.0333 -0.0478
loop_
_geom_bond_atom_site_label_1
_geom_bond_atom_site_label_2
_geom_bond_site_symmetry_1
_geom_bond_site_symmetry_2
S1 C11 1_555 1_555
N1 C2 1_555 1_555
O1 C1 1_555 1_555
C1 H1 1_555 1_555
H2 C1 1_555 1_555
H3 C1 1_555 1_555
C2 H4 1_555 1_555
C3 C2 1_555 1_555
H5 C3 1_555 1_555
C4 C3 1_555 1_555
H6 C4 1_555 1_555
C5 C6 1_555 1_555
C6 H7 1_555 1_555
C7 C6 1_555 1_555
H8 C7 1_555 1_555
C8 O1 1_555 1_555
C9 N1 1_555 1_555
C10 C4 1_555 1_555
C11 C5 1_555 1_555
C12 C11 1_555 1_555
H9 C12 1_555 1_555
C13 C12 1_555 1_555
H10 C13 1_555 1_555
C14 S1 1_555 1_555
C15 C14 1_555 1_555
C16 C15 1_555 1_555
H11 C16 1_555 1_555
C17 C15 1_555 1_555
H12 C17 1_555 1_555
S1D C11D 1_555 1_555
N1D C2D 1_555 1_555
O1D C1D 1_555 1_555
C1D H1D 1_555 1_555
H2D C1D 1_555 1_555
H3D C1D 1_555 1_555
C2D H4D 1_555 1_555
C3D C2D 1_555 1_555
H5D C3D 1_555 1_555
C4D C3D 1_555 1_555
H6D C4D 1_555 1_555
C5D C6D 1_555 1_555
C6D H7D 1_555 1_555
C7D C6D 1_555 1_555
H8D C7D 1_555 1_555
C8D O1D 1_555 1_555
C9D N1D 1_555 1_555
C10D C4D 1_555 1_555
C11D C5D 1_555 1_555
C12D C11D 1_555 1_555
H9D C12D 1_555 1_555
C13D C12D 1_555 1_555
H10D C13D 1_555 1_555
C14D S1D 1_555 1_555
C15D C14D 1_555 1_555
C16D C17 1_555 1_555
H11D C16D 1_555 1_555
C17D C16 1_555 1_555
H12D C17D 1_555 1_555
C5 C10 1_555 1_555
C7 C8 1_555 1_555
C8 C9 1_555 1_555
C9 C10 1_555 1_555
C13 C14 1_555 1_555
C5D C10D 1_555 1_555
C7D C8D 1_555 1_555
C8D C9D 1_555 1_555
C9D C10D 1_555 1_555
C13D C14D 1_555 1_555
C15D C16D 1_555 1_555
C15D C17D 1_555 1_555

#END
