
#######################################################################
#
#                 Cambridge Crystallographic Data Centre
#                                CCDC 
#
#######################################################################
#
# If this CIF has been generated from an entry in the Cambridge 
# Structural Database, then it will include bibliographic, chemical, 
# crystal, experimental, refinement or atomic coordinate data resulting 
# from the CCDC's data processing and validation procedures.
#
#######################################################################

data_VEQSEQ
_chemical_formula_moiety         'C32 H24 N2 O2'
_chemical_name_systematic        4,4'-bis(8''-Methoxyquinolin-5''-yl)biphenyl
_symmetry_cell_setting           triclinic
_symmetry_space_group_name_H-M   'P -1'
_symmetry_Int_Tables_number      2
_space_group_name_Hall           '-P 1'
loop_
_symmetry_equiv_pos_site_id
_symmetry_equiv_pos_as_xyz
1 x,y,z
2 -x,-y,-z
_cell_length_a                   8.7399(18)
_cell_length_b                   8.9692(18)
_cell_length_c                   9.1427(19)
_cell_angle_alpha                62.293(4)
_cell_angle_beta                 65.552(4)
_cell_angle_gamma                69.368(4)
_cell_volume                     566.137
_cell_formula_units_Z            1
_exptl_crystal_recrystallization_method hexane/dichloromethane
_exptl_crystal_preparation       luminescent
loop_
_atom_site_label
_atom_site_type_symbol
_atom_site_fract_x
_atom_site_fract_y
_atom_site_fract_z
O1 O -0.01773(19) 0.92331(19) 0.87838(19)
N1 N 0.2080(2) 1.0856(2) 0.5983(2)
C1 C -0.1511(3) 0.8479(3) 1.0278(3)
H1 H -0.1890 0.9050 1.1070
H2 H -0.1078 0.7282 1.0838
H3 H -0.2457 0.8603 0.9926
C2 C 0.3211(3) 1.1661(3) 0.4587(3)
H4 H 0.3419 1.2638 0.4529
C3 C 0.4120(3) 1.1130(3) 0.3182(3)
H5 H 0.4929 1.1728 0.2236
C4 C 0.3808(3) 0.9737(3) 0.3218(3)
H6 H 0.4388 0.9386 0.2284
C5 C 0.2157(3) 0.7375(3) 0.4776(3)
C6 C 0.0900(3) 0.6653(3) 0.6193(3)
H7 H 0.0574 0.5741 0.6251
C7 C 0.0070(3) 0.7232(3) 0.7582(3)
H8 H -0.0777 0.6696 0.8534
C8 C 0.0511(3) 0.8582(3) 0.7527(3)
C9 C 0.1774(3) 0.9439(3) 0.6035(3)
C10 C 0.2604(3) 0.8819(3) 0.4668(3)
C11 C 0.3004(3) 0.6706(3) 0.3344(3)
C12 C 0.4761(3) 0.6052(3) 0.2874(3)
H9 H 0.5432 0.6072 0.3430
C13 C 0.5522(3) 0.5375(3) 0.1599(3)
H10 H 0.6692 0.4918 0.1336
C14 C 0.4581(3) 0.5361(3) 0.0697(3)
C15 C 0.2837(3) 0.6047(3) 0.1155(3)
H11 H 0.2173 0.6070 0.0568
C16 C 0.2057(3) 0.6697(3) 0.2453(3)
H12 H 0.0882 0.7133 0.2732
O1A O 1.01773(19) 0.07669(19) -0.87838(19)
N1A N 0.7920(2) -0.0856(2) -0.5983(2)
C1A C 1.1511(3) 0.1521(3) -1.0278(3)
H1A H 1.1890 0.0950 -1.1070
H2A H 1.1078 0.2718 -1.0838
H3A H 1.2457 0.1397 -0.9926
C2A C 0.6789(3) -0.1661(3) -0.4587(3)
H4A H 0.6581 -0.2638 -0.4529
C3A C 0.5880(3) -0.1130(3) -0.3182(3)
H5A H 0.5071 -0.1728 -0.2236
C4A C 0.6192(3) 0.0263(3) -0.3218(3)
H6A H 0.5612 0.0614 -0.2284
C5A C 0.7843(3) 0.2625(3) -0.4776(3)
C6A C 0.9100(3) 0.3347(3) -0.6193(3)
H7A H 0.9426 0.4259 -0.6251
C7A C 0.9930(3) 0.2768(3) -0.7582(3)
H8A H 1.0777 0.3304 -0.8534
C8A C 0.9489(3) 0.1418(3) -0.7527(3)
C9A C 0.8226(3) 0.0561(3) -0.6035(3)
C10A C 0.7396(3) 0.1181(3) -0.4668(3)
C11A C 0.6996(3) 0.3294(3) -0.3344(3)
C12A C 0.5239(3) 0.3948(3) -0.2874(3)
H9A H 0.4568 0.3928 -0.3430
C13A C 0.4478(3) 0.4625(3) -0.1599(3)
H10A H 0.3308 0.5082 -0.1336
C14A C 0.5419(3) 0.4639(3) -0.0697(3)
C15A C 0.7163(3) 0.3953(3) -0.1155(3)
H11A H 0.7827 0.3930 -0.0568
C16A C 0.7943(3) 0.3303(3) -0.2453(3)
H12A H 0.9118 0.2867 -0.2732
loop_
_geom_bond_atom_site_label_1
_geom_bond_atom_site_label_2
_geom_bond_site_symmetry_1
_geom_bond_site_symmetry_2
O1 C1 1_555 1_555
N1 C2 1_555 1_555
C1 H1 1_555 1_555
H2 C1 1_555 1_555
H3 C1 1_555 1_555
C2 H4 1_555 1_555
C3 C2 1_555 1_555
H5 C3 1_555 1_555
C4 C3 1_555 1_555
H6 C4 1_555 1_555
C5 C6 1_555 1_555
C6 H7 1_555 1_555
C7 C6 1_555 1_555
H8 C7 1_555 1_555
C8 O1 1_555 1_555
C9 N1 1_555 1_555
C10 C4 1_555 1_555
C11 C5 1_555 1_555
C12 C11 1_555 1_555
H9 C12 1_555 1_555
C13 C12 1_555 1_555
H10 C13 1_555 1_555
C14 C13 1_555 1_555
C15 C14 1_555 1_555
H11 C15 1_555 1_555
C16 C11 1_555 1_555
H12 C16 1_555 1_555
O1A C1A 1_555 1_555
N1A C2A 1_555 1_555
C1A H1A 1_555 1_555
H2A C1A 1_555 1_555
H3A C1A 1_555 1_555
C2A H4A 1_555 1_555
C3A C2A 1_555 1_555
H5A C3A 1_555 1_555
C4A C3A 1_555 1_555
H6A C4A 1_555 1_555
C5A C6A 1_555 1_555
C6A H7A 1_555 1_555
C7A C6A 1_555 1_555
H8A C7A 1_555 1_555
C8A O1A 1_555 1_555
C9A N1A 1_555 1_555
C10A C4A 1_555 1_555
C11A C5A 1_555 1_555
C12A C11A 1_555 1_555
H9A C12A 1_555 1_555
C13A C12A 1_555 1_555
H10A C13A 1_555 1_555
C14A C14 1_555 1_555
C15A C14A 1_555 1_555
H11A C15A 1_555 1_555
C16A C11A 1_555 1_555
H12A C16A 1_555 1_555
C5 C10 1_555 1_555
C7 C8 1_555 1_555
C8 C9 1_555 1_555
C9 C10 1_555 1_555
C15 C16 1_555 1_555
C5A C10A 1_555 1_555
C7A C8A 1_555 1_555
C8A C9A 1_555 1_555
C9A C10A 1_555 1_555
C13A C14A 1_555 1_555
C15A C16A 1_555 1_555

#END
