
#######################################################################
#
#                 Cambridge Crystallographic Data Centre
#                                CCDC 
#
#######################################################################
#
# If this CIF has been generated from an entry in the Cambridge 
# Structural Database, then it will include bibliographic, chemical, 
# crystal, experimental, refinement or atomic coordinate data resulting 
# from the CCDC's data processing and validation procedures.
#
#######################################################################

data_VERNOV01
_chemical_formula_moiety         'C19 H19 N1 O3'
_chemical_name_systematic        
'1,2-Dimethyl-3-indolylethylidene succinic fulgide anhydride'
_symmetry_cell_setting           orthorhombic
_symmetry_space_group_name_H-M   'P b c a'
_symmetry_Int_Tables_number      61
_space_group_name_Hall           '-P 2ac 2ab'
loop_
_symmetry_equiv_pos_site_id
_symmetry_equiv_pos_as_xyz
1 x,y,z
2 1/2-x,1/2+y,z
3 x,1/2-y,1/2+z
4 1/2-x,-y,1/2+z
5 -x,-y,-z
6 1/2+x,1/2-y,-z
7 -x,1/2+y,1/2-z
8 1/2+x,y,1/2-z
_cell_length_a                   7.988(3)
_cell_length_b                   25.782(10)
_cell_length_c                   15.664(5)
_cell_angle_alpha                90
_cell_angle_beta                 90
_cell_angle_gamma                90
_cell_volume                     3225.95
_exptl_crystal_colour            'pale yellow'
_cell_formula_units_Z            8
loop_
_atom_site_label
_atom_site_type_symbol
_atom_site_fract_x
_atom_site_fract_y
_atom_site_fract_z
C1 C -0.2308(7) 0.2503(2) 0.1029(3)
C2 C -0.1345(6) 0.2887(2) 0.1395(4)
C3 C 0.0098(6) 0.2766(2) 0.1835(3)
C4 C 0.0664(6) 0.2262(2) 0.1927(3)
C5 C -0.0333(6) 0.1874(2) 0.1561(3)
C6 C -0.1816(5) 0.1983(1) 0.1116(2)
C7 C -0.2476(5) 0.1497(2) 0.0816(2)
C8 C -0.1379(6) 0.1113(2) 0.1093(3)
C9 C -0.4087(6) 0.1410(2) 0.0420(3)
C10 C -0.4300(6) 0.1070(2) -0.0251(3)
C11 C -0.3097(6) 0.0820(2) -0.0833(3)
C12 C -0.3947(7) 0.0345(2) -0.1148(3)
C13 C -0.5924(7) 0.0809(2) -0.0424(3)
C14 C 0.1161(6) 0.1054(2) 0.2033(3)
C15 C -0.1475(6) 0.0540(2) 0.1022(3)
C16 C -0.5552(6) 0.1691(2) 0.0815(3)
C17 C -0.1695(6) 0.1008(2) -0.1184(3)
C18 C -0.1047(6) 0.1547(2) -0.0984(3)
C19 C -0.0645(8) 0.0725(2) -0.1830(3)
N1 N -0.0107(4) 0.1341(1) 0.1548(2)
O1 O -0.5614(5) 0.0377(1) -0.0918(2)
O2 O -0.3471(6) -0.0017(1) -0.1548(3)
O3 O -0.7333(4) 0.0906(2) -0.0207(2)
loop_
_geom_bond_atom_site_label_1
_geom_bond_atom_site_label_2
_geom_bond_site_symmetry_1
_geom_bond_site_symmetry_2
C1 C2 1_555 1_555
C2 C3 1_555 1_555
C3 C4 1_555 1_555
C4 C5 1_555 1_555
C5 C6 1_555 1_555
C6 C1 1_555 1_555
C7 C6 1_555 1_555
C8 C7 1_555 1_555
C9 C7 1_555 1_555
C10 C9 1_555 1_555
C11 C10 1_555 1_555
C12 C11 1_555 1_555
C13 C10 1_555 1_555
C14 N1 1_555 1_555
C15 C8 1_555 1_555
C16 C9 1_555 1_555
C17 C11 1_555 1_555
C18 C17 1_555 1_555
C19 C17 1_555 1_555
N1 C5 1_555 1_555
O1 C12 1_555 1_555
O2 C12 1_555 1_555
O3 C13 1_555 1_555
C8 N1 1_555 1_555
C13 O1 1_555 1_555

#END
