
#######################################################################
#
#                 Cambridge Crystallographic Data Centre
#                                CCDC 
#
#######################################################################
#
# If this CIF has been generated from an entry in the Cambridge 
# Structural Database, then it will include bibliographic, chemical, 
# crystal, experimental, refinement or atomic coordinate data resulting 
# from the CCDC's data processing and validation procedures.
#
#######################################################################

data_VERNOV
_chemical_formula_moiety         'C19 H19 N1 O3'
_chemical_name_systematic        
"(E)-\a-(1,2-Dimethylindol-3-yl)ethylidene-\a'-(isopropylidene)succinic anhydride"
_symmetry_cell_setting           orthorhombic
_symmetry_space_group_name_H-M   'P 21 c n'
_symmetry_Int_Tables_number      33
_space_group_name_Hall           'P -2n 2a'
loop_
_symmetry_equiv_pos_site_id
_symmetry_equiv_pos_as_xyz
1 x,y,z
2 x,1/2-y,1/2+z
3 1/2+x,1/2+y,1/2-z
4 1/2+x,-y,-z
_cell_length_a                   8.079(8)
_cell_length_b                   12.752(5)
_cell_length_c                   15.725(13)
_cell_angle_alpha                90
_cell_angle_beta                 90
_cell_angle_gamma                90
_cell_volume                     1620.04
_exptl_crystal_colour            'pale yellow'
_chemical_melting_point          175-177deg.C
_cell_formula_units_Z            4
_chemical_properties_physical    light-sensitive
_exptl_crystal_preparation       'Photochromic and non-thermochromic'
loop_
_atom_site_label
_atom_site_type_symbol
_atom_site_fract_x
_atom_site_fract_y
_atom_site_fract_z
C1 C 0.4132(10) 0.1513(6) 0.4955(4)
C2 C 0.2609(12) 0.1125(7) 0.5133(6)
C3 C 0.1680(11) 0.0706(7) 0.4471(7)
C4 C 0.2361(12) 0.0634(7) 0.3651(6)
C5 C 0.3905(10) 0.1021(7) 0.3467(5)
C6 C 0.4855(8) 0.1448(5) 0.4131(4)
C7 C 0.6468(9) 0.1921(5) 0.4178(4)
C8 C 0.7662(9) 0.2026(5) 0.3477(4)
C9 C 0.8511(9) 0.2936(6) 0.3308(4)
C10 C 1.0053(10) 0.2963(7) 0.2795(4)
C11 C 1.0050(10) 0.4478(7) 0.3566(5)
C12 C 0.8374(9) 0.3984(5) 0.3679(4)
C13 C 0.7032(11) 0.4583(6) 0.3876(4)
C14 C 0.7117(13) 0.5674(5) 0.4197(5)
C15 C 0.5320(12) 0.4180(6) 0.3770(5)
C16 C 0.6702(9) 0.2222(5) 0.5014(4)
C17 C 0.5177(13) 0.2103(6) 0.6415(4)
C18 C 0.8208(11) 0.2670(8) 0.5429(5)
C19 C 0.7958(11) 0.1033(6) 0.2965(4)
N1 N 0.5322(8) 0.1977(5) 0.5478(3)
O1 O 1.0596(8) 0.2368(5) 0.2259(3)
O2 O 1.0659(8) 0.5247(5) 0.3853(4)
O3 O 1.0956(7) 0.3841(4) 0.3016(3)
loop_
_geom_bond_atom_site_label_1
_geom_bond_atom_site_label_2
_geom_bond_site_symmetry_1
_geom_bond_site_symmetry_2
C1 C2 1_555 1_555
C2 C3 1_555 1_555
C3 C4 1_555 1_555
C4 C5 1_555 1_555
C5 C6 1_555 1_555
C6 C1 1_555 1_555
C7 C6 1_555 1_555
C8 C7 1_555 1_555
C9 C8 1_555 1_555
C10 C9 1_555 1_555
C11 C12 1_555 1_555
C12 C9 1_555 1_555
C13 C12 1_555 1_555
C14 C13 1_555 1_555
C15 C13 1_555 1_555
C16 C7 1_555 1_555
C17 N1 1_555 1_555
C18 C16 1_555 1_555
C19 C8 1_555 1_555
N1 C1 1_555 1_555
O1 C10 1_555 1_555
O2 C11 1_555 1_555
O3 C10 1_555 1_555
C11 O3 1_555 1_555
C16 N1 1_555 1_555

#END
