
#######################################################################
#
#                 Cambridge Crystallographic Data Centre
#                                CCDC 
#
#######################################################################
#
# If this CIF has been generated from an entry in the Cambridge 
# Structural Database, then it will include bibliographic, chemical, 
# crystal, experimental, refinement or atomic coordinate data resulting 
# from the CCDC's data processing and validation procedures.
#
#######################################################################

data_VERNIP
_chemical_formula_moiety         'C23 H19 N1 O3'
_chemical_name_systematic        
"(E)-\a-(1-Methyl-2-phenylindol-3-yl)methylene-\a'-(isopropylidene)succinic anhydride"
_symmetry_cell_setting           triclinic
_symmetry_space_group_name_H-M   'P -1'
_symmetry_Int_Tables_number      2
_space_group_name_Hall           '-P 1'
loop_
_symmetry_equiv_pos_site_id
_symmetry_equiv_pos_as_xyz
1 x,y,z
2 -x,-y,-z
_cell_length_a                   7.234(2)
_cell_length_b                   10.918(6)
_cell_length_c                   12.762(8)
_cell_angle_alpha                80.40(5)
_cell_angle_beta                 75.58(4)
_cell_angle_gamma                77.32(3)
_cell_volume                     945.663
_exptl_crystal_colour            'pale yellow'
_chemical_melting_point          210-212deg.C
_cell_formula_units_Z            2
loop_
_atom_site_label
_atom_site_type_symbol
_atom_site_fract_x
_atom_site_fract_y
_atom_site_fract_z
C1 C -0.5725(3) 0.0729(2) 0.2076(2)
C2 C -0.6623(3) -0.0312(2) 0.2296(2)
C3 C -0.8332(3) -0.0258(2) 0.3088(2)
C4 C -0.9116(3) 0.0815(2) 0.3623(2)
C5 C -0.8220(3) 0.1847(2) 0.3407(2)
C6 C -0.6448(3) 0.1799(2) 0.2637(2)
C7 C -0.5122(3) 0.2662(2) 0.2194(2)
C8 C -0.5206(3) 0.3912(2) 0.2455(2)
C9 C -0.5945(3) 0.4406(2) 0.3415(2)
C10 C -0.6375(3) 0.5786(2) 0.3382(2)
C11 C -0.7878(3) 0.5003(2) 0.5089(2)
C12 C -0.6702(3) 0.3915(2) 0.4548(2)
C13 C -0.6215(3) 0.2773(2) 0.5114(2)
C14 C -0.7273(4) 0.2404(3) 0.6262(2)
C15 C -0.4537(3) 0.1820(2) 0.4660(2)
C16 C -0.3706(3) 0.2102(2) 0.1368(2)
C17 C -0.2766(4) -0.0026(2) 0.0652(2)
C18 C -0.2054(3) 0.2610(2) 0.0635(2)
C19 C -0.0451(3) 0.2672(2) 0.0998(2)
C20 C 0.1088(3) 0.3159(3) 0.0288(2)
C21 C 0.1027 0.3596 -0.0770
C22 C -0.0566 0.3545 -0.1142
C23 C -0.2098 0.3044 -0.0451
O1 O -0.5921 0.6590 0.2653
O2 O -0.8909 0.5105 0.5983
O3 O -0.7561 0.6104 0.4376
N1 N -0.4057 0.0934 0.1306
loop_
_geom_bond_atom_site_label_1
_geom_bond_atom_site_label_2
_geom_bond_site_symmetry_1
_geom_bond_site_symmetry_2
C1 C2 1_555 1_555
C2 C3 1_555 1_555
C3 C4 1_555 1_555
C4 C5 1_555 1_555
C5 C6 1_555 1_555
C6 C1 1_555 1_555
C7 C6 1_555 1_555
C8 C7 1_555 1_555
C9 C8 1_555 1_555
C10 C9 1_555 1_555
C11 C12 1_555 1_555
C12 C9 1_555 1_555
C13 C12 1_555 1_555
C14 C13 1_555 1_555
C15 C13 1_555 1_555
C16 C7 1_555 1_555
C17 N1 1_555 1_555
C18 C16 1_555 1_555
C19 C18 1_555 1_555
C20 C19 1_555 1_555
C21 C20 1_555 1_555
C22 C21 1_555 1_555
C23 C18 1_555 1_555
O1 C10 1_555 1_555
O2 C11 1_555 1_555
O3 C10 1_555 1_555
N1 C1 1_555 1_555
C11 O3 1_555 1_555
C16 N1 1_555 1_555
C22 C23 1_555 1_555

#END
