
#######################################################################
#
#                 Cambridge Crystallographic Data Centre
#                                CCDC 
#
#######################################################################
#
# If this CIF has been generated from an entry in the Cambridge 
# Structural Database, then it will include bibliographic, chemical, 
# crystal, experimental, refinement or atomic coordinate data resulting 
# from the CCDC's data processing and validation procedures.
#
#######################################################################

data_VERPEP
_chemical_formula_moiety         'C40 H68 K2 N2 O5'
_chemical_name_systematic        
"(\m~2~-\h^4^-N,N'-butane-2,3-diylidenebis(2,6-diisopropylaniline))-bis( 1,2-dimethoxyethane)-(tetrahydrofuran)-di-potassium"
_symmetry_cell_setting           triclinic
_symmetry_space_group_name_H-M   'P -1'
_symmetry_Int_Tables_number      2
_space_group_name_Hall           '-P 1'
loop_
_symmetry_equiv_pos_site_id
_symmetry_equiv_pos_as_xyz
1 x,y,z
2 -x,-y,-z
_cell_length_a                   10.847(2)
_cell_length_b                   11.184(3)
_cell_length_c                   19.628(4)
_cell_angle_alpha                73.746(3)
_cell_angle_beta                 74.564(3)
_cell_angle_gamma                71.139(3)
_cell_volume                     2122.38
_exptl_crystal_colour            'red purple'
_exptl_crystal_description       block
_cell_formula_units_Z            2
loop_
_atom_site_label
_atom_site_type_symbol
_atom_site_fract_x
_atom_site_fract_y
_atom_site_fract_z
K1 K 0.75518(11) 0.64844(12) 0.18899(6)
K2 K 0.48962(13) 0.74480(13) 0.36015(7)
O1 O 0.7686(6) 0.8893(5) 0.1832(3)
O2 O 1.0175(4) 0.6205(4) 0.1371(2)
O3 O 0.8536(4) 0.6453(4) 0.0440(2)
O4 O 0.4420(6) 0.9962(5) 0.3710(3)
O5 O 0.2689(4) 0.8499(5) 0.4518(2)
N1 N 0.7029(4) 0.5442(4) 0.3314(2)
N2 N 0.5003(4) 0.6470(4) 0.2482(2)
C1 C 0.6044(5) 0.4814(4) 0.3411(2)
C2 C 0.5062(5) 0.5303(5) 0.3011(2)
C3 C 0.5942(5) 0.3744(5) 0.4083(3)
H1 H 0.5528 0.4118 0.4500
H2 H 0.6815 0.3202 0.4138
H3 H 0.5418 0.3234 0.4036
C4 C 0.3834(5) 0.4815(5) 0.3224(3)
H4 H 0.4082 0.3891 0.3380
H5 H 0.3409 0.5054 0.2816
H6 H 0.3231 0.5191 0.3613
C5 C 0.8273(5) 0.4775(5) 0.3446(2)
C6 C 0.8927(5) 0.5402(5) 0.3740(2)
C7 C 1.0177(5) 0.4791(5) 0.3896(3)
H7 H 1.0558 0.5210 0.4098
C8 C 1.0882(5) 0.3583(6) 0.3764(3)
H8 H 1.1713 0.3178 0.3885
C9 C 1.0311(5) 0.2992(5) 0.3443(3)
H9 H 1.0786 0.2188 0.3339
C10 C 0.9054(5) 0.3554(5) 0.3272(3)
C11 C 0.8175(5) 0.6721(5) 0.3912(3)
H10 H 0.7689 0.7216 0.3521
C12 C 0.7148(6) 0.6584(6) 0.4617(3)
H11 H 0.6608 0.6070 0.4593
H12 H 0.6595 0.7425 0.4681
H13 H 0.7597 0.6171 0.5016
C13 C 0.9052(6) 0.7515(6) 0.3962(3)
H14 H 0.9425 0.7130 0.4390
H15 H 0.8525 0.8383 0.3984
H16 H 0.9754 0.7530 0.3544
C14 C 0.8615(5) 0.2891(5) 0.2836(3)
H17 H 0.7710 0.3380 0.2770
C15 C 0.8599(7) 0.1480(6) 0.3219(4)
H18 H 0.8203 0.1146 0.2956
H19 H 0.8093 0.1463 0.3702
H20 H 0.9493 0.0958 0.3236
C16 C 0.9509(6) 0.2901(6) 0.2088(3)
H21 H 0.9469 0.3778 0.1835
H22 H 0.9213 0.2486 0.1819
H23 H 1.0408 0.2446 0.2140
C17 C 0.4594(4) 0.6684(5) 0.1848(3)
C18 C 0.4763(5) 0.5743(5) 0.1432(3)
C19 C 0.4346(5) 0.6157(5) 0.0770(3)
H24 H 0.4446 0.5537 0.0513
C20 C 0.3797(6) 0.7423(6) 0.0481(3)
H25 H 0.3528 0.7658 0.0038
C21 C 0.3650(5) 0.8347(5) 0.0863(3)
H26 H 0.3303 0.9214 0.0665
C22 C 0.4004(5) 0.8015(5) 0.1526(3)
C23 C 0.5485(5) 0.4318(5) 0.1647(3)
H27 H 0.5700 0.4172 0.2124
C24 C 0.4642(6) 0.3408(6) 0.1703(4)
H28 H 0.3827 0.3619 0.2043
H29 H 0.5125 0.2529 0.1864
H30 H 0.4449 0.3509 0.1237
C25 C 0.6788(6) 0.3967(6) 0.1112(3)
H31 H 0.6601 0.4070 0.0644
H32 H 0.7260 0.3085 0.1275
H33 H 0.7322 0.4525 0.1079
C26 C 0.3726(6) 0.9027(5) 0.1969(3)
H34 H 0.4499 0.8835 0.2189
C27 C 0.2533(6) 0.8927(6) 0.2579(3)
H35 H 0.1739 0.9230 0.2383
H36 H 0.2471 0.9445 0.2909
H37 H 0.2637 0.8041 0.2832
C28 C 0.3503(8) 1.0429(6) 0.1524(4)
H38 H 0.2683 1.0685 0.1355
H39 H 0.4223 1.0480 0.1117
H40 H 0.3463 1.0995 0.1822
C29 C 0.8879(5) 0.8965(5) 0.1977(2)
H41 H 0.9406 0.8109 0.2166
H42 H 0.8676 0.9496 0.2329
C30 C 0.9601(9) 0.9547(9) 0.1282(5)
H43 H 1.0276 0.8883 0.1058
H44 H 1.0027 1.0133 0.1351
C31 C 0.8582(8) 1.0266(8) 0.0819(5)
H45 H 0.8830 0.9983 0.0366
H46 H 0.8481 1.1190 0.0716
C32 C 0.7311(9) 0.9950(8) 0.1260(5)
H47 H 0.6709 1.0688 0.1450
H48 H 0.6874 0.9716 0.0965
C33 C 1.1146(7) 0.5605(8) 0.1826(4)
H49 H 1.1532 0.4717 0.1790
H50 H 1.0725 0.5648 0.2319
H51 H 1.1828 0.6050 0.1674
C34 C 1.0707(6) 0.6032(7) 0.0653(3)
H52 H 1.0916 0.5125 0.0644
H53 H 1.1520 0.6302 0.0474
C35 C 0.9735(7) 0.6803(7) 0.0187(3)
H54 H 0.9569 0.7714 0.0176
H55 H 1.0100 0.6671 -0.0302
C36 C 0.7541(8) 0.7206(7) 0.0025(4)
H56 H 0.7345 0.8100 0.0040
H57 H 0.6751 0.6917 0.0221
H58 H 0.7859 0.7108 -0.0468
C37 C 0.1544(4) 0.8089(5) 0.4678(2)
H59 H 0.1055 0.8221 0.5149
H60 H 0.1781 0.7186 0.4672
H61 H 0.1005 0.8576 0.4323
C38 C 0.2421(7) 0.9833(7) 0.4516(4)
H62 H 0.1934 0.9990 0.4989
H63 H 0.1869 1.0347 0.4165
C39 C 0.3627(8) 1.0229(8) 0.4343(5)
H64 H 0.3399 1.1153 0.4314
H65 H 0.4118 0.9798 0.4731
C40 C 0.5525(6) 1.0453(5) 0.3462(3)
H66 H 0.5244 1.1374 0.3415
H67 H 0.5979 1.0250 0.3000
H68 H 0.6114 1.0072 0.3800
loop_
_geom_bond_atom_site_label_1
_geom_bond_atom_site_label_2
_geom_bond_site_symmetry_1
_geom_bond_site_symmetry_2
K1 O1 1_555 1_555
K2 O4 1_555 1_555
O1 C29 1_555 1_555
O2 K1 1_555 1_555
O3 K1 1_555 1_555
O4 C39 1_555 1_555
O5 K2 1_555 1_555
N1 K1 1_555 1_555
N2 K1 1_555 1_555
C1 K2 1_555 1_555
C2 K2 1_555 1_555
C3 C1 1_555 1_555
H1 C3 1_555 1_555
H2 C3 1_555 1_555
H3 C3 1_555 1_555
C4 C2 1_555 1_555
H4 C4 1_555 1_555
H5 C4 1_555 1_555
H6 C4 1_555 1_555
C5 N1 1_555 1_555
C6 C5 1_555 1_555
C7 C6 1_555 1_555
H7 C7 1_555 1_555
C8 C7 1_555 1_555
H8 C8 1_555 1_555
C9 C8 1_555 1_555
H9 C9 1_555 1_555
C10 C5 1_555 1_555
C11 C6 1_555 1_555
H10 C11 1_555 1_555
C12 C11 1_555 1_555
H11 C12 1_555 1_555
H12 C12 1_555 1_555
H13 C12 1_555 1_555
C13 C11 1_555 1_555
H14 C13 1_555 1_555
H15 C13 1_555 1_555
H16 C13 1_555 1_555
C14 C10 1_555 1_555
H17 C14 1_555 1_555
C15 C14 1_555 1_555
H18 C15 1_555 1_555
H19 C15 1_555 1_555
H20 C15 1_555 1_555
C16 C14 1_555 1_555
H21 C16 1_555 1_555
H22 C16 1_555 1_555
H23 C16 1_555 1_555
C17 N2 1_555 1_555
C18 C17 1_555 1_555
C19 C18 1_555 1_555
H24 C19 1_555 1_555
C20 C19 1_555 1_555
H25 C20 1_555 1_555
C21 C20 1_555 1_555
H26 C21 1_555 1_555
C22 C17 1_555 1_555
C23 C18 1_555 1_555
H27 C23 1_555 1_555
C24 C23 1_555 1_555
H28 C24 1_555 1_555
H29 C24 1_555 1_555
H30 C24 1_555 1_555
C25 C23 1_555 1_555
H31 C25 1_555 1_555
H32 C25 1_555 1_555
H33 C25 1_555 1_555
C26 C22 1_555 1_555
H34 C26 1_555 1_555
C27 C26 1_555 1_555
H35 C27 1_555 1_555
H36 C27 1_555 1_555
H37 C27 1_555 1_555
C28 C26 1_555 1_555
H38 C28 1_555 1_555
H39 C28 1_555 1_555
H40 C28 1_555 1_555
C29 H41 1_555 1_555
H42 C29 1_555 1_555
C30 C29 1_555 1_555
H43 C30 1_555 1_555
H44 C30 1_555 1_555
C31 C30 1_555 1_555
H45 C31 1_555 1_555
H46 C31 1_555 1_555
C32 O1 1_555 1_555
H47 C32 1_555 1_555
H48 C32 1_555 1_555
C33 O2 1_555 1_555
H49 C33 1_555 1_555
H50 C33 1_555 1_555
H51 C33 1_555 1_555
C34 O2 1_555 1_555
H52 C34 1_555 1_555
H53 C34 1_555 1_555
C35 O3 1_555 1_555
H54 C35 1_555 1_555
H55 C35 1_555 1_555
C36 O3 1_555 1_555
H56 C36 1_555 1_555
H57 C36 1_555 1_555
H58 C36 1_555 1_555
C37 O5 1_555 1_555
H59 C37 1_555 1_555
H60 C37 1_555 1_555
H61 C37 1_555 1_555
C38 O5 1_555 1_555
H62 C38 1_555 1_555
H63 C38 1_555 1_555
C39 C38 1_555 1_555
H64 C39 1_555 1_555
H65 C39 1_555 1_555
C40 O4 1_555 1_555
H66 C40 1_555 1_555
H67 C40 1_555 1_555
H68 C40 1_555 1_555
K2 N1 1_555 1_555
K2 N2 1_555 1_555
N1 C1 1_555 1_555
N2 C2 1_555 1_555
C1 C2 1_555 1_555
C9 C10 1_555 1_555
C21 C22 1_555 1_555
C31 C32 1_555 1_555
C34 C35 1_555 1_555

#END
