
#######################################################################
#
#                 Cambridge Crystallographic Data Centre
#                                CCDC 
#
#######################################################################
#
# If this CIF has been generated from an entry in the Cambridge 
# Structural Database, then it will include bibliographic, chemical, 
# crystal, experimental, refinement or atomic coordinate data resulting 
# from the CCDC's data processing and validation procedures.
#
#######################################################################

data_VERTEU
_chemical_formula_moiety         'C19 H18 N2 O2'
_chemical_name_systematic        
'(propane-1,1-diyl)bis(2-methyl-4,1-phenylene) dicyanate'
_symmetry_cell_setting           monoclinic
_symmetry_space_group_name_H-M   'P 21/c'
_symmetry_Int_Tables_number      14
_space_group_name_Hall           '-P 2ybc'
loop_
_symmetry_equiv_pos_site_id
_symmetry_equiv_pos_as_xyz
1 x,y,z
2 -x,1/2+y,1/2-z
3 -x,-y,-z
4 x,1/2-y,1/2+z
_cell_length_a                   15.4562(3)
_cell_length_b                   7.53390(10)
_cell_length_c                   14.6833(3)
_cell_angle_alpha                90
_cell_angle_beta                 110.8700(10)
_cell_angle_gamma                90
_cell_volume                     1597.63
_exptl_crystal_colour            colorless
_exptl_crystal_description       needle
_cell_formula_units_Z            4
_exptl_crystal_recrystallization_method 'Re-crystallisation from solvent'
loop_
_atom_site_label
_atom_site_type_symbol
_atom_site_fract_x
_atom_site_fract_y
_atom_site_fract_z
O1 O 0.50917(14) 0.7838(3) 0.49504(15)
O2 O -0.11568(14) 0.6701(3) 0.06525(15)
N1 N 0.65767(18) 0.8454(4) 0.47795(19)
N2 N -0.1355(2) 0.9638(4) -0.0073(2)
C1 C 0.2421(2) 0.3531(4) 0.2109(2)
H1 H 0.261062 0.345226 0.152615
C2 C 0.2446(2) 0.1662(4) 0.2507(3)
H2 H 0.193595 0.096357 0.204244
H3 H 0.233450 0.172421 0.312961
C3 C 0.3364(2) 0.0687(4) 0.2682(2)
H4 H 0.335167 -0.046643 0.298544
H5 H 0.387740 0.139863 0.311370
H6 H 0.344914 0.050702 0.205803
C4 C 0.3129(2) 0.4708(4) 0.2860(2)
C5 C 0.3014(2) 0.5237(4) 0.3718(2)
H7 H 0.247121 0.486966 0.382659
C6 C 0.36603(19) 0.6286(4) 0.4432(2)
C7 C 0.44397(19) 0.6761(4) 0.4223(2)
C8 C 0.4580(2) 0.6282(4) 0.3381(2)
H8 H 0.511827 0.665716 0.326495
C9 C 0.3919(2) 0.5240(4) 0.2705(2)
H9 H 0.401135 0.488705 0.212583
C10 C 0.3530(2) 0.6863(4) 0.5348(2)
H10 H 0.304220 0.614776 0.544880
H11 H 0.335304 0.811789 0.529598
H12 H 0.411082 0.670045 0.590176
C11 C 0.5875(2) 0.8145(4) 0.4842(2)
C12 C 0.1461(2) 0.4382(4) 0.1775(2)
C13 C 0.0676(2) 0.3548(4) 0.1843(2)
H13 H 0.074371 0.242696 0.215640
C14 C -0.02020(19) 0.4316(4) 0.1463(2)
C15 C -0.02459(19) 0.5956(4) 0.10367(19)
C16 C 0.0504(2) 0.6843(4) 0.0960(2)
H14 H 0.043611 0.797506 0.065798
C17 C 0.1360(2) 0.6029(4) 0.1337(2)
H15 H 0.188928 0.661382 0.129464
C18 C -0.1055(2) 0.3378(4) 0.1493(2)
H16 H -0.087707 0.223756 0.182847
H17 H -0.148523 0.317284 0.082595
H18 H -0.135646 0.411490 0.184285
C19 C -0.1242(2) 0.8260(4) 0.0268(2)
loop_
_geom_bond_atom_site_label_1
_geom_bond_atom_site_label_2
_geom_bond_site_symmetry_1
_geom_bond_site_symmetry_2
O1 C7 1_555 1_555
O2 C15 1_555 1_555
N1 C11 1_555 1_555
N2 C19 1_555 1_555
C1 H1 1_555 1_555
C2 C1 1_555 1_555
H2 C2 1_555 1_555
H3 C2 1_555 1_555
C3 C2 1_555 1_555
H4 C3 1_555 1_555
H5 C3 1_555 1_555
H6 C3 1_555 1_555
C4 C1 1_555 1_555
C5 C4 1_555 1_555
H7 C5 1_555 1_555
C6 C5 1_555 1_555
C7 C6 1_555 1_555
C8 C7 1_555 1_555
H8 C8 1_555 1_555
C9 C4 1_555 1_555
H9 C9 1_555 1_555
C10 C6 1_555 1_555
H10 C10 1_555 1_555
H11 C10 1_555 1_555
H12 C10 1_555 1_555
C11 O1 1_555 1_555
C12 C1 1_555 1_555
C13 C12 1_555 1_555
H13 C13 1_555 1_555
C14 C13 1_555 1_555
C15 C14 1_555 1_555
C16 C15 1_555 1_555
H14 C16 1_555 1_555
C17 C12 1_555 1_555
H15 C17 1_555 1_555
C18 C14 1_555 1_555
H16 C18 1_555 1_555
H17 C18 1_555 1_555
H18 C18 1_555 1_555
C19 O2 1_555 1_555
C8 C9 1_555 1_555
C16 C17 1_555 1_555

#END
