
#######################################################################
#
#                 Cambridge Crystallographic Data Centre
#                                CCDC 
#
#######################################################################
#
# If this CIF has been generated from an entry in the Cambridge 
# Structural Database, then it will include bibliographic, chemical, 
# crystal, experimental, refinement or atomic coordinate data resulting 
# from the CCDC's data processing and validation procedures.
#
#######################################################################

data_VERTIY
_chemical_formula_moiety         'C19 H18 N2 O2'
_chemical_name_systematic        
'2-[1-(4-cyanato-2-methylphenyl)propyl]-5-methylphenyl cyanate'
_symmetry_cell_setting           monoclinic
_symmetry_space_group_name_H-M   'P 21/c'
_symmetry_Int_Tables_number      14
_space_group_name_Hall           '-P 2ybc'
loop_
_symmetry_equiv_pos_site_id
_symmetry_equiv_pos_as_xyz
1 x,y,z
2 -x,1/2+y,1/2-z
3 -x,-y,-z
4 x,1/2-y,1/2+z
_cell_length_a                   8.9181(2)
_cell_length_b                   13.2369(3)
_cell_length_c                   13.9909(3)
_cell_angle_alpha                90
_cell_angle_beta                 107.1324(11)
_cell_angle_gamma                90
_cell_volume                     1578.31
_exptl_crystal_colour            colorless
_exptl_crystal_description       block
_cell_formula_units_Z            4
_exptl_crystal_recrystallization_method 'Re-crystallisation from solvent'
loop_
_atom_site_label
_atom_site_type_symbol
_atom_site_fract_x
_atom_site_fract_y
_atom_site_fract_z
O1 O 0.56469(10) 0.54728(7) 0.83352(6)
O2 O 0.86208(11) 0.46413(7) 0.34762(7)
N1 N 0.41069(15) 0.60895(12) 0.93939(10)
N2 N 0.87715(18) 0.57525(11) 0.21159(10)
C1 C 0.62797(14) 0.62155(10) 0.65644(9)
H1 H 0.541197 0.575108 0.659741
C2 C 0.55810(15) 0.72819(10) 0.63395(9)
H2 H 0.643985 0.776678 0.637214
H3 H 0.485958 0.729573 0.564956
C3 C 0.46923(17) 0.76222(11) 0.70593(10)
H4 H 0.427666 0.830399 0.687891
H5 H 0.540464 0.762647 0.774293
H6 H 0.382318 0.715534 0.701971
C4 C 0.74979(14) 0.62158(9) 0.75948(9)
C5 C 0.71702(14) 0.59178(9) 0.84596(9)
C6 C 0.82074(15) 0.59938(9) 0.94108(9)
H7 H 0.791233 0.577579 0.997680
C7 C 0.96912(15) 0.63956(9) 0.95237(9)
C8 C 1.00723(14) 0.66848(10) 0.86674(9)
H8 H 1.108902 0.694555 0.872943
C9 C 0.90007(14) 0.66003(10) 0.77276(9)
H9 H 0.929625 0.680944 0.715896
C10 C 0.48695(15) 0.58091(11) 0.89161(10)
C11 C 1.08494(16) 0.65405(11) 1.05455(10)
H10 H 1.065979 0.603254 1.100617
H11 H 1.072110 0.721751 1.079389
H12 H 1.191945 0.646555 1.049988
C12 C 0.69596(13) 0.58137(10) 0.57590(9)
C13 C 0.71911(13) 0.47685(10) 0.56758(9)
C14 C 0.77546(14) 0.44117(10) 0.49103(9)
H13 H 0.791227 0.370852 0.484404
C15 C 0.80814(14) 0.50883(10) 0.42495(9)
C16 C 0.79127(15) 0.61106(10) 0.43209(9)
H14 H 0.817499 0.656245 0.386741
C17 C 0.73422(15) 0.64616(10) 0.50835(9)
H15 H 0.720914 0.716826 0.514541
C18 C 0.86994(17) 0.52420(11) 0.27613(10)
C19 C 0.68268(16) 0.40274(10) 0.63906(10)
H16 H 0.575024 0.413393 0.641318
H17 H 0.755916 0.412769 0.705976
H18 H 0.693333 0.333747 0.616502
loop_
_geom_bond_atom_site_label_1
_geom_bond_atom_site_label_2
_geom_bond_site_symmetry_1
_geom_bond_site_symmetry_2
O1 C5 1_555 1_555
O2 C15 1_555 1_555
N1 C10 1_555 1_555
N2 C18 1_555 1_555
C1 H1 1_555 1_555
C2 C1 1_555 1_555
H2 C2 1_555 1_555
H3 C2 1_555 1_555
C3 C2 1_555 1_555
H4 C3 1_555 1_555
H5 C3 1_555 1_555
H6 C3 1_555 1_555
C4 C1 1_555 1_555
C5 C4 1_555 1_555
C6 C5 1_555 1_555
H7 C6 1_555 1_555
C7 C6 1_555 1_555
C8 C7 1_555 1_555
H8 C8 1_555 1_555
C9 C4 1_555 1_555
H9 C9 1_555 1_555
C10 O1 1_555 1_555
C11 C7 1_555 1_555
H10 C11 1_555 1_555
H11 C11 1_555 1_555
H12 C11 1_555 1_555
C12 C1 1_555 1_555
C13 C12 1_555 1_555
C14 C13 1_555 1_555
H13 C14 1_555 1_555
C15 C14 1_555 1_555
C16 C15 1_555 1_555
H14 C16 1_555 1_555
C17 C12 1_555 1_555
H15 C17 1_555 1_555
C18 O2 1_555 1_555
C19 C13 1_555 1_555
H16 C19 1_555 1_555
H17 C19 1_555 1_555
H18 C19 1_555 1_555
C8 C9 1_555 1_555
C16 C17 1_555 1_555

#END
