
#######################################################################
#
#                 Cambridge Crystallographic Data Centre
#                                CCDC 
#
#######################################################################
#
# If this CIF has been generated from an entry in the Cambridge 
# Structural Database, then it will include bibliographic, chemical, 
# crystal, experimental, refinement or atomic coordinate data resulting 
# from the CCDC's data processing and validation procedures.
#
#######################################################################

data_VERVUK
_chemical_formula_moiety         'C16 H13 N1 O4 S1'
_chemical_name_systematic        
2-(2-(phenylsulfonyl)ethyl)isoindoline-1,3-dione
_symmetry_cell_setting           orthorhombic
_symmetry_space_group_name_H-M   'P 21 21 21'
_symmetry_Int_Tables_number      19
_space_group_name_Hall           'P 2ac 2ab'
loop_
_symmetry_equiv_pos_site_id
_symmetry_equiv_pos_as_xyz
1 x,y,z
2 1/2-x,-y,1/2+z
3 -x,1/2+y,1/2-z
4 1/2+x,1/2-y,-z
_cell_length_a                   5.6147(6)
_cell_length_b                   14.1789(16)
_cell_length_c                   18.483(2)
_cell_angle_alpha                90
_cell_angle_beta                 90
_cell_angle_gamma                90
_cell_volume                     1471.44
_exptl_crystal_colour            colorless
_exptl_crystal_description       needle
_cell_formula_units_Z            4
_exptl_crystal_recrystallization_method ethanol
loop_
_atom_site_label
_atom_site_type_symbol
_atom_site_fract_x
_atom_site_fract_y
_atom_site_fract_z
S1 S 0.78169(9) 0.39492(3) 0.33659(3)
N1 N 0.7051(3) 0.47245(10) 0.49933(8)
O1 O 0.7709(4) 0.34296(9) 0.57140(8)
O2 O 0.7320(3) 0.62079(9) 0.44792(8)
O3 O 1.0103(3) 0.41404(11) 0.36816(9)
O4 O 0.6646(3) 0.46912(9) 0.29792(8)
C1 C 0.8076(3) 0.29664(12) 0.27838(9)
C2 C 1.0024(4) 0.23791(13) 0.28370(12)
H1 H 1.1199 0.2494 0.3180
C3 C 1.0211(4) 0.16188(14) 0.23752(13)
H2 H 1.1529 0.1223 0.2401
C4 C 0.8447(4) 0.14458(15) 0.18763(12)
H3 H 0.8568 0.0929 0.1569
C5 C 0.6517(4) 0.20291(16) 0.18307(12)
H4 H 0.5325 0.1903 0.1495
C6 C 0.6322(4) 0.28043(15) 0.22786(11)
H5 H 0.5027 0.3210 0.2240
C7 C 0.5867(4) 0.35556(14) 0.40582(11)
H6 H 0.4461 0.3280 0.3839
H7 H 0.6655 0.3068 0.4338
C8 C 0.5116(4) 0.43448(16) 0.45610(12)
H8 H 0.4431 0.4850 0.4275
H9 H 0.3885 0.4111 0.4883
C9 C 0.8208(4) 0.42276(13) 0.55357(10)
C10 C 0.8027(4) 0.56265(13) 0.48987(10)
C11 C 1.0101(4) 0.48587(13) 0.58110(10)
C12 C 1.0034(4) 0.56908(13) 0.54219(10)
C13 C 1.1646(5) 0.64069(15) 0.55442(13)
H10 H 1.1598 0.6967 0.5282
C14 C 1.3350(5) 0.6252(2) 0.60782(14)
H11 H 1.4480 0.6716 0.6172
C15 C 1.3400(5) 0.5428(2) 0.64706(14)
H12 H 1.4550 0.5349 0.6828
C16 C 1.1779(5) 0.47182(17) 0.63447(11)
H13 H 1.1815 0.4162 0.6611
loop_
_geom_bond_atom_site_label_1
_geom_bond_atom_site_label_2
_geom_bond_site_symmetry_1
_geom_bond_site_symmetry_2
S1 O3 1_555 1_555
N1 C8 1_555 1_555
O1 C9 1_555 1_555
O2 C10 1_555 1_555
O4 S1 1_555 1_555
C1 S1 1_555 1_555
C2 C1 1_555 1_555
H1 C2 1_555 1_555
C3 C2 1_555 1_555
H2 C3 1_555 1_555
C4 C3 1_555 1_555
H3 C4 1_555 1_555
C5 C4 1_555 1_555
H4 C5 1_555 1_555
C6 C1 1_555 1_555
H5 C6 1_555 1_555
C7 S1 1_555 1_555
H6 C7 1_555 1_555
H7 C7 1_555 1_555
C8 C7 1_555 1_555
H8 C8 1_555 1_555
H9 C8 1_555 1_555
C9 N1 1_555 1_555
C10 N1 1_555 1_555
C11 C9 1_555 1_555
C12 C10 1_555 1_555
C13 C12 1_555 1_555
H10 C13 1_555 1_555
C14 C13 1_555 1_555
H11 C14 1_555 1_555
C15 C14 1_555 1_555
H12 C15 1_555 1_555
C16 C11 1_555 1_555
H13 C16 1_555 1_555
C5 C6 1_555 1_555
C11 C12 1_555 1_555
C15 C16 1_555 1_555

#END
