
#######################################################################
#
#                 Cambridge Crystallographic Data Centre
#                                CCDC 
#
#######################################################################
#
# If this CIF has been generated from an entry in the Cambridge 
# Structural Database, then it will include bibliographic, chemical, 
# crystal, experimental, refinement or atomic coordinate data resulting 
# from the CCDC's data processing and validation procedures.
#
#######################################################################

data_VERYOH
_chemical_name_common            
3-((2,5-dioxo-3-pyrrolin-1-yl)acetyl)-2-(2-(4-methoxyphenyl)vinyl)-2-phenyl-2,3-dihydro-1,3-benzothiazole
_chemical_formula_moiety         'C28 H22 N2 O4 S1'
_chemical_name_systematic        
2-(2-(4-Methoxyphenyl)vinyl)-3-((2-maleimidyl)acetyl)-2-phenyl-2,3-dihydro-1,3-benzothiazole
_symmetry_cell_setting           monoclinic
_symmetry_space_group_name_H-M   'P 21/n'
_symmetry_Int_Tables_number      14
_space_group_name_Hall           '-P 2yn'
loop_
_symmetry_equiv_pos_site_id
_symmetry_equiv_pos_as_xyz
1 x,y,z
2 1/2-x,1/2+y,1/2-z
3 -x,-y,-z
4 1/2+x,1/2-y,1/2+z
_cell_length_a                   9.970(5)
_cell_length_b                   10.191(5)
_cell_length_c                   23.941(11)
_cell_angle_alpha                90
_cell_angle_beta                 94.310(7)
_cell_angle_gamma                90
_cell_volume                     2425.63
_exptl_crystal_colour            colorless
_exptl_crystal_description       block
_cell_formula_units_Z            4
loop_
_atom_site_label
_atom_site_type_symbol
_atom_site_fract_x
_atom_site_fract_y
_atom_site_fract_z
S1 S 0.47726(6) 0.51328(5) 0.08892(2)
O1 O -0.04815(19) 0.11811(18) -0.14953(8)
O2 O 0.48525(19) 0.12135(15) 0.20196(7)
O3 O 0.8038(2) 0.01662(18) 0.21663(8)
O4 O 0.4564(2) -0.16266(18) 0.11186(9)
N1 N 0.47664(15) 0.27929(14) 0.13590(6)
N2 N 0.63509(18) -0.04743(15) 0.15230(7)
C1 C 0.1723(2) 0.0603(2) -0.02253(9)
H1 H 0.1947 -0.0057 0.0033
C2 C 0.0798(2) 0.0340(2) -0.06707(9)
H2 H 0.0422 -0.0493 -0.0714
C3 C -0.1074(4) -0.0070(3) -0.15874(14)
H3 H -0.0383 -0.0709 -0.1633
H4 H -0.1676 -0.0046 -0.1920
H5 H -0.1566 -0.0304 -0.1272
C4 C 0.1032(2) 0.2537(2) -0.09825(10)
H6 H 0.0805 0.3202 -0.1238
C5 C 0.1955(2) 0.2770(2) -0.05411(9)
H7 H 0.2345 0.3597 -0.0501
C6 C 0.2320(2) 0.1809(2) -0.01541(8)
C7 C 0.3290(2) 0.2061(2) 0.03326(8)
H8 H 0.3181 0.1594 0.0660
C8 C 0.42845(19) 0.2891(2) 0.03347(7)
H9 H 0.4464 0.3233 -0.0012
C9 C 0.51688(19) 0.33594(17) 0.08219(7)
C10 C 0.66753(19) 0.33310(17) 0.07491(8)
C11 C 0.7171(2) 0.2987(2) 0.02465(9)
H10 H 0.6587 0.2703 -0.0050
C12 C 0.8543(3) 0.3064(3) 0.01840(14)
H11 H 0.8870 0.2843 -0.0157
C13 C 0.9413(3) 0.3460(3) 0.0616(2)
H12 H 1.0330 0.3511 0.0571
C14 C 0.8931(3) 0.3781(3) 0.11135(16)
H13 H 0.9527 0.4030 0.1412
C15 C 0.7569(2) 0.3745(2) 0.11843(10)
H14 H 0.7253 0.3998 0.1524
C16 C 0.3576(2) 0.47935(18) 0.13649(8)
C17 C 0.2615(2) 0.5654(2) 0.15317(9)
H15 H 0.2533 0.6489 0.1377
C18 C 0.1779(2) 0.5255(2) 0.19318(9)
H16 H 0.1133 0.5826 0.2052
C19 C 0.1901(2) 0.4021(3) 0.21515(8)
H17 H 0.1325 0.3762 0.2419
C20 C 0.2860(2) 0.3139(2) 0.19868(8)
H18 H 0.2925 0.2301 0.2140
C21 C 0.37187(19) 0.35372(17) 0.15892(7)
C22 C 0.5196(2) 0.16048(18) 0.15752(8)
C23 C 0.6122(2) 0.07637(19) 0.12467(9)
H19 H 0.5716 0.0621 0.0871
H20 H 0.6972 0.1213 0.1219
C24 C 0.7253(3) -0.0644(2) 0.19840(10)
C25 C 0.7005(3) -0.1992(2) 0.21900(10)
H21 H 0.7496 -0.2404 0.2486
C26 C 0.5996(3) -0.2501(2) 0.18928(11)
H22 H 0.5646 -0.3335 0.1942
C27 C 0.5491(3) -0.1543(2) 0.14641(10)
C28 C 0.0437(2) 0.1318(2) -0.10499(9)
loop_
_geom_bond_atom_site_label_1
_geom_bond_atom_site_label_2
_geom_bond_site_symmetry_1
_geom_bond_site_symmetry_2
S1 C9 1_555 1_555
O1 C3 1_555 1_555
O2 C22 1_555 1_555
O3 C24 1_555 1_555
O4 C27 1_555 1_555
N1 C9 1_555 1_555
N2 C23 1_555 1_555
C1 H1 1_555 1_555
C2 C1 1_555 1_555
H2 C2 1_555 1_555
C3 H3 1_555 1_555
H4 C3 1_555 1_555
H5 C3 1_555 1_555
C4 H6 1_555 1_555
C5 C4 1_555 1_555
H7 C5 1_555 1_555
C6 C1 1_555 1_555
C7 C6 1_555 1_555
H8 C7 1_555 1_555
C8 C7 1_555 1_555
H9 C8 1_555 1_555
C9 C8 1_555 1_555
C10 C9 1_555 1_555
C11 C10 1_555 1_555
H10 C11 1_555 1_555
C12 C11 1_555 1_555
H11 C12 1_555 1_555
C13 C12 1_555 1_555
H12 C13 1_555 1_555
C14 C13 1_555 1_555
H13 C14 1_555 1_555
C15 C10 1_555 1_555
H14 C15 1_555 1_555
C16 S1 1_555 1_555
C17 C16 1_555 1_555
H15 C17 1_555 1_555
C18 C17 1_555 1_555
H16 C18 1_555 1_555
C19 C18 1_555 1_555
H17 C19 1_555 1_555
C20 C19 1_555 1_555
H18 C20 1_555 1_555
C21 N1 1_555 1_555
C22 N1 1_555 1_555
C23 C22 1_555 1_555
H19 C23 1_555 1_555
H20 C23 1_555 1_555
C24 N2 1_555 1_555
C25 C24 1_555 1_555
H21 C25 1_555 1_555
C26 C25 1_555 1_555
H22 C26 1_555 1_555
C27 N2 1_555 1_555
C28 O1 1_555 1_555
C2 C28 1_555 1_555
C4 C28 1_555 1_555
C5 C6 1_555 1_555
C14 C15 1_555 1_555
C16 C21 1_555 1_555
C20 C21 1_555 1_555
C26 C27 1_555 1_555

#END
