
#######################################################################
#
#                 Cambridge Crystallographic Data Centre
#                                CCDC 
#
#######################################################################
#
# If this CIF has been generated from an entry in the Cambridge 
# Structural Database, then it will include bibliographic, chemical, 
# crystal, experimental, refinement or atomic coordinate data resulting 
# from the CCDC's data processing and validation procedures.
#
#######################################################################

data_VESBON
_chemical_formula_moiety         'C15 H16 F2 N2 O3'
_chemical_name_systematic        
't-butyl {3-[3-(difluoromethyl)-1,2-oxazol-5-yl]phenyl}carbamate'
_symmetry_cell_setting           monoclinic
_symmetry_space_group_name_H-M   'P 21/c'
_symmetry_Int_Tables_number      14
_space_group_name_Hall           '-P 2ybc'
loop_
_symmetry_equiv_pos_site_id
_symmetry_equiv_pos_as_xyz
1 x,y,z
2 -x,1/2+y,1/2-z
3 -x,-y,-z
4 x,1/2-y,1/2+z
_cell_length_a                   17.100(4)
_cell_length_b                   6.0269(8)
_cell_length_c                   15.738(3)
_cell_angle_alpha                90
_cell_angle_beta                 106.75(2)
_cell_angle_gamma                90
_cell_volume                     1553.14
_exptl_crystal_colour            colorless
_exptl_crystal_description       block
_cell_formula_units_Z            4
loop_
_atom_site_label
_atom_site_type_symbol
_atom_site_fract_x
_atom_site_fract_y
_atom_site_fract_z
F1 F 0.8386(2) 0.6265(8) 0.6454(3)
F2 F 0.8571(2) 0.8576(9) 0.5583(3)
N1 N 0.6715(2) 0.9433(7) 0.5539(3)
O1 O 0.59638(18) 0.8709(5) 0.4981(2)
C1 C 0.4597(2) 0.6690(6) 0.3802(2)
H1 H 0.4544 0.8082 0.4033
C2 C 0.5342(2) 0.5630(6) 0.4058(2)
C3 C 0.6064(2) 0.6682(7) 0.4663(3)
C4 C 0.3924(2) 0.5714(7) 0.3201(3)
C5 C 0.4008(3) 0.3630(7) 0.2861(3)
H2 H 0.3565 0.2960 0.2456
C6 C 0.5424(3) 0.3541(7) 0.3715(3)
H3 H 0.5926 0.2816 0.3879
C7 C 0.4753(3) 0.2557(7) 0.3126(3)
H4 H 0.4804 0.1150 0.2906
C8 C 0.6850(3) 0.6061(8) 0.4992(3)
H5 H 0.7090 0.4744 0.4887
C9 C 0.7226(3) 0.7850(8) 0.5529(3)
C10 C 0.8089(3) 0.8170(11) 0.6083(4)
H6 H 0.8131 0.9333 0.6529
N2 N 0.3181(2) 0.6889(6) 0.2978(2)
H7 H 0.3117 0.7844 0.3358
O2 O 0.2574(2) 0.5506(8) 0.1604(3)
O3 O 0.19219(18) 0.7944(5) 0.2267(2)
C11 C 0.1158(3) 0.7976(8) 0.1520(3)
C12 C 0.2552(3) 0.6664(9) 0.2217(3)
C13 C 0.0792(3) 0.5702(9) 0.1339(4)
H8 H 0.1150 0.4757 0.1133
H9 H 0.0273 0.5793 0.0895
H10 H 0.0717 0.5100 0.1876
C14 C 0.0612(3) 0.9459(10) 0.1879(4)
H11 H 0.0576 0.8879 0.2434
H12 H 0.0077 0.9508 0.1463
H13 H 0.0837 1.0929 0.1966
C15 C 0.1334(4) 0.9006(13) 0.0724(4)
H14 H 0.1619 1.0383 0.0893
H15 H 0.0830 0.9278 0.0273
H16 H 0.1666 0.8016 0.0498
loop_
_geom_bond_atom_site_label_1
_geom_bond_atom_site_label_2
_geom_bond_site_symmetry_1
_geom_bond_site_symmetry_2
F1 C10 1_555 1_555
F2 C10 1_555 1_555
N1 O1 1_555 1_555
O1 C3 1_555 1_555
C1 H1 1_555 1_555
C2 C1 1_555 1_555
C3 C2 1_555 1_555
C4 C1 1_555 1_555
C5 C4 1_555 1_555
H2 C5 1_555 1_555
C6 C2 1_555 1_555
H3 C6 1_555 1_555
C7 C5 1_555 1_555
H4 C7 1_555 1_555
C8 C3 1_555 1_555
H5 C8 1_555 1_555
C9 N1 1_555 1_555
C10 C9 1_555 1_555
H6 C10 1_555 1_555
N2 C4 1_555 1_555
H7 N2 1_555 1_555
O2 C12 1_555 1_555
O3 C11 1_555 1_555
C11 C13 1_555 1_555
C12 N2 1_555 1_555
C13 H8 1_555 1_555
H9 C13 1_555 1_555
H10 C13 1_555 1_555
C14 C11 1_555 1_555
H11 C14 1_555 1_555
H12 C14 1_555 1_555
H13 C14 1_555 1_555
C15 C11 1_555 1_555
H14 C15 1_555 1_555
H15 C15 1_555 1_555
H16 C15 1_555 1_555
C6 C7 1_555 1_555
C8 C9 1_555 1_555
O3 C12 1_555 1_555

#END
