
#######################################################################
#
#                 Cambridge Crystallographic Data Centre
#                                CCDC 
#
#######################################################################
#
# If this CIF has been generated from an entry in the Cambridge 
# Structural Database, then it will include bibliographic, chemical, 
# crystal, experimental, refinement or atomic coordinate data resulting 
# from the CCDC's data processing and validation procedures.
#
#######################################################################

data_VESBEA
_chemical_formula_moiety         'C22 H28 N4 O1'
_chemical_name_systematic        
7-(4-Methylpiperidinyl)-7-(2,6-dimethyl-N-morpholinyl)-8,8-dicyanoquinone
_symmetry_cell_setting           orthorhombic
_symmetry_space_group_name_H-M   'P 21 21 21'
_symmetry_Int_Tables_number      19
_space_group_name_Hall           'P 2ac 2ab'
loop_
_symmetry_equiv_pos_site_id
_symmetry_equiv_pos_as_xyz
1 x,y,z
2 1/2-x,-y,1/2+z
3 -x,1/2+y,1/2-z
4 1/2+x,1/2-y,-z
_cell_length_a                   8.5185(8)
_cell_length_b                   13.0243(10)
_cell_length_c                   19.2632(14)
_cell_angle_alpha                90
_cell_angle_beta                 90
_cell_angle_gamma                90
_cell_volume                     2137.2
_exptl_crystal_colour            yellow
_exptl_crystal_description       plate
_cell_formula_units_Z            4
_exptl_crystal_recrystallization_method acetonitrile
loop_
_atom_site_label
_atom_site_type_symbol
_atom_site_fract_x
_atom_site_fract_y
_atom_site_fract_z
O1 O 0.6904(5) 0.8670(3) 0.5782(2)
N1 N 0.5292(4) 0.8203(3) 0.7026(2)
N2 N 0.5046(4) 0.7766(3) 0.8198(2)
N3 N -0.0596(6) 0.3919(4) 0.5896(2)
N4 N -0.3470(6) 0.5471(4) 0.7492(3)
C1 C 0.3166(5) 0.7082(3) 0.7374(2)
C2 C 0.3173(5) 0.6419(3) 0.6805(2)
H1 H 0.4073(5) 0.6364(3) 0.6535(2)
C3 C 0.1876(5) 0.5845(3) 0.6639(2)
H2 H 0.1912(5) 0.5415(3) 0.6253(2)
C4 C 0.0486(5) 0.5892(3) 0.7038(2)
C5 C 0.0493(5) 0.6553(4) 0.7609(2)
H3 H -0.0399(5) 0.6602(4) 0.7885(2)
C6 C 0.1791(6) 0.7132(4) 0.7772(2)
H4 H 0.1754(6) 0.7567(4) 0.8154(2)
C7 C 0.4544(5) 0.7700(3) 0.7541(2)
C8 C -0.0852(6) 0.5270(4) 0.6855(2)
C9 C -0.0725(6) 0.4526(4) 0.6325(3)
C10 C -0.2295(7) 0.5361(4) 0.7205(3)
C11 C 0.4477(6) 0.8589(4) 0.6400(2)
H5 H 0.3417(6) 0.8318(4) 0.6390(2)
H6 H 0.4408(6) 0.9332(4) 0.6423(2)
C12 C 0.5307(8) 0.8288(5) 0.5754(2)
H7 H 0.5313(8) 0.7539(5) 0.5708(2)
C13 C 0.7738(7) 0.8234(5) 0.6354(3)
H8 H 0.7765(7) 0.7485(5) 0.6306(3)
C14 C 0.6957(6) 0.8517(4) 0.7029(2)
H9 H 0.7026(6) 0.9253(4) 0.7098(2)
H10 H 0.7497(6) 0.8183(4) 0.7410(2)
C15 C 0.4526(9) 0.8770(7) 0.5120(3)
H11 H 0.5075(35) 0.8564(30) 0.4707(3)
H12 H 0.3454(18) 0.8545(29) 0.5093(14)
H13 H 0.4555(49) 0.9505(7) 0.5161(12)
C16 C 0.9415(8) 0.8663(6) 0.6338(3)
H14 H 1.0017(17) 0.8357(28) 0.6705(16)
H15 H 0.9891(21) 0.8504(31) 0.5899(10)
H16 H 0.9388(8) 0.9394(8) 0.6400(24)
C17 C 0.4852(6) 0.6913(3) 0.8695(2)
H17 H 0.4209(6) 0.6382(3) 0.8486(2)
H18 H 0.5871(6) 0.6617(3) 0.8798(2)
C18 C 0.4084(6) 0.7270(4) 0.9369(2)
H19 H 0.4062(6) 0.6705(4) 0.9697(2)
H20 H 0.3009(6) 0.7474(4) 0.9277(2)
C19 C 0.4965(6) 0.8167(4) 0.9688(2)
H21 H 0.6023(6) 0.7932(4) 0.9811(2)
C20 C 0.5121(6) 0.9022(4) 0.9152(2)
H22 H 0.4086(6) 0.9289(4) 0.9045(2)
H23 H 0.5735(6) 0.9578(4) 0.9349(2)
C21 C 0.5902(6) 0.8661(4) 0.8482(2)
H24 H 0.6984(6) 0.8474(4) 0.8574(2)
H25 H 0.5898(6) 0.9214(4) 0.8145(2)
C22 C 0.4178(7) 0.8557(5) 1.0345(2)
H26 H 0.4792(23) 0.9103(18) 1.0541(10)
H27 H 0.3148(18) 0.8807(25) 1.0235(4)
H28 H 0.4097(37) 0.8006(8) 1.0675(7)
loop_
_geom_bond_atom_site_label_1
_geom_bond_atom_site_label_2
_geom_bond_site_symmetry_1
_geom_bond_site_symmetry_2
O1 C12 1_555 1_555
N1 C7 1_555 1_555
N2 C7 1_555 1_555
N3 C9 1_555 1_555
N4 C10 1_555 1_555
C1 C2 1_555 1_555
C2 H1 1_555 1_555
C3 C2 1_555 1_555
H2 C3 1_555 1_555
C4 C3 1_555 1_555
C5 C4 1_555 1_555
H3 C5 1_555 1_555
C6 C1 1_555 1_555
H4 C6 1_555 1_555
C7 C1 1_555 1_555
C8 C4 1_555 1_555
C9 C8 1_555 1_555
C10 C8 1_555 1_555
C11 N1 1_555 1_555
H5 C11 1_555 1_555
H6 C11 1_555 1_555
C12 C11 1_555 1_555
H7 C12 1_555 1_555
C13 O1 1_555 1_555
H8 C13 1_555 1_555
C14 N1 1_555 1_555
H9 C14 1_555 1_555
H10 C14 1_555 1_555
C15 C12 1_555 1_555
H11 C15 1_555 1_555
H12 C15 1_555 1_555
H13 C15 1_555 1_555
C16 C13 1_555 1_555
H14 C16 1_555 1_555
H15 C16 1_555 1_555
H16 C16 1_555 1_555
C17 N2 1_555 1_555
H17 C17 1_555 1_555
H18 C17 1_555 1_555
C18 C17 1_555 1_555
H19 C18 1_555 1_555
H20 C18 1_555 1_555
C19 C18 1_555 1_555
H21 C19 1_555 1_555
C20 C19 1_555 1_555
H22 C20 1_555 1_555
H23 C20 1_555 1_555
C21 N2 1_555 1_555
H24 C21 1_555 1_555
H25 C21 1_555 1_555
C22 C19 1_555 1_555
H26 C22 1_555 1_555
H27 C22 1_555 1_555
H28 C22 1_555 1_555
C5 C6 1_555 1_555
C13 C14 1_555 1_555
C20 C21 1_555 1_555

#END
