
#######################################################################
#
#                 Cambridge Crystallographic Data Centre
#                                CCDC 
#
#######################################################################
#
# If this CIF has been generated from an entry in the Cambridge 
# Structural Database, then it will include bibliographic, chemical, 
# crystal, experimental, refinement or atomic coordinate data resulting 
# from the CCDC's data processing and validation procedures.
#
#######################################################################

data_VESBAZ
_chemical_formula_moiety         'C15 H12 N2 O1 P1 1+,B1 F4 1-'
_chemical_name_systematic        
"6-methoxyphosphinolino[4',3':4,5]imidazo[1,2-a]pyridin-12-ium tetrafluoroborate"
_symmetry_cell_setting           monoclinic
_symmetry_space_group_name_H-M   'P 21/m'
_symmetry_Int_Tables_number      11
_space_group_name_Hall           '-P 2yb'
loop_
_symmetry_equiv_pos_site_id
_symmetry_equiv_pos_as_xyz
1 x,y,z
2 -x,1/2+y,-z
3 -x,-y,-z
4 x,1/2-y,z
_cell_length_a                   10.6527(14)
_cell_length_b                   6.8400(9)
_cell_length_c                   10.8254(14)
_cell_angle_alpha                90
_cell_angle_beta                 106.533(5)
_cell_angle_gamma                90
_cell_volume                     756.175
_exptl_crystal_colour            colorless
_exptl_crystal_description       needle
_cell_formula_units_Z            2
loop_
_atom_site_label
_atom_site_type_symbol
_atom_site_fract_x
_atom_site_fract_y
_atom_site_fract_z
P1 P 0.61803(7) 0.7500 0.33103(7)
O1 O 0.82707(18) 0.7500 0.54401(19)
N1 N 0.4621(2) 0.7500 0.67807(19)
H1 H 0.3845 0.7500 0.6870
N2 N 0.6763(2) 0.7500 0.7235(2)
C1 C 0.4910(2) 0.7500 0.5617(2)
C2 C 0.6254(2) 0.7500 0.5879(2)
C3 C 0.4002(2) 0.7500 0.4366(2)
C4 C 0.4507(3) 0.7500 0.3290(2)
C5 C 0.5737(2) 0.7500 0.7754(2)
C6 C 0.6953(2) 0.7500 0.4944(2)
C7 C 0.2636(3) 0.7500 0.4174(3)
H2 H 0.2303 0.7500 0.4880
C8 C 0.3598(3) 0.7500 0.2051(3)
H3 H 0.3908 0.7500 0.1330
C9 C 0.8032(3) 0.7500 0.8019(3)
H4 H 0.8733 0.7500 0.7668
C10 C 0.5936(3) 0.7500 0.9084(3)
H5 H 0.5233 0.7500 0.9434
C11 C 0.7195(3) 0.7500 0.9857(3)
H6 H 0.7361 0.7500 1.0748
C12 C 0.1796(3) 0.7500 0.2953(3)
H7 H 0.0897 0.7500 0.2834
C13 C 0.9031(3) 0.7500 0.4537(4)
C14 C 0.8238(3) 0.7500 0.9309(3)
H8 H 0.9092 0.7500 0.9846
C15 C 0.2283(3) 0.7500 0.1885(3)
H9 H 0.1707 0.7500 0.1058
H10 H 0.991(4) 0.7500 0.505(3)
H11 H 0.888(3) 0.863(4) 0.404(3)
H11C H 0.888(3) 0.637(4) 0.404(3)
F1 F 0.2001(2) 0.7500 0.69073(19)
F2 F 0.10182(19) 0.5894(4) 0.8167(2)
F3 F 0.2914(3) 0.7500 0.8976(2)
B1 B 0.1727(3) 0.7500 0.8080(3)
F2C F 0.10182(19) 0.9106(4) 0.8167(2)
loop_
_geom_bond_atom_site_label_1
_geom_bond_atom_site_label_2
_geom_bond_site_symmetry_1
_geom_bond_site_symmetry_2
P1 C4 1_555 1_555
O1 C6 1_555 1_555
N1 H1 1_555 1_555
N2 C2 1_555 1_555
C1 N1 1_555 1_555
C2 C1 1_555 1_555
C3 C1 1_555 1_555
C4 C3 1_555 1_555
C5 N1 1_555 1_555
C6 P1 1_555 1_555
C7 C3 1_555 1_555
H2 C7 1_555 1_555
C8 C4 1_555 1_555
H3 C8 1_555 1_555
C9 N2 1_555 1_555
H4 C9 1_555 1_555
C10 C5 1_555 1_555
H5 C10 1_555 1_555
C11 C10 1_555 1_555
H6 C11 1_555 1_555
C12 C7 1_555 1_555
H7 C12 1_555 1_555
C13 O1 1_555 1_555
C14 C9 1_555 1_555
H8 C14 1_555 1_555
C15 C8 1_555 1_555
H9 C15 1_555 1_555
H10 C13 1_555 1_555
H11 C13 1_555 1_555
F1 B1 1_555 1_555
F2 B1 1_555 1_555
F3 B1 1_555 1_555
B1 F2C 1_555 1_555
H11C C13 1_555 1_555
N2 C5 1_555 1_555
C2 C6 1_555 1_555
C11 C14 1_555 1_555
C12 C15 1_555 1_555

#END
