
#######################################################################
#
#                 Cambridge Crystallographic Data Centre
#                                CCDC 
#
#######################################################################
#
# If this CIF has been generated from an entry in the Cambridge 
# Structural Database, then it will include bibliographic, chemical, 
# crystal, experimental, refinement or atomic coordinate data resulting 
# from the CCDC's data processing and validation procedures.
#
#######################################################################

data_VESBED
_chemical_formula_moiety         'C10 H6 F2 N2 O3'
_chemical_name_systematic        
3-(difluoromethyl)-5-(4-nitrophenyl)-1,2-oxazole
_symmetry_cell_setting           orthorhombic
_symmetry_space_group_name_H-M   'P n m a'
_symmetry_Int_Tables_number      62
_space_group_name_Hall           '-P 2ac 2n'
loop_
_symmetry_equiv_pos_site_id
_symmetry_equiv_pos_as_xyz
1 x,y,z
2 1/2-x,-y,1/2+z
3 -x,1/2+y,-z
4 1/2+x,1/2-y,1/2-z
5 -x,-y,-z
6 1/2+x,y,1/2-z
7 x,1/2-y,z
8 1/2-x,1/2+y,1/2+z
_cell_length_a                   11.1885(7)
_cell_length_b                   6.8705(6)
_cell_length_c                   13.1312(10)
_cell_angle_alpha                90
_cell_angle_beta                 90
_cell_angle_gamma                90
_cell_volume                     1009.4
_exptl_crystal_colour            colorless
_exptl_crystal_description       block
_cell_formula_units_Z            4
loop_
_atom_site_label
_atom_site_type_symbol
_atom_site_fract_x
_atom_site_fract_y
_atom_site_fract_z
O1 O 1.08431(15) 0.2500 0.70420(15)
C1 C 0.9581(2) 0.2500 0.55677(19)
C2 C 1.0455(2) 0.2500 0.3899(2)
H1 H 1.1121 0.2500 0.3476
N1 N 0.9186(2) 0.2500 0.23752(19)
C3 C 0.8444(2) 0.2500 0.5134(2)
H2 H 0.7772 0.2500 0.5551
C4 C 0.9316(2) 0.2500 0.3494(2)
C5 C 0.8309(2) 0.2500 0.4094(2)
H3 H 0.7552 0.2500 0.3802
O2 O 1.0079(2) 0.2500 0.18500(16)
C6 C 1.0583(2) 0.2500 0.4934(2)
H4 H 1.1344 0.2500 0.5219
C7 C 0.9668(2) 0.2500 0.8333(2)
N2 N 1.0801(2) 0.2500 0.81098(18)
C8 C 0.9706(2) 0.2500 0.6675(2)
F1 F 0.86320(13) 0.0927(2) 0.96268(10)
C9 C 0.9319(2) 0.2500 0.9428(2)
H5 H 1.0031 0.2500 0.9863
C10 C 0.8945(2) 0.2500 0.7463(2)
H6 H 0.8114 0.2500 0.7437
O3 O 0.8189(2) 0.2500 0.2022(2)
F1F F 0.86320(13) 0.4073(2) 0.96268(10)
loop_
_geom_bond_atom_site_label_1
_geom_bond_atom_site_label_2
_geom_bond_site_symmetry_1
_geom_bond_site_symmetry_2
O1 N2 1_555 1_555
C1 C3 1_555 1_555
C2 H1 1_555 1_555
N1 C4 1_555 1_555
C3 H2 1_555 1_555
C4 C2 1_555 1_555
C5 C3 1_555 1_555
H3 C5 1_555 1_555
O2 N1 1_555 1_555
C6 C1 1_555 1_555
H4 C6 1_555 1_555
C7 N2 1_555 1_555
C8 O1 1_555 1_555
F1 C9 1_555 1_555
C9 C7 1_555 1_555
H5 C9 1_555 1_555
C10 C7 1_555 1_555
H6 C10 1_555 1_555
O3 N1 1_555 1_555
F1F C9 1_555 1_555
C1 C8 1_555 1_555
C2 C6 1_555 1_555
C4 C5 1_555 1_555
C8 C10 1_555 1_555

#END
