
#######################################################################
#
#                 Cambridge Crystallographic Data Centre
#                                CCDC 
#
#######################################################################
#
# If this CIF has been generated from an entry in the Cambridge 
# Structural Database, then it will include bibliographic, chemical, 
# crystal, experimental, refinement or atomic coordinate data resulting 
# from the CCDC's data processing and validation procedures.
#
#######################################################################

data_VESCUU
_chemical_formula_moiety         'C9 H6 Cl1 I2 N1 O1'
_chemical_name_systematic        
4-chloro-1-[(1\l^3^-di-iodan-1-yl)oxy]-1\l^5^-quinoline
_symmetry_cell_setting           monoclinic
_symmetry_space_group_name_H-M   'P 21'
_symmetry_Int_Tables_number      4
_space_group_name_Hall           'P 2yb'
loop_
_symmetry_equiv_pos_site_id
_symmetry_equiv_pos_as_xyz
1 x,y,z
2 -x,1/2+y,-z
_cell_length_a                   9.762(2)
_cell_length_b                   6.1078(15)
_cell_length_c                   10.743(3)
_cell_angle_alpha                90
_cell_angle_beta                 116.064(4)
_cell_angle_gamma                90
_cell_volume                     575.403
_exptl_crystal_colour            yellow
_exptl_crystal_description       block
_cell_formula_units_Z            2
loop_
_atom_site_label
_atom_site_type_symbol
_atom_site_fract_x
_atom_site_fract_y
_atom_site_fract_z
I1 I 0.74884(5) 0.51354(8) 0.77857(5)
I2 I 0.60826(6) 0.85890(10) 0.60849(6)
Cl1 Cl 0.8485(3) 0.4122(5) 1.4700(3)
N1 N 0.8656(7) 0.2559(12) 1.0697(7)
O1 O 0.8685(7) 0.2132(12) 0.9505(6)
C1 C 0.7830(9) 0.1203(15) 1.1132(9)
C2 C 0.7081(10) -0.0622(16) 1.0323(11)
H1 H 0.713652 -0.090530 0.947735
C3 C 0.6277(10) -0.1975(18) 1.0757(13)
H2 H 0.574491 -0.318272 1.019541
C4 C 0.6219(10) -0.1617(19) 1.2032(11)
H3 H 0.567104 -0.260551 1.232938
C5 C 0.6935(10) 0.012(2) 1.2831(10)
H4 H 0.687305 0.035562 1.367905
C6 C 0.7783(9) 0.1599(17) 1.2416(9)
C7 C 0.8558(9) 0.3470(19) 1.3175(9)
C8 C 0.9392(9) 0.4732(16) 1.2703(9)
H5 H 0.996256 0.593783 1.323910
C9 C 0.9411(9) 0.4264(16) 1.1452(9)
H6 H 0.997247 0.517816 1.112680
loop_
_geom_bond_atom_site_label_1
_geom_bond_atom_site_label_2
_geom_bond_site_symmetry_1
_geom_bond_site_symmetry_2
I1 I2 1_555 1_555
Cl1 C7 1_555 1_555
N1 O1 1_555 1_555
O1 I1 1_555 1_555
C1 N1 1_555 1_555
C2 C1 1_555 1_555
H1 C2 1_555 1_555
C3 C2 1_555 1_555
H2 C3 1_555 1_555
C4 C3 1_555 1_555
H3 C4 1_555 1_555
C5 C4 1_555 1_555
H4 C5 1_555 1_555
C6 C1 1_555 1_555
C7 C6 1_555 1_555
C8 C7 1_555 1_555
H5 C8 1_555 1_555
C9 N1 1_555 1_555
H6 C9 1_555 1_555
C5 C6 1_555 1_555
C8 C9 1_555 1_555

#END
