
#######################################################################
#
#                 Cambridge Crystallographic Data Centre
#                                CCDC 
#
#######################################################################
#
# If this CIF has been generated from an entry in the Cambridge 
# Structural Database, then it will include bibliographic, chemical, 
# crystal, experimental, refinement or atomic coordinate data resulting 
# from the CCDC's data processing and validation procedures.
#
#######################################################################

data_VESDUU
_chemical_formula_moiety         'C72 H104 Li2 O6,4(C4 H8 O1)'
_chemical_name_systematic        
"(\m~2~-2,2',2'',2'''-((1,3-Phenylene)dimethanetriyl)-tetrakis(4,6-di-t-butylphenol))-(bis(tetrahydrofuran))-di-lithium tetrahydrofuran solvate"
_symmetry_cell_setting           orthorhombic
_symmetry_space_group_name_H-M   'P 21 21 2'
_symmetry_Int_Tables_number      18
_space_group_name_Hall           'P 2 2ab'
loop_
_symmetry_equiv_pos_site_id
_symmetry_equiv_pos_as_xyz
1 x,y,z
2 -x,-y,z
3 1/2-x,1/2+y,-z
4 1/2+x,1/2-y,-z
_cell_length_a                   17.390(5)
_cell_length_b                   23.311(7)
_cell_length_c                   11.320(3)
_cell_angle_alpha                90
_cell_angle_beta                 90
_cell_angle_gamma                90
_cell_volume                     4588.88
_exptl_crystal_colour            colorless
_exptl_crystal_description       block
_cell_formula_units_Z            2
loop_
_atom_site_label
_atom_site_type_symbol
_atom_site_fract_x
_atom_site_fract_y
_atom_site_fract_z
Li1 Li 0.3454(6) -0.0023(4) 0.2755(7)
O1 O 0.2861(2) 0.05929(15) 0.2257(3)
H1 H 0.2665 0.0552 0.2910
O2 O 0.3331(2) 0.00677(15) 0.4385(3)
H2 H 0.2936 0.0213 0.4130
O3 O 0.3329(3) -0.08192(16) 0.2239(3)
C1 C 0.5000 0.0000 0.3298(6)
H3 H 0.5000 0.0000 0.4119
C2 C 0.4643(3) 0.0448(2) 0.2698(4)
C3 C 0.4629(3) 0.0437(2) 0.1504(5)
H4 H 0.4371 0.0723 0.1091
C4 C 0.5000 0.0000 0.0893(7)
H5 H 0.5000 0.0000 0.0071
C5 C 0.4315(3) 0.0970(2) 0.3365(4)
H6 H 0.4769 0.1219 0.3407
C6 C 0.3757(3) 0.1349(2) 0.2654(4)
C7 C 0.3070(4) 0.1139(2) 0.2116(4)
C8 C 0.2640(3) 0.1522(3) 0.1403(5)
C9 C 0.2857(4) 0.2104(3) 0.1372(5)
H7 H 0.2551 0.2358 0.0948
C10 C 0.3514(4) 0.2319(2) 0.1951(5)
C11 C 0.3952(3) 0.1917(3) 0.2552(5)
H8 H 0.4406 0.2040 0.2907
C12 C 0.4125(3) 0.0896(2) 0.4673(5)
C13 C 0.3673(4) 0.0429(2) 0.5113(4)
C14 C 0.3632(3) 0.0355(2) 0.6359(5)
C15 C 0.3886(4) 0.0799(3) 0.7085(5)
H9 H 0.3811 0.0765 0.7896
C16 C 0.4258(4) 0.1303(3) 0.6650(5)
C17 C 0.4365(4) 0.1316(3) 0.5439(5)
H10 H 0.4618 0.1631 0.5121
C18 C 0.1924(4) 0.1326(3) 0.0714(6)
C19 C 0.1279(4) 0.1147(4) 0.1532(8)
H11 H 0.1458 0.0850 0.2052
H12 H 0.0855 0.1006 0.1074
H13 H 0.1115 0.1471 0.1989
C20 C 0.2143(5) 0.0834(3) -0.0084(6)
H14 H 0.2342 0.0524 0.0383
H15 H 0.2528 0.0958 -0.0634
H16 H 0.1697 0.0706 -0.0510
C21 C 0.1591(5) 0.1791(3) -0.0059(7)
H17 H 0.1449 0.2113 0.0421
H18 H 0.1145 0.1647 -0.0460
H19 H 0.1968 0.1908 -0.0630
C22 C 0.3724(5) 0.2949(3) 0.1901(7)
C23 C 0.3153(6) 0.3303(3) 0.1193(9)
H20 H 0.3136 0.3165 0.0395
H21 H 0.3311 0.3698 0.1195
H22 H 0.2652 0.3271 0.1542
C24 C 0.3726(7) 0.3180(4) 0.3167(10)
H23 H 0.3857 0.3580 0.3158
H24 H 0.4098 0.2974 0.3628
H25 H 0.3225 0.3132 0.3508
C25 C 0.4506(6) 0.3010(4) 0.1368(13)
H26 H 0.4499 0.2867 0.0573
H27 H 0.4871 0.2796 0.1826
H28 H 0.4651 0.3408 0.1363
C26 C 0.3301(4) -0.0194(2) 0.6896(4)
C27 C 0.3660(6) -0.0720(3) 0.6286(6)
H29 H 0.3454 -0.1065 0.6626
H30 H 0.4208 -0.0714 0.6394
H31 H 0.3544 -0.0711 0.5457
C28 C 0.2454(4) -0.0172(4) 0.6795(9)
H32 H 0.2265 0.0162 0.7196
H33 H 0.2236 -0.0510 0.7146
H34 H 0.2311 -0.0155 0.5976
C29 C 0.3542(6) -0.0263(3) 0.8208(6)
H35 H 0.3324 0.0043 0.8666
H36 H 0.4092 -0.0251 0.8268
H37 H 0.3358 -0.0624 0.8503
C30 C 0.4444(5) 0.1797(3) 0.7493(6)
C31 C 0.3704(7) 0.2129(4) 0.7668(10)
H38 H 0.3794 0.2443 0.8197
H39 H 0.3320 0.1880 0.7996
H40 H 0.3530 0.2273 0.6920
C32 C 0.4746(10) 0.1585(4) 0.8640(8)
H41 H 0.4856 0.1905 0.9146
H42 H 0.5208 0.1369 0.8507
H43 H 0.4368 0.1343 0.9008
C33 C 0.5021(7) 0.2200(4) 0.6982(9)
H44 H 0.5125 0.2501 0.7537
H45 H 0.4822 0.2362 0.6265
H46 H 0.5488 0.1996 0.6815
C34 C 0.3352(6) -0.1014(3) 0.1037(6)
H47 H 0.3667 -0.0761 0.0559
H48 H 0.2839 -0.1027 0.0703
C35 C 0.3689(10) -0.1594(5) 0.1079(10)
H49 H 0.3900 -0.1793 0.0445
C36 C 0.3640(9) -0.1781(4) 0.2173(10)
H50 H 0.4124 -0.1954 0.2409
H51 H 0.3240 -0.2069 0.2231
C37 C 0.3457(5) -0.1289(3) 0.2964(6)
H52 H 0.3003 -0.1372 0.3430
H53 H 0.3883 -0.1214 0.3496
Li1A Li 0.6546(6) 0.0023(4) 0.2755(7)
O1A O 0.7139(2) -0.05929(15) 0.2257(3)
H1A H 0.7335 -0.0552 0.2910
O2A O 0.6669(2) -0.00677(15) 0.4385(3)
H2A H 0.7064 -0.0213 0.4130
O3A O 0.6671(3) 0.08192(16) 0.2239(3)
C2A C 0.5357(3) -0.0448(2) 0.2698(4)
C3A C 0.5371(3) -0.0437(2) 0.1504(5)
H4A H 0.5629 -0.0723 0.1091
C5A C 0.5685(3) -0.0970(2) 0.3365(4)
H6A H 0.5231 -0.1219 0.3407
C6A C 0.6243(3) -0.1349(2) 0.2654(4)
C7A C 0.6930(4) -0.1139(2) 0.2116(4)
C8A C 0.7360(3) -0.1522(3) 0.1403(5)
C9A C 0.7143(4) -0.2104(3) 0.1372(5)
H7A H 0.7449 -0.2358 0.0948
C10A C 0.6486(4) -0.2319(2) 0.1951(5)
C11A C 0.6048(3) -0.1917(3) 0.2552(5)
H8A H 0.5594 -0.2040 0.2907
C12A C 0.5875(3) -0.0896(2) 0.4673(5)
C13A C 0.6327(4) -0.0429(2) 0.5113(4)
C14A C 0.6368(3) -0.0355(2) 0.6359(5)
C15A C 0.6114(4) -0.0799(3) 0.7085(5)
H9A H 0.6189 -0.0765 0.7896
C16A C 0.5742(4) -0.1303(3) 0.6650(5)
C17A C 0.5635(4) -0.1316(3) 0.5439(5)
H10A H 0.5382 -0.1631 0.5121
C18A C 0.8076(4) -0.1326(3) 0.0714(6)
C19A C 0.8721(4) -0.1147(4) 0.1532(8)
H11A H 0.8542 -0.0850 0.2052
H12A H 0.9145 -0.1006 0.1074
H13A H 0.8885 -0.1471 0.1989
C20A C 0.7857(5) -0.0834(3) -0.0084(6)
H14A H 0.7658 -0.0524 0.0383
H15A H 0.7472 -0.0958 -0.0634
H16A H 0.8303 -0.0706 -0.0510
C21A C 0.8409(5) -0.1791(3) -0.0059(7)
H17A H 0.8551 -0.2113 0.0421
H18A H 0.8855 -0.1647 -0.0460
H19A H 0.8032 -0.1908 -0.0630
C22A C 0.6276(5) -0.2949(3) 0.1901(7)
C23A C 0.6847(6) -0.3303(3) 0.1193(9)
H20A H 0.6864 -0.3165 0.0395
H21A H 0.6689 -0.3698 0.1195
H22A H 0.7348 -0.3271 0.1542
C24A C 0.6274(7) -0.3180(4) 0.3167(10)
H23A H 0.6143 -0.3580 0.3158
H24A H 0.5902 -0.2974 0.3628
H25A H 0.6775 -0.3132 0.3508
C25A C 0.5494(6) -0.3010(4) 0.1368(13)
H26A H 0.5501 -0.2867 0.0573
H27A H 0.5129 -0.2796 0.1826
H28A H 0.5349 -0.3408 0.1363
C26A C 0.6699(4) 0.0194(2) 0.6896(4)
C27A C 0.6340(6) 0.0720(3) 0.6286(6)
H29A H 0.6546 0.1065 0.6626
H30A H 0.5792 0.0714 0.6394
H31A H 0.6456 0.0711 0.5457
C28A C 0.7546(4) 0.0172(4) 0.6795(9)
H32A H 0.7735 -0.0162 0.7196
H33A H 0.7764 0.0510 0.7146
H34A H 0.7689 0.0155 0.5976
C29A C 0.6458(6) 0.0263(3) 0.8208(6)
H35A H 0.6676 -0.0043 0.8666
H36A H 0.5908 0.0251 0.8268
H37A H 0.6642 0.0624 0.8503
C30A C 0.5556(5) -0.1797(3) 0.7493(6)
C31A C 0.6296(7) -0.2129(4) 0.7668(10)
H38A H 0.6206 -0.2443 0.8197
H39A H 0.6680 -0.1880 0.7996
H40A H 0.6470 -0.2273 0.6920
C32A C 0.5254(10) -0.1585(4) 0.8640(8)
H41A H 0.5144 -0.1905 0.9146
H42A H 0.4792 -0.1369 0.8507
H43A H 0.5632 -0.1343 0.9008
C33A C 0.4979(7) -0.2200(4) 0.6982(9)
H44A H 0.4875 -0.2501 0.7537
H45A H 0.5178 -0.2362 0.6265
H46A H 0.4512 -0.1996 0.6815
C34A C 0.6648(6) 0.1014(3) 0.1037(6)
H47A H 0.6333 0.0761 0.0559
H48A H 0.7161 0.1027 0.0703
C35A C 0.6311(10) 0.1594(5) 0.1079(10)
H49A H 0.6100 0.1793 0.0445
C36A C 0.6360(9) 0.1781(4) 0.2173(10)
H50A H 0.5876 0.1954 0.2409
H51A H 0.6760 0.2069 0.2231
C37A C 0.6543(5) 0.1289(3) 0.2964(6)
H52A H 0.6997 0.1372 0.3430
H53A H 0.6117 0.1214 0.3496
O4 O 0.8437(3) 0.0184(2) 0.3448(6)
C38 C 0.8640(6) 0.0362(4) 0.2285(9)
H54 H 0.8198 0.0335 0.1765
H55 H 0.9045 0.0119 0.1974
C39 C 0.8907(10) 0.0961(7) 0.2358(14)
H56 H 0.9358 0.1020 0.1869
H57 H 0.8507 0.1224 0.2111
C40 C 0.9084(9) 0.1037(6) 0.3563(14)
H58 H 0.9637 0.1039 0.3679
H59 H 0.8877 0.1397 0.3847
C41 C 0.8750(12) 0.0574(7) 0.4171(11)
H60 H 0.9140 0.0389 0.4651
H61 H 0.8355 0.0719 0.4698
O5 O 0.1932(3) 0.1074(2) 0.4667(4)
C42 C 0.1217(4) 0.1099(4) 0.5273(10)
H62 H 0.1218 0.0831 0.5929
H63 H 0.0801 0.0997 0.4743
C43 C 0.1115(6) 0.1667(5) 0.5695(13)
H64 H 0.0651 0.1832 0.5363
H65 H 0.1068 0.1666 0.6549
C44 C 0.1767(7) 0.1994(3) 0.5350(13)
H66 H 0.2024 0.2147 0.6042
H67 H 0.1608 0.2313 0.4855
C45 C 0.2271(4) 0.1628(3) 0.4715(9)
H68 H 0.2766 0.1609 0.5108
H69 H 0.2350 0.1775 0.3922
loop_
_geom_bond_atom_site_label_1
_geom_bond_atom_site_label_2
_geom_bond_site_symmetry_1
_geom_bond_site_symmetry_2
Li1 O1 1_555 1_555
O1 H1 1_555 1_555
O2 Li1 1_555 1_555
H2 O2 1_555 1_555
O3 Li1 1_555 1_555
C1 H3 1_555 1_555
C2 C1 1_555 1_555
C3 C2 1_555 1_555
H4 C3 1_555 1_555
C4 C3 1_555 1_555
H5 C4 1_555 1_555
C5 C2 1_555 1_555
H6 C5 1_555 1_555
C6 C5 1_555 1_555
C7 O1 1_555 1_555
C8 C7 1_555 1_555
C9 C8 1_555 1_555
H7 C9 1_555 1_555
C10 C9 1_555 1_555
C11 C6 1_555 1_555
H8 C11 1_555 1_555
C12 C5 1_555 1_555
C13 O2 1_555 1_555
C14 C13 1_555 1_555
C15 C14 1_555 1_555
H9 C15 1_555 1_555
C16 C15 1_555 1_555
C17 C12 1_555 1_555
H10 C17 1_555 1_555
C18 C8 1_555 1_555
C19 C18 1_555 1_555
H11 C19 1_555 1_555
H12 C19 1_555 1_555
H13 C19 1_555 1_555
C20 C18 1_555 1_555
H14 C20 1_555 1_555
H15 C20 1_555 1_555
H16 C20 1_555 1_555
C21 C18 1_555 1_555
H17 C21 1_555 1_555
H18 C21 1_555 1_555
H19 C21 1_555 1_555
C22 C10 1_555 1_555
C23 C22 1_555 1_555
H20 C23 1_555 1_555
H21 C23 1_555 1_555
H22 C23 1_555 1_555
C24 C22 1_555 1_555
H23 C24 1_555 1_555
H24 C24 1_555 1_555
H25 C24 1_555 1_555
C25 C22 1_555 1_555
H26 C25 1_555 1_555
H27 C25 1_555 1_555
H28 C25 1_555 1_555
C26 C14 1_555 1_555
C27 C26 1_555 1_555
H29 C27 1_555 1_555
H30 C27 1_555 1_555
H31 C27 1_555 1_555
C28 C26 1_555 1_555
H32 C28 1_555 1_555
H33 C28 1_555 1_555
H34 C28 1_555 1_555
C29 C26 1_555 1_555
H35 C29 1_555 1_555
H36 C29 1_555 1_555
H37 C29 1_555 1_555
C30 C16 1_555 1_555
C31 C30 1_555 1_555
H38 C31 1_555 1_555
H39 C31 1_555 1_555
H40 C31 1_555 1_555
C32 C30 1_555 1_555
H41 C32 1_555 1_555
H42 C32 1_555 1_555
H43 C32 1_555 1_555
C33 C30 1_555 1_555
H44 C33 1_555 1_555
H45 C33 1_555 1_555
H46 C33 1_555 1_555
C34 O3 1_555 1_555
H47 C34 1_555 1_555
H48 C34 1_555 1_555
C35 C34 1_555 1_555
H49 C35 1_555 1_555
C36 C35 1_555 1_555
H50 C36 1_555 1_555
H51 C36 1_555 1_555
C37 O3 1_555 1_555
H52 C37 1_555 1_555
H53 C37 1_555 1_555
O4 C38 1_555 1_555
C38 H54 1_555 1_555
H55 C38 1_555 1_555
C39 C38 1_555 1_555
H56 C39 1_555 1_555
H57 C39 1_555 1_555
C40 C39 1_555 1_555
H58 C40 1_555 1_555
H59 C40 1_555 1_555
C41 O4 1_555 1_555
H60 C41 1_555 1_555
H61 C41 1_555 1_555
O5 C42 1_555 1_555
C42 H62 1_555 1_555
H63 C42 1_555 1_555
C43 C42 1_555 1_555
H64 C43 1_555 1_555
H65 C43 1_555 1_555
C44 C43 1_555 1_555
H66 C44 1_555 1_555
H67 C44 1_555 1_555
C45 O5 1_555 1_555
H68 C45 1_555 1_555
H69 C45 1_555 1_555
Li1A O1A 1_555 1_555
O1A H1A 1_555 1_555
O2A Li1A 1_555 1_555
H2A O2A 1_555 1_555
O3A Li1A 1_555 1_555
C2A C1 1_555 1_555
C3A C4 1_555 1_555
H4A C3A 1_555 1_555
C5A C2A 1_555 1_555
H6A C5A 1_555 1_555
C6A C5A 1_555 1_555
C7A O1A 1_555 1_555
C8A C7A 1_555 1_555
C9A C8A 1_555 1_555
H7A C9A 1_555 1_555
C10A C9A 1_555 1_555
C11A C6A 1_555 1_555
H8A C11A 1_555 1_555
C12A C5A 1_555 1_555
C13A O2A 1_555 1_555
C14A C13A 1_555 1_555
C15A C14A 1_555 1_555
H9A C15A 1_555 1_555
C16A C15A 1_555 1_555
C17A C12A 1_555 1_555
H10A C17A 1_555 1_555
C18A C8A 1_555 1_555
C19A C18A 1_555 1_555
H11A C19A 1_555 1_555
H12A C19A 1_555 1_555
H13A C19A 1_555 1_555
C20A C18A 1_555 1_555
H14A C20A 1_555 1_555
H15A C20A 1_555 1_555
H16A C20A 1_555 1_555
C21A C18A 1_555 1_555
H17A C21A 1_555 1_555
H18A C21A 1_555 1_555
H19A C21A 1_555 1_555
C22A C10A 1_555 1_555
C23A C22A 1_555 1_555
H20A C23A 1_555 1_555
H21A C23A 1_555 1_555
H22A C23A 1_555 1_555
C24A C22A 1_555 1_555
H23A C24A 1_555 1_555
H24A C24A 1_555 1_555
H25A C24A 1_555 1_555
C25A C22A 1_555 1_555
H26A C25A 1_555 1_555
H27A C25A 1_555 1_555
H28A C25A 1_555 1_555
C26A C14A 1_555 1_555
C27A C26A 1_555 1_555
H29A C27A 1_555 1_555
H30A C27A 1_555 1_555
H31A C27A 1_555 1_555
C28A C26A 1_555 1_555
H32A C28A 1_555 1_555
H33A C28A 1_555 1_555
H34A C28A 1_555 1_555
C29A C26A 1_555 1_555
H35A C29A 1_555 1_555
H36A C29A 1_555 1_555
H37A C29A 1_555 1_555
C30A C16A 1_555 1_555
C31A C30A 1_555 1_555
H38A C31A 1_555 1_555
H39A C31A 1_555 1_555
H40A C31A 1_555 1_555
C32A C30A 1_555 1_555
H41A C32A 1_555 1_555
H42A C32A 1_555 1_555
H43A C32A 1_555 1_555
C33A C30A 1_555 1_555
H44A C33A 1_555 1_555
H45A C33A 1_555 1_555
H46A C33A 1_555 1_555
C34A O3A 1_555 1_555
H47A C34A 1_555 1_555
H48A C34A 1_555 1_555
C35A C34A 1_555 1_555
H49A C35A 1_555 1_555
C36A C35A 1_555 1_555
H50A C36A 1_555 1_555
H51A C36A 1_555 1_555
C37A O3A 1_555 1_555
H52A C37A 1_555 1_555
H53A C37A 1_555 1_555
C6 C7 1_555 1_555
C10 C11 1_555 1_555
C12 C13 1_555 1_555
C16 C17 1_555 1_555
C36 C37 1_555 1_555
C40 C41 1_555 1_555
C44 C45 1_555 1_555
C2A C3A 1_555 1_555
C6A C7A 1_555 1_555
C10A C11A 1_555 1_555
C12A C13A 1_555 1_555
C16A C17A 1_555 1_555
C36A C37A 1_555 1_555

#END
