
#######################################################################
#
#                 Cambridge Crystallographic Data Centre
#                                CCDC 
#
#######################################################################
#
# If this CIF has been generated from an entry in the Cambridge 
# Structural Database, then it will include bibliographic, chemical, 
# crystal, experimental, refinement or atomic coordinate data resulting 
# from the CCDC's data processing and validation procedures.
#
#######################################################################

data_VESDII
_chemical_formula_moiety         'C96 H152 Na2 O12,2(C1 H2 Cl2)'
_chemical_name_systematic        
"(\m~2~-(2,2',2'',2'''-(1,4-Phenylenedimethanetriyl)-tetrakis(4,6-di-t-butylphenolato))-octakis(tetrahydrofuran))-di-sodium dichloromethane solvate"
_symmetry_cell_setting           monoclinic
_symmetry_space_group_name_H-M   'C 2/c'
_symmetry_Int_Tables_number      15
_space_group_name_Hall           '-C 2yn'
loop_
_symmetry_equiv_pos_site_id
_symmetry_equiv_pos_as_xyz
1 x,y,z
2 -x,y,1/2-z
3 1/2+x,1/2+y,z
4 1/2-x,1/2+y,1/2-z
5 -x,-y,-z
6 x,-y,1/2+z
7 1/2-x,1/2-y,-z
8 1/2+x,1/2-y,1/2+z
_cell_length_a                   26.1333(9)
_cell_length_b                   12.6759(4)
_cell_length_c                   32.1125(12)
_cell_angle_alpha                90
_cell_angle_beta                 102.395(4)
_cell_angle_gamma                90
_cell_volume                     10389.7
_exptl_crystal_colour            colorless
_exptl_crystal_description       block
_cell_formula_units_Z            4
loop_
_atom_site_label
_atom_site_type_symbol
_atom_site_fract_x
_atom_site_fract_y
_atom_site_fract_z
Na1 Na 0.12216(4) 0.07947(10) 0.11860(4)
O1 O 0.22805(7) -0.10549(14) 0.09290(6)
H1 H 0.2208 -0.0480 0.1019
O2 O 0.20835(6) 0.04810(15) 0.13727(5)
O3 O 0.12153(11) 0.2716(2) 0.11997(10)
O4 O 0.04715(11) 0.1077(3) 0.15089(10)
O5 O 0.09278(13) 0.0830(3) 0.04373(9)
O6 O 0.09761(13) -0.0982(2) 0.12373(13)
C1 C 0.1310(2) -0.1724(4) 0.1493(2)
H2 H 0.1646 -0.1748 0.1411
H3 H 0.1369 -0.1523 0.1791
C2 C 0.1064(3) -0.2727(3) 0.1432(3)
H4 H 0.1284 -0.3223 0.1321
H5 H 0.1007 -0.2997 0.1701
C3 C 0.0578(3) -0.2605(4) 0.1138(3)
H6 H 0.0570 -0.3043 0.0889
H7 H 0.0292 -0.2817 0.1269
C4 C 0.05232(19) -0.1526(4) 0.1018(2)
H8 H 0.0212 -0.1232 0.1092
H9 H 0.0490 -0.1457 0.0712
C5 C 0.27276(9) -0.09706(19) 0.07818(7)
C6 C 0.30077(9) -0.18944(19) 0.07230(7)
C7 C 0.34750(10) -0.1771(2) 0.05857(8)
H10 H 0.3667 -0.2371 0.0553
C8 C 0.36689(9) -0.0789(2) 0.04945(8)
C9 C 0.33752(9) 0.0086(2) 0.05439(8)
H11 H 0.3497 0.0746 0.0485
C10 C 0.29091(8) 0.00251(18) 0.06764(7)
C11 C 0.25939(9) 0.10215(19) 0.07211(7)
H12 H 0.2235(10) 0.0823(19) 0.0680(8)
C12 C 0.27732(9) 0.14541(19) 0.11757(7)
C13 C 0.32081(9) 0.2082(2) 0.12845(7)
H13 H 0.3385 0.2275 0.1074
C14 C 0.33958(10) 0.2442(2) 0.16992(8)
C15 C 0.31273(10) 0.2081(2) 0.20075(8)
H14 H 0.3244 0.2305 0.2288
C16 C 0.27018(10) 0.1412(2) 0.19180(8)
C17 C 0.25027(9) 0.1092(2) 0.14873(7)
C18 C 0.25183(9) 0.1436(2) -0.00563(7)
H15 H 0.2530 0.0713 -0.0102
C19 C 0.25717(8) 0.18016(18) 0.03565(7)
C20 C 0.25526(9) 0.2886(2) 0.04056(8)
H16 H 0.2588 0.3168 0.0678
C21 C 0.28047(11) -0.2983(2) 0.08141(9)
C22 C 0.22537(13) -0.3167(3) 0.05446(11)
H17 H 0.2011 -0.2706 0.0640
H18 H 0.2153 -0.3887 0.0575
H19 H 0.2252 -0.3025 0.0251
C23 C 0.28002(16) -0.3083(3) 0.12907(10)
H20 H 0.3152 -0.3041 0.1456
H21 H 0.2650 -0.3749 0.1342
H22 H 0.2596 -0.2521 0.1372
C24 C 0.31484(15) -0.3873(2) 0.06975(12)
H23 H 0.3139 -0.3852 0.0397
H24 H 0.3018 -0.4542 0.0770
H25 H 0.3503 -0.3782 0.0853
C25 C 0.41797(10) -0.0677(3) 0.03298(10)
C26 C 0.40564(17) -0.0139(5) -0.00944(17)
H26 H 0.3865 0.0499 -0.0073
H27 H 0.3849 -0.0598 -0.0301
H28 H 0.4377 0.0030 -0.0181
C27 C 0.45616(18) -0.0035(8) 0.0636(2)
H29 H 0.4394 0.0596 0.0705
H30 H 0.4851 0.0150 0.0511
H31 H 0.4687 -0.0436 0.0892
C28 C 0.4427(2) -0.1704(5) 0.0284(3)
H32 H 0.4174 -0.2257 0.0275
H33 H 0.4714 -0.1815 0.0522
H34 H 0.4554 -0.1709 0.0025
C29 C 0.38493(12) 0.3225(3) 0.18140(9)
C30 C 0.3620(2) 0.4312(4) 0.1870(3)
H35 H 0.3407 0.4539 0.1604
H36 H 0.3900 0.4807 0.1961
H37 H 0.3411 0.4272 0.2081
C31 C 0.4213(3) 0.2925(7) 0.2224(2)
H38 H 0.4050 0.3077 0.2459
H39 H 0.4532 0.3322 0.2256
H40 H 0.4290 0.2185 0.2221
C32 C 0.4150(2) 0.3314(6) 0.1482(2)
H41 H 0.4287 0.2635 0.1431
H42 H 0.4435 0.3800 0.1572
H43 H 0.3927 0.3567 0.1224
C33 C 0.24481(11) 0.0987(3) 0.22795(8)
C34 C 0.27341(16) 0.1408(3) 0.27190(9)
H44 H 0.2566 0.1142 0.2935
H45 H 0.2722 0.2165 0.2718
H46 H 0.3092 0.1179 0.2777
C35 C 0.24859(15) -0.0221(3) 0.22920(11)
H47 H 0.2337 -0.0485 0.2520
H48 H 0.2847 -0.0429 0.2338
H49 H 0.2297 -0.0505 0.2026
C36 C 0.18876(14) 0.1358(4) 0.22176(12)
H50 H 0.1691 0.1113 0.1947
H51 H 0.1880 0.2115 0.2224
H52 H 0.1736 0.1082 0.2442
C37 C 0.1640(3) 0.3228(5) 0.1097(3)
H53 H 0.1555 0.3452 0.0801
H54 H 0.1939 0.2757 0.1137
C38 C 0.1754(5) 0.4097(11) 0.1364(4)
H55 H 0.1866 0.4691 0.1214
H56 H 0.2027 0.3933 0.1611
C39 C 0.1245(7) 0.4332(7) 0.1490(4)
H57 H 0.1300 0.4484 0.1792
H58 H 0.1068 0.4925 0.1330
C40 C 0.0977(2) 0.3462(6) 0.1394(3)
H59 H 0.0643 0.3636 0.1209
H60 H 0.0905 0.3165 0.1654
C41 C 0.0396(2) 0.1110(7) 0.19362(19)
H61 H 0.0407 0.0403 0.2054
H62 H 0.0669 0.1528 0.2114
C42 C -0.0103(2) 0.1573(8) 0.1920(2)
H63 H -0.0063 0.2276 0.2041
H64 H -0.0303 0.1150 0.2080
C43 C -0.0365(2) 0.1620(7) 0.1484(2)
H65 H -0.0679 0.1191 0.1436
H66 H -0.0463 0.2341 0.1403
C44 C -0.0017(2) 0.1238(6) 0.12432(18)
H67 H 0.0013 0.1742 0.1022
H68 H -0.0148 0.0579 0.1107
C45 C 0.0709(4) 0.1677(6) 0.02059(19)
H69 H 0.0853 0.2320 0.0348
H70 H 0.0334 0.1678 0.0191
C46 C 0.0802(5) 0.1664(9) -0.0218(2)
H71 H 0.0480 0.1797 -0.0427
H72 H 0.1059 0.2193 -0.0250
C47 C 0.0986(3) 0.0671(7) -0.0266(2)
H73 H 0.1307 0.0716 -0.0371
H74 H 0.0730 0.0282 -0.0473
C48 C 0.1090(2) 0.0110(5) 0.01493(18)
H75 H 0.0889 -0.0539 0.0129
H76 H 0.1459 -0.0056 0.0241
Na1F Na 0.37784(4) 0.42053(10) -0.11860(4)
O1F O 0.27195(7) 0.60549(14) -0.09290(6)
H1F H 0.2792 0.5480 -0.1019
O2F O 0.29165(6) 0.45190(15) -0.13727(5)
O3F O 0.37847(11) 0.2284(2) -0.11997(10)
O4F O 0.45285(11) 0.3923(3) -0.15089(10)
O5F O 0.40722(13) 0.4170(3) -0.04373(9)
O6F O 0.40239(13) 0.5982(2) -0.12373(13)
C1F C 0.3690(2) 0.6724(4) -0.1493(2)
H2F H 0.3354 0.6748 -0.1411
H3F H 0.3631 0.6523 -0.1791
C2F C 0.3936(3) 0.7727(3) -0.1432(3)
H4F H 0.3716 0.8223 -0.1321
H5F H 0.3993 0.7997 -0.1701
C3F C 0.4422(3) 0.7605(4) -0.1138(3)
H6F H 0.4430 0.8043 -0.0889
H7F H 0.4708 0.7817 -0.1269
C4F C 0.44768(19) 0.6526(4) -0.1018(2)
H8F H 0.4788 0.6232 -0.1092
H9F H 0.4510 0.6457 -0.0712
C5F C 0.22724(9) 0.59706(19) -0.07818(7)
C6F C 0.19923(9) 0.68944(19) -0.07230(7)
C7F C 0.15250(10) 0.6771(2) -0.05857(8)
H10F H 0.1333 0.7371 -0.0553
C8F C 0.13311(9) 0.5789(2) -0.04945(8)
C9F C 0.16248(9) 0.4914(2) -0.05439(8)
H11F H 0.1503 0.4254 -0.0485
C10F C 0.20909(8) 0.49749(18) -0.06764(7)
C11F C 0.24061(9) 0.39785(19) -0.07211(7)
H12F H 0.2765(10) 0.4177(19) -0.0680(8)
C12F C 0.22268(9) 0.35459(19) -0.11757(7)
C13F C 0.17919(9) 0.2918(2) -0.12845(7)
H13F H 0.1615 0.2725 -0.1074
C14F C 0.16042(10) 0.2558(2) -0.16992(8)
C15F C 0.18727(10) 0.2919(2) -0.20075(8)
H14F H 0.1756 0.2695 -0.2288
C16F C 0.22982(10) 0.3588(2) -0.19180(8)
C17F C 0.24973(9) 0.3908(2) -0.14873(7)
C18F C 0.24817(9) 0.3564(2) 0.00563(7)
H15F H 0.2470 0.4287 0.0102
C19F C 0.24283(8) 0.31984(18) -0.03565(7)
C20F C 0.24474(9) 0.2114(2) -0.04056(8)
H16F H 0.2412 0.1832 -0.0678
C21F C 0.21953(11) 0.7983(2) -0.08141(9)
C22F C 0.27463(13) 0.8167(3) -0.05446(11)
H17F H 0.2989 0.7706 -0.0640
H18F H 0.2847 0.8887 -0.0575
H19F H 0.2748 0.8025 -0.0251
C23F C 0.21998(16) 0.8083(3) -0.12907(10)
H20F H 0.1848 0.8041 -0.1456
H21F H 0.2350 0.8749 -0.1342
H22F H 0.2404 0.7521 -0.1372
C24F C 0.18516(15) 0.8873(2) -0.06975(12)
H23F H 0.1861 0.8852 -0.0397
H24F H 0.1982 0.9542 -0.0770
H25F H 0.1497 0.8782 -0.0853
C25F C 0.08203(10) 0.5677(3) -0.03298(10)
C26F C 0.09436(17) 0.5139(5) 0.00944(17)
H26F H 0.1135 0.4501 0.0073
H27F H 0.1151 0.5598 0.0301
H28F H 0.0623 0.4970 0.0181
C27F C 0.04384(18) 0.5035(8) -0.0636(2)
H29F H 0.0606 0.4404 -0.0705
H30F H 0.0149 0.4850 -0.0511
H31F H 0.0313 0.5436 -0.0892
C28F C 0.0573(2) 0.6704(5) -0.0284(3)
H32F H 0.0826 0.7257 -0.0275
H33F H 0.0286 0.6815 -0.0522
H34F H 0.0446 0.6709 -0.0025
C29F C 0.11507(12) 0.1775(3) -0.18140(9)
C30F C 0.1380(2) 0.0688(4) -0.1870(3)
H35F H 0.1593 0.0461 -0.1604
H36F H 0.1100 0.0193 -0.1961
H37F H 0.1589 0.0728 -0.2081
C31F C 0.0787(3) 0.2075(7) -0.2224(2)
H38F H 0.0950 0.1923 -0.2459
H39F H 0.0468 0.1678 -0.2256
H40F H 0.0710 0.2815 -0.2221
C32F C 0.0850(2) 0.1686(6) -0.1482(2)
H41F H 0.0713 0.2365 -0.1431
H42F H 0.0565 0.1200 -0.1572
H43F H 0.1073 0.1433 -0.1224
C33F C 0.25519(11) 0.4013(3) -0.22795(8)
C34F C 0.22659(16) 0.3592(3) -0.27190(9)
H44F H 0.2434 0.3858 -0.2935
H45F H 0.2278 0.2835 -0.2718
H46F H 0.1908 0.3821 -0.2777
C35F C 0.25141(15) 0.5221(3) -0.22920(11)
H47F H 0.2663 0.5485 -0.2520
H48F H 0.2153 0.5429 -0.2338
H49F H 0.2703 0.5505 -0.2026
C36F C 0.31124(14) 0.3642(4) -0.22176(12)
H50F H 0.3309 0.3887 -0.1947
H51F H 0.3120 0.2885 -0.2224
H52F H 0.3264 0.3918 -0.2442
C37F C 0.3360(3) 0.1772(5) -0.1097(3)
H53F H 0.3445 0.1548 -0.0801
H54F H 0.3061 0.2243 -0.1137
C38F C 0.3246(5) 0.0903(11) -0.1364(4)
H55F H 0.3134 0.0309 -0.1214
H56F H 0.2973 0.1067 -0.1611
C39F C 0.3755(7) 0.0668(7) -0.1490(4)
H57F H 0.3700 0.0516 -0.1792
H58F H 0.3932 0.0075 -0.1330
C40F C 0.4023(2) 0.1538(6) -0.1394(3)
H59F H 0.4357 0.1364 -0.1209
H60F H 0.4095 0.1835 -0.1654
C41F C 0.4604(2) 0.3890(7) -0.19362(19)
H61F H 0.4593 0.4597 -0.2054
H62F H 0.4331 0.3472 -0.2114
C42F C 0.5103(2) 0.3427(8) -0.1920(2)
H63F H 0.5063 0.2724 -0.2041
H64F H 0.5303 0.3850 -0.2080
C43F C 0.5365(2) 0.3380(7) -0.1484(2)
H65F H 0.5679 0.3809 -0.1436
H66F H 0.5463 0.2659 -0.1403
C44F C 0.5017(2) 0.3762(6) -0.12432(18)
H67F H 0.4987 0.3258 -0.1022
H68F H 0.5148 0.4421 -0.1107
C45F C 0.4291(4) 0.3323(6) -0.02059(19)
H69F H 0.4147 0.2680 -0.0348
H70F H 0.4666 0.3322 -0.0191
C46F C 0.4198(5) 0.3336(9) 0.0218(2)
H71F H 0.4520 0.3203 0.0427
H72F H 0.3941 0.2807 0.0250
C47F C 0.4014(3) 0.4329(7) 0.0266(2)
H73F H 0.3693 0.4284 0.0371
H74F H 0.4270 0.4718 0.0473
C48F C 0.3910(2) 0.4890(5) -0.01493(18)
H75F H 0.4111 0.5539 -0.0129
H76F H 0.3541 0.5056 -0.0241
Cl1 Cl 0.44834(13) 0.9933(3) 0.17780(12)
Cl2 Cl 0.38079(10) 0.8573(2) 0.21363(9)
C49 C 0.3860(2) 0.9531(6) 0.1765(2)
H77 H 0.3710 0.9260 0.1482
H78 H 0.3653 1.0138 0.1812
loop_
_geom_bond_atom_site_label_1
_geom_bond_atom_site_label_2
_geom_bond_site_symmetry_1
_geom_bond_site_symmetry_2
Na1 O2 1_555 1_555
Cl1 C49 1_555 1_555
Cl2 C49 1_555 1_555
O1 H1 1_555 1_555
O2 C17 1_555 1_555
O3 Na1 1_555 1_555
O4 Na1 1_555 1_555
O5 Na1 1_555 1_555
O6 Na1 1_555 1_555
C1 O6 1_555 1_555
H2 C1 1_555 1_555
H3 C1 1_555 1_555
C2 C1 1_555 1_555
H4 C2 1_555 1_555
H5 C2 1_555 1_555
C3 C2 1_555 1_555
H6 C3 1_555 1_555
H7 C3 1_555 1_555
C4 O6 1_555 1_555
H8 C4 1_555 1_555
H9 C4 1_555 1_555
C5 O1 1_555 1_555
C6 C5 1_555 1_555
C7 C6 1_555 1_555
H10 C7 1_555 1_555
C8 C7 1_555 1_555
C9 C8 1_555 1_555
H11 C9 1_555 1_555
C10 C5 1_555 1_555
C11 C10 1_555 1_555
H12 C11 1_555 1_555
C12 C11 1_555 1_555
C13 C12 1_555 1_555
H13 C13 1_555 1_555
C14 C13 1_555 1_555
C15 C14 1_555 1_555
H14 C15 1_555 1_555
C16 C15 1_555 1_555
C17 C12 1_555 1_555
C18 H15 1_555 1_555
C19 C11 1_555 1_555
C20 C19 1_555 1_555
H16 C20 1_555 1_555
C21 C6 1_555 1_555
C22 C21 1_555 1_555
H17 C22 1_555 1_555
H18 C22 1_555 1_555
H19 C22 1_555 1_555
C23 C21 1_555 1_555
H20 C23 1_555 1_555
H21 C23 1_555 1_555
H22 C23 1_555 1_555
C24 C21 1_555 1_555
H23 C24 1_555 1_555
H24 C24 1_555 1_555
H25 C24 1_555 1_555
C25 C8 1_555 1_555
C26 C25 1_555 1_555
H26 C26 1_555 1_555
H27 C26 1_555 1_555
H28 C26 1_555 1_555
C27 C25 1_555 1_555
H29 C27 1_555 1_555
H30 C27 1_555 1_555
H31 C27 1_555 1_555
C28 C25 1_555 1_555
H32 C28 1_555 1_555
H33 C28 1_555 1_555
H34 C28 1_555 1_555
C29 C14 1_555 1_555
C30 C29 1_555 1_555
H35 C30 1_555 1_555
H36 C30 1_555 1_555
H37 C30 1_555 1_555
C31 C29 1_555 1_555
H38 C31 1_555 1_555
H39 C31 1_555 1_555
H40 C31 1_555 1_555
C32 C29 1_555 1_555
H41 C32 1_555 1_555
H42 C32 1_555 1_555
H43 C32 1_555 1_555
C33 C16 1_555 1_555
C34 C33 1_555 1_555
H44 C34 1_555 1_555
H45 C34 1_555 1_555
H46 C34 1_555 1_555
C35 C33 1_555 1_555
H47 C35 1_555 1_555
H48 C35 1_555 1_555
H49 C35 1_555 1_555
C36 C33 1_555 1_555
H50 C36 1_555 1_555
H51 C36 1_555 1_555
H52 C36 1_555 1_555
C37 O3 1_555 1_555
H53 C37 1_555 1_555
H54 C37 1_555 1_555
C38 C37 1_555 1_555
H55 C38 1_555 1_555
H56 C38 1_555 1_555
C39 C38 1_555 1_555
H57 C39 1_555 1_555
H58 C39 1_555 1_555
C40 O3 1_555 1_555
H59 C40 1_555 1_555
H60 C40 1_555 1_555
C41 O4 1_555 1_555
H61 C41 1_555 1_555
H62 C41 1_555 1_555
C42 C41 1_555 1_555
H63 C42 1_555 1_555
H64 C42 1_555 1_555
C43 C42 1_555 1_555
H65 C43 1_555 1_555
H66 C43 1_555 1_555
C44 O4 1_555 1_555
H67 C44 1_555 1_555
H68 C44 1_555 1_555
C45 O5 1_555 1_555
H69 C45 1_555 1_555
H70 C45 1_555 1_555
C46 C45 1_555 1_555
H71 C46 1_555 1_555
H72 C46 1_555 1_555
C47 C46 1_555 1_555
H73 C47 1_555 1_555
H74 C47 1_555 1_555
C48 O5 1_555 1_555
H75 C48 1_555 1_555
H76 C48 1_555 1_555
C49 H77 1_555 1_555
H78 C49 1_555 1_555
Na1F O2F 1_555 1_555
O1F H1F 1_555 1_555
O2F C17F 1_555 1_555
O3F Na1F 1_555 1_555
O4F Na1F 1_555 1_555
O5F Na1F 1_555 1_555
O6F Na1F 1_555 1_555
C1F O6F 1_555 1_555
H2F C1F 1_555 1_555
H3F C1F 1_555 1_555
C2F C1F 1_555 1_555
H4F C2F 1_555 1_555
H5F C2F 1_555 1_555
C3F C2F 1_555 1_555
H6F C3F 1_555 1_555
H7F C3F 1_555 1_555
C4F O6F 1_555 1_555
H8F C4F 1_555 1_555
H9F C4F 1_555 1_555
C5F O1F 1_555 1_555
C6F C5F 1_555 1_555
C7F C6F 1_555 1_555
H10F C7F 1_555 1_555
C8F C7F 1_555 1_555
C9F C8F 1_555 1_555
H11F C9F 1_555 1_555
C10F C5F 1_555 1_555
C11F C10F 1_555 1_555
H12F C11F 1_555 1_555
C12F C11F 1_555 1_555
C13F C12F 1_555 1_555
H13F C13F 1_555 1_555
C14F C13F 1_555 1_555
C15F C14F 1_555 1_555
H14F C15F 1_555 1_555
C16F C15F 1_555 1_555
C17F C12F 1_555 1_555
C18F C20 1_555 1_555
H15F C18F 1_555 1_555
C19F C11F 1_555 1_555
C20F C18 1_555 1_555
H16F C20F 1_555 1_555
C21F C6F 1_555 1_555
C22F C21F 1_555 1_555
H17F C22F 1_555 1_555
H18F C22F 1_555 1_555
H19F C22F 1_555 1_555
C23F C21F 1_555 1_555
H20F C23F 1_555 1_555
H21F C23F 1_555 1_555
H22F C23F 1_555 1_555
C24F C21F 1_555 1_555
H23F C24F 1_555 1_555
H24F C24F 1_555 1_555
H25F C24F 1_555 1_555
C25F C8F 1_555 1_555
C26F C25F 1_555 1_555
H26F C26F 1_555 1_555
H27F C26F 1_555 1_555
H28F C26F 1_555 1_555
C27F C25F 1_555 1_555
H29F C27F 1_555 1_555
H30F C27F 1_555 1_555
H31F C27F 1_555 1_555
C28F C25F 1_555 1_555
H32F C28F 1_555 1_555
H33F C28F 1_555 1_555
H34F C28F 1_555 1_555
C29F C14F 1_555 1_555
C30F C29F 1_555 1_555
H35F C30F 1_555 1_555
H36F C30F 1_555 1_555
H37F C30F 1_555 1_555
C31F C29F 1_555 1_555
H38F C31F 1_555 1_555
H39F C31F 1_555 1_555
H40F C31F 1_555 1_555
C32F C29F 1_555 1_555
H41F C32F 1_555 1_555
H42F C32F 1_555 1_555
H43F C32F 1_555 1_555
C33F C16F 1_555 1_555
C34F C33F 1_555 1_555
H44F C34F 1_555 1_555
H45F C34F 1_555 1_555
H46F C34F 1_555 1_555
C35F C33F 1_555 1_555
H47F C35F 1_555 1_555
H48F C35F 1_555 1_555
H49F C35F 1_555 1_555
C36F C33F 1_555 1_555
H50F C36F 1_555 1_555
H51F C36F 1_555 1_555
H52F C36F 1_555 1_555
C37F O3F 1_555 1_555
H53F C37F 1_555 1_555
H54F C37F 1_555 1_555
C38F C37F 1_555 1_555
H55F C38F 1_555 1_555
H56F C38F 1_555 1_555
C39F C38F 1_555 1_555
H57F C39F 1_555 1_555
H58F C39F 1_555 1_555
C40F O3F 1_555 1_555
H59F C40F 1_555 1_555
H60F C40F 1_555 1_555
C41F O4F 1_555 1_555
H61F C41F 1_555 1_555
H62F C41F 1_555 1_555
C42F C41F 1_555 1_555
H63F C42F 1_555 1_555
H64F C42F 1_555 1_555
C43F C42F 1_555 1_555
H65F C43F 1_555 1_555
H66F C43F 1_555 1_555
C44F O4F 1_555 1_555
H67F C44F 1_555 1_555
H68F C44F 1_555 1_555
C45F O5F 1_555 1_555
H69F C45F 1_555 1_555
H70F C45F 1_555 1_555
C46F C45F 1_555 1_555
H71F C46F 1_555 1_555
H72F C46F 1_555 1_555
C47F C46F 1_555 1_555
H73F C47F 1_555 1_555
H74F C47F 1_555 1_555
C48F O5F 1_555 1_555
H75F C48F 1_555 1_555
H76F C48F 1_555 1_555
C3 C4 1_555 1_555
C9 C10 1_555 1_555
C16 C17 1_555 1_555
C18 C19 1_555 1_555
C39 C40 1_555 1_555
C43 C44 1_555 1_555
C47 C48 1_555 1_555
C3F C4F 1_555 1_555
C9F C10F 1_555 1_555
C16F C17F 1_555 1_555
C18F C19F 1_555 1_555
C19F C20F 1_555 1_555
C39F C40F 1_555 1_555
C43F C44F 1_555 1_555
C47F C48F 1_555 1_555

#END
