
#######################################################################
#
#                 Cambridge Crystallographic Data Centre
#                                CCDC 
#
#######################################################################
#
# If this CIF has been generated from an entry in the Cambridge 
# Structural Database, then it will include bibliographic, chemical, 
# crystal, experimental, refinement or atomic coordinate data resulting 
# from the CCDC's data processing and validation procedures.
#
#######################################################################

data_VESDEE
_chemical_formula_moiety         'C88 H136 Li2 O10,6(C4 H8 O1)'
_chemical_name_systematic        
"(\m~2~-(2,2',2'',2'''-(1,4-Phenylenedimethanetriyl)-tetrakis(4,6-di-t-butylphenolato))-hexakis(tetrahydrofuran))-di-lithium tetrahydrofuran solvate"
_symmetry_cell_setting           triclinic
_symmetry_space_group_name_H-M   'P -1'
_symmetry_Int_Tables_number      2
_space_group_name_Hall           '-P 1'
loop_
_symmetry_equiv_pos_site_id
_symmetry_equiv_pos_as_xyz
1 x,y,z
2 -x,-y,-z
_cell_length_a                   12.94(4)
_cell_length_b                   14.87(4)
_cell_length_c                   17.42(5)
_cell_angle_alpha                100.33(7)
_cell_angle_beta                 107.34(6)
_cell_angle_gamma                109.56(7)
_cell_volume                     2866.12
_exptl_crystal_colour            colorless
_exptl_crystal_description       block
_cell_formula_units_Z            1
loop_
_atom_site_label
_atom_site_type_symbol
_atom_site_fract_x
_atom_site_fract_y
_atom_site_fract_z
O1 O 0.2316(4) 0.4613(5) 0.0508(4)
C1 C 0.1425(5) 0.4247(4) 0.0830(3)
H1 H 0.1262 0.4793 0.1085
H2 H 0.1691 0.3949 0.1260
C2 C 0.0381(4) 0.3515(4) 0.0147(4)
H3 H -0.0271 0.3718 0.0080
H4 H 0.0158 0.2874 0.0255
C3 C 0.0628(7) 0.3429(5) -0.0598(3)
H5 H 0.0520 0.2747 -0.0839
H6 H 0.0091 0.3591 -0.1014
C4 C 0.1823(7) 0.4107(6) -0.0375(4)
H7 H 0.1848 0.4588 -0.0686
H8 H 0.2277 0.3744 -0.0511
Li1 Li 0.0231(4) 0.1163(3) 0.3037(3)
O2 O 0.18113(16) 0.13457(13) 0.33132(11)
O3 O 0.27914(18) 0.31124(13) 0.30220(11)
H9 H 0.2455 0.2543 0.3035
O4 O -0.06197(19) 0.15049(16) 0.20735(14)
O5 O -0.09345(19) -0.02630(15) 0.27667(13)
O6 O 0.0263(2) 0.21229(19) 0.40129(15)
C5 C 0.2225(2) 0.06949(19) 0.30334(16)
C6 C 0.2685(2) 0.01278(19) 0.35334(16)
C7 C 0.3148(3) -0.0511(2) 0.31958(17)
H10 H 0.3431 -0.0868 0.3528
C8 C 0.3212(3) -0.0643(2) 0.24070(18)
C9 C 0.2740(2) -0.00908(19) 0.19243(16)
H11 H 0.2756 -0.0154 0.1387
C10 C 0.2257(2) 0.05402(18) 0.22180(16)
C11 C 0.1800(2) 0.11698(17) 0.17010(15)
H12 H 0.1342 0.1405 0.1980
C12 C 0.2827(2) 0.21489(18) 0.17593(16)
C13 C 0.3386(2) 0.21297(19) 0.11917(17)
H13 H 0.3137 0.1529 0.0775
C14 C 0.4336(3) 0.3008(2) 0.12266(18)
C15 C 0.4683(3) 0.3938(2) 0.18530(18)
H14 H 0.5266 0.4518 0.1862
C16 C 0.4175(3) 0.39953(19) 0.24426(18)
C17 C 0.3263(2) 0.30709(19) 0.24214(17)
C18 C 0.0915(2) 0.05419(18) 0.08050(15)
C19 C 0.0279(2) -0.05319(18) 0.05457(16)
H15 H 0.0473 -0.0874 0.0925
C20 C -0.0603(2) -0.10693(19) -0.02399(16)
H16 H -0.0987 -0.1765 -0.0398
C21 C 0.2704(3) 0.0281(2) 0.44264(18)
C22 C 0.3566(3) 0.1415(2) 0.49604(19)
H17 H 0.4362 0.1533 0.5008
H18 H 0.3547 0.1549 0.5515
H19 H 0.3311 0.1850 0.4682
C23 C 0.1457(3) -0.0001(3) 0.4440(2)
H20 H 0.1124 0.0432 0.4221
H21 H 0.1509 0.0075 0.5011
H22 H 0.0958 -0.0685 0.4098
C24 C 0.3167(3) -0.0437(3) 0.48425(19)
H23 H 0.2639 -0.1122 0.4519
H24 H 0.3194 -0.0315 0.5410
H25 H 0.3950 -0.0312 0.4853
C25 C 0.3775(3) -0.1313(2) 0.20666(18)
C26 C 0.4808(4) -0.0602(3) 0.1830(3)
H26 H 0.5168 -0.0992 0.1601
H27 H 0.5400 -0.0069 0.2330
H28 H 0.4469 -0.0322 0.1419
C27 C 0.2908(4) -0.2148(3) 0.1260(3)
H29 H 0.2192 -0.2505 0.1333
H30 H 0.3257 -0.2601 0.1126
H31 H 0.2723 -0.1869 0.0807
C28 C 0.4330(5) -0.1755(4) 0.2700(3)
H32 H 0.3717 -0.2247 0.2793
H33 H 0.4857 -0.1233 0.3224
H34 H 0.4771 -0.2068 0.2486
C29 C 0.4960(3) 0.2981(2) 0.0593(2)
C30 C 0.4708(8) 0.3734(8) 0.0096(5)
H35 H 0.5085 0.3759 -0.0303
H36 H 0.5021 0.4393 0.0490
H37 H 0.3866 0.3506 -0.0199
C31 C 0.6219(7) 0.3342(8) 0.1025(5)
H38 H 0.6391 0.2893 0.1323
H39 H 0.6523 0.3998 0.1420
H40 H 0.6588 0.3377 0.0621
C32 C 0.4428(12) 0.1897(7) 0.0010(7)
H41 H 0.4617 0.1476 0.0336
H42 H 0.4754 0.1876 -0.0418
H43 H 0.3580 0.1661 -0.0254
C33 C 0.4608(3) 0.5048(2) 0.3138(2)
C34 C 0.5608(4) 0.5953(2) 0.3033(2)
H44 H 0.5286 0.6044 0.2495
H45 H 0.6279 0.5796 0.3064
H46 H 0.5857 0.6559 0.3477
C35 C 0.3562(4) 0.5331(2) 0.3087(3)
H47 H 0.3032 0.4882 0.3272
H48 H 0.3143 0.5280 0.2513
H49 H 0.3853 0.6007 0.3443
C36 C 0.5146(4) 0.4950(3) 0.3998(2)
H50 H 0.5348 0.5554 0.4428
H51 H 0.5850 0.4841 0.4045
H52 H 0.4582 0.4392 0.4069
C37 C -0.0276(4) 0.2493(3) 0.1936(3)
H53 H -0.0059 0.3018 0.2449
H54 H 0.0395 0.2637 0.1764
C38 C -0.1324(5) 0.2431(4) 0.1264(4)
H55 H -0.1096 0.2750 0.0865
H56 H -0.1750 0.2752 0.1498
C39 C -0.2060(5) 0.1348(4) 0.0849(3)
H57 H -0.2011 0.1149 0.0304
H58 H -0.2884 0.1211 0.0753
C40 C -0.1669(3) 0.0751(3) 0.1368(2)
H59 H -0.2277 0.0402 0.1559
H60 H -0.1477 0.0265 0.1056
C41 C -0.1790(4) -0.0541(3) 0.3129(3)
H61 H -0.2429 -0.0346 0.2888
H62 H -0.1427 -0.0211 0.3735
C42 C -0.2260(7) -0.1642(4) 0.2947(6)
H63 H -0.2065 -0.1794 0.3476
H64 H -0.3119 -0.1926 0.2669
C43 C -0.1810(5) -0.2093(3) 0.2438(3)
H65 H -0.2442 -0.2559 0.1908
H66 H -0.1396 -0.2450 0.2722
C44 C -0.0942(3) -0.1203(2) 0.2286(2)
H67 H -0.0150 -0.1187 0.2480
H68 H -0.1201 -0.1271 0.1687
C45 C -0.0607(4) 0.2469(4) 0.4067(4)
H69 H -0.1087 0.2078 0.4324
H70 H -0.1126 0.2397 0.3506
C46 C 0.0004(7) 0.3553(6) 0.4594(6)
H71 H 0.0115 0.3991 0.4247
H72 H -0.0439 0.3721 0.4915
C47 C 0.1158(9) 0.3617(9) 0.5157(10)
H73 H 0.1785 0.4279 0.5308
H74 H 0.1109 0.3475 0.5670
C48 C 0.1376(4) 0.2864(4) 0.4664(3)
H75 H 0.1747 0.2543 0.5028
H76 H 0.1913 0.3177 0.4408
Li1A Li -0.0231(4) -0.1163(3) -0.3037(3)
O2A O -0.18113(16) -0.13457(13) -0.33132(11)
O3A O -0.27914(18) -0.31124(13) -0.30220(11)
H9A H -0.2455 -0.2543 -0.3035
O4A O 0.06197(19) -0.15049(16) -0.20735(14)
O5A O 0.09345(19) 0.02630(15) -0.27667(13)
O6A O -0.0263(2) -0.21229(19) -0.40129(15)
C5A C -0.2225(2) -0.06949(19) -0.30334(16)
C6A C -0.2685(2) -0.01278(19) -0.35334(16)
C7A C -0.3148(3) 0.0511(2) -0.31958(17)
H10A H -0.3431 0.0868 -0.3528
C8A C -0.3212(3) 0.0643(2) -0.24070(18)
C9A C -0.2740(2) 0.00908(19) -0.19243(16)
H11A H -0.2756 0.0154 -0.1387
C10A C -0.2257(2) -0.05402(18) -0.22180(16)
C11A C -0.1800(2) -0.11698(17) -0.17010(15)
H12A H -0.1342 -0.1405 -0.1980
C12A C -0.2827(2) -0.21489(18) -0.17593(16)
C13A C -0.3386(2) -0.21297(19) -0.11917(17)
H13A H -0.3137 -0.1529 -0.0775
C14A C -0.4336(3) -0.3008(2) -0.12266(18)
C15A C -0.4683(3) -0.3938(2) -0.18530(18)
H14A H -0.5266 -0.4518 -0.1862
C16A C -0.4175(3) -0.39953(19) -0.24426(18)
C17A C -0.3263(2) -0.30709(19) -0.24214(17)
C18A C -0.0915(2) -0.05419(18) -0.08050(15)
C19A C -0.0279(2) 0.05319(18) -0.05457(16)
H15A H -0.0473 0.0874 -0.0925
C20A C 0.0603(2) 0.10693(19) 0.02399(16)
H16A H 0.0987 0.1765 0.0398
C21A C -0.2704(3) -0.0281(2) -0.44264(18)
C22A C -0.3566(3) -0.1415(2) -0.49604(19)
H17A H -0.4362 -0.1533 -0.5008
H18A H -0.3547 -0.1549 -0.5515
H19A H -0.3311 -0.1850 -0.4682
C23A C -0.1457(3) 0.0001(3) -0.4440(2)
H20A H -0.1124 -0.0432 -0.4221
H21A H -0.1509 -0.0075 -0.5011
H22A H -0.0958 0.0685 -0.4098
C24A C -0.3167(3) 0.0437(3) -0.48425(19)
H23A H -0.2639 0.1122 -0.4519
H24A H -0.3194 0.0315 -0.5410
H25A H -0.3950 0.0312 -0.4853
C25A C -0.3775(3) 0.1313(2) -0.20666(18)
C26A C -0.4808(4) 0.0602(3) -0.1830(3)
H26A H -0.5168 0.0992 -0.1601
H27A H -0.5400 0.0069 -0.2330
H28A H -0.4469 0.0322 -0.1419
C27A C -0.2908(4) 0.2148(3) -0.1260(3)
H29A H -0.2192 0.2505 -0.1333
H30A H -0.3257 0.2601 -0.1126
H31A H -0.2723 0.1869 -0.0807
C28A C -0.4330(5) 0.1755(4) -0.2700(3)
H32A H -0.3717 0.2247 -0.2793
H33A H -0.4857 0.1233 -0.3224
H34A H -0.4771 0.2068 -0.2486
C29A C -0.4960(3) -0.2981(2) -0.0593(2)
C30A C -0.4708(8) -0.3734(8) -0.0096(5)
H35A H -0.5085 -0.3759 0.0303
H36A H -0.5021 -0.4393 -0.0490
H37A H -0.3866 -0.3506 0.0199
C31A C -0.6219(7) -0.3342(8) -0.1025(5)
H38A H -0.6391 -0.2893 -0.1323
H39A H -0.6523 -0.3998 -0.1420
H40A H -0.6588 -0.3377 -0.0621
C32A C -0.4428(12) -0.1897(7) -0.0010(7)
H41A H -0.4617 -0.1476 -0.0336
H42A H -0.4754 -0.1876 0.0418
H43A H -0.3580 -0.1661 0.0254
C33A C -0.4608(3) -0.5048(2) -0.3138(2)
C34A C -0.5608(4) -0.5953(2) -0.3033(2)
H44A H -0.5286 -0.6044 -0.2495
H45A H -0.6279 -0.5796 -0.3064
H46A H -0.5857 -0.6559 -0.3477
C35A C -0.3562(4) -0.5331(2) -0.3087(3)
H47A H -0.3032 -0.4882 -0.3272
H48A H -0.3143 -0.5280 -0.2513
H49A H -0.3853 -0.6007 -0.3443
C36A C -0.5146(4) -0.4950(3) -0.3998(2)
H50A H -0.5348 -0.5554 -0.4428
H51A H -0.5850 -0.4841 -0.4045
H52A H -0.4582 -0.4392 -0.4069
C37A C 0.0276(4) -0.2493(3) -0.1936(3)
H53A H 0.0059 -0.3018 -0.2449
H54A H -0.0395 -0.2637 -0.1764
C38A C 0.1324(5) -0.2431(4) -0.1264(4)
H55A H 0.1096 -0.2750 -0.0865
H56A H 0.1750 -0.2752 -0.1498
C39A C 0.2060(5) -0.1348(4) -0.0849(3)
H57A H 0.2011 -0.1149 -0.0304
H58A H 0.2884 -0.1211 -0.0753
C40A C 0.1669(3) -0.0751(3) -0.1368(2)
H59A H 0.2277 -0.0402 -0.1559
H60A H 0.1477 -0.0265 -0.1056
C41A C 0.1790(4) 0.0541(3) -0.3129(3)
H61A H 0.2429 0.0346 -0.2888
H62A H 0.1427 0.0211 -0.3735
C42A C 0.2260(7) 0.1642(4) -0.2947(6)
H63A H 0.2065 0.1794 -0.3476
H64A H 0.3119 0.1926 -0.2669
C43A C 0.1810(5) 0.2093(3) -0.2438(3)
H65A H 0.2442 0.2559 -0.1908
H66A H 0.1396 0.2450 -0.2722
C44A C 0.0942(3) 0.1203(2) -0.2286(2)
H67A H 0.0150 0.1187 -0.2480
H68A H 0.1201 0.1271 -0.1687
C45A C 0.0607(4) -0.2469(4) -0.4067(4)
H69A H 0.1087 -0.2078 -0.4324
H70A H 0.1126 -0.2397 -0.3506
C46A C -0.0004(7) -0.3553(6) -0.4594(6)
H71A H -0.0115 -0.3991 -0.4247
H72A H 0.0439 -0.3721 -0.4915
C47A C -0.1158(9) -0.3617(9) -0.5157(10)
H73A H -0.1785 -0.4279 -0.5308
H74A H -0.1109 -0.3475 -0.5670
C48A C -0.1376(4) -0.2864(4) -0.4664(3)
H75A H -0.1747 -0.2543 -0.5028
H76A H -0.1913 -0.3177 -0.4408
O7 O 1.0510(9) 0.4889(6) 0.7255(8)
C49 C 0.9275(11) 0.4575(7) 0.6976(10)
H77 H 0.9095 0.4950 0.7395
H78 H 0.8993 0.4728 0.6455
C50 C 0.8689(9) 0.3583(8) 0.6839(7)
H79 H 0.8025 0.3279 0.6296
H80 H 0.8388 0.3475 0.7278
C51 C 0.9536(12) 0.3162(7) 0.6855(12)
H81 H 0.9427 0.2650 0.7135
H82 H 0.9451 0.2863 0.6285
C52 C 1.0661(11) 0.3966(13) 0.7306(8)
H83 H 1.1221 0.3894 0.7060
H84 H 1.0962 0.3982 0.7892
O8 O 0.7385(3) 0.3643(2) 0.4218(3)
C53 C 0.6988(5) 0.3381(4) 0.3373(4)
H85 H 0.7644 0.3450 0.3192
H86 H 0.6626 0.3813 0.3169
C54 C 0.6098(5) 0.2321(4) 0.3027(3)
H87 H 0.5489 0.2207 0.2489
H88 H 0.6475 0.1867 0.2948
C55 C 0.5585(6) 0.2178(4) 0.3668(4)
H89 H 0.4861 0.2286 0.3528
H90 H 0.5405 0.1505 0.3710
C56 C 0.6504(5) 0.2929(4) 0.4462(3)
H91 H 0.6885 0.2612 0.4824
H92 H 0.6159 0.3280 0.4762
C57? C 0.5205(12) 0.1952(9) 0.0498(8)
C58? C 0.4154(10) 0.2828(13) -0.0235(7)
C59? C 0.6134(14) 0.3965(10) 0.0870(8)
C60? C 0.1434(19) 0.3903(16) 0.4563(18)
H93? H 0.4530 0.1409 0.0482
H94? H 0.5898 0.2066 0.0972
H95? H 0.5330 0.1785 -0.0015
H96? H 0.4541 0.2800 -0.0625
H97? H 0.3914 0.3374 -0.0226
H98? H 0.3467 0.2209 -0.0409
H99? H 0.6410 0.3969 0.0416
H100? H 0.6735 0.3978 0.1360
H101? H 0.5969 0.4544 0.1002
H102? H 0.1460 0.3985 0.4028
H103? H 0.2050 0.4476 0.5035
loop_
_geom_bond_atom_site_label_1
_geom_bond_atom_site_label_2
_geom_bond_site_symmetry_1
_geom_bond_site_symmetry_2
O1 C1 1_555 1_555
C1 H1 1_555 1_555
H2 C1 1_555 1_555
C2 C1 1_555 1_555
H3 C2 1_555 1_555
H4 C2 1_555 1_555
C3 C2 1_555 1_555
H5 C3 1_555 1_555
H6 C3 1_555 1_555
C4 O1 1_555 1_555
H7 C4 1_555 1_555
H8 C4 1_555 1_555
Li1 O2 1_555 1_555
O2 C5 1_555 1_555
O3 H9 1_555 1_555
O4 Li1 1_555 1_555
O5 Li1 1_555 1_555
O6 Li1 1_555 1_555
O7 C49 1_555 1_555
O8 C53 1_555 1_555
C5 C6 1_555 1_555
C6 C7 1_555 1_555
C7 H10 1_555 1_555
C8 C7 1_555 1_555
C9 C8 1_555 1_555
H11 C9 1_555 1_555
C10 C5 1_555 1_555
C11 C10 1_555 1_555
H12 C11 1_555 1_555
C12 C11 1_555 1_555
C13 C12 1_555 1_555
H13 C13 1_555 1_555
C14 C13 1_555 1_555
C15 C14 1_555 1_555
H14 C15 1_555 1_555
C16 C15 1_555 1_555
C17 O3 1_555 1_555
C18 C11 1_555 1_555
C19 C18 1_555 1_555
H15 C19 1_555 1_555
C20 C19 1_555 1_555
H16 C20 1_555 1_555
C21 C6 1_555 1_555
C22 C21 1_555 1_555
H17 C22 1_555 1_555
H18 C22 1_555 1_555
H19 C22 1_555 1_555
C23 C21 1_555 1_555
H20 C23 1_555 1_555
H21 C23 1_555 1_555
H22 C23 1_555 1_555
C24 C21 1_555 1_555
H23 C24 1_555 1_555
H24 C24 1_555 1_555
H25 C24 1_555 1_555
C25 C8 1_555 1_555
C26 C25 1_555 1_555
H26 C26 1_555 1_555
H27 C26 1_555 1_555
H28 C26 1_555 1_555
C27 C25 1_555 1_555
H29 C27 1_555 1_555
H30 C27 1_555 1_555
H31 C27 1_555 1_555
C28 C25 1_555 1_555
H32 C28 1_555 1_555
H33 C28 1_555 1_555
H34 C28 1_555 1_555
C29 C14 1_555 1_555
C30 C29 1_555 1_555
H35 C30 1_555 1_555
H36 C30 1_555 1_555
H37 C30 1_555 1_555
C31 C29 1_555 1_555
H38 C31 1_555 1_555
H39 C31 1_555 1_555
H40 C31 1_555 1_555
C32 C29 1_555 1_555
H41 C32 1_555 1_555
H42 C32 1_555 1_555
H43 C32 1_555 1_555
C33 C16 1_555 1_555
C34 C33 1_555 1_555
H44 C34 1_555 1_555
H45 C34 1_555 1_555
H46 C34 1_555 1_555
C35 C33 1_555 1_555
H47 C35 1_555 1_555
H48 C35 1_555 1_555
H49 C35 1_555 1_555
C36 C33 1_555 1_555
H50 C36 1_555 1_555
H51 C36 1_555 1_555
H52 C36 1_555 1_555
C37 O4 1_555 1_555
H53 C37 1_555 1_555
H54 C37 1_555 1_555
C38 C37 1_555 1_555
H55 C38 1_555 1_555
H56 C38 1_555 1_555
C39 C38 1_555 1_555
H57 C39 1_555 1_555
H58 C39 1_555 1_555
C40 O4 1_555 1_555
H59 C40 1_555 1_555
H60 C40 1_555 1_555
C41 O5 1_555 1_555
H61 C41 1_555 1_555
H62 C41 1_555 1_555
C42 C41 1_555 1_555
H63 C42 1_555 1_555
H64 C42 1_555 1_555
C43 C42 1_555 1_555
H65 C43 1_555 1_555
H66 C43 1_555 1_555
C44 O5 1_555 1_555
H67 C44 1_555 1_555
H68 C44 1_555 1_555
C45 O6 1_555 1_555
H69 C45 1_555 1_555
H70 C45 1_555 1_555
C46 C45 1_555 1_555
H71 C46 1_555 1_555
H72 C46 1_555 1_555
C47 C46 1_555 1_555
H73 C47 1_555 1_555
H74 C47 1_555 1_555
C48 O6 1_555 1_555
H75 C48 1_555 1_555
H76 C48 1_555 1_555
C49 H77 1_555 1_555
H78 C49 1_555 1_555
C50 C49 1_555 1_555
H79 C50 1_555 1_555
H80 C50 1_555 1_555
C51 C50 1_555 1_555
H81 C51 1_555 1_555
H82 C51 1_555 1_555
C52 O7 1_555 1_555
H83 C52 1_555 1_555
H84 C52 1_555 1_555
C53 H85 1_555 1_555
H86 C53 1_555 1_555
C54 C53 1_555 1_555
H87 C54 1_555 1_555
H88 C54 1_555 1_555
C55 C54 1_555 1_555
H89 C55 1_555 1_555
H90 C55 1_555 1_555
C56 O8 1_555 1_555
H91 C56 1_555 1_555
H92 C56 1_555 1_555
Li1A O2A 1_555 1_555
O2A C5A 1_555 1_555
O3A H9A 1_555 1_555
O4A Li1A 1_555 1_555
O5A Li1A 1_555 1_555
O6A Li1A 1_555 1_555
C5A C6A 1_555 1_555
C6A C7A 1_555 1_555
C7A H10A 1_555 1_555
C8A C7A 1_555 1_555
C9A C8A 1_555 1_555
H11A C9A 1_555 1_555
C10A C5A 1_555 1_555
C11A C10A 1_555 1_555
H12A C11A 1_555 1_555
C12A C11A 1_555 1_555
C13A C12A 1_555 1_555
H13A C13A 1_555 1_555
C14A C13A 1_555 1_555
C15A C14A 1_555 1_555
H14A C15A 1_555 1_555
C16A C15A 1_555 1_555
C17A O3A 1_555 1_555
C18A C20 1_555 1_555
C19A C18A 1_555 1_555
H15A C19A 1_555 1_555
C20A C18 1_555 1_555
H16A C20A 1_555 1_555
C21A C6A 1_555 1_555
C22A C21A 1_555 1_555
H17A C22A 1_555 1_555
H18A C22A 1_555 1_555
H19A C22A 1_555 1_555
C23A C21A 1_555 1_555
H20A C23A 1_555 1_555
H21A C23A 1_555 1_555
H22A C23A 1_555 1_555
C24A C21A 1_555 1_555
H23A C24A 1_555 1_555
H24A C24A 1_555 1_555
H25A C24A 1_555 1_555
C25A C8A 1_555 1_555
C26A C25A 1_555 1_555
H26A C26A 1_555 1_555
H27A C26A 1_555 1_555
H28A C26A 1_555 1_555
C27A C25A 1_555 1_555
H29A C27A 1_555 1_555
H30A C27A 1_555 1_555
H31A C27A 1_555 1_555
C28A C25A 1_555 1_555
H32A C28A 1_555 1_555
H33A C28A 1_555 1_555
H34A C28A 1_555 1_555
C29A C14A 1_555 1_555
C30A C29A 1_555 1_555
H35A C30A 1_555 1_555
H36A C30A 1_555 1_555
H37A C30A 1_555 1_555
C31A C29A 1_555 1_555
H38A C31A 1_555 1_555
H39A C31A 1_555 1_555
H40A C31A 1_555 1_555
C32A C29A 1_555 1_555
H41A C32A 1_555 1_555
H42A C32A 1_555 1_555
H43A C32A 1_555 1_555
C33A C16A 1_555 1_555
C34A C33A 1_555 1_555
H44A C34A 1_555 1_555
H45A C34A 1_555 1_555
H46A C34A 1_555 1_555
C35A C33A 1_555 1_555
H47A C35A 1_555 1_555
H48A C35A 1_555 1_555
H49A C35A 1_555 1_555
C36A C33A 1_555 1_555
H50A C36A 1_555 1_555
H51A C36A 1_555 1_555
H52A C36A 1_555 1_555
C37A O4A 1_555 1_555
H53A C37A 1_555 1_555
H54A C37A 1_555 1_555
C38A C37A 1_555 1_555
H55A C38A 1_555 1_555
H56A C38A 1_555 1_555
C39A C38A 1_555 1_555
H57A C39A 1_555 1_555
H58A C39A 1_555 1_555
C40A O4A 1_555 1_555
H59A C40A 1_555 1_555
H60A C40A 1_555 1_555
C41A O5A 1_555 1_555
H61A C41A 1_555 1_555
H62A C41A 1_555 1_555
C42A C41A 1_555 1_555
H63A C42A 1_555 1_555
H64A C42A 1_555 1_555
C43A C42A 1_555 1_555
H65A C43A 1_555 1_555
H66A C43A 1_555 1_555
C44A O5A 1_555 1_555
H67A C44A 1_555 1_555
H68A C44A 1_555 1_555
C45A O6A 1_555 1_555
H69A C45A 1_555 1_555
H70A C45A 1_555 1_555
C46A C45A 1_555 1_555
H71A C46A 1_555 1_555
H72A C46A 1_555 1_555
C47A C46A 1_555 1_555
H73A C47A 1_555 1_555
H74A C47A 1_555 1_555
C48A O6A 1_555 1_555
H75A C48A 1_555 1_555
H76A C48A 1_555 1_555
C3 C4 1_555 1_555
C9 C10 1_555 1_555
C12 C17 1_555 1_555
C16 C17 1_555 1_555
C39 C40 1_555 1_555
C43 C44 1_555 1_555
C47 C48 1_555 1_555
C51 C52 1_555 1_555
C55 C56 1_555 1_555
C9A C10A 1_555 1_555
C11A C18A 1_555 1_555
C12A C17A 1_555 1_555
C16A C17A 1_555 1_555
C19A C20A 1_555 1_555
C39A C40A 1_555 1_555
C43A C44A 1_555 1_555
C47A C48A 1_555 1_555

#END
