
#######################################################################
#
#                 Cambridge Crystallographic Data Centre
#                                CCDC 
#
#######################################################################
#
# If this CIF has been generated from an entry in the Cambridge 
# Structural Database, then it will include bibliographic, chemical, 
# crystal, experimental, refinement or atomic coordinate data resulting 
# from the CCDC's data processing and validation procedures.
#
#######################################################################

data_VESDAB
_chemical_formula_moiety         'C5 H5 N1 O1,I2'
_chemical_name_systematic        'pyridine-N-oxide di-iodine'
_symmetry_cell_setting           triclinic
_symmetry_space_group_name_H-M   'P -1'
_symmetry_Int_Tables_number      2
_space_group_name_Hall           '-P 1'
loop_
_symmetry_equiv_pos_site_id
_symmetry_equiv_pos_as_xyz
1 x,y,z
2 -x,-y,-z
_cell_length_a                   9.132(5)
_cell_length_b                   9.374(5)
_cell_length_c                   10.755(6)
_cell_angle_alpha                91.833(10)
_cell_angle_beta                 90.119(10)
_cell_angle_gamma                107.266(9)
_cell_volume                     878.662
_exptl_crystal_colour            red
_exptl_crystal_description       block
_cell_formula_units_Z            4
loop_
_atom_site_label
_atom_site_type_symbol
_atom_site_fract_x
_atom_site_fract_y
_atom_site_fract_z
I1 I 0.32353(7) 0.63942(7) 0.05391(6)
I2 I 0.08357(7) 0.48979(7) 0.19525(6)
I3 I 0.34269(6) 1.03419(7) 0.27405(6)
I4 I 0.25325(7) 0.85419(7) 0.47022(7)
N1 N 0.7695(8) 0.4617(9) 0.3682(8)
O1 O 0.8472(9) 0.3659(8) 0.3544(8)
C1 C 0.6335(13) 0.4397(16) 0.3076(11)
H1 H 0.592998 0.355286 0.253147
C2 C 0.5549(14) 0.546(2) 0.3282(17)
H2 H 0.457469 0.532276 0.290343
C3 C 0.6190(18) 0.667(2) 0.4020(16)
H3 H 0.566316 0.739453 0.414607
C4 C 0.7495(17) 0.6869(15) 0.4560(15)
H4 H 0.792104 0.774788 0.506301
C5 C 0.8263(12) 0.5862(12) 0.4426(11)
H5 H 0.921132 0.601727 0.485378
O2 O 0.5780(8) 0.8092(9) -0.0674(7)
N2 N 0.6876(8) 0.8648(9) 0.0218(8)
C6 C 0.6915(10) 0.9886(10) 0.0837(9)
H6 H 0.617257 1.037762 0.065261
C7 C 0.8018(11) 1.0500(12) 0.1760(10)
H7 H 0.802528 1.137872 0.222858
C8 C 0.9120(12) 0.9750(15) 0.1962(12)
H8 H 0.990721 1.013104 0.257027
C9 C 0.9059(15) 0.8455(17) 0.1275(15)
H9 H 0.979956 0.794362 0.140057
C10 C 0.7912(13) 0.7936(13) 0.0418(13)
H10 H 0.784888 0.704262 -0.004928
loop_
_geom_bond_atom_site_label_1
_geom_bond_atom_site_label_2
_geom_bond_site_symmetry_1
_geom_bond_site_symmetry_2
I1 I2 1_555 1_555
I3 I4 1_555 1_555
N1 O1 1_555 1_555
C1 N1 1_555 1_555
H1 C1 1_555 1_555
C2 C1 1_555 1_555
H2 C2 1_555 1_555
C3 C2 1_555 1_555
H3 C3 1_555 1_555
C4 C3 1_555 1_555
H4 C4 1_555 1_555
C5 N1 1_555 1_555
H5 C5 1_555 1_555
O2 N2 1_555 1_555
N2 C6 1_555 1_555
C6 H6 1_555 1_555
C7 C6 1_555 1_555
H7 C7 1_555 1_555
C8 C7 1_555 1_555
H8 C8 1_555 1_555
C9 C8 1_555 1_555
H9 C9 1_555 1_555
C10 N2 1_555 1_555
H10 C10 1_555 1_555
C4 C5 1_555 1_555
C9 C10 1_555 1_555

#END
