
#######################################################################
#
#                 Cambridge Crystallographic Data Centre
#                                CCDC 
#
#######################################################################
#
# If this CIF has been generated from an entry in the Cambridge 
# Structural Database, then it will include bibliographic, chemical, 
# crystal, experimental, refinement or atomic coordinate data resulting 
# from the CCDC's data processing and validation procedures.
#
#######################################################################

data_VESDOO
_chemical_formula_moiety         'C88 H136 K2 O10'
_chemical_name_systematic        
(\m~2~-\h^5^,\h^3^-(2,2',2'',2'''-(1,4-Phenylenedimethanetriyl)-tetrakis(4,6-di-t-butylphenolato))-hexakis(tetrahydrofuran))-di-potassium
_symmetry_cell_setting           monoclinic
_symmetry_space_group_name_H-M   'C c'
_symmetry_Int_Tables_number      9
_space_group_name_Hall           'C -2yc'
loop_
_symmetry_equiv_pos_site_id
_symmetry_equiv_pos_as_xyz
1 x,y,z
2 x,-y,1/2+z
3 1/2+x,1/2+y,z
4 1/2+x,1/2-y,1/2+z
_cell_length_a                   28.303(16)
_cell_length_b                   25.160(14)
_cell_length_c                   15.445(9)
_cell_angle_alpha                90
_cell_angle_beta                 120.720(6)
_cell_angle_gamma                90
_cell_volume                     9455.07
_exptl_crystal_colour            colorless
_exptl_crystal_description       block
_cell_formula_units_Z            4
loop_
_atom_site_label
_atom_site_type_symbol
_atom_site_fract_x
_atom_site_fract_y
_atom_site_fract_z
C1 C -0.2860(2) -0.1613(3) -0.5829(5)
C2 C -0.3064(3) -0.1744(3) -0.6833(6)
H1 H -0.2884 -0.1997 -0.7001
C3 C -0.3535(3) -0.1497(3) -0.7585(4)
C4 C -0.3803(3) -0.1119(3) -0.7334(6)
H2 H -0.4118 -0.0953 -0.7837
C5 C -0.3599(3) -0.0988(3) -0.6330(7)
C6 C -0.3128(3) -0.1235(3) -0.5578(4)
O1 O -0.1936(3) -0.1743(2) -0.0727(4)
C7 C -0.1380(3) -0.1630(3) 0.0007(4)
H3 H -0.1164 -0.1954 0.0193
H4 H -0.1226 -0.1381 -0.0262
C8 C -0.1370(4) -0.1409(3) 0.0862(4)
H5 H -0.1211 -0.1055 0.0995
H6 H -0.1149 -0.1629 0.1450
C9 C -0.1919(4) -0.1385(3) 0.0656(4)
H7 H -0.2018 -0.1020 0.0693
H8 H -0.1956 -0.1593 0.1148
C10 C -0.2269(4) -0.1591(3) -0.0326(4)
H9 H -0.2470 -0.1896 -0.0296
H10 H -0.2532 -0.1323 -0.0751
O2 O -0.2500(3) -0.0465(2) -0.1938(4)
C11 C -0.2813(3) -0.0131(2) -0.2784(5)
H11 H -0.3197 -0.0143 -0.2982
H12 H -0.2780 -0.0250 -0.3349
C12 C -0.2608(4) 0.0395(2) -0.2509(5)
H13 H -0.2479 0.0523 -0.2945
H14 H -0.2896 0.0630 -0.2578
C13 C -0.2168(4) 0.0386(2) -0.1493(5)
H15 H -0.1833 0.0510 -0.1451
H16 H -0.2251 0.0617 -0.1084
C14 C -0.2101(3) -0.0146(2) -0.1140(5)
H17 H -0.1735 -0.0271 -0.0932
H18 H -0.2152 -0.0164 -0.0566
O3 O -0.2931(4) -0.3247(2) -0.6273(5)
C15 C -0.3011(5) -0.3427(3) -0.7210(5)
H19 H -0.2767 -0.3722 -0.7105
H20 H -0.2931 -0.3143 -0.7541
C16 C -0.3567(5) -0.3590(3) -0.7815(5)
H21 H -0.3749 -0.3382 -0.8431
H22 H -0.3585 -0.3962 -0.7994
C17 C -0.3831(4) -0.3511(3) -0.7252(5)
H23 H -0.3972 -0.3845 -0.7166
H24 H -0.4136 -0.3266 -0.7603
C18 C -0.3438(4) -0.3299(3) -0.6299(5)
H25 H -0.3558 -0.2954 -0.6202
H26 H -0.3394 -0.3534 -0.5765
O4 O -0.1444(4) -0.3452(3) -0.4569(7)
C19 C -0.1068(4) -0.3883(3) -0.4250(8)
H27 H -0.0947 -0.3975 -0.3557
H28 H -0.1244 -0.4192 -0.4668
C20 C -0.0612(4) -0.3726(4) -0.4335(10)
H29 H -0.0573 -0.3961 -0.4794
H30 H -0.0277 -0.3743 -0.3683
C21 C -0.0705(4) -0.3196(4) -0.4707(10)
H31 H -0.0711 -0.3183 -0.5339
H32 H -0.0414 -0.2966 -0.4228
C22 C -0.1219(4) -0.3027(3) -0.4851(8)
H33 H -0.1169 -0.2717 -0.4440
H34 H -0.1466 -0.2934 -0.5551
K1 K -0.23101(13) -0.35790(11) -0.4289(2)
K2 K -0.25416(11) -0.14228(12) -0.26759(19)
O5 O -0.1948(3) -0.1098(3) -0.3548(5)
O6 O -0.2933(3) -0.1101(3) -0.4637(5)
O7 O -0.2880(3) -0.3918(3) -0.3421(5)
O8 O -0.1912(3) -0.3879(3) -0.2367(5)
O9 O -0.2276(4) -0.4597(3) -0.4969(8)
O10 O -0.3450(4) -0.1583(4) -0.2595(8)
C23 C -0.1662(5) -0.1189(4) -0.3973(8)
C24 C -0.1180(5) -0.0918(5) -0.3666(9)
C25 C -0.0868(6) -0.1040(5) -0.4203(11)
H37 H -0.0551 -0.0850 -0.4040
C26 C -0.1053(6) -0.1431(5) -0.4932(10)
C27 C -0.1543(5) -0.1684(4) -0.5222(8)
H38 H -0.1680 -0.1921 -0.5758
C28 C -0.1850(4) -0.1595(4) -0.4732(7)
C29 C -0.2346(4) -0.1922(5) -0.5060(8)
H39 H -0.2313 -0.2215 -0.5443
C30 C -0.2392(4) -0.2189(4) -0.4219(7)
C31 C -0.1937(5) -0.2319(4) -0.3338(8)
H40 H -0.1595 -0.2208 -0.3216
C32 C -0.1971(4) -0.2618(4) -0.2608(7)
H41 H -0.1652 -0.2704 -0.2009
C33 C -0.2463(5) -0.2783(5) -0.2762(8)
C34 C -0.2928(4) -0.2645(4) -0.3633(8)
H42 H -0.3267 -0.2749 -0.3731
C35 C -0.2911(5) -0.2355(4) -0.4381(9)
H43 H -0.3233 -0.2270 -0.4976
C36 C -0.2488(5) -0.3095(4) -0.1883(7)
H44 H -0.2525 -0.2804 -0.1500
C37 C -0.3036(4) -0.3402(5) -0.2266(8)
C38 C -0.3345(4) -0.3300(4) -0.1869(8)
H45 H -0.3247 -0.3017 -0.1422
C39 C -0.3814(4) -0.3596(5) -0.2089(10)
C40 C -0.3975(4) -0.3945(5) -0.2875(9)
H46 H -0.4313 -0.4112 -0.3119
C41 C -0.3697(5) -0.4063(5) -0.3312(9)
C42 C -0.3197(4) -0.3786(5) -0.2998(8)
C43 C -0.1977(4) -0.3355(3) -0.1116(6)
C44 C -0.1764(4) -0.3267(4) -0.0125(8)
H47 H -0.1941 -0.3011 0.0045
C45 C -0.1316(4) -0.3512(5) 0.0670(6)
C46 C -0.1054(5) -0.3877(4) 0.0371(7)
H48 H -0.0739 -0.4041 0.0876
C47 C -0.1229(4) -0.4017(4) -0.0635(8)
C48 C -0.1693(5) -0.3770(4) -0.1384(8)
C49 C -0.0952(5) -0.0499(6) -0.2866(9)
C50 C -0.0902(5) -0.0715(5) -0.1891(8)
H49 H -0.0639 -0.0998 -0.1632
H50 H -0.1253 -0.0845 -0.2032
H51 H -0.0784 -0.0435 -0.1402
C51 C -0.0434(5) -0.0213(6) -0.2687(11)
H52 H -0.0481 -0.0101 -0.3320
H53 H -0.0126 -0.0450 -0.2360
H54 H -0.0370 0.0092 -0.2267
C52 C -0.1360(5) -0.0028(5) -0.3233(9)
H55 H -0.1399 0.0113 -0.3844
H56 H -0.1224 0.0244 -0.2726
H57 H -0.1711 -0.0149 -0.3357
C53 C -0.0693(5) -0.1508(7) -0.5395(10)
C54 C -0.0729(6) -0.1015(7) -0.5986(11)
H58 H -0.0509 -0.1062 -0.6289
H59 H -0.0597 -0.0714 -0.5541
H60 H -0.1105 -0.0956 -0.6502
C55 C -0.0105(4) -0.1597(7) -0.4621(10)
H61 H -0.0066 -0.1937 -0.4307
H62 H 0.0018 -0.1322 -0.4122
H63 H 0.0112 -0.1591 -0.4937
C56 C -0.0886(7) -0.2002(7) -0.6038(14)
H64 H -0.0870 -0.2299 -0.5633
H65 H -0.0654 -0.2069 -0.6310
H66 H -0.1258 -0.1953 -0.6578
C57 C -0.3756(7) -0.1644(8) -0.8733(11)
C58 C -0.4238(7) -0.2034(8) -0.9096(11)
H67 H -0.4115 -0.2351 -0.8694
H68 H -0.4375 -0.2123 -0.9788
H69 H -0.4526 -0.1872 -0.9032
C59 C -0.3341(8) -0.1749(11) -0.8918(11)
H70 H -0.3067 -0.1475 -0.8623
H71 H -0.3487 -0.1758 -0.9632
H72 H -0.3178 -0.2086 -0.8630
C60 C -0.3932(9) -0.1138(6) -0.9395(11)
H73 H -0.3633 -0.0889 -0.9121
H74 H -0.4244 -0.0980 -0.9406
H75 H -0.4028 -0.1231 -1.0068
C61 C -0.3889(5) -0.0558(7) -0.6060(12)
C62 C -0.4410(7) -0.0339(8) -0.7024(14)
H76 H -0.4553 -0.0040 -0.6845
H77 H -0.4685 -0.0613 -0.7310
H78 H -0.4312 -0.0231 -0.7508
C63 C -0.3487(7) -0.0069(6) -0.5541(11)
H79 H -0.3163 -0.0186 -0.4940
H80 H -0.3669 0.0198 -0.5373
H81 H -0.3386 0.0078 -0.5998
C64 C -0.4081(7) -0.0804(9) -0.5421(12)
H82 H -0.3772 -0.0872 -0.4763
H83 H -0.4266 -0.1132 -0.5720
H84 H -0.4330 -0.0566 -0.5367
C65 C -0.3883(6) -0.4510(6) -0.4150(12)
C66 C -0.3425(7) -0.4933(6) -0.3724(13)
H85 H -0.3517 -0.5209 -0.4214
H86 H -0.3390 -0.5083 -0.3122
H87 H -0.3084 -0.4772 -0.3569
C67 C -0.4000(7) -0.4283(8) -0.5088(11)
H88 H -0.4111 -0.4558 -0.5585
H89 H -0.3676 -0.4111 -0.5005
H90 H -0.4291 -0.4027 -0.5304
C68 C -0.4462(7) -0.4694(8) -0.4421(14)
H91 H -0.4594 -0.4955 -0.4948
H92 H -0.4707 -0.4395 -0.4646
H93 H -0.4447 -0.4847 -0.3838
C69 C -0.4107(8) -0.3490(6) -0.1519(14)
C70 C -0.4381(11) -0.2962(9) -0.174(2)
H94 H -0.4559 -0.2922 -0.1350
H95 H -0.4650 -0.2937 -0.2440
H96 H -0.4112 -0.2687 -0.1555
C71 C -0.3763(8) -0.3413(10) -0.0515(14)
H97 H -0.3493 -0.3692 -0.0249
H98 H -0.3971 -0.3418 -0.0181
H99 H -0.3582 -0.3076 -0.0405
C72 C -0.4416(8) -0.4001(8) -0.1506(17)
H100 H -0.4159 -0.4290 -0.1220
H101 H -0.4695 -0.4090 -0.2182
H102 H -0.4582 -0.3938 -0.1109
C73 C -0.1075(6) -0.3384(6) 0.1758(9)
C74 C -0.1576(7) -0.3091(9) 0.1890(11)
H103 H -0.1426 -0.2979 0.2576
H104 H -0.1868 -0.3340 0.1715
H105 H -0.1716 -0.2787 0.1454
C75 C -0.0673(7) -0.2983(9) 0.2092(13)
H106 H -0.0561 -0.2889 0.2773
H107 H -0.0824 -0.2676 0.1667
H108 H -0.0362 -0.3110 0.2064
C76 C -0.0737(10) -0.3853(8) 0.2393(12)
H109 H -0.0587 -0.3771 0.3093
H110 H -0.0444 -0.3922 0.2268
H111 H -0.0968 -0.4161 0.2220
C77 C -0.0931(7) -0.4451(6) -0.0874(11)
C78 C -0.1328(6) -0.4895(7) -0.1368(10)
H112 H -0.1394 -0.5065 -0.0884
H113 H -0.1178 -0.5148 -0.1628
H114 H -0.1667 -0.4757 -0.1910
C79 C -0.0767(6) -0.4224(7) -0.1613(12)
H115 H -0.0564 -0.4487 -0.1740
H116 H -0.0543 -0.3914 -0.1324
H117 H -0.1093 -0.4131 -0.2234
C80 C -0.0421(6) -0.4659(6) 0.0043(11)
H118 H -0.0519 -0.4819 0.0494
H119 H -0.0170 -0.4370 0.0378
H120 H -0.0248 -0.4919 -0.0158
C81 C -0.2109(7) -0.5006(6) -0.4289(10)
H121 H -0.2145 -0.4905 -0.3719
H122 H -0.1726 -0.5089 -0.4043
C82 C -0.2443(6) -0.5455(5) -0.4779(12)
H123 H -0.2223 -0.5774 -0.4640
H124 H -0.2712 -0.5512 -0.4577
C83 C -0.2697(9) -0.5311(6) -0.5801(12)
H125 H -0.3084 -0.5401 -0.6137
H126 H -0.2534 -0.5511 -0.6119
C84 C -0.2639(8) -0.4749(7) -0.5916(11)
H127 H -0.2497 -0.4686 -0.6361
H128 H -0.2986 -0.4565 -0.6175
C85 C -0.3549(8) -0.1336(8) -0.1772(15)
H129 H -0.3451 -0.1577 -0.1215
H130 H -0.3362 -0.0999 -0.1522
C86 C -0.4129(9) -0.1276(8) -0.2408(16)
H131 H -0.4215 -0.0907 -0.2611
H132 H -0.4309 -0.1374 -0.2040
C87 C -0.4348(7) -0.1639(7) -0.3374(12)
H133 H -0.4607 -0.1901 -0.3404
H134 H -0.4524 -0.1428 -0.3985
C88 C -0.3886(5) -0.1874(6) -0.3245(12)
H135 H -0.3855 -0.2231 -0.2984
H136 H -0.3901 -0.1898 -0.3886
H35? H -0.2465 -0.1090 -0.4082
H36? H -0.2426 -0.3880 -0.2926
loop_
_geom_bond_atom_site_label_1
_geom_bond_atom_site_label_2
_geom_bond_site_symmetry_1
_geom_bond_site_symmetry_2
C1 C2 1_555 1_555
C2 H1 1_555 1_555
C3 C2 1_555 1_555
C4 C3 1_555 1_555
H2 C4 1_555 1_555
C5 C4 1_555 1_555
C6 C1 1_555 1_555
O1 C7 1_555 1_555
C7 H3 1_555 1_555
H4 C7 1_555 1_555
C8 C7 1_555 1_555
H5 C8 1_555 1_555
H6 C8 1_555 1_555
C9 C8 1_555 1_555
H7 C9 1_555 1_555
H8 C9 1_555 1_555
C10 O1 1_555 1_555
H9 C10 1_555 1_555
H10 C10 1_555 1_555
O2 C11 1_555 1_555
C11 H11 1_555 1_555
H12 C11 1_555 1_555
C12 C11 1_555 1_555
H13 C12 1_555 1_555
H14 C12 1_555 1_555
C13 C12 1_555 1_555
H15 C13 1_555 1_555
H16 C13 1_555 1_555
C14 O2 1_555 1_555
H17 C14 1_555 1_555
H18 C14 1_555 1_555
O3 C15 1_555 1_555
C15 H19 1_555 1_555
H20 C15 1_555 1_555
C16 C15 1_555 1_555
H21 C16 1_555 1_555
H22 C16 1_555 1_555
C17 C16 1_555 1_555
H23 C17 1_555 1_555
H24 C17 1_555 1_555
C18 O3 1_555 1_555
H25 C18 1_555 1_555
H26 C18 1_555 1_555
O4 C19 1_555 1_555
C19 H27 1_555 1_555
H28 C19 1_555 1_555
C20 C19 1_555 1_555
H29 C20 1_555 1_555
H30 C20 1_555 1_555
C21 C20 1_555 1_555
H31 C21 1_555 1_555
H32 C21 1_555 1_555
C22 O4 1_555 1_555
H33 C22 1_555 1_555
H34 C22 1_555 1_555
K1 O3 1_555 1_555
K2 O1 1_555 1_555
O5 K2 1_555 1_555
O6 C6 1_555 1_555
O7 K1 1_555 1_555
O8 K1 1_555 1_555
O9 K1 1_555 1_555
O10 K2 1_555 1_555
C23 O5 1_555 1_555
C24 C23 1_555 1_555
C25 C24 1_555 1_555
H37 C25 1_555 1_555
C26 C25 1_555 1_555
C27 C26 1_555 1_555
H38 C27 1_555 1_555
C28 C23 1_555 1_555
C29 C1 1_555 1_555
H39 C29 1_555 1_555
C30 K2 1_555 1_555
C31 K2 1_555 1_555
H40 C31 1_555 1_555
C32 K1 1_555 1_555
H41 C32 1_555 1_555
C33 K1 1_555 1_555
C34 K1 1_555 1_555
H42 C34 1_555 1_555
C35 K2 1_555 1_555
H43 C35 1_555 1_555
C36 C33 1_555 1_555
H44 C36 1_555 1_555
C37 C36 1_555 1_555
C38 C37 1_555 1_555
H45 C38 1_555 1_555
C39 C38 1_555 1_555
C40 C39 1_555 1_555
H46 C40 1_555 1_555
C41 C40 1_555 1_555
C42 O7 1_555 1_555
C43 C36 1_555 1_555
C44 C43 1_555 1_555
H47 C44 1_555 1_555
C45 C44 1_555 1_555
C46 C45 1_555 1_555
H48 C46 1_555 1_555
C47 C46 1_555 1_555
C48 O8 1_555 1_555
C49 C24 1_555 1_555
C50 C49 1_555 1_555
H49 C50 1_555 1_555
H50 C50 1_555 1_555
H51 C50 1_555 1_555
C51 C49 1_555 1_555
H52 C51 1_555 1_555
H53 C51 1_555 1_555
H54 C51 1_555 1_555
C52 C49 1_555 1_555
H55 C52 1_555 1_555
H56 C52 1_555 1_555
H57 C52 1_555 1_555
C53 C26 1_555 1_555
C54 C53 1_555 1_555
H58 C54 1_555 1_555
H59 C54 1_555 1_555
H60 C54 1_555 1_555
C55 C53 1_555 1_555
H61 C55 1_555 1_555
H62 C55 1_555 1_555
H63 C55 1_555 1_555
C56 C53 1_555 1_555
H64 C56 1_555 1_555
H65 C56 1_555 1_555
H66 C56 1_555 1_555
C57 C3 1_555 1_555
C58 C57 1_555 1_555
H67 C58 1_555 1_555
H68 C58 1_555 1_555
H69 C58 1_555 1_555
C59 C57 1_555 1_555
H70 C59 1_555 1_555
H71 C59 1_555 1_555
H72 C59 1_555 1_555
C60 C57 1_555 1_555
H73 C60 1_555 1_555
H74 C60 1_555 1_555
H75 C60 1_555 1_555
C61 C5 1_555 1_555
C62 C61 1_555 1_555
H76 C62 1_555 1_555
H77 C62 1_555 1_555
H78 C62 1_555 1_555
C63 C61 1_555 1_555
H79 C63 1_555 1_555
H80 C63 1_555 1_555
H81 C63 1_555 1_555
C64 C61 1_555 1_555
H82 C64 1_555 1_555
H83 C64 1_555 1_555
H84 C64 1_555 1_555
C65 C41 1_555 1_555
C66 C65 1_555 1_555
H85 C66 1_555 1_555
H86 C66 1_555 1_555
H87 C66 1_555 1_555
C67 C65 1_555 1_555
H88 C67 1_555 1_555
H89 C67 1_555 1_555
H90 C67 1_555 1_555
C68 C65 1_555 1_555
H91 C68 1_555 1_555
H92 C68 1_555 1_555
H93 C68 1_555 1_555
C69 C39 1_555 1_555
C70 C69 1_555 1_555
H94 C70 1_555 1_555
H95 C70 1_555 1_555
H96 C70 1_555 1_555
C71 C69 1_555 1_555
H97 C71 1_555 1_555
H98 C71 1_555 1_555
H99 C71 1_555 1_555
C72 C69 1_555 1_555
H100 C72 1_555 1_555
H101 C72 1_555 1_555
H102 C72 1_555 1_555
C73 C45 1_555 1_555
C74 C73 1_555 1_555
H103 C74 1_555 1_555
H104 C74 1_555 1_555
H105 C74 1_555 1_555
C75 C73 1_555 1_555
H106 C75 1_555 1_555
H107 C75 1_555 1_555
H108 C75 1_555 1_555
C76 C73 1_555 1_555
H109 C76 1_555 1_555
H110 C76 1_555 1_555
H111 C76 1_555 1_555
C77 C47 1_555 1_555
C78 C77 1_555 1_555
H112 C78 1_555 1_555
H113 C78 1_555 1_555
H114 C78 1_555 1_555
C79 C77 1_555 1_555
H115 C79 1_555 1_555
H116 C79 1_555 1_555
H117 C79 1_555 1_555
C80 C77 1_555 1_555
H118 C80 1_555 1_555
H119 C80 1_555 1_555
H120 C80 1_555 1_555
C81 O9 1_555 1_555
H121 C81 1_555 1_555
H122 C81 1_555 1_555
C82 C81 1_555 1_555
H123 C82 1_555 1_555
H124 C82 1_555 1_555
C83 C82 1_555 1_555
H125 C83 1_555 1_555
H126 C83 1_555 1_555
C84 O9 1_555 1_555
H127 C84 1_555 1_555
H128 C84 1_555 1_555
C85 O10 1_555 1_555
H129 C85 1_555 1_555
H130 C85 1_555 1_555
C86 C85 1_555 1_555
H131 C86 1_555 1_555
H132 C86 1_555 1_555
C87 C86 1_555 1_555
H133 C87 1_555 1_555
H134 C87 1_555 1_555
C88 O10 1_555 1_555
H135 C88 1_555 1_555
H136 C88 1_555 1_555
C5 C6 1_555 1_555
C9 C10 1_555 1_555
O2 K2 1_555 1_555
C13 C14 1_555 1_555
C17 C18 1_555 1_555
O4 K1 1_555 1_555
C21 C22 1_555 1_555
K2 O6 1_555 1_555
K2 C32 1_555 1_555
K2 C34 1_555 1_555
C27 C28 1_555 1_555
C28 C29 1_555 1_555
C29 C30 1_555 1_555
C30 C31 1_555 1_555
C30 C35 1_555 1_555
C31 C32 1_555 1_555
C32 C33 1_555 1_555
C33 C34 1_555 1_555
C34 C35 1_555 1_555
C37 C42 1_555 1_555
C41 C42 1_555 1_555
C43 C48 1_555 1_555
C47 C48 1_555 1_555
C83 C84 1_555 1_555
C87 C88 1_555 1_555

#END
