
#######################################################################
#
#                 Cambridge Crystallographic Data Centre
#                                CCDC 
#
#######################################################################
#
# If this CIF has been generated from an entry in the Cambridge 
# Structural Database, then it will include bibliographic, chemical, 
# crystal, experimental, refinement or atomic coordinate data resulting 
# from the CCDC's data processing and validation procedures.
#
#######################################################################

data_VESFEG
_chemical_formula_moiety         'C84 H127 Na3 O9,C7 H8'
_chemical_name_systematic        
"(\m~3~-2,2',2'',2'''-(1,3-Phenylenedimethanetriyl)-tetrakis(4,6-di-t-butylphenol))-pentakis(tetrahydrofuran)-tri-sodium toluene solvate"
_symmetry_cell_setting           monoclinic
_symmetry_space_group_name_H-M   'P 21/n'
_symmetry_Int_Tables_number      14
_space_group_name_Hall           '-P 2yn'
loop_
_symmetry_equiv_pos_site_id
_symmetry_equiv_pos_as_xyz
1 x,y,z
2 1/2-x,1/2+y,1/2-z
3 -x,-y,-z
4 1/2+x,1/2-y,1/2+z
_cell_length_a                   16.749(2)
_cell_length_b                   22.288(3)
_cell_length_c                   24.722(4)
_cell_angle_alpha                90
_cell_angle_beta                 98.877(2)
_cell_angle_gamma                90
_cell_volume                     9118.22
_exptl_crystal_colour            colorless
_exptl_crystal_description       block
_cell_formula_units_Z            4
loop_
_atom_site_label
_atom_site_type_symbol
_atom_site_fract_x
_atom_site_fract_y
_atom_site_fract_z
Na1 Na 0.12022(8) 0.21057(6) 0.10062(5)
Na2 Na 0.47421(9) 0.26314(7) 0.14180(6)
Na3 Na 0.28448(9) 0.35030(6) 0.15082(6)
O1 O 0.22506(13) 0.27402(9) 0.09658(8)
O2 O 0.39665(13) 0.31065(9) 0.19918(9)
O3 O 0.00449(13) 0.22561(9) 0.13024(9)
O4 O -0.06542(15) 0.12912(10) 0.13510(9)
H1 H -0.0418 0.1614 0.1398
O5 O 0.3078(3) 0.44751(15) 0.12113(16)
O6 O 0.2089(2) 0.37808(17) 0.21683(16)
O7 O 0.5059(2) 0.32196(16) 0.07180(15)
O8 O 0.60868(18) 0.22796(15) 0.16562(14)
O9 O 0.12730(16) 0.12028(12) 0.05644(11)
C1 C 0.15907(19) 0.18888(13) 0.21351(12)
H2 H 0.1536 0.2300 0.2179
C2 C 0.09476(19) 0.15169(14) 0.22087(12)
C3 C 0.1047(2) 0.09092(15) 0.21449(13)
H3 H 0.0630 0.0649 0.2193
C4 C 0.1755(2) 0.06816(15) 0.20112(14)
H4 H 0.1812 0.0270 0.1970
C5 C 0.23776(19) 0.10557(14) 0.19381(13)
H5 H 0.2852 0.0896 0.1846
C6 C 0.23073(18) 0.16711(13) 0.19996(11)
C7 C 0.29672(18) 0.21120(13) 0.18989(11)
H6 H 0.2711 0.2508 0.1882
C8 C 0.32290(18) 0.20221(13) 0.13395(12)
C9 C 0.28298(19) 0.23618(13) 0.08907(12)
C10 C 0.3073(2) 0.22720(15) 0.03688(13)
C11 C 0.3653(2) 0.18446(16) 0.03233(14)
H7 H 0.3802 0.1788 -0.0020
C12 C 0.40327(19) 0.14929(15) 0.07493(14)
C13 C 0.38088(18) 0.16058(14) 0.12629(13)
H8 H 0.3922 0.1290 0.1540
C14 C 0.36880(17) 0.21569(13) 0.23549(12)
C15 C 0.41324(19) 0.26983(14) 0.23843(13)
C16 C 0.4766(2) 0.27808(14) 0.28370(13)
C17 C 0.4953(2) 0.22982(16) 0.31888(13)
H9 H 0.5375 0.2347 0.3477
C18 C 0.4561(2) 0.17495(15) 0.31453(13)
C19 C 0.39071(19) 0.17020(14) 0.27257(12)
H10 H 0.3606 0.1350 0.2694
C20 C 0.01813(18) 0.17693(13) 0.24022(13)
H11 H 0.0333 0.1797 0.2800
C21 C -0.00670(18) 0.24026(14) 0.22344(14)
C22 C -0.01521(19) 0.26124(15) 0.16957(15)
C23 C -0.0471(2) 0.31986(16) 0.15690(16)
C24 C -0.0662(2) 0.35403(17) 0.19970(18)
H12 H -0.0857 0.3926 0.1918
C25 C -0.0585(2) 0.33510(17) 0.25321(18)
C26 C -0.0288(2) 0.27798(16) 0.26352(15)
H13 H -0.0232 0.2638 0.2993
C27 C -0.05251(18) 0.13268(13) 0.23296(13)
C28 C -0.08958(19) 0.11169(14) 0.18220(13)
C29 C -0.15155(19) 0.06875(14) 0.17847(14)
C30 C -0.1749(2) 0.04963(15) 0.22715(15)
H14 H -0.2165 0.0217 0.2251
C31 C -0.1403(2) 0.06949(15) 0.27883(14)
C32 C -0.07950(19) 0.11134(15) 0.27984(13)
H15 H -0.0553 0.1261 0.3136
C33 C 0.2656(3) 0.2628(2) -0.01322(14)
C34 C 0.2753(3) 0.32956(19) -0.00361(17)
H16 H 0.2529 0.3405 0.0285
H17 H 0.2476 0.3508 -0.0347
H18 H 0.3317 0.3397 0.0015
C35 C 0.1747(3) 0.2476(2) -0.02375(16)
H19 H 0.1678 0.2048 -0.0246
H20 H 0.1506 0.2643 -0.0582
H21 H 0.1490 0.2642 0.0050
C36 C 0.3006(3) 0.2464(2) -0.06562(16)
H22 H 0.3569 0.2568 -0.0609
H23 H 0.2721 0.2681 -0.0962
H24 H 0.2946 0.2040 -0.0723
C37 C 0.4602(2) 0.09903(18) 0.06453(17)
C38 C 0.5286(3) 0.1231(2) 0.0363(2)
H25 H 0.5625 0.1490 0.0610
H26 H 0.5062 0.1451 0.0042
H27 H 0.5601 0.0901 0.0261
C39 C 0.4980(4) 0.0674(3) 0.1158(2)
H28 H 0.5313 0.0352 0.1064
H29 H 0.4563 0.0516 0.1344
H30 H 0.5305 0.0953 0.1393
C40 C 0.4118(3) 0.0535(2) 0.0254(3)
H31 H 0.4475 0.0228 0.0160
H32 H 0.3872 0.0737 -0.0072
H33 H 0.3706 0.0356 0.0431
C41 C 0.5194(2) 0.33855(16) 0.29332(16)
C42 C 0.5616(3) 0.35702(19) 0.24504(19)
H34 H 0.6016 0.3276 0.2400
H35 H 0.5871 0.3953 0.2525
H36 H 0.5224 0.3597 0.2124
C43 C 0.4578(3) 0.38687(18) 0.30135(18)
H37 H 0.4842 0.4252 0.3057
H38 H 0.4342 0.3779 0.3334
H39 H 0.4162 0.3879 0.2699
C44 C 0.5846(3) 0.33785(19) 0.3451(2)
H40 H 0.6247 0.3082 0.3409
H41 H 0.5598 0.3283 0.3766
H42 H 0.6097 0.3766 0.3500
C45 C 0.4823(2) 0.12186(18) 0.35170(16)
C46 C 0.4135(4) 0.0928(4) 0.3713(4)
H43 H 0.4324 0.0593 0.3942
H44 H 0.3758 0.0791 0.3406
H45 H 0.3873 0.1211 0.3921
C47 C 0.5547(4) 0.1298(3) 0.3895(3)
H46 H 0.5472 0.1612 0.4148
H47 H 0.5979 0.1404 0.3699
H48 H 0.5679 0.0931 0.4092
C48 C 0.5035(5) 0.0687(3) 0.3144(3)
H49 H 0.5209 0.0346 0.3369
H50 H 0.5459 0.0809 0.2948
H51 H 0.4564 0.0581 0.2888
C49 C -0.0618(3) 0.34265(19) 0.09747(18)
C50 C -0.0940(4) 0.4085(2) 0.0939(2)
H52 H -0.1458 0.4099 0.1059
H53 H -0.0991 0.4222 0.0568
H54 H -0.0568 0.4338 0.1169
C51 C 0.0177(3) 0.3436(2) 0.0737(2)
H55 H 0.0593 0.3618 0.0995
H56 H 0.0103 0.3664 0.0403
H57 H 0.0331 0.3033 0.0663
C52 C -0.1250(3) 0.3030(2) 0.0633(2)
H58 H -0.1063 0.2622 0.0646
H59 H -0.1336 0.3167 0.0260
H60 H -0.1749 0.3051 0.0778
C53 C -0.0864(3) 0.3735(2) 0.29875(19)
C54 C -0.0874(3) 0.43955(19) 0.2855(2)
H61 H -0.0356 0.4513 0.2771
H62 H -0.0990 0.4620 0.3165
H63 H -0.1282 0.4474 0.2546
C55 C -0.0317(4) 0.3651(3) 0.3529(2)
H64 H -0.0427 0.3269 0.3683
H65 H -0.0413 0.3965 0.3776
H66 H 0.0237 0.3663 0.3472
C56 C -0.1716(3) 0.3541(2) 0.3043(3)
H67 H -0.2074 0.3634 0.2712
H68 H -0.1890 0.3749 0.3344
H69 H -0.1724 0.3116 0.3108
C57 C -0.1905(2) 0.04334(16) 0.12297(14)
C58 C -0.2300(3) 0.0932(2) 0.08598(16)
H70 H -0.2733 0.1106 0.1020
H71 H -0.2511 0.0768 0.0507
H72 H -0.1906 0.1234 0.0819
C59 C -0.1256(3) 0.01175(18) 0.09599(16)
H73 H -0.0883 0.0409 0.0860
H74 H -0.1507 -0.0090 0.0638
H75 H -0.0971 -0.0165 0.1212
C60 C -0.2558(3) -0.0028(2) 0.12856(17)
H76 H -0.2331 -0.0347 0.1521
H77 H -0.2767 -0.0188 0.0931
H78 H -0.2987 0.0160 0.1440
C61 C -0.1693(2) 0.04634(18) 0.33068(15)
C62 C -0.1156(5) 0.0623(4) 0.3804(2)
H79 H -0.1018 0.1040 0.3793
H80 H -0.0673 0.0385 0.3834
H81 H -0.1421 0.0548 0.4115
C63 C -0.2521(4) 0.0697(4) 0.3335(3)
H82 H -0.2783 0.0441 0.3566
H83 H -0.2830 0.0705 0.2974
H84 H -0.2483 0.1096 0.3484
C64 C -0.1767(5) -0.0191(3) 0.3301(2)
H85 H -0.1332 -0.0362 0.3141
H86 H -0.2274 -0.0304 0.3089
H87 H -0.1743 -0.0335 0.3669
C65 C 0.2703(6) 0.4811(3) 0.0779(3)
H88 H 0.2124 0.4811 0.0780
H89 H 0.2806 0.4636 0.0438
C66 C 0.2999(7) 0.5413(4) 0.0822(4)
H90 H 0.2555 0.5697 0.0788
H91 H 0.3326 0.5496 0.0539
C67 C 0.3479(6) 0.5449(4) 0.1357(5)
H92 H 0.4005 0.5617 0.1330
H93 H 0.3215 0.5707 0.1592
C68 C 0.3566(5) 0.4868(3) 0.1579(3)
H94 H 0.3393 0.4860 0.1935
H95 H 0.4127 0.4745 0.1621
C69 C 0.1518(4) 0.4232(4) 0.2169(3)
H96 H 0.0983 0.4079 0.2032
H97 H 0.1634 0.4560 0.1935
C70 C 0.1552(4) 0.4441(3) 0.2728(4)
H98 H 0.1017 0.4445 0.2833
H99 H 0.1778 0.4842 0.2771
C71 C 0.2079(5) 0.4005(3) 0.3062(3)
H100 H 0.2294 0.4038 0.3431
C72 C 0.2193(4) 0.3517(3) 0.2697(2)
H101 H 0.2730 0.3347 0.2789
H102 H 0.1797 0.3204 0.2716
C73 C 0.5103(5) 0.3824(3) 0.0743(3)
H103 H 0.5493 0.3944 0.1056
H104 H 0.4581 0.3988 0.0789
C74 C 0.5342(7) 0.4056(3) 0.0247(3)
H105 H 0.4904 0.4284 0.0040
H106 H 0.5809 0.4316 0.0332
C75 C 0.5533(7) 0.3548(4) -0.0059(4)
H107 H 0.5226 0.3557 -0.0425
H108 H 0.6104 0.3544 -0.0087
C76 C 0.5326(4) 0.3036(3) 0.0229(3)
H109 H 0.4902 0.2813 0.0004
H110 H 0.5793 0.2776 0.0315
C77 C 0.6780(3) 0.2538(3) 0.1486(2)
H111 H 0.6730 0.2972 0.1477
H112 H 0.6828 0.2401 0.1120
C78 C 0.7494(3) 0.2363(3) 0.1866(3)
H113 H 0.7823 0.2711 0.1984
H114 H 0.7817 0.2079 0.1697
C79 C 0.7181(5) 0.2089(3) 0.2328(3)
H115 H 0.7174 0.2377 0.2621
H116 H 0.7511 0.1749 0.2469
C80 C 0.6357(4) 0.1894(3) 0.2109(3)
H117 H 0.6357 0.1480 0.1990
H118 H 0.6008 0.1930 0.2386
C81 C 0.0618(3) 0.0796(2) 0.0447(2)
H119 H 0.0390 0.0815 0.0062
H120 H 0.0198 0.0893 0.0662
C82 C 0.0949(3) 0.0187(2) 0.0589(2)
H121 H 0.0719 -0.0104 0.0317
H122 H 0.0830 0.0063 0.0944
C83 C 0.1845(3) 0.0243(2) 0.05979(18)
H123 H 0.2137 0.0154 0.0959
H124 H 0.2028 -0.0027 0.0335
C84 C 0.1961(2) 0.0877(2) 0.04488(19)
H125 H 0.2451 0.1036 0.0661
H126 H 0.2006 0.0908 0.0063
C85 C 0.1161(7) 0.8239(5) 0.0492(4)
H127 H 0.1171 0.8401 0.0133
H128 H 0.1068 0.8557 0.0737
H129 H 0.0736 0.7948 0.0475
C86 C 0.1952(4) 0.7946(3) 0.0694(3)
C87 C 0.1975(5) 0.7551(3) 0.1131(3)
H130 H 0.1509 0.7475 0.1281
C88 C 0.2696(7) 0.7270(2) 0.13457(17)
H131 H 0.2711 0.7006 0.1638
C89 C 0.3393(4) 0.7384(3) 0.1123(3)
H132 H 0.3875 0.7196 0.1266
C90 C 0.3370(4) 0.7779(4) 0.0685(4)
H133 H 0.3837 0.7856 0.0536
C91 C 0.2650(7) 0.8060(2) 0.04712(18)
H134 H 0.2634 0.8325 0.0179
loop_
_geom_bond_atom_site_label_1
_geom_bond_atom_site_label_2
_geom_bond_site_symmetry_1
_geom_bond_site_symmetry_2
Na1 O1 1_555 1_555
Na2 O2 1_555 1_555
Na3 O1 1_555 1_555
O1 C9 1_555 1_555
O2 Na3 1_555 1_555
O3 Na1 1_555 1_555
O4 H1 1_555 1_555
O5 Na3 1_555 1_555
O6 Na3 1_555 1_555
O7 Na2 1_555 1_555
O8 Na2 1_555 1_555
O9 Na1 1_555 1_555
C1 H2 1_555 1_555
C2 C1 1_555 1_555
C3 C2 1_555 1_555
H3 C3 1_555 1_555
C4 C3 1_555 1_555
H4 C4 1_555 1_555
C5 C4 1_555 1_555
H5 C5 1_555 1_555
C6 C1 1_555 1_555
C7 C6 1_555 1_555
H6 C7 1_555 1_555
C8 C7 1_555 1_555
C9 C8 1_555 1_555
C10 C9 1_555 1_555
C11 C10 1_555 1_555
H7 C11 1_555 1_555
C12 C11 1_555 1_555
C13 C8 1_555 1_555
H8 C13 1_555 1_555
C14 C7 1_555 1_555
C15 O2 1_555 1_555
C16 C15 1_555 1_555
C17 C16 1_555 1_555
H9 C17 1_555 1_555
C18 C17 1_555 1_555
C19 C14 1_555 1_555
H10 C19 1_555 1_555
C20 C2 1_555 1_555
H11 C20 1_555 1_555
C21 C20 1_555 1_555
C22 O3 1_555 1_555
C23 C22 1_555 1_555
C24 C23 1_555 1_555
H12 C24 1_555 1_555
C25 C24 1_555 1_555
C26 C21 1_555 1_555
H13 C26 1_555 1_555
C27 C20 1_555 1_555
C28 O4 1_555 1_555
C29 C28 1_555 1_555
C30 C29 1_555 1_555
H14 C30 1_555 1_555
C31 C30 1_555 1_555
C32 C27 1_555 1_555
H15 C32 1_555 1_555
C33 C10 1_555 1_555
C34 C33 1_555 1_555
H16 C34 1_555 1_555
H17 C34 1_555 1_555
H18 C34 1_555 1_555
C35 C33 1_555 1_555
H19 C35 1_555 1_555
H20 C35 1_555 1_555
H21 C35 1_555 1_555
C36 C33 1_555 1_555
H22 C36 1_555 1_555
H23 C36 1_555 1_555
H24 C36 1_555 1_555
C37 C12 1_555 1_555
C38 C37 1_555 1_555
H25 C38 1_555 1_555
H26 C38 1_555 1_555
H27 C38 1_555 1_555
C39 C37 1_555 1_555
H28 C39 1_555 1_555
H29 C39 1_555 1_555
H30 C39 1_555 1_555
C40 C37 1_555 1_555
H31 C40 1_555 1_555
H32 C40 1_555 1_555
H33 C40 1_555 1_555
C41 C16 1_555 1_555
C42 C41 1_555 1_555
H34 C42 1_555 1_555
H35 C42 1_555 1_555
H36 C42 1_555 1_555
C43 C41 1_555 1_555
H37 C43 1_555 1_555
H38 C43 1_555 1_555
H39 C43 1_555 1_555
C44 C41 1_555 1_555
H40 C44 1_555 1_555
H41 C44 1_555 1_555
H42 C44 1_555 1_555
C45 C18 1_555 1_555
C46 C45 1_555 1_555
H43 C46 1_555 1_555
H44 C46 1_555 1_555
H45 C46 1_555 1_555
C47 C45 1_555 1_555
H46 C47 1_555 1_555
H47 C47 1_555 1_555
H48 C47 1_555 1_555
C48 C45 1_555 1_555
H49 C48 1_555 1_555
H50 C48 1_555 1_555
H51 C48 1_555 1_555
C49 C23 1_555 1_555
C50 C49 1_555 1_555
H52 C50 1_555 1_555
H53 C50 1_555 1_555
H54 C50 1_555 1_555
C51 C49 1_555 1_555
H55 C51 1_555 1_555
H56 C51 1_555 1_555
H57 C51 1_555 1_555
C52 C49 1_555 1_555
H58 C52 1_555 1_555
H59 C52 1_555 1_555
H60 C52 1_555 1_555
C53 C25 1_555 1_555
C54 C53 1_555 1_555
H61 C54 1_555 1_555
H62 C54 1_555 1_555
H63 C54 1_555 1_555
C55 C53 1_555 1_555
H64 C55 1_555 1_555
H65 C55 1_555 1_555
H66 C55 1_555 1_555
C56 C53 1_555 1_555
H67 C56 1_555 1_555
H68 C56 1_555 1_555
H69 C56 1_555 1_555
C57 C29 1_555 1_555
C58 C57 1_555 1_555
H70 C58 1_555 1_555
H71 C58 1_555 1_555
H72 C58 1_555 1_555
C59 C57 1_555 1_555
H73 C59 1_555 1_555
H74 C59 1_555 1_555
H75 C59 1_555 1_555
C60 C57 1_555 1_555
H76 C60 1_555 1_555
H77 C60 1_555 1_555
H78 C60 1_555 1_555
C61 C31 1_555 1_555
C62 C61 1_555 1_555
H79 C62 1_555 1_555
H80 C62 1_555 1_555
H81 C62 1_555 1_555
C63 C61 1_555 1_555
H82 C63 1_555 1_555
H83 C63 1_555 1_555
H84 C63 1_555 1_555
C64 C61 1_555 1_555
H85 C64 1_555 1_555
H86 C64 1_555 1_555
H87 C64 1_555 1_555
C65 O5 1_555 1_555
H88 C65 1_555 1_555
H89 C65 1_555 1_555
C66 C65 1_555 1_555
H90 C66 1_555 1_555
H91 C66 1_555 1_555
C67 C66 1_555 1_555
H92 C67 1_555 1_555
H93 C67 1_555 1_555
C68 O5 1_555 1_555
H94 C68 1_555 1_555
H95 C68 1_555 1_555
C69 O6 1_555 1_555
H96 C69 1_555 1_555
H97 C69 1_555 1_555
C70 C69 1_555 1_555
H98 C70 1_555 1_555
H99 C70 1_555 1_555
C71 C70 1_555 1_555
H100 C71 1_555 1_555
C72 O6 1_555 1_555
H101 C72 1_555 1_555
H102 C72 1_555 1_555
C73 O7 1_555 1_555
H103 C73 1_555 1_555
H104 C73 1_555 1_555
C74 C73 1_555 1_555
H105 C74 1_555 1_555
H106 C74 1_555 1_555
C75 C74 1_555 1_555
H107 C75 1_555 1_555
H108 C75 1_555 1_555
C76 O7 1_555 1_555
H109 C76 1_555 1_555
H110 C76 1_555 1_555
C77 O8 1_555 1_555
H111 C77 1_555 1_555
H112 C77 1_555 1_555
C78 C77 1_555 1_555
H113 C78 1_555 1_555
H114 C78 1_555 1_555
C79 C78 1_555 1_555
H115 C79 1_555 1_555
H116 C79 1_555 1_555
C80 O8 1_555 1_555
H117 C80 1_555 1_555
H118 C80 1_555 1_555
C81 O9 1_555 1_555
H119 C81 1_555 1_555
H120 C81 1_555 1_555
C82 C81 1_555 1_555
H121 C82 1_555 1_555
H122 C82 1_555 1_555
C83 C82 1_555 1_555
H123 C83 1_555 1_555
H124 C83 1_555 1_555
C84 O9 1_555 1_555
H125 C84 1_555 1_555
H126 C84 1_555 1_555
C85 H127 1_555 1_555
H128 C85 1_555 1_555
H129 C85 1_555 1_555
C86 C85 1_555 1_555
C87 C86 1_555 1_555
H130 C87 1_555 1_555
C88 C87 1_555 1_555
H131 C88 1_555 1_555
C89 C88 1_555 1_555
H132 C89 1_555 1_555
C90 C89 1_555 1_555
H133 C90 1_555 1_555
C91 C86 1_555 1_555
H134 C91 1_555 1_555
C5 C6 1_555 1_555
C12 C13 1_555 1_555
C14 C15 1_555 1_555
C18 C19 1_555 1_555
C21 C22 1_555 1_555
C25 C26 1_555 1_555
C27 C28 1_555 1_555
C31 C32 1_555 1_555
C67 C68 1_555 1_555
C71 C72 1_555 1_555
C75 C76 1_555 1_555
C79 C80 1_555 1_555
C83 C84 1_555 1_555
C90 C91 1_555 1_555

#END
