
#######################################################################
#
#                 Cambridge Crystallographic Data Centre
#                                CCDC 
#
#######################################################################
#
# If this CIF has been generated from an entry in the Cambridge 
# Structural Database, then it will include bibliographic, chemical, 
# crystal, experimental, refinement or atomic coordinate data resulting 
# from the CCDC's data processing and validation procedures.
#
#######################################################################

data_VESFAC
_chemical_formula_moiety         'C88 H134 Li4 O10'
_chemical_name_systematic        
(\m~4~-2,2',2'',2'''-(1,3-Phenylenedimethanetriyl)-tetrakis(4,6-di-t-butylphenolato))-hexakis(tetrahydrofuran)-tetra-lithium
_symmetry_cell_setting           orthorhombic
_symmetry_space_group_name_H-M   'P 21 21 2'
_symmetry_Int_Tables_number      18
_space_group_name_Hall           'P 2 2ab'
loop_
_symmetry_equiv_pos_site_id
_symmetry_equiv_pos_as_xyz
1 x,y,z
2 -x,-y,z
3 1/2-x,1/2+y,-z
4 1/2+x,1/2-y,-z
_cell_length_a                   17.406(13)
_cell_length_b                   23.338(17)
_cell_length_c                   11.340(8)
_cell_angle_alpha                90
_cell_angle_beta                 90
_cell_angle_gamma                90
_cell_volume                     4606.55
_exptl_crystal_colour            colorless
_exptl_crystal_description       block
_cell_formula_units_Z            2
loop_
_atom_site_label
_atom_site_type_symbol
_atom_site_fract_x
_atom_site_fract_y
_atom_site_fract_z
Li1 Li 0.2584(6) 0.4559(4) 0.1185(9)
Li2 Li 0.1570(5) 0.5037(3) 0.2235(7)
O1 O 0.2142(2) 0.44058(15) 0.2728(3)
O2 O 0.1676(2) 0.49287(15) 0.0630(3)
O3 O 0.3428(3) 0.5193(2) 0.1547(5)
O4 O 0.1676(2) 0.58268(16) 0.2753(3)
O5 O 0.3075(3) 0.3931(2) 0.0337(4)
C1 C 0.0689(3) 0.4023(2) 0.1613(4)
H1 H 0.0234 0.3776 0.1565
C2 C 0.1254(4) 0.3640(2) 0.2340(4)
C3 C 0.1057(3) 0.3075(2) 0.2465(5)
H2 H 0.0600 0.2953 0.2119
C4 C 0.1482(4) 0.2676(2) 0.3061(5)
C5 C 0.2133(4) 0.2904(3) 0.3620(5)
H3 H 0.2438 0.2650 0.4046
C6 C 0.2362(3) 0.3464(3) 0.3597(5)
C7 C 0.1932(4) 0.3863(2) 0.2878(4)
C8 C 0.0884(3) 0.4103(2) 0.0326(5)
C9 C 0.0639(3) 0.3686(2) -0.0458(5)
H4 H 0.0371 0.3375 -0.0154
C10 C 0.0763(4) 0.3703(3) -0.1650(5)
C11 C 0.1107(3) 0.4192(3) -0.2077(5)
H5 H 0.1189 0.4222 -0.2885
C12 C 0.1341(3) 0.4648(3) -0.1350(5)
C13 C 0.1313(4) 0.4565(3) -0.0116(5)
C14 C 0.0367(3) 0.4548(2) 0.2296(5)
C15 C 0.0000 0.5000 0.1700(6)
H6 H 0.0000 0.5000 0.0880
C16 C 0.0352(3) 0.4566(2) 0.3524(5)
H7 H 0.0589 0.4274 0.3945
C17 C 0.0000 0.5000 0.4132(7)
H8 H 0.0000 0.5000 0.4952
C18 C 0.0561(4) 0.3209(3) -0.2507(6)
C19 C 0.0000(8) 0.2794(5) -0.1948(9)
H9 H -0.0344 0.3000 -0.1441
H10 H 0.0278 0.2515 -0.1495
H11 H -0.0288 0.2604 -0.2555
C20 C 0.0313(7) 0.3432(4) -0.3675(7)
H12 H 0.0695 0.3691 -0.3974
H13 H -0.0167 0.3631 -0.3591
H14 H 0.0250 0.3118 -0.4214
C21 C 0.1276(7) 0.2857(4) -0.2762(10)
H15 H 0.1167 0.2587 -0.3379
H16 H 0.1427 0.2655 -0.2062
H17 H 0.1684 0.3106 -0.3007
C22 C 0.1675(5) 0.5197(2) -0.1903(4)
C23 C 0.1500(5) 0.5259(3) -0.3179(5)
H18 H 0.1801 0.5565 -0.3503
H19 H 0.0964 0.5343 -0.3278
H20 H 0.1622 0.4908 -0.3579
C24 C 0.1324(5) 0.5725(2) -0.1307(6)
H21 H 0.1410 0.5705 -0.0471
H22 H 0.0782 0.5736 -0.1460
H23 H 0.1560 0.6065 -0.1615
C25 C 0.2568(5) 0.5156(3) -0.1830(6)
H24 H 0.2745 0.4852 -0.2333
H25 H 0.2718 0.5078 -0.1032
H26 H 0.2791 0.5512 -0.2081
C26 C 0.1293(5) 0.2045(3) 0.3081(7)
C27 C 0.1830(5) 0.1682(3) 0.3794(7)
H27 H 0.2334 0.1697 0.3454
H28 H 0.1650 0.1293 0.3798
H29 H 0.1849 0.1824 0.4588
C28 C 0.0514(7) 0.1985(3) 0.3622(10)
H30 H 0.0545 0.2066 0.4451
H31 H 0.0332 0.1600 0.3509
H32 H 0.0166 0.2249 0.3255
C29 C 0.1252(6) 0.1804(3) 0.1857(7)
H33 H 0.1129 0.2104 0.1311
H34 H 0.0861 0.1514 0.1825
H35 H 0.1739 0.1639 0.1651
C30 C 0.3078(4) 0.3680(2) 0.4273(6)
C31 C 0.3412(5) 0.3211(3) 0.5065(6)
H36 H 0.3066 0.3137 0.5706
H37 H 0.3899 0.3334 0.5372
H38 H 0.3482 0.2867 0.4613
C32 C 0.2864(4) 0.4164(3) 0.5075(5)
H39 H 0.2725 0.4492 0.4612
H40 H 0.3294 0.4258 0.5568
H41 H 0.2437 0.4052 0.5558
C33 C 0.3712(4) 0.3840(3) 0.3450(6)
H42 H 0.3849 0.3513 0.2979
H43 H 0.4151 0.3962 0.3897
H44 H 0.3545 0.4146 0.2946
C34 C 0.3728(7) 0.3905(4) -0.0249(10)
H45 H 0.4157 0.3959 0.0285
H46 H 0.3745 0.4205 -0.0842
C35 C 0.3779(9) 0.3342(6) -0.0813(13)
H47 H 0.3702 0.3382 -0.1656
H48 H 0.4287 0.3182 -0.0686
C36 C 0.3198(8) 0.2952(5) -0.0328(13)
H49 H 0.2925 0.2745 -0.0941
H50 H 0.3416 0.2684 0.0233
C37 C 0.2725(6) 0.3375(5) 0.0231(9)
H51 H 0.2590 0.3240 0.1013
H52 H 0.2253 0.3414 -0.0216
C38 C 0.3630(6) 0.5390(4) 0.2686(8)
H53 H 0.4032 0.5148 0.3007
H54 H 0.3187 0.5362 0.3202
C39 C 0.3889(7) 0.5968(5) 0.2651(10)
H55 H 0.4348 0.6016 0.3126
H56 H 0.3495 0.6226 0.2942
C40 C 0.4048(8) 0.6079(5) 0.1450(10)
H57 H 0.3849 0.6451 0.1218
H58 H 0.4597 0.6072 0.1304
C41 C 0.3675(7) 0.5636(5) 0.0825(9)
H59 H 0.3236 0.5795 0.0413
H60 H 0.4025 0.5483 0.0238
C42 C 0.1657(5) 0.6011(3) 0.3964(5)
H61 H 0.2171 0.6019 0.4296
H62 H 0.1340 0.5757 0.4435
C43 C 0.1336(7) 0.6571(4) 0.3923(8)
H63 H 0.0810 0.6559 0.4203
H64 H 0.1626 0.6823 0.4438
C44 C 0.1351(6) 0.6783(3) 0.2792(8)
H65 H 0.1734 0.7084 0.2720
H66 H 0.0854 0.6939 0.2578
C45 C 0.1549(4) 0.6292(3) 0.2024(6)
H67 H 0.1131 0.6212 0.1483
H68 H 0.2007 0.6377 0.1568
Li1A Li -0.2584(6) 0.5441(4) 0.1185(9)
Li2A Li -0.1570(5) 0.4963(3) 0.2235(7)
O1A O -0.2142(2) 0.55942(15) 0.2728(3)
O2A O -0.1676(2) 0.50713(15) 0.0630(3)
O3A O -0.3428(3) 0.4807(2) 0.1547(5)
O4A O -0.1676(2) 0.41732(16) 0.2753(3)
O5A O -0.3075(3) 0.6069(2) 0.0337(4)
C1A C -0.0689(3) 0.5977(2) 0.1613(4)
H1A H -0.0234 0.6224 0.1565
C2A C -0.1254(4) 0.6360(2) 0.2340(4)
C3A C -0.1057(3) 0.6925(2) 0.2465(5)
H2A H -0.0600 0.7047 0.2119
C4A C -0.1482(4) 0.7324(2) 0.3061(5)
C5A C -0.2133(4) 0.7096(3) 0.3620(5)
H3A H -0.2438 0.7350 0.4046
C6A C -0.2362(3) 0.6536(3) 0.3597(5)
C7A C -0.1932(4) 0.6137(2) 0.2878(4)
C8A C -0.0884(3) 0.5897(2) 0.0326(5)
C9A C -0.0639(3) 0.6314(2) -0.0458(5)
H4A H -0.0371 0.6625 -0.0154
C10A C -0.0763(4) 0.6297(3) -0.1650(5)
C11A C -0.1107(3) 0.5808(3) -0.2077(5)
H5A H -0.1189 0.5778 -0.2885
C12A C -0.1341(3) 0.5352(3) -0.1350(5)
C13A C -0.1313(4) 0.5435(3) -0.0116(5)
C14A C -0.0367(3) 0.5452(2) 0.2296(5)
C16A C -0.0352(3) 0.5434(2) 0.3524(5)
H7A H -0.0589 0.5726 0.3945
C18A C -0.0561(4) 0.6791(3) -0.2507(6)
C19A C 0.0000(8) 0.7206(5) -0.1948(9)
H9A H 0.0344 0.7000 -0.1441
H10A H -0.0278 0.7485 -0.1495
H11A H 0.0288 0.7396 -0.2555
C20A C -0.0313(7) 0.6568(4) -0.3675(7)
H12A H -0.0695 0.6309 -0.3974
H13A H 0.0167 0.6369 -0.3591
H14A H -0.0250 0.6882 -0.4214
C21A C -0.1276(7) 0.7143(4) -0.2762(10)
H15A H -0.1167 0.7413 -0.3379
H16A H -0.1427 0.7345 -0.2062
H17A H -0.1684 0.6894 -0.3007
C22A C -0.1675(5) 0.4803(2) -0.1903(4)
C23A C -0.1500(5) 0.4741(3) -0.3179(5)
H18A H -0.1801 0.4435 -0.3503
H19A H -0.0964 0.4657 -0.3278
H20A H -0.1622 0.5092 -0.3579
C24A C -0.1324(5) 0.4275(2) -0.1307(6)
H21A H -0.1410 0.4295 -0.0471
H22A H -0.0782 0.4264 -0.1460
H23A H -0.1560 0.3935 -0.1615
C25A C -0.2568(5) 0.4844(3) -0.1830(6)
H24A H -0.2745 0.5148 -0.2333
H25A H -0.2718 0.4922 -0.1032
H26A H -0.2791 0.4488 -0.2081
C26A C -0.1293(5) 0.7955(3) 0.3081(7)
C27A C -0.1830(5) 0.8318(3) 0.3794(7)
H27A H -0.2334 0.8303 0.3454
H28A H -0.1650 0.8707 0.3798
H29A H -0.1849 0.8176 0.4588
C28A C -0.0514(7) 0.8015(3) 0.3622(10)
H30A H -0.0545 0.7934 0.4451
H31A H -0.0332 0.8400 0.3509
H32A H -0.0166 0.7751 0.3255
C29A C -0.1252(6) 0.8196(3) 0.1857(7)
H33A H -0.1129 0.7896 0.1311
H34A H -0.0861 0.8486 0.1825
H35A H -0.1739 0.8361 0.1651
C30A C -0.3078(4) 0.6320(2) 0.4273(6)
C31A C -0.3412(5) 0.6789(3) 0.5065(6)
H36A H -0.3066 0.6863 0.5706
H37A H -0.3899 0.6666 0.5372
H38A H -0.3482 0.7133 0.4613
C32A C -0.2864(4) 0.5836(3) 0.5075(5)
H39A H -0.2725 0.5508 0.4612
H40A H -0.3294 0.5742 0.5568
H41A H -0.2437 0.5948 0.5558
C33A C -0.3712(4) 0.6160(3) 0.3450(6)
H42A H -0.3849 0.6487 0.2979
H43A H -0.4151 0.6038 0.3897
H44A H -0.3545 0.5854 0.2946
C34A C -0.3728(7) 0.6095(4) -0.0249(10)
H45A H -0.4157 0.6041 0.0285
H46A H -0.3745 0.5795 -0.0842
C35A C -0.3779(9) 0.6658(6) -0.0813(13)
H47A H -0.3702 0.6618 -0.1656
H48A H -0.4287 0.6818 -0.0686
C36A C -0.3198(8) 0.7048(5) -0.0328(13)
H49A H -0.2925 0.7255 -0.0941
H50A H -0.3416 0.7316 0.0233
C37A C -0.2725(6) 0.6625(5) 0.0231(9)
H51A H -0.2590 0.6760 0.1013
H52A H -0.2253 0.6586 -0.0216
C38A C -0.3630(6) 0.4610(4) 0.2686(8)
H53A H -0.4032 0.4852 0.3007
H54A H -0.3187 0.4638 0.3202
C39A C -0.3889(7) 0.4032(5) 0.2651(10)
H55A H -0.4348 0.3984 0.3126
H56A H -0.3495 0.3774 0.2942
C40A C -0.4048(8) 0.3921(5) 0.1450(10)
H57A H -0.3849 0.3549 0.1218
H58A H -0.4597 0.3928 0.1304
C41A C -0.3675(7) 0.4364(5) 0.0825(9)
H59A H -0.3236 0.4205 0.0413
H60A H -0.4025 0.4517 0.0238
C42A C -0.1657(5) 0.3989(3) 0.3964(5)
H61A H -0.2171 0.3981 0.4296
H62A H -0.1340 0.4243 0.4435
C43A C -0.1336(7) 0.3429(4) 0.3923(8)
H63A H -0.0810 0.3441 0.4203
H64A H -0.1626 0.3177 0.4438
C44A C -0.1351(6) 0.3217(3) 0.2792(8)
H65A H -0.1734 0.2916 0.2720
H66A H -0.0854 0.3061 0.2578
C45A C -0.1549(4) 0.3708(3) 0.2024(6)
H67A H -0.1131 0.3788 0.1483
H68A H -0.2007 0.3623 0.1568
loop_
_geom_bond_atom_site_label_1
_geom_bond_atom_site_label_2
_geom_bond_site_symmetry_1
_geom_bond_site_symmetry_2
Li1 O1 1_555 1_555
Li2 O1 1_555 1_555
O1 C7 1_555 1_555
O2 Li1 1_555 1_555
O3 Li1 1_555 1_555
O4 Li2 1_555 1_555
O5 Li1 1_555 1_555
C1 H1 1_555 1_555
C2 C1 1_555 1_555
C3 C2 1_555 1_555
H2 C3 1_555 1_555
C4 C3 1_555 1_555
C5 C4 1_555 1_555
H3 C5 1_555 1_555
C6 C5 1_555 1_555
C7 C2 1_555 1_555
C8 C1 1_555 1_555
C9 C8 1_555 1_555
H4 C9 1_555 1_555
C10 C9 1_555 1_555
C11 C10 1_555 1_555
H5 C11 1_555 1_555
C12 C11 1_555 1_555
C13 O2 1_555 1_555
C14 C1 1_555 1_555
C15 C14 1_555 1_555
H6 C15 1_555 1_555
C16 C14 1_555 1_555
H7 C16 1_555 1_555
C17 C16 1_555 1_555
H8 C17 1_555 1_555
C18 C10 1_555 1_555
C19 C18 1_555 1_555
H9 C19 1_555 1_555
H10 C19 1_555 1_555
H11 C19 1_555 1_555
C20 C18 1_555 1_555
H12 C20 1_555 1_555
H13 C20 1_555 1_555
H14 C20 1_555 1_555
C21 C18 1_555 1_555
H15 C21 1_555 1_555
H16 C21 1_555 1_555
H17 C21 1_555 1_555
C22 C12 1_555 1_555
C23 C22 1_555 1_555
H18 C23 1_555 1_555
H19 C23 1_555 1_555
H20 C23 1_555 1_555
C24 C22 1_555 1_555
H21 C24 1_555 1_555
H22 C24 1_555 1_555
H23 C24 1_555 1_555
C25 C22 1_555 1_555
H24 C25 1_555 1_555
H25 C25 1_555 1_555
H26 C25 1_555 1_555
C26 C4 1_555 1_555
C27 C26 1_555 1_555
H27 C27 1_555 1_555
H28 C27 1_555 1_555
H29 C27 1_555 1_555
C28 C26 1_555 1_555
H30 C28 1_555 1_555
H31 C28 1_555 1_555
H32 C28 1_555 1_555
C29 C26 1_555 1_555
H33 C29 1_555 1_555
H34 C29 1_555 1_555
H35 C29 1_555 1_555
C30 C6 1_555 1_555
C31 C30 1_555 1_555
H36 C31 1_555 1_555
H37 C31 1_555 1_555
H38 C31 1_555 1_555
C32 C30 1_555 1_555
H39 C32 1_555 1_555
H40 C32 1_555 1_555
H41 C32 1_555 1_555
C33 C30 1_555 1_555
H42 C33 1_555 1_555
H43 C33 1_555 1_555
H44 C33 1_555 1_555
C34 O5 1_555 1_555
H45 C34 1_555 1_555
H46 C34 1_555 1_555
C35 C34 1_555 1_555
H47 C35 1_555 1_555
H48 C35 1_555 1_555
C36 C35 1_555 1_555
H49 C36 1_555 1_555
H50 C36 1_555 1_555
C37 O5 1_555 1_555
H51 C37 1_555 1_555
H52 C37 1_555 1_555
C38 O3 1_555 1_555
H53 C38 1_555 1_555
H54 C38 1_555 1_555
C39 C38 1_555 1_555
H55 C39 1_555 1_555
H56 C39 1_555 1_555
C40 C39 1_555 1_555
H57 C40 1_555 1_555
H58 C40 1_555 1_555
C41 O3 1_555 1_555
H59 C41 1_555 1_555
H60 C41 1_555 1_555
C42 O4 1_555 1_555
H61 C42 1_555 1_555
H62 C42 1_555 1_555
C43 C42 1_555 1_555
H63 C43 1_555 1_555
H64 C43 1_555 1_555
C44 C43 1_555 1_555
H65 C44 1_555 1_555
H66 C44 1_555 1_555
C45 O4 1_555 1_555
H67 C45 1_555 1_555
H68 C45 1_555 1_555
Li1A O1A 1_555 1_555
Li2A O1A 1_555 1_555
O1A C7A 1_555 1_555
O2A Li1A 1_555 1_555
O3A Li1A 1_555 1_555
O4A Li2A 1_555 1_555
O5A Li1A 1_555 1_555
C1A H1A 1_555 1_555
C2A C1A 1_555 1_555
C3A C2A 1_555 1_555
H2A C3A 1_555 1_555
C4A C3A 1_555 1_555
C5A C4A 1_555 1_555
H3A C5A 1_555 1_555
C6A C5A 1_555 1_555
C7A C2A 1_555 1_555
C8A C1A 1_555 1_555
C9A C8A 1_555 1_555
H4A C9A 1_555 1_555
C10A C9A 1_555 1_555
C11A C10A 1_555 1_555
H5A C11A 1_555 1_555
C12A C11A 1_555 1_555
C13A O2A 1_555 1_555
C14A C15 1_555 1_555
C16A C17 1_555 1_555
H7A C16A 1_555 1_555
C18A C10A 1_555 1_555
C19A C18A 1_555 1_555
H9A C19A 1_555 1_555
H10A C19A 1_555 1_555
H11A C19A 1_555 1_555
C20A C18A 1_555 1_555
H12A C20A 1_555 1_555
H13A C20A 1_555 1_555
H14A C20A 1_555 1_555
C21A C18A 1_555 1_555
H15A C21A 1_555 1_555
H16A C21A 1_555 1_555
H17A C21A 1_555 1_555
C22A C12A 1_555 1_555
C23A C22A 1_555 1_555
H18A C23A 1_555 1_555
H19A C23A 1_555 1_555
H20A C23A 1_555 1_555
C24A C22A 1_555 1_555
H21A C24A 1_555 1_555
H22A C24A 1_555 1_555
H23A C24A 1_555 1_555
C25A C22A 1_555 1_555
H24A C25A 1_555 1_555
H25A C25A 1_555 1_555
H26A C25A 1_555 1_555
C26A C4A 1_555 1_555
C27A C26A 1_555 1_555
H27A C27A 1_555 1_555
H28A C27A 1_555 1_555
H29A C27A 1_555 1_555
C28A C26A 1_555 1_555
H30A C28A 1_555 1_555
H31A C28A 1_555 1_555
H32A C28A 1_555 1_555
C29A C26A 1_555 1_555
H33A C29A 1_555 1_555
H34A C29A 1_555 1_555
H35A C29A 1_555 1_555
C30A C6A 1_555 1_555
C31A C30A 1_555 1_555
H36A C31A 1_555 1_555
H37A C31A 1_555 1_555
H38A C31A 1_555 1_555
C32A C30A 1_555 1_555
H39A C32A 1_555 1_555
H40A C32A 1_555 1_555
H41A C32A 1_555 1_555
C33A C30A 1_555 1_555
H42A C33A 1_555 1_555
H43A C33A 1_555 1_555
H44A C33A 1_555 1_555
C34A O5A 1_555 1_555
H45A C34A 1_555 1_555
H46A C34A 1_555 1_555
C35A C34A 1_555 1_555
H47A C35A 1_555 1_555
H48A C35A 1_555 1_555
C36A C35A 1_555 1_555
H49A C36A 1_555 1_555
H50A C36A 1_555 1_555
C37A O5A 1_555 1_555
H51A C37A 1_555 1_555
H52A C37A 1_555 1_555
C38A O3A 1_555 1_555
H53A C38A 1_555 1_555
H54A C38A 1_555 1_555
C39A C38A 1_555 1_555
H55A C39A 1_555 1_555
H56A C39A 1_555 1_555
C40A C39A 1_555 1_555
H57A C40A 1_555 1_555
H58A C40A 1_555 1_555
C41A O3A 1_555 1_555
H59A C41A 1_555 1_555
H60A C41A 1_555 1_555
C42A O4A 1_555 1_555
H61A C42A 1_555 1_555
H62A C42A 1_555 1_555
C43A C42A 1_555 1_555
H63A C43A 1_555 1_555
H64A C43A 1_555 1_555
C44A C43A 1_555 1_555
H65A C44A 1_555 1_555
H66A C44A 1_555 1_555
C45A O4A 1_555 1_555
H67A C45A 1_555 1_555
H68A C45A 1_555 1_555
Li2 O2 1_555 1_555
C6 C7 1_555 1_555
C8 C13 1_555 1_555
C12 C13 1_555 1_555
C36 C37 1_555 1_555
C40 C41 1_555 1_555
C44 C45 1_555 1_555
Li2A O2A 1_555 1_555
C1A C14A 1_555 1_555
C6A C7A 1_555 1_555
C8A C13A 1_555 1_555
C12A C13A 1_555 1_555
C14A C16A 1_555 1_555
C36A C37A 1_555 1_555
C40A C41A 1_555 1_555
C44A C45A 1_555 1_555

#END
