
#######################################################################
#
#                 Cambridge Crystallographic Data Centre
#                                CCDC 
#
#######################################################################
#
# If this CIF has been generated from an entry in the Cambridge 
# Structural Database, then it will include bibliographic, chemical, 
# crystal, experimental, refinement or atomic coordinate data resulting 
# from the CCDC's data processing and validation procedures.
#
#######################################################################

data_VESJAG
_chemical_formula_moiety         'H5 B1 Cl1 N1'
_chemical_name_systematic        Ammonia-chloroborane
_symmetry_cell_setting           orthorhombic
_symmetry_space_group_name_H-M   'C m c 21'
_symmetry_Int_Tables_number      36
_space_group_name_Hall           'C 2n -2'
loop_
_symmetry_equiv_pos_site_id
_symmetry_equiv_pos_as_xyz
1 x,y,z
2 -x,-y,1/2+z
3 x,-y,1/2+z
4 -x,y,z
5 1/2+x,1/2+y,z
6 1/2-x,1/2-y,1/2+z
7 1/2+x,1/2-y,1/2+z
8 1/2-x,1/2+y,z
_cell_length_a                   6.7034(12)
_cell_length_b                   5.9235(13)
_cell_length_c                   8.2920(17)
_cell_angle_alpha                90
_cell_angle_beta                 90
_cell_angle_gamma                90
_cell_volume                     329.255
_cell_formula_units_Z            4
loop_
_atom_site_label
_atom_site_type_symbol
_atom_site_fract_x
_atom_site_fract_y
_atom_site_fract_z
Cl1 Cl 1.0000 0.65433(9) 0.84504(9)
B1 B 1.0000 0.8555(5) 1.0252(3)
N1 N 1.0000 1.1028(4) 0.9535(3)
H1 H 1.143(3) 0.827(2) 1.092(2)
H2 H 1.0000 1.200(6) 1.037(5)
H3 H 0.897(3) 1.129(3) 0.895(3)
H1C H 0.857(3) 0.827(2) 1.092(2)
H3C H 1.103(3) 1.129(3) 0.895(3)
loop_
_geom_bond_atom_site_label_1
_geom_bond_atom_site_label_2
_geom_bond_site_symmetry_1
_geom_bond_site_symmetry_2
Cl1 B1 1_555 1_555
B1 N1 1_555 1_555
N1 H2 1_555 1_555
H1 B1 1_555 1_555
H3 N1 1_555 1_555
H1C B1 1_555 1_555
H3C N1 1_555 1_555

#END
