
#######################################################################
#
#                 Cambridge Crystallographic Data Centre
#                                CCDC 
#
#######################################################################
#
# If this CIF has been generated from an entry in the Cambridge 
# Structural Database, then it will include bibliographic, chemical, 
# crystal, experimental, refinement or atomic coordinate data resulting 
# from the CCDC's data processing and validation procedures.
#
#######################################################################

data_VESKAI
_chemical_formula_moiety         'C27 H24 N2 O2'
_chemical_name_systematic        
2,2'-[2,7-bis(pyridin-4-yl)-9H-fluorene-9,9-diyl]bis(ethan-1-ol)
_symmetry_cell_setting           orthorhombic
_symmetry_space_group_name_H-M   'P b c a'
_symmetry_Int_Tables_number      61
_space_group_name_Hall           '-P 2ac 2ab'
loop_
_symmetry_equiv_pos_site_id
_symmetry_equiv_pos_as_xyz
1 x,y,z
2 1/2-x,-y,1/2+z
3 1/2+x,1/2-y,-z
4 -x,1/2+y,1/2-z
5 -x,-y,-z
6 1/2+x,y,1/2-z
7 1/2-x,1/2+y,z
8 x,1/2-y,1/2+z
_cell_length_a                   18.4485(4)
_cell_length_b                   11.6452(3)
_cell_length_c                   19.5931(5)
_cell_angle_alpha                90
_cell_angle_beta                 90
_cell_angle_gamma                90
_cell_volume                     4209.31
_exptl_crystal_colour            'light yellow'
_exptl_crystal_description       block
_cell_formula_units_Z            8
loop_
_atom_site_label
_atom_site_type_symbol
_atom_site_fract_x
_atom_site_fract_y
_atom_site_fract_z
C1 C 0.68936(8) -0.40557(13) 0.17107(7)
H1 H 0.6828 -0.4847 0.1732
C2 C 0.65573(8) -0.33842(12) 0.21970(7)
H2 H 0.6274 -0.3722 0.2534
C3 C 0.66449(7) -0.21956(12) 0.21792(7)
C4 C 0.70571(8) -0.17496(13) 0.16479(7)
H3 H 0.7119 -0.0960 0.1605
C5 C 0.73743(9) -0.24877(14) 0.11854(8)
H4 H 0.7650 -0.2172 0.0835
C6 C 0.62990(7) -0.14455(11) 0.26945(7)
C7 C 0.66619(7) -0.04790(11) 0.29570(7)
H5 H 0.7132 -0.0309 0.2819
C8 C 0.63064(7) 0.02161(11) 0.34253(7)
C9 C 0.55917(7) -0.00362(11) 0.36188(7)
C10 C 0.52343(7) -0.09932(12) 0.33659(7)
H6 H 0.4762 -0.1157 0.3499
C11 C 0.55950(8) -0.16984(12) 0.29113(7)
H7 H 0.5365 -0.2353 0.2747
C12 C 0.53493(7) 0.08223(11) 0.41092(7)
C13 C 0.46785(7) 0.09609(12) 0.44180(7)
H8 H 0.4299 0.0460 0.4322
C14 C 0.45856(7) 0.18578(12) 0.48705(7)
H9 H 0.4136 0.1968 0.5074
C15 C 0.51574(7) 0.26061(12) 0.50282(7)
C16 C 0.58333(7) 0.24591(11) 0.47135(7)
H10 H 0.6217 0.2948 0.4816
C17 C 0.59229(7) 0.15742(11) 0.42466(6)
C18 C 0.65824(7) 0.12760(11) 0.38081(7)
C19 C 0.72616(7) 0.10035(12) 0.42370(7)
H11 H 0.7656 0.0811 0.3930
H12 H 0.7401 0.1690 0.4485
C20 C 0.71675(8) 0.00344(13) 0.47407(8)
H13 H 0.6790 0.0226 0.5066
H14 H 0.7026 -0.0660 0.4503
C21 C 0.67701(7) 0.22850(11) 0.33251(7)
H15 H 0.6865 0.2963 0.3598
H16 H 0.7212 0.2099 0.3080
C22 C 0.61797(8) 0.25646(12) 0.28110(7)
H17 H 0.6194 0.2007 0.2443
H18 H 0.5710 0.2506 0.3031
C23 C 0.50192(7) 0.35247(11) 0.55343(7)
C24 C 0.55159(8) 0.38098(12) 0.60438(7)
H19 H 0.5974 0.3478 0.6048
C25 C 0.53198(8) 0.45901(12) 0.65426(7)
H20 H 0.5656 0.4764 0.6881
C26 C 0.42142(8) 0.48729(12) 0.60573(7)
H21 H 0.3770 0.5251 0.6051
C27 C 0.43578(7) 0.41040(12) 0.55415(7)
H22 H 0.4017 0.3972 0.5201
N1 N 0.73088(7) -0.36304(11) 0.12099(6)
N2 N 0.46717(7) 0.51112(10) 0.65671(6)
O1 O 0.78318(5) -0.01461(10) 0.50879(5)
H23 H 0.7756 -0.0501 0.5442
O2 O 0.62634(6) 0.36894(8) 0.25347(5)
H24 H 0.5970 0.4124 0.2714
loop_
_geom_bond_atom_site_label_1
_geom_bond_atom_site_label_2
_geom_bond_site_symmetry_1
_geom_bond_site_symmetry_2
C1 H1 1_555 1_555
C2 C1 1_555 1_555
H2 C2 1_555 1_555
C3 C2 1_555 1_555
C4 C3 1_555 1_555
H3 C4 1_555 1_555
C5 C4 1_555 1_555
H4 C5 1_555 1_555
C6 C3 1_555 1_555
C7 C6 1_555 1_555
H5 C7 1_555 1_555
C8 C7 1_555 1_555
C9 C8 1_555 1_555
C10 C9 1_555 1_555
H6 C10 1_555 1_555
C11 C6 1_555 1_555
H7 C11 1_555 1_555
C12 C9 1_555 1_555
C13 C12 1_555 1_555
H8 C13 1_555 1_555
C14 C13 1_555 1_555
H9 C14 1_555 1_555
C15 C14 1_555 1_555
C16 C15 1_555 1_555
H10 C16 1_555 1_555
C17 C12 1_555 1_555
C18 C8 1_555 1_555
C19 C18 1_555 1_555
H11 C19 1_555 1_555
H12 C19 1_555 1_555
C20 C19 1_555 1_555
H13 C20 1_555 1_555
H14 C20 1_555 1_555
C21 C18 1_555 1_555
H15 C21 1_555 1_555
H16 C21 1_555 1_555
C22 C21 1_555 1_555
H17 C22 1_555 1_555
H18 C22 1_555 1_555
C23 C15 1_555 1_555
C24 C23 1_555 1_555
H19 C24 1_555 1_555
C25 C24 1_555 1_555
H20 C25 1_555 1_555
C26 H21 1_555 1_555
C27 C23 1_555 1_555
H22 C27 1_555 1_555
N1 C1 1_555 1_555
N2 C25 1_555 1_555
O1 C20 1_555 1_555
H23 O1 1_555 1_555
O2 C22 1_555 1_555
H24 O2 1_555 1_555
C5 N1 1_555 1_555
C10 C11 1_555 1_555
C16 C17 1_555 1_555
C17 C18 1_555 1_555
C26 C27 1_555 1_555
C26 N2 1_555 1_555

#END
