
#######################################################################
#
#                 Cambridge Crystallographic Data Centre
#                                CCDC 
#
#######################################################################
#
# If this CIF has been generated from an entry in the Cambridge 
# Structural Database, then it will include bibliographic, chemical, 
# crystal, experimental, refinement or atomic coordinate data resulting 
# from the CCDC's data processing and validation procedures.
#
#######################################################################

data_VESQOC
_chemical_formula_moiety         'C45 H69 As1 1+,C32 H12 B1 F24 1-'
_chemical_name_systematic        
'tris(2,4,6-tri-isopropylphenyl)arsonium radical tetrakis(3,5-bis(trifluoromethyl)phenyl)borate'
_symmetry_cell_setting           triclinic
_symmetry_space_group_name_H-M   'P -1'
_symmetry_Int_Tables_number      2
_space_group_name_Hall           '-P 1'
loop_
_symmetry_equiv_pos_site_id
_symmetry_equiv_pos_as_xyz
1 x,y,z
2 -x,-y,-z
_cell_length_a                   14.3468(12)
_cell_length_b                   16.7636(14)
_cell_length_c                   18.1282(16)
_cell_angle_alpha                73.207(3)
_cell_angle_beta                 87.244(2)
_cell_angle_gamma                68.719(2)
_cell_volume                     3881.47
_exptl_crystal_colour            purple
_exptl_crystal_description       block
_cell_formula_units_Z            2
loop_
_atom_site_label
_atom_site_type_symbol
_atom_site_fract_x
_atom_site_fract_y
_atom_site_fract_z
As1 As 0.92864(3) 0.69960(2) 0.21288(2)
C1 C 0.9097(2) 0.59172(17) 0.27008(14)
C2 C 0.8812(2) 0.58795(19) 0.34599(16)
C3 C 0.8651(2) 0.5119(2) 0.38920(18)
H1 H 0.8468 0.5078 0.4397
C4 C 0.8751(3) 0.4422(2) 0.3604(2)
C5 C 0.9022(2) 0.4489(2) 0.2846(2)
H2 H 0.9082 0.4021 0.2647
C6 C 0.9206(2) 0.52239(18) 0.23770(16)
C7 C 0.8663(3) 0.6629(2) 0.38167(18)
H3 H 0.8708 0.7138 0.3403
C8 C 0.7628(4) 0.6941(3) 0.4124(3)
H4 H 0.7126 0.7096 0.3723
H5 H 0.7537 0.7456 0.4293
H6 H 0.7568 0.6469 0.4551
C9 C 0.9476(4) 0.6384(4) 0.4432(3)
H7 H 0.9471 0.5871 0.4840
H8 H 0.9357 0.6878 0.4636
H9 H 1.0116 0.6246 0.4211
C10 C 0.8654(5) 0.3615(4) 0.4189(4)
H10 H 0.8594 0.3672 0.4713
C11 C 0.7687(5) 0.3579(4) 0.3917(5)
H11 H 0.7755 0.3493 0.3413
H12 H 0.7144 0.4131 0.3894
H13 H 0.7550 0.3092 0.4272
C12 C 0.9454(3) 0.2750(2) 0.4173(2)
H14 H 0.9270 0.2261 0.4472
H15 H 1.0076 0.2705 0.4388
H16 H 0.9530 0.2727 0.3650
C13 C 0.9502(2) 0.52518(19) 0.15563(17)
H17 H 0.9732 0.5753 0.1362
C14 C 0.8603(3) 0.5437(3) 0.1029(2)
H18 H 0.8356 0.4957 0.1203
H19 H 0.8803 0.5480 0.0510
H20 H 0.8083 0.5989 0.1041
C15 C 1.0375(3) 0.4400(2) 0.1524(2)
H21 H 1.0921 0.4294 0.1870
H22 H 1.0591 0.4472 0.1008
H23 H 1.0158 0.3900 0.1674
C16 C 1.0440(2) 0.71795(19) 0.24301(17)
C17 C 1.0267(3) 0.8048(2) 0.2468(2)
C18 C 1.1078(3) 0.8194(3) 0.2717(2)
H24 H 1.0987 0.8763 0.2742
C19 C 1.2016(3) 0.7524(3) 0.2929(2)
C20 C 1.2140(2) 0.6688(3) 0.28905(19)
H25 H 1.2765 0.6234 0.3039
C21 C 1.1378(2) 0.6487(2) 0.26410(16)
C22 C 0.9257(3) 0.8801(3) 0.2279(3)
H26 H 0.8793 0.8571 0.2111
C23 C 0.8842(4) 0.9098(4) 0.2988(5)
H27 H 0.8842 0.8588 0.3401
H28 H 0.8169 0.9525 0.2862
H29 H 0.9253 0.9369 0.3146
C24 C 0.9296(5) 0.9580(3) 0.1614(4)
H30 H 0.9807 0.9775 0.1734
H31 H 0.8659 1.0064 0.1532
H32 H 0.9447 0.9394 0.1154
C25 C 1.2892(4) 0.7704(4) 0.3192(3)
H33 H 1.3392 0.7108 0.3430
C26 C 1.2679(5) 0.8115(8) 0.3789(5)
H34 H 1.3282 0.8142 0.3969
H35 H 1.2416 0.7774 0.4207
H36 H 1.2192 0.8711 0.3597
C27 C 1.3379(5) 0.8104(5) 0.2529(4)
H37 H 1.2956 0.8714 0.2291
H38 H 1.3488 0.7773 0.2159
H39 H 1.4010 0.8084 0.2704
C28 C 1.1595(2) 0.5541(2) 0.26033(19)
H40 H 1.1017 0.5557 0.2324
C29 C 1.1693(3) 0.4890(3) 0.3407(2)
H41 H 1.2250 0.4863 0.3699
H42 H 1.1802 0.4306 0.3364
H43 H 1.1089 0.5090 0.3664
C30 C 1.2520(3) 0.5213(3) 0.2151(2)
H44 H 1.2476 0.5666 0.1673
H45 H 1.2548 0.4676 0.2046
H46 H 1.3114 0.5093 0.2452
C31 C 0.8736(2) 0.75384(17) 0.10837(15)
C32 C 0.7683(2) 0.79553(17) 0.09955(16)
C33 C 0.7254(2) 0.8310(2) 0.02437(18)
H47 H 0.6560 0.8576 0.0168
C34 C 0.7816(2) 0.8281(2) -0.03955(18)
C35 C 0.8851(2) 0.7895(2) -0.02819(17)
H48 H 0.9233 0.7889 -0.0711
C36 C 0.9336(2) 0.75182(19) 0.04488(16)
C37 C 0.7007(2) 0.8043(2) 0.16573(18)
H49 H 0.7442 0.7770 0.2133
C38 C 0.6434(4) 0.9005(3) 0.1622(3)
H50 H 0.6896 0.9302 0.1616
H51 H 0.6045 0.9030 0.2067
H52 H 0.5995 0.9296 0.1162
C39 C 0.6311(3) 0.7534(3) 0.1718(3)
H53 H 0.5892 0.7613 0.2140
H54 H 0.6700 0.6909 0.1805
H55 H 0.5900 0.7757 0.1246
C40 C 0.7271(13) 0.8782(10) -0.1191(9)
H56 H 0.7763 0.8881 -0.1565
C41 C 0.6926(13) 0.7954(12) -0.1321(7)
H57 H 0.6476 0.7824 -0.0936
H58 H 0.7511 0.7425 -0.1274
H59 H 0.6597 0.8149 -0.1825
C42 C 0.6462(11) 0.9558(8) -0.1314(6)
H60 H 0.5901 0.9433 -0.1070
H61 H 0.6299 0.9828 -0.1858
H62 H 0.6613 0.9961 -0.1099
C43 C 1.0475(2) 0.7085(2) 0.05316(18)
H63 H 1.0662 0.6713 0.1068
C44 C 1.0950(3) 0.7802(3) 0.0386(2)
H64 H 1.1666 0.7516 0.0455
H65 H 1.0714 0.8145 0.0744
H66 H 1.0765 0.8190 -0.0132
C45 C 1.0893(3) 0.6476(3) 0.0019(2)
H67 H 1.0589 0.6033 0.0125
H68 H 1.1605 0.6184 0.0123
H69 H 1.0748 0.6825 -0.0513
B1 B 0.4302(2) 0.76754(19) 0.72770(16)
C51 C 0.49789(19) 0.82811(17) 0.69068(14)
C52 C 0.4596(2) 0.92176(17) 0.66692(16)
H70 H 0.3921 0.9519 0.6719
C53 C 0.5191(2) 0.97120(18) 0.63616(18)
C54 C 0.6204(2) 0.92945(19) 0.62977(17)
H71 H 0.6601 0.9627 0.6092
C55 C 0.6612(2) 0.83718(19) 0.65475(17)
C56 C 0.6006(2) 0.78810(17) 0.68394(15)
H72 H 0.6298 0.7260 0.6996
C57 C 0.4738(3) 1.0712(2) 0.6079(3)
C58 C 0.7701(3) 0.7903(2) 0.6472(3)
C59 C 0.46110(19) 0.67966(17) 0.69585(14)
C60 C 0.4955(2) 0.6817(2) 0.62239(16)
H73 H 0.5069 0.7324 0.5928
C61 C 0.5133(3) 0.6109(2) 0.59164(17)
C62 C 0.4978(3) 0.5343(2) 0.63398(17)
H74 H 0.5111 0.4862 0.6141
C63 C 0.4620(2) 0.53080(19) 0.70647(16)
C64 C 0.4433(2) 0.60228(18) 0.73615(15)
H75 H 0.4180 0.5986 0.7847
C65 C 0.5434(4) 0.6185(3) 0.5107(2)
C66 C 0.4421(3) 0.4498(2) 0.75248(19)
C67 C 0.31118(19) 0.82101(17) 0.69896(14)
C68 C 0.2835(2) 0.8725(2) 0.62235(16)
H76 H 0.3334 0.8809 0.5897
C69 C 0.1848(2) 0.9116(2) 0.59289(17)
C70 C 0.1082(2) 0.9009(2) 0.64008(17)
H77 H 0.0416 0.9281 0.6210
C71 C 0.13322(19) 0.84927(17) 0.71547(15)
C72 C 0.23282(19) 0.80986(16) 0.74413(14)
H78 H 0.2477 0.7748 0.7953
C73 C 0.1606(3) 0.9622(4) 0.5098(4)
C74 C 0.0536(2) 0.8336(2) 0.76693(17)
C75 C 0.45012(18) 0.74002(17) 0.82143(14)
C76 C 0.40070(19) 0.79861(18) 0.86436(15)
H79 H 0.3524 0.8538 0.8391
C77 C 0.4212(2) 0.77733(19) 0.94365(15)
C78 C 0.4922(2) 0.6960(2) 0.98311(15)
H80 H 0.5053 0.6812 1.0361
C79 C 0.5433(2) 0.63702(19) 0.94215(15)
C80 C 0.52275(19) 0.65947(18) 0.86293(15)
H81 H 0.5590 0.6190 0.8366
C81 C 0.3683(2) 0.8423(2) 0.98692(18)
C82 C 0.6234(3) 0.5499(2) 0.98086(19)
F1 F 0.3873(5) 1.1004(3) 0.5674(5)
F2 F 0.4846(11) 1.1103(7) 0.6546(6)
F3 F 0.5290(6) 1.1046(5) 0.5481(6)
F4 F 0.8243(2) 0.8406(2) 0.6481(3)
F5 F 0.7895(3) 0.7619(5) 0.5871(3)
F6 F 0.8118(2) 0.7183(2) 0.7079(4)
F7 F 0.5497(3) 0.69593(17) 0.47282(14)
F8 F 0.6312(4) 0.5504(4) 0.5083(3)
F9 F 0.4759(3) 0.6105(2) 0.46689(13)
F10 F 0.4475(4) 0.3936(4) 0.7117(4)
F11 F 0.5109(2) 0.39929(15) 0.80915(14)
F12 F 0.35590(18) 0.46989(14) 0.78642(13)
F13 F 0.2408(2) 0.9572(2) 0.46759(14)
F14 F 0.10098(18) 0.9386(2) 0.47304(13)
F15 F 0.1113(4) 1.0495(3) 0.5032(2)
F16 F -0.0391(6) 0.9003(10) 0.7437(7)
F17 F 0.0416(14) 0.7594(11) 0.7757(10)
F18 F 0.06462(16) 0.84134(15) 0.83664(11)
F19 F 0.2830(2) 0.9041(3) 0.95245(19)
F20 F 0.3474(4) 0.8043(2) 1.05735(17)
F21 F 0.4231(3) 0.8883(3) 0.9976(3)
F22 F 0.61879(18) 0.48186(14) 0.95915(13)
F23 F 0.71505(17) 0.55030(18) 0.96125(18)
F24 F 0.6318(3) 0.5305(2) 1.05566(16)
C46? C 0.8371(8) 0.3575(6) 0.3891(6)
C47? C 0.7380(13) 0.8504(11) -0.1235(11)
C48? C 0.6391(12) 0.8457(12) -0.1313(7)
C49? C 0.7219(15) 0.9588(9) -0.1550(8)
As2? As 0.9751(6) 0.6729(5) 0.1963(4)
C50? C 0.7764(8) 0.3659(7) 0.4616(6)
F25? F 0.6067(17) 0.5664(17) 0.5077(13)
F26? F 0.3746(6) 1.1017(4) 0.6331(9)
F27? F 0.5224(13) 1.1080(12) 0.6408(13)
F28? F 0.4756(11) 1.1056(6) 0.5412(5)
F29? F 0.8266(17) 0.794(3) 0.687(2)
F30? F 0.7883(13) 0.8263(15) 0.5695(12)
F31? F 0.7935(14) 0.7098(13) 0.6525(19)
F32? F 0.648(2) 0.634(2) 0.5128(16)
F33? F 0.4013(13) 0.4176(14) 0.7069(13)
F34? F 0.1903(10) 1.0656(8) 0.5207(7)
F35? F 0.1553(16) 0.9825(13) 0.4678(8)
F36? F 0.0469(13) 1.0615(10) 0.5171(8)
F37? F -0.0322(16) 0.863(3) 0.7308(11)
F38? F 0.074(2) 0.7387(17) 0.7900(13)
F39? F 0.2823(19) 0.8449(19) 0.999(2)
F40? F 0.417(2) 0.8258(19) 1.0503(13)
F41? F 0.364(2) 0.9188(12) 0.9538(15)
F42? F 0.5863(10) 0.5123(9) 1.0573(8)
C83? C 0.1454(18) 1.012(2) 0.5253(13)
F43? F 0.4290(19) 1.1064(12) 0.6624(11)
loop_
_geom_bond_atom_site_label_1
_geom_bond_atom_site_label_2
_geom_bond_site_symmetry_1
_geom_bond_site_symmetry_2
As1 C1 1_555 1_555
C1 C2 1_555 1_555
C2 C3 1_555 1_555
C3 H1 1_555 1_555
C4 C3 1_555 1_555
C5 C4 1_555 1_555
H2 C5 1_555 1_555
C6 C1 1_555 1_555
C7 C2 1_555 1_555
H3 C7 1_555 1_555
C8 C7 1_555 1_555
H4 C8 1_555 1_555
H5 C8 1_555 1_555
H6 C8 1_555 1_555
C9 C7 1_555 1_555
H7 C9 1_555 1_555
H8 C9 1_555 1_555
H9 C9 1_555 1_555
C10 C4 1_555 1_555
H10 C10 1_555 1_555
C11 C10 1_555 1_555
H11 C11 1_555 1_555
H12 C11 1_555 1_555
H13 C11 1_555 1_555
C12 C10 1_555 1_555
H14 C12 1_555 1_555
H15 C12 1_555 1_555
H16 C12 1_555 1_555
C13 C6 1_555 1_555
H17 C13 1_555 1_555
C14 C13 1_555 1_555
H18 C14 1_555 1_555
H19 C14 1_555 1_555
H20 C14 1_555 1_555
C15 C13 1_555 1_555
H21 C15 1_555 1_555
H22 C15 1_555 1_555
H23 C15 1_555 1_555
C16 As1 1_555 1_555
C17 C16 1_555 1_555
C18 C17 1_555 1_555
H24 C18 1_555 1_555
C19 C18 1_555 1_555
C20 C19 1_555 1_555
H25 C20 1_555 1_555
C21 C16 1_555 1_555
C22 C17 1_555 1_555
H26 C22 1_555 1_555
C23 C22 1_555 1_555
H27 C23 1_555 1_555
H28 C23 1_555 1_555
H29 C23 1_555 1_555
C24 C22 1_555 1_555
H30 C24 1_555 1_555
H31 C24 1_555 1_555
H32 C24 1_555 1_555
C25 C19 1_555 1_555
H33 C25 1_555 1_555
C26 C25 1_555 1_555
H34 C26 1_555 1_555
H35 C26 1_555 1_555
H36 C26 1_555 1_555
C27 C25 1_555 1_555
H37 C27 1_555 1_555
H38 C27 1_555 1_555
H39 C27 1_555 1_555
C28 C21 1_555 1_555
H40 C28 1_555 1_555
C29 C28 1_555 1_555
H41 C29 1_555 1_555
H42 C29 1_555 1_555
H43 C29 1_555 1_555
C30 C28 1_555 1_555
H44 C30 1_555 1_555
H45 C30 1_555 1_555
H46 C30 1_555 1_555
C31 As1 1_555 1_555
C32 C31 1_555 1_555
C33 C32 1_555 1_555
H47 C33 1_555 1_555
C34 C33 1_555 1_555
C35 C34 1_555 1_555
H48 C35 1_555 1_555
C36 C31 1_555 1_555
C37 C32 1_555 1_555
H49 C37 1_555 1_555
C38 C37 1_555 1_555
H50 C38 1_555 1_555
H51 C38 1_555 1_555
H52 C38 1_555 1_555
C39 C37 1_555 1_555
H53 C39 1_555 1_555
H54 C39 1_555 1_555
H55 C39 1_555 1_555
C40 C34 1_555 1_555
H56 C40 1_555 1_555
C41 C40 1_555 1_555
H57 C41 1_555 1_555
H58 C41 1_555 1_555
H59 C41 1_555 1_555
C42 C40 1_555 1_555
H60 C42 1_555 1_555
H61 C42 1_555 1_555
H62 C42 1_555 1_555
C43 C36 1_555 1_555
H63 C43 1_555 1_555
C44 C43 1_555 1_555
H64 C44 1_555 1_555
H65 C44 1_555 1_555
H66 C44 1_555 1_555
C45 C43 1_555 1_555
H67 C45 1_555 1_555
H68 C45 1_555 1_555
H69 C45 1_555 1_555
B1 C51 1_555 1_555
C51 C52 1_555 1_555
C52 H70 1_555 1_555
C53 C52 1_555 1_555
C54 C53 1_555 1_555
H71 C54 1_555 1_555
C55 C54 1_555 1_555
C56 C51 1_555 1_555
H72 C56 1_555 1_555
C57 C53 1_555 1_555
C58 C55 1_555 1_555
C59 B1 1_555 1_555
C60 C59 1_555 1_555
H73 C60 1_555 1_555
C61 C60 1_555 1_555
C62 C61 1_555 1_555
H74 C62 1_555 1_555
C63 C62 1_555 1_555
C64 C59 1_555 1_555
H75 C64 1_555 1_555
C65 C61 1_555 1_555
C66 C63 1_555 1_555
C67 B1 1_555 1_555
C68 C67 1_555 1_555
H76 C68 1_555 1_555
C69 C68 1_555 1_555
C70 C69 1_555 1_555
H77 C70 1_555 1_555
C71 C70 1_555 1_555
C72 C67 1_555 1_555
H78 C72 1_555 1_555
C73 C69 1_555 1_555
C74 C71 1_555 1_555
C75 B1 1_555 1_555
C76 C75 1_555 1_555
H79 C76 1_555 1_555
C77 C76 1_555 1_555
C78 C77 1_555 1_555
H80 C78 1_555 1_555
C79 C78 1_555 1_555
C80 C75 1_555 1_555
H81 C80 1_555 1_555
C81 C77 1_555 1_555
C82 C79 1_555 1_555
F1 C57 1_555 1_555
F2 C57 1_555 1_555
F3 C57 1_555 1_555
F4 C58 1_555 1_555
F5 C58 1_555 1_555
F6 C58 1_555 1_555
F7 C65 1_555 1_555
F8 C65 1_555 1_555
F9 C65 1_555 1_555
F10 C66 1_555 1_555
F11 C66 1_555 1_555
F12 C66 1_555 1_555
F13 C73 1_555 1_555
F14 C73 1_555 1_555
F15 C73 1_555 1_555
F16 C74 1_555 1_555
F17 C74 1_555 1_555
F18 C74 1_555 1_555
F19 C81 1_555 1_555
F20 C81 1_555 1_555
F21 C81 1_555 1_555
F22 C82 1_555 1_555
F23 C82 1_555 1_555
F24 C82 1_555 1_555
C5 C6 1_555 1_555
C20 C21 1_555 1_555
C35 C36 1_555 1_555
C55 C56 1_555 1_555
C63 C64 1_555 1_555
C71 C72 1_555 1_555
C79 C80 1_555 1_555

#END
