
#######################################################################
#
#                 Cambridge Crystallographic Data Centre
#                                CCDC 
#
#######################################################################
#
# If this CIF has been generated from an entry in the Cambridge 
# Structural Database, then it will include bibliographic, chemical, 
# crystal, experimental, refinement or atomic coordinate data resulting 
# from the CCDC's data processing and validation procedures.
#
#######################################################################

data_VESSUK
_chemical_formula_moiety         'C45 H30 O3,C1 H2 Cl2'
_chemical_name_systematic        
'2,4,6-triphenyl-1,3,5-tris(benzoyl)benzene dichloromethane solvate'
_symmetry_cell_setting           triclinic
_symmetry_space_group_name_H-M   'P -1'
_symmetry_Int_Tables_number      2
_space_group_name_Hall           '-P 1'
loop_
_symmetry_equiv_pos_site_id
_symmetry_equiv_pos_as_xyz
1 x,y,z
2 -x,-y,-z
_cell_length_a                   12.3207(4)
_cell_length_b                   12.5368(4)
_cell_length_c                   24.0130(8)
_cell_angle_alpha                85.1540(10)
_cell_angle_beta                 84.1790(10)
_cell_angle_gamma                80.7200(10)
_cell_volume                     3632.9
_exptl_crystal_colour            colorless
_exptl_crystal_description       block
_cell_formula_units_Z            4
loop_
_atom_site_label
_atom_site_type_symbol
_atom_site_fract_x
_atom_site_fract_y
_atom_site_fract_z
O1 O 0.14525(11) 0.57514(12) 0.41820(6)
O2 O 0.45291(11) 0.39857(12) 0.20071(6)
O3 O 0.06489(12) 0.83144(13) 0.20563(7)
C1 C 0.26176(14) 0.60863(15) 0.21147(8)
C2 C 0.29318(15) 0.51507(15) 0.30300(8)
C3 C 0.23943(15) 0.60709(15) 0.32906(8)
C4 C 0.22870(15) 0.60102(14) 0.39238(8)
C5 C 0.35650(15) 0.41219(15) 0.21882(7)
C6 C 0.30375(15) 0.51659(15) 0.24445(8)
C7 C 0.33978(16) 0.41582(15) 0.33683(8)
C8 C 0.28548(16) 0.32726(16) 0.21905(7)
C9 C 0.19805(15) 0.70126(15) 0.29732(8)
C10 C 0.17008(16) 0.61412(16) 0.12281(8)
H1 H 0.1007 0.6286 0.1441
C11 C 0.16373(16) 0.80090(15) 0.20357(8)
C12 C 0.20970(14) 0.70084(15) 0.23859(8)
C13 C 0.14885(15) 0.80123(15) 0.32647(8)
C14 C 0.32309(16) 0.62179(15) 0.42134(8)
C15 C 0.35684(17) 0.83825(16) 0.17413(8)
H2 H 0.3840 0.7848 0.2019
C16 C 0.05057(17) 0.80546(17) 0.36114(9)
H3 H 0.0120 0.7451 0.3654
C17 C 0.41416(17) 0.65930(16) 0.39142(9)
H4 H 0.4160 0.6730 0.3518
C18 C 0.24444(17) 0.85871(16) 0.16715(8)
C19 C 0.32134(18) 0.60154(17) 0.47943(8)
H5 H 0.2595 0.5760 0.5000
C20 C 0.26686(15) 0.60388(15) 0.14937(8)
C21 C 0.20342(17) 0.89120(16) 0.32046(9)
H6 H 0.2700 0.8898 0.2966
C22 C 0.17063(17) 0.35283(17) 0.22268(9)
H7 H 0.1362 0.4255 0.2268
C23 C 0.06446(19) 0.98579(18) 0.38368(9)
H8 H 0.0361 1.0483 0.4034
C24 C 0.16133(18) 0.98295(17) 0.34906(9)
H9 H 0.1993 1.0438 0.3448
C25 C 0.45381(18) 0.38441(18) 0.33520(9)
H10 H 0.5019 0.4263 0.3129
C26 C 0.33523(18) 0.21987(17) 0.21443(8)
H11 H 0.4134 0.2018 0.2122
C27 C 0.4293(2) 0.89563(19) 0.14073(9)
H12 H 0.5059 0.8820 0.1460
C28 C 0.4094(2) 0.61853(19) 0.50711(9)
H13 H 0.4083 0.6044 0.5466
C29 C 0.00871(18) 0.89747(18) 0.38955(9)
H14 H -0.0583 0.8998 0.4131
C30 C 0.50192(18) 0.67658(18) 0.41952(10)
H15 H 0.5639 0.7023 0.3992
C31 C 0.2706(2) 0.35287(17) 0.36910(9)
H16 H 0.1928 0.3733 0.3700
C32 C 0.10683(19) 0.2721(2) 0.22020(11)
H17 H 0.0287 0.2897 0.2218
C33 C 0.49949(19) 0.6564(2) 0.47705(10)
H18 H 0.5598 0.6684 0.4961
C34 C 0.36769(17) 0.58612(18) 0.11686(9)
H19 H 0.4346 0.5802 0.1341
C35 C 0.3710(2) 0.5771(2) 0.05974(9)
H20 H 0.4402 0.5658 0.0379
C36 C 0.17384(19) 0.60336(17) 0.06566(9)
H21 H 0.1072 0.6091 0.0481
C37 C 0.4275(3) 0.23069(19) 0.39884(10)
H22 H 0.4574 0.1679 0.4205
C38 C 0.3908(2) 0.9722(2) 0.09996(11)
H23 H 0.4408 1.0112 0.0771
C39 C 0.2742(2) 0.58433(18) 0.03417(9)
H24 H 0.2768 0.5763 -0.0049
C40 C 0.3144(2) 0.26053(19) 0.40001(10)
H25 H 0.2667 0.2177 0.4220
C41 C 0.2708(2) 0.14000(18) 0.21302(11)
H26 H 0.3046 0.0667 0.2104
C42 C 0.4970(2) 0.2914(2) 0.36641(10)
H27 H 0.5746 0.2698 0.3653
C43 C 0.2063(2) 0.9366(2) 0.12594(11)
H28 H 0.1298 0.9517 0.1208
C44 C 0.1568(2) 0.1664(2) 0.21537(12)
H29 H 0.1130 0.1112 0.2136
C45 C 0.2805(3) 0.9924(2) 0.09226(12)
H30 H 0.2544 1.0447 0.0638
O4 O 0.57429(11) 0.63851(13) 0.27278(6)
C46 C 0.66978(15) 0.65154(16) 0.26072(8)
O5 O 0.92548(13) 0.74275(16) 0.05352(7)
C47 C 0.76647(15) 0.58718(16) 0.14898(8)
C48 C 0.74559(14) 0.70365(15) 0.16161(8)
C49 C 0.82636(17) 0.75416(16) 0.06348(8)
C50 C 0.76186(16) 0.58977(15) 0.29164(8)
C51 C 0.87071(16) 0.60760(16) 0.27850(8)
H31 H 0.8878 0.6594 0.2491
C52 C 0.75349(15) 0.89393(16) 0.13231(8)
C53 C 0.77433(15) 0.78424(16) 0.12136(8)
C54 C 0.67534(15) 0.84390(16) 0.22617(8)
C55 C 0.69753(14) 0.73489(16) 0.21461(8)
C56 C 0.63007(16) 0.87769(16) 0.28357(8)
C57 C 0.68068(16) 0.52619(17) 0.15376(8)
H32 H 0.6080 0.5588 0.1658
C58 C 0.75191(18) 0.74174(15) 0.02056(8)
C59 C 0.6620(2) 0.90578(17) 0.37826(9)
H33 H 0.7111 0.9006 0.4068
C60 C 0.70023(17) 0.86821(17) 0.32596(8)
H34 H 0.7751 0.8357 0.3192
C61 C 0.73684(17) 1.09402(17) 0.22747(8)
C62 C 0.95392(18) 0.54931(18) 0.30862(9)
H35 H 1.0281 0.5613 0.2997
C63 C 0.87288(17) 0.53669(18) 0.13203(9)
H36 H 0.9328 0.5767 0.1287
C64 C 0.73781(18) 0.51433(17) 0.33528(8)
H37 H 0.6637 0.5026 0.3448
C65 C 0.63802(19) 0.7651(2) 0.02994(9)
H38 H 0.6052 0.7877 0.0654
C66 C 0.79280(17) 0.97938(16) 0.09159(8)
C67 C 0.5531(2) 0.95053(19) 0.38874(9)
H39 H 0.5265 0.9746 0.4248
C68 C 0.8214(2) 0.45654(18) 0.36484(9)
H40 H 0.8048 0.4048 0.3944
C69 C 0.83869(19) 1.0401(2) 0.24228(10)
H41 H 0.8654 0.9692 0.2309
C70 C 0.6999(2) 0.41853(19) 0.14120(10)
H42 H 0.6403 0.3782 0.1442
C71 C 0.9294(2) 0.47408(19) 0.35137(10)
H43 H 0.9868 0.4341 0.3717
C72 C 0.7986(2) 0.70741(19) -0.03153(9)
H44 H 0.8765 0.6909 -0.0385
C73 C 0.52096(18) 0.9247(2) 0.29430(9)
H45 H 0.4722 0.9326 0.2655
C74 C 0.8712(2) 1.14336(19) 0.02080(10)
H46 H 0.8978 1.1998 -0.0030
C75 C 0.9006(2) 0.9934(3) 0.08857(15)
H47 H 0.9500 0.9465 0.1110
C76 C 0.4825(2) 0.9604(2) 0.34695(11)
H48 H 0.4074 0.9918 0.3542
C77 C 0.8917(2) 0.4289(2) 0.11997(10)
H49 H 0.9644 0.3955 0.1086
C78 C 0.8055(2) 0.36955(19) 0.12432(10)
H50 H 0.8188 0.2957 0.1158
C79 C 0.5718(2) 0.7556(3) -0.01197(11)
H51 H 0.4938 0.7724 -0.0054
C80 C 0.6191(3) 0.7218(2) -0.06346(11)
H52 H 0.5736 0.7153 -0.0923
C81 C 0.8620(3) 1.1944(3) 0.28973(11)
H53 H 0.9046 1.2287 0.3116
C82 C 0.6982(2) 1.1984(2) 0.24317(10)
H54 H 0.6288 1.2352 0.2328
C83 C 0.7245(2) 1.0480(2) 0.05843(13)
H55 H 0.6488 1.0402 0.0595
C84 C 0.9008(2) 1.0910(3) 0.27379(11)
H56 H 0.9702 1.0546 0.2844
C85 C 0.7648(3) 1.1292(2) 0.02318(14)
H57 H 0.7162 1.1757 0.0002
C86 C 0.7321(3) 0.6974(2) -0.07283(10)
H58 H 0.7644 0.6734 -0.1081
C87 C 0.9396(2) 1.0748(3) 0.05338(17)
H59 H 1.0152 1.0828 0.0520
C88 C 0.7620(3) 1.2485(3) 0.27421(12)
H60 H 0.7366 1.3202 0.2848
O6 O 0.58316(13) 1.08978(13) 0.17648(8)
C89 C 0.70078(15) 0.92286(16) 0.18438(8)
C90 C 0.66724(16) 1.04157(16) 0.19483(8)
Cl1 Cl 0.78418(6) 0.15412(5) 0.43373(3)
Cl2 Cl 0.72510(8) -0.01235(6) 0.51764(3)
C91 C 0.7530(3) 0.1204(2) 0.50594(10)
H61 H 0.8163 0.1285 0.5268
H62 H 0.6881 0.1711 0.5204
Cl3 Cl 0.80765(5) 0.69869(6) 0.45223(3)
Cl4 Cl 0.97658(6) 0.71760(7) 0.52579(3)
C92 C 0.9142(2) 0.6295(2) 0.49086(12)
H63 H 0.8839 0.5767 0.5187
H64 H 0.9708 0.5886 0.4652
loop_
_geom_bond_atom_site_label_1
_geom_bond_atom_site_label_2
_geom_bond_site_symmetry_1
_geom_bond_site_symmetry_2
O1 C4 1_555 1_555
O2 C5 1_555 1_555
O3 C11 1_555 1_555
C1 C6 1_555 1_555
C2 C3 1_555 1_555
C3 C4 1_555 1_555
C4 C14 1_555 1_555
C5 C6 1_555 1_555
C6 C2 1_555 1_555
C7 C2 1_555 1_555
C8 C5 1_555 1_555
C9 C3 1_555 1_555
C10 H1 1_555 1_555
C11 C12 1_555 1_555
C12 C1 1_555 1_555
C13 C9 1_555 1_555
C14 C17 1_555 1_555
C15 H2 1_555 1_555
C16 C13 1_555 1_555
H3 C16 1_555 1_555
C17 H4 1_555 1_555
C18 C11 1_555 1_555
C19 C14 1_555 1_555
H5 C19 1_555 1_555
C20 C1 1_555 1_555
C21 C13 1_555 1_555
H6 C21 1_555 1_555
C22 C8 1_555 1_555
H7 C22 1_555 1_555
C23 H8 1_555 1_555
C24 C21 1_555 1_555
H9 C24 1_555 1_555
C25 C7 1_555 1_555
H10 C25 1_555 1_555
C26 C8 1_555 1_555
H11 C26 1_555 1_555
C27 C15 1_555 1_555
H12 C27 1_555 1_555
C28 C19 1_555 1_555
H13 C28 1_555 1_555
C29 C16 1_555 1_555
H14 C29 1_555 1_555
C30 C17 1_555 1_555
H15 C30 1_555 1_555
C31 C7 1_555 1_555
H16 C31 1_555 1_555
C32 C22 1_555 1_555
H17 C32 1_555 1_555
C33 C28 1_555 1_555
H18 C33 1_555 1_555
C34 C20 1_555 1_555
H19 C34 1_555 1_555
C35 C34 1_555 1_555
H20 C35 1_555 1_555
C36 C10 1_555 1_555
H21 C36 1_555 1_555
C37 H22 1_555 1_555
C38 C27 1_555 1_555
H23 C38 1_555 1_555
C39 C35 1_555 1_555
H24 C39 1_555 1_555
C40 C31 1_555 1_555
H25 C40 1_555 1_555
C41 C26 1_555 1_555
H26 C41 1_555 1_555
C42 C25 1_555 1_555
H27 C42 1_555 1_555
C43 C18 1_555 1_555
H28 C43 1_555 1_555
C44 C32 1_555 1_555
H29 C44 1_555 1_555
C45 C38 1_555 1_555
H30 C45 1_555 1_555
O4 C46 1_555 1_555
C46 C50 1_555 1_555
O5 C49 1_555 1_555
C47 C48 1_555 1_555
C48 C53 1_555 1_555
C49 C53 1_555 1_555
C50 C51 1_555 1_555
C51 H31 1_555 1_555
C52 C53 1_555 1_555
C54 C55 1_555 1_555
C55 C46 1_555 1_555
C56 C54 1_555 1_555
C57 C47 1_555 1_555
H32 C57 1_555 1_555
C58 C49 1_555 1_555
C59 H33 1_555 1_555
C60 C56 1_555 1_555
H34 C60 1_555 1_555
C61 C69 1_555 1_555
C62 C51 1_555 1_555
H35 C62 1_555 1_555
C63 C47 1_555 1_555
H36 C63 1_555 1_555
C64 C50 1_555 1_555
H37 C64 1_555 1_555
C65 C58 1_555 1_555
H38 C65 1_555 1_555
C66 C52 1_555 1_555
C67 C59 1_555 1_555
H39 C67 1_555 1_555
C68 C64 1_555 1_555
H40 C68 1_555 1_555
C69 H41 1_555 1_555
C70 C57 1_555 1_555
H42 C70 1_555 1_555
C71 C62 1_555 1_555
H43 C71 1_555 1_555
C72 C58 1_555 1_555
H44 C72 1_555 1_555
C73 C56 1_555 1_555
H45 C73 1_555 1_555
C74 H46 1_555 1_555
C75 C66 1_555 1_555
H47 C75 1_555 1_555
C76 C67 1_555 1_555
H48 C76 1_555 1_555
C77 C63 1_555 1_555
H49 C77 1_555 1_555
C78 C70 1_555 1_555
H50 C78 1_555 1_555
C79 C65 1_555 1_555
H51 C79 1_555 1_555
C80 C79 1_555 1_555
H52 C80 1_555 1_555
C81 H53 1_555 1_555
C82 C61 1_555 1_555
H54 C82 1_555 1_555
C83 C66 1_555 1_555
H55 C83 1_555 1_555
C84 C69 1_555 1_555
H56 C84 1_555 1_555
C85 C74 1_555 1_555
H57 C85 1_555 1_555
C86 C72 1_555 1_555
H58 C86 1_555 1_555
C87 C74 1_555 1_555
H59 C87 1_555 1_555
C88 C81 1_555 1_555
H60 C88 1_555 1_555
O6 C90 1_555 1_555
C89 C52 1_555 1_555
C90 C61 1_555 1_555
Cl1 C91 1_555 1_555
Cl2 C91 1_555 1_555
C91 H61 1_555 1_555
H62 C91 1_555 1_555
Cl3 C92 1_555 1_555
Cl4 C92 1_555 1_555
C92 H63 1_555 1_555
H64 C92 1_555 1_555
C9 C12 1_555 1_555
C10 C20 1_555 1_555
C15 C18 1_555 1_555
C23 C24 1_555 1_555
C23 C29 1_555 1_555
C30 C33 1_555 1_555
C36 C39 1_555 1_555
C37 C40 1_555 1_555
C37 C42 1_555 1_555
C41 C44 1_555 1_555
C43 C45 1_555 1_555
C48 C55 1_555 1_555
C54 C89 1_555 1_555
C59 C60 1_555 1_555
C68 C71 1_555 1_555
C73 C76 1_555 1_555
C75 C87 1_555 1_555
C77 C78 1_555 1_555
C80 C86 1_555 1_555
C81 C84 1_555 1_555
C82 C88 1_555 1_555
C83 C85 1_555 1_555
C89 C90 1_555 1_555

#END
