
#######################################################################
#
#                 Cambridge Crystallographic Data Centre
#                                CCDC 
#
#######################################################################
#
# If this CIF has been generated from an entry in the Cambridge 
# Structural Database, then it will include bibliographic, chemical, 
# crystal, experimental, refinement or atomic coordinate data resulting 
# from the CCDC's data processing and validation procedures.
#
#######################################################################

data_VESTOE
_chemical_formula_moiety         'C28 H20 O2 P2,H2 O1'
_chemical_name_systematic        
"1,1'-Diphenyl-1H,1'H-2,2'-biphosphindole 1,1'-dioxide monohydrate"
_symmetry_cell_setting           monoclinic
_symmetry_space_group_name_H-M   'P 21/c'
_symmetry_Int_Tables_number      14
_space_group_name_Hall           '-P 2ybc'
loop_
_symmetry_equiv_pos_site_id
_symmetry_equiv_pos_as_xyz
1 x,y,z
2 -x,1/2+y,1/2-z
3 -x,-y,-z
4 x,1/2-y,1/2+z
_cell_length_a                   7.0334(15)
_cell_length_b                   22.173(5)
_cell_length_c                   14.968(3)
_cell_angle_alpha                90
_cell_angle_beta                 98.288(3)
_cell_angle_gamma                90
_cell_volume                     2309.9
_exptl_crystal_colour            yellow
_exptl_crystal_description       platelet
_cell_formula_units_Z            4
loop_
_atom_site_label
_atom_site_type_symbol
_atom_site_fract_x
_atom_site_fract_y
_atom_site_fract_z
P1 P 0.75079(6) 0.148087(18) 0.34388(3)
P2 P 0.28669(5) 0.155084(18) 0.09664(2)
O1 O 0.92035(15) 0.18671(5) 0.33551(8)
O2 O 0.12106(15) 0.19478(5) 0.10801(7)
C1 C 0.5280(2) 0.16264(7) 0.26970(9)
C2 C 0.3831(2) 0.16901(7) 0.31981(10)
H1 H 0.255(3) 0.1756(9) 0.2967(13)
C3 C 0.4415(2) 0.16707(7) 0.41823(10)
C4 C 0.6393(2) 0.15688(7) 0.44356(10)
C5 C 0.7198(2) 0.15595(8) 0.53356(11)
H2 H 0.8535 0.1490 0.5503
C6 C 0.6009(3) 0.16547(8) 0.59923(11)
H3 H 0.6537 0.1650 0.6613
C7 C 0.4055(3) 0.17566(8) 0.57418(11)
H4 H 0.3263 0.1820 0.6196
C8 C 0.3237(2) 0.17668(8) 0.48374(11)
H5 H 0.1901 0.1838 0.4672
C9 C 0.5106(2) 0.16589(7) 0.17200(10)
C10 C 0.6546(2) 0.17595(7) 0.12294(10)
H6 H 0.7839 0.1817 0.1501
C11 C 0.5969(2) 0.17732(7) 0.02447(10)
C12 C 0.4000(2) 0.16628(7) -0.00236(10)
C13 C 0.3202(2) 0.16710(7) -0.09233(10)
H7 H 0.1869 0.1598 -0.1098
C14 C 0.4400(2) 0.17892(7) -0.15684(10)
H8 H 0.3881 0.1796 -0.2190
C15 C 0.6343(2) 0.18972(7) -0.13092(10)
H9 H 0.7139 0.1975 -0.1758
C16 C 0.7147(2) 0.18940(7) -0.04022(10)
H10 H 0.8477 0.1973 -0.0230
C17 C 0.8032(2) 0.06865(7) 0.33495(11)
C18 C 0.9917(3) 0.04929(9) 0.35903(14)
H11 H 1.0909 0.0778 0.3766
C19 C 1.0349(3) -0.01190(10) 0.35740(17)
H12 H 1.1636 -0.0251 0.3742
C20 C 0.8910(3) -0.05358(9) 0.33143(16)
H13 H 0.9216 -0.0953 0.3297
C21 C 0.7033(3) -0.03481(9) 0.30803(16)
H14 H 0.6046 -0.0636 0.2908
C22 C 0.6588(3) 0.02637(8) 0.30970(14)
H15 H 0.5297 0.0393 0.2936
C23 C 0.2275(2) 0.07649(7) 0.10288(10)
C24 C 0.3624(2) 0.03165(8) 0.09341(12)
H16 H 0.4879 0.0425 0.0828
C25 C 0.3142(3) -0.02855(8) 0.09932(14)
H17 H 0.4065 -0.0590 0.0932
C26 C 0.1308(3) -0.04422(9) 0.11411(14)
H18 H 0.0977 -0.0856 0.1183
C27 C -0.0043(3) -0.00030(9) 0.12284(15)
H19 H -0.1300 -0.0114 0.1328
C28 C 0.0435(2) 0.06014(8) 0.11701(12)
H20 H -0.0497 0.0904 0.1227
O3 O 1.01571(19) 0.28501(6) 0.22488(10)
H21 H 0.988(3) 0.2586(12) 0.2612(17)
H22 H 1.054(3) 0.2623(12) 0.1866(18)
loop_
_geom_bond_atom_site_label_1
_geom_bond_atom_site_label_2
_geom_bond_site_symmetry_1
_geom_bond_site_symmetry_2
P1 O1 1_555 1_555
P2 O2 1_555 1_555
O3 H21 1_555 1_555
C1 P1 1_555 1_555
C2 C1 1_555 1_555
H1 C2 1_555 1_555
C3 C2 1_555 1_555
C4 P1 1_555 1_555
C5 C4 1_555 1_555
H2 C5 1_555 1_555
C6 C5 1_555 1_555
H3 C6 1_555 1_555
C7 C6 1_555 1_555
H4 C7 1_555 1_555
C8 C3 1_555 1_555
H5 C8 1_555 1_555
C9 P2 1_555 1_555
C10 C9 1_555 1_555
H6 C10 1_555 1_555
C11 C10 1_555 1_555
C12 P2 1_555 1_555
C13 C12 1_555 1_555
H7 C13 1_555 1_555
C14 C13 1_555 1_555
H8 C14 1_555 1_555
C15 C14 1_555 1_555
H9 C15 1_555 1_555
C16 C11 1_555 1_555
H10 C16 1_555 1_555
C17 P1 1_555 1_555
C18 C17 1_555 1_555
H11 C18 1_555 1_555
C19 C18 1_555 1_555
H12 C19 1_555 1_555
C20 C19 1_555 1_555
H13 C20 1_555 1_555
C21 C20 1_555 1_555
H14 C21 1_555 1_555
C22 C17 1_555 1_555
H15 C22 1_555 1_555
C23 P2 1_555 1_555
C24 C23 1_555 1_555
H16 C24 1_555 1_555
C25 C24 1_555 1_555
H17 C25 1_555 1_555
C26 C25 1_555 1_555
H18 C26 1_555 1_555
C27 C26 1_555 1_555
H19 C27 1_555 1_555
C28 C23 1_555 1_555
H20 C28 1_555 1_555
H22 O3 1_555 1_555
C1 C9 1_555 1_555
C3 C4 1_555 1_555
C7 C8 1_555 1_555
C11 C12 1_555 1_555
C15 C16 1_555 1_555
C21 C22 1_555 1_555
C27 C28 1_555 1_555

#END
