
#######################################################################
#
#                 Cambridge Crystallographic Data Centre
#                                CCDC 
#
#######################################################################
#
# If this CIF has been generated from an entry in the Cambridge 
# Structural Database, then it will include bibliographic, chemical, 
# crystal, experimental, refinement or atomic coordinate data resulting 
# from the CCDC's data processing and validation procedures.
#
#######################################################################

data_VESTIZ
_chemical_formula_moiety         'C45 H27 N3 O9,C1 H2 Cl2'
_chemical_name_systematic        
'1,3,5-tris(4-nitrobenzoyl)-2,4,6-triphenylbenzene dichloromethane solvate'
_symmetry_cell_setting           monoclinic
_symmetry_space_group_name_H-M   'P 21/c'
_symmetry_Int_Tables_number      14
_space_group_name_Hall           '-P 2ybc'
loop_
_symmetry_equiv_pos_site_id
_symmetry_equiv_pos_as_xyz
1 x,y,z
2 -x,1/2+y,1/2-z
3 -x,-y,-z
4 x,1/2-y,1/2+z
_cell_length_a                   11.8853(6)
_cell_length_b                   29.8669(14)
_cell_length_c                   12.3141(6)
_cell_angle_alpha                90
_cell_angle_beta                 115.109(2)
_cell_angle_gamma                90
_cell_volume                     3958.15
_exptl_crystal_colour            colorless
_exptl_crystal_description       block
_cell_formula_units_Z            4
loop_
_atom_site_label
_atom_site_type_symbol
_atom_site_fract_x
_atom_site_fract_y
_atom_site_fract_z
O1 O 0.4984(3) 0.05852(9) 0.1692(3)
O2 O 0.4791(8) 0.22650(17) 0.5429(5)
O3 O 0.5152(7) 0.27289(12) 0.4462(4)
O4 O 0.9024(3) 0.19395(10) 0.0977(4)
O5 O 1.3466(3) 0.02917(11) 0.2886(3)
O6 O 1.2353(3) -0.01086(11) 0.1340(3)
O7 O 0.4252(3) 0.17607(9) -0.3018(3)
O8 O 0.2990(3) -0.04557(10) -0.5472(3)
O9 O 0.1315(3) -0.00762(11) -0.6454(3)
N1 N 0.2360(3) -0.01149(11) -0.5646(3)
N2 N 1.2536(3) 0.02247(12) 0.1960(3)
N3 N 0.4965(5) 0.23613(12) 0.4612(4)
C1 C 0.5752(3) 0.10988(11) 0.0679(3)
C2 C 0.7007(3) 0.12149(11) 0.1106(3)
C3 C 0.7431(3) 0.13968(11) 0.0301(3)
C4 C 0.6643(3) 0.14420(11) -0.0916(3)
C5 C 0.5399(3) 0.13140(10) -0.1322(3)
C6 C 0.4932(3) 0.11476(11) -0.0530(3)
C7 C 0.5282(3) 0.09678(11) 0.1595(3)
C8 C 0.5199(3) 0.13359(11) 0.2383(3)
C9 C 0.5186(4) 0.12305(12) 0.3476(3)
H1 H 0.5237 0.0933 0.3717
C10 C 0.5100(4) 0.15641(13) 0.4202(3)
H2 H 0.5087 0.1496 0.4934
C11 C 0.5032(4) 0.20009(13) 0.3827(3)
C12 C 0.5032(5) 0.21200(13) 0.2750(4)
H3 H 0.4968 0.2418 0.2512
C13 C 0.5130(4) 0.17814(12) 0.2033(3)
H4 H 0.5151 0.1852 0.1307
C14 C 0.7866(3) 0.11156(13) 0.2380(3)
C15 C 0.8030(4) 0.06681(14) 0.2766(4)
H5 H 0.7595 0.0443 0.2230
C16 C 0.8823(4) 0.05576(19) 0.3925(4)
H6 H 0.8927 0.0260 0.4166
C17 C 0.9459(4) 0.0887(2) 0.4725(4)
H7 H 0.9996 0.0812 0.5507
C18 C 0.9311(4) 0.1325(2) 0.4380(4)
H8 H 0.9739 0.1547 0.4932
C19 C 0.8513(4) 0.14443(16) 0.3192(4)
H9 H 0.8424 0.1743 0.2956
C20 C 0.8769(4) 0.15478(13) 0.0773(4)
C21 C 0.9735(3) 0.12018(12) 0.1005(3)
C22 C 1.0981(4) 0.13287(14) 0.1548(4)
H10 H 1.1192 0.1629 0.1709
C23 C 1.1902(4) 0.10095(14) 0.1847(4)
H11 H 1.2735 0.1091 0.2217
C24 C 1.1564(3) 0.05716(13) 0.1588(3)
C25 C 1.0345(4) 0.04345(13) 0.1044(4)
H12 H 1.0145 0.0134 0.0878
C26 C 0.9429(3) 0.07547(13) 0.0751(3)
H13 H 0.8599 0.0670 0.0380
C27 C 0.7151(3) 0.16055(12) -0.1768(3)
C28 C 0.7464(6) 0.20494(15) -0.1786(6)
H14 H 0.7351 0.2253 -0.1268
C29 C 0.7946(8) 0.21932(17) -0.2572(7)
H15 H 0.8148 0.2494 -0.2583
C30 C 0.8129(5) 0.18985(17) -0.3332(5)
H16 H 0.8442 0.1999 -0.3865
C31 C 0.7851(4) 0.14559(14) -0.3308(4)
H17 H 0.7993 0.1253 -0.3810
C32 C 0.7352(3) 0.13090(12) -0.2528(3)
H18 H 0.7153 0.1008 -0.2521
C33 C 0.4510(3) 0.13843(11) -0.2614(3)
C34 C 0.3942(3) 0.09871(11) -0.3381(3)
C35 C 0.2876(3) 0.10444(12) -0.4443(3)
H19 H 0.2526 0.1328 -0.4656
C36 C 0.2336(4) 0.06843(13) -0.5178(3)
H20 H 0.1611 0.0718 -0.5878
C37 C 0.2907(3) 0.02701(12) -0.4844(3)
C38 C 0.3962(4) 0.02025(12) -0.3805(3)
H21 H 0.4319 -0.0080 -0.3608
C39 C 0.4481(3) 0.05636(12) -0.3060(3)
H22 H 0.5187 0.0525 -0.2346
C40 C 0.3580(3) 0.10534(12) -0.0948(3)
C41 C 0.2732(4) 0.14045(14) -0.1321(4)
H23 H 0.3013 0.1696 -0.1314
C42 C 0.1471(4) 0.13243(17) -0.1705(4)
H24 H 0.0913 0.1562 -0.1944
C43 C 0.1040(4) 0.08942(17) -0.1732(4)
H25 H 0.0194 0.0841 -0.1990
C44 C 0.1875(4) 0.05440(15) -0.1373(4)
H26 H 0.1587 0.0253 -0.1400
C45 C 0.3140(4) 0.06211(13) -0.0972(4)
H27 H 0.3695 0.0382 -0.0718
C46 C 0.1991(15) 0.2479(3) 0.0237(8)
H28 H 0.1873 0.2158 0.0134
H29 H 0.2876 0.2536 0.0553
Cl1 Cl 0.1506(2) 0.26417(9) 0.1245(2)
Cl2 Cl 0.1273(4) 0.27306(9) -0.1172(2)
loop_
_geom_bond_atom_site_label_1
_geom_bond_atom_site_label_2
_geom_bond_site_symmetry_1
_geom_bond_site_symmetry_2
O1 C7 1_555 1_555
O2 N3 1_555 1_555
O3 N3 1_555 1_555
O4 C20 1_555 1_555
O5 N2 1_555 1_555
O6 N2 1_555 1_555
O7 C33 1_555 1_555
O8 N1 1_555 1_555
O9 N1 1_555 1_555
N1 C37 1_555 1_555
N2 C24 1_555 1_555
N3 C11 1_555 1_555
C1 C2 1_555 1_555
C2 C3 1_555 1_555
C3 C4 1_555 1_555
C4 C5 1_555 1_555
C5 C6 1_555 1_555
C6 C1 1_555 1_555
C7 C1 1_555 1_555
C8 C7 1_555 1_555
C9 C8 1_555 1_555
H1 C9 1_555 1_555
C10 C9 1_555 1_555
H2 C10 1_555 1_555
C11 C10 1_555 1_555
C12 C11 1_555 1_555
H3 C12 1_555 1_555
C13 C8 1_555 1_555
H4 C13 1_555 1_555
C14 C2 1_555 1_555
C15 C14 1_555 1_555
H5 C15 1_555 1_555
C16 C15 1_555 1_555
H6 C16 1_555 1_555
C17 C16 1_555 1_555
H7 C17 1_555 1_555
C18 C17 1_555 1_555
H8 C18 1_555 1_555
C19 C14 1_555 1_555
H9 C19 1_555 1_555
C20 C3 1_555 1_555
C21 C20 1_555 1_555
C22 C21 1_555 1_555
H10 C22 1_555 1_555
C23 C22 1_555 1_555
H11 C23 1_555 1_555
C24 C23 1_555 1_555
C25 C24 1_555 1_555
H12 C25 1_555 1_555
C26 C21 1_555 1_555
H13 C26 1_555 1_555
C27 C4 1_555 1_555
C28 C27 1_555 1_555
H14 C28 1_555 1_555
C29 C28 1_555 1_555
H15 C29 1_555 1_555
C30 C29 1_555 1_555
H16 C30 1_555 1_555
C31 C30 1_555 1_555
H17 C31 1_555 1_555
C32 C27 1_555 1_555
H18 C32 1_555 1_555
C33 C5 1_555 1_555
C34 C33 1_555 1_555
C35 C34 1_555 1_555
H19 C35 1_555 1_555
C36 C35 1_555 1_555
H20 C36 1_555 1_555
C37 C36 1_555 1_555
C38 C37 1_555 1_555
H21 C38 1_555 1_555
C39 C34 1_555 1_555
H22 C39 1_555 1_555
C40 C6 1_555 1_555
C41 C40 1_555 1_555
H23 C41 1_555 1_555
C42 C41 1_555 1_555
H24 C42 1_555 1_555
C43 C42 1_555 1_555
H25 C43 1_555 1_555
C44 C43 1_555 1_555
H26 C44 1_555 1_555
C45 C40 1_555 1_555
H27 C45 1_555 1_555
C46 H28 1_555 1_555
H29 C46 1_555 1_555
Cl1 C46 1_555 1_555
Cl2 C46 1_555 1_555
C12 C13 1_555 1_555
C18 C19 1_555 1_555
C25 C26 1_555 1_555
C31 C32 1_555 1_555
C38 C39 1_555 1_555
C44 C45 1_555 1_555

#END
