
#######################################################################
#
#                 Cambridge Crystallographic Data Centre
#                                CCDC 
#
#######################################################################
#
# If this CIF has been generated from an entry in the Cambridge 
# Structural Database, then it will include bibliographic, chemical, 
# crystal, experimental, refinement or atomic coordinate data resulting 
# from the CCDC's data processing and validation procedures.
#
#######################################################################

data_VESVAS
_chemical_formula_moiety         'C21 H14 N1 O1 P1 S1'
_chemical_name_systematic        
2-(1-Oxido-1-phenyl-1H-phosphindol-2-yl)-1,3-benzothiazole
_symmetry_cell_setting           monoclinic
_symmetry_space_group_name_H-M   'P 21/n'
_symmetry_Int_Tables_number      14
_space_group_name_Hall           '-P 2yn'
loop_
_symmetry_equiv_pos_site_id
_symmetry_equiv_pos_as_xyz
1 x,y,z
2 1/2-x,1/2+y,1/2-z
3 -x,-y,-z
4 1/2+x,1/2-y,1/2+z
_cell_length_a                   10.958(2)
_cell_length_b                   8.5098(7)
_cell_length_c                   18.458(2)
_cell_angle_alpha                90
_cell_angle_beta                 101.878(6)
_cell_angle_gamma                90
_cell_volume                     1684.36
_exptl_crystal_colour            yellow
_exptl_crystal_description       prism
_cell_formula_units_Z            4
loop_
_atom_site_label
_atom_site_type_symbol
_atom_site_fract_x
_atom_site_fract_y
_atom_site_fract_z
S1 S 0.30653(3) 0.06585(4) 0.918578(18)
P1 P 0.04383(3) 0.16818(3) 0.701947(15)
O1 O -0.01374(8) 0.32537(9) 0.70449(5)
N1 N 0.07748(10) 0.16224(11) 0.87372(6)
C1 C 0.17960(10) 0.11408(13) 0.77213(6)
C2 C 0.27244(11) 0.06317(13) 0.73979(7)
H1 H 0.3495 0.0250 0.7675
C3 C 0.24532(11) 0.07121(13) 0.65873(7)
C4 C 0.12629(11) 0.13209(13) 0.62854(7)
C5 C 0.08630(12) 0.15087(14) 0.55302(7)
H2 H 0.0062 0.1933 0.5331
C6 C 0.16634(14) 0.10596(16) 0.50641(8)
H3 H 0.1409 0.1194 0.4544
C7 C 0.28202(14) 0.04223(17) 0.53572(9)
H4 H 0.3344 0.0099 0.5034
C8 C 0.32319(13) 0.02465(16) 0.61198(8)
H5 H 0.4031 -0.0184 0.6316
C9 C 0.17665(11) 0.11880(13) 0.85004(6)
C10 C 0.09931(13) 0.15672(13) 0.95022(7)
C11 C 0.21946(13) 0.10498(15) 0.98506(7)
C12 C 0.25281(16) 0.08911(16) 1.06183(8)
H6 H 0.3337 0.0542 1.0853
C13 C 0.16413(16) 0.12586(16) 1.10263(7)
H7 H 0.1843 0.1139 1.1549
C14 C 0.04599(16) 0.18001(15) 1.06911(8)
H8 H -0.0121 0.2061 1.0989
C15 C 0.01204(14) 0.19631(16) 0.99293(7)
H9 H -0.0685 0.2335 0.9702
C16 C -0.06379(10) 0.00624(13) 0.69812(6)
C17 C -0.02340(11) -0.14988(14) 0.70626(7)
H10 H 0.0633 -0.1729 0.7172
C18 C -0.10970(12) -0.27123(14) 0.69845(7)
H11 H -0.0821 -0.3772 0.7040
C19 C -0.23662(11) -0.23747(15) 0.68241(7)
H12 H -0.2957 -0.3206 0.6766
C20 C -0.27696(11) -0.08372(15) 0.67497(7)
H13 H -0.3637 -0.0613 0.6647
C21 C -0.19105(10) 0.03879(14) 0.68242(6)
H14 H -0.2192 0.1445 0.6768
loop_
_geom_bond_atom_site_label_1
_geom_bond_atom_site_label_2
_geom_bond_site_symmetry_1
_geom_bond_site_symmetry_2
S1 C9 1_555 1_555
P1 O1 1_555 1_555
N1 C9 1_555 1_555
C1 P1 1_555 1_555
C2 C1 1_555 1_555
H1 C2 1_555 1_555
C3 C2 1_555 1_555
C4 P1 1_555 1_555
C5 C4 1_555 1_555
H2 C5 1_555 1_555
C6 C5 1_555 1_555
H3 C6 1_555 1_555
C7 C6 1_555 1_555
H4 C7 1_555 1_555
C8 C3 1_555 1_555
H5 C8 1_555 1_555
C9 C1 1_555 1_555
C10 N1 1_555 1_555
C11 S1 1_555 1_555
C12 C11 1_555 1_555
H6 C12 1_555 1_555
C13 C12 1_555 1_555
H7 C13 1_555 1_555
C14 C13 1_555 1_555
H8 C14 1_555 1_555
C15 C10 1_555 1_555
H9 C15 1_555 1_555
C16 P1 1_555 1_555
C17 C16 1_555 1_555
H10 C17 1_555 1_555
C18 C17 1_555 1_555
H11 C18 1_555 1_555
C19 C18 1_555 1_555
H12 C19 1_555 1_555
C20 C19 1_555 1_555
H13 C20 1_555 1_555
C21 C16 1_555 1_555
H14 C21 1_555 1_555
C3 C4 1_555 1_555
C7 C8 1_555 1_555
C10 C11 1_555 1_555
C14 C15 1_555 1_555
C20 C21 1_555 1_555

#END
