
#######################################################################
#
#                 Cambridge Crystallographic Data Centre
#                                CCDC 
#
#######################################################################
#
# If this CIF has been generated from an entry in the Cambridge 
# Structural Database, then it will include bibliographic, chemical, 
# crystal, experimental, refinement or atomic coordinate data resulting 
# from the CCDC's data processing and validation procedures.
#
#######################################################################

data_VETJOU
_chemical_formula_moiety         'C14 H12 Cl1 N1 O1'
_chemical_name_systematic        4-Chloro-2-(p-tolyliminomethyl)phenol
_symmetry_cell_setting           monoclinic
_symmetry_space_group_name_H-M   'P c'
_symmetry_Int_Tables_number      7
_space_group_name_Hall           'P -2yc'
loop_
_symmetry_equiv_pos_site_id
_symmetry_equiv_pos_as_xyz
1 x,y,z
2 x,-y,1/2+z
_cell_length_a                   13.846(11)
_cell_length_b                   6.986(6)
_cell_length_c                   6.176(5)
_cell_angle_alpha                90
_cell_angle_beta                 96.363(10)
_cell_angle_gamma                90
_cell_volume                     593.713
_exptl_crystal_colour            yellow
_exptl_crystal_description       block
_cell_formula_units_Z            2
loop_
_atom_site_label
_atom_site_type_symbol
_atom_site_fract_x
_atom_site_fract_y
_atom_site_fract_z
Cl1 Cl 0.93150(11) 0.18308(14) 0.3570(2)
N1 N 1.3830(2) 0.2245(4) 0.2947(5)
O1 O 1.2828(2) 0.3195(4) -0.0659(5)
H1 H 1.3315 0.2910 0.0157
C1 C 1.3043(3) 0.1960(5) 0.3787(7)
H2 H 1.3071 0.1618 0.5247
C2 C 1.2107(3) 0.2157(5) 0.2518(6)
C3 C 1.2028(3) 0.2853(5) 0.0348(6)
C4 C 1.1114(4) 0.3225(5) -0.0744(7)
H3 H 1.1063 0.3717 -0.2151
C5 C 1.0297(3) 0.2878(5) 0.0214(7)
H4 H 0.9691 0.3107 -0.0550
C6 C 1.0362(3) 0.2185(5) 0.2323(7)
C7 C 1.1254(3) 0.1834(5) 0.3462(6)
H5 H 1.1288 0.1375 0.4882
C8 C 1.4733(3) 0.2323(5) 0.4252(6)
C9 C 1.4833(3) 0.3120(4) 0.6326(5)
H6 H 1.4286 0.3549 0.6929
C10 C 1.5740(3) 0.3280(5) 0.7505(7)
H7 H 1.5793 0.3795 0.8901
C11 C 1.6567(3) 0.2684(5) 0.6634(7)
C12 C 1.6468(3) 0.1901(6) 0.4581(8)
H8 H 1.7018 0.1479 0.3982
C13 C 1.5563(3) 0.1729(5) 0.3385(6)
H9 H 1.5514 0.1211 0.1990
C14 C 1.7553(4) 0.2920(7) 0.7912(9)
H10 H 1.7480 0.3496 0.9296
H11 H 1.7950 0.3725 0.7116
H12 H 1.7855 0.1689 0.8138
loop_
_geom_bond_atom_site_label_1
_geom_bond_atom_site_label_2
_geom_bond_site_symmetry_1
_geom_bond_site_symmetry_2
Cl1 C6 1_555 1_555
N1 C1 1_555 1_555
O1 H1 1_555 1_555
C1 H2 1_555 1_555
C2 C1 1_555 1_555
C3 O1 1_555 1_555
C4 C3 1_555 1_555
H3 C4 1_555 1_555
C5 C4 1_555 1_555
H4 C5 1_555 1_555
C6 C5 1_555 1_555
C7 C2 1_555 1_555
H5 C7 1_555 1_555
C8 N1 1_555 1_555
C9 C8 1_555 1_555
H6 C9 1_555 1_555
C10 C9 1_555 1_555
H7 C10 1_555 1_555
C11 C10 1_555 1_555
C12 C11 1_555 1_555
H8 C12 1_555 1_555
C13 C8 1_555 1_555
H9 C13 1_555 1_555
C14 C11 1_555 1_555
H10 C14 1_555 1_555
H11 C14 1_555 1_555
H12 C14 1_555 1_555
C2 C3 1_555 1_555
C6 C7 1_555 1_555
C12 C13 1_555 1_555

#END
