
#######################################################################
#
#                 Cambridge Crystallographic Data Centre
#                                CCDC 
#
#######################################################################
#
# If this CIF has been generated from an entry in the Cambridge 
# Structural Database, then it will include bibliographic, chemical, 
# crystal, experimental, refinement or atomic coordinate data resulting 
# from the CCDC's data processing and validation procedures.
#
#######################################################################

data_VETPUF
_chemical_formula_moiety         'C22 H28 Ba1 Cl2 N6 O9'
_chemical_name_systematic        
(7,11;19,23-Dinitrilo-1,5,13,17-tetra-azacyclotetracosa-1(24),5,7,9,12,17,20,22-octaene)-ethanol-bis(perchlorato-O,O')-barium
_symmetry_cell_setting           monoclinic
_symmetry_space_group_name_H-M   'A a'
_symmetry_Int_Tables_number      9
_space_group_name_Hall           'A -2ya'
loop_
_symmetry_equiv_pos_site_id
_symmetry_equiv_pos_as_xyz
1 x,y,z
2 x,1/2+y,1/2+z
3 1/2+x,-y,z
4 1/2+x,1/2-y,1/2+z
_cell_length_a                   16.074(15)
_cell_length_b                   11.940(14)
_cell_length_c                   14.381(14)
_cell_angle_alpha                90
_cell_angle_beta                 103.5(1)
_cell_angle_gamma                90
_cell_volume                     2683.79
_exptl_crystal_colour            white
_cell_formula_units_Z            4
loop_
_atom_site_label
_atom_site_type_symbol
_atom_site_fract_x
_atom_site_fract_y
_atom_site_fract_z
Ba1 Ba 0.0000 -0.2852(1) 0.5000
Cl1 Cl 0.1301(3) -0.5308(4) 0.5028(4)
O1 O 0.1159(14) -0.6538(19) 0.5062(16)
O2 O 0.0741(10) -0.4897(14) 0.4193(10)
O3 O 0.1083(11) -0.4771(14) 0.5795(12)
O4 O 0.2131(14) -0.5033(19) 0.5053(16)
Cl2 Cl -0.0055(4) 0.0185(3) 0.5053(5)
O5 O -0.0310(9) -0.0550(13) 0.5695(10)
O6 O 0.0779(11) 0.0747(16) 0.5546(13)
O7 O -0.0681(11) 0.1014(15) 0.4710(12)
O8 O 0.0130(11) -0.0483(15) 0.4279(11)
N1 N 0.0420(15) -0.2621(21) 0.7116(15)
C1 C 0.0895(16) -0.2052(17) 0.7401(18)
C2 C 0.1588(15) -0.1520(18) 0.6997(16)
N2 N 0.1512(10) -0.1840(15) 0.6086(11)
C3 C 0.2191(12) -0.1444(15) 0.5687(14)
C4 C 0.2791(14) -0.0738(19) 0.6179(15)
C5 C 0.2842(14) -0.0460(19) 0.7088(15)
C6 C 0.2215(17) -0.0863(27) 0.7466(21)
C7 C 0.2142(12) -0.1771(18) 0.4749(13)
N3 N 0.1522(13) -0.2425(18) 0.4201(14)
C8 C 0.1651(15) -0.2695(22) 0.3279(17)
C9 C 0.1009(31) -0.2499(52) 0.2507(34)
C10 C 0.0092(16) -0.2993(18) 0.2278(18)
N4 N -0.0388(13) -0.2698(15) 0.2975(14)
C11 C -0.1101(16) -0.2059(16) 0.2505(18)
C12 C -0.1703(13) -0.1606(17) 0.3068(15)
N5 N -0.1642(12) -0.1938(15) 0.3965(13)
C13 C -0.2348(15) -0.0912(23) 0.2588(19)
C14 C -0.2968(14) -0.0574(21) 0.3107(17)
C15 C -0.2901(13) -0.0900(17) 0.3990(14)
C16 C -0.2195(15) -0.1681(22) 0.4435(17)
C17 C -0.2156(13) -0.2062(15) 0.5381(15)
N6 N -0.1585(15) -0.2595(21) 0.5773(15)
C18 C -0.1665(17) -0.3087(25) 0.6701(19)
C19 C -0.0963(21) -0.2504(33) 0.7561(22)
C20 C -0.0158(20) -0.3236(30) 0.7679(23)
O9 O -0.1122(12) -0.4730(17) 0.4854(14)
C21 C -0.1123(24) -0.5807(38) 0.4654(29)
C22 C -0.0877(65) -0.623(12) 0.5201(84)
H1 H 0.0904(16) -0.1831(17) 0.8038(18)
H2 H 0.3204(14) -0.0497(19) 0.5846(15)
H3 H 0.3292(14) -0.0004(19) 0.7437(15)
H4 H 0.2247(17) -0.0689(27) 0.8118(21)
H5 H 0.2634(12) -0.1643(18) 0.4504(13)
H6 H 0.1739(15) -0.3482(22) 0.3305(17)
H7 H 0.2156(15) -0.2331(22) 0.3200(17)
H8 H 0.0941(31) -0.1710(52) 0.2538(34)
H9 H 0.1240(31) -0.2679(52) 0.1975(34)
H10 H 0.0105(16) -0.3787(18) 0.2239(18)
H11 H -0.0185(16) -0.2694(18) 0.1672(18)
H12 H -0.1190(16) -0.1913(16) 0.1840(18)
H13 H -0.2414(15) -0.0699(23) 0.1939(19)
H14 H -0.3411(14) -0.0065(21) 0.2830(17)
H15 H -0.3326(13) -0.0695(17) 0.4319(14)
H16 H -0.2613(13) -0.1958(15) 0.5688(15)
H17 H -0.2225(17) -0.3133(25) 0.6809(19)
H18 H -0.1448(17) -0.3820(25) 0.6659(19)
H19 H -0.1138(21) -0.2451(33) 0.8146(22)
H20 H -0.0866(21) -0.1774(33) 0.7345(22)
H21 H -0.0348(20) -0.3926(30) 0.7374(23)
H22 H 0.0139(20) -0.3374(30) 0.8321(23)
loop_
_geom_bond_atom_site_label_1
_geom_bond_atom_site_label_2
_geom_bond_site_symmetry_1
_geom_bond_site_symmetry_2
Ba1 O2 1_555 1_555
Cl1 O1 1_555 1_555
O2 Cl1 1_555 1_555
O3 Ba1 1_555 1_555
O4 Cl1 1_555 1_555
Cl2 O5 1_555 1_555
O5 Ba1 1_555 1_555
O6 Cl2 1_555 1_555
O7 Cl2 1_555 1_555
O8 Ba1 1_555 1_555
N1 Ba1 1_555 1_555
C1 N1 1_555 1_555
C2 C1 1_555 1_555
N2 Ba1 1_555 1_555
C3 N2 1_555 1_555
C4 C3 1_555 1_555
C5 C4 1_555 1_555
C6 C2 1_555 1_555
C7 C3 1_555 1_555
N3 Ba1 1_555 1_555
C8 N3 1_555 1_555
C9 C8 1_555 1_555
C10 C9 1_555 1_555
N4 Ba1 1_555 1_555
C11 N4 1_555 1_555
C12 C11 1_555 1_555
N5 Ba1 1_555 1_555
C13 C12 1_555 1_555
C14 C13 1_555 1_555
C15 C14 1_555 1_555
C16 N5 1_555 1_555
C17 C16 1_555 1_555
N6 Ba1 1_555 1_555
C18 N6 1_555 1_555
C19 C18 1_555 1_555
C20 N1 1_555 1_555
O9 Ba1 1_555 1_555
C21 O9 1_555 1_555
C22 C21 1_555 1_555
H1 C1 1_555 1_555
H2 C4 1_555 1_555
H3 C5 1_555 1_555
H4 C6 1_555 1_555
H5 C7 1_555 1_555
H6 C8 1_555 1_555
H7 C8 1_555 1_555
H8 C9 1_555 1_555
H9 C9 1_555 1_555
H10 C10 1_555 1_555
H11 C10 1_555 1_555
H12 C11 1_555 1_555
H13 C13 1_555 1_555
H14 C14 1_555 1_555
H15 C15 1_555 1_555
H16 C17 1_555 1_555
H17 C18 1_555 1_555
H18 C18 1_555 1_555
H19 C19 1_555 1_555
H20 C19 1_555 1_555
H21 C20 1_555 1_555
H22 C20 1_555 1_555
Cl1 O3 1_555 1_555
Cl2 O8 1_555 1_555
C2 N2 1_555 1_555
C5 C6 1_555 1_555
C7 N3 1_555 1_555
C10 N4 1_555 1_555
C12 N5 1_555 1_555
C15 C16 1_555 1_555
C17 N6 1_555 1_555
C19 C20 1_555 1_555

#END
