
#######################################################################
#
#                 Cambridge Crystallographic Data Centre
#                                CCDC 
#
#######################################################################
#
# If this CIF has been generated from an entry in the Cambridge 
# Structural Database, then it will include bibliographic, chemical, 
# crystal, experimental, refinement or atomic coordinate data resulting 
# from the CCDC's data processing and validation procedures.
#
#######################################################################

data_VETPAO
_chemical_formula_moiety         'C17 H19 N3 O4,H2 O1'
_chemical_name_systematic        
'ethyl 5-{[2-(4-hydroxybenzene-1-carbonyl)hydrazinylidene]methyl}-3,4-dimethyl-1H-pyrrole-2-carboxylate monohydrate'
_symmetry_cell_setting           monoclinic
_symmetry_space_group_name_H-M   'P 21/n'
_symmetry_Int_Tables_number      14
_space_group_name_Hall           '-P 2yn'
loop_
_symmetry_equiv_pos_site_id
_symmetry_equiv_pos_as_xyz
1 x,y,z
2 1/2-x,1/2+y,1/2-z
3 -x,-y,-z
4 1/2+x,1/2-y,1/2+z
_cell_length_a                   9.2278(16)
_cell_length_b                   15.093(3)
_cell_length_c                   12.698(2)
_cell_angle_alpha                90
_cell_angle_beta                 105.195(12)
_cell_angle_gamma                90
_cell_volume                     1706.69
_exptl_crystal_colour            yellow
_exptl_crystal_description       block
_cell_formula_units_Z            4
loop_
_atom_site_label
_atom_site_type_symbol
_atom_site_fract_x
_atom_site_fract_y
_atom_site_fract_z
N1 N 0.6348(2) 0.02933(14) 0.93676(16)
N2 N 0.8876(2) -0.06095(13) 1.05922(16)
H1 H 0.8379 -0.0924 1.0052
N3 N 0.5149(2) 0.07672(14) 0.87624(16)
H2 H 0.5003 0.1306 0.8929
O1 O 0.4397(2) -0.04019(14) 0.76629(16)
C1 C 0.2949(3) 0.09113(17) 0.72426(19)
O2 O -0.0472(2) 0.23575(14) 0.51712(15)
H3 H -0.0879 0.2690 0.5517
C2 C 0.7236(3) 0.06866(17) 1.0172(2)
H4 H 0.7049 0.1269 1.0337
C3 C 0.1387(3) 0.22183(18) 0.6892(2)
H5 H 0.1123 0.2767 0.7120
C4 C 0.1013(3) 0.1067(2) 0.5556(2)
H6 H 0.0500 0.0840 0.4881
C5 C 0.0637(3) 0.18871(19) 0.5880(2)
C6 C 0.4201(3) 0.03682(18) 0.7897(2)
C7 C 0.2526(3) 0.17317(17) 0.7559(2)
H7 H 0.3025 0.1958 0.8239
C8 C 0.8525(3) 0.02272(16) 1.08231(19)
C9 C 1.0142(3) -0.08758(18) 1.1352(2)
O3 O 1.1826(3) -0.20519(16) 1.2033(2)
C10 C 0.9603(3) 0.05104(17) 1.1745(2)
C11 C 0.2150(3) 0.05843(19) 0.6233(2)
H8 H 0.2388 0.0028 0.6010
C12 C 1.0615(3) -0.01860(18) 1.2083(2)
C13 C 0.9659(4) 0.1397(2) 1.2290(3)
H9 H 1.0513 0.1419 1.2913
H10 H 0.8758 0.1483 1.2520
H11 H 0.9743 0.1855 1.1784
O4 O 1.0057(3) -0.21960(15) 1.0479(2)
C14 C 1.0783(4) -0.1743(2) 1.1351(3)
C15 C 1.1961(3) -0.0185(2) 1.3039(2)
H12 H 1.2039 0.0377 1.3403
H13 H 1.2847 -0.0285 1.2793
H14 H 1.1865 -0.0647 1.3536
C16 C 0.9574(12) -0.3590(6) 0.9697(12)
H15 H 0.8638 -0.3672 0.9881
H16 H 0.9984 -0.4157 0.9589
H17 H 0.9408 -0.3248 0.9038
C17 C 1.0609(13) -0.3130(5) 1.0569(11)
H18 H 1.1622 -0.3160 1.0483
H19 H 1.0602 -0.3381 1.1271
O5 O 0.6797(2) -0.15668(13) 0.87010(16)
H25 H 0.685(6) -0.188(3) 0.815(3)
H26 H 0.626(5) -0.111(2) 0.845(4)
C18? C 0.9520(14) -0.3628(9) 1.0424(15)
H20? H 0.9868 -0.3626 1.1206
H21? H 0.9545 -0.4221 1.0158
H22? H 0.8509 -0.3407 1.0207
C19? C 1.050(2) -0.3054(8) 0.9965(16)
H23? H 1.0216 -0.3042 0.9173
H24? H 1.1559 -0.3199 1.0236
loop_
_geom_bond_atom_site_label_1
_geom_bond_atom_site_label_2
_geom_bond_site_symmetry_1
_geom_bond_site_symmetry_2
N1 N3 1_555 1_555
N2 H1 1_555 1_555
N3 H2 1_555 1_555
O1 C6 1_555 1_555
C1 C6 1_555 1_555
O2 H3 1_555 1_555
C2 N1 1_555 1_555
H4 C2 1_555 1_555
C3 H5 1_555 1_555
C4 H6 1_555 1_555
C5 O2 1_555 1_555
C6 N3 1_555 1_555
C7 C1 1_555 1_555
H7 C7 1_555 1_555
C8 N2 1_555 1_555
C9 N2 1_555 1_555
O3 C14 1_555 1_555
C10 C8 1_555 1_555
C11 C1 1_555 1_555
H8 C11 1_555 1_555
C12 C9 1_555 1_555
C13 C10 1_555 1_555
H9 C13 1_555 1_555
H10 C13 1_555 1_555
H11 C13 1_555 1_555
O4 C14 1_555 1_555
C14 C9 1_555 1_555
C15 C12 1_555 1_555
H12 C15 1_555 1_555
H13 C15 1_555 1_555
H14 C15 1_555 1_555
C16 H15 1_555 1_555
H16 C16 1_555 1_555
H17 C16 1_555 1_555
C17 O4 1_555 1_555
H18 C17 1_555 1_555
H19 C17 1_555 1_555
O5 H25 1_555 1_555
H26 O5 1_555 1_555
C2 C8 1_555 1_555
C3 C5 1_555 1_555
C3 C7 1_555 1_555
C4 C5 1_555 1_555
C4 C11 1_555 1_555
C10 C12 1_555 1_555
C16 C17 1_555 1_555

#END
