
#######################################################################
#
#                 Cambridge Crystallographic Data Centre
#                                CCDC 
#
#######################################################################
#
# If this CIF has been generated from an entry in the Cambridge 
# Structural Database, then it will include bibliographic, chemical, 
# crystal, experimental, refinement or atomic coordinate data resulting 
# from the CCDC's data processing and validation procedures.
#
#######################################################################

data_VETQAP
_chemical_formula_moiety         'C15 H24 N2 O4'
_chemical_name_systematic        
(E)-5-(diethylamino)-2-(((1,1,2-trihydroxyethyl)iminio)methyl)phenolate
_symmetry_cell_setting           orthorhombic
_symmetry_space_group_name_H-M   'P c a 21'
_symmetry_Int_Tables_number      29
_space_group_name_Hall           'P 2c -2ac'
loop_
_symmetry_equiv_pos_site_id
_symmetry_equiv_pos_as_xyz
1 x,y,z
2 -x,-y,1/2+z
3 1/2-x,y,1/2+z
4 1/2+x,-y,z
_cell_length_a                   18.528(6)
_cell_length_b                   8.123(2)
_cell_length_c                   20.797(6)
_cell_angle_alpha                90
_cell_angle_beta                 90
_cell_angle_gamma                90
_cell_volume                     3130.01
_exptl_crystal_description       block
_cell_formula_units_Z            8
loop_
_atom_site_label
_atom_site_type_symbol
_atom_site_fract_x
_atom_site_fract_y
_atom_site_fract_z
O1 O -0.44725(8) -0.87590(17) -0.39983(8)
N1 N -0.31754(8) -0.9635(2) -0.35184(9)
H1 H -0.3556 -0.9047 -0.3462
O2 O -0.29299(7) -1.27128(17) -0.28751(8)
H2 H -0.2571 -1.3263 -0.2791
C1 C -0.30988(11) -1.0348(2) -0.40741(11)
H3 H -0.2668 -1.0906 -0.4147
O3 O -0.34396(9) -0.7935(2) -0.23962(9)
H4 H -0.3523 -0.6946 -0.2371
C2 C -0.42964(11) -0.9559(2) -0.45191(10)
C3 C -0.28930(12) -1.1203(3) -0.25488(11)
H5 H -0.2550 -1.1302 -0.2198
H6 H -0.3362 -1.0964 -0.2364
C4 C -0.36061(11) -1.0352(3) -0.45735(10)
C5 C -0.47793(11) -0.9722(3) -0.50326(10)
H7 H -0.5218 -0.9167 -0.5013
C6 C -0.26658(10) -0.9752(2) -0.29812(10)
O4 O -0.17393(9) -0.8796(3) -0.36954(11)
H8 H -0.1301 -0.8676 -0.3724
N2 N -0.51140(10) -1.0872(2) -0.60567(9)
C7 C -0.34645(12) -1.1308(3) -0.51272(11)
H9 H -0.3020 -1.1831 -0.5161
C8 C -0.46293(11) -1.0683(3) -0.55738(10)
C9 C -0.39450(12) -1.1496(3) -0.56101(11)
H10 H -0.3832 -1.2148 -0.5964
C10 C -0.18939(11) -0.9996(3) -0.32215(13)
H11 H -0.1558 -0.9891 -0.2866
H12 H -0.1842 -1.1090 -0.3403
C11 C -0.27238(12) -0.8177(3) -0.25927(12)
H13 H -0.2413 -0.8245 -0.2219
H14 H -0.2567 -0.7251 -0.2852
C12 C -0.49889(13) -1.1982(3) -0.66007(11)
H15 H -0.5451 -1.2346 -0.6768
H16 H -0.4731 -1.2946 -0.6449
C13 C -0.57628(13) -0.9872(3) -0.60904(13)
H17 H -0.5881 -0.9691 -0.6539
H18 H -0.5660 -0.8806 -0.5901
C14 C -0.64085(15) -1.0583(4) -0.57631(18)
H19 H -0.6542 -1.1594 -0.5970
H20 H -0.6802 -0.9818 -0.5788
H21 H -0.6296 -1.0796 -0.5320
C15 C -0.4566(2) -1.1203(4) -0.71354(15)
H22 H -0.4463 -1.2014 -0.7458
H23 H -0.4122 -1.0771 -0.6968
H24 H -0.4843 -1.0326 -0.7322
N3 N -0.05562(8) -1.5602(2) -0.28971(9)
H25 H -0.0920 -1.5012 -0.3010
O5 O -0.17877(8) -1.4237(2) -0.25550(8)
C16 C -0.22084(11) -1.5527(3) -0.09173(10)
O6 O 0.09973(8) -1.51574(19) -0.25843(8)
H26 H 0.1309 -1.5852 -0.2654
O7 O -0.02868(8) -1.86377(18) -0.35428(9)
H27 H -0.0126 -1.9519 -0.3672
C17 C -0.22536(11) -1.4750(3) -0.15125(11)
H28 H -0.2646 -1.4068 -0.1593
C18 C -0.17327(11) -1.4951(2) -0.19980(10)
C19 C -0.05792(11) -1.6256(3) -0.23215(11)
H29 H -0.0201 -1.6946 -0.2204
N4 N -0.27117(10) -1.5313(2) -0.04469(9)
C20 C -0.11258(11) -1.5999(3) -0.18701(11)
O8 O -0.05638(9) -1.3596(2) -0.39843(10)
H30 H -0.0240 -1.2911 -0.3960
C21 C 0.00268(10) -1.5775(3) -0.33657(10)
C22 C 0.06697(11) -1.4690(3) -0.31726(12)
H31 H 0.1030 -1.4734 -0.3511
H32 H 0.0507 -1.3559 -0.3138
C23 C -0.32987(13) -1.4129(3) -0.05086(12)
H33 H -0.3138 -1.3220 -0.0775
H34 H -0.3412 -1.3692 -0.0086
C24 C -0.10954(12) -1.6786(3) -0.12625(12)
H35 H -0.0707 -1.7475 -0.1176
C25 C 0.02878(11) -1.7555(3) -0.34138(13)
H36 H 0.0644 -1.7641 -0.3754
H37 H 0.0517 -1.7869 -0.3013
C26 C -0.15992(13) -1.6587(3) -0.08054(12)
H38 H -0.1554 -1.7137 -0.0415
C27 C -0.02615(13) -1.5184(3) -0.40131(13)
H39 H 0.0129 -1.5184 -0.4323
H40 H -0.0626 -1.5951 -0.4163
C28 C -0.26939(13) -1.6224(3) 0.01574(12)
H41 H -0.2472 -1.7288 0.0083
H42 H -0.3185 -1.6415 0.0300
C29 C -0.39777(14) -1.4852(4) -0.07984(16)
H43 H -0.3881 -1.5205 -0.1230
H44 H -0.4351 -1.4032 -0.0803
H45 H -0.4132 -1.5777 -0.0546
C30 C -0.2288(3) -1.5354(6) 0.06820(16)
H46 H -0.1816 -1.5057 0.0529
H47 H -0.2242 -1.6070 0.1047
H48 H -0.2545 -1.4378 0.0805
loop_
_geom_bond_atom_site_label_1
_geom_bond_atom_site_label_2
_geom_bond_site_symmetry_1
_geom_bond_site_symmetry_2
O1 C2 1_555 1_555
N1 H1 1_555 1_555
O2 H2 1_555 1_555
C1 N1 1_555 1_555
H3 C1 1_555 1_555
O3 H4 1_555 1_555
C2 C4 1_555 1_555
C3 O2 1_555 1_555
H5 C3 1_555 1_555
H6 C3 1_555 1_555
C4 C1 1_555 1_555
C5 C2 1_555 1_555
H7 C5 1_555 1_555
C6 N1 1_555 1_555
O4 H8 1_555 1_555
N2 C8 1_555 1_555
C7 C4 1_555 1_555
H9 C7 1_555 1_555
C8 C5 1_555 1_555
C9 C7 1_555 1_555
H10 C9 1_555 1_555
C10 C6 1_555 1_555
H11 C10 1_555 1_555
H12 C10 1_555 1_555
C11 O3 1_555 1_555
H13 C11 1_555 1_555
H14 C11 1_555 1_555
C12 N2 1_555 1_555
H15 C12 1_555 1_555
H16 C12 1_555 1_555
C13 N2 1_555 1_555
H17 C13 1_555 1_555
H18 C13 1_555 1_555
C14 C13 1_555 1_555
H19 C14 1_555 1_555
H20 C14 1_555 1_555
H21 C14 1_555 1_555
C15 C12 1_555 1_555
H22 C15 1_555 1_555
H23 C15 1_555 1_555
H24 C15 1_555 1_555
N3 H25 1_555 1_555
O5 C18 1_555 1_555
C16 C17 1_555 1_555
O6 H26 1_555 1_555
O7 H27 1_555 1_555
C17 H28 1_555 1_555
C18 C17 1_555 1_555
C19 N3 1_555 1_555
H29 C19 1_555 1_555
N4 C16 1_555 1_555
C20 C18 1_555 1_555
O8 H30 1_555 1_555
C21 N3 1_555 1_555
C22 O6 1_555 1_555
H31 C22 1_555 1_555
H32 C22 1_555 1_555
C23 N4 1_555 1_555
H33 C23 1_555 1_555
H34 C23 1_555 1_555
C24 C20 1_555 1_555
H35 C24 1_555 1_555
C25 O7 1_555 1_555
H36 C25 1_555 1_555
H37 C25 1_555 1_555
C26 C16 1_555 1_555
H38 C26 1_555 1_555
C27 O8 1_555 1_555
H39 C27 1_555 1_555
H40 C27 1_555 1_555
C28 N4 1_555 1_555
H41 C28 1_555 1_555
H42 C28 1_555 1_555
C29 C23 1_555 1_555
H43 C29 1_555 1_555
H44 C29 1_555 1_555
H45 C29 1_555 1_555
C30 C28 1_555 1_555
H46 C30 1_555 1_555
H47 C30 1_555 1_555
H48 C30 1_555 1_555
C3 C6 1_555 1_555
C6 C11 1_555 1_555
O4 C10 1_555 1_555
C8 C9 1_555 1_555
C19 C20 1_555 1_555
C21 C22 1_555 1_555
C21 C25 1_555 1_555
C21 C27 1_555 1_555
C24 C26 1_555 1_555

#END
