
#######################################################################
#
#                 Cambridge Crystallographic Data Centre
#                                CCDC 
#
#######################################################################
#
# If this CIF has been generated from an entry in the Cambridge 
# Structural Database, then it will include bibliographic, chemical, 
# crystal, experimental, refinement or atomic coordinate data resulting 
# from the CCDC's data processing and validation procedures.
#
#######################################################################

data_VETQES
_chemical_formula_moiety         'C40 H32 N10 P2'
_chemical_name_systematic        
4,4'-Diazene-1,2-diylbis(3-((triphenylphosphoranylidene)amino)-4H-1,2,4-triazole)
_symmetry_cell_setting           monoclinic
_symmetry_space_group_name_H-M   'P 21/n'
_symmetry_Int_Tables_number      14
_space_group_name_Hall           '-P 2yn'
loop_
_symmetry_equiv_pos_site_id
_symmetry_equiv_pos_as_xyz
1 x,y,z
2 1/2-x,1/2+y,1/2-z
3 -x,-y,-z
4 1/2+x,1/2-y,1/2+z
_cell_length_a                   10.317(2)
_cell_length_b                   14.406(3)
_cell_length_c                   13.106(3)
_cell_angle_alpha                90
_cell_angle_beta                 105.60(3)
_cell_angle_gamma                90
_cell_volume                     1876.15
_exptl_crystal_colour            yellow
_exptl_crystal_description       block
_cell_formula_units_Z            2
loop_
_atom_site_label
_atom_site_type_symbol
_atom_site_fract_x
_atom_site_fract_y
_atom_site_fract_z
P1 P 0.19517(5) 0.30840(4) 0.82239(4)
N1 N 0.03391(16) 0.47487(11) 0.53605(12)
N2 N -0.04852(16) 0.43145(11) 0.58830(12)
N3 N -0.21973(18) 0.38639(14) 0.64447(15)
N4 N -0.10145(17) 0.34739(13) 0.71088(14)
N5 N 0.13339(17) 0.35568(12) 0.71015(13)
C1 C -0.1857(2) 0.43547(16) 0.57348(18)
H1 H -0.2451 0.4687 0.5201
C2 C -0.0001(2) 0.37460(13) 0.67601(15)
C3 C 0.1216(2) 0.19854(14) 0.84218(16)
C4 C 0.1551(3) 0.12085(16) 0.7925(2)
H2 H 0.2208 0.1253 0.7562
C5 C 0.0925(3) 0.03716(18) 0.7964(2)
H3 H 0.1151 -0.0143 0.7619
C6 C -0.0033(3) 0.02977(18) 0.8511(2)
H4 H -0.0451 -0.0270 0.8542
C7 C -0.0373(2) 0.10538(17) 0.9008(2)
H5 H -0.1024 0.1001 0.9377
C8 C 0.0246(2) 0.19029(16) 0.89655(18)
H6 H 0.0007 0.2417 0.9304
C9 C 0.1922(2) 0.38395(15) 0.93073(17)
C10 C 0.2209(3) 0.3546(2) 1.03629(19)
H7 H 0.2375 0.2922 1.0530
C11 C 0.2246(4) 0.4187(3) 1.1158(2)
H8 H 0.2431 0.3990 1.1858
C12 C 0.2010(4) 0.5109(3) 1.0922(3)
H9 H 0.2050 0.5535 1.1462
C13 C 0.1718(4) 0.5401(2) 0.9897(3)
H10 H 0.1544 0.6026 0.9740
C14 C 0.1678(3) 0.47775(17) 0.9088(2)
H11 H 0.1487 0.4986 0.8392
C15 C 0.3674(2) 0.28503(14) 0.82608(18)
C16 C 0.4094(2) 0.29017(17) 0.7343(2)
H12 H 0.3480 0.3056 0.6705
C17 C 0.5417(3) 0.2725(2) 0.7369(3)
H13 H 0.5692 0.2765 0.6750
C18 C 0.6327(3) 0.2492(2) 0.8304(3)
H14 H 0.7222 0.2388 0.8319
C19 C 0.5929(3) 0.2411(3) 0.9217(3)
H15 H 0.6542 0.2228 0.9844
C20 C 0.4608(3) 0.2604(2) 0.9201(2)
H16 H 0.4344 0.2568 0.9825
P1B P -0.19517(5) 0.69160(4) 0.17761(4)
N1B N -0.03391(16) 0.52513(11) 0.46395(12)
N2B N 0.04852(16) 0.56855(11) 0.41170(12)
N3B N 0.21973(18) 0.61361(14) 0.35553(15)
N4B N 0.10145(17) 0.65261(13) 0.28912(14)
N5B N -0.13339(17) 0.64432(12) 0.28985(13)
C1B C 0.1857(2) 0.56453(16) 0.42652(18)
H1B H 0.2451 0.5313 0.4799
C2B C 0.0001(2) 0.62540(13) 0.32399(15)
C3B C -0.1216(2) 0.80146(14) 0.15782(16)
C4B C -0.1551(3) 0.87915(16) 0.2075(2)
H2B H -0.2208 0.8747 0.2438
C5B C -0.0925(3) 0.96284(18) 0.2036(2)
H3B H -0.1151 1.0143 0.2381
C6B C 0.0033(3) 0.97023(18) 0.1489(2)
H4B H 0.0451 1.0270 0.1458
C7B C 0.0373(2) 0.89462(17) 0.0992(2)
H5B H 0.1024 0.8999 0.0623
C8B C -0.0246(2) 0.80971(16) 0.10345(18)
H6B H -0.0007 0.7583 0.0696
C9B C -0.1922(2) 0.61605(15) 0.06927(17)
C10B C -0.2209(3) 0.6454(2) -0.03629(19)
H7B H -0.2375 0.7078 -0.0530
C11B C -0.2246(4) 0.5813(3) -0.1158(2)
H8B H -0.2431 0.6010 -0.1858
C12B C -0.2010(4) 0.4891(3) -0.0922(3)
H9B H -0.2050 0.4465 -0.1462
C13B C -0.1718(4) 0.4599(2) 0.0103(3)
H10B H -0.1544 0.3974 0.0260
C14B C -0.1678(3) 0.52225(17) 0.0912(2)
H11B H -0.1487 0.5014 0.1608
C15B C -0.3674(2) 0.71497(14) 0.17392(18)
C16B C -0.4094(2) 0.70983(17) 0.2657(2)
H12B H -0.3480 0.6944 0.3295
C17B C -0.5417(3) 0.7275(2) 0.2631(3)
H13B H -0.5692 0.7235 0.3250
C18B C -0.6327(3) 0.7508(2) 0.1696(3)
H14B H -0.7222 0.7612 0.1681
C19B C -0.5929(3) 0.7589(3) 0.0783(3)
H15B H -0.6542 0.7772 0.0156
C20B C -0.4608(3) 0.7396(2) 0.0799(2)
H16B H -0.4344 0.7432 0.0175
loop_
_geom_bond_atom_site_label_1
_geom_bond_atom_site_label_2
_geom_bond_site_symmetry_1
_geom_bond_site_symmetry_2
P1 N5 1_555 1_555
N1 N2 1_555 1_555
N2 C1 1_555 1_555
N3 N4 1_555 1_555
N4 C2 1_555 1_555
N5 C2 1_555 1_555
C1 N3 1_555 1_555
H1 C1 1_555 1_555
C2 N2 1_555 1_555
C3 P1 1_555 1_555
C4 C3 1_555 1_555
H2 C4 1_555 1_555
C5 C4 1_555 1_555
H3 C5 1_555 1_555
C6 C5 1_555 1_555
H4 C6 1_555 1_555
C7 C6 1_555 1_555
H5 C7 1_555 1_555
C8 C3 1_555 1_555
H6 C8 1_555 1_555
C9 P1 1_555 1_555
C10 C9 1_555 1_555
H7 C10 1_555 1_555
C11 C10 1_555 1_555
H8 C11 1_555 1_555
C12 C11 1_555 1_555
H9 C12 1_555 1_555
C13 C12 1_555 1_555
H10 C13 1_555 1_555
C14 C9 1_555 1_555
H11 C14 1_555 1_555
C15 P1 1_555 1_555
C16 C15 1_555 1_555
H12 C16 1_555 1_555
C17 C16 1_555 1_555
H13 C17 1_555 1_555
C18 C17 1_555 1_555
H14 C18 1_555 1_555
C19 C18 1_555 1_555
H15 C19 1_555 1_555
C20 C15 1_555 1_555
H16 C20 1_555 1_555
P1B N5B 1_555 1_555
N1B N1 1_555 1_555
N2B N1B 1_555 1_555
N3B N4B 1_555 1_555
N4B C2B 1_555 1_555
N5B C2B 1_555 1_555
C1B N2B 1_555 1_555
H1B C1B 1_555 1_555
C2B N2B 1_555 1_555
C3B P1B 1_555 1_555
C4B C3B 1_555 1_555
H2B C4B 1_555 1_555
C5B C4B 1_555 1_555
H3B C5B 1_555 1_555
C6B C5B 1_555 1_555
H4B C6B 1_555 1_555
C7B C6B 1_555 1_555
H5B C7B 1_555 1_555
C8B C3B 1_555 1_555
H6B C8B 1_555 1_555
C9B P1B 1_555 1_555
C10B C9B 1_555 1_555
H7B C10B 1_555 1_555
C11B C10B 1_555 1_555
H8B C11B 1_555 1_555
C12B C11B 1_555 1_555
H9B C12B 1_555 1_555
C13B C12B 1_555 1_555
H10B C13B 1_555 1_555
C14B C9B 1_555 1_555
H11B C14B 1_555 1_555
C15B P1B 1_555 1_555
C16B C15B 1_555 1_555
H12B C16B 1_555 1_555
C17B C16B 1_555 1_555
H13B C17B 1_555 1_555
C18B C17B 1_555 1_555
H14B C18B 1_555 1_555
C19B C18B 1_555 1_555
H15B C19B 1_555 1_555
C20B C15B 1_555 1_555
H16B C20B 1_555 1_555
C7 C8 1_555 1_555
C13 C14 1_555 1_555
C19 C20 1_555 1_555
N3B C1B 1_555 1_555
C7B C8B 1_555 1_555
C13B C14B 1_555 1_555
C19B C20B 1_555 1_555

#END
