
#######################################################################
#
#                 Cambridge Crystallographic Data Centre
#                                CCDC 
#
#######################################################################
#
# If this CIF has been generated from an entry in the Cambridge 
# Structural Database, then it will include bibliographic, chemical, 
# crystal, experimental, refinement or atomic coordinate data resulting 
# from the CCDC's data processing and validation procedures.
#
#######################################################################

data_VETQIW
_chemical_formula_moiety         'C58 H46 N11 P3,4(C1 H4 O1)'
_chemical_name_systematic        
'3,5-bis((triphenylphosphoranylidene)amino)-4-((3-((triphenylphosphoranylidene)amino)-4H-1,2,4-triazol-4-yl)diazenyl)-4H-1,2,4-triazole methanol solvate'
_symmetry_cell_setting           monoclinic
_symmetry_space_group_name_H-M   'P 21/n'
_symmetry_Int_Tables_number      14
_space_group_name_Hall           '-P 2yn'
loop_
_symmetry_equiv_pos_site_id
_symmetry_equiv_pos_as_xyz
1 x,y,z
2 1/2-x,1/2+y,1/2-z
3 -x,-y,-z
4 1/2+x,1/2-y,1/2+z
_cell_length_a                   13.735(3)
_cell_length_b                   19.111(4)
_cell_length_c                   22.320(5)
_cell_angle_alpha                90
_cell_angle_beta                 91.42(3)
_cell_angle_gamma                90
_cell_volume                     5856.97
_exptl_crystal_colour            colorless
_exptl_crystal_description       block
_cell_formula_units_Z            4
loop_
_atom_site_label
_atom_site_type_symbol
_atom_site_fract_x
_atom_site_fract_y
_atom_site_fract_z
P1 P 0.21788(8) -0.06103(6) 0.73938(5)
P2 P 0.71602(8) 0.04217(6) 0.66135(5)
P3 P 0.31359(8) 0.06981(6) 1.00988(5)
N1 N 0.5130(2) -0.03263(18) 0.66285(13)
N2 N 0.4207(2) -0.05659(17) 0.68173(14)
N3 N 0.4717(2) 0.02711(17) 0.74234(14)
N4 N 0.4806(2) 0.08076(17) 0.78303(14)
N5 N 0.4273(2) 0.07169(17) 0.82758(14)
N6 N 0.4349(2) 0.12989(17) 0.86460(15)
N7 N 0.4122(2) 0.1956(2) 0.94490(15)
N8 N 0.4542(3) 0.23548(18) 0.89916(18)
N9 N 0.6231(2) 0.05804(16) 0.70029(13)
N10 N 0.3140(2) -0.01990(18) 0.75973(13)
N11 N 0.3635(2) 0.07255(17) 0.94631(13)
C1 C 0.5413(3) 0.0184(2) 0.69872(18)
C2 C 0.3953(3) -0.0208(2) 0.72840(17)
C3 C 0.4003(3) 0.1314(2) 0.92212(18)
C4 C 0.4679(3) 0.1961(2) 0.8534(2)
H5 H 0.4960 0.2104 0.8180
C5 C 0.1258(3) -0.0292(2) 0.78864(18)
C6 C 0.1519(3) 0.0199(2) 0.83112(19)
H6 H 0.2168 0.0325 0.8368
C7 C 0.0791(3) 0.0512(2) 0.86621(18)
H7 H 0.0958 0.0848 0.8948
C8 C -0.0153(3) 0.0316(3) 0.8577(2)
H8 H -0.0632 0.0528 0.8801
C9 C -0.0414(3) -0.0192(3) 0.8162(2)
H9 H -0.1061 -0.0328 0.8113
C10 C 0.0290(3) -0.0489(3) 0.78267(19)
H10 H 0.0115 -0.0833 0.7550
C11 C 0.2238(3) -0.1565(2) 0.7435(2)
C12 C 0.1946(4) -0.1898(3) 0.7958(3)
H11 H 0.1664 -0.1645 0.8264
C13 C 0.2090(5) -0.2626(4) 0.8011(3)
H12 H 0.1945 -0.2862 0.8362
C14 C 0.2458(4) -0.2980(3) 0.7519(4)
H13 H 0.2513 -0.3465 0.7535
C15 C 0.2731(3) -0.2651(3) 0.7030(3)
H14 H 0.3002 -0.2900 0.6717
C16 C 0.2611(3) -0.1943(3) 0.6988(2)
H15 H 0.2792 -0.1715 0.6639
C17 C 0.1744(3) -0.0392(2) 0.66500(16)
C18 C 0.1073(3) -0.0802(2) 0.63286(18)
H16 H 0.0868 -0.1227 0.6484
C19 C 0.0716(3) -0.0575(3) 0.5782(2)
H17 H 0.0259 -0.0842 0.5570
C20 C 0.1036(3) 0.0051(3) 0.5546(2)
H18 H 0.0790 0.0203 0.5177
C21 C 0.1701(3) 0.0443(3) 0.5847(2)
H19 H 0.1923 0.0859 0.5683
C22 C 0.2054(3) 0.0221(2) 0.64049(19)
H20 H 0.2507 0.0494 0.6614
C23 C 0.8137(3) 0.0920(2) 0.69478(18)
C24 C 0.7956(3) 0.1363(2) 0.74148(19)
H21 H 0.7326 0.1416 0.7551
C25 C 0.8721(3) 0.1731(2) 0.7682(2)
H22 H 0.8602 0.2037 0.7996
C26 C 0.9649(4) 0.1647(3) 0.7486(2)
H23 H 1.0156 0.1899 0.7666
C27 C 0.9831(3) 0.1208(3) 0.7041(2)
H24 H 1.0465 0.1153 0.6912
C28 C 0.9081(3) 0.0833(2) 0.67684(19)
H25 H 0.9215 0.0521 0.6462
C29 C 0.7068(3) 0.0676(2) 0.58335(18)
C30 C 0.7594(3) 0.1205(2) 0.5594(2)
H26 H 0.8037 0.1453 0.5833
C31 C 0.7468(4) 0.1377(3) 0.4982(2)
H27 H 0.7837 0.1731 0.4814
C32 C 0.6798(4) 0.1019(3) 0.4638(2)
H28 H 0.6707 0.1139 0.4236
C33 C 0.6267(3) 0.0497(3) 0.4869(2)
H29 H 0.5809 0.0263 0.4630
C34 C 0.6404(3) 0.0306(3) 0.5467(2)
H30 H 0.6056 -0.0067 0.5623
C35 C 0.7558(3) -0.0482(2) 0.6644(2)
C36 C 0.8018(3) -0.0803(3) 0.6176(2)
H31 H 0.8077 -0.0574 0.5811
C37 C 0.8390(4) -0.1464(3) 0.6256(3)
H32 H 0.8710 -0.1682 0.5945
C38 C 0.8291(4) -0.1805(3) 0.6791(3)
H33 H 0.8552 -0.2252 0.6839
C39 C 0.7828(4) -0.1510(3) 0.7244(3)
H34 H 0.7756 -0.1751 0.7602
C40 C 0.7458(3) -0.0844(3) 0.7174(2)
H35 H 0.7137 -0.0635 0.7489
C41 C 0.3847(3) 0.1041(2) 1.07232(17)
C42 C 0.4758(3) 0.0763(2) 1.08366(19)
H36 H 0.5000 0.0424 1.0581
C43 C 0.5310(3) 0.0977(3) 1.1317(2)
H37 H 0.5927 0.0789 1.1387
C44 C 0.4952(4) 0.1471(3) 1.1696(2)
H38 H 0.5329 0.1620 1.2024
C45 C 0.4046(4) 0.1749(3) 1.1600(2)
H39 H 0.3809 0.2089 1.1856
C46 C 0.3492(3) 0.1521(3) 1.1122(2)
H40 H 0.2863 0.1693 1.1066
C47 C 0.1957(3) 0.1099(2) 1.01284(17)
C48 C 0.1828(3) 0.1777(2) 0.9915(2)
H41 H 0.2366 0.2025 0.9785
C49 C 0.0921(4) 0.2093(3) 0.9891(3)
H42 H 0.0847 0.2543 0.9739
C50 C 0.0112(3) 0.1722(3) 1.0101(2)
H43 H -0.0502 0.1927 1.0103
C51 C 0.0249(4) 0.1051(3) 1.0303(2)
H44 H -0.0281 0.0798 1.0436
C52 C 0.1144(3) 0.0748(2) 1.03116(19)
H45 H 0.1208 0.0289 1.0446
C53 C 0.2971(3) -0.0225(2) 1.0245(2)
C54 C 0.2758(3) -0.0665(3) 0.9763(2)
H46 H 0.2719 -0.0488 0.9375
C55 C 0.2605(4) -0.1366(3) 0.9866(3)
H47 H 0.2450 -0.1662 0.9547
C56 C 0.2679(4) -0.1628(3) 1.0431(3)
H48 H 0.2575 -0.2104 1.0494
C57 C 0.2899(4) -0.1213(3) 1.0903(3)
H49 H 0.2964 -0.1402 1.1286
C58 C 0.3034(3) -0.0485(3) 1.0813(2)
H50 H 0.3162 -0.0189 1.1137
O1 O 0.5663(2) 0.20987(17) 0.71498(16)
H1 H 0.5846 0.1593 0.7101
C59 C 0.5831(4) 0.2438(3) 0.65534(19)
H51 H 0.5310 0.2758 0.6462
H52 H 0.5853 0.2085 0.6248
H53 H 0.6438 0.2687 0.6569
O2 O 0.5518(3) -0.1494(2) 0.58809(17)
H2 H 0.5508 -0.1018 0.6060
C60 C 0.5343(4) -0.2015(2) 0.6366(2)
H54 H 0.5841 -0.1970 0.6673
H55 H 0.5360 -0.2479 0.6201
H56 H 0.4718 -0.1931 0.6534
O3 O 0.6571(5) -0.1718(3) 0.4812(3)
H3 H 0.6311 -0.1687 0.5222
C61 C 0.5902(5) -0.1380(4) 0.4347(4)
H57 H 0.5501 -0.1732 0.4158
H58 H 0.6285 -0.1152 0.4050
H59 H 0.5496 -0.1041 0.4538
O4 O 0.5382(5) 0.3167(3) 1.0033(2)
H4 H 0.5319 0.2857 0.9720
C62 C 0.5448(5) 0.2785(3) 1.0619(2)
H60 H 0.5851 0.2378 1.0578
H61 H 0.4808 0.2646 1.0735
H62 H 0.5728 0.3088 1.0921
loop_
_geom_bond_atom_site_label_1
_geom_bond_atom_site_label_2
_geom_bond_site_symmetry_1
_geom_bond_site_symmetry_2
P1 N10 1_555 1_555
P2 N9 1_555 1_555
P3 N11 1_555 1_555
O1 H1 1_555 1_555
O2 H2 1_555 1_555
O3 H3 1_555 1_555
O4 H4 1_555 1_555
N1 N2 1_555 1_555
N2 C2 1_555 1_555
N3 N4 1_555 1_555
N4 N5 1_555 1_555
N5 N6 1_555 1_555
N6 C3 1_555 1_555
N7 N8 1_555 1_555
N8 C4 1_555 1_555
N9 C1 1_555 1_555
N10 C2 1_555 1_555
N11 C3 1_555 1_555
C1 N1 1_555 1_555
C2 N3 1_555 1_555
C3 N7 1_555 1_555
C4 N6 1_555 1_555
H5 C4 1_555 1_555
C5 P1 1_555 1_555
C6 C5 1_555 1_555
H6 C6 1_555 1_555
C7 C6 1_555 1_555
H7 C7 1_555 1_555
C8 C7 1_555 1_555
H8 C8 1_555 1_555
C9 C8 1_555 1_555
H9 C9 1_555 1_555
C10 C5 1_555 1_555
H10 C10 1_555 1_555
C11 P1 1_555 1_555
C12 C11 1_555 1_555
H11 C12 1_555 1_555
C13 C12 1_555 1_555
H12 C13 1_555 1_555
C14 C13 1_555 1_555
H13 C14 1_555 1_555
C15 C14 1_555 1_555
H14 C15 1_555 1_555
C16 C11 1_555 1_555
H15 C16 1_555 1_555
C17 P1 1_555 1_555
C18 C17 1_555 1_555
H16 C18 1_555 1_555
C19 C18 1_555 1_555
H17 C19 1_555 1_555
C20 C19 1_555 1_555
H18 C20 1_555 1_555
C21 C20 1_555 1_555
H19 C21 1_555 1_555
C22 C17 1_555 1_555
H20 C22 1_555 1_555
C23 P2 1_555 1_555
C24 C23 1_555 1_555
H21 C24 1_555 1_555
C25 C24 1_555 1_555
H22 C25 1_555 1_555
C26 C25 1_555 1_555
H23 C26 1_555 1_555
C27 C26 1_555 1_555
H24 C27 1_555 1_555
C28 C23 1_555 1_555
H25 C28 1_555 1_555
C29 P2 1_555 1_555
C30 C29 1_555 1_555
H26 C30 1_555 1_555
C31 C30 1_555 1_555
H27 C31 1_555 1_555
C32 C31 1_555 1_555
H28 C32 1_555 1_555
C33 C32 1_555 1_555
H29 C33 1_555 1_555
C34 C29 1_555 1_555
H30 C34 1_555 1_555
C35 P2 1_555 1_555
C36 C35 1_555 1_555
H31 C36 1_555 1_555
C37 C36 1_555 1_555
H32 C37 1_555 1_555
C38 C37 1_555 1_555
H33 C38 1_555 1_555
C39 C38 1_555 1_555
H34 C39 1_555 1_555
C40 C35 1_555 1_555
H35 C40 1_555 1_555
C41 P3 1_555 1_555
C42 C41 1_555 1_555
H36 C42 1_555 1_555
C43 C42 1_555 1_555
H37 C43 1_555 1_555
C44 C43 1_555 1_555
H38 C44 1_555 1_555
C45 C44 1_555 1_555
H39 C45 1_555 1_555
C46 C41 1_555 1_555
H40 C46 1_555 1_555
C47 P3 1_555 1_555
C48 C47 1_555 1_555
H41 C48 1_555 1_555
C49 C48 1_555 1_555
H42 C49 1_555 1_555
C50 C49 1_555 1_555
H43 C50 1_555 1_555
C51 C50 1_555 1_555
H44 C51 1_555 1_555
C52 C47 1_555 1_555
H45 C52 1_555 1_555
C53 P3 1_555 1_555
C54 C53 1_555 1_555
H46 C54 1_555 1_555
C55 C54 1_555 1_555
H47 C55 1_555 1_555
C56 C55 1_555 1_555
H48 C56 1_555 1_555
C57 C56 1_555 1_555
H49 C57 1_555 1_555
C58 C53 1_555 1_555
H50 C58 1_555 1_555
C59 O1 1_555 1_555
H51 C59 1_555 1_555
H52 C59 1_555 1_555
H53 C59 1_555 1_555
C60 O2 1_555 1_555
H54 C60 1_555 1_555
H55 C60 1_555 1_555
H56 C60 1_555 1_555
C61 O3 1_555 1_555
H57 C61 1_555 1_555
H58 C61 1_555 1_555
H59 C61 1_555 1_555
C62 O4 1_555 1_555
H60 C62 1_555 1_555
H61 C62 1_555 1_555
H62 C62 1_555 1_555
N3 C1 1_555 1_555
C9 C10 1_555 1_555
C15 C16 1_555 1_555
C21 C22 1_555 1_555
C27 C28 1_555 1_555
C33 C34 1_555 1_555
C39 C40 1_555 1_555
C45 C46 1_555 1_555
C51 C52 1_555 1_555
C57 C58 1_555 1_555

#END
