
#######################################################################
#
#                 Cambridge Crystallographic Data Centre
#                                CCDC 
#
#######################################################################
#
# If this CIF has been generated from an entry in the Cambridge 
# Structural Database, then it will include bibliographic, chemical, 
# crystal, experimental, refinement or atomic coordinate data resulting 
# from the CCDC's data processing and validation procedures.
#
#######################################################################

data_VETRUJ
_chemical_formula_moiety         'C23 H19 N5 O2'
_chemical_name_systematic        
8-(6H-Isoindolo[2,1-a]indol-11-yl)-1,3,7-trimethyl-3,7-dihydro-1H-purine-2,6-dione
_symmetry_cell_setting           monoclinic
_symmetry_space_group_name_H-M   'P 21/n'
_symmetry_Int_Tables_number      14
_space_group_name_Hall           '-P 2yn'
loop_
_symmetry_equiv_pos_site_id
_symmetry_equiv_pos_as_xyz
1 x,y,z
2 1/2-x,1/2+y,1/2-z
3 -x,-y,-z
4 1/2+x,1/2-y,1/2+z
_cell_length_a                   8.3668(3)
_cell_length_b                   16.4757(6)
_cell_length_c                   13.3004(3)
_cell_angle_alpha                90
_cell_angle_beta                 94.602(2)
_cell_angle_gamma                90
_cell_volume                     1827.53
_exptl_crystal_colour            colorless
_exptl_crystal_description       block
_cell_formula_units_Z            4
loop_
_atom_site_label
_atom_site_type_symbol
_atom_site_fract_x
_atom_site_fract_y
_atom_site_fract_z
O1 O 0.39772(14) 0.41974(7) 0.85631(8)
O2 O 0.64465(14) 0.21147(8) 1.03769(8)
N1 N 0.60815(16) 0.23940(8) 0.35170(9)
N2 N 0.53378(15) 0.34128(8) 0.67044(9)
N3 N 0.66352(15) 0.22216(8) 0.68598(9)
N4 N 0.65436(15) 0.20807(8) 0.86766(9)
N5 N 0.51762(15) 0.31345(8) 0.94529(9)
C1 C 0.36634(19) 0.05678(10) 0.30824(12)
H1 H 0.3561 0.0405 0.2395
C2 C 0.2915(2) 0.01314(10) 0.38015(13)
H2 H 0.2290 -0.0331 0.3602
C3 C 0.3067(2) 0.03618(10) 0.48120(13)
H3 H 0.2548 0.0054 0.5295
C4 C 0.39659(19) 0.10357(10) 0.51191(12)
H4 H 0.4074 0.1192 0.5809
C5 C 0.47075(18) 0.14794(10) 0.43981(12)
C6 C 0.45599(18) 0.12415(10) 0.33787(11)
C7 C 0.5464(2) 0.18165(10) 0.27464(11)
H5 H 0.6341 0.1538 0.2428
H6 H 0.4743 0.2083 0.2219
C8 C 0.56741(18) 0.22135(10) 0.44696(11)
C9 C 0.62469(18) 0.28077(10) 0.51364(11)
C10 C 0.70569(18) 0.33898(10) 0.45392(11)
C11 C 0.69192(18) 0.31116(10) 0.35270(12)
C12 C 0.75508(19) 0.35349(11) 0.27466(12)
H7 H 0.7447 0.3337 0.2074
C13 C 0.8332(2) 0.42519(11) 0.29861(13)
H8 H 0.8755 0.4562 0.2467
C14 C 0.85160(19) 0.45353(11) 0.39875(13)
H9 H 0.9077 0.5028 0.4133
C15 C 0.78950(19) 0.41098(10) 0.47615(12)
H10 H 0.8036 0.4304 0.5435
C16 C 0.60832(18) 0.28115(10) 0.62222(11)
C17 C 0.53896(18) 0.31897(10) 0.77097(11)
C18 C 0.61958(18) 0.24713(9) 0.77691(11)
C19 C 0.60832(19) 0.24236(10) 0.95519(12)
C20 C 0.47749(18) 0.35737(10) 0.85592(11)
C21 C 0.4505(2) 0.41235(10) 0.62585(12)
H11 H 0.4999 0.4284 0.5645
H12 H 0.4583 0.4573 0.6743
H13 H 0.3374 0.3990 0.6089
C22 C 0.7467(2) 0.13306(10) 0.87254(12)
H14 H 0.7412 0.1078 0.8056
H15 H 0.7024 0.0958 0.9206
H16 H 0.8588 0.1451 0.8947
C23 C 0.4628(2) 0.34879(11) 1.03790(12)
H17 H 0.5245 0.3980 1.0554
H18 H 0.4785 0.3094 1.0930
H19 H 0.3487 0.3625 1.0270
loop_
_geom_bond_atom_site_label_1
_geom_bond_atom_site_label_2
_geom_bond_site_symmetry_1
_geom_bond_site_symmetry_2
O1 C20 1_555 1_555
O2 C19 1_555 1_555
N1 C7 1_555 1_555
N2 C16 1_555 1_555
N3 C16 1_555 1_555
N4 C18 1_555 1_555
N5 C19 1_555 1_555
C1 H1 1_555 1_555
C2 C1 1_555 1_555
H2 C2 1_555 1_555
C3 C2 1_555 1_555
H3 C3 1_555 1_555
C4 C3 1_555 1_555
H4 C4 1_555 1_555
C5 C4 1_555 1_555
C6 C1 1_555 1_555
C7 C6 1_555 1_555
H5 C7 1_555 1_555
H6 C7 1_555 1_555
C8 N1 1_555 1_555
C9 C8 1_555 1_555
C10 C9 1_555 1_555
C11 N1 1_555 1_555
C12 C11 1_555 1_555
H7 C12 1_555 1_555
C13 C12 1_555 1_555
H8 C13 1_555 1_555
C14 C13 1_555 1_555
H9 C14 1_555 1_555
C15 C10 1_555 1_555
H10 C15 1_555 1_555
C16 C9 1_555 1_555
C17 N2 1_555 1_555
C18 N3 1_555 1_555
C19 N4 1_555 1_555
C20 N5 1_555 1_555
C21 N2 1_555 1_555
H11 C21 1_555 1_555
H12 C21 1_555 1_555
H13 C21 1_555 1_555
C22 N4 1_555 1_555
H14 C22 1_555 1_555
H15 C22 1_555 1_555
H16 C22 1_555 1_555
C23 N5 1_555 1_555
H17 C23 1_555 1_555
H18 C23 1_555 1_555
H19 C23 1_555 1_555
C5 C6 1_555 1_555
C5 C8 1_555 1_555
C10 C11 1_555 1_555
C14 C15 1_555 1_555
C17 C18 1_555 1_555
C17 C20 1_555 1_555

#END
