
#######################################################################
#
#                 Cambridge Crystallographic Data Centre
#                                CCDC 
#
#######################################################################
#
# If this CIF has been generated from an entry in the Cambridge 
# Structural Database, then it will include bibliographic, chemical, 
# crystal, experimental, refinement or atomic coordinate data resulting 
# from the CCDC's data processing and validation procedures.
#
#######################################################################

data_VETXOK
_chemical_formula_moiety         'C6 F3 I3,C3 H7 N1 O1'
_chemical_name_systematic        
'1,3,5-trifluoro-2,4,6-triiodobenzene N,N-dimethylformamide solvate'
_symmetry_cell_setting           monoclinic
_symmetry_space_group_name_H-M   'P 21/n'
_symmetry_Int_Tables_number      14
_space_group_name_Hall           '-P 2yn'
loop_
_symmetry_equiv_pos_site_id
_symmetry_equiv_pos_as_xyz
1 x,y,z
2 1/2-x,1/2+y,1/2-z
3 -x,-y,-z
4 1/2+x,1/2-y,1/2+z
_cell_length_a                   7.5581(4)
_cell_length_b                   20.9303(11)
_cell_length_c                   9.3548(5)
_cell_angle_alpha                90
_cell_angle_beta                 92.208(5)
_cell_angle_gamma                90
_cell_volume                     1478.77
_exptl_crystal_colour            'light colorless'
_exptl_crystal_description       block
_cell_formula_units_Z            4
loop_
_atom_site_label
_atom_site_type_symbol
_atom_site_fract_x
_atom_site_fract_y
_atom_site_fract_z
I1 I 0.75542(6) 0.54578(2) 0.91796(4)
I2 I 0.62380(5) 0.35271(2) 0.44873(4)
I3 I 0.86979(5) 0.62061(2) 0.30805(4)
F1 F 0.6449(4) 0.41963(16) 0.7510(3)
F2 F 0.7455(4) 0.47525(15) 0.2763(3)
F3 F 0.8575(5) 0.62321(15) 0.6439(4)
C1 C 0.7510(7) 0.5220(3) 0.7017(5)
C2 C 0.6981(7) 0.4625(3) 0.6550(5)
C3 C 0.6973(6) 0.4448(2) 0.5121(6)
C4 C 0.7471(6) 0.4911(3) 0.4161(5)
C5 C 0.7998(6) 0.5512(2) 0.4553(5)
C6 C 0.8026(6) 0.5650(2) 0.6003(6)
O1 O 0.9966(8) 0.2729(3) 0.8581(7)
N1 N 0.7267(8) 0.2921(3) 0.9394(7)
C7 C 0.8320(14) 0.2689(4) 0.8478(9)
H1 H 0.7820 0.2477 0.7686
C8 C 0.7941(19) 0.3249(7) 1.0568(12)
H2 H 0.7475 0.3676 1.0559
H3 H 0.9208 0.3265 1.0538
H4 H 0.7609 0.3035 1.1425
C9 C 0.5371(12) 0.2862(5) 0.9276(13)
H5 H 0.4956 0.2647 1.0106
H6 H 0.5042 0.2621 0.8435
H7 H 0.4849 0.3280 0.9209
loop_
_geom_bond_atom_site_label_1
_geom_bond_atom_site_label_2
_geom_bond_site_symmetry_1
_geom_bond_site_symmetry_2
I1 C1 1_555 1_555
I2 C3 1_555 1_555
I3 C5 1_555 1_555
F1 C2 1_555 1_555
F2 C4 1_555 1_555
F3 C6 1_555 1_555
C1 C2 1_555 1_555
C2 C3 1_555 1_555
C3 C4 1_555 1_555
C4 C5 1_555 1_555
C5 C6 1_555 1_555
C6 C1 1_555 1_555
O1 C7 1_555 1_555
N1 C7 1_555 1_555
C7 H1 1_555 1_555
C8 N1 1_555 1_555
H2 C8 1_555 1_555
H3 C8 1_555 1_555
H4 C8 1_555 1_555
C9 N1 1_555 1_555
H5 C9 1_555 1_555
H6 C9 1_555 1_555
H7 C9 1_555 1_555

#END
