
#######################################################################
#
#                 Cambridge Crystallographic Data Centre
#                                CCDC 
#
#######################################################################
#
# If this CIF has been generated from an entry in the Cambridge 
# Structural Database, then it will include bibliographic, chemical, 
# crystal, experimental, refinement or atomic coordinate data resulting 
# from the CCDC's data processing and validation procedures.
#
#######################################################################

data_VEVBEG
_chemical_formula_moiety         'C2 H6 N1 O2 1+,Cl1 O4 1-'
_chemical_name_systematic        'carboxymethanaminium perchlorate'
_symmetry_cell_setting           monoclinic
_symmetry_space_group_name_H-M   'P 21/c'
_symmetry_Int_Tables_number      14
_space_group_name_Hall           '-P 2ybc'
loop_
_symmetry_equiv_pos_site_id
_symmetry_equiv_pos_as_xyz
1 x,y,z
2 -x,1/2+y,1/2-z
3 -x,-y,-z
4 x,1/2-y,1/2+z
_cell_length_a                   5.1759(2)
_cell_length_b                   16.2326(5)
_cell_length_c                   7.5140(3)
_cell_angle_alpha                90
_cell_angle_beta                 101.868(4)
_cell_angle_gamma                90
_cell_volume                     617.819
_exptl_crystal_colour            'light colorless'
_chemical_melting_point          '376 K'
_cell_formula_units_Z            4
_exptl_crystal_recrystallization_method 'Re-crystallisation from solvent:'
loop_
_atom_site_label
_atom_site_type_symbol
_atom_site_fract_x
_atom_site_fract_y
_atom_site_fract_z
Cl1 Cl 0.04739(8) 0.61984(3) 0.89580(6)
O1 O 0.0290(3) 0.69176(8) 0.78039(19)
O2 O 0.3117(3) 0.58825(10) 0.9247(2)
O3 O -0.0111(4) 0.64320(11) 1.0665(2)
O4 O -0.1298(3) 0.55852(10) 0.8073(3)
O5 O 0.2799(3) 0.57825(8) 0.47690(18)
O6 O 0.4073(3) 0.70450(9) 0.5745(2)
H1 H 0.2946 0.6987 0.6359
N1 N 0.6597(3) 0.56425(10) 0.2798(2)
H2 H 0.5117 0.5562 0.1974
H3 H 0.6831 0.5227 0.3588
H4 H 0.7960 0.5667 0.2246
C1 C 0.4222(3) 0.63718(10) 0.4809(2)
C2 C 0.6403(4) 0.64201(11) 0.3768(3)
H5 H 0.6058 0.6870 0.2901
H6 H 0.8064 0.6530 0.4600
loop_
_geom_bond_atom_site_label_1
_geom_bond_atom_site_label_2
_geom_bond_site_symmetry_1
_geom_bond_site_symmetry_2
Cl1 O1 1_555 1_555
O2 Cl1 1_555 1_555
O3 Cl1 1_555 1_555
O4 Cl1 1_555 1_555
O5 C1 1_555 1_555
O6 H1 1_555 1_555
N1 H2 1_555 1_555
H3 N1 1_555 1_555
H4 N1 1_555 1_555
C1 O6 1_555 1_555
C2 N1 1_555 1_555
H5 C2 1_555 1_555
H6 C2 1_555 1_555
C1 C2 1_555 1_555

#END
