
#######################################################################
#
#                 Cambridge Crystallographic Data Centre
#                                CCDC 
#
#######################################################################
#
# If this CIF has been generated from an entry in the Cambridge 
# Structural Database, then it will include bibliographic, chemical, 
# crystal, experimental, refinement or atomic coordinate data resulting 
# from the CCDC's data processing and validation procedures.
#
#######################################################################

data_VEVGIN
_chemical_formula_moiety         'C42 H65 Li2 O6 P1'
_chemical_name_systematic        
(\m~2~-bis(3,5-Di-t-butyl-2-oxyphenyl)phenylphosphine)-bis(1,2-dimethoxyethane)-di-lithium
_symmetry_cell_setting           monoclinic
_symmetry_space_group_name_H-M   'P 21/n'
_symmetry_Int_Tables_number      14
_space_group_name_Hall           '-P 2yn'
loop_
_symmetry_equiv_pos_site_id
_symmetry_equiv_pos_as_xyz
1 x,y,z
2 1/2-x,1/2+y,1/2-z
3 -x,-y,-z
4 1/2+x,1/2-y,1/2+z
_cell_length_a                   11.3150(2)
_cell_length_b                   19.4720(4)
_cell_length_c                   20.2640(5)
_cell_angle_alpha                90
_cell_angle_beta                 102.8570(10)
_cell_angle_gamma                90
_cell_volume                     4352.74
_exptl_crystal_colour            colorless
_exptl_crystal_description       prism
_cell_formula_units_Z            4
loop_
_atom_site_label
_atom_site_type_symbol
_atom_site_fract_x
_atom_site_fract_y
_atom_site_fract_z
C1 C 0.9891(3) 0.28675(18) 0.35117(16)
C2 C 0.9042(3) 0.31374(17) 0.38656(17)
C3 C 0.9501(3) 0.34279(18) 0.45156(17)
C4 C 0.8642(4) 0.3663(2) 0.49660(19)
C5 C 0.7817(4) 0.3071(2) 0.5070(2)
H1 H 0.7287 0.3221 0.5351
H2 H 0.8303 0.2695 0.5286
H3 H 0.7344 0.2924 0.4640
C6 C 0.7862(5) 0.4270(2) 0.4636(2)
H4 H 0.8379 0.4645 0.4575
H5 H 0.7337 0.4413 0.4923
H6 H 0.7383 0.4132 0.4204
C7 C 0.9338(5) 0.3892(3) 0.5669(2)
H7 H 0.9870 0.4264 0.5623
H8 H 0.9805 0.3515 0.5895
H9 H 0.8774 0.4042 0.5930
C8 C 1.0738(3) 0.34962(19) 0.47319(18)
H10 H 1.1031 0.3703 0.5150
C9 C 1.1589(3) 0.32763(19) 0.43661(19)
C10 C 1.2956(4) 0.3383(2) 0.4625(2)
C11 C 1.3247(6) 0.3712(5) 0.5345(4)
H11 H 1.4107 0.3771 0.5495
H12 H 1.2958 0.3416 0.5655
H13 H 1.2854 0.4150 0.5329
C12 C 1.3347(9) 0.3916(8) 0.4194(6)
H14 H 1.4202 0.3994 0.4346
H15 H 1.2916 0.4335 0.4225
H16 H 1.3175 0.3762 0.3732
C13 C 1.3597(7) 0.2715(5) 0.4689(8)
H17 H 1.4451 0.2789 0.4851
H18 H 1.3454 0.2494 0.4255
H19 H 1.3302 0.2428 0.5003
C17 C 1.1123(3) 0.29550(19) 0.37601(17)
H29 H 1.1656 0.2790 0.3508
C18 C 0.9074(3) 0.30625(17) 0.20590(16)
C19 C 0.7877(3) 0.33094(17) 0.17852(16)
C20 C 0.7696(3) 0.37024(17) 0.11754(16)
C21 C 0.6408(3) 0.38691(18) 0.07699(17)
C22 C 0.5741(3) 0.4341(2) 0.1173(2)
H30 H 0.6189 0.4760 0.1281
H31 H 0.5671 0.4115 0.1584
H32 H 0.4948 0.4442 0.0907
C23 C 0.6409(4) 0.4229(2) 0.00981(19)
H33 H 0.6844 0.4655 0.0185
H34 H 0.5589 0.4319 -0.0137
H35 H 0.6795 0.3940 -0.0175
C24 C 0.5701(3) 0.3196(2) 0.0600(2)
H36 H 0.6122 0.2902 0.0349
H37 H 0.4906 0.3294 0.0334
H38 H 0.5634 0.2972 0.1012
C25 C 0.8701(3) 0.39043(18) 0.09438(17)
H39 H 0.8577 0.4172 0.0554
C26 C 0.9898(3) 0.37320(18) 0.12594(17)
C27 C 1.0957(3) 0.4002(2) 0.0983(2)
C28 C 1.0817(4) 0.4808(3) 0.0905(3)
H40 H 1.1479 0.4991 0.0734
H41 H 1.0821 0.5010 0.1338
H42 H 1.0066 0.4915 0.0595
C29 C 1.0833(5) 0.3768(4) 0.0264(3)
H43 H 1.1503 0.3939 0.0093
H44 H 1.0088 0.3940 -0.0009
H45 H 1.0830 0.3275 0.0248
C31 C 1.2135(6) 0.3816(5) 0.1361(5)
H49 H 1.2739 0.4011 0.1150
H50 H 1.2212 0.3325 0.1371
H51 H 1.2246 0.3987 0.1815
C32 C 1.0048(3) 0.32969(17) 0.18067(16)
H52 H 1.0826 0.3155 0.2015
C33 C 1.0412(3) 0.18485(18) 0.25921(17)
C34 C 1.0641(3) 0.17148(19) 0.19561(18)
H53 H 1.0243 0.1971 0.1586
C35 C 1.1451(3) 0.1207(2) 0.1865(2)
H54 H 1.1595 0.1127 0.1437
C36 C 1.2040(3) 0.0821(2) 0.2407(3)
H55 H 1.2583 0.0480 0.2347
C37 C 1.1826(4) 0.0940(2) 0.3039(2)
H56 H 1.2226 0.0680 0.3406
C38 C 1.1024(3) 0.14423(19) 0.3132(2)
H57 H 1.0884 0.1514 0.3562
C39 C 0.9751(5) 0.4671(3) 0.2924(3)
H58 H 1.0147 0.4249 0.3090
H59 H 1.0158 0.5049 0.3183
H60 H 0.9776 0.4729 0.2456
C40 C 0.7873(5) 0.5212(3) 0.2779(4)
H61 H 0.7771 0.5259 0.2293
H62 H 0.8306 0.5613 0.2989
C41 C 0.6663(5) 0.5198(2) 0.2941(3)
H63 H 0.6709 0.5392 0.3387
H64 H 0.6100 0.5472 0.2614
C42 C 0.5096(5) 0.4421(3) 0.3083(3)
H65 H 0.4896 0.3941 0.3062
H66 H 0.4492 0.4669 0.2763
H67 H 0.5122 0.4590 0.3531
C43 C 0.4285(4) 0.2695(3) 0.2194(3)
H68 H 0.4566 0.3120 0.2042
H69 H 0.3545 0.2775 0.2339
H70 H 0.4142 0.2369 0.1830
C44 C 0.4822(4) 0.1804(2) 0.2989(2)
H71 H 0.4706 0.1457 0.2637
H72 H 0.4066 0.1859 0.3135
C45 C 0.5798(4) 0.1595(2) 0.3566(2)
H73 H 0.5882 0.1929 0.3928
H74 H 0.5611 0.1152 0.3738
C46 C 0.7892(4) 0.1359(2) 0.3861(2)
H75 H 0.8608 0.1332 0.3682
H76 H 0.7736 0.0920 0.4038
H77 H 0.8008 0.1695 0.4216
O1 O 0.8553(3) 0.46511(16) 0.29835(18)
O2 O 0.6247(3) 0.45147(15) 0.29246(15)
O3 O 0.5171(2) 0.24341(14) 0.27410(14)
O4 O 0.6884(2) 0.15533(13) 0.33337(13)
O5 O 0.78602(19) 0.31195(12) 0.35761(11)
O6 O 0.70051(18) 0.31816(11) 0.21075(11)
P1 P 0.92070(7) 0.24219(5) 0.27253(4)
Li1 Li 0.7478(5) 0.3806(3) 0.2897(3)
Li2 Li 0.6998(5) 0.2527(3) 0.2846(3)
C14? C 1.3455(13) 0.3078(10) 0.5315(8)
H20? H 1.4313 0.3158 0.5443
H21? H 1.3300 0.2593 0.5302
H22? H 1.3069 0.3290 0.5640
C15? C 1.3329(16) 0.4087(9) 0.4601(10)
H23? H 1.4190 0.4119 0.4769
H24? H 1.2925 0.4363 0.4875
H25? H 1.3121 0.4247 0.4141
C16? C 1.3743(11) 0.2994(8) 0.4176(7)
H26? H 1.4589 0.3078 0.4358
H27? H 1.3525 0.3160 0.3719
H28? H 1.3588 0.2509 0.4181
C30? C 1.2119(9) 0.4135(8) 0.1617(6)
H46? H 1.2780 0.4322 0.1449
H47? H 1.2363 0.3708 0.1844
H48? H 1.1892 0.4452 0.1930
loop_
_geom_bond_atom_site_label_1
_geom_bond_atom_site_label_2
_geom_bond_site_symmetry_1
_geom_bond_site_symmetry_2
C1 C2 1_555 1_555
C2 C3 1_555 1_555
C3 C4 1_555 1_555
C4 C5 1_555 1_555
C5 H1 1_555 1_555
H2 C5 1_555 1_555
H3 C5 1_555 1_555
C6 C4 1_555 1_555
H4 C6 1_555 1_555
H5 C6 1_555 1_555
H6 C6 1_555 1_555
C7 C4 1_555 1_555
H7 C7 1_555 1_555
H8 C7 1_555 1_555
H9 C7 1_555 1_555
C8 C3 1_555 1_555
H10 C8 1_555 1_555
C9 C8 1_555 1_555
C10 C9 1_555 1_555
C11 C10 1_555 1_555
H11 C11 1_555 1_555
H12 C11 1_555 1_555
H13 C11 1_555 1_555
C12 C10 1_555 1_555
H14 C12 1_555 1_555
H15 C12 1_555 1_555
H16 C12 1_555 1_555
C13 C10 1_555 1_555
H17 C13 1_555 1_555
H18 C13 1_555 1_555
H19 C13 1_555 1_555
C17 C1 1_555 1_555
H29 C17 1_555 1_555
C18 C19 1_555 1_555
C19 C20 1_555 1_555
C20 C21 1_555 1_555
C21 C22 1_555 1_555
C22 H30 1_555 1_555
H31 C22 1_555 1_555
H32 C22 1_555 1_555
C23 C21 1_555 1_555
H33 C23 1_555 1_555
H34 C23 1_555 1_555
H35 C23 1_555 1_555
C24 C21 1_555 1_555
H36 C24 1_555 1_555
H37 C24 1_555 1_555
H38 C24 1_555 1_555
C25 C20 1_555 1_555
H39 C25 1_555 1_555
C26 C25 1_555 1_555
C27 C26 1_555 1_555
C28 C27 1_555 1_555
H40 C28 1_555 1_555
H41 C28 1_555 1_555
H42 C28 1_555 1_555
C29 C27 1_555 1_555
H43 C29 1_555 1_555
H44 C29 1_555 1_555
H45 C29 1_555 1_555
C31 C27 1_555 1_555
H49 C31 1_555 1_555
H50 C31 1_555 1_555
H51 C31 1_555 1_555
C32 C18 1_555 1_555
H52 C32 1_555 1_555
C33 C34 1_555 1_555
C34 H53 1_555 1_555
C35 C34 1_555 1_555
H54 C35 1_555 1_555
C36 C35 1_555 1_555
H55 C36 1_555 1_555
C37 C36 1_555 1_555
H56 C37 1_555 1_555
C38 C33 1_555 1_555
H57 C38 1_555 1_555
C39 H58 1_555 1_555
H59 C39 1_555 1_555
H60 C39 1_555 1_555
C40 H61 1_555 1_555
H62 C40 1_555 1_555
C41 C40 1_555 1_555
H63 C41 1_555 1_555
H64 C41 1_555 1_555
C42 H65 1_555 1_555
H66 C42 1_555 1_555
H67 C42 1_555 1_555
C43 H68 1_555 1_555
H69 C43 1_555 1_555
H70 C43 1_555 1_555
C44 H71 1_555 1_555
H72 C44 1_555 1_555
C45 C44 1_555 1_555
H73 C45 1_555 1_555
H74 C45 1_555 1_555
C46 H75 1_555 1_555
H76 C46 1_555 1_555
H77 C46 1_555 1_555
O1 C39 1_555 1_555
O2 C41 1_555 1_555
O3 C43 1_555 1_555
O4 C45 1_555 1_555
O5 C2 1_555 1_555
O6 C19 1_555 1_555
P1 C1 1_555 1_555
Li1 O1 1_555 1_555
Li2 O3 1_555 1_555
C9 C17 1_555 1_555
C18 P1 1_555 1_555
C26 C32 1_555 1_555
C33 P1 1_555 1_555
C37 C38 1_555 1_555
C40 O1 1_555 1_555
C42 O2 1_555 1_555
C44 O3 1_555 1_555
C46 O4 1_555 1_555
O2 Li1 1_555 1_555
O4 Li2 1_555 1_555
O5 Li1 1_555 1_555
O5 Li2 1_555 1_555
O6 Li1 1_555 1_555
O6 Li2 1_555 1_555
P1 Li2 1_555 1_555

#END
