
#######################################################################
#
#                 Cambridge Crystallographic Data Centre
#                                CCDC 
#
#######################################################################
#
# If this CIF has been generated from an entry in the Cambridge 
# Structural Database, then it will include bibliographic, chemical, 
# crystal, experimental, refinement or atomic coordinate data resulting 
# from the CCDC's data processing and validation procedures.
#
#######################################################################

data_VEVGIP
_chemical_formula_moiety         'C17 H22 N2 O1,2(H2 O1)'
_chemical_name_systematic        
'(1S)-1-(4-methoxyphenyl)-N-[(1S)-1-(5-methylpyridin-2-yl)ethyl]ethanamine dihydrate'
_symmetry_cell_setting           orthorhombic
_symmetry_space_group_name_H-M   'P 21 21 2'
_symmetry_Int_Tables_number      18
_space_group_name_Hall           'P 2 2ab'
loop_
_symmetry_equiv_pos_site_id
_symmetry_equiv_pos_as_xyz
1 x,y,z
2 -x,-y,z
3 1/2-x,1/2+y,-z
4 1/2+x,1/2-y,-z
_cell_length_a                   12.490(2)
_cell_length_b                   17.074(3)
_cell_length_c                   7.8605(11)
_cell_angle_alpha                90
_cell_angle_beta                 90
_cell_angle_gamma                90
_cell_volume                     1676.29
_exptl_crystal_colour            colorless
_exptl_crystal_description       block
_cell_formula_units_Z            4
loop_
_atom_site_label
_atom_site_type_symbol
_atom_site_fract_x
_atom_site_fract_y
_atom_site_fract_z
O1 O 0.2463(2) 0.23133(17) 1.1246(4)
N1 N 0.2047(3) 0.45444(18) 0.1697(4)
N2 N 0.3427(3) 0.43115(18) 0.4687(4)
C1 C 0.1651(3) 0.43509(19) 0.3214(5)
C2 C 0.3239(3) 0.31201(18) 0.6394(4)
C3 C 0.3769(3) 0.33656(19) 0.7873(5)
H1 H 0.4332 0.3738 0.7783
C4 C 0.2153(3) 0.2272(2) 0.8175(5)
H2 H 0.1603 0.1890 0.8273
C5 C 0.3537(3) 0.34452(19) 0.4678(5)
H3 H 0.3042 0.3223 0.3802
C6 C 0.3498(3) 0.3084(2) 0.9435(5)
H4 H 0.3872 0.3261 1.0415
C7 C 0.2439(3) 0.2567(2) 0.6589(5)
H5 H 0.2073 0.2383 0.5609
C8 C 0.1468(3) 0.4364(2) 0.0310(5)
H6 H 0.1757 0.4498 -0.0770
C9 C 0.0485(3) 0.3998(2) 0.0345(5)
C10 C 0.2680(3) 0.2541(2) 0.9605(5)
C11 C 0.0087(3) 0.3800(2) 0.1920(5)
H7 H -0.0589 0.3547 0.2013
C12 C 0.0680(3) 0.3971(2) 0.3379(5)
H8 H 0.0419 0.3828 0.4471
C13 C 0.4687(3) 0.3249(3) 0.4184(5)
H9 H 0.5179 0.3474 0.5023
H10 H 0.4843 0.3469 0.3059
H11 H 0.4778 0.2679 0.4152
C14 C 0.1527(4) 0.1856(3) 1.1487(6)
H12 H 0.1432 0.1749 1.2702
H13 H 0.1598 0.1361 1.0867
H14 H 0.0904 0.2144 1.1057
C15 C 0.2309(3) 0.4572(2) 0.4771(5)
H15 H 0.1970 0.4324 0.5789
C16 C -0.0109(3) 0.3819(3) -0.1277(6)
H16 H 0.0215 0.3363 -0.1830
H17 H -0.0069 0.4272 -0.2041
H18 H -0.0860 0.3706 -0.1014
C17 C 0.2274(5) 0.5468(3) 0.5014(8)
H19 H 0.2674 0.5722 0.4094
H20 H 0.2597 0.5604 0.6110
H21 H 0.1528 0.5646 0.4991
H22 H 0.368(3) 0.447(2) 0.363(8)
O2 O 0.5226(6) 0.4937(7) 0.6972(9)
O3 O 0.5995(6) 0.4595(4) 1.1762(10)
O4? O 0.4421(10) 0.5210(9) 0.7028(16)
O5? O 0.5840(6) 0.4803(4) 1.0461(10)
loop_
_geom_bond_atom_site_label_1
_geom_bond_atom_site_label_2
_geom_bond_site_symmetry_1
_geom_bond_site_symmetry_2
O1 C10 1_555 1_555
N1 C1 1_555 1_555
N2 C5 1_555 1_555
C1 C12 1_555 1_555
C2 C3 1_555 1_555
C3 H1 1_555 1_555
C4 H2 1_555 1_555
C5 C2 1_555 1_555
H3 C5 1_555 1_555
C6 C3 1_555 1_555
H4 C6 1_555 1_555
C7 C2 1_555 1_555
H5 C7 1_555 1_555
C8 N1 1_555 1_555
H6 C8 1_555 1_555
C9 C8 1_555 1_555
C10 C4 1_555 1_555
C11 C9 1_555 1_555
H7 C11 1_555 1_555
C12 C11 1_555 1_555
H8 C12 1_555 1_555
C13 C5 1_555 1_555
H9 C13 1_555 1_555
H10 C13 1_555 1_555
H11 C13 1_555 1_555
C14 O1 1_555 1_555
H12 C14 1_555 1_555
H13 C14 1_555 1_555
H14 C14 1_555 1_555
C15 N2 1_555 1_555
H15 C15 1_555 1_555
C16 C9 1_555 1_555
H16 C16 1_555 1_555
H17 C16 1_555 1_555
H18 C16 1_555 1_555
C17 C15 1_555 1_555
H19 C17 1_555 1_555
H20 C17 1_555 1_555
H21 C17 1_555 1_555
H22 N2 1_555 1_555
C1 C15 1_555 1_555
C4 C7 1_555 1_555
C6 C10 1_555 1_555

#END
