
#######################################################################
#
#                 Cambridge Crystallographic Data Centre
#                                CCDC 
#
#######################################################################
#
# If this CIF has been generated from an entry in the Cambridge 
# Structural Database, then it will include bibliographic, chemical, 
# crystal, experimental, refinement or atomic coordinate data resulting 
# from the CCDC's data processing and validation procedures.
#
#######################################################################

data_VEVJIS
_chemical_formula_moiety         'C30 H25 N1 O3'
_chemical_name_systematic        
1-(2H-1,3-benzodioxol-2-yl)-2-benzyl-4-(4-methoxyphenyl)-1,2-dihydroisoquinoline
_symmetry_cell_setting           monoclinic
_symmetry_space_group_name_H-M   'C c'
_symmetry_Int_Tables_number      9
_space_group_name_Hall           'C -2yc'
loop_
_symmetry_equiv_pos_site_id
_symmetry_equiv_pos_as_xyz
1 x,y,z
2 x,-y,1/2+z
3 1/2+x,1/2+y,z
4 1/2+x,1/2-y,1/2+z
_cell_length_a                   22.2537(15)
_cell_length_b                   22.2476(15)
_cell_length_c                   37.781(3)
_cell_angle_alpha                90
_cell_angle_beta                 97.454(2)
_cell_angle_gamma                90
_cell_volume                     18547
_exptl_crystal_colour            colorless
_exptl_crystal_description       block
_cell_formula_units_Z            32
loop_
_atom_site_label
_atom_site_type_symbol
_atom_site_fract_x
_atom_site_fract_y
_atom_site_fract_z
C1 C 0.1310(3) 0.7807(2) 0.34005(14)
H1 H 0.0985 0.7732 0.3526
C2 C 0.1433(3) 0.8400(2) 0.32744(13)
H2 H 0.1160 0.8712 0.3292
C3 C 0.1946(3) 0.8498(3) 0.31303(15)
C4 C 0.2495(4) 0.9301(4) 0.2868(2)
H3 H 0.2851 0.9095 0.2977
H4 H 0.2556 0.9727 0.2892
H5 H 0.2420 0.9198 0.2620
C5 C 0.2324(2) 0.8088(2) 0.30728(14)
H6 H 0.2668 0.8180 0.2968
C6 C 0.2211(2) 0.7513(3) 0.31688(14)
H7 H 0.2489 0.7217 0.3128
C7 C 0.1709(3) 0.7346(2) 0.33226(14)
C8 C 0.06374(16) 0.68270(17) 0.46346(9)
H8 H 0.0985 0.6855 0.4800
C9 C 0.01206(13) 0.7139(2) 0.46927(12)
H9 H 0.0114 0.7338 0.4909
C10 C -0.03878(18) 0.7164(2) 0.44373(9)
H10 H -0.0720 0.7403 0.4468
C11 C -0.03744(17) 0.68135(18) 0.41338(10)
H11 H -0.0711 0.6812 0.3960
C12 C 0.01269(13) 0.6466(2) 0.40820(12)
H12 H 0.0117 0.6227 0.3879
C13 C 0.06408(16) 0.64739(19) 0.43329(8)
C14 C 0.1180(2) 0.6080(2) 0.42846(12)
H13 H 0.1526 0.6204 0.4452
H14 H 0.1087 0.5666 0.4338
C15 C 0.1441(2) 0.6639(3) 0.37865(13)
H15 H 0.1382 0.6986 0.3915
C16 C 0.1629(2) 0.6706(2) 0.34681(13)
C17 C 0.1627(2) 0.6176(2) 0.32377(15)
C18 C 0.1632(2) 0.6221(2) 0.28679(13)
H16 H 0.1686 0.6591 0.2762
C19 C 0.1554(3) 0.5696(2) 0.26620(14)
H17 H 0.1561 0.5720 0.2417
C20 C 0.1468(3) 0.5147(3) 0.28130(17)
H18 H 0.1386 0.4809 0.2670
C21 C 0.1507(2) 0.5099(3) 0.31926(15)
H19 H 0.1480 0.4726 0.3300
C22 C 0.1583(2) 0.56009(19) 0.33925(12)
C23 C 0.1619(2) 0.5576(2) 0.37702(14)
H20 H 0.1405 0.5213 0.3832
C24 C 0.2284(3) 0.5539(3) 0.39637(14)
H21 H 0.2511 0.5906 0.3926
C25 C 0.2711(2) 0.4966(3) 0.44289(13)
C26 C 0.2899(2) 0.4755(3) 0.47725(13)
H22 H 0.2751 0.4899 0.4975
C27 C 0.3355(3) 0.4280(3) 0.47777(17)
H23 H 0.3523 0.4124 0.4997
C28 C 0.3547(2) 0.4053(2) 0.44690(14)
H24 H 0.3849 0.3762 0.4479
C29 C 0.3241(2) 0.4303(2) 0.41101(13)
H25 H 0.3320 0.4146 0.3893
C30 C 0.2871(2) 0.4743(2) 0.41278(13)
N1 N 0.1331(2) 0.6114(2) 0.39369(11)
O1 O 0.1998(2) 0.91319(17) 0.30372(11)
O2 O 0.25610(17) 0.50278(18) 0.38293(9)
O3 O 0.22900(19) 0.54159(19) 0.43376(9)
C31 C 0.3816(3) 1.0342(3) 0.33956(15)
H26 H 0.3488 1.0260 0.3517
C32 C 0.3931(3) 1.0953(2) 0.32747(14)
H27 H 0.3659 1.1265 0.3293
C33 C 0.4471(2) 1.1039(3) 0.31299(16)
C34 C 0.5049(3) 1.1839(3) 0.28801(18)
H28 H 0.5381 1.1913 0.3064
H29 H 0.4964 1.2197 0.2740
H30 H 0.5154 1.1519 0.2729
C35 C 0.4845(2) 1.0601(2) 0.30719(13)
H31 H 0.5194 1.0676 0.2968
C36 C 0.4708(2) 1.0051(2) 0.31659(14)
H32 H 0.4969 0.9741 0.3123
C37 C 0.4200(2) 0.9906(2) 0.33254(12)
C38 C 0.3060(3) 0.9326(3) 0.46242(15)
H33 H 0.3394 0.9351 0.4799
C39 C 0.2490(4) 0.9604(4) 0.4660(2)
H34 H 0.2446 0.9770 0.4881
C40 C 0.2008(3) 0.9648(3) 0.44014(19)
H35 H 0.1668 0.9878 0.4428
C41 C 0.2061(3) 0.9336(3) 0.4110(2)
H36 H 0.1741 0.9335 0.3925
C42 C 0.2572(3) 0.9016(3) 0.40716(17)
H37 H 0.2578 0.8782 0.3868
C43 C 0.3067(2) 0.9026(2) 0.43161(14)
C44 C 0.3637(2) 0.8628(3) 0.42757(13)
H38 H 0.3978 0.8764 0.4443
H39 H 0.3554 0.8214 0.4332
C45 C 0.3904(2) 0.9197(3) 0.37836(13)
H40 H 0.3851 0.9541 0.3916
C46 C 0.4094(2) 0.9258(2) 0.34615(12)
C47 C 0.4113(2) 0.8717(2) 0.32266(14)
C48 C 0.4126(2) 0.8776(2) 0.28661(13)
H41 H 0.4191 0.9145 0.2762
C49 C 0.4034(3) 0.8233(2) 0.26599(15)
H42 H 0.4014 0.8255 0.2413
C50 C 0.3975(3) 0.7691(3) 0.28148(15)
H43 H 0.3926 0.7346 0.2676
C51 C 0.3988(2) 0.7654(2) 0.31866(14)
H44 H 0.3945 0.7285 0.3297
C52 C 0.4066(2) 0.8175(2) 0.33839(13)
C53 C 0.4076(2) 0.8145(2) 0.37729(12)
H45 H 0.3855 0.7784 0.3829
C54 C 0.4730(2) 0.8096(2) 0.39632(15)
H46 H 0.4959 0.8461 0.3923
C55 C 0.5145(2) 0.7504(3) 0.44242(13)
C56 C 0.5344(2) 0.7312(2) 0.47674(13)
H47 H 0.5222 0.7481 0.4971
C57 C 0.5766(3) 0.6815(3) 0.47721(15)
H48 H 0.5905 0.6639 0.4991
C58 C 0.5958(2) 0.6603(3) 0.44922(13)
H49 H 0.6258 0.6310 0.4515
C59 C 0.5702(2) 0.6828(2) 0.41244(12)
H50 H 0.5803 0.6659 0.3915
C60 C 0.53276(18) 0.7280(2) 0.41269(12)
N2 N 0.37885(19) 0.86642(19) 0.39195(11)
O4 O 0.45294(19) 1.16741(16) 0.30384(11)
O5 O 0.47467(18) 0.79869(17) 0.43341(8)
O6 O 0.50171(16) 0.75775(17) 0.38336(8)
C61 C 0.6352(3) 0.1758(2) 0.66386(13)
H51 H 0.6417 0.1377 0.6549
C62 C 0.5823(2) 0.1889(2) 0.67163(13)
H52 H 0.5509 0.1618 0.6657
C63 C 0.5698(2) 0.2437(2) 0.68914(13)
C64 C 0.5001(3) 0.3040(3) 0.7151(2)
H53 H 0.5287 0.3083 0.7362
H54 H 0.4598 0.3025 0.7216
H55 H 0.5035 0.3376 0.6995
C65 C 0.6136(3) 0.2825(3) 0.69311(14)
H56 H 0.6064 0.3201 0.7025
C66 C 0.6717(2) 0.2704(2) 0.68382(13)
H57 H 0.7023 0.2989 0.6881
C67 C 0.6830(2) 0.2160(2) 0.66828(13)
C68 C 0.7106(3) 0.0763(3) 0.53841(18)
H58 H 0.7074 0.1048 0.5202
C69 C 0.6744(3) 0.0223(3) 0.5334(2)
H59 H 0.6488 0.0153 0.5123
C70 C 0.6794(3) -0.0171(3) 0.5603(2)
H60 H 0.6542 -0.0506 0.5591
C71 C 0.7186(3) -0.0089(3) 0.5877(2)
H61 H 0.7225 -0.0397 0.6044
C72 C 0.7557(3) 0.0400(3) 0.59527(18)
H62 H 0.7832 0.0431 0.6160
C73 C 0.7481(3) 0.0868(3) 0.56781(15)
C74 C 0.7875(2) 0.1399(2) 0.57139(13)
H63 H 0.7714 0.1700 0.5541
H64 H 0.8275 0.1288 0.5662
C75 C 0.7434(2) 0.1781(2) 0.62248(13)
H65 H 0.7062 0.1690 0.6093
C76 C 0.7418(2) 0.2032(2) 0.65606(13)
C77 C 0.7982(2) 0.2087(2) 0.67847(14)
C78 C 0.8061(3) 0.2143(3) 0.71500(14)
H66 H 0.7714 0.2169 0.7263
C79 C 0.8603(3) 0.2161(3) 0.73594(14)
H67 H 0.8628 0.2224 0.7604
C80 C 0.9107(3) 0.2086(3) 0.71973(14)
H68 H 0.9485 0.2080 0.7335
C81 C 0.9069(2) 0.2018(2) 0.68360(13)
H69 H 0.9423 0.1969 0.6733
C82 C 0.8527(2) 0.2019(2) 0.66227(14)
C83 C 0.8503(2) 0.1954(2) 0.61954(13)
H70 H 0.8845 0.1716 0.6133
C84 C 0.8499(2) 0.2569(2) 0.60380(13)
H71 H 0.8135 0.2781 0.6091
C85 C 0.8965(3) 0.2910(3) 0.56054(14)
C86 C 0.9060(3) 0.3078(3) 0.52425(15)
H72 H 0.8820 0.2950 0.5036
C87 C 0.9535(3) 0.3440(3) 0.52492(14)
H73 H 0.9665 0.3519 0.5030
C88 C 0.9865(3) 0.3719(3) 0.55456(16)
H74 H 1.0153 0.4013 0.5520
C89 C 0.9742(3) 0.3536(3) 0.58740(17)
H75 H 0.9975 0.3654 0.6085
C90 C 0.9239(3) 0.3156(2) 0.58692(14)
N3 N 0.7923(2) 0.1659(2) 0.60748(11)
O7 O 0.51192(18) 0.25099(19) 0.69762(11)
O8 O 0.90400(17) 0.29133(16) 0.61897(9)
O9 O 0.84932(19) 0.25460(17) 0.56679(11)
C91 C 0.6141(2) 0.5534(3) 0.33960(14)
H76 H 0.6087 0.5176 0.3514
C92 C 0.6737(2) 0.5676(3) 0.32688(14)
H77 H 0.7048 0.5394 0.3287
C93 C 0.6806(2) 0.6198(3) 0.31339(15)
C94 C 0.7507(3) 0.6817(3) 0.28697(15)
H78 H 0.7283 0.6818 0.2635
H79 H 0.7933 0.6840 0.2852
H80 H 0.7389 0.7157 0.3001
C95 C 0.6327(2) 0.6606(2) 0.30654(14)
H81 H 0.6387 0.6966 0.2950
C96 C 0.5781(2) 0.6484(2) 0.31636(13)
H82 H 0.5469 0.6763 0.3117
C97 C 0.5674(2) 0.5946(2) 0.33344(13)
C98 C 0.5362(3) 0.4498(3) 0.46606(17)
H83 H 0.5414 0.4793 0.4836
C99 C 0.5628(3) 0.3945(3) 0.4694(2)
H84 H 0.5812 0.3834 0.4920
C100 C 0.5648(3) 0.3533(3) 0.4418(2)
H85 H 0.5855 0.3170 0.4452
C101 C 0.5344(3) 0.3691(3) 0.4091(2)
H86 H 0.5379 0.3460 0.3890
C102 C 0.4990(3) 0.4197(3) 0.40677(18)
H87 H 0.4737 0.4269 0.3856
C103 C 0.4989(3) 0.4574(3) 0.43223(15)
C104 C 0.4639(3) 0.5166(2) 0.42783(14)
H88 H 0.4249 0.5108 0.4361
H89 H 0.4859 0.5465 0.4431
C105 C 0.5079(3) 0.5573(2) 0.37777(14)
H90 H 0.5449 0.5522 0.3919
C106 C 0.5077(2) 0.5799(2) 0.34572(12)
C107 C 0.4488(2) 0.5868(2) 0.32409(14)
C108 C 0.4434(3) 0.5945(2) 0.28624(14)
H91 H 0.4778 0.6000 0.2750
C109 C 0.3849(3) 0.5936(3) 0.26586(15)
H92 H 0.3808 0.6012 0.2415
C110 C 0.3345(3) 0.5815(3) 0.28201(17)
H93 H 0.2973 0.5759 0.2681
C111 C 0.3386(3) 0.5776(2) 0.31822(13)
H94 H 0.3036 0.5745 0.3292
C112 C 0.3958(2) 0.5781(2) 0.33900(12)
C113 C 0.4011(2) 0.5734(2) 0.37715(12)
H95 H 0.3660 0.5502 0.3825
C114 C 0.3989(3) 0.6355(2) 0.39761(13)
H96 H 0.4354 0.6593 0.3955
C115 C 0.3497(2) 0.6641(2) 0.44499(13)
C116 C 0.3273(3) 0.6705(3) 0.47594(15)
H97 H 0.3391 0.6454 0.4953
C117 C 0.2836(3) 0.7185(3) 0.47793(15)
H98 H 0.2754 0.7338 0.4997
C118 C 0.2545(3) 0.7404(3) 0.44585(14)
H99 H 0.2199 0.7637 0.4460
C119 C 0.2759(2) 0.7285(2) 0.41251(13)
H100 H 0.2595 0.7487 0.3919
C120 C 0.31958(19) 0.6884(2) 0.41135(11)
N4 N 0.45392(18) 0.5400(2) 0.39201(11)
O10 O 0.73841(15) 0.62830(18) 0.30477(11)
O11 O 0.39319(18) 0.62342(18) 0.43518(9)
O12 O 0.34637(15) 0.66754(15) 0.38377(8)
C121 C 0.8667(2) 0.8011(2) 0.34021(13)
H101 H 0.8616 0.7650 0.3519
C122 C 0.9241(2) 0.8155(3) 0.32919(14)
H102 H 0.9560 0.7881 0.3319
C123 C 0.9302(2) 0.8704(2) 0.31471(15)
C124 C 0.9995(3) 0.9351(3) 0.28680(16)
H103 H 0.9800 0.9680 0.2972
H104 H 0.9832 0.9312 0.2621
H105 H 1.0423 0.9426 0.2887
C125 C 0.8812(2) 0.9106(2) 0.30668(13)
H106 H 0.8864 0.9465 0.2948
C126 C 0.8270(2) 0.8964(3) 0.31640(14)
H107 H 0.7951 0.9234 0.3117
C127 C 0.8171(2) 0.8420(2) 0.33339(12)
C128 C 0.79157(16) 0.69588(16) 0.46322(9)
H108 H 0.7919 0.7226 0.4822
C129 C 0.8300(2) 0.64640(14) 0.46672(12)
H109 H 0.8600 0.6438 0.4862
C130 C 0.8239(2) 0.60089(19) 0.44143(9)
H110 H 0.8479 0.5666 0.4441
C131 C 0.78063(17) 0.60873(16) 0.41202(11)
H111 H 0.7743 0.5782 0.3952
C132 C 0.7465(2) 0.66093(13) 0.40699(11)
H112 H 0.7189 0.6654 0.3864
C133 C 0.75280(18) 0.70629(16) 0.43201(8)
C134 C 0.7143(3) 0.7617(2) 0.42862(13)
H113 H 0.6752 0.7526 0.4361
H114 H 0.7334 0.7925 0.4444
C135 C 0.7585(3) 0.8027(2) 0.37894(15)
H115 H 0.7954 0.7988 0.3935
C136 C 0.7579(2) 0.8247(3) 0.34660(14)
C137 C 0.6988(2) 0.8340(2) 0.32379(15)
C138 C 0.6936(2) 0.8421(2) 0.28591(14)
H116 H 0.7272 0.8489 0.2742
C139 C 0.6363(3) 0.8391(3) 0.26817(15)
H117 H 0.6329 0.8441 0.2435
C140 C 0.5842(3) 0.8299(3) 0.28175(18)
H118 H 0.5472 0.8274 0.2672
C141 C 0.5888(3) 0.8241(3) 0.32055(15)
H119 H 0.5541 0.8198 0.3316
C142 C 0.6458(2) 0.8250(2) 0.34067(11)
C143 C 0.6525(2) 0.8199(2) 0.37730(14)
H120 H 0.6168 0.7980 0.3831
C144 C 0.6527(3) 0.8820(3) 0.39724(14)
H121 H 0.6893 0.9052 0.3947
C145 C 0.6035(3) 0.9090(2) 0.44466(13)
C146 C 0.5849(3) 0.9187(3) 0.47566(15)
H122 H 0.6030 0.8996 0.4962
C147 C 0.5353(2) 0.9600(3) 0.47679(18)
H123 H 0.5214 0.9686 0.4984
C148 C 0.5093(3) 0.9860(3) 0.44669(14)
H124 H 0.4778 1.0131 0.4480
C149 C 0.5278(2) 0.9737(2) 0.41293(13)
H125 H 0.5085 0.9926 0.3926
C150 C 0.5732(2) 0.9349(2) 0.41033(11)
N5 N 0.70519(18) 0.78493(19) 0.39207(11)
O13 O 0.98872(16) 0.87946(19) 0.30574(11)
O14 O 0.59847(16) 0.91481(17) 0.38388(9)
O15 O 0.64635(18) 0.87094(18) 0.43468(9)
C151 C 0.8655(2) 0.6576(2) 0.66355(14)
H126 H 0.9032 0.6475 0.6572
C152 C 0.8541(2) 0.7138(2) 0.66940(15)
H127 H 0.8787 0.7434 0.6615
C153 C 0.8052(2) 0.7305(2) 0.68739(14)
C154 C 0.7479(2) 0.8040(2) 0.71342(16)
H128 H 0.7116 0.7922 0.6985
H129 H 0.7475 0.8467 0.7170
H130 H 0.7499 0.7840 0.7360
C155 C 0.7629(3) 0.6842(2) 0.69325(15)
H131 H 0.7287 0.6932 0.7040
C156 C 0.7737(3) 0.6247(2) 0.68248(14)
H132 H 0.7466 0.5944 0.6865
C157 C 0.8230(2) 0.6109(2) 0.66638(13)
C158 C 0.9393(3) 0.5502(3) 0.53402(18)
H133 H 0.9090 0.5438 0.5150
C159 C 0.9890(3) 0.5898(3) 0.5297(2)
H134 H 0.9899 0.6128 0.5092
C160 C 1.0339(3) 0.5912(3) 0.5571(2)
H135 H 1.0689 0.6126 0.5545
C161 C 1.0301(3) 0.5631(3) 0.5881(2)
H136 H 1.0613 0.5675 0.6068
C162 C 0.9816(3) 0.5282(3) 0.59266(19)
H137 H 0.9805 0.5089 0.6144
C163 C 0.9361(3) 0.5210(3) 0.56708(16)
C164 C 0.8819(2) 0.4869(3) 0.56923(12)
H138 H 0.8883 0.4459 0.5618
H139 H 0.8492 0.5038 0.5528
C165 C 0.8499(2) 0.5431(2) 0.62168(15)
H140 H 0.8510 0.5766 0.6070
C166 C 0.8360(2) 0.5525(2) 0.65492(14)
C167 C 0.8346(2) 0.4993(2) 0.67716(12)
C168 C 0.8382(2) 0.4980(2) 0.71324(15)
H141 H 0.8391 0.5350 0.7248
C169 C 0.8406(3) 0.4492(3) 0.73390(15)
H142 H 0.8390 0.4530 0.7583
C170 C 0.8455(3) 0.3930(3) 0.71883(15)
H143 H 0.8492 0.3586 0.7329
C171 C 0.8447(3) 0.3896(3) 0.68290(14)
H144 H 0.8490 0.3525 0.6721
C172 C 0.8375(3) 0.4423(2) 0.66180(15)
C173 C 0.8348(2) 0.4341(2) 0.61852(12)
H145 H 0.8579 0.3984 0.6134
C174 C 0.7694(3) 0.4275(2) 0.60165(14)
H146 H 0.7484 0.4656 0.6045
C175 C 0.7284(3) 0.3703(2) 0.55733(16)
C176 C 0.7075(3) 0.3414(3) 0.52545(16)
H147 H 0.7194 0.3549 0.5041
C177 C 0.6715(3) 0.2957(3) 0.52549(15)
H148 H 0.6566 0.2767 0.5042
C178 C 0.6557(3) 0.2755(3) 0.55745(18)
H149 H 0.6328 0.2405 0.5571
C179 C 0.6693(3) 0.2997(3) 0.5859(2)
H150 H 0.6533 0.2859 0.6059
C180 C 0.7098(3) 0.3491(3) 0.58867(17)
N6 N 0.8632(2) 0.48618(19) 0.60697(10)
O16 O 0.79927(17) 0.78801(16) 0.69667(10)
O17 O 0.76811(17) 0.4159(2) 0.56439(10)
O18 O 0.73731(16) 0.38028(15) 0.61745(9)
C181 C 0.3827(3) 0.4264(3) 0.66351(14)
H151 H 0.3895 0.3884 0.6546
C182 C 0.3289(3) 0.4388(2) 0.67086(16)
H152 H 0.2973 0.4119 0.6645
C183 C 0.3175(2) 0.4942(2) 0.68889(13)
C184 C 0.2488(3) 0.5537(3) 0.71423(18)
H153 H 0.2825 0.5638 0.7317
H154 H 0.2132 0.5485 0.7258
H155 H 0.2422 0.5854 0.6970
C185 C 0.3626(3) 0.5344(3) 0.69357(14)
H156 H 0.3570 0.5714 0.7041
C186 C 0.4197(2) 0.5197(2) 0.68212(13)
H157 H 0.4503 0.5483 0.6845
C187 C 0.4304(2) 0.4660(2) 0.66813(12)
C188 C 0.4566(3) 0.3184(3) 0.53857(15)
H158 H 0.4535 0.3445 0.5192
C189 C 0.4216(3) 0.2708(3) 0.5349(2)
H159 H 0.3938 0.2658 0.5145
C190 C 0.4265(4) 0.2276(3) 0.5620(2)
H160 H 0.4046 0.1919 0.5598
C191 C 0.4642(4) 0.2408(4) 0.5907(2)
H161 H 0.4654 0.2143 0.6098
C192 C 0.5012(3) 0.2889(3) 0.59517(18)
H162 H 0.5289 0.2927 0.6157
C193 C 0.4972(2) 0.3344(3) 0.56766(14)
C194 C 0.5342(2) 0.3867(3) 0.57142(13)
H163 H 0.5174 0.4164 0.5541
H164 H 0.5743 0.3764 0.5659
C195 C 0.4889(2) 0.4273(2) 0.62235(13)
H165 H 0.4517 0.4185 0.6092
C196 C 0.4883(2) 0.4528(2) 0.65559(14)
C197 C 0.5480(2) 0.4580(2) 0.67727(11)
C198 C 0.5551(3) 0.4650(3) 0.71402(14)
H166 H 0.5203 0.4700 0.7249
C199 C 0.6097(3) 0.4652(2) 0.73561(13)
H167 H 0.6126 0.4698 0.7602
C200 C 0.6600(2) 0.4581(3) 0.71817(13)
H168 H 0.6984 0.4595 0.7312
C201 C 0.6546(2) 0.4493(2) 0.68279(14)
H169 H 0.6891 0.4403 0.6723
C202 C 0.6003(3) 0.4532(2) 0.66175(16)
C203 C 0.5956(2) 0.4443(2) 0.61868(13)
H170 H 0.6299 0.4204 0.6128
C204 C 0.5968(2) 0.5051(3) 0.60254(15)
H171 H 0.5605 0.5271 0.6071
C205 C 0.6438(3) 0.5385(2) 0.55849(15)
C206 C 0.6554(3) 0.5524(2) 0.52403(15)
H172 H 0.6325 0.5369 0.5038
C207 C 0.6982(3) 0.5868(3) 0.52235(15)
H173 H 0.7077 0.5955 0.4996
C208 C 0.7350(3) 0.6148(2) 0.55161(18)
H174 H 0.7669 0.6405 0.5484
C209 C 0.7198(3) 0.6008(3) 0.5847(2)
H175 H 0.7404 0.6165 0.6057
C210 C 0.6705(3) 0.5610(2) 0.58434(15)
N7 N 0.5400(2) 0.41376(19) 0.60715(11)
O19 O 0.26102(19) 0.50147(18) 0.69751(11)
O20 O 0.59725(19) 0.50053(18) 0.56504(9)
O21 O 0.65006(18) 0.53925(16) 0.61685(9)
C211 C 0.6143(2) 0.9124(2) 0.66322(13)
H176 H 0.6508 0.9049 0.6545
C212 C 0.6032(2) 0.9657(3) 0.66959(15)
H177 H 0.6281 0.9958 0.6625
C213 C 0.5528(2) 0.9817(2) 0.68768(14)
C214 C 0.4957(3) 1.0543(2) 0.71429(19)
H178 H 0.4586 1.0439 0.6997
H179 H 0.4964 1.0968 0.7189
H180 H 0.4984 1.0329 0.7365
C215 C 0.5139(3) 0.9357(2) 0.69410(15)
H181 H 0.4802 0.9439 0.7055
C216 C 0.5254(3) 0.8751(2) 0.68320(13)
H182 H 0.4977 0.8451 0.6865
C217 C 0.5768(2) 0.8604(2) 0.66788(14)
C218 C 0.6974(3) 0.8030(3) 0.53558(15)
H183 H 0.6686 0.7977 0.5157
C219 C 0.7436(3) 0.8380(3) 0.53265(18)
H184 H 0.7442 0.8603 0.5119
C220 C 0.7898(3) 0.8428(3) 0.55855(19)
H185 H 0.8238 0.8653 0.5550
C221 C 0.7874(3) 0.8151(3) 0.5896(2)
H186 H 0.8196 0.8190 0.6078
C222 C 0.7359(3) 0.7792(3) 0.59565(15)
H187 H 0.7338 0.7609 0.6176
C223 C 0.6890(3) 0.7727(3) 0.56749(14)
C224 C 0.6360(2) 0.7409(3) 0.57243(13)
H188 H 0.6406 0.7001 0.5642
H189 H 0.6026 0.7588 0.5569
C225 C 0.6040(2) 0.7949(2) 0.62296(14)
H190 H 0.6058 0.8285 0.6085
C226 C 0.5884(2) 0.8030(2) 0.65554(13)
C227 C 0.5860(2) 0.7483(2) 0.67742(13)
C228 C 0.5901(3) 0.7494(3) 0.71491(15)
H191 H 0.5906 0.7866 0.7262
C229 C 0.5934(2) 0.6990(3) 0.73561(15)
H192 H 0.5945 0.7023 0.7602
C230 C 0.5950(3) 0.6430(3) 0.71996(16)
H193 H 0.5955 0.6083 0.7337
C231 C 0.5958(3) 0.6393(2) 0.68285(14)
H194 H 0.5999 0.6018 0.6725
C232 C 0.5906(2) 0.6919(2) 0.66039(13)
C233 C 0.5881(2) 0.6876(2) 0.61897(13)
H195 H 0.6104 0.6517 0.6132
C234 C 0.5227(2) 0.6809(3) 0.60252(13)
H196 H 0.5016 0.7185 0.6065
C235 C 0.4826(2) 0.6258(2) 0.55832(14)
C236 C 0.4633(4) 0.5991(4) 0.52678(19)
H197 H 0.4794 0.6123 0.5066
C237 C 0.4235(3) 0.5558(3) 0.52304(15)
H198 H 0.4056 0.5424 0.5008
C238 C 0.4089(3) 0.5295(3) 0.55695(17)
H199 H 0.3885 0.4930 0.5561
C239 C 0.4226(3) 0.5539(3) 0.5865(2)
H200 H 0.4061 0.5412 0.6066
C240 C 0.4652(3) 0.6026(3) 0.58794(14)
N8 N 0.61812(19) 0.73751(19) 0.60886(10)
O22 O 0.54624(18) 1.03845(16) 0.69605(11)
O23 O 0.49038(16) 0.63197(16) 0.61754(10)
O24 O 0.52074(17) 0.67276(19) 0.56466(10)
loop_
_geom_bond_atom_site_label_1
_geom_bond_atom_site_label_2
_geom_bond_site_symmetry_1
_geom_bond_site_symmetry_2
C1 H1 1_555 1_555
C2 C1 1_555 1_555
H2 C2 1_555 1_555
C3 C2 1_555 1_555
C4 H3 1_555 1_555
H4 C4 1_555 1_555
H5 C4 1_555 1_555
C5 C3 1_555 1_555
H6 C5 1_555 1_555
C6 C5 1_555 1_555
H7 C6 1_555 1_555
C7 C1 1_555 1_555
C8 H8 1_555 1_555
C9 C8 1_555 1_555
H9 C9 1_555 1_555
C10 C9 1_555 1_555
H10 C10 1_555 1_555
C11 C10 1_555 1_555
H11 C11 1_555 1_555
C12 C11 1_555 1_555
H12 C12 1_555 1_555
C13 C8 1_555 1_555
C14 C13 1_555 1_555
H13 C14 1_555 1_555
H14 C14 1_555 1_555
C15 H15 1_555 1_555
C16 C7 1_555 1_555
C17 C16 1_555 1_555
C18 C17 1_555 1_555
H16 C18 1_555 1_555
C19 C18 1_555 1_555
H17 C19 1_555 1_555
C20 C19 1_555 1_555
H18 C20 1_555 1_555
C21 C20 1_555 1_555
H19 C21 1_555 1_555
C22 C17 1_555 1_555
C23 C22 1_555 1_555
H20 C23 1_555 1_555
C24 C23 1_555 1_555
H21 C24 1_555 1_555
C25 C26 1_555 1_555
C26 H22 1_555 1_555
C27 C26 1_555 1_555
H23 C27 1_555 1_555
C28 C27 1_555 1_555
H24 C28 1_555 1_555
C29 C28 1_555 1_555
H25 C29 1_555 1_555
C30 C25 1_555 1_555
N1 C14 1_555 1_555
O1 C3 1_555 1_555
O2 C24 1_555 1_555
O3 C24 1_555 1_555
C31 H26 1_555 1_555
C32 C31 1_555 1_555
H27 C32 1_555 1_555
C33 C32 1_555 1_555
C34 H28 1_555 1_555
H29 C34 1_555 1_555
H30 C34 1_555 1_555
C35 C33 1_555 1_555
H31 C35 1_555 1_555
C36 C35 1_555 1_555
H32 C36 1_555 1_555
C37 C31 1_555 1_555
C38 H33 1_555 1_555
C39 C38 1_555 1_555
H34 C39 1_555 1_555
C40 C39 1_555 1_555
H35 C40 1_555 1_555
C41 C40 1_555 1_555
H36 C41 1_555 1_555
C42 C41 1_555 1_555
H37 C42 1_555 1_555
C43 C38 1_555 1_555
C44 C43 1_555 1_555
H38 C44 1_555 1_555
H39 C44 1_555 1_555
C45 H40 1_555 1_555
C46 C37 1_555 1_555
C47 C46 1_555 1_555
C48 C47 1_555 1_555
H41 C48 1_555 1_555
C49 C48 1_555 1_555
H42 C49 1_555 1_555
C50 C49 1_555 1_555
H43 C50 1_555 1_555
C51 C50 1_555 1_555
H44 C51 1_555 1_555
C52 C47 1_555 1_555
C53 C52 1_555 1_555
H45 C53 1_555 1_555
C54 C53 1_555 1_555
H46 C54 1_555 1_555
C55 C56 1_555 1_555
C56 H47 1_555 1_555
C57 C56 1_555 1_555
H48 C57 1_555 1_555
C58 C57 1_555 1_555
H49 C58 1_555 1_555
C59 C58 1_555 1_555
H50 C59 1_555 1_555
C60 C55 1_555 1_555
N2 C44 1_555 1_555
O4 C33 1_555 1_555
O5 C54 1_555 1_555
O6 C54 1_555 1_555
C61 H51 1_555 1_555
C62 C61 1_555 1_555
H52 C62 1_555 1_555
C63 C62 1_555 1_555
C64 H53 1_555 1_555
H54 C64 1_555 1_555
H55 C64 1_555 1_555
C65 C63 1_555 1_555
H56 C65 1_555 1_555
C66 C65 1_555 1_555
H57 C66 1_555 1_555
C67 C61 1_555 1_555
C68 H58 1_555 1_555
C69 C68 1_555 1_555
H59 C69 1_555 1_555
C70 C69 1_555 1_555
H60 C70 1_555 1_555
C71 C70 1_555 1_555
H61 C71 1_555 1_555
C72 C71 1_555 1_555
H62 C72 1_555 1_555
C73 C68 1_555 1_555
C74 C73 1_555 1_555
H63 C74 1_555 1_555
H64 C74 1_555 1_555
C75 H65 1_555 1_555
C76 C67 1_555 1_555
C77 C76 1_555 1_555
C78 C77 1_555 1_555
H66 C78 1_555 1_555
C79 C78 1_555 1_555
H67 C79 1_555 1_555
C80 C79 1_555 1_555
H68 C80 1_555 1_555
C81 C80 1_555 1_555
H69 C81 1_555 1_555
C82 C77 1_555 1_555
C83 C82 1_555 1_555
H70 C83 1_555 1_555
C84 C83 1_555 1_555
H71 C84 1_555 1_555
C85 C86 1_555 1_555
C86 H72 1_555 1_555
C87 C86 1_555 1_555
H73 C87 1_555 1_555
C88 C87 1_555 1_555
H74 C88 1_555 1_555
C89 C88 1_555 1_555
H75 C89 1_555 1_555
C90 C85 1_555 1_555
N3 C74 1_555 1_555
O7 C63 1_555 1_555
O8 C84 1_555 1_555
O9 C84 1_555 1_555
C91 H76 1_555 1_555
C92 C91 1_555 1_555
H77 C92 1_555 1_555
C93 C92 1_555 1_555
C94 H78 1_555 1_555
H79 C94 1_555 1_555
H80 C94 1_555 1_555
C95 C93 1_555 1_555
H81 C95 1_555 1_555
C96 C95 1_555 1_555
H82 C96 1_555 1_555
C97 C91 1_555 1_555
C98 H83 1_555 1_555
C99 C98 1_555 1_555
H84 C99 1_555 1_555
C100 C99 1_555 1_555
H85 C100 1_555 1_555
C101 C100 1_555 1_555
H86 C101 1_555 1_555
C102 C101 1_555 1_555
H87 C102 1_555 1_555
C103 C98 1_555 1_555
C104 C103 1_555 1_555
H88 C104 1_555 1_555
H89 C104 1_555 1_555
C105 H90 1_555 1_555
C106 C97 1_555 1_555
C107 C106 1_555 1_555
C108 C107 1_555 1_555
H91 C108 1_555 1_555
C109 C108 1_555 1_555
H92 C109 1_555 1_555
C110 C109 1_555 1_555
H93 C110 1_555 1_555
C111 C110 1_555 1_555
H94 C111 1_555 1_555
C112 C107 1_555 1_555
C113 C112 1_555 1_555
H95 C113 1_555 1_555
C114 C113 1_555 1_555
H96 C114 1_555 1_555
C115 C116 1_555 1_555
C116 H97 1_555 1_555
C117 C116 1_555 1_555
H98 C117 1_555 1_555
C118 C117 1_555 1_555
H99 C118 1_555 1_555
C119 C118 1_555 1_555
H100 C119 1_555 1_555
C120 C115 1_555 1_555
N4 C104 1_555 1_555
O10 C93 1_555 1_555
O11 C114 1_555 1_555
O12 C114 1_555 1_555
C121 H101 1_555 1_555
C122 C121 1_555 1_555
H102 C122 1_555 1_555
C123 C122 1_555 1_555
C124 H103 1_555 1_555
H104 C124 1_555 1_555
H105 C124 1_555 1_555
C125 C123 1_555 1_555
H106 C125 1_555 1_555
C126 C125 1_555 1_555
H107 C126 1_555 1_555
C127 C121 1_555 1_555
C128 H108 1_555 1_555
C129 C128 1_555 1_555
H109 C129 1_555 1_555
C130 C129 1_555 1_555
H110 C130 1_555 1_555
C131 C130 1_555 1_555
H111 C131 1_555 1_555
C132 C131 1_555 1_555
H112 C132 1_555 1_555
C133 C128 1_555 1_555
C134 C133 1_555 1_555
H113 C134 1_555 1_555
H114 C134 1_555 1_555
C135 H115 1_555 1_555
C136 C127 1_555 1_555
C137 C136 1_555 1_555
C138 C137 1_555 1_555
H116 C138 1_555 1_555
C139 C138 1_555 1_555
H117 C139 1_555 1_555
C140 C139 1_555 1_555
H118 C140 1_555 1_555
C141 C140 1_555 1_555
H119 C141 1_555 1_555
C142 C137 1_555 1_555
C143 C142 1_555 1_555
H120 C143 1_555 1_555
C144 C143 1_555 1_555
H121 C144 1_555 1_555
C145 C146 1_555 1_555
C146 H122 1_555 1_555
C147 C146 1_555 1_555
H123 C147 1_555 1_555
C148 C147 1_555 1_555
H124 C148 1_555 1_555
C149 C148 1_555 1_555
H125 C149 1_555 1_555
C150 C145 1_555 1_555
N5 C134 1_555 1_555
O13 C123 1_555 1_555
O14 C144 1_555 1_555
O15 C144 1_555 1_555
C151 H126 1_555 1_555
C152 C151 1_555 1_555
H127 C152 1_555 1_555
C153 C152 1_555 1_555
C154 H128 1_555 1_555
H129 C154 1_555 1_555
H130 C154 1_555 1_555
C155 C153 1_555 1_555
H131 C155 1_555 1_555
C156 C155 1_555 1_555
H132 C156 1_555 1_555
C157 C151 1_555 1_555
C158 H133 1_555 1_555
C159 C158 1_555 1_555
H134 C159 1_555 1_555
C160 C159 1_555 1_555
H135 C160 1_555 1_555
C161 C160 1_555 1_555
H136 C161 1_555 1_555
C162 C161 1_555 1_555
H137 C162 1_555 1_555
C163 C158 1_555 1_555
C164 C163 1_555 1_555
H138 C164 1_555 1_555
H139 C164 1_555 1_555
C165 H140 1_555 1_555
C166 C157 1_555 1_555
C167 C166 1_555 1_555
C168 C167 1_555 1_555
H141 C168 1_555 1_555
C169 C168 1_555 1_555
H142 C169 1_555 1_555
C170 C169 1_555 1_555
H143 C170 1_555 1_555
C171 C170 1_555 1_555
H144 C171 1_555 1_555
C172 C167 1_555 1_555
C173 C172 1_555 1_555
H145 C173 1_555 1_555
C174 C173 1_555 1_555
H146 C174 1_555 1_555
C175 C176 1_555 1_555
C176 H147 1_555 1_555
C177 C176 1_555 1_555
H148 C177 1_555 1_555
C178 C177 1_555 1_555
H149 C178 1_555 1_555
C179 C178 1_555 1_555
H150 C179 1_555 1_555
C180 C175 1_555 1_555
N6 C164 1_555 1_555
O16 C153 1_555 1_555
O17 C174 1_555 1_555
O18 C174 1_555 1_555
C181 H151 1_555 1_555
C182 C181 1_555 1_555
H152 C182 1_555 1_555
C183 C182 1_555 1_555
C184 H153 1_555 1_555
H154 C184 1_555 1_555
H155 C184 1_555 1_555
C185 C183 1_555 1_555
H156 C185 1_555 1_555
C186 C185 1_555 1_555
H157 C186 1_555 1_555
C187 C181 1_555 1_555
C188 H158 1_555 1_555
C189 C188 1_555 1_555
H159 C189 1_555 1_555
C190 C189 1_555 1_555
H160 C190 1_555 1_555
C191 C190 1_555 1_555
H161 C191 1_555 1_555
C192 C191 1_555 1_555
H162 C192 1_555 1_555
C193 C188 1_555 1_555
C194 C193 1_555 1_555
H163 C194 1_555 1_555
H164 C194 1_555 1_555
C195 H165 1_555 1_555
C196 C187 1_555 1_555
C197 C196 1_555 1_555
C198 C197 1_555 1_555
H166 C198 1_555 1_555
C199 C198 1_555 1_555
H167 C199 1_555 1_555
C200 C199 1_555 1_555
H168 C200 1_555 1_555
C201 C200 1_555 1_555
H169 C201 1_555 1_555
C202 C197 1_555 1_555
C203 C202 1_555 1_555
H170 C203 1_555 1_555
C204 C203 1_555 1_555
H171 C204 1_555 1_555
C205 C206 1_555 1_555
C206 H172 1_555 1_555
C207 C206 1_555 1_555
H173 C207 1_555 1_555
C208 C207 1_555 1_555
H174 C208 1_555 1_555
C209 C208 1_555 1_555
H175 C209 1_555 1_555
C210 C205 1_555 1_555
N7 C194 1_555 1_555
O19 C183 1_555 1_555
O20 C204 1_555 1_555
O21 C204 1_555 1_555
C211 H176 1_555 1_555
C212 C211 1_555 1_555
H177 C212 1_555 1_555
C213 C212 1_555 1_555
C214 H178 1_555 1_555
H179 C214 1_555 1_555
H180 C214 1_555 1_555
C215 C213 1_555 1_555
H181 C215 1_555 1_555
C216 C215 1_555 1_555
H182 C216 1_555 1_555
C217 C211 1_555 1_555
C218 H183 1_555 1_555
C219 C218 1_555 1_555
H184 C219 1_555 1_555
C220 C219 1_555 1_555
H185 C220 1_555 1_555
C221 C220 1_555 1_555
H186 C221 1_555 1_555
C222 C221 1_555 1_555
H187 C222 1_555 1_555
C223 C218 1_555 1_555
C224 C223 1_555 1_555
H188 C224 1_555 1_555
H189 C224 1_555 1_555
C225 H190 1_555 1_555
C226 C217 1_555 1_555
C227 C226 1_555 1_555
C228 C227 1_555 1_555
H191 C228 1_555 1_555
C229 C228 1_555 1_555
H192 C229 1_555 1_555
C230 C229 1_555 1_555
H193 C230 1_555 1_555
C231 C230 1_555 1_555
H194 C231 1_555 1_555
C232 C227 1_555 1_555
C233 C232 1_555 1_555
H195 C233 1_555 1_555
C234 C233 1_555 1_555
H196 C234 1_555 1_555
C235 C236 1_555 1_555
C236 H197 1_555 1_555
C237 C236 1_555 1_555
H198 C237 1_555 1_555
C238 C237 1_555 1_555
H199 C238 1_555 1_555
C239 C238 1_555 1_555
H200 C239 1_555 1_555
C240 C235 1_555 1_555
N8 C224 1_555 1_555
O22 C213 1_555 1_555
O23 C234 1_555 1_555
O24 C234 1_555 1_555
C4 O1 1_555 1_555
C6 C7 1_555 1_555
C12 C13 1_555 1_555
C15 C16 1_555 1_555
C15 N1 1_555 1_555
C21 C22 1_555 1_555
C23 N1 1_555 1_555
C25 O3 1_555 1_555
C29 C30 1_555 1_555
C30 O2 1_555 1_555
C34 O4 1_555 1_555
C36 C37 1_555 1_555
C42 C43 1_555 1_555
C45 C46 1_555 1_555
C45 N2 1_555 1_555
C51 C52 1_555 1_555
C53 N2 1_555 1_555
C55 O5 1_555 1_555
C59 C60 1_555 1_555
C60 O6 1_555 1_555
C64 O7 1_555 1_555
C66 C67 1_555 1_555
C72 C73 1_555 1_555
C75 C76 1_555 1_555
C75 N3 1_555 1_555
C81 C82 1_555 1_555
C83 N3 1_555 1_555
C85 O9 1_555 1_555
C89 C90 1_555 1_555
C90 O8 1_555 1_555
C94 O10 1_555 1_555
C96 C97 1_555 1_555
C102 C103 1_555 1_555
C105 C106 1_555 1_555
C105 N4 1_555 1_555
C111 C112 1_555 1_555
C113 N4 1_555 1_555
C115 O11 1_555 1_555
C119 C120 1_555 1_555
C120 O12 1_555 1_555
C124 O13 1_555 1_555
C126 C127 1_555 1_555
C132 C133 1_555 1_555
C135 C136 1_555 1_555
C135 N5 1_555 1_555
C141 C142 1_555 1_555
C143 N5 1_555 1_555
C145 O15 1_555 1_555
C149 C150 1_555 1_555
C150 O14 1_555 1_555
C154 O16 1_555 1_555
C156 C157 1_555 1_555
C162 C163 1_555 1_555
C165 C166 1_555 1_555
C165 N6 1_555 1_555
C171 C172 1_555 1_555
C173 N6 1_555 1_555
C175 O17 1_555 1_555
C179 C180 1_555 1_555
C180 O18 1_555 1_555
C184 O19 1_555 1_555
C186 C187 1_555 1_555
C192 C193 1_555 1_555
C195 C196 1_555 1_555
C195 N7 1_555 1_555
C201 C202 1_555 1_555
C203 N7 1_555 1_555
C205 O20 1_555 1_555
C209 C210 1_555 1_555
C210 O21 1_555 1_555
C214 O22 1_555 1_555
C216 C217 1_555 1_555
C222 C223 1_555 1_555
C225 C226 1_555 1_555
C225 N8 1_555 1_555
C231 C232 1_555 1_555
C233 N8 1_555 1_555
C235 O24 1_555 1_555
C239 C240 1_555 1_555
C240 O23 1_555 1_555

#END
