
#######################################################################
#
#                 Cambridge Crystallographic Data Centre
#                                CCDC 
#
#######################################################################
#
# If this CIF has been generated from an entry in the Cambridge 
# Structural Database, then it will include bibliographic, chemical, 
# crystal, experimental, refinement or atomic coordinate data resulting 
# from the CCDC's data processing and validation procedures.
#
#######################################################################

data_VEVKUE
_chemical_formula_moiety         'C28 H22 Br4 N4,0.5(C1 H1 Cl3)'
_chemical_name_systematic        
'1,3,4,6-tetrakis(4-Bromophenyl)octahydroimidazo[4,5-d]imidazole chloroform solvate'
_symmetry_cell_setting           monoclinic
_symmetry_space_group_name_H-M   'C 2/c'
_symmetry_Int_Tables_number      15
_space_group_name_Hall           '-C 2yn'
loop_
_symmetry_equiv_pos_site_id
_symmetry_equiv_pos_as_xyz
1 x,y,z
2 -x,y,1/2-z
3 1/2+x,1/2+y,z
4 1/2-x,1/2+y,1/2-z
5 -x,-y,-z
6 x,-y,1/2+z
7 1/2-x,1/2-y,-z
8 1/2+x,1/2-y,1/2+z
_cell_length_a                   24.734(2)
_cell_length_b                   9.1667(7)
_cell_length_c                   26.561(2)
_cell_angle_alpha                90
_cell_angle_beta                 104.951(2)
_cell_angle_gamma                90
_cell_volume                     5818.28
_exptl_crystal_colour            colorless
_exptl_crystal_description       block
_cell_formula_units_Z            8
loop_
_atom_site_label
_atom_site_type_symbol
_atom_site_fract_x
_atom_site_fract_y
_atom_site_fract_z
Cl1 Cl 0.5000 -0.7091(5) -0.2500
Cl2 Cl 0.3799(3) -0.7609(7) -0.2664(3)
Cl3 Cl 0.4547(3) -1.0003(6) -0.2483(2)
C29 C 0.4474(6) -0.8151(17) -0.2340(6)
H23 H 0.4514 -0.8061 -0.1964
Cl2A Cl 0.6201(3) -0.7609(7) -0.2336(3)
Cl3A Cl 0.5453(3) -1.0003(6) -0.2517(2)
C29A C 0.5526(6) -0.8151(17) -0.2660(6)
H23A H 0.5486 -0.8061 -0.3036
Br1 Br 0.48014(3) 0.12393(6) 0.09876(3)
Br2 Br 0.26274(3) -1.24779(7) 0.10980(3)
Br3 Br 0.27289(4) -1.11377(11) -0.24965(3)
Br4 Br 0.41065(5) -0.34765(17) -0.27068(4)
N1 N 0.3840(2) -0.4724(5) 0.02557(17)
N2 N 0.34615(19) -0.6965(5) 0.02701(16)
N3 N 0.41536(17) -0.5384(5) -0.05020(16)
N4 N 0.37280(17) -0.7664(5) -0.05037(17)
C1 C 0.4482(2) -0.0592(6) 0.0749(2)
C2 C 0.4357(2) -0.1574(6) 0.1100(2)
H1 H 0.4422 -0.1315 0.1449
C3 C 0.4139(2) -0.2924(6) 0.0938(2)
H2 H 0.4057 -0.3570 0.1178
C4 C 0.4039(2) -0.3334(5) 0.0414(2)
C5 C 0.4151(2) -0.2328(6) 0.0062(2)
H3 H 0.4080 -0.2573 -0.0289
C6 C 0.4368(2) -0.0962(6) 0.0228(2)
H4 H 0.4436 -0.0294 -0.0012
C7 C 0.3670(2) -0.5730(5) 0.0598(2)
H5 H 0.3380 -0.5312 0.0739
H6 H 0.3984 -0.6006 0.0884
C8 C 0.3671(2) -0.5150(5) -0.0284(2)
H7 H 0.3408 -0.4447 -0.0493
C9 C 0.3393(2) -0.6675(5) -0.02778(19)
H8 H 0.2999 -0.6674 -0.0473
C10 C 0.3256(2) -0.8202(6) 0.0458(2)
C11 C 0.2996(2) -0.9315(6) 0.0122(2)
H9 H 0.2948 -0.9216 -0.0235
C12 C 0.2810(2) -1.0560(6) 0.0317(2)
H10 H 0.2638 -1.1293 0.0089
C13 C 0.2877(2) -1.0727(6) 0.0842(2)
C14 C 0.3120(2) -0.9642(6) 0.1181(2)
H11 H 0.3161 -0.9754 0.1537
C15 C 0.3306(2) -0.8378(6) 0.0991(2)
H12 H 0.3466 -0.7638 0.1222
C16 C 0.4275(2) -0.6956(6) -0.0412(2)
H13 H 0.4480 -0.7325 -0.0651
H14 H 0.4495 -0.7126 -0.0058
C17 C 0.3488(2) -0.8404(6) -0.0982(2)
C18 C 0.2920(2) -0.8389(6) -0.1233(2)
H15 H 0.2682 -0.7812 -0.1097
C19 C 0.2701(3) -0.9179(6) -0.1667(2)
H16 H 0.2319 -0.9142 -0.1821
C20 C 0.3039(3) -1.0039(7) -0.1882(2)
C21 C 0.3606(3) -1.0117(10) -0.1637(3)
H17 H 0.3841 -1.0718 -0.1767
C22 C 0.3813(3) -0.9303(8) -0.1204(3)
H18 H 0.4195 -0.9352 -0.1047
C23 C 0.4108(2) -0.4925(5) -0.10256(19)
C24 C 0.3618(2) -0.4649(8) -0.1392(2)
H19 H 0.3280 -0.4748 -0.1304
C25 C 0.3619(3) -0.4230(10) -0.1886(3)
H20 H 0.3282 -0.4047 -0.2130
C26 C 0.4110(3) -0.4077(8) -0.2024(2)
C27 C 0.4604(3) -0.4364(7) -0.1671(2)
H21 H 0.4940 -0.4287 -0.1765
C28 C 0.4601(2) -0.4772(6) -0.1170(2)
H22 H 0.490(2) -0.4923(13) -0.0954(16)
loop_
_geom_bond_atom_site_label_1
_geom_bond_atom_site_label_2
_geom_bond_site_symmetry_1
_geom_bond_site_symmetry_2
Br1 C1 1_555 1_555
Br2 C13 1_555 1_555
Br3 C20 1_555 1_555
Br4 C26 1_555 1_555
N1 C4 1_555 1_555
N2 C7 1_555 1_555
N3 C8 1_555 1_555
N4 C9 1_555 1_555
C1 C2 1_555 1_555
C2 H1 1_555 1_555
C3 C2 1_555 1_555
H2 C3 1_555 1_555
C4 C3 1_555 1_555
C5 C4 1_555 1_555
H3 C5 1_555 1_555
C6 C1 1_555 1_555
H4 C6 1_555 1_555
C7 N1 1_555 1_555
H5 C7 1_555 1_555
H6 C7 1_555 1_555
C8 N1 1_555 1_555
H7 C8 1_555 1_555
C9 N2 1_555 1_555
H8 C9 1_555 1_555
C10 N2 1_555 1_555
C11 C10 1_555 1_555
H9 C11 1_555 1_555
C12 C11 1_555 1_555
H10 C12 1_555 1_555
C13 C12 1_555 1_555
C14 C13 1_555 1_555
H11 C14 1_555 1_555
C15 C10 1_555 1_555
H12 C15 1_555 1_555
C16 N3 1_555 1_555
H13 C16 1_555 1_555
H14 C16 1_555 1_555
C17 N4 1_555 1_555
C18 C17 1_555 1_555
H15 C18 1_555 1_555
C19 C18 1_555 1_555
H16 C19 1_555 1_555
C20 C19 1_555 1_555
C21 C20 1_555 1_555
H17 C21 1_555 1_555
C22 C17 1_555 1_555
H18 C22 1_555 1_555
C23 N3 1_555 1_555
C24 C23 1_555 1_555
H19 C24 1_555 1_555
C25 C24 1_555 1_555
H20 C25 1_555 1_555
C26 C25 1_555 1_555
C27 C26 1_555 1_555
H21 C27 1_555 1_555
C28 C23 1_555 1_555
H22 C28 1_555 1_555
Cl1 C29 1_555 1_555
Cl2 C29 1_555 1_555
Cl3 C29 1_555 1_555
C29 H23 1_555 1_555
Cl2A C29A 1_555 1_555
Cl3A C29A 1_555 1_555
C29A Cl1 1_555 1_555
H23A C29A 1_555 1_555
N4 C16 1_555 1_555
C5 C6 1_555 1_555
C8 C9 1_555 1_555
C14 C15 1_555 1_555
C21 C22 1_555 1_555
C27 C28 1_555 1_555

#END
