
#######################################################################
#
#                 Cambridge Crystallographic Data Centre
#                                CCDC 
#
#######################################################################
#
# If this CIF has been generated from an entry in the Cambridge 
# Structural Database, then it will include bibliographic, chemical, 
# crystal, experimental, refinement or atomic coordinate data resulting 
# from the CCDC's data processing and validation procedures.
#
#######################################################################

data_VEVKOY
_chemical_formula_moiety         'C19 H22 Br2 N2 O2'
_chemical_name_systematic        
1,3-bis(4-Bromophenyl)-4,5-diethoxyimidazolidine
_symmetry_cell_setting           monoclinic
_symmetry_space_group_name_H-M   'P 21/c'
_symmetry_Int_Tables_number      14
_space_group_name_Hall           '-P 2ybc'
loop_
_symmetry_equiv_pos_site_id
_symmetry_equiv_pos_as_xyz
1 x,y,z
2 -x,1/2+y,1/2-z
3 -x,-y,-z
4 x,1/2-y,1/2+z
_cell_length_a                   11.065(3)
_cell_length_b                   11.386(3)
_cell_length_c                   16.025(4)
_cell_angle_alpha                90
_cell_angle_beta                 95.068(4)
_cell_angle_gamma                90
_cell_volume                     2011.03
_exptl_crystal_colour            colorless
_exptl_crystal_description       block
_cell_formula_units_Z            4
loop_
_atom_site_label
_atom_site_type_symbol
_atom_site_fract_x
_atom_site_fract_y
_atom_site_fract_z
Br1 Br 0.37628(5) 0.06659(4) 0.61147(4)
Br2 Br -0.25552(5) -0.95703(5) 0.65304(4)
O1 O 0.4203(2) -0.5622(2) 0.57280(18)
O2 O 0.1652(2) -0.6326(2) 0.42778(18)
N1 N 0.2386(3) -0.4445(3) 0.5651(2)
N2 N 0.1337(3) -0.6126(3) 0.5690(2)
C1 C 0.3316(4) -0.0934(4) 0.5956(3)
C2 C 0.4079(4) -0.1678(4) 0.5596(3)
H1 H 0.4805 -0.1399 0.5421
C3 C 0.3779(4) -0.2836(4) 0.5491(3)
H2 H 0.4301 -0.3338 0.5238
C4 C 0.2702(4) -0.3277(4) 0.5757(2)
C5 C 0.1946(4) -0.2501(4) 0.6121(3)
H3 H 0.1221 -0.2774 0.6301
C6 C 0.2242(4) -0.1331(4) 0.6224(3)
H4 H 0.1725 -0.0819 0.6470
C7 C 0.1282(4) -0.4913(3) 0.5931(3)
H5 H 0.1267 -0.4831 0.6532
H6 H 0.0575 -0.4528 0.5653
C8 C 0.3092(4) -0.5303(4) 0.5263(3)
H7 H 0.3282 -0.4995 0.4719
C9 C 0.2214(4) -0.6326(3) 0.5108(3)
H8 H 0.2634 -0.7073 0.5230
C10 C 0.0422(4) -0.6912(4) 0.5849(3)
C11 C 0.0469(4) -0.8083(4) 0.5613(3)
H9 H 0.1101 -0.8342 0.5313
C12 C -0.0409(5) -0.8864(4) 0.5816(3)
H10 H -0.0367 -0.9646 0.5653
C13 C -0.1343(4) -0.8495(4) 0.6257(3)
C14 C -0.1419(4) -0.7349(4) 0.6477(3)
H11 H -0.2066 -0.7093 0.6762
C15 C -0.0549(4) -0.6569(4) 0.6280(3)
H12 H -0.0611 -0.5788 0.6441
C16 C 0.4109(4) -0.5930(5) 0.6574(3)
H13 H 0.3469 -0.6505 0.6610
H14 H 0.3910 -0.5241 0.6890
C17 C 0.5297(5) -0.6430(5) 0.6929(4)
H15 H 0.5244 -0.6638 0.7505
H16 H 0.5925 -0.5856 0.6893
H17 H 0.5483 -0.7117 0.6618
C18 C 0.2356(5) -0.6887(5) 0.3691(3)
H18 H 0.2583 -0.7669 0.3887
H19 H 0.3092 -0.6442 0.3635
C19 C 0.1648(6) -0.6961(6) 0.2882(3)
H20 H 0.2122 -0.7334 0.2484
H21 H 0.1427 -0.6185 0.2690
H22 H 0.0927 -0.7412 0.2938
loop_
_geom_bond_atom_site_label_1
_geom_bond_atom_site_label_2
_geom_bond_site_symmetry_1
_geom_bond_site_symmetry_2
Br1 C1 1_555 1_555
Br2 C13 1_555 1_555
O1 C8 1_555 1_555
O2 C9 1_555 1_555
N1 C4 1_555 1_555
N2 C7 1_555 1_555
C1 C2 1_555 1_555
C2 H1 1_555 1_555
C3 C2 1_555 1_555
H2 C3 1_555 1_555
C4 C3 1_555 1_555
C5 C4 1_555 1_555
H3 C5 1_555 1_555
C6 C1 1_555 1_555
H4 C6 1_555 1_555
C7 N1 1_555 1_555
H5 C7 1_555 1_555
H6 C7 1_555 1_555
C8 N1 1_555 1_555
H7 C8 1_555 1_555
C9 N2 1_555 1_555
H8 C9 1_555 1_555
C10 N2 1_555 1_555
C11 C10 1_555 1_555
H9 C11 1_555 1_555
C12 C11 1_555 1_555
H10 C12 1_555 1_555
C13 C12 1_555 1_555
C14 C13 1_555 1_555
H11 C14 1_555 1_555
C15 C10 1_555 1_555
H12 C15 1_555 1_555
C16 O1 1_555 1_555
H13 C16 1_555 1_555
H14 C16 1_555 1_555
C17 C16 1_555 1_555
H15 C17 1_555 1_555
H16 C17 1_555 1_555
H17 C17 1_555 1_555
C18 O2 1_555 1_555
H18 C18 1_555 1_555
H19 C18 1_555 1_555
C19 C18 1_555 1_555
H20 C19 1_555 1_555
H21 C19 1_555 1_555
H22 C19 1_555 1_555
C5 C6 1_555 1_555
C8 C9 1_555 1_555
C14 C15 1_555 1_555

#END
