
#######################################################################
#
#                 Cambridge Crystallographic Data Centre
#                                CCDC 
#
#######################################################################
#
# If this CIF has been generated from an entry in the Cambridge 
# Structural Database, then it will include bibliographic, chemical, 
# crystal, experimental, refinement or atomic coordinate data resulting 
# from the CCDC's data processing and validation procedures.
#
#######################################################################

data_VEVLAL
_chemical_formula_moiety         'C17 H22 N4 O2'
_chemical_name_systematic        
3,3'-(4,5-Diethoxyimidazolidine-1,3-diyl)dipyridine
_symmetry_cell_setting           monoclinic
_symmetry_space_group_name_H-M   'P 21/n'
_symmetry_Int_Tables_number      14
_space_group_name_Hall           '-P 2yn'
loop_
_symmetry_equiv_pos_site_id
_symmetry_equiv_pos_as_xyz
1 x,y,z
2 1/2-x,1/2+y,1/2-z
3 -x,-y,-z
4 1/2+x,1/2-y,1/2+z
_cell_length_a                   11.315(2)
_cell_length_b                   9.3139(19)
_cell_length_c                   16.480(3)
_cell_angle_alpha                90
_cell_angle_beta                 99.490(3)
_cell_angle_gamma                90
_cell_volume                     1713.01
_exptl_crystal_colour            colorless
_exptl_crystal_description       block
_cell_formula_units_Z            4
loop_
_atom_site_label
_atom_site_type_symbol
_atom_site_fract_x
_atom_site_fract_y
_atom_site_fract_z
O1 O 0.71166(16) 0.0800(2) 0.20449(12)
O2 O 0.98384(15) 0.27113(18) 0.17160(11)
C1 C 0.8308(2) 0.1646(2) 0.37746(15)
C2 C 0.8900(3) 0.1136(3) 0.45082(17)
H1 H 0.9569 0.0563 0.4493
C3 C 0.7027(3) 0.2796(3) 0.45695(19)
H2 H 0.6376 0.3387 0.4607
C4 C 0.7667(3) 0.2233(3) 0.52599(19)
H3 H 0.7442 0.2445 0.5764
C5 C 0.7326(2) 0.2508(3) 0.38206(17)
H4 H 0.6876 0.2886 0.3345
C6 C 0.9717(2) 0.0417(2) 0.30153(14)
H5 H 1.0453 0.0817 0.3315
H6 H 0.9588 -0.0526 0.3235
C7 C 0.8118(2) 0.1751(3) 0.22606(16)
H7 H 0.7861 0.2756 0.2247
C8 C 0.9078(2) 0.1510(3) 0.17236(15)
H8 H 0.8719 0.1230 0.1164
C9 C 1.06746(19) -0.0342(2) 0.18484(14)
C10 C 1.1474(2) -0.1224(3) 0.23372(17)
H9 H 1.1439 -0.1335 0.2894
N1 N 0.8601(3) 0.1391(3) 0.52427(15)
N2 N 0.87128(19) 0.1353(2) 0.30539(12)
N3 N 0.97533(18) 0.0347(2) 0.21467(12)
N4 N 1.1605(2) -0.0940(3) 0.06781(14)
C11 C 1.2326(3) -0.1937(3) 0.1983(2)
H10 H 1.2884 -0.2522 0.2303
C12 C 1.2350(3) -0.1785(3) 0.1168(2)
H11 H 1.2919 -0.2300 0.0940
C13 C 1.0808(2) -0.0225(3) 0.10292(16)
H12 H 1.0299 0.0403 0.0700
C14 C 0.5203(3) 0.0339(5) 0.1281(3)
H13 H 0.4649 0.0634 0.0806
H14 H 0.4834 0.0438 0.1763
H15 H 0.5422 -0.0646 0.1220
C15 C 0.6285(3) 0.1247(4) 0.1366(3)
H16 H 0.6640 0.1181 0.0871
H17 H 0.6068 0.2241 0.1438
C16 C 1.0284(4) 0.4980(4) 0.1202(3)
H18 H 0.9996 0.5723 0.0816
H19 H 1.1031 0.4616 0.1084
H20 H 1.0401 0.5364 0.1750
C17 C 0.9392(3) 0.3795(3) 0.1135(2)
H21 H 0.8631 0.4155 0.1249
H22 H 0.9267 0.3401 0.0583
loop_
_geom_bond_atom_site_label_1
_geom_bond_atom_site_label_2
_geom_bond_site_symmetry_1
_geom_bond_site_symmetry_2
O1 C7 1_555 1_555
O2 C8 1_555 1_555
C1 C2 1_555 1_555
C2 H1 1_555 1_555
C3 H2 1_555 1_555
C4 C3 1_555 1_555
H3 C4 1_555 1_555
C5 C1 1_555 1_555
H4 C5 1_555 1_555
C6 H5 1_555 1_555
H6 C6 1_555 1_555
C7 H7 1_555 1_555
C8 C7 1_555 1_555
H8 C8 1_555 1_555
C9 C10 1_555 1_555
C10 H9 1_555 1_555
N1 C2 1_555 1_555
N2 C1 1_555 1_555
N3 C6 1_555 1_555
N4 C12 1_555 1_555
C11 C10 1_555 1_555
H10 C11 1_555 1_555
C12 C11 1_555 1_555
H11 C12 1_555 1_555
C13 C9 1_555 1_555
H12 C13 1_555 1_555
C14 H13 1_555 1_555
H14 C14 1_555 1_555
H15 C14 1_555 1_555
C15 O1 1_555 1_555
H16 C15 1_555 1_555
H17 C15 1_555 1_555
C16 H18 1_555 1_555
H19 C16 1_555 1_555
H20 C16 1_555 1_555
C17 O2 1_555 1_555
H21 C17 1_555 1_555
H22 C17 1_555 1_555
C3 C5 1_555 1_555
C4 N1 1_555 1_555
C6 N2 1_555 1_555
C7 N2 1_555 1_555
C8 N3 1_555 1_555
C9 N3 1_555 1_555
N4 C13 1_555 1_555
C14 C15 1_555 1_555
C16 C17 1_555 1_555

#END
