
#######################################################################
#
#                 Cambridge Crystallographic Data Centre
#                                CCDC 
#
#######################################################################
#
# If this CIF has been generated from an entry in the Cambridge 
# Structural Database, then it will include bibliographic, chemical, 
# crystal, experimental, refinement or atomic coordinate data resulting 
# from the CCDC's data processing and validation procedures.
#
#######################################################################

data_VEVLEP
_chemical_formula_moiety         'C13 H12 N4 O4'
_chemical_name_systematic        N,N'-bis(4-Nitrophenyl)methanediamine
_symmetry_cell_setting           hexagonal
_symmetry_space_group_name_H-M   'P 6'
_symmetry_Int_Tables_number      168
_space_group_name_Hall           'P 6'
loop_
_symmetry_equiv_pos_site_id
_symmetry_equiv_pos_as_xyz
1 x,y,z
2 -y,x-y,z
3 -x+y,-x,z
4 -x,-y,z
5 y,-x+y,z
6 x-y,x,z
_cell_length_a                   18.8492(12)
_cell_length_b                   18.8492(12)
_cell_length_c                   4.1092(5)
_cell_angle_alpha                90
_cell_angle_beta                 90
_cell_angle_gamma                120
_cell_volume                     1264.37
_exptl_crystal_colour            salmon
_exptl_crystal_description       block
_cell_formula_units_Z            3
loop_
_atom_site_label
_atom_site_type_symbol
_atom_site_fract_x
_atom_site_fract_y
_atom_site_fract_z
C1 C -0.19281(15) 0.5611(2) 0.3570(6)
C2 C -0.20296(14) 0.48998(18) 0.4952(8)
H1 H -0.2531 0.4417 0.4800
C3 C -0.13848(12) 0.49062(14) 0.6560(7)
H2 H -0.1452 0.4429 0.7519
C4 C -0.06253(12) 0.56340(14) 0.6749(6)
C5 C -0.05425(15) 0.63359(17) 0.5346(8)
H3 H -0.0043 0.6821 0.5473
C6 C -0.11898(18) 0.63271(19) 0.3761(9)
H4 H -0.1128 0.6804 0.2824
C7 C 0.0000 0.5000 1.0119(8)
H5 H -0.053(4) 0.473(3) 1.14(2)
O1 O -0.32468(16) 0.4942(3) 0.1605(11)
O2 O -0.2512(2) 0.6212(2) 0.0521(10)
N1 N -0.26054(17) 0.5583(2) 0.1843(8)
N2 N 0.00307(10) 0.56571(11) 0.8240(5)
H6 H 0.0498 0.6097 0.8042
C1C C 0.19281(15) 0.4389(2) 0.3570(6)
C2C C 0.20296(14) 0.51002(18) 0.4952(8)
H1C H 0.2531 0.5583 0.4800
C3C C 0.13848(12) 0.50938(14) 0.6560(7)
H2C H 0.1452 0.5571 0.7519
C4C C 0.06253(12) 0.43660(14) 0.6749(6)
C5C C 0.05425(15) 0.36641(17) 0.5346(8)
H3C H 0.0043 0.3179 0.5473
C6C C 0.11898(18) 0.36729(19) 0.3761(9)
H4C H 0.1128 0.3196 0.2824
H5C H 0.053(4) 0.527(3) 1.14(2)
O1C O 0.32468(16) 0.5058(3) 0.1605(11)
O2C O 0.2512(2) 0.3788(2) 0.0521(10)
N1C N 0.26054(17) 0.4417(2) 0.1843(8)
N2C N -0.00307(10) 0.43429(11) 0.8240(5)
H6C H -0.0498 0.3903 0.8042
loop_
_geom_bond_atom_site_label_1
_geom_bond_atom_site_label_2
_geom_bond_site_symmetry_1
_geom_bond_site_symmetry_2
C1 C2 1_555 1_555
C2 H1 1_555 1_555
C3 C2 1_555 1_555
H2 C3 1_555 1_555
C4 C3 1_555 1_555
C5 C4 1_555 1_555
H3 C5 1_555 1_555
C6 C1 1_555 1_555
H4 C6 1_555 1_555
C7 H5 1_555 1_555
O1 N1 1_555 1_555
O2 N1 1_555 1_555
N1 C1 1_555 1_555
N2 C4 1_555 1_555
H6 N2 1_555 1_555
C1C C2C 1_555 1_555
C2C H1C 1_555 1_555
C3C C2C 1_555 1_555
H2C C3C 1_555 1_555
C4C C3C 1_555 1_555
C5C C4C 1_555 1_555
H3C C5C 1_555 1_555
C6C C1C 1_555 1_555
H4C C6C 1_555 1_555
H5C C7 1_555 1_555
O1C N1C 1_555 1_555
O2C N1C 1_555 1_555
N1C C1C 1_555 1_555
N2C C7 1_555 1_555
H6C N2C 1_555 1_555
C5 C6 1_555 1_555
C7 N2 1_555 1_555
C4C N2C 1_555 1_555
C5C C6C 1_555 1_555

#END
