
#######################################################################
#
#                 Cambridge Crystallographic Data Centre
#                                CCDC 
#
#######################################################################
#
# If this CIF has been generated from an entry in the Cambridge 
# Structural Database, then it will include bibliographic, chemical, 
# crystal, experimental, refinement or atomic coordinate data resulting 
# from the CCDC's data processing and validation procedures.
#
#######################################################################

data_VEVPUJ
_chemical_formula_moiety         'C16 H14 N3 O3 1+,C4 H3 O4 1-'
_chemical_name_systematic        
'5-Benzoyl-2-((methoxycarbonyl)amino)-1H-benzimidazolium 3-carboxyacrylate'
_symmetry_cell_setting           triclinic
_symmetry_space_group_name_H-M   'P 1'
_symmetry_Int_Tables_number      1
_space_group_name_Hall           'P 1'
loop_
_symmetry_equiv_pos_site_id
_symmetry_equiv_pos_as_xyz
1 x,y,z
_cell_length_a                   8.3845(3)
_cell_length_b                   8.9098(4)
_cell_length_c                   13.2841(7)
_cell_angle_alpha                83.810(4)
_cell_angle_beta                 80.223(4)
_cell_angle_gamma                84.612(3)
_cell_volume                     969.365
_exptl_crystal_colour            white
_exptl_crystal_description       Needle
_cell_formula_units_Z            2
loop_
_atom_site_label
_atom_site_type_symbol
_atom_site_fract_x
_atom_site_fract_y
_atom_site_fract_z
C1 C 0.2084(4) 1.0552(3) 0.1228(2)
C2 C 0.2479(4) 0.9630(4) 0.2067(2)
H1 H 0.3249 0.8780 0.1992
C3 C 0.1694(4) 1.0006(4) 0.3035(2)
C4 C 0.0566(4) 1.1269(4) 0.3124(3)
H2 H 0.0086 1.1525 0.3790
C5 C 0.0130(4) 1.2150(4) 0.2288(2)
H3 H -0.0669 1.2978 0.2360
C6 C 0.0916(4) 1.1771(4) 0.1324(2)
C7 C 0.1849(4) 1.1632(3) -0.0320(2)
C8 C 0.2094(4) 0.9149(4) 0.3998(2)
C9 C 0.2216(4) 0.7459(4) 0.4129(3)
C10 C 0.2681(5) 0.6726(4) 0.5022(3)
H4 H 0.2962 0.7308 0.5515
C11 C 0.2744(6) 0.5171(5) 0.5207(3)
H5 H 0.3052 0.4691 0.5827
C12 C 0.2355(6) 0.4311(5) 0.4486(4)
H6 H 0.2393 0.3239 0.4610
C13 C 0.1914(5) 0.5014(4) 0.3592(3)
H7 H 0.1668 0.4422 0.3093
C14 C 0.1824(4) 0.6580(4) 0.3410(3)
H8 H 0.1496 0.7055 0.2795
C15 C 0.3222(4) 1.1266(4) -0.2019(3)
C16 C 0.4472(5) 1.1236(5) -0.3715(3)
H9 H 0.5526 1.1415 -0.3544
H10 H 0.4377 1.1721 -0.4403
H11 H 0.4386 1.0144 -0.3701
N1 N 0.0769(3) 1.2409(3) 0.0339(2)
N2 N 0.2636(4) 1.0519(3) 0.0180(2)
N3 N 0.2024(3) 1.2012(3) -0.1351(2)
O1 O 0.2246(3) 0.9871(3) 0.47099(18)
O2 O 0.4137(3) 1.0238(3) -0.17474(18)
O3 O 0.3180(3) 1.1869(3) -0.29716(17)
H12 H 0.337(5) 0.992(5) -0.011(4)
H13 H 0.009(5) 1.316(4) 0.009(4)
H14 H 0.119(6) 1.286(5) -0.162(4)
C17 C 0.7493(3) 0.9941(3) 0.1438(2)
C18 C 0.7817(4) 0.9046(4) 0.2302(2)
H15 H 0.8580 0.8187 0.2262
C19 C 0.6960(4) 0.9468(4) 0.3246(2)
C20 C 0.5855(4) 1.0727(4) 0.3292(3)
H16 H 0.5335 1.0999 0.3947
C21 C 0.5474(4) 1.1605(4) 0.2432(2)
H17 H 0.4685 1.2444 0.2474
C22 C 0.6329(4) 1.1176(4) 0.1487(2)
C23 C 0.7335(4) 1.0987(4) -0.0132(2)
C24 C 0.7267(4) 0.8626(4) 0.4237(2)
C25 C 0.7401(4) 0.6952(4) 0.4377(3)
C26 C 0.8002(5) 0.6228(5) 0.5233(3)
H18 H 0.8387 0.6814 0.5685
C27 C 0.8050(6) 0.4671(5) 0.5437(4)
H19 H 0.8451 0.4193 0.6029
C28 C 0.7506(5) 0.3813(5) 0.4769(4)
H20 H 0.7529 0.2742 0.4904
C29 C 0.6936(5) 0.4510(5) 0.3913(3)
H21 H 0.6583 0.3911 0.3456
C30 C 0.6865(4) 0.6075(4) 0.3702(3)
H22 H 0.6460 0.6545 0.3110
C31 C 0.8695(4) 1.0583(4) -0.1842(3)
C32 C 0.9724(5) 1.0488(5) -0.3590(3)
H23 H 1.0752 1.0931 -0.3594
H24 H 0.9376 1.0738 -0.4260
H25 H 0.9873 0.9386 -0.3450
N4 N 0.6243(3) 1.1798(3) 0.0496(2)
N5 N 0.8115(3) 0.9888(3) 0.0395(2)
N6 N 0.7515(4) 1.1322(3) -0.1166(2)
O4 O 0.7327(4) 0.9372(3) 0.49569(19)
O5 O 0.9693(3) 0.9643(3) -0.15771(18)
O6 O 0.8493(3) 1.1097(3) -0.27957(18)
H26 H 0.688(4) 1.205(4) -0.135(2)
H27 H 0.899(5) 0.913(5) 0.010(3)
H28 H 0.558(5) 1.267(5) 0.021(3)
C33 C -0.3926(4) 1.7258(4) 0.0035(3)
C34 C -0.3336(4) 1.7218(4) -0.1081(3)
H29 H -0.3840 1.7987 -0.1501
C35 C -0.2208(4) 1.6283(4) -0.1606(3)
H30 H -0.2058 1.6505 -0.2330
C36 C -0.1164(4) 1.4965(4) -0.1239(3)
O7 O -0.3274(3) 1.6357(3) 0.07144(19)
H31 H -0.2651 1.5685 0.0421
O8 O -0.5039(3) 1.8203(3) 0.0303(2)
O9 O -0.1227(3) 1.4639(3) -0.02737(18)
O10 O -0.0241(3) 1.4265(3) -0.18962(19)
C37 C 0.1540(4) 1.6637(4) 0.0230(3)
C38 C 0.2171(4) 1.6616(4) -0.0889(3)
H32 H 0.1682 1.7396 -0.1308
C39 C 0.3303(4) 1.5697(4) -0.1414(3)
H33 H 0.3455 1.5925 -0.2138
C40 C 0.4360(4) 1.4380(4) -0.1051(3)
O11 O 0.0500(3) 1.7620(3) 0.0505(2)
O12 O 0.2071(3) 1.5623(3) 0.09009(19)
H34 H 0.2821 1.5057 0.0603
O13 O 0.4239(3) 1.4017(3) -0.00796(18)
O14 O 0.5313(3) 1.3698(3) -0.17017(19)
loop_
_geom_bond_atom_site_label_1
_geom_bond_atom_site_label_2
_geom_bond_site_symmetry_1
_geom_bond_site_symmetry_2
C1 C2 1_555 1_555
C2 H1 1_555 1_555
C3 C2 1_555 1_555
C4 C3 1_555 1_555
H2 C4 1_555 1_555
C5 C4 1_555 1_555
H3 C5 1_555 1_555
C6 C1 1_555 1_555
C7 N1 1_555 1_555
C8 C3 1_555 1_555
C9 C8 1_555 1_555
C10 C9 1_555 1_555
H4 C10 1_555 1_555
C11 C10 1_555 1_555
H5 C11 1_555 1_555
C12 C11 1_555 1_555
H6 C12 1_555 1_555
C13 C12 1_555 1_555
H7 C13 1_555 1_555
C14 C9 1_555 1_555
H8 C14 1_555 1_555
C15 N3 1_555 1_555
C16 H9 1_555 1_555
H10 C16 1_555 1_555
H11 C16 1_555 1_555
N1 C6 1_555 1_555
N2 C1 1_555 1_555
N3 C7 1_555 1_555
O1 C8 1_555 1_555
O2 C15 1_555 1_555
O3 C15 1_555 1_555
H12 N2 1_555 1_555
H13 N1 1_555 1_555
H14 N3 1_555 1_555
C17 C18 1_555 1_555
C18 H15 1_555 1_555
C19 C18 1_555 1_555
C20 C19 1_555 1_555
H16 C20 1_555 1_555
C21 C20 1_555 1_555
H17 C21 1_555 1_555
C22 C17 1_555 1_555
C23 N4 1_555 1_555
C24 C19 1_555 1_555
C25 C24 1_555 1_555
C26 C25 1_555 1_555
H18 C26 1_555 1_555
C27 C26 1_555 1_555
H19 C27 1_555 1_555
C28 C27 1_555 1_555
H20 C28 1_555 1_555
C29 C28 1_555 1_555
H21 C29 1_555 1_555
C30 C25 1_555 1_555
H22 C30 1_555 1_555
C31 N6 1_555 1_555
C32 H23 1_555 1_555
H24 C32 1_555 1_555
H25 C32 1_555 1_555
N4 C22 1_555 1_555
N5 C17 1_555 1_555
N6 C23 1_555 1_555
O4 C24 1_555 1_555
O5 C31 1_555 1_555
O6 C31 1_555 1_555
H26 N6 1_555 1_555
H27 N5 1_555 1_555
H28 N4 1_555 1_555
C33 C34 1_555 1_555
C34 H29 1_555 1_555
C35 C34 1_555 1_555
H30 C35 1_555 1_555
C36 C35 1_555 1_555
O7 C33 1_555 1_555
H31 O7 1_555 1_555
O8 C33 1_555 1_555
O9 C36 1_555 1_555
O10 C36 1_555 1_555
C37 C38 1_555 1_555
C38 H32 1_555 1_555
C39 C38 1_555 1_555
H33 C39 1_555 1_555
C40 C39 1_555 1_555
O11 C37 1_555 1_555
O12 C37 1_555 1_555
H34 O12 1_555 1_555
O13 C40 1_555 1_555
O14 C40 1_555 1_555
C5 C6 1_555 1_555
C7 N2 1_555 1_555
C13 C14 1_555 1_555
C16 O3 1_555 1_555
C21 C22 1_555 1_555
C23 N5 1_555 1_555
C29 C30 1_555 1_555
C32 O6 1_555 1_555

#END
