
#######################################################################
#
#                 Cambridge Crystallographic Data Centre
#                                CCDC 
#
#######################################################################
#
# If this CIF has been generated from an entry in the Cambridge 
# Structural Database, then it will include bibliographic, chemical, 
# crystal, experimental, refinement or atomic coordinate data resulting 
# from the CCDC's data processing and validation procedures.
#
#######################################################################

data_VEVTAU
_chemical_compound_source        'cultures of the fungus Aspergillus versicolor'
_chemical_name_common            'versicoamide A'
_chemical_formula_moiety         'C26 H29 N3 O4'
_chemical_name_systematic        
3-hydroxy-9,9,16,16-tetramethyl-8-oxa-14,23,25-triazaheptacyclo[17.5.2.0^1,17^.0^3,15^.0^4,13^.0^7,12^.0^19,23^]hexacosa-4,6,10,12,14-pentaene-24,26-dione
_symmetry_cell_setting           orthorhombic
_symmetry_space_group_name_H-M   'P 21 21 21'
_symmetry_Int_Tables_number      19
_space_group_name_Hall           'P 2ac 2ab'
loop_
_symmetry_equiv_pos_site_id
_symmetry_equiv_pos_as_xyz
1 x,y,z
2 1/2-x,-y,1/2+z
3 1/2+x,1/2-y,-z
4 -x,1/2+y,1/2-z
_cell_length_a                   11.3752(11)
_cell_length_b                   17.0188(16)
_cell_length_c                   24.660(2)
_cell_angle_alpha                90
_cell_angle_beta                 90
_cell_angle_gamma                90
_cell_volume                     4773.98
_exptl_crystal_colour            colorless
_exptl_crystal_description       block
_cell_formula_units_Z            8
loop_
_atom_site_label
_atom_site_type_symbol
_atom_site_fract_x
_atom_site_fract_y
_atom_site_fract_z
O1 O 0.4628(2) 0.06892(16) 0.60475(12)
O2 O 0.7985(2) 0.19068(18) 0.71349(11)
O3 O 0.2909(3) 0.17015(16) 0.57615(12)
H1 H 0.3416 0.1361 0.5790
O4 O -0.0384(3) 0.4534(2) 0.63739(16)
N1 N 0.6574(3) 0.09840(18) 0.60754(13)
N2 N 0.6076(3) 0.20101(19) 0.68552(12)
H2 H 0.5795 0.2124 0.7169
N3 N 0.3384(3) 0.36433(19) 0.56223(13)
C1 C 0.5449(4) 0.1151(2) 0.61479(15)
C2 C 0.7446(4) 0.1601(2) 0.62032(15)
C3 C 0.7217(4) 0.1847(2) 0.67887(15)
C4 C 0.5317(3) 0.1986(2) 0.63703(14)
C5 C 0.4068(3) 0.2215(2) 0.65284(15)
H3 H 0.4099 0.2678 0.6758
H4 H 0.3725 0.1793 0.6740
C6 C 0.3271(3) 0.2386(2) 0.60441(15)
C7 C 0.3914(3) 0.2976(2) 0.56798(14)
C8 C 0.2310(3) 0.3585(2) 0.59307(16)
C9 C 0.1459(4) 0.4171(2) 0.59736(17)
C10 C 0.0483(4) 0.3985(3) 0.62858(19)
C11 C -0.0539(5) 0.5165(3) 0.5986(2)
C12 C 0.0613(5) 0.5420(3) 0.5760(2)
H5 H 0.0688 0.5930 0.5630
C13 C 0.1538(4) 0.4946(3) 0.57389(19)
H6 H 0.2230 0.5112 0.5574
C14 C -0.1125(6) 0.5806(4) 0.6308(3)
H7 H -0.0620 0.5963 0.6600
H8 H -0.1855 0.5614 0.6452
H9 H -0.1274 0.6248 0.6076
C15 C -0.1347(6) 0.4857(4) 0.5535(3)
H10 H -0.2109 0.4745 0.5683
H11 H -0.1018 0.4386 0.5384
H12 H -0.1419 0.5248 0.5256
C16 C 0.0365(4) 0.3272(3) 0.65448(19)
H13 H -0.0301 0.3169 0.6752
C17 C 0.1232(4) 0.2709(3) 0.64975(18)
H14 H 0.1157 0.2228 0.6673
C18 C 0.2207(3) 0.2868(2) 0.61884(16)
C19 C 0.5142(3) 0.2811(2) 0.54655(15)
C20 C 0.5880(3) 0.2590(2) 0.59719(15)
H15 H 0.5960 0.3077 0.6180
C21 C 0.7162(3) 0.2318(2) 0.58483(15)
H16 H 0.7236 0.2181 0.5468
H17 H 0.7709 0.2741 0.5926
C22 C 0.5671(4) 0.3541(3) 0.52078(17)
H18 H 0.5695 0.3957 0.5470
H19 H 0.5197 0.3699 0.4905
H20 H 0.6454 0.3427 0.5086
C23 C 0.5082(4) 0.2151(3) 0.50396(15)
H21 H 0.4526 0.2291 0.4763
H22 H 0.4838 0.1672 0.5211
H23 H 0.5843 0.2080 0.4879
C24 C 0.8617(4) 0.1183(2) 0.61014(17)
H24 H 0.9177 0.1536 0.5932
H25 H 0.8948 0.0991 0.6439
C25 C 0.8319(4) 0.0506(3) 0.57253(19)
H26 H 0.8335 0.0676 0.5350
H27 H 0.8875 0.0079 0.5771
C26 C 0.7102(4) 0.0248(3) 0.5884(2)
H28 H 0.6676 0.0037 0.5576
H29 H 0.7125 -0.0143 0.6170
O5 O 0.6330(3) 0.7412(2) 0.43856(13)
O6 O 0.9588(2) 0.78197(17) 0.30067(11)
O7 O 0.4476(3) 0.6566(2) 0.40292(12)
H30 H 0.4970 0.6837 0.4183
O8 O 0.0977(3) 0.58648(17) 0.21078(12)
N4 N 0.8235(3) 0.7149(3) 0.41764(14)
N5 N 0.7663(3) 0.75370(18) 0.31677(13)
H31 H 0.7389 0.7868 0.2936
N6 N 0.4754(3) 0.5283(2) 0.29843(15)
C27 C 0.7106(4) 0.7205(3) 0.40640(18)
C28 C 0.9034(4) 0.6923(3) 0.37367(17)
C29 C 0.8809(4) 0.7486(2) 0.32716(16)
C30 C 0.6890(3) 0.6999(2) 0.34685(15)
C31 C 0.5629(3) 0.7123(2) 0.32822(16)
H32 H 0.5614 0.7142 0.2889
H33 H 0.5356 0.7628 0.3415
C32 C 0.4780(4) 0.6482(3) 0.34757(17)
C33 C 0.5343(4) 0.5689(2) 0.33325(18)
C34 C 0.3704(4) 0.5727(2) 0.28629(18)
C35 C 0.2821(4) 0.5497(2) 0.25150(17)
C36 C 0.1888(4) 0.6023(2) 0.24598(18)
C37 C 0.0723(4) 0.5038(3) 0.19957(18)
C38 C 0.1830(4) 0.4588(3) 0.19333(19)
H34 H 0.1838 0.4152 0.1706
C39 C 0.2807(4) 0.4786(2) 0.21899(19)
H35 H 0.3475 0.4474 0.2162
C40 C -0.0013(5) 0.4720(3) 0.2460(2)
H36 H -0.0725 0.5020 0.2489
H37 H 0.0423 0.4759 0.2792
H38 H -0.0204 0.4179 0.2391
C41 C 0.0020(5) 0.5055(3) 0.1476(2)
H39 H 0.0507 0.5243 0.1186
H40 H -0.0642 0.5399 0.1520
H41 H -0.0251 0.4535 0.1393
C42 C 0.1851(4) 0.6727(3) 0.27336(18)
H42 H 0.1208 0.7059 0.2691
C43 C 0.2763(4) 0.6944(3) 0.30718(17)
H43 H 0.2751 0.7424 0.3252
C44 C 0.3684(4) 0.6434(2) 0.31353(17)
C45 C 0.6555(4) 0.5470(3) 0.35263(18)
C46 C 0.7350(3) 0.6162(2) 0.33418(17)
H44 H 0.7375 0.6128 0.2945
C47 C 0.8645(4) 0.6108(2) 0.3527(2)
H45 H 0.8723 0.5721 0.3813
H46 H 0.9139 0.5949 0.3226
C48 C 0.6969(4) 0.4722(2) 0.3230(2)
H47 H 0.6962 0.4812 0.2846
H48 H 0.6450 0.4295 0.3316
H49 H 0.7753 0.4593 0.3345
C49 C 0.6581(5) 0.5323(3) 0.4138(2)
H50 H 0.6042 0.4908 0.4227
H51 H 0.6356 0.5794 0.4326
H52 H 0.7361 0.5175 0.4246
C50 C 1.0246(4) 0.6981(3) 0.4003(2)
H53 H 1.0843 0.7131 0.3742
H54 H 1.0469 0.6488 0.4171
C51 C 1.0046(9) 0.7658(9) 0.4449(4)
H55 H 1.0661 0.7664 0.4721
H56 H 0.9970 0.8174 0.4286
C52 C 0.8860(6) 0.7350(5) 0.4677(2)
H57 H 0.8973 0.6892 0.4906
H58 H 0.8449 0.7753 0.4881
H59? H 1.0802 0.6634 0.3824
H60? H 1.0542 0.7514 0.3986
C53? C 1.0056(10) 0.6738(10) 0.4568(4)
H61? H 1.0718 0.6863 0.4800
H62? H 0.9857 0.6186 0.4600
H63? H 0.8420 0.7207 0.5000
H64? H 0.9080 0.7900 0.4693
loop_
_geom_bond_atom_site_label_1
_geom_bond_atom_site_label_2
_geom_bond_site_symmetry_1
_geom_bond_site_symmetry_2
O1 C1 1_555 1_555
O2 C3 1_555 1_555
O3 H1 1_555 1_555
O4 C10 1_555 1_555
N1 C1 1_555 1_555
N2 H2 1_555 1_555
N3 C7 1_555 1_555
C1 C4 1_555 1_555
C2 N1 1_555 1_555
C3 N2 1_555 1_555
C4 N2 1_555 1_555
C5 C4 1_555 1_555
H3 C5 1_555 1_555
H4 C5 1_555 1_555
C6 O3 1_555 1_555
C7 C6 1_555 1_555
C8 N3 1_555 1_555
C9 C8 1_555 1_555
C10 C9 1_555 1_555
C11 O4 1_555 1_555
C12 C11 1_555 1_555
H5 C12 1_555 1_555
C13 C9 1_555 1_555
H6 C13 1_555 1_555
C14 C11 1_555 1_555
H7 C14 1_555 1_555
H8 C14 1_555 1_555
H9 C14 1_555 1_555
C15 C11 1_555 1_555
H10 C15 1_555 1_555
H11 C15 1_555 1_555
H12 C15 1_555 1_555
C16 C10 1_555 1_555
H13 C16 1_555 1_555
C17 C16 1_555 1_555
H14 C17 1_555 1_555
C18 C6 1_555 1_555
C19 C7 1_555 1_555
C20 C4 1_555 1_555
H15 C20 1_555 1_555
C21 C2 1_555 1_555
H16 C21 1_555 1_555
H17 C21 1_555 1_555
C22 C19 1_555 1_555
H18 C22 1_555 1_555
H19 C22 1_555 1_555
H20 C22 1_555 1_555
C23 C19 1_555 1_555
H21 C23 1_555 1_555
H22 C23 1_555 1_555
H23 C23 1_555 1_555
C24 C2 1_555 1_555
H24 C24 1_555 1_555
H25 C24 1_555 1_555
C25 C24 1_555 1_555
H26 C25 1_555 1_555
H27 C25 1_555 1_555
C26 N1 1_555 1_555
H28 C26 1_555 1_555
H29 C26 1_555 1_555
O5 C27 1_555 1_555
O6 C29 1_555 1_555
O7 H30 1_555 1_555
O8 C36 1_555 1_555
N4 C27 1_555 1_555
N5 H31 1_555 1_555
N6 C33 1_555 1_555
C27 C30 1_555 1_555
C28 N4 1_555 1_555
C29 N5 1_555 1_555
C30 N5 1_555 1_555
C31 C30 1_555 1_555
H32 C31 1_555 1_555
H33 C31 1_555 1_555
C32 O7 1_555 1_555
C33 C32 1_555 1_555
C34 N6 1_555 1_555
C35 C34 1_555 1_555
C36 C35 1_555 1_555
C37 O8 1_555 1_555
C38 C37 1_555 1_555
H34 C38 1_555 1_555
C39 C35 1_555 1_555
H35 C39 1_555 1_555
C40 C37 1_555 1_555
H36 C40 1_555 1_555
H37 C40 1_555 1_555
H38 C40 1_555 1_555
C41 C37 1_555 1_555
H39 C41 1_555 1_555
H40 C41 1_555 1_555
H41 C41 1_555 1_555
C42 C36 1_555 1_555
H42 C42 1_555 1_555
C43 C42 1_555 1_555
H43 C43 1_555 1_555
C44 C32 1_555 1_555
C45 C33 1_555 1_555
C46 C30 1_555 1_555
H44 C46 1_555 1_555
C47 C28 1_555 1_555
H45 C47 1_555 1_555
H46 C47 1_555 1_555
C48 C45 1_555 1_555
H47 C48 1_555 1_555
H48 C48 1_555 1_555
H49 C48 1_555 1_555
C49 C45 1_555 1_555
H50 C49 1_555 1_555
H51 C49 1_555 1_555
H52 C49 1_555 1_555
C50 C28 1_555 1_555
H53 C50 1_555 1_555
H54 C50 1_555 1_555
C51 C50 1_555 1_555
H55 C51 1_555 1_555
H56 C51 1_555 1_555
C52 N4 1_555 1_555
H57 C52 1_555 1_555
H58 C52 1_555 1_555
C2 C3 1_555 1_555
C5 C6 1_555 1_555
C8 C18 1_555 1_555
C12 C13 1_555 1_555
C17 C18 1_555 1_555
C19 C20 1_555 1_555
C20 C21 1_555 1_555
C25 C26 1_555 1_555
C28 C29 1_555 1_555
C31 C32 1_555 1_555
C34 C44 1_555 1_555
C38 C39 1_555 1_555
C43 C44 1_555 1_555
C45 C46 1_555 1_555
C46 C47 1_555 1_555
C51 C52 1_555 1_555

#END
