
#######################################################################
#
#                 Cambridge Crystallographic Data Centre
#                                CCDC 
#
#######################################################################
#
# If this CIF has been generated from an entry in the Cambridge 
# Structural Database, then it will include bibliographic, chemical, 
# crystal, experimental, refinement or atomic coordinate data resulting 
# from the CCDC's data processing and validation procedures.
#
#######################################################################

data_VEVWAX
_chemical_formula_moiety         'C26 H29 N3 O3 S1'
_chemical_name_systematic        
N-{3-[(2-hydroxypropyl)(4-methylphenyl)amino]-1-methyl-1H-indol-2-yl}-4-methylbenzene-1-sulfonamide
_symmetry_cell_setting           monoclinic
_symmetry_space_group_name_H-M   'P 21/c'
_symmetry_Int_Tables_number      14
_space_group_name_Hall           '-P 2ybc'
loop_
_symmetry_equiv_pos_site_id
_symmetry_equiv_pos_as_xyz
1 x,y,z
2 -x,1/2+y,1/2-z
3 -x,-y,-z
4 x,1/2-y,1/2+z
_cell_length_a                   12.1615(7)
_cell_length_b                   11.8908(7)
_cell_length_c                   16.8761(14)
_cell_angle_alpha                90
_cell_angle_beta                 98.719(7)
_cell_angle_gamma                90
_cell_volume                     2412.25
_exptl_crystal_colour            colorless
_exptl_crystal_description       block
_cell_formula_units_Z            4
loop_
_atom_site_label
_atom_site_type_symbol
_atom_site_fract_x
_atom_site_fract_y
_atom_site_fract_z
S1 S 0.42435(5) 0.42517(6) 0.22197(4)
O1 O 0.43264(16) 0.54433(15) 0.21569(12)
O2 O 0.50264(15) 0.35590(18) 0.19092(13)
O3 O 0.42877(14) 0.17062(15) 0.36963(13)
H1 H 0.461(2) 0.123(2) 0.3427(17)
N1 N 0.41091(16) 0.54771(16) 0.40463(13)
N2 N 0.43652(14) 0.39369(17) 0.31654(13)
H2 H 0.4314 0.3221 0.3221
N3 N 0.22901(13) 0.30736(14) 0.37924(10)
C1 C 0.1790(2) 0.5004(2) 0.50558(15)
H3 H 0.1227 0.4470 0.5037
C2 C 0.1850(3) 0.5878(3) 0.55809(17)
H4 H 0.1331 0.5930 0.5932
C3 C 0.2659(4) 0.6684(3) 0.56031(19)
H5 H 0.2674 0.7267 0.5972
C4 C 0.3442(3) 0.6663(2) 0.51049(18)
H6 H 0.3978 0.7224 0.5118
C5 C 0.3402(2) 0.5761(2) 0.45755(14)
C6 C 0.25849(19) 0.49229(18) 0.45487(13)
C7 C 0.28154(16) 0.41213(17) 0.39691(13)
C8 C 0.37386(17) 0.44866(18) 0.36808(14)
C9 C 0.11867(15) 0.30449(17) 0.34034(12)
C10 C 0.05831(17) 0.20539(19) 0.33229(14)
H7 H 0.0906 0.1392 0.3541
C11 C -0.05017(19) 0.2038(2) 0.29183(15)
H8 H -0.0890 0.1362 0.2874
C12 C -0.10136(18) 0.2981(3) 0.25853(14)
C13 C -0.04060(19) 0.3969(2) 0.26641(14)
H9 H -0.0733 0.4627 0.2443
C14 C 0.06731(17) 0.4004(2) 0.30616(13)
H10 H 0.1060 0.4681 0.3100
C15 C -0.2205(2) 0.2943(3) 0.21558(19)
H11 H -0.2648 0.3472 0.2399
H12 H -0.2501 0.2200 0.2196
H13 H -0.2220 0.3133 0.1601
C16 C 0.27145(17) 0.21333(18) 0.43029(13)
H14 H 0.2098 0.1796 0.4521
H15 H 0.3232 0.2424 0.4750
C17 C 0.32915(17) 0.12254(19) 0.38971(14)
H16 H 0.2812 0.0995 0.3404
C18 C 0.3542(2) 0.0219(2) 0.44317(17)
H17 H 0.3954 -0.0322 0.4173
H18 H 0.2857 -0.0113 0.4534
H19 H 0.3974 0.0448 0.4929
C19 C 0.2914(2) 0.3873(2) 0.17602(15)
C20 C 0.2595(2) 0.2759(2) 0.17663(16)
H20 H 0.3075 0.2220 0.2025
C21 C 0.1551(3) 0.2458(3) 0.13824(17)
H21 H 0.1329 0.1711 0.1395
C22 C 0.0840(3) 0.3222(4) 0.09869(18)
C23 C 0.1169(3) 0.4327(4) 0.09872(18)
H22 H 0.0685 0.4860 0.0726
C24 C 0.2200(3) 0.4662(3) 0.13664(17)
H23 H 0.2412 0.5413 0.1357
C25 C -0.0290(3) 0.2881(4) 0.0561(2)
H24 H -0.0242 0.2713 0.0011
H25 H -0.0806 0.3486 0.0585
H26 H -0.0541 0.2227 0.0815
C26 C 0.5130(2) 0.6063(2) 0.39584(19)
H27 H 0.5561 0.5611 0.3647
H28 H 0.5552 0.6198 0.4478
H29 H 0.4954 0.6768 0.3692
loop_
_geom_bond_atom_site_label_1
_geom_bond_atom_site_label_2
_geom_bond_site_symmetry_1
_geom_bond_site_symmetry_2
S1 O1 1_555 1_555
O2 S1 1_555 1_555
O3 H1 1_555 1_555
N1 C5 1_555 1_555
N2 S1 1_555 1_555
H2 N2 1_555 1_555
N3 C7 1_555 1_555
C1 H3 1_555 1_555
C2 C1 1_555 1_555
H4 C2 1_555 1_555
C3 C2 1_555 1_555
H5 C3 1_555 1_555
C4 C3 1_555 1_555
H6 C4 1_555 1_555
C5 C4 1_555 1_555
C6 C1 1_555 1_555
C7 C6 1_555 1_555
C8 N1 1_555 1_555
C9 N3 1_555 1_555
C10 C9 1_555 1_555
H7 C10 1_555 1_555
C11 C10 1_555 1_555
H8 C11 1_555 1_555
C12 C11 1_555 1_555
C13 C12 1_555 1_555
H9 C13 1_555 1_555
C14 C9 1_555 1_555
H10 C14 1_555 1_555
C15 C12 1_555 1_555
H11 C15 1_555 1_555
H12 C15 1_555 1_555
H13 C15 1_555 1_555
C16 N3 1_555 1_555
H14 C16 1_555 1_555
H15 C16 1_555 1_555
C17 O3 1_555 1_555
H16 C17 1_555 1_555
C18 C17 1_555 1_555
H17 C18 1_555 1_555
H18 C18 1_555 1_555
H19 C18 1_555 1_555
C19 S1 1_555 1_555
C20 C19 1_555 1_555
H20 C20 1_555 1_555
C21 C20 1_555 1_555
H21 C21 1_555 1_555
C22 C21 1_555 1_555
C23 C22 1_555 1_555
H22 C23 1_555 1_555
C24 C19 1_555 1_555
H23 C24 1_555 1_555
C25 C22 1_555 1_555
H24 C25 1_555 1_555
H25 C25 1_555 1_555
H26 C25 1_555 1_555
C26 N1 1_555 1_555
H27 C26 1_555 1_555
H28 C26 1_555 1_555
H29 C26 1_555 1_555
N2 C8 1_555 1_555
C5 C6 1_555 1_555
C7 C8 1_555 1_555
C13 C14 1_555 1_555
C16 C17 1_555 1_555
C23 C24 1_555 1_555

#END
