
#######################################################################
#
#                 Cambridge Crystallographic Data Centre
#                                CCDC 
#
#######################################################################
#
# If this CIF has been generated from an entry in the Cambridge 
# Structural Database, then it will include bibliographic, chemical, 
# crystal, experimental, refinement or atomic coordinate data resulting 
# from the CCDC's data processing and validation procedures.
#
#######################################################################

data_VEVZUR
_chemical_formula_moiety         'C20 H30 N4 O4 Si1'
_chemical_name_systematic        
8-Trimethylsilyl-1-(N'-(2,4-dinitrophenylhydrazono)ethyl)-bicyclo(4.3.0)nonane
_symmetry_cell_setting           monoclinic
_symmetry_space_group_name_H-M   'P 21/n'
_symmetry_Int_Tables_number      14
_space_group_name_Hall           '-P 2yn'
loop_
_symmetry_equiv_pos_site_id
_symmetry_equiv_pos_as_xyz
1 x,y,z
2 1/2-x,1/2+y,1/2-z
3 -x,-y,-z
4 1/2+x,1/2-y,1/2+z
_cell_length_a                   7.473(2)
_cell_length_b                   7.562(2)
_cell_length_c                   39.977(10)
_cell_angle_alpha                90
_cell_angle_beta                 94.94(2)
_cell_angle_gamma                90
_cell_volume                     2250.74
_exptl_crystal_colour            yellow
_cell_formula_units_Z            4
loop_
_atom_site_label
_atom_site_type_symbol
_atom_site_fract_x
_atom_site_fract_y
_atom_site_fract_z
Si1 Si 0.0203(1) 0.3965(1) 0.20608(2)
N1 N 0.2694(3) 0.1309(3) 0.06997(4)
N2 N 0.2967(3) 0.1676(3) 0.03674(4)
N3 N 0.3545(3) 0.2280(3) -0.03411(5)
N4 N 0.1232(3) -0.3589(3) -0.05939(5)
O1 O 0.3867(3) 0.3539(2) -0.01463(4)
O2 O 0.3812(3) 0.2359(3) -0.06383(4)
O3 O 0.1694(3) -0.3395(3) -0.08791(4)
O4 O 0.0379(3) -0.4883(3) -0.05076(4)
C1 C 0.2897(3) 0.2146(3) 0.12802(5)
C2 C 0.4772(4) 0.1983(4) 0.14792(6)
C3 C 0.5711(4) 0.0235(4) 0.14197(7)
C4 C 0.4586(4) -0.1329(4) 0.15151(7)
C5 C 0.2762(4) -0.1295(3) 0.13135(6)
C6 C 0.1779(3) 0.0460(3) 0.13367(5)
C7 C 0.1049(3) 0.0856(3) 0.16759(6)
C8 C 0.0483(4) 0.2813(3) 0.16527(6)
C9 C 0.1819(3) 0.3674(3) 0.14314(5)
C10 C 0.3160(3) 0.2522(3) 0.09147(6)
C11 C 0.3936(4) 0.4274(3) 0.08256(6)
C12 C 0.2582(3) 0.0412(3) 0.01328(5)
C13 C 0.2833(3) 0.0650(3) -0.02125(5)
C14 C 0.2402(3) -0.0667(3) -0.04473(5)
C15 C 0.1725(3) -0.2229(3) -0.03450(5)
C16 C 0.1476(3) -0.2539(3) -0.00068(6)
C17 C 0.1904(3) -0.1246(3) 0.02246(5)
C18 C -0.1369(5) 0.2656(5) 0.22998(7)
C19 C 0.2422(5) 0.4149(5) 0.23078(7)
C20 C -0.0759(5) 0.6190(4) 0.19697(8)
H1 H 0.3398 0.2734 0.0310
H2 H 0.4637 0.2089 0.1715
H3 H 0.5513 0.2943 0.1416
H4 H 0.6863 0.0203 0.1546
H5 H 0.5900 0.0149 0.1186
H6 H 0.4425 -0.1268 0.1750
H7 H 0.5199 -0.2412 0.1474
H8 H 0.2028 -0.2218 0.1394
H9 H 0.2925 -0.1540 0.1083
H10 H 0.0775 0.0461 0.1170
H11 H 0.1972 0.0692 0.1856
H12 H 0.0050 0.0103 0.1712
H13 H -0.0669 0.2842 0.1526
H14 H 0.1205 0.4358 0.1255
H15 H 0.2616 0.4438 0.1566
H16 H 0.4996 0.4110 0.0709
H17 H 0.3055 0.4914 0.0685
H18 H 0.4236 0.4930 0.1028
H19 H 0.2584 -0.0477 -0.0679
H20 H 0.1003 -0.3651 0.0061
H21 H 0.1746 -0.1467 0.0457
H22 H -0.2512 0.2567 0.2172
H23 H -0.0885 0.1493 0.2341
H24 H -0.1519 0.3231 0.2510
H25 H 0.2279 0.4740 0.2516
H26 H 0.2903 0.2988 0.2352
H27 H 0.3229 0.4814 0.2182
H28 H -0.1902 0.6070 0.1843
H29 H -0.0912 0.6796 0.2176
H30 H 0.0039 0.6855 0.1842
loop_
_geom_bond_atom_site_label_1
_geom_bond_atom_site_label_2
_geom_bond_site_symmetry_1
_geom_bond_site_symmetry_2
Si1 C8 1_555 1_555
N1 N2 1_555 1_555
N2 C12 1_555 1_555
N3 O1 1_555 1_555
N4 O3 1_555 1_555
O2 N3 1_555 1_555
O4 N4 1_555 1_555
C1 C2 1_555 1_555
C2 C3 1_555 1_555
C3 C4 1_555 1_555
C4 C5 1_555 1_555
C5 C6 1_555 1_555
C6 C1 1_555 1_555
C7 C6 1_555 1_555
C8 C7 1_555 1_555
C9 C1 1_555 1_555
C10 N1 1_555 1_555
C11 C10 1_555 1_555
C12 C13 1_555 1_555
C13 N3 1_555 1_555
C14 C13 1_555 1_555
C15 N4 1_555 1_555
C16 C15 1_555 1_555
C17 C12 1_555 1_555
C18 Si1 1_555 1_555
C19 Si1 1_555 1_555
C20 Si1 1_555 1_555
H1 N2 1_555 1_555
H2 C2 1_555 1_555
H3 C2 1_555 1_555
H4 C3 1_555 1_555
H5 C3 1_555 1_555
H6 C4 1_555 1_555
H7 C4 1_555 1_555
H8 C5 1_555 1_555
H9 C5 1_555 1_555
H10 C6 1_555 1_555
H11 C7 1_555 1_555
H12 C7 1_555 1_555
H13 C8 1_555 1_555
H14 C9 1_555 1_555
H15 C9 1_555 1_555
H16 C11 1_555 1_555
H17 C11 1_555 1_555
H18 C11 1_555 1_555
H19 C14 1_555 1_555
H20 C16 1_555 1_555
H21 C17 1_555 1_555
H22 C18 1_555 1_555
H23 C18 1_555 1_555
H24 C18 1_555 1_555
H25 C19 1_555 1_555
H26 C19 1_555 1_555
H27 C19 1_555 1_555
H28 C20 1_555 1_555
H29 C20 1_555 1_555
H30 C20 1_555 1_555
C1 C10 1_555 1_555
C8 C9 1_555 1_555
C14 C15 1_555 1_555
C16 C17 1_555 1_555

#END
