
#######################################################################
#
#                 Cambridge Crystallographic Data Centre
#                                CCDC 
#
#######################################################################
#
# If this CIF has been generated from an entry in the Cambridge 
# Structural Database, then it will include bibliographic, chemical, 
# crystal, experimental, refinement or atomic coordinate data resulting 
# from the CCDC's data processing and validation procedures.
#
#######################################################################

data_VEWCEI
_chemical_formula_moiety         'C13 H12 F3 N1 O2'
_chemical_name_systematic        
1,1,1-trifluoro-3-(7-methoxy-3,4-dihydroisoquinolin-1(2H)-ylidene)propan-2-one
_symmetry_cell_setting           monoclinic
_symmetry_space_group_name_H-M   'C 2/c'
_symmetry_Int_Tables_number      15
_space_group_name_Hall           '-C 2yn'
loop_
_symmetry_equiv_pos_site_id
_symmetry_equiv_pos_as_xyz
1 x,y,z
2 -x,y,1/2-z
3 1/2+x,1/2+y,z
4 1/2-x,1/2+y,1/2-z
5 -x,-y,-z
6 x,-y,1/2+z
7 1/2-x,1/2-y,-z
8 1/2+x,1/2-y,1/2+z
_cell_length_a                   17.9537(9)
_cell_length_b                   7.1369(3)
_cell_length_c                   21.8227(14)
_cell_angle_alpha                90
_cell_angle_beta                 112.706(3)
_cell_angle_gamma                90
_cell_volume                     2579.51
_exptl_crystal_colour            silver
_exptl_crystal_description       block
_cell_formula_units_Z            8
loop_
_atom_site_label
_atom_site_type_symbol
_atom_site_fract_x
_atom_site_fract_y
_atom_site_fract_z
F4 F 0.9922(3) 0.2124(13) 0.1140(6)
F5 F 0.9559(4) -0.0572(15) 0.0886(4)
F6 F 0.9802(5) -0.0523(11) 0.1675(5)
O1 O 0.82905(7) 0.1833(2) 0.05141(5)
O2 O 0.79979(10) 0.1727(2) 0.37965(6)
N1 N 0.70102(7) 0.1924(2) 0.08690(6)
H1 H 0.7180 0.1990 0.0551
C1 C 0.95447(11) 0.0863(3) 0.12899(9)
C2 C 0.86557(8) 0.1350(2) 0.11016(7)
C3 C 0.83488(8) 0.1180(2) 0.15920(6)
H2 H 0.8696 0.0836 0.2018
C4 C 0.75349(8) 0.15088(19) 0.14701(6)
C5 C 0.61529(9) 0.2277(3) 0.07146(9)
H3 H 0.5844 0.2091 0.0244
H4 H 0.6077 0.3561 0.0825
C6 C 0.58637(10) 0.0945(3) 0.11127(9)
H5 H 0.5311 0.1242 0.1048
H6 H 0.5877 -0.0330 0.0963
C7 C 0.63963(10) 0.1107(2) 0.18340(8)
C8 C 0.61186(12) 0.1001(3) 0.23435(10)
H7 H 0.5571 0.0804 0.2237
C9 C 0.66240(13) 0.1177(3) 0.30002(10)
H8 H 0.6419 0.1091 0.3331
C10 C 0.74370(12) 0.1482(2) 0.31662(8)
C11 C 0.77414(10) 0.1570(2) 0.26674(7)
H9 H 0.8291 0.1748 0.2778
C12 C 0.72247(9) 0.13913(19) 0.20065(7)
C13 C 0.77252(17) 0.1791(3) 0.43302(10)
H10 H 0.8179 0.1960 0.4742
H11 H 0.7457 0.0638 0.4344
H12 H 0.7356 0.2817 0.4263
F1? F 1.0016(2) 0.2262(10) 0.1695(6)
F2? F 0.9777(3) 0.0753(17) 0.0829(2)
F3? F 0.9917(3) 0.027(2) 0.1856(2)
loop_
_geom_bond_atom_site_label_1
_geom_bond_atom_site_label_2
_geom_bond_site_symmetry_1
_geom_bond_site_symmetry_2
F4 C1 1_555 1_555
F5 C1 1_555 1_555
F6 C1 1_555 1_555
O1 C2 1_555 1_555
O2 C10 1_555 1_555
N1 H1 1_555 1_555
C1 C2 1_555 1_555
C2 C3 1_555 1_555
C3 H2 1_555 1_555
C4 N1 1_555 1_555
C5 N1 1_555 1_555
H3 C5 1_555 1_555
H4 C5 1_555 1_555
C6 C5 1_555 1_555
H5 C6 1_555 1_555
H6 C6 1_555 1_555
C7 C6 1_555 1_555
C8 C7 1_555 1_555
H7 C8 1_555 1_555
C9 C8 1_555 1_555
H8 C9 1_555 1_555
C10 C9 1_555 1_555
C11 C10 1_555 1_555
H9 C11 1_555 1_555
C12 C4 1_555 1_555
C13 O2 1_555 1_555
H10 C13 1_555 1_555
H11 C13 1_555 1_555
H12 C13 1_555 1_555
C3 C4 1_555 1_555
C7 C12 1_555 1_555
C11 C12 1_555 1_555

#END
