
#######################################################################
#
#                 Cambridge Crystallographic Data Centre
#                                CCDC 
#
#######################################################################
#
# If this CIF has been generated from an entry in the Cambridge 
# Structural Database, then it will include bibliographic, chemical, 
# crystal, experimental, refinement or atomic coordinate data resulting 
# from the CCDC's data processing and validation procedures.
#
#######################################################################

data_VEWDUZ
_chemical_formula_moiety         'C7 H4 Br1 N1 O4,H2 O1'
_chemical_name_systematic        
'4-bromopyridine-2,6-dicarboxylic acid monohydrate'
_symmetry_cell_setting           monoclinic
_symmetry_space_group_name_H-M   'P 21'
_symmetry_Int_Tables_number      4
_space_group_name_Hall           'P 2yb'
loop_
_symmetry_equiv_pos_site_id
_symmetry_equiv_pos_as_xyz
1 x,y,z
2 -x,1/2+y,-z
_cell_length_a                   5.2583(4)
_cell_length_b                   9.4909(7)
_cell_length_c                   8.5531(7)
_cell_angle_alpha                90
_cell_angle_beta                 94.139(3)
_cell_angle_gamma                90
_cell_volume                     425.738
_exptl_crystal_colour            colorless
_exptl_crystal_description       plates
_cell_formula_units_Z            2
loop_
_atom_site_label
_atom_site_type_symbol
_atom_site_fract_x
_atom_site_fract_y
_atom_site_fract_z
N1 N 0.4088(11) 0.2631(10) 0.3093(6)
C1 C 0.510(2) 0.3834(11) 0.2568(16)
C2 C 0.704(3) 0.3822(13) 0.1491(18)
H1 H 0.7722 0.4673 0.1111
C3 C 0.7905(11) 0.2510(16) 0.1017(7)
C4 C 0.684(3) 0.1308(12) 0.1554(19)
H2 H 0.7384 0.0409 0.1220
C5 C 0.498(2) 0.1423(12) 0.2580(17)
C6 C 0.409(3) 0.5210(12) 0.313(2)
O1 O 0.5297(14) 0.6264(7) 0.2516(10)
H3 H 0.655(3) 0.621(8) 0.197(2)
O2 O 0.2333(14) 0.5308(7) 0.3902(9)
Br1 Br 1.03792(12) 0.24448(8) -0.04657(8)
C7 C 0.381(3) 0.0070(10) 0.310(2)
O3 O 0.1965(14) 0.0226(6) 0.4075(9)
H4 H 0.124(9) -0.045(5) 0.449(5)
O4 O 0.4610(14) -0.1047(8) 0.2713(11)
O5 O -0.0155(13) 0.2896(6) 0.5192(8)
H5 H 0.116(8) 0.289(8) 0.469(8)
H6 H -0.054(17) 0.209(4) 0.550(11)
loop_
_geom_bond_atom_site_label_1
_geom_bond_atom_site_label_2
_geom_bond_site_symmetry_1
_geom_bond_site_symmetry_2
N1 C1 1_555 1_555
C1 C2 1_555 1_555
C2 H1 1_555 1_555
C3 C2 1_555 1_555
C4 C3 1_555 1_555
H2 C4 1_555 1_555
C5 N1 1_555 1_555
C6 C1 1_555 1_555
O1 C6 1_555 1_555
H3 O1 1_555 1_555
O2 C6 1_555 1_555
Br1 C3 1_555 1_555
C7 C5 1_555 1_555
O3 C7 1_555 1_555
H4 O3 1_555 1_555
O4 C7 1_555 1_555
O5 H5 1_555 1_555
H6 O5 1_555 1_555
C4 C5 1_555 1_555

#END
