
#######################################################################
#
#                 Cambridge Crystallographic Data Centre
#                                CCDC 
#
#######################################################################
#
# If this CIF has been generated from an entry in the Cambridge 
# Structural Database, then it will include bibliographic, chemical, 
# crystal, experimental, refinement or atomic coordinate data resulting 
# from the CCDC's data processing and validation procedures.
#
#######################################################################

data_VEWFUA
_chemical_formula_moiety         'C24 H18 Cl4 N4 O4'
_chemical_name_systematic        
4,6-bis(2,4-dichlorophenyl)-1',3,3'-trimethyl-6,7-dihydro-2'H,4H-spiro[1,2-oxazolo[5,4-b]pyridine-5,5'-pyrimidine]-2',4',6'(1'H,3'H)-trione
_symmetry_cell_setting           triclinic
_symmetry_space_group_name_H-M   'P -1'
_symmetry_Int_Tables_number      2
_space_group_name_Hall           '-P 1'
loop_
_symmetry_equiv_pos_site_id
_symmetry_equiv_pos_as_xyz
1 x,y,z
2 -x,-y,-z
_cell_length_a                   10.3302(13)
_cell_length_b                   11.5965(14)
_cell_length_c                   12.2015(17)
_cell_angle_alpha                69.6990(10)
_cell_angle_beta                 76.743(2)
_cell_angle_gamma                65.6460(10)
_cell_volume                     1242.51
_exptl_crystal_colour            colorless
_exptl_crystal_description       block
_cell_formula_units_Z            2
loop_
_atom_site_label
_atom_site_type_symbol
_atom_site_fract_x
_atom_site_fract_y
_atom_site_fract_z
Cl1 Cl 0.1835(3) 0.2764(2) -0.01376(19)
Cl2 Cl 0.7031(3) 0.0171(3) 0.1406(2)
Cl3 Cl -0.4141(2) 0.4884(3) 0.23404(19)
Cl4 Cl -0.5098(3) 0.2131(3) 0.6781(2)
N1 N 0.1532(7) 0.1693(7) 0.4372(6)
N2 N 0.0463(8) 0.1331(7) 0.3063(6)
N3 N -0.1210(7) 0.5854(6) 0.3294(5)
H1 H -0.1055 0.5623 0.4050
N4 N 0.1176(8) 0.7498(7) 0.1708(6)
O1 O 0.1231(5) 0.3728(5) 0.4372(4)
O2 O 0.1717(10) -0.0356(7) 0.4499(7)
O3 O -0.0951(7) 0.3041(6) 0.1752(6)
O4 O -0.0021(6) 0.7347(5) 0.2559(4)
C1 C 0.0151(7) 0.3629(7) 0.2881(6)
C2 C 0.0994(8) 0.3038(9) 0.3924(6)
C3 C 0.1249(11) 0.0809(11) 0.4006(9)
C4 C -0.0190(9) 0.2673(8) 0.2536(7)
C5 C 0.2502(11) 0.1100(10) 0.5330(8)
H2 H 0.3116 0.1586 0.5176
H3 H 0.3072 0.0196 0.5357
H4 H 0.1940 0.1137 0.6071
C6 C 0.0211(13) 0.0399(10) 0.2627(10)
H5 H 0.0523 -0.0469 0.3168
H6 H 0.0737 0.0377 0.1871
H7 H -0.0790 0.0687 0.2560
C7 C 0.1042(8) 0.4282(7) 0.1757(6)
H8 H 0.0583 0.4472 0.1063
C8 C 0.0904(8) 0.5583(7) 0.1867(6)
C9 C -0.0112(8) 0.6216(7) 0.2603(6)
C10 C 0.1665(8) 0.6457(8) 0.1314(6)
C11 C 0.2928(9) 0.6299(9) 0.0392(7)
H9 H 0.2674 0.6227 -0.0284
H10 H 0.3713 0.5515 0.0703
H11 H 0.3200 0.7053 0.0171
C12 C 0.2575(8) 0.3310(8) 0.1607(6)
C13 C 0.3001(9) 0.2546(8) 0.0819(7)
C14 C 0.4381(9) 0.1602(8) 0.0758(7)
H12 H 0.4644 0.1117 0.0223
C15 C 0.5345(9) 0.1386(8) 0.1473(8)
C16 C 0.4988(9) 0.2145(9) 0.2221(7)
H13 H 0.5655 0.2029 0.2686
C17 C 0.3611(8) 0.3097(8) 0.2278(6)
H14 H 0.3381 0.3607 0.2787
C18 C -0.1346(8) 0.4748(7) 0.3088(6)
H15 H -0.1785 0.5106 0.2350
C19 C -0.2373(8) 0.4199(7) 0.4026(6)
C20 C -0.3596(8) 0.4145(8) 0.3751(6)
C21 C -0.4438(8) 0.3526(8) 0.4607(7)
H16 H -0.5238 0.3493 0.4411
C22 C -0.4080(9) 0.2966(8) 0.5742(7)
C23 C -0.2943(9) 0.3078(8) 0.6072(7)
H17 H -0.2747 0.2748 0.6852
C24 C -0.2103(8) 0.3697(8) 0.5208(6)
H18 H -0.1344 0.3779 0.5423
loop_
_geom_bond_atom_site_label_1
_geom_bond_atom_site_label_2
_geom_bond_site_symmetry_1
_geom_bond_site_symmetry_2
Cl1 C13 1_555 1_555
Cl2 C15 1_555 1_555
Cl3 C20 1_555 1_555
Cl4 C22 1_555 1_555
N1 C2 1_555 1_555
N2 C3 1_555 1_555
N3 H1 1_555 1_555
N4 O4 1_555 1_555
O1 C2 1_555 1_555
O2 C3 1_555 1_555
O3 C4 1_555 1_555
O4 C9 1_555 1_555
C1 C2 1_555 1_555
C3 N1 1_555 1_555
C4 N2 1_555 1_555
C5 N1 1_555 1_555
H2 C5 1_555 1_555
H3 C5 1_555 1_555
H4 C5 1_555 1_555
C6 N2 1_555 1_555
H5 C6 1_555 1_555
H6 C6 1_555 1_555
H7 C6 1_555 1_555
C7 C1 1_555 1_555
H8 C7 1_555 1_555
C8 C7 1_555 1_555
C9 N3 1_555 1_555
C10 N4 1_555 1_555
C11 C10 1_555 1_555
H9 C11 1_555 1_555
H10 C11 1_555 1_555
H11 C11 1_555 1_555
C12 C7 1_555 1_555
C13 C12 1_555 1_555
C14 C13 1_555 1_555
H12 C14 1_555 1_555
C15 C14 1_555 1_555
C16 C15 1_555 1_555
H13 C16 1_555 1_555
C17 C12 1_555 1_555
H14 C17 1_555 1_555
C18 N3 1_555 1_555
H15 C18 1_555 1_555
C19 C18 1_555 1_555
C20 C19 1_555 1_555
C21 C20 1_555 1_555
H16 C21 1_555 1_555
C22 C21 1_555 1_555
C23 C22 1_555 1_555
H17 C23 1_555 1_555
C24 C19 1_555 1_555
H18 C24 1_555 1_555
C1 C4 1_555 1_555
C1 C18 1_555 1_555
C8 C9 1_555 1_555
C8 C10 1_555 1_555
C16 C17 1_555 1_555
C23 C24 1_555 1_555

#END
