
#######################################################################
#
#                 Cambridge Crystallographic Data Centre
#                                CCDC 
#
#######################################################################
#
# If this CIF has been generated from an entry in the Cambridge 
# Structural Database, then it will include bibliographic, chemical, 
# crystal, experimental, refinement or atomic coordinate data resulting 
# from the CCDC's data processing and validation procedures.
#
#######################################################################

data_VEWHIO
_chemical_compound_source        'Pygmaeopremna herbacea'
_chemical_formula_moiety         'C20 H22 O6'
_chemical_name_systematic        'Pygmaeocine A'
_symmetry_cell_setting           monoclinic
_symmetry_space_group_name_H-M   'P 21'
_symmetry_Int_Tables_number      4
_space_group_name_Hall           'P 2yb'
loop_
_symmetry_equiv_pos_site_id
_symmetry_equiv_pos_as_xyz
1 x,y,z
2 -x,1/2+y,-z
_cell_length_a                   6.230(1)
_cell_length_b                   13.365(2)
_cell_length_c                   12.614(3)
_cell_angle_alpha                90
_cell_angle_beta                 118.87(1)
_cell_angle_gamma                90
_cell_volume                     919.759
_cell_formula_units_Z            2
loop_
_atom_site_label
_atom_site_type_symbol
_atom_site_fract_x
_atom_site_fract_y
_atom_site_fract_z
C1 C 0.4513(4) 0.3368(2) 0.3500(2)
C2 C 0.4000(5) 0.2349(2) 0.3193(2)
C3 C 0.1761(4) 0.2071(2) 0.2234(2)
C4 C -0.0004(4) 0.2747(2) 0.1506(2)
C5 C 0.0514(4) 0.3770(2) 0.1789(2)
C6 C 0.2723(5) 0.4051(2) 0.2781(2)
C7 C -0.1251(4) 0.4550(2) 0.1045(2)
C8 C -0.3529(4) 0.4162(2) -0.0036(2)
C9 C -0.3080(4) 0.3190(2) -0.0523(2)
C10 C -0.2363(4) 0.2366(2) 0.0443(2)
C11 C -0.1734(5) 0.1396(2) 0.0010(2)
C12 C -0.0368(4) 0.0658(2) 0.0993(2)
C13 C -0.5396(4) 0.4301(2) -0.2096(2)
C14 C -0.5190(4) 0.3173(2) -0.1842(2)
C15 C -0.7676(5) 0.2808(2) -0.2019(3)
C16 C -0.4541(6) 0.2639(3) -0.2721(3)
C17 C -0.4250(5) 0.2155(2) 0.0875(2)
C18 C 0.6987(5) 0.3681(2) 0.4538(2)
C19 C 0.8864(7) 0.3724(5) 0.4117(4)
C20 C 0.6855(6) 0.4632(3) 0.5150(3)
O1 O 0.1399(3) 0.1031(1) 0.2072(2)
O2 O -0.4448(3) 0.4842(1) -0.1052(2)
O3 O -0.0948(4) 0.5439(1) 0.1277(2)
O4 O -0.6265(4) 0.4714(2) -0.3056(2)
O5 O -0.0641(3) -0.0230(1) 0.0912(2)
O6 O 0.5764(3) 0.1674(2) 0.3858(2)
loop_
_geom_bond_atom_site_label_1
_geom_bond_atom_site_label_2
_geom_bond_site_symmetry_1
_geom_bond_site_symmetry_2
C1 C2 1_555 1_555
C2 C3 1_555 1_555
C3 C4 1_555 1_555
C4 C5 1_555 1_555
C5 C6 1_555 1_555
C6 C1 1_555 1_555
C7 C5 1_555 1_555
C8 C7 1_555 1_555
C9 C8 1_555 1_555
C10 C4 1_555 1_555
C11 C10 1_555 1_555
C12 C11 1_555 1_555
C13 C14 1_555 1_555
C14 C9 1_555 1_555
C15 C14 1_555 1_555
C16 C14 1_555 1_555
C17 C10 1_555 1_555
C18 C1 1_555 1_555
C19 C18 1_555 1_555
C20 C18 1_555 1_555
O1 C3 1_555 1_555
O2 C8 1_555 1_555
O3 C7 1_555 1_555
O4 C13 1_555 1_555
O5 C12 1_555 1_555
O6 C2 1_555 1_555
C9 C10 1_555 1_555
C12 O1 1_555 1_555
C13 O2 1_555 1_555

#END
