
#######################################################################
#
#                 Cambridge Crystallographic Data Centre
#                                CCDC 
#
#######################################################################
#
# If this CIF has been generated from an entry in the Cambridge 
# Structural Database, then it will include bibliographic, chemical, 
# crystal, experimental, refinement or atomic coordinate data resulting 
# from the CCDC's data processing and validation procedures.
#
#######################################################################

data_VEWKOA
_chemical_formula_moiety         'C24 H23 N3 O2 S1'
_chemical_name_systematic        
N-[7-(diethylamino)-2-oxo-2H-1-benzopyran-3-yl]-N'-naphthalen-1-ylthiourea
_symmetry_cell_setting           triclinic
_symmetry_space_group_name_H-M   'P -1'
_symmetry_Int_Tables_number      2
_space_group_name_Hall           '-P 1'
loop_
_symmetry_equiv_pos_site_id
_symmetry_equiv_pos_as_xyz
1 x,y,z
2 -x,-y,-z
_cell_length_a                   7.3601(17)
_cell_length_b                   9.2198(16)
_cell_length_c                   15.8574(17)
_cell_angle_alpha                82.112(12)
_cell_angle_beta                 84.799(15)
_cell_angle_gamma                82.514(17)
_cell_volume                     1053.89
_exptl_crystal_colour            yellow
_exptl_crystal_description       Block
_cell_formula_units_Z            2
loop_
_atom_site_label
_atom_site_type_symbol
_atom_site_fract_x
_atom_site_fract_y
_atom_site_fract_z
H1 H 0.825(6) 0.449(5) 0.214(3)
H2 H 0.658(5) 0.429(4) 0.021(3)
C1 C 0.7933(6) 0.5627(5) 0.3315(3)
C2 C 0.6394(5) 0.5535(4) 0.2834(3)
C3 C 0.4668(6) 0.5931(4) 0.3137(3)
H3 H 0.3687 0.5825 0.2829
C4 C 0.4340(5) 0.6504(4) 0.3915(3)
C5 C 0.2591(6) 0.6905(5) 0.4309(3)
H4 H 0.1555 0.6819 0.4033
C6 C 0.2368(6) 0.7416(5) 0.5082(3)
H5 H 0.1185 0.7682 0.5314
C7 C 0.3866(6) 0.7552(5) 0.5536(3)
C8 C 0.5628(6) 0.7144(5) 0.5160(3)
H6 H 0.6668 0.7216 0.5437
C9 C 0.5790(5) 0.6637(4) 0.4380(3)
C10 C 0.5218(8) 0.8059(6) 0.6820(4)
H7 H 0.4823 0.7976 0.7423
H8 H 0.6124 0.7222 0.6728
C11 C 0.6054(9) 0.9414(6) 0.6576(4)
H9 H 0.6166 0.9626 0.5965
H10 H 0.7250 0.9300 0.6791
H11 H 0.5297 1.0211 0.6812
C12 C 0.1831(7) 0.8608(5) 0.6681(3)
H12 H 0.1871 0.8560 0.7294
H13 H 0.0928 0.7987 0.6578
C13 C 0.1212(8) 1.0173(6) 0.6322(4)
H14 H 0.2086 1.0801 0.6428
H15 H 0.0032 1.0489 0.6591
H16 H 0.1121 1.0227 0.5718
C14 C 0.6197(5) 0.5009(4) 0.1353(3)
C15 C 0.8721(5) 0.3153(4) 0.0903(2)
C16 C 0.8584(5) 0.1615(4) 0.0963(2)
C17 C 0.6959(5) 0.1033(4) 0.0855(3)
H17 H 0.5904 0.1669 0.0728
C18 C 0.6913(6) -0.0446(5) 0.0935(3)
H18 H 0.5831 -0.0814 0.0857
C19 C 0.8485(7) -0.1425(5) 0.1135(3)
H19 H 0.8434 -0.2437 0.1204
C20 C 1.0077(6) -0.0895(5) 0.1227(3)
H20 H 1.1117 -0.1551 0.1350
C21 C 1.0185(5) 0.0635(5) 0.1139(3)
C22 C 1.1823(6) 0.1193(5) 0.1240(3)
H21 H 1.2868 0.0542 0.1363
C23 C 1.1911(6) 0.2677(5) 0.1159(3)
H22 H 1.3014 0.3028 0.1220
C24 C 1.0336(5) 0.3673(5) 0.0984(3)
H23 H 1.0398 0.4684 0.0924
N1 N 0.3620(6) 0.8021(5) 0.6323(3)
N2 N 0.6988(5) 0.4886(4) 0.2087(2)
N3 N 0.7098(4) 0.4177(3) 0.0771(2)
O1 O 0.7584(4) 0.6221(3) 0.40675(18)
O2 O 0.9533(4) 0.5231(4) 0.3102(2)
S1 S 0.42798(13) 0.61227(11) 0.11177(7)
loop_
_geom_bond_atom_site_label_1
_geom_bond_atom_site_label_2
_geom_bond_site_symmetry_1
_geom_bond_site_symmetry_2
H1 N2 1_555 1_555
H2 N3 1_555 1_555
C1 C2 1_555 1_555
C2 C3 1_555 1_555
C3 H3 1_555 1_555
C4 C3 1_555 1_555
C5 C4 1_555 1_555
H4 C5 1_555 1_555
C6 C5 1_555 1_555
H5 C6 1_555 1_555
C7 C6 1_555 1_555
C8 C7 1_555 1_555
H6 C8 1_555 1_555
C9 C4 1_555 1_555
C10 H7 1_555 1_555
H8 C10 1_555 1_555
C11 C10 1_555 1_555
H9 C11 1_555 1_555
H10 C11 1_555 1_555
H11 C11 1_555 1_555
C12 H12 1_555 1_555
H13 C12 1_555 1_555
C13 C12 1_555 1_555
H14 C13 1_555 1_555
H15 C13 1_555 1_555
H16 C13 1_555 1_555
C14 N2 1_555 1_555
C15 C16 1_555 1_555
C16 C17 1_555 1_555
C17 H17 1_555 1_555
C18 C17 1_555 1_555
H18 C18 1_555 1_555
C19 C18 1_555 1_555
H19 C19 1_555 1_555
C20 C19 1_555 1_555
H20 C20 1_555 1_555
C21 C16 1_555 1_555
C22 C21 1_555 1_555
H21 C22 1_555 1_555
C23 C22 1_555 1_555
H22 C23 1_555 1_555
C24 C15 1_555 1_555
H23 C24 1_555 1_555
N1 C7 1_555 1_555
N2 C2 1_555 1_555
N3 C14 1_555 1_555
O1 C1 1_555 1_555
O2 C1 1_555 1_555
S1 C14 1_555 1_555
C8 C9 1_555 1_555
C9 O1 1_555 1_555
C10 N1 1_555 1_555
C12 N1 1_555 1_555
C15 N3 1_555 1_555
C20 C21 1_555 1_555
C23 C24 1_555 1_555

#END
