
#######################################################################
#
#                 Cambridge Crystallographic Data Centre
#                                CCDC 
#
#######################################################################
#
# If this CIF has been generated from an entry in the Cambridge 
# Structural Database, then it will include bibliographic, chemical, 
# crystal, experimental, refinement or atomic coordinate data resulting 
# from the CCDC's data processing and validation procedures.
#
#######################################################################

data_VEWMAM
_chemical_formula_moiety         'C20 H20 Br1 N1 O2'
_chemical_name_systematic        
(1'R*,2'S*)-1-Benzyl-3-bromo-3-(1,2-epoxybutyl)-4-phenylazetan-2-one
_symmetry_cell_setting           monoclinic
_symmetry_space_group_name_H-M   'P 21/c'
_symmetry_Int_Tables_number      14
_space_group_name_Hall           '-P 2ybc'
loop_
_symmetry_equiv_pos_site_id
_symmetry_equiv_pos_as_xyz
1 x,y,z
2 -x,1/2+y,1/2-z
3 -x,-y,-z
4 x,1/2-y,1/2+z
_cell_length_a                   8.8729(11)
_cell_length_b                   19.734(2)
_cell_length_c                   21.236(3)
_cell_angle_alpha                90
_cell_angle_beta                 92.613(2)
_cell_angle_gamma                90
_cell_volume                     3714.51
_exptl_crystal_colour            colorless
_exptl_crystal_description       parallelepiped
_cell_formula_units_Z            8
_exptl_crystal_recrystallization_method chloroform
loop_
_atom_site_label
_atom_site_type_symbol
_atom_site_fract_x
_atom_site_fract_y
_atom_site_fract_z
Br1 Br 0.39300(6) 0.15810(3) 0.05529(2)
C1 C 0.3865(4) 0.1577(2) 0.14563(19)
O1 O 0.6059(3) 0.23177(16) 0.18434(16)
N1 N 0.3475(4) 0.24431(18) 0.19798(15)
C2 C -0.1231(6) 0.1876(4) 0.0784(3)
H1 H -0.2016 0.1572 0.0698
C3 C 0.4743(5) 0.2163(2) 0.1776(2)
C4 C 0.1141(5) 0.2137(2) 0.13137(19)
C5 C 0.4273(5) 0.0876(2) 0.1685(2)
H2 H 0.3616 0.0511 0.1523
C6 C 0.3723(5) 0.2183(2) 0.3343(2)
H3 H 0.4415 0.1953 0.3107
O2 O 0.4732(4) 0.08298(16) 0.23359(15)
C7 C 0.2959(5) 0.2731(2) 0.3081(2)
C8 C 0.3261(5) 0.2988(2) 0.2430(2)
H4 H 0.2420 0.3268 0.2281
H5 H 0.4156 0.3270 0.2453
C9 C -0.0050(5) 0.1692(3) 0.1190(2)
H6 H -0.0049 0.1269 0.1382
C10 C 0.5798(6) 0.0682(2) 0.1860(2)
H7 H 0.6568 0.1029 0.1799
C11 C 0.1092(5) 0.2765(2) 0.1036(2)
H8 H 0.1870 0.3072 0.1120
C12 C 0.2433(4) 0.1912(2) 0.17382(18)
H9 H 0.2072 0.1639 0.2086
C13 C -0.0121(6) 0.2945(3) 0.0630(2)
H10 H -0.0152 0.3372 0.0444
C14 C -0.1263(6) 0.2495(4) 0.0507(2)
H11 H -0.2066 0.2613 0.0232
C15 C 0.1674(7) 0.2850(4) 0.4046(3)
H12 H 0.0971 0.3074 0.4282
C16 C 0.2461(7) 0.2312(3) 0.4296(3)
H13 H 0.2303 0.2175 0.4707
C17 C 0.1927(6) 0.3059(3) 0.3441(2)
H14 H 0.1394 0.3427 0.3272
C18 C 0.3479(6) 0.1972(3) 0.3949(2)
H15 H 0.4002 0.1602 0.4120
C19 C 0.6313(7) -0.0038(3) 0.1798(3)
H16 H 0.5467 -0.0343 0.1841
H17 H 0.7070 -0.0141 0.2128
C20 C 0.6973(8) -0.0133(3) 0.1155(4)
H18 H 0.7298 -0.0593 0.1111
H19 H 0.7819 0.0166 0.1118
H20 H 0.6218 -0.0030 0.0831
C21 C 0.6160(6) -0.0862(3) 0.4465(2)
H21 H 0.6934 -0.0971 0.4757
C22 C -0.1362(7) 0.1618(3) 0.3109(3)
H22 H -0.2154 0.1720 0.2794
H23 H -0.0536 0.1931 0.3054
C23 C 0.1808(5) -0.1405(2) 0.2474(2)
H24 H 0.0924 -0.1695 0.2454
H25 H 0.2654 -0.1675 0.2634
C24 C 0.2116(5) -0.1171(3) 0.1824(2)
C25 C 0.0713(5) 0.0708(2) 0.3200(2)
H26 H 0.1372 0.1072 0.3362
C26 C 0.3860(5) -0.1146(2) 0.3911(2)
H27 H 0.3085 -0.1455 0.3828
C27 C 0.1332(6) -0.0641(3) 0.1544(2)
H28 H 0.0610 -0.0413 0.1767
C28 C 0.6170(5) -0.0250(3) 0.4158(3)
H29 H 0.6956 0.0053 0.4241
C29 C 0.5018(6) -0.1307(3) 0.4341(2)
H30 H 0.5017 -0.1723 0.4547
C30 C -0.0824(5) 0.0903(2) 0.3027(2)
H31 H -0.1584 0.0551 0.3086
C31 C 0.5025(5) -0.0081(2) 0.3726(2)
H32 H 0.5042 0.0333 0.3517
C32 C 0.2578(4) -0.0313(2) 0.31611(18)
H33 H 0.2957 -0.0039 0.2817
O3 O -0.1034(3) -0.07437(15) 0.30255(16)
O4 O 0.0235(4) 0.07587(16) 0.25473(15)
N2 N 0.1560(4) -0.08551(17) 0.29121(16)
Br2 Br 0.09949(5) 0.00084(3) 0.43285(2)
C33 C 0.0271(5) -0.0581(2) 0.31051(18)
C34 C 0.3843(4) -0.0532(2) 0.36050(18)
C35 C 0.1115(4) 0.00125(19) 0.34235(17)
C36 C 0.3185(7) -0.1499(3) 0.1494(3)
H34 H 0.3727 -0.1855 0.1682
C37 C -0.1959(9) 0.1704(3) 0.3763(4)
H35 H -0.2289 0.2163 0.3816
H36 H -0.1173 0.1602 0.4074
H37 H -0.2792 0.1401 0.3812
C38 C 0.1604(9) -0.0441(4) 0.0935(3)
H38 H 0.1060 -0.0089 0.0744
C39 C 0.2727(12) -0.0785(5) 0.0613(4)
H39 H 0.2961 -0.0651 0.0209
C40 C 0.3461(11) -0.1311(6) 0.0895(4)
H40 H 0.4171 -0.1550 0.0674
loop_
_geom_bond_atom_site_label_1
_geom_bond_atom_site_label_2
_geom_bond_site_symmetry_1
_geom_bond_site_symmetry_2
Br1 C1 1_555 1_555
C1 C3 1_555 1_555
O1 C3 1_555 1_555
N1 C3 1_555 1_555
C2 H1 1_555 1_555
C4 C9 1_555 1_555
C5 C1 1_555 1_555
H2 C5 1_555 1_555
C6 H3 1_555 1_555
O2 C5 1_555 1_555
C7 C6 1_555 1_555
C8 N1 1_555 1_555
H4 C8 1_555 1_555
H5 C8 1_555 1_555
C9 C2 1_555 1_555
H6 C9 1_555 1_555
C10 C5 1_555 1_555
H7 C10 1_555 1_555
C11 C4 1_555 1_555
H8 C11 1_555 1_555
C12 C1 1_555 1_555
H9 C12 1_555 1_555
C13 C11 1_555 1_555
H10 C13 1_555 1_555
C14 C2 1_555 1_555
H11 C14 1_555 1_555
C15 H12 1_555 1_555
C16 C15 1_555 1_555
H13 C16 1_555 1_555
C17 C7 1_555 1_555
H14 C17 1_555 1_555
C18 C6 1_555 1_555
H15 C18 1_555 1_555
C19 C10 1_555 1_555
H16 C19 1_555 1_555
H17 C19 1_555 1_555
C20 C19 1_555 1_555
H18 C20 1_555 1_555
H19 C20 1_555 1_555
H20 C20 1_555 1_555
C21 H21 1_555 1_555
C22 H22 1_555 1_555
H23 C22 1_555 1_555
C23 H24 1_555 1_555
H25 C23 1_555 1_555
C24 C23 1_555 1_555
C25 H26 1_555 1_555
C26 H27 1_555 1_555
C27 C24 1_555 1_555
H28 C27 1_555 1_555
C28 C21 1_555 1_555
H29 C28 1_555 1_555
C29 C21 1_555 1_555
H30 C29 1_555 1_555
C30 C22 1_555 1_555
H31 C30 1_555 1_555
C31 C28 1_555 1_555
H32 C31 1_555 1_555
C32 H33 1_555 1_555
O3 C33 1_555 1_555
O4 C25 1_555 1_555
N2 C23 1_555 1_555
Br2 C35 1_555 1_555
C33 N2 1_555 1_555
C34 C26 1_555 1_555
C35 C25 1_555 1_555
C36 C24 1_555 1_555
H34 C36 1_555 1_555
C37 C22 1_555 1_555
H35 C37 1_555 1_555
H36 C37 1_555 1_555
H37 C37 1_555 1_555
C38 C27 1_555 1_555
H38 C38 1_555 1_555
C39 C38 1_555 1_555
H39 C39 1_555 1_555
C40 C36 1_555 1_555
H40 C40 1_555 1_555
N1 C12 1_555 1_555
C4 C12 1_555 1_555
O2 C10 1_555 1_555
C7 C8 1_555 1_555
C13 C14 1_555 1_555
C15 C17 1_555 1_555
C16 C18 1_555 1_555
C25 C30 1_555 1_555
C26 C29 1_555 1_555
C30 O4 1_555 1_555
C31 C34 1_555 1_555
C32 N2 1_555 1_555
C32 C34 1_555 1_555
C32 C35 1_555 1_555
C33 C35 1_555 1_555
C39 C40 1_555 1_555

#END
