
#######################################################################
#
#                 Cambridge Crystallographic Data Centre
#                                CCDC 
#
#######################################################################
#
# If this CIF has been generated from an entry in the Cambridge 
# Structural Database, then it will include bibliographic, chemical, 
# crystal, experimental, refinement or atomic coordinate data resulting 
# from the CCDC's data processing and validation procedures.
#
#######################################################################

data_VEWROH
_chemical_formula_moiety         'C48 H58 N2 O6 S2'
_chemical_name_systematic        
2,3,5,6,9,10-hexabutoxy-8-(pyridin-2-yl)-1,4-dithia-7-aza-as-indaceno[2,1,8,7-cdefg]pyrene
_symmetry_cell_setting           monoclinic
_symmetry_space_group_name_H-M   'P 21/c'
_symmetry_Int_Tables_number      14
_space_group_name_Hall           '-P 2ybc'
loop_
_symmetry_equiv_pos_site_id
_symmetry_equiv_pos_as_xyz
1 x,y,z
2 -x,1/2+y,1/2-z
3 -x,-y,-z
4 x,1/2-y,1/2+z
_cell_length_a                   7.9035(2)
_cell_length_b                   17.3632(5)
_cell_length_c                   30.8922(10)
_cell_angle_alpha                90
_cell_angle_beta                 93.8180(10)
_cell_angle_gamma                90
_cell_volume                     4229.93
_exptl_crystal_colour            'pale yellow'
_exptl_crystal_description       needle
_chemical_melting_point          '400 K'
_cell_formula_units_Z            4
loop_
_atom_site_label
_atom_site_type_symbol
_atom_site_fract_x
_atom_site_fract_y
_atom_site_fract_z
C1 C 0.39725(15) 0.66194(7) 0.44528(4)
C2 C 0.41230(15) 0.59450(7) 0.42141(4)
C3 C 0.36393(16) 0.52276(7) 0.43749(4)
C4 C 0.29726(15) 0.51893(7) 0.47740(4)
C5 C 0.27891(15) 0.58649(7) 0.50169(4)
C6 C 0.33036(15) 0.65805(7) 0.48654(4)
C7 C 0.38494(15) 0.45930(7) 0.41129(4)
C8 C 0.33406(16) 0.38801(7) 0.42809(4)
C9 C 0.26528(16) 0.38349(7) 0.47025(4)
C10 C 0.24536(15) 0.45064(7) 0.49534(4)
C11 C 0.20879(15) 0.57505(7) 0.54110(4)
C12 C 0.19217(16) 0.64112(7) 0.56729(4)
C13 C 0.24698(16) 0.71392(7) 0.55262(4)
C14 C 0.31637(15) 0.72428(7) 0.51179(4)
C15 C 0.44794(15) 0.73223(7) 0.42863(4)
C16 C 0.51137(15) 0.73081(7) 0.38644(4)
C17 C 0.52587(15) 0.66169(7) 0.36268(4)
C18 C 0.47546(15) 0.59155(7) 0.38085(4)
C19 C 0.37751(15) 0.79453(7) 0.49236(4)
C20 C 0.38082(17) 0.86972(8) 0.51589(4)
C21 C 0.52358(19) 0.89070(9) 0.54171(5)
H1 H 0.616809 0.856421 0.546156
C22 C 0.5269(2) 0.96289(9) 0.56086(5)
H2 H 0.623041 0.979060 0.578665
C23 C 0.3891(2) 1.01095(8) 0.55376(5)
H3 H 0.388532 1.060955 0.566236
C24 C 0.2526(2) 0.98459(9) 0.52818(5)
H4 H 0.157350 1.017694 0.523672
C25 C 0.42141(17) 0.31318(7) 0.36816(4)
H5 H 0.543983 0.324062 0.373506
H6 H 0.372659 0.350729 0.346671
C26 C 0.39464(18) 0.23207(8) 0.35163(4)
H7 H 0.271421 0.221609 0.347787
H8 H 0.444247 0.195521 0.373563
C27 C 0.4741(2) 0.21825(8) 0.30879(5)
H9 H 0.419302 0.252410 0.286351
H10 H 0.595947 0.231830 0.312095
C28 C 0.4563(3) 0.13524(9) 0.29379(5)
H11 H 0.514499 0.101332 0.315328
H12 H 0.506902 0.129309 0.265877
H13 H 0.335836 0.121480 0.290483
C29 C 0.14575(16) 0.30400(7) 0.52248(4)
H14 H 0.036073 0.331736 0.520371
H15 H 0.219159 0.328163 0.545900
C30 C 0.11616(17) 0.22063(7) 0.53354(4)
H16 H 0.225305 0.192463 0.535572
H17 H 0.040939 0.196350 0.510526
C31 C 0.03416(17) 0.21666(8) 0.57688(4)
H18 H 0.105977 0.245247 0.598913
H19 H -0.077472 0.242660 0.573810
C32 C 0.0093(2) 0.13521(9) 0.59300(5)
H20 H -0.064879 0.106934 0.571864
H21 H -0.042641 0.136822 0.620918
H22 H 0.119447 0.109244 0.596636
C33 C 0.06674(16) 0.57383(8) 0.62524(4)
H23 H 0.157758 0.534802 0.629246
H24 H -0.025517 0.552385 0.605583
C34 C 0.00035(17) 0.59490(8) 0.66841(4)
H25 H -0.058923 0.549673 0.679730
H26 H -0.084098 0.636701 0.663769
C35 C 0.1353(2) 0.62078(11) 0.70227(5)
H27 H 0.194766 0.666151 0.691182
H28 H 0.219686 0.579029 0.707234
C36 C 0.0634(3) 0.64154(15) 0.74509(6)
H29 H -0.023619 0.681398 0.740208
H30 H 0.154500 0.660955 0.765247
H31 H 0.012759 0.595690 0.757465
C37 C 0.08219(17) 0.81067(8) 0.58544(4)
H32 H -0.004971 0.771450 0.590747
H33 H 0.046246 0.839257 0.558666
C38 C 0.10444(19) 0.86508(8) 0.62345(5)
H34 H 0.211703 0.893953 0.621539
H35 H 0.113390 0.834829 0.650666
C39 C -0.04124(19) 0.92192(8) 0.62513(5)
H36 H -0.045064 0.954748 0.598880
H37 H -0.149403 0.893126 0.624941
C40 C -0.0244(3) 0.97285(10) 0.66515(6)
H38 H -0.025058 0.940757 0.691233
H39 H -0.119608 1.009061 0.664578
H40 H 0.082410 1.001589 0.665460
C41 C 0.42469(18) 0.84790(8) 0.35346(5)
H41 H 0.372900 0.870515 0.378853
H42 H 0.336533 0.818367 0.336299
C42 C 0.4945(2) 0.91086(8) 0.32596(5)
H43 H 0.582322 0.939606 0.343685
H44 H 0.401978 0.947335 0.317377
C43 C 0.5711(2) 0.88144(9) 0.28543(5)
H45 H 0.490227 0.845518 0.270149
H46 H 0.675682 0.852260 0.293940
C44 C 0.6139(2) 0.94567(10) 0.25445(5)
H47 H 0.509959 0.973132 0.244677
H48 H 0.665855 0.923575 0.229331
H49 H 0.693455 0.981656 0.269403
C45 C 0.75253(16) 0.68250(8) 0.31633(4)
H50 H 0.778494 0.731667 0.331594
H51 H 0.770724 0.690122 0.285226
C46 C 0.87138(18) 0.62080(9) 0.33457(5)
H52 H 0.845012 0.571868 0.319118
H53 H 0.851225 0.612864 0.365543
C47 C 1.0582(2) 0.63992(12) 0.33078(6)
H54 H 1.079820 0.692599 0.342098
H55 H 1.127532 0.603937 0.349413
C48 C 1.1164(2) 0.63558(13) 0.28525(7)
H56 H 1.097144 0.583457 0.273782
H57 H 1.237504 0.647825 0.285709
H58 H 1.052159 0.672631 0.266720
N1 N 0.43755(13) 0.79865(6) 0.45351(4)
N2 N 0.24492(15) 0.91504(7) 0.50910(4)
O1 O 0.33737(13) 0.31853(5) 0.40784(3)
O2 O 0.22465(12) 0.31059(5) 0.48216(3)
O3 O 0.13157(13) 0.64315(5) 0.60740(3)
O4 O 0.24498(11) 0.77435(5) 0.58110(3)
O5 O 0.56363(11) 0.79780(5) 0.36765(3)
O6 O 0.57697(11) 0.66244(5) 0.32096(3)
S1 S 0.47086(4) 0.49439(2) 0.36225(2)
S2 S 0.16547(4) 0.47458(2) 0.54676(2)
loop_
_geom_bond_atom_site_label_1
_geom_bond_atom_site_label_2
_geom_bond_site_symmetry_1
_geom_bond_site_symmetry_2
C1 C2 1_555 1_555
C2 C3 1_555 1_555
C3 C4 1_555 1_555
C4 C5 1_555 1_555
C5 C6 1_555 1_555
C6 C1 1_555 1_555
C7 C3 1_555 1_555
C8 C7 1_555 1_555
C9 C8 1_555 1_555
C10 C4 1_555 1_555
C11 C5 1_555 1_555
C12 C11 1_555 1_555
C13 C12 1_555 1_555
C14 C6 1_555 1_555
C15 C1 1_555 1_555
C16 C15 1_555 1_555
C17 C16 1_555 1_555
C18 C2 1_555 1_555
C19 C14 1_555 1_555
C20 C19 1_555 1_555
C21 C20 1_555 1_555
H1 C21 1_555 1_555
C22 C21 1_555 1_555
H2 C22 1_555 1_555
C23 C22 1_555 1_555
H3 C23 1_555 1_555
C24 C23 1_555 1_555
H4 C24 1_555 1_555
C25 H5 1_555 1_555
H6 C25 1_555 1_555
C26 C25 1_555 1_555
H7 C26 1_555 1_555
H8 C26 1_555 1_555
C27 C26 1_555 1_555
H9 C27 1_555 1_555
H10 C27 1_555 1_555
C28 C27 1_555 1_555
H11 C28 1_555 1_555
H12 C28 1_555 1_555
H13 C28 1_555 1_555
C29 H14 1_555 1_555
H15 C29 1_555 1_555
C30 C29 1_555 1_555
H16 C30 1_555 1_555
H17 C30 1_555 1_555
C31 C30 1_555 1_555
H18 C31 1_555 1_555
H19 C31 1_555 1_555
C32 C31 1_555 1_555
H20 C32 1_555 1_555
H21 C32 1_555 1_555
H22 C32 1_555 1_555
C33 H23 1_555 1_555
H24 C33 1_555 1_555
C34 C33 1_555 1_555
H25 C34 1_555 1_555
H26 C34 1_555 1_555
C35 C34 1_555 1_555
H27 C35 1_555 1_555
H28 C35 1_555 1_555
C36 C35 1_555 1_555
H29 C36 1_555 1_555
H30 C36 1_555 1_555
H31 C36 1_555 1_555
C37 H32 1_555 1_555
H33 C37 1_555 1_555
C38 C37 1_555 1_555
H34 C38 1_555 1_555
H35 C38 1_555 1_555
C39 C38 1_555 1_555
H36 C39 1_555 1_555
H37 C39 1_555 1_555
C40 C39 1_555 1_555
H38 C40 1_555 1_555
H39 C40 1_555 1_555
H40 C40 1_555 1_555
C41 H41 1_555 1_555
H42 C41 1_555 1_555
C42 C41 1_555 1_555
H43 C42 1_555 1_555
H44 C42 1_555 1_555
C43 C42 1_555 1_555
H45 C43 1_555 1_555
H46 C43 1_555 1_555
C44 C43 1_555 1_555
H47 C44 1_555 1_555
H48 C44 1_555 1_555
H49 C44 1_555 1_555
C45 H50 1_555 1_555
H51 C45 1_555 1_555
C46 C45 1_555 1_555
H52 C46 1_555 1_555
H53 C46 1_555 1_555
C47 C46 1_555 1_555
H54 C47 1_555 1_555
H55 C47 1_555 1_555
C48 C47 1_555 1_555
H56 C48 1_555 1_555
H57 C48 1_555 1_555
H58 C48 1_555 1_555
N1 C15 1_555 1_555
N2 C20 1_555 1_555
O1 C8 1_555 1_555
O2 C9 1_555 1_555
O3 C12 1_555 1_555
O4 C13 1_555 1_555
O5 C16 1_555 1_555
O6 C17 1_555 1_555
S1 C7 1_555 1_555
S2 C10 1_555 1_555
C9 C10 1_555 1_555
C11 S2 1_555 1_555
C13 C14 1_555 1_555
C17 C18 1_555 1_555
C18 S1 1_555 1_555
C19 N1 1_555 1_555
C24 N2 1_555 1_555
C25 O1 1_555 1_555
C29 O2 1_555 1_555
C33 O3 1_555 1_555
C37 O4 1_555 1_555
C41 O5 1_555 1_555
C45 O6 1_555 1_555

#END
