
#######################################################################
#
#                 Cambridge Crystallographic Data Centre
#                                CCDC 
#
#######################################################################
#
# If this CIF has been generated from an entry in the Cambridge 
# Structural Database, then it will include bibliographic, chemical, 
# crystal, experimental, refinement or atomic coordinate data resulting 
# from the CCDC's data processing and validation procedures.
#
#######################################################################

data_VEWTOJ
_chemical_formula_moiety         'C121 H144 Br2,C2 H3 N1'
_chemical_name_systematic        
'11,18-dibromo-13,13,16-tris(4-(tetradecan-6-yl)phenyl)-16-(4-(tridecan-5-yl)phenyl)-13,16-dihydrobenzo[kl]benzo[5,6]aceanthryleno[1,10,9-bcde]indeno[2,1,7,6,5-pqrst]pentaphene acetonitrile solvate'
_symmetry_cell_setting           triclinic
_symmetry_space_group_name_H-M   'P -1'
_symmetry_Int_Tables_number      2
_space_group_name_Hall           '-P 1'
loop_
_symmetry_equiv_pos_site_id
_symmetry_equiv_pos_as_xyz
1 x,y,z
2 -x,-y,-z
_cell_length_a                   17.6036(9)
_cell_length_b                   17.8878(10)
_cell_length_c                   19.8994(11)
_cell_angle_alpha                102.231(3)
_cell_angle_beta                 108.489(3)
_cell_angle_gamma                114.041(2)
_cell_volume                     4988.73
_exptl_crystal_colour            'dark red'
_exptl_crystal_description       'prism fragment'
_cell_formula_units_Z            2
loop_
_atom_site_label
_atom_site_type_symbol
_atom_site_fract_x
_atom_site_fract_y
_atom_site_fract_z
Br1 Br 0.79051(6) 0.61948(7) 0.49726(6)
Br2 Br -0.10588(8) 0.95995(7) 0.30526(7)
C1 C 0.4161(3) 0.8242(3) 0.4061(3)
C2 C 0.3968(3) 0.7427(3) 0.4113(3)
H1 H 0.3359 0.7019 0.4025
C3 C 0.4648(3) 0.7205(3) 0.4290(4)
C4 C 0.5518(4) 0.7790(4) 0.4375(3)
C5 C 0.5732(3) 0.8596(3) 0.4309(3)
C6 C 0.5055(3) 0.8832(3) 0.4160(3)
C7 C 0.4702(4) 0.6388(4) 0.4436(4)
C8 C 0.5724(4) 0.6665(5) 0.4574(4)
C9 C 0.6278(4) 0.6270(5) 0.4695(4)
H2 H 0.6036 0.5698 0.4716
C10 C 0.7167(5) 0.6719(6) 0.4781(4)
C11 C 0.7580(4) 0.7571(5) 0.4737(4)
C12 C 0.8494(5) 0.8064(6) 0.4799(4)
H3 H 0.8905 0.7840 0.4896
C13 C 0.8771(5) 0.8863(6) 0.4719(5)
H4 H 0.9370 0.9172 0.4744
C14 C 0.8218(5) 0.9238(5) 0.4604(4)
H5 H 0.8456 0.9801 0.4568
C15 C 0.7319(4) 0.8812(5) 0.4539(4)
C16 C 0.6681(4) 0.9140(4) 0.4404(4)
C17 C 0.6874(5) 0.9967(5) 0.4364(4)
H6 H 0.7476 1.0361 0.4428
C18 C 0.6224(5) 1.0228(5) 0.4236(4)
H7 H 0.6403 1.0798 0.4215
C19 C 0.5320(5) 0.9712(4) 0.4133(4)
C20 C 0.4643(5) 0.9976(4) 0.3987(4)
C21 C 0.4796(6) 1.0801(5) 0.3949(4)
H8 H 0.5396 1.1214 0.4024
C22 C 0.4134(6) 1.1046(5) 0.3811(4)
H9 H 0.4291 1.1612 0.3789
C23 C 0.3242(6) 1.0490(4) 0.3705(4)
C24 C 0.2490(6) 1.0693(5) 0.3550(4)
C25 C 0.2545(7) 1.1460(5) 0.3459(5)
H10 H 0.3103 1.1898 0.3487
C26 C 0.1813(8) 1.1596(5) 0.3330(5)
H11 H 0.1891 1.2136 0.3280
C27 C 0.0955(8) 1.0994(6) 0.3267(5)
H12 H 0.0466 1.1121 0.3175
C28 C 0.0836(6) 1.0184(5) 0.3345(4)
C29 C 0.0000(7) 0.9489(5) 0.3294(5)
C30 C -0.0066(6) 0.8738(5) 0.3387(4)
H13 H -0.0628 0.8298 0.3353
C31 C 0.0710(5) 0.8613(5) 0.3537(4)
C32 C 0.0914(5) 0.7872(5) 0.3676(5)
C33 C 0.1923(5) 0.8245(4) 0.3724(4)
C34 C 0.2554(4) 0.7959(4) 0.3824(4)
H14 H 0.2374 0.7383 0.3829
C35 C 0.3466(4) 0.8504(4) 0.3920(4)
C36 C 0.6141(4) 0.7476(5) 0.4529(4)
C37 C 0.7031(5) 0.7972(5) 0.4605(4)
C38 C 0.3721(4) 0.9384(4) 0.3889(4)
C39 C 0.3069(5) 0.9642(4) 0.3757(4)
C40 C 0.2197(5) 0.9074(4) 0.3687(4)
C41 C 0.1486(6) 0.9268(4) 0.3576(4)
C42 C 0.1595(6) 1.0055(5) 0.3486(4)
C43 C 0.4019(3) 0.5516(3) 0.3740(3)
C44 C 0.3338(4) 0.4773(4) 0.3748(4)
H15 H 0.3291 0.4798 0.4213
C45 C 0.2733(4) 0.4002(4) 0.3097(4)
H16 H 0.2274 0.3504 0.3119
C46 C 0.2782(5) 0.3941(4) 0.2406(4)
C47 C 0.3453(5) 0.4672(5) 0.2386(4)
H17 H 0.3496 0.4642 0.1918
C48 C 0.4063(4) 0.5448(4) 0.3040(4)
H18 H 0.4521 0.5945 0.3015
C49 C 0.4589(3) 0.6357(3) 0.5177(3)
C50 C 0.3839(4) 0.6372(4) 0.5257(3)
H19 H 0.3377 0.6361 0.4840
C51 C 0.3744(4) 0.6403(5) 0.5920(4)
H20 H 0.3221 0.6411 0.5955
C52 C 0.4411(5) 0.6421(5) 0.6539(4)
C53 C 0.5160(4) 0.6404(4) 0.6473(3)
H21 H 0.5618 0.6413 0.6892
C54 C 0.5253(4) 0.6374(4) 0.5806(3)
H22 H 0.5776 0.6364 0.5773
C55 C 0.0166(4) 0.6983(4) 0.3016(4)
C56 C -0.0693(4) 0.6498(4) 0.2998(4)
H23 H -0.0792 0.6710 0.3424
C57 C -0.1405(4) 0.5721(5) 0.2384(5)
H24 H -0.1985 0.5406 0.2391
C58 C -0.1284(5) 0.5393(5) 0.1753(5)
C59 C -0.0436(5) 0.5863(5) 0.1758(4)
H25 H -0.0343 0.5646 0.1330
C60 C 0.0280(5) 0.6645(4) 0.2376(4)
H26 H 0.0858 0.6958 0.2366
C61 C 0.0992(4) 0.7844(4) 0.4461(3)
C62 C 0.0688(3) 0.8261(3) 0.4895(3)
H27 H 0.0368 0.8535 0.4680
C63 C 0.0833(3) 0.8291(4) 0.5621(3)
H28 H 0.0614 0.8582 0.5899
C64 C 0.1300(4) 0.7897(5) 0.5951(4)
C65 C 0.1609(5) 0.7478(5) 0.5536(4)
H29 H 0.1930 0.7207 0.5757
C66 C 0.1459(4) 0.7446(4) 0.4802(4)
H30 H 0.1674 0.7150 0.4525
C67 C 0.2120(9) 0.3080(7) 0.1685(8)
H31 H 0.1721 0.2770 0.1913
C68 C 0.2460(10) 0.2482(8) 0.1586(11)
H32 H 0.3022 0.2800 0.1518
H33 H 0.2684 0.2434 0.2090
C69 C 0.1970(15) 0.1620(8) 0.1037(8)
H34 H 0.2241 0.1642 0.0670
H35 H 0.1328 0.1492 0.0750
C70 C 0.1873(13) 0.0849(9) 0.1189(11)
H36 H 0.2323 0.0729 0.1062
H37 H 0.2125 0.1052 0.1756
C71 C 0.1087(19) 0.0022(11) 0.0902(9)
H38 H 0.1140 -0.0364 0.0504
H39 H 0.0564 0.0093 0.0618
C72 C 0.0740(18) -0.0531(14) 0.1305(10)
H40 H 0.1219 -0.0685 0.1521
H41 H 0.0778 -0.0122 0.1753
C73 C -0.0095(18) -0.1298(16) 0.1025(12)
H42 H -0.0566 -0.1116 0.0926
H43 H -0.0205 -0.1652 0.0512
C74 C -0.0341(19) -0.1879(14) 0.1347(12)
H44 H -0.0086 -0.1524 0.1902
H45 H 0.0000 -0.2198 0.1312
C75 C -0.124(2) -0.251(2) 0.111(2)
H46 H -0.1511 -0.2266 0.1390
H47 H -0.1258 -0.3027 0.1219
H48 H -0.1601 -0.2698 0.0557
C76 C 0.1414(12) 0.3136(11) 0.1134(11)
H49 H 0.1602 0.3157 0.0716
H50 H 0.0857 0.2536 0.0922
C77 C 0.1050(10) 0.3691(10) 0.1145(13)
H51 H 0.1393 0.4146 0.0977
H52 H 0.1240 0.4009 0.1694
C78 C 0.0090(11) 0.3420(15) 0.0738(15)
H53 H 0.0079 0.3980 0.0842
H54 H -0.0062 0.3189 0.0186
C79 C -0.0676(13) 0.2832(17) 0.079(2)
H55 H -0.1201 0.2872 0.0453
H56 H -0.0564 0.3109 0.1321
C80 C -0.106(3) 0.1882(17) 0.063(3)
H57 H -0.1708 0.1546 0.0220
H58 H -0.1053 0.1786 0.1097
H59 H -0.0689 0.1679 0.0460
C81 C 0.4342(9) 0.6557(6) 0.7317(7)
H60 H 0.4994 0.6795 0.7711
C82 C 0.3817(8) 0.5719(6) 0.7348(8)
H61 H 0.3772 0.5866 0.7838
H62 H 0.3177 0.5440 0.6930
C83 C 0.4023(7) 0.5046(6) 0.7303(6)
H63 H 0.4680 0.5332 0.7692
H64 H 0.4014 0.4860 0.6794
C84 C 0.3522(9) 0.4242(7) 0.7389(8)
H65 H 0.3501 0.4440 0.7883
H66 H 0.2875 0.3954 0.6982
C85 C 0.3693(10) 0.3555(7) 0.7388(8)
H67 H 0.4326 0.3836 0.7816
H68 H 0.3751 0.3379 0.6908
C86 C 0.3151(11) 0.2712(7) 0.7440(9)
H69 H 0.2808 0.2790 0.7726
H70 H 0.3574 0.2532 0.7708
H71 H 0.2709 0.2252 0.6920
C87 C 0.4144(12) 0.7238(7) 0.7566(9)
H72 H 0.3473 0.6991 0.7240
H73 H 0.4225 0.7318 0.8097
C88 C 0.4628(13) 0.8111(7) 0.7580(9)
H74 H 0.4599 0.8019 0.7062
H75 H 0.4235 0.8372 0.7616
C89 C 0.5534(12) 0.8780(12) 0.8096(16)
H76 H 0.5939 0.8632 0.7917
H77 H 0.5646 0.8708 0.8592
C90 C 0.5905(15) 0.9712(10) 0.8282(15)
H78 H 0.5352 0.9774 0.8079
H79 H 0.6175 0.9986 0.8850
C91 C 0.654(2) 1.0283(11) 0.8101(11)
H80 H 0.6159 1.0355 0.7661
H81 H 0.6787 0.9935 0.7889
C92 C 0.7355(15) 1.1177(12) 0.8588(10)
H82 H 0.7170 1.1461 0.8938
H83 H 0.7834 1.1081 0.8916
C93 C 0.783(2) 1.1824(15) 0.8372(13)
H84 H 0.8073 1.1564 0.8070
H85 H 0.7341 1.1875 0.8000
C94 C 0.852(2) 1.2657(15) 0.8819(17)
H86 H 0.8325 1.3070 0.8687
H87 H 0.9068 1.2759 0.8740
H88 H 0.8671 1.2757 0.9361
C95 C -0.2086(8) 0.4538(7) 0.1051(8)
H89 H -0.1812 0.4533 0.0681
C96 C -0.2854(8) 0.4634(9) 0.0654(13)
H90 H -0.3252 0.4111 0.0156
H91 H -0.3215 0.4555 0.0952
C97 C -0.2804(9) 0.5356(11) 0.0477(15)
H92 H -0.2469 0.5419 0.0157
H93 H -0.2385 0.5884 0.0970
C98 C -0.3577(10) 0.5453(10) 0.0104(19)
H94 H -0.3917 0.4999 -0.0429
H95 H -0.3986 0.5247 0.0351
C99 C -0.3589(11) 0.6197(11) 0.003(2)
H96 H -0.3242 0.6361 -0.0275
H97 H -0.3186 0.6671 0.0552
C100 C -0.4378(13) 0.6325(11) -0.029(2)
H98 H -0.4615 0.6070 -0.0855
H99 H -0.4864 0.5922 -0.0180
C101 C -0.4400(15) 0.7095(14) -0.013(3)
H100 H -0.4625 0.7142 -0.0636
H101 H -0.4907 0.6978 0.0022
C102 C -0.371(2) 0.7914(15) 0.036(3)
H102 H -0.3158 0.8003 0.0281
H103 H -0.3567 0.7911 0.0884
C103 C -0.376(3) 0.8658(16) 0.039(3)
H104 H -0.3979 0.8802 0.0766
H105 H -0.4201 0.8550 -0.0122
H106 H -0.3144 0.9157 0.0536
C104 C -0.2215(17) 0.3735(7) 0.1156(10)
H107 H -0.1579 0.3836 0.1414
H108 H -0.2456 0.3714 0.1543
C105 C -0.274(2) 0.2875(8) 0.0598(9)
H109 H -0.2365 0.2824 0.0333
H110 H -0.3288 0.2845 0.0216
C106 C -0.310(2) 0.2077(8) 0.0732(11)
C107 C -0.381(3) 0.1224(10) 0.0220(17)
H111 H -0.4413 0.1167 0.0130
H112 H -0.3740 0.0796 0.0434
H113 H -0.3771 0.1102 -0.0269
C108 C 0.1668(6) 0.8142(7) 0.6877(7)
H114 H 0.1334 0.8430 0.7032
C109 C 0.2636(7) 0.8820(8) 0.7282(9)
H115 H 0.2850 0.8842 0.7814
H116 H 0.2954 0.8584 0.7050
C110 C 0.3012(7) 0.9699(7) 0.7361(9)
H117 H 0.2740 0.9951 0.7640
H118 H 0.2748 0.9678 0.6833
C111 C 0.3981(8) 1.0355(9) 0.7712(10)
H119 H 0.4223 1.0411 0.8253
H120 H 0.4257 1.0069 0.7469
C112 C 0.4405(9) 1.1217(9) 0.7756(10)
H121 H 0.4131 1.1503 0.8003
H122 H 0.4156 1.1161 0.7215
C113 C 0.5396(9) 1.1894(11) 0.8109(12)
H123 H 0.5618 1.2048 0.8670
H124 H 0.5696 1.1574 0.7950
C114 C 0.5805(12) 1.2688(14) 0.8040(12)
H125 H 0.5669 1.2528 0.7490
H126 H 0.5438 1.2966 0.8116
C115 C 0.6690(15) 1.3346(14) 0.8431(13)
H127 H 0.7006 1.3173 0.8823
H128 H 0.6689 1.3870 0.8717
C116 C 0.7255(16) 1.364(2) 0.8095(13)
H129 H 0.7860 1.3706 0.8391
H130 H 0.7346 1.4213 0.8086
H131 H 0.6966 1.3204 0.7567
C117 C 0.1288(9) 0.7305(10) 0.6952(12)
H132 H 0.1551 0.6980 0.6734
H133 H 0.1563 0.7446 0.7512
C118 C 0.0348(8) 0.6693(12) 0.6659(10)
H134 H 0.0137 0.6346 0.6112
H135 H 0.0036 0.7045 0.6658
C119 C -0.0049(9) 0.6057(12) 0.6959(10)
H136 H 0.0323 0.5762 0.7017
H137 H 0.0116 0.6418 0.7489
C120 C -0.0957(10) 0.5380(13) 0.6671(10)
H138 H -0.1118 0.5013 0.6143
H139 H -0.1330 0.5674 0.6603
C121 C -0.1371(9) 0.4734(8) 0.6980(9)
H140 H -0.0877 0.4717 0.7369
H141 H -0.1800 0.4143 0.6562
H142 H -0.1714 0.4911 0.7218
N1 N 0.858(3) 0.443(2) 0.466(3)
C122 C 0.8919(14) 0.4934(16) 0.4441(18)
C123 C 0.9368(18) 0.5566(17) 0.4260(17)
H143 H 0.9099 0.5363 0.3698
H144 H 0.9323 0.6083 0.4474
H145 H 1.0025 0.5732 0.4471
loop_
_geom_bond_atom_site_label_1
_geom_bond_atom_site_label_2
_geom_bond_site_symmetry_1
_geom_bond_site_symmetry_2
Br1 C10 1_555 1_555
Br2 C29 1_555 1_555
C1 C2 1_555 1_555
C2 H1 1_555 1_555
C3 C2 1_555 1_555
C4 C3 1_555 1_555
C5 C4 1_555 1_555
C6 C1 1_555 1_555
C7 C3 1_555 1_555
C8 C7 1_555 1_555
C9 C8 1_555 1_555
H2 C9 1_555 1_555
C10 C9 1_555 1_555
C11 C10 1_555 1_555
C12 C11 1_555 1_555
H3 C12 1_555 1_555
C13 C12 1_555 1_555
H4 C13 1_555 1_555
C14 C13 1_555 1_555
H5 C14 1_555 1_555
C15 C14 1_555 1_555
C16 C5 1_555 1_555
C17 C16 1_555 1_555
H6 C17 1_555 1_555
C18 C17 1_555 1_555
H7 C18 1_555 1_555
C19 C6 1_555 1_555
C20 C19 1_555 1_555
C21 C20 1_555 1_555
H8 C21 1_555 1_555
C22 C21 1_555 1_555
H9 C22 1_555 1_555
C23 C22 1_555 1_555
C24 C23 1_555 1_555
C25 C24 1_555 1_555
H10 C25 1_555 1_555
C26 C25 1_555 1_555
H11 C26 1_555 1_555
C27 C26 1_555 1_555
H12 C27 1_555 1_555
C28 C27 1_555 1_555
C29 C28 1_555 1_555
C30 C29 1_555 1_555
H13 C30 1_555 1_555
C31 C30 1_555 1_555
C32 C31 1_555 1_555
C33 C32 1_555 1_555
C34 C33 1_555 1_555
H14 C34 1_555 1_555
C35 C1 1_555 1_555
C36 C4 1_555 1_555
C37 C11 1_555 1_555
C38 C20 1_555 1_555
C39 C23 1_555 1_555
C40 C33 1_555 1_555
C41 C31 1_555 1_555
C42 C24 1_555 1_555
C43 C7 1_555 1_555
C44 C43 1_555 1_555
H15 C44 1_555 1_555
C45 C44 1_555 1_555
H16 C45 1_555 1_555
C46 C45 1_555 1_555
C47 C46 1_555 1_555
H17 C47 1_555 1_555
C48 C43 1_555 1_555
H18 C48 1_555 1_555
C49 C7 1_555 1_555
C50 C49 1_555 1_555
H19 C50 1_555 1_555
C51 C50 1_555 1_555
H20 C51 1_555 1_555
C52 C51 1_555 1_555
C53 C52 1_555 1_555
H21 C53 1_555 1_555
C54 C49 1_555 1_555
H22 C54 1_555 1_555
C55 C32 1_555 1_555
C56 C55 1_555 1_555
H23 C56 1_555 1_555
C57 C56 1_555 1_555
H24 C57 1_555 1_555
C58 C57 1_555 1_555
C59 C58 1_555 1_555
H25 C59 1_555 1_555
C60 C55 1_555 1_555
H26 C60 1_555 1_555
C61 C32 1_555 1_555
C62 C61 1_555 1_555
H27 C62 1_555 1_555
C63 C62 1_555 1_555
H28 C63 1_555 1_555
C64 C63 1_555 1_555
C65 C64 1_555 1_555
H29 C65 1_555 1_555
C66 C61 1_555 1_555
H30 C66 1_555 1_555
C67 C46 1_555 1_555
H31 C67 1_555 1_555
C68 C67 1_555 1_555
H32 C68 1_555 1_555
H33 C68 1_555 1_555
C69 C68 1_555 1_555
H34 C69 1_555 1_555
H35 C69 1_555 1_555
C70 C69 1_555 1_555
H36 C70 1_555 1_555
H37 C70 1_555 1_555
C71 C70 1_555 1_555
H38 C71 1_555 1_555
H39 C71 1_555 1_555
C72 C71 1_555 1_555
H40 C72 1_555 1_555
H41 C72 1_555 1_555
C73 C72 1_555 1_555
H42 C73 1_555 1_555
H43 C73 1_555 1_555
C74 C73 1_555 1_555
H44 C74 1_555 1_555
H45 C74 1_555 1_555
C75 C74 1_555 1_555
H46 C75 1_555 1_555
H47 C75 1_555 1_555
H48 C75 1_555 1_555
C76 C67 1_555 1_555
H49 C76 1_555 1_555
H50 C76 1_555 1_555
C77 C76 1_555 1_555
H51 C77 1_555 1_555
H52 C77 1_555 1_555
C78 C77 1_555 1_555
H53 C78 1_555 1_555
H54 C78 1_555 1_555
C79 C78 1_555 1_555
H55 C79 1_555 1_555
H56 C79 1_555 1_555
C80 C79 1_555 1_555
H57 C80 1_555 1_555
H58 C80 1_555 1_555
H59 C80 1_555 1_555
C81 C52 1_555 1_555
H60 C81 1_555 1_555
C82 C81 1_555 1_555
H61 C82 1_555 1_555
H62 C82 1_555 1_555
C83 C82 1_555 1_555
H63 C83 1_555 1_555
H64 C83 1_555 1_555
C84 C83 1_555 1_555
H65 C84 1_555 1_555
H66 C84 1_555 1_555
C85 C84 1_555 1_555
H67 C85 1_555 1_555
H68 C85 1_555 1_555
C86 C85 1_555 1_555
H69 C86 1_555 1_555
H70 C86 1_555 1_555
H71 C86 1_555 1_555
C87 C81 1_555 1_555
H72 C87 1_555 1_555
H73 C87 1_555 1_555
C88 C87 1_555 1_555
H74 C88 1_555 1_555
H75 C88 1_555 1_555
C89 C88 1_555 1_555
H76 C89 1_555 1_555
H77 C89 1_555 1_555
C90 C89 1_555 1_555
H78 C90 1_555 1_555
H79 C90 1_555 1_555
C91 C90 1_555 1_555
H80 C91 1_555 1_555
H81 C91 1_555 1_555
C92 C91 1_555 1_555
H82 C92 1_555 1_555
H83 C92 1_555 1_555
C93 C92 1_555 1_555
H84 C93 1_555 1_555
H85 C93 1_555 1_555
C94 C93 1_555 1_555
H86 C94 1_555 1_555
H87 C94 1_555 1_555
H88 C94 1_555 1_555
C95 C58 1_555 1_555
H89 C95 1_555 1_555
C96 C95 1_555 1_555
H90 C96 1_555 1_555
H91 C96 1_555 1_555
C97 C96 1_555 1_555
H92 C97 1_555 1_555
H93 C97 1_555 1_555
C98 C97 1_555 1_555
H94 C98 1_555 1_555
H95 C98 1_555 1_555
C99 C98 1_555 1_555
H96 C99 1_555 1_555
H97 C99 1_555 1_555
C100 C99 1_555 1_555
H98 C100 1_555 1_555
H99 C100 1_555 1_555
C101 C100 1_555 1_555
H100 C101 1_555 1_555
H101 C101 1_555 1_555
C102 C101 1_555 1_555
H102 C102 1_555 1_555
H103 C102 1_555 1_555
C103 C102 1_555 1_555
H104 C103 1_555 1_555
H105 C103 1_555 1_555
H106 C103 1_555 1_555
C104 C95 1_555 1_555
H107 C104 1_555 1_555
H108 C104 1_555 1_555
C105 C104 1_555 1_555
H109 C105 1_555 1_555
H110 C105 1_555 1_555
C106 C105 1_555 1_555
C107 C106 1_555 1_555
H111 C107 1_555 1_555
H112 C107 1_555 1_555
H113 C107 1_555 1_555
C108 C64 1_555 1_555
H114 C108 1_555 1_555
C109 C108 1_555 1_555
H115 C109 1_555 1_555
H116 C109 1_555 1_555
C110 C109 1_555 1_555
H117 C110 1_555 1_555
H118 C110 1_555 1_555
C111 C110 1_555 1_555
H119 C111 1_555 1_555
H120 C111 1_555 1_555
C112 C111 1_555 1_555
H121 C112 1_555 1_555
H122 C112 1_555 1_555
C113 C112 1_555 1_555
H123 C113 1_555 1_555
H124 C113 1_555 1_555
C114 C113 1_555 1_555
H125 C114 1_555 1_555
H126 C114 1_555 1_555
C115 C114 1_555 1_555
H127 C115 1_555 1_555
H128 C115 1_555 1_555
C116 C115 1_555 1_555
H129 C116 1_555 1_555
H130 C116 1_555 1_555
H131 C116 1_555 1_555
C117 C108 1_555 1_555
H132 C117 1_555 1_555
H133 C117 1_555 1_555
C118 C117 1_555 1_555
H134 C118 1_555 1_555
H135 C118 1_555 1_555
C119 C118 1_555 1_555
H136 C119 1_555 1_555
H137 C119 1_555 1_555
C120 C119 1_555 1_555
H138 C120 1_555 1_555
H139 C120 1_555 1_555
C121 C120 1_555 1_555
H140 C121 1_555 1_555
H141 C121 1_555 1_555
H142 C121 1_555 1_555
N1 C122 1_555 1_555
C122 C123 1_555 1_555
C123 H143 1_555 1_555
H144 C123 1_555 1_555
H145 C123 1_555 1_555
C5 C6 1_555 1_555
C8 C36 1_555 1_555
C15 C16 1_555 1_555
C15 C37 1_555 1_555
C18 C19 1_555 1_555
C28 C42 1_555 1_555
C34 C35 1_555 1_555
C35 C38 1_555 1_555
C36 C37 1_555 1_555
C38 C39 1_555 1_555
C39 C40 1_555 1_555
C40 C41 1_555 1_555
C41 C42 1_555 1_555
C47 C48 1_555 1_555
C53 C54 1_555 1_555
C59 C60 1_555 1_555
C65 C66 1_555 1_555

#END
