
#######################################################################
#
#                 Cambridge Crystallographic Data Centre
#                                CCDC 
#
#######################################################################
#
# If this CIF has been generated from an entry in the Cambridge 
# Structural Database, then it will include bibliographic, chemical, 
# crystal, experimental, refinement or atomic coordinate data resulting 
# from the CCDC's data processing and validation procedures.
#
#######################################################################

data_VEWZIG
_chemical_formula_moiety         'C18 H24 N2 O5'
_chemical_name_systematic        
2,6-Dimethyl-3,5-bis(ethoxycarbonyl)-4-(3,5-dimethylisoxazolyl)-1,4-dihydropyridine
_chemical_properties_biological  'cardiovascular drug activity'
_symmetry_cell_setting           monoclinic
_symmetry_space_group_name_H-M   'C 2/c'
_symmetry_Int_Tables_number      15
_space_group_name_Hall           '-C 2yn'
loop_
_symmetry_equiv_pos_site_id
_symmetry_equiv_pos_as_xyz
1 x,y,z
2 1/2+x,1/2+y,z
3 -x,y,1/2-z
4 1/2-x,1/2+y,1/2-z
5 -x,-y,-z
6 1/2-x,1/2-y,-z
7 x,-y,1/2+z
8 1/2+x,1/2-y,1/2+z
_cell_length_a                   20.088(8)
_cell_length_b                   8.936(2)
_cell_length_c                   23.691(6)
_cell_angle_alpha                90
_cell_angle_beta                 122.94(2)
_cell_angle_gamma                90
_cell_volume                     3569.03
_cell_formula_units_Z            8
loop_
_atom_site_label
_atom_site_type_symbol
_atom_site_fract_x
_atom_site_fract_y
_atom_site_fract_z
C1 C 0.1588(2) 0.5137(5) 0.0893(2)
C2 C 0.0628(3) 0.3984(5) -0.0297(2)
C3 C 0.1056(2) 0.5146(4) 0.0225(2)
N1 N 0.1318(2) 0.7553(4) 0.0546(2)
C4 C 0.1737(3) 0.6674(5) 0.1074(2)
C5 C 0.2288(3) 0.7363(5) 0.1743(2)
C6 C 0.1974(3) 0.3803(4) 0.1356(2)
C7 C 0.1369(2) 0.2820(4) 0.1380(2)
C8 C 0.1023(3) 0.3372(5) 0.1749(2)
C9 C 0.0525(3) 0.0464(5) 0.1018(3)
C10 C 0.1157(3) 0.1473(5) 0.1076(2)
C11 C 0.2200(3) 0.1534(5) 0.0854(2)
C12 C 0.2597(3) 0.0575(5) 0.0600(2)
C13 C 0.3178(3) 0.3563(5) 0.1258(2)
C14 C 0.2450(2) 0.2901(5) 0.1151(2)
C15 C 0.4003(3) 0.5747(5) 0.1684(2)
C16 C 0.3702(3) 0.6780(6) 0.1094(3)
C17 C 0.0909(5) 0.5452(6) 0.2316(3)
C18 C 0.0720(4) 0.7002(8) 0.2155(3)
N2 N 0.1522(2) 0.0908(4) 0.0767(2)
O1 O 0.1228(2) 0.4801(3) 0.1950(2)
O2 O 0.0598(2) 0.2676(4) 0.1874(2)
O3 O 0.3355(2) 0.4852(3) 0.1607(1)
O4 O 0.3591(2) 0.3080(4) 0.1068(2)
O5 O 0.0872(2) 0.6582(3) -0.0006(2)
loop_
_geom_bond_atom_site_label_1
_geom_bond_atom_site_label_2
_geom_bond_site_symmetry_1
_geom_bond_site_symmetry_2
C1 C3 1_555 1_555
C2 C3 1_555 1_555
C3 O5 1_555 1_555
N1 C4 1_555 1_555
C4 C1 1_555 1_555
C5 C4 1_555 1_555
C6 C1 1_555 1_555
C7 C6 1_555 1_555
C8 C7 1_555 1_555
C9 C10 1_555 1_555
C10 C7 1_555 1_555
C11 C12 1_555 1_555
C13 C14 1_555 1_555
C14 C6 1_555 1_555
C15 C16 1_555 1_555
C17 C18 1_555 1_555
N2 C10 1_555 1_555
O1 C8 1_555 1_555
O2 C8 1_555 1_555
O3 C13 1_555 1_555
O4 C13 1_555 1_555
O5 N1 1_555 1_555
C11 C14 1_555 1_555
C11 N2 1_555 1_555
C15 O3 1_555 1_555
C17 O1 1_555 1_555

#END
