
#######################################################################
#
#                 Cambridge Crystallographic Data Centre
#                                CCDC 
#
#######################################################################
#
# If this CIF has been generated from an entry in the Cambridge 
# Structural Database, then it will include bibliographic, chemical, 
# crystal, experimental, refinement or atomic coordinate data resulting 
# from the CCDC's data processing and validation procedures.
#
#######################################################################

data_VEWZOM
_chemical_formula_moiety         'C12 H13 F1 N5 1+,C1 H3 O3 S1 1-'
_chemical_name_systematic        
'8-Fluoro-4-isopropylamino(1,2,4)triazolo(4,3-a)quinoxaline methanesulfonate'
_chemical_properties_biological  'potential rapid-acting antidepressant agent'
_symmetry_cell_setting           monoclinic
_symmetry_space_group_name_H-M   'P 21/c'
_symmetry_Int_Tables_number      14
_space_group_name_Hall           '-P 2ybc'
loop_
_symmetry_equiv_pos_site_id
_symmetry_equiv_pos_as_xyz
1 x,y,z
2 -x,1/2+y,1/2-z
3 -x,-y,-z
4 x,1/2-y,1/2+z
_cell_length_a                   12.864(2)
_cell_length_b                   7.075(2)
_cell_length_c                   17.667(4)
_cell_angle_alpha                90
_cell_angle_beta                 105.58(2)
_cell_angle_gamma                90
_cell_volume                     1548.84
_chemical_melting_point          236-237deg.C
_cell_formula_units_Z            4
loop_
_atom_site_label
_atom_site_type_symbol
_atom_site_fract_x
_atom_site_fract_y
_atom_site_fract_z
C1 C 0.6380(3) 0.5427(5) 0.7365(2)
N1 N 0.5873(2) 0.4876(4) 0.7874(1)
N2 N 0.4781(2) 0.5079(4) 0.7543(1)
C2 C 0.4687(2) 0.5788(4) 0.6839(2)
C3 C 0.3710(3) 0.6247(4) 0.6249(2)
N3 N 0.2779(2) 0.5981(4) 0.6395(2)
C4 C 0.1712(2) 0.6300(5) 0.5862(2)
C5 C 0.1386(3) 0.8334(6) 0.5891(2)
C6 C 0.0929(3) 0.4925(7) 0.6068(2)
N4 N 0.3830(2) 0.6865(4) 0.5559(1)
C7 C 0.4839(2) 0.7131(4) 0.5408(2)
C8 C 0.4902(3) 0.7798(4) 0.4682(2)
C9 C 0.5896(3) 0.8043(4) 0.4546(2)
C10 C 0.6813(3) 0.7613(5) 0.5130(2)
F1 F 0.7788(2) 0.7822(3) 0.4984(1)
C11 C 0.6790(3) 0.6965(4) 0.5853(2)
C12 C 0.5784(2) 0.6728(4) 0.5983(2)
N5 N 0.5661(2) 0.6041(3) 0.6698(1)
H1 H 0.7149 0.5418 0.7450
H2 H 0.2817(24) 0.5861(46) 0.6887(18)
H3 H 0.1711 0.6089 0.5325
H4 H 0.1313 0.8619 0.6405
H5 H 0.0709 0.8545 0.5508
H6 H 0.1927 0.9136 0.5778
H7 H 0.0209 0.5196 0.5758
H8 H 0.0964 0.5045 0.6615
H9 H 0.1120 0.3660 0.5962
H10 H 0.3296(24) 0.7126(46) 0.5183(18)
H11 H 0.4258 0.8087 0.4277
H12 H 0.5954 0.8507 0.4048
H13 H 0.7440 0.6682 0.6253
S1 S 0.1793(1) 0.7860(1) 0.3385(1)
C13 C 0.0653(3) 0.9226(6) 0.3319(2)
O1 O 0.1435(2) 0.6077(4) 0.3020(2)
O2 O 0.2294(2) 0.7692(4) 0.4216(1)
O3 O 0.2464(2) 0.8878(4) 0.2991(1)
H14 H 0.0239 0.9296 0.2780
H15 H 0.0861 1.0476 0.3513
H16 H 0.0224 0.8657 0.3627
loop_
_geom_bond_atom_site_label_1
_geom_bond_atom_site_label_2
_geom_bond_site_symmetry_1
_geom_bond_site_symmetry_2
C1 N1 1_555 1_555
N1 N2 1_555 1_555
N2 C2 1_555 1_555
C2 C3 1_555 1_555
C3 N3 1_555 1_555
N3 C4 1_555 1_555
C4 C5 1_555 1_555
C5 H4 1_555 1_555
C6 C4 1_555 1_555
N4 C3 1_555 1_555
C7 N4 1_555 1_555
C8 C7 1_555 1_555
C9 C8 1_555 1_555
C10 C9 1_555 1_555
F1 C10 1_555 1_555
C11 C10 1_555 1_555
C12 C7 1_555 1_555
N5 C1 1_555 1_555
S1 C13 1_555 1_555
C13 H14 1_555 1_555
O1 S1 1_555 1_555
O2 S1 1_555 1_555
O3 S1 1_555 1_555
H1 C1 1_555 1_555
H2 N3 1_555 1_555
H3 C4 1_555 1_555
H5 C5 1_555 1_555
H6 C5 1_555 1_555
H7 C6 1_555 1_555
H8 C6 1_555 1_555
H9 C6 1_555 1_555
H10 N4 1_555 1_555
H11 C8 1_555 1_555
H12 C9 1_555 1_555
H13 C11 1_555 1_555
H15 C13 1_555 1_555
H16 C13 1_555 1_555
C2 N5 1_555 1_555
C11 C12 1_555 1_555
C12 N5 1_555 1_555

#END
