
#######################################################################
#
#                 Cambridge Crystallographic Data Centre
#                                CCDC 
#
#######################################################################
#
# If this CIF has been generated from an entry in the Cambridge 
# Structural Database, then it will include bibliographic, chemical, 
# crystal, experimental, refinement or atomic coordinate data resulting 
# from the CCDC's data processing and validation procedures.
#
#######################################################################

data_VEXJAL
_chemical_formula_moiety         'C22 H16 O4 Se1'
_chemical_name_systematic        
1-Hydroxy-8-(2-(phenylselanyl)ethoxy)-9,10-anthraquinone
_symmetry_cell_setting           monoclinic
_symmetry_space_group_name_H-M   'P 21/n'
_symmetry_Int_Tables_number      14
_space_group_name_Hall           '-P 2yn'
loop_
_symmetry_equiv_pos_site_id
_symmetry_equiv_pos_as_xyz
1 x,y,z
2 1/2-x,1/2+y,1/2-z
3 -x,-y,-z
4 1/2+x,1/2-y,1/2+z
_cell_length_a                   4.9766(4)
_cell_length_b                   9.8819(8)
_cell_length_c                   35.631(3)
_cell_angle_alpha                90
_cell_angle_beta                 93.0470(10)
_cell_angle_gamma                90
_cell_volume                     1749.79
_exptl_crystal_colour            yellow
_exptl_crystal_description       block
_cell_formula_units_Z            4
loop_
_atom_site_label
_atom_site_type_symbol
_atom_site_fract_x
_atom_site_fract_y
_atom_site_fract_z
Se1 Se 1.18067(5) 0.60145(3) 0.778143(7)
O1 O -0.2040(3) 0.40945(17) 0.96668(5)
O2 O 0.1434(3) 0.96719(16) 0.92356(5)
H1 H 0.2529 0.9297 0.9097
O3 O 0.3741(3) 0.77300(16) 0.89231(5)
O4 O 0.6054(3) 0.57985(15) 0.85749(4)
C1 C 0.2430(4) 0.6874(2) 0.90907(6)
C2 C 0.2829(4) 0.5408(2) 0.90323(6)
C3 C 0.4969(5) 0.3503(2) 0.87352(7)
H2 H 0.6182 0.3163 0.8561
C4 C 0.0417(4) 0.7319(2) 0.93523(6)
C5 C -0.1144(4) 0.6395(2) 0.95480(6)
C6 C 0.1338(4) 0.4465(2) 0.92365(6)
C7 C 0.4654(4) 0.4895(2) 0.87762(6)
C8 C 0.7889(4) 0.5275(2) 0.83083(6)
H3 H 0.6900 0.4760 0.8107
H4 H 0.9245 0.4674 0.8435
C9 C -0.0729(4) 0.4918(2) 0.94990(6)
C10 C 0.8585(5) 0.4764(3) 0.67389(7)
H5 H 0.9022 0.4092 0.6561
C11 C -0.3044(5) 0.6842(3) 0.97896(6)
H6 H -0.4085 0.6209 0.9921
C12 C 0.0004(5) 0.8716(2) 0.94087(7)
C13 C 0.3533(5) 0.2614(2) 0.89458(7)
H7 H 0.3805 0.1668 0.8920
C14 C 0.5883(5) 0.6634(3) 0.69149(7)
H8 H 0.4409 0.7228 0.6862
C15 C 0.1697(5) 0.3081(2) 0.91953(7)
H9 H 0.0697 0.2461 0.9336
C16 C 0.9500(5) 0.5863(2) 0.73344(7)
C17 C 0.7417(5) 0.6768(2) 0.72475(7)
H10 H 0.7049 0.7478 0.7417
C18 C -0.3417(5) 0.8222(3) 0.98391(7)
H11 H -0.4720 0.8528 1.0005
C19 C 0.9218(5) 0.6508(2) 0.81493(7)
H12 H 1.0147 0.7022 0.8356
H13 H 0.7823 0.7103 0.8029
C20 C -0.1925(5) 0.9155(3) 0.96508(7)
H14 H -0.2212 1.0095 0.9686
C21 C 1.0073(5) 0.4856(2) 0.70793(7)
H15 H 1.1483 0.4230 0.7137
C22 C 0.6478(5) 0.5641(3) 0.66567(7)
H16 H 0.5444 0.5565 0.6426
loop_
_geom_bond_atom_site_label_1
_geom_bond_atom_site_label_2
_geom_bond_site_symmetry_1
_geom_bond_site_symmetry_2
Se1 C16 1_555 1_555
O1 C9 1_555 1_555
O2 H1 1_555 1_555
O3 C1 1_555 1_555
O4 C7 1_555 1_555
C1 C2 1_555 1_555
C2 C6 1_555 1_555
C3 H2 1_555 1_555
C4 C1 1_555 1_555
C5 C4 1_555 1_555
C6 C9 1_555 1_555
C7 C2 1_555 1_555
C8 O4 1_555 1_555
H3 C8 1_555 1_555
H4 C8 1_555 1_555
C9 C5 1_555 1_555
C10 H5 1_555 1_555
C11 C5 1_555 1_555
H6 C11 1_555 1_555
C12 O2 1_555 1_555
C13 C3 1_555 1_555
H7 C13 1_555 1_555
C14 H8 1_555 1_555
C15 C6 1_555 1_555
H9 C15 1_555 1_555
C16 C17 1_555 1_555
C17 C14 1_555 1_555
H10 C17 1_555 1_555
C18 C11 1_555 1_555
H11 C18 1_555 1_555
C19 Se1 1_555 1_555
H12 C19 1_555 1_555
H13 C19 1_555 1_555
C20 C12 1_555 1_555
H14 C20 1_555 1_555
C21 C10 1_555 1_555
H15 C21 1_555 1_555
C22 C10 1_555 1_555
H16 C22 1_555 1_555
C3 C7 1_555 1_555
C4 C12 1_555 1_555
C8 C19 1_555 1_555
C13 C15 1_555 1_555
C14 C22 1_555 1_555
C16 C21 1_555 1_555
C18 C20 1_555 1_555

#END
