
#######################################################################
#
#                 Cambridge Crystallographic Data Centre
#                                CCDC 
#
#######################################################################
#
# If this CIF has been generated from an entry in the Cambridge 
# Structural Database, then it will include bibliographic, chemical, 
# crystal, experimental, refinement or atomic coordinate data resulting 
# from the CCDC's data processing and validation procedures.
#
#######################################################################

data_VEXLUF
_chemical_formula_moiety         'C10 H18 N2 O5 S1,H2 O1'
_chemical_name_systematic        
'D-N-\g-L-Glutamyl-L-cysteine ethyl ester monohydrate'
_chemical_properties_biological  
'anticataractogenic activity and potential drug for liver a nd kidney diseases'
_symmetry_cell_setting           monoclinic
_symmetry_space_group_name_H-M   'P 21'
_symmetry_Int_Tables_number      4
_space_group_name_Hall           'P 2yb'
loop_
_symmetry_equiv_pos_site_id
_symmetry_equiv_pos_as_xyz
1 x,y,z
2 -x,1/2+y,-z
_cell_length_a                   19.600(1)
_cell_length_b                   7.480(1)
_cell_length_c                   5.061(1)
_cell_angle_alpha                90
_cell_angle_beta                 94.74(1)
_cell_angle_gamma                90
_cell_volume                     739.445
_cell_formula_units_Z            2
loop_
_atom_site_label
_atom_site_type_symbol
_atom_site_fract_x
_atom_site_fract_y
_atom_site_fract_z
S1 S 0.2961(1) -0.0730 1.2003(4)
O1 O 0.3956(2) 0.3427(9) 1.3768(8)
O2 O 0.4435(2) 0.157(1) 1.0952(8)
O3 O 0.2340(2) 0.4093(7) 0.6384(6)
O4 O 0.0366(2) 0.6460(5) 1.2193(5)
O5 O -0.0203(2) 0.6485(7) 0.8217(6)
N1 N 0.2790(2) 0.3667(6) 1.0549(7)
N2 N 0.0598(2) 0.9039(5) 0.6443(6)
C1 C 0.3331(2) 0.2555(9) 0.9715(9)
C2 C 0.3103(3) 0.065(1) 0.913(1)
C3 C 0.3933(2) 0.259(1) 1.174(1)
C4 C 0.5053(3) 0.137(3) 1.282(1)
C5 C 0.5618(4) 0.187(2) 1.179(2)
C6 C 0.2320(2) 0.4362(8) 0.8784(8)
C7 C 0.1756(2) 0.5438(8) 0.9857(8)
C8 C 0.1435(2) 0.6708(7) 0.7765(8)
C9 C 0.0876(2) 0.7933(6) 0.8729(7)
C10 C 0.0286(2) 0.6885(6) 0.9813(8)
H1 H 0.240(3) -0.01(1) 1.26(1)
H2 H 0.278(3) 0.391(9) 1.22(1)
H3 H 0.089(2) 0.957(7) 0.591(8)
H4 H 0.020(3) 0.981(8) 0.70(1)
H5 H 0.044(2) 0.819(8) 0.521(9)
H6 H 0.355(3) 0.28(1) 0.83(1)
H7 H 0.139(3) 0.479(9) 1.03(1)
H8 H 0.178(4) 0.61(2) 1.12(2)
H9 H 0.126(3) 0.613(9) 0.64(1)
H10 H 0.179(2) 0.747(6) 0.701(8)
H11 H 0.108(2) 0.869(7) 0.990(8)
H12 H 0.271(4) 0.06(1) 0.81(1)
H13 H 0.345(3) -0.03(1) 0.83(1)
O6 O 0.1500(2) 0.1407(7) 1.3882(8)
H14 H 0.101(3) 0.16(1) 1.29(1)
H15 H 0.157(4) 0.24(1) 1.48(1)
loop_
_geom_bond_atom_site_label_1
_geom_bond_atom_site_label_2
_geom_bond_site_symmetry_1
_geom_bond_site_symmetry_2
S1 C2 1_555 1_555
O1 C3 1_555 1_555
O2 C3 1_555 1_555
O3 C6 1_555 1_555
O4 C10 1_555 1_555
O5 C10 1_555 1_555
N1 C1 1_555 1_555
N2 C9 1_555 1_555
C1 C2 1_555 1_555
C2 H12 1_555 1_555
C3 C1 1_555 1_555
C4 O2 1_555 1_555
C5 C4 1_555 1_555
C6 N1 1_555 1_555
C7 C6 1_555 1_555
C8 C7 1_555 1_555
C9 C8 1_555 1_555
C10 C9 1_555 1_555
H1 S1 1_555 1_555
H2 N1 1_555 1_555
H3 N2 1_555 1_555
H4 N2 1_555 1_555
H5 N2 1_555 1_555
H6 C1 1_555 1_555
H7 C7 1_555 1_555
H8 C7 1_555 1_555
H9 C8 1_555 1_555
H10 C8 1_555 1_555
H11 C9 1_555 1_555
H13 C2 1_555 1_555
O6 H14 1_555 1_555
H15 O6 1_555 1_555

#END
