
#######################################################################
#
#                 Cambridge Crystallographic Data Centre
#                                CCDC 
#
#######################################################################
#
# If this CIF has been generated from an entry in the Cambridge 
# Structural Database, then it will include bibliographic, chemical, 
# crystal, experimental, refinement or atomic coordinate data resulting 
# from the CCDC's data processing and validation procedures.
#
#######################################################################

data_VEXNEU
_chemical_formula_moiety         'C12 H12 N2 O5'
_chemical_name_systematic        
1-(2-hydroxy-5-nitrophenyl)-3,3-dimethylpyrrolidine-2,5-dione
_symmetry_cell_setting           monoclinic
_symmetry_space_group_name_H-M   'C 2/c'
_symmetry_Int_Tables_number      15
_space_group_name_Hall           '-C 2yn'
loop_
_symmetry_equiv_pos_site_id
_symmetry_equiv_pos_as_xyz
1 x,y,z
2 -x,y,1/2-z
3 1/2+x,1/2+y,z
4 1/2-x,1/2+y,1/2-z
5 -x,-y,-z
6 x,-y,1/2+z
7 1/2-x,1/2-y,-z
8 1/2+x,1/2-y,1/2+z
_cell_length_a                   11.039(5)
_cell_length_b                   20.066(8)
_cell_length_c                   12.073(6)
_cell_angle_alpha                90
_cell_angle_beta                 113.575(6)
_cell_angle_gamma                90
_cell_volume                     2451.07
_exptl_crystal_colour            colorless
_exptl_crystal_description       block
_cell_formula_units_Z            8
loop_
_atom_site_label
_atom_site_type_symbol
_atom_site_fract_x
_atom_site_fract_y
_atom_site_fract_z
O1 O 0.76203(14) 0.38737(10) 0.60552(15)
O2 O 0.67053(14) 0.35160(8) 0.72173(13)
O3 O 0.16906(13) 0.45619(7) 0.29789(13)
O4 O 0.19378(13) 0.47915(6) 0.61103(12)
O5 O 0.13442(15) 0.28701(7) 0.39602(14)
N1 N 0.66421(15) 0.37693(8) 0.62726(14)
N2 N 0.18684(13) 0.38688(7) 0.49806(13)
C1 C 0.53513(16) 0.39602(8) 0.53739(16)
C2 C 0.52673(18) 0.42933(9) 0.43395(17)
H1 H 0.6025 0.4382 0.4206
C3 C 0.40439(18) 0.44911(9) 0.35129(17)
H2 H 0.3972 0.4710 0.2810
C4 C 0.29045(17) 0.43642(9) 0.37262(16)
C5 C 0.30256(16) 0.40138(8) 0.47674(15)
C6 C 0.42427(17) 0.38111(8) 0.55968(15)
H3 H 0.4319 0.3580 0.6289
C7 C 0.11179(17) 0.32785(9) 0.45748(16)
C8 C 0.00379(17) 0.32768(9) 0.50655(16)
C9 C 0.01858(17) 0.39620(9) 0.56773(17)
H4 H -0.0579 0.4238 0.5244
H5 H 0.0272 0.3912 0.6505
C10 C 0.14107(16) 0.42702(8) 0.56461(15)
C11 C 0.0336(2) 0.27140(10) 0.59861(19)
H6 H 0.0358 0.2297 0.5603
H7 H -0.0340 0.2699 0.6297
H8 H 0.1178 0.2791 0.6638
C12 C -0.1298(2) 0.31715(12) 0.4017(2)
H9 H -0.1466 0.3532 0.3452
H10 H -0.1980 0.3158 0.4319
H11 H -0.1288 0.2758 0.3620
H12 H 0.172(3) 0.4808(14) 0.235(3)
loop_
_geom_bond_atom_site_label_1
_geom_bond_atom_site_label_2
_geom_bond_site_symmetry_1
_geom_bond_site_symmetry_2
O1 N1 1_555 1_555
O2 N1 1_555 1_555
O3 C4 1_555 1_555
O4 C10 1_555 1_555
O5 C7 1_555 1_555
N1 C1 1_555 1_555
N2 C5 1_555 1_555
C1 C2 1_555 1_555
C2 H1 1_555 1_555
C3 C2 1_555 1_555
H2 C3 1_555 1_555
C4 C3 1_555 1_555
C5 C4 1_555 1_555
C6 C1 1_555 1_555
H3 C6 1_555 1_555
C7 N2 1_555 1_555
C8 C7 1_555 1_555
C9 C8 1_555 1_555
H4 C9 1_555 1_555
H5 C9 1_555 1_555
C10 N2 1_555 1_555
C11 C8 1_555 1_555
H6 C11 1_555 1_555
H7 C11 1_555 1_555
H8 C11 1_555 1_555
C12 C8 1_555 1_555
H9 C12 1_555 1_555
H10 C12 1_555 1_555
H11 C12 1_555 1_555
H12 O3 1_555 1_555
C5 C6 1_555 1_555
C9 C10 1_555 1_555

#END
