
#######################################################################
#
#                 Cambridge Crystallographic Data Centre
#                                CCDC 
#
#######################################################################
#
# If this CIF has been generated from an entry in the Cambridge 
# Structural Database, then it will include bibliographic, chemical, 
# crystal, experimental, refinement or atomic coordinate data resulting 
# from the CCDC's data processing and validation procedures.
#
#######################################################################

data_VEXNIY
_chemical_formula_moiety         'C12 H11 Cl1 N2 O5'
_chemical_name_systematic        
1-(3-chloro-2-hydroxy-5-nitrophenyl)-3,3-dimethylpyrrolidine-2,5-dione
_symmetry_cell_setting           monoclinic
_symmetry_space_group_name_H-M   'P 21/c'
_symmetry_Int_Tables_number      14
_space_group_name_Hall           '-P 2ybc'
loop_
_symmetry_equiv_pos_site_id
_symmetry_equiv_pos_as_xyz
1 x,y,z
2 -x,1/2+y,1/2-z
3 -x,-y,-z
4 x,1/2-y,1/2+z
_cell_length_a                   7.4961(15)
_cell_length_b                   18.219(4)
_cell_length_c                   9.7283(19)
_cell_angle_alpha                90
_cell_angle_beta                 96.59(3)
_cell_angle_gamma                90
_cell_volume                     1319.83
_exptl_crystal_colour            colorless
_exptl_crystal_description       block
_cell_formula_units_Z            4
loop_
_atom_site_label
_atom_site_type_symbol
_atom_site_fract_x
_atom_site_fract_y
_atom_site_fract_z
Cl1 Cl 0.31126(6) 0.36739(2) 0.85825(4)
O1 O 0.61083(14) 0.32077(6) 1.07432(11)
H1 H 0.5641 0.3014 1.0030
O2 O 0.13740(19) 0.59935(7) 1.13415(16)
O3 O 0.2796(2) 0.59049(8) 1.34027(17)
O4 O 0.92937(15) 0.46674(6) 1.26684(12)
O5 O 0.56450(15) 0.28334(6) 1.38443(12)
N1 N 0.24462(19) 0.56933(8) 1.22032(17)
N2 N 0.71445(15) 0.38380(6) 1.31566(11)
C1 C 0.37267(18) 0.40956(8) 1.01535(14)
C2 C 0.28311(19) 0.47168(8) 1.05196(15)
H2 H 0.1888 0.4914 0.9929
C3 C 0.33758(19) 0.50371(8) 1.17880(16)
C4 C 0.47891(19) 0.47619(8) 1.26854(14)
H3 H 0.5137 0.4988 1.3531
C5 C 0.56641(18) 0.41457(7) 1.22929(13)
C6 C 0.51614(18) 0.37969(7) 1.10233(14)
C7 C 0.89039(18) 0.40980(8) 1.31912(14)
C8 C 1.01623(19) 0.35250(8) 1.39066(14)
C9 C 0.88816(19) 0.29752(8) 1.44880(15)
H4 H 0.9185 0.2476 1.4257
H5 H 0.8949 0.3018 1.5486
C10 C 0.7040(2) 0.31710(8) 1.38236(14)
C11 C 1.1500(2) 0.38787(10) 1.50057(17)
H6 H 1.2146 0.4259 1.4591
H7 H 1.2329 0.3514 1.5402
H8 H 1.0868 0.4086 1.5717
C12 C 1.1126(2) 0.31779(9) 1.27565(17)
H9 H 1.0257 0.2957 1.2080
H10 H 1.1950 0.2810 1.3148
H11 H 1.1774 0.3550 1.2323
loop_
_geom_bond_atom_site_label_1
_geom_bond_atom_site_label_2
_geom_bond_site_symmetry_1
_geom_bond_site_symmetry_2
Cl1 C1 1_555 1_555
O1 H1 1_555 1_555
O2 N1 1_555 1_555
O3 N1 1_555 1_555
O4 C7 1_555 1_555
O5 C10 1_555 1_555
N1 C3 1_555 1_555
N2 C5 1_555 1_555
C1 C2 1_555 1_555
C2 H2 1_555 1_555
C3 C2 1_555 1_555
C4 C3 1_555 1_555
H3 C4 1_555 1_555
C5 C4 1_555 1_555
C6 O1 1_555 1_555
C7 N2 1_555 1_555
C8 C7 1_555 1_555
C9 C8 1_555 1_555
H4 C9 1_555 1_555
H5 C9 1_555 1_555
C10 N2 1_555 1_555
C11 C8 1_555 1_555
H6 C11 1_555 1_555
H7 C11 1_555 1_555
H8 C11 1_555 1_555
C12 C8 1_555 1_555
H9 C12 1_555 1_555
H10 C12 1_555 1_555
H11 C12 1_555 1_555
C1 C6 1_555 1_555
C5 C6 1_555 1_555
C9 C10 1_555 1_555

#END
