
#######################################################################
#
#                 Cambridge Crystallographic Data Centre
#                                CCDC 
#
#######################################################################
#
# If this CIF has been generated from an entry in the Cambridge 
# Structural Database, then it will include bibliographic, chemical, 
# crystal, experimental, refinement or atomic coordinate data resulting 
# from the CCDC's data processing and validation procedures.
#
#######################################################################

data_VEXQIB
_chemical_formula_moiety         'C10 H6 O6 S2 2-,2(C4 H8 N5 1+)'
_chemical_name_systematic        
'bis(2,4,6-triaminopyrimidinium) naphthalene-1,5-disulfonate'
_symmetry_cell_setting           triclinic
_symmetry_space_group_name_H-M   'P -1'
_symmetry_Int_Tables_number      2
_space_group_name_Hall           '-P 1'
loop_
_symmetry_equiv_pos_site_id
_symmetry_equiv_pos_as_xyz
1 x,y,z
2 -x,-y,-z
_cell_length_a                   7.0374(5)
_cell_length_b                   7.7813(5)
_cell_length_c                   10.9019(8)
_cell_angle_alpha                70.579(6)
_cell_angle_beta                 83.459(6)
_cell_angle_gamma                81.402(6)
_cell_volume                     555.373
_cell_formula_units_Z            1
loop_
_atom_site_label
_atom_site_type_symbol
_atom_site_fract_x
_atom_site_fract_y
_atom_site_fract_z
S1 S 0.26752(10) 0.82744(8) 1.27406(6)
O1 O 0.2308(3) 0.6707(2) 1.24007(18)
O2 O 0.4446(3) 0.7929(3) 1.34038(19)
O3 O 0.2575(3) 0.9948(3) 1.16332(18)
C1 C 0.0793(4) 0.8561(3) 1.3913(2)
C2 C 0.2099(4) 1.1245(3) 1.4152(2)
H1 H 0.3078 1.1194 1.3510
C3 C 0.1989(4) 1.2559(3) 1.4739(3)
H2 H 0.2882 1.3402 1.4486
C4 C 0.0746(4) 0.9958(3) 1.4504(2)
C5 C -0.0541(4) 0.7348(3) 1.4280(3)
H3 H -0.0491 0.6457 1.3878
S1A S -0.26752(10) 1.17256(8) 1.72594(6)
O1A O -0.2308(3) 1.3293(2) 1.75993(18)
O2A O -0.4446(3) 1.2071(3) 1.65962(19)
O3A O -0.2575(3) 1.0052(3) 1.83668(18)
C1A C -0.0793(4) 1.1439(3) 1.6087(2)
C2A C -0.2099(4) 0.8755(3) 1.5848(2)
H1A H -0.3078 0.8806 1.6490
C3A C -0.1989(4) 0.7441(3) 1.5261(3)
H2A H -0.2882 0.6598 1.5514
C4A C -0.0746(4) 1.0042(3) 1.5496(2)
C5A C 0.0541(4) 1.2652(3) 1.5720(3)
H3A H 0.0491 1.3543 1.6122
N1 N 0.2380(3) 0.6994(3) 0.9801(2)
H4 H 0.2121 0.7203 1.0532
N2 N 0.2869(3) 0.4812(3) 0.8702(2)
N3 N 0.3426(4) 0.5769(3) 0.6483(2)
H5 H 0.2649 0.5006 0.6498
H6 H 0.3232 0.6743 0.5822
N4 N 0.2573(4) 1.0078(3) 0.8830(3)
H7 H 0.2610 1.0904 0.8075
H8 H 0.1515 1.0287 0.9264
N5 N 0.2275(4) 0.3963(3) 1.0934(2)
H9 H 0.2349 0.2829 1.0983
H10 H 0.2045 0.4268 1.1631
C6 C 0.3086(4) 0.6237(4) 0.7577(3)
C7 C 0.2516(4) 0.5244(4) 0.9782(3)
C8 C 0.2979(4) 0.8047(4) 0.7545(3)
H11 H 0.3133 0.8983 0.6758
C9 C 0.2644(4) 0.8425(4) 0.8694(3)
loop_
_geom_bond_atom_site_label_1
_geom_bond_atom_site_label_2
_geom_bond_site_symmetry_1
_geom_bond_site_symmetry_2
S1 O1 1_555 1_555
O2 S1 1_555 1_555
O3 S1 1_555 1_555
C1 S1 1_555 1_555
C2 H1 1_555 1_555
C3 C2 1_555 1_555
H2 C3 1_555 1_555
C4 C1 1_555 1_555
C5 C1 1_555 1_555
H3 C5 1_555 1_555
N1 H4 1_555 1_555
N2 C6 1_555 1_555
N3 H5 1_555 1_555
H6 N3 1_555 1_555
N4 H7 1_555 1_555
H8 N4 1_555 1_555
N5 H9 1_555 1_555
H10 N5 1_555 1_555
C6 N3 1_555 1_555
C7 N1 1_555 1_555
C8 C6 1_555 1_555
H11 C8 1_555 1_555
C9 N1 1_555 1_555
S1A O1A 1_555 1_555
O2A S1A 1_555 1_555
O3A S1A 1_555 1_555
C1A S1A 1_555 1_555
C2A H1A 1_555 1_555
C3A C5 1_555 1_555
H2A C3A 1_555 1_555
C4A C4 1_555 1_555
C5A C3 1_555 1_555
H3A C5A 1_555 1_555
C2 C4 1_555 1_555
N2 C7 1_555 1_555
N4 C9 1_555 1_555
N5 C7 1_555 1_555
C8 C9 1_555 1_555
C1A C4A 1_555 1_555
C1A C5A 1_555 1_555
C2A C3A 1_555 1_555
C2A C4A 1_555 1_555

#END
