
#######################################################################
#
#                 Cambridge Crystallographic Data Centre
#                                CCDC 
#
#######################################################################
#
# If this CIF has been generated from an entry in the Cambridge 
# Structural Database, then it will include bibliographic, chemical, 
# crystal, experimental, refinement or atomic coordinate data resulting 
# from the CCDC's data processing and validation procedures.
#
#######################################################################

data_VEXTIE
_chemical_formula_moiety         'C84 H48 Cl12 N6 O6,6(C1 S2)'
_chemical_name_systematic        
'1,3,4,6,7,9,10,12,13,15,16,18-dodecachloro-N^2^,N^5^,N^8^,N^11^,N^14^,N^17^-hexakis(4-methoxyphenyl)hexabenzo[bc,ef,hi,kl,no,qr]coronene-2,5,8,11,14,17-hexamine hexakis(carbon disulfide)'
_symmetry_cell_setting           rhombohedral
_symmetry_space_group_name_H-M   'R -3'
_symmetry_Int_Tables_number      148
_space_group_name_Hall           '-R 3'
loop_
_symmetry_equiv_pos_site_id
_symmetry_equiv_pos_as_xyz
1 x,y,z
2 -y,x-y,z
3 -x+y,-x,z
4 2/3+x,1/3+y,1/3+z
5 2/3-y,1/3+x-y,1/3+z
6 2/3-x+y,1/3-x,1/3+z
7 1/3+x,2/3+y,2/3+z
8 1/3-y,2/3+x-y,2/3+z
9 1/3-x+y,2/3-x,2/3+z
10 -x,-y,-z
11 y,-x+y,-z
12 x-y,x,-z
13 1/3-x,2/3-y,2/3-z
14 1/3+y,2/3-x+y,2/3-z
15 1/3+x-y,2/3+x,2/3-z
16 2/3-x,1/3-y,1/3-z
17 2/3+y,1/3-x+y,1/3-z
18 2/3+x-y,1/3+x,1/3-z
_cell_length_a                   22.3435(15)
_cell_length_b                   22.3435(15)
_cell_length_c                   16.1313(14)
_cell_angle_alpha                90
_cell_angle_beta                 90
_cell_angle_gamma                120
_cell_volume                     6974.33
_exptl_crystal_colour            red
_exptl_crystal_description       block
_cell_formula_units_Z            3
loop_
_atom_site_label
_atom_site_type_symbol
_atom_site_fract_x
_atom_site_fract_y
_atom_site_fract_z
Cl1 Cl 0.09724(11) 0.36193(11) 0.58456(14)
Cl2 Cl 0.35369(11) 0.40773(11) 0.56776(14)
O1 O 0.2319(4) 0.1005(3) 0.6477(4)
N1 N 0.2033(4) 0.3250(4) 0.5573(5)
H1 H 0.1796 0.3187 0.5114
C1 C 0.3060(4) 0.5951(4) 0.6674(5)
C2 C 0.2777(4) 0.5210(4) 0.6611(5)
C3 C 0.2056(4) 0.4767(4) 0.6543(5)
C4 C 0.2152(4) 0.2708(4) 0.5826(6)
C5 C 0.3230(4) 0.4945(4) 0.6528(5)
C6 C 0.2975(4) 0.4296(4) 0.6143(5)
C7 C 0.2262(4) 0.3869(4) 0.5992(6)
C8 C 0.2015(4) 0.2190(5) 0.5279(6)
H2 H 0.1881 0.2219 0.4728
C9 C 0.1822(4) 0.4111(4) 0.6198(5)
C10 C 0.2375(5) 0.2674(5) 0.6615(6)
H3 H 0.2474 0.3036 0.6996
C11 C 0.2066(5) 0.1618(5) 0.5514(6)
H4 H 0.1952 0.1251 0.5134
C12 C 0.2457(5) 0.2133(5) 0.6864(6)
H5 H 0.2625 0.2122 0.7402
C13 C 0.2281(5) 0.1590(5) 0.6290(7)
C14 C 0.2520(6) 0.0933(5) 0.7271(6)
H6 H 0.2559 0.0516 0.7295
H7 H 0.2175 0.0896 0.7673
H8 H 0.2968 0.1338 0.7403
Cl1P Cl 0.02860(11) 0.59802(16) 0.74877(14)
Cl2P Cl 0.07440(11) 0.38737(16) 0.76557(14)
O1P O -0.2328(3) 0.2019(5) 0.6856(4)
N1P N -0.0083(4) 0.4550(6) 0.7760(5)
H1P H -0.0146 0.4724 0.8219
C1P C 0.2618(4) 0.6224(6) 0.6659(5)
C2P C 0.1877(4) 0.5766(6) 0.6722(5)
C3P C 0.1434(4) 0.6044(6) 0.6790(5)
C4P C -0.0625(4) 0.3889(6) 0.7507(6)
C5P C 0.1612(4) 0.5048(6) 0.6805(5)
C6P C 0.0963(4) 0.4654(6) 0.7190(5)
C7P C 0.0536(4) 0.4940(6) 0.7341(6)
C8P C -0.1143(5) 0.3508(6) 0.8054(6)
H2P H -0.1114 0.3671 0.8605
C9P C 0.0778(4) 0.5622(6) 0.7135(5)
C10P C -0.0659(5) 0.3632(7) 0.6718(6)
H3P H -0.0297 0.3895 0.6337
C11P C -0.1715(5) 0.2885(7) 0.7819(6)
H4P H -0.2082 0.2632 0.8199
C12P C -0.1200(5) 0.3009(7) 0.6469(6)
H5P H -0.1211 0.2830 0.5931
C13P C -0.1743(5) 0.2642(7) 0.7043(7)
C14P C -0.2400(5) 0.1746(8) 0.6062(6)
H6P H -0.2817 0.1290 0.6038
H7P H -0.2437 0.2054 0.5660
H8P H -0.1995 0.1703 0.5930
Cl1Q Cl 0.40198(16) 0.43057(11) 0.74877(14)
Cl2Q Cl 0.61263(16) 0.68702(11) 0.76557(14)
O1Q O 0.7981(5) 0.5652(4) 0.6856(4)
N1Q N 0.5450(6) 0.5366(4) 0.7760(5)
H1Q H 0.5276 0.5129 0.8219
C1Q C 0.3776(6) 0.6393(4) 0.6659(5)
C2Q C 0.4234(6) 0.6110(4) 0.6722(5)
C3Q C 0.3956(6) 0.5389(4) 0.6790(5)
C4Q C 0.6111(6) 0.5485(4) 0.7507(6)
C5Q C 0.4952(6) 0.6563(4) 0.6805(5)
C6Q C 0.5346(6) 0.6308(4) 0.7190(5)
C7Q C 0.5060(6) 0.5595(4) 0.7341(6)
C8Q C 0.6492(6) 0.5348(4) 0.8054(6)
H2Q H 0.6329 0.5214 0.8605
C9Q C 0.4378(6) 0.5155(4) 0.7135(5)
C10Q C 0.6368(7) 0.5708(5) 0.6718(6)
H3Q H 0.6105 0.5807 0.6337
C11Q C 0.7115(7) 0.5399(5) 0.7819(6)
H4Q H 0.7368 0.5285 0.8199
C12Q C 0.6991(7) 0.5790(5) 0.6469(6)
H5Q H 0.7170 0.5958 0.5931
C13Q C 0.7358(7) 0.5614(5) 0.7043(7)
C14Q C 0.8254(8) 0.5853(6) 0.6062(6)
H6Q H 0.8710 0.5892 0.6038
H7Q H 0.7946 0.5508 0.5660
H8Q H 0.8297 0.6301 0.5930
Cl1A Cl 0.63807(11) 0.73531(16) 0.58456(14)
Cl2A Cl 0.59227(11) 0.94596(16) 0.56776(14)
O1A O 0.8995(3) 1.1314(5) 0.6477(4)
N1A N 0.6750(4) 0.8783(6) 0.5573(5)
H1A H 0.6813 0.8609 0.5114
C1A C 0.4049(4) 0.7109(6) 0.6674(5)
C2A C 0.4790(4) 0.7567(6) 0.6611(5)
C3A C 0.5233(4) 0.7289(6) 0.6543(5)
C4A C 0.7292(4) 0.9444(6) 0.5826(6)
C5A C 0.5055(4) 0.8285(6) 0.6528(5)
C6A C 0.5704(4) 0.8679(6) 0.6143(5)
C7A C 0.6131(4) 0.8393(6) 0.5992(6)
C8A C 0.7810(5) 0.9825(6) 0.5279(6)
H2A H 0.7781 0.9662 0.4728
C9A C 0.5889(4) 0.7711(6) 0.6198(5)
C10A C 0.7326(5) 0.9701(7) 0.6615(6)
H3A H 0.6964 0.9438 0.6996
C11A C 0.8382(5) 1.0448(7) 0.5514(6)
H4A H 0.8749 1.0701 0.5134
C12A C 0.7867(5) 1.0324(7) 0.6864(6)
H5A H 0.7878 1.0503 0.7402
C13A C 0.8410(5) 1.0691(7) 0.6290(7)
C14A C 0.9067(5) 1.1587(8) 0.7271(6)
H6A H 0.9484 1.2043 0.7295
H7A H 0.9104 1.1279 0.7673
H8A H 0.8662 1.1630 0.7403
Cl1B Cl 0.26469(16) 0.90276(11) 0.58456(14)
Cl2B Cl 0.05404(16) 0.64631(11) 0.56776(14)
O1B O -0.1314(5) 0.7681(4) 0.6477(4)
N1B N 0.1217(6) 0.7967(4) 0.5573(5)
H1B H 0.1391 0.8204 0.5114
C1B C 0.2891(6) 0.6940(4) 0.6674(5)
C2B C 0.2433(6) 0.7223(4) 0.6611(5)
C3B C 0.2711(6) 0.7944(4) 0.6543(5)
C4B C 0.0556(6) 0.7848(4) 0.5826(6)
C5B C 0.1715(6) 0.6770(4) 0.6528(5)
C6B C 0.1321(6) 0.7025(4) 0.6143(5)
C7B C 0.1607(6) 0.7738(4) 0.5992(6)
C8B C 0.0175(6) 0.7985(4) 0.5279(6)
H2B H 0.0338 0.8119 0.4728
C9B C 0.2289(6) 0.8178(4) 0.6198(5)
C10B C 0.0299(7) 0.7625(5) 0.6615(6)
H3B H 0.0562 0.7526 0.6996
C11B C -0.0448(7) 0.7934(5) 0.5514(6)
H4B H -0.0701 0.8048 0.5134
C12B C -0.0324(7) 0.7543(5) 0.6864(6)
H5B H -0.0503 0.7375 0.7402
C13B C -0.0691(7) 0.7719(5) 0.6290(7)
C14B C -0.1587(8) 0.7480(6) 0.7271(6)
H6B H -0.2043 0.7441 0.7295
H7B H -0.1279 0.7825 0.7673
H8B H -0.1630 0.7032 0.7403
Cl1O Cl 0.56943(11) 0.97140(11) 0.74877(14)
Cl2O Cl 0.31298(11) 0.92560(11) 0.76557(14)
O1O O 0.4348(4) 1.2328(3) 0.6856(4)
N1O N 0.4634(4) 1.0083(4) 0.7760(5)
H1O H 0.4871 1.0146 0.8219
C1O C 0.3607(4) 0.7382(4) 0.6659(5)
C2O C 0.3890(4) 0.8123(4) 0.6722(5)
C3O C 0.4611(4) 0.8566(4) 0.6790(5)
C4O C 0.4515(4) 1.0625(4) 0.7507(6)
C5O C 0.3437(4) 0.8388(4) 0.6805(5)
C6O C 0.3692(4) 0.9037(4) 0.7190(5)
C7O C 0.4405(4) 0.9464(4) 0.7341(6)
C8O C 0.4652(4) 1.1143(5) 0.8054(6)
H2O H 0.4786 1.1114 0.8605
C9O C 0.4845(4) 0.9222(4) 0.7135(5)
C10O C 0.4292(5) 1.0659(5) 0.6718(6)
H3O H 0.4193 1.0297 0.6337
C11O C 0.4601(5) 1.1715(5) 0.7819(6)
H4O H 0.4715 1.2082 0.8199
C12O C 0.4210(5) 1.1200(5) 0.6469(6)
H5O H 0.4042 1.1211 0.5931
C13O C 0.4386(5) 1.1743(5) 0.7043(7)
C14O C 0.4147(6) 1.2400(5) 0.6062(6)
H6O H 0.4108 1.2817 0.6038
H7O H 0.4492 1.2437 0.5660
H8O H 0.3699 1.1995 0.5930
S1 S 0.51269(18) 0.42796(18) 0.5317(3)
S2 S 0.6374(3) 0.4091(3) 0.5488(3)
C15 C 0.5724(8) 0.4168(8) 0.5421(10)
S3? S 0.5863(11) 0.3818(11) 0.6628(12)
C16? C 0.558(3) 0.410(4) 0.591(5)
loop_
_geom_bond_atom_site_label_1
_geom_bond_atom_site_label_2
_geom_bond_site_symmetry_1
_geom_bond_site_symmetry_2
Cl1 C9 1_555 1_555
Cl2 C6 1_555 1_555
O1 C13 1_555 1_555
N1 H1 1_555 1_555
C1 C2 1_555 1_555
C2 C3 1_555 1_555
C3 C9 1_555 1_555
C4 N1 1_555 1_555
C5 C2 1_555 1_555
C6 C5 1_555 1_555
C7 N1 1_555 1_555
C8 C4 1_555 1_555
H2 C8 1_555 1_555
C9 C7 1_555 1_555
C10 C4 1_555 1_555
H3 C10 1_555 1_555
C11 C8 1_555 1_555
H4 C11 1_555 1_555
C12 C10 1_555 1_555
H5 C12 1_555 1_555
C13 C11 1_555 1_555
C14 O1 1_555 1_555
H6 C14 1_555 1_555
H7 C14 1_555 1_555
H8 C14 1_555 1_555
S1 C15 1_555 1_555
S2 C15 1_555 1_555
Cl1P C9P 1_555 1_555
Cl2P C6P 1_555 1_555
O1P C13P 1_555 1_555
N1P H1P 1_555 1_555
C1P C1 1_555 1_555
C2P C1P 1_555 1_555
C3P C2P 1_555 1_555
C4P N1P 1_555 1_555
C5P C3 1_555 1_555
C6P C5P 1_555 1_555
C7P N1P 1_555 1_555
C8P C4P 1_555 1_555
H2P C8P 1_555 1_555
C9P C3P 1_555 1_555
C10P C4P 1_555 1_555
H3P C10P 1_555 1_555
C11P C8P 1_555 1_555
H4P C11P 1_555 1_555
C12P C10P 1_555 1_555
H5P C12P 1_555 1_555
C13P C11P 1_555 1_555
C14P O1P 1_555 1_555
H6P C14P 1_555 1_555
H7P C14P 1_555 1_555
H8P C14P 1_555 1_555
Cl1Q C9Q 1_555 1_555
Cl2Q C6Q 1_555 1_555
O1Q C13Q 1_555 1_555
N1Q H1Q 1_555 1_555
C1Q C1 1_555 1_555
C2Q C1Q 1_555 1_555
C3Q C5 1_555 1_555
C4Q N1Q 1_555 1_555
C5Q C2Q 1_555 1_555
C6Q C5Q 1_555 1_555
C7Q N1Q 1_555 1_555
C8Q C4Q 1_555 1_555
H2Q C8Q 1_555 1_555
C9Q C3Q 1_555 1_555
C10Q C4Q 1_555 1_555
H3Q C10Q 1_555 1_555
C11Q C8Q 1_555 1_555
H4Q C11Q 1_555 1_555
C12Q C10Q 1_555 1_555
H5Q C12Q 1_555 1_555
C13Q C11Q 1_555 1_555
C14Q O1Q 1_555 1_555
H6Q C14Q 1_555 1_555
H7Q C14Q 1_555 1_555
H8Q C14Q 1_555 1_555
Cl1A C9A 1_555 1_555
Cl2A C6A 1_555 1_555
O1A C13A 1_555 1_555
N1A H1A 1_555 1_555
C1A C1Q 1_555 1_555
C2A C1A 1_555 1_555
C3A C5Q 1_555 1_555
C4A N1A 1_555 1_555
C5A C2A 1_555 1_555
C6A C5A 1_555 1_555
C7A N1A 1_555 1_555
C8A C4A 1_555 1_555
H2A C8A 1_555 1_555
C9A C3A 1_555 1_555
C10A C4A 1_555 1_555
H3A C10A 1_555 1_555
C11A C8A 1_555 1_555
H4A C11A 1_555 1_555
C12A C10A 1_555 1_555
H5A C12A 1_555 1_555
C13A C11A 1_555 1_555
C14A O1A 1_555 1_555
H6A C14A 1_555 1_555
H7A C14A 1_555 1_555
H8A C14A 1_555 1_555
Cl1B C9B 1_555 1_555
Cl2B C6B 1_555 1_555
O1B C13B 1_555 1_555
N1B H1B 1_555 1_555
C1B C1P 1_555 1_555
C2B C1B 1_555 1_555
C3B C2B 1_555 1_555
C4B N1B 1_555 1_555
C5B C3P 1_555 1_555
C6B C5B 1_555 1_555
C7B N1B 1_555 1_555
C8B C4B 1_555 1_555
H2B C8B 1_555 1_555
C9B C3B 1_555 1_555
C10B C4B 1_555 1_555
H3B C10B 1_555 1_555
C11B C8B 1_555 1_555
H4B C11B 1_555 1_555
C12B C10B 1_555 1_555
H5B C12B 1_555 1_555
C13B C11B 1_555 1_555
C14B O1B 1_555 1_555
H6B C14B 1_555 1_555
H7B C14B 1_555 1_555
H8B C14B 1_555 1_555
Cl1O C9O 1_555 1_555
Cl2O C6O 1_555 1_555
O1O C13O 1_555 1_555
N1O H1O 1_555 1_555
C1O C1A 1_555 1_555
C2O C1O 1_555 1_555
C3O C5A 1_555 1_555
C4O N1O 1_555 1_555
C5O C3B 1_555 1_555
C6O C5O 1_555 1_555
C7O N1O 1_555 1_555
C8O C4O 1_555 1_555
H2O C8O 1_555 1_555
C9O C3O 1_555 1_555
C10O C4O 1_555 1_555
H3O C10O 1_555 1_555
C11O C8O 1_555 1_555
H4O C11O 1_555 1_555
C12O C10O 1_555 1_555
H5O C12O 1_555 1_555
C13O C11O 1_555 1_555
C14O O1O 1_555 1_555
H6O C14O 1_555 1_555
H7O C14O 1_555 1_555
H8O C14O 1_555 1_555
C6 C7 1_555 1_555
C12 C13 1_555 1_555
C2P C5P 1_555 1_555
C6P C7P 1_555 1_555
C7P C9P 1_555 1_555
C12P C13P 1_555 1_555
C2Q C3Q 1_555 1_555
C6Q C7Q 1_555 1_555
C7Q C9Q 1_555 1_555
C12Q C13Q 1_555 1_555
C2A C3A 1_555 1_555
C6A C7A 1_555 1_555
C7A C9A 1_555 1_555
C12A C13A 1_555 1_555
C1B C1O 1_555 1_555
C2B C5B 1_555 1_555
C6B C7B 1_555 1_555
C7B C9B 1_555 1_555
C12B C13B 1_555 1_555
C2O C3O 1_555 1_555
C2O C5O 1_555 1_555
C6O C7O 1_555 1_555
C7O C9O 1_555 1_555
C12O C13O 1_555 1_555

#END
