
#######################################################################
#
#                 Cambridge Crystallographic Data Centre
#                                CCDC 
#
#######################################################################
#
# If this CIF has been generated from an entry in the Cambridge 
# Structural Database, then it will include bibliographic, chemical, 
# crystal, experimental, refinement or atomic coordinate data resulting 
# from the CCDC's data processing and validation procedures.
#
#######################################################################

data_VEXTUQ
_chemical_formula_moiety         '2(C96 H36 Cl16 N6),C6 H4 S4,3(C1 S2)'
_chemical_name_systematic        
'bis(1,3,4,6,7,8,9,11,12,14,15,17,18,19,20,22,-hexadecachloro-2,5,10,13,16,21-hexakis(anilino)nanographene) tetrathiafulvalene tris(carbon disulfide) unknown solvate'
_symmetry_cell_setting           monoclinic
_symmetry_space_group_name_H-M   'C 2/c'
_symmetry_Int_Tables_number      15
_space_group_name_Hall           '-C 2yn'
loop_
_symmetry_equiv_pos_site_id
_symmetry_equiv_pos_as_xyz
1 x,y,z
2 -x,y,1/2-z
3 1/2+x,1/2+y,z
4 1/2-x,1/2+y,1/2-z
5 -x,-y,-z
6 x,-y,1/2+z
7 1/2-x,1/2-y,-z
8 1/2+x,1/2-y,1/2+z
_cell_length_a                   31.629(3)
_cell_length_b                   28.3174(17)
_cell_length_c                   46.071(3)
_cell_angle_alpha                90
_cell_angle_beta                 106.734(7)
_cell_angle_gamma                90
_cell_volume                     39516.1
_exptl_crystal_colour            'metallic dark brown'
_exptl_crystal_description       block
_cell_formula_units_Z            8
loop_
_atom_site_label
_atom_site_type_symbol
_atom_site_fract_x
_atom_site_fract_y
_atom_site_fract_z
Cl1 Cl 0.33709(14) 0.80391(15) 0.51213(8)
Cl2 Cl 0.30983(14) 0.72769(16) 0.55015(8)
Cl3 Cl 0.36046(14) 0.63473(16) 0.55374(8)
Cl4 Cl 0.40790(13) 0.76923(16) 0.48150(8)
Cl5 Cl 0.24679(14) 0.50294(16) 0.56437(8)
Cl6 Cl 0.27719(15) 0.92524(16) 0.37503(8)
Cl7 Cl 0.37051(15) 0.88003(16) 0.38435(8)
Cl8 Cl 0.13883(15) 0.46592(16) 0.33277(8)
Cl9 Cl 0.15951(15) 0.55867(17) 0.55564(9)
Cl10 Cl 0.11091(15) 0.40602(17) 0.43517(9)
Cl11 Cl 0.06537(15) 0.54517(17) 0.31389(9)
Cl12 Cl 0.05336(15) 0.47545(17) 0.45769(9)
Cl13 Cl 0.18632(16) 0.84536(16) 0.27107(9)
Cl14 Cl 0.18151(15) 0.60239(17) 0.26436(8)
Cl15 Cl 0.09063(15) 0.62324(17) 0.27594(9)
Cl16 Cl 0.24965(16) 0.77097(17) 0.25715(9)
N1 N 0.1132(5) 0.3980(5) 0.3724(3)
H1 H 0.1306 0.3774 0.3845
N2 N 0.3246(4) 0.5639(5) 0.5854(3)
H2 H 0.3343 0.5347 0.5854
N3 N 0.0810(5) 0.5011(5) 0.5203(3)
H3 H 0.0618 0.5243 0.5156
N4 N 0.4216(4) 0.8488(4) 0.4440(3)
H4 H 0.4370 0.8468 0.4309
C1 C 0.2301(5) 0.7941(6) 0.3184(3)
N5 N 0.2297(5) 0.9243(5) 0.3088(3)
H5 H 0.2088 0.9374 0.3152
C2 C 0.2460(5) 0.7509(6) 0.3681(3)
N6 N 0.2164(5) 0.6797(5) 0.2344(2)
H6 H 0.2381 0.6591 0.2382
C3 C 0.2257(5) 0.8404(7) 0.3071(3)
C4 C 0.3049(5) 0.7167(5) 0.5119(3)
C5 C 0.1260(5) 0.4787(6) 0.3648(3)
C6 C 0.2837(5) 0.6735(5) 0.4994(3)
C7 C 0.1424(5) 0.5325(6) 0.4084(3)
C8 C 0.3176(5) 0.7530(5) 0.4955(3)
C9 C 0.2173(5) 0.7139(6) 0.3536(3)
C10 C 0.1153(5) 0.5755(6) 0.3286(3)
C11 C 0.2343(5) 0.6420(5) 0.4524(3)
C12 C 0.2663(5) 0.6761(5) 0.4664(3)
C13 C 0.2772(5) 0.6315(6) 0.5152(3)
C14 C 0.2191(5) 0.6072(5) 0.4696(3)
C15 C 0.1342(5) 0.5247(6) 0.3771(3)
C16 C 0.2279(5) 0.5685(6) 0.5189(3)
C17 C 0.1849(5) 0.6059(6) 0.4062(3)
C18 C 0.3793(6) 0.8321(6) 0.4346(3)
C19 C 0.2164(5) 0.6395(6) 0.4202(3)
C20 C 0.2407(6) 0.8798(7) 0.3240(4)
C21 C 0.3684(5) 0.7970(6) 0.4538(3)
C22 C 0.2783(5) 0.7102(5) 0.4492(3)
C23 C 0.2942(5) 0.5768(6) 0.5590(3)
C24 C 0.2558(5) 0.7129(6) 0.4166(3)
C25 C 0.1875(5) 0.5722(5) 0.4559(3)
C26 C 0.1839(6) 0.5462(6) 0.5058(3)
C27 C 0.2196(5) 0.7353(6) 0.2750(3)
C28 C 0.3070(5) 0.7466(5) 0.4624(3)
C29 C 0.1694(5) 0.5715(5) 0.4232(3)
C30 C 0.2266(5) 0.6748(6) 0.4019(3)
C31 C 0.2543(5) 0.5552(6) 0.5468(3)
C32 C 0.2076(5) 0.6770(6) 0.3696(3)
C33 C 0.1392(5) 0.5679(6) 0.3593(3)
C34 C 0.3064(5) 0.6173(6) 0.5425(3)
C35 C 0.2662(5) 0.8754(6) 0.3534(4)
C36 C 0.1293(5) 0.4979(6) 0.4265(3)
C37 C 0.1701(5) 0.5394(6) 0.4734(3)
C38 C 0.1261(5) 0.6102(6) 0.3098(3)
C39 C 0.2647(5) 0.7509(6) 0.3996(3)
C40 C 0.1695(5) 0.6031(6) 0.3739(3)
C41 C 0.3504(5) 0.8441(6) 0.4074(3)
C42 C 0.2166(5) 0.7483(6) 0.3046(3)
C43 C 0.1154(6) 0.5097(6) 0.5067(3)
C44 C 0.2542(5) 0.7923(6) 0.3518(3)
C45 C 0.1606(6) 0.6390(6) 0.3237(3)
C46 C 0.2776(6) 0.8297(7) 0.3664(4)
C47 C 0.1172(5) 0.4535(6) 0.4133(3)
C48 C 0.2390(5) 0.6042(6) 0.5018(3)
C49 C 0.1887(5) 0.6600(6) 0.2768(3)
C50 C 0.2085(5) 0.6915(6) 0.2613(3)
C51 C 0.3428(7) 0.5883(8) 0.6119(4)
C52 C 0.4435(7) 0.8692(6) 0.4725(4)
C53 C 0.3264(5) 0.7762(6) 0.4437(3)
C54 C 0.1780(5) 0.6385(6) 0.3549(3)
C55 C 0.2026(5) 0.7127(6) 0.3205(3)
C56 C 0.2985(5) 0.7833(6) 0.4132(3)
C57 C 0.3088(5) 0.8199(6) 0.3968(3)
C58 C 0.1341(5) 0.5105(6) 0.4585(3)
C59 C 0.1823(5) 0.6723(6) 0.3071(3)
C60 C 0.4876(6) 0.8805(6) 0.4792(4)
H7 H 0.5030 0.8747 0.4646
C61 C 0.1050(5) 0.4979(6) 0.4764(3)
C62 C 0.4242(6) 0.8766(6) 0.4950(3)
H8 H 0.3941 0.8679 0.4915
C63 C 0.1172(5) 0.4441(7) 0.3827(3)
C64 C 0.3275(7) 0.6337(8) 0.6151(4)
H9 H 0.3044 0.6468 0.5991
C65 C 0.0877(6) 0.3336(7) 0.3378(4)
H10 H 0.1084 0.3129 0.3507
C66 C 0.3458(6) 0.6611(8) 0.6419(4)
H11 H 0.3372 0.6930 0.6432
C67 C 0.1525(6) 0.5326(6) 0.5211(3)
C68 C 0.0272(6) 0.3440(7) 0.2948(4)
H12 H 0.0073 0.3313 0.2769
C69 C 0.3033(7) 0.9531(7) 0.3154(4)
H13 H 0.3147 0.9232 0.3233
C70 C 0.0607(6) 0.3151(7) 0.3115(4)
H14 H 0.0648 0.2840 0.3051
C71 C 0.3303(7) 0.9888(7) 0.3128(4)
H15 H 0.3612 0.9836 0.3202
C72 C 0.0526(6) 0.4064(7) 0.3287(4)
H16 H 0.0495 0.4382 0.3343
C73 C 0.0873(7) 0.3805(8) 0.3471(4)
C74 C 0.1078(7) 0.6552(6) 0.1765(3)
H17 H 0.0769 0.6548 0.1741
C75 C 0.2575(8) 0.9619(8) 0.3060(4)
C76 C 0.1402(6) 0.6672(6) 0.2037(4)
H18 H 0.1305 0.6760 0.2207
C77 C 0.0583(7) 0.5073(7) 0.5655(4)
H19 H 0.0355 0.5281 0.5549
C78 C 0.0878(7) 0.4915(8) 0.5510(5)
C79 C 0.4896(6) 0.9064(6) 0.5292(4)
H20 H 0.5054 0.9173 0.5488
C80 C 0.2002(7) 0.6581(6) 0.1824(3)
H21 H 0.2306 0.6601 0.1835
C81 C 0.5099(6) 0.9006(6) 0.5073(3)
H22 H 0.5398 0.9103 0.5110
C82 C 0.1270(7) 0.6438(6) 0.1533(4)
H23 H 0.1075 0.6335 0.1346
C83 C 0.4464(6) 0.8962(6) 0.5225(4)
H24 H 0.4309 0.9027 0.5369
C84 C 0.3160(7) 1.0330(7) 0.3001(4)
H25 H 0.3357 1.0571 0.2980
C85 C 0.1869(7) 0.6669(7) 0.2074(4)
C86 C 0.3735(6) 0.5680(8) 0.6362(4)
H26 H 0.3830 0.5364 0.6352
C87 C 0.0211(6) 0.3887(7) 0.3023(4)
H27 H -0.0027 0.4075 0.2906
C88 C 0.0953(7) 0.4666(7) 0.6101(4)
H28 H 0.0977 0.4575 0.6303
C89 C 0.1210(7) 0.4620(7) 0.5681(4)
H29 H 0.1412 0.4484 0.5588
C90 C 0.1690(7) 0.6458(6) 0.1550(4)
H30 H 0.1784 0.6390 0.1377
C91 C 0.2723(7) 1.0381(7) 0.2912(4)
H31 H 0.2606 1.0671 0.2818
C92 C 0.2416(7) 1.0029(7) 0.2949(4)
H32 H 0.2108 1.0091 0.2895
C93 C 0.0600(7) 0.4947(7) 0.5950(4)
H33 H 0.0382 0.5047 0.6042
C94 C 0.1256(7) 0.4521(7) 0.5978(4)
H34 H 0.1504 0.4348 0.6094
C95 C 0.3770(6) 0.6393(8) 0.6663(4)
H35 H 0.3885 0.6550 0.6852
C96 C 0.3900(6) 0.5944(8) 0.6617(4)
H36 H 0.4125 0.5805 0.6777
Cl17 Cl 0.47317(15) 0.49154(16) 0.54926(8)
Cl18 Cl 0.51973(14) 0.58257(16) 0.53984(8)
Cl19 Cl 0.37469(14) 0.50472(15) 0.54472(8)
Cl20 Cl 0.45981(14) 0.67148(16) 0.52646(8)
Cl21 Cl 0.31775(15) 0.62910(17) 0.26784(8)
Cl22 Cl 0.53829(14) 0.77174(16) 0.45920(9)
Cl23 Cl 0.38062(14) 0.28363(16) 0.48549(9)
Cl24 Cl 0.36683(15) 0.53490(16) 0.25983(8)
Cl25 Cl 0.60358(15) 0.69955(17) 0.44237(9)
Cl26 Cl 0.30214(15) 0.26118(16) 0.36689(9)
Cl27 Cl 0.54118(14) 0.68599(17) 0.32231(9)
Cl28 Cl 0.30746(15) 0.33794(17) 0.50551(9)
Cl29 Cl 0.32040(16) 0.44309(17) 0.26999(8)
Cl30 Cl 0.23000(15) 0.46435(16) 0.28304(9)
Cl31 Cl 0.45494(15) 0.74569(16) 0.30482(9)
Cl32 Cl 0.21575(15) 0.32145(17) 0.35468(9)
N7 N 0.5130(4) 0.7513(5) 0.5129(3)
H37 H 0.5052 0.7793 0.5049
N8 N 0.3388(4) 0.4100(5) 0.5515(3)
H38 H 0.3112 0.4011 0.5486
N9 N 0.3748(4) 0.7088(4) 0.2622(3)
H39 H 0.3535 0.7247 0.2665
N10 N 0.3430(4) 0.2291(5) 0.4281(3)
H40 H 0.3518 0.2167 0.4133
C97 C 0.4741(5) 0.5641(6) 0.5116(3)
N11 N 0.1862(4) 0.3838(5) 0.3024(3)
H41 H 0.1741 0.3649 0.3129
C98 C 0.4372(5) 0.5599(6) 0.4586(3)
C99 C 0.4337(5) 0.5756(6) 0.4270(3)
C100 C 0.4153(5) 0.5179(6) 0.4618(3)
C101 C 0.3320(5) 0.3752(7) 0.4202(4)
C102 C 0.3880(5) 0.6066(6) 0.3132(3)
C103 C 0.4865(6) 0.6659(6) 0.3894(3)
C104 C 0.3480(5) 0.4204(6) 0.4159(3)
C105 C 0.3155(5) 0.2975(6) 0.3986(4)
C106 C 0.3539(5) 0.5282(6) 0.2933(3)
C107 C 0.3904(5) 0.4635(6) 0.4945(3)
C108 C 0.3472(5) 0.3058(7) 0.4519(4)
C109 C 0.3541(6) 0.4172(8) 0.5255(3)
N12 N 0.6071(5) 0.7087(5) 0.3794(3)
H42 H 0.6128 0.6919 0.3649
C110 C 0.4186(5) 0.5030(6) 0.4915(3)
C111 C 0.3774(5) 0.5425(6) 0.3483(3)
C112 C 0.4622(5) 0.5884(6) 0.4839(3)
C113 C 0.3102(5) 0.3457(6) 0.3938(4)
C114 C 0.4060(5) 0.5682(6) 0.3727(3)
C115 C 0.3404(5) 0.4400(6) 0.3858(3)
C116 C 0.3855(5) 0.5082(6) 0.4066(3)
C117 C 0.4854(5) 0.6714(6) 0.4982(3)
C118 C 0.4594(5) 0.6131(6) 0.4232(3)
C119 C 0.5291(6) 0.6913(5) 0.3561(3)
C120 C 0.5077(5) 0.6846(6) 0.4438(3)
C121 C 0.4322(5) 0.6911(6) 0.3087(3)
C122 C 0.4581(5) 0.6294(6) 0.3936(3)
C123 C 0.3442(5) 0.3555(7) 0.4497(4)
C124 C 0.5054(5) 0.7125(6) 0.4933(3)
C125 C 0.2540(6) 0.4271(6) 0.3117(3)
C126 C 0.5649(6) 0.7007(6) 0.3821(3)
C127 C 0.5571(6) 0.6986(5) 0.4108(3)
C128 C 0.4083(5) 0.5511(6) 0.4028(3)
C129 C 0.5185(5) 0.7174(6) 0.4663(3)
C130 C 0.4220(5) 0.6228(6) 0.3371(3)
C131 C 0.3713(5) 0.4488(6) 0.4403(3)
C132 C 0.3759(6) 0.4596(6) 0.5207(4)
C133 C 0.5193(6) 0.6828(5) 0.4144(3)
C134 C 0.4769(5) 0.6345(6) 0.4765(3)
C135 C 0.4906(6) 0.6727(5) 0.3596(3)
C136 C 0.4526(5) 0.5224(6) 0.5155(3)
C137 C 0.3718(5) 0.5596(6) 0.3173(3)
C138 C 0.3323(5) 0.4861(6) 0.2971(3)
C139 C 0.3912(5) 0.4938(6) 0.4365(3)
C140 C 0.3551(5) 0.4994(6) 0.3511(3)
C141 C 0.4496(5) 0.6623(6) 0.3351(3)
C142 C 0.3109(5) 0.4159(6) 0.3614(3)
C143 C 0.2973(6) 0.4378(6) 0.3316(3)
C144 C 0.3936(5) 0.6789(6) 0.2875(3)
C145 C 0.3418(5) 0.3835(6) 0.5018(4)
C146 C 0.3708(5) 0.6372(6) 0.2898(3)
C147 C 0.2909(6) 0.3716(6) 0.3664(3)
C148 C 0.3730(5) 0.4319(7) 0.4708(3)
C149 C 0.3268(5) 0.4750(6) 0.3274(3)
C150 C 0.3530(5) 0.3897(7) 0.4751(4)
C151 C 0.3356(5) 0.2774(7) 0.4266(4)
C152 C 0.2315(6) 0.3886(6) 0.3193(3)
C153 C 0.3603(5) 0.4827(6) 0.3820(3)
C154 C 0.5322(6) 0.7489(7) 0.5442(4)
C155 C 0.2485(6) 0.3643(6) 0.3453(3)
C156 C 0.1242(6) 0.3634(6) 0.2614(4)
H43 H 0.1062 0.3667 0.2746
C157 C 0.1053(6) 0.3511(6) 0.2326(3)
H44 H 0.0744 0.3454 0.2259
C158 C 0.3651(7) 0.4163(7) 0.5809(4)
C159 C 0.4114(6) 0.4163(6) 0.5888(4)
H45 H 0.4253 0.4101 0.5735
C160 C 0.1750(6) 0.3541(6) 0.2231(4)
H46 H 0.1927 0.3525 0.2096
C161 C 0.4856(5) 0.6440(6) 0.4488(3)
C162 C 0.4300(5) 0.6051(6) 0.3679(3)
C163 C 0.3484(6) 0.4270(6) 0.6047(4)
H47 H 0.3173 0.4290 0.6006
C164 C 0.1301(6) 0.3466(6) 0.2122(4)
H48 H 0.1166 0.3385 0.1916
C165 C 0.1939(6) 0.3638(6) 0.2526(4)
H49 H 0.2251 0.3654 0.2599
C166 C 0.3729(6) 0.4348(6) 0.6330(4)
H50 H 0.3588 0.4412 0.6483
C167 C 0.1691(6) 0.3716(7) 0.2726(4)
C168 C 0.5518(5) 0.7107(7) 0.5595(4)
H51 H 0.5527 0.6824 0.5486
C169 C 0.6721(6) 0.8055(7) 0.4270(4)
H52 H 0.6680 0.8326 0.4380
C170 C 0.3585(8) 0.6972(8) 0.2321(4)
C171 C 0.6417(7) 0.7373(8) 0.3945(4)
C172 C 0.5300(5) 0.7895(7) 0.5610(3)
H53 H 0.5167 0.8171 0.5506
C173 C 0.6842(6) 0.7205(8) 0.3971(4)
H54 H 0.6884 0.6914 0.3881
C174 C 0.7187(7) 0.7463(7) 0.4126(4)
H55 H 0.7475 0.7350 0.4142
C175 C 0.5699(6) 0.7521(6) 0.6074(4)
H56 H 0.5849 0.7534 0.6284
C176 C 0.4379(6) 0.4252(6) 0.6183(3)
H57 H 0.4692 0.4252 0.6233
C177 C 0.3380(8) 0.1978(9) 0.4502(5)
C178 C 0.5469(5) 0.7907(7) 0.5927(3)
H58 H 0.5425 0.8176 0.6039
C179 C 0.5710(5) 0.7109(7) 0.5907(3)
H59 H 0.5847 0.6831 0.6007
C180 C 0.3301(7) 0.6637(8) 0.1733(4)
H60 H 0.3182 0.6517 0.1534
C181 C 0.3761(7) 0.6533(8) 0.2236(4)
H61 H 0.3981 0.6358 0.2379
C182 C 0.7142(7) 0.7890(7) 0.4266(4)
H62 H 0.7398 0.8072 0.4360
C183 C 0.3321(7) 0.7232(8) 0.2097(4)
H63 H 0.3236 0.7539 0.2141
C184 C 0.4159(6) 0.4339(6) 0.6402(4)
H64 H 0.4327 0.4393 0.6606
C185 C 0.6375(7) 0.7783(7) 0.4097(4)
H65 H 0.6084 0.7888 0.4081
C186 C 0.3106(7) 0.2072(8) 0.4683(4)
H66 H 0.2956 0.2367 0.4665
C187 C 0.3172(7) 0.7059(8) 0.1804(4)
H67 H 0.2975 0.7244 0.1652
C188 C 0.3635(7) 0.1601(8) 0.4582(4)
H68 H 0.3868 0.1560 0.4492
C189 C 0.3597(7) 0.6379(8) 0.1939(4)
H69 H 0.3696 0.6088 0.1880
C190 C 0.3049(7) 0.1746(8) 0.4887(4)
H70 H 0.2848 0.1812 0.5001
C191 C 0.3267(7) 0.1338(9) 0.4931(4)
H71 H 0.3202 0.1105 0.5061
C192 C 0.3583(7) 0.1256(8) 0.4790(4)
H72 H 0.3761 0.0979 0.4830
S1 S 0.35167(18) 0.6389(2) 0.43693(12)
S2 S 0.30571(19) 0.5530(2) 0.44635(11)
S3 S 0.26209(19) 0.5425(2) 0.37379(13)
S4 S 0.30767(18) 0.6290(2) 0.36377(11)
C193 C 0.2970(6) 0.5870(7) 0.3900(4)
C194 C 0.3166(6) 0.5940(7) 0.4197(4)
C195 C 0.2536(6) 0.5618(7) 0.3357(4)
H73 H 0.2367 0.5453 0.3182
C196 C 0.3590(6) 0.6218(7) 0.4751(4)
H74 H 0.3762 0.6381 0.4926
C197 C 0.3363(6) 0.5823(7) 0.4751(4)
H75 H 0.3383 0.5694 0.4945
C198 C 0.2742(6) 0.6024(7) 0.3351(4)
H76 H 0.2687 0.6174 0.3160
S5 S 0.3396(2) 0.7375(2) 0.33006(13)
S6 S 0.3995(2) 0.7332(2) 0.39586(13)
C199 C 0.3694(6) 0.7365(7) 0.3629(4)
S7 S 0.2545(2) 0.4616(2) 0.48285(15)
S8 S 0.23133(19) 0.4329(3) 0.41587(15)
C200 C 0.2423(6) 0.4486(8) 0.4479(5)
S9 S 0.2312(2) 0.3781(3) 0.58822(14)
S10 S 0.2518(2) 0.4500(2) 0.64124(14)
C201 C 0.2405(7) 0.4148(9) 0.6154(5)
loop_
_geom_bond_atom_site_label_1
_geom_bond_atom_site_label_2
_geom_bond_site_symmetry_1
_geom_bond_site_symmetry_2
Cl1 C8 1_555 1_555
Cl2 C4 1_555 1_555
Cl3 C34 1_555 1_555
Cl4 C21 1_555 1_555
Cl5 C31 1_555 1_555
Cl6 C35 1_555 1_555
Cl7 C41 1_555 1_555
Cl8 C5 1_555 1_555
Cl9 C67 1_555 1_555
Cl10 C47 1_555 1_555
Cl11 C10 1_555 1_555
Cl12 C61 1_555 1_555
Cl13 C3 1_555 1_555
Cl14 C49 1_555 1_555
Cl15 C38 1_555 1_555
Cl16 C27 1_555 1_555
N1 H1 1_555 1_555
N2 H2 1_555 1_555
N3 H3 1_555 1_555
N4 H4 1_555 1_555
C1 C3 1_555 1_555
N5 H5 1_555 1_555
C2 C9 1_555 1_555
N6 H6 1_555 1_555
C3 C20 1_555 1_555
C4 C6 1_555 1_555
C5 C15 1_555 1_555
C6 C12 1_555 1_555
C7 C15 1_555 1_555
C8 C4 1_555 1_555
C9 C32 1_555 1_555
C10 C33 1_555 1_555
C11 C12 1_555 1_555
C12 C22 1_555 1_555
C13 C6 1_555 1_555
C14 C11 1_555 1_555
C15 C33 1_555 1_555
C16 C26 1_555 1_555
C17 C19 1_555 1_555
C18 N4 1_555 1_555
C19 C11 1_555 1_555
C20 N5 1_555 1_555
C21 C18 1_555 1_555
C22 C24 1_555 1_555
C23 N2 1_555 1_555
C24 C30 1_555 1_555
C25 C14 1_555 1_555
C26 C37 1_555 1_555
C27 C42 1_555 1_555
C28 C8 1_555 1_555
C29 C7 1_555 1_555
C30 C19 1_555 1_555
C31 C16 1_555 1_555
C32 C30 1_555 1_555
C33 C40 1_555 1_555
C34 C13 1_555 1_555
C35 C20 1_555 1_555
C36 C7 1_555 1_555
C37 C25 1_555 1_555
C38 C10 1_555 1_555
C39 C2 1_555 1_555
C40 C17 1_555 1_555
C41 C18 1_555 1_555
C42 C1 1_555 1_555
C43 N3 1_555 1_555
C44 C1 1_555 1_555
C45 C38 1_555 1_555
C46 C35 1_555 1_555
C47 C36 1_555 1_555
C48 C13 1_555 1_555
C49 C50 1_555 1_555
C50 N6 1_555 1_555
C51 N2 1_555 1_555
C52 N4 1_555 1_555
C53 C21 1_555 1_555
C54 C32 1_555 1_555
C55 C9 1_555 1_555
C56 C39 1_555 1_555
C57 C41 1_555 1_555
C58 C36 1_555 1_555
C59 C45 1_555 1_555
C60 C52 1_555 1_555
H7 C60 1_555 1_555
C61 C43 1_555 1_555
C62 C52 1_555 1_555
H8 C62 1_555 1_555
C63 N1 1_555 1_555
C64 C51 1_555 1_555
H9 C64 1_555 1_555
C65 H10 1_555 1_555
C66 C64 1_555 1_555
H11 C66 1_555 1_555
C67 C26 1_555 1_555
C68 H12 1_555 1_555
C69 H13 1_555 1_555
C70 C65 1_555 1_555
H14 C70 1_555 1_555
C71 C69 1_555 1_555
H15 C71 1_555 1_555
C72 H16 1_555 1_555
C73 N1 1_555 1_555
C74 H17 1_555 1_555
C75 N5 1_555 1_555
C76 C74 1_555 1_555
H18 C76 1_555 1_555
C77 H19 1_555 1_555
C78 N3 1_555 1_555
C79 H20 1_555 1_555
C80 H21 1_555 1_555
C81 C60 1_555 1_555
H22 C81 1_555 1_555
C82 C74 1_555 1_555
H23 C82 1_555 1_555
C83 C62 1_555 1_555
H24 C83 1_555 1_555
C84 C71 1_555 1_555
H25 C84 1_555 1_555
C85 N6 1_555 1_555
C86 C51 1_555 1_555
H26 C86 1_555 1_555
C87 C68 1_555 1_555
H27 C87 1_555 1_555
C88 H28 1_555 1_555
C89 C78 1_555 1_555
H29 C89 1_555 1_555
C90 C80 1_555 1_555
H30 C90 1_555 1_555
C91 C84 1_555 1_555
H31 C91 1_555 1_555
C92 C75 1_555 1_555
H32 C92 1_555 1_555
C93 C77 1_555 1_555
H33 C93 1_555 1_555
C94 C88 1_555 1_555
H34 C94 1_555 1_555
C95 C66 1_555 1_555
H35 C95 1_555 1_555
C96 C86 1_555 1_555
H36 C96 1_555 1_555
Cl17 C136 1_555 1_555
Cl18 C97 1_555 1_555
Cl19 C132 1_555 1_555
Cl20 C117 1_555 1_555
Cl21 C146 1_555 1_555
Cl22 C129 1_555 1_555
Cl23 C108 1_555 1_555
Cl24 C106 1_555 1_555
Cl25 C127 1_555 1_555
Cl26 C105 1_555 1_555
Cl27 C119 1_555 1_555
Cl28 C145 1_555 1_555
Cl29 C138 1_555 1_555
Cl30 C125 1_555 1_555
Cl31 C121 1_555 1_555
Cl32 C155 1_555 1_555
N7 H37 1_555 1_555
N8 H38 1_555 1_555
N9 H39 1_555 1_555
N10 H40 1_555 1_555
C97 C112 1_555 1_555
N11 H41 1_555 1_555
C98 C99 1_555 1_555
C99 C118 1_555 1_555
C100 C98 1_555 1_555
C101 C104 1_555 1_555
C102 C130 1_555 1_555
C103 C122 1_555 1_555
C104 C115 1_555 1_555
C105 C113 1_555 1_555
C106 C137 1_555 1_555
C107 C110 1_555 1_555
C108 C123 1_555 1_555
C109 N8 1_555 1_555
N12 H42 1_555 1_555
C110 C100 1_555 1_555
C111 C114 1_555 1_555
C112 C98 1_555 1_555
C113 C101 1_555 1_555
C114 C128 1_555 1_555
C115 C142 1_555 1_555
C116 C128 1_555 1_555
C117 C124 1_555 1_555
C118 C122 1_555 1_555
C119 C126 1_555 1_555
C120 C129 1_555 1_555
C121 C141 1_555 1_555
C122 C162 1_555 1_555
C123 C101 1_555 1_555
C124 N7 1_555 1_555
C125 C143 1_555 1_555
C126 N12 1_555 1_555
C127 C126 1_555 1_555
C128 C99 1_555 1_555
C129 C124 1_555 1_555
C130 C141 1_555 1_555
C131 C104 1_555 1_555
C132 C107 1_555 1_555
C133 C103 1_555 1_555
C134 C112 1_555 1_555
C135 C103 1_555 1_555
C136 C97 1_555 1_555
C137 C102 1_555 1_555
C138 C106 1_555 1_555
C139 C100 1_555 1_555
C140 C111 1_555 1_555
C141 C135 1_555 1_555
C142 C143 1_555 1_555
C143 C149 1_555 1_555
C144 N9 1_555 1_555
C145 C109 1_555 1_555
C146 C102 1_555 1_555
C147 C113 1_555 1_555
C148 C107 1_555 1_555
C149 C138 1_555 1_555
C150 C123 1_555 1_555
C151 N10 1_555 1_555
C152 N11 1_555 1_555
C153 C115 1_555 1_555
C154 N7 1_555 1_555
C155 C147 1_555 1_555
C156 H43 1_555 1_555
C157 C156 1_555 1_555
H44 C157 1_555 1_555
C158 N8 1_555 1_555
C159 C158 1_555 1_555
H45 C159 1_555 1_555
C160 H46 1_555 1_555
C161 C118 1_555 1_555
C162 C114 1_555 1_555
C163 C158 1_555 1_555
H47 C163 1_555 1_555
C164 C157 1_555 1_555
H48 C164 1_555 1_555
C165 C160 1_555 1_555
H49 C165 1_555 1_555
C166 C163 1_555 1_555
H50 C166 1_555 1_555
C167 N11 1_555 1_555
C168 C154 1_555 1_555
H51 C168 1_555 1_555
C169 H52 1_555 1_555
C170 N9 1_555 1_555
C171 N12 1_555 1_555
C172 C154 1_555 1_555
H53 C172 1_555 1_555
C173 C171 1_555 1_555
H54 C173 1_555 1_555
C174 C173 1_555 1_555
H55 C174 1_555 1_555
C175 H56 1_555 1_555
C176 C159 1_555 1_555
H57 C176 1_555 1_555
C177 N10 1_555 1_555
C178 C172 1_555 1_555
H58 C178 1_555 1_555
C179 C168 1_555 1_555
H59 C179 1_555 1_555
C180 H60 1_555 1_555
C181 C170 1_555 1_555
H61 C181 1_555 1_555
C182 C169 1_555 1_555
H62 C182 1_555 1_555
C183 C170 1_555 1_555
H63 C183 1_555 1_555
C184 C166 1_555 1_555
H64 C184 1_555 1_555
C185 C169 1_555 1_555
H65 C185 1_555 1_555
C186 C177 1_555 1_555
H66 C186 1_555 1_555
C187 C180 1_555 1_555
H67 C187 1_555 1_555
C188 C177 1_555 1_555
H68 C188 1_555 1_555
C189 C180 1_555 1_555
H69 C189 1_555 1_555
C190 C186 1_555 1_555
H70 C190 1_555 1_555
C191 C190 1_555 1_555
H71 C191 1_555 1_555
C192 C188 1_555 1_555
H72 C192 1_555 1_555
S1 C194 1_555 1_555
S2 C194 1_555 1_555
S3 C193 1_555 1_555
S4 C193 1_555 1_555
C193 C194 1_555 1_555
C195 S3 1_555 1_555
H73 C195 1_555 1_555
C196 S1 1_555 1_555
H74 C196 1_555 1_555
C197 S2 1_555 1_555
H75 C197 1_555 1_555
C198 S4 1_555 1_555
H76 C198 1_555 1_555
S5 C199 1_555 1_555
S6 C199 1_555 1_555
S7 C200 1_555 1_555
S8 C200 1_555 1_555
S9 C201 1_555 1_555
S10 C201 1_555 1_555
C2 C44 1_555 1_555
C5 C63 1_555 1_555
C14 C48 1_555 1_555
C16 C48 1_555 1_555
C17 C29 1_555 1_555
C22 C28 1_555 1_555
C23 C31 1_555 1_555
C23 C34 1_555 1_555
C24 C39 1_555 1_555
C25 C29 1_555 1_555
C27 C50 1_555 1_555
C28 C53 1_555 1_555
C37 C58 1_555 1_555
C40 C54 1_555 1_555
C42 C55 1_555 1_555
C43 C67 1_555 1_555
C44 C46 1_555 1_555
C45 C54 1_555 1_555
C46 C57 1_555 1_555
C47 C63 1_555 1_555
C49 C59 1_555 1_555
C53 C56 1_555 1_555
C55 C59 1_555 1_555
C56 C57 1_555 1_555
C58 C61 1_555 1_555
C65 C73 1_555 1_555
C68 C70 1_555 1_555
C69 C75 1_555 1_555
C72 C73 1_555 1_555
C72 C87 1_555 1_555
C76 C85 1_555 1_555
C77 C78 1_555 1_555
C79 C81 1_555 1_555
C79 C83 1_555 1_555
C80 C85 1_555 1_555
C82 C90 1_555 1_555
C88 C93 1_555 1_555
C89 C94 1_555 1_555
C91 C92 1_555 1_555
C95 C96 1_555 1_555
C105 C151 1_555 1_555
C108 C151 1_555 1_555
C109 C132 1_555 1_555
C110 C136 1_555 1_555
C111 C137 1_555 1_555
C116 C139 1_555 1_555
C116 C153 1_555 1_555
C117 C134 1_555 1_555
C119 C135 1_555 1_555
C120 C133 1_555 1_555
C120 C161 1_555 1_555
C121 C144 1_555 1_555
C125 C152 1_555 1_555
C127 C133 1_555 1_555
C130 C162 1_555 1_555
C131 C139 1_555 1_555
C131 C148 1_555 1_555
C134 C161 1_555 1_555
C140 C149 1_555 1_555
C140 C153 1_555 1_555
C142 C147 1_555 1_555
C144 C146 1_555 1_555
C145 C150 1_555 1_555
C148 C150 1_555 1_555
C152 C155 1_555 1_555
C156 C167 1_555 1_555
C160 C164 1_555 1_555
C165 C167 1_555 1_555
C171 C185 1_555 1_555
C174 C182 1_555 1_555
C175 C178 1_555 1_555
C175 C179 1_555 1_555
C176 C184 1_555 1_555
C181 C189 1_555 1_555
C183 C187 1_555 1_555
C191 C192 1_555 1_555
C195 C198 1_555 1_555
C196 C197 1_555 1_555

#END
