
#######################################################################
#
#                 Cambridge Crystallographic Data Centre
#                                CCDC 
#
#######################################################################
#
# If this CIF has been generated from an entry in the Cambridge 
# Structural Database, then it will include bibliographic, chemical, 
# crystal, experimental, refinement or atomic coordinate data resulting 
# from the CCDC's data processing and validation procedures.
#
#######################################################################

data_VEXVIG
_chemical_formula_moiety         'C90 H66 Cl12 N12'
_chemical_name_systematic        
'1,3,4,6,7,9,10,12,13,15,16,18-dodecachloro-N^2^,N^5^,N^8^,N^11^,N^14^,N^17^-hexakis[4-(dimethylamino)phenyl]hexabenzo[bc,ef,hi,kl,no,qr]coronene-2,5,8,11,14,17-hexamine unknown solvate'
_symmetry_cell_setting           rhombohedral
_symmetry_space_group_name_H-M   'R -3'
_symmetry_Int_Tables_number      148
_space_group_name_Hall           '-R 3'
loop_
_symmetry_equiv_pos_site_id
_symmetry_equiv_pos_as_xyz
1 x,y,z
2 -y,x-y,z
3 -x+y,-x,z
4 2/3+x,1/3+y,1/3+z
5 2/3-y,1/3+x-y,1/3+z
6 2/3-x+y,1/3-x,1/3+z
7 1/3+x,2/3+y,2/3+z
8 1/3-y,2/3+x-y,2/3+z
9 1/3-x+y,2/3-x,2/3+z
10 -x,-y,-z
11 y,-x+y,-z
12 x-y,x,-z
13 1/3-x,2/3-y,2/3-z
14 1/3+y,2/3-x+y,2/3-z
15 1/3+x-y,2/3+x,2/3-z
16 2/3-x,1/3-y,1/3-z
17 2/3+y,1/3-x+y,1/3-z
18 2/3+x-y,1/3+x,1/3-z
_cell_length_a                   31.5274(8)
_cell_length_b                   31.5274(8)
_cell_length_c                   25.7195(5)
_cell_angle_alpha                90
_cell_angle_beta                 90
_cell_angle_gamma                120
_cell_volume                     22139.6
_cell_formula_units_Z            9
loop_
_atom_site_label
_atom_site_type_symbol
_atom_site_fract_x
_atom_site_fract_y
_atom_site_fract_z
Cl1 Cl 0.32647(3) 0.33149(3) 0.68895(3)
Cl2 Cl 0.22997(3) 0.23984(3) 0.65866(3)
Cl3 Cl 0.34613(3) 0.30779(3) 0.89019(3)
Cl4 Cl 0.18873(3) 0.42894(3) 0.61810(3)
Cl5 Cl 0.07478(3) 0.45818(3) 0.74799(3)
Cl6 Cl 0.12057(3) 0.31494(4) 0.59449(3)
N1 N 0.37567(11) 0.32332(12) 0.78157(11)
H1 H 0.3880 0.3432 0.7548
N2 N 0.11950(12) 0.46460(12) 0.64822(12)
H2 H 0.1245 0.4920 0.6628
N3 N 0.16379(12) 0.25081(14) 0.58881(12)
H3 H 0.1875 0.2466 0.5766
C1 C 0.18010(11) 0.33283(12) 0.78126(12)
C2 C 0.14669(11) 0.34845(11) 0.79320(11)
C3 C 0.14681(11) 0.37078(12) 0.70182(11)
C4 C 0.19944(12) 0.31624(11) 0.82136(11)
C5 C 0.19108(11) 0.32850(12) 0.72812(11)
C6 C 0.12898(12) 0.36715(11) 0.75244(11)
C7 C 0.16792(12) 0.34051(13) 0.68795(11)
C8 C 0.25170(12) 0.30604(12) 0.75718(11)
C9 C 0.21945(12) 0.30625(12) 0.71614(11)
C10 C 0.23589(11) 0.30313(11) 0.80930(11)
C11 C 0.09886(12) 0.38721(12) 0.76529(11)
C12 C 0.14644(13) 0.40603(13) 0.66820(11)
C13 C 0.25926(12) 0.29235(12) 0.85047(11)
C14 C 0.12043(12) 0.42998(13) 0.68063(12)
C15 C 0.21069(13) 0.28233(13) 0.66877(12)
C16 C 0.29798(13) 0.31207(13) 0.74894(12)
C17 C 0.32652(13) 0.31090(12) 0.78988(12)
C18 C 0.17933(12) 0.28365(14) 0.63135(11)
C19 C 0.38879(14) 0.28689(15) 0.77984(13)
C20 C 0.16103(13) 0.31559(14) 0.64075(12)
C21 C 0.09716(12) 0.42004(13) 0.73004(12)
C22 C 0.30653(13) 0.30008(13) 0.83988(12)
N4 N 0.08514(14) 0.45426(19) 0.43151(13)
C23 C 0.11115(14) 0.46009(15) 0.59319(14)
C24 C 0.09649(14) 0.41754(15) 0.56598(14)
H4 H 0.0914 0.3890 0.5840
C25 C 0.35980(14) 0.23976(16) 0.79743(14)
H5 H 0.3287 0.2304 0.8122
C26 C 0.43406(15) 0.29930(17) 0.75685(17)
H6 H 0.4544 0.3315 0.7439
C27 C 0.10889(16) 0.49906(18) 0.51322(16)
H7 H 0.1131 0.5274 0.4955
C28 C 0.11953(16) 0.20547(17) 0.59683(16)
C29 C 0.09458(15) 0.45652(19) 0.48512(15)
C30 C 0.08896(15) 0.41537(18) 0.51247(15)
H8 H 0.0799 0.3858 0.4943
C31 C 0.11732(16) 0.50172(17) 0.56682(14)
H9 H 0.1271 0.5314 0.5851
C32 C 0.37532(17) 0.20550(16) 0.79386(15)
H10 H 0.3551 0.1736 0.8076
C33 C 0.10368(16) 0.18436(18) 0.64477(17)
H11 H 0.1230 0.2003 0.6745
C34 C 0.44934(17) 0.2656(2) 0.75281(17)
H12 H 0.4804 0.2752 0.7378
C35 C 0.4104(2) 0.1387(2) 0.79597(18)
H13 H 0.4105 0.1467 0.8328
H14 H 0.4268 0.1196 0.7916
H15 H 0.3765 0.1196 0.7837
C36 C 0.06067(19) 0.14080(19) 0.6512(2)
H16 H 0.0517 0.1270 0.6850
C37 C 0.41993(17) 0.21691(19) 0.77052(17)
C38 C 0.1056(2) 0.4999(2) 0.40415(17)
H17 H 0.0904 0.5186 0.4165
H18 H 0.0994 0.4936 0.3668
H19 H 0.1410 0.5187 0.4104
C39 C 0.0848(2) 0.4148(2) 0.40256(19)
H20 H 0.1171 0.4175 0.4050
H21 H 0.0772 0.4168 0.3660
H22 H 0.0600 0.3833 0.4171
C40 C 0.0876(3) 0.1810(3) 0.5555(4)
H23 H 0.0965 0.1940 0.5214
C41 C 0.0303(2) 0.11667(19) 0.6099(3)
C42 C 0.0428(3) 0.1377(3) 0.5631(4)
H24 H 0.0210 0.1232 0.5346
N5 N -0.0193(4) 0.0753(4) 0.6205(6)
C43 C 0.4833(3) 0.1953(3) 0.7536(3)
H25 H 0.5054 0.2137 0.7823
H26 H 0.4933 0.2157 0.7222
H27 H 0.4849 0.1655 0.7471
C44 C -0.0327(5) 0.0327(5) 0.5894(7)
H28 H -0.0315 0.0411 0.5525
H29 H -0.0659 0.0070 0.5985
H30 H -0.0097 0.0209 0.5959
C45 C -0.0318(7) 0.0581(7) 0.6770(8)
H31 H -0.0073 0.0505 0.6907
H32 H -0.0643 0.0287 0.6784
H33 H -0.0318 0.0840 0.6980
N6 N 0.43529(18) 0.18259(19) 0.76679(17)
Cl1L Cl 0.00686(3) 0.33518(3) 0.97772(3)
Cl2L Cl 0.10336(3) 0.42683(3) 1.00801(3)
Cl3L Cl -0.01280(3) 0.35888(3) 0.77648(3)
Cl4L Cl 0.14460(3) 0.23773(3) 1.04857(3)
Cl5L Cl 0.25855(3) 0.20849(3) 0.91868(3)
Cl6L Cl 0.21276(3) 0.35173(4) 1.07218(3)
N1L N -0.04234(11) 0.34335(12) 0.88510(11)
H1L H -0.0547 0.3235 0.9119
N2L N 0.21383(12) 0.20207(12) 1.01845(12)
H2L H 0.2088 0.1747 1.0039
N3L N 0.16954(12) 0.41586(14) 1.07786(12)
H3L H 0.1458 0.4201 1.0901
C1L C 0.15323(11) 0.33384(12) 0.88541(12)
C2L C 0.18664(11) 0.31822(11) 0.87347(11)
C3L C 0.18652(11) 0.29589(12) 0.96485(11)
C4L C 0.13389(12) 0.35043(11) 0.84531(11)
C5L C 0.14225(11) 0.33817(12) 0.93855(11)
C6L C 0.20435(12) 0.29952(11) 0.91423(11)
C7L C 0.16541(12) 0.32616(13) 0.97872(11)
C8L C 0.08163(12) 0.36063(12) 0.90949(11)
C9L C 0.11388(12) 0.36042(12) 0.95053(11)
C10L C 0.09744(11) 0.36354(11) 0.85737(11)
C11L C 0.23447(12) 0.27946(12) 0.90138(11)
C12L C 0.18689(13) 0.26064(13) 0.99847(11)
C13L C 0.07407(12) 0.37432(12) 0.81620(11)
C14L C 0.21290(12) 0.23669(13) 0.98604(12)
C15L C 0.12264(13) 0.38434(13) 0.99790(12)
C16L C 0.03535(13) 0.35460(13) 0.91773(12)
C17L C 0.00681(13) 0.35577(12) 0.87679(12)
C18L C 0.15400(12) 0.38302(14) 1.03532(11)
C19L C -0.05546(14) 0.37978(15) 0.88683(13)
C20L C 0.17230(13) 0.35108(14) 1.02592(12)
C21L C 0.23617(12) 0.24663(13) 0.93663(12)
C22L C 0.02680(13) 0.36659(13) 0.82679(12)
N4L N 0.24819(14) 0.21241(19) 1.23516(13)
C23L C 0.22218(14) 0.20658(15) 1.07348(14)
C24L C 0.23684(14) 0.24913(15) 1.10069(14)
H4L H 0.2419 0.2777 1.0827
C25L C -0.02647(14) 0.42691(16) 0.86924(14)
H5L H 0.0046 0.4363 0.8545
C26L C -0.10073(15) 0.36737(17) 0.90982(17)
H6L H -0.1211 0.3352 0.9228
C27L C 0.22444(16) 0.16761(18) 1.15345(16)
H7L H 0.2202 0.1393 1.1712
C28L C 0.21380(16) 0.46120(17) 1.06984(16)
C29L C 0.23875(15) 0.21015(19) 1.18155(15)
C30L C 0.24437(15) 0.25130(18) 1.15420(15)
H8L H 0.2534 0.2809 1.1724
C31L C 0.21601(16) 0.16495(17) 1.09985(14)
H9L H 0.2062 0.1353 1.0816
C32L C -0.04199(17) 0.46117(16) 0.87281(15)
H10L H -0.0218 0.4931 0.8591
C33L C 0.22965(16) 0.48231(18) 1.02190(17)
H11L H 0.2103 0.4664 0.9922
C34L C -0.11601(17) 0.4011(2) 0.91386(17)
H12L H -0.1471 0.3915 0.9289
C35L C -0.0771(2) 0.5280(2) 0.87070(18)
H13L H -0.0772 0.5200 0.8339
H14L H -0.0935 0.5471 0.8751
H15L H -0.0432 0.5471 0.8830
C36L C 0.27266(19) 0.52587(19) 1.0155(2)
H16L H 0.2816 0.5397 0.9817
C37L C -0.08660(17) 0.44976(19) 0.89615(17)
C38L C 0.2277(2) 0.1668(2) 1.26252(17)
H17L H 0.2429 0.1481 1.2502
H18L H 0.2339 0.1731 1.2999
H19L H 0.1923 0.1480 1.2563
C39L C 0.2485(2) 0.2519(2) 1.26411(19)
H20L H 0.2162 0.2492 1.2617
H21L H 0.2561 0.2499 1.3007
H22L H 0.2733 0.2834 1.2496
C40L C 0.2457(3) 0.4857(3) 1.1112(4)
H23L H 0.2368 0.4727 1.1453
C41L C 0.3030(2) 0.55000(19) 1.0568(3)
C42L C 0.2905(3) 0.5290(3) 1.1036(4)
H24L H 0.3123 0.5435 1.1321
N5L N 0.3526(4) 0.5914(4) 1.0462(6)
C43L C -0.1500(3) 0.4714(3) 0.9131(3)
H25L H -0.1721 0.4530 0.8844
H26L H -0.1600 0.4510 0.9445
H27L H -0.1516 0.5012 0.9196
C44L C 0.3660(5) 0.6340(5) 1.0773(7)
H28L H 0.3648 0.6256 1.1142
H29L H 0.3992 0.6597 1.0682
H30L H 0.3430 0.6458 1.0708
C45L C 0.3651(7) 0.6086(7) 0.9897(8)
H31L H 0.3406 0.6162 0.9760
H32L H 0.3976 0.6380 0.9883
H33L H 0.3651 0.5827 0.9687
N6L N -0.10196(18) 0.48408(19) 0.89988(17)
C46? C -0.0297(6) 0.0538(6) 0.6532(7)
H34? H -0.0081 0.0544 0.6810
H35? H -0.0568 0.0203 0.6485
H36? H -0.0427 0.0753 0.6626
C47? C -0.0343(6) 0.0493(4) 0.5597(5)
H37? H -0.0431 0.0728 0.5457
H38? H -0.0642 0.0191 0.5697
H39? H -0.0168 0.0418 0.5332
N7? N -0.0026(8) 0.0707(6) 0.6059(8)
C48? C 0.0638(8) 0.1362(7) 0.5534(7)
H40? H 0.0532 0.1152 0.5240
C49? C 0.1060(9) 0.1821(9) 0.5495(9)
H41? H 0.1232 0.1955 0.5180
C50? C 0.4720(8) 0.1962(6) 0.7202(9)
H42? H 0.4788 0.1695 0.7141
H43? H 0.5026 0.2263 0.7285
H44? H 0.4575 0.2014 0.6888
loop_
_geom_bond_atom_site_label_1
_geom_bond_atom_site_label_2
_geom_bond_site_symmetry_1
_geom_bond_site_symmetry_2
Cl1 C16 1_555 1_555
Cl2 C15 1_555 1_555
Cl3 C22 1_555 1_555
Cl4 C12 1_555 1_555
Cl5 C21 1_555 1_555
Cl6 C20 1_555 1_555
N1 H1 1_555 1_555
N2 H2 1_555 1_555
N3 H3 1_555 1_555
C1 C2 1_555 1_555
C2 C6 1_555 1_555
C3 C6 1_555 1_555
C4 C1 1_555 1_555
C5 C1 1_555 1_555
C6 C11 1_555 1_555
C7 C3 1_555 1_555
C8 C9 1_555 1_555
C9 C5 1_555 1_555
C10 C4 1_555 1_555
C11 C21 1_555 1_555
C12 C3 1_555 1_555
C13 C10 1_555 1_555
C14 N2 1_555 1_555
C15 C9 1_555 1_555
C16 C8 1_555 1_555
C17 N1 1_555 1_555
C18 N3 1_555 1_555
C19 N1 1_555 1_555
C20 C7 1_555 1_555
C21 C14 1_555 1_555
C22 C13 1_555 1_555
N4 C29 1_555 1_555
C23 N2 1_555 1_555
C24 C23 1_555 1_555
H4 C24 1_555 1_555
C25 C19 1_555 1_555
H5 C25 1_555 1_555
C26 C19 1_555 1_555
H6 C26 1_555 1_555
C27 H7 1_555 1_555
C28 N3 1_555 1_555
C29 C27 1_555 1_555
C30 C24 1_555 1_555
H8 C30 1_555 1_555
C31 C23 1_555 1_555
H9 C31 1_555 1_555
C32 C25 1_555 1_555
H10 C32 1_555 1_555
C33 C28 1_555 1_555
H11 C33 1_555 1_555
C34 C26 1_555 1_555
H12 C34 1_555 1_555
C35 H13 1_555 1_555
H14 C35 1_555 1_555
H15 C35 1_555 1_555
C36 C33 1_555 1_555
H16 C36 1_555 1_555
C37 C32 1_555 1_555
C38 N4 1_555 1_555
H17 C38 1_555 1_555
H18 C38 1_555 1_555
H19 C38 1_555 1_555
C39 N4 1_555 1_555
H20 C39 1_555 1_555
H21 C39 1_555 1_555
H22 C39 1_555 1_555
C40 C28 1_555 1_555
H23 C40 1_555 1_555
C41 C36 1_555 1_555
C42 C40 1_555 1_555
H24 C42 1_555 1_555
N5 C41 1_555 1_555
C43 H25 1_555 1_555
H26 C43 1_555 1_555
H27 C43 1_555 1_555
C44 N5 1_555 1_555
H28 C44 1_555 1_555
H29 C44 1_555 1_555
H30 C44 1_555 1_555
C45 N5 1_555 1_555
H31 C45 1_555 1_555
H32 C45 1_555 1_555
H33 C45 1_555 1_555
N6 C35 1_555 1_555
Cl1L C16L 1_555 1_555
Cl2L C15L 1_555 1_555
Cl3L C22L 1_555 1_555
Cl4L C12L 1_555 1_555
Cl5L C21L 1_555 1_555
Cl6L C20L 1_555 1_555
N1L H1L 1_555 1_555
N2L H2L 1_555 1_555
N3L H3L 1_555 1_555
C1L C2L 1_555 1_555
C2L C4 1_555 1_555
C3L C6L 1_555 1_555
C4L C2 1_555 1_555
C5L C1L 1_555 1_555
C6L C2L 1_555 1_555
C7L C3L 1_555 1_555
C8L C9L 1_555 1_555
C9L C5L 1_555 1_555
C10L C4L 1_555 1_555
C11L C13 1_555 1_555
C12L C3L 1_555 1_555
C13L C11 1_555 1_555
C14L N2L 1_555 1_555
C15L C9L 1_555 1_555
C16L C8L 1_555 1_555
C17L N1L 1_555 1_555
C18L N3L 1_555 1_555
C19L N1L 1_555 1_555
C20L C7L 1_555 1_555
C21L C11L 1_555 1_555
C22L C13L 1_555 1_555
N4L C29L 1_555 1_555
C23L N2L 1_555 1_555
C24L C23L 1_555 1_555
H4L C24L 1_555 1_555
C25L C19L 1_555 1_555
H5L C25L 1_555 1_555
C26L C19L 1_555 1_555
H6L C26L 1_555 1_555
C27L H7L 1_555 1_555
C28L N3L 1_555 1_555
C29L C27L 1_555 1_555
C30L C24L 1_555 1_555
H8L C30L 1_555 1_555
C31L C23L 1_555 1_555
H9L C31L 1_555 1_555
C32L C25L 1_555 1_555
H10L C32L 1_555 1_555
C33L C28L 1_555 1_555
H11L C33L 1_555 1_555
C34L C26L 1_555 1_555
H12L C34L 1_555 1_555
C35L H13L 1_555 1_555
H14L C35L 1_555 1_555
H15L C35L 1_555 1_555
C36L C33L 1_555 1_555
H16L C36L 1_555 1_555
C37L C32L 1_555 1_555
C38L N4L 1_555 1_555
H17L C38L 1_555 1_555
H18L C38L 1_555 1_555
H19L C38L 1_555 1_555
C39L N4L 1_555 1_555
H20L C39L 1_555 1_555
H21L C39L 1_555 1_555
H22L C39L 1_555 1_555
C40L C28L 1_555 1_555
H23L C40L 1_555 1_555
C41L C36L 1_555 1_555
C42L C40L 1_555 1_555
H24L C42L 1_555 1_555
N5L C41L 1_555 1_555
C43L H25L 1_555 1_555
H26L C43L 1_555 1_555
H27L C43L 1_555 1_555
C44L N5L 1_555 1_555
H28L C44L 1_555 1_555
H29L C44L 1_555 1_555
H30L C44L 1_555 1_555
C45L N5L 1_555 1_555
H31L C45L 1_555 1_555
H32L C45L 1_555 1_555
H33L C45L 1_555 1_555
N6L C35L 1_555 1_555
C5 C7 1_555 1_555
C8 C10 1_555 1_555
C12 C14 1_555 1_555
C15 C18 1_555 1_555
C16 C17 1_555 1_555
C17 C22 1_555 1_555
C18 C20 1_555 1_555
C27 C31 1_555 1_555
C29 C30 1_555 1_555
C34 C37 1_555 1_555
C37 N6 1_555 1_555
C41 C42 1_555 1_555
C43 N6 1_555 1_555
C1L C4L 1_555 1_555
C5L C7L 1_555 1_555
C6L C11L 1_555 1_555
C8L C10L 1_555 1_555
C10L C13L 1_555 1_555
C12L C14L 1_555 1_555
C14L C21L 1_555 1_555
C15L C18L 1_555 1_555
C16L C17L 1_555 1_555
C17L C22L 1_555 1_555
C18L C20L 1_555 1_555
C27L C31L 1_555 1_555
C29L C30L 1_555 1_555
C34L C37L 1_555 1_555
C37L N6L 1_555 1_555
C41L C42L 1_555 1_555
C43L N6L 1_555 1_555

#END
