
#######################################################################
#
#                 Cambridge Crystallographic Data Centre
#                                CCDC 
#
#######################################################################
#
# If this CIF has been generated from an entry in the Cambridge 
# Structural Database, then it will include bibliographic, chemical, 
# crystal, experimental, refinement or atomic coordinate data resulting 
# from the CCDC's data processing and validation procedures.
#
#######################################################################

data_VEXVOM
_chemical_formula_moiety         '2(C102 H48 Cl16 N6 O6),C6 H4 S4,2(C1 S2)'
_chemical_name_systematic        
'bis(1,3,4,6,7,8,9,11,12,14,15,17,18,19,20,22,-hexadecachloro-2,5,10,13,16,21-hexakis((4-methoxyphenyl)amino)nanographene) tetrathiafulvalene bis(carbon disulfide) unknown solvate'
_symmetry_cell_setting           triclinic
_symmetry_space_group_name_H-M   'P -1'
_symmetry_Int_Tables_number      2
_space_group_name_Hall           '-P 1'
loop_
_symmetry_equiv_pos_site_id
_symmetry_equiv_pos_as_xyz
1 x,y,z
2 -x,-y,-z
_cell_length_a                   21.5223(6)
_cell_length_b                   23.1734(8)
_cell_length_c                   26.4204(6)
_cell_angle_alpha                108.025(3)
_cell_angle_beta                 98.092(2)
_cell_angle_gamma                115.886(3)
_cell_volume                     10671
_exptl_crystal_colour            'metallic dark brown'
_exptl_crystal_description       block
_cell_formula_units_Z            2
loop_
_atom_site_label
_atom_site_type_symbol
_atom_site_fract_x
_atom_site_fract_y
_atom_site_fract_z
Cl1 Cl 0.63728(9) -0.23573(7) 1.46383(6)
Cl2 Cl 0.59931(8) -0.06616(7) 1.38060(6)
Cl3 Cl 0.76184(9) -0.46839(8) 1.06801(7)
Cl4 Cl 0.69615(9) -0.30818(9) 0.97418(6)
Cl5 Cl 0.60745(9) -0.54943(8) 0.97823(6)
Cl6 Cl 0.44702(9) -0.19743(8) 1.36684(6)
Cl7 Cl 0.54709(9) -0.70903(7) 1.16723(6)
Cl8 Cl 0.51555(10) -0.59187(8) 1.36150(6)
Cl9 Cl 0.46940(9) -0.29812(8) 1.41084(6)
Cl10 Cl 0.39916(9) -0.26082(9) 0.94431(6)
Cl11 Cl 0.66579(10) -0.45925(9) 1.43179(6)
Cl12 Cl 0.57055(9) -0.46059(8) 0.93014(6)
Cl13 Cl 0.71312(9) -0.61547(9) 1.19139(7)
Cl14 Cl 0.56334(10) -0.16300(9) 0.96841(7)
Cl15 Cl 0.51038(12) -0.01627(9) 1.20859(7)
Cl16 Cl 0.35449(11) -0.14335(12) 1.13319(7)
N1 N 0.6716(3) -0.3313(3) 1.49855(19)
H1 H 0.7132 -0.3307 1.5051
C1 C 0.5706(3) -0.3699(3) 1.1965(2)
C2 C 0.5334(3) -0.2747(3) 1.2614(2)
C3 C 0.5573(3) -0.3261(3) 1.1747(2)
C4 C 0.5980(3) -0.4645(3) 1.1839(2)
C5 C 0.5358(3) -0.2802(3) 1.2064(2)
C6 C 0.5849(3) -0.3742(3) 1.0899(2)
C7 C 0.5990(3) -0.4178(3) 1.1115(2)
O1 O 0.4871(3) 0.1428(2) 1.4933(2)
C8 C 0.5903(3) -0.4627(3) 1.2362(2)
C9 C 0.5169(3) -0.2405(3) 1.1829(2)
C10 C 0.5631(3) -0.3682(3) 1.2492(2)
C11 C 0.5906(3) -0.4164(3) 1.1644(2)
N2 N 0.5232(3) -0.7015(3) 1.2759(2)
H2 H 0.4790 -0.7197 1.2787
C12 C 0.5454(3) -0.3188(3) 1.2825(2)
C13 C 0.5046(3) -0.1879(3) 1.2178(2)
C14 C 0.5939(3) -0.5138(3) 1.2545(2)
C15 C 0.5740(3) -0.4066(3) 1.3254(2)
C16 C 0.4965(3) -0.2340(3) 1.3404(2)
O2 O 0.6072(3) -0.2292(3) 1.69156(17)
C17 C 0.6346(3) -0.5535(3) 1.1751(2)
N3 N 0.5780(3) 0.0198(3) 1.3261(2)
H3 H 0.5840 0.0441 1.3055
C18 C 0.5560(3) 0.0476(3) 1.3708(2)
C19 C 0.5610(3) -0.3298(3) 1.1209(2)
C20 C 0.5797(3) -0.5162(3) 1.3047(2)
C21 C 0.5410(3) -0.2915(3) 1.0977(2)
C22 C 0.6240(3) -0.5078(3) 1.1542(2)
C23 C 0.5877(3) -0.3082(3) 1.5444(2)
H4 H 0.5511 -0.3293 1.5091
C24 C 0.5430(3) -0.3135(3) 1.3368(2)
C25 C 0.5905(3) -0.4491(3) 1.3465(2)
O3 O 0.6565(3) -0.8576(3) 1.2910(2)
C26 C 0.5190(3) -0.2467(3) 1.1291(2)
C27 C 0.5505(3) -0.2910(3) 1.0451(2)
C28 C 0.5191(3) -0.2240(3) 1.2943(2)
C29 C 0.5717(3) -0.4155(3) 1.2690(2)
C30 C 0.5205(3) -0.1704(3) 1.2759(2)
C31 C 0.4922(3) -0.2117(3) 1.1035(2)
C32 C 0.6233(3) -0.4614(3) 1.0816(2)
C33 C 0.5600(4) -0.7393(3) 1.2772(3)
C34 C 0.5868(3) -0.3242(3) 1.0196(2)
C35 C 0.6536(3) -0.3041(3) 1.5466(2)
C36 C 0.4637(3) -0.1727(3) 1.1339(2)
C37 C 0.5718(3) -0.3483(3) 1.3620(2)
N4 N 0.6478(3) -0.2275(3) 0.9299(2)
H5 H 0.6919 -0.1916 0.9505
C38 C 0.4855(4) -0.2247(3) 1.0470(2)
C39 C 0.5674(4) 0.1504(3) 1.4410(3)
H6 H 0.5913 0.2003 1.4601
C40 C 0.5958(3) -0.4340(3) 1.0018(2)
C41 C 0.5462(3) -0.0998(3) 1.3117(2)
C42 C 0.6057(3) -0.3230(3) 1.4202(2)
C43 C 0.6822(4) -0.5753(3) 1.1581(2)
C44 C 0.5324(4) -0.2483(3) 1.0236(2)
C45 C 0.6237(4) -0.2977(3) 0.9842(2)
C46 C 0.6314(3) -0.3587(3) 1.4429(2)
C47 C 0.5921(3) -0.3759(3) 1.0372(2)
C48 C 0.6215(3) -0.4238(3) 1.4036(2)
C49 C 0.4759(4) 0.0359(3) 1.4277(3)
H7 H 0.4371 0.0068 1.4377
C50 C 0.3892(4) -0.1943(4) 1.0426(3)
C51 C 0.4893(3) -0.1453(3) 1.1948(2)
C52 C 0.6267(4) -0.2522(3) 1.6450(2)
C53 C 0.5750(4) -0.2813(3) 1.5937(3)
H8 H 0.5298 -0.2830 1.5921
C54 C 0.6011(3) -0.5681(3) 1.2179(2)
C55 C 0.5426(3) -0.0525(3) 1.2907(3)
C56 C 0.6495(3) -0.4964(3) 1.1093(2)
C57 C 0.5554(3) -0.5788(3) 1.3108(2)
C58 C 0.7183(5) -0.6251(4) 1.0070(4)
H9 H 0.6757 -0.6233 1.0103
C59 C 0.5089(3) -0.2780(3) 1.3616(2)
C60 C 0.6116(3) -0.4750(3) 1.0243(2)
C61 C 0.7734(4) -0.6005(4) 1.0542(4)
C62 C 0.4996(4) 0.0053(3) 1.3857(3)
H10 H 0.4769 -0.0445 1.3675
C63 C 0.6104(4) -0.2528(3) 0.9649(2)
N5 N 0.7701(3) -0.5723(3) 1.1086(3)
H11 H 0.8034 -0.5649 1.1372
C64 C 0.6618(4) -0.3607(5) 0.7868(3)
C65 C 0.7174(3) -0.5555(3) 1.1200(3)
O4 O 0.6743(3) -0.3987(3) 0.7425(2)
C66 C 0.5912(4) 0.1205(3) 1.4001(3)
H12 H 0.6320 0.1499 1.3920
C67 C 0.5965(4) -0.3426(4) 0.8509(3)
H13 H 0.5545 -0.3608 0.8622
C68 C 0.5241(4) -0.8016(3) 1.2848(2)
H14 H 0.4763 -0.8178 1.2874
N6 N 0.3280(4) -0.2000(4) 1.0115(2)
H15 H 0.2843 -0.2278 1.0117
C69 C 0.7064(4) -0.2754(4) 1.5982(2)
H16 H 0.7518 -0.2731 1.5997
C70 C 0.6289(4) -0.7168(4) 1.2740(3)
H17 H 0.6542 -0.6742 1.2696
C71 C 0.7019(3) -0.5131(3) 1.0977(3)
C72 C 0.6923(4) -0.2500(4) 1.6478(3)
H18 H 0.7275 -0.2314 1.6833
C73 C 0.6271(4) -0.8164(3) 1.2850(3)
C74 C 0.6626(4) -0.7557(4) 1.2771(3)
H19 H 0.7100 -0.7403 1.2738
C75 C 0.4297(4) -0.2201(4) 1.0169(2)
C76 C 0.5101(4) -0.0772(4) 1.2328(2)
C77 C 0.5728(3) -0.6319(3) 1.2239(2)
C78 C 0.4218(4) 0.1007(4) 1.5019(3)
H20 H 0.3815 0.0737 1.4662
H21 H 0.4109 0.1312 1.5295
H22 H 0.4276 0.0682 1.5157
C79 C 0.4093(4) -0.1679(4) 1.1027(3)
C80 C 0.5575(4) -0.8389(4) 1.2886(3)
H23 H 0.5327 -0.8809 1.2938
C81 C 0.5093(4) 0.1085(3) 1.4543(2)
C82 C 0.5647(4) -0.2290(3) 0.9849(2)
C83 C 0.5518(4) -0.6378(3) 1.2705(3)
C84 C 0.7179(5) -0.8481(5) 1.2734(4)
H24 H 0.7065 -0.8545 1.2341
H25 H 0.7306 -0.8828 1.2768
H26 H 0.7591 -0.8004 1.2971
C85 C 0.7109(5) -0.2470(5) 0.8634(3)
H27 H 0.7488 -0.1992 0.8840
C86 C 0.6024(4) -0.3868(4) 0.8044(3)
H28 H 0.5652 -0.4350 0.7849
C87 C 0.6508(4) -0.2730(4) 0.8805(3)
C88 C 0.7872(7) -0.6562(6) 0.9509(5)
C89 C 0.6578(6) -0.2020(7) 1.7453(3)
H29 H 0.6685 -0.2380 1.7483
H30 H 0.6368 -0.1888 1.7744
H31 H 0.7029 -0.1603 1.7503
O5 O 0.7882(5) -0.6839(5) 0.8959(4)
C90 C 0.7233(6) -0.6533(5) 0.9535(4)
H32 H 0.6853 -0.6697 0.9203
C91 C 0.7171(5) -0.2895(5) 0.8166(3)
H33 H 0.7584 -0.2707 0.8048
C92 C 0.3593(5) -0.0838(4) 0.9138(3)
C93 C 0.3102(5) -0.1561(4) 0.8893(2)
H34 H 0.2841 -0.1794 0.8501
C94 C 0.2994(4) -0.1942(3) 0.9220(3)
H35 H 0.2658 -0.2436 0.9052
C95 C 0.3376(4) -0.1601(3) 0.9792(2)
C96 C 0.3867(4) -0.0878(4) 1.0038(2)
H36 H 0.4128 -0.0644 1.0429
C97 C 0.3976(4) -0.0496(3) 0.9711(4)
H37 H 0.4311 -0.0002 0.9878
C98 C 0.8356(5) -0.6056(5) 1.0506(5)
H38 H 0.8736 -0.5890 1.0838
O6 O 0.3645(7) -0.0536(7) 0.8734(5)
C99 C 0.6201(6) -0.4721(6) 0.7122(4)
H39 H 0.6344 -0.4939 0.6815
H40 H 0.5730 -0.4770 0.6967
H41 H 0.6158 -0.4955 0.7378
C100 C 0.4197(10) 0.0174(8) 0.9075(8)
H42 H 0.4287 0.0444 0.8845
H43 H 0.4039 0.0377 0.9378
H44 H 0.4646 0.0191 0.9237
C101 C 0.8411(6) -0.6343(6) 0.9992(5)
H45 H 0.8822 -0.6393 0.9967
C102 C 0.8501(10) -0.6966(10) 0.8944(7)
H46 H 0.8499 -0.7143 0.8555
H47 H 0.8450 -0.7316 0.9094
H48 H 0.8962 -0.6524 0.9173
Cl17 Cl 0.05485(8) 0.08999(8) 0.45040(6)
Cl18 Cl 0.09253(8) -0.02164(8) 0.45068(6)
Cl19 Cl 0.18007(8) 0.24524(9) 0.51935(7)
Cl20 Cl 0.25146(8) 0.03514(8) 0.51801(6)
Cl21 Cl 0.03609(11) 0.37502(10) 0.58232(10)
Cl22 Cl -0.12357(10) 0.26688(10) 0.55965(9)
Cl23 Cl 0.06713(11) -0.26706(10) 0.56334(9)
Cl24 Cl 0.22787(10) -0.16273(11) 0.58715(9)
Cl25 Cl -0.14219(12) 0.31423(12) 0.76624(11)
Cl26 Cl 0.12012(12) 0.32177(14) 0.95707(8)
Cl27 Cl 0.03329(12) -0.22662(15) 0.76541(11)
Cl28 Cl 0.01285(13) 0.43032(12) 0.84605(10)
Cl29 Cl -0.01443(13) 0.17494(16) 0.92699(9)
Cl30 Cl 0.19631(14) 0.12239(16) 0.95621(8)
Cl31 Cl 0.02978(15) 0.06813(16) 0.93019(9)
Cl32 Cl 0.19137(14) -0.11457(18) 0.84518(12)
C103 C 0.0880(3) 0.1165(3) 0.6104(2)
O7 O 0.2567(3) -0.1425(3) 0.2960(2)
C104 C 0.0875(3) 0.0590(4) 0.7480(3)
C105 C 0.1515(3) -0.0132(3) 0.5696(2)
N7 N 0.2685(3) -0.0847(3) 0.5190(2)
H49 H 0.3065 -0.0808 0.5407
C106 C 0.1048(3) 0.0648(3) 0.6094(2)
C107 C 0.0868(3) 0.1370(3) 0.5643(2)
C108 C 0.0780(3) 0.1971(3) 0.5689(3)
C109 C 0.1030(3) 0.0436(4) 0.6557(3)
C110 C 0.0404(3) 0.1930(3) 0.6520(2)
C111 C 0.1144(4) -0.0942(4) 0.6942(3)
C112 C 0.1175(4) -0.1369(4) 0.6435(3)
C113 C 0.0870(3) 0.0782(4) 0.7017(2)
C114 C 0.0576(4) 0.1489(5) 0.7958(3)
C115 C 0.2187(3) -0.0752(4) 0.5441(3)
C116 C 0.2638(4) -0.0999(3) 0.4625(3)
C117 C 0.0416(4) 0.2149(3) 0.6068(3)
C118 C 0.1465(3) -0.1004(4) 0.6071(3)
C119 C 0.2621(5) -0.1292(4) 0.3508(3)
N8 N 0.1170(3) 0.3357(3) 0.5142(3)
H50 H 0.1604 0.3716 0.5363
C120 C 0.0658(3) 0.1477(3) 0.6552(2)
C121 C 0.0695(3) 0.1300(4) 0.7014(2)
C122 C 0.1052(3) 0.0398(3) 0.5146(2)
O8 O 0.1182(4) -0.4402(4) 0.7708(3)
C123 C 0.0516(4) 0.1638(4) 0.7481(3)
C124 C 0.1997(3) -0.0250(3) 0.5429(3)
C125 C 0.0883(4) 0.2915(4) 0.5416(3)
C126 C -0.0099(4) 0.2677(4) 0.6927(3)
C127 C 0.0178(4) 0.2516(4) 0.7942(3)
C128 C 0.0438(4) 0.3013(4) 0.5737(3)
C129 C 0.0189(4) 0.2627(4) 0.6054(3)
C130 C 0.0977(4) 0.0034(4) 0.7456(3)
C131 C 0.0796(4) 0.2419(4) 0.4206(3)
H51 H 0.0498 0.2076 0.4323
C132 C 0.0208(4) 0.2251(4) 0.6972(3)
C133 C 0.1232(3) 0.0318(3) 0.5647(2)
C134 C 0.0875(3) 0.0909(3) 0.5144(2)
C135 C 0.0830(4) 0.2205(5) 0.3666(3)
H52 H 0.0557 0.1719 0.3415
C136 C 0.1202(4) -0.0656(5) 0.7929(3)
C137 C 0.2071(4) -0.1080(4) 0.4232(3)
H53 H 0.1687 -0.1036 0.4343
C138 C 0.3191(4) -0.1076(4) 0.4457(3)
H54 H 0.3580 -0.1025 0.4723
C139 C 0.0342(5) 0.1580(6) 0.8845(3)
C140 C 0.1115(3) -0.0132(4) 0.6528(3)
C141 C 0.1335(3) -0.0447(4) 0.6081(3)
C142 C 0.1181(4) 0.3114(5) 0.4576(3)
C143 C 0.3178(4) -0.1230(4) 0.3900(3)
H55 H 0.3553 -0.1292 0.3787
C144 C 0.0276(4) 0.2106(4) 0.7454(3)
C145 C -0.1189(4) 0.2991(4) 0.6669(4)
C146 C 0.1105(4) -0.0334(4) 0.6986(3)
C147 C 0.1061(4) 0.2409(4) 0.5414(3)
C148 C 0.1064(4) -0.0102(5) 0.7947(3)
C149 C -0.0833(4) 0.2848(4) 0.6280(4)
C150 C -0.0258(4) 0.2736(4) 0.6417(3)
C151 C 0.1910(4) -0.1121(4) 0.5771(3)
C152 C -0.0343(4) 0.2945(4) 0.7377(3)
C153 C 0.1529(5) 0.0442(6) 0.8961(4)
C154 C 0.1046(4) -0.1189(5) 0.7381(4)
C155 C 0.0831(4) 0.0823(5) 0.8446(3)
C156 C 0.2059(4) -0.1225(4) 0.3679(3)
H56 H 0.1668 -0.1279 0.3415
N9 N 0.0710(4) 0.4191(4) 0.9458(3)
H57 H 0.0970 0.4609 0.9459
C157 C -0.0920(4) 0.3060(4) 0.7219(4)
C158 C 0.0754(4) 0.0972(4) 0.7964(3)
C159 C -0.0021(4) 0.3012(5) 0.7928(3)
C160 C 0.0763(5) -0.1887(5) 0.7242(4)
C161 C 0.0485(4) 0.3604(5) 0.8967(3)
C162 C 0.0553(5) 0.4170(5) 0.9959(4)
C163 C 0.0767(6) 0.4818(6) 1.0935(4)
H58 H 0.1008 0.5250 1.1262
C164 C 0.0403(4) 0.2479(5) 0.8460(3)
C165 C 0.0669(4) -0.2340(5) 0.6719(5)
C166 C 0.1129(5) 0.0376(5) 0.8464(3)
O9 O 0.1350(3) 0.2521(4) 0.2974(3)
C167 C 0.1606(5) 0.3608(5) 0.4402(4)
H59 H 0.1877 0.4093 0.4654
C168 C -0.0059(7) 0.3558(7) 1.0488(4)
H60 H -0.0373 0.3133 1.0513
O10 O 0.0165(6) 0.4251(6) 1.1467(3)
C169 C 0.0529(5) 0.1078(6) 0.8850(3)
C170 C 0.0613(5) 0.3066(6) 0.8961(3)
C171 C 0.1640(5) 0.3400(6) 0.3855(4)
H61 H 0.1927 0.3745 0.3735
C172 C 0.1556(5) -0.0594(6) 0.8461(4)
C173 C 0.0896(4) -0.2075(5) 0.6309(4)
C174 C 0.0168(4) 0.3569(5) 0.8448(4)
C175 C 0.0904(5) 0.4801(5) 1.0434(3)
H62 H 0.1240 0.5225 1.0417
N10 N 0.0321(5) -0.3089(4) 0.6526(4)
H63 H -0.0157 -0.3285 0.6423
C176 C 0.1379(6) -0.3390(5) 0.7600(4)
H64 H 0.1801 -0.3140 0.7922
C177 C 0.1211(6) -0.3010(6) 0.7341(4)
H65 H 0.1520 -0.2514 0.7475
C178 C 0.0074(6) 0.3555(6) 0.9989(4)
H66 H -0.0169 0.3123 0.9662
C179 C 0.1733(5) -0.0031(7) 0.8975(4)
C180 C 0.1264(5) 0.2703(6) 0.3494(4)
C181 C 0.0852(7) -0.5140(6) 0.7444(5)
H67 H 0.0849 -0.5282 0.7053
H68 H 0.0349 -0.5361 0.7450
H69 H 0.1126 -0.5292 0.7643
C182 C 0.0283(7) 0.4206(7) 1.0953(4)
C183 C 0.0454(4) 0.1868(5) 0.8438(3)
C184 C 0.0311(6) -0.4479(6) 0.6952(4)
H70 H 0.0000 -0.4974 0.6826
C185 C 0.0971(5) -0.4095(6) 0.7412(5)
C186 C 0.3088(6) -0.1564(7) 0.2752(5)
H71 H 0.2987 -0.1645 0.2355
H72 H 0.3054 -0.1984 0.2789
H73 H 0.3580 -0.1158 0.2969
C187 C 0.0571(6) -0.3381(5) 0.6876(5)
C188 C 0.0136(7) -0.4103(6) 0.6694(5)
H74 H -0.0297 -0.4352 0.6382
C189 C 0.1017(8) 0.1761(8) 0.2579(6)
H75 H 0.1171 0.1521 0.2770
H76 H 0.1180 0.1733 0.2248
H77 H 0.0484 0.1533 0.2460
C190 C -0.0212(10) 0.3629(11) 1.1532(6)
H78 H -0.0733 0.3394 1.1328
H79 H -0.0142 0.3738 1.1932
H80 H -0.0026 0.3316 1.1383
C191 C -0.1901(5) 0.3583(4) 0.6610(4)
C192 C -0.1344(4) 0.4246(5) 0.7004(4)
H81 H -0.0893 0.4306 0.7187
C193 C -0.1447(4) 0.4820(4) 0.7131(4)
H82 H -0.1066 0.5273 0.7401
C194 C -0.2107(5) 0.4731(4) 0.6864(5)
C195 C -0.2664(4) 0.4068(5) 0.6470(4)
H83 H -0.3115 0.4007 0.6287
C196 C -0.2561(4) 0.3494(4) 0.6343(4)
H84 H -0.2942 0.3041 0.6073
C197 C 0.1529(9) 0.0226(9) 1.0619(6)
H85 H 0.1095 0.0192 1.0687
O11 O -0.2233(6) 0.5296(6) 0.6953(7)
C198 C -0.1690(9) 0.5970(8) 0.7305(7)
H86 H -0.1816 0.6305 0.7240
H87 H -0.1231 0.6055 0.7232
H88 H -0.1634 0.6033 0.7696
C199 C 0.1564(9) 0.0058(9) 1.0074(6)
H89 H 0.1148 -0.0095 0.9775
C200 C 0.2197(9) 0.0107(10) 0.9953(7)
C201 C 0.2788(10) 0.0333(10) 1.0403(7)
H90 H 0.3228 0.0381 1.0339
N11 N 0.2257(7) -0.0026(11) 0.9417(6)
H91 H 0.2602 -0.0107 0.9338
C202 C 0.2753(9) 0.0489(10) 1.0943(7)
H92 H 0.3162 0.0633 1.1244
C203 C 0.2104(12) 0.0435(11) 1.1047(7)
O12 O 0.2124(8) 0.0577(9) 1.1602(5)
C204 C 0.1525(12) 0.0360(11) 1.1752(8)
H93 H 0.1101 0.0191 1.1434
H94 H 0.1575 0.0754 1.2069
H95 H 0.1458 -0.0023 1.1864
N12 N -0.1851(7) 0.2998(8) 0.6439(7)
H96 H -0.2230 0.2604 0.6179
S1 S 0.71589(10) -0.16562(10) 1.30087(8)
S2 S 0.75306(11) -0.27320(12) 1.30457(8)
S3 S 0.73704(12) -0.18911(13) 1.17986(8)
C205 C 0.7419(3) -0.2246(4) 1.2674(2)
C206 C 0.7511(4) -0.2374(4) 1.2174(2)
C207 C 0.7509(5) -0.2308(6) 1.1208(3)
H97 H 0.7453 -0.2210 1.0886
C208 C 0.7702(4) -0.2783(5) 1.1225(3)
H98 H 0.7811 -0.3019 1.0918
C209 C 0.7164(4) -0.1870(4) 1.3603(3)
H99 H 0.7065 -0.1641 1.3920
C210 C 0.7316(4) -0.2366(5) 1.3569(4)
H100 H 0.7300 -0.2520 1.3864
S4 S 0.77480(12) -0.29532(13) 1.18092(9)
S5 S 0.17721(16) -0.60785(14) 0.76161(12)
S6 S 0.22621(15) -0.58952(18) 0.66258(13)
C211 C 0.2023(5) -0.5993(4) 0.7081(4)
S7 S 0.30336(13) 0.03412(16) 0.74332(13)
S8 S 0.31838(19) 0.0957(2) 0.87075(16)
C212 C 0.3102(5) 0.0668(6) 0.8099(5)
N13? N -0.180(2) 0.299(2) 0.6633(13)
H101? H -0.2194 0.2571 0.6464
N14? N 0.2043(15) 0.0091(15) 0.9495(12)
H102? H 0.2422 0.0032 0.9517
C213? C 0.1750(10) 0.0632(11) 1.1067(6)
C214? C 0.2376(10) 0.0616(12) 1.1014(6)
H103? H 0.2738 0.0724 1.1335
C215? C 0.2474(9) 0.0443(11) 1.0490(7)
H104? H 0.2902 0.0432 1.0454
C216? C 0.1945(10) 0.0285(11) 1.0019(6)
C217? C 0.1319(9) 0.0301(11) 1.0072(6)
H105? H 0.0957 0.0193 0.9751
C218? C 0.1221(8) 0.0474(10) 1.0596(7)
H106? H 0.0793 0.0485 1.0632
C219? C 0.167(3) 0.312(3) 0.280(2)
H107? H 0.1494 0.3446 0.2947
H108? H 0.1515 0.2935 0.2389
H109? H 0.2202 0.3375 0.2952
O13? O 0.1654(12) 0.0838(12) 1.1614(9)
C220? C 0.117(3) 0.108(4) 1.175(3)
H110? H 0.1208 0.1183 1.2141
H111? H 0.1304 0.1504 1.1682
H112? H 0.0673 0.0710 1.1506
O14? O -0.236(2) 0.519(2) 0.7516(17)
C221? C -0.1936(19) 0.3576(14) 0.6825(13)
C222? C -0.2629(16) 0.3479(15) 0.6649(13)
H113? H -0.3017 0.3035 0.6372
C223? C -0.2752(15) 0.403(2) 0.6878(15)
H114? H -0.3225 0.3963 0.6758
C224? C -0.218(2) 0.4679(17) 0.7283(15)
C225? C -0.1492(17) 0.4776(13) 0.7459(12)
H115? H -0.1103 0.5220 0.7736
C226? C -0.1368(14) 0.4225(16) 0.7230(12)
H116? H -0.0895 0.4292 0.7351
C227? C -0.182(3) 0.586(3) 0.799(2)
H117? H -0.2036 0.6156 0.8100
H118? H -0.1667 0.5765 0.8307
H119? H -0.1399 0.6103 0.7879
loop_
_geom_bond_atom_site_label_1
_geom_bond_atom_site_label_2
_geom_bond_site_symmetry_1
_geom_bond_site_symmetry_2
Cl1 C42 1_555 1_555
Cl2 C41 1_555 1_555
Cl3 C71 1_555 1_555
Cl4 C45 1_555 1_555
Cl5 C60 1_555 1_555
Cl6 C16 1_555 1_555
Cl7 C77 1_555 1_555
Cl8 C57 1_555 1_555
Cl9 C59 1_555 1_555
Cl10 C75 1_555 1_555
Cl11 C48 1_555 1_555
Cl12 C40 1_555 1_555
Cl13 C43 1_555 1_555
Cl14 C82 1_555 1_555
Cl15 C76 1_555 1_555
Cl16 C79 1_555 1_555
N1 H1 1_555 1_555
C1 C3 1_555 1_555
C2 C5 1_555 1_555
C3 C5 1_555 1_555
C4 C8 1_555 1_555
C5 C9 1_555 1_555
C6 C7 1_555 1_555
C7 C11 1_555 1_555
O1 C78 1_555 1_555
C8 C14 1_555 1_555
C9 C13 1_555 1_555
C10 C1 1_555 1_555
C11 C1 1_555 1_555
N2 H2 1_555 1_555
C12 C2 1_555 1_555
C13 C30 1_555 1_555
C14 C20 1_555 1_555
C15 C25 1_555 1_555
C16 C28 1_555 1_555
O2 C52 1_555 1_555
C17 C22 1_555 1_555
N3 H3 1_555 1_555
C18 N3 1_555 1_555
C19 C3 1_555 1_555
C20 C25 1_555 1_555
C21 C19 1_555 1_555
C22 C4 1_555 1_555
C23 H4 1_555 1_555
C24 C12 1_555 1_555
C25 C48 1_555 1_555
O3 C73 1_555 1_555
C26 C9 1_555 1_555
C27 C21 1_555 1_555
C28 C2 1_555 1_555
C29 C8 1_555 1_555
C30 C28 1_555 1_555
C31 C26 1_555 1_555
C32 C7 1_555 1_555
C33 N2 1_555 1_555
C34 C27 1_555 1_555
C35 N1 1_555 1_555
C36 C31 1_555 1_555
C37 C15 1_555 1_555
N4 H5 1_555 1_555
C38 C31 1_555 1_555
C39 H6 1_555 1_555
C40 C47 1_555 1_555
C41 C30 1_555 1_555
C42 C37 1_555 1_555
C43 C17 1_555 1_555
C44 C27 1_555 1_555
C45 C34 1_555 1_555
C46 N1 1_555 1_555
C47 C6 1_555 1_555
C48 C46 1_555 1_555
C49 H7 1_555 1_555
C50 N6 1_555 1_555
C51 C13 1_555 1_555
C52 C53 1_555 1_555
C53 C23 1_555 1_555
H8 C53 1_555 1_555
C54 C14 1_555 1_555
C55 N3 1_555 1_555
C56 C22 1_555 1_555
C57 C20 1_555 1_555
C58 H9 1_555 1_555
C59 C16 1_555 1_555
C60 C32 1_555 1_555
C61 C58 1_555 1_555
C62 C18 1_555 1_555
H10 C62 1_555 1_555
C63 N4 1_555 1_555
N5 C61 1_555 1_555
H11 N5 1_555 1_555
C64 O4 1_555 1_555
C65 C43 1_555 1_555
O4 C99 1_555 1_555
C66 C18 1_555 1_555
H12 C66 1_555 1_555
C67 H13 1_555 1_555
C68 C33 1_555 1_555
H14 C68 1_555 1_555
N6 H15 1_555 1_555
C69 C35 1_555 1_555
H16 C69 1_555 1_555
C70 C33 1_555 1_555
H17 C70 1_555 1_555
C71 C56 1_555 1_555
C72 C52 1_555 1_555
H18 C72 1_555 1_555
C73 C74 1_555 1_555
C74 C70 1_555 1_555
H19 C74 1_555 1_555
C75 C38 1_555 1_555
C76 C51 1_555 1_555
C77 C54 1_555 1_555
C78 H20 1_555 1_555
H21 C78 1_555 1_555
H22 C78 1_555 1_555
C79 C36 1_555 1_555
C80 C68 1_555 1_555
H23 C80 1_555 1_555
C81 O1 1_555 1_555
C82 C44 1_555 1_555
C83 N2 1_555 1_555
C84 O3 1_555 1_555
H24 C84 1_555 1_555
H25 C84 1_555 1_555
H26 C84 1_555 1_555
C85 H27 1_555 1_555
C86 C64 1_555 1_555
H28 C86 1_555 1_555
C87 N4 1_555 1_555
C88 O5 1_555 1_555
C89 O2 1_555 1_555
H29 C89 1_555 1_555
H30 C89 1_555 1_555
H31 C89 1_555 1_555
O5 C102 1_555 1_555
C90 C58 1_555 1_555
H32 C90 1_555 1_555
C91 C64 1_555 1_555
H33 C91 1_555 1_555
C92 C93 1_555 1_555
C93 H34 1_555 1_555
C94 C93 1_555 1_555
H35 C94 1_555 1_555
C95 N6 1_555 1_555
C96 C95 1_555 1_555
H36 C96 1_555 1_555
C97 C92 1_555 1_555
H37 C97 1_555 1_555
C98 C61 1_555 1_555
H38 C98 1_555 1_555
O6 C92 1_555 1_555
C99 H39 1_555 1_555
H40 C99 1_555 1_555
H41 C99 1_555 1_555
C100 O6 1_555 1_555
H42 C100 1_555 1_555
H43 C100 1_555 1_555
H44 C100 1_555 1_555
C101 C88 1_555 1_555
H45 C101 1_555 1_555
C102 H46 1_555 1_555
H47 C102 1_555 1_555
H48 C102 1_555 1_555
Cl17 C134 1_555 1_555
Cl18 C122 1_555 1_555
Cl19 C147 1_555 1_555
Cl20 C124 1_555 1_555
Cl21 C128 1_555 1_555
Cl22 C149 1_555 1_555
Cl23 C173 1_555 1_555
Cl24 C151 1_555 1_555
Cl25 C157 1_555 1_555
Cl26 C170 1_555 1_555
Cl27 C160 1_555 1_555
Cl28 C174 1_555 1_555
Cl29 C139 1_555 1_555
Cl30 C153 1_555 1_555
Cl31 C169 1_555 1_555
Cl32 C172 1_555 1_555
C103 C106 1_555 1_555
O7 C119 1_555 1_555
C104 C113 1_555 1_555
C105 C124 1_555 1_555
N7 H49 1_555 1_555
C106 C109 1_555 1_555
C107 C103 1_555 1_555
C108 C107 1_555 1_555
C109 C113 1_555 1_555
C110 C117 1_555 1_555
C111 C112 1_555 1_555
C112 C118 1_555 1_555
C113 C121 1_555 1_555
C114 C123 1_555 1_555
C115 N7 1_555 1_555
C116 N7 1_555 1_555
C117 C108 1_555 1_555
C118 C141 1_555 1_555
C119 C143 1_555 1_555
N8 H50 1_555 1_555
C120 C103 1_555 1_555
C121 C120 1_555 1_555
C122 C133 1_555 1_555
O8 C181 1_555 1_555
C123 C121 1_555 1_555
C124 C115 1_555 1_555
C125 N8 1_555 1_555
C126 C132 1_555 1_555
C127 C144 1_555 1_555
C128 C125 1_555 1_555
C129 C117 1_555 1_555
C130 C104 1_555 1_555
C131 H51 1_555 1_555
C132 C110 1_555 1_555
C133 C105 1_555 1_555
C134 C107 1_555 1_555
C135 C131 1_555 1_555
H52 C135 1_555 1_555
C136 C148 1_555 1_555
C137 C116 1_555 1_555
H53 C137 1_555 1_555
C138 C116 1_555 1_555
H54 C138 1_555 1_555
C139 C169 1_555 1_555
C140 C109 1_555 1_555
C141 C105 1_555 1_555
C142 N8 1_555 1_555
C143 C138 1_555 1_555
H55 C143 1_555 1_555
C144 C123 1_555 1_555
C145 C149 1_555 1_555
C146 C111 1_555 1_555
C147 C108 1_555 1_555
C148 C130 1_555 1_555
C149 C150 1_555 1_555
C150 C126 1_555 1_555
C151 C115 1_555 1_555
C152 C126 1_555 1_555
C153 C166 1_555 1_555
C154 C111 1_555 1_555
C155 C158 1_555 1_555
C156 C119 1_555 1_555
H56 C156 1_555 1_555
N9 H57 1_555 1_555
C157 C145 1_555 1_555
C158 C104 1_555 1_555
C159 C127 1_555 1_555
C160 C154 1_555 1_555
C161 N9 1_555 1_555
C162 N9 1_555 1_555
C163 H58 1_555 1_555
C164 C127 1_555 1_555
C165 C160 1_555 1_555
C166 C148 1_555 1_555
O9 C180 1_555 1_555
C167 C142 1_555 1_555
H59 C167 1_555 1_555
C168 H60 1_555 1_555
O10 C182 1_555 1_555
C169 C155 1_555 1_555
C170 C161 1_555 1_555
C171 C167 1_555 1_555
H61 C171 1_555 1_555
C172 C136 1_555 1_555
C173 C112 1_555 1_555
C174 C159 1_555 1_555
C175 C162 1_555 1_555
H62 C175 1_555 1_555
N10 C165 1_555 1_555
H63 N10 1_555 1_555
C176 H64 1_555 1_555
C177 C176 1_555 1_555
H65 C177 1_555 1_555
C178 C162 1_555 1_555
H66 C178 1_555 1_555
C179 C153 1_555 1_555
C180 C135 1_555 1_555
C181 H67 1_555 1_555
H68 C181 1_555 1_555
H69 C181 1_555 1_555
C182 C163 1_555 1_555
C183 C114 1_555 1_555
C184 H70 1_555 1_555
C185 O8 1_555 1_555
C186 O7 1_555 1_555
H71 C186 1_555 1_555
H72 C186 1_555 1_555
H73 C186 1_555 1_555
C187 N10 1_555 1_555
C188 C184 1_555 1_555
H74 C188 1_555 1_555
C189 O9 1_555 1_555
H75 C189 1_555 1_555
H76 C189 1_555 1_555
H77 C189 1_555 1_555
C190 O10 1_555 1_555
H78 C190 1_555 1_555
H79 C190 1_555 1_555
H80 C190 1_555 1_555
C191 C192 1_555 1_555
C192 H81 1_555 1_555
C193 C192 1_555 1_555
H82 C193 1_555 1_555
C194 C193 1_555 1_555
C195 C194 1_555 1_555
H83 C195 1_555 1_555
C196 C191 1_555 1_555
H84 C196 1_555 1_555
C197 H85 1_555 1_555
O11 C194 1_555 1_555
C198 O11 1_555 1_555
H86 C198 1_555 1_555
H87 C198 1_555 1_555
H88 C198 1_555 1_555
C199 C197 1_555 1_555
H89 C199 1_555 1_555
C200 C199 1_555 1_555
C201 C200 1_555 1_555
H90 C201 1_555 1_555
N11 C179 1_555 1_555
H91 N11 1_555 1_555
C202 C201 1_555 1_555
H92 C202 1_555 1_555
C203 C197 1_555 1_555
O12 C203 1_555 1_555
C204 O12 1_555 1_555
H93 C204 1_555 1_555
H94 C204 1_555 1_555
H95 C204 1_555 1_555
N12 C145 1_555 1_555
H96 N12 1_555 1_555
S1 C205 1_555 1_555
S2 C205 1_555 1_555
S3 C206 1_555 1_555
C205 C206 1_555 1_555
C206 S4 1_555 1_555
C207 S3 1_555 1_555
H97 C207 1_555 1_555
C208 C207 1_555 1_555
H98 C208 1_555 1_555
C209 S1 1_555 1_555
H99 C209 1_555 1_555
C210 S2 1_555 1_555
H100 C210 1_555 1_555
S4 C208 1_555 1_555
S5 C211 1_555 1_555
S6 C211 1_555 1_555
S7 C212 1_555 1_555
S8 C212 1_555 1_555
C4 C11 1_555 1_555
C6 C19 1_555 1_555
C10 C12 1_555 1_555
C10 C29 1_555 1_555
C15 C29 1_555 1_555
C17 C54 1_555 1_555
C21 C26 1_555 1_555
C23 C35 1_555 1_555
C24 C37 1_555 1_555
C24 C59 1_555 1_555
C32 C56 1_555 1_555
C34 C47 1_555 1_555
C36 C51 1_555 1_555
C38 C44 1_555 1_555
C39 C66 1_555 1_555
C39 C81 1_555 1_555
C40 C60 1_555 1_555
C41 C55 1_555 1_555
C42 C46 1_555 1_555
C45 C63 1_555 1_555
C49 C62 1_555 1_555
C49 C81 1_555 1_555
C50 C75 1_555 1_555
C50 C79 1_555 1_555
C55 C76 1_555 1_555
C57 C83 1_555 1_555
C63 C82 1_555 1_555
N5 C65 1_555 1_555
C65 C71 1_555 1_555
C67 C86 1_555 1_555
C67 C87 1_555 1_555
C69 C72 1_555 1_555
C73 C80 1_555 1_555
C77 C83 1_555 1_555
C85 C87 1_555 1_555
C85 C91 1_555 1_555
C88 C90 1_555 1_555
C94 C95 1_555 1_555
C96 C97 1_555 1_555
C98 C101 1_555 1_555
C106 C133 1_555 1_555
C110 C120 1_555 1_555
C114 C158 1_555 1_555
C118 C151 1_555 1_555
C122 C134 1_555 1_555
C125 C147 1_555 1_555
C128 C129 1_555 1_555
C129 C150 1_555 1_555
C130 C146 1_555 1_555
C131 C142 1_555 1_555
C132 C144 1_555 1_555
C136 C154 1_555 1_555
C137 C156 1_555 1_555
C139 C183 1_555 1_555
C140 C141 1_555 1_555
C140 C146 1_555 1_555
C152 C157 1_555 1_555
C152 C159 1_555 1_555
C155 C166 1_555 1_555
C161 C174 1_555 1_555
C163 C175 1_555 1_555
C164 C170 1_555 1_555
C164 C183 1_555 1_555
C165 C173 1_555 1_555
C168 C178 1_555 1_555
C168 C182 1_555 1_555
C171 C180 1_555 1_555
C172 C179 1_555 1_555
C176 C185 1_555 1_555
C177 C187 1_555 1_555
C184 C185 1_555 1_555
C187 C188 1_555 1_555
C191 N12 1_555 1_555
C195 C196 1_555 1_555
C200 N11 1_555 1_555
C202 C203 1_555 1_555
C209 C210 1_555 1_555

#END
