
#######################################################################
#
#                 Cambridge Crystallographic Data Centre
#                                CCDC 
#
#######################################################################
#
# If this CIF has been generated from an entry in the Cambridge 
# Structural Database, then it will include bibliographic, chemical, 
# crystal, experimental, refinement or atomic coordinate data resulting 
# from the CCDC's data processing and validation procedures.
#
#######################################################################

data_VEXVEC
_chemical_formula_moiety         'C78 H36 Cl12 N6,2(C1 S2)'
_chemical_name_systematic        
'1,3,4,6,7,9,10,12,13,15,16,18-dodecachloro-N^2^,N^5^,N^8^,N^11^,N^14^,N^17^-hexaphenylhexabenzo[bc,ef,hi,kl,no,qr]coronene-2,5,8,11,14,17-hexamine carbon disulfide'
_symmetry_cell_setting           monoclinic
_symmetry_space_group_name_H-M   'P 21/n'
_symmetry_Int_Tables_number      14
_space_group_name_Hall           '-P 2yn'
loop_
_symmetry_equiv_pos_site_id
_symmetry_equiv_pos_as_xyz
1 x,y,z
2 1/2-x,1/2+y,1/2-z
3 -x,-y,-z
4 1/2+x,1/2-y,1/2+z
_cell_length_a                   15.8146(5)
_cell_length_b                   8.1128(3)
_cell_length_c                   26.0032(9)
_cell_angle_alpha                90
_cell_angle_beta                 93.023(3)
_cell_angle_gamma                90
_cell_volume                     3331.59
_exptl_crystal_colour            'light red'
_exptl_crystal_description       prism
_cell_formula_units_Z            2
loop_
_atom_site_label
_atom_site_type_symbol
_atom_site_fract_x
_atom_site_fract_y
_atom_site_fract_z
Cl1 Cl 0.62524(6) 1.14594(12) 0.39379(4)
Cl2 Cl 0.69569(6) -0.16540(12) 0.55590(4)
Cl3 Cl 0.61566(6) 0.88177(12) 0.30840(3)
Cl4 Cl 0.78588(6) 0.10714(13) 0.62019(4)
Cl5 Cl 0.82128(6) 0.39941(13) 0.37517(4)
Cl6 Cl 0.89388(6) 0.53122(13) 0.48211(4)
N1 N 0.5455(2) -0.2933(4) 0.60209(13)
H1 H 0.5202 -0.3676 0.5820
N2 N 0.7581(2) 0.6565(4) 0.30327(13)
H2 H 0.7481 0.5708 0.2831
N3 N 0.9102(2) 0.3134(5) 0.57164(13)
H3 H 0.9528 0.2538 0.5616
C1 C 0.6110(2) -0.0425(5) 0.57076(14)
C2 C 0.7634(2) 0.2129(5) 0.56332(15)
C3 C 0.5400(2) 0.8667(5) 0.41699(14)
C4 C 0.6802(2) 0.2225(5) 0.54160(14)
C5 C 0.5659(2) 0.5688(5) 0.47232(13)
C6 C 0.4856(2) 0.6439(5) 0.47019(14)
C7 C 0.5927(2) -0.3424(5) 0.64834(15)
C8 C 0.4710(2) 0.7941(5) 0.44215(13)
C9 C 0.5797(2) 0.4221(5) 0.50121(13)
C10 C 0.6548(2) 0.7663(5) 0.36010(14)
C11 C 0.8093(2) 0.7827(5) 0.28556(15)
C12 C 0.5343(2) 1.0349(5) 0.40571(14)
C13 C 0.6635(2) 0.3512(5) 0.50628(14)
C14 C 0.6086(2) 0.1257(5) 0.55801(14)
C15 C 0.8123(2) 0.4078(5) 0.50158(15)
C16 C 0.6114(2) 0.7600(5) 0.40581(14)
C17 C 0.7472(2) 0.5465(5) 0.39025(15)
C18 C 0.7218(2) 0.6587(5) 0.35148(15)
C19 C 0.7298(2) 0.4277(5) 0.47946(14)
C20 C 0.6295(2) 0.6264(5) 0.43960(14)
C21 C 0.8290(2) 0.3085(5) 0.54477(15)
C22 C 0.5403(3) -0.1251(5) 0.58943(15)
C23 C 0.7054(2) 0.5344(5) 0.43628(15)
C24 C 0.6164(3) -0.5060(6) 0.65387(16)
H4 H 0.6035 -0.5821 0.6268
C25 C 0.6109(3) -0.2312(6) 0.68825(16)
H5 H 0.5944 -0.1190 0.6847
C26 C 0.8380(3) 0.7725(5) 0.23583(16)
H6 H 0.8163 0.6899 0.2128
C27 C 0.9190(2) 0.4179(5) 0.61488(16)
C28 C 0.8943(3) 1.0278(6) 0.29950(18)
H7 H 0.9112 1.1189 0.3206
C29 C 0.8363(3) 0.9151(6) 0.31681(16)
H8 H 0.8147 0.9279 0.3500
C30 C 0.8639(3) 0.5476(6) 0.62257(18)
H9 H 0.8187 0.5689 0.5979
C31 C 0.6585(3) -0.5585(6) 0.69854(17)
H10 H 0.6750 -0.6707 0.7021
C32 C 0.8984(3) 0.8836(6) 0.22004(18)
H11 H 0.9195 0.8727 0.1867
C33 C 0.6771(3) -0.4491(6) 0.73822(18)
H12 H 0.7062 -0.4860 0.7690
C34 C 0.9279(3) 1.0086(6) 0.25160(18)
H13 H 0.9708 1.0810 0.2409
C35 C 0.9850(3) 0.3903(6) 0.65123(18)
H14 H 1.0239 0.3032 0.6463
C36 C 0.8743(3) 0.6461(6) 0.6659(2)
H15 H 0.8361 0.7344 0.6708
C37 C 0.6532(3) -0.2853(6) 0.73313(18)
H16 H 0.6658 -0.2100 0.7605
C38 C 0.9400(3) 0.6167(7) 0.7021(2)
H17 H 0.9474 0.6842 0.7319
C39 C 0.9944(3) 0.4874(7) 0.69412(19)
H18 H 1.0393 0.4653 0.7189
Cl1B Cl 0.37476(6) -0.14594(12) 0.60621(4)
Cl2B Cl 0.30431(6) 1.16540(12) 0.44410(4)
Cl3B Cl 0.38434(6) 0.11823(12) 0.69160(3)
Cl4B Cl 0.21412(6) 0.89286(13) 0.37981(4)
Cl5B Cl 0.17872(6) 0.60059(13) 0.62483(4)
Cl6B Cl 0.10612(6) 0.46878(13) 0.51789(4)
N1B N 0.4545(2) 1.2933(4) 0.39791(13)
H1B H 0.4798 1.3676 0.4180
N2B N 0.2419(2) 0.3435(4) 0.69673(13)
H2B H 0.2519 0.4292 0.7169
N3B N 0.0898(2) 0.6866(5) 0.42836(13)
H3B H 0.0472 0.7462 0.4384
C1B C 0.3890(2) 1.0425(5) 0.42924(14)
C2B C 0.2366(2) 0.7871(5) 0.43668(15)
C3B C 0.4600(2) 0.1333(5) 0.58301(14)
C4B C 0.3198(2) 0.7775(5) 0.45840(14)
C5B C 0.4341(2) 0.4312(5) 0.52768(13)
C6B C 0.5144(2) 0.3561(5) 0.52981(14)
C7B C 0.4073(2) 1.3424(5) 0.35166(15)
C8B C 0.5290(2) 0.2059(5) 0.55785(13)
C9B C 0.4203(2) 0.5779(5) 0.49879(13)
C10B C 0.3452(2) 0.2337(5) 0.63990(14)
C11B C 0.1907(2) 0.2173(5) 0.71444(15)
C12B C 0.4657(2) -0.0349(5) 0.59429(14)
C13B C 0.3365(2) 0.6488(5) 0.49372(14)
C14B C 0.3914(2) 0.8743(5) 0.44199(14)
C15B C 0.1877(2) 0.5922(5) 0.49842(15)
C16B C 0.3886(2) 0.2400(5) 0.59419(14)
C17B C 0.2528(2) 0.4535(5) 0.60975(15)
C18B C 0.2782(2) 0.3413(5) 0.64852(15)
C19B C 0.2702(2) 0.5723(5) 0.52054(14)
C20B C 0.3705(2) 0.3736(5) 0.56040(14)
C21B C 0.1710(2) 0.6915(5) 0.45523(15)
C22B C 0.4597(3) 1.1251(5) 0.41057(15)
C23B C 0.2946(2) 0.4656(5) 0.56372(15)
C24B C 0.3836(3) 1.5060(6) 0.34613(16)
H4B H 0.3965 1.5821 0.3732
C25B C 0.3891(3) 1.2312(6) 0.31175(16)
H5B H 0.4056 1.1190 0.3153
C26B C 0.1620(3) 0.2275(5) 0.76417(16)
H6B H 0.1837 0.3101 0.7872
C27B C 0.0810(2) 0.5821(5) 0.38512(16)
C28B C 0.1057(3) -0.0278(6) 0.70050(18)
H7B H 0.0888 -0.1189 0.6794
C29B C 0.1637(3) 0.0849(6) 0.68319(16)
H8B H 0.1853 0.0721 0.6500
C30B C 0.1361(3) 0.4524(6) 0.37743(18)
H9B H 0.1813 0.4311 0.4021
C31B C 0.3415(3) 1.5585(6) 0.30146(17)
H10B H 0.3250 1.6707 0.2979
C32B C 0.1016(3) 0.1164(6) 0.77996(18)
H11B H 0.0805 0.1273 0.8133
C33B C 0.3229(3) 1.4491(6) 0.26178(18)
H12B H 0.2938 1.4860 0.2310
C34B C 0.0721(3) -0.0086(6) 0.74840(18)
H13B H 0.0292 -0.0810 0.7591
C35B C 0.0150(3) 0.6097(6) 0.34877(18)
H14B H -0.0239 0.6968 0.3537
C36B C 0.1257(3) 0.3539(6) 0.3341(2)
H15B H 0.1639 0.2656 0.3292
C37B C 0.3468(3) 1.2853(6) 0.26687(18)
H16B H 0.3342 1.2100 0.2395
C38B C 0.0600(3) 0.3833(7) 0.2979(2)
H17B H 0.0526 0.3158 0.2681
C39B C 0.0056(3) 0.5126(7) 0.30588(19)
H18B H -0.0393 0.5347 0.2811
S1 S 0.83202(9) -0.03732(19) 0.46019(5)
S2 S 0.99859(9) 0.1324(2) 0.43177(6)
C40 C 0.9157(3) 0.0462(7) 0.4462(2)
loop_
_geom_bond_atom_site_label_1
_geom_bond_atom_site_label_2
_geom_bond_site_symmetry_1
_geom_bond_site_symmetry_2
Cl1 C12 1_555 1_555
Cl2 C1 1_555 1_555
Cl3 C10 1_555 1_555
Cl4 C2 1_555 1_555
Cl5 C17 1_555 1_555
Cl6 C15 1_555 1_555
N1 H1 1_555 1_555
N2 H2 1_555 1_555
N3 H3 1_555 1_555
C1 C14 1_555 1_555
C2 C4 1_555 1_555
C3 C8 1_555 1_555
C4 C13 1_555 1_555
C5 C6 1_555 1_555
C6 C8 1_555 1_555
C7 N1 1_555 1_555
C8 C14B 1_555 1_555
C9 C5 1_555 1_555
C10 C16 1_555 1_555
C11 N2 1_555 1_555
C12 C3 1_555 1_555
C13 C9 1_555 1_555
C14 C4 1_555 1_555
C15 C19 1_555 1_555
C16 C3 1_555 1_555
C17 C18 1_555 1_555
C18 N2 1_555 1_555
C19 C13 1_555 1_555
C20 C5 1_555 1_555
C21 N3 1_555 1_555
C22 N1 1_555 1_555
C23 C17 1_555 1_555
C24 C7 1_555 1_555
H4 C24 1_555 1_555
C25 C7 1_555 1_555
H5 C25 1_555 1_555
C26 C11 1_555 1_555
H6 C26 1_555 1_555
C27 N3 1_555 1_555
C28 H7 1_555 1_555
C29 C11 1_555 1_555
H8 C29 1_555 1_555
C30 C27 1_555 1_555
H9 C30 1_555 1_555
C31 C24 1_555 1_555
H10 C31 1_555 1_555
C32 C26 1_555 1_555
H11 C32 1_555 1_555
C33 C31 1_555 1_555
H12 C33 1_555 1_555
C34 C28 1_555 1_555
H13 C34 1_555 1_555
C35 C27 1_555 1_555
H14 C35 1_555 1_555
C36 C30 1_555 1_555
H15 C36 1_555 1_555
C37 C25 1_555 1_555
H16 C37 1_555 1_555
C38 C36 1_555 1_555
H17 C38 1_555 1_555
C39 C35 1_555 1_555
H18 C39 1_555 1_555
S1 C40 1_555 1_555
S2 C40 1_555 1_555
Cl1B C12B 1_555 1_555
Cl2B C1B 1_555 1_555
Cl3B C10B 1_555 1_555
Cl4B C2B 1_555 1_555
Cl5B C17B 1_555 1_555
Cl6B C15B 1_555 1_555
N1B H1B 1_555 1_555
N2B H2B 1_555 1_555
N3B H3B 1_555 1_555
C1B C14B 1_555 1_555
C2B C4B 1_555 1_555
C3B C8B 1_555 1_555
C4B C13B 1_555 1_555
C5B C6B 1_555 1_555
C6B C9 1_555 1_555
C7B N1B 1_555 1_555
C8B C14 1_555 1_555
C9B C6 1_555 1_555
C10B C16B 1_555 1_555
C11B N2B 1_555 1_555
C12B C22 1_555 1_555
C13B C9B 1_555 1_555
C14B C4B 1_555 1_555
C15B C19B 1_555 1_555
C16B C3B 1_555 1_555
C17B C18B 1_555 1_555
C18B N2B 1_555 1_555
C19B C13B 1_555 1_555
C20B C5B 1_555 1_555
C21B N3B 1_555 1_555
C22B C12 1_555 1_555
C23B C17B 1_555 1_555
C24B C7B 1_555 1_555
H4B C24B 1_555 1_555
C25B C7B 1_555 1_555
H5B C25B 1_555 1_555
C26B C11B 1_555 1_555
H6B C26B 1_555 1_555
C27B N3B 1_555 1_555
C28B H7B 1_555 1_555
C29B C11B 1_555 1_555
H8B C29B 1_555 1_555
C30B C27B 1_555 1_555
H9B C30B 1_555 1_555
C31B C24B 1_555 1_555
H10B C31B 1_555 1_555
C32B C26B 1_555 1_555
H11B C32B 1_555 1_555
C33B C31B 1_555 1_555
H12B C33B 1_555 1_555
C34B C28B 1_555 1_555
H13B C34B 1_555 1_555
C35B C27B 1_555 1_555
H14B C35B 1_555 1_555
C36B C30B 1_555 1_555
H15B C36B 1_555 1_555
C37B C25B 1_555 1_555
H16B C37B 1_555 1_555
C38B C36B 1_555 1_555
H17B C38B 1_555 1_555
C39B C35B 1_555 1_555
H18B C39B 1_555 1_555
C1 C22 1_555 1_555
C2 C21 1_555 1_555
C10 C18 1_555 1_555
C15 C21 1_555 1_555
C16 C20 1_555 1_555
C19 C23 1_555 1_555
C20 C23 1_555 1_555
C28 C29 1_555 1_555
C32 C34 1_555 1_555
C33 C37 1_555 1_555
C38 C39 1_555 1_555
N1B C22B 1_555 1_555
C1B C22B 1_555 1_555
C2B C21B 1_555 1_555
C3B C12B 1_555 1_555
C5B C9B 1_555 1_555
C6B C8B 1_555 1_555
C10B C18B 1_555 1_555
C15B C21B 1_555 1_555
C16B C20B 1_555 1_555
C19B C23B 1_555 1_555
C20B C23B 1_555 1_555
C28B C29B 1_555 1_555
C32B C34B 1_555 1_555
C33B C37B 1_555 1_555
C38B C39B 1_555 1_555

#END
