
#######################################################################
#
#                 Cambridge Crystallographic Data Centre
#                                CCDC 
#
#######################################################################
#
# If this CIF has been generated from an entry in the Cambridge 
# Structural Database, then it will include bibliographic, chemical, 
# crystal, experimental, refinement or atomic coordinate data resulting 
# from the CCDC's data processing and validation procedures.
#
#######################################################################

data_VEXZUW
_chemical_formula_moiety         'C8 H2 I3 N1 O4 2-,C4 H9 N5 2+,2(H2 O1)'
_chemical_name_systematic        
'2,4,6-triaminopyrimidindiium 5-amino-2,4,6-tri-iodoisophthalate dihydrate'
_symmetry_cell_setting           monoclinic
_symmetry_space_group_name_H-M   'P 21/n'
_symmetry_Int_Tables_number      14
_space_group_name_Hall           '-P 2yn'
loop_
_symmetry_equiv_pos_site_id
_symmetry_equiv_pos_as_xyz
1 x,y,z
2 1/2-x,1/2+y,1/2-z
3 -x,-y,-z
4 1/2+x,1/2-y,1/2+z
_cell_length_a                   8.3274(4)
_cell_length_b                   18.9854(7)
_cell_length_c                   12.9647(5)
_cell_angle_alpha                90
_cell_angle_beta                 98.547(4)
_cell_angle_gamma                90
_cell_volume                     2026.94
_cell_formula_units_Z            4
loop_
_atom_site_label
_atom_site_type_symbol
_atom_site_fract_x
_atom_site_fract_y
_atom_site_fract_z
I1 I 0.11961(4) 0.42156(2) 0.14734(3)
I2 I 0.23482(5) 0.71720(2) 0.31024(3)
I3 I 0.40318(5) 0.63970(2) -0.11288(3)
O1 O 0.1985(4) 0.52927(18) 0.3734(2)
O2 O 0.2930(4) 0.78322(17) 0.0626(3)
O3 O -0.0424(4) 0.56565(18) 0.2920(3)
O4 O 0.5360(4) 0.73687(18) 0.1160(3)
C1 C 0.3841(6) 0.7329(3) 0.0923(4)
C2 C 0.1838(5) 0.5753(2) 0.2016(3)
C3 C 0.1072(6) 0.5556(2) 0.2974(4)
N1 N 0.2779(5) 0.4912(2) -0.0384(3)
H1 H 0.2449 0.4489 -0.0303
H2 H 0.3192 0.5022 -0.0932
C4 C 0.3116(5) 0.6609(2) 0.1023(4)
C5 C 0.2647(6) 0.5407(3) 0.0355(4)
C6 C 0.2424(5) 0.6426(2) 0.1907(3)
C7 C 0.1981(5) 0.5253(2) 0.1262(4)
C8 C 0.3164(6) 0.6106(3) 0.0257(3)
N2 N 0.7833(4) 0.3489(2) 0.4096(3)
H3 H 0.8369 0.3100 0.4166
C9 C 0.5323(6) 0.4096(3) 0.3937(4)
H4 H 0.4208 0.4100 0.3944
N3 N 0.7798(4) 0.4697(2) 0.3832(3)
H5 H 0.8309 0.5078 0.3730
N4 N 0.5425(5) 0.5331(2) 0.3624(3)
H6 H 0.5996 0.5698 0.3537
H7 H 0.4390 0.5368 0.3596
N5 N 1.0224(4) 0.4096(2) 0.4145(3)
H8 H 1.0755 0.3709 0.4273
H9 H 1.0737 0.4485 0.4097
N6 N 0.5509(5) 0.2851(2) 0.4150(3)
H10 H 0.4476 0.2815 0.4130
H11 H 0.6109 0.2480 0.4228
C10 C 0.8636(6) 0.4092(2) 0.4022(3)
C11 C 0.6133(6) 0.4716(3) 0.3798(3)
C12 C 0.6172(5) 0.3471(3) 0.4063(3)
O5 O -0.1948(4) 0.6512(2) 0.1205(3)
H12 H -0.1566 0.6305 0.1769
H13 H -0.2920 0.6641 0.1233
O6 O 0.6957(8) 0.6654(3) 0.3508(4)
H14 H 0.7325 0.6887 0.4052
H15 H 0.6831 0.6927 0.2983
loop_
_geom_bond_atom_site_label_1
_geom_bond_atom_site_label_2
_geom_bond_site_symmetry_1
_geom_bond_site_symmetry_2
I1 C7 1_555 1_555
I2 C6 1_555 1_555
I3 C8 1_555 1_555
O1 C3 1_555 1_555
O2 C1 1_555 1_555
O3 C3 1_555 1_555
O4 C1 1_555 1_555
C1 C4 1_555 1_555
C2 C3 1_555 1_555
N1 H1 1_555 1_555
H2 N1 1_555 1_555
C4 C6 1_555 1_555
C5 N1 1_555 1_555
C6 C2 1_555 1_555
C7 C2 1_555 1_555
C8 C4 1_555 1_555
N2 H3 1_555 1_555
C9 H4 1_555 1_555
N3 H5 1_555 1_555
N4 H6 1_555 1_555
H7 N4 1_555 1_555
N5 H8 1_555 1_555
H9 N5 1_555 1_555
N6 H10 1_555 1_555
H11 N6 1_555 1_555
C10 N2 1_555 1_555
C11 C9 1_555 1_555
C12 N2 1_555 1_555
O5 H12 1_555 1_555
H13 O5 1_555 1_555
O6 H14 1_555 1_555
H15 O6 1_555 1_555
C5 C7 1_555 1_555
C5 C8 1_555 1_555
C9 C12 1_555 1_555
N3 C10 1_555 1_555
N3 C11 1_555 1_555
N4 C11 1_555 1_555
N5 C10 1_555 1_555
N6 C12 1_555 1_555

#END
