
#######################################################################
#
#                 Cambridge Crystallographic Data Centre
#                                CCDC 
#
#######################################################################
#
# If this CIF has been generated from an entry in the Cambridge 
# Structural Database, then it will include bibliographic, chemical, 
# crystal, experimental, refinement or atomic coordinate data resulting 
# from the CCDC's data processing and validation procedures.
#
#######################################################################

data_VEYBAF
_chemical_formula_moiety         'C4 H8 N5 1+,C7 H5 O4 1-,2(H2 O1)'
_chemical_name_systematic        
'2,4,6-triaminopyrimidinium  3,5-dihydroxybenzoate dihydrate'
_symmetry_cell_setting           monoclinic
_symmetry_space_group_name_H-M   'P 21/c'
_symmetry_Int_Tables_number      14
_space_group_name_Hall           '-P 2ybc'
loop_
_symmetry_equiv_pos_site_id
_symmetry_equiv_pos_as_xyz
1 x,y,z
2 -x,1/2+y,1/2-z
3 -x,-y,-z
4 x,1/2-y,1/2+z
_cell_length_a                   7.2346(7)
_cell_length_b                   24.613(3)
_cell_length_c                   8.3456(8)
_cell_angle_alpha                90
_cell_angle_beta                 106.520(10)
_cell_angle_gamma                90
_cell_volume                     1424.72
_cell_formula_units_Z            4
loop_
_atom_site_label
_atom_site_type_symbol
_atom_site_fract_x
_atom_site_fract_y
_atom_site_fract_z
N1 N -0.8547(6) 0.03199(15) -0.3032(5)
H1 H -0.9126 0.0026 -0.3453
H2 H -0.8039 0.0346 -0.1969
N2 N -0.9829(6) 0.10750(16) -0.8252(4)
H3 H -1.0834 0.0867 -0.8460
H4 H -1.0172 0.1389 -0.8708
N3 N -0.6406(5) 0.20665(14) -0.3311(4)
H5 H -0.7019 0.2364 -0.3653
H6 H -0.6327 0.2021 -0.2269
N4 N -0.7524(5) 0.11895(14) -0.3274(4)
H7 H -0.7039 0.1195 -0.2206
N5 N -0.9225(5) 0.06948(14) -0.5661(4)
C1 C -0.8439(6) 0.07341(16) -0.4020(5)
C2 C -0.9072(5) 0.11369(16) -0.6588(5)
C3 C -0.7358(5) 0.16397(15) -0.4186(5)
C4 C -0.8171(6) 0.16219(16) -0.5889(5)
H8 H -0.8126 0.1921 -0.6557
O1 O -0.5588(6) 0.40080(16) -0.5012(4)
O2 O -0.5810(5) 0.31151(13) -0.4730(4)
O3 O -0.3758(6) 0.46346(13) 0.0996(5)
H9 H -0.3740 0.4574 0.1967
O4 O -0.1460(4) 0.27961(11) 0.1124(4)
H10 H -0.0979 0.2873 0.2111
C5 C -0.3311(6) 0.31877(16) -0.1426(5)
H11 H -0.3243 0.2862 -0.1972
C6 C -0.5278(6) 0.35767(19) -0.4139(5)
C7 C -0.2449(5) 0.32384(16) 0.0294(5)
C8 C -0.2603(6) 0.37206(16) 0.1131(5)
H12 H -0.2070 0.3748 0.2282
C9 C -0.4269(5) 0.36327(17) -0.2304(5)
C10 C -0.3554(6) 0.41526(17) 0.0223(5)
C11 C -0.4380(6) 0.41222(17) -0.1501(5)
H13 H -0.4992 0.4422 -0.2101
O5 O -0.9849(4) 0.20212(12) -1.0579(4)
H14 H -0.8647 0.2046 -1.0468
H15 H -1.0193 0.2279 -1.0046
O6 O -0.2856(7) 0.02533(18) -0.0444(7)
H16 H -0.1809 0.0141 -0.0599
H17 H -0.3772 0.0043 -0.0938
loop_
_geom_bond_atom_site_label_1
_geom_bond_atom_site_label_2
_geom_bond_site_symmetry_1
_geom_bond_site_symmetry_2
N1 H1 1_555 1_555
H2 N1 1_555 1_555
N2 H3 1_555 1_555
H4 N2 1_555 1_555
N3 H5 1_555 1_555
H6 N3 1_555 1_555
N4 H7 1_555 1_555
N5 C1 1_555 1_555
C1 N1 1_555 1_555
C2 N2 1_555 1_555
C3 N3 1_555 1_555
C4 C2 1_555 1_555
H8 C4 1_555 1_555
O1 C6 1_555 1_555
O2 C6 1_555 1_555
O3 H9 1_555 1_555
O4 H10 1_555 1_555
C5 H11 1_555 1_555
C6 C9 1_555 1_555
C7 O4 1_555 1_555
C8 C7 1_555 1_555
H12 C8 1_555 1_555
C9 C5 1_555 1_555
C10 O3 1_555 1_555
C11 C9 1_555 1_555
H13 C11 1_555 1_555
O5 H14 1_555 1_555
H15 O5 1_555 1_555
O6 H16 1_555 1_555
H17 O6 1_555 1_555
N4 C1 1_555 1_555
N4 C3 1_555 1_555
N5 C2 1_555 1_555
C3 C4 1_555 1_555
C5 C7 1_555 1_555
C8 C10 1_555 1_555
C10 C11 1_555 1_555

#END
