
#######################################################################
#
#                 Cambridge Crystallographic Data Centre
#                                CCDC 
#
#######################################################################
#
# If this CIF has been generated from an entry in the Cambridge 
# Structural Database, then it will include bibliographic, chemical, 
# crystal, experimental, refinement or atomic coordinate data resulting 
# from the CCDC's data processing and validation procedures.
#
#######################################################################

data_VEYBEJ
_chemical_name_common            
'2,4,6-triaminopyrimidinediium bis(hydrogen sebacate)'
_chemical_formula_moiety         '2(C10 H17 O4 1-),C4 H9 N5 2+'
_chemical_name_systematic        
'2,4,6-triaminopyrimidinediium bis(9-carboxynonanoate)'
_symmetry_cell_setting           monoclinic
_symmetry_space_group_name_H-M   'C 2/c'
_symmetry_Int_Tables_number      15
_space_group_name_Hall           '-C 2yn'
loop_
_symmetry_equiv_pos_site_id
_symmetry_equiv_pos_as_xyz
1 x,y,z
2 -x,y,1/2-z
3 1/2+x,1/2+y,z
4 1/2-x,1/2+y,1/2-z
5 -x,-y,-z
6 x,-y,1/2+z
7 1/2-x,1/2-y,-z
8 1/2+x,1/2-y,1/2+z
_cell_length_a                   35.3683(15)
_cell_length_b                   8.1592(3)
_cell_length_c                   9.6711(4)
_cell_angle_alpha                90
_cell_angle_beta                 92.706(4)
_cell_angle_gamma                90
_cell_volume                     2787.75
_cell_formula_units_Z            4
loop_
_atom_site_label
_atom_site_type_symbol
_atom_site_fract_x
_atom_site_fract_y
_atom_site_fract_z
O1 O 0.89127(4) 0.22753(14) 0.76453(14)
O2 O 0.54646(3) 0.07192(12) 0.44106(12)
O3 O 0.56423(3) -0.16578(12) 0.53277(12)
O4 O 0.90075(4) -0.02258(16) 0.84009(15)
C1 C 0.70976(4) 0.0285(2) 0.57404(18)
H1 H 0.7121 0.0710 0.4812
H2 H 0.7098 -0.0901 0.5683
C2 C 0.74394(5) 0.0832(3) 0.66337(18)
H3 H 0.7442 0.2020 0.6671
H4 H 0.7412 0.0432 0.7568
C3 C 0.78164(5) 0.0252(2) 0.61387(17)
H5 H 0.7848 0.0671 0.5213
H6 H 0.7815 -0.0935 0.6087
C4 C 0.81501(4) 0.0793(2) 0.70716(17)
H7 H 0.8151 0.1981 0.7119
H8 H 0.8115 0.0382 0.7998
C5 C 0.67224(4) 0.0838(2) 0.62696(18)
H9 H 0.6718 0.2026 0.6299
H10 H 0.6702 0.0441 0.7209
C6 C 0.63811(4) 0.0242(2) 0.53934(16)
H11 H 0.6395 -0.0940 0.5306
H12 H 0.6391 0.0707 0.4473
C7 C 0.85323(4) 0.0222(2) 0.66100(16)
H13 H 0.8530 -0.0960 0.6508
H14 H 0.8580 0.0700 0.5716
C8 C 0.60044(4) 0.06957(17) 0.59922(17)
H15 H 0.6005 0.0352 0.6952
H16 H 0.5973 0.1876 0.5963
C9 C 0.88421(4) 0.07118(18) 0.76418(15)
C10 C 0.56777(4) -0.01109(17) 0.51879(15)
H17 H 0.9088(7) 0.256(3) 0.841(3)
N1 N 0.47810(3) 0.33607(13) 0.65639(11)
H18 H 0.4642 0.2827 0.5965
N2 N 0.45506(3) 0.57530(14) 0.55887(12)
H19 H 0.4417 0.5164 0.5013
H20 H 0.4539 0.6804 0.5543
N3 N 0.5000 0.09268(19) 0.7500
H21 H 0.5140 0.0400 0.8099
C11 C 0.5000 0.5899(2) 0.7500
H22 H 0.5000 0.7039 0.7500
C12 C 0.47743(3) 0.50424(16) 0.65429(13)
C13 C 0.5000 0.2522(2) 0.7500
H21A H 0.4860 0.0400 0.6901
N1A N 0.52190(3) 0.33607(13) 0.84361(11)
H18A H 0.5358 0.2827 0.9035
N2A N 0.54494(3) 0.57530(14) 0.94113(12)
H19A H 0.5583 0.5164 0.9987
H20A H 0.5461 0.6804 0.9457
C12A C 0.52257(3) 0.50424(16) 0.84571(13)
H23? H 0.5140 0.0400 0.8099
loop_
_geom_bond_atom_site_label_1
_geom_bond_atom_site_label_2
_geom_bond_site_symmetry_1
_geom_bond_site_symmetry_2
O1 C9 1_555 1_555
O2 C10 1_555 1_555
O3 C10 1_555 1_555
O4 C9 1_555 1_555
C1 H1 1_555 1_555
H2 C1 1_555 1_555
C2 C1 1_555 1_555
H3 C2 1_555 1_555
H4 C2 1_555 1_555
C3 C2 1_555 1_555
H5 C3 1_555 1_555
H6 C3 1_555 1_555
C4 C3 1_555 1_555
H7 C4 1_555 1_555
H8 C4 1_555 1_555
C5 C1 1_555 1_555
H9 C5 1_555 1_555
H10 C5 1_555 1_555
C6 C5 1_555 1_555
H11 C6 1_555 1_555
H12 C6 1_555 1_555
C7 C4 1_555 1_555
H13 C7 1_555 1_555
H14 C7 1_555 1_555
C8 C6 1_555 1_555
H15 C8 1_555 1_555
H16 C8 1_555 1_555
C9 C7 1_555 1_555
C10 C8 1_555 1_555
H17 O1 1_555 1_555
N1 H18 1_555 1_555
N2 H19 1_555 1_555
H20 N2 1_555 1_555
N3 H21 1_555 1_555
C11 H22 1_555 1_555
C12 N1 1_555 1_555
C13 N1 1_555 1_555
H21A N3 1_555 1_555
N1A C13 1_555 1_555
H18A N1A 1_555 1_555
N2A H19A 1_555 1_555
H20A N2A 1_555 1_555
C12A C11 1_555 1_555
N2 C12 1_555 1_555
N3 C13 1_555 1_555
C11 C12 1_555 1_555
N1A C12A 1_555 1_555
N2A C12A 1_555 1_555

#END
