
#######################################################################
#
#                 Cambridge Crystallographic Data Centre
#                                CCDC 
#
#######################################################################
#
# If this CIF has been generated from an entry in the Cambridge 
# Structural Database, then it will include bibliographic, chemical, 
# crystal, experimental, refinement or atomic coordinate data resulting 
# from the CCDC's data processing and validation procedures.
#
#######################################################################

data_VEYROJ
_chemical_formula_moiety         'C26 H21 N1 O4 S1'
_chemical_name_systematic        
'methyl (4-hydroxy-3,4-diphenyl-3a,4-dihydro-3H-pyrrolo[2,1-c][1,4]benzothiazin-2-yl)(oxo)acetate'
_symmetry_cell_setting           monoclinic
_symmetry_space_group_name_H-M   'P 21'
_symmetry_Int_Tables_number      4
_space_group_name_Hall           'P 2yb'
loop_
_symmetry_equiv_pos_site_id
_symmetry_equiv_pos_as_xyz
1 x,y,z
2 -x,1/2+y,-z
_cell_length_a                   6.34670(18)
_cell_length_b                   16.1435(4)
_cell_length_c                   10.7987(3)
_cell_angle_alpha                90
_cell_angle_beta                 96.301(3)
_cell_angle_gamma                90
_cell_volume                     1099.73
_exptl_crystal_colour            yellow
_exptl_crystal_description       block
_cell_formula_units_Z            2
loop_
_atom_site_label
_atom_site_type_symbol
_atom_site_fract_x
_atom_site_fract_y
_atom_site_fract_z
S1 S 1.03794(15) 0.61525(6) 0.10072(9)
O1 O 0.6165(4) 0.6148(2) 0.0450(2)
H1 H 0.6425 0.6544 0.0016
O2 O 0.1696(5) 0.4220(2) 0.3225(3)
N1 N 0.7540(6) 0.4585(2) 0.1188(3)
O3 O 0.0478(6) 0.2781(3) 0.2493(4)
O4 O 0.3324(7) 0.2561(2) 0.1492(4)
C1 C 0.5462(6) 0.5102(3) 0.2733(4)
H2 H 0.4397 0.5519 0.2443
C2 C 0.4757(6) 0.4257(3) 0.2219(4)
C3 C 0.2865(6) 0.3875(3) 0.2557(4)
C4 C 0.5995(7) 0.4031(3) 0.1342(4)
H3 H 0.5806 0.3542 0.0888
C5 C 0.5865(7) 0.5132(3) 0.4148(4)
C6 C 0.9064(6) 0.4531(3) 0.0348(3)
C7 C 1.0429(6) 0.5196(3) 0.0191(3)
C8 C 1.2154(8) 0.4416(4) -0.1298(5)
H4 H 1.3196 0.4373 -0.1836
C9 C 0.7485(8) 0.6793(3) 0.2427(4)
C10 C 1.1951(7) 0.5132(3) -0.0632(4)
H5 H 1.2844 0.5578 -0.0735
C11 C 0.7510(6) 0.5257(2) 0.2111(3)
H6 H 0.8727 0.5184 0.2743
C12 C 0.7701(5) 0.6103(3) 0.1496(3)
C13 C 1.0804(8) 0.3762(3) -0.1163(4)
H7 H 1.0916 0.3282 -0.1627
C14 C 0.2304(7) 0.2986(3) 0.2106(4)
C15 C 0.5631(9) 0.7263(3) 0.2337(5)
H8 H 0.4559 0.7159 0.1697
C16 C 0.7432(8) 0.4640(4) 0.4764(4)
H9 H 0.8220 0.4286 0.4315
C17 C 0.9015(10) 0.6954(3) 0.3401(5)
H10 H 1.0254 0.6641 0.3486
C18 C 0.9291(8) 0.3814(3) -0.0345(4)
H11 H 0.8405 0.3365 -0.0254
C19 C 0.7827(11) 0.4676(5) 0.6062(5)
H12 H 0.8887 0.4344 0.6466
C20 C 0.8743(15) 0.7569(5) 0.4254(6)
H13 H 0.9789 0.7665 0.4911
C21 C 0.6724(13) 0.5173(5) 0.6735(5)
H14 H 0.7020 0.5194 0.7598
C22 C 0.5375(13) 0.7875(4) 0.3181(7)
H15 H 0.4129 0.8183 0.3106
C23 C 0.4720(11) 0.5638(5) 0.4835(6)
H16 H 0.3657 0.5971 0.4439
C24 C 0.6922(15) 0.8045(5) 0.4135(6)
H17 H 0.6748 0.8472 0.4693
C25 C -0.0290(14) 0.1950(5) 0.2203(7)
H18 H -0.0026 0.1808 0.1370
H19 H -0.1785 0.1926 0.2267
H20 H 0.0434 0.1565 0.2779
C26 C 0.5139(15) 0.5656(6) 0.6136(7)
H21 H 0.4341 0.5997 0.6598
loop_
_geom_bond_atom_site_label_1
_geom_bond_atom_site_label_2
_geom_bond_site_symmetry_1
_geom_bond_site_symmetry_2
S1 C7 1_555 1_555
O1 H1 1_555 1_555
O2 C3 1_555 1_555
N1 C4 1_555 1_555
O3 C14 1_555 1_555
O4 C14 1_555 1_555
C1 H2 1_555 1_555
C2 C1 1_555 1_555
C3 C2 1_555 1_555
C4 C2 1_555 1_555
H3 C4 1_555 1_555
C5 C1 1_555 1_555
C6 N1 1_555 1_555
C7 C6 1_555 1_555
C8 H4 1_555 1_555
C9 C12 1_555 1_555
C10 C7 1_555 1_555
H5 C10 1_555 1_555
C11 N1 1_555 1_555
H6 C11 1_555 1_555
C12 S1 1_555 1_555
C13 C8 1_555 1_555
H7 C13 1_555 1_555
C14 C3 1_555 1_555
C15 C9 1_555 1_555
H8 C15 1_555 1_555
C16 C5 1_555 1_555
H9 C16 1_555 1_555
C17 C9 1_555 1_555
H10 C17 1_555 1_555
C18 C6 1_555 1_555
H11 C18 1_555 1_555
C19 C16 1_555 1_555
H12 C19 1_555 1_555
C20 C17 1_555 1_555
H13 C20 1_555 1_555
C21 C19 1_555 1_555
H14 C21 1_555 1_555
C22 C15 1_555 1_555
H15 C22 1_555 1_555
C23 C5 1_555 1_555
H16 C23 1_555 1_555
C24 C20 1_555 1_555
H17 C24 1_555 1_555
C25 O3 1_555 1_555
H18 C25 1_555 1_555
H19 C25 1_555 1_555
H20 C25 1_555 1_555
C26 C21 1_555 1_555
H21 C26 1_555 1_555
O1 C12 1_555 1_555
C1 C11 1_555 1_555
C8 C10 1_555 1_555
C11 C12 1_555 1_555
C13 C18 1_555 1_555
C22 C24 1_555 1_555
C23 C26 1_555 1_555

#END
