
#######################################################################
#
#                 Cambridge Crystallographic Data Centre
#                                CCDC 
#
#######################################################################
#
# If this CIF has been generated from an entry in the Cambridge 
# Structural Database, then it will include bibliographic, chemical, 
# crystal, experimental, refinement or atomic coordinate data resulting 
# from the CCDC's data processing and validation procedures.
#
#######################################################################

data_VEYTOL
_chemical_formula_moiety         'C38 H28 N2 O4 S1'
_chemical_name_systematic        
{(1R,2R,3S,3aS)-1'-Benzyl-2'-oxo-1,2-dihydro-3aH-spiro[benzo[c]pyrrolo[1,2-e][1,2,5]oxathiazine-3,3'-indoline]-1,2-diyl}bis(phenylmethanone)
_symmetry_cell_setting           monoclinic
_symmetry_space_group_name_H-M   'C 2'
_symmetry_Int_Tables_number      5
_space_group_name_Hall           'C 2y'
loop_
_symmetry_equiv_pos_site_id
_symmetry_equiv_pos_as_xyz
1 x,y,z
2 -x,y,-z
3 1/2+x,1/2+y,z
4 1/2-x,1/2+y,-z
_cell_length_a                   14.8962(11)
_cell_length_b                   11.3205(8)
_cell_length_c                   20.153(2)
_cell_angle_alpha                90
_cell_angle_beta                 102.279(9)
_cell_angle_gamma                90
_cell_volume                     3320.71
_exptl_crystal_colour            colorless
_exptl_crystal_description       block
_cell_formula_units_Z            4
loop_
_atom_site_label
_atom_site_type_symbol
_atom_site_fract_x
_atom_site_fract_y
_atom_site_fract_z
S1 S 0.49179(9) 0.76768(11) 0.32092(6)
O1 O 0.65769(16) 0.7596(2) 0.16137(13)
O2 O 0.50747(17) 0.3662(2) 0.09098(13)
O3 O 0.50757(19) 0.6269(3) 0.30650(13)
O4 O 0.74714(16) 0.4993(3) 0.31294(13)
N1 N 0.51183(17) 0.6422(2) 0.19082(14)
C1 C 0.61637(19) 0.2528(3) 0.16665(16)
C2 C 0.6324(2) 0.6753(3) 0.12437(17)
C3 C 0.5590(2) 0.5924(3) 0.14156(16)
H1 H 0.514575 0.570925 0.100087
N2 N 0.6498(2) 0.3614(3) 0.34249(15)
C4 C 0.6749(2) 0.6487(3) 0.06608(17)
C5 C 0.5878(2) 0.4819(3) 0.25059(16)
C6 C 0.4665(2) 0.7514(3) 0.18152(19)
C7 C 0.5714(2) 0.3649(3) 0.13980(16)
C8 C 0.5660(2) 0.1485(3) 0.1533(2)
H2 H 0.506406 0.150324 0.127272
C9 C 0.6441(2) 0.5573(3) 0.02021(17)
H3 H 0.594543 0.510940 0.025407
C10 C 0.6731(2) 0.4513(3) 0.30442(17)
C11 C 0.6045(2) 0.0422(3) 0.1788(2)
H4 H 0.570349 -0.026976 0.170410
C12 C 0.4519(2) 0.8150(3) 0.2380(2)
C13 C 0.5171(2) 0.3961(3) 0.26441(16)
C14 C 0.5630(2) 0.6126(3) 0.25746(16)
H5 H 0.618662 0.660944 0.269370
C15 C 0.7427(3) 0.1411(3) 0.2289(2)
H6 H 0.802690 0.138487 0.254036
C16 C 0.6870(3) 0.5361(3) -0.0324(2)
H7 H 0.665792 0.476070 -0.063289
C17 C 0.4276(2) 0.3774(3) 0.23349(18)
H8 H 0.399188 0.424506 0.197285
C18 C 0.6058(2) 0.4797(2) 0.17683(15)
H9 H 0.672172 0.485807 0.179682
C19 C 0.6923(3) 0.0384(3) 0.2163(2)
H10 H 0.717943 -0.033245 0.233257
C20 C 0.7494(3) 0.7153(4) 0.0570(2)
H11 H 0.770642 0.776097 0.087367
C21 C 0.4055(3) 0.9224(3) 0.2285(3)
H12 H 0.395794 0.964436 0.265938
C22 C 0.7048(2) 0.2473(3) 0.20447(19)
H13 H 0.739247 0.316163 0.213609
C23 C 0.5579(2) 0.3259(3) 0.31890(19)
C24 C 0.4308(2) 0.7960(3) 0.1176(2)
H14 H 0.438000 0.753796 0.079454
C25 C 0.3793(3) 0.2867(4) 0.2568(2)
H15 H 0.318505 0.272550 0.235620
C26 C 0.3742(3) 0.9665(4) 0.1651(4)
H16 H 0.345864 1.040087 0.159562
C27 C 0.7619(3) 0.6036(4) -0.0400(2)
H17 H 0.791729 0.587965 -0.075149
C28 C 0.7920(3) 0.6944(5) 0.0053(2)
H18 H 0.841515 0.740912 0.000142
C29 C 0.3842(3) 0.9033(4) 0.1095(3)
H19 H 0.359877 0.931957 0.066177
C30 C 0.4204(3) 0.2183(4) 0.3106(3)
H20 H 0.387073 0.158278 0.325701
C31 C 0.7134(3) 0.3098(5) 0.4003(3)
H21 H 0.775960 0.325975 0.396243
H22 H 0.705131 0.224832 0.399815
C32 C 0.5119(3) 0.2371(4) 0.3433(2)
H23 H 0.540181 0.191143 0.380052
C33 C 0.6980(4) 0.3606(7) 0.4692(3)
C34 C 0.7363(5) 0.3026(12) 0.5261(4)
H24 H 0.768953 0.233498 0.523000
C35 C 0.7286(9) 0.3425(18) 0.5890(6)
H25 H 0.758787 0.303621 0.628038
C36 C 0.6400(8) 0.4558(8) 0.4739(3)
H26 H 0.607607 0.491561 0.434499
C37 C 0.6300(9) 0.4979(10) 0.5368(4)
H27 H 0.593412 0.563173 0.540281
C38 C 0.6766(10) 0.4392(19) 0.5937(5)
H28 H 0.672167 0.466534 0.636451
loop_
_geom_bond_atom_site_label_1
_geom_bond_atom_site_label_2
_geom_bond_site_symmetry_1
_geom_bond_site_symmetry_2
S1 O3 1_555 1_555
O1 C2 1_555 1_555
O2 C7 1_555 1_555
O3 C14 1_555 1_555
O4 C10 1_555 1_555
N1 C3 1_555 1_555
C1 C7 1_555 1_555
C2 C3 1_555 1_555
C3 H1 1_555 1_555
N2 C10 1_555 1_555
C4 C2 1_555 1_555
C5 C10 1_555 1_555
C6 N1 1_555 1_555
C7 C18 1_555 1_555
C8 C1 1_555 1_555
H2 C8 1_555 1_555
C9 C4 1_555 1_555
H3 C9 1_555 1_555
C11 C8 1_555 1_555
H4 C11 1_555 1_555
C12 S1 1_555 1_555
C13 C5 1_555 1_555
C14 N1 1_555 1_555
H5 C14 1_555 1_555
C15 H6 1_555 1_555
C16 C9 1_555 1_555
H7 C16 1_555 1_555
C17 C13 1_555 1_555
H8 C17 1_555 1_555
C18 C3 1_555 1_555
H9 C18 1_555 1_555
C19 C11 1_555 1_555
H10 C19 1_555 1_555
C20 C4 1_555 1_555
H11 C20 1_555 1_555
C21 C12 1_555 1_555
H12 C21 1_555 1_555
C22 C1 1_555 1_555
H13 C22 1_555 1_555
C23 N2 1_555 1_555
C24 C6 1_555 1_555
H14 C24 1_555 1_555
C25 C17 1_555 1_555
H15 C25 1_555 1_555
C26 C21 1_555 1_555
H16 C26 1_555 1_555
C27 C16 1_555 1_555
H17 C27 1_555 1_555
C28 C20 1_555 1_555
H18 C28 1_555 1_555
C29 C24 1_555 1_555
H19 C29 1_555 1_555
C30 C25 1_555 1_555
H20 C30 1_555 1_555
C31 N2 1_555 1_555
H21 C31 1_555 1_555
H22 C31 1_555 1_555
C32 C23 1_555 1_555
H23 C32 1_555 1_555
C33 C31 1_555 1_555
C34 C33 1_555 1_555
H24 C34 1_555 1_555
C35 C34 1_555 1_555
H25 C35 1_555 1_555
C36 C33 1_555 1_555
H26 C36 1_555 1_555
C37 C36 1_555 1_555
H27 C37 1_555 1_555
C38 C35 1_555 1_555
H28 C38 1_555 1_555
C5 C14 1_555 1_555
C5 C18 1_555 1_555
C6 C12 1_555 1_555
C13 C23 1_555 1_555
C15 C19 1_555 1_555
C15 C22 1_555 1_555
C26 C29 1_555 1_555
C27 C28 1_555 1_555
C30 C32 1_555 1_555
C37 C38 1_555 1_555

#END
