
#######################################################################
#
#                 Cambridge Crystallographic Data Centre
#                                CCDC 
#
#######################################################################
#
# If this CIF has been generated from an entry in the Cambridge 
# Structural Database, then it will include bibliographic, chemical, 
# crystal, experimental, refinement or atomic coordinate data resulting 
# from the CCDC's data processing and validation procedures.
#
#######################################################################

data_VEZBAD
_chemical_formula_moiety         'C10 H12 O5 S1'
_chemical_name_systematic        Benzosulfinyl-11-crown-4
_chemical_properties_biological  'ptosis-inducing and antihypoxia activity'
_symmetry_cell_setting           monoclinic
_symmetry_space_group_name_H-M   'P 21/a'
_symmetry_Int_Tables_number      14
_space_group_name_Hall           '-P 2yab'
loop_
_symmetry_equiv_pos_site_id
_symmetry_equiv_pos_as_xyz
1 x,y,z
2 1/2-x,1/2+y,-z
3 -x,-y,-z
4 1/2+x,1/2-y,z
_cell_length_a                   16.166(4)
_cell_length_b                   8.810(2)
_cell_length_c                   7.789(2)
_cell_angle_alpha                90
_cell_angle_beta                 90.0(1)
_cell_angle_gamma                90
_cell_volume                     1109.33
_exptl_crystal_colour            colorless
_chemical_melting_point          76-78deg.C
_cell_formula_units_Z            4
loop_
_atom_site_label
_atom_site_type_symbol
_atom_site_fract_x
_atom_site_fract_y
_atom_site_fract_z
S1 S 0.1636(2) 0.8196 0.4609(4)
O1 O 0.2486(5) 0.8884(9) 0.5395(8)
O2 O 0.3667(4) 0.8434(8) 0.2705(7)
O3 O 0.2892(4) 0.8694(7) -0.0277(8)
O4 O 0.1790(3) 0.8216(9) 0.2578(8)
O5 O 0.1026(5) 0.9338(9) 0.4988(9)
C1 C 0.3191(7) 0.7847(9) 0.5482(9)
C2 C 0.3887(6) 0.8550(8) 0.4515(7)
C3 C 0.3998(5) 0.9504(9) 0.1591(7)
C4 C 0.4719(6) 1.0360(9) 0.1929(8)
C5 C 0.4982(7) 1.1350(9) 0.0616(9)
C6 C 0.4570(7) 1.1466(9) -0.0877(8)
C7 C 0.3857(7) 1.0628(8) -0.1201(9)
C8 C 0.3584(5) 0.9631(8) 0.0055(9)
C9 C 0.2101(6) 0.9474(9) -0.0066(9)
C10 C 0.1907(6) 0.9737(9) 0.1774(9)
H1 H 0.303(2) 0.670(1) 0.485(1)
H2 H 0.336(2) 0.757(1) 0.662(1)
H3 H 0.397(2) 0.975(1) 0.492(1)
H4 H 0.450(2) 0.796(1) 0.479(1)
H5 H 0.509(2) 1.026(1) 0.318(1)
H6 H 0.554(2) 1.207(1) 0.084(1)
H7 H 0.482(2) 1.224(1) -0.188(1)
H8 H 0.352(2) 1.070(1) -0.252(1)
H9 H 0.162(2) 0.886(1) -0.066(1)
H10 H 0.217(2) 1.063(1) -0.071(1)
H11 H 0.239(2) 1.044(1) 0.246(1)
H12 H 0.131(2) 1.043(1) 0.191(1)
loop_
_geom_bond_atom_site_label_1
_geom_bond_atom_site_label_2
_geom_bond_site_symmetry_1
_geom_bond_site_symmetry_2
S1 O1 1_555 1_555
O1 C1 1_555 1_555
O2 C2 1_555 1_555
O3 C8 1_555 1_555
O4 S1 1_555 1_555
O5 S1 1_555 1_555
C1 C2 1_555 1_555
C2 H3 1_555 1_555
C3 O2 1_555 1_555
C4 C3 1_555 1_555
C5 C4 1_555 1_555
C6 C5 1_555 1_555
C7 C6 1_555 1_555
C8 C3 1_555 1_555
C9 O3 1_555 1_555
C10 O4 1_555 1_555
H1 C1 1_555 1_555
H2 C1 1_555 1_555
H4 C2 1_555 1_555
H5 C4 1_555 1_555
H6 C5 1_555 1_555
H7 C6 1_555 1_555
H8 C7 1_555 1_555
H9 C9 1_555 1_555
H10 C9 1_555 1_555
H11 C10 1_555 1_555
H12 C10 1_555 1_555
C7 C8 1_555 1_555
C9 C10 1_555 1_555

#END
