
#######################################################################
#
#                 Cambridge Crystallographic Data Centre
#                                CCDC 
#
#######################################################################
#
# If this CIF has been generated from an entry in the Cambridge 
# Structural Database, then it will include bibliographic, chemical, 
# crystal, experimental, refinement or atomic coordinate data resulting 
# from the CCDC's data processing and validation procedures.
#
#######################################################################

data_VEZDAI
_chemical_formula_moiety         'C27 H25 N3'
_chemical_name_systematic        
1-benzyl-5-(1,1-dimethyl-1H-inden-3-yl)-4-(4-methylphenyl)-1H-1,2,3-triazole
_symmetry_cell_setting           triclinic
_symmetry_space_group_name_H-M   'P -1'
_symmetry_Int_Tables_number      2
_space_group_name_Hall           '-P 1'
loop_
_symmetry_equiv_pos_site_id
_symmetry_equiv_pos_as_xyz
1 x,y,z
2 -x,-y,-z
_cell_length_a                   9.4962(10)
_cell_length_b                   10.9765(13)
_cell_length_c                   12.3683(12)
_cell_angle_alpha                103.971(10)
_cell_angle_beta                 104.624(9)
_cell_angle_gamma                110.935(10)
_cell_volume                     1083.81
_exptl_crystal_colour            colorless
_exptl_crystal_description       needle
_cell_formula_units_Z            2
loop_
_atom_site_label
_atom_site_type_symbol
_atom_site_fract_x
_atom_site_fract_y
_atom_site_fract_z
C1 C 0.3820(2) 0.74358(16) 0.38588(16)
N1 N 0.03341(19) 0.84251(15) 0.11070(14)
C2 C 0.2231(2) 0.72635(17) 0.33982(16)
C3 C 0.0453(2) 0.73854(18) 0.14834(16)
N2 N -0.1220(2) 0.80475(17) 0.04304(16)
C4 C 0.1989(2) 0.75008(17) 0.22551(15)
C5 C -0.1120(2) 0.63285(19) 0.09845(16)
C6 C 0.1535(2) 1.09378(19) 0.23869(17)
N3 N -0.2104(2) 0.67722(17) 0.03520(15)
C7 C -0.1749(2) 0.49218(18) 0.10445(16)
C8 C 0.1201(2) 0.69242(19) 0.40120(17)
H1 H 0.0140 0.6805 0.3708
C9 C 0.4397(2) 0.72932(19) 0.49413(17)
H2 H 0.5461 0.7424 0.5255
C10 C -0.3347(2) 0.4218(2) 0.09374(18)
H3 H -0.4047 0.4625 0.0794
C11 C 0.2341(2) 1.2341(2) 0.25375(19)
H4 H 0.2840 1.2577 0.2011
C12 C 0.4682(2) 0.77778(18) 0.30239(17)
C13 C -0.0754(2) 0.42613(19) 0.12265(17)
H5 H 0.0310 0.4695 0.1273
C14 C 0.1787(3) 0.6766(2) 0.50892(18)
H6 H 0.1108 0.6531 0.5508
C15 C 0.3369(2) 0.77901(18) 0.20488(17)
H7 H 0.3502 0.7978 0.1378
C16 C -0.2900(3) 0.2288(2) 0.12696(18)
C17 C 0.3370(3) 0.6954(2) 0.55504(18)
H8 H 0.3744 0.6850 0.6277
C18 C -0.1324(3) 0.2970(2) 0.13391(18)
H9 H -0.0634 0.2551 0.1464
C19 C 0.1560(3) 0.98351(19) 0.13983(19)
H10 H 0.1394 1.0067 0.0682
H11 H 0.2624 0.9854 0.1640
C20 C 0.0778(3) 1.0613(2) 0.3166(2)
H12 H 0.0222 0.9681 0.3071
C21 C -0.3912(3) 0.2920(2) 0.10411(19)
H13 H -0.4991 0.2463 0.0956
C22 C 0.5152(3) 0.6625(2) 0.2503(2)
H14 H 0.4199 0.5740 0.2108
H15 H 0.5922 0.6572 0.3142
H16 H 0.5630 0.6844 0.1935
C23 C 0.2404(3) 1.3380(2) 0.3458(2)
H17 H 0.2953 1.4314 0.3555
C24 C 0.0842(3) 1.1664(2) 0.4085(2)
H18 H 0.0327 1.1436 0.4605
C25 C 0.1663(3) 1.3047(2) 0.4235(2)
H19 H 0.1715 1.3752 0.4861
C26 C 0.6195(3) 0.9196(2) 0.3656(2)
H20 H 0.6726 0.9383 0.3107
H21 H 0.6927 0.9174 0.4338
H22 H 0.5881 0.9921 0.3918
C27 C -0.3458(3) 0.0923(2) 0.1475(2)
H23 H -0.4616 0.0510 0.1255
H24 H -0.2940 0.1097 0.2308
H25 H -0.3172 0.0295 0.0993
loop_
_geom_bond_atom_site_label_1
_geom_bond_atom_site_label_2
_geom_bond_site_symmetry_1
_geom_bond_site_symmetry_2
C1 C2 1_555 1_555
N1 C3 1_555 1_555
C2 C4 1_555 1_555
C3 C4 1_555 1_555
N2 N1 1_555 1_555
C4 C15 1_555 1_555
C5 C3 1_555 1_555
C6 C11 1_555 1_555
N3 N2 1_555 1_555
C7 C5 1_555 1_555
C8 C2 1_555 1_555
H1 C8 1_555 1_555
C9 C1 1_555 1_555
H2 C9 1_555 1_555
C10 C7 1_555 1_555
H3 C10 1_555 1_555
C11 H4 1_555 1_555
C12 C1 1_555 1_555
C13 C7 1_555 1_555
H5 C13 1_555 1_555
C14 C8 1_555 1_555
H6 C14 1_555 1_555
C15 C12 1_555 1_555
H7 C15 1_555 1_555
C16 C18 1_555 1_555
C17 C9 1_555 1_555
H8 C17 1_555 1_555
C18 C13 1_555 1_555
H9 C18 1_555 1_555
C19 N1 1_555 1_555
H10 C19 1_555 1_555
H11 C19 1_555 1_555
C20 C6 1_555 1_555
H12 C20 1_555 1_555
C21 C10 1_555 1_555
H13 C21 1_555 1_555
C22 C12 1_555 1_555
H14 C22 1_555 1_555
H15 C22 1_555 1_555
H16 C22 1_555 1_555
C23 C11 1_555 1_555
H17 C23 1_555 1_555
C24 C20 1_555 1_555
H18 C24 1_555 1_555
C25 C23 1_555 1_555
H19 C25 1_555 1_555
C26 C12 1_555 1_555
H20 C26 1_555 1_555
H21 C26 1_555 1_555
H22 C26 1_555 1_555
C27 C16 1_555 1_555
H23 C27 1_555 1_555
H24 C27 1_555 1_555
H25 C27 1_555 1_555
C5 N3 1_555 1_555
C6 C19 1_555 1_555
C14 C17 1_555 1_555
C16 C21 1_555 1_555
C24 C25 1_555 1_555

#END
