
#######################################################################
#
#                 Cambridge Crystallographic Data Centre
#                                CCDC 
#
#######################################################################
#
# If this CIF has been generated from an entry in the Cambridge 
# Structural Database, then it will include bibliographic, chemical, 
# crystal, experimental, refinement or atomic coordinate data resulting 
# from the CCDC's data processing and validation procedures.
#
#######################################################################

data_VEZHUG
_chemical_formula_moiety         'C15 H14 N2 O2'
_chemical_name_systematic        
2-t-butyl-1H-naphtho[2,3-d]imidazole-4,9-dione
_symmetry_cell_setting           rhombohedral
_symmetry_space_group_name_H-M   'R -3'
_symmetry_Int_Tables_number      148
_space_group_name_Hall           '-R 3'
loop_
_symmetry_equiv_pos_site_id
_symmetry_equiv_pos_as_xyz
1 x,y,z
2 -y,x-y,z
3 -x+y,-x,z
4 2/3+x,1/3+y,1/3+z
5 2/3-y,1/3+x-y,1/3+z
6 2/3-x+y,1/3-x,1/3+z
7 1/3+x,2/3+y,2/3+z
8 1/3-y,2/3+x-y,2/3+z
9 1/3-x+y,2/3-x,2/3+z
10 -x,-y,-z
11 y,-x+y,-z
12 x-y,x,-z
13 1/3-x,2/3-y,2/3-z
14 1/3+y,2/3-x+y,2/3-z
15 1/3+x-y,2/3+x,2/3-z
16 2/3-x,1/3-y,1/3-z
17 2/3+y,1/3-x+y,1/3-z
18 2/3+x-y,1/3+x,1/3-z
_cell_length_a                   25.8507(5)
_cell_length_b                   25.8507(5)
_cell_length_c                   10.0289(2)
_cell_angle_alpha                90
_cell_angle_beta                 90
_cell_angle_gamma                120
_cell_volume                     5804.02
_exptl_crystal_colour            colorless
_exptl_crystal_description       block
_cell_formula_units_Z            18
loop_
_atom_site_label
_atom_site_type_symbol
_atom_site_fract_x
_atom_site_fract_y
_atom_site_fract_z
O1 O 0.23565(3) 0.30054(3) 0.49585(7)
C1 C 0.32423(4) 0.29377(4) 0.49517(8)
N1 N 0.30916(3) 0.43286(3) 0.46417(7)
N2 N 0.40863(3) 0.47928(3) 0.47049(7)
H1 H 0.4461 0.5084 0.4702
O2 O 0.47851(3) 0.41720(3) 0.49885(7)
C2 C 0.29235(4) 0.23195(4) 0.49728(9)
H2 H 0.2499 0.2116 0.4952
C3 C 0.41627(4) 0.29055(4) 0.50297(10)
H3 H 0.4587 0.3105 0.5051
C4 C 0.38371(5) 0.22847(5) 0.50517(10)
H4 H 0.4038 0.2062 0.5086
C5 C 0.32177(5) 0.19922(4) 0.50236(10)
H5 H 0.2994 0.1568 0.5039
C6 C 0.38751(4) 0.32383(4) 0.49776(8)
C7 C 0.42350(4) 0.39007(4) 0.49508(8)
C8 C 0.38897(4) 0.42004(4) 0.48530(8)
C9 C 0.32738(4) 0.39192(4) 0.48158(8)
C10 C 0.29012(4) 0.32679(4) 0.49103(8)
C11 C 0.35922(4) 0.48497(4) 0.45619(8)
C12 C 0.36301(4) 0.54428(4) 0.42924(9)
C13 C 0.30024(5) 0.53400(5) 0.40279(11)
H6 H 0.3025 0.5724 0.3855
H7 H 0.2749 0.5151 0.4809
H8 H 0.2831 0.5079 0.3251
C14 C 0.39022(5) 0.58531(4) 0.55050(11)
H9 H 0.4308 0.5926 0.5658
H10 H 0.3656 0.5662 0.6294
H11 H 0.3917 0.6234 0.5339
C15 C 0.40274(5) 0.57307(5) 0.30580(11)
H12 H 0.3863 0.5458 0.2297
H13 H 0.4433 0.5810 0.3244
H14 H 0.4039 0.6107 0.2849
loop_
_geom_bond_atom_site_label_1
_geom_bond_atom_site_label_2
_geom_bond_site_symmetry_1
_geom_bond_site_symmetry_2
O1 C10 1_555 1_555
C1 C2 1_555 1_555
N1 C9 1_555 1_555
N2 H1 1_555 1_555
O2 C7 1_555 1_555
C2 H2 1_555 1_555
C3 H3 1_555 1_555
C4 C3 1_555 1_555
H4 C4 1_555 1_555
C5 C2 1_555 1_555
H5 C5 1_555 1_555
C6 C1 1_555 1_555
C7 C6 1_555 1_555
C8 N2 1_555 1_555
C9 C8 1_555 1_555
C10 C1 1_555 1_555
C11 N1 1_555 1_555
C12 C11 1_555 1_555
C13 C12 1_555 1_555
H6 C13 1_555 1_555
H7 C13 1_555 1_555
H8 C13 1_555 1_555
C14 C12 1_555 1_555
H9 C14 1_555 1_555
H10 C14 1_555 1_555
H11 C14 1_555 1_555
C15 C12 1_555 1_555
H12 C15 1_555 1_555
H13 C15 1_555 1_555
H14 C15 1_555 1_555
N2 C11 1_555 1_555
C3 C6 1_555 1_555
C4 C5 1_555 1_555
C7 C8 1_555 1_555
C9 C10 1_555 1_555

#END
