
#######################################################################
#
#                 Cambridge Crystallographic Data Centre
#                                CCDC 
#
#######################################################################
#
# If this CIF has been generated from an entry in the Cambridge 
# Structural Database, then it will include bibliographic, chemical, 
# crystal, experimental, refinement or atomic coordinate data resulting 
# from the CCDC's data processing and validation procedures.
#
#######################################################################

data_VEZJES
_chemical_formula_moiety         'C22 H22 N3 O3 S1 1+,I1 1-,C1 H4 O1'
_chemical_name_systematic        
'4-(2-(4,9-dioxo-2-(thiophen-3-yl)-4,9-dihydro-1H-naphtho[2,3-d]imidazol-1-yl)ethyl)-4-methylmorpholin-4-ium iodide methanol solvate'
_symmetry_cell_setting           triclinic
_symmetry_space_group_name_H-M   'P -1'
_symmetry_Int_Tables_number      2
_space_group_name_Hall           '-P 1'
loop_
_symmetry_equiv_pos_site_id
_symmetry_equiv_pos_as_xyz
1 x,y,z
2 -x,-y,-z
_cell_length_a                   10.7547(4)
_cell_length_b                   13.3127(5)
_cell_length_c                   17.3082(7)
_cell_angle_alpha                98.0010(10)
_cell_angle_beta                 97.2000(10)
_cell_angle_gamma                104.3040(10)
_cell_volume                     2344.71
_exptl_crystal_colour            colorless
_exptl_crystal_description       block
_cell_formula_units_Z            4
loop_
_atom_site_label
_atom_site_type_symbol
_atom_site_fract_x
_atom_site_fract_y
_atom_site_fract_z
I1 I -0.18453(2) -0.13475(2) 0.86604(2)
O1 O 0.47087(16) 0.12007(14) 0.94787(10)
S1 S -0.33228(6) 0.08287(5) 0.76388(4)
N1 N -0.08237(16) 0.11454(13) 0.54362(10)
C1 C -0.3692(2) 0.15466(19) 0.69391(14)
H1 H -0.4444 0.1801 0.6891
O2 O -0.00445(16) 0.09897(13) 0.38686(8)
N2 N 0.06310(16) 0.16339(13) 0.65558(9)
C2 C -0.2777(2) 0.17097(17) 0.64602(13)
H2 H -0.2822 0.2087 0.6035
O3 O 0.35164(14) 0.23569(12) 0.65784(9)
N3 N 0.23016(16) 0.11249(13) 0.84697(9)
C3 C -0.1744(2) 0.12512(16) 0.66684(12)
C4 C -0.1920(2) 0.07465(18) 0.73012(13)
H3 H -0.1333 0.0394 0.7524
C5 C -0.06685(19) 0.13145(15) 0.62179(12)
C6 C 0.0409(2) 0.13709(15) 0.52635(11)
C7 C 0.0762(2) 0.13240(16) 0.44709(12)
C8 C 0.2184(2) 0.17397(17) 0.44614(13)
C9 C 0.2590(3) 0.18101(18) 0.37355(14)
H4 H 0.1969 0.1584 0.3262
C10 C 0.3892(3) 0.2208(2) 0.36973(16)
H5 H 0.4160 0.2259 0.3198
C11 C 0.4807(2) 0.25312(19) 0.43818(16)
H6 H 0.5702 0.2794 0.4352
C12 C 0.4416(2) 0.24725(18) 0.51156(15)
H7 H 0.5045 0.2703 0.5585
C13 C 0.3107(2) 0.20767(16) 0.51643(13)
C14 C 0.2728(2) 0.20495(16) 0.59643(13)
C15 C 0.1323(2) 0.16765(16) 0.59395(12)
C16 C 0.1187(2) 0.18864(16) 0.74005(11)
H8 H 0.0518 0.2003 0.7720
H9 H 0.1916 0.2536 0.7509
C17 C 0.1674(2) 0.09627(17) 0.76133(11)
H10 H 0.0933 0.0322 0.7499
H11 H 0.2314 0.0841 0.7272
C18 C 0.3476(2) 0.20783(17) 0.86624(12)
H12 H 0.4026 0.2047 0.8247
H13 H 0.3182 0.2727 0.8669
C19 C 0.4270(2) 0.21178(18) 0.94593(13)
H14 H 0.5029 0.2745 0.9571
H15 H 0.3732 0.2187 0.9877
C20 C 0.3616(3) 0.0310(2) 0.93733(15)
H16 H 0.3095 0.0404 0.9797
H17 H 0.3918 -0.0328 0.9414
C21 C 0.2771(3) 0.01657(18) 0.85722(14)
H18 H 0.3276 0.0022 0.8149
H19 H 0.2010 -0.0452 0.8518
C22 C 0.1320(2) 0.12520(19) 0.89980(12)
H20 H 0.1111 0.1923 0.8969
H21 H 0.1684 0.1245 0.9545
H22 H 0.0528 0.0671 0.8824
I2 I 1.19361(2) 0.44468(2) 0.89923(2)
S2 S 1.39563(6) 0.74232(5) 0.86019(3)
O4 O 0.72568(14) 0.54890(13) 0.60258(9)
N4 N 0.83185(16) 0.51790(13) 0.81823(10)
O5 O 1.09423(15) 0.63839(12) 0.41525(9)
N5 N 1.15955(17) 0.69231(13) 0.59017(10)
N6 N 1.00807(16) 0.65277(13) 0.66739(10)
O6 O 0.59235(16) 0.38821(14) 0.85181(11)
C23 C 0.7743(2) 0.55339(16) 0.47209(12)
C24 C 0.6453(2) 0.50804(17) 0.43742(13)
H23 H 0.5817 0.4878 0.4698
C25 C 0.6087(2) 0.4920(2) 0.35631(14)
H24 H 0.5201 0.4607 0.3332
C26 C 0.7014(2) 0.52156(19) 0.30848(14)
H25 H 0.6759 0.5121 0.2528
C27 C 0.8301(2) 0.56454(17) 0.34206(13)
H26 H 0.8932 0.5837 0.3091
C28 C 0.8693(2) 0.58044(15) 0.42393(12)
C29 C 1.0106(2) 0.62478(15) 0.45741(12)
C30 C 1.0401(2) 0.64820(15) 0.54431(12)
C31 C 0.9450(2) 0.62323(15) 0.59019(12)
C32 C 1.1381(2) 0.69422(16) 0.66410(12)
C33 C 1.2419(2) 0.73178(16) 0.73293(12)
C34 C 1.3552(2) 0.81481(18) 0.73331(13)
H27 H 1.3661 0.8554 0.6924
C35 C 1.4454(2) 0.82897(19) 0.79887(15)
H28 H 1.5267 0.8809 0.8095
C36 C 1.2512(2) 0.68707(18) 0.79864(13)
H29 H 1.1846 0.6313 0.8090
C37 C 0.9456(2) 0.64940(16) 0.73824(12)
H30 H 0.8657 0.6736 0.7301
H31 H 1.0055 0.6965 0.7845
C38 C 0.9114(2) 0.53590(17) 0.75318(12)
H32 H 0.8625 0.4888 0.7036
H33 H 0.9932 0.5159 0.7667
C39 C 0.7001(2) 0.5383(2) 0.79777(13)
H34 H 0.6606 0.5029 0.7429
H35 H 0.7114 0.6149 0.8007
C40 C 0.6097(2) 0.4979(2) 0.85406(15)
H36 H 0.6466 0.5361 0.9086
H37 H 0.5242 0.5115 0.8391
C41 C 0.7137(2) 0.36936(18) 0.87840(14)
H38 H 0.7005 0.2934 0.8798
H39 H 0.7483 0.4087 0.9329
C42 C 0.8113(2) 0.40286(17) 0.82505(13)
H40 H 0.7803 0.3589 0.7718
H41 H 0.8954 0.3911 0.8463
C43 C 0.9060(2) 0.58770(17) 0.89466(12)
H42 H 0.9940 0.5785 0.9041
H43 H 0.8609 0.5685 0.9384
H44 H 0.9114 0.6614 0.8910
C44 C 0.8076(2) 0.57270(16) 0.56037(12)
O7 O 0.11579(18) -0.17236(16) 0.93108(12)
C45 C 0.1551(3) -0.1830(3) 1.01053(18)
H45 H 0.0903 -0.2403 1.0247
H46 H 0.1623 -0.1170 1.0461
H47 H 0.2396 -0.1989 1.0154
O8 O -0.28981(18) 0.01354(14) 0.38647(11)
H48 H -0.219(3) 0.043(3) 0.4041(12)
C46 C -0.3722(3) 0.0358(2) 0.43982(16)
H49 H -0.3508 0.1120 0.4581
H50 H -0.3602 0.0006 0.4852
H51 H -0.4630 0.0102 0.4132
loop_
_geom_bond_atom_site_label_1
_geom_bond_atom_site_label_2
_geom_bond_site_symmetry_1
_geom_bond_site_symmetry_2
O1 C19 1_555 1_555
S1 C1 1_555 1_555
N1 C5 1_555 1_555
C1 H1 1_555 1_555
O2 C7 1_555 1_555
N2 C5 1_555 1_555
C2 C1 1_555 1_555
H2 C2 1_555 1_555
O3 C14 1_555 1_555
N3 C17 1_555 1_555
C3 C2 1_555 1_555
C4 S1 1_555 1_555
H3 C4 1_555 1_555
C5 C3 1_555 1_555
C6 N1 1_555 1_555
C7 C6 1_555 1_555
C8 C7 1_555 1_555
C9 C8 1_555 1_555
H4 C9 1_555 1_555
C10 C9 1_555 1_555
H5 C10 1_555 1_555
C11 C10 1_555 1_555
H6 C11 1_555 1_555
C12 C11 1_555 1_555
H7 C12 1_555 1_555
C13 C8 1_555 1_555
C14 C13 1_555 1_555
C15 N2 1_555 1_555
C16 N2 1_555 1_555
H8 C16 1_555 1_555
H9 C16 1_555 1_555
C17 C16 1_555 1_555
H10 C17 1_555 1_555
H11 C17 1_555 1_555
C18 N3 1_555 1_555
H12 C18 1_555 1_555
H13 C18 1_555 1_555
C19 C18 1_555 1_555
H14 C19 1_555 1_555
H15 C19 1_555 1_555
C20 O1 1_555 1_555
H16 C20 1_555 1_555
H17 C20 1_555 1_555
C21 N3 1_555 1_555
H18 C21 1_555 1_555
H19 C21 1_555 1_555
C22 N3 1_555 1_555
H20 C22 1_555 1_555
H21 C22 1_555 1_555
H22 C22 1_555 1_555
S2 C35 1_555 1_555
O4 C44 1_555 1_555
N4 C38 1_555 1_555
O5 C29 1_555 1_555
N5 C30 1_555 1_555
N6 C31 1_555 1_555
O6 C40 1_555 1_555
C23 C24 1_555 1_555
C24 H23 1_555 1_555
C25 C24 1_555 1_555
H24 C25 1_555 1_555
C26 C25 1_555 1_555
H25 C26 1_555 1_555
C27 C26 1_555 1_555
H26 C27 1_555 1_555
C28 C23 1_555 1_555
C29 C28 1_555 1_555
C30 C29 1_555 1_555
C31 C30 1_555 1_555
C32 N5 1_555 1_555
C33 C32 1_555 1_555
C34 C33 1_555 1_555
H27 C34 1_555 1_555
C35 C34 1_555 1_555
H28 C35 1_555 1_555
C36 S2 1_555 1_555
H29 C36 1_555 1_555
C37 N6 1_555 1_555
H30 C37 1_555 1_555
H31 C37 1_555 1_555
C38 C37 1_555 1_555
H32 C38 1_555 1_555
H33 C38 1_555 1_555
C39 N4 1_555 1_555
H34 C39 1_555 1_555
H35 C39 1_555 1_555
C40 C39 1_555 1_555
H36 C40 1_555 1_555
H37 C40 1_555 1_555
C41 O6 1_555 1_555
H38 C41 1_555 1_555
H39 C41 1_555 1_555
C42 N4 1_555 1_555
H40 C42 1_555 1_555
H41 C42 1_555 1_555
C43 N4 1_555 1_555
H42 C43 1_555 1_555
H43 C43 1_555 1_555
H44 C43 1_555 1_555
C44 C23 1_555 1_555
O7 C45 1_555 1_555
C45 H45 1_555 1_555
H46 C45 1_555 1_555
H47 C45 1_555 1_555
O8 H48 1_555 1_555
C46 O8 1_555 1_555
H49 C46 1_555 1_555
H50 C46 1_555 1_555
H51 C46 1_555 1_555
C3 C4 1_555 1_555
C6 C15 1_555 1_555
C12 C13 1_555 1_555
C14 C15 1_555 1_555
C20 C21 1_555 1_555
N6 C32 1_555 1_555
C27 C28 1_555 1_555
C31 C44 1_555 1_555
C33 C36 1_555 1_555
C41 C42 1_555 1_555

#END
