
#######################################################################
#
#                 Cambridge Crystallographic Data Centre
#                                CCDC 
#
#######################################################################
#
# If this CIF has been generated from an entry in the Cambridge 
# Structural Database, then it will include bibliographic, chemical, 
# crystal, experimental, refinement or atomic coordinate data resulting 
# from the CCDC's data processing and validation procedures.
#
#######################################################################

data_VEZJOZ
_chemical_formula_moiety         'C18 H24 O2 S1'
_chemical_name_systematic        
2,3,4,4a,7,8,9,11a-Octahydro-(4aS,6S,10Z,11aR)-6(2H)-methylthio-6-phenylpyrano(3,2-b)oxonine
_symmetry_cell_setting           monoclinic
_symmetry_space_group_name_H-M   'P 21'
_symmetry_Int_Tables_number      4
_space_group_name_Hall           'P 2yb'
loop_
_symmetry_equiv_pos_site_id
_symmetry_equiv_pos_as_xyz
1 x,y,z
2 -x,1/2+y,-z
_cell_length_a                   6.493(1)
_cell_length_b                   7.409(1)
_cell_length_c                   17.179(3)
_cell_angle_alpha                90
_cell_angle_beta                 98.71(1)
_cell_angle_gamma                90
_cell_volume                     816.893
_exptl_crystal_colour            white
_chemical_melting_point          145-146deg.C
_cell_formula_units_Z            2
loop_
_atom_site_label
_atom_site_type_symbol
_atom_site_fract_x
_atom_site_fract_y
_atom_site_fract_z
S1 S 0.3173(2) 0.645 0.73274(8)
C1 C 0.5748(8) 0.5641(7) 0.7753(3)
C2 C 0.5386(9) 0.3635(7) 0.7943(3)
C3 C 0.7245(9) 0.2691(9) 0.8444(3)
C4 C 0.9158(9) 0.2458(9) 0.8013(3)
C5 C 0.8586(8) 0.1409(9) 0.7280(3)
C6 C 0.8205(9) 0.2005(8) 0.6546(3)
C7 C 0.8440(9) 0.3912(8) 0.6240(3)
C8 C 0.6768(8) 0.5281(7) 0.6429(3)
C9 C 0.687(1) 0.6995(8) 0.5935(3)
C10 C 0.696(1) 0.662(1) 0.5073(3)
C11 C 0.866(1) 0.528(1) 0.5006(4)
C12 C 0.6596(7) 0.6676(7) 0.8493(3)
C13 C 0.5389(9) 0.6903(9) 0.9090(3)
C14 C 0.613(1) 0.779(1) 0.9772(3)
C15 C 0.814(1) 0.850(1) 0.9891(4)
C16 C 0.935(1) 0.8269(9) 0.9314(3)
C17 C 0.8627(8) 0.7370(8) 0.8625(3)
C18 C 0.356(1) 0.891(1) 0.7342(5)
O1 O 0.7249(5) 0.5819(5) 0.7234(2)
O2 O 0.8325(7) 0.3659(6) 0.5425(2)
H1 H 0.9699 0.4359 0.6500
H2 H 0.5432 0.4686 0.6307
H3 H 0.4218 0.3529 0.8231
H4 H 0.5039 0.2927 0.7469
H5 H 0.7665 0.3358 0.8912
H6 H 0.6836 0.1488 0.8602
H7 H 0.9658 0.3578 0.7885
H8 H 1.0260 0.1815 0.8351
H9 H 0.8472 0.0074 0.7342
H10 H 0.7693 0.1095 0.6143
H11 H 0.5704 0.7691 0.5982
H12 H 0.8118 0.7605 0.6149
H13 H 0.5657 0.6056 0.4819
H14 H 0.7206 0.7638 0.4787
H15 H 0.8724 0.4958 0.4477
H16 H 0.9953 0.5763 0.5243
H17 H 0.3987 0.6369 0.9003
H18 H 0.5279 0.7857 1.0183
H19 H 0.8624 0.9084 1.0369
H20 H 1.0745 0.8715 0.9386
H21 H 0.9538 0.7163 0.8230
H22 H 0.3720 0.9286 0.7880
H23 H 0.4751 0.9172 0.7124
H24 H 0.2362 0.9446 0.7059
loop_
_geom_bond_atom_site_label_1
_geom_bond_atom_site_label_2
_geom_bond_site_symmetry_1
_geom_bond_site_symmetry_2
S1 C1 1_555 1_555
C1 C2 1_555 1_555
C2 C3 1_555 1_555
C3 C4 1_555 1_555
C4 C5 1_555 1_555
C5 C6 1_555 1_555
C6 C7 1_555 1_555
C7 C8 1_555 1_555
C8 C9 1_555 1_555
C9 C10 1_555 1_555
C10 C11 1_555 1_555
C11 O2 1_555 1_555
C12 C1 1_555 1_555
C13 C12 1_555 1_555
C14 C13 1_555 1_555
C15 C14 1_555 1_555
C16 C15 1_555 1_555
C17 C12 1_555 1_555
C18 S1 1_555 1_555
O1 C1 1_555 1_555
O2 C7 1_555 1_555
H1 C7 1_555 1_555
H2 C8 1_555 1_555
H3 C2 1_555 1_555
H4 C2 1_555 1_555
H5 C3 1_555 1_555
H6 C3 1_555 1_555
H7 C4 1_555 1_555
H8 C4 1_555 1_555
H9 C5 1_555 1_555
H10 C6 1_555 1_555
H11 C9 1_555 1_555
H12 C9 1_555 1_555
H13 C10 1_555 1_555
H14 C10 1_555 1_555
H15 C11 1_555 1_555
H16 C11 1_555 1_555
H17 C13 1_555 1_555
H18 C14 1_555 1_555
H19 C15 1_555 1_555
H20 C16 1_555 1_555
H21 C17 1_555 1_555
H22 C18 1_555 1_555
H23 C18 1_555 1_555
H24 C18 1_555 1_555
C8 O1 1_555 1_555
C16 C17 1_555 1_555

#END
