
#######################################################################
#
#                 Cambridge Crystallographic Data Centre
#                                CCDC 
#
#######################################################################
#
# If this CIF has been generated from an entry in the Cambridge 
# Structural Database, then it will include bibliographic, chemical, 
# crystal, experimental, refinement or atomic coordinate data resulting 
# from the CCDC's data processing and validation procedures.
#
#######################################################################

data_VEZKER
_chemical_formula_moiety         'C24 H44 Si2'
_chemical_name_systematic        
9-(Trimethylsilyl)-1-(9-(trimethylsilyl)bicyclo(6.1.0)nonan-1-yl)bicyclo(6.1.0)non-8-ene
_symmetry_cell_setting           monoclinic
_symmetry_space_group_name_H-M   'P 21/c'
_symmetry_Int_Tables_number      14
_space_group_name_Hall           '-P 2ybc'
loop_
_symmetry_equiv_pos_site_id
_symmetry_equiv_pos_as_xyz
1 x,y,z
2 -x,1/2+y,1/2-z
3 -x,-y,-z
4 x,1/2-y,1/2+z
_cell_length_a                   10.31030(10)
_cell_length_b                   20.5117(3)
_cell_length_c                   12.2621(2)
_cell_angle_alpha                90
_cell_angle_beta                 108.6990(10)
_cell_angle_gamma                90
_cell_volume                     2456.33
_exptl_crystal_colour            white
_exptl_crystal_description       prism
_chemical_melting_point          '70-71 deg.C'
_cell_formula_units_Z            4
loop_
_atom_site_label
_atom_site_type_symbol
_atom_site_fract_x
_atom_site_fract_y
_atom_site_fract_z
Si1 Si 0.73229(5) 0.05207(2) 0.39473(4)
Si2 Si 0.10671(5) 0.21070(2) 0.01064(5)
C1 C 0.8890(2) 0.04252(14) 0.35052(19)
H1 H 0.9202 0.0847 0.3357
H2 H 0.8676 0.0164 0.2820
H3 H 0.9597 0.0216 0.4112
C2 C 0.7820(2) 0.09888(12) 0.53212(17)
H4 H 0.8129 0.1415 0.5195
H5 H 0.8544 0.0764 0.5889
H6 H 0.7043 0.1029 0.5587
C3 C 0.6728(3) -0.02971(11) 0.4227(2)
H7 H 0.7410 -0.0494 0.4869
H8 H 0.6580 -0.0566 0.3558
H9 H 0.5888 -0.0254 0.4400
C4 C 0.59360(16) 0.08544(8) 0.26954(14)
H10 H 0.5578 0.0505 0.2134
C5 C 0.58961(16) 0.14961(8) 0.20546(14)
H11 H 0.5590 0.1451 0.1215
C6 C 0.69752(17) 0.20125(9) 0.25094(17)
H12 H 0.7812 0.1879 0.2372
H13 H 0.7170 0.2054 0.3335
C7 C 0.6525(2) 0.26740(10) 0.1941(2)
H14 H 0.7191 0.2999 0.2340
H15 H 0.6531 0.2654 0.1152
C8 C 0.5111(2) 0.28957(10) 0.1935(2)
H16 H 0.4923 0.3318 0.1560
H17 H 0.4438 0.2592 0.1471
C9 C 0.4911(2) 0.29510(10) 0.3109(2)
H18 H 0.4446 0.3359 0.3133
H19 H 0.5807 0.2975 0.3689
C10 C 0.41011(19) 0.23991(9) 0.34464(18)
H20 H 0.3908 0.2529 0.4139
H21 H 0.3230 0.2353 0.2840
C11 C 0.48010(17) 0.17312(8) 0.36607(14)
H22 H 0.5743 0.1791 0.4144
H23 H 0.4352 0.1465 0.4087
C12 C 0.47995(15) 0.13594(7) 0.25881(14)
C13 C 0.33951(15) 0.11407(7) 0.18127(13)
C14 C 0.26523(17) 0.07141(9) 0.24554(15)
H24 H 0.3327 0.0440 0.2993
H25 H 0.2266 0.0998 0.2904
C15 C 0.15106(18) 0.02770(9) 0.17137(16)
H26 H 0.0829 0.0223 0.2099
H27 H 0.1071 0.0497 0.0988
C16 C 0.1972(2) -0.03961(9) 0.14595(18)
H28 H 0.1170 -0.0633 0.0996
H29 H 0.2333 -0.0628 0.2184
C17 C 0.3044(2) -0.04212(9) 0.08444(18)
H30 H 0.3239 -0.0874 0.0732
H31 H 0.3883 -0.0226 0.1340
C18 C 0.26341(19) -0.00763(9) -0.03230(16)
H32 H 0.1650 -0.0012 -0.0585
H33 H 0.2852 -0.0359 -0.0874
C19 C 0.33306(18) 0.05839(9) -0.03149(15)
H34 H 0.4303 0.0514 -0.0166
H35 H 0.2964 0.0781 -0.1071
C20 C 0.31410(15) 0.10410(8) 0.05585(13)
C21 C 0.25255(16) 0.15558(8) 0.07862(14)
C22 C -0.0320(2) 0.19269(11) 0.0736(2)
H36 H -0.1087 0.2208 0.0393
H37 H 0.0015 0.2000 0.1552
H38 H -0.0601 0.1481 0.0586
C23 C 0.1508(2) 0.29912(10) 0.0325(3)
H39 H 0.0710 0.3248 -0.0047
H40 H 0.2216 0.3093 0.0001
H41 H 0.1823 0.3087 0.1134
C24 C 0.0509(2) 0.19126(12) -0.14586(19)
H42 H -0.0252 0.2185 -0.1858
H43 H 0.0238 0.1463 -0.1571
H44 H 0.1253 0.1989 -0.1754
loop_
_geom_bond_atom_site_label_1
_geom_bond_atom_site_label_2
_geom_bond_site_symmetry_1
_geom_bond_site_symmetry_2
Si1 C1 1_555 1_555
Si2 C21 1_555 1_555
C1 H1 1_555 1_555
H2 C1 1_555 1_555
H3 C1 1_555 1_555
C2 Si1 1_555 1_555
H4 C2 1_555 1_555
H5 C2 1_555 1_555
H6 C2 1_555 1_555
C3 Si1 1_555 1_555
H7 C3 1_555 1_555
H8 C3 1_555 1_555
H9 C3 1_555 1_555
C4 Si1 1_555 1_555
H10 C4 1_555 1_555
C5 C4 1_555 1_555
H11 C5 1_555 1_555
C6 C5 1_555 1_555
H12 C6 1_555 1_555
H13 C6 1_555 1_555
C7 C6 1_555 1_555
H14 C7 1_555 1_555
H15 C7 1_555 1_555
C8 C7 1_555 1_555
H16 C8 1_555 1_555
H17 C8 1_555 1_555
C9 C8 1_555 1_555
H18 C9 1_555 1_555
H19 C9 1_555 1_555
C10 C9 1_555 1_555
H20 C10 1_555 1_555
H21 C10 1_555 1_555
C11 C10 1_555 1_555
H22 C11 1_555 1_555
H23 C11 1_555 1_555
C12 C4 1_555 1_555
C13 C12 1_555 1_555
C14 C13 1_555 1_555
H24 C14 1_555 1_555
H25 C14 1_555 1_555
C15 C14 1_555 1_555
H26 C15 1_555 1_555
H27 C15 1_555 1_555
C16 C15 1_555 1_555
H28 C16 1_555 1_555
H29 C16 1_555 1_555
C17 C16 1_555 1_555
H30 C17 1_555 1_555
H31 C17 1_555 1_555
C18 C17 1_555 1_555
H32 C18 1_555 1_555
H33 C18 1_555 1_555
C19 C18 1_555 1_555
H34 C19 1_555 1_555
H35 C19 1_555 1_555
C20 C13 1_555 1_555
C21 C13 1_555 1_555
C22 Si2 1_555 1_555
H36 C22 1_555 1_555
H37 C22 1_555 1_555
H38 C22 1_555 1_555
C23 Si2 1_555 1_555
H39 C23 1_555 1_555
H40 C23 1_555 1_555
H41 C23 1_555 1_555
C24 Si2 1_555 1_555
H42 C24 1_555 1_555
H43 C24 1_555 1_555
H44 C24 1_555 1_555
C5 C12 1_555 1_555
C11 C12 1_555 1_555
C19 C20 1_555 1_555
C20 C21 1_555 1_555

#END
