
#######################################################################
#
#                 Cambridge Crystallographic Data Centre
#                                CCDC 
#
#######################################################################
#
# If this CIF has been generated from an entry in the Cambridge 
# Structural Database, then it will include bibliographic, chemical, 
# crystal, experimental, refinement or atomic coordinate data resulting 
# from the CCDC's data processing and validation procedures.
#
#######################################################################

data_VEZRAW
_chemical_name_common            'rac-mefloquinium chlorodifluoroacetate'
_chemical_formula_moiety         'C17 H17 F6 N2 O1 1+,C2 Cl1 F2 O2 1-'
_chemical_name_systematic        
'2-((2,8-bis(trifluoromethyl)quinolin-4-yl)(hydroxy)methyl)piperidin-1-ium chloro(difluoro)acetate'
_chemical_properties_biological  'Mefloquine is an anti-malarial drug'
_symmetry_cell_setting           monoclinic
_symmetry_space_group_name_H-M   'P 21/c'
_symmetry_Int_Tables_number      14
_space_group_name_Hall           '-P 2ybc'
loop_
_symmetry_equiv_pos_site_id
_symmetry_equiv_pos_as_xyz
1 x,y,z
2 -x,1/2+y,1/2-z
3 -x,-y,-z
4 x,1/2-y,1/2+z
_cell_length_a                   14.4535(4)
_cell_length_b                   6.3387(2)
_cell_length_c                   23.9040(8)
_cell_angle_alpha                90
_cell_angle_beta                 104.214(2)
_cell_angle_gamma                90
_cell_volume                     2122.95
_exptl_crystal_colour            colorless
_exptl_crystal_description       lath
_cell_formula_units_Z            4
loop_
_atom_site_label
_atom_site_type_symbol
_atom_site_fract_x
_atom_site_fract_y
_atom_site_fract_z
F1 F 1.03148(10) -0.0703(2) 0.44433(7)
F2 F 0.91566(11) -0.2736(2) 0.44998(7)
F3 F 0.96175(11) -0.2572(2) 0.37136(6)
F4 F 0.98916(10) 0.2960(2) 0.26696(6)
F5 F 0.86497(10) 0.1175(2) 0.22440(6)
F6 F 0.89009(11) 0.4242(2) 0.19252(6)
O1 O 0.66219(12) 0.1694(3) 0.47757(7)
H1 H 0.6352(19) 0.078(4) 0.4540(10)
N1 N 0.88608(13) 0.1322(3) 0.34721(8)
N2 N 0.64265(14) 0.5664(3) 0.51657(8)
H2 H 0.5904(12) 0.601(4) 0.4899(8)
H3 H 0.6290(17) 0.450(3) 0.5335(10)
C1 C 0.87768(16) 0.0391(3) 0.39479(9)
C2 C 0.81459(16) 0.1003(4) 0.42804(10)
H4 H 0.8107 0.0219 0.4613
C3 C 0.75848(16) 0.2756(4) 0.41176(9)
C4 C 0.76778(16) 0.3898(4) 0.36220(9)
C5 C 0.71864(16) 0.5805(4) 0.34349(10)
H5 H 0.6760 0.6371 0.3642
C6 C 0.73220(17) 0.6835(4) 0.29583(10)
H6 H 0.7007 0.8140 0.2846
C7 C 0.79223(18) 0.5987(4) 0.26324(10)
H7 H 0.8003 0.6718 0.2301
C8 C 0.83903(16) 0.4123(4) 0.27881(10)
C9 C 0.83122(15) 0.3071(4) 0.33029(9)
C10 C 0.94619(17) -0.1411(4) 0.41442(10)
C11 C 0.89662(18) 0.3125(4) 0.24146(10)
C12 C 0.68616(16) 0.3397(4) 0.44507(10)
H8 H 0.6269 0.3899 0.4171
C13 C 0.72279(15) 0.5153(4) 0.48924(9)
H9 H 0.7367 0.6430 0.4681
C14 C 0.66441(19) 0.7397(4) 0.56031(10)
H10 H 0.6100 0.7582 0.5782
H11 H 0.6738 0.8737 0.5412
C15 C 0.75362(19) 0.6874(4) 0.60653(10)
H12 H 0.7409 0.5645 0.6291
H13 H 0.7705 0.8086 0.6332
C16 C 0.83715(19) 0.6373(4) 0.58047(11)
H14 H 0.8929 0.5940 0.6115
H15 H 0.8550 0.7654 0.5619
C17 C 0.81136(17) 0.4608(4) 0.53591(10)
H16 H 0.8654 0.4364 0.5181
H17 H 0.8001 0.3288 0.5554
C18 C 0.49744(17) 0.7909(4) 0.39729(10)
C19 C 0.41892(18) 0.8393(4) 0.34241(11)
Cl1 Cl 0.43173(7) 0.68095(18) 0.28514(4)
F7 F 0.33144(11) 0.8114(3) 0.35113(8)
F8 F 0.42202(13) 1.0418(3) 0.32666(8)
O2 O 0.47705(12) 0.6592(3) 0.43060(7)
O3 O 0.57421(12) 0.8831(3) 0.40098(7)
loop_
_geom_bond_atom_site_label_1
_geom_bond_atom_site_label_2
_geom_bond_site_symmetry_1
_geom_bond_site_symmetry_2
F1 C10 1_555 1_555
F2 C10 1_555 1_555
F3 C10 1_555 1_555
F4 C11 1_555 1_555
F5 C11 1_555 1_555
F6 C11 1_555 1_555
O1 H1 1_555 1_555
N1 C1 1_555 1_555
N2 H2 1_555 1_555
H3 N2 1_555 1_555
C1 C2 1_555 1_555
C2 H4 1_555 1_555
C3 C2 1_555 1_555
C4 C3 1_555 1_555
C5 C4 1_555 1_555
H5 C5 1_555 1_555
C6 C5 1_555 1_555
H6 C6 1_555 1_555
C7 C6 1_555 1_555
H7 C7 1_555 1_555
C8 C7 1_555 1_555
C9 N1 1_555 1_555
C10 C1 1_555 1_555
C11 C8 1_555 1_555
C12 O1 1_555 1_555
H8 C12 1_555 1_555
C13 N2 1_555 1_555
H9 C13 1_555 1_555
C14 N2 1_555 1_555
H10 C14 1_555 1_555
H11 C14 1_555 1_555
C15 C14 1_555 1_555
H12 C15 1_555 1_555
H13 C15 1_555 1_555
C16 C15 1_555 1_555
H14 C16 1_555 1_555
H15 C16 1_555 1_555
C17 C13 1_555 1_555
H16 C17 1_555 1_555
H17 C17 1_555 1_555
C18 C19 1_555 1_555
C19 Cl1 1_555 1_555
F7 C19 1_555 1_555
F8 C19 1_555 1_555
O2 C18 1_555 1_555
O3 C18 1_555 1_555
C3 C12 1_555 1_555
C4 C9 1_555 1_555
C8 C9 1_555 1_555
C12 C13 1_555 1_555
C16 C17 1_555 1_555

#END
