
#######################################################################
#
#                 Cambridge Crystallographic Data Centre
#                                CCDC 
#
#######################################################################
#
# If this CIF has been generated from an entry in the Cambridge 
# Structural Database, then it will include bibliographic, chemical, 
# crystal, experimental, refinement or atomic coordinate data resulting 
# from the CCDC's data processing and validation procedures.
#
#######################################################################

data_VIBFOE
_chemical_formula_moiety         'C15 H9 Br1 O2'
_chemical_name_systematic        
3-[bromo(phenyl)methylidene]-2-benzofuran-1(3H)-one
_symmetry_cell_setting           monoclinic
_symmetry_space_group_name_H-M   'P 21/n'
_symmetry_Int_Tables_number      14
_space_group_name_Hall           '-P 2yn'
loop_
_symmetry_equiv_pos_site_id
_symmetry_equiv_pos_as_xyz
1 x,y,z
2 1/2-x,1/2+y,1/2-z
3 -x,-y,-z
4 1/2+x,1/2-y,1/2+z
_cell_length_a                   7.8543(5)
_cell_length_b                   20.6582(9)
_cell_length_c                   8.3912(5)
_cell_angle_alpha                90
_cell_angle_beta                 116.689(8)
_cell_angle_gamma                90
_cell_volume                     1216.46
_cell_formula_units_Z            4
loop_
_atom_site_label
_atom_site_type_symbol
_atom_site_fract_x
_atom_site_fract_y
_atom_site_fract_z
Br1 Br 0.6187(3) 0.66451(9) 0.8371(3)
O1 O 0.7310(14) 0.5183(5) 0.5728(14)
O2 O 0.8051(17) 0.4150(6) 0.5685(16)
C1 C 0.775(2) 0.4562(8) 0.641(2)
C2 C 0.674(2) 0.7272(8) 0.252(2)
C3 C 0.821(2) 0.6805(8) 0.325(2)
C4 C 0.733(2) 0.5148(8) 0.866(2)
C5 C 0.773(2) 0.4551(8) 0.821(2)
C6 C 0.805(2) 0.6392(8) 0.448(2)
C7 C 0.531(2) 0.7305(9) 0.304(2)
C8 C 0.525(2) 0.6942(9) 0.432(2)
C9 C 0.666(2) 0.6457(9) 0.511(2)
C10 C 0.765(2) 0.4707(9) 1.139(2)
C11 C 0.727(2) 0.5228(9) 1.027(2)
C12 C 0.810(3) 0.3999(10) 0.925(3)
C13 C 0.802(3) 0.4102(10) 1.086(3)
C14 C 0.709(3) 0.5521(10) 0.712(3)
C15 C 0.664(3) 0.6105(10) 0.668(3)
loop_
_geom_bond_atom_site_label_1
_geom_bond_atom_site_label_2
_geom_bond_site_symmetry_1
_geom_bond_site_symmetry_2
Br1 C15 1_555 1_555
O1 C1 1_555 1_555
O2 C1 1_555 1_555
C1 C5 1_555 1_555
C2 C3 1_555 1_555
C3 C6 1_555 1_555
C4 C5 1_555 1_555
C5 C12 1_555 1_555
C6 C9 1_555 1_555
C7 C2 1_555 1_555
C8 C7 1_555 1_555
C9 C8 1_555 1_555
C10 C11 1_555 1_555
C11 C4 1_555 1_555
C12 C13 1_555 1_555
C13 C10 1_555 1_555
C14 O1 1_555 1_555
C15 C9 1_555 1_555
C4 C14 1_555 1_555
C14 C15 1_555 1_555

#END
