
#######################################################################
#
#                 Cambridge Crystallographic Data Centre
#                                CCDC 
#
#######################################################################
#
# If this CIF has been generated from an entry in the Cambridge 
# Structural Database, then it will include bibliographic, chemical, 
# crystal, experimental, refinement or atomic coordinate data resulting 
# from the CCDC's data processing and validation procedures.
#
#######################################################################

data_VIBHUJ
_chemical_formula_moiety         'C16 H24 O2'
_chemical_name_systematic        
(4R*,7R*)-4,10,11,11-Tetramethyl-5-oxobicyclo(5.3.1)undec-1(10)-en-4-carbaldehyde
_symmetry_cell_setting           orthorhombic
_symmetry_space_group_name_H-M   'P 21 21 21'
_symmetry_Int_Tables_number      19
_space_group_name_Hall           'P 2ac 2ab'
loop_
_symmetry_equiv_pos_site_id
_symmetry_equiv_pos_as_xyz
1 x,y,z
2 1/2+x,1/2-y,-z
3 -x,1/2+y,1/2-z
4 1/2-x,-y,1/2+z
_cell_length_a                   9.0745(9)
_cell_length_b                   12.1499(15)
_cell_length_c                   12.8820(10)
_cell_angle_alpha                90
_cell_angle_beta                 90
_cell_angle_gamma                90
_cell_volume                     1420.3
_exptl_crystal_colour            colorless
_cell_formula_units_Z            4
loop_
_atom_site_label
_atom_site_type_symbol
_atom_site_fract_x
_atom_site_fract_y
_atom_site_fract_z
C1 C 0.6877(5) 0.4572(5) 0.2808(3)
C2 C 0.8344(6) 0.4592(5) 0.2209(3)
C3 C 0.9521(5) 0.5379(5) 0.2611(3)
C4 C 1.0900(4) 0.4910(3) 0.3129(3)
C5 C 1.0654(6) 0.3968(4) 0.3891(4)
C6 C 0.9596(6) 0.4193(4) 0.4792(3)
C7 C 0.8208(5) 0.4716(3) 0.4433(3)
C8 C 0.7988(5) 0.5806(3) 0.4465(3)
C9 C 0.6730(7) 0.6333(5) 0.3880(6)
C10 C 0.6211(7) 0.5702(6) 0.2914(5)
C11 C 0.7037(5) 0.4016(3) 0.3873(3)
C12 C 0.5574(6) 0.4041(5) 0.4478(5)
C13 C 0.7430(8) 0.2794(4) 0.3756(5)
C14 C 1.1891(8) 0.4510(6) 0.2227(6)
C15 C 1.1774(6) 0.5818(4) 0.3625(4)
O1 O 1.2487(4) 0.5723(3) 0.4401(3)
O2 O 0.9457(4) 0.6348(3) 0.2392(3)
C16 C 0.8971(9) 0.6619(5) 0.5016(6)
H1 H 0.631(5) 0.414(4) 0.240(3)
H2 H 0.803(5) 0.482(4) 0.160(4)
H3 H 0.873(5) 0.383(4) 0.215(3)
H4 H 1.157(5) 0.380(3) 0.415(3)
H5 H 1.035(5) 0.338(4) 0.355(3)
H6 H 0.939(5) 0.353(4) 0.509(3)
H7 H 1.009(5) 0.462(4) 0.527(3)
H8 H 0.704(6) 0.696(4) 0.367(4)
H9 H 0.582(7) 0.646(5) 0.436(4)
H10 H 0.655(7) 0.618(5) 0.239(4)
H11 H 0.518(7) 0.562(5) 0.295(4)
H12 H 0.519(5) 0.478(3) 0.462(3)
H13 H 0.481(6) 0.366(4) 0.412(3)
H14 H 0.569(6) 0.359(4) 0.509(4)
H15 H 0.753(7) 0.248(5) 0.438(4)
H16 H 0.672(6) 0.237(4) 0.345(4)
H17 H 0.826(6) 0.274(4) 0.324(4)
H18 H 1.142(7) 0.410(4) 0.184(4)
H19 H 1.234(8) 0.517(5) 0.189(5)
H20 H 1.285(7) 0.421(5) 0.246(4)
H21 H 1.178(5) 0.658(4) 0.314(3)
H22 H 0.984(7) 0.626(5) 0.542(4)
H23 H 0.954(6) 0.702(4) 0.447(4)
H24 H 0.860(7) 0.702(5) 0.535(4)
loop_
_geom_bond_atom_site_label_1
_geom_bond_atom_site_label_2
_geom_bond_site_symmetry_1
_geom_bond_site_symmetry_2
C1 C2 1_555 1_555
C2 C3 1_555 1_555
C3 C4 1_555 1_555
C4 C5 1_555 1_555
C5 C6 1_555 1_555
C6 C7 1_555 1_555
C7 C8 1_555 1_555
C8 C9 1_555 1_555
C9 C10 1_555 1_555
C10 C1 1_555 1_555
C11 C1 1_555 1_555
C12 C11 1_555 1_555
C13 C11 1_555 1_555
C14 C4 1_555 1_555
C15 C4 1_555 1_555
O1 C15 1_555 1_555
O2 C3 1_555 1_555
C16 C8 1_555 1_555
H1 C1 1_555 1_555
H2 C2 1_555 1_555
H3 C2 1_555 1_555
H4 C5 1_555 1_555
H5 C5 1_555 1_555
H6 C6 1_555 1_555
H7 C6 1_555 1_555
H8 C9 1_555 1_555
H9 C9 1_555 1_555
H10 C10 1_555 1_555
H11 C10 1_555 1_555
H12 C12 1_555 1_555
H13 C12 1_555 1_555
H14 C12 1_555 1_555
H15 C13 1_555 1_555
H16 C13 1_555 1_555
H17 C13 1_555 1_555
H18 C14 1_555 1_555
H19 C14 1_555 1_555
H20 C14 1_555 1_555
H21 C15 1_555 1_555
H22 C16 1_555 1_555
H23 C16 1_555 1_555
H24 C16 1_555 1_555
C7 C11 1_555 1_555

#END
