
#######################################################################
#
#                 Cambridge Crystallographic Data Centre
#                                CCDC 
#
#######################################################################
#
# If this CIF has been generated from an entry in the Cambridge 
# Structural Database, then it will include bibliographic, chemical, 
# crystal, experimental, refinement or atomic coordinate data resulting 
# from the CCDC's data processing and validation procedures.
#
#######################################################################

data_VIBTAD
_chemical_formula_moiety         'C16 H8 N2 Se1'
_chemical_name_systematic        9,11-Dihydropyreno[4,5-c][1,2,5]selenadiazole
_symmetry_cell_setting           monoclinic
_symmetry_space_group_name_H-M   'P 21/n'
_symmetry_Int_Tables_number      14
_space_group_name_Hall           '-P 2yn'
loop_
_symmetry_equiv_pos_site_id
_symmetry_equiv_pos_as_xyz
1 x,y,z
2 1/2-x,1/2+y,1/2-z
3 -x,-y,-z
4 1/2+x,1/2-y,1/2+z
_cell_length_a                   9.9546(7)
_cell_length_b                   9.6031(7)
_cell_length_c                   12.4807(9)
_cell_angle_alpha                90
_cell_angle_beta                 105.4630(10)
_cell_angle_gamma                90
_cell_volume                     1149.91
_exptl_crystal_colour            yellow
_exptl_crystal_description       Block
_cell_formula_units_Z            4
loop_
_atom_site_label
_atom_site_type_symbol
_atom_site_fract_x
_atom_site_fract_y
_atom_site_fract_z
Se1 Se 0.976871(19) -0.09763(2) 0.628117(16)
N1 N 0.85471(17) -0.11283(16) 0.71080(14)
N2 N 0.87483(15) 0.03347(15) 0.53932(12)
C1 C 0.75196(17) -0.02641(17) 0.66937(13)
C2 C 0.76265(17) 0.05463(17) 0.57387(13)
C3 C 0.65383(16) 0.15408(16) 0.52236(13)
C4 C 0.66118(18) 0.23422(19) 0.43144(14)
H1 H 0.7361 0.2237 0.4008
C5 C 0.5571(2) 0.3300(2) 0.38609(16)
H2 H 0.5632 0.3836 0.3255
C6 C 0.4455(2) 0.3466(2) 0.42975(16)
H3 H 0.3770 0.4116 0.3986
C7 C 0.43331(17) 0.26643(17) 0.52112(14)
C8 C 0.31712(18) 0.2819(2) 0.56736(16)
H4 H 0.2478 0.3462 0.5363
C9 C 0.30640(19) 0.2048(2) 0.65527(17)
H5 H 0.2292 0.2162 0.6830
C10 C 0.41145(19) 0.10606(18) 0.70656(16)
C11 C 0.4033(2) 0.0273(2) 0.80003(16)
H6 H 0.3265 0.0379 0.8285
C12 C 0.5062(2) -0.0642(2) 0.84953(17)
H7 H 0.4992 -0.1143 0.9116
C13 C 0.6215(2) -0.0831(2) 0.80798(16)
H8 H 0.6910 -0.1456 0.8422
C14 C 0.63274(17) -0.00850(18) 0.71514(13)
C15 C 0.52844(17) 0.08806(16) 0.66376(14)
C16 C 0.53936(16) 0.16888(16) 0.56883(13)
loop_
_geom_bond_atom_site_label_1
_geom_bond_atom_site_label_2
_geom_bond_site_symmetry_1
_geom_bond_site_symmetry_2
Se1 N1 1_555 1_555
N1 C1 1_555 1_555
N2 Se1 1_555 1_555
C1 C2 1_555 1_555
C2 N2 1_555 1_555
C3 C2 1_555 1_555
C4 C3 1_555 1_555
H1 C4 1_555 1_555
C5 C4 1_555 1_555
H2 C5 1_555 1_555
C6 C5 1_555 1_555
H3 C6 1_555 1_555
C7 C6 1_555 1_555
C8 C7 1_555 1_555
H4 C8 1_555 1_555
C9 C8 1_555 1_555
H5 C9 1_555 1_555
C10 C9 1_555 1_555
C11 C10 1_555 1_555
H6 C11 1_555 1_555
C12 C11 1_555 1_555
H7 C12 1_555 1_555
C13 C12 1_555 1_555
H8 C13 1_555 1_555
C14 C1 1_555 1_555
C15 C10 1_555 1_555
C16 C3 1_555 1_555
C7 C16 1_555 1_555
C13 C14 1_555 1_555
C14 C15 1_555 1_555
C15 C16 1_555 1_555

#END
