
#######################################################################
#
#                 Cambridge Crystallographic Data Centre
#                                CCDC 
#
#######################################################################
#
# If this CIF has been generated from an entry in the Cambridge 
# Structural Database, then it will include bibliographic, chemical, 
# crystal, experimental, refinement or atomic coordinate data resulting 
# from the CCDC's data processing and validation procedures.
#
#######################################################################

data_VICBIV
_chemical_formula_moiety         'C29 H22 N2 O3,C2 H6 O1'
_chemical_name_systematic        
'5-hydroxy-2,3,8-triphenyl-1,2,3,4-tetrahydro-10H-pyrano[3,2-f]quinoxalin-10-one ethanol solvate'
_symmetry_cell_setting           orthorhombic
_symmetry_space_group_name_H-M   'P 21 21 21'
_symmetry_Int_Tables_number      19
_space_group_name_Hall           'P 2ac 2ab'
loop_
_symmetry_equiv_pos_site_id
_symmetry_equiv_pos_as_xyz
1 x,y,z
2 1/2-x,-y,1/2+z
3 -x,1/2+y,1/2-z
4 1/2+x,1/2-y,-z
_cell_length_a                   6.2707(4)
_cell_length_b                   19.1898(14)
_cell_length_c                   21.5223(16)
_cell_angle_alpha                90
_cell_angle_beta                 90
_cell_angle_gamma                90
_cell_volume                     2589.85
_exptl_crystal_colour            red
_exptl_crystal_description       plate
_cell_formula_units_Z            4
loop_
_atom_site_label
_atom_site_type_symbol
_atom_site_fract_x
_atom_site_fract_y
_atom_site_fract_z
O1 O 0.6728(4) 0.47453(11) 0.80016(10)
O2 O 0.3426(4) 0.35275(11) 0.67813(11)
O3 O 0.2163(4) 0.66802(12) 0.76918(11)
H1 H 0.2888 0.6840 0.7975
N1 N -0.0256(5) 0.59736(15) 0.68627(12)
H2 H -0.0176 0.6420 0.6885
N2 N 0.0736(5) 0.46093(14) 0.65827(13)
H3 H 0.1064 0.4188 0.6484
C1 C -0.1584(5) 0.46071(16) 0.56644(15)
C2 C 0.1965(5) 0.49531(17) 0.70086(14)
C3 C 0.4413(6) 0.39181(17) 0.71557(14)
C4 C 0.4944(6) 0.50147(17) 0.77182(13)
C5 C 0.7393(6) 0.40878(17) 0.78697(15)
C6 C 0.9353(6) 0.38999(17) 0.82055(15)
C7 C -0.2449(6) 0.61211(17) 0.59324(16)
C8 C 0.2724(6) 0.60051(17) 0.75883(15)
C9 C 0.1474(5) 0.56422(17) 0.71570(14)
C10 C 0.4449(6) 0.56914(17) 0.78740(14)
H4 H 0.5258 0.5933 0.8165
C11 C 0.3755(5) 0.46206(16) 0.72874(14)
C12 C -0.1120(5) 0.49353(17) 0.62890(14)
H5 H -0.2362 0.4871 0.6559
C13 C 0.6311(6) 0.36854(17) 0.74694(15)
H6 H 0.6808 0.3237 0.7391
C14 C -0.0656(6) 0.57236(16) 0.62295(16)
H7 H 0.0639 0.5788 0.5981
C15 C -0.3644(6) 0.44335(18) 0.55073(16)
H8 H -0.4741 0.4502 0.5792
C16 C -0.4212(6) 0.63263(18) 0.62686(18)
H9 H -0.4307 0.6220 0.6689
C17 C 0.0004(6) 0.45145(19) 0.52303(17)
H10 H 0.1398 0.4637 0.5329
C18 C 1.0386(6) 0.43711(19) 0.85883(16)
H11 H 0.9830 0.4817 0.8639
C19 C -0.0442(7) 0.4242(2) 0.46485(18)
H12 H 0.0649 0.4183 0.4360
C20 C -0.2362(7) 0.62786(18) 0.53076(17)
H13 H -0.1170 0.6149 0.5078
C21 C 1.3109(6) 0.3537(2) 0.88264(18)
H14 H 1.4358 0.3417 0.9033
C22 C 1.0257(6) 0.3243(2) 0.81409(18)
H15 H 0.9596 0.2916 0.7887
C23 C -0.5860(6) 0.6695(2) 0.5977(2)
H16 H -0.7034 0.6842 0.6206
C24 C 1.2236(7) 0.4187(2) 0.88963(18)
H17 H 1.2898 0.4509 0.9155
C25 C -0.2495(7) 0.4059(2) 0.44975(18)
H18 H -0.2801 0.3871 0.4109
C26 C 1.2101(7) 0.3066(2) 0.84436(19)
H19 H 1.2677 0.2624 0.8390
C27 C -0.4090(6) 0.4156(2) 0.49259(18)
H20 H -0.5484 0.4035 0.4825
C28 C -0.4011(7) 0.6625(2) 0.50176(19)
H21 H -0.3943 0.6712 0.4593
C29 C -0.5741(7) 0.6839(2) 0.5351(2)
H22 H -0.6838 0.7081 0.5156
O4 O 0.4518(5) 0.73103(12) 0.85446(12)
H23 H 0.5302 0.7630 0.8436
C30 C 0.3405(13) 0.7507(3) 0.9100(2)
H24 H 0.4077 0.7919 0.9271
H25 H 0.3553 0.7135 0.9403
C31 C 0.1161(13) 0.7648(4) 0.9011(3)
H26 H 0.0994 0.8031 0.8729
H27 H 0.0524 0.7765 0.9403
H28 H 0.0475 0.7243 0.8843
loop_
_geom_bond_atom_site_label_1
_geom_bond_atom_site_label_2
_geom_bond_site_symmetry_1
_geom_bond_site_symmetry_2
O1 C4 1_555 1_555
O2 C3 1_555 1_555
O3 H1 1_555 1_555
N1 H2 1_555 1_555
N2 H3 1_555 1_555
C1 C12 1_555 1_555
C2 N2 1_555 1_555
C3 C11 1_555 1_555
C4 C10 1_555 1_555
C5 O1 1_555 1_555
C6 C5 1_555 1_555
C7 C14 1_555 1_555
C8 O3 1_555 1_555
C9 N1 1_555 1_555
C10 C8 1_555 1_555
H4 C10 1_555 1_555
C11 C2 1_555 1_555
C12 N2 1_555 1_555
H5 C12 1_555 1_555
C13 C3 1_555 1_555
H6 C13 1_555 1_555
C14 N1 1_555 1_555
H7 C14 1_555 1_555
C15 C1 1_555 1_555
H8 C15 1_555 1_555
C16 C7 1_555 1_555
H9 C16 1_555 1_555
C17 C1 1_555 1_555
H10 C17 1_555 1_555
C18 C6 1_555 1_555
H11 C18 1_555 1_555
C19 C17 1_555 1_555
H12 C19 1_555 1_555
C20 C7 1_555 1_555
H13 C20 1_555 1_555
C21 H14 1_555 1_555
C22 C6 1_555 1_555
H15 C22 1_555 1_555
C23 C16 1_555 1_555
H16 C23 1_555 1_555
C24 C18 1_555 1_555
H17 C24 1_555 1_555
C25 C19 1_555 1_555
H18 C25 1_555 1_555
C26 C21 1_555 1_555
H19 C26 1_555 1_555
C27 C15 1_555 1_555
H20 C27 1_555 1_555
C28 C20 1_555 1_555
H21 C28 1_555 1_555
C29 C23 1_555 1_555
H22 C29 1_555 1_555
O4 H23 1_555 1_555
C30 O4 1_555 1_555
H24 C30 1_555 1_555
H25 C30 1_555 1_555
C31 C30 1_555 1_555
H26 C31 1_555 1_555
H27 C31 1_555 1_555
H28 C31 1_555 1_555
C2 C9 1_555 1_555
C4 C11 1_555 1_555
C5 C13 1_555 1_555
C8 C9 1_555 1_555
C12 C14 1_555 1_555
C21 C24 1_555 1_555
C22 C26 1_555 1_555
C25 C27 1_555 1_555
C28 C29 1_555 1_555

#END
