
#######################################################################
#
#                 Cambridge Crystallographic Data Centre
#                                CCDC 
#
#######################################################################
#
# If this CIF has been generated from an entry in the Cambridge 
# Structural Database, then it will include bibliographic, chemical, 
# crystal, experimental, refinement or atomic coordinate data resulting 
# from the CCDC's data processing and validation procedures.
#
#######################################################################

data_VICKIB
_chemical_formula_moiety         'C10 H13 Cl1 O2 S1'
_chemical_name_systematic        10-Chloro-10-sulfinylcamphor
_symmetry_cell_setting           monoclinic
_symmetry_space_group_name_H-M   'P 21'
_symmetry_Int_Tables_number      4
_space_group_name_Hall           'P 2yb'
loop_
_symmetry_equiv_pos_site_id
_symmetry_equiv_pos_as_xyz
1 x,y,z
2 -x,1/2+y,-z
_cell_length_a                   6.4902(6)
_cell_length_b                   12.022(1)
_cell_length_c                   14.130(3)
_cell_angle_alpha                90
_cell_angle_beta                 103.11(1)
_cell_angle_gamma                90
_cell_volume                     1073.76
_cell_formula_units_Z            4
loop_
_atom_site_label
_atom_site_type_symbol
_atom_site_fract_x
_atom_site_fract_y
_atom_site_fract_z
Cl1 Cl 0.4054(2) 0.2500 0.21682(7)
S1 S 0.7963(2) 0.1683(2) 0.18401(8)
O1 O 0.7601(6) 0.2597(4) 0.1134(3)
O2 O 0.2777(4) -0.0077(3) 0.2184(2)
C1 C 0.6096(5) 0.1590(4) 0.2443(3)
C2 C 0.6099(5) 0.0680(3) 0.3159(3)
C3 C 0.4088(5) -0.0042(4) 0.2933(3)
C4 C 0.4103(6) -0.0692(4) 0.3854(3)
C5 C 0.6134(5) -0.0277(4) 0.4527(3)
C6 C 0.7954(6) -0.0801(4) 0.4186(3)
C7 C 0.7920(5) -0.0171(3) 0.3225(3)
C8 C 0.6222(5) 0.0973(3) 0.4246(3)
C9 C 0.4368(6) 0.1659(4) 0.4428(3)
C10 C 0.8289(6) 0.1548(4) 0.4742(3)
H1 H 0.4168 -0.1582 0.3735
H2 H 0.2737 -0.0505 0.4141
H3 H 0.6198 -0.0441 0.5285
H4 H 0.7703 -0.1684 0.4063
H5 H 0.9434 -0.0672 0.4708
H6 H 0.7593 -0.0739 0.2616
H7 H 0.9406 0.0243 0.3255
H8 H 0.2897 0.1412 0.3944
H9 H 0.4310 0.1458 0.5166
H10 H 0.4608 0.2536 0.4362
H11 H 0.9700 0.1073 0.4737
H12 H 0.8416 0.2362 0.4448
H13 H 0.8086 0.1615 0.5477
Cl2 Cl 0.0749(2) -0.5596(1) 0.29296(7)
S2 S -0.3271(2) -0.4828(2) 0.31197(8)
O3 O -0.2945(5) -0.5755(3) 0.3825(3)
O4 O -0.3911(4) -0.2665(3) 0.2312(2)
C11 C -0.1309(5) -0.4679(3) 0.2587(3)
C12 C -0.1164(5) -0.3811(3) 0.1864(3)
C13 C -0.2858(5) -0.2889(3) 0.1744(3)
C14 C -0.2838(6) -0.2299(4) 0.0798(3)
C15 C -0.1131(5) -0.2938(3) 0.0436(3)
C16 C 0.1028(6) -0.2605(4) 0.1100(3)
C17 C 0.0944(5) -0.3133(4) 0.2077(3)
C18 C -0.1428(5) -0.4150(3) 0.0764(3)
C19 C 0.0293(6) -0.4938(4) 0.0577(3)
C20 C -0.3570(6) -0.4663(4) 0.0335(3)
H14 H -0.2416 -0.1437 0.0921
H15 H -0.4355 -0.2364 0.0292
H16 H -0.1203 -0.2819 -0.0327
H17 H 0.2330 -0.2942 0.0826
H18 H 0.1174 -0.1719 0.1162
H19 H 0.0919 -0.2506 0.2619
H20 H 0.2282 -0.3680 0.2328
H21 H 0.1894 -0.4696 0.0901
H22 H -0.0037 -0.5734 0.0877
H23 H 0.0104 -0.5027 -0.0200
H24 H -0.4719 -0.4133 0.0552
H25 H -0.3950 -0.4746 -0.0448
H26 H -0.3610 -0.5479 0.0658
loop_
_geom_bond_atom_site_label_1
_geom_bond_atom_site_label_2
_geom_bond_site_symmetry_1
_geom_bond_site_symmetry_2
Cl1 C1 1_555 1_555
Cl2 C11 1_555 1_555
S1 O1 1_555 1_555
S2 O3 1_555 1_555
O2 C3 1_555 1_555
O4 C13 1_555 1_555
C1 S1 1_555 1_555
C2 C1 1_555 1_555
C3 C2 1_555 1_555
C4 C3 1_555 1_555
C5 C4 1_555 1_555
C6 C5 1_555 1_555
C7 C2 1_555 1_555
C8 C2 1_555 1_555
C9 C8 1_555 1_555
C10 C8 1_555 1_555
C11 S2 1_555 1_555
C12 C11 1_555 1_555
C13 C12 1_555 1_555
C14 C13 1_555 1_555
C15 C14 1_555 1_555
C16 C15 1_555 1_555
C17 C12 1_555 1_555
C18 C12 1_555 1_555
C19 C18 1_555 1_555
C20 C18 1_555 1_555
H1 C4 1_555 1_555
H2 C4 1_555 1_555
H3 C5 1_555 1_555
H4 C6 1_555 1_555
H5 C6 1_555 1_555
H6 C7 1_555 1_555
H7 C7 1_555 1_555
H8 C9 1_555 1_555
H9 C9 1_555 1_555
H10 C9 1_555 1_555
H11 C10 1_555 1_555
H12 C10 1_555 1_555
H13 C10 1_555 1_555
H14 C14 1_555 1_555
H15 C14 1_555 1_555
H16 C15 1_555 1_555
H17 C16 1_555 1_555
H18 C16 1_555 1_555
H19 C17 1_555 1_555
H20 C17 1_555 1_555
H21 C19 1_555 1_555
H22 C19 1_555 1_555
H23 C19 1_555 1_555
H24 C20 1_555 1_555
H25 C20 1_555 1_555
H26 C20 1_555 1_555
C5 C8 1_555 1_555
C6 C7 1_555 1_555
C15 C18 1_555 1_555
C16 C17 1_555 1_555

#END
