
#######################################################################
#
#                 Cambridge Crystallographic Data Centre
#                                CCDC 
#
#######################################################################
#
# If this CIF has been generated from an entry in the Cambridge 
# Structural Database, then it will include bibliographic, chemical, 
# crystal, experimental, refinement or atomic coordinate data resulting 
# from the CCDC's data processing and validation procedures.
#
#######################################################################

data_VICKUP
_chemical_formula_moiety         'C27 H29 Br2 N1 O4'
_chemical_name_systematic        
't-Butyl 1-(4-bromophenyl)-2-(4-(4-bromophenyl)-5-t-butoxy-1,3-oxazol-2-yl)cyclopropanecarboxylate'
_symmetry_cell_setting           orthorhombic
_symmetry_space_group_name_H-M   'P 21 21 21'
_symmetry_Int_Tables_number      19
_space_group_name_Hall           'P 2ac 2ab'
loop_
_symmetry_equiv_pos_site_id
_symmetry_equiv_pos_as_xyz
1 x,y,z
2 1/2-x,-y,1/2+z
3 1/2+x,1/2-y,-z
4 -x,1/2+y,1/2-z
_cell_length_a                   6.4731(3)
_cell_length_b                   9.8670(4)
_cell_length_c                   41.1040(18)
_cell_angle_alpha                90
_cell_angle_beta                 90
_cell_angle_gamma                90
_cell_volume                     2625.32
_exptl_crystal_colour            colorless
_exptl_crystal_description       prism
_cell_formula_units_Z            4
loop_
_atom_site_label
_atom_site_type_symbol
_atom_site_fract_x
_atom_site_fract_y
_atom_site_fract_z
Br1 Br -0.11102(11) 0.53724(8) 0.778315(19)
Br2 Br 0.54225(17) 0.69043(9) 0.52783(2)
C1 C 0.1333(10) 0.5373(8) 0.75222(16)
C2 C 0.2082(10) 0.4156(7) 0.74120(18)
H1 H 0.1413 0.3331 0.7468
C3 C 0.3865(11) 0.4150(7) 0.72141(17)
H2 H 0.4395 0.3320 0.7132
C4 C 0.4826(9) 0.5348(7) 0.71410(14)
C5 C 0.4070(13) 0.6572(7) 0.72646(18)
H3 H 0.4751 0.7399 0.7216
C6 C 0.2329(13) 0.6570(8) 0.7458(2)
H4 H 0.1822 0.7395 0.7546
C7 C 0.6733(9) 0.5332(7) 0.69407(16)
C8 C 0.7801(12) 0.6389(8) 0.68131(17)
C9 C 0.6894(13) 0.8525(8) 0.65553(19)
C10 C 0.5237(16) 0.7756(10) 0.6377(2)
H5 H 0.5831 0.6935 0.6281
H6 H 0.4663 0.8329 0.6204
H7 H 0.4137 0.7505 0.6529
C11 C 0.8771(16) 0.8802(9) 0.6338(2)
H8 H 0.9828 0.9285 0.6463
H9 H 0.8347 0.9357 0.6152
H10 H 0.9337 0.7941 0.6259
C12 C 0.6110(16) 0.9840(7) 0.6704(2)
H11 H 0.4723 0.9698 0.6793
H12 H 0.6058 1.0544 0.6536
H13 H 0.7045 1.0126 0.6879
C13 C 0.9345(10) 0.4496(7) 0.66812(16)
C14 C 1.0887(12) 0.3612(7) 0.65406(16)
H14 H 1.1086 0.2718 0.6651
C15 C 1.1247(13) 0.3632(7) 0.61677(17)
C16 C 1.2771(11) 0.4242(8) 0.63999(17)
H15 H 1.4099 0.3762 0.6431
H16 H 1.2873 0.5243 0.6406
C17 C 0.9858(11) 0.4449(6) 0.59603(16)
C18 C 0.7821(12) 0.4050(7) 0.59128(18)
H17 H 0.7318 0.3260 0.6018
C19 C 0.6520(12) 0.4789(8) 0.57139(18)
H18 H 0.5120 0.4520 0.5689
C20 C 0.7237(14) 0.5903(8) 0.55543(17)
C21 C 0.9228(14) 0.6347(8) 0.55949(19)
H19 H 0.9707 0.7134 0.5485
C22 C 1.0522(12) 0.5627(7) 0.57987(17)
H20 H 1.1897 0.5937 0.5831
C23 C 1.1998(11) 0.2288(7) 0.60330(18)
C24 C 1.2648(14) 0.1144(8) 0.55135(19)
C25 C 1.4979(13) 0.1012(9) 0.5563(2)
H21 H 1.5663 0.1845 0.5491
H22 H 1.5498 0.0242 0.5437
H23 H 1.5272 0.0864 0.5795
C26 C 1.1565(16) -0.0150(9) 0.5604(2)
H24 H 1.2023 -0.0442 0.5820
H25 H 1.1898 -0.0854 0.5444
H26 H 1.0069 0.0002 0.5607
C27 C 1.2194(18) 0.1565(10) 0.5175(2)
H27 H 1.0728 0.1800 0.5155
H28 H 1.2514 0.0817 0.5026
H29 H 1.3039 0.2355 0.5118
N1 N 0.7718(9) 0.4128(6) 0.68499(14)
O1 O 0.7649(8) 0.7723(5) 0.68401(12)
O2 O 0.9503(8) 0.5873(5) 0.66463(11)
O3 O 1.2720(11) 0.1406(6) 0.61984(14)
O4 O 1.1879(8) 0.2296(5) 0.57125(12)
loop_
_geom_bond_atom_site_label_1
_geom_bond_atom_site_label_2
_geom_bond_site_symmetry_1
_geom_bond_site_symmetry_2
Br1 C1 1_555 1_555
Br2 C20 1_555 1_555
C1 C2 1_555 1_555
C2 H1 1_555 1_555
C3 C2 1_555 1_555
H2 C3 1_555 1_555
C4 C3 1_555 1_555
C5 C4 1_555 1_555
H3 C5 1_555 1_555
C6 C1 1_555 1_555
H4 C6 1_555 1_555
C7 C4 1_555 1_555
C8 C7 1_555 1_555
C9 C10 1_555 1_555
C10 H5 1_555 1_555
H6 C10 1_555 1_555
H7 C10 1_555 1_555
C11 C9 1_555 1_555
H8 C11 1_555 1_555
H9 C11 1_555 1_555
H10 C11 1_555 1_555
C12 C9 1_555 1_555
H11 C12 1_555 1_555
H12 C12 1_555 1_555
H13 C12 1_555 1_555
C13 C14 1_555 1_555
C14 H14 1_555 1_555
C15 C14 1_555 1_555
C16 C14 1_555 1_555
H15 C16 1_555 1_555
H16 C16 1_555 1_555
C17 C15 1_555 1_555
C18 C17 1_555 1_555
H17 C18 1_555 1_555
C19 C18 1_555 1_555
H18 C19 1_555 1_555
C20 C19 1_555 1_555
C21 C20 1_555 1_555
H19 C21 1_555 1_555
C22 C17 1_555 1_555
H20 C22 1_555 1_555
C23 C15 1_555 1_555
C24 C25 1_555 1_555
C25 H21 1_555 1_555
H22 C25 1_555 1_555
H23 C25 1_555 1_555
C26 C24 1_555 1_555
H24 C26 1_555 1_555
H25 C26 1_555 1_555
H26 C26 1_555 1_555
C27 C24 1_555 1_555
H27 C27 1_555 1_555
H28 C27 1_555 1_555
H29 C27 1_555 1_555
N1 C7 1_555 1_555
O1 C8 1_555 1_555
O2 C8 1_555 1_555
O3 C23 1_555 1_555
O4 C23 1_555 1_555
C5 C6 1_555 1_555
C9 O1 1_555 1_555
C13 N1 1_555 1_555
C13 O2 1_555 1_555
C15 C16 1_555 1_555
C21 C22 1_555 1_555
C24 O4 1_555 1_555

#END
