
#######################################################################
#
#                 Cambridge Crystallographic Data Centre
#                                CCDC 
#
#######################################################################
#
# If this CIF has been generated from an entry in the Cambridge 
# Structural Database, then it will include bibliographic, chemical, 
# crystal, experimental, refinement or atomic coordinate data resulting 
# from the CCDC's data processing and validation procedures.
#
#######################################################################

data_VICKOK
_chemical_formula_moiety         'C32 H42 Mg1 N8 O2'
_chemical_name_systematic        
bis(N-[2-(dimethylamino)ethyl]-1-(3-methyl-5-oxo-1-phenyl-1,5-dihydro-4H-pyrazol-4-ylidene)ethan-1-aminido)-magnesium(ii)
_symmetry_cell_setting           orthorhombic
_symmetry_space_group_name_H-M   'P c c n'
_symmetry_Int_Tables_number      56
_space_group_name_Hall           '-P 2ab 2ac'
loop_
_symmetry_equiv_pos_site_id
_symmetry_equiv_pos_as_xyz
1 x,y,z
2 1/2-x,1/2-y,z
3 1/2+x,-y,1/2-z
4 -x,1/2+y,1/2-z
5 -x,-y,-z
6 1/2+x,1/2+y,-z
7 1/2-x,y,1/2+z
8 x,1/2-y,1/2+z
_cell_length_a                   9.4589(2)
_cell_length_b                   21.5370(5)
_cell_length_c                   15.3073(4)
_cell_angle_alpha                90
_cell_angle_beta                 90
_cell_angle_gamma                90
_cell_volume                     3118.35
_exptl_crystal_colour            colorless
_exptl_crystal_description       plate
_cell_formula_units_Z            4
loop_
_atom_site_label
_atom_site_type_symbol
_atom_site_fract_x
_atom_site_fract_y
_atom_site_fract_z
Mg1 Mg 0.2500 0.2500 0.82955(6)
O1 O 0.32835(15) 0.30729(6) 0.74011(10)
N1 N 0.34546(17) 0.39717(7) 0.65736(11)
N2 N 0.06516(17) 0.30994(8) 0.83411(11)
N3 N 0.26662(19) 0.45032(7) 0.63972(12)
N4 N 0.1071(2) 0.19833(8) 0.93282(14)
C1 C 0.1496(2) 0.44428(9) 0.68557(14)
C2 C 0.1466(2) 0.38785(8) 0.73509(13)
C3 C 0.2759(2) 0.35843(9) 0.71468(13)
C4 C 0.4870(2) 0.39416(9) 0.62648(13)
C5 C 0.5722(2) 0.34252(10) 0.64062(15)
H1 H 0.5365 0.3077 0.6690
C6 C 0.7112(2) 0.34369(10) 0.61171(16)
H2 H 0.7689 0.3094 0.6213
C7 C 0.7654(2) 0.39488(11) 0.56897(16)
H3 H 0.8591 0.3952 0.5506
C8 C 0.6803(3) 0.44507(11) 0.55382(17)
H4 H 0.7161 0.4793 0.5241
C9 C 0.5414(2) 0.44531(10) 0.58235(15)
H5 H 0.4844 0.4797 0.5720
C10 C 0.0460(3) 0.49698(11) 0.6778(2)
H6 H 0.084(3) 0.5274(14) 0.6386(19)
H7 H -0.048(3) 0.4826(13) 0.6570(19)
H8 H 0.037(3) 0.5174(13) 0.730(2)
C11 C 0.0419(2) 0.36257(9) 0.79437(13)
C12 C -0.0937(2) 0.39810(10) 0.80874(16)
H9 H -0.0924 0.4354 0.7744
H10 H -0.1726 0.3729 0.7915
H11 H -0.1024 0.4086 0.8694
C13 C -0.0481(3) 0.28500(14) 0.8902(2)
H12 H -0.139(6) 0.286(3) 0.865(3)
H13 H -0.050(5) 0.304(2) 0.941(4)
C14 C -0.0268(3) 0.21204(14) 0.8992(2)
H14 H -0.0988 0.1952 0.9377
H15 H -0.0376 0.1927 0.8424
C15 C 0.1073(4) 0.21786(17) 1.0321(2)
H16 H 0.1981 0.2090 1.0571
H17 H 0.0881 0.2615 1.0367
H18 H 0.0357 0.1950 1.0627
C16 C 0.1425(5) 0.13130(18) 0.9367(3)
H19 H 0.2358 0.1262 0.9604
H20 H 0.0754 0.1102 0.9732
H21 H 0.1394 0.1140 0.8789
O1A O 0.17165(15) 0.19271(6) 0.74011(10)
N1A N 0.15454(17) 0.10283(7) 0.65736(11)
N2A N 0.43484(17) 0.19006(8) 0.83411(11)
N3A N 0.23338(19) 0.04968(7) 0.63972(12)
N4A N 0.3929(2) 0.30167(8) 0.93282(14)
C1A C 0.3504(2) 0.05572(9) 0.68557(14)
C2A C 0.3534(2) 0.11215(8) 0.73509(13)
C3A C 0.2241(2) 0.14157(9) 0.71468(13)
C4A C 0.0130(2) 0.10584(9) 0.62648(13)
C5A C -0.0722(2) 0.15748(10) 0.64062(15)
H1A H -0.0365 0.1923 0.6690
C6A C -0.2112(2) 0.15631(10) 0.61171(16)
H2A H -0.2689 0.1906 0.6213
C7A C -0.2654(2) 0.10512(11) 0.56897(16)
H3A H -0.3591 0.1048 0.5506
C8A C -0.1803(3) 0.05493(11) 0.55382(17)
H4A H -0.2161 0.0207 0.5241
C9A C -0.0414(2) 0.05469(10) 0.58235(15)
H5A H 0.0156 0.0203 0.5720
C10A C 0.4540(3) 0.00302(11) 0.6778(2)
H6A H 0.416(3) -0.0274(14) 0.6386(19)
H7A H 0.548(3) 0.0174(13) 0.6570(19)
H8A H 0.463(3) -0.0174(13) 0.730(2)
C11A C 0.4581(2) 0.13743(9) 0.79437(13)
C12A C 0.5937(2) 0.10190(10) 0.80874(16)
H9A H 0.5924 0.0646 0.7744
H10A H 0.6726 0.1271 0.7915
H11A H 0.6024 0.0914 0.8694
C13A C 0.5481(3) 0.21500(14) 0.8902(2)
H12A H 0.639(6) 0.214(3) 0.865(3)
H13A H 0.550(5) 0.196(2) 0.941(4)
C14A C 0.5268(3) 0.28796(14) 0.8992(2)
H14A H 0.5988 0.3048 0.9377
H15A H 0.5376 0.3073 0.8424
C15A C 0.3927(4) 0.28214(17) 1.0321(2)
H16A H 0.3019 0.2910 1.0571
H17A H 0.4119 0.2385 1.0367
H18A H 0.4643 0.3050 1.0627
C16A C 0.3575(5) 0.36870(18) 0.9367(3)
H19A H 0.2642 0.3738 0.9604
H20A H 0.4246 0.3898 0.9732
H21A H 0.3606 0.3860 0.8789
H22? H -0.082(11) 0.322(5) 0.935(8)
H23? H -0.146(13) 0.280(6) 0.835(6)
C17? C 0.0217(7) 0.2473(3) 0.9641(5)
H24? H 0.0792 0.2749 0.9994
H25? H -0.0516 0.2302 1.0014
C18? C -0.0096(8) 0.1608(3) 0.8662(5)
H26? H -0.0583 0.1906 0.8306
H27? H 0.0407 0.1322 0.8295
H28? H -0.0768 0.1385 0.9012
C19? C 0.1654(11) 0.1545(4) 0.9769(8)
H29? H 0.2173 0.1279 0.9381
H30? H 0.2287 0.1721 1.0192
H31? H 0.0938 0.1309 1.0063
loop_
_geom_bond_atom_site_label_1
_geom_bond_atom_site_label_2
_geom_bond_site_symmetry_1
_geom_bond_site_symmetry_2
Mg1 O1 1_555 1_555
O1 C3 1_555 1_555
N1 N3 1_555 1_555
N2 Mg1 1_555 1_555
N3 C1 1_555 1_555
N4 Mg1 1_555 1_555
C1 C2 1_555 1_555
C2 C3 1_555 1_555
C3 N1 1_555 1_555
C4 N1 1_555 1_555
C5 C4 1_555 1_555
H1 C5 1_555 1_555
C6 C5 1_555 1_555
H2 C6 1_555 1_555
C7 C6 1_555 1_555
H3 C7 1_555 1_555
C8 C7 1_555 1_555
H4 C8 1_555 1_555
C9 C4 1_555 1_555
H5 C9 1_555 1_555
C10 C1 1_555 1_555
H6 C10 1_555 1_555
H7 C10 1_555 1_555
H8 C10 1_555 1_555
C11 N2 1_555 1_555
C12 C11 1_555 1_555
H9 C12 1_555 1_555
H10 C12 1_555 1_555
H11 C12 1_555 1_555
C13 N2 1_555 1_555
H12 C13 1_555 1_555
H13 C13 1_555 1_555
C14 N4 1_555 1_555
H14 C14 1_555 1_555
H15 C14 1_555 1_555
C15 N4 1_555 1_555
H16 C15 1_555 1_555
H17 C15 1_555 1_555
H18 C15 1_555 1_555
C16 N4 1_555 1_555
H19 C16 1_555 1_555
H20 C16 1_555 1_555
H21 C16 1_555 1_555
O1A Mg1 1_555 1_555
N1A N3A 1_555 1_555
N2A Mg1 1_555 1_555
N3A C1A 1_555 1_555
N4A Mg1 1_555 1_555
C1A C2A 1_555 1_555
C2A C3A 1_555 1_555
C3A O1A 1_555 1_555
C4A N1A 1_555 1_555
C5A C4A 1_555 1_555
H1A C5A 1_555 1_555
C6A C5A 1_555 1_555
H2A C6A 1_555 1_555
C7A C6A 1_555 1_555
H3A C7A 1_555 1_555
C8A C7A 1_555 1_555
H4A C8A 1_555 1_555
C9A C4A 1_555 1_555
H5A C9A 1_555 1_555
C10A C1A 1_555 1_555
H6A C10A 1_555 1_555
H7A C10A 1_555 1_555
H8A C10A 1_555 1_555
C11A N2A 1_555 1_555
C12A C11A 1_555 1_555
H9A C12A 1_555 1_555
H10A C12A 1_555 1_555
H11A C12A 1_555 1_555
C13A N2A 1_555 1_555
H12A C13A 1_555 1_555
H13A C13A 1_555 1_555
C14A N4A 1_555 1_555
H14A C14A 1_555 1_555
H15A C14A 1_555 1_555
C15A N4A 1_555 1_555
H16A C15A 1_555 1_555
H17A C15A 1_555 1_555
H18A C15A 1_555 1_555
C16A N4A 1_555 1_555
H19A C16A 1_555 1_555
H20A C16A 1_555 1_555
H21A C16A 1_555 1_555
C2 C11 1_555 1_555
C8 C9 1_555 1_555
C13 C14 1_555 1_555
N1A C3A 1_555 1_555
C2A C11A 1_555 1_555
C8A C9A 1_555 1_555
C13A C14A 1_555 1_555

#END
