
#######################################################################
#
#                 Cambridge Crystallographic Data Centre
#                                CCDC 
#
#######################################################################
#
# If this CIF has been generated from an entry in the Cambridge 
# Structural Database, then it will include bibliographic, chemical, 
# crystal, experimental, refinement or atomic coordinate data resulting 
# from the CCDC's data processing and validation procedures.
#
#######################################################################

data_VICKOI
_chemical_formula_moiety         'C30 H25 N3 O3'
_chemical_name_systematic        
1',3'-dimethyl-1,3-diphenyl-3,4-dihydro-1H,2'H-spiro[benzo[f]quinoline-2,5'-pyrimidine]-2',4',6'(1'H,3'H)-trione
_symmetry_cell_setting           orthorhombic
_symmetry_space_group_name_H-M   'P c a 21'
_symmetry_Int_Tables_number      29
_space_group_name_Hall           'P 2c -2ac'
loop_
_symmetry_equiv_pos_site_id
_symmetry_equiv_pos_as_xyz
1 x,y,z
2 1/2-x,y,1/2+z
3 1/2+x,-y,z
4 -x,-y,1/2+z
_cell_length_a                   15.8386(16)
_cell_length_b                   8.5314(8)
_cell_length_c                   17.3856(18)
_cell_angle_alpha                90
_cell_angle_beta                 90
_cell_angle_gamma                90
_cell_volume                     2349.24
_exptl_crystal_colour            light-yellow
_exptl_crystal_description       block
_cell_formula_units_Z            4
loop_
_atom_site_label
_atom_site_type_symbol
_atom_site_fract_x
_atom_site_fract_y
_atom_site_fract_z
O1 O 0.31000(14) 0.0362(2) 0.70053(12)
O2 O 0.28782(18) 0.5607(3) 0.68960(15)
O3 O 0.22831(13) 0.2994(2) 0.47214(11)
N1 N 0.28457(14) 0.2966(3) 0.69815(13)
N2 N 0.26852(14) 0.4277(3) 0.57903(13)
N3 N 0.15551(14) 0.0073(3) 0.50371(12)
H1 H 0.1039 0.0289 0.4882
C1 C 0.26457(16) 0.1370(3) 0.57970(14)
C2 C 0.28994(17) 0.1513(3) 0.66418(15)
C3 C 0.28088(18) 0.4352(3) 0.65776(18)
C4 C 0.25075(17) 0.2921(3) 0.53898(15)
C5 C 0.2912(2) 0.3062(5) 0.78305(17)
H2 H 0.2440 0.3682 0.8033
H3 H 0.3447 0.3564 0.7971
H4 H 0.2892 0.2004 0.8049
C6 C 0.2715(2) 0.5764(3) 0.5364(2)
H5 H 0.3190 0.6396 0.5550
H6 H 0.2187 0.6339 0.5444
H7 H 0.2789 0.5549 0.4815
C7 C 0.33502(17) 0.0413(3) 0.53654(15)
H8 H 0.3567 -0.0388 0.5736
C8 C 0.30036(17) -0.0476(3) 0.46745(15)
C9 C 0.21448(17) -0.0570(3) 0.45383(15)
C10 C 0.18157(17) 0.0376(3) 0.58182(16)
H9 H 0.1950 -0.0653 0.6065
C11 C 0.40745(16) 0.1534(3) 0.52014(16)
C12 C 0.46586(17) 0.1871(3) 0.57796(18)
H10 H 0.4626 0.1330 0.6256
C13 C 0.52835(19) 0.2980(4) 0.5668(2)
H11 H 0.5672 0.3206 0.6069
C14 C 0.5343(2) 0.3763(4) 0.4971(2)
H12 H 0.5773 0.4523 0.4894
C15 C 0.4779(2) 0.3434(4) 0.4395(2)
H13 H 0.4821 0.3964 0.3916
C16 C 0.41490(19) 0.2338(3) 0.45056(17)
H14 H 0.3761 0.2127 0.4102
C17 C 0.18314(19) -0.1324(3) 0.38658(16)
H15 H 0.1243 -0.1316 0.3762
C18 C 0.2364(2) -0.2051(3) 0.33737(17)
H16 H 0.2145 -0.2528 0.2922
C19 C 0.32397(19) -0.2113(3) 0.35211(15)
C20 C 0.3793(2) -0.2951(3) 0.30360(17)
H17 H 0.3573 -0.3466 0.2595
C21 C 0.4639(2) -0.3037(3) 0.31884(18)
H18 H 0.5004 -0.3591 0.2851
C22 C 0.4964(2) -0.2301(4) 0.38465(18)
H19 H 0.5549 -0.2379 0.3962
C23 C 0.44428(18) -0.1474(3) 0.43221(17)
H20 H 0.4676 -0.0980 0.4763
C24 C 0.35633(17) -0.1327(3) 0.41785(15)
C25 C 0.11200(17) 0.1145(3) 0.62822(15)
C26 C 0.09618(18) 0.0629(4) 0.70252(17)
H21 H 0.1301 -0.0179 0.7240
C27 C 0.0315(2) 0.1279(4) 0.74594(18)
H22 H 0.0209 0.0907 0.7965
C28 C -0.0173(2) 0.2461(4) 0.7157(2)
H23 H -0.0618 0.2902 0.7452
C29 C -0.0013(2) 0.3012(4) 0.64166(19)
H24 H -0.0342 0.3842 0.6209
C30 C 0.06295(17) 0.2342(3) 0.59849(17)
H25 H 0.0734 0.2710 0.5478
loop_
_geom_bond_atom_site_label_1
_geom_bond_atom_site_label_2
_geom_bond_site_symmetry_1
_geom_bond_site_symmetry_2
O1 C2 1_555 1_555
O2 C3 1_555 1_555
O3 C4 1_555 1_555
N1 C2 1_555 1_555
N2 C3 1_555 1_555
N3 H1 1_555 1_555
C1 C2 1_555 1_555
C3 N1 1_555 1_555
C4 N2 1_555 1_555
C5 N1 1_555 1_555
H2 C5 1_555 1_555
H3 C5 1_555 1_555
H4 C5 1_555 1_555
C6 N2 1_555 1_555
H5 C6 1_555 1_555
H6 C6 1_555 1_555
H7 C6 1_555 1_555
C7 C1 1_555 1_555
H8 C7 1_555 1_555
C8 C7 1_555 1_555
C9 N3 1_555 1_555
C10 N3 1_555 1_555
H9 C10 1_555 1_555
C11 C7 1_555 1_555
C12 C11 1_555 1_555
H10 C12 1_555 1_555
C13 C12 1_555 1_555
H11 C13 1_555 1_555
C14 C13 1_555 1_555
H12 C14 1_555 1_555
C15 C14 1_555 1_555
H13 C15 1_555 1_555
C16 C11 1_555 1_555
H14 C16 1_555 1_555
C17 C9 1_555 1_555
H15 C17 1_555 1_555
C18 C17 1_555 1_555
H16 C18 1_555 1_555
C19 C18 1_555 1_555
C20 C19 1_555 1_555
H17 C20 1_555 1_555
C21 C20 1_555 1_555
H18 C21 1_555 1_555
C22 C21 1_555 1_555
H19 C22 1_555 1_555
C23 C22 1_555 1_555
H20 C23 1_555 1_555
C24 C8 1_555 1_555
C25 C10 1_555 1_555
C26 C25 1_555 1_555
H21 C26 1_555 1_555
C27 C26 1_555 1_555
H22 C27 1_555 1_555
C28 C27 1_555 1_555
H23 C28 1_555 1_555
C29 C28 1_555 1_555
H24 C29 1_555 1_555
C30 C25 1_555 1_555
H25 C30 1_555 1_555
C1 C4 1_555 1_555
C1 C10 1_555 1_555
C8 C9 1_555 1_555
C15 C16 1_555 1_555
C19 C24 1_555 1_555
C23 C24 1_555 1_555
C29 C30 1_555 1_555

#END
