
#######################################################################
#
#                 Cambridge Crystallographic Data Centre
#                                CCDC 
#
#######################################################################
#
# If this CIF has been generated from an entry in the Cambridge 
# Structural Database, then it will include bibliographic, chemical, 
# crystal, experimental, refinement or atomic coordinate data resulting 
# from the CCDC's data processing and validation procedures.
#
#######################################################################

data_VICKOJ
_chemical_formula_moiety         'C21 H21 Br1 O4'
_chemical_name_systematic        
'1-t-Butyl 2-phenyl 1-(4-bromophenyl)cyclopropane-1,2-dicarboxylate'
_symmetry_cell_setting           orthorhombic
_symmetry_space_group_name_H-M   'P 21 21 21'
_symmetry_Int_Tables_number      19
_space_group_name_Hall           'P 2ac 2ab'
loop_
_symmetry_equiv_pos_site_id
_symmetry_equiv_pos_as_xyz
1 x,y,z
2 1/2-x,-y,1/2+z
3 -x,1/2+y,1/2-z
4 1/2+x,1/2-y,-z
_cell_length_a                   6.0402(2)
_cell_length_b                   15.4144(4)
_cell_length_c                   20.7290(8)
_cell_angle_alpha                90
_cell_angle_beta                 90
_cell_angle_gamma                90
_cell_volume                     1930
_exptl_crystal_colour            colorless
_exptl_crystal_description       prism
_cell_formula_units_Z            4
loop_
_atom_site_label
_atom_site_type_symbol
_atom_site_fract_x
_atom_site_fract_y
_atom_site_fract_z
Br1 Br -0.11092(8) 0.26179(2) 0.335627(15)
C1 C 0.1296(5) 0.69006(17) 0.43825(11)
C2 C 0.2868(4) 0.74945(19) 0.41952(13)
H1 H 0.4221 0.7549 0.4425
C3 C 0.2435(5) 0.8010(2) 0.36642(15)
H2 H 0.3496 0.8427 0.3529
C4 C 0.0472(5) 0.79233(19) 0.33278(15)
H3 H 0.0180 0.8281 0.2965
C5 C -0.1062(5) 0.7314(2) 0.35223(14)
H4 H -0.2402 0.7249 0.3287
C6 C -0.0670(5) 0.6797(2) 0.40554(14)
H5 H -0.1731 0.6380 0.4192
C7 C 0.3213(4) 0.58479(17) 0.50264(11)
C8 C 0.3116(4) 0.54926(18) 0.56901(12)
H6 H 0.2770 0.5917 0.6041
C9 C 0.4540(4) 0.4747(2) 0.58724(14)
H7 H 0.5094 0.4724 0.6322
H8 H 0.5591 0.4526 0.5545
C10 C 0.2112(4) 0.45786(17) 0.57644(11)
C11 C 0.1386(4) 0.41133(16) 0.51692(11)
C12 C -0.0535(4) 0.43726(18) 0.48515(13)
H9 H -0.1343 0.4858 0.5007
C13 C -0.1282(5) 0.3930(2) 0.43108(12)
H10 H -0.2617 0.4098 0.4103
C14 C -0.0049(5) 0.3241(2) 0.40791(13)
C15 C 0.1884(6) 0.2982(2) 0.43718(13)
H11 H 0.2721 0.2512 0.4202
C16 C 0.2591(5) 0.34198(18) 0.49211(13)
H12 H 0.3917 0.3243 0.5130
C17 C 0.0718(4) 0.44189(17) 0.63531(11)
C18 C 0.0492(4) 0.47999(19) 0.75122(12)
C19 C -0.2022(4) 0.4875(2) 0.75402(14)
H13 H -0.2486 0.5420 0.7339
H14 H -0.2508 0.4866 0.7991
H15 H -0.2690 0.4386 0.7309
C20 C 0.1273(5) 0.3923(2) 0.77403(13)
H16 H 0.0512 0.3468 0.7496
H17 H 0.0942 0.3858 0.8201
H18 H 0.2874 0.3874 0.7672
C21 C 0.1588(5) 0.5528(2) 0.78793(14)
H19 H 0.3195 0.5496 0.7820
H20 H 0.1235 0.5475 0.8339
H21 H 0.1044 0.6086 0.7717
O1 O 0.1555(3) 0.64353(13) 0.49612(8)
O2 O 0.4465(3) 0.56557(14) 0.46046(9)
O3 O -0.0716(3) 0.38762(13) 0.63751(8)
O4 O 0.1295(3) 0.49452(12) 0.68402(8)
loop_
_geom_bond_atom_site_label_1
_geom_bond_atom_site_label_2
_geom_bond_site_symmetry_1
_geom_bond_site_symmetry_2
Br1 C14 1_555 1_555
C1 C2 1_555 1_555
C2 H1 1_555 1_555
C3 C2 1_555 1_555
H2 C3 1_555 1_555
C4 C3 1_555 1_555
H3 C4 1_555 1_555
C5 C4 1_555 1_555
H4 C5 1_555 1_555
C6 C1 1_555 1_555
H5 C6 1_555 1_555
C7 C8 1_555 1_555
C8 H6 1_555 1_555
C9 C8 1_555 1_555
H7 C9 1_555 1_555
H8 C9 1_555 1_555
C10 C8 1_555 1_555
C11 C10 1_555 1_555
C12 C11 1_555 1_555
H9 C12 1_555 1_555
C13 C12 1_555 1_555
H10 C13 1_555 1_555
C14 C13 1_555 1_555
C15 C14 1_555 1_555
H11 C15 1_555 1_555
C16 C11 1_555 1_555
H12 C16 1_555 1_555
C17 C10 1_555 1_555
C18 C19 1_555 1_555
C19 H13 1_555 1_555
H14 C19 1_555 1_555
H15 C19 1_555 1_555
C20 C18 1_555 1_555
H16 C20 1_555 1_555
H17 C20 1_555 1_555
H18 C20 1_555 1_555
C21 C18 1_555 1_555
H19 C21 1_555 1_555
H20 C21 1_555 1_555
H21 C21 1_555 1_555
O1 C1 1_555 1_555
O2 C7 1_555 1_555
O3 C17 1_555 1_555
O4 C17 1_555 1_555
C5 C6 1_555 1_555
C7 O1 1_555 1_555
C9 C10 1_555 1_555
C15 C16 1_555 1_555
C18 O4 1_555 1_555

#END
