
#######################################################################
#
#                 Cambridge Crystallographic Data Centre
#                                CCDC 
#
#######################################################################
#
# If this CIF has been generated from an entry in the Cambridge 
# Structural Database, then it will include bibliographic, chemical, 
# crystal, experimental, refinement or atomic coordinate data resulting 
# from the CCDC's data processing and validation procedures.
#
#######################################################################

data_VICLEB
_chemical_formula_moiety         'C46 H56 Mg2 N8 O4'
_chemical_name_systematic        
bis(\m-phenylmethanolato)-bis(N-[2-(dimethylamino)ethyl]-1-(3-methyl-5-oxo-1-phenyl-1,5-dihydro-4H-pyrazol-4-ylidene)ethan-1-aminido)-di-magnesium(ii)
_symmetry_cell_setting           triclinic
_symmetry_space_group_name_H-M   'P -1'
_symmetry_Int_Tables_number      2
_space_group_name_Hall           '-P 1'
loop_
_symmetry_equiv_pos_site_id
_symmetry_equiv_pos_as_xyz
1 x,y,z
2 -x,-y,-z
_cell_length_a                   9.2905(4)
_cell_length_b                   11.3860(5)
_cell_length_c                   11.8181(5)
_cell_angle_alpha                87.612(2)
_cell_angle_beta                 78.857(2)
_cell_angle_gamma                67.979(2)
_cell_volume                     1136.44
_exptl_crystal_colour            colorless
_exptl_crystal_description       block
_cell_formula_units_Z            1
loop_
_atom_site_label
_atom_site_type_symbol
_atom_site_fract_x
_atom_site_fract_y
_atom_site_fract_z
Mg1 Mg 0.01328(17) 0.94438(13) 0.38548(12)
O1 O 0.0904(3) 1.0441(3) 0.2652(2)
O2 O 0.1548(3) 0.9490(3) 0.4904(2)
N1 N 0.0331(4) 1.2058(3) 0.1352(3)
N2 N -0.0674(5) 1.2531(4) 0.0560(3)
N3 N -0.1211(4) 0.9167(4) 0.2664(3)
N4 N 0.0278(4) 0.7459(3) 0.4201(3)
C1 C -0.1490(5) 1.1797(5) 0.0623(4)
C2 C -0.1101(5) 1.0849(4) 0.1454(3)
C3 C 0.0100(5) 1.1039(4) 0.1907(3)
C4 C 0.1397(6) 1.2645(4) 0.1448(4)
C5 C 0.2623(6) 1.2114(5) 0.2020(4)
H1 H 0.2776 1.1337 0.2362
C6 C 0.3641(7) 1.2728(6) 0.2094(5)
H2 H 0.4458 1.2370 0.2500
C7 C 0.3448(8) 1.3856(6) 0.1572(6)
H3 H 0.4133 1.4267 0.1617
C8 C 0.2258(10) 1.4366(6) 0.0994(6)
H4 H 0.2133 1.5129 0.0632
C9 C 0.1223(8) 1.3786(5) 0.0927(5)
H5 H 0.0401 1.4161 0.0528
C10 C -0.2638(6) 1.2205(5) -0.0221(4)
H6 H -0.3222 1.1658 -0.0162
H7 H -0.3359 1.3063 -0.0036
H8 H -0.2053 1.2150 -0.0994
C11 C -0.1647(5) 0.9831(4) 0.1784(4)
C12 C -0.2660(6) 0.9430(5) 0.1123(4)
H9 H -0.2909 0.9985 0.0495
H10 H -0.2085 0.8575 0.0826
H11 H -0.3620 0.9478 0.1633
C13 C -0.1693(6) 0.8079(5) 0.2931(4)
H12 H -0.1135 0.7416 0.2338
H13 H -0.2819 0.8337 0.2955
C14 C -0.1302(6) 0.7581(5) 0.4105(5)
H14 H -0.2063 0.8157 0.4713
H15 H -0.1394 0.6761 0.4210
C15 C 0.0524(6) 0.7088(5) 0.5380(4)
H16 H 0.1571 0.7006 0.5449
H17 H -0.0240 0.7725 0.5925
H18 H 0.0403 0.6292 0.5533
C16 C 0.1479(7) 0.6489(5) 0.3385(5)
H19 H 0.2513 0.6428 0.3467
H20 H 0.1378 0.5687 0.3541
H21 H 0.1334 0.6717 0.2612
C17 C 0.314(3) 0.9357(18) 0.4599(16)
H22 H 0.3508 0.9492 0.5277
H23 H 0.3238 0.9987 0.4044
C18 C 0.4172(5) 0.7993(5) 0.4060(5)
C19 C 0.4995(7) 0.6899(7) 0.4539(6)
H24 H 0.4899 0.6861 0.5336
C20 C 0.5971(8) 0.5846(7) 0.3849(9)
H25 H 0.6523 0.5100 0.4183
C21 C 0.6127(8) 0.5897(7) 0.2675(8)
H26 H 0.6796 0.5189 0.2211
C22 C 0.5313(7) 0.6972(7) 0.2192(6)
H27 H 0.5410 0.7008 0.1394
C23 C 0.4342(6) 0.8010(5) 0.2879(5)
H28 H 0.3781 0.8748 0.2538
Mg1A Mg -0.01328(17) 1.05562(13) 0.61452(12)
O1A O -0.0904(3) 0.9559(3) 0.7348(2)
O2A O -0.1548(3) 1.0510(3) 0.5096(2)
N1A N -0.0331(4) 0.7942(3) 0.8648(3)
N2A N 0.0674(5) 0.7469(4) 0.9440(3)
N3A N 0.1211(4) 1.0833(4) 0.7336(3)
N4A N -0.0278(4) 1.2541(3) 0.5799(3)
C1A C 0.1490(5) 0.8203(5) 0.9377(4)
C2A C 0.1101(5) 0.9151(4) 0.8546(3)
C3A C -0.0100(5) 0.8961(4) 0.8093(3)
C4A C -0.1397(6) 0.7355(4) 0.8552(4)
C5A C -0.2623(6) 0.7886(5) 0.7980(4)
H1A H -0.2776 0.8663 0.7638
C6A C -0.3641(7) 0.7272(6) 0.7906(5)
H2A H -0.4458 0.7630 0.7500
C7A C -0.3448(8) 0.6144(6) 0.8428(6)
H3A H -0.4133 0.5733 0.8383
C8A C -0.2258(10) 0.5634(6) 0.9006(6)
H4A H -0.2133 0.4871 0.9368
C9A C -0.1223(8) 0.6214(5) 0.9073(5)
H5A H -0.0401 0.5839 0.9472
C10A C 0.2638(6) 0.7795(5) 1.0221(4)
H6A H 0.3222 0.8342 1.0162
H7A H 0.3359 0.6937 1.0036
H8A H 0.2053 0.7850 1.0994
C11A C 0.1647(5) 1.0169(4) 0.8216(4)
C12A C 0.2660(6) 1.0570(5) 0.8877(4)
H9A H 0.2909 1.0015 0.9505
H10A H 0.2085 1.1425 0.9174
H11A H 0.3620 1.0522 0.8367
C13A C 0.1693(6) 1.1921(5) 0.7069(4)
H12A H 0.1135 1.2584 0.7662
H13A H 0.2819 1.1663 0.7045
C14A C 0.1302(6) 1.2419(5) 0.5895(5)
H14A H 0.2063 1.1843 0.5287
H15A H 0.1394 1.3239 0.5790
C15A C -0.0524(6) 1.2912(5) 0.4620(4)
H16A H -0.1571 1.2994 0.4551
H17A H 0.0240 1.2275 0.4075
H18A H -0.0403 1.3708 0.4467
C16A C -0.1479(7) 1.3511(5) 0.6615(5)
H19A H -0.2513 1.3572 0.6533
H20A H -0.1378 1.4313 0.6459
H21A H -0.1334 1.3283 0.7388
C17A C -0.314(3) 1.0643(18) 0.5401(16)
H22A H -0.3508 1.0508 0.4723
H23A H -0.3238 1.0013 0.5956
C18A C -0.4172(5) 1.2007(5) 0.5940(5)
C19A C -0.4995(7) 1.3101(7) 0.5461(6)
H24A H -0.4899 1.3139 0.4664
C20A C -0.5971(8) 1.4154(7) 0.6151(9)
H25A H -0.6523 1.4900 0.5817
C21A C -0.6127(8) 1.4103(7) 0.7325(8)
H26A H -0.6796 1.4811 0.7789
C22A C -0.5313(7) 1.3028(7) 0.7808(6)
H27A H -0.5410 1.2992 0.8606
C23A C -0.4342(6) 1.1990(5) 0.7121(5)
H28A H -0.3781 1.1252 0.7462
C24? C 0.318(3) 0.893(2) 0.4988(18)
H29? H 0.3260 0.8527 0.5724
H30? H 0.3589 0.9602 0.4979
loop_
_geom_bond_atom_site_label_1
_geom_bond_atom_site_label_2
_geom_bond_site_symmetry_1
_geom_bond_site_symmetry_2
Mg1 O1 1_555 1_555
O1 C3 1_555 1_555
O2 Mg1 1_555 1_555
N1 N2 1_555 1_555
N2 C1 1_555 1_555
N3 Mg1 1_555 1_555
N4 Mg1 1_555 1_555
C1 C2 1_555 1_555
C2 C3 1_555 1_555
C3 N1 1_555 1_555
C4 N1 1_555 1_555
C5 C4 1_555 1_555
H1 C5 1_555 1_555
C6 C5 1_555 1_555
H2 C6 1_555 1_555
C7 C6 1_555 1_555
H3 C7 1_555 1_555
C8 C7 1_555 1_555
H4 C8 1_555 1_555
C9 C4 1_555 1_555
H5 C9 1_555 1_555
C10 C1 1_555 1_555
H6 C10 1_555 1_555
H7 C10 1_555 1_555
H8 C10 1_555 1_555
C11 N3 1_555 1_555
C12 C11 1_555 1_555
H9 C12 1_555 1_555
H10 C12 1_555 1_555
H11 C12 1_555 1_555
C13 N3 1_555 1_555
H12 C13 1_555 1_555
H13 C13 1_555 1_555
C14 N4 1_555 1_555
H14 C14 1_555 1_555
H15 C14 1_555 1_555
C15 N4 1_555 1_555
H16 C15 1_555 1_555
H17 C15 1_555 1_555
H18 C15 1_555 1_555
C16 N4 1_555 1_555
H19 C16 1_555 1_555
H20 C16 1_555 1_555
H21 C16 1_555 1_555
C17 O2 1_555 1_555
H22 C17 1_555 1_555
H23 C17 1_555 1_555
C18 C17 1_555 1_555
C19 C18 1_555 1_555
H24 C19 1_555 1_555
C20 C19 1_555 1_555
H25 C20 1_555 1_555
C21 C20 1_555 1_555
H26 C21 1_555 1_555
C22 C21 1_555 1_555
H27 C22 1_555 1_555
C23 C18 1_555 1_555
H28 C23 1_555 1_555
Mg1A O2 1_555 1_555
O1A Mg1A 1_555 1_555
O2A Mg1 1_555 1_555
N1A N2A 1_555 1_555
N2A C1A 1_555 1_555
N3A Mg1A 1_555 1_555
N4A Mg1A 1_555 1_555
C1A C2A 1_555 1_555
C2A C3A 1_555 1_555
C3A O1A 1_555 1_555
C4A N1A 1_555 1_555
C5A C4A 1_555 1_555
H1A C5A 1_555 1_555
C6A C5A 1_555 1_555
H2A C6A 1_555 1_555
C7A C6A 1_555 1_555
H3A C7A 1_555 1_555
C8A C7A 1_555 1_555
H4A C8A 1_555 1_555
C9A C4A 1_555 1_555
H5A C9A 1_555 1_555
C10A C1A 1_555 1_555
H6A C10A 1_555 1_555
H7A C10A 1_555 1_555
H8A C10A 1_555 1_555
C11A N3A 1_555 1_555
C12A C11A 1_555 1_555
H9A C12A 1_555 1_555
H10A C12A 1_555 1_555
H11A C12A 1_555 1_555
C13A N3A 1_555 1_555
H12A C13A 1_555 1_555
H13A C13A 1_555 1_555
C14A N4A 1_555 1_555
H14A C14A 1_555 1_555
H15A C14A 1_555 1_555
C15A N4A 1_555 1_555
H16A C15A 1_555 1_555
H17A C15A 1_555 1_555
H18A C15A 1_555 1_555
C16A N4A 1_555 1_555
H19A C16A 1_555 1_555
H20A C16A 1_555 1_555
H21A C16A 1_555 1_555
C17A O2A 1_555 1_555
H22A C17A 1_555 1_555
H23A C17A 1_555 1_555
C18A C17A 1_555 1_555
C19A C18A 1_555 1_555
H24A C19A 1_555 1_555
C20A C19A 1_555 1_555
H25A C20A 1_555 1_555
C21A C20A 1_555 1_555
H26A C21A 1_555 1_555
C22A C21A 1_555 1_555
H27A C22A 1_555 1_555
C23A C18A 1_555 1_555
H28A C23A 1_555 1_555
C2 C11 1_555 1_555
C8 C9 1_555 1_555
C13 C14 1_555 1_555
C22 C23 1_555 1_555
Mg1A O2A 1_555 1_555
N1A C3A 1_555 1_555
C2A C11A 1_555 1_555
C8A C9A 1_555 1_555
C13A C14A 1_555 1_555
C22A C23A 1_555 1_555

#END
