
#######################################################################
#
#                 Cambridge Crystallographic Data Centre
#                                CCDC 
#
#######################################################################
#
# If this CIF has been generated from an entry in the Cambridge 
# Structural Database, then it will include bibliographic, chemical, 
# crystal, experimental, refinement or atomic coordinate data resulting 
# from the CCDC's data processing and validation procedures.
#
#######################################################################

data_VICLAX
_chemical_formula_moiety         'C50 H64 Mg2 N8 O4'
_chemical_name_systematic        
bis(\m-phenylmethanolato)-bis(N-[2-(dimethylamino)ethyl]-2-methyl-1-(3-methyl-5-oxo-1-phenyl-1,5-dihydro-4H-pyrazol-4-ylidene)propan-1-aminido)-di-manganese(ii)
_symmetry_cell_setting           monoclinic
_symmetry_space_group_name_H-M   'P 21/c'
_symmetry_Int_Tables_number      14
_space_group_name_Hall           '-P 2ybc'
loop_
_symmetry_equiv_pos_site_id
_symmetry_equiv_pos_as_xyz
1 x,y,z
2 -x,1/2+y,1/2-z
3 -x,-y,-z
4 x,1/2-y,1/2+z
_cell_length_a                   11.9373(4)
_cell_length_b                   18.0926(6)
_cell_length_c                   11.3573(4)
_cell_angle_alpha                90
_cell_angle_beta                 99.666(2)
_cell_angle_gamma                90
_cell_volume                     2418.09
_exptl_crystal_colour            colorless
_exptl_crystal_description       block
_cell_formula_units_Z            2
loop_
_atom_site_label
_atom_site_type_symbol
_atom_site_fract_x
_atom_site_fract_y
_atom_site_fract_z
Mg1 Mg 0.06909(6) 0.00663(4) 0.12111(7)
O1 O 0.17322(13) 0.09297(9) 0.13544(14)
O2 O -0.06039(13) 0.05801(8) 0.01981(14)
N1 N 0.35013(17) 0.12804(11) 0.09368(18)
N2 N 0.45963(17) 0.09945(12) 0.1038(2)
N3 N 0.19979(18) -0.04782(12) 0.24995(18)
N4 N -0.03608(17) -0.05074(11) 0.23876(17)
C1 C 0.4580(2) 0.03666(14) 0.1623(2)
C2 C 0.3480(2) 0.02100(13) 0.1908(2)
C3 C 0.2793(2) 0.08044(12) 0.1406(2)
C4 C 0.3256(2) 0.19624(13) 0.0347(2)
C5 C 0.2427(2) 0.24214(15) 0.0633(3)
H1 H 0.2006 0.2283 0.1216
C6 C 0.2219(3) 0.30913(17) 0.0049(3)
H2 H 0.1655 0.3400 0.0244
C7 C 0.2829(3) 0.33076(18) -0.0808(3)
H3 H 0.2682 0.3759 -0.1194
C8 C 0.3651(3) 0.28531(18) -0.1089(3)
H4 H 0.4068 0.2997 -0.1672
C9 C 0.3879(3) 0.21796(16) -0.0521(2)
H5 H 0.4445 0.1875 -0.0720
C10 C 0.5659(2) -0.00766(17) 0.1800(3)
H6 H 0.5556 -0.0520 0.2232
H7 H 0.5849 -0.0203 0.1036
H8 H 0.6263 0.0210 0.2244
C11 C 0.3084(2) -0.03656(13) 0.2615(2)
C12 C 0.3992(2) -0.07686(15) 0.3495(2)
H9 H 0.4711 -0.0525 0.3423
C13 C 0.3857(3) -0.0670(2) 0.4804(3)
H10 H 0.3766 -0.0154 0.4966
H11 H 0.3201 -0.0937 0.4952
H12 H 0.4521 -0.0855 0.5313
C14 C 0.4143(3) -0.15741(17) 0.3155(4)
H13 H 0.4720 -0.1799 0.3734
H14 H 0.3439 -0.1834 0.3134
H15 H 0.4366 -0.1596 0.2382
C15 C 0.1515(2) -0.09982(19) 0.3277(3)
H16 H 0.1562 -0.0786 0.4068
H17 H 0.1950 -0.1453 0.3349
C16 C 0.0307(2) -0.11611(16) 0.2775(3)
H18 H 0.0284 -0.1492 0.2099
H19 H -0.0038 -0.1415 0.3375
C17 C -0.0612(4) -0.00518(18) 0.3365(3)
H20 H -0.1053 0.0368 0.3047
H21 H -0.1035 -0.0336 0.3853
H22 H 0.0086 0.0113 0.3838
C18 C -0.1461(3) -0.0752(2) 0.1699(3)
H23 H -0.1918 -0.0327 0.1434
H24 H -0.1330 -0.1034 0.1019
H25 H -0.1851 -0.1053 0.2197
C19 C -0.0925(3) 0.13291(14) 0.0217(2)
H26 H -0.1545 0.1420 -0.0436
H27 H -0.0289 0.1636 0.0091
C20 C -0.1291(2) 0.15502(13) 0.1370(2)
C21 C -0.0500(3) 0.17831(14) 0.2329(3)
H28 H 0.0263 0.1811 0.2254
C22 C -0.0829(3) 0.19753(15) 0.3400(3)
H29 H -0.0290 0.2131 0.4039
C23 C -0.1948(3) 0.19357(17) 0.3517(3)
H30 H -0.2169 0.2067 0.4236
C24 C -0.2740(3) 0.17044(17) 0.2584(3)
H31 H -0.3500 0.1673 0.2669
C25 C -0.2416(3) 0.15166(16) 0.1513(3)
H32 H -0.2964 0.1365 0.0878
Mg1B Mg -0.06909(6) -0.00663(4) -0.12111(7)
O1B O -0.17322(13) -0.09297(9) -0.13544(14)
O2B O 0.06039(13) -0.05801(8) -0.01981(14)
N1B N -0.35013(17) -0.12804(11) -0.09368(18)
N2B N -0.45963(17) -0.09945(12) -0.1038(2)
N3B N -0.19979(18) 0.04782(12) -0.24995(18)
N4B N 0.03608(17) 0.05074(11) -0.23876(17)
C1B C -0.4580(2) -0.03666(14) -0.1623(2)
C2B C -0.3480(2) -0.02100(13) -0.1908(2)
C3B C -0.2793(2) -0.08044(12) -0.1406(2)
C4B C -0.3256(2) -0.19624(13) -0.0347(2)
C5B C -0.2427(2) -0.24214(15) -0.0633(3)
H1B H -0.2006 -0.2283 -0.1216
C6B C -0.2219(3) -0.30913(17) -0.0049(3)
H2B H -0.1655 -0.3400 -0.0244
C7B C -0.2829(3) -0.33076(18) 0.0808(3)
H3B H -0.2682 -0.3759 0.1194
C8B C -0.3651(3) -0.28531(18) 0.1089(3)
H4B H -0.4068 -0.2997 0.1672
C9B C -0.3879(3) -0.21796(16) 0.0521(2)
H5B H -0.4445 -0.1875 0.0720
C10B C -0.5659(2) 0.00766(17) -0.1800(3)
H6B H -0.5556 0.0520 -0.2232
H7B H -0.5849 0.0203 -0.1036
H8B H -0.6263 -0.0210 -0.2244
C11B C -0.3084(2) 0.03656(13) -0.2615(2)
C12B C -0.3992(2) 0.07686(15) -0.3495(2)
H9B H -0.4711 0.0525 -0.3423
C13B C -0.3857(3) 0.0670(2) -0.4804(3)
H10B H -0.3766 0.0154 -0.4966
H11B H -0.3201 0.0937 -0.4952
H12B H -0.4521 0.0855 -0.5313
C14B C -0.4143(3) 0.15741(17) -0.3155(4)
H13B H -0.4720 0.1799 -0.3734
H14B H -0.3439 0.1834 -0.3134
H15B H -0.4366 0.1596 -0.2382
C15B C -0.1515(2) 0.09982(19) -0.3277(3)
H16B H -0.1562 0.0786 -0.4068
H17B H -0.1950 0.1453 -0.3349
C16B C -0.0307(2) 0.11611(16) -0.2775(3)
H18B H -0.0284 0.1492 -0.2099
H19B H 0.0038 0.1415 -0.3375
C17B C 0.0612(4) 0.00518(18) -0.3365(3)
H20B H 0.1053 -0.0368 -0.3047
H21B H 0.1035 0.0336 -0.3853
H22B H -0.0086 -0.0113 -0.3838
C18B C 0.1461(3) 0.0752(2) -0.1699(3)
H23B H 0.1918 0.0327 -0.1434
H24B H 0.1330 0.1034 -0.1019
H25B H 0.1851 0.1053 -0.2197
C19B C 0.0925(3) -0.13291(14) -0.0217(2)
H26B H 0.1545 -0.1420 0.0436
H27B H 0.0289 -0.1636 -0.0091
C20B C 0.1291(2) -0.15502(13) -0.1370(2)
C21B C 0.0500(3) -0.17831(14) -0.2329(3)
H28B H -0.0263 -0.1811 -0.2254
C22B C 0.0829(3) -0.19753(15) -0.3400(3)
H29B H 0.0290 -0.2131 -0.4039
C23B C 0.1948(3) -0.19357(17) -0.3517(3)
H30B H 0.2169 -0.2067 -0.4236
C24B C 0.2740(3) -0.17044(17) -0.2584(3)
H31B H 0.3500 -0.1673 -0.2669
C25B C 0.2416(3) -0.15166(16) -0.1513(3)
H32B H 0.2964 -0.1365 -0.0878
loop_
_geom_bond_atom_site_label_1
_geom_bond_atom_site_label_2
_geom_bond_site_symmetry_1
_geom_bond_site_symmetry_2
Mg1 O1 1_555 1_555
O1 C3 1_555 1_555
O2 Mg1 1_555 1_555
N1 N2 1_555 1_555
N2 C1 1_555 1_555
N3 Mg1 1_555 1_555
N4 Mg1 1_555 1_555
C1 C2 1_555 1_555
C2 C3 1_555 1_555
C3 N1 1_555 1_555
C4 N1 1_555 1_555
C5 C4 1_555 1_555
H1 C5 1_555 1_555
C6 C5 1_555 1_555
H2 C6 1_555 1_555
C7 C6 1_555 1_555
H3 C7 1_555 1_555
C8 C7 1_555 1_555
H4 C8 1_555 1_555
C9 C4 1_555 1_555
H5 C9 1_555 1_555
C10 C1 1_555 1_555
H6 C10 1_555 1_555
H7 C10 1_555 1_555
H8 C10 1_555 1_555
C11 N3 1_555 1_555
C12 C11 1_555 1_555
H9 C12 1_555 1_555
C13 C12 1_555 1_555
H10 C13 1_555 1_555
H11 C13 1_555 1_555
H12 C13 1_555 1_555
C14 C12 1_555 1_555
H13 C14 1_555 1_555
H14 C14 1_555 1_555
H15 C14 1_555 1_555
C15 N3 1_555 1_555
H16 C15 1_555 1_555
H17 C15 1_555 1_555
C16 N4 1_555 1_555
H18 C16 1_555 1_555
H19 C16 1_555 1_555
C17 N4 1_555 1_555
H20 C17 1_555 1_555
H21 C17 1_555 1_555
H22 C17 1_555 1_555
C18 N4 1_555 1_555
H23 C18 1_555 1_555
H24 C18 1_555 1_555
H25 C18 1_555 1_555
C19 O2 1_555 1_555
H26 C19 1_555 1_555
H27 C19 1_555 1_555
C20 C19 1_555 1_555
C21 C20 1_555 1_555
H28 C21 1_555 1_555
C22 C21 1_555 1_555
H29 C22 1_555 1_555
C23 C22 1_555 1_555
H30 C23 1_555 1_555
C24 C23 1_555 1_555
H31 C24 1_555 1_555
C25 C20 1_555 1_555
H32 C25 1_555 1_555
Mg1B O2 1_555 1_555
O1B Mg1B 1_555 1_555
O2B Mg1 1_555 1_555
N1B N2B 1_555 1_555
N2B C1B 1_555 1_555
N3B Mg1B 1_555 1_555
N4B Mg1B 1_555 1_555
C1B C2B 1_555 1_555
C2B C3B 1_555 1_555
C3B O1B 1_555 1_555
C4B N1B 1_555 1_555
C5B C4B 1_555 1_555
H1B C5B 1_555 1_555
C6B C5B 1_555 1_555
H2B C6B 1_555 1_555
C7B C6B 1_555 1_555
H3B C7B 1_555 1_555
C8B C7B 1_555 1_555
H4B C8B 1_555 1_555
C9B C4B 1_555 1_555
H5B C9B 1_555 1_555
C10B C1B 1_555 1_555
H6B C10B 1_555 1_555
H7B C10B 1_555 1_555
H8B C10B 1_555 1_555
C11B N3B 1_555 1_555
C12B C11B 1_555 1_555
H9B C12B 1_555 1_555
C13B C12B 1_555 1_555
H10B C13B 1_555 1_555
H11B C13B 1_555 1_555
H12B C13B 1_555 1_555
C14B C12B 1_555 1_555
H13B C14B 1_555 1_555
H14B C14B 1_555 1_555
H15B C14B 1_555 1_555
C15B N3B 1_555 1_555
H16B C15B 1_555 1_555
H17B C15B 1_555 1_555
C16B N4B 1_555 1_555
H18B C16B 1_555 1_555
H19B C16B 1_555 1_555
C17B N4B 1_555 1_555
H20B C17B 1_555 1_555
H21B C17B 1_555 1_555
H22B C17B 1_555 1_555
C18B N4B 1_555 1_555
H23B C18B 1_555 1_555
H24B C18B 1_555 1_555
H25B C18B 1_555 1_555
C19B O2B 1_555 1_555
H26B C19B 1_555 1_555
H27B C19B 1_555 1_555
C20B C19B 1_555 1_555
C21B C20B 1_555 1_555
H28B C21B 1_555 1_555
C22B C21B 1_555 1_555
H29B C22B 1_555 1_555
C23B C22B 1_555 1_555
H30B C23B 1_555 1_555
C24B C23B 1_555 1_555
H31B C24B 1_555 1_555
C25B C20B 1_555 1_555
H32B C25B 1_555 1_555
C2 C11 1_555 1_555
C8 C9 1_555 1_555
C15 C16 1_555 1_555
C24 C25 1_555 1_555
Mg1B O2B 1_555 1_555
N1B C3B 1_555 1_555
C2B C11B 1_555 1_555
C8B C9B 1_555 1_555
C15B C16B 1_555 1_555
C24B C25B 1_555 1_555

#END
