
#######################################################################
#
#                 Cambridge Crystallographic Data Centre
#                                CCDC 
#
#######################################################################
#
# If this CIF has been generated from an entry in the Cambridge 
# Structural Database, then it will include bibliographic, chemical, 
# crystal, experimental, refinement or atomic coordinate data resulting 
# from the CCDC's data processing and validation procedures.
#
#######################################################################

data_VICSEH
_chemical_formula_moiety         'C27 H28 Br1 N3 O6'
_chemical_name_systematic        
"1-t-Butyl 1'-ethyl 3'-(3-bromophenyl)-2,7'-dioxo-6',7'-dihydro-5'H-spiro[indole-3,2'-pyrazolo[1,2-a]pyrazole]-1,1'(2H)-dicarboxylate"
_symmetry_cell_setting           orthorhombic
_symmetry_space_group_name_H-M   'P 21 21 21'
_symmetry_Int_Tables_number      19
_space_group_name_Hall           'P 2ac 2ab'
loop_
_symmetry_equiv_pos_site_id
_symmetry_equiv_pos_as_xyz
1 x,y,z
2 1/2-x,-y,1/2+z
3 -x,1/2+y,1/2-z
4 1/2+x,1/2-y,-z
_cell_length_a                   9.930(2)
_cell_length_b                   11.163(3)
_cell_length_c                   24.219(6)
_cell_angle_alpha                90
_cell_angle_beta                 90
_cell_angle_gamma                90
_cell_volume                     2684.64
_exptl_crystal_colour            colorless
_exptl_crystal_description       block
_cell_formula_units_Z            4
loop_
_atom_site_label
_atom_site_type_symbol
_atom_site_fract_x
_atom_site_fract_y
_atom_site_fract_z
Br1 Br 0.45412(5) 0.38645(4) 0.791618(14)
O1 O 0.0367(3) 0.20865(18) 0.68382(9)
O2 O 0.0805(4) 0.05149(18) 0.62917(10)
O3 O 0.0577(2) 0.42497(16) 0.63918(8)
O4 O 0.1051(2) 0.79681(18) 0.52683(9)
O5 O 0.0718(2) 0.5409(2) 0.43661(9)
O6 O 0.2786(2) 0.59695(17) 0.46511(7)
N1 N 0.1805(2) 0.62652(18) 0.56797(9)
N2 N 0.2918(2) 0.58634(18) 0.60251(8)
N3 N 0.1097(2) 0.24187(19) 0.59773(9)
C1 C 0.1828(3) 0.7453(2) 0.55763(11)
C2 C 0.2995(4) 0.7957(3) 0.59075(14)
H1 H 0.2697 0.8257 0.6263
H2 H 0.3450 0.8593 0.5709
C3 C 0.3900(3) 0.6858(2) 0.59726(13)
H3 H 0.4473 0.6751 0.5652
H4 H 0.4459 0.6922 0.6300
C4 C 0.3319(3) 0.4702(2) 0.57923(10)
H5 H 0.3943 0.4837 0.5485
C5 C 0.1966(3) 0.4191(2) 0.55609(10)
C6 C 0.1251(3) 0.5330(2) 0.53307(11)
H6 H 0.0277 0.5267 0.5390
C7 C 0.1539(3) 0.5578(2) 0.47225(11)
C8 C 0.3183(4) 0.6389(3) 0.41024(12)
H7 H 0.2646 0.5989 0.3823
H8 H 0.4122 0.6199 0.4037
C9 C 0.2979(5) 0.7708(3) 0.40645(16)
H9 H 0.2058 0.7896 0.4149
H10 H 0.3184 0.7973 0.3697
H11 H 0.3562 0.8104 0.4323
C10 C 0.2147(3) 0.3121(2) 0.51897(11)
C11 C 0.2772(3) 0.3018(3) 0.46748(12)
H12 H 0.3131 0.3689 0.4501
C12 C 0.2849(3) 0.1901(3) 0.44274(12)
H13 H 0.3258 0.1822 0.4084
C13 C 0.2327(4) 0.0911(3) 0.46854(13)
H14 H 0.2382 0.0172 0.4509
C14 C 0.1715(3) 0.0976(2) 0.52049(13)
H15 H 0.1368 0.0300 0.5378
C15 C 0.1650(3) 0.2099(2) 0.54488(11)
C16 C 0.1132(3) 0.3681(2) 0.60399(11)
C17 C 0.0738(4) 0.1562(2) 0.63820(12)
C18 C 0.0033(4) 0.1356(3) 0.73387(13)
C19 C -0.0345(8) 0.2289(4) 0.77546(17)
H16 H 0.0389 0.2840 0.7801
H17 H -0.0540 0.1911 0.8102
H18 H -0.1126 0.2715 0.7628
C20 C 0.1310(5) 0.0694(4) 0.75186(17)
H19 H 0.1527 0.0089 0.7251
H20 H 0.1161 0.0325 0.7871
H21 H 0.2042 0.1253 0.7546
C21 C -0.1113(5) 0.0507(4) 0.72192(16)
H22 H -0.1886 0.0955 0.7101
H23 H -0.1332 0.0067 0.7548
H24 H -0.0850 -0.0041 0.6933
C22 C 0.4603(3) 0.2839(3) 0.60561(12)
H25 H 0.4656 0.2649 0.5683
C23 C 0.3993(3) 0.3907(2) 0.62175(10)
C24 C 0.3963(3) 0.4207(2) 0.67763(11)
H26 H 0.3566 0.4918 0.6893
C25 C 0.4540(3) 0.3421(3) 0.71578(12)
C26 C 0.5116(4) 0.2354(3) 0.69974(14)
H27 H 0.5489 0.1839 0.7258
C27 C 0.5129(4) 0.2059(3) 0.64408(14)
H28 H 0.5495 0.1333 0.6327
loop_
_geom_bond_atom_site_label_1
_geom_bond_atom_site_label_2
_geom_bond_site_symmetry_1
_geom_bond_site_symmetry_2
Br1 C25 1_555 1_555
O1 C17 1_555 1_555
O2 C17 1_555 1_555
O3 C16 1_555 1_555
O4 C1 1_555 1_555
O5 C7 1_555 1_555
O6 C7 1_555 1_555
N1 N2 1_555 1_555
N2 C3 1_555 1_555
N3 C15 1_555 1_555
C1 N1 1_555 1_555
C2 C1 1_555 1_555
H1 C2 1_555 1_555
H2 C2 1_555 1_555
C3 C2 1_555 1_555
H3 C3 1_555 1_555
H4 C3 1_555 1_555
C4 N2 1_555 1_555
H5 C4 1_555 1_555
C5 C4 1_555 1_555
C6 N1 1_555 1_555
H6 C6 1_555 1_555
C7 C6 1_555 1_555
C8 O6 1_555 1_555
H7 C8 1_555 1_555
H8 C8 1_555 1_555
C9 C8 1_555 1_555
H9 C9 1_555 1_555
H10 C9 1_555 1_555
H11 C9 1_555 1_555
C10 C5 1_555 1_555
C11 C10 1_555 1_555
H12 C11 1_555 1_555
C12 C11 1_555 1_555
H13 C12 1_555 1_555
C13 C12 1_555 1_555
H14 C13 1_555 1_555
C14 C13 1_555 1_555
H15 C14 1_555 1_555
C15 C10 1_555 1_555
C16 N3 1_555 1_555
C17 N3 1_555 1_555
C18 O1 1_555 1_555
C19 C18 1_555 1_555
H16 C19 1_555 1_555
H17 C19 1_555 1_555
H18 C19 1_555 1_555
C20 C18 1_555 1_555
H19 C20 1_555 1_555
H20 C20 1_555 1_555
H21 C20 1_555 1_555
C21 C18 1_555 1_555
H22 C21 1_555 1_555
H23 C21 1_555 1_555
H24 C21 1_555 1_555
C22 H25 1_555 1_555
C23 C4 1_555 1_555
C24 C23 1_555 1_555
H26 C24 1_555 1_555
C25 C24 1_555 1_555
C26 C25 1_555 1_555
H27 C26 1_555 1_555
C27 C22 1_555 1_555
H28 C27 1_555 1_555
C5 C6 1_555 1_555
C5 C16 1_555 1_555
C14 C15 1_555 1_555
C22 C23 1_555 1_555
C26 C27 1_555 1_555

#END
