
#######################################################################
#
#                 Cambridge Crystallographic Data Centre
#                                CCDC 
#
#######################################################################
#
# If this CIF has been generated from an entry in the Cambridge 
# Structural Database, then it will include bibliographic, chemical, 
# crystal, experimental, refinement or atomic coordinate data resulting 
# from the CCDC's data processing and validation procedures.
#
#######################################################################

data_VICSOR
_chemical_formula_moiety         'C11 H10 Br1 N3 O1'
_chemical_name_systematic        
(4-Bromophenyl)(3-oxopyrazolidin-1-yl)acetonitrile
_symmetry_cell_setting           triclinic
_symmetry_space_group_name_H-M   'P 1'
_symmetry_Int_Tables_number      1
_space_group_name_Hall           'P 1'
loop_
_symmetry_equiv_pos_site_id
_symmetry_equiv_pos_as_xyz
1 x,y,z
_cell_length_a                   5.5927(10)
_cell_length_b                   9.9073(17)
_cell_length_c                   11.448(2)
_cell_angle_alpha                113.882(4)
_cell_angle_beta                 91.874(4)
_cell_angle_gamma                99.063(4)
_cell_volume                     569.488
_exptl_crystal_colour            colorless
_exptl_crystal_description       prismatic
_cell_formula_units_Z            2
loop_
_atom_site_label
_atom_site_type_symbol
_atom_site_fract_x
_atom_site_fract_y
_atom_site_fract_z
Br1 Br 0.72132(11) 1.37024(6) 1.37563(6)
N1 N 0.2415(12) 0.7774(7) 0.7765(6)
N2 N 0.4359(11) 0.7269(6) 0.8203(5)
N3 N -0.0504(15) 0.6057(8) 0.9497(7)
O1 O -0.0510(11) 0.7053(7) 0.6091(6)
C1 C 0.1184(13) 0.6806(7) 0.6678(7)
C2 C 0.187(3) 0.5281(14) 0.6391(14)
H1 H 0.0675 0.4663 0.6652
H2 H 0.2039 0.4747 0.5486
C3 C 0.4252(15) 0.5734(9) 0.7196(8)
H3 H 0.4389 0.5041 0.7588
H4 H 0.5581 0.5722 0.6671
C4 C 0.3975(11) 0.7292(6) 0.9472(6)
H5 H 0.5079 0.6703 0.9644
C5 C 0.4652(13) 0.8900(7) 1.0516(7)
C6 C 0.3144(14) 0.9544(9) 1.1424(7)
H6 H 0.1593 0.9021 1.1396
C7 C 0.3925(15) 1.0947(9) 1.2365(7)
H7 H 0.2897 1.1362 1.2983
C8 C 0.6200(16) 1.1775(9) 1.2432(8)
C9 C 0.7684(15) 1.1132(9) 1.1508(9)
H8 H 0.9215 1.1670 1.1524
C10 C 0.6927(14) 0.9686(8) 1.0548(8)
H9 H 0.7953 0.9256 0.9935
C11 C 0.1478(12) 0.6597(6) 0.9521(6)
H10 H 0.275(12) 0.868(3) 0.798(6)
Br2 Br 0.40691(9) -0.56708(5) 0.10809(5)
N4 N 0.8340(12) 0.0047(7) 0.7126(6)
N5 N 0.6121(10) 0.0508(6) 0.6878(5)
N6 N 0.2321(13) 0.1822(8) 0.5478(8)
O2 O 1.1321(12) 0.0682(7) 0.8722(6)
C13 C 0.9572(15) 0.0918(8) 0.8226(8)
C14 C 0.801(3) 0.2169(18) 0.8990(14)
H15 H 0.6932 0.1852 0.9516
H16 H 0.9041 0.3128 0.9519
C15 C 0.662(4) 0.222(2) 0.7852(19)
H17 H 0.7590 0.2842 0.7506
H18 H 0.5110 0.2580 0.8079
C16 C 0.6046(12) 0.0570(6) 0.5606(6)
H19 H 0.7562 0.1178 0.5550
C17 C 0.5658(12) -0.0963(7) 0.4514(6)
C18 C 0.7275(15) -0.1372(9) 0.3626(8)
H20 H 0.8690 -0.0692 0.3707
C19 C 0.6861(16) -0.2777(11) 0.2605(9)
H21 H 0.7988 -0.3053 0.2012
C20 C 0.4767(15) -0.3737(7) 0.2497(7)
C21 C 0.3092(15) -0.3384(8) 0.3364(7)
H22 H 0.1676 -0.4067 0.3272
C22 C 0.3566(13) -0.1981(7) 0.4381(7)
H23 H 0.2457 -0.1720 0.4986
C23 C 0.3977(11) 0.1309(6) 0.5542(6)
H24 H 0.848(18) -0.082(4) 0.666(7)
C12? C 0.275(5) 0.567(4) 0.610(3)
H11? H 0.1764 0.4680 0.5637
H12? H 0.3751 0.5925 0.5517
H13? H 0.3623 0.5011 0.7523
H14? H 0.5857 0.5609 0.6955
C24? C 0.888(4) 0.239(2) 0.855(2)
H25? H 0.9719 0.2929 0.8096
H26? H 0.9135 0.3014 0.9470
C25? C 0.618(4) 0.182(3) 0.806(3)
H27? H 0.5284 0.1555 0.8673
H28? H 0.5473 0.2572 0.7905
loop_
_geom_bond_atom_site_label_1
_geom_bond_atom_site_label_2
_geom_bond_site_symmetry_1
_geom_bond_site_symmetry_2
Br1 C8 1_555 1_555
N1 N2 1_555 1_555
N2 C3 1_555 1_555
N3 C11 1_555 1_555
O1 C1 1_555 1_555
C1 N1 1_555 1_555
C2 C1 1_555 1_555
H1 C2 1_555 1_555
H2 C2 1_555 1_555
C3 C2 1_555 1_555
H3 C3 1_555 1_555
H4 C3 1_555 1_555
C4 N2 1_555 1_555
H5 C4 1_555 1_555
C5 C4 1_555 1_555
C6 C5 1_555 1_555
H6 C6 1_555 1_555
C7 C6 1_555 1_555
H7 C7 1_555 1_555
C8 C7 1_555 1_555
C9 C8 1_555 1_555
H8 C9 1_555 1_555
C10 C5 1_555 1_555
H9 C10 1_555 1_555
C11 C4 1_555 1_555
H10 N1 1_555 1_555
Br2 C20 1_555 1_555
N4 N5 1_555 1_555
N5 C15 1_555 1_555
N6 C23 1_555 1_555
O2 C13 1_555 1_555
C13 N4 1_555 1_555
C14 C13 1_555 1_555
H15 C14 1_555 1_555
H16 C14 1_555 1_555
C15 C14 1_555 1_555
H17 C15 1_555 1_555
H18 C15 1_555 1_555
C16 N5 1_555 1_555
H19 C16 1_555 1_555
C17 C16 1_555 1_555
C18 C17 1_555 1_555
H20 C18 1_555 1_555
C19 C18 1_555 1_555
H21 C19 1_555 1_555
C20 C19 1_555 1_555
C21 C20 1_555 1_555
H22 C21 1_555 1_555
C22 C17 1_555 1_555
H23 C22 1_555 1_555
C23 C16 1_555 1_555
H24 N4 1_555 1_555
C9 C10 1_555 1_555
C21 C22 1_555 1_555

#END
