
#######################################################################
#
#                 Cambridge Crystallographic Data Centre
#                                CCDC 
#
#######################################################################
#
# If this CIF has been generated from an entry in the Cambridge 
# Structural Database, then it will include bibliographic, chemical, 
# crystal, experimental, refinement or atomic coordinate data resulting 
# from the CCDC's data processing and validation procedures.
#
#######################################################################

data_VICYOY
_chemical_formula_moiety         'C17 H23 N1 O4'
_chemical_name_systematic        
't-butyl (5,6-dimethoxy-3-methylene-2,3-dihydro-1H-inden-1-yl)carbamate'
_symmetry_cell_setting           monoclinic
_symmetry_space_group_name_H-M   'P 21'
_symmetry_Int_Tables_number      4
_space_group_name_Hall           'P 2yb'
loop_
_symmetry_equiv_pos_site_id
_symmetry_equiv_pos_as_xyz
1 x,y,z
2 -x,1/2+y,-z
_cell_length_a                   5.1545(13)
_cell_length_b                   6.8559(17)
_cell_length_c                   23.890(6)
_cell_angle_alpha                90
_cell_angle_beta                 93.695(3)
_cell_angle_gamma                90
_cell_volume                     842.487
_cell_formula_units_Z            2
loop_
_atom_site_label
_atom_site_type_symbol
_atom_site_fract_x
_atom_site_fract_y
_atom_site_fract_z
O1 O 0.0692(4) 0.7692(3) 0.44504(8)
C1 C 0.2752(5) 0.9999(4) 0.31611(12)
O2 O 0.6236(4) 0.5873(4) 0.13238(9)
O3 O 0.4038(4) 0.5193(3) 0.41796(9)
C2 C 0.1853(5) 0.8104(4) 0.39709(12)
O4 O 0.9524(4) 0.7411(4) 0.18215(9)
C3 C 0.1419(6) 0.9743(4) 0.36420(12)
H1 H 0.0230 1.0679 0.3743
C4 C 0.4525(5) 0.8620(5) 0.30127(12)
N1 N 0.5329(4) 0.7708(4) 0.20342(10)
H2 H 0.3790 0.7247 0.1965
C5 C 0.3719(6) 0.6719(4) 0.38127(12)
C6 C 0.5024(6) 0.6983(5) 0.33340(12)
H3 H 0.6229 0.6065 0.3229
C7 C 0.2594(6) 1.1626(5) 0.27637(12)
C8 C 0.5708(6) 0.9190(5) 0.24706(12)
H4 H 0.7576 0.9411 0.2547
C9 C 0.7236(6) 0.7032(5) 0.17377(12)
C10 C -0.1106(6) 0.9093(5) 0.46367(13)
H5 H -0.0237 1.0319 0.4700
H6 H -0.1783 0.8651 0.4980
H7 H -0.2508 0.9251 0.4356
C11 C 0.6088(7) 0.3849(6) 0.40942(15)
H8 H 0.5739 0.3182 0.3744
H9 H 0.6201 0.2916 0.4394
H10 H 0.7702 0.4543 0.4087
C12 C 0.1207(7) 1.3242(5) 0.27980(15)
H11 H 0.0187 1.3432 0.3101
H12 H 0.1252 1.4187 0.2519
C13 C 0.4380(7) 1.1158(6) 0.23096(14)
H13 H 0.5672 1.2176 0.2283
H14 H 0.3402 1.1048 0.1950
C14 C 0.7898(6) 0.4976(7) 0.09192(14)
C15 C 0.9292(8) 0.6551(9) 0.06096(16)
H15 H 0.8070 0.7539 0.0484
H16 H 1.0064 0.5988 0.0292
H17 H 1.0624 0.7122 0.0857
C16 C 0.9782(7) 0.3558(7) 0.12154(15)
H18 H 1.1008 0.4266 0.1457
H19 H 1.0694 0.2850 0.0942
H20 H 0.8839 0.2660 0.1434
C17 C 0.5997(7) 0.3932(11) 0.05250(17)
H21 H 0.5269 0.2847 0.0715
H22 H 0.6871 0.3468 0.0208
H23 H 0.4632 0.4811 0.0399
loop_
_geom_bond_atom_site_label_1
_geom_bond_atom_site_label_2
_geom_bond_site_symmetry_1
_geom_bond_site_symmetry_2
O1 C2 1_555 1_555
C1 C3 1_555 1_555
O2 C9 1_555 1_555
O3 C5 1_555 1_555
C2 C3 1_555 1_555
O4 C9 1_555 1_555
C3 H1 1_555 1_555
C4 C1 1_555 1_555
N1 H2 1_555 1_555
C5 C2 1_555 1_555
C6 C4 1_555 1_555
H3 C6 1_555 1_555
C7 C1 1_555 1_555
C8 C4 1_555 1_555
H4 C8 1_555 1_555
C9 N1 1_555 1_555
C10 O1 1_555 1_555
H5 C10 1_555 1_555
H6 C10 1_555 1_555
H7 C10 1_555 1_555
C11 O3 1_555 1_555
H8 C11 1_555 1_555
H9 C11 1_555 1_555
H10 C11 1_555 1_555
C12 C7 1_555 1_555
H11 C12 1_555 1_555
H12 C12 1_555 1_555
C13 C7 1_555 1_555
H13 C13 1_555 1_555
H14 C13 1_555 1_555
C14 O2 1_555 1_555
C15 C14 1_555 1_555
H15 C15 1_555 1_555
H16 C15 1_555 1_555
H17 C15 1_555 1_555
C16 C14 1_555 1_555
H18 C16 1_555 1_555
H19 C16 1_555 1_555
H20 C16 1_555 1_555
C17 C14 1_555 1_555
H21 C17 1_555 1_555
H22 C17 1_555 1_555
H23 C17 1_555 1_555
N1 C8 1_555 1_555
C5 C6 1_555 1_555
C8 C13 1_555 1_555

#END
