
#######################################################################
#
#                 Cambridge Crystallographic Data Centre
#                                CCDC 
#
#######################################################################
#
# If this CIF has been generated from an entry in the Cambridge 
# Structural Database, then it will include bibliographic, chemical, 
# crystal, experimental, refinement or atomic coordinate data resulting 
# from the CCDC's data processing and validation procedures.
#
#######################################################################

data_VICYOV
_chemical_formula_moiety         'C12 H14 N4 O6 S1'
_chemical_name_systematic        
2,2'-Sulfonylbis(3-(((methoxycarbonyl)methyl)amino)-(E,E)-2-propenenitrile)
_symmetry_cell_setting           monoclinic
_symmetry_space_group_name_H-M   'P 21/c'
_symmetry_Int_Tables_number      14
_space_group_name_Hall           '-P 2ybc'
loop_
_symmetry_equiv_pos_site_id
_symmetry_equiv_pos_as_xyz
1 x,y,z
2 -x,1/2+y,1/2-z
3 -x,-y,-z
4 x,1/2-y,1/2+z
_cell_length_a                   11.993(6)
_cell_length_b                   10.005(5)
_cell_length_c                   14.22(1)
_cell_angle_alpha                90
_cell_angle_beta                 105.36(6)
_cell_angle_gamma                90
_cell_volume                     1645.31
_chemical_melting_point          197-199deg.C
_cell_formula_units_Z            4
loop_
_atom_site_label
_atom_site_type_symbol
_atom_site_fract_x
_atom_site_fract_y
_atom_site_fract_z
S1 S 0.2415(1) 0.0400(1) 0.5062(1)
O1 O 0.3412(2) 0.1202(2) 0.5054(2)
O2 O 0.1420(2) 0.0987(2) 0.5298(1)
O3 O 0.5838(2) -0.0800(2) 0.8435(2)
O4 O 0.7493(2) -0.1658(2) 0.8214(1)
O5 O -0.1027(2) 0.0821(3) 0.1426(2)
O6 O -0.2678(2) -0.0238(2) 0.1366(2)
N1 N 0.4534(2) -0.2179(3) 0.6795(2)
N2 N 0.1335(2) -0.2276(3) 0.6378(2)
N3 N 0.0251(2) -0.1108(3) 0.2686(2)
N4 N 0.3469(2) -0.1159(3) 0.3111(2)
C1 C 0.2909(2) -0.0902(3) 0.5886(2)
C2 C 0.4071(3) -0.1199(3) 0.6205(2)
C3 C 0.5784(2) -0.2384(3) 0.7141(2)
C4 C 0.6340(2) -0.1510(3) 0.8009(2)
C5 C 0.2038(3) -0.1667(3) 0.6154(2)
C6 C 0.8186(3) -0.0925(4) 0.9050(3)
C7 C 0.1911(2) -0.0332(3) 0.3917(2)
C8 C 0.0736(2) -0.0513(3) 0.3518(2)
C9 C -0.1000(2) -0.1237(3) 0.2297(2)
C10 C -0.1539(3) -0.0087(3) 0.1653(2)
C11 C 0.2768(2) -0.0785(3) 0.3470(2)
C12 C -0.3370(3) 0.0762(4) 0.0713(3)
H1 H 0.5935 -0.3302 0.7328
H2 H 0.6122 -0.2178 0.6617
H3 H 0.8996 -0.1107 0.9126
H4 H 0.7975 -0.1200 0.9628
H5 H 0.8046 0.0016 0.8950
H6 H -0.1172 -0.2048 0.1926
H7 H -0.1338 -0.1275 0.2838
H8 H -0.4179 0.0527 0.0567
H9 H -0.3132 0.0799 0.0119
H10 H -0.3254 0.1620 0.1026
H11 H 0.4086(23) -0.2663(29) 0.7119(21)
H12 H 0.4566(22) -0.0658(26) 0.5991(19)
H13 H 0.0685(22) -0.1477(28) 0.2356(20)
H14 H 0.0191(20) -0.0139(23) 0.3898(17)
loop_
_geom_bond_atom_site_label_1
_geom_bond_atom_site_label_2
_geom_bond_site_symmetry_1
_geom_bond_site_symmetry_2
S1 O1 1_555 1_555
O2 S1 1_555 1_555
O3 C4 1_555 1_555
O4 C4 1_555 1_555
O5 C10 1_555 1_555
O6 C10 1_555 1_555
N1 C2 1_555 1_555
N2 C5 1_555 1_555
N3 C8 1_555 1_555
N4 C11 1_555 1_555
C1 S1 1_555 1_555
C2 C1 1_555 1_555
C3 N1 1_555 1_555
C4 C3 1_555 1_555
C5 C1 1_555 1_555
C6 O4 1_555 1_555
C7 S1 1_555 1_555
C8 C7 1_555 1_555
C9 N3 1_555 1_555
C10 C9 1_555 1_555
C11 C7 1_555 1_555
C12 O6 1_555 1_555
H1 C3 1_555 1_555
H2 C3 1_555 1_555
H3 C6 1_555 1_555
H4 C6 1_555 1_555
H5 C6 1_555 1_555
H6 C9 1_555 1_555
H7 C9 1_555 1_555
H8 C12 1_555 1_555
H9 C12 1_555 1_555
H10 C12 1_555 1_555
H11 N1 1_555 1_555
H12 C2 1_555 1_555
H13 N3 1_555 1_555
H14 C8 1_555 1_555

#END
