
#######################################################################
#
#                 Cambridge Crystallographic Data Centre
#                                CCDC 
#
#######################################################################
#
# If this CIF has been generated from an entry in the Cambridge 
# Structural Database, then it will include bibliographic, chemical, 
# crystal, experimental, refinement or atomic coordinate data resulting 
# from the CCDC's data processing and validation procedures.
#
#######################################################################

data_VICZOZ
_chemical_formula_moiety         'C17 H11 N3'
_chemical_name_systematic        
4-(1-cyano-2-(4-cyanophenyl)ethyl)benzonitrile
_symmetry_cell_setting           triclinic
_symmetry_space_group_name_H-M   'P -1'
_symmetry_Int_Tables_number      2
_space_group_name_Hall           '-P 1'
loop_
_symmetry_equiv_pos_site_id
_symmetry_equiv_pos_as_xyz
1 x,y,z
2 -x,-y,-z
_cell_length_a                   8.258(2)
_cell_length_b                   5.9925(17)
_cell_length_c                   27.603(8)
_cell_angle_alpha                90.00
_cell_angle_beta                 94.179(4)
_cell_angle_gamma                90.00
_cell_volume                     1362.33
_cell_formula_units_Z            4
loop_
_atom_site_label
_atom_site_type_symbol
_atom_site_fract_x
_atom_site_fract_y
_atom_site_fract_z
C1 C 0.7797(5) 0.4531(6) 0.40976(13)
C2 C 0.7589(5) 0.4695(6) 0.46066(12)
C3 C 0.8122(5) 0.6593(6) 0.48664(13)
H1 H 0.8653 0.7729 0.4712
C4 C 0.7858(5) 0.6772(6) 0.53511(13)
H2 H 0.8225 0.8030 0.5523
C5 C 0.7053(5) 0.5101(6) 0.55884(12)
C6 C 0.6557(5) 0.3215(6) 0.53298(13)
H3 H 0.6040 0.2072 0.5486
C7 C 0.6816(5) 0.2997(6) 0.48442(13)
H4 H 0.6474 0.1717 0.4676
C8 C 0.6749(5) 0.5319(7) 0.61173(13)
H5 H 0.5829 0.4392 0.6184
H6 H 0.6464 0.6855 0.6183
C9 C 0.8210(5) 0.4649(6) 0.64631(12)
H7 H 0.9103 0.5681 0.6413
C10 C 0.8746(5) 0.2379(7) 0.63495(13)
C11 C 0.7814(5) 0.4807(6) 0.69924(12)
C12 C 0.8246(5) 0.6686(6) 0.72663(13)
H8 H 0.8824 0.7825 0.7128
C13 C 0.7835(5) 0.6894(6) 0.77390(13)
H9 H 0.8139 0.8156 0.7920
C14 C 0.6953(5) 0.5184(6) 0.79445(12)
C15 C 0.6538(5) 0.3292(6) 0.76773(13)
H10 H 0.5980 0.2139 0.7818
C16 C 0.6946(5) 0.3109(6) 0.72038(13)
H11 H 0.6642 0.1846 0.7024
C17 C 0.6449(5) 0.5377(6) 0.84300(13)
N1 N 0.7945(5) 0.4427(6) 0.36912(12)
N2 N 0.9146(5) 0.0605(7) 0.62701(13)
N3 N 0.5984(5) 0.5511(6) 0.88080(12)
C18 C 0.3554(5) 1.0383(6) 0.65692(13)
C19 C 0.3047(5) 1.0183(6) 0.70558(12)
C20 C 0.3459(5) 0.8292(6) 0.73235(13)
H12 H 0.4010 0.7135 0.7183
C21 C 0.3058(5) 0.8115(6) 0.77946(13)
H13 H 0.3370 0.6856 0.7975
C22 C 0.2186(5) 0.9806(6) 0.80069(12)
C23 C 0.1748(5) 1.1685(6) 0.77344(13)
H14 H 0.1169 1.2825 0.7872
C24 C 0.2166(5) 1.1874(6) 0.72613(12)
H15 H 0.1858 1.3131 0.7080
C25 C 0.1789(5) 0.9648(6) 0.85352(12)
H16 H 0.0894 1.0679 0.8585
C26 C 0.1252(5) 0.7378(7) 0.86477(13)
C27 C 0.3254(5) 1.0328(7) 0.88824(13)
H17 H 0.4177 0.9407 0.8816
H18 H 0.3535 1.1866 0.8818
C28 C 0.2944(5) 1.0102(6) 0.94110(12)
C29 C 0.3432(5) 0.8214(6) 0.96718(13)
H19 H 0.3937 0.7062 0.9515
C30 C 0.3188(5) 0.8001(6) 1.01569(13)
H20 H 0.3541 0.6729 1.0326
C31 C 0.2410(4) 0.9701(6) 1.03929(12)
C32 C 0.1871(5) 1.1589(6) 1.01350(13)
H21 H 0.1338 1.2722 1.0290
C33 C 0.2134(6) 1.1770(6) 0.96481(13)
H22 H 0.1763 1.3026 0.9476
C34 C 0.2199(5) 0.9537(6) 1.09021(13)
N4 N 0.4013(5) 1.0514(6) 0.61911(12)
N5 N 0.0858(5) 0.5606(7) 0.87286(14)
N6 N 0.2054(5) 0.9428(6) 1.13095(12)
loop_
_geom_bond_atom_site_label_1
_geom_bond_atom_site_label_2
_geom_bond_site_symmetry_1
_geom_bond_site_symmetry_2
C1 C2 1_555 1_555
C2 C3 1_555 1_555
C3 H1 1_555 1_555
C4 C3 1_555 1_555
H2 C4 1_555 1_555
C5 C4 1_555 1_555
C6 C5 1_555 1_555
H3 C6 1_555 1_555
C7 C2 1_555 1_555
H4 C7 1_555 1_555
C8 C5 1_555 1_555
H5 C8 1_555 1_555
H6 C8 1_555 1_555
C9 C8 1_555 1_555
H7 C9 1_555 1_555
C10 C9 1_555 1_555
C11 C9 1_555 1_555
C12 C11 1_555 1_555
H8 C12 1_555 1_555
C13 C12 1_555 1_555
H9 C13 1_555 1_555
C14 C13 1_555 1_555
C15 C14 1_555 1_555
H10 C15 1_555 1_555
C16 C11 1_555 1_555
H11 C16 1_555 1_555
C17 C14 1_555 1_555
N1 C1 1_555 1_555
N2 C10 1_555 1_555
N3 C17 1_555 1_555
C18 C19 1_555 1_555
C19 C20 1_555 1_555
C20 H12 1_555 1_555
C21 C20 1_555 1_555
H13 C21 1_555 1_555
C22 C21 1_555 1_555
C23 C22 1_555 1_555
H14 C23 1_555 1_555
C24 C19 1_555 1_555
H15 C24 1_555 1_555
C25 C22 1_555 1_555
H16 C25 1_555 1_555
C26 C25 1_555 1_555
C27 C25 1_555 1_555
H17 C27 1_555 1_555
H18 C27 1_555 1_555
C28 C27 1_555 1_555
C29 C28 1_555 1_555
H19 C29 1_555 1_555
C30 C29 1_555 1_555
H20 C30 1_555 1_555
C31 C30 1_555 1_555
C32 C31 1_555 1_555
H21 C32 1_555 1_555
C33 C28 1_555 1_555
H22 C33 1_555 1_555
C34 C31 1_555 1_555
N4 C18 1_555 1_555
N5 C26 1_555 1_555
N6 C34 1_555 1_555
C6 C7 1_555 1_555
C15 C16 1_555 1_555
C23 C24 1_555 1_555
C32 C33 1_555 1_555

#END
