
#######################################################################
#
#                 Cambridge Crystallographic Data Centre
#                                CCDC 
#
#######################################################################
#
# If this CIF has been generated from an entry in the Cambridge 
# Structural Database, then it will include bibliographic, chemical, 
# crystal, experimental, refinement or atomic coordinate data resulting 
# from the CCDC's data processing and validation procedures.
#
#######################################################################

data_VICZEP
_chemical_formula_moiety         'C25 H16 N4'
_chemical_name_systematic        
4-(2-cyano-1,3-bis(4-cyanophenyl)propan-2-yl)benzonitrile
_symmetry_cell_setting           orthorhombic
_symmetry_space_group_name_H-M   'P c c n'
_symmetry_Int_Tables_number      56
_space_group_name_Hall           '-P 2ab 2ac'
loop_
_symmetry_equiv_pos_site_id
_symmetry_equiv_pos_as_xyz
1 x,y,z
2 1/2-x,1/2-y,z
3 -x,1/2+y,1/2-z
4 1/2+x,-y,1/2-z
5 -x,-y,-z
6 1/2+x,1/2+y,-z
7 x,1/2-y,1/2+z
8 1/2-x,y,1/2+z
_cell_length_a                   19.2294(18)
_cell_length_b                   12.3276(12)
_cell_length_c                   17.3876(16)
_cell_angle_alpha                90
_cell_angle_beta                 90
_cell_angle_gamma                90
_cell_volume                     4121.77
_cell_formula_units_Z            8
loop_
_atom_site_label
_atom_site_type_symbol
_atom_site_fract_x
_atom_site_fract_y
_atom_site_fract_z
C1 C 0.3382(2) 0.3138(3) -0.0946(2)
C2 C 0.35775(17) 0.2137(3) -0.06674(18)
C3 C 0.39797(13) 0.2033(2) -0.00093(15)
C4 C 0.4183(2) 0.2983(3) 0.0356(2)
C5 C 0.3586(2) 0.4062(3) -0.0569(2)
C6 C 0.3982(2) 0.3981(3) 0.0080(2)
C7 C 0.3394(3) 0.5106(4) -0.0853(3)
C8 C 0.41989(15) 0.0938(2) 0.02723(17)
C9 C 0.37541(12) 0.0439(2) 0.09388(14)
C10 C 0.29694(13) 0.0401(2) 0.07088(15)
C11 C 0.24875(12) 0.0086(2) 0.13565(14)
C12 C 0.24032(15) -0.0983(2) 0.15660(18)
C13 C 0.19724(15) -0.1266(3) 0.21735(18)
C14 C 0.16078(13) -0.0464(2) 0.25619(15)
C15 C 0.16760(16) 0.0606(3) 0.23427(17)
C16 C 0.21148(15) 0.0875(2) 0.17532(18)
C17 C 0.40378(12) -0.0689(2) 0.11172(14)
C18 C 0.43596(15) -0.0945(2) 0.18067(17)
C19 C 0.46245(15) -0.1969(2) 0.19384(17)
C20 C 0.45684(13) -0.2763(2) 0.13822(16)
C21 C 0.42491(15) -0.2520(2) 0.06838(16)
C22 C 0.39883(15) -0.1493(2) 0.05531(15)
C23 C 0.48121(16) -0.3847(3) 0.15093(17)
C24 C 0.11396(16) -0.0755(3) 0.31678(18)
C25 C 0.38170(13) 0.1159(2) 0.16121(15)
H1 H 0.313(2) 0.313(3) -0.135(2)
H2 H 0.3416(18) 0.147(3) -0.0949(19)
H3 H 0.407(3) 0.473(5) 0.037(3)
H4 H 0.4445(17) 0.294(3) 0.073(2)
H5 H 0.2907(13) -0.007(2) 0.0281(15)
H6 H 0.2863(15) 0.116(3) 0.0533(16)
H7 H 0.469(2) 0.100(3) 0.048(2)
H8 H 0.4382(15) -0.041(2) 0.2184(16)
H9 H 0.481(2) -0.222(3) 0.262(2)
H10 H 0.4183(14) -0.313(2) 0.0225(17)
H11 H 0.148(2) 0.108(4) 0.259(2)
H12 H 0.2174(17) 0.157(3) 0.1653(18)
H13 H 0.2637(17) -0.151(3) 0.1231(18)
H14 H 0.1942(19) -0.205(3) 0.2291(19)
H15 H 0.4122(17) 0.043(3) -0.018(2)
H16 H 0.3776(16) -0.138(2) 0.0052(18)
N1 N 0.3241(4) 0.5948(4) -0.1056(5)
N2 N 0.38562(15) 0.1747(2) 0.21187(15)
N3 N 0.49798(16) -0.4736(2) 0.15844(17)
N4 N 0.07556(18) -0.0992(3) 0.36448(17)
loop_
_geom_bond_atom_site_label_1
_geom_bond_atom_site_label_2
_geom_bond_site_symmetry_1
_geom_bond_site_symmetry_2
C1 C2 1_555 1_555
C2 C3 1_555 1_555
C3 C4 1_555 1_555
C4 C6 1_555 1_555
C5 C1 1_555 1_555
C6 C5 1_555 1_555
C7 C5 1_555 1_555
C8 C3 1_555 1_555
C9 C8 1_555 1_555
C10 C9 1_555 1_555
C11 C10 1_555 1_555
C12 C11 1_555 1_555
C13 C12 1_555 1_555
C14 C13 1_555 1_555
C15 C14 1_555 1_555
C16 C11 1_555 1_555
C17 C9 1_555 1_555
C18 C17 1_555 1_555
C19 C18 1_555 1_555
C20 C19 1_555 1_555
C21 C20 1_555 1_555
C22 C17 1_555 1_555
C23 C20 1_555 1_555
C24 C14 1_555 1_555
C25 C9 1_555 1_555
H1 C1 1_555 1_555
H2 C2 1_555 1_555
H3 C6 1_555 1_555
H4 C4 1_555 1_555
H5 C10 1_555 1_555
H6 C10 1_555 1_555
H7 C8 1_555 1_555
H8 C18 1_555 1_555
H9 C19 1_555 1_555
H10 C21 1_555 1_555
H11 C15 1_555 1_555
H12 C16 1_555 1_555
H13 C12 1_555 1_555
H14 C13 1_555 1_555
H15 C8 1_555 1_555
H16 C22 1_555 1_555
N1 C7 1_555 1_555
N2 C25 1_555 1_555
N3 C23 1_555 1_555
N4 C24 1_555 1_555
C15 C16 1_555 1_555
C21 C22 1_555 1_555

#END
