
#######################################################################
#
#                 Cambridge Crystallographic Data Centre
#                                CCDC 
#
#######################################################################
#
# If this CIF has been generated from an entry in the Cambridge 
# Structural Database, then it will include bibliographic, chemical, 
# crystal, experimental, refinement or atomic coordinate data resulting 
# from the CCDC's data processing and validation procedures.
#
#######################################################################

data_VIDCAP
_chemical_formula_moiety         'C50 H36 N2 S1'
_chemical_name_systematic        
N,N'-{[(9H-thioxanthen-9-ylidene)methylene]bis(4,1-phenylene)}bis(N-phenylaniline)
_symmetry_cell_setting           monoclinic
_symmetry_space_group_name_H-M   'P 21/n'
_symmetry_Int_Tables_number      14
_space_group_name_Hall           '-P 2yn'
loop_
_symmetry_equiv_pos_site_id
_symmetry_equiv_pos_as_xyz
1 x,y,z
2 1/2-x,1/2+y,1/2-z
3 -x,-y,-z
4 1/2+x,1/2-y,1/2+z
_cell_length_a                   13.4729(6)
_cell_length_b                   11.6041(5)
_cell_length_c                   24.7449(10)
_cell_angle_alpha                90
_cell_angle_beta                 97.034(2)
_cell_angle_gamma                90
_cell_volume                     3839.52
_cell_formula_units_Z            4
loop_
_atom_site_label
_atom_site_type_symbol
_atom_site_fract_x
_atom_site_fract_y
_atom_site_fract_z
S1 S 0.76303(3) 0.87618(3) 0.53536(2)
N1 N 0.23123(7) 0.76426(9) 0.33597(4)
N2 N 0.86192(8) 0.38208(9) 0.30563(4)
C1 C 0.51293(8) 0.65243(10) 0.41221(4)
C2 C 0.33495(8) 0.62214(10) 0.38859(4)
H1 H 0.277119 0.576133 0.390403
C3 C 0.77001(8) 0.59973(10) 0.39680(4)
H2 H 0.791746 0.671191 0.412834
C4 C 0.64744(8) 0.66406(10) 0.49060(4)
C5 C 0.21759(8) 0.79160(10) 0.27967(4)
C6 C 0.41287(9) 0.79056(10) 0.35533(4)
H3 H 0.408310 0.859912 0.334776
C7 C 0.42703(8) 0.58590(10) 0.41478(4)
H4 H 0.431565 0.515505 0.434533
C8 C 0.67779(8) 0.55401(10) 0.40699(4)
C9 C 0.92278(9) 0.45255(10) 0.27520(5)
C10 C 0.64705(8) 0.45007(10) 0.38175(4)
H5 H 0.583919 0.418627 0.387157
C11 C 0.61335(8) 0.62022(10) 0.44094(4)
C12 C 0.83009(8) 0.54280(10) 0.36380(5)
H6 H 0.892274 0.575571 0.357532
C13 C 0.75019(8) 0.64092(10) 0.51795(4)
C14 C 0.27127(8) 0.73043(11) 0.24404(5)
H7 H 0.316554 0.671607 0.257750
C15 C 0.58834(9) 0.74813(10) 0.51943(4)
C16 C 0.32721(8) 0.72518(10) 0.35985(4)
C17 C 0.87283(8) 0.26102(10) 0.30349(5)
C18 C 0.70714(9) 0.39163(10) 0.34880(5)
H8 H 0.685201 0.320504 0.332482
C19 C 0.79996(8) 0.43756(10) 0.33968(4)
C20 C 0.50490(8) 0.75351(10) 0.38113(4)
H9 H 0.563211 0.797527 0.377587
C21 C 1.08528(9) 0.51239(11) 0.25456(5)
H10 H 1.156092 0.506614 0.260783
C22 C 0.79151(9) 0.52991(11) 0.52242(5)
H11 H 0.751985 0.465740 0.509194
C23 C 0.15228(8) 0.87919(11) 0.25906(5)
H12 H 0.116921 0.922763 0.283000
C24 C 0.15612(9) 0.78182(10) 0.37053(5)
C25 C 1.04066(9) 0.58920(11) 0.21579(5)
H13 H 1.080686 0.635703 0.195426
C26 C 1.02675(9) 0.44406(11) 0.28423(5)
H14 H 1.057526 0.391622 0.310627
C27 C 0.19196(10) 0.84098(12) 0.16801(5)
H15 H 0.182561 0.857316 0.130106
C28 C 0.13918(9) 0.90242(11) 0.20355(5)
H16 H 0.093678 0.960887 0.189674
C29 C 0.80919(9) 0.73349(11) 0.53984(5)
C30 C 0.25853(9) 0.75552(11) 0.18850(5)
H17 H 0.295493 0.714051 0.164571
C31 C -0.01758(10) 0.78767(11) 0.38582(6)
H18 H -0.086274 0.779597 0.372213
C32 C 0.05489(9) 0.76608(10) 0.35146(5)
H19 H 0.035612 0.740748 0.315182
C33 C 0.89650(10) 0.20989(11) 0.25531(5)
H20 H 0.902015 0.256350 0.224208
C34 C 0.48789(9) 0.73090(11) 0.52728(5)
H21 H 0.456138 0.660047 0.516474
C35 C 0.18289(10) 0.81471(11) 0.42482(5)
H22 H 0.251376 0.824729 0.438468
C36 C 0.87755(9) 0.52980(12) 0.23681(5)
H23 H 0.806763 0.536369 0.230951
C37 C 0.93670(10) 0.59735(12) 0.20708(5)
H24 H 0.905950 0.649557 0.180568
C38 C 0.88971(10) 0.51230(13) 0.54598(5)
H25 H 0.917112 0.436774 0.548311
C39 C 0.86371(9) 0.19091(11) 0.34860(5)
H26 H 0.846962 0.223998 0.381416
C40 C 0.63487(10) 0.85036(11) 0.53970(5)
C41 C 0.87921(10) 0.07251(12) 0.34538(6)
H27 H 0.873097 0.025292 0.376166
C42 C 0.43416(10) 0.81608(12) 0.55067(5)
H28 H 0.365940 0.803547 0.555085
C43 C 0.91191(10) 0.09186(12) 0.25279(6)
H29 H 0.928336 0.058263 0.220022
C44 C 0.90752(10) 0.71576(13) 0.56385(5)
H30 H 0.946699 0.779005 0.578552
C45 C 0.48013(12) 0.91951(13) 0.56759(5)
H31 H 0.442685 0.978752 0.582202
C46 C 0.94744(10) 0.60593(14) 0.56608(5)
H32 H 1.014813 0.594227 0.581460
C47 C 0.58059(11) 0.93590(12) 0.56308(5)
H33 H 0.612707 1.005306 0.575868
C48 C 0.10930(11) 0.83275(13) 0.45885(5)
H34 H 0.128162 0.853585 0.495808
C49 C 0.90358(10) 0.02262(12) 0.29753(6)
H35 H 0.914366 -0.058104 0.295639
C50 C 0.00873(11) 0.82065(12) 0.43943(6)
H36 H -0.041253 0.834791 0.462559
loop_
_geom_bond_atom_site_label_1
_geom_bond_atom_site_label_2
_geom_bond_site_symmetry_1
_geom_bond_site_symmetry_2
S1 C29 1_555 1_555
N1 C5 1_555 1_555
N2 C9 1_555 1_555
C1 C7 1_555 1_555
C2 H1 1_555 1_555
C3 H2 1_555 1_555
C4 C11 1_555 1_555
C5 C14 1_555 1_555
C6 H3 1_555 1_555
C7 C2 1_555 1_555
H4 C7 1_555 1_555
C8 C3 1_555 1_555
C9 C26 1_555 1_555
C10 C8 1_555 1_555
H5 C10 1_555 1_555
C11 C1 1_555 1_555
C12 C3 1_555 1_555
H6 C12 1_555 1_555
C13 C4 1_555 1_555
C14 H7 1_555 1_555
C15 C4 1_555 1_555
C16 N1 1_555 1_555
C17 N2 1_555 1_555
C18 C10 1_555 1_555
H8 C18 1_555 1_555
C19 N2 1_555 1_555
C20 C1 1_555 1_555
H9 C20 1_555 1_555
C21 H10 1_555 1_555
C22 C13 1_555 1_555
H11 C22 1_555 1_555
C23 C5 1_555 1_555
H12 C23 1_555 1_555
C24 N1 1_555 1_555
C25 C21 1_555 1_555
H13 C25 1_555 1_555
C26 C21 1_555 1_555
H14 C26 1_555 1_555
C27 H15 1_555 1_555
C28 C23 1_555 1_555
H16 C28 1_555 1_555
C29 C13 1_555 1_555
C30 C14 1_555 1_555
H17 C30 1_555 1_555
C31 H18 1_555 1_555
C32 C24 1_555 1_555
H19 C32 1_555 1_555
C33 C17 1_555 1_555
H20 C33 1_555 1_555
C34 C15 1_555 1_555
H21 C34 1_555 1_555
C35 C24 1_555 1_555
H22 C35 1_555 1_555
C36 C9 1_555 1_555
H23 C36 1_555 1_555
C37 C25 1_555 1_555
H24 C37 1_555 1_555
C38 C22 1_555 1_555
H25 C38 1_555 1_555
C39 C17 1_555 1_555
H26 C39 1_555 1_555
C40 S1 1_555 1_555
C41 C39 1_555 1_555
H27 C41 1_555 1_555
C42 C34 1_555 1_555
H28 C42 1_555 1_555
C43 C33 1_555 1_555
H29 C43 1_555 1_555
C44 C29 1_555 1_555
H30 C44 1_555 1_555
C45 C42 1_555 1_555
H31 C45 1_555 1_555
C46 C38 1_555 1_555
H32 C46 1_555 1_555
C47 C40 1_555 1_555
H33 C47 1_555 1_555
C48 C35 1_555 1_555
H34 C48 1_555 1_555
C49 C41 1_555 1_555
H35 C49 1_555 1_555
C50 C31 1_555 1_555
H36 C50 1_555 1_555
C2 C16 1_555 1_555
C6 C16 1_555 1_555
C6 C20 1_555 1_555
C8 C11 1_555 1_555
C12 C19 1_555 1_555
C15 C40 1_555 1_555
C18 C19 1_555 1_555
C27 C28 1_555 1_555
C27 C30 1_555 1_555
C31 C32 1_555 1_555
C36 C37 1_555 1_555
C43 C49 1_555 1_555
C44 C46 1_555 1_555
C45 C47 1_555 1_555
C48 C50 1_555 1_555

#END
