
#######################################################################
#
#                 Cambridge Crystallographic Data Centre
#                                CCDC 
#
#######################################################################
#
# If this CIF has been generated from an entry in the Cambridge 
# Structural Database, then it will include bibliographic, chemical, 
# crystal, experimental, refinement or atomic coordinate data resulting 
# from the CCDC's data processing and validation procedures.
#
#######################################################################

data_VIDCET
_chemical_formula_moiety         'C50 H32 N2 S1'
_chemical_name_systematic        
9,9'-{[(9H-thioxanthen-9-ylidene)methylene]bis(4,1-phenylene)}bis(9H-carbazole)
_symmetry_cell_setting           monoclinic
_symmetry_space_group_name_H-M   'P 21'
_symmetry_Int_Tables_number      4
_space_group_name_Hall           'P 2yb'
loop_
_symmetry_equiv_pos_site_id
_symmetry_equiv_pos_as_xyz
1 x,y,z
2 -x,1/2+y,-z
_cell_length_a                   10.2848(6)
_cell_length_b                   9.0120(5)
_cell_length_c                   19.3052(11)
_cell_angle_alpha                90
_cell_angle_beta                 91.856(5)
_cell_angle_gamma                90
_cell_volume                     1788.39
_exptl_crystal_colour            colorless
_exptl_crystal_description       needle
_cell_formula_units_Z            2
loop_
_atom_site_label
_atom_site_type_symbol
_atom_site_fract_x
_atom_site_fract_y
_atom_site_fract_z
S1 S -0.07247(13) 0.50117(16) 0.20659(6)
N1 N 0.6278(4) 0.1062(5) 0.0733(2)
N2 N 0.5231(4) 0.9959(5) 0.3688(2)
C1 C -0.0077(5) 0.5702(6) 0.2865(2)
C2 C -0.0867(6) 0.6647(7) 0.3236(3)
H1 H -0.1712 0.6900 0.3061
C3 C -0.0400(6) 0.7217(7) 0.3868(3)
H2 H -0.0922 0.7874 0.4124
C4 C 0.0832(6) 0.6822(7) 0.4121(3)
H3 H 0.1148 0.7203 0.4553
C5 C 0.1602(6) 0.5871(6) 0.3744(2)
H4 H 0.2433 0.5587 0.3928
C6 C 0.1176(5) 0.5326(6) 0.3100(2)
C7 C 0.1970(5) 0.4309(6) 0.2685(2)
C8 C 0.1232(5) 0.3026(6) 0.2394(2)
C9 C 0.1690(5) 0.1570(6) 0.2440(3)
H5 H 0.2490 0.1380 0.2684
C10 C 0.1012(6) 0.0399(7) 0.2142(3)
H6 H 0.1337 -0.0584 0.2190
C11 C -0.0148(6) 0.0661(8) 0.1771(3)
H7 H -0.0594 -0.0131 0.1542
C12 C -0.0641(5) 0.2077(8) 0.1740(3)
H8 H -0.1434 0.2262 0.1489
C13 C 0.0012(5) 0.3246(6) 0.2072(2)
C14 C 0.3241(5) 0.4539(5) 0.2556(2)
C15 C 0.4013(5) 0.3560(5) 0.2100(2)
C16 C 0.3689(5) 0.3510(6) 0.1391(2)
H9 H 0.2961 0.4055 0.1214
C17 C 0.4426(5) 0.2665(6) 0.0943(3)
H10 H 0.4199 0.2634 0.0462
C18 C 0.5488(5) 0.1871(5) 0.1200(2)
C19 C 0.5805(5) 0.1894(6) 0.1906(2)
H11 H 0.6523 0.1335 0.2084
C20 C 0.5065(5) 0.2737(6) 0.2348(2)
H12 H 0.5285 0.2749 0.2830
C21 C 0.6663(5) -0.0400(6) 0.0810(2)
C22 C 0.6185(5) -0.1499(6) 0.1231(3)
H13 H 0.5524 -0.1291 0.1549
C23 C 0.6697(5) -0.2909(6) 0.1175(3)
H14 H 0.6385 -0.3681 0.1460
C24 C 0.7678(5) -0.3222(6) 0.0701(3)
H15 H 0.8013 -0.4201 0.0669
C25 C 0.8150(5) -0.2128(6) 0.0286(3)
H16 H 0.8818 -0.2345 -0.0028
C26 C 0.7650(5) -0.0699(6) 0.0325(2)
C27 C 0.7864(5) 0.0662(6) -0.0038(2)
C28 C 0.8699(5) 0.1064(6) -0.0570(2)
H17 H 0.9288 0.0362 -0.0751
C29 C 0.8649(5) 0.2491(7) -0.0824(2)
H18 H 0.9206 0.2765 -0.1186
C30 C 0.7796(5) 0.3549(7) -0.0561(3)
H19 H 0.7792 0.4529 -0.0743
C31 C 0.6946(5) 0.3178(6) -0.0033(3)
H20 H 0.6359 0.3884 0.0146
C32 C 0.7006(5) 0.1734(6) 0.0215(2)
C33 C 0.3914(5) 0.5919(6) 0.2803(2)
C34 C 0.4912(5) 0.5917(6) 0.3320(2)
H21 H 0.5263 0.5001 0.3482
C35 C 0.5385(5) 0.7234(6) 0.3593(3)
H22 H 0.6041 0.7212 0.3951
C36 C 0.4913(5) 0.8593(6) 0.3352(2)
C37 C 0.4038(5) 0.8603(6) 0.2782(2)
H23 H 0.3787 0.9517 0.2572
C38 C 0.3538(5) 0.7280(6) 0.2523(3)
H24 H 0.2922 0.7303 0.2145
C39 C 0.6416(5) 1.0700(6) 0.3731(2)
C40 C 0.7603(5) 1.0309(6) 0.3436(3)
H25 H 0.7699 0.9410 0.3186
C41 C 0.8618(5) 1.1295(6) 0.3529(3)
H26 H 0.9433 1.1065 0.3337
C42 C 0.8491(5) 1.2623(6) 0.3898(3)
H27 H 0.9216 1.3272 0.3951
C43 C 0.7320(5) 1.3001(6) 0.4184(3)
H28 H 0.7232 1.3901 0.4434
C44 C 0.6277(5) 1.2037(6) 0.4099(2)
C45 C 0.4918(5) 1.2103(5) 0.4285(2)
C46 C 0.4178(5) 1.3164(6) 0.4634(2)
H29 H 0.4568 1.4050 0.4807
C47 C 0.2861(5) 1.2886(6) 0.4719(2)
H30 H 0.2343 1.3600 0.4944
C48 C 0.2297(5) 1.1577(6) 0.4477(3)
H31 H 0.1402 1.1403 0.4553
C49 C 0.3006(5) 1.0511(6) 0.4127(3)
H32 H 0.2614 0.9618 0.3963
C50 C 0.4309(5) 1.0813(6) 0.4027(2)
loop_
_geom_bond_atom_site_label_1
_geom_bond_atom_site_label_2
_geom_bond_site_symmetry_1
_geom_bond_site_symmetry_2
S1 C1 1_555 1_555
N1 C18 1_555 1_555
N2 C36 1_555 1_555
C1 C2 1_555 1_555
C2 H1 1_555 1_555
C3 C2 1_555 1_555
H2 C3 1_555 1_555
C4 C3 1_555 1_555
H3 C4 1_555 1_555
C5 C4 1_555 1_555
H4 C5 1_555 1_555
C6 C1 1_555 1_555
C7 C6 1_555 1_555
C8 C7 1_555 1_555
C9 C8 1_555 1_555
H5 C9 1_555 1_555
C10 C9 1_555 1_555
H6 C10 1_555 1_555
C11 C10 1_555 1_555
H7 C11 1_555 1_555
C12 C11 1_555 1_555
H8 C12 1_555 1_555
C13 S1 1_555 1_555
C14 C7 1_555 1_555
C15 C14 1_555 1_555
C16 C15 1_555 1_555
H9 C16 1_555 1_555
C17 C16 1_555 1_555
H10 C17 1_555 1_555
C18 C17 1_555 1_555
C19 C18 1_555 1_555
H11 C19 1_555 1_555
C20 C15 1_555 1_555
H12 C20 1_555 1_555
C21 N1 1_555 1_555
C22 C21 1_555 1_555
H13 C22 1_555 1_555
C23 C22 1_555 1_555
H14 C23 1_555 1_555
C24 C23 1_555 1_555
H15 C24 1_555 1_555
C25 C24 1_555 1_555
H16 C25 1_555 1_555
C26 C21 1_555 1_555
C27 C26 1_555 1_555
C28 C27 1_555 1_555
H17 C28 1_555 1_555
C29 C28 1_555 1_555
H18 C29 1_555 1_555
C30 C29 1_555 1_555
H19 C30 1_555 1_555
C31 C30 1_555 1_555
H20 C31 1_555 1_555
C32 N1 1_555 1_555
C33 C14 1_555 1_555
C34 C33 1_555 1_555
H21 C34 1_555 1_555
C35 C34 1_555 1_555
H22 C35 1_555 1_555
C36 C35 1_555 1_555
C37 C36 1_555 1_555
H23 C37 1_555 1_555
C38 C33 1_555 1_555
H24 C38 1_555 1_555
C39 N2 1_555 1_555
C40 C39 1_555 1_555
H25 C40 1_555 1_555
C41 C40 1_555 1_555
H26 C41 1_555 1_555
C42 C41 1_555 1_555
H27 C42 1_555 1_555
C43 C42 1_555 1_555
H28 C43 1_555 1_555
C44 C39 1_555 1_555
C45 C44 1_555 1_555
C46 C45 1_555 1_555
H29 C46 1_555 1_555
C47 C46 1_555 1_555
H30 C47 1_555 1_555
C48 C47 1_555 1_555
H31 C48 1_555 1_555
C49 C48 1_555 1_555
H32 C49 1_555 1_555
C50 N2 1_555 1_555
C5 C6 1_555 1_555
C8 C13 1_555 1_555
C12 C13 1_555 1_555
C19 C20 1_555 1_555
C25 C26 1_555 1_555
C27 C32 1_555 1_555
C31 C32 1_555 1_555
C37 C38 1_555 1_555
C43 C44 1_555 1_555
C45 C50 1_555 1_555
C49 C50 1_555 1_555

#END
