
#######################################################################
#
#                 Cambridge Crystallographic Data Centre
#                                CCDC 
#
#######################################################################
#
# If this CIF has been generated from an entry in the Cambridge 
# Structural Database, then it will include bibliographic, chemical, 
# crystal, experimental, refinement or atomic coordinate data resulting 
# from the CCDC's data processing and validation procedures.
#
#######################################################################

data_VIDDIY
_chemical_formula_moiety         'C36 H27 B1 F2 O3'
_chemical_name_systematic        
(3-(4-methoxyphenyl)-3-oxo-1-[4-(triphenylethenyl)phenyl]prop-1-en-1-olate)(difluoro)boron
_symmetry_cell_setting           triclinic
_symmetry_space_group_name_H-M   'P -1'
_symmetry_Int_Tables_number      2
_space_group_name_Hall           '-P 1'
loop_
_symmetry_equiv_pos_site_id
_symmetry_equiv_pos_as_xyz
1 x,y,z
2 -x,-y,-z
_cell_length_a                   8.7381(14)
_cell_length_b                   13.875(2)
_cell_length_c                   13.959(2)
_cell_angle_alpha                104.267(2)
_cell_angle_beta                 107.466(2)
_cell_angle_gamma                95.873(2)
_cell_volume                     1535.88
_exptl_crystal_colour            yellow
_exptl_crystal_description       block
_cell_formula_units_Z            2
loop_
_atom_site_label
_atom_site_type_symbol
_atom_site_fract_x
_atom_site_fract_y
_atom_site_fract_z
F1 F 0.09054(16) 0.34808(11) 0.17510(11)
F2 F 0.12258(17) 0.25580(10) 0.02895(10)
O1 O 0.34123(16) 0.30445(12) 0.18400(13)
O2 O 0.23643(15) 0.42601(11) 0.09310(11)
O3 O 0.4554(2) 0.84195(13) 0.02413(15)
C1 C 0.9120(3) 0.04407(15) 0.28710(16)
H1 H 0.8279 0.0419 0.3150
C2 C 0.8846(3) -0.01236(17) 0.18429(19)
H2 H 0.7825 -0.0526 0.1443
C3 C 1.0036(5) -0.0097(2) 0.1417(2)
H3 H 0.9827 -0.0460 0.0721
C4 C 1.1566(4) 0.0471(2) 0.2017(2)
H4 H 1.2395 0.0487 0.1728
C5 C 1.1867(3) 0.10148(19) 0.30426(19)
H5 H 1.2914 0.1376 0.3450
C6 C 1.0637(2) 0.10340(14) 0.34812(14)
C7 C 1.0998(2) 0.16427(14) 0.45961(14)
C8 C 1.2553(2) 0.15367(15) 0.53605(14)
C9 C 1.2891(3) 0.06031(17) 0.54231(19)
H6 H 1.2111 0.0023 0.5015
C10 C 1.4379(3) 0.0513(2) 0.6087(2)
H7 H 1.4574 -0.0124 0.6131
C11 C 1.5549(3) 0.1346(2) 0.6670(2)
H8 H 1.6546 0.1281 0.7108
C12 C 1.5255(3) 0.2285(2) 0.6611(2)
H9 H 1.6061 0.2858 0.6998
C13 C 1.3751(3) 0.23803(18) 0.59731(19)
H10 H 1.3545 0.3022 0.5957
C14 C 1.0176(2) 0.21341(15) 0.66798(14)
H11 H 1.0251 0.1456 0.6466
C15 C 1.0116(2) 0.25438(18) 0.76716(16)
H12 H 1.0135 0.2138 0.8113
C16 C 1.0029(3) 0.3534(2) 0.80068(18)
H13 H 1.0008 0.3808 0.8681
C17 C 0.9971(3) 0.41364(18) 0.7348(2)
H14 H 0.9903 0.4814 0.7576
C18 C 1.0015(3) 0.37285(16) 0.63442(17)
H15 H 0.9971 0.4136 0.5902
C19 C 1.0126(2) 0.27152(14) 0.59940(14)
C20 C 1.0009(2) 0.22497(14) 0.48818(14)
C21 C 0.8671(2) 0.25219(14) 0.40961(14)
C22 C 0.7081(2) 0.23975(17) 0.41216(17)
H16 H 0.6844 0.2108 0.4607
C23 C 0.5859(2) 0.26945(17) 0.34414(17)
H17 H 0.4796 0.2575 0.3449
C24 C 0.6194(2) 0.31728(14) 0.27405(14)
C25 C 0.7785(2) 0.33159(15) 0.27235(15)
H18 H 0.8036 0.3645 0.2269
C26 C 0.8990(2) 0.29750(15) 0.33737(15)
H19 H 1.0034 0.3049 0.3329
C27 C 0.4886(2) 0.35440(14) 0.20728(14)
C28 C 0.5152(2) 0.43856(15) 0.17544(15)
H20 H 0.6217 0.4717 0.1913
C29 C 0.3860(2) 0.47490(15) 0.12003(13)
C30 C 0.4026(2) 0.56829(14) 0.09071(14)
C31 C 0.5551(2) 0.62886(17) 0.11606(17)
H21 H 0.6492 0.6081 0.1499
C32 C 0.5679(3) 0.71825(18) 0.09190(19)
H22 H 0.6705 0.7575 0.1088
C33 C 0.4288(2) 0.75091(16) 0.04227(17)
C34 C 0.2769(2) 0.69156(17) 0.01439(16)
H23 H 0.1833 0.7125 -0.0199
C35 C 0.2653(2) 0.60120(16) 0.03775(15)
H24 H 0.1627 0.5608 0.0177
C36 C 0.3175(3) 0.8819(2) -0.0226(2)
H25 H 0.3540 0.9461 -0.0308
H26 H 0.2542 0.8358 -0.0902
H27 H 0.2513 0.8908 0.0216
B1 B 0.1953(3) 0.33160(19) 0.12001(18)
loop_
_geom_bond_atom_site_label_1
_geom_bond_atom_site_label_2
_geom_bond_site_symmetry_1
_geom_bond_site_symmetry_2
F1 B1 1_555 1_555
F2 B1 1_555 1_555
O1 C27 1_555 1_555
O2 C29 1_555 1_555
O3 C33 1_555 1_555
C1 H1 1_555 1_555
C2 C1 1_555 1_555
H2 C2 1_555 1_555
C3 C2 1_555 1_555
H3 C3 1_555 1_555
C4 C3 1_555 1_555
H4 C4 1_555 1_555
C5 C4 1_555 1_555
H5 C5 1_555 1_555
C6 C1 1_555 1_555
C7 C6 1_555 1_555
C8 C7 1_555 1_555
C9 C8 1_555 1_555
H6 C9 1_555 1_555
C10 C9 1_555 1_555
H7 C10 1_555 1_555
C11 C10 1_555 1_555
H8 C11 1_555 1_555
C12 C11 1_555 1_555
H9 C12 1_555 1_555
C13 C8 1_555 1_555
H10 C13 1_555 1_555
C14 H11 1_555 1_555
C15 C14 1_555 1_555
H12 C15 1_555 1_555
C16 C15 1_555 1_555
H13 C16 1_555 1_555
C17 C16 1_555 1_555
H14 C17 1_555 1_555
C18 C17 1_555 1_555
H15 C18 1_555 1_555
C19 C14 1_555 1_555
C20 C7 1_555 1_555
C21 C20 1_555 1_555
C22 C21 1_555 1_555
H16 C22 1_555 1_555
C23 C22 1_555 1_555
H17 C23 1_555 1_555
C24 C23 1_555 1_555
C25 C24 1_555 1_555
H18 C25 1_555 1_555
C26 C21 1_555 1_555
H19 C26 1_555 1_555
C27 C24 1_555 1_555
C28 C27 1_555 1_555
H20 C28 1_555 1_555
C29 C28 1_555 1_555
C30 C29 1_555 1_555
C31 C30 1_555 1_555
H21 C31 1_555 1_555
C32 C31 1_555 1_555
H22 C32 1_555 1_555
C33 C32 1_555 1_555
C34 C33 1_555 1_555
H23 C34 1_555 1_555
C35 C30 1_555 1_555
H24 C35 1_555 1_555
C36 O3 1_555 1_555
H25 C36 1_555 1_555
H26 C36 1_555 1_555
H27 C36 1_555 1_555
B1 O1 1_555 1_555
O2 B1 1_555 1_555
C5 C6 1_555 1_555
C12 C13 1_555 1_555
C18 C19 1_555 1_555
C19 C20 1_555 1_555
C25 C26 1_555 1_555
C34 C35 1_555 1_555

#END
