
#######################################################################
#
#                 Cambridge Crystallographic Data Centre
#                                CCDC 
#
#######################################################################
#
# If this CIF has been generated from an entry in the Cambridge 
# Structural Database, then it will include bibliographic, chemical, 
# crystal, experimental, refinement or atomic coordinate data resulting 
# from the CCDC's data processing and validation procedures.
#
#######################################################################

data_VIDDUK
_chemical_formula_moiety         'C39 H33 B1 F2 O3'
_chemical_name_systematic        
(3-(4-butoxyphenyl)-3-oxo-1-[4-(triphenylethenyl)phenyl]prop-1-en-1-olate)(difluoro)boron
_symmetry_cell_setting           triclinic
_symmetry_space_group_name_H-M   'P -1'
_symmetry_Int_Tables_number      2
_space_group_name_Hall           '-P 1'
loop_
_symmetry_equiv_pos_site_id
_symmetry_equiv_pos_as_xyz
1 x,y,z
2 -x,-y,-z
_cell_length_a                   9.1019(6)
_cell_length_b                   10.2969(7)
_cell_length_c                   16.7245(11)
_cell_angle_alpha                101.283(5)
_cell_angle_beta                 93.743(4)
_cell_angle_gamma                90.043(4)
_cell_volume                     1533.72
_exptl_crystal_colour            yellow
_exptl_crystal_description       block
_cell_formula_units_Z            2
loop_
_atom_site_label
_atom_site_type_symbol
_atom_site_fract_x
_atom_site_fract_y
_atom_site_fract_z
F1 F 0.7308(4) 0.8160(3) 0.6384(2)
F2 F 0.5316(4) 0.7627(3) 0.5505(2)
O1 O 0.6366(4) 0.6035(3) 0.6167(2)
O2 O 0.7613(5) 0.6864(4) 0.5116(2)
O3 O 1.1090(5) 0.5187(4) 0.1978(3)
C1 C 0.6743(7) 0.0563(5) 0.8285(3)
C2 C 0.7353(8) 0.1811(6) 0.8482(4)
H1 H 0.6799 0.2532 0.8352
C3 C 0.8726(9) 0.2054(6) 0.8859(4)
H2 H 0.9118 0.2931 0.8983
C4 C 0.9549(8) 0.1018(7) 0.9060(4)
H3 H 1.0510 0.1182 0.9318
C5 C 0.8968(7) -0.0257(6) 0.8884(4)
H4 H 0.9514 -0.0972 0.9029
C6 C 0.7571(7) -0.0470(6) 0.8491(4)
H5 H 0.7171 -0.1344 0.8360
C7 C 0.5167(8) 0.0176(6) 0.7890(4)
C8 C 0.4373(6) -0.0905(5) 0.8214(3)
C9 C 0.3982(7) -0.0620(5) 0.9017(3)
H6 H 0.4232 0.0222 0.9345
C10 C 0.3250(7) -0.1517(6) 0.9342(4)
H7 H 0.2997 -0.1304 0.9894
C11 C 0.2879(8) -0.2731(6) 0.8874(4)
H8 H 0.2337 -0.3351 0.9095
C12 C 0.3289(7) -0.3052(6) 0.8085(4)
H9 H 0.3065 -0.3906 0.7765
C13 C 0.4020(7) -0.2139(5) 0.7761(3)
H10 H 0.4289 -0.2362 0.7212
C14 C 0.4553(8) 0.0709(6) 0.7323(4)
C15 C 0.3041(7) 0.0255(6) 0.6931(3)
C16 C 0.1820(7) 0.0226(6) 0.7355(4)
H11 H 0.1896 0.0461 0.7935
C17 C 0.0457(8) -0.0146(6) 0.6943(4)
H12 H -0.0394 -0.0155 0.7242
C18 C 0.0347(9) -0.0488(6) 0.6132(5)
H13 H -0.0578 -0.0776 0.5859
C19 C 0.1534(9) -0.0433(6) 0.5690(4)
H14 H 0.1425 -0.0651 0.5110
C20 C 0.2927(8) -0.0056(6) 0.6083(4)
H15 H 0.3764 -0.0015 0.5778
C21 C 0.5294(7) 0.1803(5) 0.6991(3)
C22 C 0.4644(7) 0.3021(6) 0.7126(4)
H16 H 0.3858 0.3180 0.7478
C23 C 0.5114(7) 0.4011(5) 0.6760(3)
H17 H 0.4671 0.4857 0.6874
C24 C 0.6224(6) 0.3793(5) 0.6228(3)
C25 C 0.6899(7) 0.2562(5) 0.6095(3)
H18 H 0.7681 0.2398 0.5741
C26 C 0.6427(8) 0.1578(6) 0.6481(3)
H19 H 0.6892 0.0741 0.6392
C27 C 0.6667(6) 0.4836(5) 0.5803(3)
C28 C 0.7375(6) 0.4602(5) 0.5085(3)
H20 H 0.7527 0.3718 0.4812
C29 C 0.7863(6) 0.5648(5) 0.4760(3)
C30 C 0.8714(6) 0.5485(5) 0.4044(3)
C31 C 0.8929(7) 0.6547(5) 0.3657(4)
H21 H 0.8524 0.7383 0.3872
C32 C 0.9707(7) 0.6410(6) 0.2977(4)
H22 H 0.9833 0.7149 0.2724
C33 C 1.0315(7) 0.5212(6) 0.2651(4)
C34 C 1.0134(7) 0.4141(5) 0.3028(3)
H23 H 1.0561 0.3313 0.2819
C35 C 0.9331(7) 0.4288(5) 0.3706(3)
H24 H 0.9194 0.3544 0.3953
C36 C 1.1821(9) 0.4012(6) 0.1641(4)
H25 H 1.1172 0.3223 0.1584
H26 H 1.2728 0.3888 0.1976
C37 C 1.220(2) 0.4305(17) 0.0747(11)
H27 H 1.1278 0.4416 0.0423
H28 H 1.2791 0.5134 0.0821
C38 C 1.3052(14) 0.3171(10) 0.0302(7)
H29 H 1.2490 0.2328 0.0231
H30 H 1.4013 0.3082 0.0597
C39 C 1.3258(13) 0.3552(9) -0.0519(5)
H31 H 1.2299 0.3753 -0.0765
H32 H 1.3701 0.2814 -0.0882
H33 H 1.3906 0.4333 -0.0438
B1 B 0.6648(8) 0.7203(6) 0.5801(4)
H34? H 1.1065 0.3337 0.1391
H35? H 1.2355 0.3681 0.2094
C40? C 1.285(2) 0.4111(19) 0.1037(8)
H36? H 1.3578 0.3391 0.1000
H37? H 1.3380 0.4975 0.1168
C41? C 1.193(2) 0.399(2) 0.0280(11)
H38? H 1.1438 0.4834 0.0242
H39? H 1.1172 0.3283 0.0236
H40? H 1.3982 0.4273 -0.0469
H41? H 1.2731 0.3414 -0.1059
H42? H 1.3764 0.2737 -0.0450
loop_
_geom_bond_atom_site_label_1
_geom_bond_atom_site_label_2
_geom_bond_site_symmetry_1
_geom_bond_site_symmetry_2
F1 B1 1_555 1_555
F2 B1 1_555 1_555
O1 C27 1_555 1_555
O2 C29 1_555 1_555
O3 C33 1_555 1_555
C1 C2 1_555 1_555
C2 H1 1_555 1_555
C3 C2 1_555 1_555
H2 C3 1_555 1_555
C4 C3 1_555 1_555
H3 C4 1_555 1_555
C5 C4 1_555 1_555
H4 C5 1_555 1_555
C6 C1 1_555 1_555
H5 C6 1_555 1_555
C7 C1 1_555 1_555
C8 C7 1_555 1_555
C9 C8 1_555 1_555
H6 C9 1_555 1_555
C10 C9 1_555 1_555
H7 C10 1_555 1_555
C11 C10 1_555 1_555
H8 C11 1_555 1_555
C12 C11 1_555 1_555
H9 C12 1_555 1_555
C13 C8 1_555 1_555
H10 C13 1_555 1_555
C14 C7 1_555 1_555
C15 C14 1_555 1_555
C16 C15 1_555 1_555
H11 C16 1_555 1_555
C17 C16 1_555 1_555
H12 C17 1_555 1_555
C18 C17 1_555 1_555
H13 C18 1_555 1_555
C19 C18 1_555 1_555
H14 C19 1_555 1_555
C20 C15 1_555 1_555
H15 C20 1_555 1_555
C21 C14 1_555 1_555
C22 C21 1_555 1_555
H16 C22 1_555 1_555
C23 C22 1_555 1_555
H17 C23 1_555 1_555
C24 C23 1_555 1_555
C25 C24 1_555 1_555
H18 C25 1_555 1_555
C26 C21 1_555 1_555
H19 C26 1_555 1_555
C27 C24 1_555 1_555
C28 C27 1_555 1_555
H20 C28 1_555 1_555
C29 C28 1_555 1_555
C30 C29 1_555 1_555
C31 C30 1_555 1_555
H21 C31 1_555 1_555
C32 C31 1_555 1_555
H22 C32 1_555 1_555
C33 C32 1_555 1_555
C34 C33 1_555 1_555
H23 C34 1_555 1_555
C35 C30 1_555 1_555
H24 C35 1_555 1_555
C36 O3 1_555 1_555
H25 C36 1_555 1_555
H26 C36 1_555 1_555
C37 C36 1_555 1_555
H27 C37 1_555 1_555
H28 C37 1_555 1_555
C38 C37 1_555 1_555
H29 C38 1_555 1_555
H30 C38 1_555 1_555
C39 C38 1_555 1_555
H31 C39 1_555 1_555
H32 C39 1_555 1_555
H33 C39 1_555 1_555
B1 O1 1_555 1_555
O2 B1 1_555 1_555
C5 C6 1_555 1_555
C12 C13 1_555 1_555
C19 C20 1_555 1_555
C25 C26 1_555 1_555
C34 C35 1_555 1_555

#END
