
#######################################################################
#
#                 Cambridge Crystallographic Data Centre
#                                CCDC 
#
#######################################################################
#
# If this CIF has been generated from an entry in the Cambridge 
# Structural Database, then it will include bibliographic, chemical, 
# crystal, experimental, refinement or atomic coordinate data resulting 
# from the CCDC's data processing and validation procedures.
#
#######################################################################

data_VIDFEW
_chemical_formula_moiety         'C44 H43 B1 F2 O3,0.5(C6 H14)'
_chemical_name_systematic        
'(3-[4-(nonyloxy)phenyl]-3-oxo-1-[4-(triphenylethenyl)phenyl]prop-1-en-1-olate)(difluoro)boron n-hexane solvate'
_symmetry_cell_setting           triclinic
_symmetry_space_group_name_H-M   'P -1'
_symmetry_Int_Tables_number      2
_space_group_name_Hall           '-P 1'
loop_
_symmetry_equiv_pos_site_id
_symmetry_equiv_pos_as_xyz
1 x,y,z
2 -x,-y,-z
_cell_length_a                   9.2196(17)
_cell_length_b                   9.9971(18)
_cell_length_c                   21.908(4)
_cell_angle_alpha                91.519(2)
_cell_angle_beta                 90.590(2)
_cell_angle_gamma                95.333(2)
_cell_volume                     2009.63
_cell_formula_units_Z            2
loop_
_atom_site_label
_atom_site_type_symbol
_atom_site_fract_x
_atom_site_fract_y
_atom_site_fract_z
F1 F 0.51712(15) 0.74143(14) 0.02962(7)
F2 F 0.70402(16) 0.71661(13) 0.09423(6)
O1 O 0.61784(17) 0.92535(14) 0.08718(7)
O2 O 0.75116(17) 0.82581(14) 0.00415(7)
O3 O 1.14328(18) 0.98688(15) -0.22122(7)
C1 C 0.2724(3) 1.5244(2) 0.09321(11)
H1 H 0.3568 1.5212 0.0705
C2 C 0.1419(3) 1.5438(2) 0.06415(12)
H2 H 0.1392 1.5546 0.0221
C3 C 0.0170(3) 1.5473(2) 0.09718(14)
H3 H -0.0699 1.5622 0.0777
C4 C 0.0197(3) 1.5290(2) 0.15813(13)
H4 H -0.0660 1.5287 0.1802
C5 C 0.1483(2) 1.5109(2) 0.18771(11)
H5 H 0.1488 1.4993 0.2297
C6 C 0.2773(2) 1.5095(2) 0.15573(10)
C7 C 0.4218(2) 1.4937(2) 0.18564(10)
C8 C 0.4792(2) 1.5795(2) 0.22847(10)
C9 C 0.4008(2) 1.6952(2) 0.25187(11)
C10 C 0.3579(3) 1.7935(2) 0.21434(12)
H6 H 0.3798 1.7900 0.1730
C11 C 0.2835(3) 1.8964(3) 0.23691(16)
H7 H 0.2558 1.9619 0.2110
C12 C 0.2507(3) 1.9025(3) 0.29675(18)
H8 H 0.1971 1.9705 0.3115
C13 C 0.2954(4) 1.8100(4) 0.33594(15)
H9 H 0.2750 1.8166 0.3773
C14 C 0.3720(3) 1.7057(3) 0.31331(12)
H10 H 0.4037 1.6430 0.3398
C15 C 0.6253(2) 1.5689(2) 0.25847(10)
C16 C 0.7274(3) 1.6802(2) 0.25799(11)
H11 H 0.7059 1.7563 0.2375
C17 C 0.8600(3) 1.6793(3) 0.28755(13)
H12 H 0.9275 1.7544 0.2866
C18 C 0.8923(3) 1.5688(3) 0.31813(13)
H13 H 0.9814 1.5685 0.3384
C19 C 0.7926(4) 1.4572(3) 0.31890(13)
H14 H 0.8146 1.3815 0.3396
C20 C 0.6601(3) 1.4576(3) 0.28906(12)
H15 H 0.5937 1.3817 0.2896
C21 C 0.4964(2) 1.3769(2) 0.16029(10)
C22 C 0.6203(2) 1.3950(2) 0.12510(10)
H16 H 0.6680 1.4806 0.1217
C23 C 0.6738(2) 1.2872(2) 0.09492(10)
H17 H 0.7562 1.3014 0.0710
C24 C 0.6063(2) 1.15834(19) 0.09978(9)
C25 C 0.4864(2) 1.1396(2) 0.13715(10)
H18 H 0.4427 1.0533 0.1428
C26 C 0.4312(2) 1.2477(2) 0.16608(11)
H19 H 0.3485 1.2335 0.1899
C27 C 0.6557(2) 1.0430(2) 0.06535(10)
C28 C 0.7351(2) 1.0559(2) 0.01307(10)
H20 H 0.7554 1.1406 -0.0031
C29 C 0.7857(2) 0.9453(2) -0.01621(10)
C30 C 0.8788(2) 0.9541(2) -0.06957(9)
C31 C 0.9172(2) 0.8385(2) -0.09945(10)
H21 H 0.8828 0.7550 -0.0850
C32 C 1.0053(2) 0.8449(2) -0.15006(10)
H22 H 1.0295 0.7663 -0.1695
C33 C 1.0572(2) 0.9684(2) -0.17176(10)
C34 C 1.0209(3) 1.0848(2) -0.14215(11)
H23 H 1.0563 1.1682 -0.1564
C35 C 0.9335(3) 1.0777(2) -0.09209(10)
H24 H 0.9101 1.1567 -0.0727
C36 C 1.1991(3) 0.8723(2) -0.25025(11)
H25 H 1.1198 0.8094 -0.2655
H26 H 1.2568 0.8268 -0.2215
C37 C 1.2920(3) 0.9241(3) -0.30212(11)
H27 H 1.3502 0.8538 -0.3163
H28 H 1.3582 0.9991 -0.2871
C38 C 1.2057(3) 0.9696(3) -0.35555(11)
H29 H 1.1447 0.8929 -0.3724
H30 H 1.1420 1.0350 -0.3408
C39 C 1.2982(3) 1.0308(3) -0.40572(12)
H31 H 1.3653 0.9671 -0.4190
H32 H 1.3556 1.1101 -0.3893
C40 C 1.2118(3) 1.0702(3) -0.46080(13)
H33 H 1.1556 0.9906 -0.4776
H34 H 1.1436 1.1327 -0.4473
C41 C 1.3031(4) 1.1333(4) -0.51043(14)
H35 H 1.3717 1.0708 -0.5236
H36 H 1.3592 1.2129 -0.4935
C42 C 1.2198(3) 1.1727(3) -0.56550(13)
H37 H 1.1686 1.0922 -0.5839
H38 H 1.1470 1.2306 -0.5519
C43 C 1.3097(4) 1.2437(4) -0.61383(15)
H39 H 1.3779 1.1836 -0.6297
H40 H 1.3660 1.3211 -0.5951
C44 C 1.2225(4) 1.2902(4) -0.66629(15)
H41 H 1.2872 1.3344 -0.6951
H42 H 1.1683 1.2142 -0.6860
H43 H 1.1565 1.3519 -0.6513
B1 B 0.6457(3) 0.7988(2) 0.05415(13)
C45 C 1.6798(7) 1.3580(8) -0.5056(3)
H44 H 1.6356 1.2785 -0.4872
H45 H 1.6331 1.4346 -0.4913
H46 H 1.6689 1.3489 -0.5492
C46 C 1.8321(9) 1.3759(8) -0.4896(4)
H47 H 1.8371 1.3787 -0.4453
H48 H 1.8725 1.2939 -0.5027
C47 C 1.9262(6) 1.4779(6) -0.5079(3)
H49 H 1.8747 1.5570 -0.5007
H50 H 1.9276 1.4652 -0.5520
C45A C 2.3202(7) 1.6420(8) -0.4944(3)
H44A H 2.3644 1.7215 -0.5128
H45A H 2.3669 1.5654 -0.5087
H46A H 2.3311 1.6511 -0.4508
C46A C 2.1679(9) 1.6241(8) -0.5104(4)
H47A H 2.1629 1.6213 -0.5547
H48A H 2.1275 1.7061 -0.4973
C47A C 2.0738(6) 1.5221(6) -0.4921(3)
H49A H 2.1253 1.4430 -0.4993
H50A H 2.0724 1.5348 -0.4480
loop_
_geom_bond_atom_site_label_1
_geom_bond_atom_site_label_2
_geom_bond_site_symmetry_1
_geom_bond_site_symmetry_2
F1 B1 1_555 1_555
F2 B1 1_555 1_555
O1 C27 1_555 1_555
O2 C29 1_555 1_555
O3 C33 1_555 1_555
C1 H1 1_555 1_555
C2 C1 1_555 1_555
H2 C2 1_555 1_555
C3 C2 1_555 1_555
H3 C3 1_555 1_555
C4 C3 1_555 1_555
H4 C4 1_555 1_555
C5 C4 1_555 1_555
H5 C5 1_555 1_555
C6 C1 1_555 1_555
C7 C6 1_555 1_555
C8 C7 1_555 1_555
C9 C8 1_555 1_555
C10 C9 1_555 1_555
H6 C10 1_555 1_555
C11 C10 1_555 1_555
H7 C11 1_555 1_555
C12 C11 1_555 1_555
H8 C12 1_555 1_555
C13 C12 1_555 1_555
H9 C13 1_555 1_555
C14 C9 1_555 1_555
H10 C14 1_555 1_555
C15 C8 1_555 1_555
C16 C15 1_555 1_555
H11 C16 1_555 1_555
C17 C16 1_555 1_555
H12 C17 1_555 1_555
C18 C17 1_555 1_555
H13 C18 1_555 1_555
C19 C18 1_555 1_555
H14 C19 1_555 1_555
C20 C15 1_555 1_555
H15 C20 1_555 1_555
C21 C7 1_555 1_555
C22 C21 1_555 1_555
H16 C22 1_555 1_555
C23 C22 1_555 1_555
H17 C23 1_555 1_555
C24 C23 1_555 1_555
C25 C24 1_555 1_555
H18 C25 1_555 1_555
C26 C21 1_555 1_555
H19 C26 1_555 1_555
C27 C24 1_555 1_555
C28 C27 1_555 1_555
H20 C28 1_555 1_555
C29 C28 1_555 1_555
C30 C29 1_555 1_555
C31 C30 1_555 1_555
H21 C31 1_555 1_555
C32 C31 1_555 1_555
H22 C32 1_555 1_555
C33 C32 1_555 1_555
C34 C33 1_555 1_555
H23 C34 1_555 1_555
C35 C30 1_555 1_555
H24 C35 1_555 1_555
C36 O3 1_555 1_555
H25 C36 1_555 1_555
H26 C36 1_555 1_555
C37 C36 1_555 1_555
H27 C37 1_555 1_555
H28 C37 1_555 1_555
C38 C37 1_555 1_555
H29 C38 1_555 1_555
H30 C38 1_555 1_555
C39 C38 1_555 1_555
H31 C39 1_555 1_555
H32 C39 1_555 1_555
C40 C39 1_555 1_555
H33 C40 1_555 1_555
H34 C40 1_555 1_555
C41 C40 1_555 1_555
H35 C41 1_555 1_555
H36 C41 1_555 1_555
C42 C41 1_555 1_555
H37 C42 1_555 1_555
H38 C42 1_555 1_555
C43 C42 1_555 1_555
H39 C43 1_555 1_555
H40 C43 1_555 1_555
C44 C43 1_555 1_555
H41 C44 1_555 1_555
H42 C44 1_555 1_555
H43 C44 1_555 1_555
B1 O1 1_555 1_555
C45 H44 1_555 1_555
H45 C45 1_555 1_555
H46 C45 1_555 1_555
C46 C45 1_555 1_555
H47 C46 1_555 1_555
H48 C46 1_555 1_555
C47 C46 1_555 1_555
H49 C47 1_555 1_555
H50 C47 1_555 1_555
C45A H44A 1_555 1_555
H45A C45A 1_555 1_555
H46A C45A 1_555 1_555
C46A C45A 1_555 1_555
H47A C46A 1_555 1_555
H48A C46A 1_555 1_555
C47A C47 1_555 1_555
H49A C47A 1_555 1_555
H50A C47A 1_555 1_555
O2 B1 1_555 1_555
C5 C6 1_555 1_555
C13 C14 1_555 1_555
C19 C20 1_555 1_555
C25 C26 1_555 1_555
C34 C35 1_555 1_555
C46A C47A 1_555 1_555

#END
