
#######################################################################
#
#                 Cambridge Crystallographic Data Centre
#                                CCDC 
#
#######################################################################
#
# If this CIF has been generated from an entry in the Cambridge 
# Structural Database, then it will include bibliographic, chemical, 
# crystal, experimental, refinement or atomic coordinate data resulting 
# from the CCDC's data processing and validation procedures.
#
#######################################################################

data_VIDLUR
_chemical_formula_moiety         'C38 H44 N6 2+,C4 H10 O1,C2 H3 N1,2(I1 1-)'
_chemical_name_systematic        
"4,4'-(5,10,10,15,20,20-Hexamethyl-5,10,15,20,22,24-hexahydroporphyrin-5,15-diyl)bis(1-methylpyridinium) diiodido acetonitrile diethyl ether solvate"
_symmetry_cell_setting           monoclinic
_symmetry_space_group_name_H-M   'P 21/c'
_symmetry_Int_Tables_number      14
_space_group_name_Hall           '-P 2ybc'
loop_
_symmetry_equiv_pos_site_id
_symmetry_equiv_pos_as_xyz
1 x,y,z
2 -x,1/2+y,1/2-z
3 -x,-y,-z
4 x,1/2-y,1/2+z
_cell_length_a                   9.2490(8)
_cell_length_b                   36.150(2)
_cell_length_c                   14.6590(14)
_cell_angle_alpha                90
_cell_angle_beta                 109.970(3)
_cell_angle_gamma                90
_cell_volume                     4606.55
_exptl_crystal_colour            yellow
_exptl_crystal_description       laths
_cell_formula_units_Z            4
loop_
_atom_site_label
_atom_site_type_symbol
_atom_site_fract_x
_atom_site_fract_y
_atom_site_fract_z
I1 I 0.02843(5) 0.638726(12) 0.70363(3)
I2 I 0.00320(9) 0.67384(2) 0.15829(5)
N1 N 0.2988(6) 0.61694(14) 0.9478(4)
H1 H 0.2304 0.6222 0.8907
N2 N 0.2255(6) 0.54899(14) 0.7754(4)
H2 H 0.1781 0.5702 0.7571
N3 N 0.3459(6) 0.60445(14) 0.6212(4)
H3 H 0.2651 0.6128 0.6336
N4 N 0.4205(7) 0.67329(14) 0.7968(4)
H4 H 0.3221 0.6677 0.7728
N5 N -0.2610(6) 0.57896(15) 0.8788(4)
C1 C 0.4058(8) 0.64146(18) 1.0034(5)
C2 C 0.4901(9) 0.6216(2) 1.0821(5)
H5 H 0.5767 0.6307 1.1332
C3 C 0.4311(8) 0.58528(19) 1.0775(5)
H6 H 0.4682 0.5664 1.1247
C4 C 0.3126(7) 0.58268(17) 0.9935(5)
C5 C 0.2089(7) 0.55085(17) 0.9498(4)
C6 C 0.2544(7) 0.53327(17) 0.8670(5)
C7 C 0.3318(8) 0.50062(19) 0.8650(5)
H7 H 0.3682 0.4835 0.9169
C8 C 0.3480(9) 0.4970(2) 0.7706(5)
H8 H 0.3970 0.4772 0.7503
C9 C 0.2812(7) 0.52683(18) 0.7161(5)
C10 C 0.2653(8) 0.53639(18) 0.6099(5)
C11 C 0.3729(8) 0.56686(18) 0.6050(5)
C12 C 0.5114(8) 0.56615(19) 0.5885(5)
H9 H 0.5603 0.5446 0.5758
C13 C 0.5688(8) 0.6030(2) 0.5936(5)
H10 H 0.6615 0.6103 0.5843
C14 C 0.4655(7) 0.62628(18) 0.6145(5)
C15 C 0.4729(8) 0.66727(18) 0.6331(5)
C16 C 0.5198(8) 0.67539(17) 0.7406(5)
C17 C 0.6599(9) 0.6836(2) 0.8027(6)
H11 H 0.7511 0.6867 0.7875
C18 C 0.6456(9) 0.6869(2) 0.8983(5)
H12 H 0.7283 0.6923 0.9562
C19 C 0.4983(9) 0.68108(18) 0.8934(5)
C20 C 0.4188(9) 0.68106(19) 0.9713(5)
C21 C 0.2232(8) 0.52082(18) 1.0291(5)
H13 H 0.1955 0.5317 1.0822
H14 H 0.3294 0.5117 1.0544
H15 H 0.1537 0.5002 1.0005
C22 C 0.0438(7) 0.56275(17) 0.9201(5)
C23 C -0.0084(8) 0.58915(18) 0.9723(5)
H16 H 0.0649 0.6019 1.0245
C24 C -0.1591(8) 0.59702(19) 0.9507(5)
H17 H -0.1913 0.6152 0.9864
C25 C -0.2155(7) 0.55356(18) 0.8254(5)
H18 H -0.2914 0.5416 0.7729
C26 C -0.0652(7) 0.54482(18) 0.8450(5)
H19 H -0.0360 0.5267 0.8076
C27 C -0.4249(8) 0.5872(2) 0.8578(5)
H20 H -0.4541 0.5805 0.9140
H21 H -0.4869 0.5730 0.8010
H22 H -0.4430 0.6137 0.8446
C28 C 0.0985(8) 0.5472(2) 0.5573(5)
H23 H 0.0762 0.5705 0.5842
H24 H 0.0306 0.5277 0.5659
H25 H 0.0813 0.5504 0.4880
C29 C 0.3063(9) 0.50175(19) 0.5610(5)
H26 H 0.2913 0.5073 0.4929
H27 H 0.2395 0.4811 0.5643
H28 H 0.4139 0.4950 0.5949
C30 C 0.5936(8) 0.6841(2) 0.5900(6)
H29 H 0.5942 0.7111 0.5956
H30 H 0.5652 0.6772 0.5214
H31 H 0.6962 0.6744 0.6260
C31 C 0.3210(16) 0.6856(5) 0.5789(12)
C32 C 0.2454(16) 0.6734(4) 0.4856(12)
H32 H 0.2842 0.6531 0.4599
C33 C 0.1148(15) 0.6910(4) 0.4308(10)
H33 H 0.0620 0.6827 0.3664
N6 N 0.0594(12) 0.7196(3) 0.4659(8)
C34 C 0.1263(17) 0.7324(4) 0.5543(10)
H34 H 0.0836 0.7527 0.5775
C35 C 0.2584(18) 0.7158(5) 0.6122(11)
H35 H 0.3087 0.7249 0.6760
C36 C -0.0819(18) 0.7385(5) 0.4067(12)
H36 H -0.0849 0.7633 0.4327
H37 H -0.1714 0.7243 0.4083
H38 H -0.0839 0.7403 0.3396
C37 C 0.5167(11) 0.7031(2) 1.0599(6)
H39 H 0.5254 0.7287 1.0409
H40 H 0.6194 0.6920 1.0860
H41 H 0.4680 0.7025 1.1097
C38 C 0.2611(9) 0.6989(2) 0.9371(5)
H42 H 0.1950 0.6861 0.8787
H43 H 0.2706 0.7250 0.9221
H44 H 0.2156 0.6970 0.9883
O1 O 0.6227(7) 0.83842(16) 0.8458(5)
C45 C 0.4691(16) 0.7834(3) 0.8193(12)
H52 H 0.5175 0.7716 0.7768
H53 H 0.3606 0.7762 0.7990
H54 H 0.5217 0.7755 0.8865
C46 C 0.4809(13) 0.8257(3) 0.8126(10)
H55 H 0.4333 0.8333 0.7439
H56 H 0.4212 0.8374 0.8496
C47 C 0.6506(15) 0.8745(3) 0.8530(11)
H57 H 0.6135 0.8846 0.9038
H58 H 0.5897 0.8862 0.7908
C48 C 0.8189(15) 0.8855(4) 0.8773(16)
H59 H 0.8829 0.8712 0.9333
H60 H 0.8307 0.9120 0.8926
H61 H 0.8511 0.8804 0.8214
N8 N -0.2706(11) 0.4756(3) 0.7066(6)
C53 C -0.2608(14) 0.4467(3) 0.6963(7)
C54 C -0.263(2) 0.4063(5) 0.6790(14)
H72 H -0.3313 0.3944 0.7089
H73 H -0.1590 0.3963 0.7077
H74 H -0.3014 0.4015 0.6090
C39? C 0.3240(18) 0.6872(6) 0.5802(14)
C40? C 0.2218(18) 0.6735(5) 0.4949(13)
H45? H 0.2468 0.6522 0.4653
C41? C 0.0845(17) 0.6909(4) 0.4536(11)
H46? H 0.0133 0.6816 0.3947
N7? N 0.0483(14) 0.7209(4) 0.4947(9)
C42? C 0.1419(19) 0.7351(5) 0.5763(11)
H47? H 0.1130 0.7564 0.6039
C43? C 0.281(2) 0.7187(6) 0.6204(12)
H48? H 0.3501 0.7287 0.6790
C44? C -0.1011(19) 0.7390(6) 0.4484(14)
H49? H -0.1477 0.7446 0.4976
H50? H -0.1690 0.7224 0.3995
H51? H -0.0864 0.7619 0.4172
C49? C 0.421(3) 0.7930(8) 0.808(4)
H62? H 0.3729 0.8074 0.8465
H63? H 0.4102 0.7665 0.8191
H64? H 0.3697 0.7985 0.7389
C50? C 0.592(2) 0.8030(4) 0.838(3)
H65? H 0.6475 0.7911 0.9012
H66? H 0.6338 0.7924 0.7896
C51? C 0.7608(19) 0.8526(6) 0.876(3)
H67? H 0.8187 0.8422 0.8359
H68? H 0.8140 0.8447 0.9437
C52? C 0.767(4) 0.8951(6) 0.871(4)
H69? H 0.7181 0.9033 0.8040
H70? H 0.8739 0.9033 0.8957
H71? H 0.7112 0.9057 0.9114
loop_
_geom_bond_atom_site_label_1
_geom_bond_atom_site_label_2
_geom_bond_site_symmetry_1
_geom_bond_site_symmetry_2
N1 H1 1_555 1_555
N2 H2 1_555 1_555
N3 H3 1_555 1_555
N4 H4 1_555 1_555
N5 C24 1_555 1_555
C1 N1 1_555 1_555
C2 C1 1_555 1_555
H5 C2 1_555 1_555
C3 C2 1_555 1_555
H6 C3 1_555 1_555
C4 N1 1_555 1_555
C5 C4 1_555 1_555
C6 N2 1_555 1_555
C7 C6 1_555 1_555
H7 C7 1_555 1_555
C8 C7 1_555 1_555
H8 C8 1_555 1_555
C9 N2 1_555 1_555
C10 C9 1_555 1_555
C11 N3 1_555 1_555
C12 C11 1_555 1_555
H9 C12 1_555 1_555
C13 C12 1_555 1_555
H10 C13 1_555 1_555
C14 N3 1_555 1_555
C15 C14 1_555 1_555
C16 N4 1_555 1_555
C17 C16 1_555 1_555
H11 C17 1_555 1_555
C18 C17 1_555 1_555
H12 C18 1_555 1_555
C19 N4 1_555 1_555
C20 C1 1_555 1_555
C21 C5 1_555 1_555
H13 C21 1_555 1_555
H14 C21 1_555 1_555
H15 C21 1_555 1_555
C22 C5 1_555 1_555
C23 C22 1_555 1_555
H16 C23 1_555 1_555
C24 C23 1_555 1_555
H17 C24 1_555 1_555
C25 N5 1_555 1_555
H18 C25 1_555 1_555
C26 C22 1_555 1_555
H19 C26 1_555 1_555
C27 N5 1_555 1_555
H20 C27 1_555 1_555
H21 C27 1_555 1_555
H22 C27 1_555 1_555
C28 C10 1_555 1_555
H23 C28 1_555 1_555
H24 C28 1_555 1_555
H25 C28 1_555 1_555
C29 C10 1_555 1_555
H26 C29 1_555 1_555
H27 C29 1_555 1_555
H28 C29 1_555 1_555
C30 C15 1_555 1_555
H29 C30 1_555 1_555
H30 C30 1_555 1_555
H31 C30 1_555 1_555
C31 C15 1_555 1_555
C32 C31 1_555 1_555
H32 C32 1_555 1_555
C33 C32 1_555 1_555
H33 C33 1_555 1_555
N6 C33 1_555 1_555
C34 N6 1_555 1_555
H34 C34 1_555 1_555
C35 C31 1_555 1_555
H35 C35 1_555 1_555
C36 N6 1_555 1_555
H36 C36 1_555 1_555
H37 C36 1_555 1_555
H38 C36 1_555 1_555
C37 C20 1_555 1_555
H39 C37 1_555 1_555
H40 C37 1_555 1_555
H41 C37 1_555 1_555
C38 C20 1_555 1_555
H42 C38 1_555 1_555
H43 C38 1_555 1_555
H44 C38 1_555 1_555
O1 C46 1_555 1_555
C45 H52 1_555 1_555
H53 C45 1_555 1_555
H54 C45 1_555 1_555
C46 C45 1_555 1_555
H55 C46 1_555 1_555
H56 C46 1_555 1_555
C47 O1 1_555 1_555
H57 C47 1_555 1_555
H58 C47 1_555 1_555
C48 C47 1_555 1_555
H59 C48 1_555 1_555
H60 C48 1_555 1_555
H61 C48 1_555 1_555
N8 C53 1_555 1_555
C53 C54 1_555 1_555
C54 H72 1_555 1_555
H73 C54 1_555 1_555
H74 C54 1_555 1_555
C3 C4 1_555 1_555
C5 C6 1_555 1_555
C8 C9 1_555 1_555
C10 C11 1_555 1_555
C13 C14 1_555 1_555
C15 C16 1_555 1_555
C18 C19 1_555 1_555
C19 C20 1_555 1_555
C25 C26 1_555 1_555
C34 C35 1_555 1_555

#END
