
#######################################################################
#
#                 Cambridge Crystallographic Data Centre
#                                CCDC 
#
#######################################################################
#
# If this CIF has been generated from an entry in the Cambridge 
# Structural Database, then it will include bibliographic, chemical, 
# crystal, experimental, refinement or atomic coordinate data resulting 
# from the CCDC's data processing and validation procedures.
#
#######################################################################

data_VIDMIG
_chemical_formula_moiety         'C41 H10 B1 F25 N2,0.15(C1 H2 Cl2)'
_chemical_name_systematic        
'1-(1,2,3,4,5-pentakis(pentafluorophenyl)-1-yl-borate)-4-(dimethylamino)pyridinium dichloromethane solvate'
_symmetry_cell_setting           triclinic
_symmetry_space_group_name_H-M   'P -1'
_symmetry_Int_Tables_number      2
_space_group_name_Hall           '-P 1'
loop_
_symmetry_equiv_pos_site_id
_symmetry_equiv_pos_as_xyz
1 x,y,z
2 -x,-y,-z
_cell_length_a                   11.003(2)
_cell_length_b                   19.158(4)
_cell_length_c                   20.004(4)
_cell_angle_alpha                76.77(3)
_cell_angle_beta                 85.03(3)
_cell_angle_gamma                73.96(3)
_cell_volume                     3943.8
_exptl_crystal_colour            'pale yellow'
_exptl_crystal_description       block
_cell_formula_units_Z            4
loop_
_atom_site_label
_atom_site_type_symbol
_atom_site_fract_x
_atom_site_fract_y
_atom_site_fract_z
F26 F 0.1280(2) 0.60700(12) 0.27290(12)
F27 F -0.3005(2) 0.84501(13) 0.36271(12)
F28 F -0.0268(2) 0.94434(12) 0.19568(11)
F29 F -0.2434(2) 0.60354(13) 0.40890(12)
F30 F 0.1460(2) 0.80213(13) 0.24792(12)
F31 F -0.0768(2) 0.69694(13) 0.43907(11)
F32 F -0.0485(3) 1.05307(13) 0.25978(12)
F33 F -0.3201(2) 0.95625(14) 0.42665(13)
F34 F -0.1375(2) 0.58495(13) 0.20545(12)
F35 F 0.2395(3) 0.46974(14) 0.34236(14)
F36 F 0.3012(2) 0.82278(14) 0.33317(15)
F37 F -0.4843(2) 0.89850(14) 0.26174(13)
F38 F -0.2939(2) 0.74268(14) 0.10887(12)
F39 F -0.1309(3) 0.46492(14) 0.47669(12)
F40 F 0.0906(3) 0.70817(15) 0.52256(12)
F41 F -0.1949(3) 1.06234(13) 0.37514(13)
F42 F -0.4958(2) 0.72136(16) 0.30914(16)
F43 F -0.2705(3) 0.49362(14) 0.18516(15)
F44 F -0.5026(3) 0.79640(17) 0.03275(14)
F45 F 0.2759(3) 0.77373(17) 0.47151(16)
F46 F -0.6911(3) 0.95090(16) 0.18505(16)
F47 F 0.1122(3) 0.39827(13) 0.44409(14)
F48 F -0.7035(3) 0.89946(17) 0.07093(16)
C42 C -0.0618(4) 0.61048(19) 0.33885(18)
N3 N -0.0930(3) 0.82632(16) 0.16556(15)
C43 C -0.1048(4) 0.9450(2) 0.25163(18)
C44 C 0.0615(4) 0.5741(2) 0.32388(19)
C45 C -0.1132(4) 1.0021(2) 0.2842(2)
C46 C -0.2407(4) 0.8978(2) 0.3335(2)
C47 C -0.2510(4) 0.9537(2) 0.3679(2)
C48 C -0.2398(4) 0.7102(2) 0.26352(18)
C49 C -0.0677(3) 0.74497(19) 0.29394(17)
C50 C -0.3118(3) 0.6569(2) 0.25700(18)
C51 C -0.1076(4) 0.8953(2) 0.04930(19)
H11 H -0.1473 0.9389 0.0173
C52 C -0.3820(4) 0.8174(2) 0.18955(19)
F49 F -0.6295(3) 0.6325(2) 0.2866(2)
C53 C 0.0299(4) 0.74634(19) 0.33909(19)
C54 C -0.2597(4) 0.5974(2) 0.22643(19)
C55 C -0.1706(4) 0.89096(19) 0.27314(18)
C56 C -0.1199(3) 0.68749(19) 0.30085(17)
C57 C 0.1292(4) 0.7786(2) 0.3156(2)
C58 C 0.0207(4) 0.7235(2) 0.4106(2)
C59 C -0.5923(4) 0.9002(2) 0.1664(2)
C60 C -0.1466(4) 0.8861(2) 0.11649(19)
H12 H -0.2149 0.9236 0.1296
C61 C -0.1867(4) 1.0069(2) 0.3428(2)
C62 C -0.4852(4) 0.8722(2) 0.2050(2)
C63 C 0.1032(4) 0.7312(2) 0.4543(2)
C64 C -0.0089(4) 0.8403(2) 0.02701(19)
C65 C 0.1980(4) 0.7645(2) 0.4288(2)
N4 N 0.0332(4) 0.8471(2) -0.03848(17)
F50 F -0.5177(3) 0.51673(19) 0.2245(2)
C66 C 0.1208(4) 0.5035(2) 0.3590(2)
C67 C -0.3907(4) 0.7943(2) 0.1291(2)
C68 C -0.0672(4) 0.5007(2) 0.42626(19)
C69 C -0.3262(4) 0.5507(2) 0.2151(2)
C70 C -0.0003(4) 0.7722(2) 0.1449(2)
H13 H 0.0360 0.7288 0.1781
C71 C -0.5989(4) 0.8738(2) 0.1086(2)
C72 C -0.4370(4) 0.6663(2) 0.2771(2)
C73 C 0.2112(4) 0.7888(2) 0.3588(2)
C74 C -0.2718(4) 0.7834(2) 0.23479(18)
B2 B -0.1523(4) 0.8167(2) 0.2421(2)
C75 C -0.1241(4) 0.5716(2) 0.39074(19)
C76 C 0.1361(7) 0.7891(3) -0.0595(3)
H14 H 0.1607 0.7474 -0.0202
H15 H 0.2088 0.8091 -0.0759
H16 H 0.1079 0.7719 -0.0964
C77 C 0.0551(5) 0.4670(2) 0.4105(2)
C78 C -0.5079(4) 0.6199(3) 0.2667(3)
C79 C -0.4969(5) 0.8207(3) 0.0898(2)
C80 C -0.4515(5) 0.5622(3) 0.2350(3)
C81 C -0.0185(5) 0.9148(3) -0.0896(2)
H17 H -0.0865 0.9484 -0.0684
H18 H -0.0521 0.9019 -0.1276
H19 H 0.0486 0.9393 -0.1072
C82 C 0.0437(5) 0.7772(2) 0.0784(2)
H20 H 0.1100 0.7379 0.0665
F1 F 0.2245(2) 0.16654(13) 0.13107(11)
F2 F 0.0140(2) 0.40840(12) 0.29241(12)
F3 F -0.0393(2) 0.36371(13) 0.10470(12)
F4 F -0.1629(2) 0.50265(15) 0.04106(12)
F5 F 0.2531(2) 0.46233(12) 0.18669(12)
F6 F 0.1243(2) 0.24377(13) 0.39088(12)
F7 F -0.0638(2) 0.20234(12) 0.22997(13)
F8 F 0.6225(2) 0.15342(13) 0.21330(12)
F9 F 0.1345(3) 0.59876(12) 0.11967(13)
F10 F 0.2169(3) 0.06634(13) 0.25224(13)
F11 F 0.7346(2) 0.06174(13) 0.13156(12)
F12 F -0.2927(2) 0.23059(15) 0.29201(15)
F13 F -0.0736(3) 0.62011(14) 0.04742(14)
F14 F -0.2200(2) 0.43961(14) 0.34943(14)
F15 F 0.3404(2) 0.07351(16) 0.05059(13)
F16 F 0.2732(2) 0.32227(17) 0.03706(12)
F17 F 0.5952(2) 0.01819(14) 0.05119(13)
F18 F 0.0921(3) 0.13925(18) 0.49958(13)
F19 F -0.3732(2) 0.35084(16) 0.35081(15)
N1 N 0.4104(3) 0.21276(16) 0.29587(15)
F20 F 0.5203(3) 0.34554(16) 0.20702(13)
F21 F 0.1813(3) -0.03731(14) 0.36140(17)
N2 N 0.4866(3) 0.19089(19) 0.50116(16)
F22 F 0.4262(3) 0.37545(19) -0.06103(13)
C1 C 0.1797(3) 0.33262(19) 0.18419(18)
C2 C 0.1119(3) 0.40767(19) 0.14719(18)
C3 C 0.5463(4) 0.1332(2) 0.17604(19)
C4 C -0.0165(3) 0.30442(19) 0.25925(18)
C5 C -0.0621(4) 0.3647(2) 0.28994(19)
C6 C -0.2177(4) 0.2748(2) 0.2907(2)
C7 C 0.4651(3) 0.1982(2) 0.43455(19)
C8 C -0.0991(4) 0.26072(19) 0.25979(19)
C9 C 0.1532(4) 0.4698(2) 0.14949(19)
C10 C 0.0930(4) 0.5402(2) 0.1158(2)
C11 C 0.0046(4) 0.4214(2) 0.10964(19)
C12 C -0.2586(4) 0.3354(2) 0.3209(2)
C13 C 0.3823(3) 0.2727(2) 0.3256(2)
H1 H 0.3438 0.3203 0.2987
C14 C 0.6071(4) 0.0861(2) 0.13374(19)
C15 C 0.4973(4) 0.1372(2) 0.40203(19)
H2 H 0.5402 0.0894 0.4269
C16 C 0.4158(3) 0.16014(19) 0.18100(18)
F23 F 0.1251(3) -0.00308(17) 0.48621(16)
C17 C 0.4080(4) 0.0918(2) 0.0932(2)
C18 C 0.5379(4) 0.0644(2) 0.0927(2)
C19 C 0.1706(3) 0.1594(2) 0.31617(18)
C20 C 0.3505(4) 0.1395(2) 0.13562(19)
C21 C -0.0589(4) 0.4918(2) 0.0764(2)
F24 F 0.6306(4) 0.4119(2) -0.02556(18)
C22 C 0.4675(4) 0.1462(2) 0.33574(19)
H3 H 0.4877 0.1035 0.3161
C23 C 0.4947(4) 0.3519(2) 0.1410(2)
C24 C 0.4070(3) 0.2673(2) 0.39245(19)
H4 H 0.3847 0.3108 0.4109
C25 C -0.1803(4) 0.3808(2) 0.3200(2)
C26 C 0.4376(4) 0.2544(2) 0.5343(2)
H5 H 0.3920 0.2975 0.5007
H6 H 0.5081 0.2663 0.5519
H7 H 0.3798 0.2417 0.5724
C27 C 0.3887(3) 0.33361(19) 0.12569(19)
F25 F 0.6777(3) 0.3942(2) 0.1096(2)
C28 C 0.3053(3) 0.30205(19) 0.17903(18)
C29 C 0.3699(4) 0.3421(2) 0.0563(2)
C30 C 0.1165(3) 0.28222(19) 0.23442(18)
C31 C -0.0137(4) 0.5516(2) 0.0793(2)
C32 C 0.1985(3) 0.21615(19) 0.25711(18)
C33 C 0.5582(4) 0.1203(2) 0.5411(2)
H8 H 0.5841 0.0839 0.5118
H9 H 0.5053 0.1024 0.5795
H10 H 0.6334 0.1271 0.5589
C34 C 0.1221(4) 0.1218(3) 0.4379(2)
C35 C 0.1858(4) 0.0863(2) 0.3125(2)
C36 C 0.1685(4) 0.0319(2) 0.3688(2)
C37 C 0.1377(4) 0.1749(2) 0.3815(2)
C38 C 0.1378(4) 0.0500(3) 0.4310(2)
C39 C 0.5765(5) 0.3777(3) 0.0917(3)
B1 B 0.3402(4) 0.2189(2) 0.2276(2)
C40 C 0.4488(5) 0.3687(3) 0.0053(2)
C41 C 0.5524(5) 0.3862(3) 0.0230(3)
Cl1? Cl 0.5775(6) 0.4266(3) 0.5415(4)
C83? C 0.521(2) 0.5221(6) 0.5456(9)
H21? H 0.5926 0.5435 0.5476
H22? H 0.4656 0.5278 0.5868
loop_
_geom_bond_atom_site_label_1
_geom_bond_atom_site_label_2
_geom_bond_site_symmetry_1
_geom_bond_site_symmetry_2
F1 C20 1_555 1_555
F2 C5 1_555 1_555
F3 C11 1_555 1_555
F4 C21 1_555 1_555
F5 C9 1_555 1_555
F6 C37 1_555 1_555
F7 C8 1_555 1_555
F8 C3 1_555 1_555
F9 C10 1_555 1_555
F10 C35 1_555 1_555
F11 C14 1_555 1_555
F12 C6 1_555 1_555
F13 C31 1_555 1_555
F14 C25 1_555 1_555
F15 C17 1_555 1_555
F16 C29 1_555 1_555
F17 C18 1_555 1_555
F18 C34 1_555 1_555
F19 C12 1_555 1_555
N1 C13 1_555 1_555
F20 C23 1_555 1_555
F21 C36 1_555 1_555
N2 C7 1_555 1_555
F22 C40 1_555 1_555
C1 C2 1_555 1_555
C2 C9 1_555 1_555
C3 C14 1_555 1_555
C4 C5 1_555 1_555
C5 C25 1_555 1_555
C6 C8 1_555 1_555
C7 C15 1_555 1_555
C8 C4 1_555 1_555
C9 C10 1_555 1_555
C10 C31 1_555 1_555
C11 C2 1_555 1_555
C12 C6 1_555 1_555
C13 H1 1_555 1_555
C14 C18 1_555 1_555
C15 H2 1_555 1_555
C16 C3 1_555 1_555
F23 C38 1_555 1_555
C17 C18 1_555 1_555
C19 C32 1_555 1_555
C20 C16 1_555 1_555
C21 C11 1_555 1_555
F24 C41 1_555 1_555
C22 N1 1_555 1_555
H3 C22 1_555 1_555
C23 C27 1_555 1_555
C24 C7 1_555 1_555
H4 C24 1_555 1_555
C25 C12 1_555 1_555
C26 N2 1_555 1_555
H5 C26 1_555 1_555
H6 C26 1_555 1_555
H7 C26 1_555 1_555
C27 C28 1_555 1_555
F25 C39 1_555 1_555
C28 C1 1_555 1_555
C29 C27 1_555 1_555
C30 C1 1_555 1_555
C31 C21 1_555 1_555
C32 C30 1_555 1_555
C33 N2 1_555 1_555
H8 C33 1_555 1_555
H9 C33 1_555 1_555
H10 C33 1_555 1_555
C34 C37 1_555 1_555
C35 C19 1_555 1_555
C36 C35 1_555 1_555
C37 C19 1_555 1_555
C38 C34 1_555 1_555
C39 C23 1_555 1_555
B1 N1 1_555 1_555
C40 C29 1_555 1_555
C41 C39 1_555 1_555
F26 C44 1_555 1_555
F27 C46 1_555 1_555
F28 C43 1_555 1_555
F29 C75 1_555 1_555
F30 C57 1_555 1_555
F31 C58 1_555 1_555
F32 C45 1_555 1_555
F33 C47 1_555 1_555
F34 C54 1_555 1_555
F35 C66 1_555 1_555
F36 C73 1_555 1_555
F37 C62 1_555 1_555
F38 C67 1_555 1_555
F39 C68 1_555 1_555
F40 C63 1_555 1_555
F41 C61 1_555 1_555
F42 C72 1_555 1_555
F43 C69 1_555 1_555
F44 C79 1_555 1_555
F45 C65 1_555 1_555
F46 C59 1_555 1_555
F47 C77 1_555 1_555
F48 C71 1_555 1_555
C42 C44 1_555 1_555
N3 C60 1_555 1_555
C43 C45 1_555 1_555
C44 C66 1_555 1_555
C45 C61 1_555 1_555
C46 C47 1_555 1_555
C47 C61 1_555 1_555
C48 C50 1_555 1_555
C49 C53 1_555 1_555
C50 C54 1_555 1_555
C51 H11 1_555 1_555
C52 C62 1_555 1_555
F49 C78 1_555 1_555
C53 C57 1_555 1_555
C54 C69 1_555 1_555
C55 C43 1_555 1_555
C56 C42 1_555 1_555
C57 C73 1_555 1_555
C58 C53 1_555 1_555
C59 C62 1_555 1_555
C60 C51 1_555 1_555
H12 C60 1_555 1_555
C63 C58 1_555 1_555
C64 C51 1_555 1_555
C65 C63 1_555 1_555
N4 C64 1_555 1_555
F50 C80 1_555 1_555
C66 C77 1_555 1_555
C67 C52 1_555 1_555
C68 C75 1_555 1_555
C69 C80 1_555 1_555
C70 N3 1_555 1_555
H13 C70 1_555 1_555
C71 C59 1_555 1_555
C72 C50 1_555 1_555
C73 C65 1_555 1_555
C74 C48 1_555 1_555
B2 N3 1_555 1_555
C75 C42 1_555 1_555
C76 N4 1_555 1_555
H14 C76 1_555 1_555
H15 C76 1_555 1_555
H16 C76 1_555 1_555
C77 C68 1_555 1_555
C78 C72 1_555 1_555
C79 C67 1_555 1_555
C80 C78 1_555 1_555
C81 N4 1_555 1_555
H17 C81 1_555 1_555
H18 C81 1_555 1_555
H19 C81 1_555 1_555
C82 C64 1_555 1_555
H20 C82 1_555 1_555
C4 C30 1_555 1_555
C13 C24 1_555 1_555
C15 C22 1_555 1_555
C16 B1 1_555 1_555
C17 C20 1_555 1_555
C28 B1 1_555 1_555
C32 B1 1_555 1_555
C36 C38 1_555 1_555
C40 C41 1_555 1_555
C46 C55 1_555 1_555
C48 C56 1_555 1_555
C49 C56 1_555 1_555
C49 B2 1_555 1_555
C52 C74 1_555 1_555
C55 B2 1_555 1_555
C70 C82 1_555 1_555
C71 C79 1_555 1_555
C74 B2 1_555 1_555

#END
