
#######################################################################
#
#                 Cambridge Crystallographic Data Centre
#                                CCDC 
#
#######################################################################
#
# If this CIF has been generated from an entry in the Cambridge 
# Structural Database, then it will include bibliographic, chemical, 
# crystal, experimental, refinement or atomic coordinate data resulting 
# from the CCDC's data processing and validation procedures.
#
#######################################################################

data_VIDPEG
_chemical_formula_moiety         'C17 H30 N2 O1 S1'
_chemical_name_systematic        
2-(dodecylsulfanyl)-6-methylpyrimidin-4(3H)-one
_symmetry_cell_setting           monoclinic
_symmetry_space_group_name_H-M   'P 21/c'
_symmetry_Int_Tables_number      14
_space_group_name_Hall           '-P 2ybc'
loop_
_symmetry_equiv_pos_site_id
_symmetry_equiv_pos_as_xyz
1 x,y,z
2 -x,1/2+y,1/2-z
3 -x,-y,-z
4 x,1/2-y,1/2+z
_cell_length_a                   24.8512(19)
_cell_length_b                   4.6661(3)
_cell_length_c                   16.1664(14)
_cell_angle_alpha                90
_cell_angle_beta                 106.729(9)
_cell_angle_gamma                90
_cell_volume                     1795.29
_exptl_crystal_colour            colorless
_exptl_crystal_description       prism
_cell_formula_units_Z            4
_exptl_crystal_recrystallization_method N,N-dimethylformamide
loop_
_atom_site_label
_atom_site_type_symbol
_atom_site_fract_x
_atom_site_fract_y
_atom_site_fract_z
S1 S 0.38816(4) 0.58239(19) 0.90617(6)
N1 N 0.44920(12) 0.2356(6) 1.02322(18)
N2 N 0.38656(10) 0.5268(5) 1.07035(17)
O1 O 0.50609(9) -0.0972(5) 1.10873(13)
C1 C 0.40820(13) 0.4070(7) 1.1508(2)
C2 C 0.40867(13) 0.4398(7) 1.0112(2)
C3 C 0.47085(13) 0.0990(7) 1.1021(2)
C4 C 0.27570(13) 0.6484(7) 0.9028(2)
H1 H 0.2668 0.5331 0.8507
H2 H 0.2808 0.5195 0.9516
C5 C 0.17202(13) 0.6920(7) 0.8936(2)
H3 H 0.1635 0.5651 0.8439
H4 H 0.1773 0.5740 0.9447
C6 C 0.06813(14) 0.7322(7) 0.8835(2)
H5 H 0.0591 0.5998 0.8352
H6 H 0.0743 0.6204 0.9360
C7 C 0.01822(13) 0.9289(8) 0.8752(2)
H7 H 0.0271 1.0603 0.9238
H8 H 0.0123 1.0420 0.8230
C8 C 0.22668(13) 0.8470(7) 0.8992(2)
H9 H 0.2363 0.9668 0.9504
H10 H 0.2210 0.9717 0.8494
C9 C 0.44892(13) 0.2018(7) 1.1686(2)
H11 H 0.4624 0.1289 1.2243
C10 C 0.33033(13) 0.8084(7) 0.9114(2)
H12 H 0.3408 0.9098 0.9661
H13 H 0.3240 0.9503 0.8658
C11 C -0.14010(14) 0.8133(7) 0.8614(2)
H14 H -0.1493 0.6888 0.8112
H15 H -0.1341 0.6932 0.9122
C12 C 0.12220(13) 0.8875(7) 0.8858(2)
H16 H 0.1160 1.0002 0.8334
H17 H 0.1313 1.0193 0.9342
C13 C 0.38326(14) 0.5212(7) 1.2185(2)
H18 H 0.3897 0.7240 1.2246
H19 H 0.4006 0.4284 1.2726
H20 H 0.3436 0.4842 1.2016
C14 C -0.24343(15) 0.8489(9) 0.8510(3)
H21 H -0.2542 0.7371 0.7990
H22 H -0.2726 0.9840 0.8508
H23 H -0.2377 0.7245 0.9001
C15 C -0.18942(14) 1.0085(8) 0.8561(3)
H24 H -0.1954 1.1297 0.8055
H25 H -0.1804 1.1319 0.9065
C16 C -0.08551(14) 0.9715(7) 0.8658(2)
H26 H -0.0913 1.0897 0.8146
H27 H -0.0765 1.0979 0.9155
C17 C -0.03579(14) 0.7734(8) 0.8723(2)
H28 H -0.0296 0.6573 0.9239
H29 H -0.0451 0.6450 0.8230
H30 H 0.4638(14) 0.195(7) 0.981(2)
loop_
_geom_bond_atom_site_label_1
_geom_bond_atom_site_label_2
_geom_bond_site_symmetry_1
_geom_bond_site_symmetry_2
S1 C2 1_555 1_555
N1 C2 1_555 1_555
N2 C1 1_555 1_555
O1 C3 1_555 1_555
C1 C9 1_555 1_555
C2 N2 1_555 1_555
C3 N1 1_555 1_555
C4 H1 1_555 1_555
H2 C4 1_555 1_555
C5 H3 1_555 1_555
H4 C5 1_555 1_555
C6 H5 1_555 1_555
H6 C6 1_555 1_555
C7 C6 1_555 1_555
H7 C7 1_555 1_555
H8 C7 1_555 1_555
C8 C4 1_555 1_555
H9 C8 1_555 1_555
H10 C8 1_555 1_555
C9 C3 1_555 1_555
H11 C9 1_555 1_555
C10 S1 1_555 1_555
H12 C10 1_555 1_555
H13 C10 1_555 1_555
C11 H14 1_555 1_555
H15 C11 1_555 1_555
C12 C5 1_555 1_555
H16 C12 1_555 1_555
H17 C12 1_555 1_555
C13 C1 1_555 1_555
H18 C13 1_555 1_555
H19 C13 1_555 1_555
H20 C13 1_555 1_555
C14 H21 1_555 1_555
H22 C14 1_555 1_555
H23 C14 1_555 1_555
C15 C11 1_555 1_555
H24 C15 1_555 1_555
H25 C15 1_555 1_555
C16 C11 1_555 1_555
H26 C16 1_555 1_555
H27 C16 1_555 1_555
C17 C7 1_555 1_555
H28 C17 1_555 1_555
H29 C17 1_555 1_555
H30 N1 1_555 1_555
C4 C10 1_555 1_555
C5 C8 1_555 1_555
C6 C12 1_555 1_555
C14 C15 1_555 1_555
C16 C17 1_555 1_555

#END
