
#######################################################################
#
#                 Cambridge Crystallographic Data Centre
#                                CCDC 
#
#######################################################################
#
# If this CIF has been generated from an entry in the Cambridge 
# Structural Database, then it will include bibliographic, chemical, 
# crystal, experimental, refinement or atomic coordinate data resulting 
# from the CCDC's data processing and validation procedures.
#
#######################################################################

data_VIDPII
_chemical_formula_moiety         'C13 H17 N1 O5'
_chemical_name_systematic        
'Ethyl N-(2-(2-(hydroxymethyl)-1,3-dioxolan-2-yl)phenyl)carbamate'
_symmetry_cell_setting           monoclinic
_symmetry_space_group_name_H-M   'P 21/n'
_symmetry_Int_Tables_number      14
_space_group_name_Hall           '-P 2yn'
loop_
_symmetry_equiv_pos_site_id
_symmetry_equiv_pos_as_xyz
1 x,y,z
2 1/2-x,1/2+y,1/2-z
3 -x,-y,-z
4 1/2+x,1/2-y,1/2+z
_cell_length_a                   7.4469(2)
_cell_length_b                   20.2814(6)
_cell_length_c                   8.3443(3)
_cell_angle_alpha                90
_cell_angle_beta                 94.1400(17)
_cell_angle_gamma                90
_cell_volume                     1256.98
_exptl_crystal_colour            colorless
_exptl_crystal_description       plate
_cell_formula_units_Z            4
_exptl_crystal_recrystallization_method hexane/dichloromethane
loop_
_atom_site_label
_atom_site_type_symbol
_atom_site_fract_x
_atom_site_fract_y
_atom_site_fract_z
C1 C 0.80896(17) 0.55854(6) 0.58422(16)
N1 N 0.78526(15) 0.52817(5) 0.43164(13)
C2 C 0.70954(17) 0.46878(6) 0.39499(16)
O1 O 0.65376(13) 0.42894(5) 0.48877(12)
O2 O 0.70481(13) 0.45971(5) 0.23489(11)
C3 C 0.63510(19) 0.39661(6) 0.17684(16)
C4 C 0.6294(2) 0.39934(7) -0.00381(17)
C5 C 0.83290(16) 0.62743(6) 0.59031(16)
C6 C 0.81496(17) 0.67041(6) 0.43921(16)
O3 O 0.88614(12) 0.73417(4) 0.46946(12)
C7 C 1.07494(19) 0.72825(7) 0.44691(18)
C8 C 1.07660(18) 0.68280(7) 0.30267(17)
O4 O 0.91580(13) 0.64355(4) 0.31326(11)
C9 C 0.62001(18) 0.67700(7) 0.36960(17)
O5 O 0.50165(13) 0.69769(5) 0.48450(12)
C10 C 0.86213(17) 0.65753(7) 0.74049(16)
C11 C 0.86634(18) 0.62115(7) 0.88192(16)
C12 C 0.84013(18) 0.55357(7) 0.87435(16)
C13 C 0.81261(19) 0.52213(7) 0.72655(17)
H1 H 0.8325 0.5492 0.3486
H2 H 0.5129 0.3891 0.2128
H3 H 0.7145 0.3603 0.2181
H4 H 0.5472 0.4345 -0.0431
H5 H 0.5869 0.3570 -0.0485
H6 H 0.7504 0.4084 -0.0374
H7 H 1.1410 0.7086 0.5425
H8 H 1.1285 0.7716 0.4242
H9 H 1.0717 0.7082 0.2012
H10 H 1.1856 0.6547 0.3092
H11 H 0.6152 0.7092 0.2802
H12 H 0.5788 0.6339 0.3250
H13 H 0.4503 0.6647 0.5212
H14 H 0.8795 0.7039 0.7461
H15 H 0.8870 0.6425 0.9829
H16 H 0.8410 0.5286 0.9707
H17 H 0.7962 0.4757 0.7223
loop_
_geom_bond_atom_site_label_1
_geom_bond_atom_site_label_2
_geom_bond_site_symmetry_1
_geom_bond_site_symmetry_2
C1 N1 1_555 1_555
N1 C2 1_555 1_555
C2 O1 1_555 1_555
O2 C2 1_555 1_555
C3 O2 1_555 1_555
C4 C3 1_555 1_555
C5 C1 1_555 1_555
C6 C5 1_555 1_555
O3 C6 1_555 1_555
C7 O3 1_555 1_555
C8 C7 1_555 1_555
O4 C6 1_555 1_555
C9 C6 1_555 1_555
O5 C9 1_555 1_555
C10 C5 1_555 1_555
C11 C10 1_555 1_555
C12 C11 1_555 1_555
C13 C1 1_555 1_555
H1 N1 1_555 1_555
H2 C3 1_555 1_555
H3 C3 1_555 1_555
H4 C4 1_555 1_555
H5 C4 1_555 1_555
H6 C4 1_555 1_555
H7 C7 1_555 1_555
H8 C7 1_555 1_555
H9 C8 1_555 1_555
H10 C8 1_555 1_555
H11 C9 1_555 1_555
H12 C9 1_555 1_555
H13 O5 1_555 1_555
H14 C10 1_555 1_555
H15 C11 1_555 1_555
H16 C12 1_555 1_555
H17 C13 1_555 1_555
C8 O4 1_555 1_555
C12 C13 1_555 1_555

#END
