
#######################################################################
#
#                 Cambridge Crystallographic Data Centre
#                                CCDC 
#
#######################################################################
#
# If this CIF has been generated from an entry in the Cambridge 
# Structural Database, then it will include bibliographic, chemical, 
# crystal, experimental, refinement or atomic coordinate data resulting 
# from the CCDC's data processing and validation procedures.
#
#######################################################################

data_VIDPOO
_chemical_formula_moiety         'C8 H1 Cl4 N1 O2,C3 H7 N1 O1'
_chemical_name_systematic        
'4,5,6,7-Tetrachloroisoindoline-1,3-dione N,N-dimethylformamide solvate'
_symmetry_cell_setting           triclinic
_symmetry_space_group_name_H-M   'P -1'
_symmetry_Int_Tables_number      2
_space_group_name_Hall           '-P 1'
loop_
_symmetry_equiv_pos_site_id
_symmetry_equiv_pos_as_xyz
1 x,y,z
2 -x,-y,-z
_cell_length_a                   5.6583(16)
_cell_length_b                   11.268(3)
_cell_length_c                   11.817(3)
_cell_angle_alpha                73.244(4)
_cell_angle_beta                 82.518(5)
_cell_angle_gamma                80.991(5)
_cell_volume                     709.647
_exptl_crystal_colour            colorless
_exptl_crystal_description       block
_cell_formula_units_Z            2
loop_
_atom_site_label
_atom_site_type_symbol
_atom_site_fract_x
_atom_site_fract_y
_atom_site_fract_z
Cl1 Cl 1.31478(18) 0.50354(9) 0.38085(9)
Cl2 Cl 1.0432(2) 0.53339(11) 0.15763(10)
Cl3 Cl 0.6824(2) 0.35207(11) 0.16242(9)
Cl4 Cl 0.59312(17) 0.13136(9) 0.38830(9)
O1 O 1.3399(6) 0.3021(3) 0.6299(3)
O2 O 0.8175(5) 0.0305(3) 0.6327(2)
N1 N 1.0840(6) 0.1529(3) 0.6599(3)
H1 H 1.1143 0.1118 0.7310
C1 C 1.1895(7) 0.2577(4) 0.5967(3)
C2 C 1.0819(6) 0.3003(3) 0.4800(3)
C3 C 1.1208(6) 0.4000(3) 0.3818(3)
C4 C 0.9965(7) 0.4132(3) 0.2833(3)
C5 C 0.8359(6) 0.3311(3) 0.2847(3)
C6 C 0.7955(6) 0.2318(3) 0.3850(3)
C7 C 0.9221(6) 0.2174(3) 0.4818(3)
C8 C 0.9253(7) 0.1202(3) 0.5982(3)
O3 O 0.2152(6) 1.0015(3) 0.8760(3)
N2 N 0.5006(6) 0.8550(3) 0.9699(3)
C9 C 0.4085(11) 0.9480(5) 0.8766(5)
H2 H 0.5104 0.9702 0.8076
C10 C 0.3708(13) 0.8099(6) 1.0762(5)
H3 H 0.2469 0.8740 1.0905
H4 H 0.4755 0.7853 1.1390
H5 H 0.2993 0.7390 1.0736
C11 C 0.7448(11) 0.8044(6) 0.9431(7)
H6 H 0.7946 0.8409 0.8611
H7 H 0.7545 0.7155 0.9579
H8 H 0.8480 0.8231 0.9923
loop_
_geom_bond_atom_site_label_1
_geom_bond_atom_site_label_2
_geom_bond_site_symmetry_1
_geom_bond_site_symmetry_2
Cl1 C3 1_555 1_555
Cl2 C4 1_555 1_555
Cl3 C5 1_555 1_555
Cl4 C6 1_555 1_555
O1 C1 1_555 1_555
O2 C8 1_555 1_555
N1 H1 1_555 1_555
C1 N1 1_555 1_555
C2 C1 1_555 1_555
C3 C2 1_555 1_555
C4 C3 1_555 1_555
C5 C4 1_555 1_555
C6 C5 1_555 1_555
C7 C2 1_555 1_555
C8 N1 1_555 1_555
O3 C9 1_555 1_555
N2 C9 1_555 1_555
C9 H2 1_555 1_555
C10 N2 1_555 1_555
H3 C10 1_555 1_555
H4 C10 1_555 1_555
H5 C10 1_555 1_555
C11 N2 1_555 1_555
H6 C11 1_555 1_555
H7 C11 1_555 1_555
H8 C11 1_555 1_555
C6 C7 1_555 1_555
C7 C8 1_555 1_555

#END
