
#######################################################################
#
#                 Cambridge Crystallographic Data Centre
#                                CCDC 
#
#######################################################################
#
# If this CIF has been generated from an entry in the Cambridge 
# Structural Database, then it will include bibliographic, chemical, 
# crystal, experimental, refinement or atomic coordinate data resulting 
# from the CCDC's data processing and validation procedures.
#
#######################################################################

data_VIDSAC
_chemical_formula_moiety         'C12 H14 O3'
_chemical_name_systematic        
(2,3-Dideoxy-\a-D-erythro-hex-2-enopyranosyl)benzene
_symmetry_cell_setting           orthorhombic
_symmetry_space_group_name_H-M   'P 21 21 21'
_symmetry_Int_Tables_number      19
_space_group_name_Hall           'P 2ac 2ab'
loop_
_symmetry_equiv_pos_site_id
_symmetry_equiv_pos_as_xyz
1 x,y,z
2 1/2+x,1/2-y,-z
3 -x,1/2+y,1/2-z
4 1/2-x,-y,1/2+z
_cell_length_a                   21.338(5)
_cell_length_b                   8.161(2)
_cell_length_c                   6.209(1)
_cell_angle_alpha                90
_cell_angle_beta                 90
_cell_angle_gamma                90
_cell_volume                     1081.23
_chemical_melting_point          101-102deg.C
_cell_formula_units_Z            4
loop_
_atom_site_label
_atom_site_type_symbol
_atom_site_fract_x
_atom_site_fract_y
_atom_site_fract_z
C1 C 0.3323(3) 0.3413(6) 0.6614(8)
C2 C 0.3276(2) 0.2863(6) 0.8952(10)
C3 C 0.3718(3) 0.2009(6) 0.9867(8)
C4 C 0.4315(2) 0.1581(5) 0.8768(8)
C5 C 0.4408(2) 0.2725(5) 0.6879(7)
C6 C 0.4952(2) 0.2257(5) 0.5460(7)
C7 C 0.3335(2) 0.5263(5) 0.6308(9)
C8 C 0.3155(2) 0.6345(7) 0.7880(9)
C9 C 0.3151(3) 0.8032(7) 0.7491(10)
C10 C 0.3330(3) 0.8627(6) 0.5547(11)
C11 C 0.3508(2) 0.7551(6) 0.3945(10)
C12 C 0.3508(2) 0.5897(7) 0.4310(10)
O1 O 0.4844(2) 0.1722(4) 1.0196(5)
O2 O 0.3853(1) 0.2668(3) 0.5589(4)
O3 O 0.5070(1) 0.3463(4) 0.3848(5)
H1 H 0.298(2) 0.296(5) 0.577(8)
H2 H 0.293(2) 0.302(6) 0.945(9)
H3 H 0.365(3) 0.165(7) 1.116(11)
H4 H 0.428(2) 0.047(6) 0.823(8)
H5 H 0.448(2) 0.395(6) 0.746(8)
H6 H 0.485(2) 0.120(6) 0.480(8)
H7 H 0.532(2) 0.217(5) 0.648(9)
H8 H 0.305(2) 0.598(7) 0.912(11)
H9 H 0.306(3) 0.873(8) 0.859(12)
H10 H 0.335(2) 0.986(6) 0.533(9)
H11 H 0.368(2) 0.791(7) 0.284(9)
H12 H 0.365(2) 0.520(6) 0.334(9)
H13 H 0.492(3) 0.083(7) 1.030(7)
H14 H 0.493(3) 0.316(6) 0.267(9)
loop_
_geom_bond_atom_site_label_1
_geom_bond_atom_site_label_2
_geom_bond_site_symmetry_1
_geom_bond_site_symmetry_2
C1 C2 1_555 1_555
C2 C3 1_555 1_555
C3 C4 1_555 1_555
C4 C5 1_555 1_555
C5 C6 1_555 1_555
C6 O3 1_555 1_555
C7 C1 1_555 1_555
C8 C7 1_555 1_555
C9 C8 1_555 1_555
C10 C9 1_555 1_555
C11 C10 1_555 1_555
C12 C7 1_555 1_555
O1 C4 1_555 1_555
O2 C1 1_555 1_555
O3 H14 1_555 1_555
H1 C1 1_555 1_555
H2 C2 1_555 1_555
H3 C3 1_555 1_555
H4 C4 1_555 1_555
H5 C5 1_555 1_555
H6 C6 1_555 1_555
H7 C6 1_555 1_555
H8 C8 1_555 1_555
H9 C9 1_555 1_555
H10 C10 1_555 1_555
H11 C11 1_555 1_555
H12 C12 1_555 1_555
H13 O1 1_555 1_555
C5 O2 1_555 1_555
C11 C12 1_555 1_555

#END
