
#######################################################################
#
#                 Cambridge Crystallographic Data Centre
#                                CCDC 
#
#######################################################################
#
# If this CIF has been generated from an entry in the Cambridge 
# Structural Database, then it will include bibliographic, chemical, 
# crystal, experimental, refinement or atomic coordinate data resulting 
# from the CCDC's data processing and validation procedures.
#
#######################################################################

data_VIDTIN
_chemical_formula_moiety         'C45 H36 B1 F2 I1 N2 Si1'
_chemical_name_systematic        
5,5-Difluoro-2-iodo-1,3,7,9-tetramethyl-10-phenyl-8-((4-(triphenylsilyl)phenyl)ethynyl)-5H-6\l^5^,5\l^5^-dipyrrolo[1,2-c:2',1'-f][1,3,2]diazaborinine
_symmetry_cell_setting           triclinic
_symmetry_space_group_name_H-M   'P -1'
_symmetry_Int_Tables_number      2
_space_group_name_Hall           '-P 1'
loop_
_symmetry_equiv_pos_site_id
_symmetry_equiv_pos_as_xyz
1 x,y,z
2 -x,-y,-z
_cell_length_a                   10.4832(7)
_cell_length_b                   11.3455(8)
_cell_length_c                   17.7163(13)
_cell_angle_alpha                97.077(2)
_cell_angle_beta                 93.6130(10)
_cell_angle_gamma                107.8350(10)
_cell_volume                     1979.23
_exptl_crystal_colour            red
_exptl_crystal_description       block
_cell_formula_units_Z            2
loop_
_atom_site_label
_atom_site_type_symbol
_atom_site_fract_x
_atom_site_fract_y
_atom_site_fract_z
C1 C 0.3074(5) 0.3216(4) 0.4758(2)
C2 C 0.4065(5) 0.5214(4) 0.2503(3)
H1 H 0.3801 0.4353 0.2348
C3 C 0.0755(5) -0.1339(4) 0.6230(2)
F1 F 0.3361(3) -0.0210(3) 0.54742(19)
C4 C 0.3353(5) 0.7672(4) -0.0075(2)
H2 H 0.4171 0.7954 -0.0277
C5 C 0.4237(4) 0.5688(4) 0.3277(3)
C6 C 0.5174(4) 0.9986(4) 0.1796(2)
Si1 Si 0.49174(11) 0.83215(11) 0.13911(6)
C7 C 0.2089(4) 0.2273(4) 0.5710(2)
C8 C 0.6298(5) 1.0729(5) 0.2279(3)
H3 H 0.6941 1.0371 0.2432
F2 F 0.1461(4) -0.0768(3) 0.46601(15)
C9 C 0.1421(4) 0.1936(3) 0.6346(2)
C10 C 0.2513(4) 0.3438(4) 0.5425(2)
C11 C 0.4236(5) 1.0573(4) 0.1591(3)
H4 H 0.3451 1.0117 0.1277
C12 C 0.8284(7) 0.8170(9) -0.0172(4)
H5 H 0.8923 0.8143 -0.0509
C13 C 0.3507(7) 0.1268(6) 0.4004(3)
H6 H 0.3647 0.0533 0.4162
H7 H 0.4342 0.1808 0.3877
H8 H 0.2851 0.1027 0.3564
N1 N 0.1294(4) -0.0231(3) 0.59918(18)
C14 C 0.4712(4) 0.7303(4) 0.2164(2)
C15 C 0.7526(7) 0.7088(7) 0.0066(4)
H9 H 0.7643 0.6324 -0.0109
C16 C 0.0174(4) -0.1124(4) 0.6897(2)
C17 C 0.0794(6) -0.2555(4) 0.5807(3)
H10 H 0.0350 -0.2686 0.5299
H11 H 0.0344 -0.3228 0.6072
H12 H 0.1714 -0.2528 0.5781
C18 C 0.3923(5) 0.4842(5) 0.3830(3)
C19 C 0.4643(5) 0.6980(5) 0.3486(3)
H13 H 0.4759 0.7321 0.4000
C20 C -0.0474(6) 0.3977(5) 0.7215(3)
H14 H -0.1293 0.4120 0.7121
C21 C 0.6594(6) 0.7152(6) 0.0568(3)
H15 H 0.6105 0.6423 0.0743
C22 C 0.2418(6) 0.4685(4) 0.5742(3)
H16 H 0.2782 0.5279 0.5408
H17 H 0.2921 0.4959 0.6239
H18 H 0.1491 0.4617 0.5785
C23 C 0.1052(4) 0.0700(4) 0.6498(2)
C24 C 0.1080(4) 0.2896(3) 0.6863(2)
C25 C -0.0154(5) 0.3074(4) 0.6733(3)
H19 H -0.0768 0.2592 0.6325
C26 C 0.0340(4) 0.0134(4) 0.7087(2)
B1 B 0.2160(5) -0.0002(4) 0.5315(3)
C27 C 0.3336(4) 0.7694(4) 0.0713(2)
C28 C 0.1978(5) 0.3600(4) 0.7478(3)
H20 H 0.2809 0.3477 0.7566
C29 C 0.7153(5) 0.9319(5) 0.0579(3)
H21 H 0.7045 1.0085 0.0755
C30 C 0.4470(6) 1.1834(5) 0.1854(4)
H22 H 0.3857 1.2221 0.1695
C31 C 0.5577(6) 1.2508(5) 0.2337(3)
H23 H 0.5702 1.3341 0.2529
C32 C 0.4285(5) 0.6012(4) 0.1960(3)
H24 H 0.4143 0.5674 0.1444
C33 C 0.0924(5) 0.6800(6) 0.0487(3)
H25 H 0.0102 0.6501 0.0683
C34 C 0.6358(4) 0.8249(4) 0.0822(2)
C35 C 0.3017(5) 0.1939(4) 0.4636(2)
C36 C 0.3573(5) 0.4094(5) 0.4250(3)
C37 C 0.2091(5) 0.7241(5) 0.0978(3)
H26 H 0.2043 0.7234 0.1500
C38 C 0.0415(6) 0.4656(5) 0.7827(3)
H27 H 0.0187 0.5244 0.8159
C39 C 0.0948(5) 0.6793(5) -0.0277(3)
H28 H 0.0153 0.6493 -0.0605
C40 C 0.1651(6) 0.4477(5) 0.7958(3)
H29 H 0.2258 0.4950 0.8372
N2 N 0.2411(3) 0.1388(3) 0.52067(18)
C41 C 0.4874(5) 0.7762(4) 0.2935(3)
H30 H 0.5148 0.8624 0.3088
C42 C 0.6503(6) 1.1953(5) 0.2538(3)
H31 H 0.7281 1.2417 0.2856
C43 C 0.2168(5) 0.7236(5) -0.0558(3)
H32 H 0.2196 0.7244 -0.1081
C44 C 0.8100(6) 0.9280(7) 0.0084(4)
H33 H 0.8615 1.0013 -0.0075
C45 C -0.0142(6) 0.0723(5) 0.7765(3)
H34 H -0.0107 0.0268 0.8185
H35 H -0.1053 0.0704 0.7639
H36 H 0.0425 0.1576 0.7908
I1 I -0.07677(4) -0.25061(3) 0.75254(2)
loop_
_geom_bond_atom_site_label_1
_geom_bond_atom_site_label_2
_geom_bond_site_symmetry_1
_geom_bond_site_symmetry_2
C1 C10 1_555 1_555
C2 H1 1_555 1_555
C3 N1 1_555 1_555
F1 B1 1_555 1_555
C4 H2 1_555 1_555
C5 C2 1_555 1_555
C6 Si1 1_555 1_555
Si1 C14 1_555 1_555
C7 C9 1_555 1_555
C8 C6 1_555 1_555
H3 C8 1_555 1_555
F2 B1 1_555 1_555
C9 C23 1_555 1_555
C10 C7 1_555 1_555
C11 C6 1_555 1_555
H4 C11 1_555 1_555
C12 H5 1_555 1_555
C13 H6 1_555 1_555
H7 C13 1_555 1_555
H8 C13 1_555 1_555
N1 C23 1_555 1_555
C14 C32 1_555 1_555
C15 C12 1_555 1_555
H9 C15 1_555 1_555
C16 C3 1_555 1_555
C17 C3 1_555 1_555
H10 C17 1_555 1_555
H11 C17 1_555 1_555
H12 C17 1_555 1_555
C18 C5 1_555 1_555
C19 C5 1_555 1_555
H13 C19 1_555 1_555
C20 H14 1_555 1_555
C21 C15 1_555 1_555
H15 C21 1_555 1_555
C22 C10 1_555 1_555
H16 C22 1_555 1_555
H17 C22 1_555 1_555
H18 C22 1_555 1_555
C23 C26 1_555 1_555
C24 C9 1_555 1_555
C25 C20 1_555 1_555
H19 C25 1_555 1_555
C26 C16 1_555 1_555
B1 N1 1_555 1_555
C27 C4 1_555 1_555
C28 C24 1_555 1_555
H20 C28 1_555 1_555
C29 H21 1_555 1_555
C30 C11 1_555 1_555
H22 C30 1_555 1_555
C31 C30 1_555 1_555
H23 C31 1_555 1_555
C32 C2 1_555 1_555
H24 C32 1_555 1_555
C33 H25 1_555 1_555
C34 Si1 1_555 1_555
C35 C1 1_555 1_555
C36 C1 1_555 1_555
C37 C27 1_555 1_555
H26 C37 1_555 1_555
C38 C20 1_555 1_555
H27 C38 1_555 1_555
C39 C33 1_555 1_555
H28 C39 1_555 1_555
C40 C28 1_555 1_555
H29 C40 1_555 1_555
N2 C7 1_555 1_555
C41 C14 1_555 1_555
H30 C41 1_555 1_555
C42 C8 1_555 1_555
H31 C42 1_555 1_555
C43 C4 1_555 1_555
H32 C43 1_555 1_555
C44 C12 1_555 1_555
H33 C44 1_555 1_555
C45 C26 1_555 1_555
H34 C45 1_555 1_555
H35 C45 1_555 1_555
H36 C45 1_555 1_555
I1 C16 1_555 1_555
Si1 C27 1_555 1_555
C13 C35 1_555 1_555
C18 C36 1_555 1_555
C19 C41 1_555 1_555
C21 C34 1_555 1_555
C24 C25 1_555 1_555
B1 N2 1_555 1_555
C29 C34 1_555 1_555
C29 C44 1_555 1_555
C31 C42 1_555 1_555
C33 C37 1_555 1_555
C35 N2 1_555 1_555
C38 C40 1_555 1_555
C39 C43 1_555 1_555

#END
