
#######################################################################
#
#                 Cambridge Crystallographic Data Centre
#                                CCDC 
#
#######################################################################
#
# If this CIF has been generated from an entry in the Cambridge 
# Structural Database, then it will include bibliographic, chemical, 
# crystal, experimental, refinement or atomic coordinate data resulting 
# from the CCDC's data processing and validation procedures.
#
#######################################################################

data_VIDTUZ
_chemical_name_common            'Diaporol E'
_chemical_formula_moiety         'C15 H26 O2'
_chemical_name_systematic        
4-(Hydroxymethyl)-3,4a,8,8-tetramethyl-1,2,4a,5,6,7,8,8a-octahydronaphthalen-2-ol
_symmetry_cell_setting           orthorhombic
_symmetry_space_group_name_H-M   'P 21 21 21'
_symmetry_Int_Tables_number      19
_space_group_name_Hall           'P 2ac 2ab'
loop_
_symmetry_equiv_pos_site_id
_symmetry_equiv_pos_as_xyz
1 x,y,z
2 1/2-x,-y,1/2+z
3 -x,1/2+y,1/2-z
4 1/2+x,1/2-y,-z
_cell_length_a                   7.2909(2)
_cell_length_b                   7.74330(10)
_cell_length_c                   24.0515(4)
_cell_angle_alpha                90
_cell_angle_beta                 90
_cell_angle_gamma                90
_cell_volume                     1357.84
_cell_formula_units_Z            4
loop_
_atom_site_label
_atom_site_type_symbol
_atom_site_fract_x
_atom_site_fract_y
_atom_site_fract_z
O1 O 1.13562(14) 1.25206(12) 0.21961(4)
H1 H 1.0467 1.1964 0.2327
O2 O 1.15001(14) 0.59474(11) 0.23063(4)
H2 H 1.1459 0.4863 0.2306
C1 C 1.21716(18) 1.15562(16) 0.17487(5)
H3 H 1.3397 1.2087 0.1673
C2 C 1.25146(18) 0.96994(16) 0.19190(5)
C3 C 1.17329(17) 0.83557(17) 0.16598(5)
C4 C 1.02958(17) 0.85362(16) 0.11967(5)
C5 C 0.86860(18) 0.72818(17) 0.13023(5)
H4 H 0.9137 0.6079 0.1275
H5 H 0.8214 0.7460 0.1684
C6 C 0.71225(19) 0.75433(18) 0.08860(6)
H6 H 0.7567 0.7276 0.0507
H7 H 0.6112 0.6735 0.0974
C7 C 0.63985(18) 0.93933(18) 0.09008(6)
H8 H 0.5788 0.9589 0.1263
H9 H 0.5459 0.9526 0.0607
C8 C 0.78780(18) 1.07910(17) 0.08186(5)
C9 C 0.94961(17) 1.03995(16) 0.12202(5)
H10 H 0.8953 1.0500 0.1601
C10 C 1.10602(18) 1.17037(16) 0.12145(5)
H11 H 1.0557 1.2887 0.1180
H12 H 1.1864 1.1485 0.0890
C11 C 1.38604(19) 0.95192(18) 0.23935(6)
H13 H 1.3952 0.8302 0.2502
H14 H 1.3434 1.0202 0.2711
H15 H 1.5068 0.9937 0.2275
C12 C 1.23362(18) 0.65363(16) 0.18020(5)
H16 H 1.1999 0.5749 0.1494
H17 H 1.3687 0.6509 0.1843
C13 C 1.12626(19) 0.80599(18) 0.06453(5)
H18 H 1.1732 0.6876 0.0668
H19 H 1.2284 0.8858 0.0580
H20 H 1.0385 0.8144 0.0338
C14 C 0.8426(2) 1.09332(19) 0.02028(6)
H21 H 0.9373 1.1821 0.0160
H22 H 0.7348 1.1249 -0.0019
H23 H 0.8904 0.9820 0.0074
C15 C 0.7015(2) 1.25315(19) 0.09853(6)
H24 H 0.7918 1.3456 0.0936
H25 H 0.6632 1.2485 0.1376
H26 H 0.5945 1.2761 0.0750
loop_
_geom_bond_atom_site_label_1
_geom_bond_atom_site_label_2
_geom_bond_site_symmetry_1
_geom_bond_site_symmetry_2
O1 H1 1_555 1_555
O2 H2 1_555 1_555
C1 O1 1_555 1_555
H3 C1 1_555 1_555
C2 C1 1_555 1_555
C3 C2 1_555 1_555
C4 C3 1_555 1_555
C5 C4 1_555 1_555
H4 C5 1_555 1_555
H5 C5 1_555 1_555
C6 C5 1_555 1_555
H6 C6 1_555 1_555
H7 C6 1_555 1_555
C7 C6 1_555 1_555
H8 C7 1_555 1_555
H9 C7 1_555 1_555
C8 C7 1_555 1_555
C9 C4 1_555 1_555
H10 C9 1_555 1_555
C10 C1 1_555 1_555
H11 C10 1_555 1_555
H12 C10 1_555 1_555
C11 C2 1_555 1_555
H13 C11 1_555 1_555
H14 C11 1_555 1_555
H15 C11 1_555 1_555
C12 O2 1_555 1_555
H16 C12 1_555 1_555
H17 C12 1_555 1_555
C13 C4 1_555 1_555
H18 C13 1_555 1_555
H19 C13 1_555 1_555
H20 C13 1_555 1_555
C14 C8 1_555 1_555
H21 C14 1_555 1_555
H22 C14 1_555 1_555
H23 C14 1_555 1_555
C15 C8 1_555 1_555
H24 C15 1_555 1_555
H25 C15 1_555 1_555
H26 C15 1_555 1_555
C3 C12 1_555 1_555
C8 C9 1_555 1_555
C9 C10 1_555 1_555

#END
