
#######################################################################
#
#                 Cambridge Crystallographic Data Centre
#                                CCDC 
#
#######################################################################
#
# If this CIF has been generated from an entry in the Cambridge 
# Structural Database, then it will include bibliographic, chemical, 
# crystal, experimental, refinement or atomic coordinate data resulting 
# from the CCDC's data processing and validation procedures.
#
#######################################################################

data_VIDVAH
_chemical_name_common            'Diaporol D'
_chemical_formula_moiety         'C15 H26 O3,H2 O1'
_chemical_name_systematic        
'7-Hydroxy-8-(hydroxymethyl)-4,4,7,8a-tetramethyloctahydronaphthalen-2(1H)-one monohydrate'
_symmetry_cell_setting           orthorhombic
_symmetry_space_group_name_H-M   'P 21 21 21'
_symmetry_Int_Tables_number      19
_space_group_name_Hall           'P 2ac 2ab'
loop_
_symmetry_equiv_pos_site_id
_symmetry_equiv_pos_as_xyz
1 x,y,z
2 1/2-x,-y,1/2+z
3 -x,1/2+y,1/2-z
4 1/2+x,1/2-y,-z
_cell_length_a                   7.9289(2)
_cell_length_b                   9.7894(2)
_cell_length_c                   19.0738(4)
_cell_angle_alpha                90
_cell_angle_beta                 90
_cell_angle_gamma                90
_cell_volume                     1480.49
_exptl_crystal_colour            colorless
_exptl_crystal_description       prism
_cell_formula_units_Z            4
loop_
_atom_site_label
_atom_site_type_symbol
_atom_site_fract_x
_atom_site_fract_y
_atom_site_fract_z
O1 O 1.14764(18) 0.05675(18) 0.25061(7)
O2 O 1.05666(18) -0.10094(15) 0.49709(7)
O3 O 0.57391(18) -0.12096(15) 0.53221(7)
C1 C 1.0299(2) -0.0141(2) 0.27039(10)
C2 C 0.9050(2) -0.0773(2) 0.22112(10)
H1 H 0.9154 -0.1780 0.2236
H2 H 0.9323 -0.0490 0.1726
C3 C 0.7209(2) -0.03657(19) 0.23771(9)
C4 C 0.6890(2) -0.06208(19) 0.31742(9)
H3 H 0.7011 -0.1630 0.3236
C5 C 0.8189(2) 0.00152(19) 0.36910(9)
C6 C 0.9987(2) -0.0437(2) 0.34714(10)
H4 H 1.0830 0.0055 0.3759
H5 H 1.0121 -0.1428 0.3559
C7 C 0.8179(3) 0.1596(2) 0.36848(10)
H6 H 0.7064 0.1927 0.3827
H7 H 0.8435 0.1923 0.3211
H8 H 0.9032 0.1938 0.4012
C8 C 0.6090(3) -0.1326(2) 0.19417(10)
H9 H 0.6262 -0.1142 0.1442
H10 H 0.4904 -0.1172 0.2062
H11 H 0.6391 -0.2277 0.2044
C9 C 0.6877(3) 0.1094(2) 0.21218(10)
H12 H 0.7566 0.1735 0.2393
H13 H 0.5681 0.1315 0.2185
H14 H 0.7171 0.1166 0.1624
C10 C 0.5085(2) -0.0301(2) 0.34073(10)
H15 H 0.4277 -0.0687 0.3065
H16 H 0.4919 0.0701 0.3422
C11 C 0.4745(2) -0.0907(2) 0.41350(10)
H17 H 0.3581 -0.0673 0.4279
H18 H 0.4825 -0.1915 0.4107
C12 C 0.5971(2) -0.0394(2) 0.46917(10)
C13 C 0.7825(2) -0.05936(19) 0.44370(9)
H19 H 0.7964 -0.1603 0.4382
C14 C 0.5537(3) 0.1056(2) 0.49285(11)
H20 H 0.4344 0.1099 0.5062
H21 H 0.5750 0.1696 0.4543
H22 H 0.6238 0.1303 0.5332
C15 C 0.9077(2) -0.0188(2) 0.50096(10)
H23 H 0.9383 0.0787 0.4955
H24 H 0.8544 -0.0304 0.5475
H25 H 1.118(3) -0.086(3) 0.5320(11)
H26 H 0.567(3) -0.2046(12) 0.5229(13)
O4 O 1.22309(19) 0.0703(2) 0.10438(7)
H27 H 1.211(4) 0.062(3) 0.1477(6)
H28 H 1.131(2) 0.076(3) 0.0829(12)
loop_
_geom_bond_atom_site_label_1
_geom_bond_atom_site_label_2
_geom_bond_site_symmetry_1
_geom_bond_site_symmetry_2
O1 C1 1_555 1_555
O2 C15 1_555 1_555
O3 C12 1_555 1_555
C1 C2 1_555 1_555
C2 H1 1_555 1_555
H2 C2 1_555 1_555
C3 C2 1_555 1_555
C4 C3 1_555 1_555
H3 C4 1_555 1_555
C5 C4 1_555 1_555
C6 C1 1_555 1_555
H4 C6 1_555 1_555
H5 C6 1_555 1_555
C7 C5 1_555 1_555
H6 C7 1_555 1_555
H7 C7 1_555 1_555
H8 C7 1_555 1_555
C8 C3 1_555 1_555
H9 C8 1_555 1_555
H10 C8 1_555 1_555
H11 C8 1_555 1_555
C9 C3 1_555 1_555
H12 C9 1_555 1_555
H13 C9 1_555 1_555
H14 C9 1_555 1_555
C10 C4 1_555 1_555
H15 C10 1_555 1_555
H16 C10 1_555 1_555
C11 C10 1_555 1_555
H17 C11 1_555 1_555
H18 C11 1_555 1_555
C12 C11 1_555 1_555
C13 C5 1_555 1_555
H19 C13 1_555 1_555
C14 C12 1_555 1_555
H20 C14 1_555 1_555
H21 C14 1_555 1_555
H22 C14 1_555 1_555
C15 C13 1_555 1_555
H23 C15 1_555 1_555
H24 C15 1_555 1_555
H25 O2 1_555 1_555
H26 O3 1_555 1_555
O4 H27 1_555 1_555
H28 O4 1_555 1_555
C5 C6 1_555 1_555
C12 C13 1_555 1_555

#END
