
#######################################################################
#
#                 Cambridge Crystallographic Data Centre
#                                CCDC 
#
#######################################################################
#
# If this CIF has been generated from an entry in the Cambridge 
# Structural Database, then it will include bibliographic, chemical, 
# crystal, experimental, refinement or atomic coordinate data resulting 
# from the CCDC's data processing and validation procedures.
#
#######################################################################

data_VIDWOW
_chemical_name_common            
'1-(2-methyl-5-phenyl-3-thienyl)-2-[3,5-dimethyldithieno[3,2-b:2,3,-d]thiophene-2-]perfluorocyclopentene unknown solvate'
_chemical_formula_moiety         'C26 H16 F6 S4'
_chemical_name_systematic        
"2-(3,3,4,4,5,5-Hexafluoro-2-(2-methyl-5-phenyl-3-thienyl)cyclopent-1-en-1-yl)-3,5-dimethylbisthieno[3,2-b:2',3'-d]thiophene unknown solvate"
_symmetry_cell_setting           orthorhombic
_symmetry_space_group_name_H-M   'P b c a'
_symmetry_Int_Tables_number      61
_space_group_name_Hall           '-P 2ac 2ab'
loop_
_symmetry_equiv_pos_site_id
_symmetry_equiv_pos_as_xyz
1 x,y,z
2 1/2-x,-y,1/2+z
3 1/2+x,1/2-y,-z
4 -x,1/2+y,1/2-z
5 -x,-y,-z
6 1/2+x,y,1/2-z
7 1/2-x,1/2+y,z
8 x,1/2-y,1/2+z
_cell_length_a                   7.0967(14)
_cell_length_b                   20.826(4)
_cell_length_c                   36.522(7)
_cell_angle_alpha                90
_cell_angle_beta                 90
_cell_angle_gamma                90
_cell_volume                     5397.8
_exptl_crystal_colour            colorless
_exptl_crystal_description       block
_cell_formula_units_Z            8
loop_
_atom_site_label
_atom_site_type_symbol
_atom_site_fract_x
_atom_site_fract_y
_atom_site_fract_z
S1 S 1.41151(19) 0.06467(9) 0.03617(4)
S2 S 0.89470(17) 0.09336(6) -0.01615(3)
S3 S 1.41330(17) 0.08268(7) -0.06999(3)
S4 S 1.0812(2) 0.31686(6) -0.14249(4)
F1 F 1.2765(4) -0.01277(13) -0.15987(8)
F2 F 1.5487(4) 0.02186(15) -0.14129(8)
F3 F 1.6054(4) 0.08845(16) -0.19928(9)
F4 F 1.4278(5) 0.01357(14) -0.22291(8)
F5 F 1.3442(5) 0.15855(14) -0.22939(8)
F6 F 1.1269(5) 0.08637(15) -0.22063(8)
C1 C 0.7595(8) 0.3866(3) -0.18619(16)
H1 H 0.8609 0.4096 -0.1754
C2 C 0.6044(9) 0.4195(3) -0.1997(2)
H2 H 0.6013 0.4651 -0.1983
C3 C 0.4569(10) 0.3876(3) -0.21491(16)
H3 H 0.3509 0.4109 -0.2237
C4 C 0.4606(9) 0.3217(3) -0.21766(17)
H4 H 0.3588 0.2994 -0.2288
C5 C 0.6154(7) 0.2878(3) -0.20393(15)
H5 H 0.6168 0.2422 -0.2053
C6 C 0.7669(7) 0.3199(2) -0.18840(13)
C7 C 0.9311(7) 0.2840(2) -0.17461(13)
C8 C 0.9874(7) 0.2230(2) -0.18333(12)
H6 H 0.9244 0.1968 -0.2008
C9 C 1.1516(7) 0.2027(2) -0.16337(12)
C10 C 1.2209(8) 0.2491(2) -0.14013(12)
C11 C 1.3934(8) 0.2483(3) -0.11660(17)
H7 H 1.4553 0.2064 -0.1186
H8 H 1.3576 0.2561 -0.0911
H9 H 1.4803 0.2820 -0.1247
C12 C 1.2402(6) 0.1398(2) -0.16789(12)
C13 C 1.2833(8) 0.1138(2) -0.20532(13)
C14 C 1.4317(7) 0.0616(2) -0.19852(14)
C15 C 1.3878(7) 0.0403(2) -0.15919(13)
C16 C 1.2900(6) 0.0965(2) -0.14194(12)
C17 C 1.2406(6) 0.0966(2) -0.10296(12)
C18 C 1.0623(7) 0.1012(2) -0.08878(13)
C19 C 0.8849(7) 0.1098(3) -0.11060(14)
H10 H 0.9165 0.1141 -0.1366
H11 H 0.8193 0.1486 -0.1023
H12 H 0.8030 0.0724 -0.1071
C20 C 1.0677(6) 0.0936(2) -0.04997(13)
C21 C 1.2464(7) 0.0839(2) -0.03610(13)
C22 C 1.2462(7) 0.0773(2) 0.00274(13)
C23 C 1.0651(7) 0.0819(2) 0.01742(12)
C24 C 1.0594(8) 0.0762(2) 0.05631(13)
C25 C 0.8832(8) 0.0793(3) 0.07911(14)
H13 H 0.9159 0.0745 0.1050
H14 H 0.7975 0.0447 0.0718
H15 H 0.8213 0.1209 0.0753
C26 C 1.2368(8) 0.0666(3) 0.06949(14)
H16 H 1.2628 0.0614 0.0948
loop_
_geom_bond_atom_site_label_1
_geom_bond_atom_site_label_2
_geom_bond_site_symmetry_1
_geom_bond_site_symmetry_2
S1 C22 1_555 1_555
S2 C20 1_555 1_555
S3 C17 1_555 1_555
S4 C7 1_555 1_555
F1 C15 1_555 1_555
F2 C15 1_555 1_555
F3 C14 1_555 1_555
F4 C14 1_555 1_555
F5 C13 1_555 1_555
F6 C13 1_555 1_555
C1 H1 1_555 1_555
C2 C1 1_555 1_555
H2 C2 1_555 1_555
C3 C2 1_555 1_555
H3 C3 1_555 1_555
C4 C3 1_555 1_555
H4 C4 1_555 1_555
C5 C4 1_555 1_555
H5 C5 1_555 1_555
C6 C1 1_555 1_555
C7 C6 1_555 1_555
C8 C7 1_555 1_555
H6 C8 1_555 1_555
C9 C8 1_555 1_555
C10 S4 1_555 1_555
C11 C10 1_555 1_555
H7 C11 1_555 1_555
H8 C11 1_555 1_555
H9 C11 1_555 1_555
C12 C9 1_555 1_555
C13 C12 1_555 1_555
C14 C13 1_555 1_555
C15 C14 1_555 1_555
C16 C12 1_555 1_555
C17 C16 1_555 1_555
C18 C17 1_555 1_555
C19 C18 1_555 1_555
H10 C19 1_555 1_555
H11 C19 1_555 1_555
H12 C19 1_555 1_555
C20 C18 1_555 1_555
C21 S3 1_555 1_555
C22 C21 1_555 1_555
C23 S2 1_555 1_555
C24 C23 1_555 1_555
C25 C24 1_555 1_555
H13 C25 1_555 1_555
H14 C25 1_555 1_555
H15 C25 1_555 1_555
C26 S1 1_555 1_555
H16 C26 1_555 1_555
C5 C6 1_555 1_555
C9 C10 1_555 1_555
C15 C16 1_555 1_555
C20 C21 1_555 1_555
C22 C23 1_555 1_555
C24 C26 1_555 1_555

#END
