
#######################################################################
#
#                 Cambridge Crystallographic Data Centre
#                                CCDC 
#
#######################################################################
#
# If this CIF has been generated from an entry in the Cambridge 
# Structural Database, then it will include bibliographic, chemical, 
# crystal, experimental, refinement or atomic coordinate data resulting 
# from the CCDC's data processing and validation procedures.
#
#######################################################################

data_VIDXOW
_chemical_formula_moiety         'C21 H24 N2 O2'
_chemical_name_systematic        
1-(2-(4-Methoxyphenyl)cyclopropyl)-3,4-dimethyl-5-phenylimidazolidin-2-one
_symmetry_cell_setting           monoclinic
_symmetry_space_group_name_H-M   'P 21'
_symmetry_Int_Tables_number      4
_space_group_name_Hall           'P 2yb'
loop_
_symmetry_equiv_pos_site_id
_symmetry_equiv_pos_as_xyz
1 x,y,z
2 -x,1/2+y,-z
_cell_length_a                   8.3156(6)
_cell_length_b                   5.9884(4)
_cell_length_c                   17.9876(13)
_cell_angle_alpha                90
_cell_angle_beta                 97.4860(10)
_cell_angle_gamma                90
_cell_volume                     888.096
_exptl_crystal_colour            colorless
_exptl_crystal_description       plate
_cell_formula_units_Z            2
loop_
_atom_site_label
_atom_site_type_symbol
_atom_site_fract_x
_atom_site_fract_y
_atom_site_fract_z
O1 O 0.8949(2) 0.1995(3) 0.14692(9)
O2 O 0.6529(2) 0.7423(3) 0.60891(9)
N1 N 0.7829(2) 0.4991(3) 0.07668(10)
N2 N 0.8103(2) 0.5225(3) 0.20063(9)
C1 C 0.8353(3) 0.3869(4) 0.14189(12)
C2 C 0.7623(3) 0.7366(4) 0.09287(11)
H1 H 0.8689 0.8132 0.0920
C3 C 0.7255(2) 0.7280(4) 0.17502(11)
H2 H 0.7796 0.8574 0.2032
C4 C 0.8397(3) 0.4315(5) 0.00683(13)
H3 H 0.8498 0.2685 0.0057
H4 H 0.9456 0.4996 0.0034
H5 H 0.7619 0.4808 -0.0356
C5 C 0.6371(3) 0.8533(4) 0.03796(12)
H6 H 0.6732 0.8546 -0.0118
H7 H 0.6233 1.0071 0.0546
H8 H 0.5334 0.7739 0.0354
C6 C 0.5469(3) 0.7273(4) 0.18471(11)
C7 C 0.4799(3) 0.9154(4) 0.21362(13)
H9 H 0.5478 1.0384 0.2298
C8 C 0.3146(3) 0.9266(5) 0.21922(15)
H10 H 0.2702 1.0566 0.2389
C9 C 0.2161(3) 0.7494(5) 0.19617(13)
H11 H 0.1031 0.7577 0.1993
C10 C 0.2807(3) 0.5587(5) 0.16847(12)
H12 H 0.2123 0.4355 0.1531
C11 C 0.4461(3) 0.5475(4) 0.16308(12)
H13 H 0.4903 0.4157 0.1445
C12 C 0.8174(3) 0.4471(4) 0.27637(11)
H14 H 0.7180 0.3712 0.2898
C13 C 0.9754(3) 0.3657(5) 0.31587(12)
H15 H 1.0700 0.3659 0.2877
H16 H 0.9728 0.2406 0.3517
C14 C 0.9108(3) 0.5872(4) 0.33714(12)
H17 H 0.9673 0.7187 0.3181
C15 C 0.8438(3) 0.6287(4) 0.40879(12)
C16 C 0.8604(3) 0.4756(4) 0.46799(12)
H18 H 0.9175 0.3400 0.4633
C17 C 0.7946(3) 0.5189(4) 0.53347(12)
H19 H 0.8064 0.4125 0.5730
C18 C 0.7119(3) 0.7157(4) 0.54174(12)
C19 C 0.6936(3) 0.8715(4) 0.48392(12)
H20 H 0.6370 1.0074 0.4889
C20 C 0.7601(3) 0.8238(4) 0.41851(12)
H21 H 0.7474 0.9299 0.3789
C21 C 0.5861(3) 0.9550(5) 0.62323(14)
H22 H 0.5564 0.9573 0.6742
H23 H 0.4894 0.9821 0.5871
H24 H 0.6667 1.0716 0.6183
loop_
_geom_bond_atom_site_label_1
_geom_bond_atom_site_label_2
_geom_bond_site_symmetry_1
_geom_bond_site_symmetry_2
O1 C1 1_555 1_555
O2 C18 1_555 1_555
N1 C1 1_555 1_555
N2 C1 1_555 1_555
C2 N1 1_555 1_555
H1 C2 1_555 1_555
C3 N2 1_555 1_555
H2 C3 1_555 1_555
C4 N1 1_555 1_555
H3 C4 1_555 1_555
H4 C4 1_555 1_555
H5 C4 1_555 1_555
C5 C2 1_555 1_555
H6 C5 1_555 1_555
H7 C5 1_555 1_555
H8 C5 1_555 1_555
C6 C3 1_555 1_555
C7 C6 1_555 1_555
H9 C7 1_555 1_555
C8 C7 1_555 1_555
H10 C8 1_555 1_555
C9 C8 1_555 1_555
H11 C9 1_555 1_555
C10 C9 1_555 1_555
H12 C10 1_555 1_555
C11 C6 1_555 1_555
H13 C11 1_555 1_555
C12 N2 1_555 1_555
H14 C12 1_555 1_555
C13 C12 1_555 1_555
H15 C13 1_555 1_555
H16 C13 1_555 1_555
C14 C12 1_555 1_555
H17 C14 1_555 1_555
C15 C14 1_555 1_555
C16 C15 1_555 1_555
H18 C16 1_555 1_555
C17 C16 1_555 1_555
H19 C17 1_555 1_555
C18 C17 1_555 1_555
C19 C18 1_555 1_555
H20 C19 1_555 1_555
C20 C15 1_555 1_555
H21 C20 1_555 1_555
C21 O2 1_555 1_555
H22 C21 1_555 1_555
H23 C21 1_555 1_555
H24 C21 1_555 1_555
C2 C3 1_555 1_555
C10 C11 1_555 1_555
C13 C14 1_555 1_555
C19 C20 1_555 1_555

#END
