
#######################################################################
#
#                 Cambridge Crystallographic Data Centre
#                                CCDC 
#
#######################################################################
#
# If this CIF has been generated from an entry in the Cambridge 
# Structural Database, then it will include bibliographic, chemical, 
# crystal, experimental, refinement or atomic coordinate data resulting 
# from the CCDC's data processing and validation procedures.
#
#######################################################################

data_VIDXUC
_chemical_formula_moiety         'C18 H17 N1 O2'
_chemical_name_systematic        
4-Phenyl-3-(2-phenylcyclopropyl)-1,3-oxazolidin-2-one
_symmetry_cell_setting           orthorhombic
_symmetry_space_group_name_H-M   'P 21 21 21'
_symmetry_Int_Tables_number      19
_space_group_name_Hall           'P 2ac 2ab'
loop_
_symmetry_equiv_pos_site_id
_symmetry_equiv_pos_as_xyz
1 x,y,z
2 1/2-x,-y,1/2+z
3 -x,1/2+y,1/2-z
4 1/2+x,1/2-y,-z
_cell_length_a                   6.4432(6)
_cell_length_b                   11.3747(11)
_cell_length_c                   19.7447(19)
_cell_angle_alpha                90
_cell_angle_beta                 90
_cell_angle_gamma                90
_cell_volume                     1447.08
_exptl_crystal_colour            colorless
_exptl_crystal_description       needle
_chemical_melting_point          113-113.5deg.C
_cell_formula_units_Z            4
loop_
_atom_site_label
_atom_site_type_symbol
_atom_site_fract_x
_atom_site_fract_y
_atom_site_fract_z
O1 O 0.8202(2) 0.38613(11) 0.30327(7)
O2 O 1.1372(2) 0.30440(14) 0.31020(8)
N1 N 0.8393(2) 0.19133(13) 0.30128(8)
C1 C 0.9517(3) 0.29231(18) 0.30535(10)
C2 C 0.6077(3) 0.34422(17) 0.30352(12)
H1 H 0.5212 0.3898 0.2715
H2 H 0.5465 0.3501 0.3494
C3 C 0.6252(3) 0.21523(18) 0.28108(10)
H3 H 0.5278 0.1654 0.3081
C4 C 0.5900(3) 0.19458(16) 0.20561(10)
C5 C 0.3959(3) 0.16030(17) 0.18293(11)
H4 H 0.2859 0.1503 0.2145
C6 C 0.3605(4) 0.1404(2) 0.11441(11)
H5 H 0.2262 0.1180 0.0992
C7 C 0.5199(4) 0.15316(19) 0.06853(12)
H6 H 0.4964 0.1378 0.0219
C8 C 0.7132(4) 0.1881(2) 0.09019(11)
H7 H 0.8225 0.1980 0.0584
C9 C 0.7483(3) 0.20888(19) 0.15850(10)
H8 H 0.8820 0.2331 0.1732
C10 C 0.9258(3) 0.07590(17) 0.29415(11)
H9 H 0.9254 0.0424 0.2473
C11 C 1.1015(3) 0.04010(19) 0.33829(12)
H10 H 1.1552 0.0987 0.3710
H11 H 1.2084 -0.0122 0.3185
C12 C 0.8907(3) -0.01145(17) 0.35170(11)
H12 H 0.8740 -0.0950 0.3369
C13 C 0.7651(3) 0.02163(17) 0.41185(11)
C14 C 0.8255(4) 0.10470(18) 0.45945(11)
H13 H 0.9559 0.1427 0.4546
C15 C 0.6997(4) 0.1333(2) 0.51380(12)
H14 H 0.7447 0.1900 0.5459
C16 C 0.5088(4) 0.0794(2) 0.52148(12)
H15 H 0.4219 0.0989 0.5587
C17 C 0.4457(4) -0.0030(2) 0.47443(12)
H16 H 0.3142 -0.0399 0.4791
C18 C 0.5726(4) -0.03213(19) 0.42056(11)
H17 H 0.5278 -0.0898 0.3890
loop_
_geom_bond_atom_site_label_1
_geom_bond_atom_site_label_2
_geom_bond_site_symmetry_1
_geom_bond_site_symmetry_2
O1 C1 1_555 1_555
O2 C1 1_555 1_555
N1 C1 1_555 1_555
C2 O1 1_555 1_555
H1 C2 1_555 1_555
H2 C2 1_555 1_555
C3 N1 1_555 1_555
H3 C3 1_555 1_555
C4 C3 1_555 1_555
C5 C4 1_555 1_555
H4 C5 1_555 1_555
C6 C5 1_555 1_555
H5 C6 1_555 1_555
C7 C6 1_555 1_555
H6 C7 1_555 1_555
C8 C7 1_555 1_555
H7 C8 1_555 1_555
C9 C4 1_555 1_555
H8 C9 1_555 1_555
C10 N1 1_555 1_555
H9 C10 1_555 1_555
C11 C10 1_555 1_555
H10 C11 1_555 1_555
H11 C11 1_555 1_555
C12 C10 1_555 1_555
H12 C12 1_555 1_555
C13 C12 1_555 1_555
C14 C13 1_555 1_555
H13 C14 1_555 1_555
C15 C14 1_555 1_555
H14 C15 1_555 1_555
C16 C15 1_555 1_555
H15 C16 1_555 1_555
C17 C16 1_555 1_555
H16 C17 1_555 1_555
C18 C13 1_555 1_555
H17 C18 1_555 1_555
C2 C3 1_555 1_555
C8 C9 1_555 1_555
C11 C12 1_555 1_555
C17 C18 1_555 1_555

#END
