
#######################################################################
#
#                 Cambridge Crystallographic Data Centre
#                                CCDC 
#
#######################################################################
#
# If this CIF has been generated from an entry in the Cambridge 
# Structural Database, then it will include bibliographic, chemical, 
# crystal, experimental, refinement or atomic coordinate data resulting 
# from the CCDC's data processing and validation procedures.
#
#######################################################################

data_VIDYIT
_chemical_formula_moiety         'C56 H46 O8'
_chemical_name_systematic        
"dimethyl 4,4'-(1,3,12,14-tetramethoxyhexabenzo[a,cd,f,j,lm,o]perylene-5,10-diyl)dibutanoate"
_symmetry_cell_setting           triclinic
_symmetry_space_group_name_H-M   'P -1'
_symmetry_Int_Tables_number      2
_space_group_name_Hall           '-P 1'
loop_
_symmetry_equiv_pos_site_id
_symmetry_equiv_pos_as_xyz
1 x,y,z
2 -x,-y,-z
_cell_length_a                   8.113(4)
_cell_length_b                   15.584(7)
_cell_length_c                   17.480(8)
_cell_angle_alpha                84.176(13)
_cell_angle_beta                 77.695(12)
_cell_angle_gamma                76.514(12)
_cell_volume                     2096.62
_exptl_crystal_colour            red
_exptl_crystal_description       block
_cell_formula_units_Z            2
loop_
_atom_site_label
_atom_site_type_symbol
_atom_site_fract_x
_atom_site_fract_y
_atom_site_fract_z
O1 O 0.7912(4) 0.69243(17) 1.05203(15)
O2 O 0.7533(4) 0.39169(18) 1.08513(14)
O3 O 0.6818(8) -0.0811(3) 1.1757(4)
O4 O 0.8854(6) -0.0074(2) 1.1335(2)
O5 O 0.8972(5) -0.0208(3) 0.6274(3)
O6 O 0.6670(4) 0.0630(2) 0.5940(2)
O7 O 0.8220(4) 0.40837(18) 0.42702(15)
O8 O 0.5153(4) 0.70601(17) 0.44334(14)
C1 C 0.8166(6) 0.6881(3) 1.1301(2)
H1 H 0.8196 0.7470 1.1441
H2 H 0.7215 0.6672 1.1657
H3 H 0.9263 0.6472 1.1346
C2 C 0.7516(6) 0.3950(3) 1.1665(2)
H4 H 0.7491 0.3364 1.1925
H5 H 0.8556 0.4130 1.1728
H6 H 0.6488 0.4378 1.1901
C3 C 0.7834(5) 0.6171(2) 1.0217(2)
C4 C 0.7715(5) 0.5421(2) 1.0681(2)
H7 H 0.7735 0.5421 1.1223
C5 C 0.7567(4) 0.4665(2) 1.03839(19)
C6 C 0.7454(4) 0.4645(2) 0.95897(18)
C7 C 0.7589(4) 0.5431(2) 0.91139(18)
C8 C 0.7829(4) 0.6200(2) 0.94057(19)
C9 C 0.8146(4) 0.6951(2) 0.8869(2)
C10 C 0.8870(5) 0.7626(3) 0.9053(2)
H8 H 0.9123 0.7611 0.9561
C11 C 0.9216(6) 0.8296(3) 0.8526(3)
H9 H 0.9695 0.8741 0.8675
C12 C 0.8885(5) 0.8342(3) 0.7780(2)
H10 H 0.9115 0.8816 0.7417
C13 C 0.8223(5) 0.7696(2) 0.7573(2)
H11 H 0.8031 0.7715 0.7053
C14 C 0.7810(4) 0.6995(2) 0.8102(2)
C15 C 0.7284(4) 0.6263(2) 0.78419(18)
C16 C 0.7466(4) 0.5455(2) 0.82937(18)
C17 C 0.7535(4) 0.4669(2) 0.79434(18)
C18 C 0.7186(4) 0.3906(2) 0.84468(19)
C19 C 0.6713(5) 0.3216(2) 0.8143(2)
H12 H 0.6682 0.3243 0.7601
C20 C 0.6297(5) 0.2511(2) 0.8609(2)
H13 H 0.6009 0.2050 0.8382
C21 C 0.6285(5) 0.2451(2) 0.9408(2)
C22 C 0.6672(5) 0.3142(3) 0.9717(2)
H14 H 0.6631 0.3118 1.0266
C23 C 0.7127(4) 0.3885(2) 0.92640(18)
C24 C 0.5730(6) 0.1693(3) 0.9921(3)
H15 H 0.4659 0.1934 1.0295
H16 H 0.5435 0.1300 0.9585
C25 C 0.6999(6) 0.1142(3) 1.0380(3)
H17 H 0.7305 0.1523 1.0724
H18 H 0.8069 0.0879 1.0015
C26 C 0.6263(8) 0.0409(4) 1.0879(4)
H19 H 0.5214 0.0693 1.1246
H20 H 0.5882 0.0070 1.0525
C27 C 0.7340(9) -0.0221(3) 1.1337(3)
C28 C 0.9961(10) -0.0665(4) 1.1790(4)
H21 H 1.1049 -0.0471 1.1730
H22 H 0.9389 -0.0665 1.2343
H23 H 1.0201 -0.1264 1.1606
C29 C 0.7827(4) 0.4701(2) 0.71088(18)
C30 C 0.8838(4) 0.3973(2) 0.66365(18)
C31 C 0.9966(5) 0.3277(2) 0.6967(2)
H24 H 1.0030 0.3286 0.7502
C32 C 1.0958(5) 0.2596(2) 0.6546(2)
H25 H 1.1685 0.2129 0.6789
C33 C 1.0915(5) 0.2579(2) 0.5753(2)
C34 C 0.9916(5) 0.3277(2) 0.5410(2)
H26 H 0.9937 0.3277 0.4865
C35 C 0.8846(4) 0.4004(2) 0.58322(19)
C36 C 0.7805(4) 0.4765(2) 0.54706(18)
C37 C 0.7019(4) 0.5527(2) 0.59073(18)
C38 C 0.6060(4) 0.6309(2) 0.55779(19)
C39 C 0.5184(4) 0.7045(2) 0.60784(19)
C40 C 0.3873(5) 0.7741(3) 0.5865(2)
H27 H 0.3589 0.7756 0.5363
C41 C 0.3006(5) 0.8391(3) 0.6361(2)
H28 H 0.2153 0.8859 0.6194
C42 C 0.3352(5) 0.8378(2) 0.7099(2)
H29 H 0.2724 0.8826 0.7446
C43 C 0.4604(5) 0.7716(2) 0.7327(2)
H30 H 0.4838 0.7708 0.7838
C44 C 0.5564(4) 0.7042(2) 0.68260(19)
C45 C 0.6721(4) 0.6285(2) 0.71263(18)
C46 C 1.1889(5) 0.1781(2) 0.5308(2)
H31 H 1.3117 0.1653 0.5357
H32 H 1.1841 0.1903 0.4745
C47 C 0.7181(4) 0.5504(2) 0.67200(19)
C48 C 1.1115(5) 0.0977(3) 0.5622(2)
H33 H 1.1794 0.0456 0.5330
H34 H 1.1194 0.0848 0.6181
C49 C 0.9240(6) 0.1131(3) 0.5545(3)
H35 H 0.8624 0.1718 0.5738
H36 H 0.9194 0.1143 0.4982
C50 C 0.8316(6) 0.0456(3) 0.5976(3)
C51 C 0.5658(8) 0.0014(4) 0.6335(4)
H37 H 0.4462 0.0221 0.6262
H38 H 0.6139 -0.0567 0.6116
H39 H 0.5683 -0.0032 0.6896
C52 C 0.7554(5) 0.4818(2) 0.4691(2)
C53 C 0.6680(5) 0.5568(2) 0.4364(2)
H40 H 0.6564 0.5580 0.3833
C54 C 0.5963(4) 0.6307(2) 0.47821(19)
C55 C 0.8190(6) 0.4142(3) 0.3455(2)
H41 H 0.8712 0.3564 0.3237
H42 H 0.6992 0.4326 0.3381
H43 H 0.8846 0.4577 0.3186
C56 C 0.4919(5) 0.7054(3) 0.3648(2)
H44 H 0.4318 0.7643 0.3483
H45 H 0.6049 0.6892 0.3300
H46 H 0.4229 0.6623 0.3622
loop_
_geom_bond_atom_site_label_1
_geom_bond_atom_site_label_2
_geom_bond_site_symmetry_1
_geom_bond_site_symmetry_2
O1 C1 1_555 1_555
O2 C2 1_555 1_555
O3 C27 1_555 1_555
O4 C27 1_555 1_555
O5 C50 1_555 1_555
O6 C50 1_555 1_555
O7 C52 1_555 1_555
O8 C54 1_555 1_555
C1 H1 1_555 1_555
H2 C1 1_555 1_555
H3 C1 1_555 1_555
C2 H4 1_555 1_555
H5 C2 1_555 1_555
H6 C2 1_555 1_555
C3 O1 1_555 1_555
C4 C3 1_555 1_555
H7 C4 1_555 1_555
C5 O2 1_555 1_555
C6 C5 1_555 1_555
C7 C6 1_555 1_555
C8 C3 1_555 1_555
C9 C8 1_555 1_555
C10 C9 1_555 1_555
H8 C10 1_555 1_555
C11 C10 1_555 1_555
H9 C11 1_555 1_555
C12 C11 1_555 1_555
H10 C12 1_555 1_555
C13 C12 1_555 1_555
H11 C13 1_555 1_555
C14 C9 1_555 1_555
C15 C14 1_555 1_555
C16 C7 1_555 1_555
C17 C16 1_555 1_555
C18 C17 1_555 1_555
C19 C18 1_555 1_555
H12 C19 1_555 1_555
C20 C19 1_555 1_555
H13 C20 1_555 1_555
C21 C20 1_555 1_555
C22 C21 1_555 1_555
H14 C22 1_555 1_555
C23 C6 1_555 1_555
C24 C21 1_555 1_555
H15 C24 1_555 1_555
H16 C24 1_555 1_555
C25 C24 1_555 1_555
H17 C25 1_555 1_555
H18 C25 1_555 1_555
C26 C25 1_555 1_555
H19 C26 1_555 1_555
H20 C26 1_555 1_555
C27 C26 1_555 1_555
C28 O4 1_555 1_555
H21 C28 1_555 1_555
H22 C28 1_555 1_555
H23 C28 1_555 1_555
C29 C17 1_555 1_555
C30 C29 1_555 1_555
C31 C30 1_555 1_555
H24 C31 1_555 1_555
C32 C31 1_555 1_555
H25 C32 1_555 1_555
C33 C32 1_555 1_555
C34 C33 1_555 1_555
H26 C34 1_555 1_555
C35 C30 1_555 1_555
C36 C35 1_555 1_555
C37 C36 1_555 1_555
C38 C37 1_555 1_555
C39 C38 1_555 1_555
C40 C39 1_555 1_555
H27 C40 1_555 1_555
C41 C40 1_555 1_555
H28 C41 1_555 1_555
C42 C41 1_555 1_555
H29 C42 1_555 1_555
C43 C42 1_555 1_555
H30 C43 1_555 1_555
C44 C39 1_555 1_555
C45 C15 1_555 1_555
C46 C33 1_555 1_555
H31 C46 1_555 1_555
H32 C46 1_555 1_555
C47 C29 1_555 1_555
C48 C46 1_555 1_555
H33 C48 1_555 1_555
H34 C48 1_555 1_555
C49 C48 1_555 1_555
H35 C49 1_555 1_555
H36 C49 1_555 1_555
C50 C49 1_555 1_555
C51 O6 1_555 1_555
H37 C51 1_555 1_555
H38 C51 1_555 1_555
H39 C51 1_555 1_555
C52 C36 1_555 1_555
C53 C52 1_555 1_555
H40 C53 1_555 1_555
C54 C38 1_555 1_555
C55 O7 1_555 1_555
H41 C55 1_555 1_555
H42 C55 1_555 1_555
H43 C55 1_555 1_555
C56 O8 1_555 1_555
H44 C56 1_555 1_555
H45 C56 1_555 1_555
H46 C56 1_555 1_555
C4 C5 1_555 1_555
C7 C8 1_555 1_555
C13 C14 1_555 1_555
C15 C16 1_555 1_555
C18 C23 1_555 1_555
C22 C23 1_555 1_555
C34 C35 1_555 1_555
C37 C47 1_555 1_555
C43 C44 1_555 1_555
C44 C45 1_555 1_555
C45 C47 1_555 1_555
C53 C54 1_555 1_555

#END
