
#######################################################################
#
#                 Cambridge Crystallographic Data Centre
#                                CCDC 
#
#######################################################################
#
# If this CIF has been generated from an entry in the Cambridge 
# Structural Database, then it will include bibliographic, chemical, 
# crystal, experimental, refinement or atomic coordinate data resulting 
# from the CCDC's data processing and validation procedures.
#
#######################################################################

data_VIFBEU
_chemical_formula_moiety         'C19 H17 N3 O6'
_chemical_name_systematic        
"dimethyl 5-[([1,1'-biphenyl]-4-yl)(nitroso)amino]-2,5-dihydro-1,3-oxazole-4,5-dicarboxylate"
_symmetry_cell_setting           monoclinic
_symmetry_space_group_name_H-M   'P 21/c'
_symmetry_Int_Tables_number      14
_space_group_name_Hall           '-P 2ybc'
loop_
_symmetry_equiv_pos_site_id
_symmetry_equiv_pos_as_xyz
1 x,y,z
2 -x,1/2+y,1/2-z
3 -x,-y,-z
4 x,1/2-y,1/2+z
_cell_length_a                   18.268(2)
_cell_length_b                   7.9937(8)
_cell_length_c                   13.0111(12)
_cell_angle_alpha                90
_cell_angle_beta                 107.006(11)
_cell_angle_gamma                90
_cell_volume                     1816.92
_cell_formula_units_Z            4
loop_
_atom_site_label
_atom_site_type_symbol
_atom_site_fract_x
_atom_site_fract_y
_atom_site_fract_z
O1 O 0.34831(8) 0.34703(18) 0.43522(11)
O2 O 0.25364(7) 0.09256(17) 0.37817(10)
O3 O 0.48212(8) -0.16305(19) 0.56736(11)
O4 O 0.32677(9) 0.34652(19) 0.59636(12)
O5 O 0.44421(8) 0.0543(2) 0.64921(11)
N1 N 0.26235(9) 0.0312(2) 0.55890(12)
C1 C 0.32632(10) 0.2799(3) 0.51401(15)
C2 C 0.36750(11) -0.0166(2) 0.47872(15)
N2 N 0.29078(10) -0.1141(2) 0.60555(14)
N3 N 0.35626(10) -0.0846(2) 0.38782(13)
C3 C 0.05651(11) 0.2262(3) 0.59460(15)
O6 O 0.25621(10) -0.1754(2) 0.66384(13)
C4 C 0.05859(11) 0.1537(3) 0.49849(15)
H1 H 0.0129 0.1480 0.4402
C5 C 0.19256(11) 0.1763(3) 0.66595(15)
H2 H 0.2387 0.1850 0.7232
C6 C 0.12477(11) 0.2374(3) 0.67808(15)
H3 H 0.1246 0.2878 0.7442
C7 C 0.19290(11) 0.1027(3) 0.57048(15)
C8 C -0.07115(12) 0.3676(3) 0.52534(17)
H4 H -0.0611 0.3843 0.4585
C9 C 0.12576(11) 0.0897(3) 0.48590(15)
H5 H 0.1261 0.0376 0.4204
C10 C 0.30147(11) 0.0975(3) 0.48440(14)
C11 C -0.01686(11) 0.2880(3) 0.60898(15)
C12 C -0.13973(12) 0.4228(3) 0.53870(19)
H6 H -0.1763 0.4769 0.4811
C13 C 0.28351(12) -0.0290(3) 0.31952(15)
H7 H 0.2479 -0.1248 0.2990
H8 H 0.2898 0.0218 0.2532
C14 C -0.15494(12) 0.3995(3) 0.63520(19)
H9 H -0.2018 0.4384 0.6444
C15 C 0.43842(11) -0.0525(3) 0.56911(16)
C16 C -0.03372(12) 0.2637(3) 0.70592(16)
H10 H 0.0022 0.2082 0.7637
C17 C -0.10214(12) 0.3196(3) 0.71857(18)
H11 H -0.1129 0.3030 0.7850
C18 C 0.37762(15) 0.5160(3) 0.4528(2)
H12 H 0.3466 0.5812 0.4883
H13 H 0.3752 0.5676 0.3835
H14 H 0.4309 0.5136 0.4983
C19 C 0.50743(13) 0.0269(3) 0.74515(17)
H15 H 0.5063 -0.0889 0.7693
H16 H 0.5029 0.1034 0.8019
H17 H 0.5558 0.0478 0.7292
loop_
_geom_bond_atom_site_label_1
_geom_bond_atom_site_label_2
_geom_bond_site_symmetry_1
_geom_bond_site_symmetry_2
O1 C1 1_555 1_555
O2 C10 1_555 1_555
O3 C15 1_555 1_555
O4 C1 1_555 1_555
O5 C15 1_555 1_555
N1 N2 1_555 1_555
C1 C10 1_555 1_555
C2 N3 1_555 1_555
N2 O6 1_555 1_555
N3 C13 1_555 1_555
C3 C4 1_555 1_555
C4 H1 1_555 1_555
C5 H2 1_555 1_555
C6 C3 1_555 1_555
H3 C6 1_555 1_555
C7 N1 1_555 1_555
C8 H4 1_555 1_555
C9 C4 1_555 1_555
H5 C9 1_555 1_555
C10 N1 1_555 1_555
C11 C3 1_555 1_555
C12 C8 1_555 1_555
H6 C12 1_555 1_555
C13 O2 1_555 1_555
H7 C13 1_555 1_555
H8 C13 1_555 1_555
C14 C12 1_555 1_555
H9 C14 1_555 1_555
C15 C2 1_555 1_555
C16 C11 1_555 1_555
H10 C16 1_555 1_555
C17 C14 1_555 1_555
H11 C17 1_555 1_555
C18 O1 1_555 1_555
H12 C18 1_555 1_555
H13 C18 1_555 1_555
H14 C18 1_555 1_555
C19 O5 1_555 1_555
H15 C19 1_555 1_555
H16 C19 1_555 1_555
H17 C19 1_555 1_555
C2 C10 1_555 1_555
C5 C6 1_555 1_555
C5 C7 1_555 1_555
C7 C9 1_555 1_555
C8 C11 1_555 1_555
C16 C17 1_555 1_555

#END
