
#######################################################################
#
#                 Cambridge Crystallographic Data Centre
#                                CCDC 
#
#######################################################################
#
# If this CIF has been generated from an entry in the Cambridge 
# Structural Database, then it will include bibliographic, chemical, 
# crystal, experimental, refinement or atomic coordinate data resulting 
# from the CCDC's data processing and validation procedures.
#
#######################################################################

data_VIFBUK
_chemical_formula_moiety         'C17 H16 N2 O3'
_chemical_name_systematic        
'ethyl 2-(hydroxyimino)-3-phenyl-3-(phenylimino)propanoate'
_symmetry_cell_setting           monoclinic
_symmetry_space_group_name_H-M   'P 21/c'
_symmetry_Int_Tables_number      14
_space_group_name_Hall           '-P 2ybc'
loop_
_symmetry_equiv_pos_site_id
_symmetry_equiv_pos_as_xyz
1 x,y,z
2 -x,1/2+y,1/2-z
3 -x,-y,-z
4 x,1/2-y,1/2+z
_cell_length_a                   16.535(6)
_cell_length_b                   7.908(3)
_cell_length_c                   11.883(4)
_cell_angle_alpha                90
_cell_angle_beta                 105.701(12)
_cell_angle_gamma                90
_cell_volume                     1495.83
_exptl_crystal_description       block
_cell_formula_units_Z            4
loop_
_atom_site_label
_atom_site_type_symbol
_atom_site_fract_x
_atom_site_fract_y
_atom_site_fract_z
C1 C 0.8618(3) 0.7037(6) 0.4936(4)
H1 H 0.8347(3) 0.7517(6) 0.4219(4)
C2 C 0.9486(3) 0.6948(8) 0.5287(5)
H2 H 0.9798(3) 0.7374(8) 0.4806(5)
C3 C 0.9893(3) 0.6228(7) 0.6353(5)
H3 H 1.0476(3) 0.6151(7) 0.6584(5)
C4 C 0.9425(3) 0.5626(7) 0.7068(4)
H4 H 0.9698(3) 0.5151(7) 0.7786(4)
C5 C 0.8568(3) 0.5714(7) 0.6742(4)
H5 H 0.8261(3) 0.5315(7) 0.7238(4)
C6 C 0.8156(3) 0.6411(6) 0.5652(4)
C7 C 0.6783(3) 0.6097(6) 0.4381(4)
C8 C 0.5859(3) 0.6370(6) 0.4082(4)
C9 C 0.5504(3) 0.7417(7) 0.4742(4)
H6 H 0.5849(3) 0.8028(7) 0.5356(4)
C10 C 0.4636(3) 0.7574(8) 0.4504(4)
H7 H 0.4403(3) 0.8291(8) 0.4952(4)
C11 C 0.4116(3) 0.6651(7) 0.3589(4)
H8 H 0.3535(3) 0.6723(7) 0.3437(4)
C12 C 0.4475(3) 0.5627(7) 0.2910(4)
H9 H 0.4131(3) 0.5022(7) 0.2293(4)
C13 C 0.5341(3) 0.5493(7) 0.3139(4)
H10 H 0.5576(3) 0.4823(7) 0.2666(4)
C14 C 0.7143(3) 0.5180(6) 0.3506(3)
C15 C 0.7453(3) 0.3408(6) 0.3739(4)
C16 C 0.7546(3) 0.1116(6) 0.5050(4)
H11 H 0.7493(3) 0.0390(6) 0.4376(4)
H12 H 0.7209(3) 0.0634(6) 0.5524(4)
C17 C 0.8452(3) 0.1179(7) 0.5753(4)
H13 H 0.8795(4) 0.152(4) 0.5257(8)
H14 H 0.8514(5) 0.198(3) 0.6377(19)
H15 H 0.8624(7) 0.0081(12) 0.607(3)
N1 N 0.7255(2) 0.6581(5) 0.5382(3)
N2 N 0.7191(2) 0.5832(5) 0.2527(3)
O1 O 0.69205(19) 0.7488(4) 0.2415(2)
H16 H 0.70349(19) 0.7897(4) 0.1759(2)
O2 O 0.7834(2) 0.2642(4) 0.3166(3)
O3 O 0.72312(19) 0.2793(4) 0.4660(3)
loop_
_geom_bond_atom_site_label_1
_geom_bond_atom_site_label_2
_geom_bond_site_symmetry_1
_geom_bond_site_symmetry_2
C1 H1 1_555 1_555
C2 C1 1_555 1_555
H2 C2 1_555 1_555
C3 C2 1_555 1_555
H3 C3 1_555 1_555
C4 C3 1_555 1_555
H4 C4 1_555 1_555
C5 C4 1_555 1_555
H5 C5 1_555 1_555
C6 C1 1_555 1_555
C7 C8 1_555 1_555
C8 C9 1_555 1_555
C9 H6 1_555 1_555
C10 C9 1_555 1_555
H7 C10 1_555 1_555
C11 C10 1_555 1_555
H8 C11 1_555 1_555
C12 C11 1_555 1_555
H9 C12 1_555 1_555
C13 C8 1_555 1_555
H10 C13 1_555 1_555
C14 C7 1_555 1_555
C15 C14 1_555 1_555
C16 H11 1_555 1_555
H12 C16 1_555 1_555
C17 C16 1_555 1_555
H13 C17 1_555 1_555
H14 C17 1_555 1_555
H15 C17 1_555 1_555
N1 C6 1_555 1_555
N2 C14 1_555 1_555
O1 N2 1_555 1_555
H16 O1 1_555 1_555
O2 C15 1_555 1_555
O3 C15 1_555 1_555
C5 C6 1_555 1_555
C7 N1 1_555 1_555
C12 C13 1_555 1_555
C16 O3 1_555 1_555

#END
