
#######################################################################
#
#                 Cambridge Crystallographic Data Centre
#                                CCDC 
#
#######################################################################
#
# If this CIF has been generated from an entry in the Cambridge 
# Structural Database, then it will include bibliographic, chemical, 
# crystal, experimental, refinement or atomic coordinate data resulting 
# from the CCDC's data processing and validation procedures.
#
#######################################################################

data_VIFGIB
_chemical_formula_moiety         'C28 H50 N4 O2'
_chemical_name_systematic        
meso-4,4'-Ethane-1,2-diyl-bis(1,3-di-t-butyl-5-ethenylimidazolidin-2-one)
_symmetry_cell_setting           monoclinic
_symmetry_space_group_name_H-M   'P 21/c'
_symmetry_Int_Tables_number      14
_space_group_name_Hall           '-P 2ybc'
loop_
_symmetry_equiv_pos_site_id
_symmetry_equiv_pos_as_xyz
1 x,y,z
2 -x,1/2+y,1/2-z
3 -x,-y,-z
4 x,1/2-y,1/2+z
_cell_length_a                   10.4248(4)
_cell_length_b                   12.8075(4)
_cell_length_c                   11.7988(4)
_cell_angle_alpha                90
_cell_angle_beta                 112.968(2)
_cell_angle_gamma                90
_cell_volume                     1450.44
_exptl_crystal_colour            colorless
_exptl_crystal_description       cube
_chemical_melting_point          160-161deg.C
_cell_formula_units_Z            2
loop_
_atom_site_label
_atom_site_type_symbol
_atom_site_fract_x
_atom_site_fract_y
_atom_site_fract_z
O1 O 0.71320(10) 0.17318(7) 0.39603(9)
N1 N 0.88703(11) 0.28021(8) 0.38456(11)
N2 N 0.68095(11) 0.35078(8) 0.35337(10)
C1 C 0.90632(13) 0.39261(9) 0.37784(12)
H1 H 0.9622 0.4073 0.3273
C2 C 0.75412(13) 0.42744(10) 0.30773(12)
H2 H 0.7398 0.4996 0.3328
C3 C 0.75569(13) 0.25885(10) 0.37951(12)
C4 C 0.99624(13) 0.19935(10) 0.40969(13)
C5 C 0.94329(15) 0.11565(11) 0.30963(14)
H3 H 0.9204 0.1479 0.2288
H4 H 0.8598 0.0827 0.3125
H5 H 1.0158 0.0627 0.3235
C6 C 1.12715(14) 0.24870(11) 0.40353(15)
H6 H 1.1046 0.2787 0.3216
H7 H 1.1992 0.1951 0.4194
H8 H 1.1614 0.3038 0.4657
C7 C 1.03212(15) 0.15171(11) 0.53724(14)
H9 H 0.9484 0.1203 0.5415
H10 H 1.0672 0.2064 0.5999
H11 H 1.1037 0.0979 0.5521
C8 C 0.52966(13) 0.35433(10) 0.32808(13)
C9 C 0.44595(14) 0.29102(12) 0.21265(14)
H12 H 0.4607 0.3200 0.1418
H13 H 0.3467 0.2945 0.1975
H14 H 0.4769 0.2181 0.2248
C10 C 0.50806(15) 0.31088(12) 0.44010(15)
H15 H 0.5621 0.3523 0.5130
H16 H 0.5392 0.2381 0.4534
H17 H 0.4090 0.3144 0.4257
C11 C 0.48190(15) 0.46791(11) 0.30973(15)
H18 H 0.4946 0.4966 0.2378
H19 H 0.5372 0.5085 0.3830
H20 H 0.3832 0.4716 0.2966
C12 C 0.97391(14) 0.44505(10) 0.50394(12)
H21 H 0.9051 0.4485 0.5426
H22 H 1.0531 0.4018 0.5574
C13 C 0.71486(13) 0.42213(11) 0.17068(13)
H23 H 0.7249 0.3569 0.1366
C14 C 0.66771(14) 0.50149(12) 0.09480(14)
H24 H 0.6564 0.5679 0.1256
H25 H 0.6450 0.4924 0.0092
O1B O 1.28680(10) 0.82682(7) 0.60397(9)
N1B N 1.11297(11) 0.71979(8) 0.61544(11)
N2B N 1.31905(11) 0.64922(8) 0.64663(10)
C1B C 1.09368(13) 0.60739(9) 0.62216(12)
H1B H 1.0378 0.5927 0.6727
C2B C 1.24588(13) 0.57256(10) 0.69227(12)
H2B H 1.2602 0.5004 0.6672
C3B C 1.24431(13) 0.74115(10) 0.62049(12)
C4B C 1.00376(13) 0.80065(10) 0.59031(13)
C5B C 1.05671(15) 0.88435(11) 0.69037(14)
H3B H 1.0796 0.8521 0.7712
H4B H 1.1402 0.9173 0.6875
H5B H 0.9842 0.9373 0.6765
C6B C 0.87285(14) 0.75130(11) 0.59647(15)
H6B H 0.8954 0.7213 0.6784
H7B H 0.8008 0.8049 0.5806
H8B H 0.8386 0.6962 0.5343
C7B C 0.96788(15) 0.84829(11) 0.46276(14)
H9B H 1.0516 0.8797 0.4585
H10B H 0.9328 0.7936 0.4001
H11B H 0.8963 0.9021 0.4479
C8B C 1.47034(13) 0.64567(10) 0.67192(13)
C9B C 1.55405(14) 0.70898(12) 0.78735(14)
H12B H 1.5393 0.6800 0.8582
H13B H 1.6533 0.7055 0.8025
H14B H 1.5231 0.7819 0.7752
C10B C 1.49194(15) 0.68912(12) 0.55990(15)
H15B H 1.4379 0.6477 0.4870
H16B H 1.4608 0.7619 0.5466
H17B H 1.5910 0.6856 0.5743
C11B C 1.51810(15) 0.53209(11) 0.69027(15)
H18B H 1.5054 0.5034 0.7622
H19B H 1.4628 0.4915 0.6170
H20B H 1.6168 0.5284 0.7034
C12B C 1.02609(14) 0.55495(10) 0.49606(12)
H21B H 1.0949 0.5515 0.4574
H22B H 0.9469 0.5982 0.4426
C13B C 1.28514(13) 0.57787(11) 0.82932(13)
H23B H 1.2751 0.6431 0.8634
C14B C 1.33229(14) 0.49851(12) 0.90520(14)
H24B H 1.3436 0.4321 0.8744
H25B H 1.3550 0.5076 0.9908
loop_
_geom_bond_atom_site_label_1
_geom_bond_atom_site_label_2
_geom_bond_site_symmetry_1
_geom_bond_site_symmetry_2
O1 C3 1_555 1_555
N1 C1 1_555 1_555
N2 C2 1_555 1_555
C1 H1 1_555 1_555
C2 C1 1_555 1_555
H2 C2 1_555 1_555
C3 N1 1_555 1_555
C4 N1 1_555 1_555
C5 C4 1_555 1_555
H3 C5 1_555 1_555
H4 C5 1_555 1_555
H5 C5 1_555 1_555
C6 C4 1_555 1_555
H6 C6 1_555 1_555
H7 C6 1_555 1_555
H8 C6 1_555 1_555
C7 C4 1_555 1_555
H9 C7 1_555 1_555
H10 C7 1_555 1_555
H11 C7 1_555 1_555
C8 N2 1_555 1_555
C9 C8 1_555 1_555
H12 C9 1_555 1_555
H13 C9 1_555 1_555
H14 C9 1_555 1_555
C10 C8 1_555 1_555
H15 C10 1_555 1_555
H16 C10 1_555 1_555
H17 C10 1_555 1_555
C11 C8 1_555 1_555
H18 C11 1_555 1_555
H19 C11 1_555 1_555
H20 C11 1_555 1_555
C12 C1 1_555 1_555
H21 C12 1_555 1_555
H22 C12 1_555 1_555
C13 C2 1_555 1_555
H23 C13 1_555 1_555
C14 C13 1_555 1_555
H24 C14 1_555 1_555
H25 C14 1_555 1_555
O1B C3B 1_555 1_555
N1B C1B 1_555 1_555
N2B C2B 1_555 1_555
C1B H1B 1_555 1_555
C2B C1B 1_555 1_555
H2B C2B 1_555 1_555
C3B N1B 1_555 1_555
C4B N1B 1_555 1_555
C5B C4B 1_555 1_555
H3B C5B 1_555 1_555
H4B C5B 1_555 1_555
H5B C5B 1_555 1_555
C6B C4B 1_555 1_555
H6B C6B 1_555 1_555
H7B C6B 1_555 1_555
H8B C6B 1_555 1_555
C7B C4B 1_555 1_555
H9B C7B 1_555 1_555
H10B C7B 1_555 1_555
H11B C7B 1_555 1_555
C8B N2B 1_555 1_555
C9B C8B 1_555 1_555
H12B C9B 1_555 1_555
H13B C9B 1_555 1_555
H14B C9B 1_555 1_555
C10B C8B 1_555 1_555
H15B C10B 1_555 1_555
H16B C10B 1_555 1_555
H17B C10B 1_555 1_555
C11B C8B 1_555 1_555
H18B C11B 1_555 1_555
H19B C11B 1_555 1_555
H20B C11B 1_555 1_555
C12B C12 1_555 1_555
H21B C12B 1_555 1_555
H22B C12B 1_555 1_555
C13B C2B 1_555 1_555
H23B C13B 1_555 1_555
C14B C13B 1_555 1_555
H24B C14B 1_555 1_555
H25B C14B 1_555 1_555
N2 C3 1_555 1_555
N2B C3B 1_555 1_555
C1B C12B 1_555 1_555

#END
