
#######################################################################
#
#                 Cambridge Crystallographic Data Centre
#                                CCDC 
#
#######################################################################
#
# If this CIF has been generated from an entry in the Cambridge 
# Structural Database, then it will include bibliographic, chemical, 
# crystal, experimental, refinement or atomic coordinate data resulting 
# from the CCDC's data processing and validation procedures.
#
#######################################################################

data_VIFGOH
_chemical_formula_moiety         'C26 H46 N4 O2'
_chemical_name_systematic        
1,1',3,3'-Tetra-t-butyl-5,5-diethenyl-4,4'-bi-imidazolidine-2,2'-dione
_symmetry_cell_setting           monoclinic
_symmetry_space_group_name_H-M   'P 21/c'
_symmetry_Int_Tables_number      14
_space_group_name_Hall           '-P 2ybc'
loop_
_symmetry_equiv_pos_site_id
_symmetry_equiv_pos_as_xyz
1 x,y,z
2 -x,1/2+y,1/2-z
3 -x,-y,-z
4 x,1/2-y,1/2+z
_cell_length_a                   17.640
_cell_length_b                   17.3703(12)
_cell_length_c                   17.6396(13)
_cell_angle_alpha                90.00
_cell_angle_beta                 90.00
_cell_angle_gamma                90.00
_cell_volume                     5404.99
_exptl_crystal_colour            colorless
_exptl_crystal_description       plate
_chemical_melting_point          151-152deg.C
_cell_formula_units_Z            8
loop_
_atom_site_label
_atom_site_type_symbol
_atom_site_fract_x
_atom_site_fract_y
_atom_site_fract_z
O1 O 0.42539(10) 0.20288(11) 0.27593(10)
O2 O 0.14057(11) -0.01316(11) 0.46401(10)
N1 N 0.38238(11) 0.10877(13) 0.35775(11)
N2 N 0.32941(11) 0.11930(12) 0.23990(10)
N3 N 0.17458(12) 0.00239(12) 0.33609(11)
N4 N 0.18015(12) 0.10272(13) 0.41561(11)
C1 C 0.38397(14) 0.14865(16) 0.28954(13)
C2 C 0.34510(14) 0.03499(16) 0.34617(14)
H1 H 0.3130 0.0210 0.3908
C3 C 0.29483(13) 0.05089(15) 0.27399(13)
H2 H 0.3007 0.0067 0.2381
C4 C 0.43614(14) 0.12476(17) 0.42222(13)
C5 C 0.41531(15) 0.07390(18) 0.49108(14)
H3 H 0.4505 0.0844 0.5328
H4 H 0.4188 0.0195 0.4767
H5 H 0.3635 0.0856 0.5073
C6 C 0.42643(17) 0.20691(19) 0.44658(15)
H6 H 0.4396 0.2412 0.4045
H7 H 0.4597 0.2175 0.4898
H8 H 0.3736 0.2157 0.4614
C7 C 0.51849(15) 0.10927(18) 0.39770(15)
H9 H 0.5313 0.1423 0.3545
H10 H 0.5239 0.0551 0.3830
H11 H 0.5528 0.1205 0.4400
C8 C 0.33573(15) 0.12880(18) 0.15438(13)
C9 C 0.3417(2) 0.2131(2) 0.13502(17)
H12 H 0.2959 0.2399 0.1523
H13 H 0.3468 0.2191 0.0800
H14 H 0.3862 0.2352 0.1602
C10 C 0.40570(16) 0.0854(2) 0.12705(16)
H15 H 0.4508 0.1056 0.1527
H16 H 0.4112 0.0921 0.0722
H17 H 0.4001 0.0305 0.1387
C11 C 0.26422(15) 0.09796(18) 0.11472(13)
H18 H 0.2198 0.1266 0.1325
H19 H 0.2579 0.0432 0.1266
H20 H 0.2694 0.1044 0.0598
C12 C 0.40090(15) -0.02703(18) 0.32877(17)
H21 H 0.4340 -0.0199 0.2869
C13 C 0.40683(19) -0.0913(2) 0.3683(2)
H22 H 0.3744 -0.1000 0.4105
H23 H 0.4435 -0.1289 0.3546
C14 C 0.20895(13) 0.06281(15) 0.29031(13)
H24 H 0.1814 0.0658 0.2409
C15 C 0.18884(13) 0.13425(15) 0.33763(12)
H25 H 0.2315 0.1721 0.3362
C16 C 0.16248(14) 0.02648(17) 0.41082(14)
C17 C 0.14831(14) -0.07311(16) 0.30808(14)
C18 C 0.15449(19) -0.07640(18) 0.22022(14)
H26 H 0.1228 -0.0359 0.1979
H27 H 0.1372 -0.1268 0.2023
H28 H 0.2074 -0.0685 0.2051
C19 C 0.06527(15) -0.08514(18) 0.32882(17)
H29 H 0.0597 -0.0843 0.3841
H30 H 0.0481 -0.1350 0.3092
H31 H 0.0346 -0.0439 0.3065
C20 C 0.19726(17) -0.13558(18) 0.34307(17)
H32 H 0.1923 -0.1340 0.3984
H33 H 0.2504 -0.1271 0.3290
H34 H 0.1807 -0.1860 0.3244
C21 C 0.15729(15) 0.14938(17) 0.48389(13)
C22 C 0.18405(16) 0.23104(17) 0.47143(15)
H35 H 0.2392 0.2313 0.4644
H36 H 0.1709 0.2625 0.5156
H37 H 0.1595 0.2523 0.4262
C23 C 0.07105(16) 0.14776(19) 0.49445(16)
H38 H 0.0464 0.1674 0.4485
H39 H 0.0571 0.1801 0.5378
H40 H 0.0545 0.0947 0.5038
C24 C 0.19645(17) 0.11836(19) 0.55628(14)
H41 H 0.2515 0.1189 0.5492
H42 H 0.1795 0.0655 0.5659
H43 H 0.1830 0.1510 0.5996
C25 C 0.11815(15) 0.16981(17) 0.30436(13)
H44 H 0.0719 0.1425 0.3102
C26 C 0.11590(17) 0.23531(18) 0.26813(14)
H45 H 0.1610 0.2643 0.2611
H46 H 0.0691 0.2540 0.2488
O3 O 0.07476(10) 0.70297(11) 0.27578(9)
O4 O 0.35933(11) 0.48663(11) 0.46402(10)
N5 N 0.17078(11) 0.61928(13) 0.23993(10)
N6 N 0.11772(11) 0.60876(13) 0.35757(11)
N7 N 0.32524(12) 0.50266(13) 0.33618(11)
N8 N 0.31980(12) 0.60302(13) 0.41583(11)
C27 C 0.11607(14) 0.64885(16) 0.28974(13)
C28 C 0.20497(14) 0.55103(16) 0.27413(13)
H47 H 0.1991 0.5069 0.2382
C29 C 0.15490(14) 0.53512(16) 0.34581(14)
H48 H 0.1871 0.5212 0.3904
C30 C 0.16429(15) 0.62896(18) 0.15459(13)
C31 C 0.1584(2) 0.7130(2) 0.13513(17)
H49 H 0.2036 0.7400 0.1535
H50 H 0.1132 0.7348 0.1592
H51 H 0.1546 0.7189 0.0800
C32 C 0.09424(16) 0.5856(2) 0.12703(16)
H52 H 0.0491 0.6059 0.1525
H53 H 0.0997 0.5307 0.1388
H54 H 0.0890 0.5922 0.0721
C33 C 0.23581(15) 0.59816(18) 0.11489(13)
H55 H 0.2803 0.6264 0.1331
H56 H 0.2308 0.6052 0.0600
H57 H 0.2418 0.5433 0.1263
C34 C 0.06383(14) 0.62476(17) 0.42237(13)
C35 C 0.07307(18) 0.70767(18) 0.44621(16)
H58 H 0.1255 0.7166 0.4623
H59 H 0.0386 0.7188 0.4884
H60 H 0.0611 0.7415 0.4034
C36 C -0.01846(14) 0.60871(18) 0.39782(15)
H61 H -0.0315 0.6417 0.3547
H62 H -0.0528 0.6196 0.4401
H63 H -0.0235 0.5546 0.3830
C37 C 0.08486(15) 0.57399(18) 0.49074(14)
H64 H 0.1372 0.5847 0.5060
H65 H 0.0801 0.5196 0.4767
H66 H 0.0506 0.5853 0.5331
C38 C 0.09888(15) 0.47291(18) 0.32913(17)
H67 H 0.0653 0.4802 0.2876
C39 C 0.09299(19) 0.40881(19) 0.3681(2)
H68 H 0.1257 0.3997 0.4100
H69 H 0.0560 0.3715 0.3545
C40 C 0.29140(13) 0.56293(15) 0.29035(13)
H70 H 0.3190 0.5657 0.2409
C41 C 0.31098(13) 0.63467(16) 0.33724(13)
H71 H 0.2683 0.6725 0.3355
C42 C 0.33733(14) 0.52671(17) 0.41082(14)
C43 C 0.35137(14) 0.42674(16) 0.30792(14)
C44 C 0.30243(17) 0.36420(18) 0.34302(17)
H72 H 0.3071 0.3661 0.3983
H73 H 0.3192 0.3137 0.3247
H74 H 0.2494 0.3724 0.3287
C45 C 0.34512(18) 0.42356(18) 0.22035(15)
H75 H 0.2922 0.4311 0.2053
H76 H 0.3628 0.3733 0.2023
H77 H 0.3765 0.4643 0.1981
C46 C 0.43491(15) 0.41526(18) 0.32931(16)
H78 H 0.4402 0.4162 0.3846
H79 H 0.4654 0.4567 0.3072
H80 H 0.4526 0.3656 0.3098
C47 C 0.34259(15) 0.64946(17) 0.48386(14)
C48 C 0.31562(17) 0.73071(17) 0.47144(15)
H81 H 0.3393 0.7516 0.4256
H82 H 0.3297 0.7625 0.5152
H83 H 0.2604 0.7309 0.4655
C49 C 0.42886(16) 0.64776(19) 0.49463(16)
H84 H 0.4536 0.6674 0.4488
H85 H 0.4454 0.5947 0.5039
H86 H 0.4427 0.6801 0.5380
C50 C 0.30361(17) 0.61821(18) 0.55602(14)
H87 H 0.2485 0.6186 0.5489
H88 H 0.3169 0.6508 0.5994
H89 H 0.3207 0.5654 0.5655
C51 C 0.38202(14) 0.66993(17) 0.30453(13)
H90 H 0.4284 0.6429 0.3110
C52 C 0.38386(16) 0.73513(17) 0.26791(14)
H91 H 0.3385 0.7636 0.2604
H92 H 0.4306 0.7542 0.2487
loop_
_geom_bond_atom_site_label_1
_geom_bond_atom_site_label_2
_geom_bond_site_symmetry_1
_geom_bond_site_symmetry_2
O1 C1 1_555 1_555
O2 C16 1_555 1_555
N1 C1 1_555 1_555
N2 C1 1_555 1_555
N3 C14 1_555 1_555
N4 C15 1_555 1_555
C2 N1 1_555 1_555
H1 C2 1_555 1_555
C3 N2 1_555 1_555
H2 C3 1_555 1_555
C4 N1 1_555 1_555
C5 C4 1_555 1_555
H3 C5 1_555 1_555
H4 C5 1_555 1_555
H5 C5 1_555 1_555
C6 C4 1_555 1_555
H6 C6 1_555 1_555
H7 C6 1_555 1_555
H8 C6 1_555 1_555
C7 C4 1_555 1_555
H9 C7 1_555 1_555
H10 C7 1_555 1_555
H11 C7 1_555 1_555
C8 N2 1_555 1_555
C9 C8 1_555 1_555
H12 C9 1_555 1_555
H13 C9 1_555 1_555
H14 C9 1_555 1_555
C10 C8 1_555 1_555
H15 C10 1_555 1_555
H16 C10 1_555 1_555
H17 C10 1_555 1_555
C11 C8 1_555 1_555
H18 C11 1_555 1_555
H19 C11 1_555 1_555
H20 C11 1_555 1_555
C12 C2 1_555 1_555
H21 C12 1_555 1_555
C13 C12 1_555 1_555
H22 C13 1_555 1_555
H23 C13 1_555 1_555
C14 C3 1_555 1_555
H24 C14 1_555 1_555
C15 C14 1_555 1_555
H25 C15 1_555 1_555
C16 N3 1_555 1_555
C17 N3 1_555 1_555
C18 C17 1_555 1_555
H26 C18 1_555 1_555
H27 C18 1_555 1_555
H28 C18 1_555 1_555
C19 C17 1_555 1_555
H29 C19 1_555 1_555
H30 C19 1_555 1_555
H31 C19 1_555 1_555
C20 C17 1_555 1_555
H32 C20 1_555 1_555
H33 C20 1_555 1_555
H34 C20 1_555 1_555
C21 N4 1_555 1_555
C22 C21 1_555 1_555
H35 C22 1_555 1_555
H36 C22 1_555 1_555
H37 C22 1_555 1_555
C23 C21 1_555 1_555
H38 C23 1_555 1_555
H39 C23 1_555 1_555
H40 C23 1_555 1_555
C24 C21 1_555 1_555
H41 C24 1_555 1_555
H42 C24 1_555 1_555
H43 C24 1_555 1_555
C25 C15 1_555 1_555
H44 C25 1_555 1_555
C26 C25 1_555 1_555
H45 C26 1_555 1_555
H46 C26 1_555 1_555
O3 C27 1_555 1_555
O4 C42 1_555 1_555
N5 C27 1_555 1_555
N6 C27 1_555 1_555
N7 C40 1_555 1_555
N8 C41 1_555 1_555
C28 N5 1_555 1_555
H47 C28 1_555 1_555
C29 N6 1_555 1_555
H48 C29 1_555 1_555
C30 N5 1_555 1_555
C31 C30 1_555 1_555
H49 C31 1_555 1_555
H50 C31 1_555 1_555
H51 C31 1_555 1_555
C32 C30 1_555 1_555
H52 C32 1_555 1_555
H53 C32 1_555 1_555
H54 C32 1_555 1_555
C33 C30 1_555 1_555
H55 C33 1_555 1_555
H56 C33 1_555 1_555
H57 C33 1_555 1_555
C34 N6 1_555 1_555
C35 C34 1_555 1_555
H58 C35 1_555 1_555
H59 C35 1_555 1_555
H60 C35 1_555 1_555
C36 C34 1_555 1_555
H61 C36 1_555 1_555
H62 C36 1_555 1_555
H63 C36 1_555 1_555
C37 C34 1_555 1_555
H64 C37 1_555 1_555
H65 C37 1_555 1_555
H66 C37 1_555 1_555
C38 C29 1_555 1_555
H67 C38 1_555 1_555
C39 C38 1_555 1_555
H68 C39 1_555 1_555
H69 C39 1_555 1_555
C40 C28 1_555 1_555
H70 C40 1_555 1_555
C41 C40 1_555 1_555
H71 C41 1_555 1_555
C42 N7 1_555 1_555
C43 N7 1_555 1_555
C44 C43 1_555 1_555
H72 C44 1_555 1_555
H73 C44 1_555 1_555
H74 C44 1_555 1_555
C45 C43 1_555 1_555
H75 C45 1_555 1_555
H76 C45 1_555 1_555
H77 C45 1_555 1_555
C46 C43 1_555 1_555
H78 C46 1_555 1_555
H79 C46 1_555 1_555
H80 C46 1_555 1_555
C47 N8 1_555 1_555
C48 C47 1_555 1_555
H81 C48 1_555 1_555
H82 C48 1_555 1_555
H83 C48 1_555 1_555
C49 C47 1_555 1_555
H84 C49 1_555 1_555
H85 C49 1_555 1_555
H86 C49 1_555 1_555
C50 C47 1_555 1_555
H87 C50 1_555 1_555
H88 C50 1_555 1_555
H89 C50 1_555 1_555
C51 C41 1_555 1_555
H90 C51 1_555 1_555
C52 C51 1_555 1_555
H91 C52 1_555 1_555
H92 C52 1_555 1_555
N4 C16 1_555 1_555
C2 C3 1_555 1_555
N8 C42 1_555 1_555
C28 C29 1_555 1_555

#END
