
#######################################################################
#
#                 Cambridge Crystallographic Data Centre
#                                CCDC 
#
#######################################################################
#
# If this CIF has been generated from an entry in the Cambridge 
# Structural Database, then it will include bibliographic, chemical, 
# crystal, experimental, refinement or atomic coordinate data resulting 
# from the CCDC's data processing and validation procedures.
#
#######################################################################

data_VIFKEC
_chemical_formula_moiety         'C53 H34 O1,2(C4 H10 O1)'
_chemical_name_systematic        
'bis(2,6-bis(1-Naphthyl)phenyl)methanone diethyl ether solvate'
_symmetry_cell_setting           monoclinic
_symmetry_space_group_name_H-M   'P 21/c'
_symmetry_Int_Tables_number      14
_space_group_name_Hall           '-P 2ybc'
loop_
_symmetry_equiv_pos_site_id
_symmetry_equiv_pos_as_xyz
1 x,y,z
2 -x,1/2+y,1/2-z
3 -x,-y,-z
4 x,1/2-y,1/2+z
_cell_length_a                   13.933(3)
_cell_length_b                   18.322(4)
_cell_length_c                   19.888(4)
_cell_angle_alpha                90
_cell_angle_beta                 104.637(4)
_cell_angle_gamma                90
_cell_volume                     4912.25
_exptl_crystal_colour            colorless
_exptl_crystal_description       block
_cell_formula_units_Z            4
loop_
_atom_site_label
_atom_site_type_symbol
_atom_site_fract_x
_atom_site_fract_y
_atom_site_fract_z
O1 O 0.2729(2) 0.37006(17) 0.38748(16)
C1 C 0.2647(3) 0.3032(2) 0.3840(2)
C2 C 0.3182(3) 0.2526(3) 0.4437(2)
C3 C 0.3667(3) 0.1872(2) 0.4324(2)
C4 C 0.3999(4) 0.1369(3) 0.4881(3)
H1 H 0.4318 0.0929 0.4804
C5 C 0.3856(4) 0.1519(3) 0.5552(3)
H2 H 0.4021 0.1161 0.5909
C6 C 0.3475(4) 0.2190(3) 0.5683(3)
H3 H 0.3432 0.2302 0.6141
C7 C 0.3144(3) 0.2720(2) 0.5139(2)
C8 C 0.3988(3) 0.1723(2) 0.3649(2)
C9 C 0.3428(4) 0.1295(3) 0.3109(3)
H4 H 0.2824 0.1084 0.3154
C10 C 0.3754(4) 0.1169(3) 0.2482(3)
H5 H 0.3353 0.0888 0.2115
C11 C 0.4637(4) 0.1452(3) 0.2416(3)
H6 H 0.4839 0.1364 0.2001
C12 C 0.5268(4) 0.1881(3) 0.2964(3)
C13 C 0.6200(4) 0.2177(3) 0.2918(3)
H7 H 0.6414 0.2095 0.2508
C14 C 0.6802(4) 0.2582(3) 0.3454(4)
H8 H 0.7413 0.2777 0.3406
C15 C 0.6486(4) 0.2703(3) 0.4085(3)
H9 H 0.6901 0.2966 0.4459
C16 C 0.5587(4) 0.2437(3) 0.4143(3)
H10 H 0.5385 0.2534 0.4556
C17 C 0.4933(4) 0.2013(2) 0.3598(3)
C18 C 0.2880(3) 0.3484(2) 0.5347(2)
C19 C 0.1926(4) 0.3668(3) 0.5391(3)
H11 H 0.1414 0.3312 0.5286
C20 C 0.1709(4) 0.4389(3) 0.5593(3)
H12 H 0.1050 0.4511 0.5604
C21 C 0.2452(4) 0.4909(3) 0.5771(2)
H13 H 0.2294 0.5383 0.5903
C22 C 0.3464(4) 0.4743(3) 0.5761(3)
C23 C 0.4262(4) 0.5259(3) 0.5974(3)
H14 H 0.4126 0.5732 0.6124
C24 C 0.5231(4) 0.5078(3) 0.5964(3)
H15 H 0.5750 0.5425 0.6106
C25 C 0.5440(4) 0.4367(3) 0.5738(3)
H16 H 0.6099 0.4245 0.5728
C26 C 0.4691(4) 0.3857(3) 0.5532(2)
H17 H 0.4847 0.3390 0.5382
C27 C 0.3675(4) 0.4015(3) 0.5540(2)
C28 C 0.1984(3) 0.2655(2) 0.3191(2)
C29 C 0.1310(3) 0.2080(2) 0.3248(2)
C30 C 0.0778(4) 0.1711(3) 0.2639(3)
H18 H 0.0335 0.1328 0.2675
C31 C 0.0904(4) 0.1912(3) 0.1970(3)
H19 H 0.0577 0.1645 0.1568
C32 C 0.1510(4) 0.2502(3) 0.1915(2)
H20 H 0.1566 0.2647 0.1468
C33 C 0.2047(3) 0.2892(2) 0.2508(2)
C34 C 0.1064(3) 0.1857(2) 0.3931(2)
C35 C 0.1354(4) 0.1183(3) 0.4241(3)
H21 H 0.1752 0.0867 0.4045
C36 C 0.1056(4) 0.0956(3) 0.4861(3)
H22 H 0.1275 0.0502 0.5075
C37 C 0.0460(4) 0.1399(3) 0.5134(3)
H23 H 0.0267 0.1241 0.5535
C38 C 0.0116(4) 0.2096(3) 0.4835(3)
C39 C -0.0497(4) 0.2570(3) 0.5123(3)
H24 H -0.0691 0.2418 0.5527
C40 C -0.0816(4) 0.3240(3) 0.4832(3)
H25 H -0.1212 0.3547 0.5037
C41 C -0.0538(4) 0.3467(3) 0.4210(3)
H26 H -0.0764 0.3923 0.4003
C42 C 0.0049(3) 0.3030(3) 0.3916(3)
H27 H 0.0215 0.3189 0.3505
C43 C 0.0421(3) 0.2334(3) 0.4215(3)
C44 C 0.2669(3) 0.3546(3) 0.2390(2)
C45 C 0.3699(4) 0.3495(3) 0.2506(2)
H28 H 0.4022 0.3054 0.2688
C46 C 0.4281(4) 0.4091(3) 0.2359(3)
H29 H 0.4981 0.4045 0.2446
C47 C 0.3816(4) 0.4736(3) 0.2089(2)
H30 H 0.4204 0.5130 0.1994
C48 C 0.2754(4) 0.4819(3) 0.1950(2)
C49 C 0.2251(4) 0.5476(3) 0.1662(3)
H31 H 0.2628 0.5871 0.1556
C50 C 0.1229(4) 0.5548(3) 0.1533(3)
H32 H 0.0915 0.5985 0.1334
C51 C 0.0652(4) 0.4962(3) 0.1700(3)
H33 H -0.0047 0.5014 0.1618
C52 C 0.1104(4) 0.4321(3) 0.1979(2)
H34 H 0.0707 0.3941 0.2091
C53 C 0.2164(4) 0.4212(3) 0.2108(2)
O2 O 0.2602(3) -0.0578(2) 0.38044(19)
C54 C 0.3145(5) -0.0659(4) 0.5067(3)
H35 H 0.2554 -0.0953 0.5055
H36 H 0.2999 -0.0143 0.5129
H37 H 0.3690 -0.0818 0.5455
C55 C 0.3446(5) -0.0753(3) 0.4382(3)
H38 H 0.4009 -0.0425 0.4375
H39 H 0.3660 -0.1262 0.4339
C56 C 0.2834(5) -0.0654(3) 0.3138(3)
H40 H 0.3071 -0.1155 0.3085
H41 H 0.3362 -0.0306 0.3103
C57 C 0.1888(5) -0.0498(4) 0.2571(3)
H42 H 0.2031 -0.0528 0.2115
H43 H 0.1647 -0.0007 0.2638
H44 H 0.1379 -0.0858 0.2599
O3 O 0.1423(7) 0.6215(3) 0.3549(5)
C58 C 0.0767(12) 0.5041(10) 0.3699(12)
H45 H 0.0347 0.4969 0.3228
H46 H 0.0391 0.5301 0.3979
H47 H 0.0979 0.4566 0.3912
C59 C 0.1656(9) 0.5478(5) 0.3667(7)
H48 H 0.2170 0.5425 0.4110
H49 H 0.1932 0.5289 0.3289
C60 C 0.2157(15) 0.6644(7) 0.3388(10)
H50 H 0.2403 0.6400 0.3020
H51 H 0.2720 0.6690 0.3804
C61 C 0.1794(9) 0.7381(5) 0.3148(8)
H52 H 0.1333 0.7347 0.2686
H53 H 0.2357 0.7691 0.3122
H54 H 0.1452 0.7595 0.3475
O4? O 0.2056(10) 0.6116(5) 0.3955(7)
C62? C 0.0901(13) 0.5073(11) 0.3735(13)
H55? H 0.0896 0.4550 0.3631
H56? H 0.0464 0.5331 0.3343
H57? H 0.0666 0.5150 0.4154
C63? C 0.1930(10) 0.5360(6) 0.3851(8)
H58? H 0.2352 0.5109 0.4261
H59? H 0.2181 0.5225 0.3444
C64? C 0.206(3) 0.6618(13) 0.3429(16)
H60? H 0.1371 0.6686 0.3145
H61? H 0.2455 0.6417 0.3122
C65? C 0.2472(18) 0.7339(11) 0.3695(13)
H62? H 0.2358 0.7690 0.3312
H63? H 0.3187 0.7292 0.3903
H64? H 0.2146 0.7511 0.4048
loop_
_geom_bond_atom_site_label_1
_geom_bond_atom_site_label_2
_geom_bond_site_symmetry_1
_geom_bond_site_symmetry_2
O1 C1 1_555 1_555
C1 C2 1_555 1_555
C2 C3 1_555 1_555
C3 C4 1_555 1_555
C4 H1 1_555 1_555
C5 C4 1_555 1_555
H2 C5 1_555 1_555
C6 C5 1_555 1_555
H3 C6 1_555 1_555
C7 C2 1_555 1_555
C8 C3 1_555 1_555
C9 C8 1_555 1_555
H4 C9 1_555 1_555
C10 C9 1_555 1_555
H5 C10 1_555 1_555
C11 C10 1_555 1_555
H6 C11 1_555 1_555
C12 C11 1_555 1_555
C13 C12 1_555 1_555
H7 C13 1_555 1_555
C14 C13 1_555 1_555
H8 C14 1_555 1_555
C15 C14 1_555 1_555
H9 C15 1_555 1_555
C16 C15 1_555 1_555
H10 C16 1_555 1_555
C17 C8 1_555 1_555
C18 C7 1_555 1_555
C19 C18 1_555 1_555
H11 C19 1_555 1_555
C20 C19 1_555 1_555
H12 C20 1_555 1_555
C21 C20 1_555 1_555
H13 C21 1_555 1_555
C22 C21 1_555 1_555
C23 C22 1_555 1_555
H14 C23 1_555 1_555
C24 C23 1_555 1_555
H15 C24 1_555 1_555
C25 C24 1_555 1_555
H16 C25 1_555 1_555
C26 C25 1_555 1_555
H17 C26 1_555 1_555
C27 C18 1_555 1_555
C28 C1 1_555 1_555
C29 C28 1_555 1_555
C30 C29 1_555 1_555
H18 C30 1_555 1_555
C31 C30 1_555 1_555
H19 C31 1_555 1_555
C32 C31 1_555 1_555
H20 C32 1_555 1_555
C33 C28 1_555 1_555
C34 C29 1_555 1_555
C35 C34 1_555 1_555
H21 C35 1_555 1_555
C36 C35 1_555 1_555
H22 C36 1_555 1_555
C37 C36 1_555 1_555
H23 C37 1_555 1_555
C38 C37 1_555 1_555
C39 C38 1_555 1_555
H24 C39 1_555 1_555
C40 C39 1_555 1_555
H25 C40 1_555 1_555
C41 C40 1_555 1_555
H26 C41 1_555 1_555
C42 C41 1_555 1_555
H27 C42 1_555 1_555
C43 C34 1_555 1_555
C44 C33 1_555 1_555
C45 C44 1_555 1_555
H28 C45 1_555 1_555
C46 C45 1_555 1_555
H29 C46 1_555 1_555
C47 C46 1_555 1_555
H30 C47 1_555 1_555
C48 C47 1_555 1_555
C49 C48 1_555 1_555
H31 C49 1_555 1_555
C50 C49 1_555 1_555
H32 C50 1_555 1_555
C51 C50 1_555 1_555
H33 C51 1_555 1_555
C52 C51 1_555 1_555
H34 C52 1_555 1_555
C53 C44 1_555 1_555
O2 C55 1_555 1_555
C54 H35 1_555 1_555
H36 C54 1_555 1_555
H37 C54 1_555 1_555
C55 C54 1_555 1_555
H38 C55 1_555 1_555
H39 C55 1_555 1_555
C56 O2 1_555 1_555
H40 C56 1_555 1_555
H41 C56 1_555 1_555
C57 C56 1_555 1_555
H42 C57 1_555 1_555
H43 C57 1_555 1_555
H44 C57 1_555 1_555
O3 C59 1_555 1_555
C58 H45 1_555 1_555
H46 C58 1_555 1_555
H47 C58 1_555 1_555
C59 C58 1_555 1_555
H48 C59 1_555 1_555
H49 C59 1_555 1_555
C60 O3 1_555 1_555
H50 C60 1_555 1_555
H51 C60 1_555 1_555
C61 C60 1_555 1_555
H52 C61 1_555 1_555
H53 C61 1_555 1_555
H54 C61 1_555 1_555
C6 C7 1_555 1_555
C12 C17 1_555 1_555
C16 C17 1_555 1_555
C22 C27 1_555 1_555
C26 C27 1_555 1_555
C32 C33 1_555 1_555
C38 C43 1_555 1_555
C42 C43 1_555 1_555
C48 C53 1_555 1_555
C52 C53 1_555 1_555

#END
