
#######################################################################
#
#                 Cambridge Crystallographic Data Centre
#                                CCDC 
#
#######################################################################
#
# If this CIF has been generated from an entry in the Cambridge 
# Structural Database, then it will include bibliographic, chemical, 
# crystal, experimental, refinement or atomic coordinate data resulting 
# from the CCDC's data processing and validation procedures.
#
#######################################################################

data_VIFNIH
_chemical_name_common            
'bis(4-(Triphenylphosphoniomethyl)benzyl)ammonium dipyrido(24)crown-8 pseudorotaxane tris(hexafluorophosphate) methanol solvate'
_chemical_formula_moiety         
'C22 H30 N2 O6,C52 H48 N1 P2 3+,3(F6 P1 1-),3(C1 H4 O1)'
_chemical_name_systematic        
'bis(4-(Triphenylphosphoniomethyl)benzyl)ammonium 1,4,7,11,14,17-hexaoxa-9,19-di(2,6)pyridinacyclocosaphane pseudorotaxane tris(hexafluorophosphate) methanol solvate'
_symmetry_cell_setting           monoclinic
_symmetry_space_group_name_H-M   'P 21/c'
_symmetry_Int_Tables_number      14
_space_group_name_Hall           '-P 2ybc'
loop_
_symmetry_equiv_pos_site_id
_symmetry_equiv_pos_as_xyz
1 x,y,z
2 x,1/2-y,1/2+z
3 -x,-y,-z
4 -x,1/2+y,1/2-z
_cell_length_a                   28.253(3)
_cell_length_b                   19.535(2)
_cell_length_c                   15.658(2)
_cell_angle_alpha                90
_cell_angle_beta                 104.100(8)
_cell_angle_gamma                90
_cell_volume                     8381.63
_exptl_crystal_description       needles
_cell_formula_units_Z            4
loop_
_atom_site_label
_atom_site_type_symbol
_atom_site_fract_x
_atom_site_fract_y
_atom_site_fract_z
N1 N 0.1592(2) 0.4873(4) -0.1228(5)
C1 C 0.1431(4) 0.4375(6) -0.1826(7)
C2 C 0.1761(5) 0.3771(6) -0.1789(9)
H1 H 0.1606(5) 0.3440(6) -0.2252(9)
H2 H 0.2071(5) 0.3923(6) -0.1914(9)
O1 O 0.1863(3) 0.3437(4) -0.0954(6)
C3 C 0.1481(5) 0.3076(7) -0.0785(11)
H3 H 0.1332(5) 0.2792(7) -0.1305(11)
H4 H 0.1230(5) 0.3400(7) -0.0689(11)
C4 C 0.1636(5) 0.2625(7) 0.0002(11)
H5 H 0.1375(5) 0.2290(7) 0.0014(11)
H6 H 0.1933(5) 0.2370(7) -0.0029(11)
O2 O 0.1733(4) 0.3045(4) 0.0802(7)
C5 C 0.1858(8) 0.2646(8) 0.1542(12)
H7 H 0.2163(8) 0.2394(8) 0.1552(12)
H8 H 0.1597(8) 0.2307(8) 0.1539(12)
C6 C 0.1927(5) 0.3087(9) 0.2336(12)
H9 H 0.1662(5) 0.3431(9) 0.2250(12)
H10 H 0.1914(5) 0.2805(9) 0.2855(12)
O3 O 0.2402(3) 0.3435(5) 0.2489(6)
C7 C 0.2508(5) 0.3859(8) 0.3234(9)
H11 H 0.2496(5) 0.3583(8) 0.3759(9)
H12 H 0.2255(5) 0.4219(8) 0.3165(9)
C8 C 0.2995(5) 0.4191(7) 0.3385(8)
N2 N 0.3217(3) 0.4195(6) 0.2733(7)
C9 C 0.3640(5) 0.4521(8) 0.2830(9)
C10 C 0.3859(4) 0.4524(8) 0.2055(10)
H13 H 0.4205(4) 0.4666(8) 0.2249(10)
H14 H 0.3851(4) 0.4053(8) 0.1818(10)
O4 O 0.3613(2) 0.4969(5) 0.1374(5)
C11 C 0.3711(4) 0.5658(8) 0.1594(9)
H15 H 0.4068(4) 0.5730(8) 0.1780(9)
H16 H 0.3570(4) 0.5780(8) 0.2094(9)
C12 C 0.3497(3) 0.6114(7) 0.0821(8)
H17 H 0.3618(3) 0.6587(7) 0.0949(8)
H18 H 0.3598(3) 0.5950(7) 0.0294(8)
O5 O 0.2979(2) 0.6105(3) 0.0657(5)
C13 C 0.2758(3) 0.6664(5) 0.0132(7)
H19 H 0.2823(3) 0.6634(5) -0.0461(7)
H20 H 0.2895(3) 0.7101(5) 0.0406(7)
C14 C 0.2218(3) 0.6639(5) 0.0060(7)
H21 H 0.2153(3) 0.6578(5) 0.0649(7)
H22 H 0.2061(3) 0.7070(5) -0.0198(7)
O6 O 0.2028(2) 0.6064(3) -0.0503(4)
C15 C 0.1521(3) 0.5995(5) -0.0635(7)
H23 H 0.1360(3) 0.6436(5) -0.0841(7)
H24 H 0.1442(3) 0.5876(5) -0.0071(7)
C16 C 0.1332(3) 0.5458(5) -0.1291(6)
C17 C 0.0908(3) 0.5558(5) -0.1936(7)
H25 H 0.0730(3) 0.5974(5) -0.1966(7)
C18 C 0.0747(4) 0.5039(7) -0.2538(8)
H26 H 0.0452(4) 0.5094(7) -0.2980(8)
C19 C 0.1013(4) 0.4440(7) -0.2501(8)
H27 H 0.0913(4) 0.4086(7) -0.2923(8)
C20 C 0.3158(9) 0.4483(11) 0.4190(15)
H28 H 0.2981(9) 0.4480(11) 0.4635(15)
C21 C 0.3619(12) 0.4793(14) 0.4289(13)
H29 H 0.3771(12) 0.4986(14) 0.4844(13)
C22 C 0.3870(7) 0.4832(11) 0.3602(11)
H30 H 0.4175(7) 0.5058(11) 0.3677(11)
N3 N 0.2526(2) 0.4748(3) 0.0078(5)
H31 H 0.2246(2) 0.4845(3) -0.0346(5)
H32 H 0.2680(2) 0.5156(3) 0.0263(5)
C23 C 0.2850(3) 0.4319(4) -0.0309(7)
H33 H 0.2665(3) 0.3912(4) -0.0587(7)
H34 H 0.3124(3) 0.4155(4) 0.0168(7)
C24 C 0.3050(2) 0.4683(4) -0.0980(6)
C25 C 0.3454(3) 0.4404(5) -0.1198(6)
H35 H 0.3590(3) 0.3990(5) -0.0927(6)
C26 C 0.3660(3) 0.4721(5) -0.1805(6)
H36 H 0.3938(3) 0.4523(5) -0.1949(6)
C27 C 0.3468(2) 0.5328(4) -0.2209(5)
C28 C 0.3057(3) 0.5598(4) -0.2035(6)
H37 H 0.2913(3) 0.6001(4) -0.2327(6)
C29 C 0.2849(3) 0.5268(4) -0.1416(6)
H38 H 0.2562(3) 0.5453(4) -0.1294(6)
C30 C 0.3717(3) 0.5685(4) -0.2851(6)
H39 H 0.3461(3) 0.5866(4) -0.3348(6)
H40 H 0.3903(3) 0.5337(4) -0.3094(6)
P1 P 0.41233(6) 0.63718(11) -0.24130(14)
C31 C 0.4567(2) 0.6112(2) -0.3769(4)
H41 H 0.4472(2) 0.5649(2) -0.3729(4)
C32 C 0.4837(3) 0.6294(3) -0.4366(4)
H42 H 0.4926(4) 0.5956(4) -0.4734(6)
C33 C 0.4977(3) 0.6972(4) -0.4425(4)
H43 H 0.5161(4) 0.7096(5) -0.4833(6)
C34 C 0.4846(3) 0.7466(3) -0.3886(5)
H44 H 0.4942(4) 0.7929(3) -0.3926(7)
C35 C 0.4576(2) 0.7284(2) -0.3289(4)
H45 H 0.4487(4) 0.7622(3) -0.2921(6)
C36 C 0.4437(2) 0.6606(3) -0.3230(3)
C37 C 0.5051(2) 0.6242(4) -0.1362(3)
H46 H 0.5158(2) 0.6383(4) -0.1864(3)
C38 C 0.53887(13) 0.6132(4) -0.0565(4)
H47 H 0.57268(13) 0.6197(7) -0.0523(5)
C39 C 0.5232(2) 0.5926(4) 0.0170(3)
H48 H 0.5462(2) 0.5850(6) 0.0714(4)
C40 C 0.4737(2) 0.5830(4) 0.0108(3)
H49 H 0.4630(3) 0.5689(5) 0.0611(4)
C41 C 0.43993(14) 0.5940(4) -0.0688(3)
H50 H 0.4061(2) 0.5875(6) -0.0730(5)
C42 C 0.45563(15) 0.6146(3) -0.1423(3)
C43 C 0.3981(2) 0.7484(4) -0.1398(4)
H51 H 0.4291(2) 0.7373(4) -0.1027(4)
C44 C 0.3716(2) 0.8030(4) -0.1186(4)
H52 H 0.3844(3) 0.8292(5) -0.0671(5)
C45 C 0.3262(2) 0.8191(3) -0.1728(5)
H53 H 0.3081(3) 0.8565(4) -0.1584(6)
C46 C 0.3075(2) 0.7807(3) -0.2482(4)
H54 H 0.2765(2) 0.7918(5) -0.2853(5)
C47 C 0.3340(2) 0.7261(3) -0.2694(3)
H55 H 0.3212(3) 0.6999(4) -0.3209(4)
C48 C 0.3794(2) 0.7100(3) -0.2151(4)
C49 C 0.2392(3) 0.4408(4) 0.0837(7)
H56 H 0.2695(3) 0.4281(4) 0.1278(7)
H57 H 0.2212(3) 0.3980(4) 0.0629(7)
C50 C 0.2086(3) 0.4847(4) 0.1267(5)
C51 C 0.2282(3) 0.5368(4) 0.1857(6)
H58 H 0.2617(3) 0.5481(4) 0.1943(6)
C52 C 0.2007(3) 0.5719(4) 0.2315(6)
H59 H 0.2146(3) 0.6092(4) 0.2680(6)
C53 C 0.1523(3) 0.5536(4) 0.2250(5)
C54 C 0.1318(3) 0.5033(5) 0.1642(6)
H60 H 0.0982(3) 0.4925(5) 0.1555(6)
C55 C 0.1590(3) 0.4692(4) 0.1167(6)
H61 H 0.1442(3) 0.4345(4) 0.0765(6)
C56 C 0.1235(3) 0.5838(4) 0.2846(6)
H62 H 0.1470(3) 0.6013(4) 0.3376(6)
H63 H 0.1052(3) 0.5461(4) 0.3041(6)
P2 P 0.08076(6) 0.65143(11) 0.24360(14)
C57 C 0.1594(2) 0.7393(3) 0.2791(4)
H64 H 0.1740(2) 0.7071(3) 0.3231(4)
C58 C 0.1852(2) 0.7972(3) 0.2654(4)
H65 H 0.2174(2) 0.8046(4) 0.3000(6)
C59 C 0.1638(2) 0.8443(3) 0.2009(5)
H66 H 0.1814(3) 0.8839(3) 0.1915(7)
C60 C 0.1167(2) 0.8335(3) 0.1502(4)
H67 H 0.1021(3) 0.8657(4) 0.1061(6)
C61 C 0.0909(2) 0.7756(3) 0.1639(4)
H68 H 0.0587(2) 0.7682(4) 0.1292(5)
C62 C 0.1123(2) 0.7285(2) 0.2283(4)
C63 C 0.0116(3) 0.7189(3) 0.3082(5)
H69 H 0.0105(3) 0.7499(3) 0.2611(5)
C64 C -0.0194(3) 0.7279(4) 0.3639(6)
H70 H -0.0418(4) 0.7651(5) 0.3548(8)
C65 C -0.0178(2) 0.6825(4) 0.4329(5)
H71 H -0.0390(3) 0.6886(6) 0.4710(6)
C66 C 0.0149(3) 0.6280(4) 0.4463(4)
H72 H 0.0160(4) 0.5970(5) 0.4934(6)
C67 C 0.0459(2) 0.6190(3) 0.3906(5)
H73 H 0.0683(3) 0.5818(4) 0.3997(7)
C68 C 0.0443(2) 0.6644(3) 0.3216(4)
C69 C -0.0030(2) 0.5976(4) 0.1381(3)
H74 H -0.0130(2) 0.5907(4) 0.1912(3)
C70 C -0.0334(2) 0.5775(4) 0.0581(4)
H75 H -0.0640(2) 0.5570(6) 0.0566(5)
C71 C -0.0189(2) 0.5876(4) -0.0196(3)
H76 H -0.0396(3) 0.5739(6) -0.0743(4)
C72 C 0.0260(2) 0.6177(4) -0.0174(3)
H77 H 0.0359(3) 0.6245(6) -0.0705(3)
C73 C 0.0563(2) 0.6377(3) 0.0625(3)
H78 H 0.0870(2) 0.6583(5) 0.0640(5)
C74 C 0.0418(2) 0.6277(3) 0.1403(3)
P3 P 0.52659(9) 0.59836(13) 0.3134(2)
F1 F 0.5800(3) 0.5716(5) 0.3581(6)
F2 F 0.5337(3) 0.6620(4) 0.3743(6)
F3 F 0.5046(5) 0.5549(5) 0.3760(8)
F4 F 0.5206(3) 0.5332(4) 0.2504(5)
F5 F 0.5511(3) 0.6395(4) 0.2477(6)
F6 F 0.4751(2) 0.6243(4) 0.2639(9)
P4 P 0.24183(10) 0.62174(15) 0.5122(2)
F7 F 0.2996(2) 0.6278(5) 0.5313(5)
F8 F 0.2475(4) 0.5708(4) 0.5911(6)
F9 F 0.2428(2) 0.6842(3) 0.5780(4)
F10 F 0.2380(3) 0.6756(4) 0.4345(5)
F11 F 0.2392(4) 0.5616(5) 0.4460(6)
F12 F 0.1842(2) 0.6210(5) 0.4949(5)
P5 P 0.05617(10) 0.3910(2) 0.3251(2)
F13 F 0.0026(4) 0.3655(6) 0.2873(19)
F14 F 0.0738(4) 0.3535(9) 0.2468(11)
F15 F 0.0395(3) 0.4569(5) 0.2603(7)
F16 F 0.0365(7) 0.4321(8) 0.3948(9)
F17 F 0.0706(6) 0.3313(9) 0.3888(13)
F18 F 0.1076(10) 0.4226(17) 0.3478(24)
O7 O 0.3495(5) 0.2960(7) 0.0245(13)
C75 C 0.3591(15) 0.2328(13) -0.0019(22)
H79 H 0.3687(15) 0.2026(13) 0.0494(22)
H80 H 0.3857(15) 0.2355(13) -0.0319(22)
H81 H 0.3298(15) 0.2143(13) -0.0426(22)
O8 O 0.3179(6) 0.2814(8) 0.1790(10)
H85 H 0.3299(6) 0.3020(8) 0.1421(10)
C77 C 0.3553(13) 0.2534(16) 0.2450(20)
H86 H 0.3850(13) 0.2497(16) 0.2233(20)
H87 H 0.3457(13) 0.2079(16) 0.2608(20)
H88 H 0.3617(13) 0.2831(16) 0.2970(20)
O9 O 0.2616(11) 0.1388(21) 0.0789(22)
H89 H 0.2358(11) 0.1532(21) 0.0903(22)
C78 C 0.2837(15) 0.1009(16) 0.1402(25)
H90 H 0.2746(15) 0.0531(16) 0.1256(25)
H91 H 0.2748(15) 0.1134(16) 0.1948(25)
H92 H 0.3189(15) 0.1064(16) 0.1479(25)
O10 O 0.1632(19) 0.4106(20) 0.6012(26)
H93 H 0.1641(19) 0.3819(20) 0.5617(26)
C79 C 0.1519(13) 0.4629(16) 0.5673(19)
H94 H 0.1167(13) 0.4703(16) 0.5578(19)
H95 H 0.1609(13) 0.4651(16) 0.5108(19)
H96 H 0.1695(13) 0.4985(16) 0.6067(19)
F19? F 0.0118(14) 0.3523(19) 0.3299(24)
F20? F 0.0406(12) 0.3959(17) 0.2324(22)
F21? F 0.0776(14) 0.3219(20) 0.3119(32)
F22? F 0.0766(13) 0.3848(21) 0.4331(25)
F23? F 0.0445(9) 0.4585(14) 0.3580(21)
F24? F 0.1113(17) 0.4230(18) 0.3459(29)
C76? C 0.3035(24) 0.2415(34) 0.0055(45)
H82? H 0.2765(24) 0.2596(34) -0.0407(45)
H83? H 0.2926(24) 0.2351(34) 0.0598(45)
H84? H 0.3140(24) 0.1974(34) -0.0134(45)
loop_
_geom_bond_atom_site_label_1
_geom_bond_atom_site_label_2
_geom_bond_site_symmetry_1
_geom_bond_site_symmetry_2
N1 C1 1_555 1_555
C1 C2 1_555 1_555
C2 H1 1_555 1_555
H2 C2 1_555 1_555
O1 C2 1_555 1_555
C3 O1 1_555 1_555
H3 C3 1_555 1_555
H4 C3 1_555 1_555
C4 C3 1_555 1_555
H5 C4 1_555 1_555
H6 C4 1_555 1_555
O2 C4 1_555 1_555
C5 O2 1_555 1_555
H7 C5 1_555 1_555
H8 C5 1_555 1_555
C6 C5 1_555 1_555
H9 C6 1_555 1_555
H10 C6 1_555 1_555
O3 C6 1_555 1_555
C7 O3 1_555 1_555
H11 C7 1_555 1_555
H12 C7 1_555 1_555
C8 C7 1_555 1_555
N2 C8 1_555 1_555
C9 N2 1_555 1_555
C10 C9 1_555 1_555
H13 C10 1_555 1_555
H14 C10 1_555 1_555
O4 C10 1_555 1_555
C11 O4 1_555 1_555
H15 C11 1_555 1_555
H16 C11 1_555 1_555
C12 C11 1_555 1_555
H17 C12 1_555 1_555
H18 C12 1_555 1_555
O5 C12 1_555 1_555
C13 O5 1_555 1_555
H19 C13 1_555 1_555
H20 C13 1_555 1_555
C14 C13 1_555 1_555
H21 C14 1_555 1_555
H22 C14 1_555 1_555
O6 C14 1_555 1_555
C15 O6 1_555 1_555
H23 C15 1_555 1_555
H24 C15 1_555 1_555
C16 N1 1_555 1_555
C17 C16 1_555 1_555
H25 C17 1_555 1_555
C18 C17 1_555 1_555
H26 C18 1_555 1_555
C19 C1 1_555 1_555
H27 C19 1_555 1_555
C20 C8 1_555 1_555
H28 C20 1_555 1_555
C21 C20 1_555 1_555
H29 C21 1_555 1_555
C22 C9 1_555 1_555
H30 C22 1_555 1_555
N3 H31 1_555 1_555
H32 N3 1_555 1_555
C23 N3 1_555 1_555
H33 C23 1_555 1_555
H34 C23 1_555 1_555
C24 C23 1_555 1_555
C25 C24 1_555 1_555
H35 C25 1_555 1_555
C26 C25 1_555 1_555
H36 C26 1_555 1_555
C27 C26 1_555 1_555
C28 C27 1_555 1_555
H37 C28 1_555 1_555
C29 C24 1_555 1_555
H38 C29 1_555 1_555
C30 C27 1_555 1_555
H39 C30 1_555 1_555
H40 C30 1_555 1_555
P1 C30 1_555 1_555
C31 H41 1_555 1_555
C32 C31 1_555 1_555
H42 C32 1_555 1_555
C33 C32 1_555 1_555
H43 C33 1_555 1_555
C34 C33 1_555 1_555
H44 C34 1_555 1_555
C35 C34 1_555 1_555
H45 C35 1_555 1_555
C36 P1 1_555 1_555
C37 H46 1_555 1_555
C38 C37 1_555 1_555
H47 C38 1_555 1_555
C39 C38 1_555 1_555
H48 C39 1_555 1_555
C40 C39 1_555 1_555
H49 C40 1_555 1_555
C41 C40 1_555 1_555
H50 C41 1_555 1_555
C42 P1 1_555 1_555
C43 H51 1_555 1_555
C44 C43 1_555 1_555
H52 C44 1_555 1_555
C45 C44 1_555 1_555
H53 C45 1_555 1_555
C46 C45 1_555 1_555
H54 C46 1_555 1_555
C47 C46 1_555 1_555
H55 C47 1_555 1_555
C48 P1 1_555 1_555
C49 N3 1_555 1_555
H56 C49 1_555 1_555
H57 C49 1_555 1_555
C50 C49 1_555 1_555
C51 C50 1_555 1_555
H58 C51 1_555 1_555
C52 C51 1_555 1_555
H59 C52 1_555 1_555
C53 C52 1_555 1_555
C54 C53 1_555 1_555
H60 C54 1_555 1_555
C55 C50 1_555 1_555
H61 C55 1_555 1_555
C56 C53 1_555 1_555
H62 C56 1_555 1_555
H63 C56 1_555 1_555
P2 C56 1_555 1_555
C57 H64 1_555 1_555
C58 C57 1_555 1_555
H65 C58 1_555 1_555
C59 C58 1_555 1_555
H66 C59 1_555 1_555
C60 C59 1_555 1_555
H67 C60 1_555 1_555
C61 C60 1_555 1_555
H68 C61 1_555 1_555
C62 P2 1_555 1_555
C63 H69 1_555 1_555
C64 C63 1_555 1_555
H70 C64 1_555 1_555
C65 C64 1_555 1_555
H71 C65 1_555 1_555
C66 C65 1_555 1_555
H72 C66 1_555 1_555
C67 C66 1_555 1_555
H73 C67 1_555 1_555
C68 P2 1_555 1_555
C69 H74 1_555 1_555
C70 C69 1_555 1_555
H75 C70 1_555 1_555
C71 C70 1_555 1_555
H76 C71 1_555 1_555
C72 C71 1_555 1_555
H77 C72 1_555 1_555
C73 C72 1_555 1_555
H78 C73 1_555 1_555
C74 P2 1_555 1_555
P3 F1 1_555 1_555
F2 P3 1_555 1_555
F3 P3 1_555 1_555
F4 P3 1_555 1_555
F5 P3 1_555 1_555
F6 P3 1_555 1_555
P4 F7 1_555 1_555
F8 P4 1_555 1_555
F9 P4 1_555 1_555
F10 P4 1_555 1_555
F11 P4 1_555 1_555
F12 P4 1_555 1_555
P5 F13 1_555 1_555
F14 P5 1_555 1_555
F15 P5 1_555 1_555
F16 P5 1_555 1_555
F17 P5 1_555 1_555
F18 P5 1_555 1_555
O7 C75 1_555 1_555
C75 H79 1_555 1_555
H80 C75 1_555 1_555
H81 C75 1_555 1_555
O8 H85 1_555 1_555
C77 O8 1_555 1_555
H86 C77 1_555 1_555
H87 C77 1_555 1_555
H88 C77 1_555 1_555
O9 H89 1_555 1_555
C78 O9 1_555 1_555
H90 C78 1_555 1_555
H91 C78 1_555 1_555
H92 C78 1_555 1_555
O10 H93 1_555 1_555
C79 O10 1_555 1_555
H94 C79 1_555 1_555
H95 C79 1_555 1_555
H96 C79 1_555 1_555
C15 C16 1_555 1_555
C18 C19 1_555 1_555
C21 C22 1_555 1_555
C28 C29 1_555 1_555
C31 C36 1_555 1_555
C35 C36 1_555 1_555
C37 C42 1_555 1_555
C41 C42 1_555 1_555
C43 C48 1_555 1_555
C47 C48 1_555 1_555
C54 C55 1_555 1_555
C57 C62 1_555 1_555
C61 C62 1_555 1_555
C63 C68 1_555 1_555
C67 C68 1_555 1_555
C69 C74 1_555 1_555
C73 C74 1_555 1_555

#END
