
#######################################################################
#
#                 Cambridge Crystallographic Data Centre
#                                CCDC 
#
#######################################################################
#
# If this CIF has been generated from an entry in the Cambridge 
# Structural Database, then it will include bibliographic, chemical, 
# crystal, experimental, refinement or atomic coordinate data resulting 
# from the CCDC's data processing and validation procedures.
#
#######################################################################

data_VIFRUX02
_chemical_formula_moiety         'C4 H7 N3 S1'
_chemical_name_systematic        2-Amino-5-ethyl-1,3,4-thiadiazole
_symmetry_cell_setting           orthorhombic
_symmetry_space_group_name_H-M   'P b c a'
_symmetry_Int_Tables_number      61
_space_group_name_Hall           '-P 2ac 2ab'
loop_
_symmetry_equiv_pos_site_id
_symmetry_equiv_pos_as_xyz
1 x,y,z
2 1/2-x,-y,1/2+z
3 -x,1/2+y,1/2-z
4 1/2+x,1/2-y,-z
5 -x,-y,-z
6 1/2+x,y,1/2-z
7 x,1/2-y,1/2+z
8 1/2-x,1/2+y,z
_cell_length_a                   7.2280(14)
_cell_length_b                   10.811(2)
_cell_length_c                   16.210(3)
_cell_angle_alpha                90
_cell_angle_beta                 90
_cell_angle_gamma                90
_cell_volume                     1266.68
_exptl_crystal_colour            colorless
_exptl_crystal_description       Prismatic
_cell_formula_units_Z            8
_exptl_crystal_recrystallization_method ethanol
loop_
_atom_site_label
_atom_site_type_symbol
_atom_site_fract_x
_atom_site_fract_y
_atom_site_fract_z
S1 S 0.11587(13) 0.34470(6) 0.37367(6)
N1 N 0.1172(4) 0.5723(2) 0.40915(17)
N2 N 0.2790(4) 0.52613(19) 0.44290(16)
N3 N 0.4382(5) 0.3386(3) 0.4546(2)
H1 H 0.518(5) 0.365(2) 0.4835(18)
H2 H 0.428(5) 0.251(3) 0.4455(19)
C1 C -0.2168(7) 0.6398(4) 0.3231(3)
H3 H -0.3318 0.6454 0.2937
H4 H -0.1243 0.6876 0.2951
H5 H -0.2329 0.6712 0.3781
C2 C -0.1598(6) 0.5143(4) 0.3269(3)
H6 H -0.1486 0.4833 0.2710
H7 H -0.2563 0.4670 0.3539
C3 C 0.0192(6) 0.4905(3) 0.3711(2)
C4 C 0.2955(5) 0.4067(2) 0.42937(19)
loop_
_geom_bond_atom_site_label_1
_geom_bond_atom_site_label_2
_geom_bond_site_symmetry_1
_geom_bond_site_symmetry_2
S1 C3 1_555 1_555
N1 N2 1_555 1_555
N2 C4 1_555 1_555
N3 H1 1_555 1_555
H2 N3 1_555 1_555
C1 H3 1_555 1_555
H4 C1 1_555 1_555
H5 C1 1_555 1_555
C2 C1 1_555 1_555
H6 C2 1_555 1_555
H7 C2 1_555 1_555
C3 N1 1_555 1_555
C4 S1 1_555 1_555
N3 C4 1_555 1_555
C2 C3 1_555 1_555

#END
