
#######################################################################
#
#                 Cambridge Crystallographic Data Centre
#                                CCDC 
#
#######################################################################
#
# If this CIF has been generated from an entry in the Cambridge 
# Structural Database, then it will include bibliographic, chemical, 
# crystal, experimental, refinement or atomic coordinate data resulting 
# from the CCDC's data processing and validation procedures.
#
#######################################################################

data_VIFRUY
_chemical_formula_moiety         'C11 H11 N3 O1'
_chemical_name_systematic        2-((pyrazol-1-yl)methyl)benzamide
_symmetry_cell_setting           monoclinic
_symmetry_space_group_name_H-M   'P 21/n'
_symmetry_Int_Tables_number      14
_space_group_name_Hall           '-P 2yn'
loop_
_symmetry_equiv_pos_site_id
_symmetry_equiv_pos_as_xyz
1 x,y,z
2 1/2-x,1/2+y,1/2-z
3 -x,-y,-z
4 1/2+x,1/2-y,1/2+z
_cell_length_a                   12.6279(14)
_cell_length_b                   5.1926(6)
_cell_length_c                   15.3368(15)
_cell_angle_alpha                90
_cell_angle_beta                 90.507(7)
_cell_angle_gamma                90
_cell_volume                     1005.62
_exptl_crystal_colour            colorless
_exptl_crystal_description       plate
_cell_formula_units_Z            4
loop_
_atom_site_label
_atom_site_type_symbol
_atom_site_fract_x
_atom_site_fract_y
_atom_site_fract_z
O1 O 0.47307(11) 0.2093(2) 0.90349(8)
N1 N 0.65869(12) 0.3475(3) 0.67378(10)
C1 C 0.35587(16) -0.1797(4) 0.74217(14)
N2 N 0.45151(13) -0.2182(3) 0.91423(13)
C2 C 0.43548(14) -0.0182(3) 0.77223(11)
C3 C 0.49213(14) 0.1325(3) 0.71386(12)
N3 N 0.72358(14) 0.1583(3) 0.64834(12)
C4 C 0.58386(18) 0.3021(5) 0.74303(14)
C5 C 0.33069(18) -0.1910(5) 0.65440(15)
C6 C 0.77581(17) 0.2630(6) 0.58212(16)
H1 H 0.8278 0.1773 0.5508
C7 C 0.45580(13) -0.0018(3) 0.86832(12)
C8 C 0.38434(18) -0.0387(5) 0.59738(14)
C9 C 0.46455(17) 0.1209(5) 0.62638(13)
C10 C 0.66985(19) 0.5570(5) 0.62527(17)
C11 C 0.7448(2) 0.5089(6) 0.56539(18)
H2 H 0.2782(18) -0.307(4) 0.6358(14)
H3 H 0.4490(14) -0.360(4) 0.8888(12)
H4 H 0.4695(16) -0.210(4) 0.9716(17)
H5 H 0.6239(16) 0.218(4) 0.7904(13)
H6 H 0.3199(16) -0.278(3) 0.7821(14)
H7 H 0.5622(18) 0.473(4) 0.7642(15)
H8 H 0.5052(17) 0.223(4) 0.5889(13)
H9 H 0.3682(17) -0.037(4) 0.5404(15)
H10 H 0.776(2) 0.619(5) 0.5271(18)
H11 H 0.6280(19) 0.700(4) 0.6337(16)
loop_
_geom_bond_atom_site_label_1
_geom_bond_atom_site_label_2
_geom_bond_site_symmetry_1
_geom_bond_site_symmetry_2
O1 C7 1_555 1_555
N1 N3 1_555 1_555
C1 C2 1_555 1_555
N2 C7 1_555 1_555
C2 C3 1_555 1_555
C3 C4 1_555 1_555
N3 C6 1_555 1_555
C4 N1 1_555 1_555
C5 C1 1_555 1_555
C6 H1 1_555 1_555
C7 C2 1_555 1_555
C8 C5 1_555 1_555
C9 C3 1_555 1_555
C10 N1 1_555 1_555
C11 C6 1_555 1_555
H2 C5 1_555 1_555
H3 N2 1_555 1_555
H4 N2 1_555 1_555
H5 C4 1_555 1_555
H6 C1 1_555 1_555
H7 C4 1_555 1_555
H8 C9 1_555 1_555
H9 C8 1_555 1_555
H10 C11 1_555 1_555
H11 C10 1_555 1_555
C8 C9 1_555 1_555
C10 C11 1_555 1_555

#END
