
#######################################################################
#
#                 Cambridge Crystallographic Data Centre
#                                CCDC 
#
#######################################################################
#
# If this CIF has been generated from an entry in the Cambridge 
# Structural Database, then it will include bibliographic, chemical, 
# crystal, experimental, refinement or atomic coordinate data resulting 
# from the CCDC's data processing and validation procedures.
#
#######################################################################

data_VIFYOZ
_chemical_formula_moiety         'C22 H22 N4'
_chemical_name_systematic        
(3,3-bis(4-(Dimethylamino)phenyl)prop-2-en-1-ylidene)propanedinitrile
_symmetry_cell_setting           monoclinic
_symmetry_space_group_name_H-M   'P 21/n'
_symmetry_Int_Tables_number      14
_space_group_name_Hall           '-P 2yn'
loop_
_symmetry_equiv_pos_site_id
_symmetry_equiv_pos_as_xyz
1 x,y,z
2 1/2-x,1/2+y,1/2-z
3 -x,-y,-z
4 1/2+x,1/2-y,1/2+z
_cell_length_a                   7.31860(10)
_cell_length_b                   8.1826(2)
_cell_length_c                   32.2784(7)
_cell_angle_alpha                90
_cell_angle_beta                 93.320(2)
_cell_angle_gamma                90
_cell_volume                     1929.75
_exptl_crystal_colour            brown
_exptl_crystal_description       Cube
_cell_formula_units_Z            4
loop_
_atom_site_label
_atom_site_type_symbol
_atom_site_fract_x
_atom_site_fract_y
_atom_site_fract_z
N1 N -0.8553(3) -0.1121(2) 0.57377(6)
N2 N -0.4825(3) -0.3289(3) 0.67183(7)
N3 N -0.2673(2) 0.61677(18) 0.50065(4)
N4 N 0.4987(2) 0.19578(19) 0.74104(5)
C1 C -0.7199(3) -0.1100(2) 0.59351(6)
C2 C -0.5497(2) -0.10698(19) 0.61697(5)
C3 C -0.4237(2) 0.0132(2) 0.61177(5)
C4 C -0.2524(2) 0.0259(2) 0.63356(5)
C5 C -0.1299(2) 0.15142(18) 0.62999(5)
C6 C -0.5156(3) -0.2319(2) 0.64727(6)
C7 C -0.2902(3) 0.5649(3) 0.45794(6)
C8 C -0.2756(4) 0.7894(2) 0.50913(8)
C9 C 0.6522(3) 0.2953(3) 0.73134(7)
C10 C 0.5018(4) 0.1130(4) 0.78076(8)
C11 C 0.0301(2) 0.16673(18) 0.65867(5)
C12 C 0.1795(2) 0.26519(19) 0.65067(5)
C13 C 0.3329(2) 0.2755(2) 0.67708(5)
C14 C 0.3475(2) 0.18694(19) 0.71422(5)
C15 C 0.1966(3) 0.0895(2) 0.72313(6)
C16 C 0.0459(3) 0.0795(2) 0.69631(6)
C17 C -0.1595(2) 0.27361(18) 0.59626(4)
C18 C -0.1715(2) 0.4402(2) 0.60459(5)
C19 C -0.2063(2) 0.55396(19) 0.57353(5)
C20 C -0.2285(2) 0.50599(18) 0.53181(4)
C21 C -0.2098(2) 0.33848(19) 0.52325(5)
C22 C -0.1780(2) 0.22667(18) 0.55484(5)
H1 H -0.221(2) -0.056(2) 0.6549(5)
H2 H -0.224(3) 0.298(2) 0.4942(6)
H3 H -0.221(3) 0.673(3) 0.5835(6)
H4 H -0.454(3) 0.091(2) 0.5914(5)
H5 H -0.164(2) 0.105(2) 0.5473(5)
H6 H -0.154(3) 0.475(2) 0.6342(5)
H7 H 0.430(3) 0.346(2) 0.6694(5)
H8 H 0.625(4) 0.131(3) 0.7931(7)
H9 H 0.203(3) 0.028(3) 0.7497(6)
H10 H 0.614(4) 0.414(4) 0.7270(7)
H11 H -0.061(3) 0.009(2) 0.7043(6)
H12 H 0.752(4) 0.283(3) 0.7531(7)
H13 H 0.176(3) 0.324(2) 0.6266(6)
H14 H 0.484(4) -0.005(4) 0.7758(9)
H15 H -0.394(6) 0.834(5) 0.5240(12)
H16 H -0.176(4) 0.520(3) 0.4468(8)
H17 H 0.405(4) 0.162(3) 0.7978(8)
H18 H -0.384(4) 0.476(4) 0.4553(8)
H19 H 0.698(4) 0.266(3) 0.7051(8)
H20 H -0.163(5) 0.832(4) 0.5237(9)
H21 H -0.282(4) 0.856(3) 0.4851(8)
H22 H -0.340(4) 0.660(4) 0.4419(8)
loop_
_geom_bond_atom_site_label_1
_geom_bond_atom_site_label_2
_geom_bond_site_symmetry_1
_geom_bond_site_symmetry_2
N1 C1 1_555 1_555
N2 C6 1_555 1_555
N3 C7 1_555 1_555
N4 C9 1_555 1_555
C1 C2 1_555 1_555
C2 C3 1_555 1_555
C3 C4 1_555 1_555
C4 C5 1_555 1_555
C5 C11 1_555 1_555
C6 C2 1_555 1_555
C7 H16 1_555 1_555
C8 N3 1_555 1_555
C9 H10 1_555 1_555
C10 N4 1_555 1_555
C11 C12 1_555 1_555
C12 C13 1_555 1_555
C13 C14 1_555 1_555
C14 N4 1_555 1_555
C15 C14 1_555 1_555
C16 C11 1_555 1_555
C17 C5 1_555 1_555
C18 C17 1_555 1_555
C19 C18 1_555 1_555
C20 N3 1_555 1_555
C21 C20 1_555 1_555
C22 C17 1_555 1_555
H1 C4 1_555 1_555
H2 C21 1_555 1_555
H3 C19 1_555 1_555
H4 C3 1_555 1_555
H5 C22 1_555 1_555
H6 C18 1_555 1_555
H7 C13 1_555 1_555
H8 C10 1_555 1_555
H9 C15 1_555 1_555
H11 C16 1_555 1_555
H12 C9 1_555 1_555
H13 C12 1_555 1_555
H14 C10 1_555 1_555
H15 C8 1_555 1_555
H17 C10 1_555 1_555
H18 C7 1_555 1_555
H19 C9 1_555 1_555
H20 C8 1_555 1_555
H21 C8 1_555 1_555
H22 C7 1_555 1_555
C15 C16 1_555 1_555
C19 C20 1_555 1_555
C21 C22 1_555 1_555

#END
