
#######################################################################
#
#                 Cambridge Crystallographic Data Centre
#                                CCDC 
#
#######################################################################
#
# If this CIF has been generated from an entry in the Cambridge 
# Structural Database, then it will include bibliographic, chemical, 
# crystal, experimental, refinement or atomic coordinate data resulting 
# from the CCDC's data processing and validation procedures.
#
#######################################################################

data_VIFYEP
_chemical_formula_moiety         'C20 H20 N4,C1 H2 Cl2'
_chemical_name_systematic        
'1,1-Dicyano-2,2-bis(4-dimethylaminophenyl)ethylene dichloromethane solvate'
_symmetry_cell_setting           monoclinic
_symmetry_space_group_name_H-M   'P 21/a'
_symmetry_Int_Tables_number      14
_space_group_name_Hall           '-P 2yab'
loop_
_symmetry_equiv_pos_site_id
_symmetry_equiv_pos_as_xyz
1 x,y,z
2 1/2-x,1/2+y,-z
3 -x,-y,-z
4 1/2+x,1/2-y,z
_cell_length_a                   7.56140(10)
_cell_length_b                   22.2803(2)
_cell_length_c                   12.5439(4)
_cell_angle_alpha                90
_cell_angle_beta                 105.2258(6)
_cell_angle_gamma                90
_cell_volume                     2039.09
_exptl_crystal_colour            yellow
_exptl_crystal_description       plate
_cell_formula_units_Z            4
_exptl_crystal_recrystallization_method dichloromethane/hexane
loop_
_atom_site_label
_atom_site_type_symbol
_atom_site_fract_x
_atom_site_fract_y
_atom_site_fract_z
Cl1 Cl 0.73638(14) 0.08772(6) 0.84754(7)
Cl2 Cl 0.7466(2) 0.02205(6) 1.04830(11)
C1 C 0.8016(5) 0.08745(17) 0.9924(3)
H1 H 0.930(6) 0.0921(16) 1.016(3)
H2 H 0.744(7) 0.116(2) 1.022(4)
N1 N 0.1663(3) 0.25521(10) 0.52243(16)
N2 N 0.2564(3) 0.33726(8) 0.23279(16)
N3 N 0.2501(3) -0.02841(8) 0.53817(15)
N4 N 0.1400(3) 0.18202(9) -0.18264(15)
C2 C 0.1915(3) 0.24602(9) 0.43733(18)
C3 C 0.2150(3) 0.23756(9) 0.32879(16)
C4 C 0.2354(3) 0.29265(9) 0.27331(17)
C5 C 0.2129(3) 0.18181(9) 0.27984(17)
C6 C 0.2321(3) 0.12704(9) 0.34466(16)
C7 C 0.3405(3) 0.12441(9) 0.45463(17)
C8 C 0.3505(3) 0.07325(9) 0.51771(18)
C9 C 0.2496(3) 0.02084(9) 0.47427(17)
C10 C 0.1479(3) 0.02294(10) 0.36254(18)
C11 C 0.1397(3) 0.07418(9) 0.29995(18)
C12 C 0.3488(3) -0.02799(11) 0.65446(19)
C13 C 0.1651(4) -0.08397(11) 0.4899(2)
C14 C 0.1893(3) 0.17934(9) 0.15965(17)
C15 C 0.0666(3) 0.21818(9) 0.08841(16)
C16 C 0.0476(3) 0.21843(10) -0.02407(18)
C17 C 0.1537(3) 0.17978(9) -0.07181(17)
C18 C 0.2726(3) 0.13958(10) -0.00070(18)
C19 C 0.2888(3) 0.13923(9) 0.11206(18)
C20 C 0.0002(5) 0.21864(18) -0.2550(2)
C21 C 0.2253(5) 0.13603(15) -0.2341(2)
H3 H 0.089(3) -0.0102(11) 0.3302(19)
H4 H 0.417(3) 0.1580(11) 0.4881(18)
H5 H 0.427(3) 0.0723(11) 0.594(2)
H6 H 0.313(4) 0.0082(13) 0.690(2)
H7 H 0.016(5) 0.2146(16) -0.328(3)
H8 H 0.350(4) 0.1101(12) -0.030(2)
H9 H 0.481(4) -0.0291(12) 0.658(2)
H10 H -0.043(3) 0.2458(10) -0.0691(18)
H11 H 0.016(5) 0.2593(17) -0.234(3)
H12 H 0.217(4) 0.1482(14) -0.315(3)
H13 H -0.120(5) 0.2049(14) -0.254(2)
H14 H 0.218(5) -0.0939(16) 0.426(3)
H15 H 0.372(4) 0.1099(12) 0.159(2)
H16 H 0.311(4) -0.0592(16) 0.682(3)
H17 H -0.013(4) 0.2444(11) 0.121(2)
H18 H 0.043(4) -0.0795(12) 0.458(2)
H19 H 0.361(5) 0.1310(14) -0.193(3)
H20 H 0.066(3) 0.0745(11) 0.224(2)
H21 H 0.175(5) -0.1076(17) 0.542(3)
H22 H 0.167(5) 0.0938(16) -0.234(3)
loop_
_geom_bond_atom_site_label_1
_geom_bond_atom_site_label_2
_geom_bond_site_symmetry_1
_geom_bond_site_symmetry_2
Cl1 C1 1_555 1_555
Cl2 C1 1_555 1_555
C1 H1 1_555 1_555
H2 C1 1_555 1_555
N1 C2 1_555 1_555
N2 C4 1_555 1_555
N3 C9 1_555 1_555
N4 C17 1_555 1_555
C2 C3 1_555 1_555
C3 C4 1_555 1_555
C5 C3 1_555 1_555
C6 C5 1_555 1_555
C7 C6 1_555 1_555
C8 C7 1_555 1_555
C9 C8 1_555 1_555
C10 C9 1_555 1_555
C11 C6 1_555 1_555
C12 N3 1_555 1_555
C13 N3 1_555 1_555
C14 C5 1_555 1_555
C15 C14 1_555 1_555
C16 C15 1_555 1_555
C17 C16 1_555 1_555
C18 C17 1_555 1_555
C19 C14 1_555 1_555
C20 N4 1_555 1_555
C21 N4 1_555 1_555
H3 C10 1_555 1_555
H4 C7 1_555 1_555
H5 C8 1_555 1_555
H6 C12 1_555 1_555
H7 C20 1_555 1_555
H8 C18 1_555 1_555
H9 C12 1_555 1_555
H10 C16 1_555 1_555
H11 C20 1_555 1_555
H12 C21 1_555 1_555
H13 C20 1_555 1_555
H14 C13 1_555 1_555
H15 C19 1_555 1_555
H16 C12 1_555 1_555
H17 C15 1_555 1_555
H18 C13 1_555 1_555
H19 C21 1_555 1_555
H20 C11 1_555 1_555
H21 C13 1_555 1_555
H22 C21 1_555 1_555
C10 C11 1_555 1_555
C18 C19 1_555 1_555

#END
