
#######################################################################
#
#                 Cambridge Crystallographic Data Centre
#                                CCDC 
#
#######################################################################
#
# If this CIF has been generated from an entry in the Cambridge 
# Structural Database, then it will include bibliographic, chemical, 
# crystal, experimental, refinement or atomic coordinate data resulting 
# from the CCDC's data processing and validation procedures.
#
#######################################################################

data_VIFYUF
_chemical_formula_moiety         'C26 H22 N4'
_chemical_name_systematic        
2-(5-(4-(Dimethylamino)phenyl)-3-(4-(dimethylamino)phenylethynyl)pent-2-en-4-ynylidene)malononitrile
_symmetry_cell_setting           triclinic
_symmetry_space_group_name_H-M   'P -1'
_symmetry_Int_Tables_number      2
_space_group_name_Hall           '-P 1'
loop_
_symmetry_equiv_pos_site_id
_symmetry_equiv_pos_as_xyz
1 x,y,z
2 -x,-y,-z
_cell_length_a                   10.1031(5)
_cell_length_b                   10.4905(5)
_cell_length_c                   22.4189(12)
_cell_angle_alpha                99.589(2)
_cell_angle_beta                 93.863(2)
_cell_angle_gamma                114.646(2)
_cell_volume                     2104.5
_exptl_crystal_colour            'dark brown'
_exptl_crystal_description       needle
_chemical_melting_point          245-247deg.C
_cell_formula_units_Z            4
loop_
_atom_site_label
_atom_site_type_symbol
_atom_site_fract_x
_atom_site_fract_y
_atom_site_fract_z
C1 C -0.438(2) 0.4977(18) 0.2456(8)
C2 C -0.3324(14) 0.5787(15) 0.2205(8)
C3 C -0.1866(15) 0.6599(16) 0.2518(7)
C4 C -0.072(2) 0.7556(15) 0.2297(8)
C5 C 0.0770(13) 0.8270(13) 0.2622(7)
C6 C -0.3545(19) 0.6022(18) 0.1616(9)
C7 C 0.1117(17) 0.8156(16) 0.3214(8)
C8 C 0.1526(16) 0.8050(14) 0.3707(7)
C9 C 0.1847(18) 0.9146(17) 0.2358(8)
C10 C 0.2836(17) 0.9882(18) 0.2051(8)
C11 C 0.2013(16) 0.7804(14) 0.4317(8)
C12 C 0.348(3) 0.8224(15) 0.4491(8)
C13 C 0.3955(15) 0.8043(15) 0.5061(8)
C14 C 0.296(2) 0.7453(15) 0.5443(7)
C15 C 0.1464(18) 0.7022(15) 0.5239(8)
C16 C 0.1006(16) 0.7166(14) 0.4688(7)
C17 C 0.5008(16) 0.7833(16) 0.6247(8)
C18 C 0.2398(16) 0.6653(18) 0.6411(7)
C19 C 0.3777(16) 1.0532(14) 0.1671(6)
C20 C 0.3292(19) 1.034(2) 0.1043(8)
C21 C 0.4215(18) 1.102(2) 0.0669(8)
C22 C 0.567(2) 1.1953(17) 0.0868(8)
C23 C 0.615(2) 1.2188(16) 0.1493(9)
C24 C 0.5259(16) 1.1470(15) 0.1891(8)
C25 C 0.8134(18) 1.3797(17) 0.0740(10)
C26 C 0.590(3) 1.256(3) -0.0152(11)
N1 N -0.5426(16) 0.4267(15) 0.2675(7)
N2 N -0.3830(15) 0.6109(14) 0.1109(8)
N3 N 0.3426(14) 0.7192(13) 0.5987(5)
N4 N 0.6600(14) 1.2684(13) 0.0493(7)
H1 H -0.1608 0.6513 0.2925
H2 H -0.0922 0.7745 0.1905
H3 H 0.4167 0.8572 0.4214
H4 H 0.4984 0.8360 0.5200
H5 H 0.0756 0.6587 0.5496
H6 H -0.0029 0.6825 0.4553
H7 H 0.5108 0.7519 0.6619
H8 H 0.5388 0.8860 0.6334
H9 H 0.5550 0.7542 0.5962
H10 H 0.2924 0.6543 0.6756
H11 H 0.1619 0.5737 0.6211
H12 H 0.1988 0.7308 0.6547
H13 H 0.2274 0.9735 0.0879
H14 H 0.3817 1.0789 0.0243
H15 H 0.7129 1.2885 0.1672
H16 H 0.5636 1.1610 0.2314
H17 H 0.8610 1.4186 0.0412
H18 H 0.8693 1.3395 0.0938
H19 H 0.8075 1.4547 0.1031
H20 H 0.6650 1.3109 -0.0368
H21 H 0.5179 1.2930 -0.0122
H22 H 0.5429 1.1572 -0.0370
C27 C 0.0766(18) 0.5013(17) 0.2399(8)
C28 C 0.1888(15) 0.5953(16) 0.2157(7)
C29 C 0.3365(18) 0.6746(16) 0.2488(8)
C30 C 0.4545(17) 0.7729(15) 0.2285(7)
C31 C 0.5873(16) 0.8477(14) 0.2612(7)
C32 C 0.1611(19) 0.6072(17) 0.1560(8)
C33 C 0.6269(16) 0.8335(14) 0.3217(7)
C34 C 0.6625(16) 0.8161(15) 0.3694(8)
C35 C 0.6986(19) 0.9360(14) 0.2331(7)
C36 C 0.7903(16) 1.0000(15) 0.2010(7)
C37 C 0.7076(16) 0.7864(15) 0.4265(7)
C38 C 0.7907(16) 0.8969(15) 0.4759(7)
C39 C 0.8319(18) 0.8735(16) 0.5310(7)
C40 C 0.7926(17) 0.7308(15) 0.5387(7)
C41 C 0.7042(17) 0.6190(16) 0.4906(7)
C42 C 0.6622(16) 0.6464(17) 0.4370(7)
C43 C 0.9299(17) 0.8228(16) 0.6444(7)
C44 C 0.7762(19) 0.5653(16) 0.6052(8)
C45 C 0.8885(18) 1.0615(13) 0.1614(6)
C46 C 0.8258(19) 1.0405(16) 0.0980(7)
C47 C 0.9147(18) 1.0992(19) 0.0582(8)
C48 C 1.0654(16) 1.1966(15) 0.0758(7)
C49 C 1.1246(18) 1.2190(17) 0.1370(7)
C50 C 1.0392(16) 1.1557(17) 0.1799(8)
C51 C 1.083(2) 1.250(2) -0.0263(8)
C52 C 1.3047(18) 1.3760(17) 0.0579(9)
N5 N -0.0203(17) 0.4247(15) 0.2599(6)
N6 N 0.1337(14) 0.6169(16) 0.1059(7)
N7 N 0.8350(15) 0.7075(12) 0.5926(6)
N8 N 1.1541(14) 1.2597(14) 0.0360(6)
H23 H 0.3512 0.6568 0.2888
H24 H 0.4354 0.7870 0.1881
H25 H 0.8227 0.9942 0.4712
H26 H 0.8870 0.9519 0.5651
H27 H 0.6720 0.5212 0.4946
H28 H 0.6009 0.5644 0.4053
H29 H 0.9646 0.9124 0.6313
H30 H 1.0126 0.8077 0.6590
H31 H 0.8726 0.8252 0.6766
H32 H 0.7182 0.4959 0.5688
H33 H 0.7153 0.5617 0.6365
H34 H 0.8553 0.5441 0.6190
H35 H 0.7214 0.9865 0.0856
H36 H 0.8757 1.0723 0.0154
H37 H 1.2286 1.2761 0.1495
H38 H 1.0804 1.1780 0.2223
H39 H 1.1569 1.2984 -0.0498
H40 H 1.0172 1.2953 -0.0224
H41 H 1.0277 1.1514 -0.0467
H42 H 1.3476 1.4043 0.0226
H43 H 1.3632 1.3418 0.0801
H44 H 1.3015 1.4570 0.0838
loop_
_geom_bond_atom_site_label_1
_geom_bond_atom_site_label_2
_geom_bond_site_symmetry_1
_geom_bond_site_symmetry_2
C1 C2 1_555 1_555
C2 C3 1_555 1_555
C3 C4 1_555 1_555
C4 C5 1_555 1_555
C5 C7 1_555 1_555
C6 C2 1_555 1_555
C7 C8 1_555 1_555
C8 C11 1_555 1_555
C9 C5 1_555 1_555
C10 C9 1_555 1_555
C11 C12 1_555 1_555
C12 C13 1_555 1_555
C13 C14 1_555 1_555
C14 C15 1_555 1_555
C15 C16 1_555 1_555
C16 C11 1_555 1_555
C17 N3 1_555 1_555
C18 N3 1_555 1_555
C19 C10 1_555 1_555
C20 C19 1_555 1_555
C21 C20 1_555 1_555
C22 C21 1_555 1_555
C23 C22 1_555 1_555
C24 C19 1_555 1_555
C25 N4 1_555 1_555
C26 N4 1_555 1_555
C27 C28 1_555 1_555
C28 C29 1_555 1_555
C29 C30 1_555 1_555
C30 C31 1_555 1_555
C31 C33 1_555 1_555
C32 C28 1_555 1_555
C33 C34 1_555 1_555
C34 C37 1_555 1_555
C35 C31 1_555 1_555
C36 C35 1_555 1_555
C37 C38 1_555 1_555
C38 C39 1_555 1_555
C39 C40 1_555 1_555
C40 C41 1_555 1_555
C41 C42 1_555 1_555
C42 C37 1_555 1_555
C43 N7 1_555 1_555
C44 N7 1_555 1_555
C45 C36 1_555 1_555
C46 C45 1_555 1_555
C47 C46 1_555 1_555
C48 C47 1_555 1_555
C49 C48 1_555 1_555
C50 C45 1_555 1_555
C51 N8 1_555 1_555
C52 N8 1_555 1_555
N1 C1 1_555 1_555
N2 C6 1_555 1_555
N3 C14 1_555 1_555
N4 C22 1_555 1_555
N5 C27 1_555 1_555
N6 C32 1_555 1_555
N7 C40 1_555 1_555
N8 C48 1_555 1_555
H1 C3 1_555 1_555
H2 C4 1_555 1_555
H3 C12 1_555 1_555
H4 C13 1_555 1_555
H5 C15 1_555 1_555
H6 C16 1_555 1_555
H7 C17 1_555 1_555
H8 C17 1_555 1_555
H9 C17 1_555 1_555
H10 C18 1_555 1_555
H11 C18 1_555 1_555
H12 C18 1_555 1_555
H13 C20 1_555 1_555
H14 C21 1_555 1_555
H15 C23 1_555 1_555
H16 C24 1_555 1_555
H17 C25 1_555 1_555
H18 C25 1_555 1_555
H19 C25 1_555 1_555
H20 C26 1_555 1_555
H21 C26 1_555 1_555
H22 C26 1_555 1_555
H23 C29 1_555 1_555
H24 C30 1_555 1_555
H25 C38 1_555 1_555
H26 C39 1_555 1_555
H27 C41 1_555 1_555
H28 C42 1_555 1_555
H29 C43 1_555 1_555
H30 C43 1_555 1_555
H31 C43 1_555 1_555
H32 C44 1_555 1_555
H33 C44 1_555 1_555
H34 C44 1_555 1_555
H35 C46 1_555 1_555
H36 C47 1_555 1_555
H37 C49 1_555 1_555
H38 C50 1_555 1_555
H39 C51 1_555 1_555
H40 C51 1_555 1_555
H41 C51 1_555 1_555
H42 C52 1_555 1_555
H43 C52 1_555 1_555
H44 C52 1_555 1_555
C23 C24 1_555 1_555
C49 C50 1_555 1_555

#END
