
#######################################################################
#
#                 Cambridge Crystallographic Data Centre
#                                CCDC 
#
#######################################################################
#
# If this CIF has been generated from an entry in the Cambridge 
# Structural Database, then it will include bibliographic, chemical, 
# crystal, experimental, refinement or atomic coordinate data resulting 
# from the CCDC's data processing and validation procedures.
#
#######################################################################

data_VIFZAO
_chemical_formula_moiety         'C20 H15 N1 O2'
_chemical_name_systematic        'methyl 4-(9H-carbazol-9-yl)benzoate'
_symmetry_cell_setting           monoclinic
_symmetry_space_group_name_H-M   'P 21/c'
_symmetry_Int_Tables_number      14
_space_group_name_Hall           '-P 2ybc'
loop_
_symmetry_equiv_pos_site_id
_symmetry_equiv_pos_as_xyz
1 x,y,z
2 -x,1/2+y,1/2-z
3 -x,-y,-z
4 x,1/2-y,1/2+z
_cell_length_a                   8.1731(8)
_cell_length_b                   25.846(2)
_cell_length_c                   7.5022(8)
_cell_angle_alpha                90
_cell_angle_beta                 103.436(10)
_cell_angle_gamma                90
_cell_volume                     1541.4
_exptl_crystal_colour            colorless
_exptl_crystal_description       block
_cell_formula_units_Z            4
_exptl_crystal_preparation       Luminescent
loop_
_atom_site_label
_atom_site_type_symbol
_atom_site_fract_x
_atom_site_fract_y
_atom_site_fract_z
O1 O 0.7363(2) 0.01438(6) 0.0004(2)
O2 O 0.8364(2) -0.03314(6) 0.2525(2)
N1 N 0.4236(2) 0.13058(6) 0.5987(3)
C1 C 0.5040(3) 0.09909(8) 0.4910(3)
C2 C 0.6147(3) 0.06013(8) 0.5738(3)
H1 H 0.6351 0.0545 0.7023
C3 C 0.6936(3) 0.03006(8) 0.4677(3)
H2 H 0.7692 0.0037 0.5240
C4 C 0.6645(3) 0.03756(8) 0.2794(3)
C5 C 0.5528(3) 0.07655(8) 0.1978(3)
H3 H 0.5305 0.0817 0.0690
C6 C 0.4757(3) 0.10725(8) 0.3028(3)
H4 H 0.4026 0.1342 0.2470
C7 C 0.7461(3) 0.00607(8) 0.1609(3)
C8 C 0.9227(3) -0.06540(9) 0.1467(4)
H5 H 0.8408 -0.0801 0.0423
H6 H 0.9808 -0.0935 0.2240
H7 H 1.0049 -0.0446 0.1017
C9 C 0.5010(3) 0.15783(8) 0.7561(3)
C10 C 0.6702(3) 0.15937(8) 0.8450(3)
H8 H 0.7513 0.1391 0.8042
C11 C 0.7154(3) 0.19162(8) 0.9952(3)
H9 H 0.8305 0.1938 1.0577
C12 C 0.5975(4) 0.22092(8) 1.0573(4)
H10 H 0.6327 0.2420 1.1629
C13 C 0.4297(3) 0.21973(8) 0.9675(4)
H11 H 0.3492 0.2399 1.0098
C14 C 0.3811(3) 0.18816(8) 0.8127(3)
C15 C 0.2218(3) 0.17972(8) 0.6840(4)
C16 C 0.0585(3) 0.19883(9) 0.6681(4)
H12 H 0.0356 0.2236 0.7527
C17 C -0.0689(3) 0.18071(9) 0.5258(4)
H13 H -0.1797 0.1939 0.5111
C18 C -0.0369(3) 0.14383(9) 0.4055(4)
H14 H -0.1274 0.1312 0.3122
C19 C 0.1228(3) 0.12468(8) 0.4164(4)
H15 H 0.1435 0.0995 0.3322
C20 C 0.2522(3) 0.14371(8) 0.5556(3)
loop_
_geom_bond_atom_site_label_1
_geom_bond_atom_site_label_2
_geom_bond_site_symmetry_1
_geom_bond_site_symmetry_2
O1 C7 1_555 1_555
O2 C7 1_555 1_555
N1 C1 1_555 1_555
C1 C2 1_555 1_555
C2 H1 1_555 1_555
C3 C2 1_555 1_555
H2 C3 1_555 1_555
C4 C3 1_555 1_555
C5 C4 1_555 1_555
H3 C5 1_555 1_555
C6 C1 1_555 1_555
H4 C6 1_555 1_555
C7 C4 1_555 1_555
C8 O2 1_555 1_555
H5 C8 1_555 1_555
H6 C8 1_555 1_555
H7 C8 1_555 1_555
C9 N1 1_555 1_555
C10 C9 1_555 1_555
H8 C10 1_555 1_555
C11 C10 1_555 1_555
H9 C11 1_555 1_555
C12 C11 1_555 1_555
H10 C12 1_555 1_555
C13 C12 1_555 1_555
H11 C13 1_555 1_555
C14 C9 1_555 1_555
C15 C14 1_555 1_555
C16 C15 1_555 1_555
H12 C16 1_555 1_555
C17 C16 1_555 1_555
H13 C17 1_555 1_555
C18 C17 1_555 1_555
H14 C18 1_555 1_555
C19 C18 1_555 1_555
H15 C19 1_555 1_555
C20 N1 1_555 1_555
C5 C6 1_555 1_555
C13 C14 1_555 1_555
C15 C20 1_555 1_555
C19 C20 1_555 1_555

#END
