
#######################################################################
#
#                 Cambridge Crystallographic Data Centre
#                                CCDC 
#
#######################################################################
#
# If this CIF has been generated from an entry in the Cambridge 
# Structural Database, then it will include bibliographic, chemical, 
# crystal, experimental, refinement or atomic coordinate data resulting 
# from the CCDC's data processing and validation procedures.
#
#######################################################################

data_VIFZEQ
_chemical_formula_moiety         'C30 H22 N4'
_chemical_name_systematic        
2-(9-(4-(Dimethylamino)phenyl)-7-(4-(dimethylamino)phenylethynyl)nona-6-en-2,4,8-triynylidene)malononitrile
_symmetry_cell_setting           triclinic
_symmetry_space_group_name_H-M   'P -1'
_symmetry_Int_Tables_number      2
_space_group_name_Hall           '-P 1'
loop_
_symmetry_equiv_pos_site_id
_symmetry_equiv_pos_as_xyz
1 x,y,z
2 -x,-y,-z
_cell_length_a                   7.5688(2)
_cell_length_b                   12.6740(3)
_cell_length_c                   12.9566(4)
_cell_angle_alpha                86.4598(11)
_cell_angle_beta                 89.9706(12)
_cell_angle_gamma                81.2224(12)
_cell_volume                     1225.94
_exptl_crystal_colour            black
_exptl_crystal_description       plate
_chemical_melting_point          'above 184 deg.C. (dec.)'
_cell_formula_units_Z            2
loop_
_atom_site_label
_atom_site_type_symbol
_atom_site_fract_x
_atom_site_fract_y
_atom_site_fract_z
N1 N -0.3271(5) -0.2454(2) -0.3010(2)
N2 N -0.1445(3) -0.54764(17) -0.11788(19)
N3 N 0.2646(3) -0.31379(14) 0.43786(14)
N4 N -0.3881(2) 0.85794(13) 0.32519(13)
C1 C -0.2750(4) -0.2881(2) -0.2244(2)
C2 C -0.2084(3) -0.34112(17) -0.12849(17)
C3 C -0.1790(3) -0.28674(17) -0.04489(17)
C4 C -0.2127(3) -0.17553(17) -0.04135(16)
C5 C -0.2367(3) -0.08037(16) -0.03090(15)
C6 C -0.2598(3) 0.02580(16) -0.01486(15)
C7 C -0.2756(3) 0.11869(17) 0.00631(16)
C8 C -0.2905(3) 0.22286(17) 0.03870(17)
C9 C -0.2296(3) 0.24198(15) 0.13485(15)
C10 C -0.1417(3) 0.15557(15) 0.19978(14)
C11 C -0.0614(3) 0.07584(15) 0.24273(14)
C12 C 0.0291(2) -0.02149(15) 0.29015(14)
C13 C 0.0350(3) -0.11813(16) 0.24197(15)
C14 C 0.1154(3) -0.21345(16) 0.28825(15)
C15 C 0.1928(2) -0.21840(15) 0.38836(15)
C16 C 0.1910(3) -0.12084(16) 0.43517(15)
C17 C 0.1121(3) -0.02551(16) 0.38730(15)
C18 C 0.3404(4) -0.3168(2) 0.5402(2)
C19 C 0.2730(3) -0.41318(18) 0.3881(2)
C20 C -0.1723(3) -0.45562(19) -0.12313(18)
C21 C -0.2500(3) 0.34717(16) 0.16954(15)
C22 C -0.2685(3) 0.43624(16) 0.19968(15)
C23 C -0.2962(3) 0.54262(15) 0.23227(15)
C24 C -0.3928(3) 0.62579(16) 0.17006(16)
C25 C -0.4226(3) 0.72928(16) 0.19970(15)
C26 C -0.3578(2) 0.75559(15) 0.29595(15)
C27 C -0.2605(3) 0.67171(16) 0.35821(16)
C28 C -0.2303(3) 0.56859(16) 0.32721(16)
C29 C -0.4722(3) 0.94457(18) 0.25504(19)
C30 C -0.3241(3) 0.8844(2) 0.42430(17)
H1 H -0.158(3) 0.5096(17) 0.3713(17)
H2 H 0.110(3) 0.0415(16) 0.4210(16)
H3 H 0.384(4) -0.392(2) 0.569(2)
H4 H -0.436(3) 0.6070(16) 0.1013(17)
H5 H -0.594(3) 0.9327(17) 0.2360(18)
H6 H 0.246(3) -0.1215(17) 0.5055(18)
H7 H 0.151(4) -0.422(2) 0.361(2)
H8 H 0.124(3) -0.2805(18) 0.2537(18)
H9 H -0.212(3) 0.6842(17) 0.4290(18)
H10 H -0.494(3) 0.7851(18) 0.1539(18)
H11 H -0.345(3) 0.283(2) -0.004(2)
H12 H -0.199(4) 0.8667(19) 0.4355(19)
H13 H -0.357(3) 0.960(2) 0.433(2)
H14 H -0.022(3) -0.1157(17) 0.1784(18)
H15 H -0.477(4) 1.013(2) 0.287(2)
H16 H 0.441(5) -0.278(3) 0.542(3)
H17 H 0.248(4) -0.284(2) 0.589(3)
H18 H -0.359(4) 0.838(2) 0.483(2)
H19 H -0.123(3) -0.331(2) 0.020(2)
H20 H 0.359(4) -0.419(2) 0.329(2)
H21 H -0.398(4) 0.951(2) 0.192(2)
H22 H 0.320(4) -0.477(3) 0.440(3)
loop_
_geom_bond_atom_site_label_1
_geom_bond_atom_site_label_2
_geom_bond_site_symmetry_1
_geom_bond_site_symmetry_2
N1 C1 1_555 1_555
N2 C20 1_555 1_555
N3 C15 1_555 1_555
N4 C26 1_555 1_555
C1 C2 1_555 1_555
C2 C3 1_555 1_555
C3 C4 1_555 1_555
C4 C5 1_555 1_555
C5 C6 1_555 1_555
C6 C7 1_555 1_555
C7 C8 1_555 1_555
C8 C9 1_555 1_555
C9 C10 1_555 1_555
C10 C11 1_555 1_555
C11 C12 1_555 1_555
C12 C13 1_555 1_555
C13 C14 1_555 1_555
C14 C15 1_555 1_555
C15 C16 1_555 1_555
C16 C17 1_555 1_555
C17 C12 1_555 1_555
C18 N3 1_555 1_555
C19 N3 1_555 1_555
C20 C2 1_555 1_555
C21 C9 1_555 1_555
C22 C21 1_555 1_555
C23 C22 1_555 1_555
C24 C23 1_555 1_555
C25 C24 1_555 1_555
C26 C25 1_555 1_555
C27 C26 1_555 1_555
C28 C23 1_555 1_555
C29 N4 1_555 1_555
C30 N4 1_555 1_555
H1 C28 1_555 1_555
H2 C17 1_555 1_555
H3 C18 1_555 1_555
H4 C24 1_555 1_555
H5 C29 1_555 1_555
H6 C16 1_555 1_555
H7 C19 1_555 1_555
H8 C14 1_555 1_555
H9 C27 1_555 1_555
H10 C25 1_555 1_555
H11 C8 1_555 1_555
H12 C30 1_555 1_555
H13 C30 1_555 1_555
H14 C13 1_555 1_555
H15 C29 1_555 1_555
H16 C18 1_555 1_555
H17 C18 1_555 1_555
H18 C30 1_555 1_555
H19 C3 1_555 1_555
H20 C19 1_555 1_555
H21 C29 1_555 1_555
H22 C19 1_555 1_555
C27 C28 1_555 1_555

#END
