
#######################################################################
#
#                 Cambridge Crystallographic Data Centre
#                                CCDC 
#
#######################################################################
#
# If this CIF has been generated from an entry in the Cambridge 
# Structural Database, then it will include bibliographic, chemical, 
# crystal, experimental, refinement or atomic coordinate data resulting 
# from the CCDC's data processing and validation procedures.
#
#######################################################################

data_VIFZAM
_chemical_formula_moiety         'C31 H30 N4 Si1,C1 H2 Cl2'
_chemical_name_systematic        
'2-(5-(4-(Dimethylamino)phenyl)-3-(4-(dimethylamino)phenylethynyl)-2-((trimethylsilyl)ethynyl)pent-2-en-4-ynylidene)malononitrile dichloromethane solvate'
_symmetry_cell_setting           triclinic
_symmetry_space_group_name_H-M   'P -1'
_symmetry_Int_Tables_number      2
_space_group_name_Hall           '-P 1'
loop_
_symmetry_equiv_pos_site_id
_symmetry_equiv_pos_as_xyz
1 x,y,z
2 -x,-y,-z
_cell_length_a                   10.7790(2)
_cell_length_b                   12.9601(2)
_cell_length_c                   13.3166(2)
_cell_angle_alpha                111.9320(9)
_cell_angle_beta                 97.9007(8)
_cell_angle_gamma                108.4793(7)
_cell_volume                     1565.95
_exptl_crystal_colour            'deep purple'
_exptl_crystal_description       Cube
_chemical_melting_point          '219-220 deg.C'
_cell_formula_units_Z            2
loop_
_atom_site_label
_atom_site_type_symbol
_atom_site_fract_x
_atom_site_fract_y
_atom_site_fract_z
Si1 Si 0.58617(5) 0.44326(5) 0.16507(4)
N1 N 0.3735(3) 0.1081(2) 0.04644(17)
N2 N 0.2339(2) -0.1754(2) 0.1490(2)
N3 N 0.18654(18) -0.20964(16) 0.69932(15)
N4 N 1.0043(2) 1.04148(17) 0.75315(18)
C1 C 0.2973(2) -0.0746(2) 0.17708(18)
C2 C 0.37501(19) 0.05208(17) 0.21294(15)
C3 C 0.43208(17) 0.12684(17) 0.32561(15)
C4 C 0.51199(17) 0.25395(16) 0.38381(14)
C5 C 0.55183(18) 0.31081(16) 0.50186(15)
C6 C 0.63134(19) 0.43677(18) 0.56236(15)
C7 C 0.3786(2) 0.0875(2) 0.12369(18)
C8 C 0.54868(18) 0.32326(17) 0.32238(14)
C9 C 0.57504(19) 0.37699(18) 0.26597(16)
C10 C 0.6614(3) 0.3690(2) 0.05858(19)
C11 C 0.6917(3) 0.6083(2) 0.2423(2)
C12 C 0.4091(2) 0.4159(3) 0.0978(3)
C13 C 0.50931(18) 0.24160(17) 0.56192(14)
C14 C 0.46001(19) 0.17112(17) 0.59865(14)
C15 C 0.39111(18) 0.07699(17) 0.62711(14)
C16 C 0.39641(19) 0.09690(17) 0.73945(15)
C17 C 0.32887(19) 0.00295(18) 0.76311(15)
C18 C 0.25170(18) -0.11566(18) 0.67626(16)
C19 C 0.24517(19) -0.13468(18) 0.56323(16)
C20 C 0.31451(19) -0.04059(18) 0.54118(15)
C21 C 0.2054(2) -0.1920(2) 0.8152(2)
C22 C 0.1106(2) -0.3311(2) 0.6096(2)
C23 C 0.69809(19) 0.54479(18) 0.60688(15)
C24 C 0.77557(18) 0.67088(17) 0.64713(15)
C25 C 0.8342(2) 0.75184(19) 0.76270(16)
C26 C 0.9095(2) 0.87281(19) 0.79752(16)
C27 C 0.93011(19) 0.92058(18) 0.71886(17)
C28 C 0.8705(2) 0.83921(19) 0.60318(17)
C29 C 0.79546(19) 0.71794(18) 0.56919(16)
C30 C 1.0708(3) 1.1242(2) 0.8721(2)
C31 C 1.0288(3) 1.0875(3) 0.6712(3)
H1 H 0.4199 0.0943 0.3793
H2 H 0.6674 0.4035 0.0061
H3 H 0.6049 0.2837 0.0187
H4 H 0.7513 0.3809 0.0956
H5 H 0.6979 0.6434 0.1903
H6 H 0.7816 0.6217 0.2807
H7 H 0.6502 0.6454 0.2968
H8 H 0.4098 0.4491 0.0443
H9 H 0.3704 0.4536 0.1544
H10 H 0.3551 0.3300 0.0593
H11 H 0.4478 0.1768 0.8002
H12 H 0.3331 0.0173 0.8399
H13 H 0.1926 -0.2143 0.5023
H14 H 0.3079 -0.0569 0.4637
H15 H 0.1531 -0.2666 0.8165
H16 H 0.1753 -0.1304 0.8553
H17 H 0.3004 -0.1671 0.8508
H18 H 0.0723 -0.3846 0.6416
H19 H 0.1712 -0.3575 0.5701
H20 H 0.0385 -0.3320 0.5578
H21 H 0.8211 0.7219 0.8180
H22 H 0.9489 0.9267 0.8768
H23 H 0.8812 0.8687 0.5473
H24 H 0.7565 0.6650 0.4896
H25 H 1.1170 1.2045 0.8797
H26 H 1.1360 1.0993 0.9021
H27 H 1.0041 1.1241 0.9131
H28 H 1.0817 1.1736 0.7088
H29 H 0.9429 1.0703 0.6227
H30 H 1.0778 1.0482 0.6267
Cl1 Cl 1.05524(6) 0.41594(5) 0.07090(5)
Cl2 Cl 1.05139(9) 0.60151(10) 0.27320(7)
C32 C 1.1443(2) 0.5644(2) 0.1786(2)
H31 H 1.2314 0.5721 0.2189
H32 H 1.1626 0.6208 0.1455
loop_
_geom_bond_atom_site_label_1
_geom_bond_atom_site_label_2
_geom_bond_site_symmetry_1
_geom_bond_site_symmetry_2
Si1 C9 1_555 1_555
N1 C7 1_555 1_555
N2 C1 1_555 1_555
N3 C18 1_555 1_555
N4 C27 1_555 1_555
C1 C2 1_555 1_555
C2 C3 1_555 1_555
C3 C4 1_555 1_555
C4 C5 1_555 1_555
C5 C6 1_555 1_555
C6 C23 1_555 1_555
C7 C2 1_555 1_555
C8 C4 1_555 1_555
C9 C8 1_555 1_555
C10 Si1 1_555 1_555
C11 Si1 1_555 1_555
C12 Si1 1_555 1_555
C13 C5 1_555 1_555
C14 C13 1_555 1_555
C15 C14 1_555 1_555
C16 C15 1_555 1_555
C17 C16 1_555 1_555
C18 C17 1_555 1_555
C19 C18 1_555 1_555
C20 C15 1_555 1_555
C21 N3 1_555 1_555
C22 N3 1_555 1_555
C23 C24 1_555 1_555
C24 C25 1_555 1_555
C25 C26 1_555 1_555
C26 C27 1_555 1_555
C27 C28 1_555 1_555
C28 C29 1_555 1_555
C29 C24 1_555 1_555
C30 N4 1_555 1_555
C31 N4 1_555 1_555
Cl1 C32 1_555 1_555
Cl2 C32 1_555 1_555
C32 H31 1_555 1_555
H1 C3 1_555 1_555
H2 C10 1_555 1_555
H3 C10 1_555 1_555
H4 C10 1_555 1_555
H5 C11 1_555 1_555
H6 C11 1_555 1_555
H7 C11 1_555 1_555
H8 C12 1_555 1_555
H9 C12 1_555 1_555
H10 C12 1_555 1_555
H11 C16 1_555 1_555
H12 C17 1_555 1_555
H13 C19 1_555 1_555
H14 C20 1_555 1_555
H15 C21 1_555 1_555
H16 C21 1_555 1_555
H17 C21 1_555 1_555
H18 C22 1_555 1_555
H19 C22 1_555 1_555
H20 C22 1_555 1_555
H21 C25 1_555 1_555
H22 C26 1_555 1_555
H23 C28 1_555 1_555
H24 C29 1_555 1_555
H25 C30 1_555 1_555
H26 C30 1_555 1_555
H27 C30 1_555 1_555
H28 C31 1_555 1_555
H29 C31 1_555 1_555
H30 C31 1_555 1_555
H32 C32 1_555 1_555
C19 C20 1_555 1_555

#END
