
#######################################################################
#
#                 Cambridge Crystallographic Data Centre
#                                CCDC 
#
#######################################################################
#
# If this CIF has been generated from an entry in the Cambridge 
# Structural Database, then it will include bibliographic, chemical, 
# crystal, experimental, refinement or atomic coordinate data resulting 
# from the CCDC's data processing and validation procedures.
#
#######################################################################

data_VIGBAP
_chemical_formula_moiety         'C28 H30 N2 O1 Si1'
_chemical_name_systematic        
5-(4-(Dimethylamino)phenyl)-3-((4-(dimethylamino)phenyl)ethynyl)-2-((trimethylsilyl)ethynyl)pent-2-en-4-ynal
_symmetry_cell_setting           orthorhombic
_symmetry_space_group_name_H-M   'P n a 21'
_symmetry_Int_Tables_number      33
_space_group_name_Hall           'P 2c -2n'
loop_
_symmetry_equiv_pos_site_id
_symmetry_equiv_pos_as_xyz
1 x,y,z
2 -x,-y,1/2+z
3 1/2-x,1/2+y,1/2+z
4 1/2+x,1/2-y,z
_cell_length_a                   19.6024(5)
_cell_length_b                   18.4942(4)
_cell_length_c                   7.02380(10)
_cell_angle_alpha                90
_cell_angle_beta                 90
_cell_angle_gamma                90
_cell_volume                     2546.34
_exptl_crystal_colour            brown
_exptl_crystal_description       needle
_chemical_melting_point          'above 197 deg.C.(dec.)'
_cell_formula_units_Z            4
loop_
_atom_site_label
_atom_site_type_symbol
_atom_site_fract_x
_atom_site_fract_y
_atom_site_fract_z
Si1 Si 0.30841(2) 0.34209(3) 0.7927(2)
O1 O 0.06039(8) 0.26202(8) 0.7974(11)
N1 N -0.15675(8) -0.19501(8) 0.7856(7)
N2 N 0.56535(10) -0.01918(17) 0.7914(10)
C1 C 0.07637(10) 0.19885(10) 0.7902(11)
C2 C 0.14635(8) 0.17233(9) 0.7925(7)
C3 C 0.15978(8) 0.09888(9) 0.7926(6)
C4 C 0.22827(9) 0.07402(9) 0.7942(7)
C5 C 0.06289(8) 0.00130(9) 0.7943(7)
C6 C 0.00797(9) -0.04957(8) 0.7988(7)
C7 C -0.05976(9) -0.02545(9) 0.7960(8)
C8 C -0.11388(9) -0.07251(9) 0.7981(7)
C9 C -0.10345(9) -0.14786(9) 0.7941(8)
C10 C -0.03515(10) -0.17206(9) 0.7982(9)
C11 C 0.01861(9) -0.12374(10) 0.7990(8)
C12 C -0.14541(11) -0.27241(10) 0.7958(9)
C13 C -0.22691(10) -0.16891(11) 0.7890(9)
C14 C 0.10650(9) 0.04640(9) 0.8015(6)
C15 C 0.28714(10) 0.05520(9) 0.7996(7)
C16 C 0.35744(9) 0.03571(10) 0.7983(7)
C17 C 0.40834(11) 0.08922(11) 0.7950(8)
C18 C 0.47671(11) 0.07134(14) 0.7924(9)
C19 C 0.49755(10) -0.00071(16) 0.7953(9)
C20 C 0.44696(11) -0.05377(13) 0.7934(9)
C21 C 0.37876(10) -0.03577(11) 0.7933(9)
C22 C 0.58613(16) -0.0950(3) 0.7800(11)
C23 C 0.61729(13) 0.0365(3) 0.7875(11)
C24 C 0.2952(2) 0.3997(2) 0.5761(5)
C25 C 0.39412(13) 0.30053(15) 0.8032(17)
C26 C 0.2973(3) 0.3941(3) 1.0103(6)
C27 C 0.24376(9) 0.27044(9) 0.7940(8)
C28 C 0.19979(8) 0.22471(9) 0.7944(8)
H1 H 0.0391 0.1653 0.7826
H2 H -0.0694 0.0254 0.7925
H3 H -0.1598 -0.0545 0.7964
H4 H -0.0257 -0.2228 0.8101
H5 H 0.0641 -0.1423 0.7868
H6 H -0.1883 -0.2973 0.7905
H7 H -0.1225 -0.2843 0.9125
H8 H -0.1177 -0.2868 0.6898
H9 H -0.2578 -0.2092 0.7860
H10 H -0.2329 -0.1402 0.6764
H11 H -0.2361 -0.1399 0.8994
H12 H 0.3955 0.1393 0.7897
H13 H 0.5107 0.1087 0.7943
H14 H 0.4598 -0.1039 0.7923
H15 H 0.3454 -0.0738 0.7882
H16 H 0.6350 -0.0982 0.7851
H17 H 0.5702 -0.1149 0.6619
H18 H 0.5668 -0.1217 0.8842
H19 H 0.6623 0.0163 0.7923
H20 H 0.6119 0.0709 0.8890
H21 H 0.6108 0.0604 0.6675
H22 H 0.2496 0.4187 0.5774
H23 H 0.3016 0.3708 0.4638
H24 H 0.3273 0.4388 0.5762
H25 H 0.3954 0.2726 0.9183
H26 H 0.4284 0.3375 0.8085
H27 H 0.4027 0.2696 0.6962
H28 H 0.3046 0.3633 1.1184
H29 H 0.2518 0.4132 1.0143
H30 H 0.3295 0.4332 1.0129
loop_
_geom_bond_atom_site_label_1
_geom_bond_atom_site_label_2
_geom_bond_site_symmetry_1
_geom_bond_site_symmetry_2
Si1 C24 1_555 1_555
O1 C1 1_555 1_555
N1 C9 1_555 1_555
N2 C19 1_555 1_555
C1 C2 1_555 1_555
C2 C3 1_555 1_555
C3 C4 1_555 1_555
C4 C15 1_555 1_555
C5 C6 1_555 1_555
C6 C7 1_555 1_555
C7 C8 1_555 1_555
C8 C9 1_555 1_555
C9 C10 1_555 1_555
C10 C11 1_555 1_555
C11 C6 1_555 1_555
C12 N1 1_555 1_555
C13 N1 1_555 1_555
C14 C3 1_555 1_555
C15 C16 1_555 1_555
C16 C17 1_555 1_555
C17 C18 1_555 1_555
C18 C19 1_555 1_555
C19 C20 1_555 1_555
C20 C21 1_555 1_555
C21 C16 1_555 1_555
C22 N2 1_555 1_555
C23 N2 1_555 1_555
C24 H22 1_555 1_555
C25 Si1 1_555 1_555
C26 Si1 1_555 1_555
C27 Si1 1_555 1_555
C28 C2 1_555 1_555
H1 C1 1_555 1_555
H2 C7 1_555 1_555
H3 C8 1_555 1_555
H4 C10 1_555 1_555
H5 C11 1_555 1_555
H6 C12 1_555 1_555
H7 C12 1_555 1_555
H8 C12 1_555 1_555
H9 C13 1_555 1_555
H10 C13 1_555 1_555
H11 C13 1_555 1_555
H12 C17 1_555 1_555
H13 C18 1_555 1_555
H14 C20 1_555 1_555
H15 C21 1_555 1_555
H16 C22 1_555 1_555
H17 C22 1_555 1_555
H18 C22 1_555 1_555
H19 C23 1_555 1_555
H20 C23 1_555 1_555
H21 C23 1_555 1_555
H23 C24 1_555 1_555
H24 C24 1_555 1_555
H25 C25 1_555 1_555
H26 C25 1_555 1_555
H27 C25 1_555 1_555
H28 C26 1_555 1_555
H29 C26 1_555 1_555
H30 C26 1_555 1_555
C5 C14 1_555 1_555
C27 C28 1_555 1_555

#END
