
#######################################################################
#
#                 Cambridge Crystallographic Data Centre
#                                CCDC 
#
#######################################################################
#
# If this CIF has been generated from an entry in the Cambridge 
# Structural Database, then it will include bibliographic, chemical, 
# crystal, experimental, refinement or atomic coordinate data resulting 
# from the CCDC's data processing and validation procedures.
#
#######################################################################

data_VIGDUN
_chemical_formula_moiety         'C25 H26 O6'
_chemical_name_systematic        
7a-(3-methoxyphenyl)-4,4-dimethyl-7-(1-phenylethoxy)tetrahydro-2-benzofuran-1,3,5(4H)-trione
_symmetry_cell_setting           orthorhombic
_symmetry_space_group_name_H-M   'P 21 21 21'
_symmetry_Int_Tables_number      19
_space_group_name_Hall           'P 2ac 2ab'
loop_
_symmetry_equiv_pos_site_id
_symmetry_equiv_pos_as_xyz
1 x,y,z
2 1/2-x,-y,1/2+z
3 -x,1/2+y,1/2-z
4 1/2+x,1/2-y,-z
_cell_length_a                   7.0943(6)
_cell_length_b                   16.2423(16)
_cell_length_c                   19.0121(18)
_cell_angle_alpha                90
_cell_angle_beta                 90
_cell_angle_gamma                90
_cell_volume                     2190.72
_exptl_crystal_colour            colorless
_exptl_crystal_description       prism
_cell_formula_units_Z            4
_exptl_crystal_recrystallization_method 'solvent evaporation'
loop_
_atom_site_label
_atom_site_type_symbol
_atom_site_fract_x
_atom_site_fract_y
_atom_site_fract_z
O1 O 0.8097(2) 0.52458(9) 0.34942(7)
O2 O 0.4423(2) 0.47642(9) 0.35748(8)
O3 O 0.3866(2) 0.61169(10) 0.36446(8)
O4 O 0.1462(2) 0.59704(10) 0.62392(8)
O5 O 1.1221(2) 0.42483(10) 0.46125(8)
O6 O 0.5751(2) 0.35195(10) 0.36729(9)
C1 C 0.9770(3) 0.46300(14) 0.47006(10)
C2 C 0.9197(3) 0.62076(13) 0.25935(11)
C3 C 0.5475(3) 0.60313(13) 0.50662(11)
C4 C 0.3839(3) 0.57989(13) 0.54157(11)
H1 H 0.319783 0.531288 0.527372
C5 C 0.6114(3) 0.54900(13) 0.44566(10)
C6 C 0.3122(3) 0.62615(13) 0.59673(11)
C7 C 0.4682(3) 0.55265(14) 0.38656(11)
C8 C 0.6190(3) 0.45553(13) 0.46135(11)
H2 H 0.513587 0.444911 0.495071
C9 C 0.7382(3) 0.64378(13) 0.24097(11)
H3 H 0.633920 0.612623 0.257562
C10 C 0.6390(3) 0.67493(13) 0.52808(11)
H4 H 0.747777 0.693609 0.503721
C11 C 0.5704(3) 0.71881(14) 0.58502(11)
H5 H 0.636648 0.766272 0.600567
C12 C 0.4076(3) 0.69529(13) 0.61992(11)
H6 H 0.362531 0.725996 0.658969
C13 C 0.9580(3) 0.54291(13) 0.29994(11)
H7 H 1.080161 0.548521 0.325735
C14 C 0.9669(3) 0.55472(13) 0.45857(11)
H8 H 1.085063 0.574271 0.436443
H9 H 0.952250 0.583127 0.504312
C15 C 0.8010(3) 0.57464(13) 0.41145(11)
H10 H 0.799941 0.634426 0.398889
C16 C 0.5557(3) 0.41843(15) 0.39213(12)
C17 C 0.7988(3) 0.42229(13) 0.49805(11)
C18 C 1.0702(3) 0.66755(14) 0.23511(11)
H11 H 1.195260 0.652938 0.247928
C19 C 0.7880(3) 0.44796(14) 0.57651(11)
H12 H 0.905623 0.432844 0.600238
H13 H 0.682101 0.419631 0.599108
H14 H 0.769367 0.507624 0.579770
C20 C 1.0394(4) 0.73547(14) 0.19234(12)
H15 H 1.143216 0.766892 0.175740
C21 C 0.7074(4) 0.71202(13) 0.19850(12)
H16 H 0.582405 0.727461 0.186367
C22 C 0.9673(4) 0.46864(14) 0.25174(12)
H17 H 0.994460 0.419255 0.279573
H18 H 1.067352 0.476759 0.216866
H19 H 0.846225 0.461892 0.227622
C23 C 0.8136(4) 0.32839(13) 0.49509(13)
H20 H 0.840739 0.311125 0.446752
H21 H 0.694107 0.303974 0.510425
H22 H 0.915273 0.309932 0.526193
C24 C 0.8578(4) 0.75743(14) 0.17388(12)
H23 H 0.836626 0.803666 0.144314
C25 C 0.0594(4) 0.64423(17) 0.67872(14)
H24 H 0.042105 0.701108 0.662779
H25 H 0.140193 0.643641 0.720532
H26 H -0.063431 0.620221 0.690336
loop_
_geom_bond_atom_site_label_1
_geom_bond_atom_site_label_2
_geom_bond_site_symmetry_1
_geom_bond_site_symmetry_2
O1 C13 1_555 1_555
O2 C7 1_555 1_555
O3 C7 1_555 1_555
O4 C6 1_555 1_555
O5 C1 1_555 1_555
O6 C16 1_555 1_555
C1 C14 1_555 1_555
C2 C9 1_555 1_555
C3 C4 1_555 1_555
C4 H1 1_555 1_555
C5 C3 1_555 1_555
C6 C4 1_555 1_555
C7 C5 1_555 1_555
C8 C5 1_555 1_555
H2 C8 1_555 1_555
C9 H3 1_555 1_555
C10 C3 1_555 1_555
H4 C10 1_555 1_555
C11 C10 1_555 1_555
H5 C11 1_555 1_555
C12 C6 1_555 1_555
H6 C12 1_555 1_555
C13 C2 1_555 1_555
H7 C13 1_555 1_555
C14 H8 1_555 1_555
H9 C14 1_555 1_555
C15 O1 1_555 1_555
H10 C15 1_555 1_555
C16 O2 1_555 1_555
C17 C1 1_555 1_555
C18 C2 1_555 1_555
H11 C18 1_555 1_555
C19 C17 1_555 1_555
H12 C19 1_555 1_555
H13 C19 1_555 1_555
H14 C19 1_555 1_555
C20 C18 1_555 1_555
H15 C20 1_555 1_555
C21 C9 1_555 1_555
H16 C21 1_555 1_555
C22 C13 1_555 1_555
H17 C22 1_555 1_555
H18 C22 1_555 1_555
H19 C22 1_555 1_555
C23 C17 1_555 1_555
H20 C23 1_555 1_555
H21 C23 1_555 1_555
H22 C23 1_555 1_555
C24 C20 1_555 1_555
H23 C24 1_555 1_555
C25 O4 1_555 1_555
H24 C25 1_555 1_555
H25 C25 1_555 1_555
H26 C25 1_555 1_555
C5 C15 1_555 1_555
C8 C16 1_555 1_555
C8 C17 1_555 1_555
C11 C12 1_555 1_555
C14 C15 1_555 1_555
C21 C24 1_555 1_555

#END
