
#######################################################################
#
#                 Cambridge Crystallographic Data Centre
#                                CCDC 
#
#######################################################################
#
# If this CIF has been generated from an entry in the Cambridge 
# Structural Database, then it will include bibliographic, chemical, 
# crystal, experimental, refinement or atomic coordinate data resulting 
# from the CCDC's data processing and validation procedures.
#
#######################################################################

data_VIGJED
_chemical_formula_moiety         'C16 H22 F3 N3 O2 S1'
_chemical_name_systematic        
1-(cyclohexylsulfonyl)-4-[6-(trifluoromethyl)pyridin-2-yl]piperazine
_symmetry_cell_setting           orthorhombic
_symmetry_space_group_name_H-M   'P b c a'
_symmetry_Int_Tables_number      61
_space_group_name_Hall           '-P 2ac 2ab'
loop_
_symmetry_equiv_pos_site_id
_symmetry_equiv_pos_as_xyz
1 x,y,z
2 1/2-x,-y,1/2+z
3 -x,1/2+y,1/2-z
4 1/2+x,1/2-y,-z
5 -x,-y,-z
6 1/2+x,y,1/2-z
7 x,1/2-y,1/2+z
8 1/2-x,1/2+y,z
_cell_length_a                   12.0390(4)
_cell_length_b                   10.2844(4)
_cell_length_c                   27.7429(10)
_cell_angle_alpha                90
_cell_angle_beta                 90
_cell_angle_gamma                90
_cell_volume                     3434.96
_exptl_crystal_colour            colorless
_exptl_crystal_description       plate
_cell_formula_units_Z            8
loop_
_atom_site_label
_atom_site_type_symbol
_atom_site_fract_x
_atom_site_fract_y
_atom_site_fract_z
S1 S 0.69222(4) 0.27304(4) 0.20142(2)
F1 F 0.73208(15) 0.89621(16) 0.42321(7)
F2 F 0.84269(12) 0.74230(17) 0.43965(7)
F3 F 0.73845(14) 0.82020(18) 0.49403(5)
N1 N 0.66601(13) 0.33967(16) 0.25312(6)
N2 N 0.60797(12) 0.48971(15) 0.33386(6)
N3 N 0.66408(13) 0.63942(15) 0.39092(6)
O1 O 0.80912(11) 0.24499(13) 0.19858(5)
O2 O 0.61517(12) 0.16801(13) 0.19505(5)
C1 C 0.69963(16) 0.35183(19) 0.10770(7)
H1 H 0.7795 0.3287 0.1081
H2 H 0.6569 0.2736 0.0984
C2 C 0.67932(18) 0.4604(2) 0.07118(7)
H3 H 0.7268 0.5360 0.0792
H4 H 0.7002 0.4297 0.0386
C3 C 0.55767(19) 0.5026(2) 0.07105(7)
H5 H 0.5480 0.5764 0.0485
H6 H 0.5109 0.4298 0.0595
C4 C 0.51982(17) 0.5432(2) 0.12124(8)
H7 H 0.4395 0.5638 0.1204
H8 H 0.5602 0.6228 0.1310
C5 C 0.54077(16) 0.4359(2) 0.15837(7)
H9 H 0.4943 0.3593 0.1507
H10 H 0.5199 0.4673 0.1909
C6 C 0.66358(15) 0.39709(18) 0.15800(6)
H11 H 0.7085 0.4755 0.1666
C7 C 0.57658(15) 0.29590(18) 0.28478(7)
H12 H 0.6066 0.2353 0.3093
H13 H 0.5198 0.2490 0.2657
C8 C 0.52429(16) 0.4114(2) 0.30938(8)
H14 H 0.4854 0.4654 0.2852
H15 H 0.4687 0.3808 0.3331
C9 C 0.69715(18) 0.5322(2) 0.30208(7)
H16 H 0.7536 0.5800 0.3210
H17 H 0.6669 0.5922 0.2774
C10 C 0.75068(17) 0.4176(2) 0.27763(8)
H18 H 0.8062 0.4485 0.2539
H19 H 0.7896 0.3635 0.3019
C11 C 0.58745(14) 0.55378(18) 0.37635(7)
C12 C 0.49205(15) 0.52755(19) 0.40480(7)
H20 H 0.4356 0.4710 0.3933
C13 C 0.48265(16) 0.58503(19) 0.44906(7)
H21 H 0.4193 0.5680 0.4685
C14 C 0.56515(17) 0.66820(19) 0.46586(7)
H22 H 0.5618 0.7065 0.4970
C15 C 0.65183(16) 0.69170(18) 0.43478(7)
C16 C 0.74224(18) 0.7861(2) 0.44776(8)
loop_
_geom_bond_atom_site_label_1
_geom_bond_atom_site_label_2
_geom_bond_site_symmetry_1
_geom_bond_site_symmetry_2
S1 N1 1_555 1_555
F1 C16 1_555 1_555
F2 C16 1_555 1_555
F3 C16 1_555 1_555
N1 C7 1_555 1_555
N2 C8 1_555 1_555
N3 C11 1_555 1_555
O1 S1 1_555 1_555
O2 S1 1_555 1_555
C1 H1 1_555 1_555
H2 C1 1_555 1_555
C2 C1 1_555 1_555
H3 C2 1_555 1_555
H4 C2 1_555 1_555
C3 C2 1_555 1_555
H5 C3 1_555 1_555
H6 C3 1_555 1_555
C4 C3 1_555 1_555
H7 C4 1_555 1_555
H8 C4 1_555 1_555
C5 C4 1_555 1_555
H9 C5 1_555 1_555
H10 C5 1_555 1_555
C6 S1 1_555 1_555
H11 C6 1_555 1_555
C7 H12 1_555 1_555
H13 C7 1_555 1_555
C8 C7 1_555 1_555
H14 C8 1_555 1_555
H15 C8 1_555 1_555
C9 N2 1_555 1_555
H16 C9 1_555 1_555
H17 C9 1_555 1_555
C10 N1 1_555 1_555
H18 C10 1_555 1_555
H19 C10 1_555 1_555
C11 N2 1_555 1_555
C12 C11 1_555 1_555
H20 C12 1_555 1_555
C13 C12 1_555 1_555
H21 C13 1_555 1_555
C14 C13 1_555 1_555
H22 C14 1_555 1_555
C15 N3 1_555 1_555
C16 C15 1_555 1_555
C1 C6 1_555 1_555
C5 C6 1_555 1_555
C9 C10 1_555 1_555
C14 C15 1_555 1_555

#END
