
#######################################################################
#
#                 Cambridge Crystallographic Data Centre
#                                CCDC 
#
#######################################################################
#
# If this CIF has been generated from an entry in the Cambridge 
# Structural Database, then it will include bibliographic, chemical, 
# crystal, experimental, refinement or atomic coordinate data resulting 
# from the CCDC's data processing and validation procedures.
#
#######################################################################

data_VIGLON
_chemical_formula_moiety         'C14 H14 Br1 N1 S1'
_chemical_name_systematic        
(4-(2-(5-Bromothiophene)vinyl)phenyl)dimethylamine
_symmetry_cell_setting           orthorhombic
_symmetry_space_group_name_H-M   'P 21 21 21'
_symmetry_Int_Tables_number      19
_space_group_name_Hall           'P 2ac 2ab'
loop_
_symmetry_equiv_pos_site_id
_symmetry_equiv_pos_as_xyz
1 x,y,z
2 1/2-x,-y,1/2+z
3 -x,1/2+y,1/2-z
4 1/2+x,1/2-y,-z
_cell_length_a                   5.9341(8)
_cell_length_b                   7.5579(10)
_cell_length_c                   29.632(4)
_cell_angle_alpha                90
_cell_angle_beta                 90
_cell_angle_gamma                90
_cell_volume                     1328.98
_exptl_crystal_colour            colorless
_exptl_crystal_description       plate
_chemical_melting_point          '158-160 deg.C'
_cell_formula_units_Z            4
_exptl_crystal_preparation       luminescent
loop_
_atom_site_label
_atom_site_type_symbol
_atom_site_fract_x
_atom_site_fract_y
_atom_site_fract_z
Br1 Br 0.00842(15) 0.40543(12) 0.02423(2)
S1 S 0.1536(3) 0.3873(3) 0.12485(6)
C1 C 0.4770(13) 0.2051(11) 0.4438(2)
H1 H 0.3535 0.1393 0.4313
H2 H 0.4198 0.2972 0.4630
H3 H 0.5710 0.1273 0.4612
C2 C -0.0049(11) 0.2810(8) 0.1658(2)
C3 C 0.5319(11) 0.2911(8) 0.3639(2)
C4 C 0.5588(10) 0.3901(9) 0.2859(2)
H4 H 0.6420 0.4481 0.2638
N1 N 0.6119(11) 0.2850(9) 0.40654(19)
C5 C 0.0673(11) 0.2691(9) 0.2126(2)
H5 H -0.0280 0.2116 0.2327
C6 C 0.3249(11) 0.2110(9) 0.3525(2)
H6 H 0.2461 0.1470 0.3742
C7 C 0.2614(12) 0.3349(9) 0.2289(2)
H7 H 0.3490 0.3996 0.2088
C8 C 0.6431(11) 0.3791(9) 0.3288(2)
H8 H 0.7809 0.4326 0.3349
C9 C 0.3505(11) 0.3163(9) 0.2746(2)
C10 C -0.0426(12) 0.3345(10) 0.0841(2)
C11 C 0.2375(12) 0.2270(9) 0.3090(2)
H9 H 0.0983 0.1762 0.3027
C12 C -0.1976(12) 0.2107(10) 0.1470(2)
H10 H -0.3049 0.1489 0.1636
C13 C 0.8040(12) 0.3887(11) 0.4193(2)
H11 H 0.8767 0.4336 0.3927
H12 H 0.9078 0.3162 0.4359
H13 H 0.7561 0.4858 0.4379
C14 C -0.2161(13) 0.2417(10) 0.1000(3)
H14 H -0.3355 0.2020 0.0824
loop_
_geom_bond_atom_site_label_1
_geom_bond_atom_site_label_2
_geom_bond_site_symmetry_1
_geom_bond_site_symmetry_2
Br1 C10 1_555 1_555
S1 C2 1_555 1_555
C1 H1 1_555 1_555
H2 C1 1_555 1_555
H3 C1 1_555 1_555
C2 C5 1_555 1_555
C3 N1 1_555 1_555
C4 H4 1_555 1_555
N1 C1 1_555 1_555
C5 H5 1_555 1_555
C6 C3 1_555 1_555
H6 C6 1_555 1_555
C7 C5 1_555 1_555
H7 C7 1_555 1_555
C8 C3 1_555 1_555
H8 C8 1_555 1_555
C9 C4 1_555 1_555
C10 S1 1_555 1_555
C11 C6 1_555 1_555
H9 C11 1_555 1_555
C12 C2 1_555 1_555
H10 C12 1_555 1_555
C13 N1 1_555 1_555
H11 C13 1_555 1_555
H12 C13 1_555 1_555
H13 C13 1_555 1_555
C14 C10 1_555 1_555
H14 C14 1_555 1_555
C4 C8 1_555 1_555
C7 C9 1_555 1_555
C9 C11 1_555 1_555
C12 C14 1_555 1_555

#END
