
#######################################################################
#
#                 Cambridge Crystallographic Data Centre
#                                CCDC 
#
#######################################################################
#
# If this CIF has been generated from an entry in the Cambridge 
# Structural Database, then it will include bibliographic, chemical, 
# crystal, experimental, refinement or atomic coordinate data resulting 
# from the CCDC's data processing and validation procedures.
#
#######################################################################

data_VIGMED
_chemical_formula_moiety         'C27 H32 O2 S1'
_chemical_name_systematic        
(+-)-(1R*,6S*)-1-Benzyloxy-8,11,11-trimethyl-6-phenylthiobicyclo(5.3.1)undec-7-en-3-one
_symmetry_cell_setting           monoclinic
_symmetry_space_group_name_H-M   'P 21/c'
_symmetry_Int_Tables_number      14
_space_group_name_Hall           '-P 2ybc'
loop_
_symmetry_equiv_pos_site_id
_symmetry_equiv_pos_as_xyz
1 x,y,z
2 -x,1/2+y,1/2-z
3 -x,-y,-z
4 x,1/2-y,1/2+z
_cell_length_a                   8.4756(13)
_cell_length_b                   14.710(2)
_cell_length_c                   18.425(3)
_cell_angle_alpha                90
_cell_angle_beta                 99.575(13)
_cell_angle_gamma                90
_cell_volume                     2265.15
_exptl_crystal_colour            colorless
_cell_formula_units_Z            4
loop_
_atom_site_label
_atom_site_type_symbol
_atom_site_fract_x
_atom_site_fract_y
_atom_site_fract_z
C1 C 1.0645(4) 0.2115(2) 0.0834(2)
C2 C 1.0846(5) 0.3083(3) 0.1169(2)
C3 C 0.9402(5) 0.3485(2) 0.1452(2)
C4 C 0.9426(7) 0.3553(3) 0.2280(3)
C5 C 1.0168(6) 0.2787(3) 0.2782(2)
C6 C 0.9274(5) 0.1882(2) 0.2599(2)
C7 C 0.9134(4) 0.1652(2) 0.1799(2)
C8 C 0.7735(4) 0.1801(2) 0.1353(2)
C9 C 0.7608(5) 0.1823(4) 0.0524(2)
C10 C 0.9156(5) 0.2022(3) 0.0230(2)
C11 C 1.0572(4) 0.1387(2) 0.1435(2)
C12 C 1.0274(7) 0.0438(3) 0.1088(3)
C13 C 1.2181(5) 0.1310(4) 0.1942(3)
O1 O 0.8330(3) 0.3829(2) 0.1037(2)
C14 C 0.6162(5) 0.2061(4) 0.1582(3)
S1 S 1.01150(12) 0.09982(7) 0.32662(5)
C15 C 0.8350(4) 0.0537(2) 0.3515(2)
C16 C 0.8211(5) 0.0478(2) 0.4248(2)
C17 C 0.6875(6) 0.0088(3) 0.4460(3)
C18 C 0.5645(6) -0.0232(3) 0.3941(3)
C19 C 0.5772(5) -0.0171(3) 0.3208(3)
C20 C 0.7136(5) 0.0210(3) 0.2996(2)
O2 O 1.2040(3) 0.1903(2) 0.05082(13)
C21 C 1.2383(5) 0.2508(3) -0.0053(2)
C22 C 1.3484(4) 0.2040(3) -0.0501(2)
C23 C 1.3637(5) 0.1124(3) -0.0545(2)
C24 C 1.4671(6) 0.0765(4) -0.0969(3)
C25 C 1.5555(7) 0.1296(5) -0.1350(3)
C26 C 1.5396(6) 0.2201(5) -0.1319(3)
C27 C 1.4370(5) 0.2603(4) -0.0895(2)
H1 H 1.103(3) 0.355(2) 0.079(2)
H2 H 1.186(4) 0.318(2) 0.156(2)
H3 H 0.826(4) 0.368(2) 0.238(2)
H4 H 1.001(4) 0.403(2) 0.241(2)
H5 H 1.134(6) 0.292(3) 0.270(3)
H6 H 1.000(4) 0.311(2) 0.329(2)
H7 H 0.815(4) 0.185(2) 0.270(2)
H8 H 0.712(5) 0.119(3) 0.030(2)
H9 H 0.676(5) 0.219(3) 0.033(2)
H10 H 0.904(4) 0.258(2) -0.003(2)
H11 H 0.942(4) 0.147(2) -0.014(2)
H12 H 1.102(5) 0.038(3) 0.080(2)
H13 H 0.920(5) 0.055(3) 0.073(2)
H14 H 1.030(4) 0.001(3) 0.144(2)
H15 H 1.299(4) 0.114(2) 0.166(2)
H16 H 1.218(4) 0.100(2) 0.233(2)
H17 H 1.262(4) 0.184(2) 0.218(2)
H18 H 0.5293 0.2140 0.1148
H19 H 0.6331 0.2646 0.1860
H20 H 0.5850 0.1576 0.1911
H21 H 0.9085 0.0720 0.4632
H22 H 0.6801 0.0038 0.4994
H23 H 0.4672 -0.0505 0.4094
H24 H 0.4885 -0.0401 0.2826
H25 H 0.7226 0.0244 0.2463
H26 H 1.1364 0.2679 -0.0381
H27 H 1.2915 0.3068 0.0179
H28 H 1.3002 0.0714 -0.0271
H29 H 1.4774 0.0089 -0.0999
H30 H 1.6313 0.1017 -0.1649
H31 H 1.6027 0.2596 -0.1607
H32 H 1.4271 0.3279 -0.0873
loop_
_geom_bond_atom_site_label_1
_geom_bond_atom_site_label_2
_geom_bond_site_symmetry_1
_geom_bond_site_symmetry_2
C1 C2 1_555 1_555
C2 C3 1_555 1_555
C3 C4 1_555 1_555
C4 C5 1_555 1_555
C5 C6 1_555 1_555
C6 C7 1_555 1_555
C7 C8 1_555 1_555
C8 C9 1_555 1_555
C9 C10 1_555 1_555
C10 C1 1_555 1_555
C11 C1 1_555 1_555
C12 C11 1_555 1_555
C13 C11 1_555 1_555
O1 C3 1_555 1_555
C14 C8 1_555 1_555
S1 C6 1_555 1_555
C15 S1 1_555 1_555
C16 C15 1_555 1_555
C17 C16 1_555 1_555
C18 C17 1_555 1_555
C19 C18 1_555 1_555
C20 C15 1_555 1_555
O2 C1 1_555 1_555
C21 O2 1_555 1_555
C22 C21 1_555 1_555
C23 C22 1_555 1_555
C24 C23 1_555 1_555
C25 C24 1_555 1_555
C26 C25 1_555 1_555
C27 C22 1_555 1_555
H1 C2 1_555 1_555
H2 C2 1_555 1_555
H3 C4 1_555 1_555
H4 C4 1_555 1_555
H5 C5 1_555 1_555
H6 C5 1_555 1_555
H7 C6 1_555 1_555
H8 C9 1_555 1_555
H9 C9 1_555 1_555
H10 C10 1_555 1_555
H11 C10 1_555 1_555
H12 C12 1_555 1_555
H13 C12 1_555 1_555
H14 C12 1_555 1_555
H15 C13 1_555 1_555
H16 C13 1_555 1_555
H17 C13 1_555 1_555
H18 C14 1_555 1_555
H19 C14 1_555 1_555
H20 C14 1_555 1_555
H21 C16 1_555 1_555
H22 C17 1_555 1_555
H23 C18 1_555 1_555
H24 C19 1_555 1_555
H25 C20 1_555 1_555
H26 C21 1_555 1_555
H27 C21 1_555 1_555
H28 C23 1_555 1_555
H29 C24 1_555 1_555
H30 C25 1_555 1_555
H31 C26 1_555 1_555
H32 C27 1_555 1_555
C7 C11 1_555 1_555
C19 C20 1_555 1_555
C26 C27 1_555 1_555

#END
