
#######################################################################
#
#                 Cambridge Crystallographic Data Centre
#                                CCDC 
#
#######################################################################
#
# If this CIF has been generated from an entry in the Cambridge 
# Structural Database, then it will include bibliographic, chemical, 
# crystal, experimental, refinement or atomic coordinate data resulting 
# from the CCDC's data processing and validation procedures.
#
#######################################################################

data_VIGNUV
_chemical_name_common            
'1,2-bis(1-(3-Ammoniopropyl)pyridinium-3-yl)ethene 1,2-bis(benzo-18-crown-6-4-yl)diazene tetraperchlorate benzene solvate'
_chemical_formula_moiety         
'C18 H28 N4 4+,C32 H46 N2 O12,4(Cl1 O4 1-),5(C6 H6)'
_chemical_name_systematic        
'1,2-bis(1-(3-Ammoniopropyl)pyridinium-3-yl)ethene 1,2-bis(2,3,5,6,8,9,11,12,14,15-decahydro-1,4,7,10,13,16-benzohexaoxacyclooctadecin-18-yl)diazene tetraperchlorate benzene solvate'
_symmetry_cell_setting           monoclinic
_symmetry_space_group_name_H-M   'P 2/c'
_symmetry_Int_Tables_number      13
_space_group_name_Hall           '-P 2yc'
loop_
_symmetry_equiv_pos_site_id
_symmetry_equiv_pos_as_xyz
1 x,y,z
2 -x,y,1/2-z
3 -x,-y,-z
4 x,-y,1/2+z
_cell_length_a                   15.387(2)
_cell_length_b                   8.2974(13)
_cell_length_c                   32.364(5)
_cell_angle_alpha                90
_cell_angle_beta                 90.000(4)
_cell_angle_gamma                90
_cell_volume                     4131.98
_exptl_crystal_colour            yellow
_exptl_crystal_description       plate
_cell_formula_units_Z            2
loop_
_atom_site_label
_atom_site_type_symbol
_atom_site_fract_x
_atom_site_fract_y
_atom_site_fract_z
Cl1 Cl 0.48357(7) 0.96496(14) 0.14553(4)
O1 O 0.5365(3) 0.9136(7) 0.11264(16)
O2 O 0.3963(5) 0.9749(15) 0.1402(3)
O3 O 0.5257(6) 1.1075(11) 0.1611(3)
O4 O 0.5001(7) 0.8518(14) 0.1773(4)
Cl2 Cl -0.00899(8) 0.04132(15) -0.11351(4)
O5 O 0.0316(3) -0.0774(5) -0.13845(13)
O6 O -0.1034(4) 0.0383(10) -0.1248(2)
O7 O -0.0012(6) 0.0126(11) -0.07334(19)
O8 O 0.0253(5) 0.1892(8) -0.1290(2)
O9 O 0.30080(16) -0.4905(4) -0.13684(8)
O10 O 0.43788(18) -0.3757(4) -0.08627(9)
O11 O 0.4060(4) -0.2699(7) -0.00283(17)
O12 O 0.2436(3) -0.2072(6) 0.01497(11)
O13 O 0.1045(3) -0.2945(11) -0.03846(16)
O14 O 0.14243(17) -0.4612(4) -0.11160(8)
N1 N 0.0383(2) -0.4708(5) -0.25681(11)
C1 C 0.1521(2) -0.4704(5) -0.15379(12)
C2 C 0.0853(2) -0.4673(5) -0.18237(12)
H1 H 0.0268 -0.4612 -0.1731
C3 C 0.1031(3) -0.4730(5) -0.22488(13)
C4 C 0.1888(3) -0.4831(6) -0.23777(13)
H2 H 0.2016 -0.4861 -0.2665
C5 C 0.2560(3) -0.4891(6) -0.20928(13)
H3 H 0.3143 -0.4966 -0.2187
C6 C 0.2396(2) -0.4842(5) -0.16741(12)
C7 C 0.3902(3) -0.4990(6) -0.14894(14)
H4 H 0.4069 -0.3996 -0.1639
H5 H 0.3995 -0.5922 -0.1675
C8 C 0.4448(3) -0.5172(6) -0.11051(15)
H6 H 0.4246 -0.6114 -0.0944
H7 H 0.5063 -0.5353 -0.1183
C9 C 0.4993(3) -0.3697(8) -0.05298(16)
H8 H 0.5590 -0.3718 -0.0644
H9 H 0.4919 -0.4660 -0.0353
C10 C 0.4883(5) -0.2267(9) -0.0283(2)
H10 H 0.4786 -0.1305 -0.0458
H11 H 0.5391 -0.2079 -0.0102
C11 C 0.3932(5) -0.1651(9) 0.02581(19)
H12 H 0.4042 -0.0558 0.0147
H13 H 0.4347 -0.1843 0.0487
C12 C 0.3058(6) -0.1727(14) 0.0416(2)
H14 H 0.3043 -0.2545 0.0639
H15 H 0.2920 -0.0674 0.0544
C13 C 0.1596(5) -0.2276(11) 0.0268(2)
H16 H 0.1600 -0.2538 0.0566
H17 H 0.1305 -0.1217 0.0239
C14 C 0.1123(10) -0.329(3) 0.0094(5)
H18 H 0.0537 -0.3272 0.0220
H19 H 0.1370 -0.4383 0.0136
C15 C 0.0565(4) -0.4222(13) -0.05152(18)
H20 H -0.0038 -0.4092 -0.0414
H21 H 0.0804 -0.5217 -0.0390
C16 C 0.0547(3) -0.4419(7) -0.09679(14)
H22 H 0.0197 -0.5376 -0.1042
H23 H 0.0278 -0.3460 -0.1098
O9A O -0.30080(16) -0.4905(4) -0.36316(8)
O10A O -0.43788(18) -0.3757(4) -0.41373(9)
O11A O -0.4060(4) -0.2699(7) -0.49717(17)
O12A O -0.2436(3) -0.2072(6) -0.51497(11)
O13A O -0.1045(3) -0.2945(11) -0.46154(16)
O14A O -0.14243(17) -0.4612(4) -0.38840(8)
N1A N -0.0383(2) -0.4708(5) -0.24319(11)
C1A C -0.1521(2) -0.4704(5) -0.34621(12)
C2A C -0.0853(2) -0.4673(5) -0.31763(12)
H1A H -0.0268 -0.4612 -0.3269
C3A C -0.1031(3) -0.4730(5) -0.27512(13)
C4A C -0.1888(3) -0.4831(6) -0.26223(13)
H2A H -0.2016 -0.4861 -0.2335
C5A C -0.2560(3) -0.4891(6) -0.29072(13)
H3A H -0.3143 -0.4966 -0.2813
C6A C -0.2396(2) -0.4842(5) -0.33259(12)
C7A C -0.3902(3) -0.4990(6) -0.35106(14)
H4A H -0.4069 -0.3996 -0.3361
H5A H -0.3995 -0.5922 -0.3325
C8A C -0.4448(3) -0.5172(6) -0.38949(15)
H6A H -0.4246 -0.6114 -0.4056
H7A H -0.5063 -0.5353 -0.3817
C9A C -0.4993(3) -0.3697(8) -0.44702(16)
H8A H -0.5590 -0.3718 -0.4356
H9A H -0.4919 -0.4660 -0.4647
C10A C -0.4883(5) -0.2267(9) -0.4717(2)
H10A H -0.4786 -0.1305 -0.4542
H11A H -0.5391 -0.2079 -0.4898
C11A C -0.3932(5) -0.1651(9) -0.52581(19)
H12A H -0.4042 -0.0558 -0.5147
H13A H -0.4347 -0.1843 -0.5487
C12A C -0.3058(6) -0.1727(14) -0.5416(2)
H14A H -0.3043 -0.2545 -0.5639
H15A H -0.2920 -0.0674 -0.5544
C13A C -0.1596(5) -0.2276(11) -0.5268(2)
H16A H -0.1600 -0.2538 -0.5566
H17A H -0.1305 -0.1217 -0.5239
C14A C -0.1123(10) -0.329(3) -0.5094(5)
H18A H -0.0537 -0.3272 -0.5220
H19A H -0.1370 -0.4383 -0.5136
C15A C -0.0565(4) -0.4222(13) -0.44848(18)
H20A H 0.0038 -0.4092 -0.4586
H21A H -0.0804 -0.5217 -0.4610
C16A C -0.0547(3) -0.4419(7) -0.40321(14)
H22A H -0.0197 -0.5376 -0.3958
H23A H -0.0278 -0.3460 -0.3902
N2 N -0.2340(2) 0.9098(4) 0.19599(11)
N3 N -0.2726(2) 1.2455(5) 0.07067(11)
H24 H -0.2756 1.2415 0.0426
H25 H -0.2260 1.3058 0.0784
H26 H -0.3221 1.2908 0.0808
C17 C -0.1491(3) 0.9030(6) 0.20827(13)
H27 H -0.1051 0.8900 0.1880
C18 C -0.1256(3) 0.9143(6) 0.24944(13)
C19 C -0.1926(3) 0.9289(6) 0.27785(14)
H28 H -0.1793 0.9359 0.3065
C20 C -0.2782(3) 0.9335(7) 0.26537(15)
H29 H -0.3235 0.9431 0.2852
C21 C -0.2977(3) 0.9240(6) 0.22379(15)
H30 H -0.3565 0.9276 0.2149
C22 C -0.0340(3) 0.9125(6) 0.26229(14)
H31 H -0.022(3) 0.916(6) 0.2905(15)
C23 C -0.2542(3) 0.9084(5) 0.15110(13)
H32 H -0.3108 0.8547 0.1465
H33 H -0.2090 0.8467 0.1362
C24 C -0.2577(3) 1.0800(5) 0.13444(12)
H34 H -0.3091 1.1361 0.1459
H35 H -0.2051 1.1395 0.1432
C25 C -0.2632(3) 1.0782(6) 0.08745(14)
H36 H -0.2100 1.0281 0.0760
H37 H -0.3136 1.0123 0.0788
N2A N 0.2340(2) 0.9098(4) 0.30401(11)
N3A N 0.2726(2) 1.2455(5) 0.42933(11)
H24A H 0.2756 1.2415 0.4574
H25A H 0.2260 1.3058 0.4216
H26A H 0.3221 1.2908 0.4192
C17A C 0.1491(3) 0.9030(6) 0.29173(13)
H27A H 0.1051 0.8900 0.3120
C18A C 0.1256(3) 0.9143(6) 0.25056(13)
C19A C 0.1926(3) 0.9289(6) 0.22215(14)
H28A H 0.1793 0.9359 0.1935
C20A C 0.2782(3) 0.9335(7) 0.23463(15)
H29A H 0.3235 0.9431 0.2148
C21A C 0.2977(3) 0.9240(6) 0.27621(15)
H30A H 0.3565 0.9276 0.2851
C22A C 0.0340(3) 0.9125(6) 0.23771(14)
H31A H 0.022(3) 0.916(6) 0.2095(15)
C23A C 0.2542(3) 0.9084(5) 0.34890(13)
H32A H 0.3108 0.8547 0.3535
H33A H 0.2090 0.8467 0.3638
C24A C 0.2577(3) 1.0800(5) 0.36556(12)
H34A H 0.3091 1.1361 0.3541
H35A H 0.2051 1.1395 0.3568
C25A C 0.2632(3) 1.0782(6) 0.41255(14)
H36A H 0.2100 1.0281 0.4240
H37A H 0.3136 1.0123 0.4212
C26 C 0.2346(4) 0.6135(10) 0.1399(3)
H38 H 0.2290 0.7270 0.1371
C27 C 0.1655(3) 0.5203(8) 0.14554(16)
H39 H 0.1107 0.5718 0.1483
C28 C 0.1673(4) 0.3572(8) 0.14755(17)
H40 H 0.1154 0.2964 0.1509
C29 C 0.2451(7) 0.2847(12) 0.1446(4)
H41 H 0.2489 0.1704 0.1439
C30 C 0.3215(8) 0.3801(15) 0.1425(7)
H42 H 0.3775 0.3323 0.1439
C31 C 0.3119(8) 0.5424(15) 0.1385(7)
H43 H 0.3622 0.6071 0.1346
C32 C 0.2454(8) 0.3283(11) -0.0375(3)
H44 H 0.2711 0.3650 -0.0625
C33 C 0.2779(6) 0.3486(16) -0.0029(3)
H45 H 0.3362 0.3860 -0.0038
C34 C 0.2462(7) 0.3276(14) 0.0372(3)
H46 H 0.2706 0.3686 0.0620
C35 C 0.1781(7) 0.2425(13) 0.0336(4)
H47 H 0.1580 0.1984 0.0589
C36 C 0.1302(7) 0.2039(15) 0.0018(3)
H48 H 0.0754 0.1523 0.0047
C37 C 0.1637(7) 0.2422(13) -0.0355(4)
H49 H 0.1340 0.2129 -0.0601
O15? O 0.4317(13) 1.085(2) 0.1274(6)
O16? O 0.4092(12) 0.852(3) 0.1416(5)
O17? O 0.4996(17) 0.972(4) 0.1850(6)
O18? O -0.0612(9) 0.1471(15) -0.1297(3)
O19? O -0.0574(7) -0.0563(13) -0.0814(3)
O20? O 0.0580(6) 0.1299(12) -0.0836(3)
O21? O 0.4251(6) -0.1513(12) -0.0196(3)
C38? C 0.0849(8) -0.186(2) -0.0038(3)
H50? H 0.0272 -0.2094 0.0083
H51? H 0.0871 -0.0715 -0.0125
C39? C 0.5203(14) 0.363(2) 0.2619(5)
C40? C 0.5223(11) 0.531(2) 0.2631(4)
C41? C 0.4684(10) 0.6195(13) 0.2372(4)
C42? C 0.4125(7) 0.5410(18) 0.2101(4)
C43? C 0.4105(9) 0.3736(19) 0.2089(4)
C44? C 0.4643(14) 0.2847(13) 0.2348(5)
loop_
_geom_bond_atom_site_label_1
_geom_bond_atom_site_label_2
_geom_bond_site_symmetry_1
_geom_bond_site_symmetry_2
Cl1 O1 1_555 1_555
O2 Cl1 1_555 1_555
O3 Cl1 1_555 1_555
O4 Cl1 1_555 1_555
Cl2 O5 1_555 1_555
O6 Cl2 1_555 1_555
O7 Cl2 1_555 1_555
O8 Cl2 1_555 1_555
O9 C6 1_555 1_555
O10 C8 1_555 1_555
O11 C10 1_555 1_555
O12 C12 1_555 1_555
O13 C14 1_555 1_555
O14 C1 1_555 1_555
N1 C3 1_555 1_555
C1 C2 1_555 1_555
C2 H1 1_555 1_555
C3 C2 1_555 1_555
C4 C3 1_555 1_555
H2 C4 1_555 1_555
C5 C4 1_555 1_555
H3 C5 1_555 1_555
C6 C1 1_555 1_555
C7 O9 1_555 1_555
H4 C7 1_555 1_555
H5 C7 1_555 1_555
C8 C7 1_555 1_555
H6 C8 1_555 1_555
H7 C8 1_555 1_555
C9 O10 1_555 1_555
H8 C9 1_555 1_555
H9 C9 1_555 1_555
C10 C9 1_555 1_555
H10 C10 1_555 1_555
H11 C10 1_555 1_555
C11 O11 1_555 1_555
H12 C11 1_555 1_555
H13 C11 1_555 1_555
C12 C11 1_555 1_555
H14 C12 1_555 1_555
H15 C12 1_555 1_555
C13 O12 1_555 1_555
H16 C13 1_555 1_555
H17 C13 1_555 1_555
C14 C13 1_555 1_555
H18 C14 1_555 1_555
H19 C14 1_555 1_555
C15 O13 1_555 1_555
H20 C15 1_555 1_555
H21 C15 1_555 1_555
C16 O14 1_555 1_555
H22 C16 1_555 1_555
H23 C16 1_555 1_555
N2 C17 1_555 1_555
N3 H24 1_555 1_555
H25 N3 1_555 1_555
H26 N3 1_555 1_555
C17 H27 1_555 1_555
C18 C17 1_555 1_555
C19 C18 1_555 1_555
H28 C19 1_555 1_555
C20 C19 1_555 1_555
H29 C20 1_555 1_555
C21 N2 1_555 1_555
H30 C21 1_555 1_555
C22 C18 1_555 1_555
H31 C22 1_555 1_555
C23 N2 1_555 1_555
H32 C23 1_555 1_555
H33 C23 1_555 1_555
C24 C23 1_555 1_555
H34 C24 1_555 1_555
H35 C24 1_555 1_555
C25 N3 1_555 1_555
H36 C25 1_555 1_555
H37 C25 1_555 1_555
C26 H38 1_555 1_555
C27 C26 1_555 1_555
H39 C27 1_555 1_555
C28 C27 1_555 1_555
H40 C28 1_555 1_555
C29 C28 1_555 1_555
H41 C29 1_555 1_555
C30 C29 1_555 1_555
H42 C30 1_555 1_555
C31 C26 1_555 1_555
H43 C31 1_555 1_555
C32 H44 1_555 1_555
C33 C32 1_555 1_555
H45 C33 1_555 1_555
C34 C33 1_555 1_555
H46 C34 1_555 1_555
C35 C34 1_555 1_555
H47 C35 1_555 1_555
C36 C35 1_555 1_555
H48 C36 1_555 1_555
C37 C32 1_555 1_555
H49 C37 1_555 1_555
O9A C6A 1_555 1_555
O10A C8A 1_555 1_555
O11A C10A 1_555 1_555
O12A C12A 1_555 1_555
O13A C14A 1_555 1_555
O14A C1A 1_555 1_555
N1A N1 1_555 1_555
C1A C2A 1_555 1_555
C2A H1A 1_555 1_555
C3A N1A 1_555 1_555
C4A C3A 1_555 1_555
H2A C4A 1_555 1_555
C5A C4A 1_555 1_555
H3A C5A 1_555 1_555
C6A C1A 1_555 1_555
C7A O9A 1_555 1_555
H4A C7A 1_555 1_555
H5A C7A 1_555 1_555
C8A C7A 1_555 1_555
H6A C8A 1_555 1_555
H7A C8A 1_555 1_555
C9A O10A 1_555 1_555
H8A C9A 1_555 1_555
H9A C9A 1_555 1_555
C10A C9A 1_555 1_555
H10A C10A 1_555 1_555
H11A C10A 1_555 1_555
C11A O11A 1_555 1_555
H12A C11A 1_555 1_555
H13A C11A 1_555 1_555
C12A C11A 1_555 1_555
H14A C12A 1_555 1_555
H15A C12A 1_555 1_555
C13A O12A 1_555 1_555
H16A C13A 1_555 1_555
H17A C13A 1_555 1_555
C14A C13A 1_555 1_555
H18A C14A 1_555 1_555
H19A C14A 1_555 1_555
C15A O13A 1_555 1_555
H20A C15A 1_555 1_555
H21A C15A 1_555 1_555
C16A O14A 1_555 1_555
H22A C16A 1_555 1_555
H23A C16A 1_555 1_555
N2A C17A 1_555 1_555
N3A H24A 1_555 1_555
H25A N3A 1_555 1_555
H26A N3A 1_555 1_555
C17A H27A 1_555 1_555
C18A C17A 1_555 1_555
C19A C18A 1_555 1_555
H28A C19A 1_555 1_555
C20A C19A 1_555 1_555
H29A C20A 1_555 1_555
C21A N2A 1_555 1_555
H30A C21A 1_555 1_555
C22A C22 1_555 1_555
H31A C22A 1_555 1_555
C23A N2A 1_555 1_555
H32A C23A 1_555 1_555
H33A C23A 1_555 1_555
C24A C23A 1_555 1_555
H34A C24A 1_555 1_555
H35A C24A 1_555 1_555
C25A N3A 1_555 1_555
H36A C25A 1_555 1_555
H37A C25A 1_555 1_555
C5 C6 1_555 1_555
C15 C16 1_555 1_555
C20 C21 1_555 1_555
C24 C25 1_555 1_555
C30 C31 1_555 1_555
C36 C37 1_555 1_555
C2A C3A 1_555 1_555
C5A C6A 1_555 1_555
C15A C16A 1_555 1_555
C18A C22A 1_555 1_555
C20A C21A 1_555 1_555
C24A C25A 1_555 1_555

#END
