
#######################################################################
#
#                 Cambridge Crystallographic Data Centre
#                                CCDC 
#
#######################################################################
#
# If this CIF has been generated from an entry in the Cambridge 
# Structural Database, then it will include bibliographic, chemical, 
# crystal, experimental, refinement or atomic coordinate data resulting 
# from the CCDC's data processing and validation procedures.
#
#######################################################################

data_VIGWIS
_chemical_formula_moiety         'C26 H17 N1 O6,C4 H8 O2'
_chemical_name_systematic        '(26R*)-Uncialamycin ethyl acetate'
_chemical_properties_biological  
'potent plasmid DNA cleavage; phenomenal in vitro activity against Staphylococcus aureus, Escherichia coli and Burkholderia cepacia'
_symmetry_cell_setting           monoclinic
_symmetry_space_group_name_H-M   'P 21/n'
_symmetry_Int_Tables_number      14
_space_group_name_Hall           '-P 2yn'
loop_
_symmetry_equiv_pos_site_id
_symmetry_equiv_pos_as_xyz
1 x,y,z
2 1/2-x,1/2+y,1/2-z
3 -x,-y,-z
4 1/2+x,1/2-y,1/2+z
_cell_length_a                   12.579(3)
_cell_length_b                   8.0919(16)
_cell_length_c                   26.129(5)
_cell_angle_alpha                90
_cell_angle_beta                 103.61(3)
_cell_angle_gamma                90
_cell_volume                     2584.94
_exptl_crystal_colour            purple
_exptl_crystal_description       Plate
_chemical_melting_point          'decomposes at 175 deg.C'
_cell_formula_units_Z            4
_exptl_crystal_recrystallization_method 'ethyl acetate/hexanes'
loop_
_atom_site_label
_atom_site_type_symbol
_atom_site_fract_x
_atom_site_fract_y
_atom_site_fract_z
O1 O 0.8418(3) 0.1394(4) 0.78326(14)
O2 O 0.9343(3) 0.7846(4) 0.77161(16)
O3 O 0.8421(3) 0.8540(4) 0.84596(15)
H1 H 0.8800 0.8731 0.8251
O4 O 0.5662(2) 0.3418(4) 0.88887(12)
O5 O 0.6119(3) 0.6977(4) 0.94925(13)
H2 H 0.5834 0.7405 0.9712
O6 O 0.4925(3) 0.2463(4) 0.97181(13)
H3 H 0.4523 0.2595 0.9425
N1 N 0.7438(3) 0.1952(4) 0.85944(15)
H4 H 0.7386 0.1288 0.8333
C1 C 0.7707(3) 0.3570(5) 0.85446(17)
C2 C 0.8283(4) 0.4076(6) 0.81738(18)
C3 C 0.8632(4) 0.2893(6) 0.78244(18)
C4 C 0.9254(4) 0.3491(6) 0.74432(18)
C5 C 0.9587(4) 0.2351(7) 0.7117(2)
H5 H 0.9437 0.1234 0.7146
C6 C 1.0141(5) 0.2878(8) 0.6752(2)
H6 H 1.0350 0.2121 0.6526
C7 C 1.0387(5) 0.4530(8) 0.6721(2)
H7 H 1.0779 0.4876 0.6480
C8 C 1.0060(4) 0.5668(7) 0.7039(2)
H8 H 1.0217 0.6782 0.7009
C9 C 0.9494(4) 0.5157(6) 0.74078(19)
C10 C 0.9137(4) 0.6368(6) 0.7747(2)
C11 C 0.8544(4) 0.5783(6) 0.81362(18)
C12 C 0.8227(4) 0.6901(5) 0.84687(19)
C13 C 0.7660(4) 0.6379(6) 0.88366(18)
H9 H 0.7469 0.7152 0.9063
C14 C 0.7374(3) 0.4757(5) 0.88764(17)
C15 C 0.6627(4) 0.4234(5) 0.92201(17)
C16 C 0.6505(4) 0.5366(6) 0.96676(18)
H10 H 0.5980 0.4862 0.9845
C17 C 0.7591(4) 0.5312(6) 1.00269(19)
C18 C 0.8467(5) 0.4847(6) 1.0262(2)
C19 C 0.9485(5) 0.4037(8) 1.0484(2)
H11 H 0.9977 0.4512 1.0769
C20 C 0.9729(4) 0.2616(8) 1.0288(2)
H12 H 1.0392 0.2101 1.0433
C21 C 0.8985(4) 0.1877(6) 0.9856(2)
C22 C 0.8257(4) 0.1430(6) 0.9508(2)
C23 C 0.7242(4) 0.1355(5) 0.90833(18)
H13 H 0.6969 0.0217 0.9040
C24 C 0.6427(4) 0.2458(5) 0.92723(18)
C25 C 0.5883(4) 0.1611(6) 0.96719(19)
H14 H 0.5653 0.0511 0.9532
C26 C 0.6570(4) 0.1369(7) 1.0223(2)
H15 H 0.6825 0.2422 1.0371
H16 H 0.7185 0.0678 1.0212
H17 H 0.6137 0.0853 1.0435
O7 O 0.1471(8) 0.3031(12) 0.8501(4)
O8 O 0.3050(5) 0.2279(8) 0.8909(2)
C27 C 0.2509(13) 0.4860(18) 0.8332(7)
H18 H 0.2640 0.4559 0.7997
H19 H 0.3123 0.5471 0.8531
H20 H 0.1863 0.5531 0.8279
C28 C 0.2348(12) 0.328(3) 0.8640(5)
C29 C 0.1001(11) 0.1339(17) 0.8887(5)
H21 H 0.1456 0.1181 0.9239
H22 H 0.0231 0.1382 0.8887
C30 C 0.1240(13) 0.034(2) 0.8523(6)
H23 H 0.1805 0.0832 0.8382
H24 H 0.0598 0.0177 0.8244
H25 H 0.1488 -0.0705 0.8680
loop_
_geom_bond_atom_site_label_1
_geom_bond_atom_site_label_2
_geom_bond_site_symmetry_1
_geom_bond_site_symmetry_2
O1 C3 1_555 1_555
O2 C10 1_555 1_555
O3 H1 1_555 1_555
O4 C15 1_555 1_555
O5 H2 1_555 1_555
O6 H3 1_555 1_555
N1 H4 1_555 1_555
C1 N1 1_555 1_555
C2 C1 1_555 1_555
C3 C2 1_555 1_555
C4 C3 1_555 1_555
C5 C4 1_555 1_555
H5 C5 1_555 1_555
C6 C5 1_555 1_555
H6 C6 1_555 1_555
C7 C6 1_555 1_555
H7 C7 1_555 1_555
C8 C7 1_555 1_555
H8 C8 1_555 1_555
C9 C4 1_555 1_555
C10 C9 1_555 1_555
C11 C2 1_555 1_555
C12 O3 1_555 1_555
C13 C12 1_555 1_555
H9 C13 1_555 1_555
C14 C1 1_555 1_555
C15 C14 1_555 1_555
C16 O5 1_555 1_555
H10 C16 1_555 1_555
C17 C16 1_555 1_555
C18 C17 1_555 1_555
C19 C18 1_555 1_555
H11 C19 1_555 1_555
C20 C19 1_555 1_555
H12 C20 1_555 1_555
C21 C20 1_555 1_555
C22 C21 1_555 1_555
C23 N1 1_555 1_555
H13 C23 1_555 1_555
C24 O4 1_555 1_555
C25 O6 1_555 1_555
H14 C25 1_555 1_555
C26 C25 1_555 1_555
H15 C26 1_555 1_555
H16 C26 1_555 1_555
H17 C26 1_555 1_555
O7 C28 1_555 1_555
O8 C28 1_555 1_555
C27 H18 1_555 1_555
H19 C27 1_555 1_555
H20 C27 1_555 1_555
C28 C27 1_555 1_555
C29 O7 1_555 1_555
H21 C29 1_555 1_555
H22 C29 1_555 1_555
C30 C29 1_555 1_555
H23 C30 1_555 1_555
H24 C30 1_555 1_555
H25 C30 1_555 1_555
C8 C9 1_555 1_555
C10 C11 1_555 1_555
C11 C12 1_555 1_555
C13 C14 1_555 1_555
C15 C16 1_555 1_555
C15 C24 1_555 1_555
C22 C23 1_555 1_555
C23 C24 1_555 1_555
C24 C25 1_555 1_555

#END
