
#######################################################################
#
#                 Cambridge Crystallographic Data Centre
#                                CCDC 
#
#######################################################################
#
# If this CIF has been generated from an entry in the Cambridge 
# Structural Database, then it will include bibliographic, chemical, 
# crystal, experimental, refinement or atomic coordinate data resulting 
# from the CCDC's data processing and validation procedures.
#
#######################################################################

data_VIGYAO
_chemical_formula_moiety         'C45 H38 N1 P1'
_chemical_name_systematic        
'N-(2,6-bis(diphenylmethyl)-4-methylphenyl)-P,P-diphenylphosphinous amide'
_symmetry_cell_setting           triclinic
_symmetry_space_group_name_H-M   'P -1'
_symmetry_Int_Tables_number      2
_space_group_name_Hall           '-P 1'
loop_
_symmetry_equiv_pos_site_id
_symmetry_equiv_pos_as_xyz
1 x,y,z
2 -x,-y,-z
_cell_length_a                   9.2260(3)
_cell_length_b                   10.9085(3)
_cell_length_c                   17.6693(4)
_cell_angle_alpha                73.723(2)
_cell_angle_beta                 78.679(2)
_cell_angle_gamma                86.383(2)
_cell_volume                     1673.72
_exptl_crystal_colour            colorless
_exptl_crystal_description       prism
_cell_formula_units_Z            2
loop_
_atom_site_label
_atom_site_type_symbol
_atom_site_fract_x
_atom_site_fract_y
_atom_site_fract_z
P1 P 0.84238(4) 0.26231(4) 0.25949(2)
N1 N 0.66595(14) 0.31362(13) 0.25284(8)
C1 C 0.41350(17) 0.09247(14) 0.21787(9)
H1 H 0.4070 0.0489 0.1790
C2 C 0.53785(16) 0.16621(14) 0.20712(9)
C3 C 0.36102(17) 0.22525(14) 0.47699(9)
C4 C 0.42912(17) 0.13318(15) 0.53055(9)
H2 H 0.5287 0.1093 0.5144
C5 C 0.44857(17) 0.28559(14) 0.39394(9)
H3 H 0.5547 0.2748 0.3996
C6 C 0.20961(18) 0.10850(15) 0.63106(10)
H4 H 0.1579 0.0688 0.6836
C7 C 0.14073(18) 0.19908(16) 0.57838(10)
H5 H 0.0407 0.2218 0.5947
C8 C 0.42370(17) 0.42877(15) 0.36504(9)
C9 C 0.29946(17) 0.08060(14) 0.28307(9)
C10 C 0.43315(16) 0.21745(14) 0.33173(9)
C11 C 0.65620(17) 0.18151(15) 0.13232(9)
H6 H 0.7114 0.2605 0.1268
C12 C 0.35488(18) 0.07568(15) 0.60690(10)
H7 H 0.4037 0.0134 0.6430
C13 C 0.31158(17) 0.14326(14) 0.33982(9)
H8 H 0.2347 0.1351 0.3853
C14 C 0.16291(18) 0.00637(16) 0.29091(10)
H9 H 0.1035 0.0542 0.2518
H10 H 0.1047 -0.0070 0.3453
H11 H 0.1914 -0.0765 0.2808
C15 C 0.86411(17) 0.30791(16) 0.34918(9)
C16 C 0.54624(16) 0.23070(14) 0.26424(9)
C17 C 0.82899(18) 0.21614(17) 0.42249(10)
H12 H 0.8126 0.1305 0.4237
C18 C 0.58644(17) 0.20829(15) 0.05757(9)
C19 C 0.32513(19) 0.48275(16) 0.31478(10)
H13 H 0.2663 0.4292 0.2991
C20 C 0.77084(18) 0.07471(16) 0.13628(9)
C21 C 0.89608(18) 0.43076(16) 0.34947(10)
H14 H 0.9242 0.4940 0.3000
C22 C 0.94549(17) 0.39132(15) 0.18274(9)
C23 C 0.21523(18) 0.25790(16) 0.50174(10)
H15 H 0.1663 0.3208 0.4661
C24 C 0.50750(18) 0.50967(17) 0.38757(10)
H16 H 0.5742 0.4743 0.4229
C25 C 0.6156(2) 0.13814(17) 0.00276(10)
H17 H 0.6795 0.0658 0.0116
C26 C 0.4592(2) 0.27489(18) -0.07934(11)
H18 H 0.4160 0.2974 -0.1260
C27 C 0.5528(2) 0.17171(18) -0.06547(11)
H19 H 0.5749 0.1226 -0.1031
C28 C 1.09946(18) 0.39189(17) 0.17596(10)
H20 H 1.1480 0.3238 0.2085
C29 C 0.91740(19) 0.10621(19) 0.10273(10)
H21 H 0.9439 0.1935 0.0805
C30 C 0.4924(2) 0.31230(18) 0.04296(11)
H22 H 0.4711 0.3622 0.0801
C31 C 0.4949(2) 0.64027(18) 0.35929(12)
H23 H 0.5537 0.6943 0.3747
C32 C 0.7350(2) -0.05291(17) 0.16868(11)
H24 H 0.6355 -0.0765 0.1923
C33 C 0.87893(19) 0.48885(16) 0.13167(10)
H25 H 0.7749 0.4886 0.1350
C34 C 0.3116(2) 0.61400(17) 0.28725(11)
H26 H 0.2428 0.6502 0.2533
C35 C 0.88735(19) 0.46145(19) 0.42046(11)
H27 H 0.9105 0.5455 0.4197
C36 C 0.81777(19) 0.2486(2) 0.49362(11)
H28 H 0.7909 0.1858 0.5434
C37 C 0.84537(19) 0.3715(2) 0.49260(11)
H29 H 0.8355 0.3942 0.5415
C38 C 0.3980(2) 0.69266(17) 0.30902(12)
H30 H 0.3903 0.7828 0.2892
C39 C 1.1122(2) 0.58884(18) 0.07165(11)
H31 H 1.1686 0.6572 0.0342
C40 C 0.8435(2) -0.14683(19) 0.16689(12)
H32 H 0.8177 -0.2343 0.1891
C41 C 0.9609(2) 0.58537(18) 0.07654(11)
H33 H 0.9137 0.6506 0.0413
C42 C 1.17990(19) 0.49253(18) 0.12141(11)
H34 H 1.2837 0.4950 0.1184
C43 C 0.4289(2) 0.34514(19) -0.02454(11)
H35 H 0.3639 0.4167 -0.0331
C44 C 1.0255(2) 0.0127(2) 0.10117(12)
H36 H 1.1252 0.0359 0.0780
C45 C 0.9886(2) -0.1137(2) 0.13302(12)
H37 H 1.0626 -0.1782 0.1318
H38 H 0.637(2) 0.3768(19) 0.2688(11)
loop_
_geom_bond_atom_site_label_1
_geom_bond_atom_site_label_2
_geom_bond_site_symmetry_1
_geom_bond_site_symmetry_2
P1 N1 1_555 1_555
N1 C16 1_555 1_555
C1 H1 1_555 1_555
C2 C1 1_555 1_555
C3 C4 1_555 1_555
C4 H2 1_555 1_555
C5 C3 1_555 1_555
H3 C5 1_555 1_555
C6 H4 1_555 1_555
C7 C6 1_555 1_555
H5 C7 1_555 1_555
C8 C5 1_555 1_555
C9 C1 1_555 1_555
C10 C5 1_555 1_555
C11 C2 1_555 1_555
H6 C11 1_555 1_555
C12 C4 1_555 1_555
H7 C12 1_555 1_555
C13 C9 1_555 1_555
H8 C13 1_555 1_555
C14 C9 1_555 1_555
H9 C14 1_555 1_555
H10 C14 1_555 1_555
H11 C14 1_555 1_555
C15 P1 1_555 1_555
C16 C2 1_555 1_555
C17 C15 1_555 1_555
H12 C17 1_555 1_555
C18 C11 1_555 1_555
C19 C8 1_555 1_555
H13 C19 1_555 1_555
C20 C11 1_555 1_555
C21 C15 1_555 1_555
H14 C21 1_555 1_555
C22 P1 1_555 1_555
C23 C3 1_555 1_555
H15 C23 1_555 1_555
C24 C8 1_555 1_555
H16 C24 1_555 1_555
C25 C18 1_555 1_555
H17 C25 1_555 1_555
C26 H18 1_555 1_555
C27 C25 1_555 1_555
H19 C27 1_555 1_555
C28 C22 1_555 1_555
H20 C28 1_555 1_555
C29 C20 1_555 1_555
H21 C29 1_555 1_555
C30 C18 1_555 1_555
H22 C30 1_555 1_555
C31 C24 1_555 1_555
H23 C31 1_555 1_555
C32 C20 1_555 1_555
H24 C32 1_555 1_555
C33 C22 1_555 1_555
H25 C33 1_555 1_555
C34 C19 1_555 1_555
H26 C34 1_555 1_555
C35 C21 1_555 1_555
H27 C35 1_555 1_555
C36 C17 1_555 1_555
H28 C36 1_555 1_555
C37 C35 1_555 1_555
H29 C37 1_555 1_555
C38 C31 1_555 1_555
H30 C38 1_555 1_555
C39 H31 1_555 1_555
C40 C32 1_555 1_555
H32 C40 1_555 1_555
C41 C33 1_555 1_555
H33 C41 1_555 1_555
C42 C28 1_555 1_555
H34 C42 1_555 1_555
C43 C26 1_555 1_555
H35 C43 1_555 1_555
C44 C29 1_555 1_555
H36 C44 1_555 1_555
C45 C40 1_555 1_555
H37 C45 1_555 1_555
H38 N1 1_555 1_555
C6 C12 1_555 1_555
C7 C23 1_555 1_555
C10 C13 1_555 1_555
C10 C16 1_555 1_555
C26 C27 1_555 1_555
C30 C43 1_555 1_555
C34 C38 1_555 1_555
C36 C37 1_555 1_555
C39 C41 1_555 1_555
C39 C42 1_555 1_555
C44 C45 1_555 1_555

#END
