
#######################################################################
#
#                 Cambridge Crystallographic Data Centre
#                                CCDC 
#
#######################################################################
#
# If this CIF has been generated from an entry in the Cambridge 
# Structural Database, then it will include bibliographic, chemical, 
# crystal, experimental, refinement or atomic coordinate data resulting 
# from the CCDC's data processing and validation procedures.
#
#######################################################################

data_VIHBEW
_chemical_name_common            
(Z)-N-(2-Benzoyl-1-cyanohex-1-en-1-yl)-N,4-dimethylbenzenesulfonamide
_chemical_formula_moiety         'C22 H24 N2 O3 S1'
_chemical_name_systematic        
(Z)-2-[cyano(phenyl)methylidene]-N-methyl-N-[(4-methylphenyl)sulfonyl]hexanamide
_symmetry_cell_setting           triclinic
_symmetry_space_group_name_H-M   'P -1'
_symmetry_Int_Tables_number      2
_space_group_name_Hall           '-P 1'
loop_
_symmetry_equiv_pos_site_id
_symmetry_equiv_pos_as_xyz
1 x,y,z
2 -x,-y,-z
_cell_length_a                   9.4120(5)
_cell_length_b                   9.7759(5)
_cell_length_c                   12.8558(8)
_cell_angle_alpha                107.607(5)
_cell_angle_beta                 102.418(5)
_cell_angle_gamma                107.422(5)
_cell_volume                     1013.18
_exptl_crystal_colour            colorless
_exptl_crystal_description       block
_cell_formula_units_Z            2
_exptl_crystal_recrystallization_method dichloromethane/hexanes
loop_
_atom_site_label
_atom_site_type_symbol
_atom_site_fract_x
_atom_site_fract_y
_atom_site_fract_z
S1 S 0.85639(4) 0.62691(3) 0.53230(2)
O1 O 0.95952(10) 0.59669(11) 0.25740(8)
O2 O 0.98266(11) 0.63742(11) 0.62324(8)
O3 O 0.71817(11) 0.48606(10) 0.47195(8)
N1 N 0.93764(12) 0.66485(12) 0.43543(9)
N2 N 0.73698(14) 0.85680(14) 0.28971(11)
C1 C 0.87517(15) 0.58162(14) 0.31562(11)
C2 C 0.70035(15) 0.48328(15) 0.25852(10)
C3 C 0.60763(15) 0.55838(14) 0.23249(11)
C4 C 0.68116(15) 0.72483(15) 0.26478(11)
C5 C 0.64890(15) 0.30960(14) 0.22224(11)
H1 H 0.5321 0.2602 0.1891
H2 H 0.6814 0.2873 0.2918
C6 C 0.71762(15) 0.23530(15) 0.13291(11)
H3 H 0.6696 0.2388 0.0578
H4 H 0.8331 0.2953 0.1593
C7 C 0.68489(16) 0.06640(15) 0.11710(12)
H5 H 0.5692 0.0076 0.0907
H6 H 0.7313 0.0641 0.1930
C8 C 0.75134(18) -0.01507(17) 0.03027(13)
H7 H 0.7049 -0.0147 -0.0455
H8 H 0.7254 -0.1229 0.0235
H9 H 0.8664 0.0402 0.0571
C9 C 0.43333(15) 0.48895(14) 0.17208(11)
C10 C 0.36997(15) 0.51891(15) 0.07653(11)
H10 H 0.4384 0.5829 0.0502
C11 C 0.20763(16) 0.45563(16) 0.01993(11)
H11 H 0.1654 0.4736 -0.0464
C12 C 0.10756(16) 0.36633(16) 0.06059(11)
H12 H -0.0035 0.3233 0.0223
C13 C 0.16944(16) 0.33955(16) 0.15741(12)
H13 H 0.1003 0.2798 0.1858
C14 C 0.33175(16) 0.39977(15) 0.21274(11)
H14 H 0.3735 0.3801 0.2783
C15 C 0.79772(15) 0.78082(15) 0.58798(11)
C16 C 0.90630(16) 0.91537(15) 0.68190(11)
H15 H 1.0118 0.9258 0.7134
C17 C 0.85839(17) 1.03388(16) 0.72887(12)
H16 H 0.9322 1.1262 0.7928
C18 C 0.70369(18) 1.02006(17) 0.68402(13)
C19 C 0.59705(17) 0.88358(18) 0.59066(13)
H17 H 0.4911 0.8725 0.5597
C20 C 0.64247(16) 0.76324(17) 0.54186(12)
H18 H 0.5688 0.6707 0.4781
C21 C 0.6547(2) 1.1511(2) 0.73593(16)
H19 H 0.6544 1.1602 0.8139
H20 H 0.5483 1.1292 0.6873
H21 H 0.7293 1.2490 0.7404
C22 C 1.10328(15) 0.77827(16) 0.48187(12)
H22 H 1.1256 0.8506 0.5609
H23 H 1.1199 0.8368 0.4327
H24 H 1.1743 0.7227 0.4829
loop_
_geom_bond_atom_site_label_1
_geom_bond_atom_site_label_2
_geom_bond_site_symmetry_1
_geom_bond_site_symmetry_2
S1 O2 1_555 1_555
O1 C1 1_555 1_555
O3 S1 1_555 1_555
N1 S1 1_555 1_555
N2 C4 1_555 1_555
C1 N1 1_555 1_555
C2 C1 1_555 1_555
C3 C2 1_555 1_555
C4 C3 1_555 1_555
C5 C2 1_555 1_555
H1 C5 1_555 1_555
H2 C5 1_555 1_555
C6 C5 1_555 1_555
H3 C6 1_555 1_555
H4 C6 1_555 1_555
C7 C6 1_555 1_555
H5 C7 1_555 1_555
H6 C7 1_555 1_555
C8 C7 1_555 1_555
H7 C8 1_555 1_555
H8 C8 1_555 1_555
H9 C8 1_555 1_555
C9 C3 1_555 1_555
C10 C9 1_555 1_555
H10 C10 1_555 1_555
C11 C10 1_555 1_555
H11 C11 1_555 1_555
C12 C11 1_555 1_555
H12 C12 1_555 1_555
C13 C12 1_555 1_555
H13 C13 1_555 1_555
C14 C9 1_555 1_555
H14 C14 1_555 1_555
C15 S1 1_555 1_555
C16 C15 1_555 1_555
H15 C16 1_555 1_555
C17 C16 1_555 1_555
H16 C17 1_555 1_555
C18 C17 1_555 1_555
C19 C18 1_555 1_555
H17 C19 1_555 1_555
C20 C15 1_555 1_555
H18 C20 1_555 1_555
C21 C18 1_555 1_555
H19 C21 1_555 1_555
H20 C21 1_555 1_555
H21 C21 1_555 1_555
C22 N1 1_555 1_555
H22 C22 1_555 1_555
H23 C22 1_555 1_555
H24 C22 1_555 1_555
C13 C14 1_555 1_555
C19 C20 1_555 1_555

#END
