
#######################################################################
#
#                 Cambridge Crystallographic Data Centre
#                                CCDC 
#
#######################################################################
#
# If this CIF has been generated from an entry in the Cambridge 
# Structural Database, then it will include bibliographic, chemical, 
# crystal, experimental, refinement or atomic coordinate data resulting 
# from the CCDC's data processing and validation procedures.
#
#######################################################################

data_VIHGUP
_chemical_formula_moiety         'C23 H25 Cl2 N1 O2'
_chemical_name_systematic        
3,3,6,6-Tetramethyl-9-(2,4-dichlorophenyl)-3,4,6,7,9,10-hexahydro-2H,5H-acridine-1,8-dione
_symmetry_cell_setting           monoclinic
_symmetry_space_group_name_H-M   'P 21/c'
_symmetry_Int_Tables_number      14
_space_group_name_Hall           '-P 2ybc'
loop_
_symmetry_equiv_pos_site_id
_symmetry_equiv_pos_as_xyz
1 x,y,z
2 -x,1/2+y,1/2-z
3 -x,-y,-z
4 x,1/2-y,1/2+z
_cell_length_a                   9.826(3)
_cell_length_b                   19.866(5)
_cell_length_c                   11.471(3)
_cell_angle_alpha                90
_cell_angle_beta                 111.929(4)
_cell_angle_gamma                90
_cell_volume                     2077.17
_exptl_crystal_colour            yellow
_exptl_crystal_description       block
_chemical_melting_point          'above 300 deg.C'
_cell_formula_units_Z            4
_exptl_crystal_recrystallization_method '95% ethanol'
loop_
_atom_site_label
_atom_site_type_symbol
_atom_site_fract_x
_atom_site_fract_y
_atom_site_fract_z
Cl1 Cl 0.48150(13) 0.50625(6) 1.31220(10)
Cl2 Cl 0.17696(17) 0.31042(8) 1.42255(14)
N1 N 0.3734(3) 0.36731(13) 0.8162(2)
H1 H 0.3570 0.3469 0.7461
O1 O 0.6983(3) 0.39532(15) 1.2343(3)
O2 O 0.1977(3) 0.52598(14) 1.0292(3)
C1 C 0.4993(4) 0.35550(19) 0.9169(4)
C2 C 0.6007(4) 0.3098(2) 0.8847(4)
H2 H 0.6563 0.3360 0.8464
H3 H 0.5433 0.2770 0.8235
C3 C 0.7071(4) 0.27297(19) 0.9993(4)
C4 C 0.7752(4) 0.3249(2) 1.1019(4)
H4 H 0.8342 0.3015 1.1783
H5 H 0.8407 0.3531 1.0774
C5 C 0.6674(4) 0.3695(2) 1.1303(4)
C6 C 0.5262(4) 0.38389(18) 1.0291(3)
C7 C 0.4201(4) 0.43014(18) 1.0566(3)
H6 H 0.4698 0.4729 1.0886
C8 C 0.2923(4) 0.44355(19) 0.9350(3)
C9 C 0.1797(4) 0.49265(19) 0.9351(4)
C10 C 0.0470(4) 0.50165(19) 0.8162(4)
H7 H 0.0634 0.5400 0.7708
H8 H -0.0366 0.5121 0.8386
C11 C 0.0084(4) 0.4408(2) 0.7284(4)
C12 C 0.1477(4) 0.4209(2) 0.7073(4)
H9 H 0.1303 0.3793 0.6596
H10 H 0.1712 0.4556 0.6582
C13 C 0.2740(4) 0.41174(19) 0.8275(3)
C14 C 0.3673(4) 0.40053(18) 1.1546(3)
C15 C 0.3870(4) 0.43086(19) 1.2685(4)
C16 C 0.3311(5) 0.4027(2) 1.3524(4)
H11 H 0.3464 0.4235 1.4289
C17 C 0.2532(5) 0.3439(2) 1.3208(4)
C18 C 0.2328(4) 0.3123(2) 1.2108(4)
H12 H 0.1808 0.2721 1.1909
C19 C 0.2898(4) 0.3404(2) 1.1284(4)
H13 H 0.2758 0.3183 1.0533
C20 C 0.6253(5) 0.2194(2) 1.0426(4)
H14 H 0.5826 0.1873 0.9763
H15 H 0.5492 0.2403 1.0634
H16 H 0.6926 0.1968 1.1153
C21 C 0.8266(4) 0.2393(2) 0.9646(4)
H17 H 0.7829 0.2065 0.8999
H18 H 0.8957 0.2176 1.0373
H19 H 0.8762 0.2728 0.9346
C22 C -0.0437(5) 0.3836(2) 0.7901(4)
H20 H 0.0325 0.3722 0.8688
H21 H -0.0669 0.3450 0.7359
H22 H -0.1296 0.3976 0.8046
C23 C -0.1117(5) 0.4590(2) 0.6032(4)
H23 H -0.0780 0.4946 0.5643
H24 H -0.1975 0.4734 0.6172
H25 H -0.1352 0.4202 0.5492
loop_
_geom_bond_atom_site_label_1
_geom_bond_atom_site_label_2
_geom_bond_site_symmetry_1
_geom_bond_site_symmetry_2
Cl1 C15 1_555 1_555
Cl2 C17 1_555 1_555
N1 H1 1_555 1_555
O1 C5 1_555 1_555
O2 C9 1_555 1_555
C1 N1 1_555 1_555
C2 C1 1_555 1_555
H2 C2 1_555 1_555
H3 C2 1_555 1_555
C3 C2 1_555 1_555
C4 C3 1_555 1_555
H4 C4 1_555 1_555
H5 C4 1_555 1_555
C5 C4 1_555 1_555
C6 C1 1_555 1_555
C7 C6 1_555 1_555
H6 C7 1_555 1_555
C8 C7 1_555 1_555
C9 C8 1_555 1_555
C10 C9 1_555 1_555
H7 C10 1_555 1_555
H8 C10 1_555 1_555
C11 C10 1_555 1_555
C12 C11 1_555 1_555
H9 C12 1_555 1_555
H10 C12 1_555 1_555
C13 N1 1_555 1_555
C14 C7 1_555 1_555
C15 C14 1_555 1_555
C16 C15 1_555 1_555
H11 C16 1_555 1_555
C17 C16 1_555 1_555
C18 C17 1_555 1_555
H12 C18 1_555 1_555
C19 C14 1_555 1_555
H13 C19 1_555 1_555
C20 C3 1_555 1_555
H14 C20 1_555 1_555
H15 C20 1_555 1_555
H16 C20 1_555 1_555
C21 C3 1_555 1_555
H17 C21 1_555 1_555
H18 C21 1_555 1_555
H19 C21 1_555 1_555
C22 C11 1_555 1_555
H20 C22 1_555 1_555
H21 C22 1_555 1_555
H22 C22 1_555 1_555
C23 C11 1_555 1_555
H23 C23 1_555 1_555
H24 C23 1_555 1_555
H25 C23 1_555 1_555
C5 C6 1_555 1_555
C8 C13 1_555 1_555
C12 C13 1_555 1_555
C18 C19 1_555 1_555

#END
