
#######################################################################
#
#                 Cambridge Crystallographic Data Centre
#                                CCDC 
#
#######################################################################
#
# If this CIF has been generated from an entry in the Cambridge 
# Structural Database, then it will include bibliographic, chemical, 
# crystal, experimental, refinement or atomic coordinate data resulting 
# from the CCDC's data processing and validation procedures.
#
#######################################################################

data_VIHGUQ
_chemical_formula_moiety         'H24 N8 Rb2,H12 B12'
_chemical_name_systematic        
'tetrakis(\m~2~-ammine)-tetrakis(ammine)-di-rubidium dodecahydro-closo-dodecaborate'
_symmetry_cell_setting           orthorhombic
_symmetry_space_group_name_H-M   'P n n m'
_symmetry_Int_Tables_number      58
_space_group_name_Hall           '-P 2 2n'
loop_
_symmetry_equiv_pos_site_id
_symmetry_equiv_pos_as_xyz
1 x,y,z
2 -x,-y,z
3 1/2-x,1/2+y,1/2-z
4 1/2+x,1/2-y,1/2-z
5 -x,-y,-z
6 x,y,-z
7 1/2+x,1/2-y,1/2+z
8 1/2-x,1/2+y,1/2+z
_cell_length_a                   14.4166(6)
_cell_length_b                   7.8221(3)
_cell_length_c                   9.5792(4)
_cell_angle_alpha                90
_cell_angle_beta                 90
_cell_angle_gamma                90
_cell_volume                     1080.23
_exptl_crystal_colour            colorless
_exptl_crystal_description       plate
_cell_formula_units_Z            2
loop_
_atom_site_label
_atom_site_type_symbol
_atom_site_fract_x
_atom_site_fract_y
_atom_site_fract_z
Rb1 Rb 0.0000 0.0000 0.201195(12)
N1 N 0.20850(9) 0.04139(17) 0.30268(11)
H1 H 0.2630(16) 0.030(2) 0.270(2)
H2 H 0.2028(10) 0.132(2) 0.3493(16)
H3 H 0.2046(11) -0.041(2) 0.3583(18)
N2 N 0.14291(11) 0.1740(2) 0.0000
H4 H 0.1436(16) 0.281(3) 0.0000
H5 H 0.1748(10) 0.1595(18) 0.0717(15)
N3 N 0.08471(14) -0.2923(3) 0.0000
H6 H 0.137(2) -0.287(4) 0.0000
H7 H 0.0692(12) -0.361(2) 0.072(2)
H5E H 0.1748(10) 0.1595(18) -0.0717(15)
H7E H 0.0692(12) -0.361(2) -0.072(2)
N1A N -0.20850(9) -0.04139(17) 0.30268(11)
H1A H -0.2630(16) -0.030(2) 0.270(2)
H2A H -0.2028(10) -0.132(2) 0.3493(16)
H3A H -0.2046(11) 0.041(2) 0.3583(18)
N2A N -0.14291(11) -0.1740(2) 0.0000
H4A H -0.1436(16) -0.281(3) 0.0000
H5A H -0.1748(10) -0.1595(18) 0.0717(15)
N3A N -0.08471(14) 0.2923(3) 0.0000
H6A H -0.137(2) 0.287(4) 0.0000
H7A H -0.0692(12) 0.361(2) 0.072(2)
H5D H -0.1748(10) -0.1595(18) -0.0717(15)
H7D H -0.0692(12) 0.361(2) -0.072(2)
Rb1D Rb 0.0000 0.0000 -0.201195(12)
N1D N -0.20850(9) -0.04139(17) -0.30268(11)
H1D H -0.2630(16) -0.030(2) -0.270(2)
H2D H -0.2028(10) -0.132(2) -0.3493(16)
H3D H -0.2046(11) 0.041(2) -0.3583(18)
N1E N 0.20850(9) 0.04139(17) -0.30268(11)
H1E H 0.2630(16) 0.030(2) -0.270(2)
H2E H 0.2028(10) 0.132(2) -0.3493(16)
H3E H 0.2046(11) -0.041(2) -0.3583(18)
B1 B 0.11390(11) 0.4448(2) 0.5000
B2 B 0.02423(11) 0.2876(2) 0.5000
B3 B 0.04278(9) 0.41739(14) 0.34963(12)
B4 B 0.07245(8) 0.62674(14) 0.40715(12)
H8 H 0.1867(9) 0.4045(18) 0.5000
H9 H 0.0416(10) 0.1553(18) 0.5000
H10 H 0.0695(7) 0.3654(13) 0.2492(11)
H11 H 0.1208(7) 0.7096(13) 0.3483(11)
B1A B -0.11390(11) 0.5552(2) 0.5000
B2A B -0.02423(11) 0.7124(2) 0.5000
B3A B -0.04278(9) 0.58261(14) 0.34963(12)
H8A H -0.1867(9) 0.5955(18) 0.5000
H9A H -0.0416(10) 0.8447(18) 0.5000
H10A H -0.0695(7) 0.6346(13) 0.2492(11)
B4A B -0.07245(8) 0.37326(14) 0.40715(12)
H11A H -0.1208(7) 0.2904(13) 0.3483(11)
B3D B -0.04278(9) 0.58261(14) 0.65037(12)
H10D H -0.0695(7) 0.6346(13) 0.7508(11)
B4D B -0.07245(8) 0.37326(14) 0.59285(12)
H11D H -0.1208(7) 0.2904(13) 0.6517(11)
B3E B 0.04278(9) 0.41739(14) 0.65037(12)
H10E H 0.0695(7) 0.3654(13) 0.7508(11)
B4E B 0.07245(8) 0.62674(14) 0.59285(12)
H11E H 0.1208(7) 0.7096(13) 0.6517(11)
loop_
_geom_bond_atom_site_label_1
_geom_bond_atom_site_label_2
_geom_bond_site_symmetry_1
_geom_bond_site_symmetry_2
Rb1 N1 1_555 1_555
N1 H1 1_555 1_555
H2 N1 1_555 1_555
H3 N1 1_555 1_555
N2 Rb1 1_555 1_555
H4 N2 1_555 1_555
H5 N2 1_555 1_555
N3 Rb1 1_555 1_555
H6 N3 1_555 1_555
H7 N3 1_555 1_555
B1 B2 1_555 1_555
B2 B3 1_555 1_555
B3 B1 1_555 1_555
B4 B1 1_555 1_555
H8 B1 1_555 1_555
H9 B2 1_555 1_555
H10 B3 1_555 1_555
H11 B4 1_555 1_555
H5E N2 1_555 1_555
H7E N3 1_555 1_555
N1A Rb1 1_555 1_555
H1A N1A 1_555 1_555
H2A N1A 1_555 1_555
H3A N1A 1_555 1_555
N2A Rb1 1_555 1_555
H4A N2A 1_555 1_555
H5A N2A 1_555 1_555
N3A Rb1 1_555 1_555
H6A N3A 1_555 1_555
H7A N3A 1_555 1_555
H5D N2A 1_555 1_555
H7D N3A 1_555 1_555
Rb1D N2 1_555 1_555
N1D Rb1D 1_555 1_555
H1D N1D 1_555 1_555
H2D N1D 1_555 1_555
H3D N1D 1_555 1_555
N1E Rb1D 1_555 1_555
H1E N1E 1_555 1_555
H2E N1E 1_555 1_555
H3E N1E 1_555 1_555
B1A B2A 1_555 1_555
B2A B4 1_555 1_555
B3A B3 1_555 1_555
H8A B1A 1_555 1_555
H9A B2A 1_555 1_555
H10A B3A 1_555 1_555
B4A B2 1_555 1_555
H11A B4A 1_555 1_555
B3D B1A 1_555 1_555
H10D B3D 1_555 1_555
B4D B2 1_555 1_555
H11D B4D 1_555 1_555
B3E B1 1_555 1_555
H10E B3E 1_555 1_555
B4E B1 1_555 1_555
H11E B4E 1_555 1_555
N3 Rb1D 1_555 1_555
B2 B3E 1_555 1_555
B3 B4 1_555 1_555
B3 B4A 1_555 1_555
B4 B3A 1_555 1_555
B4 B4E 1_555 1_555
N2A Rb1D 1_555 1_555
N3A Rb1D 1_555 1_555
B1A B3A 1_555 1_555
B1A B4A 1_555 1_555
B1A B4D 1_555 1_555
B2A B3A 1_555 1_555
B2A B3D 1_555 1_555
B2A B4E 1_555 1_555
B3A B4A 1_555 1_555
B4A B4D 1_555 1_555
B3D B4D 1_555 1_555
B3D B3E 1_555 1_555
B3D B4E 1_555 1_555
B4D B3E 1_555 1_555
B3E B4E 1_555 1_555

#END
