
#######################################################################
#
#                 Cambridge Crystallographic Data Centre
#                                CCDC 
#
#######################################################################
#
# If this CIF has been generated from an entry in the Cambridge 
# Structural Database, then it will include bibliographic, chemical, 
# crystal, experimental, refinement or atomic coordinate data resulting 
# from the CCDC's data processing and validation procedures.
#
#######################################################################

data_VIHHAX
_chemical_name_common            'PDB Chemical Component code: NH3'
_chemical_formula_moiety         '6(H3 N1),2(Cs1 1+),H12 B12 2-'
_chemical_name_systematic        
'di-cesium dodecahydro-closo-dodecaborate ammine'
_symmetry_cell_setting           orthorhombic
_symmetry_space_group_name_H-M   'P b c a'
_symmetry_Int_Tables_number      61
_space_group_name_Hall           '-P 2ac 2ab'
loop_
_symmetry_equiv_pos_site_id
_symmetry_equiv_pos_as_xyz
1 x,y,z
2 1/2-x,-y,1/2+z
3 1/2+x,1/2-y,-z
4 -x,1/2+y,1/2-z
5 -x,-y,-z
6 1/2+x,y,1/2-z
7 1/2-x,1/2+y,z
8 x,1/2-y,1/2+z
_cell_length_a                   7.7569(8)
_cell_length_b                   14.0865(14)
_cell_length_c                   18.0748(17)
_cell_angle_alpha                90
_cell_angle_beta                 90
_cell_angle_gamma                90
_cell_volume                     1974.99
_exptl_crystal_colour            colorless
_exptl_crystal_description       plate
_cell_formula_units_Z            4
loop_
_atom_site_label
_atom_site_type_symbol
_atom_site_fract_x
_atom_site_fract_y
_atom_site_fract_z
Cs1 Cs 0.011920(14) 0.324379(9) 0.100025(7)
B1 B 0.0431(3) 0.06166(18) 0.07745(14)
H1 H 0.073(2) 0.1043(13) 0.1264(10)
B2 B -0.1171(3) 0.09780(18) 0.01417(15)
H2 H -0.191(2) 0.1609(14) 0.0253(11)
B3 B -0.1481(3) -0.00528(18) 0.06778(14)
H3 H -0.245(2) -0.0071(14) 0.1131(10)
B4 B 0.0540(3) -0.06331(17) 0.07579(14)
H4 H 0.090(2) -0.1077(13) 0.1249(11)
B5 B 0.2069(3) 0.00451(18) 0.02627(14)
H5 H 0.346(2) 0.0078(13) 0.0410(11)
B6 B 0.1011(3) 0.10382(18) -0.01116(14)
H6 H 0.156(2) 0.1705(14) -0.0195(11)
B1D B -0.0431(3) -0.06166(18) -0.07745(14)
H1D H -0.073(2) -0.1043(13) -0.1264(10)
B2D B 0.1171(3) -0.09780(18) -0.01417(15)
H2D H 0.191(2) -0.1609(14) -0.0253(11)
B3D B 0.1481(3) 0.00528(18) -0.06778(14)
H3D H 0.245(2) 0.0071(14) -0.1131(10)
B4D B -0.0540(3) 0.06331(17) -0.07579(14)
H4D H -0.090(2) 0.1077(13) -0.1249(11)
B5D B -0.2069(3) -0.00451(18) -0.02627(14)
H5D H -0.346(2) -0.0078(13) -0.0410(11)
B6D B -0.1011(3) -0.10382(18) 0.01116(14)
H6D H -0.156(2) -0.1705(14) 0.0195(11)
N1 N 0.1126(4) 0.48385(18) 0.22331(15)
H7 H 0.060(4) 0.534(2) 0.2079(18)
H8 H 0.090(4) 0.490(2) 0.2700(17)
H9 H 0.209(4) 0.490(2) 0.2154(18)
N2 N -0.2248(3) 0.2620(2) 0.23118(14)
H10 H -0.172(3) 0.237(2) 0.2678(15)
H11 H -0.261(3) 0.313(2) 0.2467(17)
H12 H -0.309(4) 0.229(2) 0.2228(16)
N3 N -0.0219(3) 0.32256(18) -0.12021(12)
H13 H -0.113(3) 0.3472(17) -0.1037(13)
H14 H 0.068(4) 0.351(2) -0.1093(16)
H15 H -0.011(3) 0.261(2) -0.1056(16)
loop_
_geom_bond_atom_site_label_1
_geom_bond_atom_site_label_2
_geom_bond_site_symmetry_1
_geom_bond_site_symmetry_2
B1 H1 1_555 1_555
B2 B1 1_555 1_555
H2 B2 1_555 1_555
B3 B1 1_555 1_555
H3 B3 1_555 1_555
B4 B1 1_555 1_555
H4 B4 1_555 1_555
B5 B1 1_555 1_555
H5 B5 1_555 1_555
B6 B1 1_555 1_555
H6 B6 1_555 1_555
N1 H7 1_555 1_555
H8 N1 1_555 1_555
H9 N1 1_555 1_555
N2 H10 1_555 1_555
H11 N2 1_555 1_555
H12 N2 1_555 1_555
N3 H13 1_555 1_555
H14 N3 1_555 1_555
H15 N3 1_555 1_555
B1D H1D 1_555 1_555
B2D B4 1_555 1_555
H2D B2D 1_555 1_555
B3D B5 1_555 1_555
H3D B3D 1_555 1_555
B4D B2 1_555 1_555
H4D B4D 1_555 1_555
B5D B2 1_555 1_555
H5D B5D 1_555 1_555
B6D B3 1_555 1_555
H6D B6D 1_555 1_555
B2 B3 1_555 1_555
B2 B6 1_555 1_555
B3 B4 1_555 1_555
B3 B5D 1_555 1_555
B4 B5 1_555 1_555
B4 B6D 1_555 1_555
B5 B6 1_555 1_555
B5 B2D 1_555 1_555
B6 B3D 1_555 1_555
B6 B4D 1_555 1_555
B1D B2D 1_555 1_555
B1D B3D 1_555 1_555
B1D B4D 1_555 1_555
B1D B5D 1_555 1_555
B1D B6D 1_555 1_555
B2D B3D 1_555 1_555
B2D B6D 1_555 1_555
B3D B4D 1_555 1_555
B4D B5D 1_555 1_555
B5D B6D 1_555 1_555

#END
