
#######################################################################
#
#                 Cambridge Crystallographic Data Centre
#                                CCDC 
#
#######################################################################
#
# If this CIF has been generated from an entry in the Cambridge 
# Structural Database, then it will include bibliographic, chemical, 
# crystal, experimental, refinement or atomic coordinate data resulting 
# from the CCDC's data processing and validation procedures.
#
#######################################################################

data_VIHJII
_chemical_formula_moiety         'C15 H10 O7,C5 H5 N3 O1,H2 O1'
_chemical_name_systematic        
'2-(3,4-dihydroxyphenyl)-3,5,7-trihydroxy-4H-1-benzopyran-4-one pyrazine-2-carboxamide monohydrate'
_symmetry_cell_setting           monoclinic
_symmetry_space_group_name_H-M   'P 21/n'
_symmetry_Int_Tables_number      14
_space_group_name_Hall           '-P 2yn'
loop_
_symmetry_equiv_pos_site_id
_symmetry_equiv_pos_as_xyz
1 x,y,z
2 1/2-x,1/2+y,1/2-z
3 -x,-y,-z
4 1/2+x,1/2-y,1/2+z
_cell_length_a                   8.7586(14)
_cell_length_b                   23.793(4)
_cell_length_c                   10.0121(17)
_cell_angle_alpha                90
_cell_angle_beta                 114.555(5)
_cell_angle_gamma                90
_cell_volume                     1897.76
_exptl_crystal_colour            yellow
_exptl_crystal_description       needle
_cell_formula_units_Z            4
loop_
_atom_site_label
_atom_site_type_symbol
_atom_site_fract_x
_atom_site_fract_y
_atom_site_fract_z
O1 O 0.6454(2) 0.21489(7) 0.9258(2)
O2 O 0.8438(3) 0.35180(9) 1.0087(3)
H1 H 0.952(5) 0.3548(15) 1.035(4)
O3 O 1.1115(3) 0.28318(8) 1.0958(3)
O4 O 1.2363(2) 0.18271(9) 1.1160(3)
H2 H 1.222(4) 0.2236(16) 1.118(4)
O5 O 0.8570(3) 0.03107(8) 0.9603(3)
H3 H 0.9436 0.0129 1.0004
O6 O 0.0516(3) 0.26536(9) 0.7524(3)
H4 H 0.062(4) 0.2289(8) 0.752(4)
O7 O 0.0309(3) 0.37694(9) 0.7095(3)
H5 H -0.055(5) 0.3535(16) 0.690(4)
C1 C 0.6638(4) 0.27267(11) 0.9379(3)
C2 C 0.8202(4) 0.29525(11) 0.9927(3)
C3 C 0.9676(4) 0.26093(12) 1.0403(3)
C4 C 0.9425(4) 0.20167(12) 1.0211(3)
C5 C 1.0768(4) 0.16341(13) 1.0606(4)
C6 C 1.0479(4) 0.10668(14) 1.0418(4)
H6 H 1.142(4) 0.0820(12) 1.068(3)
C7 C 0.8831(4) 0.08731(12) 0.9816(4)
C8 C 0.7475(4) 0.12318(12) 0.9410(4)
H7 H 0.632(4) 0.1087(11) 0.900(3)
C9 C 0.7811(4) 0.18000(12) 0.9635(3)
C10 C 0.5010(3) 0.30063(12) 0.8839(3)
C11 C 0.3547(4) 0.26920(13) 0.8501(3)
H8 H 0.361(3) 0.2298(12) 0.863(3)
C12 C 0.1985(4) 0.29383(12) 0.7919(4)
C13 C 0.1848(4) 0.35148(12) 0.7690(3)
C14 C 0.3268(4) 0.38369(13) 0.8044(4)
H9 H 0.315(3) 0.4267(12) 0.785(3)
C15 C 0.4839(4) 0.35863(12) 0.8604(4)
H10 H 0.587(4) 0.3793(11) 0.884(3)
O8 O 0.0995(3) 0.42980(9) 1.0645(3)
N1 N 0.5277(4) 0.46439(11) 1.1785(3)
N2 N 0.5628(3) 0.34864(11) 1.2262(3)
N3 N 0.2246(4) 0.51269(13) 1.0682(5)
H12 H 0.132(6) 0.5326(19) 1.028(5)
H13 H 0.336(6) 0.5273(18) 1.093(5)
C16 C 0.3953(4) 0.43076(13) 1.1487(3)
C17 C 0.4120(4) 0.37341(14) 1.1721(4)
H14 H 0.310(4) 0.3484(12) 1.151(3)
C18 C 0.6941(5) 0.38240(16) 1.2544(4)
H15 H 0.806(4) 0.3662(14) 1.300(4)
C19 C 0.6783(5) 0.43932(16) 1.2315(5)
H16 H 0.782(4) 0.4648(15) 1.258(4)
C20 C 0.2269(4) 0.45765(14) 1.0904(4)
O9 O 0.5450(3) -0.01085(10) 0.8865(3)
H17 H 0.5173 -0.0444 0.8479
H18 H 0.6492 -0.0040 0.9044
H11? H 0.7590 0.0223 0.9386
H19? H 0.5313 -0.0085 0.9686
loop_
_geom_bond_atom_site_label_1
_geom_bond_atom_site_label_2
_geom_bond_site_symmetry_1
_geom_bond_site_symmetry_2
O1 C1 1_555 1_555
O2 H1 1_555 1_555
O3 C3 1_555 1_555
O4 H2 1_555 1_555
O5 H3 1_555 1_555
O6 H4 1_555 1_555
O7 H5 1_555 1_555
C1 C2 1_555 1_555
C2 O2 1_555 1_555
C3 C2 1_555 1_555
C4 C3 1_555 1_555
C5 O4 1_555 1_555
C6 C5 1_555 1_555
H6 C6 1_555 1_555
C7 O5 1_555 1_555
C8 C7 1_555 1_555
H7 C8 1_555 1_555
C9 O1 1_555 1_555
C10 C1 1_555 1_555
C11 C10 1_555 1_555
H8 C11 1_555 1_555
C12 O6 1_555 1_555
C13 O7 1_555 1_555
C14 C13 1_555 1_555
H9 C14 1_555 1_555
C15 C10 1_555 1_555
H10 C15 1_555 1_555
O8 C20 1_555 1_555
N1 C16 1_555 1_555
N2 C17 1_555 1_555
N3 H12 1_555 1_555
H13 N3 1_555 1_555
C16 C17 1_555 1_555
C17 H14 1_555 1_555
C18 N2 1_555 1_555
H15 C18 1_555 1_555
C19 N1 1_555 1_555
H16 C19 1_555 1_555
C20 N3 1_555 1_555
O9 H17 1_555 1_555
H18 O9 1_555 1_555
C4 C5 1_555 1_555
C4 C9 1_555 1_555
C6 C7 1_555 1_555
C8 C9 1_555 1_555
C11 C12 1_555 1_555
C12 C13 1_555 1_555
C14 C15 1_555 1_555
C16 C20 1_555 1_555
C18 C19 1_555 1_555

#END
