
#######################################################################
#
#                 Cambridge Crystallographic Data Centre
#                                CCDC 
#
#######################################################################
#
# If this CIF has been generated from an entry in the Cambridge 
# Structural Database, then it will include bibliographic, chemical, 
# crystal, experimental, refinement or atomic coordinate data resulting 
# from the CCDC's data processing and validation procedures.
#
#######################################################################

data_VIHJAA
_chemical_compound_source        'twigs and leaves of Croton mangelong'
_chemical_name_common            '(-)-Mangelonoid A'
_chemical_formula_moiety         'C20 H32 O2'
_chemical_name_systematic        
(11R,12S,15R)-5,9-dimethyl-12-isopropylbicyclo[9.3.1]pentadeca-1,5,9-triene-12,15-diol
_chemical_properties_biological  
'Nuclear factor-kappaB (NF-kappaB) inhibitory activity'
_symmetry_cell_setting           monoclinic
_symmetry_space_group_name_H-M   'P 21'
_symmetry_Int_Tables_number      4
_space_group_name_Hall           'P 2yb'
loop_
_symmetry_equiv_pos_site_id
_symmetry_equiv_pos_as_xyz
1 x,y,z
2 -x,1/2+y,-z
_cell_length_a                   8.7036(4)
_cell_length_b                   9.5190(4)
_cell_length_c                   11.8750(5)
_cell_angle_alpha                90
_cell_angle_beta                 110.6190(10)
_cell_angle_gamma                90
_cell_volume                     920.817
_exptl_crystal_colour            colorless
_exptl_crystal_description       prismatic
_cell_formula_units_Z            2
_exptl_crystal_recrystallization_method methanol
loop_
_atom_site_label
_atom_site_type_symbol
_atom_site_fract_x
_atom_site_fract_y
_atom_site_fract_z
O1 O 0.6367(2) 0.2636(2) 0.52611(17)
O2 O 0.4124(3) 0.4676(2) 0.51961(17)
C1 C 0.7418(3) 0.3051(3) 0.6460(2)
C2 C 0.6995(3) 0.4613(2) 0.65836(19)
H1 H 0.7207 0.5144 0.5947
C3 C 0.8042(3) 0.5231(3) 0.7773(2)
H2 H 0.8247 0.4654 0.8442
C4 C 0.8705(3) 0.6498(3) 0.7978(2)
C5 C 0.9494(3) 0.7018(4) 0.9249(3)
H3 H 1.0481 0.7538 0.9317
H4 H 0.9811 0.6221 0.9790
C6 C 0.8324(4) 0.7974(4) 0.9627(3)
H5 H 0.8899 0.8334 1.0430
H6 H 0.8004 0.8769 0.9082
C7 C 0.6830(4) 0.7209(4) 0.9614(3)
H7 H 0.7002 0.6456 1.0143
C8 C 0.5271(4) 0.7469(4) 0.8936(3)
C9 C 0.3892(5) 0.6602(5) 0.9034(4)
H8 H 0.3096 0.7222 0.9178
H9 H 0.4318 0.5985 0.9724
C10 C 0.3013(4) 0.5707(4) 0.7912(3)
H10 H 0.1885 0.5563 0.7856
H11 H 0.2992 0.6225 0.7204
C11 C 0.3786(3) 0.4305(4) 0.7905(3)
H12 H 0.3634 0.3641 0.8431
C12 C 0.4664(3) 0.3878(3) 0.7247(2)
C13 C 0.5164(4) 0.2360(3) 0.7249(3)
H13 H 0.4465 0.1922 0.6508
H14 H 0.4979 0.1881 0.7911
C14 C 0.6953(3) 0.2152(3) 0.7366(2)
H15 H 0.7135 0.1169 0.7237
H16 H 0.7659 0.2397 0.8176
C15 C 0.9238(3) 0.2894(3) 0.6585(3)
H17 H 0.9891 0.3345 0.7345
C16 C 0.9622(5) 0.3662(6) 0.5592(4)
H18 H 1.0756 0.3526 0.5695
H19 H 0.9409 0.4647 0.5631
H20 H 0.8943 0.3298 0.4824
C17 C 0.9803(5) 0.1354(5) 0.6670(5)
H21 H 0.9161 0.0863 0.5952
H22 H 0.9660 0.0919 0.7355
H23 H 1.0941 0.1320 0.6755
C18 C 0.8637(6) 0.7531(4) 0.7008(4)
H24 H 0.8174 0.7086 0.6237
H25 H 0.9727 0.7851 0.7119
H26 H 0.7968 0.8317 0.7049
C19 C 0.4772(6) 0.8640(5) 0.8038(5)
H27 H 0.4001 0.9238 0.8218
H28 H 0.4272 0.8257 0.7245
H29 H 0.5724 0.9176 0.8076
C20 C 0.5182(3) 0.4833(3) 0.6436(2)
H30 H 0.5068 0.5802 0.6675
H31 H 0.466(5) 0.409(5) 0.498(4)
H32 H 0.652(5) 0.171(6) 0.527(4)
loop_
_geom_bond_atom_site_label_1
_geom_bond_atom_site_label_2
_geom_bond_site_symmetry_1
_geom_bond_site_symmetry_2
O1 C1 1_555 1_555
O2 C20 1_555 1_555
C1 C2 1_555 1_555
C2 H1 1_555 1_555
C3 C2 1_555 1_555
H2 C3 1_555 1_555
C4 C3 1_555 1_555
C5 C4 1_555 1_555
H3 C5 1_555 1_555
H4 C5 1_555 1_555
C6 C5 1_555 1_555
H5 C6 1_555 1_555
H6 C6 1_555 1_555
C7 C6 1_555 1_555
H7 C7 1_555 1_555
C8 C7 1_555 1_555
C9 C8 1_555 1_555
H8 C9 1_555 1_555
H9 C9 1_555 1_555
C10 C9 1_555 1_555
H10 C10 1_555 1_555
H11 C10 1_555 1_555
C11 C10 1_555 1_555
H12 C11 1_555 1_555
C12 C11 1_555 1_555
C13 C12 1_555 1_555
H13 C13 1_555 1_555
H14 C13 1_555 1_555
C14 C1 1_555 1_555
H15 C14 1_555 1_555
H16 C14 1_555 1_555
C15 C1 1_555 1_555
H17 C15 1_555 1_555
C16 C15 1_555 1_555
H18 C16 1_555 1_555
H19 C16 1_555 1_555
H20 C16 1_555 1_555
C17 C15 1_555 1_555
H21 C17 1_555 1_555
H22 C17 1_555 1_555
H23 C17 1_555 1_555
C18 C4 1_555 1_555
H24 C18 1_555 1_555
H25 C18 1_555 1_555
H26 C18 1_555 1_555
C19 C8 1_555 1_555
H27 C19 1_555 1_555
H28 C19 1_555 1_555
H29 C19 1_555 1_555
C20 C2 1_555 1_555
H30 C20 1_555 1_555
H31 O2 1_555 1_555
H32 O1 1_555 1_555
C12 C20 1_555 1_555
C13 C14 1_555 1_555

#END
