
#######################################################################
#
#                 Cambridge Crystallographic Data Centre
#                                CCDC 
#
#######################################################################
#
# If this CIF has been generated from an entry in the Cambridge 
# Structural Database, then it will include bibliographic, chemical, 
# crystal, experimental, refinement or atomic coordinate data resulting 
# from the CCDC's data processing and validation procedures.
#
#######################################################################

data_VIHLUV
_chemical_formula_moiety         'C15 H13 N1 O3 S2'
_chemical_name_systematic        
6-Cyclohexyl-5H-[1,3]dithiolo[4,5-f]isoindole-2,5,7(6H)-trione
_symmetry_cell_setting           triclinic
_symmetry_space_group_name_H-M   'P -1'
_symmetry_Int_Tables_number      2
_space_group_name_Hall           '-P 1'
loop_
_symmetry_equiv_pos_site_id
_symmetry_equiv_pos_as_xyz
1 x,y,z
2 -x,-y,-z
_cell_length_a                   5.5064(6)
_cell_length_b                   10.0751(12)
_cell_length_c                   13.8441(13)
_cell_angle_alpha                104.474(9)
_cell_angle_beta                 92.046(8)
_cell_angle_gamma                101.598(8)
_cell_volume                     725.479
_exptl_crystal_colour            white
_exptl_crystal_description       Block
_cell_formula_units_Z            2
loop_
_atom_site_label
_atom_site_type_symbol
_atom_site_fract_x
_atom_site_fract_y
_atom_site_fract_z
S1 S 0.50794(12) 0.89182(8) 0.26423(5)
S2 S 0.02257(12) 0.70323(7) 0.27097(5)
O1 O 0.2326(4) 0.5937(2) 0.65239(14)
O2 O 0.9631(3) 0.90436(19) 0.65251(12)
O3 O 0.1269(4) 0.8318(2) 0.12937(15)
N1 N 0.6173(4) 0.7484(2) 0.67862(14)
C1 C 0.7134(6) 0.6083(3) 0.79348(19)
H1 H 0.8371 0.5751 0.7512
H2 H 0.5551 0.5425 0.7710
C2 C 0.7879(6) 0.6137(3) 0.9018(2)
H3 H 0.7889 0.5195 0.9071
H4 H 0.9551 0.6704 0.9216
C3 C 0.6108(6) 0.6748(3) 0.9718(2)
H5 H 0.4469 0.6132 0.9565
H6 H 0.6678 0.6815 1.0404
C4 C 0.5947(6) 0.8181(3) 0.96189(19)
H7 H 0.7557 0.8818 0.9828
H8 H 0.4755 0.8538 1.0056
C5 C 0.5155(6) 0.8135(3) 0.85454(19)
H9 H 0.3478 0.7573 0.8356
H10 H 0.5150 0.9079 0.8496
C6 C 0.6917(5) 0.7512(3) 0.78346(17)
H11 H 0.8570 0.8133 0.8023
C7 C 0.7586(4) 0.8297(2) 0.62424(17)
C8 C 0.6094(4) 0.8071(2) 0.52797(17)
C9 C 0.6580(4) 0.8645(2) 0.44874(16)
H12 H 0.8084 0.9257 0.4479
C10 C 0.4722(4) 0.8272(2) 0.36949(17)
C11 C 0.2031(5) 0.8133(3) 0.20620(19)
C12 C 0.2441(4) 0.7357(2) 0.37171(17)
C13 C 0.1990(5) 0.6775(3) 0.45248(18)
H13 H 0.0495 0.6163 0.4545
C14 C 0.3859(4) 0.7147(2) 0.52903(17)
C15 C 0.3902(5) 0.6744(3) 0.62487(18)
loop_
_geom_bond_atom_site_label_1
_geom_bond_atom_site_label_2
_geom_bond_site_symmetry_1
_geom_bond_site_symmetry_2
S1 C10 1_555 1_555
S2 C11 1_555 1_555
O1 C15 1_555 1_555
O2 C7 1_555 1_555
O3 C11 1_555 1_555
N1 C6 1_555 1_555
C1 H1 1_555 1_555
H2 C1 1_555 1_555
C2 C1 1_555 1_555
H3 C2 1_555 1_555
H4 C2 1_555 1_555
C3 C2 1_555 1_555
H5 C3 1_555 1_555
H6 C3 1_555 1_555
C4 C3 1_555 1_555
H7 C4 1_555 1_555
H8 C4 1_555 1_555
C5 C4 1_555 1_555
H9 C5 1_555 1_555
H10 C5 1_555 1_555
C6 C1 1_555 1_555
H11 C6 1_555 1_555
C7 N1 1_555 1_555
C8 C7 1_555 1_555
C9 C8 1_555 1_555
H12 C9 1_555 1_555
C10 C9 1_555 1_555
C11 S1 1_555 1_555
C12 S2 1_555 1_555
C13 C12 1_555 1_555
H13 C13 1_555 1_555
C14 C8 1_555 1_555
C15 N1 1_555 1_555
C5 C6 1_555 1_555
C10 C12 1_555 1_555
C13 C14 1_555 1_555
C14 C15 1_555 1_555

#END
