
#######################################################################
#
#                 Cambridge Crystallographic Data Centre
#                                CCDC 
#
#######################################################################
#
# If this CIF has been generated from an entry in the Cambridge 
# Structural Database, then it will include bibliographic, chemical, 
# crystal, experimental, refinement or atomic coordinate data resulting 
# from the CCDC's data processing and validation procedures.
#
#######################################################################

data_VIHLUT
_chemical_formula_moiety         'C16 H15 N1 O2 Te1'
_chemical_name_systematic        
Acetoxy-(1-(N-(4'-methylanilino)benzal))-tellurium
_symmetry_cell_setting           monoclinic
_symmetry_space_group_name_H-M   'P 21/a'
_symmetry_Int_Tables_number      14
_space_group_name_Hall           '-P 2yab'
loop_
_symmetry_equiv_pos_site_id
_symmetry_equiv_pos_as_xyz
1 x,y,z
2 1/2-x,1/2+y,-z
3 -x,-y,-z
4 1/2+x,1/2-y,z
_cell_length_a                   10.284(1)
_cell_length_b                   14.585(1)
_cell_length_c                   10.585(2)
_cell_angle_alpha                90
_cell_angle_beta                 105.98(1)
_cell_angle_gamma                90
_cell_volume                     1526.32
_cell_formula_units_Z            4
loop_
_atom_site_label
_atom_site_type_symbol
_atom_site_fract_x
_atom_site_fract_y
_atom_site_fract_z
Te1 Te 0.1798(1) 0.2979(1) 0.3702(1)
O1 O 0.2705(8) 0.3287(4) 0.2137(6)
O2 O 0.3086(9) 0.4690(4) 0.2883(8)
N1 N 0.0985(6) 0.2141(4) 0.5158(6)
C1 C 0.2069(7) 0.1618(5) 0.3222(7)
C2 C 0.2699(8) 0.1341(6) 0.2251(8)
C3 C 0.2837(9) 0.0405(6) 0.2071(9)
C4 C 0.2390(9) -0.0249(6) 0.2800(9)
C5 C 0.1796(8) 0.0028(6) 0.3742(8)
C6 C 0.1644(7) 0.0956(5) 0.3979(8)
C7 C 0.1082(8) 0.1268(5) 0.5001(8)
C8 C 0.0575(7) 0.2497(6) 0.6218(7)
C9 C 0.0928(11) 0.2071(7) 0.7418(10)
C10 C 0.0544(11) 0.2463(9) 0.8463(10)
C11 C -0.0203(8) 0.3255(7) 0.8304(9)
C12 C -0.0550(8) 0.3677(7) 0.7127(9)
C13 C -0.0156(8) 0.3312(6) 0.6057(8)
C14 C -0.0606(12) 0.3698(11) 0.9439(12)
C15 C 0.3138(8) 0.4102(5) 0.2108(8)
C16 C 0.3828(10) 0.4264(8) 0.1021(10)
loop_
_geom_bond_atom_site_label_1
_geom_bond_atom_site_label_2
_geom_bond_site_symmetry_1
_geom_bond_site_symmetry_2
Te1 O1 1_555 1_555
O1 C15 1_555 1_555
O2 C15 1_555 1_555
N1 Te1 1_555 1_555
C1 Te1 1_555 1_555
C2 C1 1_555 1_555
C3 C2 1_555 1_555
C4 C3 1_555 1_555
C5 C4 1_555 1_555
C6 C1 1_555 1_555
C7 N1 1_555 1_555
C8 N1 1_555 1_555
C9 C8 1_555 1_555
C10 C9 1_555 1_555
C11 C10 1_555 1_555
C12 C11 1_555 1_555
C13 C8 1_555 1_555
C14 C11 1_555 1_555
C15 C16 1_555 1_555
C5 C6 1_555 1_555
C6 C7 1_555 1_555
C12 C13 1_555 1_555

#END
