
#######################################################################
#
#                 Cambridge Crystallographic Data Centre
#                                CCDC 
#
#######################################################################
#
# If this CIF has been generated from an entry in the Cambridge 
# Structural Database, then it will include bibliographic, chemical, 
# crystal, experimental, refinement or atomic coordinate data resulting 
# from the CCDC's data processing and validation procedures.
#
#######################################################################

data_VIHPOT
_chemical_formula_moiety         'C19 H16 N4 O4 S2'
_chemical_name_systematic        
"4,4'-((6-(Dimethylamino)-1,3,5-triazine-2,4-diyl)disulfanediyl)dibenzoic acid"
_symmetry_cell_setting           monoclinic
_symmetry_space_group_name_H-M   'C 2/c'
_symmetry_Int_Tables_number      15
_space_group_name_Hall           '-C 2yn'
loop_
_symmetry_equiv_pos_site_id
_symmetry_equiv_pos_as_xyz
1 x,y,z
2 -x,y,1/2-z
3 1/2+x,1/2+y,z
4 1/2-x,1/2+y,1/2-z
5 -x,-y,-z
6 x,-y,1/2+z
7 1/2-x,1/2-y,-z
8 1/2+x,1/2-y,1/2+z
_cell_length_a                   21.523(6)
_cell_length_b                   9.531(3)
_cell_length_c                   19.115(5)
_cell_angle_alpha                90
_cell_angle_beta                 92.700(4)
_cell_angle_gamma                90
_cell_volume                     3916.82
_exptl_crystal_colour            colorless
_exptl_crystal_description       block
_cell_formula_units_Z            8
loop_
_atom_site_label
_atom_site_type_symbol
_atom_site_fract_x
_atom_site_fract_y
_atom_site_fract_z
S1 S 0.29723(3) 1.09727(8) 0.59791(4)
S2 S 0.14550(3) 0.87924(8) 0.39612(4)
N1 N 0.18212(10) 1.0371(2) 0.61126(10)
N2 N 0.11382(9) 0.9390(2) 0.52179(11)
N3 N 0.07960(10) 0.9901(2) 0.63190(11)
O1 O 0.40811(8) 0.85357(19) 0.22208(11)
H1 H 0.4377 0.8750 0.1987
N4 N 0.21945(9) 0.9872(2) 0.49865(10)
C1 C 0.44002(11) 1.0499(3) 0.43274(13)
C2 C 0.12622(12) 0.9891(3) 0.58719(13)
O2 O 0.51696(9) 1.14417(19) 0.36268(11)
H2 H 0.5424 1.1250 0.3335
O3 O 0.49925(9) 0.9141(2) 0.35680(11)
O4 O 0.39976(9) 1.0865(2) 0.23200(11)
C3 C 0.22528(11) 1.0328(2) 0.56430(13)
C4 C 0.48826(11) 1.0306(3) 0.38051(14)
C5 C 0.32503(11) 0.9427(3) 0.28458(12)
C6 C 0.34916(11) 1.0765(3) 0.52987(13)
C7 C 0.40391(11) 0.9364(3) 0.44955(15)
H3 H 0.4101 0.8503 0.4280
C8 C 0.38128(12) 0.9675(3) 0.24403(13)
C9 C 0.24827(12) 0.7905(3) 0.33035(13)
H4 H 0.2332 0.7004 0.3374
C10 C 0.21706(11) 0.9048(3) 0.35531(12)
C11 C 0.38562(12) 1.1902(3) 0.51338(14)
H5 H 0.3795 1.2762 0.5350
C12 C 0.16201(11) 0.9427(2) 0.48123(13)
C13 C 0.43086(12) 1.1769(3) 0.46525(15)
H6 H 0.4553 1.2538 0.4546
C14 C 0.30215(12) 0.8100(3) 0.29474(13)
H7 H 0.3230 0.7327 0.2776
C15 C 0.29406(12) 1.0571(3) 0.31050(14)
H8 H 0.3098 1.1469 0.3045
C16 C 0.24005(13) 1.0386(3) 0.34525(14)
H9 H 0.2190 1.1160 0.3620
C17 C 0.35882(12) 0.9487(3) 0.49776(14)
H10 H 0.3348 0.8714 0.5088
C18 C 0.01724(13) 0.9437(3) 0.60998(17)
H11 H 0.0189 0.8903 0.5675
H12 H -0.0091 1.0240 0.6020
H13 H 0.0008 0.8863 0.6460
C19 C 0.08916(14) 1.0451(4) 0.70270(15)
H14 H 0.0726 0.9802 0.7354
H15 H 0.0683 1.1337 0.7061
H16 H 0.1329 1.0576 0.7132
loop_
_geom_bond_atom_site_label_1
_geom_bond_atom_site_label_2
_geom_bond_site_symmetry_1
_geom_bond_site_symmetry_2
S1 C3 1_555 1_555
S2 C10 1_555 1_555
N1 C2 1_555 1_555
N2 C2 1_555 1_555
N3 C2 1_555 1_555
O1 H1 1_555 1_555
N4 C3 1_555 1_555
C1 C4 1_555 1_555
O2 H2 1_555 1_555
O3 C4 1_555 1_555
O4 C8 1_555 1_555
C3 N1 1_555 1_555
C4 O2 1_555 1_555
C5 C8 1_555 1_555
C6 S1 1_555 1_555
C7 C1 1_555 1_555
H3 C7 1_555 1_555
C8 O1 1_555 1_555
C9 H4 1_555 1_555
C10 C9 1_555 1_555
C11 C6 1_555 1_555
H5 C11 1_555 1_555
C12 S2 1_555 1_555
C13 C1 1_555 1_555
H6 C13 1_555 1_555
C14 C5 1_555 1_555
H7 C14 1_555 1_555
C15 C5 1_555 1_555
H8 C15 1_555 1_555
C16 C10 1_555 1_555
H9 C16 1_555 1_555
C17 C6 1_555 1_555
H10 C17 1_555 1_555
C18 N3 1_555 1_555
H11 C18 1_555 1_555
H12 C18 1_555 1_555
H13 C18 1_555 1_555
C19 N3 1_555 1_555
H14 C19 1_555 1_555
H15 C19 1_555 1_555
H16 C19 1_555 1_555
N2 C12 1_555 1_555
N4 C12 1_555 1_555
C7 C17 1_555 1_555
C9 C14 1_555 1_555
C11 C13 1_555 1_555
C15 C16 1_555 1_555

#END
