
#######################################################################
#
#                 Cambridge Crystallographic Data Centre
#                                CCDC 
#
#######################################################################
#
# If this CIF has been generated from an entry in the Cambridge 
# Structural Database, then it will include bibliographic, chemical, 
# crystal, experimental, refinement or atomic coordinate data resulting 
# from the CCDC's data processing and validation procedures.
#
#######################################################################

data_VIHQEI
_chemical_formula_moiety         'C34 H42 N2 O4'
_chemical_name_systematic        
4,13-bis(2-Naphthylmethyl)-4,13-diaza-1,7,10,16-tetraoxacyclohexadecane
_symmetry_cell_setting           triclinic
_symmetry_space_group_name_H-M   'P -1'
_symmetry_Int_Tables_number      2
_space_group_name_Hall           '-P 1'
loop_
_symmetry_equiv_pos_site_id
_symmetry_equiv_pos_as_xyz
1 x,y,z
2 -x,-y,-z
_cell_length_a                   7.3907(8)
_cell_length_b                   10.2449(11)
_cell_length_c                   11.1461(13)
_cell_angle_alpha                62.749(2)
_cell_angle_beta                 80.022(2)
_cell_angle_gamma                87.014(2)
_cell_volume                     738.572
_exptl_crystal_colour            colorless
_exptl_crystal_description       rhombohedroids
_cell_formula_units_Z            1
_exptl_crystal_recrystallization_method acetone
loop_
_atom_site_label
_atom_site_type_symbol
_atom_site_fract_x
_atom_site_fract_y
_atom_site_fract_z
O1 O 0.28208(13) 0.01445(10) 0.89881(10)
O2 O -0.17294(12) 0.28921(10) 0.99420(10)
N1 N 0.16627(14) 0.40186(11) 0.76398(11)
C1 C 0.30995(18) 0.76693(14) 0.55772(14)
H1 H 0.3672 0.7742 0.6245
C2 C 0.16834(17) 0.88468(14) 0.35197(13)
C3 C 0.10596(19) 1.01337(15) 0.24807(14)
H2 H 0.0526 1.0069 0.1792
C4 C 0.20415(18) 0.62184(15) 0.46361(14)
H3 H 0.1875 0.5284 0.4679
C5 C 0.28646(17) 0.63146(14) 0.56488(14)
C6 C 0.25077(17) 0.89652(14) 0.45281(13)
C7 C 0.33390(18) 0.49169(14) 0.68239(14)
H4 H 0.3969 0.5161 0.7414
H5 H 0.4188 0.4350 0.6463
C8 C 0.26525(19) 1.03655(15) 0.44723(14)
H6 H 0.3199 1.0462 0.5140
C9 C 0.2017(2) 1.15764(15) 0.34705(14)
H7 H 0.2113 1.2506 0.3453
C10 C 0.14813(19) 0.74405(15) 0.35994(14)
H8 H 0.0950 0.7347 0.2924
C11 C 0.30201(19) 0.16252(14) 0.79524(14)
H9 H 0.2423 0.1753 0.7178
H10 H 0.4336 0.1919 0.7605
C12 C 0.05328(18) 0.47615(14) 0.83480(14)
H11 H 0.1043 0.4578 0.9174
H12 H 0.0629 0.5833 0.7739
C13 C -0.14760(18) 0.42885(14) 0.87747(14)
H13 H -0.1931 0.4241 0.8010
H14 H -0.2196 0.5021 0.8987
C14 C 0.12200(19) 1.14620(15) 0.24632(15)
H15 H 0.0791 1.2315 0.1767
C15 C 0.20958(18) 0.25363(14) 0.86223(13)
H16 H 0.0944 0.2019 0.9226
H17 H 0.2911 0.2619 0.9203
C16 C -0.35701(19) 0.23499(15) 1.02876(17)
H18 H -0.4397 0.3011 1.0538
H19 H -0.3946 0.2321 0.9490
C17 C 0.3727(2) -0.08411(15) 0.85350(16)
H20 H 0.5038 -0.0535 0.8174
H21 H 0.3159 -0.0835 0.7791
C17A C -0.3727(2) 0.08411(15) 1.14650(16)
O1A O -0.28208(13) -0.01445(10) 1.10119(10)
C11A C -0.30201(19) -0.16252(14) 1.20476(14)
H9A H -0.2423 -0.1753 1.2822
H10A H -0.4336 -0.1919 1.2395
C15A C -0.20958(18) -0.25363(14) 1.13777(13)
N1A N -0.16627(14) -0.40186(11) 1.23602(11)
C7A C -0.33390(18) -0.49169(14) 1.31761(14)
C5A C -0.28646(17) -0.63146(14) 1.43512(14)
C1A C -0.30995(18) -0.76693(14) 1.44228(14)
H1A H -0.3672 -0.7742 1.3755
C6A C -0.25077(17) -0.89652(14) 1.54719(13)
C2A C -0.16834(17) -0.88468(14) 1.64803(13)
C3A C -0.10596(19) -1.01337(15) 1.75193(14)
H2A H -0.0526 -1.0069 1.8208
C14A C -0.12200(19) -1.14620(15) 1.75368(15)
C9A C -0.2017(2) -1.15764(15) 1.65295(14)
C8A C -0.26525(19) -1.03655(15) 1.55277(14)
H6A H -0.3199 -1.0462 1.4860
H7A H -0.2113 -1.2506 1.6547
H15A H -0.0791 -1.2315 1.8233
C10A C -0.14813(19) -0.74405(15) 1.64006(14)
C4A C -0.20415(18) -0.62184(15) 1.53639(14)
H3A H -0.1875 -0.5284 1.5321
H8A H -0.0950 -0.7347 1.7076
H4A H -0.3969 -0.5161 1.2586
H5A H -0.4188 -0.4350 1.3537
C12A C -0.05328(18) -0.47615(14) 1.16520(14)
H11A H -0.1043 -0.4578 1.0826
H12A H -0.0629 -0.5833 1.2261
C13A C 0.14760(18) -0.42885(14) 1.12253(14)
O2A O 0.17294(12) -0.28921(10) 1.00580(10)
C16A C 0.35701(19) -0.23499(15) 0.97124(17)
H18A H 0.4397 -0.3011 0.9462
H19A H 0.3946 -0.2321 1.0510
H13A H 0.1931 -0.4241 1.1990
H14A H 0.2196 -0.5021 1.1013
H16A H -0.0944 -0.2019 1.0774
H17A H -0.2911 -0.2619 1.0797
H20A H -0.5038 0.0535 1.1826
H21A H -0.3159 0.0835 1.2209
loop_
_geom_bond_atom_site_label_1
_geom_bond_atom_site_label_2
_geom_bond_site_symmetry_1
_geom_bond_site_symmetry_2
O1 C11 1_555 1_555
O2 C13 1_555 1_555
N1 C7 1_555 1_555
C1 H1 1_555 1_555
C2 C3 1_555 1_555
C3 H2 1_555 1_555
C4 H3 1_555 1_555
C5 C1 1_555 1_555
C6 C1 1_555 1_555
C7 C5 1_555 1_555
H4 C7 1_555 1_555
H5 C7 1_555 1_555
C8 C6 1_555 1_555
H6 C8 1_555 1_555
C9 C8 1_555 1_555
H7 C9 1_555 1_555
C10 C2 1_555 1_555
H8 C10 1_555 1_555
C11 H9 1_555 1_555
H10 C11 1_555 1_555
C12 N1 1_555 1_555
H11 C12 1_555 1_555
H12 C12 1_555 1_555
C13 C12 1_555 1_555
H13 C13 1_555 1_555
H14 C13 1_555 1_555
C14 C3 1_555 1_555
H15 C14 1_555 1_555
C15 N1 1_555 1_555
H16 C15 1_555 1_555
H17 C15 1_555 1_555
C16 O2 1_555 1_555
H18 C16 1_555 1_555
H19 C16 1_555 1_555
C17 O1 1_555 1_555
H20 C17 1_555 1_555
H21 C17 1_555 1_555
C17A C16 1_555 1_555
O1A C17A 1_555 1_555
C11A O1A 1_555 1_555
H9A C11A 1_555 1_555
H10A C11A 1_555 1_555
C15A C11A 1_555 1_555
N1A C15A 1_555 1_555
C7A N1A 1_555 1_555
C5A C7A 1_555 1_555
C1A C5A 1_555 1_555
H1A C1A 1_555 1_555
C6A C1A 1_555 1_555
C2A C6A 1_555 1_555
C3A C2A 1_555 1_555
H2A C3A 1_555 1_555
C14A C3A 1_555 1_555
C9A C14A 1_555 1_555
C8A C6A 1_555 1_555
H6A C8A 1_555 1_555
H7A C9A 1_555 1_555
H15A C14A 1_555 1_555
C10A C2A 1_555 1_555
C4A C5A 1_555 1_555
H3A C4A 1_555 1_555
H8A C10A 1_555 1_555
H4A C7A 1_555 1_555
H5A C7A 1_555 1_555
C12A N1A 1_555 1_555
H11A C12A 1_555 1_555
H12A C12A 1_555 1_555
C13A C12A 1_555 1_555
O2A C13A 1_555 1_555
C16A C17 1_555 1_555
H18A C16A 1_555 1_555
H19A C16A 1_555 1_555
H13A C13A 1_555 1_555
H14A C13A 1_555 1_555
H16A C15A 1_555 1_555
H17A C15A 1_555 1_555
H20A C17A 1_555 1_555
H21A C17A 1_555 1_555
C2 C6 1_555 1_555
C4 C5 1_555 1_555
C4 C10 1_555 1_555
C9 C14 1_555 1_555
C11 C15 1_555 1_555
C9A C8A 1_555 1_555
C10A C4A 1_555 1_555
O2A C16A 1_555 1_555

#END
