
#######################################################################
#
#                 Cambridge Crystallographic Data Centre
#                                CCDC 
#
#######################################################################
#
# If this CIF has been generated from an entry in the Cambridge 
# Structural Database, then it will include bibliographic, chemical, 
# crystal, experimental, refinement or atomic coordinate data resulting 
# from the CCDC's data processing and validation procedures.
#
#######################################################################

data_VIHQUA
_chemical_formula_moiety         'C13 H5 N3 O1'
_chemical_name_systematic        5-Phenylfuran-2,3,4-tricarbonitrile
_symmetry_cell_setting           monoclinic
_symmetry_space_group_name_H-M   'P 21/n'
_symmetry_Int_Tables_number      14
_space_group_name_Hall           '-P 2yn'
loop_
_symmetry_equiv_pos_site_id
_symmetry_equiv_pos_as_xyz
1 x,y,z
2 1/2-x,1/2+y,1/2-z
3 -x,-y,-z
4 1/2+x,1/2-y,1/2+z
_cell_length_a                   7.4662(7)
_cell_length_b                   7.6626(9)
_cell_length_c                   19.5559(13)
_cell_angle_alpha                90
_cell_angle_beta                 100.914(6)
_cell_angle_gamma                90
_cell_volume                     1098.57
_exptl_crystal_colour            colorless
_exptl_crystal_description       block
_cell_formula_units_Z            4
loop_
_atom_site_label
_atom_site_type_symbol
_atom_site_fract_x
_atom_site_fract_y
_atom_site_fract_z
O1 O 0.29653(18) 0.93661(17) 0.08988(6)
C1 C 0.4713(3) 0.8779(2) 0.11106(9)
C2 C 0.5529(3) 0.7926(2) 0.05890(8)
C3 C 0.2432(3) 1.0150(2) 0.14506(9)
C4 C 0.4517(3) 0.7641(2) -0.00764(8)
H1 H 0.3308 0.8005 -0.0185
C5 C 0.7325(3) 0.7378(3) 0.07348(10)
H2 H 0.8017 0.7554 0.1177
C6 C 0.5270(3) 0.9193(2) 0.18002(8)
C7 C 0.3789(3) 1.0072(2) 0.20128(9)
C8 C 0.7077(4) 0.6291(3) -0.04209(11)
H3 H 0.7597 0.5738 -0.0759
C9 C 0.5297(4) 0.6823(3) -0.05740(9)
H4 H 0.4610 0.6630 -0.1016
C10 C 0.8101(3) 0.6575(3) 0.02328(11)
H5 H 0.9315 0.6225 0.0335
C11 C 0.0671(3) 1.0913(3) 0.13487(11)
N1 N -0.0711(3) 1.1566(3) 0.12877(11)
C12 C 0.3665(3) 1.0729(3) 0.26861(10)
N2 N 0.3532(3) 1.1233(2) 0.32202(9)
N3 N 0.8349(3) 0.8595(3) 0.25926(9)
C13 C 0.6980(3) 0.8852(3) 0.22321(9)
loop_
_geom_bond_atom_site_label_1
_geom_bond_atom_site_label_2
_geom_bond_site_symmetry_1
_geom_bond_site_symmetry_2
O1 C1 1_555 1_555
C1 C2 1_555 1_555
C2 C4 1_555 1_555
C3 O1 1_555 1_555
C4 H1 1_555 1_555
C5 C2 1_555 1_555
H2 C5 1_555 1_555
C6 C1 1_555 1_555
C7 C3 1_555 1_555
C8 H3 1_555 1_555
C9 C4 1_555 1_555
H4 C9 1_555 1_555
C10 C5 1_555 1_555
H5 C10 1_555 1_555
C11 C3 1_555 1_555
N1 C11 1_555 1_555
C12 C7 1_555 1_555
N2 C12 1_555 1_555
N3 C13 1_555 1_555
C13 C6 1_555 1_555
C6 C7 1_555 1_555
C8 C9 1_555 1_555
C8 C10 1_555 1_555

#END
