
#######################################################################
#
#                 Cambridge Crystallographic Data Centre
#                                CCDC 
#
#######################################################################
#
# If this CIF has been generated from an entry in the Cambridge 
# Structural Database, then it will include bibliographic, chemical, 
# crystal, experimental, refinement or atomic coordinate data resulting 
# from the CCDC's data processing and validation procedures.
#
#######################################################################

data_VIHQAE
_chemical_formula_moiety         'C34 H42 I1 K1 N2 O4'
_chemical_name_systematic        
(4,13-bis(1-Naphthylmethyl)-4,13-diaza-1,7,10,16-tetraoxacyclohexadecane)-iodo-potassium
_symmetry_cell_setting           orthorhombic
_symmetry_space_group_name_H-M   'P 21 21 21'
_symmetry_Int_Tables_number      19
_space_group_name_Hall           'P 2ac 2ab'
loop_
_symmetry_equiv_pos_site_id
_symmetry_equiv_pos_as_xyz
1 x,y,z
2 1/2-x,-y,1/2+z
3 1/2+x,1/2-y,-z
4 -x,1/2+y,1/2-z
_cell_length_a                   7.4024(4)
_cell_length_b                   10.5893(6)
_cell_length_c                   41.829(3)
_cell_angle_alpha                90
_cell_angle_beta                 90
_cell_angle_gamma                90
_cell_volume                     3278.82
_exptl_crystal_colour            colorless
_exptl_crystal_description       rhombohedroids
_cell_formula_units_Z            4
loop_
_atom_site_label
_atom_site_type_symbol
_atom_site_fract_x
_atom_site_fract_y
_atom_site_fract_z
I1 I 0.34810(3) 0.50587(2) 0.875769(5)
K1 K 0.49848(10) 0.83059(6) 0.87202(2)
O1 O 0.8260(3) 0.8082(2) 0.84790(5)
O2 O 0.3061(4) 1.04083(19) 0.84873(6)
C1 C 0.6586(5) 0.7633(3) 0.96240(7)
H1 H 0.6120 0.7166 0.9812
H2 H 0.7695 0.8081 0.9692
C2 C 0.4096(5) 1.1166(3) 0.82722(9)
H3 H 0.5204 1.1470 0.8380
H4 H 0.3381 1.1910 0.8205
C3 C 0.6520(6) 1.1412(3) 0.92870(8)
H5 H 0.5483 1.0915 0.9242
C4 C 0.3441(5) 0.7998(3) 0.94961(8)
H6 H 0.3085 0.7645 0.9706
H7 H 0.3534 0.7285 0.9344
C5 C 0.8974(5) 0.8771(4) 0.82190(9)
H8 H 0.9190 0.8199 0.8036
H9 H 1.0140 0.9159 0.8280
N1 N 0.5227(4) 0.8582(2) 0.95283(6)
C6 C 0.1350(6) 0.7486(3) 0.73902(9)
C7 C 0.4117(5) 0.7840(3) 0.77003(9)
C8 C 0.7091(5) 0.6684(3) 0.93672(8)
H10 H 0.7968 0.6065 0.9453
H11 H 0.6003 0.6219 0.9296
C9 C 0.7057(7) 1.2322(3) 0.90743(10)
H12 H 0.6367 1.2469 0.8886
C10 C 0.1243(5) 1.0283(3) 0.89575(9)
H13 H 0.0639 1.0779 0.9127
H14 H 0.0315 0.9780 0.8844
C11 C 0.6909(5) 1.0324(3) 0.98132(8)
C12 C 0.8611(7) 1.3037(3) 0.91317(10)
H15 H 0.8982 1.3652 0.8980
O3 O 0.2568(3) 0.9465(2) 0.90949(6)
N2 N 0.5815(4) 0.9318(2) 0.80494(7)
C13 C 0.4596(5) 1.0385(3) 0.79841(8)
H16 H 0.3474 1.0053 0.7887
H17 H 0.5178 1.0944 0.7825
C14 C 0.1975(5) 0.8875(3) 0.93832(9)
H18 H 0.0849 0.8395 0.9344
H19 H 0.1727 0.9522 0.9548
C15 C 0.9066(5) 1.1947(3) 0.96296(9)
C16 C 0.9591(6) 1.2862(3) 0.94009(10)
H20 H 1.0640 1.3358 0.9437
C17 C 0.3525(6) 0.9018(3) 0.71878(9)
H21 H 0.4635 0.9462 0.7206
C18 C 0.5170(5) 0.9597(3) 0.97736(8)
H22 H 0.4847 0.9215 0.9982
H23 H 0.4199 1.0199 0.9716
C19 C 0.0872(6) 0.6525(4) 0.76149(10)
H24 H -0.0233 0.6081 0.7589
C20 C 0.5916(5) 0.8473(3) 0.77671(9)
H25 H 0.6846 0.7818 0.7805
H26 H 0.6285 0.8970 0.7578
C21 C 0.1965(6) 0.6233(4) 0.78653(9)
H27 H 0.1641 0.5582 0.8010
C22 C 0.7490(5) 1.1203(3) 0.95726(9)
C23 C 0.7642(5) 0.9785(4) 0.81260(9)
H28 H 0.7548 1.0398 0.8304
H29 H 0.8120 1.0242 0.7938
C24 C 0.3560(6) 0.6902(3) 0.79058(8)
H30 H 0.4304 0.6702 0.8084
C25 C 0.7897(6) 1.0226(3) 1.00913(9)
H31 H 0.7494 0.9666 1.0254
C26 C 0.2174(5) 1.1145(3) 0.87290(10)
H32 H 0.1283 1.1718 0.8629
H33 H 0.3073 1.1666 0.8845
C27 C 0.3009(5) 0.8131(3) 0.74319(8)
O4 O 0.7870(3) 0.7346(2) 0.91045(6)
C28 C 0.8620(5) 0.6485(3) 0.88771(8)
H34 H 0.7651 0.5956 0.8784
H35 H 0.9504 0.5923 0.8983
C29 C 0.9532(5) 0.7230(3) 0.86192(8)
H36 H 1.0558 0.7709 0.8710
H37 H 1.0009 0.6651 0.8454
C30 C 1.0050(6) 1.1771(3) 0.99132(10)
H38 H 1.1124 1.2243 0.9947
C31 C 0.9483(6) 1.0928(3) 1.01418(10)
H39 H 1.0159 1.0821 1.0333
C32 C 0.0785(7) 0.8603(4) 0.68979(11)
H40 H 0.0036 0.8767 0.6718
C33 C 0.0265(7) 0.7768(4) 0.71229(11)
H41 H -0.0869 0.7357 0.7101
C34 C 0.2440(7) 0.9225(4) 0.69318(11)
H42 H 0.2813 0.9807 0.6772
loop_
_geom_bond_atom_site_label_1
_geom_bond_atom_site_label_2
_geom_bond_site_symmetry_1
_geom_bond_site_symmetry_2
I1 K1 1_555 1_555
K1 O1 1_555 1_555
O1 C5 1_555 1_555
O2 K1 1_555 1_555
C1 H1 1_555 1_555
H2 C1 1_555 1_555
C2 O2 1_555 1_555
H3 C2 1_555 1_555
H4 C2 1_555 1_555
C3 H5 1_555 1_555
C4 H6 1_555 1_555
H7 C4 1_555 1_555
C5 H8 1_555 1_555
H9 C5 1_555 1_555
N1 K1 1_555 1_555
C6 C19 1_555 1_555
C7 C20 1_555 1_555
C8 C1 1_555 1_555
H10 C8 1_555 1_555
H11 C8 1_555 1_555
C9 C3 1_555 1_555
H12 C9 1_555 1_555
C10 H13 1_555 1_555
H14 C10 1_555 1_555
C11 C18 1_555 1_555
C12 C9 1_555 1_555
H15 C12 1_555 1_555
O3 K1 1_555 1_555
N2 K1 1_555 1_555
C13 C2 1_555 1_555
H16 C13 1_555 1_555
H17 C13 1_555 1_555
C14 C4 1_555 1_555
H18 C14 1_555 1_555
H19 C14 1_555 1_555
C15 C16 1_555 1_555
C16 C12 1_555 1_555
H20 C16 1_555 1_555
C17 H21 1_555 1_555
C18 N1 1_555 1_555
H22 C18 1_555 1_555
H23 C18 1_555 1_555
C19 H24 1_555 1_555
C20 N2 1_555 1_555
H25 C20 1_555 1_555
H26 C20 1_555 1_555
C21 C19 1_555 1_555
H27 C21 1_555 1_555
C22 C3 1_555 1_555
C23 C5 1_555 1_555
H28 C23 1_555 1_555
H29 C23 1_555 1_555
C24 C7 1_555 1_555
H30 C24 1_555 1_555
C25 C11 1_555 1_555
H31 C25 1_555 1_555
C26 O2 1_555 1_555
H32 C26 1_555 1_555
H33 C26 1_555 1_555
C27 C6 1_555 1_555
O4 K1 1_555 1_555
C28 O4 1_555 1_555
H34 C28 1_555 1_555
H35 C28 1_555 1_555
C29 O1 1_555 1_555
H36 C29 1_555 1_555
H37 C29 1_555 1_555
C30 C15 1_555 1_555
H38 C30 1_555 1_555
C31 C25 1_555 1_555
H39 C31 1_555 1_555
C32 H40 1_555 1_555
C33 C6 1_555 1_555
H41 C33 1_555 1_555
C34 C17 1_555 1_555
H42 C34 1_555 1_555
C1 N1 1_555 1_555
C4 N1 1_555 1_555
C7 C27 1_555 1_555
C8 O4 1_555 1_555
C10 O3 1_555 1_555
C10 C26 1_555 1_555
C11 C22 1_555 1_555
O3 C14 1_555 1_555
N2 C13 1_555 1_555
N2 C23 1_555 1_555
C15 C22 1_555 1_555
C17 C27 1_555 1_555
C21 C24 1_555 1_555
C28 C29 1_555 1_555
C30 C31 1_555 1_555
C32 C33 1_555 1_555
C32 C34 1_555 1_555

#END
