
#######################################################################
#
#                 Cambridge Crystallographic Data Centre
#                                CCDC 
#
#######################################################################
#
# If this CIF has been generated from an entry in the Cambridge 
# Structural Database, then it will include bibliographic, chemical, 
# crystal, experimental, refinement or atomic coordinate data resulting 
# from the CCDC's data processing and validation procedures.
#
#######################################################################

data_VIHTIS
_chemical_formula_moiety         'C32 H30 N2 S4 Si2'
_chemical_name_systematic        
"2,2'-[5,11-bis(trimethylsilyl)cycloocta[1,2-b:4,3-b':5,6-b'':8,7-b''']tetrakisthiene-2,8-diyl]dipyridine unknown solvate"
_symmetry_cell_setting           monoclinic
_symmetry_space_group_name_H-M   'P 2/n'
_symmetry_Int_Tables_number      13
_space_group_name_Hall           '-P 2yac'
loop_
_symmetry_equiv_pos_site_id
_symmetry_equiv_pos_as_xyz
1 x,y,z
2 1/2-x,y,1/2-z
3 -x,-y,-z
4 1/2+x,-y,1/2+z
_cell_length_a                   13.0194(8)
_cell_length_b                   15.4229(6)
_cell_length_c                   36.4562(17)
_cell_angle_alpha                90
_cell_angle_beta                 93.608(4)
_cell_angle_gamma                90
_cell_volume                     7305.78
_exptl_crystal_description       block
_cell_formula_units_Z            8
loop_
_atom_site_label
_atom_site_type_symbol
_atom_site_fract_x
_atom_site_fract_y
_atom_site_fract_z
C1 C 0.8177(2) 0.9306(2) 0.37506(8)
C2 C 0.8700(3) 0.9087(2) 0.41052(8)
C3 C 0.9664(3) 0.8741(2) 0.41852(9)
C4 C 1.0398(3) 0.8504(2) 0.39106(9)
C5 C 1.0704(3) 0.9027(2) 0.36309(9)
C6 C 1.0439(3) 0.9932(2) 0.35427(9)
C7 C 0.9492(3) 1.0301(2) 0.34772(9)
C8 C 0.8494(3) 0.9842(2) 0.34804(9)
C9 C 0.7714(3) 0.9937(2) 0.31911(9)
H1 H 0.7793 1.0284 0.2986
C10 C 0.6840(3) 0.9473(2) 0.32425(8)
C11 C 0.5891(3) 0.9411(2) 0.30104(9)
C12 C 0.5724(3) 0.9907(3) 0.26954(10)
H2 H 0.6225 1.0290 0.2623
C13 C 0.4807(4) 0.9824(3) 0.24916(11)
H3 H 0.4676 1.0155 0.2281
C14 C 0.4083(3) 0.9246(3) 0.26028(12)
H4 H 0.3462 0.9170 0.2466
C15 C 0.4300(3) 0.8790(3) 0.29180(12)
H5 H 0.3804 0.8407 0.2994
C16 C 0.9833(3) 0.8569(2) 0.45721(9)
H6 H 1.0438 0.8320 0.4672
C17 C 0.9050(3) 0.8794(2) 0.47815(9)
C18 C 1.0217(4) 0.8646(4) 0.55134(12)
H7 H 1.0169 0.8592 0.5774
H8 H 1.0575 0.9171 0.5461
H9 H 1.0586 0.8159 0.5424
C19 C 0.8154(4) 0.9614(3) 0.54410(13)
H10 H 0.7503 0.9630 0.5302
H11 H 0.8523 1.0142 0.5403
H12 H 0.8043 0.9552 0.5697
C20 C 0.8195(4) 0.7671(3) 0.53636(13)
H13 H 0.8501 0.7199 0.5238
H14 H 0.7493 0.7743 0.5271
H15 H 0.8213 0.7548 0.5622
C21 C 1.0877(3) 0.7681(2) 0.39071(10)
H16 H 1.0758 0.7249 0.4077
C22 C 1.1526(3) 0.7578(2) 0.36339(11)
C23 C 1.2118(4) 0.6813(3) 0.35428(15)
C24 C 1.1999(5) 0.6026(4) 0.37060(17)
H17 H 1.1526 0.5955 0.3885
C25 C 1.2593(7) 0.5332(4) 0.3602(2)
H18 H 1.2522 0.4795 0.3713
C26 C 1.3268(6) 0.5431(6) 0.3342(3)
H19 H 1.3655 0.4967 0.3264
C27 C 1.3363(5) 0.6245(6) 0.3197(3)
H20 H 1.3850 0.6326 0.3024
C28 C 0.9570(3) 1.1177(2) 0.33648(9)
H21 H 0.8991 1.1518 0.3310
C29 C 1.0542(4) 1.1491(3) 0.33423(10)
C30 C 1.2319(6) 1.2723(5) 0.3289(3)
H22 H 1.2692 1.2311 0.3152
H23 H 1.2477 1.2634 0.3547
H24 H 1.2512 1.3300 0.3224
C31 C 1.0689(8) 1.2620(5) 0.26874(19)
H25 H 1.0613 1.3213 0.2611
H26 H 1.0068 1.2308 0.2620
H27 H 1.1253 1.2361 0.2569
C32 C 1.0296(10) 1.3384(4) 0.3447(4)
H28 H 1.0636 1.3933 0.3426
H29 H 1.0314 1.3213 0.3700
H30 H 0.9594 1.3434 0.3352
N1 N 0.5176(2) 0.88584(19) 0.31227(8)
N2 N 1.2794(4) 0.6935(3) 0.32878(16)
S1 S 0.69540(7) 0.89126(5) 0.36528(2)
S2 S 0.80502(7) 0.92090(6) 0.45021(2)
S3 S 1.15699(8) 0.84996(7) 0.33697(3)
S4 S 1.13941(8) 1.06664(7) 0.34675(3)
Si1 Si 0.89196(9) 0.86764(7) 0.52866(3)
Si2 Si 1.09470(14) 1.25762(10) 0.31862(4)
C33 C 0.2392(3) 0.4074(2) 0.58548(9)
C34 C 0.3315(3) 0.35581(19) 0.59079(9)
C35 C 0.3948(3) 0.34098(19) 0.62206(8)
C36 C 0.3822(3) 0.37794(19) 0.65839(8)
C37 C 0.3690(3) 0.4647(2) 0.66634(9)
C38 C 0.3612(3) 0.53890(19) 0.64137(10)
C39 C 0.2974(3) 0.55436(19) 0.61068(9)
C40 C 0.2203(3) 0.4932(2) 0.59372(9)
C41 C 0.1193(3) 0.5195(2) 0.58067(9)
H31 H 0.0940 0.5752 0.5838
C42 C 0.0641(3) 0.4559(2) 0.56334(10)
C43 C -0.0392(3) 0.4575(3) 0.54456(11)
C44 C -0.1001(3) 0.5307(3) 0.54333(12)
H32 H -0.0776 0.5814 0.5550
C45 C -0.1949(4) 0.5273(3) 0.52447(15)
H33 H -0.2376 0.5757 0.5234
C46 C -0.2255(4) 0.4527(4) 0.50744(14)
H34 H -0.2887 0.4495 0.4942
C47 C -0.1626(4) 0.3829(3) 0.51005(13)
H35 H -0.1852 0.3316 0.4988
C48 C 0.4732(3) 0.27851(18) 0.61539(9)
H36 H 0.5221 0.2612 0.6336
C49 C 0.4710(3) 0.2462(2) 0.58043(9)
C50 C 0.5997(5) 0.0895(3) 0.59852(15)
H37 H 0.6656 0.0655 0.5937
H38 H 0.5505 0.0434 0.6000
H39 H 0.6051 0.1207 0.6213
C51 C 0.4839(4) 0.1083(3) 0.52264(15)
H40 H 0.4514 0.1504 0.5063
H41 H 0.4323 0.0720 0.5324
H42 H 0.5300 0.0733 0.5094
C52 C 0.6685(4) 0.2193(3) 0.54239(15)
H43 H 0.6449 0.2625 0.5249
H44 H 0.7100 0.1775 0.5306
H45 H 0.7087 0.2465 0.5622
C53 C 0.3910(3) 0.3268(2) 0.69124(9)
H46 H 0.3997 0.2669 0.6911
C54 C 0.3853(3) 0.3741(2) 0.72281(9)
C55 C 0.3871(3) 0.3447(2) 0.76076(9)
C56 C 0.3847(3) 0.2584(3) 0.76970(10)
H47 H 0.3840 0.2162 0.7515
C57 C 0.3834(3) 0.2352(3) 0.80625(12)
H48 H 0.3821 0.1771 0.8130
C58 C 0.3841(3) 0.2985(4) 0.83237(12)
H49 H 0.3821 0.2843 0.8571
C59 C 0.3878(4) 0.3820(3) 0.82163(12)
H50 H 0.3890 0.4247 0.8397
C60 C 0.3105(3) 0.6406(2) 0.59694(10)
H51 H 0.2725 0.6615 0.5763
C61 C 0.3822(3) 0.6898(2) 0.61613(10)
C62 C 0.4593(6) 0.8531(3) 0.65421(16)
H52 H 0.4812 0.9119 0.6510
H53 H 0.5136 0.8209 0.6670
H54 H 0.3994 0.8525 0.6683
C63 C 0.3239(5) 0.8612(3) 0.5822(2)
H55 H 0.3197 0.8419 0.5572
H56 H 0.3381 0.9223 0.5831
H57 H 0.2597 0.8501 0.5930
C64 C 0.5478(5) 0.7978(4) 0.58394(19)
H58 H 0.5328 0.7781 0.5592
H59 H 0.5949 0.7583 0.5965
H60 H 0.5781 0.8545 0.5836
N3 N -0.0699(3) 0.3836(2) 0.52784(10)
N4 N 0.3897(3) 0.4078(2) 0.78599(8)
S5 S 0.13341(8) 0.36078(5) 0.56229(3)
S6 S 0.36965(8) 0.29311(6) 0.55489(2)
S7 S 0.36949(9) 0.48276(6) 0.71301(2)
S8 S 0.43565(9) 0.62944(5) 0.65239(3)
Si3 Si 0.55687(9) 0.16442(7) 0.56072(3)
Si4 Si 0.42747(10) 0.80252(6) 0.60815(4)
loop_
_geom_bond_atom_site_label_1
_geom_bond_atom_site_label_2
_geom_bond_site_symmetry_1
_geom_bond_site_symmetry_2
C1 C2 1_555 1_555
C2 C3 1_555 1_555
C3 C4 1_555 1_555
C4 C5 1_555 1_555
C5 C6 1_555 1_555
C6 C7 1_555 1_555
C7 C8 1_555 1_555
C8 C1 1_555 1_555
C9 C8 1_555 1_555
H1 C9 1_555 1_555
C10 C9 1_555 1_555
C11 C10 1_555 1_555
C12 C11 1_555 1_555
H2 C12 1_555 1_555
C13 C12 1_555 1_555
H3 C13 1_555 1_555
C14 C13 1_555 1_555
H4 C14 1_555 1_555
C15 C14 1_555 1_555
H5 C15 1_555 1_555
C16 C3 1_555 1_555
H6 C16 1_555 1_555
C17 C16 1_555 1_555
C18 H7 1_555 1_555
H8 C18 1_555 1_555
H9 C18 1_555 1_555
C19 H10 1_555 1_555
H11 C19 1_555 1_555
H12 C19 1_555 1_555
C20 H13 1_555 1_555
H14 C20 1_555 1_555
H15 C20 1_555 1_555
C21 C4 1_555 1_555
H16 C21 1_555 1_555
C22 C21 1_555 1_555
C23 C22 1_555 1_555
C24 C23 1_555 1_555
H17 C24 1_555 1_555
C25 C24 1_555 1_555
H18 C25 1_555 1_555
C26 C25 1_555 1_555
H19 C26 1_555 1_555
C27 C26 1_555 1_555
H20 C27 1_555 1_555
C28 C7 1_555 1_555
H21 C28 1_555 1_555
C29 C28 1_555 1_555
C30 H22 1_555 1_555
H23 C30 1_555 1_555
H24 C30 1_555 1_555
C31 H25 1_555 1_555
H26 C31 1_555 1_555
H27 C31 1_555 1_555
C32 H28 1_555 1_555
H29 C32 1_555 1_555
H30 C32 1_555 1_555
N1 C11 1_555 1_555
N2 C23 1_555 1_555
S1 C1 1_555 1_555
S2 C2 1_555 1_555
S3 C5 1_555 1_555
S4 C6 1_555 1_555
Si1 C17 1_555 1_555
Si2 C29 1_555 1_555
C33 C34 1_555 1_555
C34 C35 1_555 1_555
C35 C36 1_555 1_555
C36 C37 1_555 1_555
C37 C38 1_555 1_555
C38 C39 1_555 1_555
C39 C40 1_555 1_555
C40 C33 1_555 1_555
C41 C40 1_555 1_555
H31 C41 1_555 1_555
C42 C41 1_555 1_555
C43 C42 1_555 1_555
C44 C43 1_555 1_555
H32 C44 1_555 1_555
C45 C44 1_555 1_555
H33 C45 1_555 1_555
C46 C45 1_555 1_555
H34 C46 1_555 1_555
C47 C46 1_555 1_555
H35 C47 1_555 1_555
C48 C35 1_555 1_555
H36 C48 1_555 1_555
C49 C48 1_555 1_555
C50 H37 1_555 1_555
H38 C50 1_555 1_555
H39 C50 1_555 1_555
C51 H40 1_555 1_555
H41 C51 1_555 1_555
H42 C51 1_555 1_555
C52 H43 1_555 1_555
H44 C52 1_555 1_555
H45 C52 1_555 1_555
C53 C36 1_555 1_555
H46 C53 1_555 1_555
C54 C53 1_555 1_555
C55 C54 1_555 1_555
C56 C55 1_555 1_555
H47 C56 1_555 1_555
C57 C56 1_555 1_555
H48 C57 1_555 1_555
C58 C57 1_555 1_555
H49 C58 1_555 1_555
C59 C58 1_555 1_555
H50 C59 1_555 1_555
C60 C39 1_555 1_555
H51 C60 1_555 1_555
C61 C60 1_555 1_555
C62 H52 1_555 1_555
H53 C62 1_555 1_555
H54 C62 1_555 1_555
C63 H55 1_555 1_555
H56 C63 1_555 1_555
H57 C63 1_555 1_555
C64 H58 1_555 1_555
H59 C64 1_555 1_555
H60 C64 1_555 1_555
N3 C43 1_555 1_555
N4 C55 1_555 1_555
S5 C33 1_555 1_555
S6 C34 1_555 1_555
S7 C37 1_555 1_555
S8 C38 1_555 1_555
Si3 C49 1_555 1_555
Si4 C61 1_555 1_555
C10 S1 1_555 1_555
C15 N1 1_555 1_555
C17 S2 1_555 1_555
C18 Si1 1_555 1_555
C19 Si1 1_555 1_555
C20 Si1 1_555 1_555
C22 S3 1_555 1_555
C27 N2 1_555 1_555
C29 S4 1_555 1_555
C30 Si2 1_555 1_555
C31 Si2 1_555 1_555
C32 Si2 1_555 1_555
C42 S5 1_555 1_555
C47 N3 1_555 1_555
C49 S6 1_555 1_555
C50 Si3 1_555 1_555
C51 Si3 1_555 1_555
C52 Si3 1_555 1_555
C54 S7 1_555 1_555
C59 N4 1_555 1_555
C61 S8 1_555 1_555
C62 Si4 1_555 1_555
C63 Si4 1_555 1_555
C64 Si4 1_555 1_555

#END
