
#######################################################################
#
#                 Cambridge Crystallographic Data Centre
#                                CCDC 
#
#######################################################################
#
# If this CIF has been generated from an entry in the Cambridge 
# Structural Database, then it will include bibliographic, chemical, 
# crystal, experimental, refinement or atomic coordinate data resulting 
# from the CCDC's data processing and validation procedures.
#
#######################################################################

data_VIHVAM
_chemical_formula_moiety         'C22 H24 S4 Si2'
_chemical_name_systematic        
(cycloocta[1,2-b:4,3-b':5,6-b'':8,7-b''']tetrakisthiene-2,8-diyl)bis(trimethylsilane)
_symmetry_cell_setting           monoclinic
_symmetry_space_group_name_H-M   'P 21'
_symmetry_Int_Tables_number      4
_space_group_name_Hall           'P 2yb'
loop_
_symmetry_equiv_pos_site_id
_symmetry_equiv_pos_as_xyz
1 x,y,z
2 -x,1/2+y,-z
_cell_length_a                   10.3110(8)
_cell_length_b                   10.1131(8)
_cell_length_c                   11.9898(9)
_cell_angle_alpha                90
_cell_angle_beta                 92.7840(10)
_cell_angle_gamma                90
_cell_volume                     1248.77
_exptl_crystal_colour            colorless
_exptl_crystal_description       block
_cell_formula_units_Z            2
loop_
_atom_site_label
_atom_site_type_symbol
_atom_site_fract_x
_atom_site_fract_y
_atom_site_fract_z
S1 S 0.19269(11) 0.29188(13) 0.13372(9)
S2 S 0.37154(11) 0.80127(12) 0.39740(9)
Si1 Si 0.51023(12) 0.74401(13) 0.63032(10)
S3 S 0.13383(14) 0.91777(14) 0.21888(13)
S4 S -0.05279(14) 0.34136(16) 0.30495(12)
Si2 Si 0.32468(16) 0.25925(17) -0.09641(12)
C1 C 0.2098(4) 0.6093(4) 0.4085(3)
C2 C 0.1495(4) 0.4425(5) 0.1879(3)
C3 C 0.2435(4) 0.7113(4) 0.3403(3)
C4 C 0.1835(4) 0.5444(5) 0.1210(3)
C5 C 0.3819(4) 0.7075(4) 0.5173(3)
C6 C 0.2467(4) 0.4993(5) 0.0215(4)
H1 H 0.2774 0.5557 -0.0326
C7 C 0.2897(4) 0.6061(5) 0.5121(3)
H2 H 0.2803 0.5439 0.5683
C8 C 0.0962(4) 0.7720(6) 0.0518(4)
H3 H 0.0742 0.7434 -0.0204
C9 C 0.0780(4) 0.4457(5) 0.2910(4)
C10 C 0.1804(4) 0.7556(5) 0.2353(3)
C11 C 0.1535(4) 0.6844(5) 0.1393(4)
C12 C 0.1013(4) 0.5168(5) 0.3871(4)
C13 C 0.0085(5) 0.4823(6) 0.4699(4)
H4 H 0.0086 0.5217 0.5400
C14 C 0.2558(4) 0.3613(6) 0.0170(4)
C15 C 0.4930(6) 0.9189(6) 0.6746(5)
H5 H 0.5034 0.9761 0.6117
H6 H 0.5583 0.9391 0.7319
H7 H 0.4086 0.9320 0.7030
C16 C 0.6710(5) 0.7132(6) 0.5704(5)
H8 H 0.6775 0.6217 0.5501
H9 H 0.7390 0.7348 0.6248
H10 H 0.6792 0.7673 0.5053
C17 C 0.0797(6) 0.8891(6) 0.0839(5)
H11 H 0.0416 0.9541 0.0383
C18 C -0.0738(6) 0.3926(7) 0.4382(5)
H12 H -0.1375 0.3595 0.4830
C19 C 0.4802(7) 0.6309(7) 0.7471(4)
H13 H 0.3969 0.6499 0.7757
H14 H 0.5465 0.6429 0.8053
H15 H 0.4817 0.5412 0.7211
C20 C 0.5038(6) 0.2835(10) -0.0914(6)
H16 H 0.5231 0.3733 -0.1104
H17 H 0.5418 0.2249 -0.1437
H18 H 0.5390 0.2647 -0.0175
C21 C 0.2520(7) 0.3145(10) -0.2326(5)
H19 H 0.1649 0.2812 -0.2419
H20 H 0.3028 0.2816 -0.2916
H21 H 0.2505 0.4094 -0.2350
C22 C 0.2852(12) 0.0826(8) -0.0712(7)
H22 H 0.2879 0.0659 0.0077
H23 H 0.3474 0.0273 -0.1056
H24 H 0.1998 0.0635 -0.1026
loop_
_geom_bond_atom_site_label_1
_geom_bond_atom_site_label_2
_geom_bond_site_symmetry_1
_geom_bond_site_symmetry_2
S1 C2 1_555 1_555
S2 C3 1_555 1_555
Si1 C5 1_555 1_555
S3 C10 1_555 1_555
S4 C9 1_555 1_555
Si2 C14 1_555 1_555
C1 C3 1_555 1_555
C2 C4 1_555 1_555
C3 C10 1_555 1_555
C4 C6 1_555 1_555
C5 S2 1_555 1_555
C6 H1 1_555 1_555
C7 C1 1_555 1_555
H2 C7 1_555 1_555
C8 H3 1_555 1_555
C9 C2 1_555 1_555
C10 C11 1_555 1_555
C11 C4 1_555 1_555
C12 C1 1_555 1_555
C13 C12 1_555 1_555
H4 C13 1_555 1_555
C14 S1 1_555 1_555
C15 Si1 1_555 1_555
H5 C15 1_555 1_555
H6 C15 1_555 1_555
H7 C15 1_555 1_555
C16 Si1 1_555 1_555
H8 C16 1_555 1_555
H9 C16 1_555 1_555
H10 C16 1_555 1_555
C17 S3 1_555 1_555
H11 C17 1_555 1_555
C18 S4 1_555 1_555
H12 C18 1_555 1_555
C19 Si1 1_555 1_555
H13 C19 1_555 1_555
H14 C19 1_555 1_555
H15 C19 1_555 1_555
C20 Si2 1_555 1_555
H16 C20 1_555 1_555
H17 C20 1_555 1_555
H18 C20 1_555 1_555
C21 Si2 1_555 1_555
H19 C21 1_555 1_555
H20 C21 1_555 1_555
H21 C21 1_555 1_555
C22 Si2 1_555 1_555
H22 C22 1_555 1_555
H23 C22 1_555 1_555
H24 C22 1_555 1_555
C5 C7 1_555 1_555
C6 C14 1_555 1_555
C8 C11 1_555 1_555
C8 C17 1_555 1_555
C9 C12 1_555 1_555
C13 C18 1_555 1_555

#END
