
#######################################################################
#
#                 Cambridge Crystallographic Data Centre
#                                CCDC 
#
#######################################################################
#
# If this CIF has been generated from an entry in the Cambridge 
# Structural Database, then it will include bibliographic, chemical, 
# crystal, experimental, refinement or atomic coordinate data resulting 
# from the CCDC's data processing and validation procedures.
#
#######################################################################

data_VIJBUN
_chemical_formula_moiety         'C19 H14 N4 S1'
_chemical_name_systematic        
2-((Diphenylmethylene)hydrazono)-2,3-dihydro[1,3]thiazolo[4,5-b]pyridine
_symmetry_cell_setting           monoclinic
_symmetry_space_group_name_H-M   'C 2/c'
_symmetry_Int_Tables_number      15
_space_group_name_Hall           '-C 2yn'
loop_
_symmetry_equiv_pos_site_id
_symmetry_equiv_pos_as_xyz
1 x,y,z
2 -x,y,1/2-z
3 1/2+x,1/2+y,z
4 1/2-x,1/2+y,1/2-z
5 -x,-y,-z
6 x,-y,1/2+z
7 1/2-x,1/2-y,-z
8 1/2+x,1/2-y,1/2+z
_cell_length_a                   35.978(14)
_cell_length_b                   5.671(2)
_cell_length_c                   17.658(7)
_cell_angle_alpha                90
_cell_angle_beta                 115.608(4)
_cell_angle_gamma                90
_cell_volume                     3248.89
_exptl_crystal_colour            yellow
_exptl_crystal_description       block
_cell_formula_units_Z            8
loop_
_atom_site_label
_atom_site_type_symbol
_atom_site_fract_x
_atom_site_fract_y
_atom_site_fract_z
C1 C 0.26176(6) 0.5324(4) 0.08256(13)
C2 C 0.26631(7) 0.7151(4) 0.13898(14)
C3 C 0.29996(7) 0.8608(5) 0.16203(15)
H1 H 0.3042 0.9848 0.1993
C4 C 0.32734(7) 0.8167(5) 0.12775(16)
H2 H 0.3503 0.9129 0.1413
C5 C 0.32057(7) 0.6302(5) 0.07355(15)
H3 H 0.3396 0.6034 0.0518
C6 C 0.20208(6) 0.4777(4) 0.09750(14)
C7 C 0.11288(6) 0.4065(3) 0.11455(13)
C8 C 0.08716(6) 0.2402(4) 0.04631(13)
C9 C 0.10297(7) 0.0292(4) 0.03134(14)
H4 H 0.1305 -0.0095 0.0635
C10 C 0.07771(8) -0.1220(4) -0.03115(16)
H5 H 0.0884 -0.2619 -0.0409
C11 C 0.03693(8) -0.0675(5) -0.07904(16)
H6 H 0.0202 -0.1709 -0.1207
C12 C 0.02093(7) 0.1403(5) -0.06532(15)
H7 H -0.0066 0.1786 -0.0978
C13 C 0.04627(7) 0.2917(4) -0.00256(14)
H8 H 0.0354 0.4315 0.0068
C14 C 0.09562(6) 0.4999(4) 0.17123(13)
C15 C 0.06865(7) 0.3640(4) 0.18982(13)
H9 H 0.0594 0.2210 0.1623
C16 C 0.05516(7) 0.4361(5) 0.24820(15)
H10 H 0.0373 0.3412 0.2602
C17 C 0.06815(8) 0.6490(5) 0.28880(16)
H11 H 0.0592 0.6982 0.3284
C18 C 0.09433(9) 0.7873(4) 0.27035(15)
H12 H 0.1028 0.9319 0.2971
C19 C 0.10843(7) 0.7152(4) 0.21247(14)
H13 H 0.1264 0.8105 0.2011
N1 N 0.28806(5) 0.4847(3) 0.05037(11)
N2 N 0.22665(5) 0.4025(3) 0.06235(12)
H14 H 0.2207 0.2819 0.0297
N3 N 0.16657(5) 0.3826(3) 0.08008(12)
N4 N 0.14968(5) 0.4795(3) 0.13043(11)
S1 S 0.224627(18) 0.71917(11) 0.16588(4)
loop_
_geom_bond_atom_site_label_1
_geom_bond_atom_site_label_2
_geom_bond_site_symmetry_1
_geom_bond_site_symmetry_2
C1 C2 1_555 1_555
C2 C3 1_555 1_555
C3 H1 1_555 1_555
C4 C3 1_555 1_555
H2 C4 1_555 1_555
C5 C4 1_555 1_555
H3 C5 1_555 1_555
C6 N2 1_555 1_555
C7 C8 1_555 1_555
C8 C9 1_555 1_555
C9 H4 1_555 1_555
C10 C9 1_555 1_555
H5 C10 1_555 1_555
C11 C10 1_555 1_555
H6 C11 1_555 1_555
C12 C11 1_555 1_555
H7 C12 1_555 1_555
C13 C8 1_555 1_555
H8 C13 1_555 1_555
C14 C7 1_555 1_555
C15 C14 1_555 1_555
H9 C15 1_555 1_555
C16 C15 1_555 1_555
H10 C16 1_555 1_555
C17 C16 1_555 1_555
H11 C17 1_555 1_555
C18 C17 1_555 1_555
H12 C18 1_555 1_555
C19 C14 1_555 1_555
H13 C19 1_555 1_555
N1 C1 1_555 1_555
N2 C1 1_555 1_555
H14 N2 1_555 1_555
N3 C6 1_555 1_555
N4 C7 1_555 1_555
S1 C2 1_555 1_555
C5 N1 1_555 1_555
C6 S1 1_555 1_555
C12 C13 1_555 1_555
C18 C19 1_555 1_555
N3 N4 1_555 1_555

#END
