
#######################################################################
#
#                 Cambridge Crystallographic Data Centre
#                                CCDC 
#
#######################################################################
#
# If this CIF has been generated from an entry in the Cambridge 
# Structural Database, then it will include bibliographic, chemical, 
# crystal, experimental, refinement or atomic coordinate data resulting 
# from the CCDC's data processing and validation procedures.
#
#######################################################################

data_VIJRUE
_chemical_formula_moiety         'C21 H21 N1 O6'
_chemical_name_systematic        
'dimethyl [(10-oxo-7a,8,9,10-tetrahydro-12H-naphtho[1,2-e]pyrrolo[2,1-b][1,3]oxazin-12-yl)methyl]propanedioate'
_symmetry_cell_setting           monoclinic
_symmetry_space_group_name_H-M   'P 21/c'
_symmetry_Int_Tables_number      14
_space_group_name_Hall           '-P 2ybc'
loop_
_symmetry_equiv_pos_site_id
_symmetry_equiv_pos_as_xyz
1 x,y,z
2 -x,1/2+y,1/2-z
3 -x,-y,-z
4 x,1/2-y,1/2+z
_cell_length_a                   8.6360(14)
_cell_length_b                   8.8879(13)
_cell_length_c                   24.118(4)
_cell_angle_alpha                90
_cell_angle_beta                 93.295(13)
_cell_angle_gamma                90
_cell_volume                     1848.14
_exptl_crystal_colour            colorless
_exptl_crystal_description       'rectangular prism'
_cell_formula_units_Z            4
loop_
_atom_site_label
_atom_site_type_symbol
_atom_site_fract_x
_atom_site_fract_y
_atom_site_fract_z
O1 O 0.6070(3) 0.6918(3) 0.49934(9)
O2 O 0.7145(3) 0.7881(3) 0.57751(10)
O3 O 0.2252(3) 0.6046(3) 0.57385(10)
O4 O 0.6664(3) 0.2490(3) 0.72666(10)
O5 O 0.3250(3) 0.8273(3) 0.55403(11)
N1 N 0.6509(3) 0.3660(3) 0.64004(11)
O6 O 0.8132(3) 0.3709(3) 0.56942(11)
C1 C 0.3409(4) 0.6991(4) 0.56732(13)
C2 C 0.6182(4) 0.7115(4) 0.55404(13)
C3 C 0.6727(3) 0.5198(3) 0.65876(12)
H1 H 0.7585(3) 0.5639(3) 0.63938(12)
C4 C 0.5254(4) 0.6108(4) 0.64388(12)
H2 H 0.4376(4) 0.5624(4) 0.65977(12)
H3 H 0.5362(4) 0.7107(4) 0.65981(12)
C5 C 0.8295(4) 0.6367(4) 0.80539(13)
C6 C 0.7187(3) 0.5147(4) 0.72048(13)
C7 C 0.4949(3) 0.6238(3) 0.58106(12)
H4 H 0.4914(3) 0.5222(3) 0.56523(12)
C8 C 0.7993(4) 0.7846(4) 0.72141(14)
H5 H 0.7728(4) 0.7927(4) 0.68361(14)
C9 C 0.7795(4) 0.6460(4) 0.74821(13)
C10 C 0.7147(4) 0.3836(4) 0.74946(13)
C11 C 0.7320(5) 0.3020(4) 0.60011(16)
C12 C 0.8208(4) 0.4970(5) 0.83230(14)
H6 H 0.8528(4) 0.4897(5) 0.86968(14)
C13 C 0.8886(4) 0.7657(5) 0.83266(15)
H7 H 0.9204(4) 0.7599(5) 0.87009(15)
C14 C 0.7673(4) 0.3739(5) 0.80528(14)
H8 H 0.7652(4) 0.2820(5) 0.82369(14)
C15 C 0.5787(4) 0.2606(4) 0.67486(15)
H9 H 0.4712(4) 0.2894(4) 0.68041(15)
C16 C 0.8564(4) 0.9070(4) 0.74951(15)
H10 H 0.8663(4) 0.9978(4) 0.73087(15)
C17 C 0.9003(4) 0.8981(5) 0.80577(16)
H11 H 0.9374(4) 0.9829(5) 0.82480(16)
C18 C 0.5856(5) 0.1129(4) 0.64408(17)
H12 H 0.6173(5) 0.0322(4) 0.66930(17)
H13 H 0.4850(5) 0.0883(4) 0.62645(17)
C19 C 0.0718(4) 0.6611(5) 0.56058(16)
H14 H 0.0671(9) 0.704(3) 0.5239(5)
H15 H -0.0015(5) 0.5802(8) 0.5620(11)
H16 H 0.0474(13) 0.737(2) 0.5870(7)
C20 C 0.7166(5) 0.7725(5) 0.46816(15)
H17 H 0.701(2) 0.748(2) 0.4295(2)
H18 H 0.702(2) 0.8787(5) 0.4730(8)
H19 H 0.8200(5) 0.745(2) 0.4811(8)
C21 C 0.7039(5) 0.1356(4) 0.60096(18)
H20 H 0.6638(5) 0.1005(4) 0.56485(18)
H21 H 0.7989(5) 0.0817(4) 0.61121(18)
loop_
_geom_bond_atom_site_label_1
_geom_bond_atom_site_label_2
_geom_bond_site_symmetry_1
_geom_bond_site_symmetry_2
O1 C2 1_555 1_555
O2 C2 1_555 1_555
O3 C1 1_555 1_555
O4 C10 1_555 1_555
O5 C1 1_555 1_555
N1 C3 1_555 1_555
O6 C11 1_555 1_555
C1 C7 1_555 1_555
C2 C7 1_555 1_555
C3 H1 1_555 1_555
C4 C3 1_555 1_555
H2 C4 1_555 1_555
H3 C4 1_555 1_555
C5 C9 1_555 1_555
C6 C3 1_555 1_555
C7 C4 1_555 1_555
H4 C7 1_555 1_555
C8 H5 1_555 1_555
C9 C6 1_555 1_555
C10 C6 1_555 1_555
C11 N1 1_555 1_555
C12 C5 1_555 1_555
H6 C12 1_555 1_555
C13 C5 1_555 1_555
H7 C13 1_555 1_555
C14 C10 1_555 1_555
H8 C14 1_555 1_555
C15 O4 1_555 1_555
H9 C15 1_555 1_555
C16 C8 1_555 1_555
H10 C16 1_555 1_555
C17 C13 1_555 1_555
H11 C17 1_555 1_555
C18 C15 1_555 1_555
H12 C18 1_555 1_555
H13 C18 1_555 1_555
C19 O3 1_555 1_555
H14 C19 1_555 1_555
H15 C19 1_555 1_555
H16 C19 1_555 1_555
C20 O1 1_555 1_555
H17 C20 1_555 1_555
H18 C20 1_555 1_555
H19 C20 1_555 1_555
C21 C11 1_555 1_555
H20 C21 1_555 1_555
H21 C21 1_555 1_555
N1 C15 1_555 1_555
C8 C9 1_555 1_555
C12 C14 1_555 1_555
C16 C17 1_555 1_555
C18 C21 1_555 1_555

#END
