
#######################################################################
#
#                 Cambridge Crystallographic Data Centre
#                                CCDC 
#
#######################################################################
#
# If this CIF has been generated from an entry in the Cambridge 
# Structural Database, then it will include bibliographic, chemical, 
# crystal, experimental, refinement or atomic coordinate data resulting 
# from the CCDC's data processing and validation procedures.
#
#######################################################################

data_VIJSEP
_chemical_formula_moiety         'C22 H25 N1 O8'
_chemical_name_systematic        
'dimethyl {2-(2-hydroxynaphthalen-1-yl)-2-[(4-methoxy-4-oxobutanoyl)amino]ethyl}propanedioate'
_symmetry_cell_setting           triclinic
_symmetry_space_group_name_H-M   'P 1'
_symmetry_Int_Tables_number      1
_space_group_name_Hall           'P 1'
loop_
_symmetry_equiv_pos_site_id
_symmetry_equiv_pos_as_xyz
1 x,y,z
_cell_length_a                   7.5612(4)
_cell_length_b                   8.1447(6)
_cell_length_c                   9.7589(7)
_cell_angle_alpha                101.297(6)
_cell_angle_beta                 97.234(5)
_cell_angle_gamma                106.437(5)
_cell_volume                     554.652
_exptl_crystal_colour            colorless
_exptl_crystal_description       block
_cell_formula_units_Z            1
loop_
_atom_site_label
_atom_site_type_symbol
_atom_site_fract_x
_atom_site_fract_y
_atom_site_fract_z
O1 O 0.0199(4) 0.6744(3) 0.3505(3)
N1 N 0.3970(3) 0.7273(3) 0.3748(3)
H1 H 0.324259 0.791652 0.377874
O2 O 0.7530(4) 0.5674(4) 0.7358(3)
O3 O 0.6781(3) 0.7088(3) 0.3455(3)
O4 O 0.5673(4) 0.3644(4) 0.5496(3)
O5 O 0.3942(5) 0.5055(4) 0.8421(3)
O6 O 1.1086(5) 1.0733(5) 0.5673(4)
O7 O 0.4221(6) 0.7867(5) 0.8576(3)
C1 C 0.4765(4) 0.6153(4) 0.6467(3)
H2 H 0.545638 0.728930 0.630377
C2 C 0.1405(4) 0.4439(4) 0.2763(3)
C3 C -0.0044(4) 0.5129(5) 0.2650(4)
O8 O 0.8323(5) 1.0028(5) 0.6375(4)
C4 C 0.3211(4) 0.5438(4) 0.3832(3)
H3 H 0.414424 0.485272 0.361007
C5 C 0.5733(4) 0.7980(4) 0.3625(3)
C6 C 0.6002(5) 0.4999(5) 0.6362(4)
C7 C 0.1139(4) 0.2712(4) 0.1903(3)
C8 C 0.2941(4) 0.5360(4) 0.5346(3)
H4 H 0.237882 0.413771 0.536256
H5 H 0.206806 0.598609 0.560375
C9 C 0.4293(5) 0.6493(5) 0.7939(4)
C10 C 0.9238(7) 1.0441(5) 0.5517(5)
C11 C 0.2490(5) 0.1831(5) 0.2002(4)
H6 H 0.362490 0.238568 0.264067
C12 C -0.1997(5) 0.2600(6) 0.0836(4)
H7 H -0.311659 0.201269 0.018464
C13 C 0.6379(5) 0.9914(5) 0.3679(4)
H8 H 0.578644 1.051898 0.434713
H9 H 0.598915 1.008744 0.274714
C14 C 0.8496(5) 1.0713(5) 0.4128(4)
H10 H 0.907952 1.019424 0.340268
H11 H 0.884178 1.196932 0.418585
C15 C -0.0588(5) 0.1795(5) 0.0933(3)
C16 C -0.0866(7) 0.0086(6) 0.0099(5)
H12 H -0.199011 -0.050780 -0.054429
C17 C -0.1764(5) 0.4206(6) 0.1665(4)
H13 H -0.272195 0.471027 0.159472
C18 C 0.2162(7) 0.0184(6) 0.1179(5)
H14 H 0.308335 -0.036220 0.125640
C19 C 0.3523(9) 0.5221(10) 0.9848(5)
H15 H 0.252881 0.573336 0.991100
H16 H 0.462455 0.596422 1.053067
H17 H 0.313771 0.407493 1.004203
C20 C 0.0475(8) -0.0700(7) 0.0222(6)
H18 H 0.027263 -0.182865 -0.033116
C21 C 0.8779(7) 0.4634(8) 0.7426(6)
H19 H 0.927367 0.450826 0.656579
H20 H 0.810166 0.348868 0.752898
H21 H 0.979332 0.521042 0.822659
C22 C 1.2022(11) 1.0470(10) 0.6970(8)
H22 H 1.335524 1.083769 0.701286
H23 H 1.158900 0.924264 0.697244
H24 H 1.173882 1.115457 0.778209
H25 H -0.075(6) 0.698(6) 0.345(4)
loop_
_geom_bond_atom_site_label_1
_geom_bond_atom_site_label_2
_geom_bond_site_symmetry_1
_geom_bond_site_symmetry_2
O1 C3 1_555 1_555
N1 H1 1_555 1_555
O2 C6 1_555 1_555
O3 C5 1_555 1_555
O4 C6 1_555 1_555
O5 C9 1_555 1_555
O6 C10 1_555 1_555
O7 C9 1_555 1_555
C1 H2 1_555 1_555
C2 C3 1_555 1_555
C3 C17 1_555 1_555
O8 C10 1_555 1_555
C4 N1 1_555 1_555
H3 C4 1_555 1_555
C5 N1 1_555 1_555
C6 C1 1_555 1_555
C7 C2 1_555 1_555
C8 C1 1_555 1_555
H4 C8 1_555 1_555
H5 C8 1_555 1_555
C9 C1 1_555 1_555
C10 C14 1_555 1_555
C11 C7 1_555 1_555
H6 C11 1_555 1_555
C12 H7 1_555 1_555
C13 C5 1_555 1_555
H8 C13 1_555 1_555
H9 C13 1_555 1_555
C14 C13 1_555 1_555
H10 C14 1_555 1_555
H11 C14 1_555 1_555
C15 C7 1_555 1_555
C16 C15 1_555 1_555
H12 C16 1_555 1_555
C17 C12 1_555 1_555
H13 C17 1_555 1_555
C18 C11 1_555 1_555
H14 C18 1_555 1_555
C19 O5 1_555 1_555
H15 C19 1_555 1_555
H16 C19 1_555 1_555
H17 C19 1_555 1_555
C20 C16 1_555 1_555
H18 C20 1_555 1_555
C21 O2 1_555 1_555
H19 C21 1_555 1_555
H20 C21 1_555 1_555
H21 C21 1_555 1_555
C22 O6 1_555 1_555
H22 C22 1_555 1_555
H23 C22 1_555 1_555
H24 C22 1_555 1_555
H25 O1 1_555 1_555
C2 C4 1_555 1_555
C4 C8 1_555 1_555
C12 C15 1_555 1_555
C18 C20 1_555 1_555

#END
