
#######################################################################
#
#                 Cambridge Crystallographic Data Centre
#                                CCDC 
#
#######################################################################
#
# If this CIF has been generated from an entry in the Cambridge 
# Structural Database, then it will include bibliographic, chemical, 
# crystal, experimental, refinement or atomic coordinate data resulting 
# from the CCDC's data processing and validation procedures.
#
#######################################################################

data_VIJTEQ
_chemical_formula_moiety         'C20 H20 Cl1 N1 O3'
_chemical_name_systematic        
1-(4-chlorobenzene-1-carbonyl)-4-(4-methoxyphenyl)azepan-2-one
_symmetry_cell_setting           orthorhombic
_symmetry_space_group_name_H-M   'P 21 21 21'
_symmetry_Int_Tables_number      19
_space_group_name_Hall           'P 2ac 2ab'
loop_
_symmetry_equiv_pos_site_id
_symmetry_equiv_pos_as_xyz
1 x,y,z
2 1/2-x,-y,1/2+z
3 -x,1/2+y,1/2-z
4 1/2+x,1/2-y,-z
_cell_length_a                   5.32172(3)
_cell_length_b                   11.65514(5)
_cell_length_c                   28.13606(11)
_cell_angle_alpha                90
_cell_angle_beta                 90
_cell_angle_gamma                90
_cell_volume                     1745.15
_exptl_crystal_colour            colorless
_exptl_crystal_description       block
_cell_formula_units_Z            4
loop_
_atom_site_label
_atom_site_type_symbol
_atom_site_fract_x
_atom_site_fract_y
_atom_site_fract_z
Cl1 Cl 1.25038(8) 0.72349(4) 0.11232(2)
O1 O -0.0055(2) 0.40768(10) 0.53004(4)
O2 O 0.8000(2) 0.72603(10) 0.30903(4)
O3 O 0.6291(3) 1.03968(10) 0.27146(5)
N1 N 0.5010(3) 0.86565(11) 0.29942(5)
C1 C 0.5864(3) 0.75979(13) 0.31638(5)
C2 C 0.6442(3) 0.93603(14) 0.26874(6)
C3 C 1.1482(3) 0.89131(14) 0.17673(6)
H1 H 1.291046 0.928700 0.165678
C4 C 0.4054(3) 0.69044(13) 0.34615(5)
H2 H 0.450994 0.609983 0.344344
H3 H 0.237218 0.698692 0.333299
C5 C 1.0050(3) 0.93849(14) 0.21295(5)
H4 H 1.048965 1.009410 0.225611
C6 C 1.0740(3) 0.78688(14) 0.15720(5)
C7 C 0.8583(3) 0.73182(14) 0.17248(6)
H5 H 0.806414 0.664349 0.157821
C8 C 0.0825(3) 0.48166(13) 0.49595(5)
C9 C 0.2788(3) 0.55292(14) 0.51015(5)
H6 H 0.339064 0.548906 0.541133
C10 C 0.7956(3) 0.88046(13) 0.23056(5)
C11 C 0.7203(3) 0.77726(13) 0.20954(5)
H7 H 0.577800 0.739382 0.220484
C12 C 0.3844(3) 0.62965(14) 0.47839(6)
H8 H 0.514633 0.677038 0.488406
C13 C 0.2990(3) 0.63722(13) 0.43154(5)
C14 C -0.0077(4) 0.48838(15) 0.44979(6)
H9 H -0.139086 0.441457 0.439954
C15 C 0.4054(3) 0.72872(14) 0.39886(5)
H10 H 0.579726 0.743363 0.408333
C16 C -0.2141(3) 0.33680(14) 0.51789(6)
H11 H -0.168304 0.287123 0.492084
H12 H -0.353072 0.384126 0.508469
H13 H -0.261354 0.291416 0.544919
C17 C 0.1012(3) 0.56644(15) 0.41824(6)
H14 H 0.039337 0.571156 0.387391
C18 C 0.2814(3) 0.91983(14) 0.32251(5)
H15 H 0.136030 0.870655 0.318336
H16 H 0.246227 0.992231 0.306869
C19 C 0.2539(3) 0.83909(13) 0.40697(5)
H17 H 0.077456 0.821525 0.402253
H18 H 0.274455 0.861800 0.439909
C20 C 0.3206(3) 0.94165(13) 0.37567(5)
H19 H 0.495096 0.961832 0.381037
H20 H 0.218487 1.006675 0.385164
loop_
_geom_bond_atom_site_label_1
_geom_bond_atom_site_label_2
_geom_bond_site_symmetry_1
_geom_bond_site_symmetry_2
Cl1 C6 1_555 1_555
O1 C8 1_555 1_555
O2 C1 1_555 1_555
O3 C2 1_555 1_555
N1 C1 1_555 1_555
C1 C4 1_555 1_555
C2 N1 1_555 1_555
C3 H1 1_555 1_555
C4 H2 1_555 1_555
H3 C4 1_555 1_555
C5 C3 1_555 1_555
H4 C5 1_555 1_555
C6 C3 1_555 1_555
C7 C6 1_555 1_555
H5 C7 1_555 1_555
C8 C9 1_555 1_555
C9 H6 1_555 1_555
C10 C2 1_555 1_555
C11 C7 1_555 1_555
H7 C11 1_555 1_555
C12 C9 1_555 1_555
H8 C12 1_555 1_555
C13 C12 1_555 1_555
C14 C8 1_555 1_555
H9 C14 1_555 1_555
C15 C4 1_555 1_555
H10 C15 1_555 1_555
C16 O1 1_555 1_555
H11 C16 1_555 1_555
H12 C16 1_555 1_555
H13 C16 1_555 1_555
C17 C13 1_555 1_555
H14 C17 1_555 1_555
C18 N1 1_555 1_555
H15 C18 1_555 1_555
H16 C18 1_555 1_555
C19 C15 1_555 1_555
H17 C19 1_555 1_555
H18 C19 1_555 1_555
C20 C18 1_555 1_555
H19 C20 1_555 1_555
H20 C20 1_555 1_555
C5 C10 1_555 1_555
C10 C11 1_555 1_555
C13 C15 1_555 1_555
C14 C17 1_555 1_555
C19 C20 1_555 1_555

#END
