
#######################################################################
#
#                 Cambridge Crystallographic Data Centre
#                                CCDC 
#
#######################################################################
#
# If this CIF has been generated from an entry in the Cambridge 
# Structural Database, then it will include bibliographic, chemical, 
# crystal, experimental, refinement or atomic coordinate data resulting 
# from the CCDC's data processing and validation procedures.
#
#######################################################################

data_VIJVAL
_chemical_formula_moiety         'C22 H16 N6,C12 H8 N2'
_chemical_name_systematic        
'9,10-bis(2-Aminopyrimidin-5-yl)anthracene phenazine clathrate'
_symmetry_cell_setting           triclinic
_symmetry_space_group_name_H-M   'P -1'
_symmetry_Int_Tables_number      2
_space_group_name_Hall           '-P 1'
loop_
_symmetry_equiv_pos_site_id
_symmetry_equiv_pos_as_xyz
1 x,y,z
2 -x,-y,-z
_cell_length_a                   7.734(1)
_cell_length_b                   9.741(1)
_cell_length_c                   9.893(1)
_cell_angle_alpha                89.426(6)
_cell_angle_beta                 90.658(8)
_cell_angle_gamma                68.992(8)
_cell_volume                     695.642
_exptl_crystal_colour            colorless
_exptl_crystal_description       prism
_cell_formula_units_Z            1
loop_
_atom_site_label
_atom_site_type_symbol
_atom_site_fract_x
_atom_site_fract_y
_atom_site_fract_z
C1 C -0.0594(4) 0.1030(3) -0.1093(3)
C2 C -0.0393(4) -0.0453(3) -0.1287(3)
C3 C -0.0754(5) -0.0977(3) -0.2565(3)
C4 C -0.0538(5) -0.2404(4) -0.2745(3)
C5 C 0.0088(5) -0.3420(3) -0.1666(4)
C6 C 0.0461(5) -0.2991(3) -0.0442(3)
C7 C -0.0212(4) 0.1486(3) 0.0177(3)
C8 C -0.1149(4) 0.2103(3) -0.2242(3)
C9 C -0.2890(4) 0.2606(3) -0.2839(3)
N1 N -0.3407(3) 0.3608(3) -0.3834(3)
C10 C -0.2108(4) 0.4136(3) -0.4257(3)
N2 N -0.0353(3) 0.3696(3) -0.3784(2)
C11 C 0.0077(4) 0.2696(3) -0.2784(3)
N3 N -0.2616(4) 0.5186(3) -0.5229(3)
H1 H -0.171(5) 0.549(4) -0.544(4)
H2 H -0.396(6) 0.559(4) -0.555(4)
H3 H -0.1158 -0.0305 -0.3306
H4 H -0.0808 -0.2719 -0.3601
H5 H 0.0251 -0.4423 -0.1803
H6 H 0.0900 -0.3703 0.0265
H7 H -0.3774 0.2213 -0.2521
H8 H 0.1302 0.2370 -0.2420
C7A C 0.0212(4) -0.1486(3) -0.0177(3)
C1A C 0.0594(4) -0.1030(3) 0.1093(3)
C2A C 0.0393(4) 0.0453(3) 0.1287(3)
C3A C 0.0754(5) 0.0977(3) 0.2565(3)
C4A C 0.0538(5) 0.2404(4) 0.2745(3)
C5A C -0.0088(5) 0.3420(3) 0.1666(4)
C6A C -0.0461(5) 0.2991(3) 0.0442(3)
H6A H -0.0900 0.3703 -0.0265
H5A H -0.0251 0.4423 0.1803
H4A H 0.0808 0.2719 0.3601
H3A H 0.1158 0.0305 0.3306
C8A C 0.1149(4) -0.2103(3) 0.2242(3)
C9A C 0.2890(4) -0.2606(3) 0.2839(3)
N1A N 0.3407(3) -0.3608(3) 0.3834(3)
C10A C 0.2108(4) -0.4136(3) 0.4257(3)
N2A N 0.0353(3) -0.3696(3) 0.3784(2)
C11A C -0.0077(4) -0.2696(3) 0.2784(3)
H8A H -0.1302 -0.2370 0.2420
N3A N 0.2616(4) -0.5186(3) 0.5229(3)
H1A H 0.171(5) -0.549(4) 0.544(4)
H2A H 0.396(6) -0.559(4) 0.555(4)
H7A H 0.3774 -0.2213 0.2521
N4 N 0.4308(4) 0.0987(3) 0.8897(3)
C12 C 0.4595(5) -0.0456(4) 0.8793(4)
C13 C 0.4190(6) -0.1003(5) 0.7554(5)
C14 C 0.4480(6) -0.2489(5) 0.7466(5)
C15 C 0.5176(7) -0.3437(5) 0.8578(6)
C16 C 0.5575(6) -0.2949(4) 0.9732(5)
C17 C 0.4706(5) 0.1443(4) 1.0098(4)
H9 H 0.3729 -0.0363 0.6797
H10 H 0.4202 -0.2868 0.6644
H11 H 0.5364 -0.4452 0.8498
H12 H 0.6061 -0.3620 1.0465
C17A C 0.5294(5) -0.1443(4) 0.9902(4)
N4A N 0.5692(4) -0.0987(3) 1.1103(3)
C12A C 0.5405(5) 0.0456(4) 1.1207(4)
C13A C 0.5810(6) 0.1003(5) 1.2446(5)
C14A C 0.5520(6) 0.2489(5) 1.2534(5)
C15A C 0.4824(7) 0.3437(5) 1.1422(6)
C16A C 0.4425(6) 0.2949(4) 1.0268(5)
H12A H 0.3939 0.3620 0.9535
H11A H 0.4636 0.4452 1.1502
H10A H 0.5798 0.2868 1.3356
H9A H 0.6271 0.0363 1.3203
loop_
_geom_bond_atom_site_label_1
_geom_bond_atom_site_label_2
_geom_bond_site_symmetry_1
_geom_bond_site_symmetry_2
C1 C2 1_555 1_555
C2 C3 1_555 1_555
C3 C4 1_555 1_555
C4 C5 1_555 1_555
C5 C6 1_555 1_555
C6 H6 1_555 1_555
C7 C1 1_555 1_555
C8 C1 1_555 1_555
C9 C8 1_555 1_555
N1 C9 1_555 1_555
C10 N1 1_555 1_555
N2 C10 1_555 1_555
C11 C8 1_555 1_555
N3 C10 1_555 1_555
N4 C12 1_555 1_555
C12 C13 1_555 1_555
C13 C14 1_555 1_555
C14 C15 1_555 1_555
C15 C16 1_555 1_555
C16 H12 1_555 1_555
C17 N4 1_555 1_555
H1 N3 1_555 1_555
H2 N3 1_555 1_555
H3 C3 1_555 1_555
H4 C4 1_555 1_555
H5 C5 1_555 1_555
H7 C9 1_555 1_555
H8 C11 1_555 1_555
H9 C13 1_555 1_555
H10 C14 1_555 1_555
H11 C15 1_555 1_555
C7A C2 1_555 1_555
C1A C7A 1_555 1_555
C2A C7 1_555 1_555
C3A C2A 1_555 1_555
C4A C3A 1_555 1_555
C5A C4A 1_555 1_555
C6A C7 1_555 1_555
H6A C6A 1_555 1_555
H5A C5A 1_555 1_555
H4A C4A 1_555 1_555
H3A C3A 1_555 1_555
C8A C1A 1_555 1_555
C9A C8A 1_555 1_555
N1A C9A 1_555 1_555
C10A N1A 1_555 1_555
N2A C10A 1_555 1_555
C11A C8A 1_555 1_555
H8A C11A 1_555 1_555
N3A C10A 1_555 1_555
H1A N3A 1_555 1_555
H2A N3A 1_555 1_555
H7A C9A 1_555 1_555
C17A C12 1_555 1_555
N4A C17A 1_555 1_555
C12A C17 1_555 1_555
C13A C12A 1_555 1_555
C14A C13A 1_555 1_555
C15A C14A 1_555 1_555
C16A C17 1_555 1_555
H12A C16A 1_555 1_555
H11A C15A 1_555 1_555
H10A C14A 1_555 1_555
H9A C13A 1_555 1_555
C6 C7A 1_555 1_555
N2 C11 1_555 1_555
C16 C17A 1_555 1_555
C1A C2A 1_555 1_555
C5A C6A 1_555 1_555
N2A C11A 1_555 1_555
N4A C12A 1_555 1_555
C15A C16A 1_555 1_555

#END
