
#######################################################################
#
#                 Cambridge Crystallographic Data Centre
#                                CCDC 
#
#######################################################################
#
# If this CIF has been generated from an entry in the Cambridge 
# Structural Database, then it will include bibliographic, chemical, 
# crystal, experimental, refinement or atomic coordinate data resulting 
# from the CCDC's data processing and validation procedures.
#
#######################################################################

data_VIJYET02
_chemical_formula_moiety         'C16 H36 N1 1+,H7 B6 1-'
_chemical_name_systematic        
'Tetra-n-butylammonium 1,2,3-\mH-closo-hexaborate(7)'
_symmetry_cell_setting           monoclinic
_symmetry_space_group_name_H-M   'P 21/n'
_symmetry_Int_Tables_number      14
_space_group_name_Hall           '-P 2yn'
loop_
_symmetry_equiv_pos_site_id
_symmetry_equiv_pos_as_xyz
1 x,y,z
2 1/2-x,1/2+y,1/2-z
3 -x,-y,-z
4 1/2+x,1/2-y,1/2+z
_cell_length_a                   8.6160(17)
_cell_length_b                   17.164(3)
_cell_length_c                   15.238(3)
_cell_angle_alpha                90
_cell_angle_beta                 99.15(3)
_cell_angle_gamma                90
_cell_volume                     2224.8
_exptl_crystal_colour            colorless
_exptl_crystal_description       block
_cell_formula_units_Z            4
loop_
_atom_site_label
_atom_site_type_symbol
_atom_site_fract_x
_atom_site_fract_y
_atom_site_fract_z
N1 N 0.41443(16) 0.14711(8) 0.30846(9)
C1 C 0.4767(2) 0.11748(10) 0.22645(11)
H1 H 0.5823 0.1402 0.2264
H2 H 0.4897 0.0603 0.2318
C2 C 0.3763(2) 0.13518(11) 0.13750(12)
H3 H 0.2690 0.1143 0.1367
H4 H 0.3682 0.1923 0.1287
C3 C 0.4484(3) 0.09885(13) 0.06326(13)
H5 H 0.4588 0.0420 0.0736
H6 H 0.5552 0.1204 0.0644
C4 C 0.3527(3) 0.11288(14) -0.02770(13)
H7 H 0.4045 0.0878 -0.0731
H8 H 0.3444 0.1690 -0.0392
H9 H 0.2473 0.0909 -0.0297
C5 C 0.5191(2) 0.11505(10) 0.39046(11)
H10 H 0.4668 0.1247 0.4428
H11 H 0.5274 0.0579 0.3836
C6 C 0.6842(2) 0.14858(11) 0.40956(12)
H12 H 0.7328 0.1468 0.3549
H13 H 0.6793 0.2037 0.4280
C7 C 0.7839(2) 0.10242(12) 0.48268(13)
H14 H 0.7981 0.0488 0.4613
H15 H 0.7283 0.0989 0.5346
C8 C 0.9445(3) 0.13952(14) 0.51135(14)
H16 H 0.9947 0.1489 0.4589
H17 H 1.0104 0.1044 0.5522
H18 H 0.9319 0.1891 0.5413
C9 C 0.4174(2) 0.23578(10) 0.30706(11)
H19 H 0.3468 0.2538 0.2532
H20 H 0.5252 0.2528 0.3015
C10 C 0.3692(2) 0.27620(10) 0.38753(12)
H21 H 0.2577 0.2648 0.3908
H22 H 0.4344 0.2570 0.4427
C11 C 0.3923(2) 0.36354(10) 0.37828(13)
H23 H 0.5041 0.3740 0.3747
H24 H 0.3286 0.3816 0.3221
C12 C 0.3460(3) 0.40934(12) 0.45506(16)
H25 H 0.3661 0.4649 0.4469
H26 H 0.4080 0.3914 0.5109
H27 H 0.2339 0.4014 0.4570
C13 C 0.2464(2) 0.12075(10) 0.30885(12)
H28 H 0.1774 0.1479 0.2602
H29 H 0.2144 0.1373 0.3656
C14 C 0.2186(2) 0.03336(10) 0.29791(13)
H30 H 0.2887 0.0053 0.3453
H31 H 0.2448 0.0164 0.2399
C15 C 0.0474(2) 0.01271(12) 0.30270(14)
H32 H 0.0378 -0.0447 0.3056
H33 H 0.0196 0.0344 0.3584
C16 C -0.0699(3) 0.04250(13) 0.2250(2)
H34 H -0.0392 0.0245 0.1691
H35 H -0.0712 0.0996 0.2259
H36 H -0.1749 0.0226 0.2297
B1 B -0.1648(4) 0.27051(15) 0.14317(17)
H37 H -0.2290 0.2242 0.1027
B2 B 0.0224(3) 0.30568(16) 0.15973(16)
H38 H 0.1334 0.2875 0.1388
B3 B -0.0648(3) 0.27795(13) 0.24902(15)
H39 H -0.0498 0.2351 0.3034
B4 B -0.2144(3) 0.34384(13) 0.22106(16)
H40 H -0.3244 0.3597 0.2446
B5 B -0.1186(3) 0.37300(14) 0.12673(16)
H41 H -0.1450 0.4166 0.0735
B6 B -0.0227(3) 0.37419(14) 0.23299(16)
H42 H 0.0366 0.4206 0.2754
H43 H -0.248(5) 0.333(2) 0.132(3)
loop_
_geom_bond_atom_site_label_1
_geom_bond_atom_site_label_2
_geom_bond_site_symmetry_1
_geom_bond_site_symmetry_2
N1 C1 1_555 1_555
C1 H1 1_555 1_555
H2 C1 1_555 1_555
C2 C1 1_555 1_555
H3 C2 1_555 1_555
H4 C2 1_555 1_555
C3 C2 1_555 1_555
H5 C3 1_555 1_555
H6 C3 1_555 1_555
C4 C3 1_555 1_555
H7 C4 1_555 1_555
H8 C4 1_555 1_555
H9 C4 1_555 1_555
C5 N1 1_555 1_555
H10 C5 1_555 1_555
H11 C5 1_555 1_555
C6 C5 1_555 1_555
H12 C6 1_555 1_555
H13 C6 1_555 1_555
C7 C6 1_555 1_555
H14 C7 1_555 1_555
H15 C7 1_555 1_555
C8 C7 1_555 1_555
H16 C8 1_555 1_555
H17 C8 1_555 1_555
H18 C8 1_555 1_555
C9 N1 1_555 1_555
H19 C9 1_555 1_555
H20 C9 1_555 1_555
C10 C9 1_555 1_555
H21 C10 1_555 1_555
H22 C10 1_555 1_555
C11 C10 1_555 1_555
H23 C11 1_555 1_555
H24 C11 1_555 1_555
C12 C11 1_555 1_555
H25 C12 1_555 1_555
H26 C12 1_555 1_555
H27 C12 1_555 1_555
C13 N1 1_555 1_555
H28 C13 1_555 1_555
H29 C13 1_555 1_555
C14 C13 1_555 1_555
H30 C14 1_555 1_555
H31 C14 1_555 1_555
C15 C14 1_555 1_555
H32 C15 1_555 1_555
H33 C15 1_555 1_555
C16 C15 1_555 1_555
H34 C16 1_555 1_555
H35 C16 1_555 1_555
H36 C16 1_555 1_555
B1 H37 1_555 1_555
B2 B1 1_555 1_555
H38 B2 1_555 1_555
B3 B1 1_555 1_555
H39 B3 1_555 1_555
B4 B1 1_555 1_555
H40 B4 1_555 1_555
B5 B1 1_555 1_555
H41 B5 1_555 1_555
B6 B2 1_555 1_555
H42 B6 1_555 1_555
H43 B1 1_555 1_555
B2 B3 1_555 1_555
B2 B5 1_555 1_555
B3 B4 1_555 1_555
B3 B6 1_555 1_555
B4 B5 1_555 1_555
B4 B6 1_555 1_555
B4 H43 1_555 1_555
B5 B6 1_555 1_555
B5 H43 1_555 1_555

#END
