
#######################################################################
#
#                 Cambridge Crystallographic Data Centre
#                                CCDC 
#
#######################################################################
#
# If this CIF has been generated from an entry in the Cambridge 
# Structural Database, then it will include bibliographic, chemical, 
# crystal, experimental, refinement or atomic coordinate data resulting 
# from the CCDC's data processing and validation procedures.
#
#######################################################################

data_VIKCAW
_chemical_formula_moiety         
'C6 H16 N1 1+,C21 H26 B12 N1 O1 1-,1.5(C4 H8 O1)'
_chemical_name_systematic        
'triethylammonium 1,2-benzamido-3-(1,2-diphenylethenyl)-closo-dodecaborate(9) tetrahydrofuran solvate'
_symmetry_cell_setting           triclinic
_symmetry_space_group_name_H-M   'P -1'
_symmetry_Int_Tables_number      2
_space_group_name_Hall           '-P 1'
loop_
_symmetry_equiv_pos_site_id
_symmetry_equiv_pos_as_xyz
1 x,y,z
2 -x,-y,-z
_cell_length_a                   11.2325(6)
_cell_length_b                   16.7397(8)
_cell_length_c                   20.7065(10)
_cell_angle_alpha                92.965(4)
_cell_angle_beta                 102.779(4)
_cell_angle_gamma                91.648(4)
_cell_volume                     3788.66
_exptl_crystal_colour            colorless
_exptl_crystal_description       block
_cell_formula_units_Z            4
loop_
_atom_site_label
_atom_site_type_symbol
_atom_site_fract_x
_atom_site_fract_y
_atom_site_fract_z
O1 O 0.9205(2) 0.51403(13) 0.29621(11)
N1 N 1.0131(2) 0.63373(16) 0.29557(14)
H1 H 1.063637 0.674359 0.312707
C1 C 0.9979(3) 0.5708(2) 0.32752(17)
B1 B 0.9345(4) 0.6298(2) 0.2255(2)
C2 C 0.7372(3) 0.74578(18) 0.30185(16)
C3 C 0.7289(3) 0.65714(18) 0.28898(16)
B2 B 0.8644(4) 0.5370(2) 0.22831(18)
C4 C 1.0627(3) 0.5593(2) 0.39623(17)
C5 C 0.6763(3) 0.60833(19) 0.32476(17)
H2 H 0.679090 0.552961 0.312833
B3 B 0.8033(4) 0.6424(2) 0.0938(2)
H3 H 0.782718 0.677512 0.048342
C6 C 1.0771(4) 0.4820(2) 0.41826(19)
H4 H 1.041798 0.437215 0.389694
C7 C 0.6361(3) 0.6959(2) 0.42175(18)
H5 H 0.693055 0.736401 0.415837
C8 C 0.6150(3) 0.62595(19) 0.37936(16)
B4 B 0.8348(4) 0.4864(2) 0.1485(2)
H6 H 0.835621 0.419760 0.140373
C9 C 0.8387(3) 0.7857(2) 0.34059(19)
H7 H 0.905681 0.756008 0.361612
B5 B 0.9527(4) 0.6438(2) 0.1438(2)
H8 H 1.030635 0.679677 0.132674
B6 B 0.7144(4) 0.5350(2) 0.1792(2)
H9 H 0.637085 0.499280 0.191207
B7 B 0.8882(4) 0.5539(2) 0.0957(2)
H10 H 0.923638 0.530779 0.052058
B8 B 0.8338(4) 0.6914(2) 0.17439(19)
H11 H 0.835002 0.758021 0.183269
B9 B 0.7295(4) 0.5473(2) 0.0967(2)
H12 H 0.659798 0.519752 0.053448
B10 B 0.9712(4) 0.5468(2) 0.1772(2)
H13 H 1.062529 0.519092 0.187900
C10 C 0.6405(3) 0.7905(2) 0.27117(19)
H14 H 0.569569 0.764005 0.244027
C11 C 1.1426(4) 0.4708(3) 0.4813(2)
H15 H 1.154250 0.418071 0.495884
C12 C 1.1128(3) 0.6238(3) 0.43832(19)
H16 H 1.104505 0.676456 0.423416
C13 C 0.8454(4) 0.8684(2) 0.3497(2)
H17 H 0.916324 0.895104 0.376655
C14 C 0.4679(4) 0.5804(2) 0.4407(2)
H18 H 0.409633 0.540827 0.446699
C15 C 0.5306(4) 0.5694(2) 0.3910(2)
H19 H 0.515397 0.521267 0.363647
C16 C 0.6463(4) 0.8730(2) 0.2797(2)
H20 H 0.579754 0.902807 0.258345
C17 C 0.7478(5) 0.9120(2) 0.3190(2)
H21 H 0.751298 0.968713 0.325115
C18 C 0.4902(4) 0.6492(2) 0.4817(2)
H22 H 0.447860 0.657490 0.516266
C19 C 1.1911(4) 0.5354(3) 0.5234(2)
H23 H 1.235557 0.527207 0.567089
C20 C 0.5739(4) 0.7054(2) 0.4719(2)
H24 H 0.589809 0.752522 0.500484
C21 C 1.1758(4) 0.6118(3) 0.5029(2)
H25 H 1.207911 0.656364 0.532556
B11 B 0.7763(4) 0.6245(2) 0.22624(19)
B12 B 0.6948(4) 0.6313(2) 0.14412(19)
H26 H 0.603526 0.658952 0.132177
O2 O 0.4399(2) 0.02049(14) 0.31086(13)
N2 N 0.5246(3) 0.14270(18) 0.31116(16)
H27 H 0.570775 0.184994 0.329118
C22 C 0.2339(3) 0.15793(19) 0.29485(17)
C23 C 0.5746(3) 0.0683(2) 0.4118(2)
C24 C 0.2331(3) 0.24643(19) 0.30273(17)
C25 C 0.5115(3) 0.0792(2) 0.3428(2)
B13 B 0.2915(4) 0.1256(2) 0.2365(2)
B14 B 0.4518(4) 0.1361(3) 0.2398(2)
C26 C 0.1140(3) 0.1283(2) 0.38311(18)
B15 B 0.2179(5) 0.1290(3) 0.1520(2)
H28 H 0.124502 0.153072 0.136494
B16 B 0.3867(4) 0.0411(2) 0.2418(2)
C27 C 0.1814(3) 0.1101(2) 0.33138(18)
H29 H 0.189335 0.054523 0.322173
C28 C 0.1343(4) 0.2856(2) 0.26570(19)
H30 H 0.066468 0.255192 0.239271
C29 C 0.1281(3) 0.1995(2) 0.42273(18)
H31 H 0.183723 0.240490 0.416117
B17 B 0.2402(4) 0.0342(2) 0.1892(2)
H32 H 0.163201 -0.003700 0.199116
B18 B 0.3502(4) 0.1932(2) 0.1857(2)
H33 H 0.345212 0.259628 0.193704
C30 C 0.3293(4) 0.2919(2) 0.3414(2)
H34 H 0.396228 0.266107 0.367231
B19 B 0.4997(5) 0.0552(3) 0.1947(3)
H35 H 0.593427 0.031238 0.208770
B20 B 0.3317(5) 0.1446(3) 0.1059(2)
H36 H 0.313334 0.179788 0.060415
C31 C 0.5934(4) -0.0089(3) 0.4331(2)
H37 H 0.562037 -0.054049 0.403935
B21 B 0.4780(4) 0.1496(3) 0.1597(2)
H38 H 0.555987 0.187218 0.150569
C32 C 0.0315(4) 0.0707(2) 0.3952(2)
H39 H 0.021312 0.021165 0.369735
C33 C 0.6148(4) 0.1347(3) 0.4550(2)
H40 H 0.600768 0.187187 0.440433
B22 B 0.2651(5) 0.0473(3) 0.1076(2)
H41 H 0.201892 0.017669 0.062696
C34 C 0.1352(4) 0.3687(2) 0.2676(2)
H42 H 0.068625 0.395013 0.241943
C35 C 0.2322(5) 0.4129(2) 0.3064(2)
H43 H 0.232005 0.469726 0.307930
C36 C -0.0208(4) 0.1534(3) 0.4811(2)
H44 H -0.066965 0.162109 0.513952
B23 B 0.3697(5) -0.0098(3) 0.1633(2)
H45 H 0.376613 -0.076142 0.156557
C37 C -0.0362(4) 0.0823(3) 0.4424(2)
H46 H -0.093149 0.041846 0.448357
C38 C 0.3299(4) 0.3751(2) 0.3432(2)
H47 H 0.397333 0.405803 0.369698
B24 B 0.4231(5) 0.0582(3) 0.1114(3)
H48 H 0.464109 0.035593 0.069694
C39 C 0.6577(4) -0.0191(3) 0.4967(3)
H49 H 0.675446 -0.071291 0.511135
C40 C 0.0625(4) 0.2116(3) 0.4715(2)
H50 H 0.074702 0.260117 0.498435
C41 C 0.6757(4) 0.1236(3) 0.5199(2)
H51 H 0.702793 0.168320 0.550297
C42 C 0.6961(4) 0.0476(4) 0.5393(2)
H52 H 0.738185 0.040213 0.583544
N3 N 0.2932(3) 0.43557(19) 0.07461(16)
H53 H 0.263024 0.429790 0.025345
C43 C 0.1019(4) 0.3566(3) 0.0779(3)
H54 H 0.080695 0.354543 0.029310
H55 H 0.027336 0.360964 0.094852
H56 H 0.142715 0.307763 0.092829
C44 C 0.4796(5) 0.3630(3) 0.0606(3)
H57 H 0.446275 0.353333 0.012822
H58 H 0.529417 0.318265 0.077316
H59 H 0.530327 0.412716 0.068675
C45 C 0.1867(8) 0.4287(6) 0.1038(4)
H60 H 0.139687 0.477700 0.095440
H61 H 0.215258 0.426454 0.152386
C46 C 0.2836(9) 0.5875(4) 0.0668(5)
H62 H 0.234167 0.600762 0.099087
H63 H 0.229793 0.573073 0.023429
H64 H 0.336428 0.633993 0.063284
C47 C 0.3821(7) 0.3700(5) 0.0938(4)
H65 H 0.418086 0.378040 0.141943
H66 H 0.334825 0.318258 0.086710
C48 C 0.3655(8) 0.5143(5) 0.0905(4)
H67 H 0.435200 0.513514 0.068513
H68 H 0.398717 0.521305 0.139020
O3 O 0.6897(3) 0.2779(2) 0.35130(16)
C52 C 0.6475(6) 0.3350(3) 0.3039(4)
H85 H 0.659827 0.389832 0.325129
H86 H 0.559281 0.324952 0.284187
C53 C 0.7182(12) 0.3262(5) 0.2526(4)
H87 H 0.663140 0.318391 0.208102
H88 H 0.771998 0.374303 0.253513
C54 C 0.7905(7) 0.2559(7) 0.2682(5)
H89 H 0.749066 0.207344 0.242746
H90 H 0.872493 0.263369 0.258615
C55 C 0.7986(5) 0.2506(4) 0.3378(4)
H91 H 0.809723 0.194439 0.350078
H92 H 0.869037 0.283920 0.363606
O4 O 0.1936(3) 0.7606(2) 0.33374(18)
C56 C 0.1603(8) 0.8180(4) 0.2848(4)
H93 H 0.178058 0.873205 0.304848
H94 H 0.072408 0.811679 0.263255
C57 C 0.2377(18) 0.7998(8) 0.2361(6)
H95 H 0.186658 0.794391 0.190415
H96 H 0.300413 0.843257 0.238484
C58 C 0.3006(5) 0.7222(5) 0.3234(4)
H97 H 0.299957 0.665797 0.335720
H98 H 0.375551 0.750540 0.349891
C59 C 0.2940(9) 0.7266(10) 0.2534(6)
H99 H 0.376721 0.726421 0.244109
H100 H 0.244576 0.680640 0.228045
N4 N 0.8296(5) 0.9514(3) 0.0998(3)
H101 H 0.854108 1.000337 0.079351
C60 C 0.8743(10) 0.9567(5) 0.1785(4)
H102 H 0.813933 0.927312 0.197736
H103 H 0.953038 0.930189 0.190867
C61 C 0.6305(6) 0.8722(4) 0.0893(3)
H104 H 0.592919 0.856011 0.042885
H105 H 0.566378 0.880189 0.114009
H106 H 0.683668 0.830286 0.108865
C62 C 0.9969(8) 0.8746(5) 0.0660(6)
H107 H 1.014974 0.923660 0.045507
H108 H 1.002806 0.828048 0.036278
H109 H 1.055768 0.870795 0.108272
C63 C 0.8900(7) 1.0407(5) 0.2078(4)
H110 H 0.955400 1.068708 0.192382
H111 H 0.911502 1.040256 0.256284
H112 H 0.813558 1.068218 0.193911
C64 C 0.8846(10) 0.8762(6) 0.0766(8)
H113 H 0.879908 0.836061 0.109522
H114 H 0.828667 0.855999 0.034642
C65 C 0.6979(10) 0.9419(8) 0.0920(8)
H115 H 0.678586 0.975588 0.128827
H116 H 0.661940 0.968173 0.050846
O5 O 0.7896(5) 0.1111(3) 0.0545(3)
C68 C 0.7934(8) 0.2558(6) 0.0327(6)
H128 H 0.857652 0.275825 0.011008
H129 H 0.762885 0.300770 0.056560
C69 C 0.6878(7) 0.2072(5) -0.0174(5)
H130 H 0.610429 0.235559 -0.022417
H131 H 0.708028 0.199993 -0.061425
C70 C 0.6765(7) 0.1308(5) 0.0103(4)
H132 H 0.653678 0.088713 -0.026102
H133 H 0.610532 0.132215 0.035053
C71 C 0.8365(12) 0.1882(7) 0.0775(6)
H134 H 0.926676 0.187853 0.085556
H135 H 0.815377 0.200515 0.120803
H69? H 0.270400 0.426808 0.025209
H70? H 0.062052 0.404466 0.090556
H71? H 0.072205 0.309974 0.097345
H72? H 0.082768 0.348190 0.029470
H73? H 0.567522 0.374017 0.065974
H74? H 0.441188 0.354708 0.013273
H75? H 0.466143 0.314835 0.083358
H76? H 0.329218 0.620836 0.105133
H77? H 0.215294 0.617158 0.042865
H78? H 0.337940 0.573698 0.037206
C49? C 0.4221(9) 0.4357(7) 0.0911(5)
H79? H 0.449474 0.436763 0.139960
H80? H 0.454279 0.485575 0.076292
C50? C 0.2366(12) 0.5143(7) 0.0896(6)
H81? H 0.147881 0.508788 0.069846
H82? H 0.246418 0.521459 0.138252
C51? C 0.2256(9) 0.3668(7) 0.1007(5)
H83? H 0.262815 0.316163 0.090481
H84? H 0.242223 0.374906 0.149663
H117? H 0.789728 1.002149 0.085399
H118? H 0.638139 0.856626 0.134926
H119? H 0.593601 0.827336 0.058323
H120? H 0.578535 0.918378 0.081740
H121? H 0.949729 0.829472 0.077564
H122? H 1.082263 0.872974 0.090080
H123? H 0.992785 0.870879 0.018131
C66? C 0.9454(11) 0.9508(8) 0.0843(6)
H124? H 1.004571 0.976233 0.123070
H125? H 0.942944 0.986097 0.047193
C67? C 0.7590(16) 0.8947(16) 0.0778(9)
H126? H 0.807335 0.847037 0.089819
H127? H 0.746664 0.896300 0.029038
loop_
_geom_bond_atom_site_label_1
_geom_bond_atom_site_label_2
_geom_bond_site_symmetry_1
_geom_bond_site_symmetry_2
O1 C1 1_555 1_555
N1 H1 1_555 1_555
C1 N1 1_555 1_555
B1 N1 1_555 1_555
C2 C3 1_555 1_555
C3 C5 1_555 1_555
B2 O1 1_555 1_555
C4 C1 1_555 1_555
C5 H2 1_555 1_555
B3 H3 1_555 1_555
C6 C4 1_555 1_555
H4 C6 1_555 1_555
C7 H5 1_555 1_555
C8 C5 1_555 1_555
B4 B2 1_555 1_555
H6 B4 1_555 1_555
C9 C2 1_555 1_555
H7 C9 1_555 1_555
B5 B1 1_555 1_555
H8 B5 1_555 1_555
B6 B2 1_555 1_555
H9 B6 1_555 1_555
B7 B3 1_555 1_555
H10 B7 1_555 1_555
B8 B1 1_555 1_555
H11 B8 1_555 1_555
B9 B3 1_555 1_555
H12 B9 1_555 1_555
B10 B1 1_555 1_555
H13 B10 1_555 1_555
C10 C2 1_555 1_555
H14 C10 1_555 1_555
C11 C6 1_555 1_555
H15 C11 1_555 1_555
C12 C4 1_555 1_555
H16 C12 1_555 1_555
C13 C9 1_555 1_555
H17 C13 1_555 1_555
C14 H18 1_555 1_555
C15 C8 1_555 1_555
H19 C15 1_555 1_555
C16 C10 1_555 1_555
H20 C16 1_555 1_555
C17 C13 1_555 1_555
H21 C17 1_555 1_555
C18 C14 1_555 1_555
H22 C18 1_555 1_555
C19 C11 1_555 1_555
H23 C19 1_555 1_555
C20 C7 1_555 1_555
H24 C20 1_555 1_555
C21 C12 1_555 1_555
H25 C21 1_555 1_555
B11 B1 1_555 1_555
B12 B3 1_555 1_555
H26 B12 1_555 1_555
O2 C25 1_555 1_555
N2 H27 1_555 1_555
C22 C24 1_555 1_555
C23 C25 1_555 1_555
C24 C28 1_555 1_555
C25 N2 1_555 1_555
B13 C22 1_555 1_555
B14 N2 1_555 1_555
C26 C27 1_555 1_555
B15 B13 1_555 1_555
H28 B15 1_555 1_555
B16 O2 1_555 1_555
C27 C22 1_555 1_555
H29 C27 1_555 1_555
C28 H30 1_555 1_555
C29 C26 1_555 1_555
H31 C29 1_555 1_555
B17 B13 1_555 1_555
H32 B17 1_555 1_555
B18 B13 1_555 1_555
H33 B18 1_555 1_555
C30 C24 1_555 1_555
H34 C30 1_555 1_555
B19 B14 1_555 1_555
H35 B19 1_555 1_555
B20 B15 1_555 1_555
H36 B20 1_555 1_555
C31 C23 1_555 1_555
H37 C31 1_555 1_555
B21 B14 1_555 1_555
H38 B21 1_555 1_555
C32 C26 1_555 1_555
H39 C32 1_555 1_555
C33 C23 1_555 1_555
H40 C33 1_555 1_555
B22 B15 1_555 1_555
H41 B22 1_555 1_555
C34 C28 1_555 1_555
H42 C34 1_555 1_555
C35 C34 1_555 1_555
H43 C35 1_555 1_555
C36 H44 1_555 1_555
B23 B16 1_555 1_555
H45 B23 1_555 1_555
C37 C32 1_555 1_555
H46 C37 1_555 1_555
C38 C30 1_555 1_555
H47 C38 1_555 1_555
B24 B19 1_555 1_555
H48 B24 1_555 1_555
C39 C31 1_555 1_555
H49 C39 1_555 1_555
C40 C29 1_555 1_555
H50 C40 1_555 1_555
C41 C33 1_555 1_555
H51 C41 1_555 1_555
C42 C39 1_555 1_555
H52 C42 1_555 1_555
N3 H53 1_555 1_555
C43 H54 1_555 1_555
H55 C43 1_555 1_555
H56 C43 1_555 1_555
C44 H57 1_555 1_555
H58 C44 1_555 1_555
H59 C44 1_555 1_555
C45 N3 1_555 1_555
H60 C45 1_555 1_555
H61 C45 1_555 1_555
C46 H62 1_555 1_555
H63 C46 1_555 1_555
H64 C46 1_555 1_555
C47 N3 1_555 1_555
H65 C47 1_555 1_555
H66 C47 1_555 1_555
C48 N3 1_555 1_555
H67 C48 1_555 1_555
H68 C48 1_555 1_555
O3 C52 1_555 1_555
C52 H85 1_555 1_555
H86 C52 1_555 1_555
C53 C52 1_555 1_555
H87 C53 1_555 1_555
H88 C53 1_555 1_555
C54 C53 1_555 1_555
H89 C54 1_555 1_555
H90 C54 1_555 1_555
C55 O3 1_555 1_555
H91 C55 1_555 1_555
H92 C55 1_555 1_555
O4 C56 1_555 1_555
C56 H93 1_555 1_555
H94 C56 1_555 1_555
C57 C56 1_555 1_555
H95 C57 1_555 1_555
H96 C57 1_555 1_555
C58 O4 1_555 1_555
H97 C58 1_555 1_555
H98 C58 1_555 1_555
C59 C57 1_555 1_555
H99 C59 1_555 1_555
H100 C59 1_555 1_555
N4 H101 1_555 1_555
C60 N4 1_555 1_555
H102 C60 1_555 1_555
H103 C60 1_555 1_555
C61 H104 1_555 1_555
H105 C61 1_555 1_555
H106 C61 1_555 1_555
C62 H107 1_555 1_555
H108 C62 1_555 1_555
H109 C62 1_555 1_555
C63 C60 1_555 1_555
H110 C63 1_555 1_555
H111 C63 1_555 1_555
H112 C63 1_555 1_555
C64 N4 1_555 1_555
H113 C64 1_555 1_555
H114 C64 1_555 1_555
C65 N4 1_555 1_555
H115 C65 1_555 1_555
H116 C65 1_555 1_555
O5 C70 1_555 1_555
C68 H128 1_555 1_555
H129 C68 1_555 1_555
C69 C68 1_555 1_555
H130 C69 1_555 1_555
H131 C69 1_555 1_555
C70 C69 1_555 1_555
H132 C70 1_555 1_555
H133 C70 1_555 1_555
C71 O5 1_555 1_555
H134 C71 1_555 1_555
H135 C71 1_555 1_555
B1 B2 1_555 1_555
C3 B11 1_555 1_555
B2 B10 1_555 1_555
B2 B11 1_555 1_555
B3 B5 1_555 1_555
B3 B8 1_555 1_555
C7 C8 1_555 1_555
B4 B6 1_555 1_555
B4 B7 1_555 1_555
B4 B9 1_555 1_555
B4 B10 1_555 1_555
B5 B7 1_555 1_555
B5 B8 1_555 1_555
B5 B10 1_555 1_555
B6 B9 1_555 1_555
B6 B11 1_555 1_555
B6 B12 1_555 1_555
B7 B9 1_555 1_555
B7 B10 1_555 1_555
B8 B11 1_555 1_555
B8 B12 1_555 1_555
B9 B12 1_555 1_555
C14 C15 1_555 1_555
C16 C17 1_555 1_555
C18 C20 1_555 1_555
C19 C21 1_555 1_555
B11 B12 1_555 1_555
B13 B14 1_555 1_555
B13 B16 1_555 1_555
B14 B16 1_555 1_555
B14 B18 1_555 1_555
B15 B17 1_555 1_555
B15 B18 1_555 1_555
B16 B17 1_555 1_555
B16 B19 1_555 1_555
B17 B22 1_555 1_555
B17 B23 1_555 1_555
B18 B20 1_555 1_555
B18 B21 1_555 1_555
B19 B21 1_555 1_555
B19 B23 1_555 1_555
B20 B21 1_555 1_555
B20 B22 1_555 1_555
B20 B24 1_555 1_555
B21 B24 1_555 1_555
B22 B23 1_555 1_555
B22 B24 1_555 1_555
C35 C38 1_555 1_555
C36 C37 1_555 1_555
C36 C40 1_555 1_555
B23 B24 1_555 1_555
C41 C42 1_555 1_555
C43 C45 1_555 1_555
C44 C47 1_555 1_555
C46 C48 1_555 1_555
C54 C55 1_555 1_555
C58 C59 1_555 1_555
C61 C65 1_555 1_555
C62 C64 1_555 1_555
C68 C71 1_555 1_555

#END
