
#######################################################################
#
#                 Cambridge Crystallographic Data Centre
#                                CCDC 
#
#######################################################################
#
# If this CIF has been generated from an entry in the Cambridge 
# Structural Database, then it will include bibliographic, chemical, 
# crystal, experimental, refinement or atomic coordinate data resulting 
# from the CCDC's data processing and validation procedures.
#
#######################################################################

data_VIKLIL
_chemical_formula_moiety         'C28 H50 N4 O2'
_chemical_name_systematic        
DL-4,4'-Ethane-1,2-diyl-bis(1,3-di-t-butyl-5-ethenylimidazolidin-2-one)
_symmetry_cell_setting           orthorhombic
_symmetry_space_group_name_H-M   'P 21 21 21'
_symmetry_Int_Tables_number      19
_space_group_name_Hall           'P 2ac 2ab'
loop_
_symmetry_equiv_pos_site_id
_symmetry_equiv_pos_as_xyz
1 x,y,z
2 1/2-x,-y,1/2+z
3 -x,1/2+y,1/2-z
4 1/2+x,1/2-y,-z
_cell_length_a                   15.5328(6)
_cell_length_b                   15.6066(6)
_cell_length_c                   24.5182(8)
_cell_angle_alpha                90
_cell_angle_beta                 90
_cell_angle_gamma                90
_cell_volume                     5943.56
_exptl_crystal_colour            colorless
_exptl_crystal_description       cube
_chemical_melting_point          161-162deg.C
_cell_formula_units_Z            8
loop_
_atom_site_label
_atom_site_type_symbol
_atom_site_fract_x
_atom_site_fract_y
_atom_site_fract_z
O1 O -0.53210(8) 0.14156(8) 0.36394(5)
O2 O 0.00233(8) 0.08539(8) 0.13689(5)
N1 N -0.49186(8) 0.16030(9) 0.27339(6)
N2 N -0.40520(9) 0.08566(10) 0.32843(6)
N3 N -0.12358(9) 0.03313(9) 0.17590(6)
N4 N -0.03396(8) 0.10931(9) 0.22783(6)
C1 C -0.48183(10) 0.12984(11) 0.32591(7)
C2 C -0.36346(10) 0.08387(10) 0.27438(7)
H1 H -0.3441 0.0244 0.2655
C3 C -0.43728(10) 0.11121(10) 0.23574(7)
H2 H -0.4148 0.1492 0.2062
C4 C -0.48317(11) 0.03494(11) 0.21157(7)
H3 H -0.5116 -0.0033 0.2357
C5 C -0.48615(13) 0.01813(13) 0.15880(8)
H4 H -0.4583 0.0552 0.1336
H5 H -0.5161 -0.0310 0.1460
C6 C -0.56659(10) 0.21356(11) 0.25662(7)
C7 C -0.56823(13) 0.29494(12) 0.29126(8)
H6 H -0.5134 0.3253 0.2873
H7 H -0.5770 0.2797 0.3296
H8 H -0.6153 0.3320 0.2790
C8 C -0.65142(11) 0.16386(13) 0.26253(8)
H9 H -0.6595 0.1473 0.3007
H10 H -0.6494 0.1124 0.2397
H11 H -0.6995 0.2002 0.2509
C9 C -0.55537(12) 0.23855(12) 0.19676(7)
H12 H -0.5015 0.2705 0.1923
H13 H -0.6039 0.2745 0.1853
H14 H -0.5536 0.1867 0.1742
C10 C -0.38243(12) 0.02669(12) 0.37399(7)
C11 C -0.29157(13) -0.00806(17) 0.36631(9)
H15 H -0.2883 -0.0394 0.3317
H16 H -0.2775 -0.0468 0.3965
H17 H -0.2506 0.0396 0.3658
C12 C -0.38621(16) 0.07528(14) 0.42826(8)
H18 H -0.3440 0.1220 0.4279
H19 H -0.3730 0.0359 0.4583
H20 H -0.4441 0.0990 0.4334
C13 C -0.44595(14) -0.04763(13) 0.37398(9)
H21 H -0.4425 -0.0780 0.3391
H22 H -0.5045 -0.0256 0.3791
H23 H -0.4318 -0.0871 0.4037
C14 C -0.28720(10) 0.14616(10) 0.27110(7)
H24 H -0.3095 0.2055 0.2697
H25 H -0.2521 0.1405 0.3046
C15 C -0.22965(10) 0.13062(10) 0.22145(7)
H26 H -0.1934 0.1819 0.2156
H27 H -0.2666 0.1236 0.1889
C16 C -0.17094(10) 0.05190(10) 0.22649(6)
H28 H -0.2047 0.0007 0.2385
C17 C -0.09481(10) 0.06830(10) 0.26555(7)
H29 H -0.1119 0.1088 0.2952
C18 C -0.06048(11) -0.01440(11) 0.28931(8)
H30 H -0.0386 -0.0561 0.2647
C19 C -0.05878(13) -0.03272(13) 0.34177(8)
H31 H -0.0801 0.0074 0.3676
H32 H -0.0362 -0.0861 0.3538
C20 C -0.04652(10) 0.07657(11) 0.17584(7)
C21 C -0.16210(12) -0.00533(12) 0.12600(7)
C22 C -0.24524(12) -0.05233(14) 0.14173(8)
H33 H -0.2874 -0.0109 0.1555
H34 H -0.2327 -0.0947 0.1701
H35 H -0.2688 -0.0814 0.1096
C23 C -0.09886(13) -0.07172(15) 0.10326(9)
H36 H -0.0453 -0.0431 0.0925
H37 H -0.1244 -0.0998 0.0714
H38 H -0.0864 -0.1147 0.1313
C24 C -0.18178(15) 0.06426(16) 0.08337(8)
H39 H -0.2220 0.1061 0.0989
H40 H -0.2076 0.0378 0.0510
H41 H -0.1283 0.0933 0.0731
C25 C 0.04807(10) 0.15052(11) 0.24493(7)
C26 C 0.06144(14) 0.23043(13) 0.20958(8)
H42 H 0.0119 0.2688 0.2136
H43 H 0.0671 0.2134 0.1713
H44 H 0.1139 0.2602 0.2212
C27 C 0.12307(11) 0.08765(14) 0.23908(9)
H45 H 0.1284 0.0700 0.2009
H46 H 0.1124 0.0372 0.2619
H47 H 0.1765 0.1155 0.2508
C28 C 0.04029(13) 0.17921(14) 0.30421(8)
H48 H -0.0071 0.2203 0.3076
H49 H 0.0942 0.2064 0.3157
H50 H 0.0288 0.1293 0.3274
O3 O 0.65417(8) 0.79034(8) -0.11616(5)
O4 O 0.62620(8) 0.25863(8) 0.11232(5)
N5 N 0.69354(11) 0.65650(9) -0.08271(6)
N6 N 0.62857(9) 0.74854(9) -0.02630(5)
N7 N 0.69708(10) 0.37145(9) 0.06915(6)
N8 N 0.60409(9) 0.29266(9) 0.02092(6)
C29 C 0.65860(11) 0.73752(10) -0.07913(7)
C30 C 0.68631(11) 0.61161(10) -0.02988(6)
H51 H 0.7419 0.5826 -0.0208
C31 C 0.66996(11) 0.68649(10) 0.00998(7)
H52 H 0.6292 0.6684 0.0394
C32 C 0.75320(12) 0.71894(11) 0.03462(7)
H53 H 0.7955 0.7422 0.0109
C33 C 0.76993(14) 0.71657(13) 0.08729(8)
H54 H 0.7287 0.6936 0.1119
H55 H 0.8232 0.7378 0.1007
C34 C 0.58872(12) 0.82976(11) -0.00738(7)
C35 C 0.50899(13) 0.84845(15) -0.04208(9)
H56 H 0.4686 0.8004 -0.0393
H57 H 0.5262 0.8561 -0.0802
H58 H 0.4811 0.9008 -0.0289
C36 C 0.65384(14) 0.90371(12) -0.01101(8)
H59 H 0.6719 0.9112 -0.0490
H60 H 0.7042 0.8904 0.0115
H61 H 0.6270 0.9566 0.0021
C37 C 0.55999(13) 0.81875(12) 0.05200(7)
H62 H 0.5174 0.7726 0.0543
H63 H 0.5343 0.8723 0.0650
H64 H 0.6099 0.8044 0.0746
C38 C 0.74576(12) 0.62672(11) -0.12974(7)
C39 C 0.69386(14) 0.63686(14) -0.18274(8)
H65 H 0.6416 0.6018 -0.1807
H66 H 0.7289 0.6181 -0.2137
H67 H 0.6780 0.6972 -0.1876
C40 C 0.76937(17) 0.53248(12) -0.12306(9)
H68 H 0.7167 0.4979 -0.1219
H69 H 0.8016 0.5247 -0.0891
H70 H 0.8049 0.5142 -0.1540
C41 C 0.82874(12) 0.67965(12) -0.13195(9)
H71 H 0.8608 0.6721 -0.0979
H72 H 0.8143 0.7403 -0.1367
H73 H 0.8641 0.6604 -0.1627
C42 C 0.61248(11) 0.54696(10) -0.02877(7)
H74 H 0.6150 0.5111 -0.0621
H75 H 0.5570 0.5782 -0.0291
C43 C 0.61605(11) 0.48876(10) 0.02167(7)
H76 H 0.6289 0.5243 0.0541
H77 H 0.5587 0.4624 0.0272
C44 C 0.68371(11) 0.41734(10) 0.01737(7)
H78 H 0.7395 0.4409 0.0035
C45 C 0.65246(11) 0.34329(10) -0.01929(7)
H79 H 0.6133 0.3652 -0.0485
C46 C 0.72687(12) 0.29523(12) -0.04374(7)
H80 H 0.7647 0.2662 -0.0196
C47 C 0.74330(13) 0.29056(14) -0.09671(8)
H81 H 0.7068 0.3188 -0.1220
H82 H 0.7916 0.2590 -0.1093
C48 C 0.64098(11) 0.30290(10) 0.07206(7)
C49 C 0.74707(11) 0.40418(11) 0.11678(7)
C50 C 0.80987(13) 0.47292(12) 0.09680(8)
H83 H 0.7775 0.5213 0.0817
H84 H 0.8472 0.4487 0.0685
H85 H 0.8451 0.4928 0.1274
C51 C 0.79961(13) 0.33019(13) 0.14084(8)
H86 H 0.7605 0.2853 0.1538
H87 H 0.8343 0.3513 0.1714
H88 H 0.8377 0.3066 0.1127
C52 C 0.68710(14) 0.44055(13) 0.16045(8)
H89 H 0.6474 0.3957 0.1727
H90 H 0.6542 0.4885 0.1452
H91 H 0.7213 0.4608 0.1915
C53 C 0.54781(11) 0.21911(10) 0.00673(7)
C54 C 0.46797(12) 0.22133(13) 0.04336(8)
H92 H 0.4856 0.2166 0.0816
H93 H 0.4300 0.1733 0.0341
H94 H 0.4372 0.2754 0.0378
C55 C 0.59574(13) 0.13395(11) 0.01346(9)
H95 H 0.6471 0.1339 -0.0098
H96 H 0.5578 0.0866 0.0028
H97 H 0.6130 0.1269 0.0516
C56 C 0.51858(13) 0.22824(12) -0.05273(8)
H98 H 0.5690 0.2271 -0.0768
H99 H 0.4880 0.2827 -0.0573
H100 H 0.4801 0.1807 -0.0621
loop_
_geom_bond_atom_site_label_1
_geom_bond_atom_site_label_2
_geom_bond_site_symmetry_1
_geom_bond_site_symmetry_2
O1 C1 1_555 1_555
O2 C20 1_555 1_555
N1 C1 1_555 1_555
N2 C1 1_555 1_555
N3 C16 1_555 1_555
N4 C17 1_555 1_555
C2 N2 1_555 1_555
H1 C2 1_555 1_555
C3 N1 1_555 1_555
H2 C3 1_555 1_555
C4 C3 1_555 1_555
H3 C4 1_555 1_555
C5 C4 1_555 1_555
H4 C5 1_555 1_555
H5 C5 1_555 1_555
C6 N1 1_555 1_555
C7 C6 1_555 1_555
H6 C7 1_555 1_555
H7 C7 1_555 1_555
H8 C7 1_555 1_555
C8 C6 1_555 1_555
H9 C8 1_555 1_555
H10 C8 1_555 1_555
H11 C8 1_555 1_555
C9 C6 1_555 1_555
H12 C9 1_555 1_555
H13 C9 1_555 1_555
H14 C9 1_555 1_555
C10 N2 1_555 1_555
C11 C10 1_555 1_555
H15 C11 1_555 1_555
H16 C11 1_555 1_555
H17 C11 1_555 1_555
C12 C10 1_555 1_555
H18 C12 1_555 1_555
H19 C12 1_555 1_555
H20 C12 1_555 1_555
C13 C10 1_555 1_555
H21 C13 1_555 1_555
H22 C13 1_555 1_555
H23 C13 1_555 1_555
C14 C2 1_555 1_555
H24 C14 1_555 1_555
H25 C14 1_555 1_555
C15 C14 1_555 1_555
H26 C15 1_555 1_555
H27 C15 1_555 1_555
C16 C15 1_555 1_555
H28 C16 1_555 1_555
C17 C16 1_555 1_555
H29 C17 1_555 1_555
C18 C17 1_555 1_555
H30 C18 1_555 1_555
C19 C18 1_555 1_555
H31 C19 1_555 1_555
H32 C19 1_555 1_555
C20 N3 1_555 1_555
C21 N3 1_555 1_555
C22 C21 1_555 1_555
H33 C22 1_555 1_555
H34 C22 1_555 1_555
H35 C22 1_555 1_555
C23 C21 1_555 1_555
H36 C23 1_555 1_555
H37 C23 1_555 1_555
H38 C23 1_555 1_555
C24 C21 1_555 1_555
H39 C24 1_555 1_555
H40 C24 1_555 1_555
H41 C24 1_555 1_555
C25 N4 1_555 1_555
C26 C25 1_555 1_555
H42 C26 1_555 1_555
H43 C26 1_555 1_555
H44 C26 1_555 1_555
C27 C25 1_555 1_555
H45 C27 1_555 1_555
H46 C27 1_555 1_555
H47 C27 1_555 1_555
C28 C25 1_555 1_555
H48 C28 1_555 1_555
H49 C28 1_555 1_555
H50 C28 1_555 1_555
O3 C29 1_555 1_555
O4 C48 1_555 1_555
N5 C29 1_555 1_555
N6 C29 1_555 1_555
N7 C44 1_555 1_555
N8 C45 1_555 1_555
C30 N5 1_555 1_555
H51 C30 1_555 1_555
C31 N6 1_555 1_555
H52 C31 1_555 1_555
C32 C31 1_555 1_555
H53 C32 1_555 1_555
C33 C32 1_555 1_555
H54 C33 1_555 1_555
H55 C33 1_555 1_555
C34 N6 1_555 1_555
C35 C34 1_555 1_555
H56 C35 1_555 1_555
H57 C35 1_555 1_555
H58 C35 1_555 1_555
C36 C34 1_555 1_555
H59 C36 1_555 1_555
H60 C36 1_555 1_555
H61 C36 1_555 1_555
C37 C34 1_555 1_555
H62 C37 1_555 1_555
H63 C37 1_555 1_555
H64 C37 1_555 1_555
C38 N5 1_555 1_555
C39 C38 1_555 1_555
H65 C39 1_555 1_555
H66 C39 1_555 1_555
H67 C39 1_555 1_555
C40 C38 1_555 1_555
H68 C40 1_555 1_555
H69 C40 1_555 1_555
H70 C40 1_555 1_555
C41 C38 1_555 1_555
H71 C41 1_555 1_555
H72 C41 1_555 1_555
H73 C41 1_555 1_555
C42 C30 1_555 1_555
H74 C42 1_555 1_555
H75 C42 1_555 1_555
C43 C42 1_555 1_555
H76 C43 1_555 1_555
H77 C43 1_555 1_555
C44 C43 1_555 1_555
H78 C44 1_555 1_555
C45 C44 1_555 1_555
H79 C45 1_555 1_555
C46 C45 1_555 1_555
H80 C46 1_555 1_555
C47 C46 1_555 1_555
H81 C47 1_555 1_555
H82 C47 1_555 1_555
C48 N7 1_555 1_555
C49 N7 1_555 1_555
C50 C49 1_555 1_555
H83 C50 1_555 1_555
H84 C50 1_555 1_555
H85 C50 1_555 1_555
C51 C49 1_555 1_555
H86 C51 1_555 1_555
H87 C51 1_555 1_555
H88 C51 1_555 1_555
C52 C49 1_555 1_555
H89 C52 1_555 1_555
H90 C52 1_555 1_555
H91 C52 1_555 1_555
C53 N8 1_555 1_555
C54 C53 1_555 1_555
H92 C54 1_555 1_555
H93 C54 1_555 1_555
H94 C54 1_555 1_555
C55 C53 1_555 1_555
H95 C55 1_555 1_555
H96 C55 1_555 1_555
H97 C55 1_555 1_555
C56 C53 1_555 1_555
H98 C56 1_555 1_555
H99 C56 1_555 1_555
H100 C56 1_555 1_555
N4 C20 1_555 1_555
C2 C3 1_555 1_555
N8 C48 1_555 1_555
C30 C31 1_555 1_555

#END
