
#######################################################################
#
#                 Cambridge Crystallographic Data Centre
#                                CCDC 
#
#######################################################################
#
# If this CIF has been generated from an entry in the Cambridge 
# Structural Database, then it will include bibliographic, chemical, 
# crystal, experimental, refinement or atomic coordinate data resulting 
# from the CCDC's data processing and validation procedures.
#
#######################################################################

data_VIKMAE
_chemical_formula_moiety         'C10 H24 N2 O2'
_chemical_name_systematic        
(R,R)-2,2'-(1,2-Ethanediyldiamino)bis-1-butanol
_symmetry_cell_setting           monoclinic
_symmetry_space_group_name_H-M   'P 21'
_symmetry_Int_Tables_number      4
_space_group_name_Hall           'P 2yb'
loop_
_symmetry_equiv_pos_site_id
_symmetry_equiv_pos_as_xyz
1 x,y,z
2 -x,1/2+y,-z
_cell_length_a                   7.0851(10)
_cell_length_b                   8.2165(11)
_cell_length_c                   10.2285(13)
_cell_angle_alpha                90
_cell_angle_beta                 95.389(6)
_cell_angle_gamma                90
_cell_volume                     592.817
_exptl_crystal_colour            colorless
_exptl_crystal_description       block
_cell_formula_units_Z            2
loop_
_atom_site_label
_atom_site_type_symbol
_atom_site_fract_x
_atom_site_fract_y
_atom_site_fract_z
O1 O 0.8098(2) 0.3609(2) 0.3332(2)
H1 H 0.848(4) 0.466(5) 0.362(3)
O2 O -0.3419(2) 0.1318(2) 0.60541(18)
H2 H -0.371(5) 0.033(5) 0.594(3)
N1 N 0.4318(3) 0.3073(3) 0.3922(2)
N2 N 0.0490(3) 0.1760(2) 0.5968(2)
C1 C 0.2669(3) 0.2123(3) 0.4254(3)
H3 H 0.3023 0.0963 0.4370
H4 H 0.1637 0.2203 0.3534
C2 C 0.1999(3) 0.2789(3) 0.5515(2)
H5 H 0.3080 0.2833 0.6202
H6 H 0.1517 0.3911 0.5364
C3 C 0.4884(3) 0.2785(3) 0.2585(2)
H7 H 0.3795 0.3120 0.1949
C4 C 0.5352(3) 0.1013(3) 0.2280(2)
H8 H 0.6623 0.0743 0.2711
H9 H 0.4420 0.0290 0.2651
C5 C 0.5324(4) 0.0695(4) 0.0806(3)
H10 H 0.5422 -0.0478 0.0650
H11 H 0.6397 0.1253 0.0464
H12 H 0.4136 0.1106 0.0357
C6 C 0.6530(3) 0.3930(3) 0.2388(2)
H13 H 0.6925 0.3785 0.1493
H14 H 0.6113 0.5071 0.2476
C7 C -0.0500(3) 0.2514(3) 0.7032(2)
H15 H -0.0945 0.3627 0.6751
C8 C 0.0794(3) 0.2645(3) 0.8309(3)
H16 H 0.0973 0.1546 0.8699
H17 H 0.2051 0.3048 0.8108
C9 C 0.0016(4) 0.3775(5) 0.9311(3)
H18 H 0.0888 0.3794 1.0113
H19 H -0.1227 0.3381 0.9518
H20 H -0.0114 0.4876 0.8945
C10 C -0.2199(3) 0.1460(3) 0.7236(2)
H21 H -0.1763 0.0365 0.7533
H22 H -0.2908 0.1944 0.7929
H23 H 0.528(4) 0.268(4) 0.446(3)
H24 H -0.040(4) 0.158(4) 0.539(3)
loop_
_geom_bond_atom_site_label_1
_geom_bond_atom_site_label_2
_geom_bond_site_symmetry_1
_geom_bond_site_symmetry_2
O1 H1 1_555 1_555
O2 H2 1_555 1_555
N1 C1 1_555 1_555
N2 C2 1_555 1_555
C1 H3 1_555 1_555
H4 C1 1_555 1_555
C2 C1 1_555 1_555
H5 C2 1_555 1_555
H6 C2 1_555 1_555
C3 N1 1_555 1_555
H7 C3 1_555 1_555
C4 C3 1_555 1_555
H8 C4 1_555 1_555
H9 C4 1_555 1_555
C5 C4 1_555 1_555
H10 C5 1_555 1_555
H11 C5 1_555 1_555
H12 C5 1_555 1_555
C6 O1 1_555 1_555
H13 C6 1_555 1_555
H14 C6 1_555 1_555
C7 N2 1_555 1_555
H15 C7 1_555 1_555
C8 C7 1_555 1_555
H16 C8 1_555 1_555
H17 C8 1_555 1_555
C9 C8 1_555 1_555
H18 C9 1_555 1_555
H19 C9 1_555 1_555
H20 C9 1_555 1_555
C10 O2 1_555 1_555
H21 C10 1_555 1_555
H22 C10 1_555 1_555
H23 N1 1_555 1_555
H24 N2 1_555 1_555
C3 C6 1_555 1_555
C7 C10 1_555 1_555

#END
