
#######################################################################
#
#                 Cambridge Crystallographic Data Centre
#                                CCDC 
#
#######################################################################
#
# If this CIF has been generated from an entry in the Cambridge 
# Structural Database, then it will include bibliographic, chemical, 
# crystal, experimental, refinement or atomic coordinate data resulting 
# from the CCDC's data processing and validation procedures.
#
#######################################################################

data_VIKPIR
_chemical_name_common            
'9,14,19,24,26,28,30,32-octaethoxyhexacyclo[21.2.2.2$3,6!.2$8,11!.2$13,16!.2$18,21!]pentatriaconta-1(25),3(35),5,8,10,13,15,18,20,23,26,28,30,32-tetradecaene-4,34-dione valeraldehyde solvate'
_chemical_formula_moiety         'C51 H60 O10,C5 H10 O1'
_chemical_name_systematic        
'Pillar[4]arene[1]quinone  valeraldehyde solvate'
_symmetry_cell_setting           monoclinic
_symmetry_space_group_name_H-M   'P 21/c'
_symmetry_Int_Tables_number      14
_space_group_name_Hall           '-P 2ybc'
loop_
_symmetry_equiv_pos_site_id
_symmetry_equiv_pos_as_xyz
1 x,y,z
2 -x,1/2+y,1/2-z
3 -x,-y,-z
4 x,1/2-y,1/2+z
_cell_length_a                   40.9391(11)
_cell_length_b                   11.4058(4)
_cell_length_c                   22.6428(7)
_cell_angle_alpha                90
_cell_angle_beta                 91.146(2)
_cell_angle_gamma                90
_cell_volume                     10570.8
_exptl_crystal_colour            red
_exptl_crystal_description       plate
_cell_formula_units_Z            8
loop_
_atom_site_label
_atom_site_type_symbol
_atom_site_fract_x
_atom_site_fract_y
_atom_site_fract_z
O1 O 0.75057(8) 0.4060(3) 0.54212(14)
O2 O 0.80953(6) 0.7588(2) 0.43564(11)
O3 O 0.81109(5) 0.40058(18) 0.74718(10)
O4 O 0.77168(7) 0.8217(2) 0.65074(13)
O5 O 0.93344(5) 0.33152(19) 0.76124(10)
O6 O 0.87824(5) 0.77396(18) 0.75016(10)
O7 O 0.94600(7) 0.2549(2) 0.53436(13)
O8 O 0.97782(5) 0.6890(2) 0.62846(10)
O9 O 0.83661(6) 0.3155(2) 0.41548(12)
O10 O 0.93120(5) 0.6620(2) 0.41972(11)
C1 C 0.81663(8) 0.5378(4) 0.38044(14)
H1 H 0.815904 0.608960 0.355388
H2 H 0.807518 0.471609 0.357150
C2 C 0.79659(7) 0.5569(3) 0.43472(14)
C3 C 0.78099(8) 0.4706(4) 0.46242(15)
H3 H 0.781216 0.394226 0.445701
C4 C 0.76359(8) 0.4890(4) 0.51737(15)
C5 C 0.76237(7) 0.6085(3) 0.54254(13)
C6 C 0.77711(7) 0.6959(3) 0.51426(14)
H4 H 0.775720 0.772997 0.529912
C7 C 0.79548(7) 0.6773(3) 0.45957(14)
C8 C 0.74490(7) 0.6239(4) 0.60000(14)
H5 H 0.733783 0.700996 0.600208
H6 H 0.728062 0.562193 0.603732
C9 C 0.76861(7) 0.6167(3) 0.65159(13)
C10 C 0.77818(7) 0.5100(3) 0.67523(13)
H7 H 0.769193 0.439730 0.659275
C11 C 0.80073(7) 0.5036(3) 0.72197(13)
C12 C 0.81432(7) 0.6054(3) 0.74629(12)
C13 C 0.80436(7) 0.7128(3) 0.72280(14)
H8 H 0.813094 0.783224 0.738961
C14 C 0.78193(7) 0.7185(3) 0.67629(15)
C15 C 0.79665(8) 0.2933(3) 0.72709(16)
H9 H 0.801152 0.280912 0.684751
H10 H 0.772694 0.295456 0.732088
C16 C 0.81139(14) 0.1973(4) 0.7633(2)
H11 H 0.801575 0.122291 0.751493
H12 H 0.807293 0.211795 0.805139
H13 H 0.834991 0.194632 0.757012
C17 C 0.83936(7) 0.5983(3) 0.79665(13)
H14 H 0.839235 0.673067 0.818879
H15 H 0.832958 0.535053 0.824016
C18 C 0.87371(6) 0.5748(3) 0.77571(12)
C19 C 0.88751(7) 0.4638(3) 0.77990(12)
H16 H 0.875344 0.402159 0.797114
C20 C 0.91872(7) 0.4406(3) 0.75953(13)
C21 C 0.93720(7) 0.5300(3) 0.73507(13)
C22 C 0.92377(7) 0.6422(3) 0.73234(13)
H17 H 0.936304 0.704512 0.716645
C23 C 0.89254(7) 0.6650(3) 0.75198(13)
C24 C 0.91882(8) 0.2413(3) 0.79430(16)
H18 H 0.897330 0.219981 0.776552
H19 H 0.915487 0.267458 0.835419
C25 C 0.94158(8) 0.1372(3) 0.79345(17)
H20 H 0.945806 0.115298 0.752463
H21 H 0.931484 0.071053 0.813818
H22 H 0.962221 0.157726 0.813538
C26 C 0.89682(9) 0.8687(3) 0.72712(17)
H23 H 0.903708 0.850676 0.686456
H24 H 0.916588 0.882400 0.752054
C27 C 0.87513(10) 0.9755(3) 0.7271(2)
H25 H 0.855711 0.960915 0.702227
H26 H 0.887131 1.042794 0.711622
H27 H 0.868463 0.992311 0.767602
C28 C 0.97034(7) 0.5064(3) 0.70868(14)
H28 H 0.985075 0.573572 0.716874
H29 H 0.980129 0.435724 0.727211
C29 C 0.96696(6) 0.4882(3) 0.64271(14)
C30 C 0.95937(7) 0.3786(3) 0.61948(15)
H30 H 0.957683 0.313522 0.645416
C31 C 0.95422(8) 0.3620(3) 0.55969(16)
C32 C 0.95689(7) 0.4555(3) 0.52024(14)
C33 C 0.96488(7) 0.5647(3) 0.54359(14)
H31 H 0.967077 0.629355 0.517531
C34 C 0.96970(6) 0.5821(3) 0.60316(14)
C35 C 0.93979(13) 0.1595(3) 0.5726(3)
H32 H 0.919890 0.171437 0.595945
H33 H 0.958620 0.141991 0.599228
C36 C 0.98116(8) 0.7876(3) 0.59044(17)
H34 H 0.960250 0.803978 0.569317
H35 H 0.998155 0.772509 0.560895
C37 C 0.99082(11) 0.8904(3) 0.6292(2)
H36 H 0.993993 0.959977 0.604552
H37 H 1.011214 0.872158 0.650663
H38 H 0.973523 0.905747 0.657477
C38 C 0.95130(8) 0.4394(4) 0.45435(15)
H39 H 0.966151 0.492116 0.432833
H40 H 0.956703 0.357695 0.443498
C39 C 0.91632(7) 0.4654(3) 0.43549(14)
C40 C 0.89305(8) 0.3766(3) 0.43469(14)
H41 H 0.899136 0.299540 0.446484
C41 C 0.86078(8) 0.3993(3) 0.41671(14)
C42 C 0.85177(7) 0.5112(3) 0.39898(13)
C43 C 0.87511(7) 0.6004(3) 0.39969(13)
H42 H 0.869064 0.677334 0.387625
C44 C 0.90700(7) 0.5779(3) 0.41782(13)
C45 C 0.84444(11) 0.1988(4) 0.4326(2)
H43 H 0.853967 0.197913 0.473163
H44 H 0.860563 0.164884 0.405459
C46 C 0.81305(13) 0.1279(4) 0.4303(3)
H45 H 0.803546 0.131051 0.390244
H46 H 0.797535 0.160718 0.458246
H47 H 0.817807 0.046278 0.440832
C47 C 0.92383(10) 0.7746(4) 0.39829(19)
H48 H 0.908131 0.813968 0.424407
H49 H 0.913979 0.769583 0.358085
C48 C 0.95534(12) 0.8421(5) 0.3970(2)
H50 H 0.969663 0.807738 0.367508
H51 H 0.966127 0.838526 0.436038
H52 H 0.950776 0.924018 0.386794
C49 C 0.7704(2) 0.9228(6) 0.6913(4)
H53 H 0.760995 0.898222 0.729282
H54 H 0.792717 0.952887 0.699214
C50 C 0.7501(3) 1.0156(7) 0.6643(5)
H55 H 0.756424 1.027305 0.623211
H56 H 0.753190 1.088750 0.686364
H57 H 0.727017 0.992477 0.665294
C51 C 0.9348(8) 0.062(2) 0.5223(16)
H58 H 0.915085 0.079725 0.498708
H59 H 0.932335 -0.015434 0.540867
H60 H 0.953784 0.060859 0.496753
O11 O 0.67903(6) 0.7842(2) 0.18889(9)
O12 O 0.73559(6) 1.1152(2) 0.31957(11)
O13 O 0.56060(5) 0.80140(19) 0.20819(9)
O14 O 0.63118(5) 1.21469(19) 0.20072(10)
O15 O 0.51582(5) 0.70238(18) 0.41539(8)
O16 O 0.54384(5) 1.15560(18) 0.34495(9)
O17 O 0.63092(5) 0.60814(17) 0.51621(9)
O18 O 0.57276(4) 1.04116(17) 0.54866(9)
O19 O 0.72516(5) 0.6599(2) 0.37365(9)
O20 O 0.69711(5) 1.01136(19) 0.53349(9)
C55 C 0.75233(7) 0.8798(3) 0.35199(13)
H71 H 0.767726 0.944711 0.360712
H72 H 0.765216 0.808949 0.342654
C56 C 0.73053(7) 0.9118(3) 0.29972(12)
C57 C 0.71620(7) 0.8319(3) 0.26477(13)
H73 H 0.721422 0.751599 0.270916
C58 C 0.69286(7) 0.8621(3) 0.21749(12)
C59 C 0.68605(6) 0.9881(3) 0.20562(12)
C60 C 0.70114(7) 1.0684(3) 0.23899(13)
H74 H 0.697424 1.148928 0.230442
C61 C 0.72344(7) 1.0377(3) 0.28879(13)
C62 C 0.66155(7) 1.0176(3) 0.15678(12)
H75 H 0.663691 0.960909 0.123984
H76 H 0.666095 1.096972 0.141268
C63 C 0.62702(7) 1.0133(3) 0.17993(11)
C64 C 0.60939(7) 0.9091(3) 0.18040(12)
H77 H 0.618483 0.840856 0.163208
C65 C 0.57878(7) 0.9029(3) 0.20548(12)
C66 C 0.56448(6) 1.0031(3) 0.22917(12)
C67 C 0.58172(7) 1.1076(3) 0.22752(12)
H78 H 0.572096 1.176726 0.242890
C68 C 0.61280(7) 1.1137(3) 0.20385(12)
C69 C 0.57413(8) 0.6981(3) 0.18191(14)
H79 H 0.594965 0.676719 0.202076
H80 H 0.578414 0.711974 0.139607
C70 C 0.54946(10) 0.6011(3) 0.18856(19)
H81 H 0.557288 0.530255 0.168827
H82 H 0.528551 0.625236 0.170568
H83 H 0.546494 0.584660 0.230593
C71 C 0.62088(9) 1.3146(3) 0.23292(16)
H84 H 0.618908 1.294725 0.275255
H85 H 0.599293 1.341552 0.217823
C72 C 0.64585(10) 1.4095(3) 0.2255(2)
H86 H 0.646549 1.432323 0.183798
H87 H 0.667361 1.380430 0.238371
H88 H 0.639942 1.477571 0.249386
C73 C 0.53051(6) 0.9974(3) 0.25521(12)
H89 H 0.520122 1.075489 0.251532
H90 H 0.517073 0.941243 0.231869
C74 C 0.53055(6) 0.9604(3) 0.31960(12)
C75 C 0.52312(6) 0.8466(3) 0.33644(12)
H91 H 0.518205 0.789773 0.306919
C76 C 0.52271(6) 0.8141(2) 0.39573(12)
C77 C 0.52995(6) 0.8966(2) 0.43969(11)
C78 C 0.53676(6) 1.0106(3) 0.42281(12)
H92 H 0.541297 1.067928 0.452304
C79 C 0.53710(6) 1.0430(3) 0.36368(12)
C80 C 0.50292(7) 0.6190(3) 0.37410(13)
H93 H 0.520218 0.592254 0.347289
H94 H 0.485053 0.654507 0.350050
C81 C 0.49020(8) 0.5173(3) 0.40941(15)
H95 H 0.482379 0.455708 0.382461
H96 H 0.472158 0.543922 0.433854
H97 H 0.507786 0.486133 0.434868
C82 C 0.54874(8) 1.2444(3) 0.38847(15)
H98 H 0.566781 1.222026 0.415978
H99 H 0.528662 1.255017 0.411527
C83 C 0.55699(10) 1.3556(3) 0.35719(18)
H100 H 0.539879 1.373357 0.327661
H101 H 0.577963 1.346511 0.337571
H102 H 0.558552 1.419878 0.385840
C84 C 0.53258(6) 0.8624(3) 0.50401(11)
H103 H 0.519919 0.789842 0.510801
H104 H 0.523428 0.925373 0.528784
C85 C 0.56826(6) 0.8423(2) 0.52100(11)
C86 C 0.58230(6) 0.7330(2) 0.51335(11)
H105 H 0.569023 0.669386 0.500277
C87 C 0.61555(6) 0.7143(2) 0.52448(11)
C88 C 0.63516(6) 0.8064(2) 0.54470(11)
C89 C 0.62101(6) 0.9153(2) 0.55311(11)
H106 H 0.634139 0.978280 0.567376
C90 C 0.58801(6) 0.9342(2) 0.54110(11)
C91 C 0.61162(8) 0.5116(3) 0.49727(17)
H107 H 0.599826 0.530999 0.459945
H108 H 0.595345 0.492100 0.527490
C92 C 0.63416(10) 0.4092(3) 0.4880(2)
H109 H 0.649179 0.427342 0.456126
H110 H 0.621262 0.339632 0.477402
H111 H 0.646706 0.393830 0.524522
C93 C 0.59194(7) 1.1368(3) 0.56882(14)
H112 H 0.609145 1.154951 0.540087
H113 H 0.602581 1.117820 0.607287
C94 C 0.56940(9) 1.2399(3) 0.57523(17)
H114 H 0.559859 1.260215 0.536539
H115 H 0.581729 1.307000 0.590967
H116 H 0.551931 1.219607 0.602370
C95 C 0.67149(6) 0.7899(3) 0.55664(12)
H117 H 0.678527 0.843003 0.589071
H118 H 0.675505 0.708391 0.569878
C96 C 0.69191(6) 0.8145(3) 0.50286(12)
C97 C 0.69829(6) 0.7263(3) 0.46284(12)
H119 H 0.689170 0.650719 0.468700
C98 C 0.71777(6) 0.7459(3) 0.41412(12)
C99 C 0.73143(6) 0.8565(3) 0.40539(12)
C100 C 0.72499(6) 0.9454(3) 0.44505(13)
H120 H 0.734362 1.020638 0.439330
C101 C 0.70489(6) 0.9265(3) 0.49348(12)
C102 C 0.70973(8) 0.5485(3) 0.37933(16)
H121 H 0.685692 0.557296 0.376364
H122 H 0.715411 0.513279 0.418154
C103 C 0.72166(10) 0.4714(4) 0.33014(19)
H123 H 0.715791 0.506856 0.291959
H124 H 0.711498 0.393864 0.332980
H125 H 0.745462 0.463354 0.333507
C104 C 0.70867(8) 1.1282(3) 0.52478(15)
H126 H 0.701286 1.157827 0.485641
H127 H 0.732849 1.129845 0.526559
C105 C 0.69508(8) 1.2028(3) 0.57284(18)
H128 H 0.671162 1.201210 0.570389
H129 H 0.702741 1.283682 0.568244
H130 H 0.702458 1.172495 0.611340
O21 O 0.8710(4) 0.7899(15) 0.5621(9)
C106 C 0.8768(3) 0.6980(12) 0.5813(5)
C107 C 0.8595(2) 0.5881(8) 0.5737(4)
C108 C 0.8726(2) 0.4928(8) 0.6023(4)
C109 C 0.8556(2) 0.3787(9) 0.5947(4)
C110 C 0.8624(3) 0.2746(11) 0.6143(5)
O22 O 0.61546(18) 0.5923(7) 0.3461(3)
C111 C 0.6073(2) 0.6803(8) 0.3459(4)
C112 C 0.62767(15) 0.7673(6) 0.3372(3)
C113 C 0.62043(14) 0.8733(5) 0.3723(3)
C114 C 0.64045(16) 0.9753(6) 0.3595(3)
C115 C 0.63472(19) 1.0941(7) 0.3952(4)
H61? H 0.924599 0.185888 0.603318
H62? H 0.960542 0.136815 0.592652
C52? C 0.7842(5) 0.9200(14) 0.6628(9)
H63? H 0.807920 0.916964 0.655213
H64? H 0.781444 0.936669 0.705308
C53? C 0.7686(6) 1.0204(15) 0.6260(10)
H65? H 0.779336 1.025546 0.587767
H66? H 0.771426 1.094723 0.647286
H67? H 0.745297 1.004742 0.619694
C54? C 0.9257(8) 0.054(2) 0.5430(16)
H68? H 0.903701 0.072318 0.527603
H69? H 0.924354 -0.010261 0.571607
H70? H 0.939585 0.030457 0.510380
loop_
_geom_bond_atom_site_label_1
_geom_bond_atom_site_label_2
_geom_bond_site_symmetry_1
_geom_bond_site_symmetry_2
O1 C4 1_555 1_555
O2 C7 1_555 1_555
O3 C11 1_555 1_555
O4 C14 1_555 1_555
O5 C20 1_555 1_555
O6 C23 1_555 1_555
O7 C31 1_555 1_555
O8 C34 1_555 1_555
O9 C41 1_555 1_555
O10 C44 1_555 1_555
C1 H1 1_555 1_555
H2 C1 1_555 1_555
C2 C1 1_555 1_555
C3 C2 1_555 1_555
H3 C3 1_555 1_555
C4 C3 1_555 1_555
C5 C4 1_555 1_555
C6 C5 1_555 1_555
H4 C6 1_555 1_555
C7 C2 1_555 1_555
C8 C5 1_555 1_555
H5 C8 1_555 1_555
H6 C8 1_555 1_555
C9 C8 1_555 1_555
C10 C9 1_555 1_555
H7 C10 1_555 1_555
C11 C10 1_555 1_555
C12 C11 1_555 1_555
C13 C12 1_555 1_555
H8 C13 1_555 1_555
C14 C9 1_555 1_555
C15 O3 1_555 1_555
H9 C15 1_555 1_555
H10 C15 1_555 1_555
C16 C15 1_555 1_555
H11 C16 1_555 1_555
H12 C16 1_555 1_555
H13 C16 1_555 1_555
C17 C12 1_555 1_555
H14 C17 1_555 1_555
H15 C17 1_555 1_555
C18 C17 1_555 1_555
C19 C18 1_555 1_555
H16 C19 1_555 1_555
C20 C19 1_555 1_555
C21 C20 1_555 1_555
C22 C21 1_555 1_555
H17 C22 1_555 1_555
C23 C18 1_555 1_555
C24 O5 1_555 1_555
H18 C24 1_555 1_555
H19 C24 1_555 1_555
C25 C24 1_555 1_555
H20 C25 1_555 1_555
H21 C25 1_555 1_555
H22 C25 1_555 1_555
C26 O6 1_555 1_555
H23 C26 1_555 1_555
H24 C26 1_555 1_555
C27 C26 1_555 1_555
H25 C27 1_555 1_555
H26 C27 1_555 1_555
H27 C27 1_555 1_555
C28 C21 1_555 1_555
H28 C28 1_555 1_555
H29 C28 1_555 1_555
C29 C28 1_555 1_555
C30 C29 1_555 1_555
H30 C30 1_555 1_555
C31 C30 1_555 1_555
C32 C31 1_555 1_555
C33 C32 1_555 1_555
H31 C33 1_555 1_555
C34 C29 1_555 1_555
C35 O7 1_555 1_555
H32 C35 1_555 1_555
H33 C35 1_555 1_555
C36 O8 1_555 1_555
H34 C36 1_555 1_555
H35 C36 1_555 1_555
C37 C36 1_555 1_555
H36 C37 1_555 1_555
H37 C37 1_555 1_555
H38 C37 1_555 1_555
C38 C32 1_555 1_555
H39 C38 1_555 1_555
H40 C38 1_555 1_555
C39 C38 1_555 1_555
C40 C39 1_555 1_555
H41 C40 1_555 1_555
C41 C40 1_555 1_555
C42 C1 1_555 1_555
C43 C42 1_555 1_555
H42 C43 1_555 1_555
C44 C39 1_555 1_555
C45 O9 1_555 1_555
H43 C45 1_555 1_555
H44 C45 1_555 1_555
C46 C45 1_555 1_555
H45 C46 1_555 1_555
H46 C46 1_555 1_555
H47 C46 1_555 1_555
C47 O10 1_555 1_555
H48 C47 1_555 1_555
H49 C47 1_555 1_555
C48 C47 1_555 1_555
H50 C48 1_555 1_555
H51 C48 1_555 1_555
H52 C48 1_555 1_555
C49 O4 1_555 1_555
H53 C49 1_555 1_555
H54 C49 1_555 1_555
C50 C49 1_555 1_555
H55 C50 1_555 1_555
H56 C50 1_555 1_555
H57 C50 1_555 1_555
C51 C35 1_555 1_555
H58 C51 1_555 1_555
H59 C51 1_555 1_555
H60 C51 1_555 1_555
O11 C58 1_555 1_555
O12 C61 1_555 1_555
O13 C65 1_555 1_555
O14 C68 1_555 1_555
O15 C76 1_555 1_555
O16 C79 1_555 1_555
O17 C87 1_555 1_555
O18 C90 1_555 1_555
O19 C98 1_555 1_555
O20 C101 1_555 1_555
C55 H71 1_555 1_555
H72 C55 1_555 1_555
C56 C55 1_555 1_555
C57 C56 1_555 1_555
H73 C57 1_555 1_555
C58 C57 1_555 1_555
C59 C58 1_555 1_555
C60 C59 1_555 1_555
H74 C60 1_555 1_555
C61 C56 1_555 1_555
C62 C59 1_555 1_555
H75 C62 1_555 1_555
H76 C62 1_555 1_555
C63 C62 1_555 1_555
C64 C63 1_555 1_555
H77 C64 1_555 1_555
C65 C64 1_555 1_555
C66 C65 1_555 1_555
C67 C66 1_555 1_555
H78 C67 1_555 1_555
C68 C63 1_555 1_555
C69 O13 1_555 1_555
H79 C69 1_555 1_555
H80 C69 1_555 1_555
C70 C69 1_555 1_555
H81 C70 1_555 1_555
H82 C70 1_555 1_555
H83 C70 1_555 1_555
C71 O14 1_555 1_555
H84 C71 1_555 1_555
H85 C71 1_555 1_555
C72 C71 1_555 1_555
H86 C72 1_555 1_555
H87 C72 1_555 1_555
H88 C72 1_555 1_555
C73 C66 1_555 1_555
H89 C73 1_555 1_555
H90 C73 1_555 1_555
C74 C73 1_555 1_555
C75 C74 1_555 1_555
H91 C75 1_555 1_555
C76 C75 1_555 1_555
C77 C76 1_555 1_555
C78 C77 1_555 1_555
H92 C78 1_555 1_555
C79 C74 1_555 1_555
C80 O15 1_555 1_555
H93 C80 1_555 1_555
H94 C80 1_555 1_555
C81 C80 1_555 1_555
H95 C81 1_555 1_555
H96 C81 1_555 1_555
H97 C81 1_555 1_555
C82 O16 1_555 1_555
H98 C82 1_555 1_555
H99 C82 1_555 1_555
C83 C82 1_555 1_555
H100 C83 1_555 1_555
H101 C83 1_555 1_555
H102 C83 1_555 1_555
C84 C77 1_555 1_555
H103 C84 1_555 1_555
H104 C84 1_555 1_555
C85 C84 1_555 1_555
C86 C85 1_555 1_555
H105 C86 1_555 1_555
C87 C86 1_555 1_555
C88 C87 1_555 1_555
C89 C88 1_555 1_555
H106 C89 1_555 1_555
C90 C85 1_555 1_555
C91 O17 1_555 1_555
H107 C91 1_555 1_555
H108 C91 1_555 1_555
C92 C91 1_555 1_555
H109 C92 1_555 1_555
H110 C92 1_555 1_555
H111 C92 1_555 1_555
C93 O18 1_555 1_555
H112 C93 1_555 1_555
H113 C93 1_555 1_555
C94 C93 1_555 1_555
H114 C94 1_555 1_555
H115 C94 1_555 1_555
H116 C94 1_555 1_555
C95 C88 1_555 1_555
H117 C95 1_555 1_555
H118 C95 1_555 1_555
C96 C95 1_555 1_555
C97 C96 1_555 1_555
H119 C97 1_555 1_555
C98 C97 1_555 1_555
C99 C55 1_555 1_555
C100 C99 1_555 1_555
H120 C100 1_555 1_555
C101 C96 1_555 1_555
C102 O19 1_555 1_555
H121 C102 1_555 1_555
H122 C102 1_555 1_555
C103 C102 1_555 1_555
H123 C103 1_555 1_555
H124 C103 1_555 1_555
H125 C103 1_555 1_555
C104 O20 1_555 1_555
H126 C104 1_555 1_555
H127 C104 1_555 1_555
C105 C104 1_555 1_555
H128 C105 1_555 1_555
H129 C105 1_555 1_555
H130 C105 1_555 1_555
O21 C106 1_555 1_555
C106 C107 1_555 1_555
C107 C108 1_555 1_555
C108 C109 1_555 1_555
C109 C110 1_555 1_555
O22 C111 1_555 1_555
C111 C112 1_555 1_555
C112 C113 1_555 1_555
C113 C114 1_555 1_555
C114 C115 1_555 1_555
C6 C7 1_555 1_555
C13 C14 1_555 1_555
C22 C23 1_555 1_555
C33 C34 1_555 1_555
C41 C42 1_555 1_555
C43 C44 1_555 1_555
C60 C61 1_555 1_555
C67 C68 1_555 1_555
C78 C79 1_555 1_555
C89 C90 1_555 1_555
C98 C99 1_555 1_555
C100 C101 1_555 1_555

#END
