
#######################################################################
#
#                 Cambridge Crystallographic Data Centre
#                                CCDC 
#
#######################################################################
#
# If this CIF has been generated from an entry in the Cambridge 
# Structural Database, then it will include bibliographic, chemical, 
# crystal, experimental, refinement or atomic coordinate data resulting 
# from the CCDC's data processing and validation procedures.
#
#######################################################################

data_VIKTIV
_chemical_formula_moiety         '2(C8 H12 N1 1+),C8 H4 O4 2-'
_chemical_name_systematic        
'bis((S)-1-phenylethan-1-aminium) benzene-1,4-dicarboxylate'
_symmetry_cell_setting           monoclinic
_symmetry_space_group_name_H-M   'P 21'
_symmetry_Int_Tables_number      4
_space_group_name_Hall           'P 2yb'
loop_
_symmetry_equiv_pos_site_id
_symmetry_equiv_pos_as_xyz
1 x,y,z
2 -x,1/2+y,-z
_cell_length_a                   9.6195(19)
_cell_length_b                   6.2063(12)
_cell_length_c                   18.356(4)
_cell_angle_alpha                90
_cell_angle_beta                 90.84(3)
_cell_angle_gamma                90
_cell_volume                     1095.76
_exptl_crystal_colour            colorless
_exptl_crystal_description       block
_cell_formula_units_Z            2
_exptl_crystal_preparation       Luminescent
loop_
_atom_site_label
_atom_site_type_symbol
_atom_site_fract_x
_atom_site_fract_y
_atom_site_fract_z
O1 O 0.08563(17) 0.0706(2) 0.37029(8)
O2 O 0.06905(14) 0.3919(2) 0.42276(7)
O3 O 0.33373(18) 0.8456(3) 0.10392(8)
O4 O 0.44771(14) 0.5394(2) 0.08286(7)
C1 C 0.10336(19) 0.2698(3) 0.37081(9)
C2 C 0.17026(18) 0.3719(3) 0.30551(9)
C3 C 0.14310(19) 0.5843(3) 0.28649(9)
H1 H 0.082409 0.669003 0.315131
C4 C 0.20491(19) 0.6728(3) 0.22546(9)
H2 H 0.185054 0.817683 0.212254
C5 C 0.29538(18) 0.5523(3) 0.18346(9)
C6 C 0.32290(19) 0.3384(3) 0.20251(9)
H3 H 0.384434 0.254461 0.174119
C7 C 0.2602(2) 0.2491(3) 0.26291(10)
H4 H 0.278465 0.103246 0.275537
C8 C 0.3640(2) 0.6562(3) 0.11832(10)
N1 N 0.13818(16) -0.2140(3) 0.47985(8)
H5 H 0.123457 -0.101852 0.448735
H6 H 0.078183 -0.204441 0.517583
H7 H 0.123948 -0.340387 0.455756
C9 C 0.2848(2) -0.2061(4) 0.50864(11)
H8 H 0.309222 -0.352800 0.527395
C10 C 0.2985(2) -0.0494(3) 0.57125(11)
C11 C 0.3833(2) -0.1005(4) 0.63048(12)
H9 H 0.430727 -0.234734 0.631678
C12 C 0.3995(3) 0.0426(5) 0.68800(13)
H10 H 0.458676 0.006224 0.728015
C13 C 0.3305(3) 0.2366(5) 0.68760(12)
H11 H 0.341739 0.334039 0.727156
C14 C 0.2447(2) 0.2887(4) 0.62920(12)
H12 H 0.195419 0.421295 0.629063
C15 C 0.2303(2) 0.1486(4) 0.57085(11)
H13 H 0.173333 0.187758 0.530245
C16 C 0.3817(2) -0.1548(5) 0.44587(14)
H14 H 0.366995 -0.259705 0.406603
H15 H 0.478472 -0.162276 0.463164
H16 H 0.361942 -0.009551 0.427547
N2 N 0.65415(15) 0.6796(3) -0.00630(8)
H17 H 0.655509 0.566056 -0.037644
H18 H 0.629194 0.801118 -0.030971
H19 H 0.591672 0.653565 0.029391
C17 C 0.79544(19) 0.7094(3) 0.02705(10)
H20 H 0.824909 0.568676 0.048886
C18 C 0.79622(18) 0.8769(3) 0.08736(10)
C19 C 0.7127(2) 1.0596(4) 0.08550(11)
H21 H 0.647209 1.078540 0.046786
C20 C 0.7242(2) 1.2147(4) 0.13983(11)
H22 H 0.665455 1.337742 0.138569
C21 C 0.8210(2) 1.1904(4) 0.19582(11)
H23 H 0.830111 1.298074 0.232365
C22 C 0.9042(2) 1.0092(4) 0.19836(11)
H24 H 0.970426 0.991769 0.236828
C23 C 0.8912(2) 0.8527(4) 0.14474(11)
H25 H 0.947810 0.727361 0.147206
C24 C 0.8974(2) 0.7654(4) -0.03315(11)
H26 H 0.892075 0.655704 -0.071485
H27 H 0.992123 0.769986 -0.012760
H28 H 0.873534 0.906466 -0.053793
loop_
_geom_bond_atom_site_label_1
_geom_bond_atom_site_label_2
_geom_bond_site_symmetry_1
_geom_bond_site_symmetry_2
O1 C1 1_555 1_555
O2 C1 1_555 1_555
O3 C8 1_555 1_555
O4 C8 1_555 1_555
C1 C2 1_555 1_555
C2 C3 1_555 1_555
C3 H1 1_555 1_555
C4 C3 1_555 1_555
H2 C4 1_555 1_555
C5 C4 1_555 1_555
C6 C5 1_555 1_555
H3 C6 1_555 1_555
C7 C2 1_555 1_555
H4 C7 1_555 1_555
C8 C5 1_555 1_555
N1 H5 1_555 1_555
H6 N1 1_555 1_555
H7 N1 1_555 1_555
C9 N1 1_555 1_555
H8 C9 1_555 1_555
C10 C9 1_555 1_555
C11 C10 1_555 1_555
H9 C11 1_555 1_555
C12 C11 1_555 1_555
H10 C12 1_555 1_555
C13 C12 1_555 1_555
H11 C13 1_555 1_555
C14 C13 1_555 1_555
H12 C14 1_555 1_555
C15 C10 1_555 1_555
H13 C15 1_555 1_555
C16 C9 1_555 1_555
H14 C16 1_555 1_555
H15 C16 1_555 1_555
H16 C16 1_555 1_555
N2 H17 1_555 1_555
H18 N2 1_555 1_555
H19 N2 1_555 1_555
C17 N2 1_555 1_555
H20 C17 1_555 1_555
C18 C17 1_555 1_555
C19 C18 1_555 1_555
H21 C19 1_555 1_555
C20 C19 1_555 1_555
H22 C20 1_555 1_555
C21 C20 1_555 1_555
H23 C21 1_555 1_555
C22 C21 1_555 1_555
H24 C22 1_555 1_555
C23 C18 1_555 1_555
H25 C23 1_555 1_555
C24 C17 1_555 1_555
H26 C24 1_555 1_555
H27 C24 1_555 1_555
H28 C24 1_555 1_555
C6 C7 1_555 1_555
C14 C15 1_555 1_555
C22 C23 1_555 1_555

#END
