
#######################################################################
#
#                 Cambridge Crystallographic Data Centre
#                                CCDC 
#
#######################################################################
#
# If this CIF has been generated from an entry in the Cambridge 
# Structural Database, then it will include bibliographic, chemical, 
# crystal, experimental, refinement or atomic coordinate data resulting 
# from the CCDC's data processing and validation procedures.
#
#######################################################################

data_VIKTAM
_chemical_formula_moiety         'C27 H25 Cl2 N3'
_chemical_name_systematic        
(E)-3-t-Butyl-4-(4-chlorobenzyl)-N-(4-chlorobenzylidene)-1-phenyl-1H-pyrazol-5-amine
_symmetry_cell_setting           triclinic
_symmetry_space_group_name_H-M   'P -1'
_symmetry_Int_Tables_number      2
_space_group_name_Hall           '-P 1'
loop_
_symmetry_equiv_pos_site_id
_symmetry_equiv_pos_as_xyz
1 x,y,z
2 -x,-y,-z
_cell_length_a                   8.8820(5)
_cell_length_b                   10.1168(17)
_cell_length_c                   14.279(3)
_cell_angle_alpha                69.627(13)
_cell_angle_beta                 72.298(10)
_cell_angle_gamma                84.381(11)
_cell_volume                     1145.82
_exptl_crystal_colour            yellow
_exptl_crystal_description       block
_cell_formula_units_Z            2
loop_
_atom_site_label
_atom_site_type_symbol
_atom_site_fract_x
_atom_site_fract_y
_atom_site_fract_z
N1 N 0.3312(3) 0.0990(2) 0.55902(18)
N2 N 0.2201(3) 0.0123(3) 0.64175(18)
C1 C 0.2567(3) 0.0056(3) 0.7275(2)
C2 C 0.3905(3) 0.0913(3) 0.7018(2)
C3 C 0.4329(3) 0.1503(3) 0.5945(2)
C4 C 0.3183(3) 0.1277(3) 0.4564(2)
C5 C 0.4111(3) 0.2290(3) 0.3688(2)
H1 H 0.4886 0.2810 0.3753
C6 C 0.3895(4) 0.2534(3) 0.2722(2)
H2 H 0.4527 0.3227 0.2125
C7 C 0.2778(3) 0.1788(3) 0.2607(2)
H3 H 0.2634 0.1970 0.1941
C8 C 0.1870(4) 0.0768(3) 0.3481(2)
H4 H 0.1104 0.0245 0.3411
C9 C 0.2072(3) 0.0510(3) 0.4447(2)
H5 H 0.1451 -0.0197 0.5039
C10 C 0.1481(3) -0.0852(3) 0.8316(2)
C11 C 0.2263(4) -0.1243(3) 0.9198(2)
H6 H 0.3267 -0.1717 0.9003
H7 H 0.1561 -0.1877 0.9839
H8 H 0.2461 -0.0386 0.9315
C12 C 0.1067(4) -0.2215(3) 0.8211(2)
H9 H 0.0556 -0.1987 0.7655
H10 H 0.0346 -0.2786 0.8872
H11 H 0.2035 -0.2745 0.8038
C13 C -0.0046(4) -0.0033(4) 0.8606(2)
H12 H 0.0213 0.0827 0.8697
H13 H -0.0767 -0.0624 0.9259
H14 H -0.0555 0.0221 0.8048
C14 C 0.4830(3) 0.1089(3) 0.7692(2)
H15 H 0.5893 0.1456 0.7235
H16 H 0.4974 0.0142 0.8176
C15 C 0.4148(3) 0.2042(3) 0.8337(2)
C16 C 0.2926(3) 0.2991(3) 0.8161(2)
H17 H 0.2476 0.3043 0.7625
C17 C 0.2363(4) 0.3862(3) 0.8762(2)
H18 H 0.1507 0.4480 0.8656
C18 C 0.3060(3) 0.3817(3) 0.9515(2)
Cl1 Cl 0.24118(9) 0.49264(8) 1.02640(6)
C19 C 0.4269(3) 0.2891(3) 0.9710(2)
H19 H 0.4735 0.2864 1.0234
C20 C 0.4791(3) 0.2003(3) 0.9125(2)
H20 H 0.5606 0.1350 0.9265
N3 N 0.5643(3) 0.2308(3) 0.52313(19)
C21 C 0.6082(3) 0.3365(3) 0.5393(2)
H21 H 0.5476 0.3624 0.5976
C22 C 0.7509(3) 0.4172(3) 0.4683(2)
C23 C 0.7865(3) 0.5434(3) 0.4763(2)
H22 H 0.7180 0.5765 0.5288
C24 C 0.9204(3) 0.6217(3) 0.4085(2)
H23 H 0.9426 0.7090 0.4129
C25 C 1.0212(3) 0.5692(3) 0.3343(2)
Cl2 Cl 1.19456(9) 0.65966(9) 0.25172(7)
C26 C 0.9899(4) 0.4437(3) 0.3247(2)
H24 H 1.0601 0.4100 0.2730
C27 C 0.8542(3) 0.3683(3) 0.3918(2)
H25 H 0.8311 0.2823 0.3859
loop_
_geom_bond_atom_site_label_1
_geom_bond_atom_site_label_2
_geom_bond_site_symmetry_1
_geom_bond_site_symmetry_2
N1 N2 1_555 1_555
N2 C1 1_555 1_555
C1 C2 1_555 1_555
C2 C3 1_555 1_555
C3 N1 1_555 1_555
C4 N1 1_555 1_555
C5 C4 1_555 1_555
H1 C5 1_555 1_555
C6 C5 1_555 1_555
H2 C6 1_555 1_555
C7 C6 1_555 1_555
H3 C7 1_555 1_555
C8 C7 1_555 1_555
H4 C8 1_555 1_555
C9 C4 1_555 1_555
H5 C9 1_555 1_555
C10 C1 1_555 1_555
C11 C10 1_555 1_555
H6 C11 1_555 1_555
H7 C11 1_555 1_555
H8 C11 1_555 1_555
C12 C10 1_555 1_555
H9 C12 1_555 1_555
H10 C12 1_555 1_555
H11 C12 1_555 1_555
C13 C10 1_555 1_555
H12 C13 1_555 1_555
H13 C13 1_555 1_555
H14 C13 1_555 1_555
C14 C2 1_555 1_555
H15 C14 1_555 1_555
H16 C14 1_555 1_555
C15 C14 1_555 1_555
C16 C15 1_555 1_555
H17 C16 1_555 1_555
C17 C16 1_555 1_555
H18 C17 1_555 1_555
C18 C17 1_555 1_555
Cl1 C18 1_555 1_555
C19 C18 1_555 1_555
H19 C19 1_555 1_555
C20 C15 1_555 1_555
H20 C20 1_555 1_555
N3 C3 1_555 1_555
C21 N3 1_555 1_555
H21 C21 1_555 1_555
C22 C21 1_555 1_555
C23 C22 1_555 1_555
H22 C23 1_555 1_555
C24 C23 1_555 1_555
H23 C24 1_555 1_555
C25 C24 1_555 1_555
Cl2 C25 1_555 1_555
C26 C25 1_555 1_555
H24 C26 1_555 1_555
C27 C22 1_555 1_555
H25 C27 1_555 1_555
C8 C9 1_555 1_555
C19 C20 1_555 1_555
C26 C27 1_555 1_555

#END
