
#######################################################################
#
#                 Cambridge Crystallographic Data Centre
#                                CCDC 
#
#######################################################################
#
# If this CIF has been generated from an entry in the Cambridge 
# Structural Database, then it will include bibliographic, chemical, 
# crystal, experimental, refinement or atomic coordinate data resulting 
# from the CCDC's data processing and validation procedures.
#
#######################################################################

data_VIKTEP
_chemical_formula_moiety         'C34 H32 N2 O8,C1 H2 Cl2'
_chemical_name_systematic        
'3,6,9,12,15,18-Hexaoxa-1(2,9)-1,10-phenanthrolina-2,19(1,4)-dibenzenacyclononadecaphane-1^5^,1^6^-dione dichloromethane solvate'
_symmetry_cell_setting           monoclinic
_symmetry_space_group_name_H-M   'P 21/n'
_symmetry_Int_Tables_number      14
_space_group_name_Hall           '-P 2yn'
loop_
_symmetry_equiv_pos_site_id
_symmetry_equiv_pos_as_xyz
1 x,y,z
2 1/2-x,1/2+y,1/2-z
3 -x,-y,-z
4 1/2+x,1/2-y,1/2+z
_cell_length_a                   8.7080(2)
_cell_length_b                   21.4090(5)
_cell_length_c                   17.6640(4)
_cell_angle_alpha                90
_cell_angle_beta                 100.8200(14)
_cell_angle_gamma                90
_cell_volume                     3234.55
_exptl_crystal_colour            orange
_exptl_crystal_description       prism
_cell_formula_units_Z            4
_exptl_crystal_recrystallization_method n-heptane/dichloromethane
loop_
_atom_site_label
_atom_site_type_symbol
_atom_site_fract_x
_atom_site_fract_y
_atom_site_fract_z
Cl1 Cl 0.94917(10) 0.60828(4) 0.83310(5)
Cl2 Cl 0.82767(12) 0.73083(4) 0.86320(6)
C19 C 0.8530(5) 0.65348(17) 0.8924(2)
H13 H 0.7492 0.6348 0.8930
H14 H 0.9137 0.6522 0.9457
O1 O 1.2169(2) 0.73247(8) 0.67195(10)
O2 O 0.5997(2) 0.43652(8) 0.86081(10)
O3 O 0.9858(3) 0.62720(10) 1.09262(12)
O4 O 1.2937(2) 0.75498(9) 0.87961(10)
O5 O 1.1961(2) 0.69444(10) 1.01500(11)
O6 O 0.6882(3) 0.44151(10) 0.20645(11)
O7 O 0.7516(3) 0.54422(9) 1.00856(11)
O8 O 0.4712(3) 0.36848(10) 0.25499(12)
N1 N 0.8163(2) 0.53206(9) 0.45631(11)
N2 N 0.6367(2) 0.44731(9) 0.50909(11)
C1 C 0.5470(3) 0.40674(11) 0.53951(14)
C2 C 0.4838(3) 0.37356(12) 0.66824(15)
H1 H 0.4205 0.3404 0.6440
C3 C 1.1715(3) 0.69994(12) 0.54238(15)
H2 H 1.2446 0.7306 0.5329
C4 C 0.7415(3) 0.49122(11) 0.40513(13)
C5 C 0.9568(3) 0.61175(11) 0.56921(14)
H3 H 0.8824 0.5817 0.5786
C6 C 1.0271(3) 0.64991(12) 0.62895(13)
H4 H 1.0002 0.6462 0.6785
C7 C 0.6686(3) 0.47003(12) 0.73981(15)
H5 H 0.7320 0.5032 0.7639
C8 C 1.0999(3) 0.66187(12) 0.48315(13)
H6 H 1.1239 0.6667 0.4332
C9 C 1.1937(3) 0.72225(12) 0.74933(14)
H7 H 1.2048 0.6773 0.7624
H8 H 1.0877 0.7360 0.7547
C10 C 0.8711(3) 0.52993(13) 0.30714(14)
H9 H 0.8907 0.5290 0.2560
C11 C 1.1372(3) 0.69373(11) 0.61609(14)
C12 C 0.7622(3) 0.48963(12) 0.32841(14)
C13 C 1.3495(3) 0.70108(15) 1.00004(17)
H10 H 1.4167 0.6675 1.0269
H11 H 1.3933 0.7417 1.0206
C14 C 0.9921(3) 0.61615(11) 0.49567(13)
C15 C 0.5604(3) 0.41265(11) 0.62396(14)
C16 C 0.5445(3) 0.40411(12) 0.38379(14)
C17 C 0.4495(3) 0.36327(12) 0.41527(16)
H12 H 0.3840 0.3348 0.3828
C18 C 0.5520(3) 0.40283(12) 0.30099(15)
C20 C 1.3164(3) 0.75984(13) 0.80237(15)
H15 H 1.4218 0.7442 0.7988
H16 H 1.3097 0.8042 0.7863
C21 C 0.5912(3) 0.43091(12) 0.78324(14)
C22 C 0.6529(3) 0.46038(12) 0.66204(15)
H17 H 0.7070 0.4872 0.6331
C23 C 0.6365(3) 0.44633(11) 0.43402(14)
C24 C 0.6720(3) 0.44550(12) 0.27276(15)
C25 C 0.4987(3) 0.38244(12) 0.74653(15)
H18 H 0.4457 0.3554 0.7757
C26 C 0.7886(4) 0.54937(15) 1.08960(16)
H19 H 0.8754 0.5206 1.1104
H20 H 0.6966 0.5378 1.1121
C27 C 0.7063(4) 0.48291(14) 0.98233(17)
H21 H 0.6056 0.4710 0.9966
H22 H 0.7869 0.4519 1.0040
C28 C 0.4499(3) 0.36388(12) 0.49308(16)
H23 H 0.3857 0.3359 0.5150
C29 C 0.9179(3) 0.57236(11) 0.43493(13)
C30 C 0.9508(3) 0.57138(13) 0.35987(14)
H24 H 1.0266 0.5988 0.3459
C31 C 0.6910(4) 0.48771(14) 0.89676(16)
H25 H 0.6399 0.5277 0.8785
H26 H 0.7960 0.4869 0.8828
C32 C 1.0387(4) 0.68840(15) 1.11122(19)
H27 H 1.0390 0.6966 1.1664
H28 H 0.9668 0.7187 1.0804
C33 C 1.1978(4) 0.69682(13) 1.09544(16)
H29 H 1.2400 0.7376 1.1161
H30 H 1.2670 0.6636 1.1217
C34 C 0.8355(4) 0.61528(15) 1.11063(16)
H31 H 0.7578 0.6445 1.0817
H32 H 0.8389 0.6219 1.1664
C35 C 1.3510(3) 0.69797(14) 0.91579(17)
H33 H 1.4589 0.6905 0.9077
H34 H 1.2847 0.6628 0.8924
loop_
_geom_bond_atom_site_label_1
_geom_bond_atom_site_label_2
_geom_bond_site_symmetry_1
_geom_bond_site_symmetry_2
Cl1 C19 1_555 1_555
Cl2 C19 1_555 1_555
O1 C9 1_555 1_555
O2 C21 1_555 1_555
O3 C32 1_555 1_555
O4 C20 1_555 1_555
O5 C13 1_555 1_555
O6 C24 1_555 1_555
O7 C26 1_555 1_555
O8 C18 1_555 1_555
N1 C4 1_555 1_555
N2 C1 1_555 1_555
C1 C15 1_555 1_555
C2 H1 1_555 1_555
C3 H2 1_555 1_555
C4 C12 1_555 1_555
C5 H3 1_555 1_555
C6 C5 1_555 1_555
H4 C6 1_555 1_555
C7 H5 1_555 1_555
C8 C3 1_555 1_555
H6 C8 1_555 1_555
C9 H7 1_555 1_555
H8 C9 1_555 1_555
C10 H9 1_555 1_555
C11 O1 1_555 1_555
C12 C10 1_555 1_555
C13 H10 1_555 1_555
H11 C13 1_555 1_555
C14 C5 1_555 1_555
C15 C2 1_555 1_555
C16 C17 1_555 1_555
C17 H12 1_555 1_555
C18 C16 1_555 1_555
C19 H13 1_555 1_555
H14 C19 1_555 1_555
C20 C9 1_555 1_555
H15 C20 1_555 1_555
H16 C20 1_555 1_555
C21 C7 1_555 1_555
C22 C7 1_555 1_555
H17 C22 1_555 1_555
C23 N2 1_555 1_555
C24 C12 1_555 1_555
C25 C2 1_555 1_555
H18 C25 1_555 1_555
C26 H19 1_555 1_555
H20 C26 1_555 1_555
C27 O7 1_555 1_555
H21 C27 1_555 1_555
H22 C27 1_555 1_555
C28 C1 1_555 1_555
H23 C28 1_555 1_555
C29 N1 1_555 1_555
C30 C10 1_555 1_555
H24 C30 1_555 1_555
C31 O2 1_555 1_555
H25 C31 1_555 1_555
H26 C31 1_555 1_555
C32 H27 1_555 1_555
H28 C32 1_555 1_555
C33 O5 1_555 1_555
H29 C33 1_555 1_555
H30 C33 1_555 1_555
C34 O3 1_555 1_555
H31 C34 1_555 1_555
H32 C34 1_555 1_555
C35 O4 1_555 1_555
H33 C35 1_555 1_555
H34 C35 1_555 1_555
C3 C11 1_555 1_555
C4 C23 1_555 1_555
C6 C11 1_555 1_555
C8 C14 1_555 1_555
C13 C35 1_555 1_555
C14 C29 1_555 1_555
C15 C22 1_555 1_555
C16 C23 1_555 1_555
C17 C28 1_555 1_555
C18 C24 1_555 1_555
C21 C25 1_555 1_555
C26 C34 1_555 1_555
C27 C31 1_555 1_555
C29 C30 1_555 1_555
C32 C33 1_555 1_555

#END
