
#######################################################################
#
#                 Cambridge Crystallographic Data Centre
#                                CCDC 
#
#######################################################################
#
# If this CIF has been generated from an entry in the Cambridge 
# Structural Database, then it will include bibliographic, chemical, 
# crystal, experimental, refinement or atomic coordinate data resulting 
# from the CCDC's data processing and validation procedures.
#
#######################################################################

data_VIKVER
_chemical_name_common            
'Methylazacalix(4)pyridine ethylene glycol clathrate'
_chemical_formula_moiety         'C24 H24 N8,C2 H6 O2'
_chemical_name_systematic        
'2,4,6,8-Tetramethyl-2,4,6,8-tetraaza-1,3,5,7(2,6)-tetrapyridinacyclooctaphane ethylene glycol clathrate'
_symmetry_cell_setting           monoclinic
_symmetry_space_group_name_H-M   'P 21/c'
_symmetry_Int_Tables_number      14
_space_group_name_Hall           '-P 2ybc'
loop_
_symmetry_equiv_pos_site_id
_symmetry_equiv_pos_as_xyz
1 x,y,z
2 -x,1/2+y,1/2-z
3 -x,-y,-z
4 x,1/2-y,1/2+z
_cell_length_a                   15.250(3)
_cell_length_b                   20.738(4)
_cell_length_c                   16.373(3)
_cell_angle_alpha                90
_cell_angle_beta                 106.12(3)
_cell_angle_gamma                90
_cell_volume                     4974.45
_exptl_crystal_colour            colorless
_exptl_crystal_description       block
_cell_formula_units_Z            8
loop_
_atom_site_label
_atom_site_type_symbol
_atom_site_fract_x
_atom_site_fract_y
_atom_site_fract_z
N1 N 0.56913(19) 0.55779(13) 0.75124(17)
N2 N 0.5120(2) 0.53845(15) 0.86924(16)
N3 N 0.3763(2) 0.58249(13) 0.79407(15)
N4 N 0.2429(2) 0.62441(14) 0.70781(17)
N5 N 0.29074(18) 0.62791(12) 0.58358(16)
N6 N 0.3413(2) 0.63736(13) 0.46072(17)
N7 N 0.4854(2) 0.61316(13) 0.54332(16)
N8 N 0.6233(2) 0.58352(14) 0.63372(18)
C1 C 0.5737(2) 0.54153(16) 0.6732(2)
C2 C 0.5332(2) 0.48685(18) 0.6325(2)
H1 H 0.5381 0.4767 0.5786
C3 C 0.4858(3) 0.44738(17) 0.6718(2)
H2 H 0.4580 0.4102 0.6450
C4 C 0.4799(3) 0.46335(17) 0.7511(2)
H3 H 0.4485 0.4370 0.7794
C5 C 0.5210(2) 0.51873(18) 0.7882(2)
C6 C 0.5974(3) 0.5459(2) 0.9368(2)
H4 H 0.5841 0.5589 0.9884
H5 H 0.6346 0.5781 0.9205
H6 H 0.6296 0.5056 0.9458
C7 C 0.4377(3) 0.57667(17) 0.8686(2)
C8 C 0.4288(3) 0.60615(19) 0.9424(2)
H7 H 0.4730 0.6016 0.9942
C9 C 0.3515(3) 0.64228(19) 0.9347(2)
H8 H 0.3427 0.6625 0.9825
C10 C 0.2873(3) 0.64924(17) 0.8585(2)
H9 H 0.2349 0.6735 0.8538
C11 C 0.3027(3) 0.61899(16) 0.7884(2)
C12 C 0.1777(3) 0.67716(19) 0.6874(2)
H10 H 0.1702 0.6953 0.7390
H11 H 0.1200 0.6613 0.6533
H12 H 0.1998 0.7098 0.6565
C13 C 0.2633(2) 0.59113(17) 0.6393(2)
C14 C 0.2530(2) 0.52550(16) 0.6311(2)
H13 H 0.2341 0.5015 0.6711
C15 C 0.2712(2) 0.49626(17) 0.5632(2)
H14 H 0.2642 0.4519 0.5560
C16 C 0.2999(2) 0.53250(16) 0.5054(2)
H15 H 0.3126 0.5133 0.4587
C17 C 0.3093(2) 0.59766(16) 0.5184(2)
C18 C 0.2758(3) 0.68614(19) 0.4156(3)
H16 H 0.3022 0.7104 0.3785
H17 H 0.2611 0.7146 0.4561
H18 H 0.2212 0.6652 0.3828
C19 C 0.4341(3) 0.65070(16) 0.4824(2)
C20 C 0.4727(3) 0.69881(16) 0.4437(2)
H19 H 0.4363 0.7255 0.4024
C21 C 0.5647(3) 0.70539(19) 0.4682(3)
H20 H 0.5915 0.7365 0.4419
C22 C 0.6196(3) 0.66762(18) 0.5305(2)
H21 H 0.6828 0.6722 0.5471
C23 C 0.5759(2) 0.62221(17) 0.5674(2)
C24 C 0.7152(3) 0.6032(2) 0.6829(3)
H22 H 0.7408 0.6316 0.6492
H23 H 0.7533 0.5658 0.6981
H24 H 0.7118 0.6252 0.7335
N9 N 0.19198(19) 0.37912(12) 0.93103(16)
N10 N 0.2729(2) 0.37525(14) 0.82811(18)
N11 N 0.14768(19) 0.39774(13) 0.71692(16)
N12 N 0.0158(2) 0.42121(16) 0.61551(16)
N13 N -0.06769(19) 0.42050(15) 0.71594(17)
N14 N -0.1527(2) 0.41474(18) 0.8153(2)
N15 N -0.0271(2) 0.39397(14) 0.92606(18)
N16 N 0.1063(2) 0.37726(14) 1.03013(18)
C25 C 0.1491(2) 0.41279(17) 0.9769(2)
C26 C 0.1425(3) 0.47847(17) 0.9751(2)
H25 H 0.1116 0.5002 1.0084
C27 C 0.1830(3) 0.51147(17) 0.9224(2)
H26 H 0.1804 0.5563 0.9197
C28 C 0.2274(2) 0.47735(17) 0.8740(2)
H27 H 0.2554 0.4987 0.8379
C29 C 0.2299(2) 0.41135(16) 0.8795(2)
C30 C 0.3407(3) 0.32789(19) 0.8696(3)
H28 H 0.3640 0.3067 0.8278
H29 H 0.3131 0.2966 0.8979
H30 H 0.3897 0.3490 0.9104
C31 C 0.2282(2) 0.36839(15) 0.7424(2)
C32 C 0.2646(3) 0.33292(17) 0.6876(3)
H31 H 0.3214 0.3133 0.7066
C33 C 0.2138(3) 0.32798(17) 0.6048(3)
H32 H 0.2369 0.3049 0.5667
C34 C 0.1303(3) 0.35599(19) 0.5769(2)
H33 H 0.0952 0.3517 0.5208
C35 C 0.0996(3) 0.39139(17) 0.6357(2)
C36 C -0.0510(3) 0.4060(3) 0.5368(2)
H34 H -0.0219 0.3845 0.4995
H35 H -0.0790 0.4451 0.5104
H36 H -0.0969 0.3784 0.5479
C37 C -0.0131(2) 0.4532(2) 0.6804(2)
C38 C 0.0157(3) 0.5142(2) 0.7025(2)
H37 H 0.0543 0.5349 0.6759
C39 C -0.0131(3) 0.5451(2) 0.7650(3)
H38 H 0.0054 0.5871 0.7808
C40 C -0.0692(3) 0.5129(2) 0.8033(2)
H39 H -0.0895 0.5323 0.8460
C41 C -0.0944(2) 0.4516(2) 0.7772(2)
C42 C -0.2474(3) 0.4116(3) 0.7721(3)
H40 H -0.2779 0.3855 0.8043
H41 H -0.2554 0.3928 0.7169
H42 H -0.2728 0.4542 0.7660
C43 C -0.1156(3) 0.38432(18) 0.8920(2)
C44 C -0.1665(3) 0.34429(19) 0.9306(3)
H43 H -0.2286 0.3374 0.9066
C45 C -0.1199(4) 0.3158(2) 1.0057(3)
H44 H -0.1520 0.2893 1.0331
C46 C -0.0302(3) 0.32448(19) 1.0415(3)
H45 H 0.0001 0.3045 1.0923
C47 C 0.0153(3) 0.36449(17) 0.9993(2)
C48 C 0.1648(3) 0.33591(19) 1.0938(2)
H46 H 0.1290 0.3147 1.1256
H47 H 0.2113 0.3615 1.1316
H48 H 0.1928 0.3042 1.0664
C49 C 0.4875(6) 0.7087(3) 0.7316(5)
H49 H 0.4775 0.6714 0.6944
H50 H 0.4496 0.7018 0.7696
C50 C 0.4494(5) 0.7527(3) 0.6853(6)
H51 H 0.4873 0.7600 0.6474
H52 H 0.4586 0.7901 0.7224
O1 O 0.5740(2) 0.70072(18) 0.7821(2)
H57 H 0.5786 0.6653 0.8052
O2 O 0.3615(2) 0.75945(14) 0.6342(2)
H58 H 0.3425 0.7244 0.6135
C51 C 0.0331(5) 0.2722(3) 0.7856(5)
H53 H 0.0764 0.2892 0.7576
H54 H 0.0235 0.3072 0.8215
C52 C 0.0777(5) 0.2383(3) 0.8341(5)
H55 H 0.0902 0.2041 0.7986
H56 H 0.0344 0.2198 0.8611
O3 O -0.0471(2) 0.27368(14) 0.72053(18)
H59 H -0.0560 0.3104 0.7013
O4 O 0.1531(2) 0.23980(13) 0.89691(18)
H60 H 0.1676 0.2774 0.9093
loop_
_geom_bond_atom_site_label_1
_geom_bond_atom_site_label_2
_geom_bond_site_symmetry_1
_geom_bond_site_symmetry_2
N1 C1 1_555 1_555
N2 C5 1_555 1_555
N3 C7 1_555 1_555
N4 C11 1_555 1_555
N5 C13 1_555 1_555
N6 C17 1_555 1_555
N7 C19 1_555 1_555
N8 C1 1_555 1_555
N9 C25 1_555 1_555
N10 C29 1_555 1_555
N11 C31 1_555 1_555
N12 C35 1_555 1_555
N13 C37 1_555 1_555
N14 C41 1_555 1_555
N15 C43 1_555 1_555
N16 C25 1_555 1_555
C1 C2 1_555 1_555
C2 H1 1_555 1_555
C3 C2 1_555 1_555
H2 C3 1_555 1_555
C4 C3 1_555 1_555
H3 C4 1_555 1_555
C5 N1 1_555 1_555
C6 N2 1_555 1_555
H4 C6 1_555 1_555
H5 C6 1_555 1_555
H6 C6 1_555 1_555
C7 N2 1_555 1_555
C8 C7 1_555 1_555
H7 C8 1_555 1_555
C9 C8 1_555 1_555
H8 C9 1_555 1_555
C10 C9 1_555 1_555
H9 C10 1_555 1_555
C11 N3 1_555 1_555
C12 N4 1_555 1_555
H10 C12 1_555 1_555
H11 C12 1_555 1_555
H12 C12 1_555 1_555
C13 N4 1_555 1_555
C14 C13 1_555 1_555
H13 C14 1_555 1_555
C15 C14 1_555 1_555
H14 C15 1_555 1_555
C16 C15 1_555 1_555
H15 C16 1_555 1_555
C17 N5 1_555 1_555
C18 N6 1_555 1_555
H16 C18 1_555 1_555
H17 C18 1_555 1_555
H18 C18 1_555 1_555
C19 N6 1_555 1_555
C20 C19 1_555 1_555
H19 C20 1_555 1_555
C21 C20 1_555 1_555
H20 C21 1_555 1_555
C22 C21 1_555 1_555
H21 C22 1_555 1_555
C23 N7 1_555 1_555
C24 N8 1_555 1_555
H22 C24 1_555 1_555
H23 C24 1_555 1_555
H24 C24 1_555 1_555
C25 C26 1_555 1_555
C26 H25 1_555 1_555
C27 C26 1_555 1_555
H26 C27 1_555 1_555
C28 C27 1_555 1_555
H27 C28 1_555 1_555
C29 N9 1_555 1_555
C30 N10 1_555 1_555
H28 C30 1_555 1_555
H29 C30 1_555 1_555
H30 C30 1_555 1_555
C31 N10 1_555 1_555
C32 C31 1_555 1_555
H31 C32 1_555 1_555
C33 C32 1_555 1_555
H32 C33 1_555 1_555
C34 C33 1_555 1_555
H33 C34 1_555 1_555
C35 N11 1_555 1_555
C36 N12 1_555 1_555
H34 C36 1_555 1_555
H35 C36 1_555 1_555
H36 C36 1_555 1_555
C37 N12 1_555 1_555
C38 C37 1_555 1_555
H37 C38 1_555 1_555
C39 C38 1_555 1_555
H38 C39 1_555 1_555
C40 C39 1_555 1_555
H39 C40 1_555 1_555
C41 N13 1_555 1_555
C42 N14 1_555 1_555
H40 C42 1_555 1_555
H41 C42 1_555 1_555
H42 C42 1_555 1_555
C43 N14 1_555 1_555
C44 C43 1_555 1_555
H43 C44 1_555 1_555
C45 C44 1_555 1_555
H44 C45 1_555 1_555
C46 C45 1_555 1_555
H45 C46 1_555 1_555
C47 N15 1_555 1_555
C48 N16 1_555 1_555
H46 C48 1_555 1_555
H47 C48 1_555 1_555
H48 C48 1_555 1_555
C49 H49 1_555 1_555
H50 C49 1_555 1_555
C50 C49 1_555 1_555
H51 C50 1_555 1_555
H52 C50 1_555 1_555
C51 H53 1_555 1_555
H54 C51 1_555 1_555
C52 C51 1_555 1_555
H55 C52 1_555 1_555
H56 C52 1_555 1_555
O1 C49 1_555 1_555
H57 O1 1_555 1_555
O2 C50 1_555 1_555
H58 O2 1_555 1_555
O3 C51 1_555 1_555
H59 O3 1_555 1_555
O4 C52 1_555 1_555
H60 O4 1_555 1_555
N8 C23 1_555 1_555
N16 C47 1_555 1_555
C4 C5 1_555 1_555
C10 C11 1_555 1_555
C16 C17 1_555 1_555
C22 C23 1_555 1_555
C28 C29 1_555 1_555
C34 C35 1_555 1_555
C40 C41 1_555 1_555
C46 C47 1_555 1_555

#END
