
#######################################################################
#
#                 Cambridge Crystallographic Data Centre
#                                CCDC 
#
#######################################################################
#
# If this CIF has been generated from an entry in the Cambridge 
# Structural Database, then it will include bibliographic, chemical, 
# crystal, experimental, refinement or atomic coordinate data resulting 
# from the CCDC's data processing and validation procedures.
#
#######################################################################

data_VIKVAN
_chemical_name_common            
'Methylazacalix(4)pyridine resorcinol clathrate'
_chemical_formula_moiety         'C24 H24 N8,C6 H6 O2'
_chemical_name_systematic        
'2,4,6,8-Tetramethyl-2,4,6,8-tetraaza-1,3,5,7(2,6)-tetrapyridinacyclooctaphane resorcinol clathrate'
_symmetry_cell_setting           monoclinic
_symmetry_space_group_name_H-M   'C 2/c'
_symmetry_Int_Tables_number      15
_space_group_name_Hall           '-C 2yn'
loop_
_symmetry_equiv_pos_site_id
_symmetry_equiv_pos_as_xyz
1 x,y,z
2 1/2+x,1/2+y,z
3 -x,y,1/2-z
4 1/2-x,1/2+y,1/2-z
5 -x,-y,-z
6 1/2-x,1/2-y,-z
7 x,-y,1/2+z
8 1/2+x,1/2-y,1/2+z
_cell_length_a                   10.4311(13)
_cell_length_b                   20.288(3)
_cell_length_c                   13.0030(14)
_cell_angle_alpha                90
_cell_angle_beta                 96.6620(18)
_cell_angle_gamma                90
_cell_volume                     2733.19
_exptl_crystal_colour            colorless
_exptl_crystal_description       'thin plate'
_cell_formula_units_Z            4
loop_
_atom_site_label
_atom_site_type_symbol
_atom_site_fract_x
_atom_site_fract_y
_atom_site_fract_z
O1 O 0.22693(14) 0.23365(9) 0.23979(12)
C13 C 0.1132(2) 0.26445(11) 0.24431(15)
C14 C 0.1118(3) 0.33164(12) 0.24247(17)
H13 H 0.1870 0.3552 0.2361
C15 C 0.0000 0.36338(17) 0.2500
H14 H 0.0000 0.4092 0.2500
C16 C 0.0000 0.23140(14) 0.2500
H15 H 0.0000 0.1856 0.2500
H16 H 0.221(3) 0.1732(17) 0.255(2)
O1B O -0.22693(14) 0.23365(9) 0.26021(12)
C13B C -0.1132(2) 0.26445(11) 0.25569(15)
C14B C -0.1118(3) 0.33164(12) 0.25753(17)
H13B H -0.1870 0.3552 0.2639
H16B H -0.221(3) 0.1732(17) 0.245(2)
N1 N -0.18320(16) 0.11749(10) 0.04940(14)
N2 N 0.03645(16) 0.10792(7) 0.07028(11)
N3 N 0.25191(17) 0.09167(9) 0.10390(13)
N4 N 0.21837(14) 0.10067(8) 0.27846(14)
C1 C -0.2970(2) 0.15550(15) 0.0209(2)
H1 H -0.2850 0.1825 -0.0378
H2 H -0.3137 0.1830 0.0779
H3 H -0.3689 0.1265 0.0034
C2 C -0.0661(2) 0.13375(10) 0.01604(15)
C3 C -0.0580(2) 0.17509(11) -0.06678(16)
H4 H -0.1315 0.1918 -0.1054
C4 C 0.0630(3) 0.19051(11) -0.08982(17)
H5 H 0.0722 0.2186 -0.1449
C5 C 0.1700(2) 0.16555(10) -0.03381(17)
H6 H 0.2524 0.1769 -0.0484
C6 C 0.1517(2) 0.12291(10) 0.04510(15)
C7 C 0.3842(2) 0.10707(15) 0.09516(19)
H7 H 0.3907 0.1273 0.0292
H8 H 0.4345 0.0673 0.1009
H9 H 0.4160 0.1369 0.1495
C8 C 0.22265(19) 0.06143(13) 0.19680(17)
C9 C 0.1971(2) -0.00250(13) 0.1999(2)
H10 H 0.2029 -0.0294 0.1427
C10 C 0.1618(3) -0.02761(12) 0.2903(2)
H11 H 0.1424 -0.0722 0.2940
C11 C 0.1545(2) 0.01119(13) 0.37443(18)
H12 H 0.1300 -0.0059 0.4356
C12 C -0.18408(19) 0.07502(13) 0.13418(17)
N1B N 0.18320(16) 0.11749(10) 0.45060(14)
N2B N -0.03645(16) 0.10792(7) 0.42972(11)
N3B N -0.25191(17) 0.09167(9) 0.39610(13)
N4B N -0.21837(14) 0.10067(8) 0.22154(14)
C1B C 0.2970(2) 0.15550(15) 0.4791(2)
H1B H 0.2850 0.1825 0.5378
H2B H 0.3137 0.1830 0.4221
H3B H 0.3689 0.1265 0.4966
C2B C 0.0661(2) 0.13375(10) 0.48396(15)
C3B C 0.0580(2) 0.17509(11) 0.56678(16)
H4B H 0.1315 0.1918 0.6054
C4B C -0.0630(3) 0.19051(11) 0.58982(17)
H5B H -0.0722 0.2186 0.6449
C5B C -0.1700(2) 0.16555(10) 0.53381(17)
H6B H -0.2524 0.1769 0.5484
C6B C -0.1517(2) 0.12291(10) 0.45490(15)
C7B C -0.3842(2) 0.10707(15) 0.40484(19)
H7B H -0.3907 0.1273 0.4708
H8B H -0.4345 0.0673 0.3991
H9B H -0.4160 0.1369 0.3505
C8B C -0.22265(19) 0.06143(13) 0.30320(17)
C9B C -0.1971(2) -0.00250(13) 0.3001(2)
H10B H -0.2029 -0.0294 0.3573
C10B C -0.1618(3) -0.02761(12) 0.2097(2)
H11B H -0.1424 -0.0722 0.2060
C11B C -0.1545(2) 0.01119(13) 0.12557(18)
H12B H -0.1300 -0.0059 0.0644
C12B C 0.18408(19) 0.07502(13) 0.36582(17)
loop_
_geom_bond_atom_site_label_1
_geom_bond_atom_site_label_2
_geom_bond_site_symmetry_1
_geom_bond_site_symmetry_2
O1 C13 1_555 1_555
N1 C1 1_555 1_555
N2 C2 1_555 1_555
N3 C6 1_555 1_555
N4 C8 1_555 1_555
C1 H1 1_555 1_555
H2 C1 1_555 1_555
H3 C1 1_555 1_555
C2 N1 1_555 1_555
C3 C2 1_555 1_555
H4 C3 1_555 1_555
C4 C3 1_555 1_555
H5 C4 1_555 1_555
C5 C4 1_555 1_555
H6 C5 1_555 1_555
C6 N2 1_555 1_555
C7 N3 1_555 1_555
H7 C7 1_555 1_555
H8 C7 1_555 1_555
H9 C7 1_555 1_555
C8 N3 1_555 1_555
C9 C8 1_555 1_555
H10 C9 1_555 1_555
C10 C9 1_555 1_555
H11 C10 1_555 1_555
C11 C10 1_555 1_555
H12 C11 1_555 1_555
C12 N1 1_555 1_555
C13 C14 1_555 1_555
C14 H13 1_555 1_555
C15 C14 1_555 1_555
H14 C15 1_555 1_555
C16 C13 1_555 1_555
H15 C16 1_555 1_555
H16 O1 1_555 1_555
O1B C13B 1_555 1_555
N1B C1B 1_555 1_555
N2B C2B 1_555 1_555
N3B C6B 1_555 1_555
N4B C12 1_555 1_555
C1B H1B 1_555 1_555
H2B C1B 1_555 1_555
H3B C1B 1_555 1_555
C2B N1B 1_555 1_555
C3B C2B 1_555 1_555
H4B C3B 1_555 1_555
C4B C3B 1_555 1_555
H5B C4B 1_555 1_555
C5B C4B 1_555 1_555
H6B C5B 1_555 1_555
C6B N2B 1_555 1_555
C7B N3B 1_555 1_555
H7B C7B 1_555 1_555
H8B C7B 1_555 1_555
H9B C7B 1_555 1_555
C8B N3B 1_555 1_555
C9B C8B 1_555 1_555
H10B C9B 1_555 1_555
C10B C9B 1_555 1_555
H11B C10B 1_555 1_555
C11B C12 1_555 1_555
H12B C11B 1_555 1_555
C12B N4 1_555 1_555
C13B C16 1_555 1_555
C14B C15 1_555 1_555
H13B C14B 1_555 1_555
H16B O1B 1_555 1_555
C5 C6 1_555 1_555
C11 C12B 1_555 1_555
N1B C12B 1_555 1_555
N4B C8B 1_555 1_555
C5B C6B 1_555 1_555
C10B C11B 1_555 1_555
C13B C14B 1_555 1_555

#END
