
#######################################################################
#
#                 Cambridge Crystallographic Data Centre
#                                CCDC 
#
#######################################################################
#
# If this CIF has been generated from an entry in the Cambridge 
# Structural Database, then it will include bibliographic, chemical, 
# crystal, experimental, refinement or atomic coordinate data resulting 
# from the CCDC's data processing and validation procedures.
#
#######################################################################

data_VIKWET
_chemical_formula_moiety         'C45 H70 P1 1+,Cl1 O4 1-'
_chemical_name_systematic        
'tris(2,4,6-Tri-isopropylphenyl)phosphonium perchlorate'
_symmetry_cell_setting           orthorhombic
_symmetry_space_group_name_H-M   'P 21 21 21'
_symmetry_Int_Tables_number      19
_space_group_name_Hall           'P 2ac 2ab'
loop_
_symmetry_equiv_pos_site_id
_symmetry_equiv_pos_as_xyz
1 x,y,z
2 1/2-x,-y,1/2+z
3 -x,1/2+y,1/2-z
4 1/2+x,1/2-y,-z
_cell_length_a                   13.6822(14)
_cell_length_b                   17.0621(18)
_cell_length_c                   18.660(2)
_cell_angle_alpha                90
_cell_angle_beta                 90
_cell_angle_gamma                90
_cell_volume                     4356.12
_exptl_crystal_colour            red
_exptl_crystal_description       Block
_cell_formula_units_Z            4
loop_
_atom_site_label
_atom_site_type_symbol
_atom_site_fract_x
_atom_site_fract_y
_atom_site_fract_z
P1 P 0.71447(5) 0.49036(4) 0.96924(3)
H1 H 0.7281(19) 0.4174(15) 0.9396(13)
C1 C 0.63959(17) 0.53394(15) 0.90014(12)
C2 C 0.56611(18) 0.48513(15) 0.87098(12)
C3 C 0.50853(19) 0.51520(17) 0.81573(13)
H2 H 0.4585 0.4833 0.7958
C4 C 0.5221(2) 0.59044(17) 0.78886(13)
C5 C 0.5947(2) 0.63629(16) 0.81843(13)
H3 H 0.6048 0.6873 0.7995
C6 C 0.65371(18) 0.61146(15) 0.87468(13)
C7 C 0.54422(19) 0.40214(16) 0.89658(14)
H4 H 0.5865 0.3920 0.9393
C8 C 0.4378(2) 0.3928(2) 0.92063(19)
H5 H 0.4277 0.3398 0.9393
H6 H 0.3943 0.4017 0.8797
H7 H 0.4234 0.4311 0.9583
C9 C 0.5711(3) 0.34194(19) 0.83992(17)
H8 H 0.6397 0.3487 0.8262
H9 H 0.5294 0.3492 0.7977
H10 H 0.5615 0.2891 0.8593
C10 C 0.7262(2) 0.66905(16) 0.90601(14)
H11 H 0.7506 0.6465 0.9521
C11 C 0.6792(2) 0.74829(16) 0.92315(16)
H12 H 0.6207 0.7401 0.9525
H13 H 0.6610 0.7746 0.8784
H14 H 0.7259 0.7809 0.9495
C12 C 0.8143(2) 0.68025(19) 0.85671(17)
H15 H 0.7923 0.7008 0.8104
H16 H 0.8470 0.6298 0.8495
H17 H 0.8601 0.7174 0.8787
C13 C 0.4545(2) 0.62553(19) 0.73408(15)
H18 H 0.4855 0.6750 0.7166
C14 C 0.3592(3) 0.6481(3) 0.77047(19)
H19 H 0.3733 0.6806 0.8125
H20 H 0.3246 0.6006 0.7855
H21 H 0.3184 0.6777 0.7368
C15 C 0.4353(3) 0.5749(2) 0.66933(17)
H22 H 0.3998 0.5276 0.6840
H23 H 0.4976 0.5599 0.6474
H24 H 0.3960 0.6042 0.6346
C16 C 0.84116(17) 0.51992(14) 0.97472(13)
C17 C 0.88062(17) 0.56252(14) 1.03215(13)
C18 C 0.98159(18) 0.57168(15) 1.03514(14)
H25 H 1.0092 0.5996 1.0742
C19 C 1.04335(18) 0.54141(16) 0.98298(14)
C20 C 1.00227(18) 0.50219(16) 0.92537(14)
H26 H 1.0440 0.4824 0.8889
C21 C 0.90236(18) 0.49091(16) 0.91918(13)
C22 C 0.81955(18) 0.60123(15) 1.08964(13)
H27 H 0.7495 0.5945 1.0758
C23 C 0.8396(2) 0.68941(17) 1.09352(18)
H28 H 0.8327 0.7124 1.0457
H29 H 0.9062 0.6982 1.1111
H30 H 0.7928 0.7140 1.1263
C24 C 0.8328(2) 0.5626(2) 1.16243(14)
H31 H 0.9015 0.5662 1.1769
H32 H 0.8135 0.5074 1.1594
H33 H 0.7919 0.5894 1.1979
C25 C 0.8642(2) 0.44669(17) 0.85350(15)
H34 H 0.7921 0.4558 0.8503
C26 C 0.9106(2) 0.4753(2) 0.78344(15)
H35 H 0.9800 0.4612 0.7828
H36 H 0.9040 0.5324 0.7801
H37 H 0.8774 0.4508 0.7427
C27 C 0.8810(3) 0.35937(19) 0.86237(19)
H38 H 0.8545 0.3422 0.9086
H39 H 0.9512 0.3483 0.8607
H40 H 0.8480 0.3311 0.8236
C28 C 1.15313(19) 0.55200(18) 0.98844(15)
H41 H 1.1677 0.5794 1.0346
C29 C 1.1909(2) 0.60306(19) 0.92731(16)
H42 H 1.1575 0.6538 0.9283
H43 H 1.1781 0.5770 0.8814
H44 H 1.2614 0.6111 0.9329
C30 C 1.2057(2) 0.4737(2) 0.98903(19)
H45 H 1.1978 0.4481 0.9424
H46 H 1.1779 0.4403 1.0266
H47 H 1.2754 0.4821 0.9985
C31 C 0.64563(17) 0.47203(14) 1.05060(12)
C32 C 0.66011(18) 0.39765(15) 1.08289(12)
C33 C 0.58916(19) 0.37086(15) 1.13016(13)
H48 H 0.5978 0.3213 1.1524
C34 C 0.50577(19) 0.41436(15) 1.14596(13)
C35 C 0.49834(18) 0.48942(15) 1.11824(13)
H49 H 0.4445 0.5211 1.1321
C36 C 0.56674(17) 0.52000(15) 1.07095(12)
C37 C 0.74783(19) 0.34504(16) 1.06815(14)
H50 H 0.7949 0.3749 1.0375
C38 C 0.8002(2) 0.32274(19) 1.13796(16)
H51 H 0.7586 0.2873 1.1659
H52 H 0.8134 0.3702 1.1659
H53 H 0.8620 0.2965 1.1266
C39 C 0.7175(2) 0.27152(16) 1.02758(17)
H54 H 0.6848 0.2864 0.9829
H55 H 0.6726 0.2406 1.0572
H56 H 0.7756 0.2402 1.0165
C40 C 0.55330(18) 0.60468(15) 1.04719(12)
H57 H 0.6086 0.6183 1.0144
C41 C 0.5575(2) 0.66073(16) 1.11175(14)
H58 H 0.5021 0.6502 1.1437
H59 H 0.5542 0.7150 1.0948
H60 H 0.6188 0.6526 1.1379
C42 C 0.4580(2) 0.61740(17) 1.00626(14)
H61 H 0.4025 0.6058 1.0377
H62 H 0.4561 0.5825 0.9646
H63 H 0.4542 0.6720 0.9902
C43 C 0.4206(2) 0.38079(17) 1.18748(15)
H64 H 0.3853 0.4254 1.2106
C44 C 0.4478(2) 0.32272(18) 1.24584(16)
H65 H 0.4910 0.3482 1.2806
H66 H 0.4815 0.2778 1.2244
H67 H 0.3884 0.3047 1.2701
C45 C 0.3518(2) 0.3441(2) 1.13227(17)
H68 H 0.3874 0.3049 1.1042
H69 H 0.3269 0.3850 1.1002
H70 H 0.2970 0.3189 1.1570
Cl1 Cl 0.78075(7) 0.88844(5) 0.75076(5)
O1 O 0.7831(4) 0.96017(17) 0.71385(17)
O2 O 0.6876(2) 0.8538(2) 0.74828(17)
O3 O 0.8475(3) 0.8343(2) 0.7175(2)
O4 O 0.8087(2) 0.8991(2) 0.82266(15)
loop_
_geom_bond_atom_site_label_1
_geom_bond_atom_site_label_2
_geom_bond_site_symmetry_1
_geom_bond_site_symmetry_2
P1 H1 1_555 1_555
C1 P1 1_555 1_555
C2 C1 1_555 1_555
C3 C2 1_555 1_555
H2 C3 1_555 1_555
C4 C3 1_555 1_555
C5 C4 1_555 1_555
H3 C5 1_555 1_555
C6 C1 1_555 1_555
C7 C2 1_555 1_555
H4 C7 1_555 1_555
C8 C7 1_555 1_555
H5 C8 1_555 1_555
H6 C8 1_555 1_555
H7 C8 1_555 1_555
C9 C7 1_555 1_555
H8 C9 1_555 1_555
H9 C9 1_555 1_555
H10 C9 1_555 1_555
C10 C6 1_555 1_555
H11 C10 1_555 1_555
C11 C10 1_555 1_555
H12 C11 1_555 1_555
H13 C11 1_555 1_555
H14 C11 1_555 1_555
C12 C10 1_555 1_555
H15 C12 1_555 1_555
H16 C12 1_555 1_555
H17 C12 1_555 1_555
C13 C4 1_555 1_555
H18 C13 1_555 1_555
C14 C13 1_555 1_555
H19 C14 1_555 1_555
H20 C14 1_555 1_555
H21 C14 1_555 1_555
C15 C13 1_555 1_555
H22 C15 1_555 1_555
H23 C15 1_555 1_555
H24 C15 1_555 1_555
C16 P1 1_555 1_555
C17 C16 1_555 1_555
C18 C17 1_555 1_555
H25 C18 1_555 1_555
C19 C18 1_555 1_555
C20 C19 1_555 1_555
H26 C20 1_555 1_555
C21 C16 1_555 1_555
C22 C17 1_555 1_555
H27 C22 1_555 1_555
C23 C22 1_555 1_555
H28 C23 1_555 1_555
H29 C23 1_555 1_555
H30 C23 1_555 1_555
C24 C22 1_555 1_555
H31 C24 1_555 1_555
H32 C24 1_555 1_555
H33 C24 1_555 1_555
C25 C21 1_555 1_555
H34 C25 1_555 1_555
C26 C25 1_555 1_555
H35 C26 1_555 1_555
H36 C26 1_555 1_555
H37 C26 1_555 1_555
C27 C25 1_555 1_555
H38 C27 1_555 1_555
H39 C27 1_555 1_555
H40 C27 1_555 1_555
C28 C19 1_555 1_555
H41 C28 1_555 1_555
C29 C28 1_555 1_555
H42 C29 1_555 1_555
H43 C29 1_555 1_555
H44 C29 1_555 1_555
C30 C28 1_555 1_555
H45 C30 1_555 1_555
H46 C30 1_555 1_555
H47 C30 1_555 1_555
C31 P1 1_555 1_555
C32 C31 1_555 1_555
C33 C32 1_555 1_555
H48 C33 1_555 1_555
C34 C33 1_555 1_555
C35 C34 1_555 1_555
H49 C35 1_555 1_555
C36 C31 1_555 1_555
C37 C32 1_555 1_555
H50 C37 1_555 1_555
C38 C37 1_555 1_555
H51 C38 1_555 1_555
H52 C38 1_555 1_555
H53 C38 1_555 1_555
C39 C37 1_555 1_555
H54 C39 1_555 1_555
H55 C39 1_555 1_555
H56 C39 1_555 1_555
C40 C36 1_555 1_555
H57 C40 1_555 1_555
C41 C40 1_555 1_555
H58 C41 1_555 1_555
H59 C41 1_555 1_555
H60 C41 1_555 1_555
C42 C40 1_555 1_555
H61 C42 1_555 1_555
H62 C42 1_555 1_555
H63 C42 1_555 1_555
C43 C34 1_555 1_555
H64 C43 1_555 1_555
C44 C43 1_555 1_555
H65 C44 1_555 1_555
H66 C44 1_555 1_555
H67 C44 1_555 1_555
C45 C43 1_555 1_555
H68 C45 1_555 1_555
H69 C45 1_555 1_555
H70 C45 1_555 1_555
Cl1 O1 1_555 1_555
O2 Cl1 1_555 1_555
O3 Cl1 1_555 1_555
O4 Cl1 1_555 1_555
C5 C6 1_555 1_555
C20 C21 1_555 1_555
C35 C36 1_555 1_555

#END
