
#######################################################################
#
#                 Cambridge Crystallographic Data Centre
#                                CCDC 
#
#######################################################################
#
# If this CIF has been generated from an entry in the Cambridge 
# Structural Database, then it will include bibliographic, chemical, 
# crystal, experimental, refinement or atomic coordinate data resulting 
# from the CCDC's data processing and validation procedures.
#
#######################################################################

data_VIKWAP
_chemical_name_common            
2-((4,5-Dihydroxy-2-(hydroxymethyl)-6-methoxytetrahydro-2H-pyran-3-yl)oxy)tetrahydro-2H-pyran-3,4,5-triol
_chemical_formula_moiety         'C12 H22 O10'
_chemical_name_systematic        
'Methyl 4-O-\b-D-xylopyranosyl \b-D-mannopyranoside'
_symmetry_cell_setting           monoclinic
_symmetry_space_group_name_H-M   'P 21'
_symmetry_Int_Tables_number      4
_space_group_name_Hall           'P 2yb'
loop_
_symmetry_equiv_pos_site_id
_symmetry_equiv_pos_as_xyz
1 x,y,z
2 -x,1/2+y,-z
_cell_length_a                   8.9763(9)
_cell_length_b                   7.4575(7)
_cell_length_c                   11.0026(11)
_cell_angle_alpha                90
_cell_angle_beta                 97.406(2)
_cell_angle_gamma                90
_cell_volume                     730.378
_exptl_crystal_colour            colorless
_exptl_crystal_description       block
_cell_formula_units_Z            2
loop_
_atom_site_label
_atom_site_type_symbol
_atom_site_fract_x
_atom_site_fract_y
_atom_site_fract_z
O1 O 0.62043(14) -0.00497(19) 0.63442(11)
O2 O 0.76518(14) -0.0690(2) 0.85577(11)
H1 H 0.775(3) -0.123(5) 0.925(3)
O3 O 0.66415(15) 0.0780(2) 1.06503(11)
H2 H 0.683(4) 0.153(5) 1.119(3)
O4 O 0.72002(13) 0.25556(18) 0.71721(10)
O5 O 0.77159(15) 0.6414(2) 0.67367(11)
H3 H 0.741(3) 0.739(5) 0.697(3)
C1 C 0.60745(19) 0.1232(3) 0.72421(15)
H4 H 0.5058 0.1799 0.7101
C2 C 0.62852(19) 0.0297(3) 0.84834(15)
H5 H 0.5431 -0.0547 0.8536
C3 C 0.63237(18) 0.1699(3) 0.95052(15)
H6 H 0.5302 0.2247 0.9465
C4 C 0.74467(18) 0.3191(2) 0.93466(14)
H7 H 0.8500 0.2730 0.9505
C5 C 0.71220(18) 0.3958(2) 0.80448(14)
H8 H 0.6093 0.4495 0.7927
C6 C 0.82592(19) 0.5370(2) 0.77938(15)
H9 H 0.8466 0.6168 0.8515
H10 H 0.9213 0.4779 0.7661
C7 C 0.5867(2) 0.0625(3) 0.51180(16)
H11 H 0.5980 -0.0339 0.4532
H12 H 0.6558 0.1605 0.4992
H13 H 0.4831 0.1071 0.4992
O6 O 0.72263(13) 0.46436(17) 1.01656(10)
O7 O 0.86060(14) 0.79277(19) 1.09326(11)
H14 H 0.825(3) 0.891(5) 1.107(2)
O8 O 0.84216(15) 0.85384(19) 1.34740(11)
H15 H 0.905(3) 0.888(5) 1.401(3)
O9 O 0.93920(15) 0.5398(2) 1.50096(11)
H16 H 0.890(3) 0.578(4) 1.552(3)
O10 O 0.78731(14) 0.34767(19) 1.20623(10)
C8 C 0.82595(18) 0.4803(2) 1.12206(14)
H17 H 0.9308 0.4621 1.1029
C9 C 0.80709(18) 0.6659(3) 1.17393(15)
H18 H 0.6975 0.6880 1.1758
C10 C 0.88812(18) 0.6863(3) 1.30373(15)
H19 H 0.9990 0.6883 1.3011
C11 C 0.84947(19) 0.5316(3) 1.38443(15)
H20 H 0.7408 0.5380 1.3956
C12 C 0.8808(2) 0.3556(3) 1.32336(15)
H21 H 0.9881 0.3486 1.3115
H22 H 0.8577 0.2537 1.3754
loop_
_geom_bond_atom_site_label_1
_geom_bond_atom_site_label_2
_geom_bond_site_symmetry_1
_geom_bond_site_symmetry_2
O1 C1 1_555 1_555
O2 H1 1_555 1_555
O3 H2 1_555 1_555
O4 C1 1_555 1_555
O5 H3 1_555 1_555
C1 H4 1_555 1_555
C2 O2 1_555 1_555
H5 C2 1_555 1_555
C3 O3 1_555 1_555
H6 C3 1_555 1_555
C4 C3 1_555 1_555
H7 C4 1_555 1_555
C5 O4 1_555 1_555
H8 C5 1_555 1_555
C6 O5 1_555 1_555
H9 C6 1_555 1_555
H10 C6 1_555 1_555
C7 O1 1_555 1_555
H11 C7 1_555 1_555
H12 C7 1_555 1_555
H13 C7 1_555 1_555
O6 C4 1_555 1_555
O7 H14 1_555 1_555
O8 H15 1_555 1_555
O9 H16 1_555 1_555
O10 C8 1_555 1_555
C8 O6 1_555 1_555
H17 C8 1_555 1_555
C9 O7 1_555 1_555
H18 C9 1_555 1_555
C10 O8 1_555 1_555
H19 C10 1_555 1_555
C11 O9 1_555 1_555
H20 C11 1_555 1_555
C12 O10 1_555 1_555
H21 C12 1_555 1_555
H22 C12 1_555 1_555
C1 C2 1_555 1_555
C2 C3 1_555 1_555
C4 C5 1_555 1_555
C5 C6 1_555 1_555
C8 C9 1_555 1_555
C9 C10 1_555 1_555
C10 C11 1_555 1_555
C11 C12 1_555 1_555

#END
