
#######################################################################
#
#                 Cambridge Crystallographic Data Centre
#                                CCDC 
#
#######################################################################
#
# If this CIF has been generated from an entry in the Cambridge 
# Structural Database, then it will include bibliographic, chemical, 
# crystal, experimental, refinement or atomic coordinate data resulting 
# from the CCDC's data processing and validation procedures.
#
#######################################################################

data_VIKXET
_chemical_formula_moiety         'C15 H28 N2 O1'
_chemical_name_systematic        
N,N'-(4-Methoxy-3,4-dimethylcyclobut-2-en-2-yl-1-yliden)-bis(2-methylpropane-2-amine)
_symmetry_cell_setting           monoclinic
_symmetry_space_group_name_H-M   'C 2/m'
_symmetry_Int_Tables_number      12
_space_group_name_Hall           '-C 2y'
loop_
_symmetry_equiv_pos_site_id
_symmetry_equiv_pos_as_xyz
1 x,y,z
2 1/2+x,1/2+y,z
3 -x,y,-z
4 1/2-x,1/2+y,-z
5 -x,-y,-z
6 1/2-x,1/2-y,-z
7 x,-y,z
8 1/2+x,1/2-y,z
_cell_length_a                   15.816(3)
_cell_length_b                   10.573(2)
_cell_length_c                   10.120(2)
_cell_angle_alpha                90
_cell_angle_beta                 109.70(3)
_cell_angle_gamma                90
_cell_volume                     1593.24
_exptl_crystal_colour            colorless
_exptl_crystal_description       prism
_cell_formula_units_Z            4
loop_
_atom_site_label
_atom_site_type_symbol
_atom_site_fract_x
_atom_site_fract_y
_atom_site_fract_z
C1 C 0.19613(14) -0.0354(3) 0.0608(3)
C2 C 0.1833(7) -0.1619(16) 0.1194(14)
H1 H 0.1911 -0.2293 0.0579
H2 H 0.1227 -0.1667 0.1248
H3 H 0.2277 -0.1722 0.2134
O1 O 0.17752(14) 0.0533(2) 0.1539(2)
N1 N 0.36371(12) 0.0000 0.04991(18)
N2 N 0.24534(14) 0.0000 -0.2460(2)
H4 H 0.299(2) 0.0000 -0.223(3)
C3 C 0.27917(15) 0.0000 0.0121(2)
C4 C 0.21752(15) 0.0000 -0.1332(2)
C5 C 0.14204(16) 0.0000 -0.0975(2)
C6 C 0.04277(17) 0.0000 -0.1638(3)
H5 H 0.0150 0.0000 -0.0907
H6 H 0.0239 -0.0757 -0.2223
H7 H 0.0239 0.0757 -0.2223
C7 C 0.19155(15) 0.0000 -0.3956(2)
C8 C 0.13419(15) 0.1181(2) -0.4324(2)
H8 H 0.0914 0.1182 -0.3813
H9 H 0.1013 0.1196 -0.5336
H10 H 0.1727 0.1930 -0.4062
C9 C 0.2582(2) 0.0000 -0.4744(3)
H11 H 0.2951 0.0766 -0.4507
H12 H 0.2255 -0.0019 -0.5756
H13 H 0.2969 -0.0747 -0.4476
C10 C 0.42733(15) 0.0000 0.1952(2)
C11 C 0.3848(2) 0.0000 0.3078(3)
H14 H 0.3478 -0.0760 0.2986
H15 H 0.3470 0.0753 0.2977
H16 H 0.4318 0.0007 0.4003
C12 C 0.48474(18) 0.1162(2) 0.2084(2)
H17 H 0.4477 0.1920 0.2005
H18 H 0.5110 0.1164 0.1334
H19 H 0.5329 0.1158 0.2998
C1F C 0.19613(14) 0.0354(3) 0.0608(3)
C2F C 0.1833(7) 0.1619(16) 0.1194(14)
H1F H 0.1911 0.2293 0.0579
H2F H 0.1227 0.1667 0.1248
H3F H 0.2277 0.1722 0.2134
O1F O 0.17752(14) -0.0533(2) 0.1539(2)
C8F C 0.13419(15) -0.1181(2) -0.4324(2)
H8F H 0.0914 -0.1182 -0.3813
H9F H 0.1013 -0.1196 -0.5336
H10F H 0.1727 -0.1930 -0.4062
C12F C 0.48474(18) -0.1162(2) 0.2084(2)
H17F H 0.4477 -0.1920 0.2005
H18F H 0.5110 -0.1164 0.1334
H19F H 0.5329 -0.1158 0.2998
C13? C 0.1803(10) 0.1834(17) 0.1162(17)
H20? H 0.1659 0.2372 0.1846
H21? H 0.1364 0.1980 0.0226
H22? H 0.2406 0.2041 0.1156
loop_
_geom_bond_atom_site_label_1
_geom_bond_atom_site_label_2
_geom_bond_site_symmetry_1
_geom_bond_site_symmetry_2
C1 C2 1_555 1_555
C2 H1 1_555 1_555
H2 C2 1_555 1_555
H3 C2 1_555 1_555
O1 C1 1_555 1_555
N1 C3 1_555 1_555
N2 H4 1_555 1_555
C3 C1 1_555 1_555
C4 N2 1_555 1_555
C5 C1 1_555 1_555
C6 C5 1_555 1_555
H5 C6 1_555 1_555
H6 C6 1_555 1_555
H7 C6 1_555 1_555
C7 N2 1_555 1_555
C8 C7 1_555 1_555
H8 C8 1_555 1_555
H9 C8 1_555 1_555
H10 C8 1_555 1_555
C9 C7 1_555 1_555
H11 C9 1_555 1_555
H12 C9 1_555 1_555
H13 C9 1_555 1_555
C10 N1 1_555 1_555
C11 C10 1_555 1_555
H14 C11 1_555 1_555
H15 C11 1_555 1_555
H16 C11 1_555 1_555
C12 C10 1_555 1_555
H17 C12 1_555 1_555
H18 C12 1_555 1_555
H19 C12 1_555 1_555
C1F C1 1_555 1_555
C2F O1 1_555 1_555
H1F C2F 1_555 1_555
H2F C2F 1_555 1_555
H3F C2F 1_555 1_555
O1F C1 1_555 1_555
C8F C7 1_555 1_555
H8F C8F 1_555 1_555
H9F C8F 1_555 1_555
H10F C8F 1_555 1_555
C12F C10 1_555 1_555
H17F C12F 1_555 1_555
H18F C12F 1_555 1_555
H19F C12F 1_555 1_555
C2 O1F 1_555 1_555
O1 C1F 1_555 1_555
O1 O1F 1_555 1_555
C3 C4 1_555 1_555
C3 C1F 1_555 1_555
C4 C5 1_555 1_555
C5 C1F 1_555 1_555
C1F C2F 1_555 1_555
C1F O1F 1_555 1_555

#END
