
#######################################################################
#
#                 Cambridge Crystallographic Data Centre
#                                CCDC 
#
#######################################################################
#
# If this CIF has been generated from an entry in the Cambridge 
# Structural Database, then it will include bibliographic, chemical, 
# crystal, experimental, refinement or atomic coordinate data resulting 
# from the CCDC's data processing and validation procedures.
#
#######################################################################

data_VIMBUQ
_chemical_name_common            
'5,17-bis((4-dimethylamino)benzylidineamino)-11,23-di-t-butyl-25,27-di-n-butoxy-26,28-dihydroxycalix[4]arene dichloromethane solvate'
_chemical_formula_moiety         'C62 H76 N4 O4,C1 H2 Cl2'
_chemical_name_systematic        
'26,28-Dibutoxy-5,17-di-t-butyl-11,23-bis((4-(dimethylamino)benzylidene)amino)pentacyclo[19.3.1.1^3,7^.1^9,13^.1^15,19^]octacosa-1(25),3(28),4,6,9(27),10,12,15(26),16,18,21,23-dodecaene-25,27-diol dichloromethane solvate unknown solvate'
_symmetry_cell_setting           monoclinic
_symmetry_space_group_name_H-M   'C 2/c'
_symmetry_Int_Tables_number      15
_space_group_name_Hall           '-C 2yn'
loop_
_symmetry_equiv_pos_site_id
_symmetry_equiv_pos_as_xyz
1 x,y,z
2 -x,y,1/2-z
3 1/2+x,1/2+y,z
4 1/2-x,1/2+y,1/2-z
5 -x,-y,-z
6 x,-y,1/2+z
7 1/2-x,1/2-y,-z
8 1/2+x,1/2-y,1/2+z
_cell_length_a                   38.722(5)
_cell_length_b                   19.634(5)
_cell_length_c                   17.058(5)
_cell_angle_alpha                90
_cell_angle_beta                 102.603(5)
_cell_angle_gamma                90
_cell_volume                     12656.2
_exptl_crystal_colour            yellow
_exptl_crystal_description       block
_cell_formula_units_Z            8
loop_
_atom_site_label
_atom_site_type_symbol
_atom_site_fract_x
_atom_site_fract_y
_atom_site_fract_z
O1 O 0.45249(6) 0.14259(12) 0.39102(15)
O2 O 0.42032(7) 0.08532(12) 0.24710(14)
H1 H 0.4344 0.1054 0.2825
O3 O 0.37616(7) -0.02429(12) 0.27678(16)
O4 O 0.39318(8) 0.06071(15) 0.40883(18)
C1 C 0.25372(9) 0.16388(15) 0.64907(18)
N1 N 0.18260(9) 0.24119(16) 0.78112(19)
N2 N 0.28850(9) 0.16906(16) 0.54986(18)
C2 C 0.20917(9) 0.24532(15) 0.66625(19)
H2 H 0.1954 0.2831 0.6470
C3 C 0.20571(9) 0.21553(16) 0.73863(19)
C4 C 0.43447(9) 0.20446(16) 0.3835(2)
C5 C 0.31827(10) 0.01511(15) 0.2801(2)
C6 C 0.23233(9) 0.22020(16) 0.62289(19)
H3 H 0.2338 0.2412 0.5749
C7 C 0.30754(10) 0.08486(17) 0.4619(2)
H4 H 0.2851 0.0654 0.4525
C8 C 0.25029(11) 0.13398(17) 0.7210(2)
H5 H 0.2638 0.0957 0.7393
C9 C 0.43509(9) 0.24492(17) 0.3173(2)
C10 C 0.27979(9) 0.13838(15) 0.60694(19)
H6 H 0.2906 0.0969 0.6232
C11 C 0.36634(10) 0.08641(17) 0.43999(19)
C12 C 0.33270(10) 0.05748(17) 0.4238(2)
C13 C 0.34148(10) 0.03009(16) 0.1605(2)
C14 C 0.38769(11) 0.10042(18) 0.1145(2)
C15 C 0.42594(10) 0.19110(18) 0.1795(2)
C16 C 0.41667(11) 0.22900(19) 0.1108(2)
H7 H 0.4263 0.2723 0.1095
C17 C 0.41528(10) 0.22314(18) 0.4411(2)
C18 C 0.41153(9) 0.12578(18) 0.18151(19)
C19 C 0.45200(10) 0.22006(19) 0.2501(2)
H8 H 0.4644 0.2578 0.2318
H9 H 0.4694 0.1854 0.2713
C20 C 0.37457(10) 0.14276(19) 0.49130(18)
C21 C 0.30877(12) 0.05597(18) 0.1226(2)
H10 H 0.3057 0.0704 0.0696
C22 C 0.34505(9) 0.00609(15) 0.2386(2)
N3 N 0.38796(13) 0.2498(2) -0.0240(2)
C23 C 0.40101(11) 0.33088(18) 0.3721(3)
C24 C 0.31474(10) 0.13953(17) 0.51301(19)
C25 C 0.41086(11) 0.1746(2) 0.5073(2)
H11 H 0.4285 0.1389 0.5123
H12 H 0.4149 0.1991 0.5579
N4 N 0.32988(14) 0.3818(2) -0.3743(2)
C26 C 0.32342(13) -0.00383(18) 0.3680(2)
H13 H 0.3422 -0.0373 0.3812
H14 H 0.3019 -0.0246 0.3769
C27 C 0.39936(10) 0.28645(19) 0.4336(2)
H15 H 0.3869 0.2997 0.4719
C28 C 0.34789(11) 0.16913(19) 0.52685(19)
H16 H 0.3526 0.2070 0.5602
C29 C 0.28026(10) 0.06144(17) 0.1599(2)
C30 C 0.22760(11) 0.15919(18) 0.7660(2)
H17 H 0.2267 0.1389 0.8147
C31 C 0.41842(11) 0.30828(18) 0.3134(3)
H18 H 0.4190 0.3366 0.2700
C32 C 0.15963(11) 0.29750(19) 0.7509(3)
H19 H 0.1736 0.3353 0.7400
H20 H 0.1465 0.3106 0.7902
H21 H 0.1435 0.2841 0.7023
C33 C 0.37227(12) 0.0295(2) 0.1183(2)
H22 H 0.3642 0.0120 0.0642
H23 H 0.3906 -0.0008 0.1468
C34 C 0.39370(13) 0.2051(2) 0.0438(2)
C35 C 0.28610(11) 0.04186(18) 0.2393(3)
H24 H 0.2679 0.0467 0.2666
C36 C 0.37966(12) 0.1402(2) 0.0467(2)
H25 H 0.3643 0.1232 0.0013
C37 C 0.33844(14) 0.3473(2) -0.3029(2)
C38 C 0.38561(15) 0.4037(2) 0.3701(4)
C39 C 0.24440(12) 0.08671(19) 0.1139(3)
C40 C 0.48930(11) 0.1499(2) 0.4325(3)
H26 H 0.4910 0.1655 0.4871
H27 H 0.5013 0.1823 0.4048
C41 C 0.36295(15) 0.2386(3) -0.0810(3)
H28 H 0.3480 0.2026 -0.0761
C42 C 0.35509(14) 0.2776(2) -0.1557(3)
C43 C 0.29799(17) 0.3631(3) -0.4310(3)
H29 H 0.2977 0.3147 -0.4395
H30 H 0.2972 0.3861 -0.4810
H31 H 0.2778 0.3759 -0.4102
C44 C 0.36775(17) 0.3662(3) -0.2428(3)
H32 H 0.3820 0.4022 -0.2519
C45 C 0.31944(14) 0.2915(2) -0.2874(3)
H33 H 0.3007 0.2760 -0.3271
C46 C 0.37932(16) -0.0958(2) 0.2627(4)
H34 H 0.3764 -0.1045 0.2057
H35 H 0.3613 -0.1208 0.2821
C47 C 0.37557(15) 0.3329(3) -0.1715(3)
H36 H 0.3949 0.3469 -0.1322
C48 C 0.32749(15) 0.2582(2) -0.2152(3)
H37 H 0.3137 0.2213 -0.2066
C49 C 0.50578(16) 0.0790(3) 0.4322(4)
H38 H 0.5294 0.0809 0.4662
H39 H 0.4921 0.0479 0.4575
C50 C 0.50861(16) 0.0509(3) 0.3606(3)
H40 H 0.5211 0.0824 0.3329
H41 H 0.4851 0.0446 0.3275
C51 C 0.5276(3) -0.0164(4) 0.3692(7)
H42 H 0.5285 -0.0336 0.3170
H43 H 0.5153 -0.0482 0.3960
H44 H 0.5513 -0.0104 0.4002
C52 C 0.18075(15) 0.2124(3) 0.8580(3)
H45 H 0.1751 0.1648 0.8517
H46 H 0.1628 0.2354 0.8787
H47 H 0.2032 0.2178 0.8948
C53 C 0.4168(2) -0.1184(3) 0.3086(5)
H48 H 0.4325 -0.0797 0.3116
H49 H 0.4154 -0.1299 0.3632
C54 C 0.35766(19) 0.4085(3) 0.4186(5)
H50 H 0.3677 0.3962 0.4734
H51 H 0.3386 0.3780 0.3968
H52 H 0.3489 0.4543 0.4168
C55 C 0.41679(18) 0.4503(3) 0.4072(7)
H53 H 0.4274 0.4346 0.4603
H54 H 0.4084 0.4960 0.4099
H55 H 0.4341 0.4492 0.3745
C56 C 0.2454(2) 0.1626(3) 0.0982(8)
H56 H 0.2225 0.1774 0.0693
H57 H 0.2627 0.1719 0.0669
H58 H 0.2516 0.1865 0.1484
C57 C 0.2326(3) 0.0461(7) 0.0364(6)
H59 H 0.2317 -0.0014 0.0490
H60 H 0.2492 0.0530 0.0027
H61 H 0.2096 0.0613 0.0089
C58 C 0.21619(16) 0.0762(6) 0.1630(6)
H62 H 0.2148 0.0287 0.1754
H63 H 0.1937 0.0914 0.1325
H64 H 0.2224 0.1018 0.2120
C59 C 0.3413(3) 0.4500(3) -0.3790(4)
H65 H 0.3299 0.4787 -0.3467
H66 H 0.3353 0.4650 -0.4338
H67 H 0.3665 0.4524 -0.3596
C60 C 0.3687(3) 0.4244(3) 0.2876(5)
H68 H 0.3857 0.4224 0.2543
H69 H 0.3599 0.4701 0.2882
H70 H 0.3493 0.3942 0.2667
C61 C 0.4651(4) -0.1906(12) 0.3328(11)
H71 H 0.4759 -0.2294 0.3136
H72 H 0.4602 -0.2010 0.3843
H73 H 0.4810 -0.1524 0.3379
C62 C 0.4322(3) -0.1740(8) 0.2762(10)
H74 H 0.4369 -0.1619 0.2244
H75 H 0.4163 -0.2129 0.2690
H76 H 0.3862(17) 0.040(3) 0.375(3)
C63? C 0.50578(16) 0.0790(3) 0.4322(4)
H77? H 0.4923 0.0520 0.4625
H78? H 0.4976 0.0646 0.3769
C64? C 0.5484(9) -0.0141(10) 0.4166(19)
H79? H 0.5727 -0.0250 0.4395
H80? H 0.5453 -0.0085 0.3596
H81? H 0.5336 -0.0504 0.4276
C65? C 0.5387(3) 0.0508(10) 0.4530(12)
H82? H 0.5435 0.0437 0.5107
H83? H 0.5552 0.0853 0.4433
C66? C 0.2339(5) 0.1510(10) 0.1531(13)
H84? H 0.2502 0.1869 0.1491
H85? H 0.2344 0.1421 0.2087
H86? H 0.2104 0.1644 0.1263
C67? C 0.2450(4) 0.0974(17) 0.0256(6)
H87? H 0.2641 0.1274 0.0215
H88? H 0.2229 0.1171 -0.0018
H89? H 0.2482 0.0543 0.0015
C68? C 0.2158(2) 0.0339(8) 0.1164(17)
H90? H 0.2225 -0.0088 0.0967
H91? H 0.1938 0.0489 0.0833
H92? H 0.2132 0.0285 0.1707
loop_
_geom_bond_atom_site_label_1
_geom_bond_atom_site_label_2
_geom_bond_site_symmetry_1
_geom_bond_site_symmetry_2
O1 C4 1_555 1_555
O2 H1 1_555 1_555
O3 C22 1_555 1_555
O4 C11 1_555 1_555
C1 C6 1_555 1_555
N1 C3 1_555 1_555
N2 C10 1_555 1_555
C2 H2 1_555 1_555
C3 C2 1_555 1_555
C4 C9 1_555 1_555
C5 C22 1_555 1_555
C6 C2 1_555 1_555
H3 C6 1_555 1_555
C7 H4 1_555 1_555
C8 C1 1_555 1_555
H5 C8 1_555 1_555
C9 C19 1_555 1_555
C10 C1 1_555 1_555
H6 C10 1_555 1_555
C11 C12 1_555 1_555
C12 C7 1_555 1_555
C13 C21 1_555 1_555
C14 C18 1_555 1_555
C15 C16 1_555 1_555
C16 H7 1_555 1_555
C17 C4 1_555 1_555
C18 O2 1_555 1_555
C19 C15 1_555 1_555
H8 C19 1_555 1_555
H9 C19 1_555 1_555
C20 C11 1_555 1_555
C21 H10 1_555 1_555
C22 C13 1_555 1_555
N3 C34 1_555 1_555
C23 C27 1_555 1_555
C24 N2 1_555 1_555
C25 C17 1_555 1_555
H11 C25 1_555 1_555
H12 C25 1_555 1_555
N4 C37 1_555 1_555
C26 C5 1_555 1_555
H13 C26 1_555 1_555
H14 C26 1_555 1_555
C27 C17 1_555 1_555
H15 C27 1_555 1_555
C28 C20 1_555 1_555
H16 C28 1_555 1_555
C29 C21 1_555 1_555
C30 C3 1_555 1_555
H17 C30 1_555 1_555
C31 C9 1_555 1_555
H18 C31 1_555 1_555
C32 N1 1_555 1_555
H19 C32 1_555 1_555
H20 C32 1_555 1_555
H21 C32 1_555 1_555
C33 C13 1_555 1_555
H22 C33 1_555 1_555
H23 C33 1_555 1_555
C34 C16 1_555 1_555
C35 C5 1_555 1_555
H24 C35 1_555 1_555
C36 C14 1_555 1_555
H25 C36 1_555 1_555
C37 C44 1_555 1_555
C38 C23 1_555 1_555
C39 C29 1_555 1_555
C40 O1 1_555 1_555
H26 C40 1_555 1_555
H27 C40 1_555 1_555
C41 N3 1_555 1_555
H28 C41 1_555 1_555
C42 C41 1_555 1_555
C43 N4 1_555 1_555
H29 C43 1_555 1_555
H30 C43 1_555 1_555
H31 C43 1_555 1_555
C44 H32 1_555 1_555
C45 C37 1_555 1_555
H33 C45 1_555 1_555
C46 O3 1_555 1_555
H34 C46 1_555 1_555
H35 C46 1_555 1_555
C47 C42 1_555 1_555
H36 C47 1_555 1_555
C48 C42 1_555 1_555
H37 C48 1_555 1_555
C49 C40 1_555 1_555
H38 C49 1_555 1_555
H39 C49 1_555 1_555
C50 C49 1_555 1_555
H40 C50 1_555 1_555
H41 C50 1_555 1_555
C51 C50 1_555 1_555
H42 C51 1_555 1_555
H43 C51 1_555 1_555
H44 C51 1_555 1_555
C52 N1 1_555 1_555
H45 C52 1_555 1_555
H46 C52 1_555 1_555
H47 C52 1_555 1_555
C53 C46 1_555 1_555
H48 C53 1_555 1_555
H49 C53 1_555 1_555
C54 C38 1_555 1_555
H50 C54 1_555 1_555
H51 C54 1_555 1_555
H52 C54 1_555 1_555
C55 C38 1_555 1_555
H53 C55 1_555 1_555
H54 C55 1_555 1_555
H55 C55 1_555 1_555
C56 C39 1_555 1_555
H56 C56 1_555 1_555
H57 C56 1_555 1_555
H58 C56 1_555 1_555
C57 C39 1_555 1_555
H59 C57 1_555 1_555
H60 C57 1_555 1_555
H61 C57 1_555 1_555
C58 C39 1_555 1_555
H62 C58 1_555 1_555
H63 C58 1_555 1_555
H64 C58 1_555 1_555
C59 N4 1_555 1_555
H65 C59 1_555 1_555
H66 C59 1_555 1_555
H67 C59 1_555 1_555
C60 C38 1_555 1_555
H68 C60 1_555 1_555
H69 C60 1_555 1_555
H70 C60 1_555 1_555
C61 H71 1_555 1_555
H72 C61 1_555 1_555
H73 C61 1_555 1_555
C62 C53 1_555 1_555
H74 C62 1_555 1_555
H75 C62 1_555 1_555
H76 O4 1_555 1_555
C7 C24 1_555 1_555
C8 C30 1_555 1_555
C12 C26 1_555 1_555
C14 C33 1_555 1_555
C15 C18 1_555 1_555
C20 C25 1_555 1_555
C23 C31 1_555 1_555
C24 C28 1_555 1_555
C29 C35 1_555 1_555
C34 C36 1_555 1_555
C44 C47 1_555 1_555
C45 C48 1_555 1_555
C61 C62 1_555 1_555

#END
