
#######################################################################
#
#                 Cambridge Crystallographic Data Centre
#                                CCDC 
#
#######################################################################
#
# If this CIF has been generated from an entry in the Cambridge 
# Structural Database, then it will include bibliographic, chemical, 
# crystal, experimental, refinement or atomic coordinate data resulting 
# from the CCDC's data processing and validation procedures.
#
#######################################################################

data_VIMGUT
_chemical_compound_source        'Roots of Stemona tuberosa Lour'
_chemical_name_common            Tuberostemonone
_chemical_formula_moiety         'C22 H31 N1 O6'
_chemical_name_systematic        
(2S,3'S,5R,5'S,6S,9S,10R,11S)-2\b-(4',5'-Dihydro-2'(3'H)-oxo-3'\a-methyl-5'-furanyl)-6\b-methyl-10\b-ethyl-4,7,16-trioxo-1-aza-8-oxatricyclo(9.4.1.0^5,9^)hexadecane
_chemical_properties_biological  'anticough and insecticide activity'
_symmetry_cell_setting           monoclinic
_symmetry_space_group_name_H-M   'P 21'
_symmetry_Int_Tables_number      4
_space_group_name_Hall           'P 2yb'
loop_
_symmetry_equiv_pos_site_id
_symmetry_equiv_pos_as_xyz
1 x,y,z
2 -x,1/2+y,-z
_cell_length_a                   9.526(4)
_cell_length_b                   12.276(3)
_cell_length_c                   9.596(6)
_cell_angle_alpha                90
_cell_angle_beta                 109.86(4)
_cell_angle_gamma                90
_cell_volume                     1055.43
_exptl_crystal_colour            colorless
_chemical_melting_point          208-209deg.C
_cell_formula_units_Z            2
loop_
_atom_site_label
_atom_site_type_symbol
_atom_site_fract_x
_atom_site_fract_y
_atom_site_fract_z
O1 O 0.8199(3) 0.9192 0.9470(3)
O2 O 0.6682(3) 1.0577(3) 0.6668(2)
O3 O 0.8866(3) 1.1140(4) 0.6567(3)
O4 O 0.4977(3) 0.8209(3) 0.9789(3)
O5 O 0.6139(3) 0.8518(3) 1.3987(3)
O6 O 0.6064(3) 0.7262(4) 1.5614(3)
N1 N 0.5462(3) 0.9723(3) 1.1202(3)
C1 C 0.7797(3) 0.9941(4) 1.0064(3)
C2 C 0.8140(3) 0.9946(4) 1.1726(3)
C3 C 0.6940(3) 0.9290(3) 1.2089(3)
C4 C 0.4758(3) 0.9173(3) 0.9904(3)
C5 C 0.4934(4) 1.0747(4) 1.1643(4)
C6 C 0.3251(4) 1.0768(5) 1.1294(4)
C7 C 0.2296(4) 1.0938(5) 0.9683(5)
C8 C 0.3154(3) 1.0894(4) 0.8605(4)
C9 C 0.3815(3) 0.9769(3) 0.8502(3)
C10 C 0.4734(3) 0.9751(4) 0.7416(3)
C11 C 0.5811(3) 1.0708(4) 0.7654(3)
C12 C 0.7012(3) 1.0933(3) 0.9181(3)
C13 C 0.8199(3) 1.1565(4) 0.8743(3)
C14 C 0.8005(14) 1.1098(4) 0.7231(4)
C15 C 0.7954(5) 1.2791(4) 0.8647(5)
C16 C 0.3666(4) 0.9724(5) 0.5793(4)
C17 C 0.2851(5) 0.8634(6) 0.5358(5)
C18 C 0.7232(4) 0.9245(4) 1.3743(3)
C19 C 0.8737(4) 0.8763(4) 1.4657(3)
C20 C 0.8392(4) 0.8224(4) 1.5922(4)
C21 C 0.6769(4) 0.7920(4) 1.5224(4)
C22 C 0.9387(5) 0.7276(5) 1.6664(6)
H1 H 0.9100 0.9622 1.2208
H2 H 0.8143 1.0682 1.2065
H3 H 0.6969 0.8541 1.1816
H4 H 0.5412 1.0843 1.2691
H5 H 0.5203 1.1336 1.1126
H6 H 0.3033 1.1350 1.1857
H7 H 0.2966 1.0086 1.1609
H8 H 0.1546 1.0380 0.9412
H9 H 0.1826 1.1638 0.9594
H10 H 0.2486 1.1091 0.7639
H11 H 0.3956 1.1411 0.8920
H12 H 0.2894 0.9372 0.8149
H13 H 0.5327 0.9100 0.7630
H14 H 0.5120 1.1303 0.7491
H15 H 0.6552 1.1283 0.9811
H16 H 0.9180 1.1485 0.9463
H17 H 0.8082 1.3073 0.9615
H18 H 0.6961 1.2948 0.7993
H19 H 0.8665 1.3127 0.8273
H20 H 0.4238 0.9856 0.5157
H21 H 0.2937 1.0290 0.5658
H22 H 0.2208 0.8665 0.4342
H23 H 0.2266 0.8494 0.5980
H24 H 0.3568 0.8060 0.5478
H25 H 0.7192 0.9987 1.4046
H26 H 0.9478 0.9321 1.5012
H27 H 0.9070 0.8240 1.4093
H28 H 0.8588 0.8707 1.6754
H29 H 1.0399 0.7524 1.7082
H30 H 0.9326 0.6717 1.5946
H31 H 0.9065 0.6987 1.7436
loop_
_geom_bond_atom_site_label_1
_geom_bond_atom_site_label_2
_geom_bond_site_symmetry_1
_geom_bond_site_symmetry_2
O1 C1 1_555 1_555
O2 C11 1_555 1_555
O3 C14 1_555 1_555
O4 C4 1_555 1_555
O5 C18 1_555 1_555
O6 C21 1_555 1_555
N1 C3 1_555 1_555
C1 C2 1_555 1_555
C2 C3 1_555 1_555
C3 C18 1_555 1_555
C4 N1 1_555 1_555
C5 N1 1_555 1_555
C6 C5 1_555 1_555
C7 C6 1_555 1_555
C8 C7 1_555 1_555
C9 C4 1_555 1_555
C10 C9 1_555 1_555
C11 C10 1_555 1_555
C12 C1 1_555 1_555
C13 C12 1_555 1_555
C14 O2 1_555 1_555
C15 C13 1_555 1_555
C16 C10 1_555 1_555
C17 C16 1_555 1_555
C18 C19 1_555 1_555
C19 C20 1_555 1_555
C20 C21 1_555 1_555
C21 O5 1_555 1_555
C22 C20 1_555 1_555
H1 C2 1_555 1_555
H2 C2 1_555 1_555
H3 C3 1_555 1_555
H4 C5 1_555 1_555
H5 C5 1_555 1_555
H6 C6 1_555 1_555
H7 C6 1_555 1_555
H8 C7 1_555 1_555
H9 C7 1_555 1_555
H10 C8 1_555 1_555
H11 C8 1_555 1_555
H12 C9 1_555 1_555
H13 C10 1_555 1_555
H14 C11 1_555 1_555
H15 C12 1_555 1_555
H16 C13 1_555 1_555
H17 C15 1_555 1_555
H18 C15 1_555 1_555
H19 C15 1_555 1_555
H20 C16 1_555 1_555
H21 C16 1_555 1_555
H22 C17 1_555 1_555
H23 C17 1_555 1_555
H24 C17 1_555 1_555
H25 C18 1_555 1_555
H26 C19 1_555 1_555
H27 C19 1_555 1_555
H28 C20 1_555 1_555
H29 C22 1_555 1_555
H30 C22 1_555 1_555
H31 C22 1_555 1_555
C8 C9 1_555 1_555
C11 C12 1_555 1_555
C13 C14 1_555 1_555

#END
