
#######################################################################
#
#                 Cambridge Crystallographic Data Centre
#                                CCDC 
#
#######################################################################
#
# If this CIF has been generated from an entry in the Cambridge 
# Structural Database, then it will include bibliographic, chemical, 
# crystal, experimental, refinement or atomic coordinate data resulting 
# from the CCDC's data processing and validation procedures.
#
#######################################################################

data_VIMKAF
_chemical_formula_moiety         'C15 H11 Cl1 N4'
_chemical_name_systematic        
(E)-2-(2-(3-chlorobenzylidene)hydrazinyl)quinoxaline
_symmetry_cell_setting           monoclinic
_symmetry_space_group_name_H-M   'C 2/c'
_symmetry_Int_Tables_number      15
_space_group_name_Hall           '-C 2yn'
loop_
_symmetry_equiv_pos_site_id
_symmetry_equiv_pos_as_xyz
1 x,y,z
2 -x,y,1/2-z
3 1/2+x,1/2+y,z
4 1/2-x,1/2+y,1/2-z
5 -x,-y,-z
6 x,-y,1/2+z
7 1/2-x,1/2-y,-z
8 1/2+x,1/2-y,1/2+z
_cell_length_a                   32.14(5)
_cell_length_b                   6.882(9)
_cell_length_c                   12.450(18)
_cell_angle_alpha                90
_cell_angle_beta                 108.43(3)
_cell_angle_gamma                90
_cell_volume                     2612.54
_exptl_crystal_colour            yellow
_exptl_crystal_description       plate
_cell_formula_units_Z            8
loop_
_atom_site_label
_atom_site_type_symbol
_atom_site_fract_x
_atom_site_fract_y
_atom_site_fract_z
Cl1 Cl 0.03042(3) 0.20933(17) 0.66335(7)
N1 N 0.23759(8) 0.4665(4) 0.5607(2)
H1 H 0.2485 0.4595 0.6349
N2 N 0.30505(8) 0.5637(4) 0.5551(2)
N3 N 0.19429(8) 0.4264(4) 0.5085(2)
C1 C 0.26406(9) 0.5177(5) 0.4980(3)
C2 C 0.17201(10) 0.3776(5) 0.5737(2)
H2 H 0.1865 0.3665 0.6528
N4 N 0.27291(8) 0.5654(4) 0.3155(2)
C3 C 0.31623(10) 0.6109(5) 0.3724(2)
C4 C 0.10263(10) 0.2937(5) 0.6053(3)
H3 H 0.1181 0.2838 0.6840
C5 C 0.37652(10) 0.6493(5) 0.5481(3)
H4 H 0.3875 0.6470 0.6285
C6 C 0.33189(10) 0.6077(4) 0.4925(2)
C7 C 0.24789(10) 0.5196(5) 0.3769(2)
H5 H 0.2181 0.4866 0.3398
C8 C 0.34488(10) 0.6585(5) 0.3106(3)
H6 H 0.3343 0.6630 0.2303
C9 C 0.38837(10) 0.6983(5) 0.3679(3)
H7 H 0.4078 0.7296 0.3267
C10 C 0.12497(10) 0.3387(5) 0.5289(3)
C11 C 0.05754(10) 0.2636(5) 0.5656(3)
C12 C 0.40413(10) 0.6931(5) 0.4871(3)
H8 H 0.4342 0.7200 0.5255
C13 C 0.03397(10) 0.2753(6) 0.4519(3)
H9 H 0.0032 0.2532 0.4259
C14 C 0.10152(10) 0.3531(5) 0.4135(3)
H10 H 0.1163 0.3849 0.3608
C15 C 0.05673(11) 0.3209(6) 0.3762(3)
H11 H 0.0411 0.3298 0.2976
loop_
_geom_bond_atom_site_label_1
_geom_bond_atom_site_label_2
_geom_bond_site_symmetry_1
_geom_bond_site_symmetry_2
Cl1 C11 1_555 1_555
N1 H1 1_555 1_555
N2 C1 1_555 1_555
N3 N1 1_555 1_555
C1 N1 1_555 1_555
C2 N3 1_555 1_555
H2 C2 1_555 1_555
N4 C3 1_555 1_555
C3 C6 1_555 1_555
C4 H3 1_555 1_555
C5 H4 1_555 1_555
C6 N2 1_555 1_555
C7 C1 1_555 1_555
H5 C7 1_555 1_555
C8 C3 1_555 1_555
H6 C8 1_555 1_555
C9 C8 1_555 1_555
H7 C9 1_555 1_555
C10 C2 1_555 1_555
C11 C4 1_555 1_555
C12 C5 1_555 1_555
H8 C12 1_555 1_555
C13 C11 1_555 1_555
H9 C13 1_555 1_555
C14 C10 1_555 1_555
H10 C14 1_555 1_555
C15 C13 1_555 1_555
H11 C15 1_555 1_555
N4 C7 1_555 1_555
C4 C10 1_555 1_555
C5 C6 1_555 1_555
C9 C12 1_555 1_555
C14 C15 1_555 1_555

#END
