
#######################################################################
#
#                 Cambridge Crystallographic Data Centre
#                                CCDC 
#
#######################################################################
#
# If this CIF has been generated from an entry in the Cambridge 
# Structural Database, then it will include bibliographic, chemical, 
# crystal, experimental, refinement or atomic coordinate data resulting 
# from the CCDC's data processing and validation procedures.
#
#######################################################################

data_VIMKUZ
_chemical_formula_moiety         'C15 H11 Br1 N4'
_chemical_name_systematic        
(E)-2-(2-(3-bromobenzylidene)hydrazinyl)quinoxaline
_symmetry_cell_setting           monoclinic
_symmetry_space_group_name_H-M   'C 2/c'
_symmetry_Int_Tables_number      15
_space_group_name_Hall           '-C 2yn'
loop_
_symmetry_equiv_pos_site_id
_symmetry_equiv_pos_as_xyz
1 x,y,z
2 -x,y,1/2-z
3 1/2+x,1/2+y,z
4 1/2-x,1/2+y,1/2-z
5 -x,-y,-z
6 x,-y,1/2+z
7 1/2-x,1/2-y,-z
8 1/2+x,1/2-y,1/2+z
_cell_length_a                   32.781(17)
_cell_length_b                   6.875(3)
_cell_length_c                   12.466(6)
_cell_angle_alpha                90
_cell_angle_beta                 109.096(11)
_cell_angle_gamma                90
_cell_volume                     2654.86
_exptl_crystal_colour            orange
_exptl_crystal_description       plate
_cell_formula_units_Z            8
loop_
_atom_site_label
_atom_site_type_symbol
_atom_site_fract_x
_atom_site_fract_y
_atom_site_fract_z
Br1 Br 0.030885(10) 0.19947(7) 0.66065(3)
N1 N 0.23742(7) 0.4670(4) 0.5593(2)
H1 H 0.2482 0.4603 0.6337
N2 N 0.19484(7) 0.4269(4) 0.5056(2)
N3 N 0.30366(7) 0.5626(4) 0.5551(2)
N4 N 0.27202(8) 0.5647(4) 0.3152(2)
C1 C 0.17290(9) 0.3780(4) 0.5703(2)
H2 H 0.1871 0.3665 0.6498
C2 C 0.26348(9) 0.5178(4) 0.4969(2)
C3 C 0.24732(9) 0.5190(4) 0.3753(2)
H3 H 0.2180 0.4858 0.3375
C4 C 0.31455(9) 0.6103(4) 0.3732(2)
C5 C 0.34291(9) 0.6578(4) 0.3126(2)
H4 H 0.3325 0.6627 0.2320
C6 C 0.38554(9) 0.6969(4) 0.3706(2)
H5 H 0.4046 0.7277 0.3298
C7 C 0.40125(9) 0.6916(4) 0.4904(2)
H6 H 0.4308 0.7179 0.5296
C8 C 0.37409(9) 0.6487(4) 0.5507(2)
H7 H 0.3849 0.6466 0.6313
C9 C 0.32999(9) 0.6076(4) 0.4933(2)
C10 C 0.12655(9) 0.3398(4) 0.5235(2)
C11 C 0.10457(9) 0.2937(4) 0.5986(2)
H8 H 0.1198 0.2824 0.6776
C12 C 0.06027(9) 0.2645(5) 0.5570(3)
C13 C 0.03700(10) 0.2796(5) 0.4427(3)
H9 H 0.0067 0.2596 0.4157
C14 C 0.05945(10) 0.3251(5) 0.3680(3)
H10 H 0.0442 0.3354 0.2890
C15 C 0.10373(10) 0.3557(5) 0.4077(2)
H11 H 0.1185 0.3874 0.3561
loop_
_geom_bond_atom_site_label_1
_geom_bond_atom_site_label_2
_geom_bond_site_symmetry_1
_geom_bond_site_symmetry_2
Br1 C12 1_555 1_555
N1 H1 1_555 1_555
N2 N1 1_555 1_555
N3 C2 1_555 1_555
N4 C3 1_555 1_555
C1 N2 1_555 1_555
H2 C1 1_555 1_555
C2 N1 1_555 1_555
C3 C2 1_555 1_555
H3 C3 1_555 1_555
C4 N4 1_555 1_555
C5 C4 1_555 1_555
H4 C5 1_555 1_555
C6 C5 1_555 1_555
H5 C6 1_555 1_555
C7 C6 1_555 1_555
H6 C7 1_555 1_555
C8 C7 1_555 1_555
H7 C8 1_555 1_555
C9 N3 1_555 1_555
C10 C1 1_555 1_555
C11 C10 1_555 1_555
H8 C11 1_555 1_555
C12 C11 1_555 1_555
C13 C12 1_555 1_555
H9 C13 1_555 1_555
C14 C13 1_555 1_555
H10 C14 1_555 1_555
C15 C10 1_555 1_555
H11 C15 1_555 1_555
C4 C9 1_555 1_555
C8 C9 1_555 1_555
C14 C15 1_555 1_555

#END
