
#######################################################################
#
#                 Cambridge Crystallographic Data Centre
#                                CCDC 
#
#######################################################################
#
# If this CIF has been generated from an entry in the Cambridge 
# Structural Database, then it will include bibliographic, chemical, 
# crystal, experimental, refinement or atomic coordinate data resulting 
# from the CCDC's data processing and validation procedures.
#
#######################################################################

data_VIMNOX
_chemical_formula_moiety         'C14 H17 N1 S1'
_chemical_name_systematic        1-(1-benzothiophen-2-yl)-4-methylpiperidine
_symmetry_cell_setting           triclinic
_symmetry_space_group_name_H-M   'P -1'
_symmetry_Int_Tables_number      2
_space_group_name_Hall           '-P 1'
loop_
_symmetry_equiv_pos_site_id
_symmetry_equiv_pos_as_xyz
1 x,y,z
2 -x,-y,-z
_cell_length_a                   6.1495(5)
_cell_length_b                   14.1817(12)
_cell_length_c                   14.5786(9)
_cell_angle_alpha                74.693(6)
_cell_angle_beta                 88.569(7)
_cell_angle_gamma                85.554(7)
_cell_volume                     1222.6
_exptl_crystal_colour            colorless
_exptl_crystal_description       prism
_cell_formula_units_Z            4
loop_
_atom_site_label
_atom_site_type_symbol
_atom_site_fract_x
_atom_site_fract_y
_atom_site_fract_z
S1 S 0.37550(12) 0.16424(6) 0.41120(6)
N1 N 0.1153(4) 0.04290(19) 0.3575(2)
C1 C 0.1319(4) 0.1368(2) 0.3653(2)
C2 C 0.0593(4) 0.3016(2) 0.36637(18)
C3 C 0.3754(5) 0.3528(2) 0.4349(2)
H1 H 0.5151 0.3390 0.4602
C4 C -0.0318(6) 0.21791(18) 0.34173(18)
H2 H -0.1685 0.2176 0.3160
C5 C 0.2706(5) 0.2823(2) 0.4043(2)
C6 C -0.0473(5) 0.3954(2) 0.3575(2)
H3 H -0.1861 0.4105 0.3312
C7 C 0.2647(5) 0.4441(2) 0.4263(2)
H4 H 0.3309 0.4919 0.4464
C8 C 0.0560(5) 0.4645(2) 0.3880(2)
H5 H -0.0153 0.5259 0.3829
C9 C 0.0367(6) -0.2581(2) 0.3546(2)
H6 H -0.0991 -0.2788 0.3840
H7 H 0.1550 -0.2996 0.3888
H8 H 0.0388 -0.2623 0.2899
C10 C -0.1104(6) -0.0817(3) 0.3250(4)
H9 H -0.2389 -0.0978 0.3024
C11 C -0.0885(5) 0.0200(2) 0.3277(3)
H10 H -0.2035 0.0677 0.3105
C12 C 0.2895(6) -0.0280(2) 0.3877(3)
H11 H 0.4176 -0.0114 0.4101
C13 C 0.2649(5) -0.1290(2) 0.3834(3)
H12 H 0.3824 -0.1756 0.3983
C14 C 0.0604(6) -0.1560(3) 0.3562(4)
S2 S 0.87371(12) 0.33274(6) 0.08691(6)
N2 N 0.6275(4) 0.4683(2) 0.15416(19)
C15 C 0.6360(4) 0.3762(2) 0.1378(2)
C16 C 0.5528(5) 0.2189(2) 0.1326(2)
C17 C 0.8608(5) 0.1458(3) 0.0584(2)
H13 H 0.9994 0.1497 0.0313
C18 C 0.4746(5) 0.3074(2) 0.15963(19)
H14 H 0.3395 0.3173 0.1870
C19 C 0.7641(5) 0.2229(2) 0.0919(2)
C20 C 0.4418(5) 0.1340(3) 0.1403(2)
H15 H 0.3037 0.1288 0.1679
C21 C 0.5385(6) 0.0588(3) 0.1067(2)
H16 H 0.4633 0.0033 0.1111
C22 C 0.7817(5) 0.5363(3) 0.1008(2)
H17 H 0.7464 0.5527 0.0337
H18 H 0.9277 0.5042 0.1087
C23 C 0.4086(5) 0.5103(3) 0.1678(2)
H19 H 0.3344 0.4633 0.2167
H20 H 0.3274 0.5215 0.1092
C24 C 0.5524(6) 0.6786(3) 0.1346(3)
H21 H 0.4956 0.6943 0.0697
C25 C 0.7468(6) 0.0637(3) 0.0664(2)
H22 H 0.8092 0.0116 0.0448
C26 C 0.5496(6) 0.7734(3) 0.1618(3)
H23 H 0.4043 0.8044 0.1555
H24 H 0.6466 0.8158 0.1209
H25 H 0.5961 0.7609 0.2266
C27 C 0.4076(5) 0.6055(3) 0.1958(3)
H26 H 0.2593 0.6350 0.1923
H27 H 0.4543 0.5914 0.2614
C28 C 0.7788(5) 0.6294(3) 0.1323(3)
H28 H 0.8695 0.6748 0.0894
H29 H 0.8417 0.6145 0.1953
loop_
_geom_bond_atom_site_label_1
_geom_bond_atom_site_label_2
_geom_bond_site_symmetry_1
_geom_bond_site_symmetry_2
S1 C1 1_555 1_555
N1 C1 1_555 1_555
C1 C4 1_555 1_555
C2 C4 1_555 1_555
C3 H1 1_555 1_555
C4 H2 1_555 1_555
C5 S1 1_555 1_555
C6 C2 1_555 1_555
H3 C6 1_555 1_555
C7 C3 1_555 1_555
H4 C7 1_555 1_555
C8 C6 1_555 1_555
H5 C8 1_555 1_555
C9 H6 1_555 1_555
H7 C9 1_555 1_555
H8 C9 1_555 1_555
C10 H9 1_555 1_555
C11 N1 1_555 1_555
H10 C11 1_555 1_555
C12 N1 1_555 1_555
H11 C12 1_555 1_555
C13 C12 1_555 1_555
H12 C13 1_555 1_555
C14 C9 1_555 1_555
S2 C15 1_555 1_555
N2 C15 1_555 1_555
C15 C18 1_555 1_555
C16 C18 1_555 1_555
C17 H13 1_555 1_555
C18 H14 1_555 1_555
C19 S2 1_555 1_555
C20 C16 1_555 1_555
H15 C20 1_555 1_555
C21 C20 1_555 1_555
H16 C21 1_555 1_555
C22 N2 1_555 1_555
H17 C22 1_555 1_555
H18 C22 1_555 1_555
C23 N2 1_555 1_555
H19 C23 1_555 1_555
H20 C23 1_555 1_555
C24 H21 1_555 1_555
C25 C17 1_555 1_555
H22 C25 1_555 1_555
C26 C24 1_555 1_555
H23 C26 1_555 1_555
H24 C26 1_555 1_555
H25 C26 1_555 1_555
C27 C23 1_555 1_555
H26 C27 1_555 1_555
H27 C27 1_555 1_555
C28 C22 1_555 1_555
H28 C28 1_555 1_555
H29 C28 1_555 1_555
C2 C5 1_555 1_555
C3 C5 1_555 1_555
C7 C8 1_555 1_555
C10 C11 1_555 1_555
C10 C14 1_555 1_555
C13 C14 1_555 1_555
C16 C19 1_555 1_555
C17 C19 1_555 1_555
C21 C25 1_555 1_555
C24 C27 1_555 1_555
C24 C28 1_555 1_555

#END
