
#######################################################################
#
#                 Cambridge Crystallographic Data Centre
#                                CCDC 
#
#######################################################################
#
# If this CIF has been generated from an entry in the Cambridge 
# Structural Database, then it will include bibliographic, chemical, 
# crystal, experimental, refinement or atomic coordinate data resulting 
# from the CCDC's data processing and validation procedures.
#
#######################################################################

data_VIMWOF
_chemical_formula_moiety         'C26 H25 Cl2 N3 O1'
_chemical_name_systematic        
(1-Benzyl-5-butyl-1H-1,2,3-triazol-4-yl)(bis(4-chlorophenyl))methanol
_symmetry_cell_setting           triclinic
_symmetry_space_group_name_H-M   'P -1'
_symmetry_Int_Tables_number      2
_space_group_name_Hall           '-P 1'
loop_
_symmetry_equiv_pos_site_id
_symmetry_equiv_pos_as_xyz
1 x,y,z
2 -x,-y,-z
_cell_length_a                   9.8308(4)
_cell_length_b                   12.5782(6)
_cell_length_c                   19.6652(8)
_cell_angle_alpha                80.2772(10)
_cell_angle_beta                 80.3125(9)
_cell_angle_gamma                89.6716(11)
_cell_volume                     2361.93
_exptl_crystal_colour            colorless
_exptl_crystal_description       needle
_cell_formula_units_Z            4
loop_
_atom_site_label
_atom_site_type_symbol
_atom_site_fract_x
_atom_site_fract_y
_atom_site_fract_z
Cl1 Cl 0.46138(8) 0.05903(6) 0.59454(4)
Cl2 Cl 0.61302(8) 0.13083(7) 0.06040(4)
O1 O 0.24854(19) 0.33560(16) 0.31876(10)
N1 N 0.5059(3) 0.60640(19) 0.31509(12)
N2 N 0.6246(3) 0.56307(19) 0.28796(13)
N3 N 0.5946(3) 0.46154(19) 0.28586(12)
C1 C 0.4566(3) 0.4409(3) 0.31089(14)
C2 C 0.3978(3) 0.5339(3) 0.33004(14)
C3 C 0.3944(3) 0.3287(3) 0.31655(14)
C4 C 0.4123(3) 0.2598(3) 0.38653(14)
C5 C 0.3044(3) 0.1944(3) 0.42653(15)
C6 C 0.3183(3) 0.1324(3) 0.49066(16)
C7 C 0.4419(3) 0.1357(3) 0.51426(14)
C8 C 0.5514(3) 0.1996(3) 0.47541(15)
C9 C 0.5363(3) 0.2612(3) 0.41179(15)
C10 C 0.4576(3) 0.2778(3) 0.25327(15)
C11 C 0.4991(3) 0.1710(3) 0.25942(16)
C12 C 0.5471(3) 0.1251(3) 0.20070(16)
C13 C 0.5551(3) 0.1877(3) 0.13521(15)
C14 C 0.5145(3) 0.2933(3) 0.12699(15)
C15 C 0.4665(3) 0.3383(3) 0.18605(15)
C16 C 0.2557(3) 0.5612(3) 0.36202(15)
C17 C 0.2065(3) 0.4934(3) 0.43427(15)
C18 C 0.3024(4) 0.4977(3) 0.48685(16)
C19 C 0.2517(5) 0.4231(4) 0.55574(18)
C20 C 0.5091(4) 0.7211(3) 0.32138(16)
C21 C 0.4541(3) 0.7911(3) 0.26202(16)
C22 C 0.5179(4) 0.7916(3) 0.19306(17)
C23 C 0.4677(4) 0.8547(3) 0.13846(18)
C24 C 0.3545(4) 0.9186(3) 0.15210(19)
C25 C 0.2932(4) 0.9205(3) 0.2196(2)
C26 C 0.3421(4) 0.8564(3) 0.27487(18)
H1 H 0.2323 0.3788 0.2837
H2 H 0.2195 0.1918 0.4098
H3 H 0.2435 0.0885 0.5177
H4 H 0.6363 0.2013 0.4922
H5 H 0.6115 0.3050 0.3851
H6 H 0.4945 0.1288 0.3046
H7 H 0.5739 0.0519 0.2055
H8 H 0.5193 0.3349 0.0815
H9 H 0.4392 0.4114 0.1807
H10 H 0.1906 0.5498 0.3305
H11 H 0.2545 0.6385 0.3663
H12 H 0.1147 0.5185 0.4535
H13 H 0.1952 0.4174 0.4286
H14 H 0.3089 0.5726 0.4956
H15 H 0.3960 0.4765 0.4671
H16 H 0.3114 0.4322 0.5896
H17 H 0.2540 0.3481 0.5480
H18 H 0.1568 0.4409 0.5740
H19 H 0.6053 0.7440 0.3214
H20 H 0.4530 0.7310 0.3665
H21 H 0.5961 0.7484 0.1835
H22 H 0.5109 0.8542 0.0915
H23 H 0.3194 0.9611 0.1145
H24 H 0.2169 0.9657 0.2289
H25 H 0.2984 0.8574 0.3217
Cl3 Cl 0.92039(9) 0.14867(8) 0.51738(4)
Cl4 Cl 1.19786(8) 0.07988(7) -0.00223(4)
O2 O 0.78994(19) 0.35714(17) 0.20125(10)
N4 N 1.0794(3) 0.61730(19) 0.16052(12)
N5 N 1.1776(3) 0.56438(19) 0.19260(12)
N6 N 1.1317(3) 0.46372(18) 0.21335(12)
C27 C 1.0049(3) 0.4529(3) 0.19529(14)
C28 C 0.9696(3) 0.5515(3) 0.16123(15)
C29 C 0.9289(3) 0.3438(3) 0.21241(15)
C30 C 0.9311(3) 0.2928(3) 0.28906(15)
C31 C 0.9141(3) 0.3577(3) 0.34057(15)
C32 C 0.9110(3) 0.3135(3) 0.41071(16)
C33 C 0.9227(3) 0.2033(3) 0.42935(16)
C34 C 0.9381(4) 0.1370(3) 0.37942(17)
C35 C 0.9414(4) 0.1823(3) 0.30975(16)
C36 C 0.9955(3) 0.2733(3) 0.16020(15)
C37 C 1.1328(3) 0.2430(3) 0.15742(16)
C38 C 1.1952(3) 0.1832(3) 0.10822(16)
C39 C 1.1192(3) 0.1534(3) 0.06083(15)
C40 C 0.9830(3) 0.1810(3) 0.06273(15)
C41 C 0.9219(3) 0.2413(3) 0.11238(15)
C42 C 0.8472(3) 0.5893(3) 0.12775(15)
C43 C 0.8465(3) 0.5459(3) 0.05923(15)
C44 C 0.7093(3) 0.5594(3) 0.03361(15)
C45 C 0.7080(4) 0.5039(3) -0.02959(16)
C46 C 1.0954(4) 0.7333(3) 0.13762(16)
C47 C 1.0069(3) 0.7957(3) 0.18726(16)
C48 C 0.9768(4) 0.7571(3) 0.25895(17)
C49 C 0.8998(4) 0.8183(3) 0.30324(19)
C50 C 0.8522(4) 0.9175(3) 0.2769(2)
C51 C 0.8830(4) 0.9563(3) 0.2058(2)
C52 C 0.9589(4) 0.8956(3) 0.16157(18)
H26 H 0.7450 0.3861 0.2333
H27 H 0.9046 0.4332 0.3276
H28 H 0.9008 0.3586 0.4453
H29 H 0.9463 0.0614 0.3926
H30 H 0.9509 0.1367 0.2754
H31 H 1.1845 0.2638 0.1899
H32 H 1.2887 0.1629 0.1070
H33 H 0.9314 0.1592 0.0305
H34 H 0.8281 0.2609 0.1136
H35 H 0.8488 0.6692 0.1179
H36 H 0.7613 0.5651 0.1608
H37 H 0.9197 0.5841 0.0226
H38 H 0.8686 0.4683 0.0666
H39 H 0.6921 0.6372 0.0206
H40 H 0.6343 0.5282 0.0718
H41 H 0.7769 0.5388 -0.0688
H42 H 0.6163 0.5096 -0.0430
H43 H 0.7299 0.4277 -0.0175
H44 H 1.0700 0.7523 0.0905
H45 H 1.1935 0.7547 0.1340
H46 H 1.0092 0.6888 0.2775
H47 H 0.8797 0.7916 0.3521
H48 H 0.7987 0.9589 0.3073
H49 H 0.8517 1.0251 0.1874
H50 H 0.9786 0.9226 0.1128
loop_
_geom_bond_atom_site_label_1
_geom_bond_atom_site_label_2
_geom_bond_site_symmetry_1
_geom_bond_site_symmetry_2
Cl1 C7 1_555 1_555
Cl2 C13 1_555 1_555
O1 C3 1_555 1_555
N1 N2 1_555 1_555
N2 N3 1_555 1_555
N3 C1 1_555 1_555
C1 C2 1_555 1_555
C2 N1 1_555 1_555
C3 C1 1_555 1_555
C4 C3 1_555 1_555
C5 C4 1_555 1_555
C6 C5 1_555 1_555
C7 C6 1_555 1_555
C8 C7 1_555 1_555
C9 C4 1_555 1_555
C10 C3 1_555 1_555
C11 C10 1_555 1_555
C12 C11 1_555 1_555
C13 C12 1_555 1_555
C14 C13 1_555 1_555
C15 C10 1_555 1_555
C16 C2 1_555 1_555
C17 C16 1_555 1_555
C18 C17 1_555 1_555
C19 C18 1_555 1_555
C20 N1 1_555 1_555
C21 C20 1_555 1_555
C22 C21 1_555 1_555
C23 C22 1_555 1_555
C24 C23 1_555 1_555
C25 C24 1_555 1_555
C26 C21 1_555 1_555
H1 O1 1_555 1_555
H2 C5 1_555 1_555
H3 C6 1_555 1_555
H4 C8 1_555 1_555
H5 C9 1_555 1_555
H6 C11 1_555 1_555
H7 C12 1_555 1_555
H8 C14 1_555 1_555
H9 C15 1_555 1_555
H10 C16 1_555 1_555
H11 C16 1_555 1_555
H12 C17 1_555 1_555
H13 C17 1_555 1_555
H14 C18 1_555 1_555
H15 C18 1_555 1_555
H16 C19 1_555 1_555
H17 C19 1_555 1_555
H18 C19 1_555 1_555
H19 C20 1_555 1_555
H20 C20 1_555 1_555
H21 C22 1_555 1_555
H22 C23 1_555 1_555
H23 C24 1_555 1_555
H24 C25 1_555 1_555
H25 C26 1_555 1_555
Cl3 C33 1_555 1_555
Cl4 C39 1_555 1_555
O2 C29 1_555 1_555
N4 N5 1_555 1_555
N5 N6 1_555 1_555
N6 C27 1_555 1_555
C27 C28 1_555 1_555
C28 N4 1_555 1_555
C29 C27 1_555 1_555
C30 C29 1_555 1_555
C31 C30 1_555 1_555
C32 C31 1_555 1_555
C33 C32 1_555 1_555
C34 C33 1_555 1_555
C35 C30 1_555 1_555
C36 C29 1_555 1_555
C37 C36 1_555 1_555
C38 C37 1_555 1_555
C39 C38 1_555 1_555
C40 C39 1_555 1_555
C41 C36 1_555 1_555
C42 C28 1_555 1_555
C43 C42 1_555 1_555
C44 C43 1_555 1_555
C45 C44 1_555 1_555
C46 N4 1_555 1_555
C47 C46 1_555 1_555
C48 C47 1_555 1_555
C49 C48 1_555 1_555
C50 C49 1_555 1_555
C51 C50 1_555 1_555
C52 C47 1_555 1_555
H26 O2 1_555 1_555
H27 C31 1_555 1_555
H28 C32 1_555 1_555
H29 C34 1_555 1_555
H30 C35 1_555 1_555
H31 C37 1_555 1_555
H32 C38 1_555 1_555
H33 C40 1_555 1_555
H34 C41 1_555 1_555
H35 C42 1_555 1_555
H36 C42 1_555 1_555
H37 C43 1_555 1_555
H38 C43 1_555 1_555
H39 C44 1_555 1_555
H40 C44 1_555 1_555
H41 C45 1_555 1_555
H42 C45 1_555 1_555
H43 C45 1_555 1_555
H44 C46 1_555 1_555
H45 C46 1_555 1_555
H46 C48 1_555 1_555
H47 C49 1_555 1_555
H48 C50 1_555 1_555
H49 C51 1_555 1_555
H50 C52 1_555 1_555
C8 C9 1_555 1_555
C14 C15 1_555 1_555
C25 C26 1_555 1_555
C34 C35 1_555 1_555
C40 C41 1_555 1_555
C51 C52 1_555 1_555

#END
