
#######################################################################
#
#                 Cambridge Crystallographic Data Centre
#                                CCDC 
#
#######################################################################
#
# If this CIF has been generated from an entry in the Cambridge 
# Structural Database, then it will include bibliographic, chemical, 
# crystal, experimental, refinement or atomic coordinate data resulting 
# from the CCDC's data processing and validation procedures.
#
#######################################################################

data_VIMXEW
_chemical_formula_moiety         'C25 H27 N3 O1 Si1'
_chemical_name_systematic        
(1-Benzyl-5-(trimethylsilyl)-1H-1,2,3-triazol-4-yl)(diphenyl)methanol
_symmetry_cell_setting           monoclinic
_symmetry_space_group_name_H-M   'P 21/n'
_symmetry_Int_Tables_number      14
_space_group_name_Hall           '-P 2yn'
loop_
_symmetry_equiv_pos_site_id
_symmetry_equiv_pos_as_xyz
1 x,y,z
2 1/2-x,1/2+y,1/2-z
3 -x,-y,-z
4 1/2+x,1/2-y,1/2+z
_cell_length_a                   13.5758(3)
_cell_length_b                   12.0085(3)
_cell_length_c                   14.4802(3)
_cell_angle_alpha                90
_cell_angle_beta                 107.3027(7)
_cell_angle_gamma                90
_cell_volume                     2253.81
_exptl_crystal_colour            colorless
_exptl_crystal_description       block
_cell_formula_units_Z            4
loop_
_atom_site_label
_atom_site_type_symbol
_atom_site_fract_x
_atom_site_fract_y
_atom_site_fract_z
Si1 Si 0.32383(3) 0.11674(3) 0.54359(2)
O1 O 0.18613(7) 0.01561(7) 0.65881(6)
N1 N 0.30077(8) 0.25148(9) 0.79869(8)
N2 N 0.38432(8) 0.30207(9) 0.79234(8)
N3 N 0.40336(8) 0.26506(8) 0.71153(7)
C1 C 0.17106(9) 0.11252(9) 0.71054(8)
C2 C 0.16457(9) 0.07783(10) 0.81078(9)
C3 C 0.08950(11) 0.11751(11) 0.84989(10)
C4 C 0.08695(12) 0.08110(13) 0.94068(10)
C5 C 0.15849(12) 0.00486(12) 0.99248(10)
C6 C 0.23413(11) -0.03452(11) 0.95418(9)
C7 C 0.23732(10) 0.00214(10) 0.86434(9)
C8 C 0.07450(9) 0.17545(10) 0.65205(8)
C9 C 0.06610(10) 0.29058(11) 0.65972(10)
C10 C -0.02086(11) 0.34643(12) 0.60239(11)
C11 C -0.09991(11) 0.28842(13) 0.53848(10)
C12 C -0.09370(10) 0.17356(13) 0.53288(9)
C13 C -0.00722(10) 0.11751(11) 0.58933(9)
C14 C 0.26712(9) 0.18204(9) 0.72186(8)
C15 C 0.33150(9) 0.18853(10) 0.66281(9)
C16 C 0.49655(9) 0.30669(11) 0.69304(10)
C17 C 0.58352(9) 0.22261(11) 0.71189(9)
C18 C 0.67094(11) 0.25063(13) 0.68471(10)
C19 C 0.75352(11) 0.17793(15) 0.70162(11)
C20 C 0.74928(12) 0.07510(14) 0.74368(11)
C21 C 0.66303(12) 0.04647(13) 0.77060(11)
C22 C 0.58077(11) 0.12062(12) 0.75567(10)
C23 C 0.40618(11) 0.18959(13) 0.47928(10)
C24 C 0.18945(10) 0.12905(11) 0.46104(9)
C25 C 0.36939(11) -0.02982(12) 0.56681(11)
H1 H 0.1541 -0.0384 0.6731
H2 H 0.0397 0.1696 0.8147
H3 H 0.0356 0.1089 0.9671
H4 H 0.1559 -0.0204 1.0539
H5 H 0.2838 -0.0866 0.9895
H6 H 0.2898 -0.0246 0.8389
H7 H 0.1197 0.3312 0.7041
H8 H -0.0256 0.4250 0.6075
H9 H -0.1582 0.3270 0.4986
H10 H -0.1488 0.1330 0.4903
H11 H -0.0037 0.0387 0.5851
H12 H 0.5212 0.3728 0.7342
H13 H 0.4790 0.3311 0.6248
H14 H 0.6737 0.3202 0.6544
H15 H 0.8133 0.1986 0.6843
H16 H 0.8053 0.0245 0.7540
H17 H 0.6598 -0.0240 0.7994
H18 H 0.5224 0.1011 0.7757
H19 H 0.3853 0.2679 0.4693
H20 H 0.3976 0.1538 0.4165
H21 H 0.4787 0.1852 0.5184
H22 H 0.1410 0.0984 0.4929
H23 H 0.1835 0.0876 0.4013
H24 H 0.1732 0.2077 0.4455
H25 H 0.3595 -0.0683 0.5051
H26 H 0.3298 -0.0679 0.6041
H27 H 0.4428 -0.0303 0.6035
loop_
_geom_bond_atom_site_label_1
_geom_bond_atom_site_label_2
_geom_bond_site_symmetry_1
_geom_bond_site_symmetry_2
Si1 C15 1_555 1_555
O1 C1 1_555 1_555
N1 N2 1_555 1_555
N2 N3 1_555 1_555
N3 C15 1_555 1_555
C1 C2 1_555 1_555
C2 C3 1_555 1_555
C3 C4 1_555 1_555
C4 C5 1_555 1_555
C5 C6 1_555 1_555
C6 C7 1_555 1_555
C7 C2 1_555 1_555
C8 C1 1_555 1_555
C9 C8 1_555 1_555
C10 C9 1_555 1_555
C11 C10 1_555 1_555
C12 C11 1_555 1_555
C13 C8 1_555 1_555
C14 N1 1_555 1_555
C15 C14 1_555 1_555
C16 N3 1_555 1_555
C17 C16 1_555 1_555
C18 C17 1_555 1_555
C19 C18 1_555 1_555
C20 C19 1_555 1_555
C21 C20 1_555 1_555
C22 C17 1_555 1_555
C23 Si1 1_555 1_555
C24 Si1 1_555 1_555
C25 Si1 1_555 1_555
H1 O1 1_555 1_555
H2 C3 1_555 1_555
H3 C4 1_555 1_555
H4 C5 1_555 1_555
H5 C6 1_555 1_555
H6 C7 1_555 1_555
H7 C9 1_555 1_555
H8 C10 1_555 1_555
H9 C11 1_555 1_555
H10 C12 1_555 1_555
H11 C13 1_555 1_555
H12 C16 1_555 1_555
H13 C16 1_555 1_555
H14 C18 1_555 1_555
H15 C19 1_555 1_555
H16 C20 1_555 1_555
H17 C21 1_555 1_555
H18 C22 1_555 1_555
H19 C23 1_555 1_555
H20 C23 1_555 1_555
H21 C23 1_555 1_555
H22 C24 1_555 1_555
H23 C24 1_555 1_555
H24 C24 1_555 1_555
H25 C25 1_555 1_555
H26 C25 1_555 1_555
H27 C25 1_555 1_555
C1 C14 1_555 1_555
C12 C13 1_555 1_555
C21 C22 1_555 1_555

#END
