
#######################################################################
#
#                 Cambridge Crystallographic Data Centre
#                                CCDC 
#
#######################################################################
#
# If this CIF has been generated from an entry in the Cambridge 
# Structural Database, then it will include bibliographic, chemical, 
# crystal, experimental, refinement or atomic coordinate data resulting 
# from the CCDC's data processing and validation procedures.
#
#######################################################################

data_VIMXIA
_chemical_formula_moiety         'C29 H35 N3 O1'
_chemical_name_systematic        
(1-(Adamantan-1-yl)-5-butyl-1H-1,2,3-triazol-4-yl)(diphenyl)methanol
_symmetry_cell_setting           orthorhombic
_symmetry_space_group_name_H-M   'P b c a'
_symmetry_Int_Tables_number      61
_space_group_name_Hall           '-P 2ac 2ab'
loop_
_symmetry_equiv_pos_site_id
_symmetry_equiv_pos_as_xyz
1 x,y,z
2 1/2-x,-y,1/2+z
3 1/2+x,1/2-y,-z
4 -x,1/2+y,1/2-z
5 -x,-y,-z
6 1/2+x,y,1/2-z
7 1/2-x,1/2+y,z
8 x,1/2-y,1/2+z
_cell_length_a                   9.5863(2)
_cell_length_b                   23.3245(6)
_cell_length_c                   21.1894(5)
_cell_angle_alpha                90
_cell_angle_beta                 90
_cell_angle_gamma                90
_cell_volume                     4737.86
_exptl_crystal_colour            colorless
_exptl_crystal_description       needle
_cell_formula_units_Z            8
loop_
_atom_site_label
_atom_site_type_symbol
_atom_site_fract_x
_atom_site_fract_y
_atom_site_fract_z
O1 O 0.27290(11) 0.33716(5) 0.06592(5)
N1 N 0.10597(13) 0.16736(5) 0.06952(6)
N2 N 0.00930(13) 0.17774(6) 0.02403(6)
N3 N 0.01688(14) 0.23215(6) 0.00916(6)
C1 C 0.11512(16) 0.10807(7) 0.09602(7)
C2 C 0.25760(17) 0.08115(7) 0.08122(8)
C3 C 0.26405(18) 0.02048(7) 0.10871(8)
C4 C 0.24150(19) 0.02304(7) 0.18043(8)
C5 C 0.09760(18) 0.04848(7) 0.19433(8)
C6 C 0.09063(17) 0.10985(7) 0.16786(7)
C7 C 0.00115(17) 0.07109(7) 0.06581(7)
C8 C 0.15046(18) -0.01643(7) 0.07828(8)
C9 C -0.01541(18) 0.01134(7) 0.16372(8)
C10 C 0.00768(17) 0.01006(7) 0.09218(8)
C11 C 0.14294(15) 0.34077(7) -0.03082(7)
C12 C 0.19077(18) 0.30390(8) -0.07790(8)
C13 C 0.20513(19) 0.32277(8) -0.13964(8)
C14 C 0.17346(19) 0.37863(9) -0.15497(8)
C15 C 0.12677(18) 0.41602(8) -0.10895(9)
C16 C 0.11188(16) 0.39707(8) -0.04708(8)
C17 C 0.14201(15) 0.32157(7) 0.03840(7)
C18 C 0.02760(17) 0.35192(7) 0.07671(7)
C19 C 0.05896(18) 0.38587(7) 0.12865(7)
C20 C -0.04705(19) 0.41178(7) 0.16331(8)
C21 C -0.18516(19) 0.40400(8) 0.14661(9)
C22 C -0.21751(19) 0.37053(7) 0.09459(8)
C23 C -0.11229(17) 0.34461(7) 0.06001(8)
C24 C 0.11862(15) 0.25730(7) 0.04420(7)
C25 C 0.17857(16) 0.21664(6) 0.08308(7)
C26 C 0.29731(16) 0.22225(7) 0.12886(7)
C27 C 0.26074(17) 0.25587(7) 0.18861(7)
C28 C 0.38899(18) 0.27058(8) 0.22843(8)
C29 C 0.48642(19) 0.31343(8) 0.19686(9)
H1 H 0.3368 0.3327 0.0392
H2 H 0.2716 0.0796 0.0350
H3 H 0.3328 0.1049 0.0997
H4 H 0.3575 0.0034 0.0996
H5 H 0.2480 -0.0160 0.1985
H6 H 0.3147 0.0471 0.2001
H7 H 0.0825 0.0496 0.2410
H8 H 0.1627 0.1340 0.1882
H9 H -0.0019 0.1268 0.1770
H10 H -0.0915 0.0880 0.0747
H11 H 0.0142 0.0702 0.0195
H12 H 0.1655 -0.0184 0.0321
H13 H 0.1545 -0.0559 0.0955
H14 H -0.1087 0.0273 0.1732
H15 H -0.0110 -0.0281 0.1809
H16 H -0.0667 -0.0138 0.0720
H17 H 0.2138 0.2654 -0.0676
H18 H 0.2369 0.2971 -0.1714
H19 H 0.1837 0.3915 -0.1973
H20 H 0.1049 0.4546 -0.1196
H21 H 0.0801 0.4229 -0.0156
H22 H 0.1535 0.3915 0.1406
H23 H -0.0243 0.4350 0.1987
H24 H -0.2573 0.4214 0.1706
H25 H -0.3122 0.3653 0.0826
H26 H -0.1355 0.3216 0.0245
H27 H 0.3761 0.2415 0.1074
H28 H 0.3289 0.1834 0.1411
H29 H 0.1952 0.2329 0.2144
H30 H 0.2128 0.2918 0.1765
H31 H 0.3577 0.2866 0.2693
H32 H 0.4414 0.2349 0.2373
H33 H 0.5236 0.2968 0.1579
H34 H 0.5636 0.3226 0.2255
H35 H 0.4348 0.3485 0.1869
loop_
_geom_bond_atom_site_label_1
_geom_bond_atom_site_label_2
_geom_bond_site_symmetry_1
_geom_bond_site_symmetry_2
O1 C17 1_555 1_555
N1 N2 1_555 1_555
N2 N3 1_555 1_555
N3 C24 1_555 1_555
C1 N1 1_555 1_555
C2 C1 1_555 1_555
C3 C2 1_555 1_555
C4 C3 1_555 1_555
C5 C4 1_555 1_555
C6 C1 1_555 1_555
C7 C1 1_555 1_555
C8 C3 1_555 1_555
C9 C5 1_555 1_555
C10 C7 1_555 1_555
C11 C12 1_555 1_555
C12 C13 1_555 1_555
C13 C14 1_555 1_555
C14 C15 1_555 1_555
C15 C16 1_555 1_555
C16 C11 1_555 1_555
C17 C11 1_555 1_555
C18 C17 1_555 1_555
C19 C18 1_555 1_555
C20 C19 1_555 1_555
C21 C20 1_555 1_555
C22 C21 1_555 1_555
C23 C18 1_555 1_555
C24 C17 1_555 1_555
C25 N1 1_555 1_555
C26 C25 1_555 1_555
C27 C26 1_555 1_555
C28 C27 1_555 1_555
C29 C28 1_555 1_555
H1 O1 1_555 1_555
H2 C2 1_555 1_555
H3 C2 1_555 1_555
H4 C3 1_555 1_555
H5 C4 1_555 1_555
H6 C4 1_555 1_555
H7 C5 1_555 1_555
H8 C6 1_555 1_555
H9 C6 1_555 1_555
H10 C7 1_555 1_555
H11 C7 1_555 1_555
H12 C8 1_555 1_555
H13 C8 1_555 1_555
H14 C9 1_555 1_555
H15 C9 1_555 1_555
H16 C10 1_555 1_555
H17 C12 1_555 1_555
H18 C13 1_555 1_555
H19 C14 1_555 1_555
H20 C15 1_555 1_555
H21 C16 1_555 1_555
H22 C19 1_555 1_555
H23 C20 1_555 1_555
H24 C21 1_555 1_555
H25 C22 1_555 1_555
H26 C23 1_555 1_555
H27 C26 1_555 1_555
H28 C26 1_555 1_555
H29 C27 1_555 1_555
H30 C27 1_555 1_555
H31 C28 1_555 1_555
H32 C28 1_555 1_555
H33 C29 1_555 1_555
H34 C29 1_555 1_555
H35 C29 1_555 1_555
C5 C6 1_555 1_555
C8 C10 1_555 1_555
C9 C10 1_555 1_555
C22 C23 1_555 1_555
C24 C25 1_555 1_555

#END
