
#######################################################################
#
#                 Cambridge Crystallographic Data Centre
#                                CCDC 
#
#######################################################################
#
# If this CIF has been generated from an entry in the Cambridge 
# Structural Database, then it will include bibliographic, chemical, 
# crystal, experimental, refinement or atomic coordinate data resulting 
# from the CCDC's data processing and validation procedures.
#
#######################################################################

data_VIMZUP
_chemical_formula_moiety         'C28 H29 N1 O1'
_chemical_name_systematic        
8,13a-dimethyl-10-phenyl-2,3,3a,3b,4,5,11b,12,13,13a-decahydro-1H-cyclopenta[5,6]naphtho[1,2-g]quinolin-1-one
_symmetry_cell_setting           monoclinic
_symmetry_space_group_name_H-M   'P 21'
_symmetry_Int_Tables_number      4
_space_group_name_Hall           'P 2yb'
loop_
_symmetry_equiv_pos_site_id
_symmetry_equiv_pos_as_xyz
1 x,y,z
2 -x,1/2+y,-z
_cell_length_a                   6.55720(10)
_cell_length_b                   11.6352(2)
_cell_length_c                   13.7774(3)
_cell_angle_alpha                90
_cell_angle_beta                 93.5710(10)
_cell_angle_gamma                90
_cell_volume                     1049.1
_exptl_crystal_colour            colorless
_exptl_crystal_description       block
_cell_formula_units_Z            2
loop_
_atom_site_label
_atom_site_type_symbol
_atom_site_fract_x
_atom_site_fract_y
_atom_site_fract_z
O1 O -0.5487(2) 0.60564(16) -0.00333(12)
N1 N 0.8353(3) 0.65762(17) 0.46469(14)
C1 C 0.6412(3) 0.33589(18) 0.33176(16)
C2 C 0.6559(3) 0.6505(2) 0.40714(16)
C3 C 0.4012(3) 0.55010(19) 0.30280(16)
H1 H 0.354936 0.481216 0.271637
C4 C 0.5853(3) 0.5473(2) 0.36246(16)
C5 C 0.2873(3) 0.64789(19) 0.28822(15)
C6 C 0.4555(3) 0.2849(2) 0.35126(16)
H2 H 0.371484 0.319424 0.396871
C7 C 0.7071(3) 0.4465(2) 0.37794(16)
C8 C 0.3612(3) 0.75200(19) 0.33189(16)
C9 C 0.9459(3) 0.5633(2) 0.47632(16)
C10 C 0.5400(4) 0.7515(2) 0.38988(16)
H3 H 0.586855 0.821336 0.419209
C11 C -0.4269(3) 0.6794(2) 0.02174(17)
C12 C -0.1900(3) 0.7545(2) 0.13713(17)
H4 H -0.282820 0.730140 0.188242
C13 C 0.3928(4) 0.1843(2) 0.30453(18)
H5 H 0.267314 0.149302 0.319005
C14 C 0.8862(3) 0.4562(2) 0.43387(16)
H6 H 0.971371 0.390714 0.444422
C15 C 0.0809(3) 0.64496(19) 0.23116(16)
H7 H -0.022037 0.628489 0.279937
C16 C 0.7644(4) 0.2826(2) 0.26565(16)
H8 H 0.893366 0.314789 0.253262
C17 C 0.6985(4) 0.1830(2) 0.21818(17)
H9 H 0.781606 0.147683 0.172582
C18 C 0.0354(4) 0.8531(2) 0.26867(18)
H10 H -0.013193 0.928084 0.242410
H11 H -0.054391 0.829985 0.320456
C19 C -0.2058(3) 0.6608(2) 0.05841(16)
C20 C 0.5125(4) 0.1349(2) 0.23704(17)
H12 H 0.466757 0.067539 0.203352
C21 C 0.0591(3) 0.5473(2) 0.15605(17)
H13 H 0.085863 0.472949 0.189345
H14 H 0.163015 0.557403 0.107587
C22 C 0.0227(3) 0.76321(19) 0.18750(17)
H15 H 0.122130 0.783887 0.138184
C23 C -0.0762(4) 0.6852(2) -0.02909(18)
H16 H -0.104862 0.626732 -0.079315
H17 H 0.069104 0.682960 -0.007759
H18 H -0.110686 0.761328 -0.055733
C24 C -0.1549(3) 0.5441(2) 0.10303(17)
H19 H -0.158296 0.484837 0.051370
H20 H -0.257955 0.523481 0.149621
C25 C 0.2535(4) 0.8652(2) 0.31141(18)
H21 H 0.332696 0.910106 0.265709
H22 H 0.252131 0.909288 0.372817
C26 C 1.1432(4) 0.5716(2) 0.53704(17)
H23 H 1.170228 0.652108 0.554269
H24 H 1.254728 0.541879 0.500069
H25 H 1.133520 0.526161 0.596482
C27 C -0.2897(4) 0.8604(2) 0.0880(2)
H26 H -0.193416 0.900565 0.047010
H27 H -0.338348 0.914881 0.136672
C28 C -0.4700(4) 0.8080(2) 0.0256(2)
H28 H -0.600788 0.822726 0.055614
H29 H -0.477760 0.841345 -0.040652
loop_
_geom_bond_atom_site_label_1
_geom_bond_atom_site_label_2
_geom_bond_site_symmetry_1
_geom_bond_site_symmetry_2
O1 C11 1_555 1_555
N1 C2 1_555 1_555
C1 C6 1_555 1_555
C2 C4 1_555 1_555
C3 H1 1_555 1_555
C4 C3 1_555 1_555
C5 C3 1_555 1_555
C6 H2 1_555 1_555
C7 C1 1_555 1_555
C8 C5 1_555 1_555
C9 N1 1_555 1_555
C10 C2 1_555 1_555
H3 C10 1_555 1_555
C11 C19 1_555 1_555
C12 H4 1_555 1_555
C13 C6 1_555 1_555
H5 C13 1_555 1_555
C14 C7 1_555 1_555
H6 C14 1_555 1_555
C15 C5 1_555 1_555
H7 C15 1_555 1_555
C16 C1 1_555 1_555
H8 C16 1_555 1_555
C17 C16 1_555 1_555
H9 C17 1_555 1_555
C18 H10 1_555 1_555
H11 C18 1_555 1_555
C19 C12 1_555 1_555
C20 C13 1_555 1_555
H12 C20 1_555 1_555
C21 C15 1_555 1_555
H13 C21 1_555 1_555
H14 C21 1_555 1_555
C22 C12 1_555 1_555
H15 C22 1_555 1_555
C23 C19 1_555 1_555
H16 C23 1_555 1_555
H17 C23 1_555 1_555
H18 C23 1_555 1_555
C24 C19 1_555 1_555
H19 C24 1_555 1_555
H20 C24 1_555 1_555
C25 C8 1_555 1_555
H21 C25 1_555 1_555
H22 C25 1_555 1_555
C26 C9 1_555 1_555
H23 C26 1_555 1_555
H24 C26 1_555 1_555
H25 C26 1_555 1_555
C27 C12 1_555 1_555
H26 C27 1_555 1_555
H27 C27 1_555 1_555
C28 C11 1_555 1_555
H28 C28 1_555 1_555
H29 C28 1_555 1_555
C4 C7 1_555 1_555
C8 C10 1_555 1_555
C9 C14 1_555 1_555
C15 C22 1_555 1_555
C17 C20 1_555 1_555
C18 C22 1_555 1_555
C18 C25 1_555 1_555
C21 C24 1_555 1_555
C27 C28 1_555 1_555

#END
