
#######################################################################
#
#                 Cambridge Crystallographic Data Centre
#                                CCDC 
#
#######################################################################
#
# If this CIF has been generated from an entry in the Cambridge 
# Structural Database, then it will include bibliographic, chemical, 
# crystal, experimental, refinement or atomic coordinate data resulting 
# from the CCDC's data processing and validation procedures.
#
#######################################################################

data_VINCOM
_chemical_formula_moiety         '2(C24 H20 P1 1+),C8 H4 O2 S2 2-,2(C2 H6 O1)'
_chemical_name_systematic        
'bis(Tetraphenylphosphonium) 4-carbodithioatobenzoate ethanol solvate'
_symmetry_cell_setting           monoclinic
_symmetry_space_group_name_H-M   'P c'
_symmetry_Int_Tables_number      7
_space_group_name_Hall           'P -2yc'
loop_
_symmetry_equiv_pos_site_id
_symmetry_equiv_pos_as_xyz
1 x,y,z
2 x,-y,1/2+z
_cell_length_a                   12.7345(8)
_cell_length_b                   15.3061(10)
_cell_length_c                   13.4780(9)
_cell_angle_alpha                90
_cell_angle_beta                 108.3770(10)
_cell_angle_gamma                90
_cell_volume                     2493.1
_exptl_crystal_colour            red
_exptl_crystal_description       plate
_cell_formula_units_Z            2
loop_
_atom_site_label
_atom_site_type_symbol
_atom_site_fract_x
_atom_site_fract_y
_atom_site_fract_z
P1 P 0.67877(2) 0.13751(2) 0.88250(2)
C1 C 0.74587(11) 0.09002(9) 0.79631(10)
C2 C 0.72332(11) 0.12301(9) 0.69548(11)
H1 H 0.6736 0.1688 0.6727
C3 C 0.77565(11) 0.08689(10) 0.62943(11)
H2 H 0.7611 0.1087 0.5620
C4 C 0.84957(11) 0.01851(10) 0.66301(11)
H3 H 0.8849 -0.0049 0.6183
C5 C 0.87122(11) -0.01530(10) 0.76315(11)
H4 H 0.9207 -0.0614 0.7853
C6 C 0.81870(11) 0.01995(9) 0.83030(11)
H5 H 0.8320 -0.0029 0.8971
C7 C 0.77794(11) 0.18634(9) 0.99407(10)
C8 C 0.73929(12) 0.23908(10) 1.05949(11)
H6 H 0.6648 0.2540 1.0409
C9 C 0.81355(13) 0.26936(10) 1.15328(11)
H7 H 0.7881 0.3033 1.1983
C10 C 0.92467(14) 0.24904(11) 1.17931(12)
H8 H 0.9735 0.2684 1.2424
C11 C 0.96403(13) 0.19975(11) 1.11161(13)
H9 H 1.0393 0.1883 1.1281
C12 C 0.89068(11) 0.16789(10) 1.01983(11)
H10 H 0.9166 0.1341 0.9751
C13 C 0.60239(11) 0.05397(9) 0.92344(11)
C14 C 0.56218(12) 0.06988(10) 1.00633(12)
H11 H 0.5783 0.1224 1.0428
C15 C 0.49773(12) 0.00726(11) 1.03487(12)
H12 H 0.4699 0.0182 1.0897
C16 C 0.47501(12) -0.07144(10) 0.98149(13)
H13 H 0.4328 -0.1137 1.0011
C17 C 0.51515(13) -0.08701(11) 0.89919(13)
H14 H 0.4997 -0.1400 0.8637
C18 C 0.57797(12) -0.02526(10) 0.86861(12)
H15 H 0.6037 -0.0361 0.8124
C19 C 0.58545(11) 0.22055(9) 0.81276(10)
C20 C 0.47385(11) 0.20063(10) 0.76319(11)
H16 H 0.4463 0.1456 0.7708
C21 C 0.40478(12) 0.26388(11) 0.70257(13)
H17 H 0.3306 0.2513 0.6690
C22 C 0.44641(13) 0.34578(11) 0.69205(13)
H18 H 0.3995 0.3882 0.6521
C23 C 0.55710(12) 0.36539(10) 0.74034(13)
H19 H 0.5843 0.4203 0.7320
C24 C 0.62716(11) 0.30263(10) 0.80118(11)
H20 H 0.7015 0.3154 0.8340
P2 P 0.98556(3) 0.36002(2) 0.71534(2)
C25 C 1.06251(11) 0.44330(9) 0.67358(11)
C26 C 1.08205(12) 0.52370(10) 0.72342(12)
H21 H 1.0539 0.5356 0.7778
C27 C 1.14431(12) 0.58690(10) 0.69175(13)
H22 H 1.1571 0.6411 0.7245
C28 C 1.18681(12) 0.56817(10) 0.61130(12)
H23 H 1.2285 0.6099 0.5903
C29 C 1.16747(13) 0.48736(11) 0.56190(12)
H24 H 1.1963 0.4753 0.5080
C30 C 1.10582(13) 0.42485(10) 0.59232(12)
H25 H 1.0931 0.3708 0.5591
C31 C 0.88518(11) 0.31134(9) 0.60401(11)
C32 C 0.92344(11) 0.25845(9) 0.53848(11)
H26 H 0.9978 0.2431 0.5575
C33 C 0.85030(13) 0.22871(10) 0.44494(12)
H27 H 0.8759 0.1944 0.4005
C34 C 0.73854(13) 0.25020(10) 0.41747(12)
H28 H 0.6899 0.2316 0.3538
C35 C 0.69989(12) 0.29918(10) 0.48489(12)
H29 H 0.6247 0.3111 0.4677
C36 C 0.77234(12) 0.33089(10) 0.57826(12)
H30 H 0.7462 0.3646 0.6229
C37 C 0.91921(11) 0.40890(9) 0.80057(11)
C38 C 0.84556(12) 0.47967(9) 0.76675(11)
H31 H 0.8315 0.5020 0.6996
C39 C 0.79443(12) 0.51576(10) 0.83330(12)
H32 H 0.7464 0.5627 0.8112
C40 C 0.81454(12) 0.48206(10) 0.93349(12)
H33 H 0.7785 0.5058 0.9775
C41 C 0.88776(12) 0.41351(10) 0.96808(11)
H34 H 0.9019 0.3921 1.0356
C42 C 0.94019(11) 0.37659(9) 0.90227(11)
H35 H 0.9892 0.3304 0.9256
C43 C 1.07932(11) 0.27851(10) 0.78728(11)
C44 C 1.19075(12) 0.29871(10) 0.83437(12)
H36 H 1.2181 0.3528 0.8228
C45 C 1.26079(13) 0.23758(11) 0.89871(14)
H37 H 1.3352 0.2507 0.9300
C46 C 1.22003(13) 0.15734(11) 0.91620(13)
H38 H 1.2671 0.1169 0.9597
C47 C 1.10844(13) 0.13669(10) 0.86886(13)
H39 H 1.0815 0.0826 0.8809
C48 C 1.03820(12) 0.19658(10) 0.80423(12)
H40 H 0.9641 0.1828 0.7721
O1 O 0.63229(11) 0.43942(12) 0.07073(11)
H41 H 0.596(3) 0.422(2) 0.131(3)
C49 C 0.44258(16) 0.43234(16) -0.05284(16)
H42 H 0.3909 0.4677 -0.1044
H43 H 0.4116 0.4173 0.0012
H44 H 0.4578 0.3800 -0.0851
C50 C 0.54667(15) 0.48178(14) -0.00690(15)
H45 H 0.5749 0.4982 -0.0632
H46 H 0.5289 0.5353 0.0228
O2 O 0.03840(11) 0.02129(10) 0.52948(11)
H47 H 0.055(2) 0.0744(16) 0.4737(19)
C51 C 0.11312(15) 0.03536(14) 0.62929(15)
H48 H 0.0956 -0.0050 0.6773
H49 H 0.1017 0.0940 0.6512
C52 C 0.23249(16) 0.02525(15) 0.6395(2)
H50 H 0.2766 0.0362 0.7106
H51 H 0.2519 0.0662 0.5942
H52 H 0.2458 -0.0331 0.6204
S1 S 0.49872(4) 0.22924(3) 0.15627(4)
S2 S 0.49610(4) 0.41095(3) 0.23503(4)
C53 C 0.14942(13) 0.19467(11) 0.44281(13)
C54 C 0.22674(14) 0.22468(12) 0.38360(14)
C55 C 0.29911(13) 0.29424(11) 0.42069(13)
H53 H 0.2989 0.3231 0.4813
C56 C 0.37132(14) 0.32099(12) 0.36856(13)
H54 H 0.4190 0.3675 0.3947
C57 C 0.37365(13) 0.27904(11) 0.27724(12)
C58 C 0.30044(15) 0.20942(12) 0.24001(14)
H55 H 0.3001 0.1806 0.1791
C59 C 0.22825(13) 0.18276(11) 0.29289(13)
H56 H 0.1804 0.1363 0.2671
C60 C 0.45389(14) 0.30560(12) 0.22286(13)
O3 O 0.07859(11) 0.13778(10) 0.39836(11)
O4 O 0.16208(10) 0.22889(9) 0.53006(10)
S3? S 0.16259(15) 0.27398(14) 0.44601(15)
S4? S 0.17198(16) 0.09052(12) 0.37408(15)
C61? C 0.5145(4) 0.2988(4) 0.1611(4)
C62? C 0.4343(5) 0.2729(4) 0.2184(5)
C63? C 0.3597(5) 0.2049(4) 0.1799(5)
H57? H 0.3565 0.1771 0.1176
C64? C 0.2907(5) 0.1794(5) 0.2359(5)
H58? H 0.2443 0.1316 0.2126
C65? C 0.2881(4) 0.2225(4) 0.3254(4)
C66? C 0.3603(5) 0.2939(5) 0.3596(6)
H59? H 0.3598 0.3247 0.4189
C67? C 0.4324(5) 0.3188(4) 0.3057(5)
H60? H 0.4793 0.3664 0.3286
C68? C 0.2112(5) 0.1966(4) 0.3840(5)
O5? O 0.5877(4) 0.3553(4) 0.2045(4)
O6? O 0.5017(4) 0.2643(3) 0.0741(4)
loop_
_geom_bond_atom_site_label_1
_geom_bond_atom_site_label_2
_geom_bond_site_symmetry_1
_geom_bond_site_symmetry_2
P1 C1 1_555 1_555
C1 C2 1_555 1_555
C2 H1 1_555 1_555
C3 C2 1_555 1_555
H2 C3 1_555 1_555
C4 C3 1_555 1_555
H3 C4 1_555 1_555
C5 C4 1_555 1_555
H4 C5 1_555 1_555
C6 C1 1_555 1_555
H5 C6 1_555 1_555
C7 P1 1_555 1_555
C8 C7 1_555 1_555
H6 C8 1_555 1_555
C9 C8 1_555 1_555
H7 C9 1_555 1_555
C10 C9 1_555 1_555
H8 C10 1_555 1_555
C11 C10 1_555 1_555
H9 C11 1_555 1_555
C12 C7 1_555 1_555
H10 C12 1_555 1_555
C13 P1 1_555 1_555
C14 C13 1_555 1_555
H11 C14 1_555 1_555
C15 C14 1_555 1_555
H12 C15 1_555 1_555
C16 C15 1_555 1_555
H13 C16 1_555 1_555
C17 C16 1_555 1_555
H14 C17 1_555 1_555
C18 C13 1_555 1_555
H15 C18 1_555 1_555
C19 P1 1_555 1_555
C20 C19 1_555 1_555
H16 C20 1_555 1_555
C21 C20 1_555 1_555
H17 C21 1_555 1_555
C22 C21 1_555 1_555
H18 C22 1_555 1_555
C23 C22 1_555 1_555
H19 C23 1_555 1_555
C24 C19 1_555 1_555
H20 C24 1_555 1_555
P2 C25 1_555 1_555
C25 C26 1_555 1_555
C26 H21 1_555 1_555
C27 C26 1_555 1_555
H22 C27 1_555 1_555
C28 C27 1_555 1_555
H23 C28 1_555 1_555
C29 C28 1_555 1_555
H24 C29 1_555 1_555
C30 C25 1_555 1_555
H25 C30 1_555 1_555
C31 P2 1_555 1_555
C32 C31 1_555 1_555
H26 C32 1_555 1_555
C33 C32 1_555 1_555
H27 C33 1_555 1_555
C34 C33 1_555 1_555
H28 C34 1_555 1_555
C35 C34 1_555 1_555
H29 C35 1_555 1_555
C36 C31 1_555 1_555
H30 C36 1_555 1_555
C37 P2 1_555 1_555
C38 C37 1_555 1_555
H31 C38 1_555 1_555
C39 C38 1_555 1_555
H32 C39 1_555 1_555
C40 C39 1_555 1_555
H33 C40 1_555 1_555
C41 C40 1_555 1_555
H34 C41 1_555 1_555
C42 C37 1_555 1_555
H35 C42 1_555 1_555
C43 P2 1_555 1_555
C44 C43 1_555 1_555
H36 C44 1_555 1_555
C45 C44 1_555 1_555
H37 C45 1_555 1_555
C46 C45 1_555 1_555
H38 C46 1_555 1_555
C47 C46 1_555 1_555
H39 C47 1_555 1_555
C48 C43 1_555 1_555
H40 C48 1_555 1_555
O1 H41 1_555 1_555
C49 H42 1_555 1_555
H43 C49 1_555 1_555
H44 C49 1_555 1_555
C50 O1 1_555 1_555
H45 C50 1_555 1_555
H46 C50 1_555 1_555
O2 H47 1_555 1_555
C51 O2 1_555 1_555
H48 C51 1_555 1_555
H49 C51 1_555 1_555
C52 C51 1_555 1_555
H50 C52 1_555 1_555
H51 C52 1_555 1_555
H52 C52 1_555 1_555
S1 C60 1_555 1_555
S2 C60 1_555 1_555
C53 C54 1_555 1_555
C54 C55 1_555 1_555
C55 H53 1_555 1_555
C56 C55 1_555 1_555
H54 C56 1_555 1_555
C57 C56 1_555 1_555
C58 C57 1_555 1_555
H55 C58 1_555 1_555
C59 C54 1_555 1_555
H56 C59 1_555 1_555
C60 C57 1_555 1_555
O3 C53 1_555 1_555
O4 C53 1_555 1_555
C5 C6 1_555 1_555
C11 C12 1_555 1_555
C17 C18 1_555 1_555
C23 C24 1_555 1_555
C29 C30 1_555 1_555
C35 C36 1_555 1_555
C41 C42 1_555 1_555
C47 C48 1_555 1_555
C49 C50 1_555 1_555
C58 C59 1_555 1_555

#END
