
#######################################################################
#
#                 Cambridge Crystallographic Data Centre
#                                CCDC 
#
#######################################################################
#
# If this CIF has been generated from an entry in the Cambridge 
# Structural Database, then it will include bibliographic, chemical, 
# crystal, experimental, refinement or atomic coordinate data resulting 
# from the CCDC's data processing and validation procedures.
#
#######################################################################

data_VINCAX
_chemical_formula_moiety         'C25 H25 Br1 N2 O3 S2'
_chemical_name_systematic        
(R~S~,S)-N-((1-Phenylsulfonyl-1H-indol-2-yl)(o-bromophenyl)methyl)-2-t-butanesulfinamide
_symmetry_cell_setting           monoclinic
_symmetry_space_group_name_H-M   'P 21'
_symmetry_Int_Tables_number      4
_space_group_name_Hall           'P 2yb'
loop_
_symmetry_equiv_pos_site_id
_symmetry_equiv_pos_as_xyz
1 x,y,z
2 -x,1/2+y,-z
_cell_length_a                   8.587(2)
_cell_length_b                   16.232(4)
_cell_length_c                   9.929(3)
_cell_angle_alpha                90
_cell_angle_beta                 111.350(4)
_cell_angle_gamma                90
_cell_volume                     1288.97
_exptl_crystal_colour            colorless
_exptl_crystal_description       prism
_chemical_melting_point          '194-195 deg.C'
_cell_formula_units_Z            2
_exptl_crystal_recrystallization_method hexane/dichloromethane
loop_
_atom_site_label
_atom_site_type_symbol
_atom_site_fract_x
_atom_site_fract_y
_atom_site_fract_z
Br1 Br 0.59929(9) 0.81621(6) 0.60827(7)
S1 S 0.63130(18) 0.86781(9) 1.09701(16)
S2 S 0.75732(18) 1.06939(8) 0.78360(17)
O1 O 0.6178(6) 0.8145(3) 1.2083(5)
O2 O 0.5639(6) 0.8414(3) 0.9482(5)
O3 O 0.6016(6) 1.0514(3) 0.6588(7)
N1 N 0.8390(6) 0.8836(2) 1.1379(5)
N2 N 0.8919(6) 0.9883(3) 0.8120(5)
H1 H 0.9792 0.9886 0.7890
C1 C 0.9467(7) 0.9018(3) 1.2851(5)
C2 C 0.9454(9) 0.8694(4) 1.4166(6)
H2 H 0.8609 0.8344 1.4194
C3 C 1.0779(9) 0.8927(4) 1.5431(7)
H3 H 1.0797 0.8730 1.6316
C4 C 1.2060(9) 0.9438(4) 1.5409(7)
H4 H 1.2936 0.9559 1.6268
C5 C 1.2052(8) 0.9777(4) 1.4100(6)
H5 H 1.2890 1.0137 1.4089
C6 C 1.0738(7) 0.9557(3) 1.2802(6)
C7 C 1.0426(7) 0.9727(3) 1.1293(5)
H6 H 1.1066 1.0073 1.0955
C8 C 0.9049(6) 0.9300(3) 1.0444(5)
C9 C 0.5553(6) 0.9674(4) 1.1125(6)
C10 C 0.5057(8) 1.0196(4) 0.9908(8)
H7 H 0.5028 1.0002 0.9018
C11 C 0.4605(8) 1.1012(5) 1.0056(10)
H8 H 0.4298 1.1368 0.9268
C12 C 0.4619(9) 1.1284(5) 1.1378(10)
H9 H 0.4333 1.1828 1.1475
C13 C 0.5048(8) 1.0764(4) 1.2558(9)
H10 H 0.5010 1.0956 1.3427
C14 C 0.5538(8) 0.9955(4) 1.2462(7)
H11 H 0.5847 0.9609 1.3263
C15 C 0.8407(7) 0.9163(3) 0.8817(5)
H12 H 0.7185 0.9118 0.8444
C16 C 0.9163(7) 0.8380(3) 0.8440(6)
C17 C 1.0851(7) 0.8166(4) 0.9172(5)
H13 H 1.1513 0.8505 0.9916
C18 C 1.1569(11) 0.7464(4) 0.8822(8)
H14 H 1.2691 0.7345 0.9325
C19 C 1.0612(13) 0.6950(4) 0.7731(9)
H15 H 1.1082 0.6475 0.7515
C20 C 0.8942(12) 0.7138(4) 0.6952(8)
H16 H 0.8299 0.6789 0.6217
C21 C 0.8228(8) 0.7856(3) 0.7278(6)
C22 C 0.8754(7) 1.1463(3) 0.7204(7)
C23 C 1.0383(9) 1.1632(4) 0.8487(9)
H17 H 1.0960 1.2086 0.8258
H18 H 1.1080 1.1151 0.8681
H19 H 1.0127 1.1766 0.9326
C24 C 0.9096(13) 1.1152(5) 0.5888(9)
H20 H 0.8081 1.0940 0.5185
H21 H 0.9921 1.0722 0.6178
H22 H 0.9503 1.1597 0.5471
C25 C 0.7598(9) 1.2224(4) 0.6869(9)
H23 H 0.7497 1.2420 0.7746
H24 H 0.6514 1.2075 0.6192
H25 H 0.8065 1.2650 0.6461
loop_
_geom_bond_atom_site_label_1
_geom_bond_atom_site_label_2
_geom_bond_site_symmetry_1
_geom_bond_site_symmetry_2
Br1 C21 1_555 1_555
S1 O1 1_555 1_555
S2 O3 1_555 1_555
O2 S1 1_555 1_555
N1 S1 1_555 1_555
N2 S2 1_555 1_555
H1 N2 1_555 1_555
C1 N1 1_555 1_555
C2 C1 1_555 1_555
H2 C2 1_555 1_555
C3 C2 1_555 1_555
H3 C3 1_555 1_555
C4 C3 1_555 1_555
H4 C4 1_555 1_555
C5 C4 1_555 1_555
H5 C5 1_555 1_555
C6 C1 1_555 1_555
C7 C6 1_555 1_555
H6 C7 1_555 1_555
C8 N1 1_555 1_555
C9 S1 1_555 1_555
C10 C9 1_555 1_555
H7 C10 1_555 1_555
C11 C10 1_555 1_555
H8 C11 1_555 1_555
C12 C11 1_555 1_555
H9 C12 1_555 1_555
C13 C12 1_555 1_555
H10 C13 1_555 1_555
C14 C9 1_555 1_555
H11 C14 1_555 1_555
C15 N2 1_555 1_555
H12 C15 1_555 1_555
C16 C15 1_555 1_555
C17 C16 1_555 1_555
H13 C17 1_555 1_555
C18 C17 1_555 1_555
H14 C18 1_555 1_555
C19 C18 1_555 1_555
H15 C19 1_555 1_555
C20 C19 1_555 1_555
H16 C20 1_555 1_555
C21 C16 1_555 1_555
C22 S2 1_555 1_555
C23 C22 1_555 1_555
H17 C23 1_555 1_555
H18 C23 1_555 1_555
H19 C23 1_555 1_555
C24 C22 1_555 1_555
H20 C24 1_555 1_555
H21 C24 1_555 1_555
H22 C24 1_555 1_555
C25 C22 1_555 1_555
H23 C25 1_555 1_555
H24 C25 1_555 1_555
H25 C25 1_555 1_555
C5 C6 1_555 1_555
C7 C8 1_555 1_555
C8 C15 1_555 1_555
C13 C14 1_555 1_555
C20 C21 1_555 1_555

#END
