
#######################################################################
#
#                 Cambridge Crystallographic Data Centre
#                                CCDC 
#
#######################################################################
#
# If this CIF has been generated from an entry in the Cambridge 
# Structural Database, then it will include bibliographic, chemical, 
# crystal, experimental, refinement or atomic coordinate data resulting 
# from the CCDC's data processing and validation procedures.
#
#######################################################################

data_VINCBZ01
_chemical_formula_moiety         'C14 H11 N1'
_chemical_name_systematic        N-vinylcarbazole
_symmetry_cell_setting           orthorhombic
_symmetry_space_group_name_H-M   'P n a 21'
_symmetry_Int_Tables_number      33
_space_group_name_Hall           'P 2c -2n'
loop_
_symmetry_equiv_pos_site_id
_symmetry_equiv_pos_as_xyz
1 x,y,z
2 -x,-y,1/2+z
3 1/2+x,1/2-y,z
4 1/2-x,1/2+y,1/2+z
_cell_length_a                   21.588(2)
_cell_length_b                   17.233(2)
_cell_length_c                   5.5674(7)
_cell_angle_alpha                90
_cell_angle_beta                 90
_cell_angle_gamma                90
_cell_volume                     2071.22
_exptl_crystal_colour            yellow
_cell_formula_units_Z            8
loop_
_atom_site_label
_atom_site_type_symbol
_atom_site_fract_x
_atom_site_fract_y
_atom_site_fract_z
N1 N 0.8277(2) 0.8064(3) 0.3471(9)
C1 C 0.7843(2) 0.8447(3) 0.4920(12)
C2 C 0.7627(2) 0.9208(3) 0.4867(11)
H1 H 0.7758 0.9557 0.3700
C3 C 0.7200(3) 0.9426(3) 0.6667(12)
H2 H 0.7048 0.9931 0.6677
C4 C 0.6994(2) 0.8903(4) 0.8454(12)
H3 H 0.6711 0.9059 0.9615
C5 C 0.7221(2) 0.8158(3) 0.8438(10)
H4 H 0.7092 0.7805 0.9598
C6 C 0.7639(2) 0.7936(3) 0.6707(10)
C7 C 0.7967(2) 0.7211(3) 0.6327(10)
C8 C 0.7983(2) 0.6500(3) 0.7536(10)
H5 H 0.7744 0.6422 0.8905
C9 C 0.8356(3) 0.5922(3) 0.6676(13)
H6 H 0.8360 0.5440 0.7432
C10 C 0.8721(3) 0.6046(3) 0.4717(14)
H7 H 0.8979 0.5645 0.4216
C11 C 0.8732(2) 0.6736(3) 0.3423(11)
H8 H 0.8971 0.6807 0.2052
C12 C 0.8347(2) 0.7316(3) 0.4384(11)
C13 C 0.8625(3) 0.8384(3) 0.1600(12)
H9 H 0.8901 0.8035 0.0913
C14 C 0.8641(3) 0.9032(3) 0.0671(13)
H10 H 0.8381 0.9423 0.1229
H11 H 0.8912 0.9131 -0.0589
N2 N 0.90266(19) 0.2005(2) 0.6726(8)
C15 C 0.9335(2) 0.1662(3) 0.4838(10)
C16 C 0.9327(2) 0.0894(3) 0.4044(12)
H12 H 0.9084 0.0520 0.4793
C17 C 0.9698(3) 0.0712(3) 0.2094(13)
H13 H 0.9701 0.0203 0.1532
C18 C 1.0067(2) 0.1260(4) 0.0942(11)
H14 H 1.0303 0.1121 -0.0386
C19 C 1.0079(2) 0.2008(3) 0.1782(11)
H15 H 1.0332 0.2374 0.1046
C20 C 0.9717(2) 0.2218(3) 0.3705(10)
C21 C 0.9635(2) 0.2924(3) 0.5032(11)
C22 C 0.9891(2) 0.3657(3) 0.4744(11)
H16 H 1.0163 0.3763 0.3488
C23 C 0.9728(3) 0.4230(3) 0.6402(12)
H17 H 0.9899 0.4724 0.6273
C24 C 0.9322(2) 0.4073(3) 0.8200(12)
H18 H 0.9219 0.4470 0.9259
C25 C 0.9055(2) 0.3352(3) 0.8536(11)
H19 H 0.8782 0.3255 0.9790
C26 C 0.9220(2) 0.2780(3) 0.6880(10)
C27 C 0.8566(2) 0.1688(3) 0.8276(11)
H20 H 0.8479 0.1966 0.9668
C28 C 0.8262(2) 0.1066(3) 0.7957(13)
H21 H 0.8331 0.0766 0.6593
H22 H 0.7970 0.0910 0.9086
loop_
_geom_bond_atom_site_label_1
_geom_bond_atom_site_label_2
_geom_bond_site_symmetry_1
_geom_bond_site_symmetry_2
N1 C1 1_555 1_555
N2 C15 1_555 1_555
C1 C2 1_555 1_555
C2 H1 1_555 1_555
C3 C2 1_555 1_555
H2 C3 1_555 1_555
C4 C3 1_555 1_555
H3 C4 1_555 1_555
C5 C4 1_555 1_555
H4 C5 1_555 1_555
C6 C1 1_555 1_555
C7 C6 1_555 1_555
C8 C7 1_555 1_555
H5 C8 1_555 1_555
C9 C8 1_555 1_555
H6 C9 1_555 1_555
C10 C9 1_555 1_555
H7 C10 1_555 1_555
C11 C10 1_555 1_555
H8 C11 1_555 1_555
C12 N1 1_555 1_555
C13 N1 1_555 1_555
H9 C13 1_555 1_555
C14 C13 1_555 1_555
H10 C14 1_555 1_555
H11 C14 1_555 1_555
C15 C16 1_555 1_555
C16 H12 1_555 1_555
C17 C16 1_555 1_555
H13 C17 1_555 1_555
C18 C17 1_555 1_555
H14 C18 1_555 1_555
C19 C18 1_555 1_555
H15 C19 1_555 1_555
C20 C15 1_555 1_555
C21 C20 1_555 1_555
C22 C21 1_555 1_555
H16 C22 1_555 1_555
C23 C22 1_555 1_555
H17 C23 1_555 1_555
C24 C23 1_555 1_555
H18 C24 1_555 1_555
C25 C24 1_555 1_555
H19 C25 1_555 1_555
C26 N2 1_555 1_555
C27 N2 1_555 1_555
H20 C27 1_555 1_555
C28 C27 1_555 1_555
H21 C28 1_555 1_555
H22 C28 1_555 1_555
C5 C6 1_555 1_555
C7 C12 1_555 1_555
C11 C12 1_555 1_555
C19 C20 1_555 1_555
C21 C26 1_555 1_555
C25 C26 1_555 1_555

#END
