
#######################################################################
#
#                 Cambridge Crystallographic Data Centre
#                                CCDC 
#
#######################################################################
#
# If this CIF has been generated from an entry in the Cambridge 
# Structural Database, then it will include bibliographic, chemical, 
# crystal, experimental, refinement or atomic coordinate data resulting 
# from the CCDC's data processing and validation procedures.
#
#######################################################################

data_VINGOP
_chemical_formula_moiety         'C4 H4 O5 2-,2(Na1 1+),H2 O1'
_chemical_name_systematic        'Disodium malate monohydrate'
_symmetry_cell_setting           orthorhombic
_symmetry_space_group_name_H-M   'P 21 21 21'
_symmetry_Int_Tables_number      19
_space_group_name_Hall           'P 2ac 2ab'
loop_
_symmetry_equiv_pos_site_id
_symmetry_equiv_pos_as_xyz
1 x,y,z
2 1/2-x,-y,1/2+z
3 1/2+x,1/2-y,-z
4 -x,1/2+y,1/2-z
_cell_length_a                   6.2573(4)
_cell_length_b                   9.6814(6)
_cell_length_c                   11.1333(7)
_cell_angle_alpha                90
_cell_angle_beta                 90
_cell_angle_gamma                90
_cell_volume                     674.449
_cell_formula_units_Z            4
loop_
_atom_site_label
_atom_site_type_symbol
_atom_site_fract_x
_atom_site_fract_y
_atom_site_fract_z
Na1 Na 1.03063(12) -0.65295(8) -0.60112(6)
Na2 Na 1.20825(11) -0.44030(7) -0.78080(6)
O1 O 1.17354(19) -0.68422(13) -0.79982(11)
H1 H 1.102(4) -0.746(2) -0.8351(19)
O2 O 1.4193(2) -0.58049(14) -0.63659(10)
O3 O 1.7018(2) -0.70732(13) -0.68847(12)
O4 O 1.4864(2) -0.59912(13) -1.09573(10)
O5 O 1.4870(2) -0.49070(13) -0.92137(11)
C1 C 1.3829(2) -0.74091(17) -0.79736(13)
H2 H 1.3694 -0.8390 -0.7734
C2 C 1.5135(3) -0.66826(17) -0.70062(14)
C3 C 1.4874(3) -0.73800(16) -0.92014(14)
H3 H 1.4152 -0.8055 -0.9717
H4 H 1.6364 -0.7675 -0.9116
C4 C 1.4839(3) -0.59874(17) -0.98265(14)
O6 O 1.0771(2) -0.89613(14) -0.58592(11)
H5 H 1.029(3) -0.911(3) -0.5158(12)
H6 H 1.206(2) -0.924(3) -0.590(2)
loop_
_geom_bond_atom_site_label_1
_geom_bond_atom_site_label_2
_geom_bond_site_symmetry_1
_geom_bond_site_symmetry_2
O1 H1 1_555 1_555
O2 C2 1_555 1_555
O3 C2 1_555 1_555
O4 C4 1_555 1_555
O5 C4 1_555 1_555
C1 O1 1_555 1_555
H2 C1 1_555 1_555
C2 C1 1_555 1_555
C3 C1 1_555 1_555
H3 C3 1_555 1_555
H4 C3 1_555 1_555
C4 C3 1_555 1_555
O6 H5 1_555 1_555
H6 O6 1_555 1_555

#END
