
#######################################################################
#
#                 Cambridge Crystallographic Data Centre
#                                CCDC 
#
#######################################################################
#
# If this CIF has been generated from an entry in the Cambridge 
# Structural Database, then it will include bibliographic, chemical, 
# crystal, experimental, refinement or atomic coordinate data resulting 
# from the CCDC's data processing and validation procedures.
#
#######################################################################

data_VINPUE
_chemical_formula_moiety         
'C36 H54 O15,C16 H14 N2 2+,2(F6 P1 1-),4(C2 H3 N1)'
_chemical_name_systematic        
"(5,5'-(Undecane-1,11-dioxy)-bis(1,3-phenylene))-32-crown-10 N,N'-dimethyl-2,7-diazapyrenium clathrate bis(hexafluorophosphate) acetonitrile solvate"
_symmetry_cell_setting           monoclinic
_symmetry_space_group_name_H-M   'P 21/c'
_symmetry_Int_Tables_number      14
_space_group_name_Hall           '-P 2ybc'
loop_
_symmetry_equiv_pos_site_id
_symmetry_equiv_pos_as_xyz
1 x,y,z
2 -x,1/2+y,1/2-z
3 -x,-y,-z
4 x,1/2-y,1/2+z
_cell_length_a                   25.52(2)
_cell_length_b                   11.020(9)
_cell_length_c                   24.85(2)
_cell_angle_alpha                90
_cell_angle_beta                 84.501(19)
_cell_angle_gamma                90
_cell_volume                     6956.41
_exptl_crystal_colour            yellow
_exptl_crystal_description       prismatic
_cell_formula_units_Z            4
loop_
_atom_site_label
_atom_site_type_symbol
_atom_site_fract_x
_atom_site_fract_y
_atom_site_fract_z
P1 P 0.46570(11) 0.1260(3) 0.17498(12)
F1 F 0.5056(4) 0.1996(10) 0.2071(5)
F2 F 0.4767(12) 0.093(3) 0.1061(9)
F3 F 0.4860(2) -0.0022(6) 0.1940(3)
F4 F 0.4197(3) 0.0566(7) 0.1524(3)
F5 F 0.4282(3) 0.1350(7) 0.2296(3)
F6 F 0.4432(3) 0.2493(6) 0.1542(3)
P2 P 0.11266(16) 0.5783(5) 0.40185(18)
F7 F 0.1568(3) 0.5665(8) 0.3539(3)
F8 F 0.0698(5) 0.5440(14) 0.3686(5)
F9 F 0.1049(4) 0.7113(11) 0.3858(6)
F10 F 0.0732(4) 0.5970(11) 0.4524(5)
F11 F 0.1199(5) 0.4483(10) 0.4166(5)
F12 F 0.1552(5) 0.6241(17) 0.4359(5)
O1 O 0.3174(2) 0.1661(6) 0.0206(2)
O2 O 0.4117(2) 0.2086(6) -0.0544(2)
O3 O 0.4816(2) 0.3883(7) -0.1134(3)
O4 O 0.4387(2) 0.6295(7) -0.0221(3)
O5 O 0.3681(3) 0.8009(6) 0.0345(2)
O6 O 0.2554(2) 0.2000(6) 0.2134(2)
O7 O 0.2929(2) 0.2809(6) 0.3125(2)
O8 O 0.3160(2) 0.4896(6) 0.3739(2)
O9 O 0.3417(2) 0.7172(6) 0.3220(2)
O10 O 0.3186(2) 0.8429(5) 0.2292(2)
O11 O 0.1367(3) 0.2337(6) 0.0843(3)
O12 O 0.0502(3) 0.3662(9) 0.0610(4)
O13 O 0.0140(3) 0.6016(9) 0.0864(3)
O14 O 0.0801(3) 0.8044(7) 0.1056(3)
O15 O 0.1905(3) 0.8560(8) 0.1032(4)
C1 C 0.2799(4) 0.1846(8) 0.0630(4)
C2 C 0.2910(3) 0.1832(7) 0.1183(4)
H1 H 0.3251 0.1712 0.1275
C3 C 0.2490(4) 0.2002(8) 0.1583(4)
C4 C 0.1984(4) 0.2190(8) 0.1461(4)
H2 H 0.1713 0.2312 0.1734
C5 C 0.1885(4) 0.2193(9) 0.0923(4)
C6 C 0.2293(4) 0.2042(8) 0.0502(4)
H3 H 0.2221 0.2076 0.0143
C7 C 0.3329(4) 0.8187(8) 0.0805(4)
C8 C 0.3478(3) 0.8237(7) 0.1330(3)
H4 H 0.3830 0.8173 0.1394
C9 C 0.3087(4) 0.8385(7) 0.1755(4)
C10 C 0.2565(4) 0.8503(7) 0.1661(4)
H5 H 0.2311 0.8607 0.1952
C11 C 0.2410(4) 0.8467(8) 0.1135(4)
C12 C 0.2807(4) 0.8305(8) 0.0705(4)
H6 H 0.2717 0.8276 0.0352
C13 C 0.3700(4) 0.1387(9) 0.0311(3)
H7 H 0.3700 0.0722 0.0567
H8 H 0.3857 0.2089 0.0469
C14 C 0.4020(3) 0.1039(9) -0.0216(4)
H9 H 0.4352 0.0681 -0.0138
H10 H 0.3829 0.0442 -0.0407
C15 C 0.4460(4) 0.1765(11) -0.1023(4)
H11 H 0.4301 0.1129 -0.1223
H12 H 0.4796 0.1475 -0.0922
C16 C 0.4537(4) 0.2899(12) -0.1366(4)
H13 H 0.4728 0.2678 -0.1709
H14 H 0.4194 0.3194 -0.1443
C17 C 0.4478(5) 0.4583(12) -0.0762(5)
H15 H 0.4420 0.4152 -0.0421
H16 H 0.4141 0.4691 -0.0905
C18 C 0.4711(4) 0.5779(11) -0.0670(4)
H17 H 0.5072 0.5694 -0.0584
H18 H 0.4707 0.6287 -0.0989
C19 C 0.4530(4) 0.7507(10) -0.0110(4)
H19 H 0.4439 0.8045 -0.0396
H20 H 0.4906 0.7562 -0.0084
C20 C 0.4229(4) 0.7858(9) 0.0424(4)
H21 H 0.4268 0.7231 0.0691
H22 H 0.4369 0.8610 0.0555
C21 C 0.3058(3) 0.1696(8) 0.2293(3)
H23 H 0.3314 0.2305 0.2162
H24 H 0.3171 0.0918 0.2140
C22 C 0.3022(4) 0.1637(9) 0.2897(4)
H25 H 0.2737 0.1097 0.3027
H26 H 0.3347 0.1312 0.3010
C23 C 0.2926(3) 0.2807(9) 0.3705(3)
H27 H 0.3274 0.2607 0.3805
H28 H 0.2681 0.2198 0.3860
C24 C 0.2766(3) 0.4031(9) 0.3922(3)
H29 H 0.2431 0.4260 0.3798
H30 H 0.2726 0.4010 0.4314
C25 C 0.3061(4) 0.6041(9) 0.3995(3)
H31 H 0.3065 0.5953 0.4383
H32 H 0.2716 0.6334 0.3924
C26 C 0.3479(4) 0.6944(9) 0.3783(3)
H33 H 0.3440 0.7694 0.3987
H34 H 0.3827 0.6618 0.3820
C27 C 0.3713(4) 0.8213(9) 0.3014(4)
H35 H 0.4069 0.8171 0.3119
H36 H 0.3550 0.8950 0.3164
C28 C 0.3723(3) 0.8225(8) 0.2414(3)
H37 H 0.3951 0.8869 0.2262
H38 H 0.3853 0.7457 0.2264
C29 C 0.1218(4) 0.2345(10) 0.0307(4)
H39 H 0.1314 0.1585 0.0127
H40 H 0.1393 0.3003 0.0101
C30 C 0.0627(5) 0.2519(13) 0.0351(5)
H41 H 0.0504 0.2510 -0.0006
H42 H 0.0455 0.1865 0.0561
C31 C -0.0001(6) 0.3927(14) 0.0684(7)
H43 H -0.0188 0.3222 0.0837
H44 H -0.0126 0.4076 0.0333
C32 C -0.0143(5) 0.4981(15) 0.1034(5)
H45 H -0.0516 0.5143 0.1034
H46 H -0.0074 0.4790 0.1402
C33 C -0.0024(5) 0.7079(15) 0.1138(5)
H47 H 0.0015 0.6978 0.1520
H48 H -0.0395 0.7209 0.1100
C34 C 0.0278(5) 0.8164(12) 0.0935(5)
H49 H 0.0266 0.8237 0.0547
H50 H 0.0123 0.8890 0.1105
C35 C 0.1082(6) 0.9205(14) 0.0932(6)
C36 C 0.1510(7) 0.8988(16) 0.1357(7)
H51 H 0.1602 0.9740 0.1529
H52 H 0.1387 0.8403 0.1633
N1 N 0.1690(3) 0.5607(7) 0.0474(3)
N2 N 0.3647(3) 0.4871(7) 0.2184(3)
C37 C 0.2186(4) 0.5373(8) 0.0256(4)
H53 H 0.2256 0.5319 -0.0118
C38 C 0.1556(4) 0.5637(9) 0.1015(4)
H54 H 0.1209 0.5795 0.1147
C39 C 0.1936(4) 0.5431(8) 0.1379(4)
C40 C 0.2468(3) 0.5261(7) 0.1150(3)
C41 C 0.2582(3) 0.5215(8) 0.0573(3)
C42 C 0.3131(4) 0.5005(8) 0.0354(3)
H55 H 0.3213 0.4942 -0.0018
C43 C 0.3525(3) 0.4899(8) 0.0695(3)
H56 H 0.3871 0.4791 0.0551
C44 C 0.3405(3) 0.4954(8) 0.1272(3)
C45 C 0.2874(3) 0.5095(7) 0.1495(3)
C46 C 0.2733(4) 0.5172(8) 0.2064(3)
C47 C 0.2184(4) 0.5350(8) 0.2286(4)
H57 H 0.2098 0.5365 0.2658
C48 C 0.1810(4) 0.5489(9) 0.1955(4)
H58 H 0.1464 0.5625 0.2096
C49 C 0.3780(4) 0.4831(7) 0.1635(4)
H59 H 0.4131 0.4718 0.1505
C50 C 0.3132(5) 0.5047(8) 0.2397(4)
H60 H 0.3054 0.5082 0.2770
C51 C 0.1280(4) 0.5862(10) 0.0100(4)
H61 H 0.1405 0.5607 -0.0259
H62 H 0.1207 0.6716 0.0100
H63 H 0.0964 0.5426 0.0219
C52 C 0.4072(4) 0.4721(9) 0.2552(3)
H64 H 0.4360 0.5249 0.2438
H65 H 0.4191 0.3894 0.2540
H66 H 0.3937 0.4922 0.2915
N3 N 0.2567(11) 0.9430(17) 0.3953(9)
C53 C 0.2074(7) 0.8462(18) 0.3201(6)
H67 H 0.1797 0.9019 0.3136
H68 H 0.1926 0.7675 0.3283
H69 H 0.2319 0.8411 0.2883
C54 C 0.2344(7) 0.8888(16) 0.3653(9)
N4 N 0.1588(7) 0.1281(18) 0.4015(8)
C55 C 0.1512(4) 0.2519(13) 0.3104(4)
H70 H 0.1382 0.1979 0.2845
H71 H 0.1854 0.2810 0.2969
H72 H 0.1276 0.3194 0.3165
C56 C 0.1549(7) 0.1882(17) 0.3606(8)
N5 N 0.014(2) 0.165(5) 0.215(2)
C57 C 0.0493(15) 0.408(4) 0.2277(16)
H73 H 0.0569 0.4585 0.1963
H74 H 0.0797 0.4048 0.2476
H75 H 0.0203 0.4425 0.2502
C58 C 0.035(3) 0.279(4) 0.210(3)
N6 N 0.1061(17) 1.037(3) 0.2603(17)
C59 C 0.077(3) 0.819(6) 0.247(3)
H76 H 0.0530 0.8011 0.2204
H77 H 0.0633 0.7899 0.2814
H78 H 0.1104 0.7802 0.2363
C60 C 0.085(5) 0.951(6) 0.249(6)
F13? F 0.5129(5) 0.1294(11) 0.1330(6)
C61? C 0.1641(8) 0.893(2) 0.0612(8)
H79? H 0.1620 0.8289 0.0346
H80? H 0.1797 0.9646 0.0438
loop_
_geom_bond_atom_site_label_1
_geom_bond_atom_site_label_2
_geom_bond_site_symmetry_1
_geom_bond_site_symmetry_2
P1 F1 1_555 1_555
P2 F7 1_555 1_555
F2 P1 1_555 1_555
F3 P1 1_555 1_555
F4 P1 1_555 1_555
F5 P1 1_555 1_555
F6 P1 1_555 1_555
F8 P2 1_555 1_555
F9 P2 1_555 1_555
F10 P2 1_555 1_555
F11 P2 1_555 1_555
F12 P2 1_555 1_555
O1 C1 1_555 1_555
O2 C14 1_555 1_555
O3 C16 1_555 1_555
O4 C18 1_555 1_555
O5 C7 1_555 1_555
O6 C3 1_555 1_555
O7 C22 1_555 1_555
O8 C24 1_555 1_555
O9 C26 1_555 1_555
O10 C9 1_555 1_555
O11 C5 1_555 1_555
O12 C30 1_555 1_555
O13 C32 1_555 1_555
O14 C34 1_555 1_555
O15 C11 1_555 1_555
N1 C37 1_555 1_555
N2 C49 1_555 1_555
N3 C54 1_555 1_555
N4 C56 1_555 1_555
N5 C58 1_555 1_555
N6 C60 1_555 1_555
C1 C2 1_555 1_555
C2 H1 1_555 1_555
C3 C2 1_555 1_555
C4 C3 1_555 1_555
H2 C4 1_555 1_555
C5 C4 1_555 1_555
C6 C1 1_555 1_555
H3 C6 1_555 1_555
C7 C8 1_555 1_555
C8 H4 1_555 1_555
C9 C8 1_555 1_555
C10 C9 1_555 1_555
H5 C10 1_555 1_555
C11 C10 1_555 1_555
C12 C7 1_555 1_555
H6 C12 1_555 1_555
C13 O1 1_555 1_555
H7 C13 1_555 1_555
H8 C13 1_555 1_555
C14 C13 1_555 1_555
H9 C14 1_555 1_555
H10 C14 1_555 1_555
C15 O2 1_555 1_555
H11 C15 1_555 1_555
H12 C15 1_555 1_555
C16 C15 1_555 1_555
H13 C16 1_555 1_555
H14 C16 1_555 1_555
C17 O3 1_555 1_555
H15 C17 1_555 1_555
H16 C17 1_555 1_555
C18 C17 1_555 1_555
H17 C18 1_555 1_555
H18 C18 1_555 1_555
C19 O4 1_555 1_555
H19 C19 1_555 1_555
H20 C19 1_555 1_555
C20 O5 1_555 1_555
H21 C20 1_555 1_555
H22 C20 1_555 1_555
C21 O6 1_555 1_555
H23 C21 1_555 1_555
H24 C21 1_555 1_555
C22 C21 1_555 1_555
H25 C22 1_555 1_555
H26 C22 1_555 1_555
C23 O7 1_555 1_555
H27 C23 1_555 1_555
H28 C23 1_555 1_555
C24 C23 1_555 1_555
H29 C24 1_555 1_555
H30 C24 1_555 1_555
C25 O8 1_555 1_555
H31 C25 1_555 1_555
H32 C25 1_555 1_555
C26 C25 1_555 1_555
H33 C26 1_555 1_555
H34 C26 1_555 1_555
C27 O9 1_555 1_555
H35 C27 1_555 1_555
H36 C27 1_555 1_555
C28 O10 1_555 1_555
H37 C28 1_555 1_555
H38 C28 1_555 1_555
C29 O11 1_555 1_555
H39 C29 1_555 1_555
H40 C29 1_555 1_555
C30 C29 1_555 1_555
H41 C30 1_555 1_555
H42 C30 1_555 1_555
C31 O12 1_555 1_555
H43 C31 1_555 1_555
H44 C31 1_555 1_555
C32 C31 1_555 1_555
H45 C32 1_555 1_555
H46 C32 1_555 1_555
C33 O13 1_555 1_555
H47 C33 1_555 1_555
H48 C33 1_555 1_555
C34 C33 1_555 1_555
H49 C34 1_555 1_555
H50 C34 1_555 1_555
C35 O14 1_555 1_555
C36 O15 1_555 1_555
H51 C36 1_555 1_555
H52 C36 1_555 1_555
C37 H53 1_555 1_555
C38 N1 1_555 1_555
H54 C38 1_555 1_555
C39 C38 1_555 1_555
C40 C39 1_555 1_555
C41 C37 1_555 1_555
C42 C41 1_555 1_555
H55 C42 1_555 1_555
C43 C42 1_555 1_555
H56 C43 1_555 1_555
C44 C43 1_555 1_555
C45 C40 1_555 1_555
C46 C45 1_555 1_555
C47 C46 1_555 1_555
H57 C47 1_555 1_555
C48 C39 1_555 1_555
H58 C48 1_555 1_555
C49 C44 1_555 1_555
H59 C49 1_555 1_555
C50 N2 1_555 1_555
H60 C50 1_555 1_555
C51 N1 1_555 1_555
H61 C51 1_555 1_555
H62 C51 1_555 1_555
H63 C51 1_555 1_555
C52 N2 1_555 1_555
H64 C52 1_555 1_555
H65 C52 1_555 1_555
H66 C52 1_555 1_555
C53 H67 1_555 1_555
H68 C53 1_555 1_555
H69 C53 1_555 1_555
C54 C53 1_555 1_555
C55 H70 1_555 1_555
H71 C55 1_555 1_555
H72 C55 1_555 1_555
C56 C55 1_555 1_555
C57 H73 1_555 1_555
H74 C57 1_555 1_555
H75 C57 1_555 1_555
C58 C57 1_555 1_555
C59 H76 1_555 1_555
H77 C59 1_555 1_555
H78 C59 1_555 1_555
C60 C59 1_555 1_555
C5 C6 1_555 1_555
C11 C12 1_555 1_555
C19 C20 1_555 1_555
C27 C28 1_555 1_555
C35 C36 1_555 1_555
C40 C41 1_555 1_555
C44 C45 1_555 1_555
C46 C50 1_555 1_555
C47 C48 1_555 1_555

#END
