
#######################################################################
#
#                 Cambridge Crystallographic Data Centre
#                                CCDC 
#
#######################################################################
#
# If this CIF has been generated from an entry in the Cambridge 
# Structural Database, then it will include bibliographic, chemical, 
# crystal, experimental, refinement or atomic coordinate data resulting 
# from the CCDC's data processing and validation procedures.
#
#######################################################################

data_VINQAK
_chemical_formula_moiety         'C38 H30 N2'
_chemical_name_systematic        
r-1,c-2,t-3,t-4-1,3-bis(4-Biphenyl)-2,4-bis(4-pyridyl)cyclobutane
_symmetry_cell_setting           monoclinic
_symmetry_space_group_name_H-M   'P 21/n'
_symmetry_Int_Tables_number      14
_space_group_name_Hall           '-P 2yn'
loop_
_symmetry_equiv_pos_site_id
_symmetry_equiv_pos_as_xyz
1 x,y,z
2 1/2-x,1/2+y,1/2-z
3 -x,-y,-z
4 1/2+x,1/2-y,1/2+z
_cell_length_a                   10.038(2)
_cell_length_b                   18.995(4)
_cell_length_c                   14.647(3)
_cell_angle_alpha                90
_cell_angle_beta                 98.82(3)
_cell_angle_gamma                90
_cell_volume                     2759.75
_exptl_crystal_colour            colorless
_chemical_melting_point          254-256deg.C
_cell_formula_units_Z            4
_exptl_crystal_recrystallization_method dimethylformamide
loop_
_atom_site_label
_atom_site_type_symbol
_atom_site_fract_x
_atom_site_fract_y
_atom_site_fract_z
C1 C 0.0227(3) 0.1471(2) 0.1362(2)
C2 C 0.0618(3) 0.1182(2) 0.0433(2)
C3 C 0.2074(3) 0.1068(2) 0.0919(2)
C4 C 0.1622(3) 0.1196(2) 0.1880(2)
C5 C -0.0064(3) 0.22502 0.14062
C6 C -0.1369(3) 0.2468(2) 0.1398(2)
C7 C -0.1709(3) 0.3172(2) 0.1391(2)
C8 C -0.0733(3) 0.3693(2) 0.1404(2)
C9 C 0.0585(3) 0.3478(2) 0.1408(2)
C10 C 0.0925(3) 0.2765(2) 0.1397(2)
C11 C -0.1113(3) 0.4450(2) 0.1429(2)
C12 C -0.2261(4) 0.4658(2) 0.1768(3)
C13 C -0.2622(5) 0.5361(2) 0.1785(3)
C14 C -0.1825(5) 0.5862(2) 0.1481(4)
C15 C -0.0679(5) 0.5675(2) 0.1154(3)
C16 C -0.0312(4) 0.4970(2) 0.1129(3)
C17 C 0.0327(3) 0.1633(2) -0.0423(2)
C18 C 0.1298(4) 0.1857(2) -0.0919(2)
C19 C 0.0926(4) 0.2278(2) -0.1691(3)
N1 N -0.0340(4) 0.2493(2) -0.1994(2)
C20 C -0.1262(4) 0.2267(2) -0.1505(3)
C21 C -0.0981(4) 0.1843(2) -0.0740(2)
C22 C 0.2809(3) 0.0402(2) 0.0718(2)
C23 C 0.3808(3) 0.0117(2) 0.1379(2)
C24 C 0.4413(3) -0.0512(3) 0.1218(2)
C25 C 0.4069(3) -0.0880(2) 0.0392(2)
C26 C 0.3138(3) -0.0570(2) -0.0295(2)
C27 C 0.2506(3) 0.0060(2) -0.0129(2)
C28 C 0.4613(3) -0.1601(2) 0.0275(2)
C29 C 0.4868(3) -0.2053(2) 0.1033(2)
C30 C 0.5301(4) -0.2737(2) 0.0931(3)
C31 C 0.5503(4) -0.2982(2) 0.0076(3)
C32 C 0.5277(3) -0.2539(2) -0.0678(3)
C33 C 0.4836(3) -0.1856(2) -0.0589(2)
C34 C 0.1459(3) 0.0586(2) 0.2510(2)
C35 C 0.1736(4) 0.0671(2) 0.3465(2)
C36 C 0.1511(5) 0.0118(2) 0.4031(3)
N2 N 0.1057(4) -0.0509(2) 0.3741(3)
C37 C 0.0802(4) -0.0587(2) 0.2829(3)
C38 C 0.0969(4) -0.0073(2) 0.2195(3)
loop_
_geom_bond_atom_site_label_1
_geom_bond_atom_site_label_2
_geom_bond_site_symmetry_1
_geom_bond_site_symmetry_2
C1 C2 1_555 1_555
C2 C3 1_555 1_555
C3 C4 1_555 1_555
C4 C1 1_555 1_555
C5 C1 1_555 1_555
C6 C5 1_555 1_555
C7 C6 1_555 1_555
C8 C7 1_555 1_555
C9 C8 1_555 1_555
C10 C5 1_555 1_555
C11 C8 1_555 1_555
C12 C11 1_555 1_555
C13 C12 1_555 1_555
C14 C13 1_555 1_555
C15 C14 1_555 1_555
C16 C11 1_555 1_555
C17 C2 1_555 1_555
C18 C17 1_555 1_555
C19 C18 1_555 1_555
N1 C19 1_555 1_555
C20 N1 1_555 1_555
C21 C17 1_555 1_555
C22 C3 1_555 1_555
C23 C22 1_555 1_555
C24 C23 1_555 1_555
C25 C24 1_555 1_555
C26 C25 1_555 1_555
C27 C22 1_555 1_555
C28 C25 1_555 1_555
C29 C28 1_555 1_555
C30 C29 1_555 1_555
C31 C30 1_555 1_555
C32 C31 1_555 1_555
C33 C28 1_555 1_555
C34 C4 1_555 1_555
C35 C34 1_555 1_555
C36 C35 1_555 1_555
N2 C36 1_555 1_555
C37 N2 1_555 1_555
C38 C34 1_555 1_555
C9 C10 1_555 1_555
C15 C16 1_555 1_555
C20 C21 1_555 1_555
C26 C27 1_555 1_555
C32 C33 1_555 1_555
C37 C38 1_555 1_555

#END
