
#######################################################################
#
#                 Cambridge Crystallographic Data Centre
#                                CCDC 
#
#######################################################################
#
# If this CIF has been generated from an entry in the Cambridge 
# Structural Database, then it will include bibliographic, chemical, 
# crystal, experimental, refinement or atomic coordinate data resulting 
# from the CCDC's data processing and validation procedures.
#
#######################################################################

data_VINRAO
_chemical_formula_moiety         'C81 H54 N6'
_chemical_name_systematic        
'4-({4-[4,6-bis(4-{[4-(diphenylamino)phenyl]ethynyl}phenyl)-1,3,5-triazin-2-yl]phenyl}ethynyl)-N,N-diphenylaniline unknown solvate'
_symmetry_cell_setting           triclinic
_symmetry_space_group_name_H-M   'P -1'
_symmetry_Int_Tables_number      2
_space_group_name_Hall           '-P 1'
loop_
_symmetry_equiv_pos_site_id
_symmetry_equiv_pos_as_xyz
1 x,y,z
2 -x,-y,-z
_cell_length_a                   9.1413(11)
_cell_length_b                   18.207(2)
_cell_length_c                   21.208(3)
_cell_angle_alpha                80.761(4)
_cell_angle_beta                 87.638(3)
_cell_angle_gamma                80.483(3)
_cell_volume                     3435.63
_exptl_crystal_colour            colorless
_exptl_crystal_description       Block
_cell_formula_units_Z            2
loop_
_atom_site_label
_atom_site_type_symbol
_atom_site_fract_x
_atom_site_fract_y
_atom_site_fract_z
N1 N 0.5396(3) 0.39050(19) 0.44101(16)
N2 N 0.3426(4) 0.48945(19) 0.40782(16)
N3 N 0.3731(3) 0.44121(18) 0.51780(16)
C1 C 0.3028(4) 0.4873(2) 0.4697(2)
C2 C 0.1734(4) 0.5420(2) 0.4846(2)
C3 C 0.4879(4) 0.3925(2) 0.5009(2)
C4 C 0.5174(5) 0.4440(3) 0.3292(2)
C5 C 0.5667(4) 0.3370(2) 0.5524(2)
C6 C 0.4642(4) 0.4414(2) 0.3965(2)
C7 C -0.0744(4) 0.6449(2) 0.5126(2)
C8 C 0.0133(5) 0.6031(3) 0.5608(2)
H1 H -0.0096 0.6090 0.6030
C9 C 0.1364(5) 0.5517(3) 0.5469(2)
H2 H 0.1946 0.5236 0.5800
N4 N 0.8871(5) 0.5172(3) -0.1766(2)
C10 C 0.6748(5) 0.2805(3) 0.5381(2)
H3 H 0.6979 0.2761 0.4956
C11 C -0.2035(5) 0.6977(2) 0.5270(2)
C12 C -0.4355(5) 0.7944(3) 0.5535(2)
C13 C 0.6396(5) 0.3935(3) 0.3126(2)
H4 H 0.6882 0.3572 0.3441
C14 C -0.0382(5) 0.6356(3) 0.4498(2)
H5 H -0.0983 0.6630 0.4169
C15 C 0.0848(5) 0.5867(2) 0.4355(2)
H6 H 0.1100 0.5830 0.3931
C16 C 0.5326(5) 0.3418(3) 0.6159(2)
H7 H 0.4578 0.3793 0.6263
C17 C -0.3098(5) 0.7401(3) 0.5383(2)
C18 C 0.4490(5) 0.4969(3) 0.2816(2)
H8 H 0.3672 0.5310 0.2916
C19 C 0.6180(5) 0.4511(3) 0.2026(2)
C20 C 0.7163(5) 0.2332(3) 0.6497(2)
N5 N -0.7822(4) 0.9555(2) 0.6088(2)
C21 C 0.6089(6) 0.2911(3) 0.6644(2)
H9 H 0.5875 0.2963 0.7069
C22 C 0.4988(6) 0.5003(3) 0.2199(2)
H10 H 0.4505 0.5371 0.1887
C23 C 0.7511(5) 0.2291(3) 0.5867(2)
H11 H 0.8261 0.1917 0.5761
C24 C -0.6646(5) 0.8991(3) 0.5895(3)
C25 C 0.6888(6) 0.3967(3) 0.2505(2)
H12 H 0.7699 0.3624 0.2402
C26 C 0.8427(6) 0.5023(3) -0.1120(2)
C27 C -0.4750(5) 0.8633(3) 0.5144(3)
H13 H -0.4253 0.8742 0.4757
C28 C -0.6314(5) 0.8311(3) 0.6267(3)
H14 H -0.6862 0.8195 0.6639
C29 C 0.9478(6) 0.4554(3) -0.2093(2)
C30 C -0.7452(5) 1.0225(3) 0.6239(3)
C31 C 0.7088(6) 0.4639(3) 0.0825(3)
C32 C -0.5890(5) 0.9157(3) 0.5333(3)
H15 H -0.6142 0.9624 0.5078
C33 C 0.7195(7) 0.5462(4) -0.0893(3)
H16 H 0.6653 0.5850 -0.1170
C34 C 0.7910(6) 0.1794(3) 0.6994(2)
C35 C 0.9491(6) 0.6422(3) -0.1713(3)
H17 H 0.9815 0.6256 -0.1297
C36 C -0.5157(5) 0.7789(3) 0.6092(3)
H18 H -0.4914 0.7326 0.6354
C37 C -1.1210(6) 0.8867(4) 0.5720(4)
H19 H -1.1520 0.8596 0.5429
C38 C -0.8433(6) 1.0902(3) 0.6085(3)
H20 H -0.9322 1.0910 0.5884
C39 C -0.9792(6) 0.9007(4) 0.5692(3)
H21 H -0.9142 0.8831 0.5380
C40 C 0.7547(6) 0.4757(3) 0.0170(2)
C41 C 0.6771(7) 0.5327(4) -0.0265(3)
H22 H 0.5937 0.5627 -0.0124
C42 C -0.6111(6) 1.0237(3) 0.6521(3)
H23 H -0.5452 0.9793 0.6637
C43 C -0.9303(5) 0.9408(3) 0.6120(3)
C44 C 0.8877(7) 0.3902(3) -0.2008(3)
H24 H 0.8061 0.3860 -0.1736
C45 C -1.1696(6) 0.9495(4) 0.6610(4)
H25 H -1.2344 0.9664 0.6925
C46 C 0.8765(7) 0.4324(4) -0.0064(3)
H26 H 0.9312 0.3939 0.0214
C47 C 0.6678(6) 0.4568(3) 0.1373(3)
C48 C -0.8061(6) 1.1558(3) 0.6234(3)
H27 H -0.8734 1.2003 0.6153
C49 C 0.9201(7) 0.4444(4) -0.0698(3)
H28 H 1.0017 0.4134 -0.0842
C50 C 0.8943(6) 0.5925(3) -0.2050(2)
C51 C 0.8500(7) 0.6192(4) -0.2675(3)
H29 H 0.8121 0.5883 -0.2915
C52 C 1.0671(7) 0.4613(4) -0.2510(3)
H30 H 1.1099 0.5049 -0.2581
C53 C 0.9439(8) 0.3328(4) -0.2308(3)
H31 H 0.9014 0.2891 -0.2240
C54 C -0.6738(7) 1.1569(4) 0.6495(3)
H32 H -0.6492 1.2018 0.6583
C55 C 1.0605(8) 0.3370(4) -0.2707(3)
H33 H 1.0994 0.2959 -0.2905
C56 C -0.5778(7) 1.0910(3) 0.6627(3)
H34 H -0.4858 1.0919 0.6795
C57 C 0.8539(8) 0.1332(3) 0.7397(3)
C58 C 0.8633(8) 0.6926(4) -0.2935(3)
H35 H 0.8346 0.7103 -0.3355
C59 C 1.1220(8) 0.4002(4) -0.2824(3)
H36 H 1.2010 0.4033 -0.3113
C60 C 0.9552(8) 0.7138(4) -0.1987(3)
H37 H 0.9871 0.7461 -0.1743
C61 C 0.9308(6) 0.0754(3) 0.7858(2)
C62 C 0.8514(5) 0.0243(4) 0.8221(3)
H38 H 0.7485 0.0318 0.8200
C63 C 0.9259(7) -0.0378(4) 0.8616(4)
H39 H 0.8728 -0.0720 0.8859
C64 C 1.0797(7) -0.0489(4) 0.8647(3)
C65 C 1.1591(5) 0.0021(4) 0.8283(3)
H40 H 1.2620 -0.0053 0.8304
C66 C 1.0847(6) 0.0643(3) 0.7889(3)
H41 H 1.1378 0.0984 0.7645
C67 C 0.9175(8) 0.7405(4) -0.2594(3)
H42 H 0.9274 0.7894 -0.2778
C68 C -1.0258(6) 0.9628(3) 0.6596(3)
H43 H -0.9933 0.9866 0.6908
C69 C -1.2199(6) 0.9125(4) 0.6181(3)
H44 H -1.3180 0.9045 0.6194
N6 N 1.1379(12) -0.1317(6) 0.8909(4)
C70 C 1.0716(12) -0.1549(6) 0.9512(4)
C71 C 1.0757(12) -0.1065(5) 0.9954(5)
H45 H 1.1102 -0.0610 0.9830
C72 C 1.0282(14) -0.1262(6) 1.0580(4)
H46 H 1.0310 -0.0938 1.0875
C73 C 0.9767(12) -0.1942(6) 1.0765(4)
H47 H 0.9449 -0.2073 1.1184
C74 C 0.9725(15) -0.2426(5) 1.0324(6)
H48 H 0.9380 -0.2881 1.0447
C75 C 1.0200(16) -0.2229(6) 0.9697(5)
H49 H 1.0172 -0.2553 0.9402
C76 C 1.2791(11) -0.1678(6) 0.8751(4)
C77 C 1.3779(14) -0.2095(8) 0.9205(3)
H50 H 1.3568 -0.2092 0.9638
C78 C 1.5082(13) -0.2517(8) 0.9014(4)
H51 H 1.5744 -0.2796 0.9318
C79 C 1.5397(11) -0.2521(7) 0.8367(5)
H52 H 1.6269 -0.2803 0.8239
C80 C 1.4409(13) -0.2104(7) 0.7913(4)
H53 H 1.4619 -0.2107 0.7480
C81 C 1.3105(11) -0.1682(6) 0.8105(4)
H54 H 1.2444 -0.1403 0.7801
loop_
_geom_bond_atom_site_label_1
_geom_bond_atom_site_label_2
_geom_bond_site_symmetry_1
_geom_bond_site_symmetry_2
N1 C3 1_555 1_555
N2 C1 1_555 1_555
N3 C1 1_555 1_555
C1 C2 1_555 1_555
C2 C9 1_555 1_555
C3 N3 1_555 1_555
C4 C6 1_555 1_555
C5 C3 1_555 1_555
C6 N1 1_555 1_555
C7 C8 1_555 1_555
C8 H1 1_555 1_555
C9 C8 1_555 1_555
H2 C9 1_555 1_555
N4 C26 1_555 1_555
C10 C5 1_555 1_555
H3 C10 1_555 1_555
C11 C7 1_555 1_555
C12 C17 1_555 1_555
C13 C4 1_555 1_555
H4 C13 1_555 1_555
C14 C7 1_555 1_555
H5 C14 1_555 1_555
C15 C2 1_555 1_555
H6 C15 1_555 1_555
C16 C5 1_555 1_555
H7 C16 1_555 1_555
C17 C11 1_555 1_555
C18 C4 1_555 1_555
H8 C18 1_555 1_555
C19 C22 1_555 1_555
C20 C21 1_555 1_555
N5 C24 1_555 1_555
C21 C16 1_555 1_555
H9 C21 1_555 1_555
C22 C18 1_555 1_555
H10 C22 1_555 1_555
C23 C10 1_555 1_555
H11 C23 1_555 1_555
C24 C28 1_555 1_555
C25 C13 1_555 1_555
H12 C25 1_555 1_555
C26 C33 1_555 1_555
C27 C12 1_555 1_555
H13 C27 1_555 1_555
C28 H14 1_555 1_555
C29 N4 1_555 1_555
C30 N5 1_555 1_555
C31 C40 1_555 1_555
C32 C24 1_555 1_555
H15 C32 1_555 1_555
C33 H16 1_555 1_555
C34 C20 1_555 1_555
C35 H17 1_555 1_555
C36 C12 1_555 1_555
H18 C36 1_555 1_555
C37 H19 1_555 1_555
C38 C30 1_555 1_555
H20 C38 1_555 1_555
C39 C37 1_555 1_555
H21 C39 1_555 1_555
C40 C41 1_555 1_555
C41 C33 1_555 1_555
H22 C41 1_555 1_555
C42 C30 1_555 1_555
H23 C42 1_555 1_555
C43 N5 1_555 1_555
C44 C29 1_555 1_555
H24 C44 1_555 1_555
C45 H25 1_555 1_555
C46 C40 1_555 1_555
H26 C46 1_555 1_555
C47 C19 1_555 1_555
C48 C38 1_555 1_555
H27 C48 1_555 1_555
C49 C26 1_555 1_555
H28 C49 1_555 1_555
C50 N4 1_555 1_555
C51 C50 1_555 1_555
H29 C51 1_555 1_555
C52 C29 1_555 1_555
H30 C52 1_555 1_555
C53 C44 1_555 1_555
H31 C53 1_555 1_555
C54 C48 1_555 1_555
H32 C54 1_555 1_555
C55 C53 1_555 1_555
H33 C55 1_555 1_555
C56 C42 1_555 1_555
H34 C56 1_555 1_555
C57 C34 1_555 1_555
C58 C51 1_555 1_555
H35 C58 1_555 1_555
C59 C52 1_555 1_555
H36 C59 1_555 1_555
C60 C35 1_555 1_555
H37 C60 1_555 1_555
C61 C57 1_555 1_555
C62 C61 1_555 1_555
H38 C62 1_555 1_555
C63 C62 1_555 1_555
H39 C63 1_555 1_555
C64 C63 1_555 1_555
C65 C64 1_555 1_555
H40 C65 1_555 1_555
C66 C61 1_555 1_555
H41 C66 1_555 1_555
C67 C58 1_555 1_555
H42 C67 1_555 1_555
C68 C43 1_555 1_555
H43 C68 1_555 1_555
C69 C37 1_555 1_555
H44 C69 1_555 1_555
N6 C64 1_555 1_555
C70 N6 1_555 1_555
C71 C70 1_555 1_555
H45 C71 1_555 1_555
C72 C71 1_555 1_555
H46 C72 1_555 1_555
C73 C72 1_555 1_555
H47 C73 1_555 1_555
C74 C73 1_555 1_555
H48 C74 1_555 1_555
C75 C70 1_555 1_555
H49 C75 1_555 1_555
C76 N6 1_555 1_555
C77 C76 1_555 1_555
H50 C77 1_555 1_555
C78 C77 1_555 1_555
H51 C78 1_555 1_555
C79 C78 1_555 1_555
H52 C79 1_555 1_555
C80 C79 1_555 1_555
H53 C80 1_555 1_555
C81 C76 1_555 1_555
H54 C81 1_555 1_555
N2 C6 1_555 1_555
C14 C15 1_555 1_555
C19 C25 1_555 1_555
C20 C23 1_555 1_555
C27 C32 1_555 1_555
C28 C36 1_555 1_555
C31 C47 1_555 1_555
C35 C50 1_555 1_555
C39 C43 1_555 1_555
C45 C68 1_555 1_555
C45 C69 1_555 1_555
C46 C49 1_555 1_555
C54 C56 1_555 1_555
C55 C59 1_555 1_555
C60 C67 1_555 1_555
C65 C66 1_555 1_555
C74 C75 1_555 1_555
C80 C81 1_555 1_555

#END
