
#######################################################################
#
#                 Cambridge Crystallographic Data Centre
#                                CCDC 
#
#######################################################################
#
# If this CIF has been generated from an entry in the Cambridge 
# Structural Database, then it will include bibliographic, chemical, 
# crystal, experimental, refinement or atomic coordinate data resulting 
# from the CCDC's data processing and validation procedures.
#
#######################################################################

data_VINRIU
_chemical_formula_moiety         'C16 H15 Cl1 N2 O2'
_chemical_name_systematic        
(2S,4S)-N-Nitroso-4-benzyl-2-(4-chlorophenyl)-1,3-oxazolidine
_symmetry_cell_setting           monoclinic
_symmetry_space_group_name_H-M   'P 21'
_symmetry_Int_Tables_number      4
_space_group_name_Hall           'P 2yb'
loop_
_symmetry_equiv_pos_site_id
_symmetry_equiv_pos_as_xyz
1 x,y,z
2 -x,1/2+y,-z
_cell_length_a                   6.5605(3)
_cell_length_b                   7.0034(4)
_cell_length_c                   16.4669(9)
_cell_angle_alpha                90.00
_cell_angle_beta                 100.873(2)
_cell_angle_gamma                90.00
_cell_volume                     743.003
_exptl_crystal_colour            colorless
_cell_formula_units_Z            2
_exptl_crystal_recrystallization_method 'ethyl acetate'
loop_
_atom_site_label
_atom_site_type_symbol
_atom_site_fract_x
_atom_site_fract_y
_atom_site_fract_z
Cl1 Cl -0.16590(15) 0.70090(15) 0.95942(5)
O1 O 0.3774(2) 0.7761(3) 0.65851(11)
O2 O -0.0661(3) 1.2207(4) 0.55801(14)
N1 N -0.0539(3) 1.0663(4) 0.59594(14)
C1 C -0.0691(5) 0.7253(4) 0.86867(17)
C2 C -0.1832(4) 0.6589(4) 0.79614(18)
H1 H -0.3107 0.6001 0.7953
C3 C 0.4518(4) 1.2385(4) 0.71523(16)
C4 C 0.1606(4) 0.7958(4) 0.64585(16)
H2 H 0.0949 0.7023 0.6049
N2 N 0.1302(3) 0.9909(4) 0.61074(12)
C5 C 0.0824(3) 0.7696(3) 0.72467(14)
C6 C -0.1063(3) 0.6805(4) 0.72394(16)
H3 H -0.1823 0.6346 0.6744
C7 C 0.1205(4) 0.8091(4) 0.87102(16)
H4 H 0.1979 0.8500 0.9212
C8 C 0.3006(5) 1.3037(4) 0.75701(18)
H5 H 0.1746 1.3463 0.7268
C9 C 0.1965(4) 0.8329(4) 0.79979(16)
H6 H 0.3245 0.8914 0.8016
C10 C 0.6368(4) 1.1749(4) 0.76183(17)
H7 H 0.7409 1.1300 0.7355
C11 C 0.4452(4) 0.8783(4) 0.59337(18)
H8 H 0.4258 0.8017 0.5434
H9 H 0.5911 0.9109 0.6090
C12 C 0.6683(5) 1.1775(5) 0.8473(2)
H10 H 0.7936 1.1348 0.8780
C13 C 0.3137(4) 1.0574(4) 0.57957(16)
H11 H 0.2744 1.0812 0.5200
C14 C 0.4121(4) 1.2383(5) 0.62198(17)
H12 H 0.5432 1.2596 0.6043
H13 H 0.3225 1.3455 0.6025
C15 C 0.3321(5) 1.3071(5) 0.8418(2)
H14 H 0.2290 1.3530 0.8684
C16 C 0.5155(6) 1.2427(5) 0.88696(19)
H15 H 0.5369 1.2430 0.9444
loop_
_geom_bond_atom_site_label_1
_geom_bond_atom_site_label_2
_geom_bond_site_symmetry_1
_geom_bond_site_symmetry_2
Cl1 C1 1_555 1_555
O1 C4 1_555 1_555
O2 N1 1_555 1_555
N1 N2 1_555 1_555
C1 C2 1_555 1_555
C2 H1 1_555 1_555
C3 C8 1_555 1_555
C4 H2 1_555 1_555
N2 C4 1_555 1_555
C5 C4 1_555 1_555
C6 C2 1_555 1_555
H3 C6 1_555 1_555
C7 C1 1_555 1_555
H4 C7 1_555 1_555
C8 H5 1_555 1_555
C9 C5 1_555 1_555
H6 C9 1_555 1_555
C10 C3 1_555 1_555
H7 C10 1_555 1_555
C11 O1 1_555 1_555
H8 C11 1_555 1_555
H9 C11 1_555 1_555
C12 C10 1_555 1_555
H10 C12 1_555 1_555
C13 N2 1_555 1_555
H11 C13 1_555 1_555
C14 C3 1_555 1_555
H12 C14 1_555 1_555
H13 C14 1_555 1_555
C15 C8 1_555 1_555
H14 C15 1_555 1_555
C16 C12 1_555 1_555
H15 C16 1_555 1_555
C5 C6 1_555 1_555
C7 C9 1_555 1_555
C11 C13 1_555 1_555
C13 C14 1_555 1_555
C15 C16 1_555 1_555

#END
