
#######################################################################
#
#                 Cambridge Crystallographic Data Centre
#                                CCDC 
#
#######################################################################
#
# If this CIF has been generated from an entry in the Cambridge 
# Structural Database, then it will include bibliographic, chemical, 
# crystal, experimental, refinement or atomic coordinate data resulting 
# from the CCDC's data processing and validation procedures.
#
#######################################################################

data_VINRUH
_chemical_formula_moiety         'C13 H24 F3 K1 O9 S1'
_chemical_name_systematic        
(18-crown-6)-trifluoromethanesulfonato-potassium
_symmetry_cell_setting           monoclinic
_symmetry_space_group_name_H-M   'P 21/n'
_symmetry_Int_Tables_number      14
_space_group_name_Hall           '-P 2yn'
loop_
_symmetry_equiv_pos_site_id
_symmetry_equiv_pos_as_xyz
1 x,y,z
2 1/2-x,1/2+y,1/2-z
3 -x,-y,-z
4 1/2+x,1/2-y,1/2+z
_cell_length_a                   8.5895(19)
_cell_length_b                   16.489(4)
_cell_length_c                   14.088(3)
_cell_angle_alpha                90
_cell_angle_beta                 95.720(3)
_cell_angle_gamma                90
_cell_volume                     1985.38
_exptl_crystal_colour            colorless
_exptl_crystal_description       plate
_cell_formula_units_Z            4
loop_
_atom_site_label
_atom_site_type_symbol
_atom_site_fract_x
_atom_site_fract_y
_atom_site_fract_z
C1 C 0.3079(7) 0.1802(4) 0.6584(4)
F1 F 0.1598(4) 0.1583(2) 0.6476(2)
F2 F 0.3563(5) 0.1730(5) 0.5750(3)
F3 F 0.3084(7) 0.2566(3) 0.6801(4)
S1 S 0.42133(14) 0.12251(8) 0.74854(9)
O1 O 0.5720(5) 0.1553(3) 0.7506(3)
O2 O 0.3461(5) 0.1375(3) 0.8310(3)
O3 O 0.4082(7) 0.0425(3) 0.7143(4)
K1 K 0.58585(12) 0.25200(7) 0.92131(7)
O4 O 0.8165(10) 0.3228(5) 0.8257(9)
C2 C 0.8244(14) 0.4072(8) 0.8367(9)
H1 H 0.9011 0.4303 0.7962
H2 H 0.8578 0.4213 0.9040
C3 C 0.6663(14) 0.4407(9) 0.8080(11)
H3 H 0.6709 0.5006 0.8051
H4 H 0.6267 0.4201 0.7441
O5 O 0.5654(16) 0.4161(8) 0.8765(14)
C4 C 0.4092(16) 0.4422(13) 0.8563(13)
H5 H 0.3570 0.4106 0.8024
H6 H 0.4067 0.5003 0.8383
C5 C 0.328(2) 0.4299(7) 0.9426(12)
H7 H 0.3839 0.4596 0.9968
H8 H 0.2203 0.4515 0.9319
O6 O 0.3236(15) 0.3458(7) 0.9643(12)
C6 C 0.2702(16) 0.3301(6) 1.0547(9)
H9 H 0.1691 0.3580 1.0593
H10 H 0.3468 0.3513 1.1059
C7 C 0.2504(11) 0.2419(6) 1.0668(8)
H11 H 0.1984 0.2311 1.1252
H12 H 0.1839 0.2195 1.0115
O7 O 0.4003(9) 0.2040(5) 1.0741(9)
C8 C 0.3947(12) 0.1185(6) 1.0781(8)
H13 H 0.3422 0.0972 1.0174
H14 H 0.3332 0.1015 1.1304
C9 C 0.5574(14) 0.0840(7) 1.0945(7)
H15 H 0.6119 0.1070 1.1536
H16 H 0.5519 0.0244 1.1022
O8 O 0.6409(10) 0.1028(5) 1.0165(5)
C10 C 0.7922(13) 0.0735(7) 1.0273(8)
H17 H 0.7918 0.0147 1.0416
H18 H 0.8534 0.1016 1.0808
C11 C 0.8633(13) 0.0881(6) 0.9374(8)
H19 H 0.9676 0.0621 0.9406
H20 H 0.7967 0.0640 0.8832
O9 O 0.8785(9) 0.1752(4) 0.9228(6)
C12 C 0.9438(11) 0.1939(7) 0.8392(7)
H21 H 0.8729 0.1761 0.7833
H22 H 1.0450 0.1655 0.8377
C13 C 0.9677(11) 0.2816(7) 0.8353(8)
H23 H 1.0261 0.2952 0.7803
H24 H 1.0302 0.2999 0.8942
O10? O 0.7948(17) 0.3544(9) 0.8184(16)
C14? C 0.771(2) 0.4385(12) 0.8197(17)
H25? H 0.8222 0.4646 0.7679
H26? H 0.8162 0.4613 0.8813
C15? C 0.602(3) 0.4545(16) 0.8069(19)
H27? H 0.5840 0.5137 0.8022
H28? H 0.5564 0.4291 0.7468
O11? O 0.528(3) 0.4224(13) 0.886(2)
C16? C 0.366(3) 0.436(2) 0.874(2)
H29? H 0.3168 0.4042 0.8195
H30? H 0.3439 0.4943 0.8617
C17? C 0.303(3) 0.4105(13) 0.963(2)
H31? H 0.3605 0.4390 1.0181
H32? H 0.1915 0.4256 0.9611
O12? O 0.319(3) 0.3256(13) 0.976(2)
C18? C 0.264(3) 0.2978(11) 1.0618(16)
H33? H 0.1522 0.3125 1.0628
H34? H 0.3241 0.3233 1.1175
C19? C 0.282(2) 0.2088(10) 1.0662(15)
H35? H 0.2357 0.1874 1.1226
H36? H 0.2267 0.1839 1.0084
O13? O 0.4476(19) 0.1876(9) 1.0723(15)
C20? C 0.466(2) 0.1031(10) 1.0700(16)
H37? H 0.4123 0.0812 1.0098
H38? H 0.4178 0.0781 1.1240
C21? C 0.636(2) 0.0831(12) 1.0766(13)
H39? H 0.6920 0.1115 1.1317
H40? H 0.6512 0.0240 1.0857
O14? O 0.6945(15) 0.1081(8) 0.9911(10)
C22? C 0.852(2) 0.0901(13) 0.9947(15)
H41? H 0.8686 0.0308 1.0005
H42? H 0.9101 0.1169 1.0503
C23? C 0.907(2) 0.1205(9) 0.9044(13)
H43? H 1.0135 0.1001 0.8977
H44? H 0.8363 0.1012 0.8492
O15? O 0.9075(16) 0.2081(7) 0.9068(11)
C24? C 0.972(2) 0.2434(12) 0.8307(15)
H45? H 0.9169 0.2238 0.7700
H46? H 1.0836 0.2277 0.8321
C25? C 0.9590(17) 0.3322(10) 0.8362(14)
H47? H 1.0016 0.3513 0.9002
H48? H 1.0197 0.3578 0.7882
loop_
_geom_bond_atom_site_label_1
_geom_bond_atom_site_label_2
_geom_bond_site_symmetry_1
_geom_bond_site_symmetry_2
C1 F1 1_555 1_555
F2 C1 1_555 1_555
F3 C1 1_555 1_555
S1 C1 1_555 1_555
O1 S1 1_555 1_555
O2 S1 1_555 1_555
O3 S1 1_555 1_555
K1 O1 1_555 1_555
O4 K1 1_555 1_555
C2 O4 1_555 1_555
H1 C2 1_555 1_555
H2 C2 1_555 1_555
C3 C2 1_555 1_555
H3 C3 1_555 1_555
H4 C3 1_555 1_555
O5 K1 1_555 1_555
C4 O5 1_555 1_555
H5 C4 1_555 1_555
H6 C4 1_555 1_555
C5 C4 1_555 1_555
H7 C5 1_555 1_555
H8 C5 1_555 1_555
O6 K1 1_555 1_555
C6 O6 1_555 1_555
H9 C6 1_555 1_555
H10 C6 1_555 1_555
C7 C6 1_555 1_555
H11 C7 1_555 1_555
H12 C7 1_555 1_555
O7 K1 1_555 1_555
C8 O7 1_555 1_555
H13 C8 1_555 1_555
H14 C8 1_555 1_555
C9 C8 1_555 1_555
H15 C9 1_555 1_555
H16 C9 1_555 1_555
O8 K1 1_555 1_555
C10 O8 1_555 1_555
H17 C10 1_555 1_555
H18 C10 1_555 1_555
C11 C10 1_555 1_555
H19 C11 1_555 1_555
H20 C11 1_555 1_555
O9 K1 1_555 1_555
C12 O9 1_555 1_555
H21 C12 1_555 1_555
H22 C12 1_555 1_555
C13 O4 1_555 1_555
H23 C13 1_555 1_555
H24 C13 1_555 1_555
O2 K1 1_555 1_555
C3 O5 1_555 1_555
C5 O6 1_555 1_555
C7 O7 1_555 1_555
C9 O8 1_555 1_555
C11 O9 1_555 1_555
C12 C13 1_555 1_555

#END
