
#######################################################################
#
#                 Cambridge Crystallographic Data Centre
#                                CCDC 
#
#######################################################################
#
# If this CIF has been generated from an entry in the Cambridge 
# Structural Database, then it will include bibliographic, chemical, 
# crystal, experimental, refinement or atomic coordinate data resulting 
# from the CCDC's data processing and validation procedures.
#
#######################################################################

data_VINTOD
_chemical_formula_moiety         'C6 H1 N3 O8 2-,2(H2 O1),2(Cs1 1+)'
_chemical_name_systematic        
'di-cesium 2,4,6-trinitrobenzene-1,3-diolate dihydrate'
_symmetry_cell_setting           monoclinic
_symmetry_space_group_name_H-M   'P 21/c'
_symmetry_Int_Tables_number      14
_space_group_name_Hall           '-P 2ybc'
loop_
_symmetry_equiv_pos_site_id
_symmetry_equiv_pos_as_xyz
1 x,y,z
2 -x,1/2+y,1/2-z
3 -x,-y,-z
4 x,1/2-y,1/2+z
_cell_length_a                   6.843(1)
_cell_length_b                   10.185(2)
_cell_length_c                   19.026(4)
_cell_angle_alpha                90
_cell_angle_beta                 96.21(1)
_cell_angle_gamma                90
_cell_volume                     1318.25
_exptl_crystal_colour            yellow
_exptl_crystal_description       Block
_cell_formula_units_Z            4
loop_
_atom_site_label
_atom_site_type_symbol
_atom_site_fract_x
_atom_site_fract_y
_atom_site_fract_z
Cs1 Cs 0.39541(7) 0.32859(4) 0.75628(2)
O1 O 0.2256(10) 0.2962(5) 0.5921(3)
O2 O 0.1850(11) 0.1803(5) 0.4995(3)
O3 O 0.1104(8) 0.3003(4) 0.3745(2)
O4 O 0.2448(8) 0.4479(6) 0.2664(3)
O5 O 0.0598(8) 0.6169(5) 0.2725(3)
O6 O 0.2764(8) 0.7486(4) 0.3773(2)
O7 O 0.2991(9) 0.8603(5) 0.5058(3)
O8 O 0.3702(10) 0.7315(5) 0.5941(3)
N1 N 0.2084(8) 0.2873(5) 0.5276(3)
N2 N 0.1632(8) 0.5296(5) 0.3011(3)
N3 N 0.3181(9) 0.7470(6) 0.5307(3)
C1 C 0.2167(9) 0.4026(6) 0.4850(3)
C2 C 0.1726(9) 0.3985(6) 0.4088(3)
C3 C 0.1941(9) 0.5242(6) 0.3773(3)
C4 C 0.2491(9) 0.6470(6) 0.4106(3)
C5 C 0.2768(9) 0.6360(6) 0.4876(3)
C6 C 0.2625(9) 0.5185(6) 0.5204(3)
H1 H 0.2848 0.5161 0.5695
O9 O 0.4842(9) 0.5171(5) 0.8785(3)
H2 H 0.425(10) 0.582(5) 0.889(3)
H3 H 0.564(19) 0.495(7) 0.912(4)
Cs2 Cs -0.01033(7) 0.49769(4) 0.88506(2)
O10 O 0.2213(9) 0.6267(6) 0.7399(3)
H4 H 0.142(9) 0.660(7) 0.710(3)
loop_
_geom_bond_atom_site_label_1
_geom_bond_atom_site_label_2
_geom_bond_site_symmetry_1
_geom_bond_site_symmetry_2
O1 N1 1_555 1_555
O2 N1 1_555 1_555
O3 C2 1_555 1_555
O4 N2 1_555 1_555
O5 N2 1_555 1_555
O6 C4 1_555 1_555
O7 N3 1_555 1_555
O8 N3 1_555 1_555
N1 C1 1_555 1_555
N2 C3 1_555 1_555
N3 C5 1_555 1_555
C1 C2 1_555 1_555
C2 C3 1_555 1_555
C3 C4 1_555 1_555
C4 C5 1_555 1_555
C5 C6 1_555 1_555
C6 C1 1_555 1_555
H1 C6 1_555 1_555
O9 H2 1_555 1_555
H3 O9 1_555 1_555
O10 H4 1_555 1_555

#END
