
#######################################################################
#
#                 Cambridge Crystallographic Data Centre
#                                CCDC 
#
#######################################################################
#
# If this CIF has been generated from an entry in the Cambridge 
# Structural Database, then it will include bibliographic, chemical, 
# crystal, experimental, refinement or atomic coordinate data resulting 
# from the CCDC's data processing and validation procedures.
#
#######################################################################

data_VINVOF
_chemical_formula_moiety         'C19 H27 N1 O3'
_chemical_name_systematic        
3-(7'-Allyl-3a',6'-dimethyl-5'-oxooctahydrospiro[1,3-dioxolane-2,1'-inden]-6'-yl)propanenitrile
_symmetry_cell_setting           monoclinic
_symmetry_space_group_name_H-M   'P 21/n'
_symmetry_Int_Tables_number      14
_space_group_name_Hall           '-P 2yn'
loop_
_symmetry_equiv_pos_site_id
_symmetry_equiv_pos_as_xyz
1 x,y,z
2 1/2-x,1/2+y,1/2-z
3 -x,-y,-z
4 1/2+x,1/2-y,1/2+z
_cell_length_a                   11.6091(5)
_cell_length_b                   9.1582(4)
_cell_length_c                   17.5280(7)
_cell_angle_alpha                90
_cell_angle_beta                 95.1520(10)
_cell_angle_gamma                90
_cell_volume                     1856.02
_exptl_crystal_colour            colorless
_exptl_crystal_description       block
_cell_formula_units_Z            4
loop_
_atom_site_label
_atom_site_type_symbol
_atom_site_fract_x
_atom_site_fract_y
_atom_site_fract_z
O1 O 1.0751(2) 0.1738(2) 0.09008(13)
O2 O 0.95443(17) 0.13004(17) 0.17973(11)
O3 O 0.78229(16) 0.73303(19) 0.19763(12)
N1 N 0.3721(2) 0.4673(5) 0.1236(2)
C1 C 0.81977(18) 0.6116(2) 0.18724(13)
C2 C 0.79021(18) 0.5316(2) 0.11093(12)
C3 C 0.84422(18) 0.3765(2) 0.11521(12)
H1 H 0.8079 0.3236 0.1553
C4 C 0.97439(18) 0.3832(2) 0.14025(13)
H2 H 1.0120 0.4293 0.0986
C5 C 1.0332(2) 0.2349(3) 0.15632(15)
C6 C 1.1283(3) 0.2650(4) 0.2193(2)
H3 H 1.1520 0.1763 0.2466
H4 H 1.1951 0.3091 0.1991
C7 C 1.0708(3) 0.3697(4) 0.27015(19)
H5 H 1.1277 0.4211 0.3040
H6 H 1.0179 0.3188 0.3007
C8 C 1.0051(2) 0.4761(3) 0.21380(15)
C9 C 0.8956(2) 0.5334(3) 0.24647(14)
H7 H 0.8535 0.4522 0.2661
H8 H 0.9172 0.5992 0.2887
C10 C 0.9951(4) -0.0084(3) 0.1562(3)
H9 H 0.9318 -0.0655 0.1317
H10 H 1.0300 -0.0624 0.1999
C11 C 1.0806(5) 0.0220(4) 0.1022(3)
H11 H 1.1572 -0.0067 0.1235
H12 H 1.0621 -0.0302 0.0546
C12 C 1.0827(2) 0.6054(3) 0.1954(2)
H13 H 1.1011 0.6622 0.2410
H14 H 1.0427 0.6656 0.1568
H15 H 1.1528 0.5692 0.1771
C13 C 0.6572(2) 0.5300(3) 0.09577(14)
H16 H 0.6303 0.6300 0.0902
H17 H 0.6368 0.4807 0.0475
C14 C 0.5949(2) 0.4579(4) 0.15594(17)
H18 H 0.6208 0.3575 0.1617
H19 H 0.6137 0.5073 0.2044
C15 C 0.4692(3) 0.4601(5) 0.13750(18)
C16 C 0.8187(2) 0.2882(3) 0.04008(15)
H20 H 0.7942 0.3555 -0.0010
H21 H 0.8898 0.2424 0.0273
C17 C 0.7290(4) 0.1738(5) 0.0436(3)
H22 H 0.7409 0.1111 0.0853
C18 C 0.6425(6) 0.1477(9) 0.0014(5)
H23 H 0.6240 0.2053 -0.0417
H24 H 0.5947 0.0703 0.0122
C19 C 0.8338(2) 0.6258(3) 0.04682(15)
H25 H 0.7980 0.7202 0.0469
H26 H 0.8145 0.5793 -0.0017
H27 H 0.9162 0.6365 0.0553
loop_
_geom_bond_atom_site_label_1
_geom_bond_atom_site_label_2
_geom_bond_site_symmetry_1
_geom_bond_site_symmetry_2
O1 C5 1_555 1_555
O2 C5 1_555 1_555
O3 C1 1_555 1_555
N1 C15 1_555 1_555
C1 C2 1_555 1_555
C2 C3 1_555 1_555
C3 H1 1_555 1_555
C4 C3 1_555 1_555
H2 C4 1_555 1_555
C5 C4 1_555 1_555
C6 C5 1_555 1_555
H3 C6 1_555 1_555
H4 C6 1_555 1_555
C7 C6 1_555 1_555
H5 C7 1_555 1_555
H6 C7 1_555 1_555
C8 C4 1_555 1_555
C9 C1 1_555 1_555
H7 C9 1_555 1_555
H8 C9 1_555 1_555
C10 O2 1_555 1_555
H9 C10 1_555 1_555
H10 C10 1_555 1_555
C11 O1 1_555 1_555
H11 C11 1_555 1_555
H12 C11 1_555 1_555
C12 C8 1_555 1_555
H13 C12 1_555 1_555
H14 C12 1_555 1_555
H15 C12 1_555 1_555
C13 C2 1_555 1_555
H16 C13 1_555 1_555
H17 C13 1_555 1_555
C14 C13 1_555 1_555
H18 C14 1_555 1_555
H19 C14 1_555 1_555
C15 C14 1_555 1_555
C16 C3 1_555 1_555
H20 C16 1_555 1_555
H21 C16 1_555 1_555
C17 C16 1_555 1_555
H22 C17 1_555 1_555
C18 C17 1_555 1_555
H23 C18 1_555 1_555
H24 C18 1_555 1_555
C19 C2 1_555 1_555
H25 C19 1_555 1_555
H26 C19 1_555 1_555
H27 C19 1_555 1_555
C7 C8 1_555 1_555
C8 C9 1_555 1_555
C10 C11 1_555 1_555

#END
