
#######################################################################
#
#                 Cambridge Crystallographic Data Centre
#                                CCDC 
#
#######################################################################
#
# If this CIF has been generated from an entry in the Cambridge 
# Structural Database, then it will include bibliographic, chemical, 
# crystal, experimental, refinement or atomic coordinate data resulting 
# from the CCDC's data processing and validation procedures.
#
#######################################################################

data_VINVAS
_chemical_formula_moiety         'C42 H48 N24 O12,29(H2 O1)'
_chemical_name_systematic        'hexamethylcucurbit[3,3]uril hydrate'
_symmetry_cell_setting           monoclinic
_symmetry_space_group_name_H-M   'P 21/m'
_symmetry_Int_Tables_number      11
_space_group_name_Hall           '-P 2yb'
loop_
_symmetry_equiv_pos_site_id
_symmetry_equiv_pos_as_xyz
1 x,y,z
2 -x,1/2+y,-z
3 -x,-y,-z
4 x,1/2-y,z
_cell_length_a                   12.676(7)
_cell_length_b                   16.376(9)
_cell_length_c                   16.708(9)
_cell_angle_alpha                90
_cell_angle_beta                 100.489(11)
_cell_angle_gamma                90
_cell_volume                     3410.33
_exptl_crystal_colour            colorless
_cell_formula_units_Z            2
loop_
_atom_site_label
_atom_site_type_symbol
_atom_site_fract_x
_atom_site_fract_y
_atom_site_fract_z
C1 C 0.3776(6) 0.7500 0.4574(4)
C2 C 0.2067(4) 0.7013(3) 0.3936(3)
C3 C 0.1655(5) 0.7500 0.2601(5)
C4 C 0.3587(4) 0.6028(3) 0.4541(3)
H1 H 0.3020 0.5689 0.4682
H2 H 0.4144 0.6073 0.5021
C5 C 0.1725(4) 0.6025(3) 0.2715(3)
H3 H 0.1279 0.6062 0.2179
H4 H 0.1352 0.5683 0.3047
C6 C 0.5082(4) 0.5427(3) 0.3998(3)
C7 C 0.3381(4) 0.5155(3) 0.3280(3)
H5 H 0.2947 0.4754 0.3510
C8 C 0.4212(4) 0.4736(3) 0.2843(3)
H6 H 0.4086 0.4146 0.2789
C9 C 0.3108(4) 0.5594(3) 0.1936(3)
C10 C 0.6207(4) 0.4501(3) 0.3306(3)
H7 H 0.6051 0.3929 0.3188
H8 H 0.6684 0.4531 0.3830
C11 C 0.4477(4) 0.4854(3) 0.1368(3)
H9 H 0.4419 0.4263 0.1344
H10 H 0.4047 0.5070 0.0874
C12 C 0.7609(4) 0.5348(4) 0.2876(4)
C13 C 0.6503(4) 0.4627(3) 0.1829(3)
C14 C 0.7474(4) 0.5044(3) 0.1499(3)
C15 C 0.5839(4) 0.5579(3) 0.0791(3)
C16 C 0.8944(4) 0.6012(4) 0.2234(3)
H11 H 0.9298 0.6043 0.2799
H12 H 0.9426 0.5733 0.1935
C17 C 0.7436(4) 0.6019(3) 0.0265(3)
H13 H 0.8071 0.5729 0.0174
H14 H 0.6950 0.6059 -0.0254
C18 C 0.8824(5) 0.7500 0.2412(5)
C19 C 0.8718(3) 0.7019(3) 0.1059(3)
H15 H 0.9335 0.6799 0.0851
C20 C 0.7205(6) 0.7500 0.0184(4)
C21 C 0.1258(4) 0.6622(3) 0.4387(3)
H16 H 0.0544 0.6759 0.4118
H17 H 0.1346 0.6040 0.4391
H18 H 0.1371 0.6821 0.4937
C22 C 0.6382(5) 0.3698(3) 0.1668(3)
H19 H 0.6216 0.3601 0.1092
H20 H 0.7042 0.3428 0.1893
H21 H 0.5814 0.3488 0.1919
C23 C 0.8254(5) 0.4447(4) 0.1204(4)
H22 H 0.7882 0.4142 0.0749
H23 H 0.8832 0.4747 0.1042
H24 H 0.8538 0.4079 0.1637
N1 N 0.3166(3) 0.6820(2) 0.4327(2)
N2 N 0.4028(3) 0.5626(2) 0.3900(2)
N3 N 0.1841(3) 0.6821(2) 0.3063(2)
N4 N 0.2737(3) 0.5628(3) 0.2638(2)
N5 N 0.5226(3) 0.4915(2) 0.3361(2)
N6 N 0.6756(3) 0.4831(3) 0.2690(2)
N7 N 0.4038(3) 0.5140(3) 0.2055(2)
N8 N 0.5581(3) 0.5078(2) 0.1389(2)
N9 N 0.7981(3) 0.5528(3) 0.2187(3)
N10 N 0.8771(3) 0.6814(3) 0.1925(3)
N11 N 0.6919(3) 0.5541(2) 0.0822(2)
N12 N 0.7741(3) 0.6822(3) 0.0542(2)
O1 O 0.4697(3) 0.7500 0.4956(3)
O2 O 0.5806(3) 0.5631(2) 0.4542(2)
O3 O 0.7968(3) 0.5588(3) 0.3567(2)
O4 O 0.8970(4) 0.7500 0.3146(3)
O5 O 0.1317(4) 0.7500 0.1836(3)
O6 O 0.2691(3) 0.5899(2) 0.1280(2)
O7 O 0.5197(3) 0.5953(2) 0.02965(18)
O8 O 0.6403(4) 0.7500 -0.0331(3)
C2C C 0.2067(4) 0.7987(3) 0.3936(3)
C4C C 0.3587(4) 0.8972(3) 0.4541(3)
H1C H 0.3020 0.9311 0.4682
H2C H 0.4144 0.8927 0.5021
C5C C 0.1725(4) 0.8975(3) 0.2715(3)
H3C H 0.1279 0.8938 0.2179
H4C H 0.1352 0.9317 0.3047
C6C C 0.5082(4) 0.9573(3) 0.3998(3)
C7C C 0.3381(4) 0.9845(3) 0.3280(3)
H5C H 0.2947 1.0246 0.3510
C8C C 0.4212(4) 1.0264(3) 0.2843(3)
H6C H 0.4086 1.0854 0.2789
C9C C 0.3108(4) 0.9406(3) 0.1936(3)
C10C C 0.6207(4) 1.0499(3) 0.3306(3)
H7C H 0.6051 1.1071 0.3188
H8C H 0.6684 1.0469 0.3830
C11C C 0.4477(4) 1.0146(3) 0.1368(3)
H9C H 0.4419 1.0737 0.1344
H10C H 0.4047 0.9930 0.0874
C12C C 0.7609(4) 0.9652(4) 0.2876(4)
C13C C 0.6503(4) 1.0373(3) 0.1829(3)
C14C C 0.7474(4) 0.9956(3) 0.1499(3)
C15C C 0.5839(4) 0.9421(3) 0.0791(3)
C16C C 0.8944(4) 0.8988(4) 0.2234(3)
H11C H 0.9298 0.8957 0.2799
H12C H 0.9426 0.9267 0.1935
C17C C 0.7436(4) 0.8981(3) 0.0265(3)
H13C H 0.8071 0.9271 0.0174
H14C H 0.6950 0.8941 -0.0254
C19C C 0.8718(3) 0.7981(3) 0.1059(3)
H15C H 0.9335 0.8201 0.0851
C21C C 0.1258(4) 0.8378(3) 0.4387(3)
H16C H 0.0544 0.8241 0.4118
H17C H 0.1346 0.8960 0.4391
H18C H 0.1371 0.8179 0.4937
C22C C 0.6382(5) 1.1302(3) 0.1668(3)
H19C H 0.6216 1.1399 0.1092
H20C H 0.7042 1.1572 0.1893
H21C H 0.5814 1.1512 0.1919
C23C C 0.8254(5) 1.0553(4) 0.1204(4)
H22C H 0.7882 1.0858 0.0749
H23C H 0.8832 1.0253 0.1042
H24C H 0.8538 1.0921 0.1637
N1C N 0.3166(3) 0.8180(2) 0.4327(2)
N2C N 0.4028(3) 0.9374(2) 0.3900(2)
N3C N 0.1841(3) 0.8179(2) 0.3063(2)
N4C N 0.2737(3) 0.9372(3) 0.2638(2)
N5C N 0.5226(3) 1.0085(2) 0.3361(2)
N6C N 0.6756(3) 1.0169(3) 0.2690(2)
N7C N 0.4038(3) 0.9860(3) 0.2055(2)
N8C N 0.5581(3) 0.9922(2) 0.1389(2)
N9C N 0.7981(3) 0.9472(3) 0.2187(3)
N10C N 0.8771(3) 0.8186(3) 0.1925(3)
N11C N 0.6919(3) 0.9459(2) 0.0822(2)
N12C N 0.7741(3) 0.8178(3) 0.0542(2)
O2C O 0.5806(3) 0.9369(2) 0.4542(2)
O3C O 0.7968(3) 0.9412(3) 0.3567(2)
O6C O 0.2691(3) 0.9101(2) 0.1280(2)
O7C O 0.5197(3) 0.9047(2) 0.02965(18)
loop_
_geom_bond_atom_site_label_1
_geom_bond_atom_site_label_2
_geom_bond_site_symmetry_1
_geom_bond_site_symmetry_2
C1 N1 1_555 1_555
C2 C21 1_555 1_555
C3 N3 1_555 1_555
C4 H1 1_555 1_555
H2 C4 1_555 1_555
C5 H3 1_555 1_555
H4 C5 1_555 1_555
C6 N2 1_555 1_555
C7 H5 1_555 1_555
C8 C7 1_555 1_555
H6 C8 1_555 1_555
C9 N4 1_555 1_555
C10 H7 1_555 1_555
H8 C10 1_555 1_555
C11 H9 1_555 1_555
H10 C11 1_555 1_555
C12 N6 1_555 1_555
C13 C14 1_555 1_555
C14 C23 1_555 1_555
C15 N8 1_555 1_555
C16 H11 1_555 1_555
H12 C16 1_555 1_555
C17 H13 1_555 1_555
H14 C17 1_555 1_555
C18 N10 1_555 1_555
C19 H15 1_555 1_555
C20 N12 1_555 1_555
C21 H16 1_555 1_555
H17 C21 1_555 1_555
H18 C21 1_555 1_555
C22 C13 1_555 1_555
H19 C22 1_555 1_555
H20 C22 1_555 1_555
H21 C22 1_555 1_555
C23 H22 1_555 1_555
H23 C23 1_555 1_555
H24 C23 1_555 1_555
N1 C2 1_555 1_555
N2 C4 1_555 1_555
N3 C2 1_555 1_555
N4 C5 1_555 1_555
N5 C6 1_555 1_555
N6 C10 1_555 1_555
N7 C8 1_555 1_555
N8 C11 1_555 1_555
N9 C12 1_555 1_555
N10 C16 1_555 1_555
N11 C14 1_555 1_555
N12 C17 1_555 1_555
O1 C1 1_555 1_555
O2 C6 1_555 1_555
O3 C12 1_555 1_555
O4 C18 1_555 1_555
O5 C3 1_555 1_555
O6 C9 1_555 1_555
O7 C15 1_555 1_555
O8 C20 1_555 1_555
C2C C2 1_555 1_555
C4C H1C 1_555 1_555
H2C C4C 1_555 1_555
C5C H3C 1_555 1_555
H4C C5C 1_555 1_555
C6C N2C 1_555 1_555
C7C H5C 1_555 1_555
C8C C7C 1_555 1_555
H6C C8C 1_555 1_555
C9C N4C 1_555 1_555
C10C H7C 1_555 1_555
H8C C10C 1_555 1_555
C11C H9C 1_555 1_555
H10C C11C 1_555 1_555
C12C N6C 1_555 1_555
C13C C14C 1_555 1_555
C14C C23C 1_555 1_555
C15C N8C 1_555 1_555
C16C H11C 1_555 1_555
H12C C16C 1_555 1_555
C17C H13C 1_555 1_555
H14C C17C 1_555 1_555
C19C C19 1_555 1_555
H15C C19C 1_555 1_555
C21C C2C 1_555 1_555
H16C C21C 1_555 1_555
H17C C21C 1_555 1_555
H18C C21C 1_555 1_555
C22C C13C 1_555 1_555
H19C C22C 1_555 1_555
H20C C22C 1_555 1_555
H21C C22C 1_555 1_555
C23C H22C 1_555 1_555
H23C C23C 1_555 1_555
H24C C23C 1_555 1_555
N1C C1 1_555 1_555
N2C C4C 1_555 1_555
N3C C3 1_555 1_555
N4C C5C 1_555 1_555
N5C C6C 1_555 1_555
N6C C10C 1_555 1_555
N7C C8C 1_555 1_555
N8C C11C 1_555 1_555
N9C C12C 1_555 1_555
N10C C18 1_555 1_555
N11C C14C 1_555 1_555
N12C C20 1_555 1_555
O2C C6C 1_555 1_555
O3C C12C 1_555 1_555
O6C C9C 1_555 1_555
O7C C15C 1_555 1_555
C4 N1 1_555 1_555
C5 N3 1_555 1_555
C7 N2 1_555 1_555
C7 N4 1_555 1_555
C8 N5 1_555 1_555
C9 N7 1_555 1_555
C10 N5 1_555 1_555
C11 N7 1_555 1_555
C13 N6 1_555 1_555
C13 N8 1_555 1_555
C14 N9 1_555 1_555
C15 N11 1_555 1_555
C16 N9 1_555 1_555
C17 N11 1_555 1_555
C19 N10 1_555 1_555
C19 N12 1_555 1_555
C2C N1C 1_555 1_555
C2C N3C 1_555 1_555
C4C N1C 1_555 1_555
C5C N3C 1_555 1_555
C7C N2C 1_555 1_555
C7C N4C 1_555 1_555
C8C N5C 1_555 1_555
C9C N7C 1_555 1_555
C10C N5C 1_555 1_555
C11C N7C 1_555 1_555
C13C N6C 1_555 1_555
C13C N8C 1_555 1_555
C14C N9C 1_555 1_555
C15C N11C 1_555 1_555
C16C N9C 1_555 1_555
C16C N10C 1_555 1_555
C17C N11C 1_555 1_555
C17C N12C 1_555 1_555
C19C N10C 1_555 1_555
C19C N12C 1_555 1_555

#END
