
#######################################################################
#
#                 Cambridge Crystallographic Data Centre
#                                CCDC 
#
#######################################################################
#
# If this CIF has been generated from an entry in the Cambridge 
# Structural Database, then it will include bibliographic, chemical, 
# crystal, experimental, refinement or atomic coordinate data resulting 
# from the CCDC's data processing and validation procedures.
#
#######################################################################

data_VIPBON
_chemical_name_common            (24E)-26-Hydroxydesmosterol
_chemical_formula_moiety         'C27 H44 O2'
_chemical_name_systematic        (24E)-Cholesta-5,24-diene-3\b,26-diol
_symmetry_cell_setting           orthorhombic
_symmetry_space_group_name_H-M   'P 21 21 21'
_symmetry_Int_Tables_number      19
_space_group_name_Hall           'P 2ac 2ab'
loop_
_symmetry_equiv_pos_site_id
_symmetry_equiv_pos_as_xyz
1 x,y,z
2 1/2-x,-y,1/2+z
3 -x,1/2+y,1/2-z
4 1/2+x,1/2-y,-z
_cell_length_a                   6.2160(1)
_cell_length_b                   12.014(3)
_cell_length_c                   31.864(7)
_cell_angle_alpha                90
_cell_angle_beta                 90
_cell_angle_gamma                90
_cell_volume                     2379.57
_exptl_crystal_colour            colorless
_exptl_crystal_description       plate
_chemical_melting_point          '183-184 deg.C'
_cell_formula_units_Z            4
_exptl_crystal_recrystallization_method 'ethyl acetate/methanol'
loop_
_atom_site_label
_atom_site_type_symbol
_atom_site_fract_x
_atom_site_fract_y
_atom_site_fract_z
C1 C 0.2523(4) -0.3568(2) -0.33980(6)
H1 H 0.1972 -0.4229 -0.3247
H2 H 0.1754 -0.2909 -0.3287
C2 C 0.1976(5) -0.3691(2) -0.38656(7)
H3 H 0.2611 -0.4388 -0.3976
H4 H 0.0397 -0.3731 -0.3902
C3 C 0.2851(5) -0.2712(2) -0.41052(7)
H5 H 0.2160 -0.2017 -0.3997
O1 O 0.2358(4) -0.28276(19) -0.45459(5)
H6 H 0.137(6) -0.234(3) -0.4615(9)
C4 C 0.5252(5) -0.2622(2) -0.40474(6)
H7 H 0.5780 -0.1952 -0.4196
H8 H 0.5953 -0.3280 -0.4175
C5 C 0.5885(4) -0.25500(17) -0.35888(6)
C6 C 0.7159(5) -0.17531(17) -0.34530(7)
H9 H 0.7646 -0.1226 -0.3654
C7 C 0.7909(5) -0.16039(16) -0.30094(6)
H10 H 0.7209 -0.0936 -0.2889
H11 H 0.9482 -0.1473 -0.3010
C8 C 0.7411(4) -0.26106(15) -0.27303(6)
H12 H 0.8504 -0.3204 -0.2785
C9 C 0.5174(4) -0.30702(17) -0.28326(6)
H13 H 0.4146 -0.2439 -0.2792
C10 C 0.4931(4) -0.34404(17) -0.32997(6)
C11 C 0.4507(4) -0.39765(17) -0.25177(6)
H14 H 0.2982 -0.4173 -0.2569
H15 H 0.5381 -0.4651 -0.2571
C12 C 0.4767(4) -0.36443(17) -0.20553(6)
H16 H 0.3734 -0.3043 -0.1988
H17 H 0.4425 -0.4292 -0.1875
C13 C 0.7038(4) -0.32473(16) -0.19599(6)
C14 C 0.7509(4) -0.22915(15) -0.22693(6)
H18 H 0.6333 -0.1735 -0.2226
C15 C 0.9548(4) -0.17457(17) -0.20998(6)
H19 H 0.9604 -0.0948 -0.2177
H20 H 1.0848 -0.2122 -0.2210
C16 C 0.9379(4) -0.18875(17) -0.16202(6)
H21 H 0.9213 -0.1154 -0.1483
H22 H 1.0691 -0.2250 -0.1509
C17 C 0.7363(4) -0.26298(15) -0.15352(6)
H23 H 0.6109 -0.2118 -0.1498
C18 C 0.8658(4) -0.42034(16) -0.19987(6)
H24 H 0.8666 -0.4480 -0.2288
H25 H 0.8246 -0.4807 -0.1808
H26 H 1.0097 -0.3935 -0.1925
C19 C 0.6117(5) -0.45482(16) -0.33854(6)
H27 H 0.6181 -0.4680 -0.3689
H28 H 0.5340 -0.5160 -0.3250
H29 H 0.7580 -0.4506 -0.3272
C20 C 0.7583(4) -0.33079(16) -0.11283(6)
H30 H 0.8901 -0.3779 -0.1158
C21 C 0.5691(5) -0.4099(2) -0.10508(7)
H31 H 0.5820 -0.4426 -0.0770
H32 H 0.5707 -0.4693 -0.1262
H33 H 0.4337 -0.3685 -0.1071
C22 C 0.7937(4) -0.25481(18) -0.07456(6)
H34 H 0.9169 -0.2050 -0.0804
H35 H 0.8329 -0.3017 -0.0502
C23 C 0.5972(5) -0.1826(2) -0.06250(7)
H36 H 0.5575 -0.1351 -0.0867
H37 H 0.4736 -0.2319 -0.0563
C24 C 0.6385(5) -0.1121(2) -0.02620(7)
H38 H 0.7773 -0.1187 -0.0140
C25 C 0.5050(5) -0.0392(2) -0.00794(7)
C26 C 0.5778(5) 0.02598(19) 0.02903(8)
H39 H 0.4875 0.0060 0.0535
H40 H 0.7280 0.0051 0.0357
C27 C 0.2775(5) -0.0233(2) -0.02186(8)
H41 H 0.2635 -0.0455 -0.0513
H42 H 0.2377 0.0553 -0.0189
H43 H 0.1821 -0.0691 -0.0045
O2 O 0.5674(3) 0.14285(13) 0.02279(5)
H44 H 0.641(6) 0.160(3) -0.0047(10)
loop_
_geom_bond_atom_site_label_1
_geom_bond_atom_site_label_2
_geom_bond_site_symmetry_1
_geom_bond_site_symmetry_2
C1 H1 1_555 1_555
H2 C1 1_555 1_555
C2 C1 1_555 1_555
H3 C2 1_555 1_555
H4 C2 1_555 1_555
C3 C2 1_555 1_555
H5 C3 1_555 1_555
O1 C3 1_555 1_555
H6 O1 1_555 1_555
C4 C3 1_555 1_555
H7 C4 1_555 1_555
H8 C4 1_555 1_555
C5 C4 1_555 1_555
C6 C5 1_555 1_555
H9 C6 1_555 1_555
C7 C6 1_555 1_555
H10 C7 1_555 1_555
H11 C7 1_555 1_555
C8 C7 1_555 1_555
H12 C8 1_555 1_555
C9 C8 1_555 1_555
H13 C9 1_555 1_555
C10 C1 1_555 1_555
C11 C9 1_555 1_555
H14 C11 1_555 1_555
H15 C11 1_555 1_555
C12 C11 1_555 1_555
H16 C12 1_555 1_555
H17 C12 1_555 1_555
C13 C12 1_555 1_555
C14 C8 1_555 1_555
H18 C14 1_555 1_555
C15 C14 1_555 1_555
H19 C15 1_555 1_555
H20 C15 1_555 1_555
C16 C15 1_555 1_555
H21 C16 1_555 1_555
H22 C16 1_555 1_555
C17 C13 1_555 1_555
H23 C17 1_555 1_555
C18 C13 1_555 1_555
H24 C18 1_555 1_555
H25 C18 1_555 1_555
H26 C18 1_555 1_555
C19 C10 1_555 1_555
H27 C19 1_555 1_555
H28 C19 1_555 1_555
H29 C19 1_555 1_555
C20 C17 1_555 1_555
H30 C20 1_555 1_555
C21 C20 1_555 1_555
H31 C21 1_555 1_555
H32 C21 1_555 1_555
H33 C21 1_555 1_555
C22 C20 1_555 1_555
H34 C22 1_555 1_555
H35 C22 1_555 1_555
C23 C22 1_555 1_555
H36 C23 1_555 1_555
H37 C23 1_555 1_555
C24 C23 1_555 1_555
H38 C24 1_555 1_555
C25 C24 1_555 1_555
C26 C25 1_555 1_555
H39 C26 1_555 1_555
H40 C26 1_555 1_555
C27 C25 1_555 1_555
H41 C27 1_555 1_555
H42 C27 1_555 1_555
H43 C27 1_555 1_555
O2 C26 1_555 1_555
H44 O2 1_555 1_555
C5 C10 1_555 1_555
C9 C10 1_555 1_555
C13 C14 1_555 1_555
C16 C17 1_555 1_555

#END
