
#######################################################################
#
#                 Cambridge Crystallographic Data Centre
#                                CCDC 
#
#######################################################################
#
# If this CIF has been generated from an entry in the Cambridge 
# Structural Database, then it will include bibliographic, chemical, 
# crystal, experimental, refinement or atomic coordinate data resulting 
# from the CCDC's data processing and validation procedures.
#
#######################################################################

data_VIPDEF
_chemical_formula_moiety         'C21 H22 F1 N3 O3'
_chemical_name_systematic        
'Ethyl 4-(3-fluorophenyl)-8-oxo-1-phenylhexahydro-6H-pyrazolo[1,2-a][1,2,4]triazine-3-carboxylate'
_symmetry_cell_setting           orthorhombic
_symmetry_space_group_name_H-M   'P 21 21 21'
_symmetry_Int_Tables_number      19
_space_group_name_Hall           'P 2ac 2ab'
loop_
_symmetry_equiv_pos_site_id
_symmetry_equiv_pos_as_xyz
1 x,y,z
2 1/2-x,-y,1/2+z
3 -x,1/2+y,1/2-z
4 1/2+x,1/2-y,-z
_cell_length_a                   8.3502(17)
_cell_length_b                   12.590(3)
_cell_length_c                   18.643(4)
_cell_angle_alpha                90
_cell_angle_beta                 90
_cell_angle_gamma                90
_cell_volume                     1959.92
_exptl_crystal_colour            colorless
_exptl_crystal_description       rod
_cell_formula_units_Z            4
loop_
_atom_site_label
_atom_site_type_symbol
_atom_site_fract_x
_atom_site_fract_y
_atom_site_fract_z
F1 F -0.0040(2) 0.79423(12) 0.59753(9)
O1 O 0.61714(16) 0.29382(11) 0.49867(8)
O2 O -0.04009(18) 0.47182(12) 0.31790(9)
O3 O 0.00364(16) 0.64355(10) 0.34570(7)
N1 N 0.39121(17) 0.38685(11) 0.46806(8)
N2 N 0.29133(17) 0.46534(11) 0.50506(8)
N3 N 0.28481(18) 0.44248(12) 0.35266(9)
H1 H 0.2294 0.3847 0.3433
C1 C 0.1391(2) 0.47367(14) 0.46575(10)
H2 H 0.0919 0.4012 0.4598
C2 C 0.1851(2) 0.51805(14) 0.39171(10)
H3 H 0.2459 0.5858 0.3982
C3 C 0.4266(2) 0.40817(15) 0.39175(10)
H4 H 0.5104 0.4648 0.3885
C4 C 0.4952(2) 0.34200(13) 0.51488(10)
C5 C 0.4345(2) 0.36361(17) 0.58952(10)
H5 H 0.5076 0.4118 0.6158
H6 H 0.4225 0.2968 0.6170
C6 C 0.2730(2) 0.41585(15) 0.57682(10)
H7 H 0.1858 0.3626 0.5768
H8 H 0.2503 0.4701 0.6139
C7 C 0.0373(2) 0.53964(15) 0.34711(10)
C8 C -0.1439(3) 0.67369(19) 0.30919(14)
H9 H -0.2378 0.6434 0.3344
H10 H -0.1434 0.6470 0.2592
C9 C -0.1517(3) 0.7921(2) 0.30983(15)
H11 H -0.0650 0.8209 0.2802
H12 H -0.1401 0.8178 0.3592
H13 H -0.2550 0.8153 0.2905
C10 C 0.0677(2) 0.63881(15) 0.53637(11)
H14 H 0.1770 0.6600 0.5363
C11 C -0.0471(3) 0.70176(16) 0.56769(12)
C12 C -0.2067(3) 0.67586(17) 0.56893(13)
H15 H -0.2833 0.7206 0.5914
C13 C -0.2511(3) 0.58240(17) 0.53634(13)
H16 H -0.3622 0.5629 0.5354
C14 C -0.1400(2) 0.51585(16) 0.50486(11)
H17 H -0.1733 0.4513 0.4831
C15 C 0.0214(2) 0.54392(13) 0.50491(10)
C16 C 0.4862(2) 0.30951(14) 0.35401(10)
C17 C 0.6142(2) 0.31507(18) 0.30677(11)
H18 H 0.6743 0.3789 0.3028
C18 C 0.6546(3) 0.2278(2) 0.26545(12)
H19 H 0.7421 0.2323 0.2330
C19 C 0.5691(3) 0.1343(2) 0.27089(12)
H20 H 0.5966 0.0751 0.2418
C20 C 0.4434(3) 0.12749(17) 0.31882(12)
H21 H 0.3857 0.0628 0.3235
C21 C 0.4011(2) 0.21478(15) 0.36020(11)
H22 H 0.3140 0.2099 0.3928
F2? F -0.3978(6) 0.5654(5) 0.5387(5)
H23? H -0.0140 0.7671 0.5897
loop_
_geom_bond_atom_site_label_1
_geom_bond_atom_site_label_2
_geom_bond_site_symmetry_1
_geom_bond_site_symmetry_2
F1 C11 1_555 1_555
O1 C4 1_555 1_555
O2 C7 1_555 1_555
O3 C7 1_555 1_555
N1 N2 1_555 1_555
N2 C1 1_555 1_555
N3 H1 1_555 1_555
C1 H2 1_555 1_555
C2 N3 1_555 1_555
H3 C2 1_555 1_555
C3 N1 1_555 1_555
H4 C3 1_555 1_555
C4 N1 1_555 1_555
C5 C4 1_555 1_555
H5 C5 1_555 1_555
H6 C5 1_555 1_555
C6 N2 1_555 1_555
H7 C6 1_555 1_555
H8 C6 1_555 1_555
C7 C2 1_555 1_555
C8 O3 1_555 1_555
H9 C8 1_555 1_555
H10 C8 1_555 1_555
C9 C8 1_555 1_555
H11 C9 1_555 1_555
H12 C9 1_555 1_555
H13 C9 1_555 1_555
C10 H14 1_555 1_555
C11 C10 1_555 1_555
C12 C11 1_555 1_555
H15 C12 1_555 1_555
C13 C12 1_555 1_555
H16 C13 1_555 1_555
C14 C13 1_555 1_555
H17 C14 1_555 1_555
C15 C1 1_555 1_555
C16 C3 1_555 1_555
C17 C16 1_555 1_555
H18 C17 1_555 1_555
C18 C17 1_555 1_555
H19 C18 1_555 1_555
C19 C18 1_555 1_555
H20 C19 1_555 1_555
C20 C19 1_555 1_555
H21 C20 1_555 1_555
C21 C16 1_555 1_555
H22 C21 1_555 1_555
N3 C3 1_555 1_555
C1 C2 1_555 1_555
C5 C6 1_555 1_555
C10 C15 1_555 1_555
C14 C15 1_555 1_555
C20 C21 1_555 1_555

#END
