
#######################################################################
#
#                 Cambridge Crystallographic Data Centre
#                                CCDC 
#
#######################################################################
#
# If this CIF has been generated from an entry in the Cambridge 
# Structural Database, then it will include bibliographic, chemical, 
# crystal, experimental, refinement or atomic coordinate data resulting 
# from the CCDC's data processing and validation procedures.
#
#######################################################################

data_VIPFEI
_chemical_formula_moiety         'C14 H15 N1 O2'
_chemical_name_systematic        3-(2,2-dimethylpropanoyl)quinolin-4(1H)-one
_symmetry_cell_setting           monoclinic
_symmetry_space_group_name_H-M   'P 21/n'
_symmetry_Int_Tables_number      14
_space_group_name_Hall           '-P 2yn'
loop_
_symmetry_equiv_pos_site_id
_symmetry_equiv_pos_as_xyz
1 x,y,z
2 1/2-x,1/2+y,1/2-z
3 -x,-y,-z
4 1/2+x,1/2-y,1/2+z
_cell_length_a                   12.6496(17)
_cell_length_b                   9.9333(13)
_cell_length_c                   19.755(3)
_cell_angle_alpha                90
_cell_angle_beta                 100.395(2)
_cell_angle_gamma                90
_cell_volume                     2441.52
_exptl_crystal_colour            colorless
_exptl_crystal_description       block
_cell_formula_units_Z            8
loop_
_atom_site_label
_atom_site_type_symbol
_atom_site_fract_x
_atom_site_fract_y
_atom_site_fract_z
O1 O 0.84623(10) 0.59527(15) 0.36111(7)
O2 O 0.84515(11) 0.68641(17) 0.49280(8)
N1 N 0.52531(12) 0.55157(16) 0.35259(9)
H1 H 0.458215 0.538031 0.352776
C1 C 0.74794(14) 0.58619(19) 0.35899(10)
C2 C 0.69196(14) 0.64110(19) 0.41075(10)
C3 C 0.75153(15) 0.7161(2) 0.46994(10)
C4 C 0.70098(16) 0.8337(2) 0.50378(10)
C5 C 0.61992(19) 0.9141(2) 0.45236(12)
H2 H 0.650530 0.934425 0.412473
H3 H 0.602696 0.996365 0.473428
H4 H 0.555725 0.861819 0.438927
C6 C 0.6466(2) 0.7769(3) 0.56113(12)
H5 H 0.592049 0.713594 0.541827
H6 H 0.614377 0.849105 0.582574
H7 H 0.699219 0.732529 0.594839
C7 C 0.7907(2) 0.9293(3) 0.53547(14)
H8 H 0.839654 0.882893 0.570603
H9 H 0.760463 1.005043 0.555339
H10 H 0.828622 0.959984 0.500434
C8 C 0.58395(15) 0.6173(2) 0.40458(10)
H11 H 0.549520 0.649336 0.439150
C9 C 0.56961(15) 0.5042(2) 0.29796(10)
C10 C 0.67955(15) 0.52101(19) 0.30015(10)
C11 C 0.72384(17) 0.4705(2) 0.24552(12)
H12 H 0.797201 0.479750 0.246262
C12 C 0.6618(2) 0.4081(2) 0.19134(12)
H13 H 0.692792 0.374759 0.155490
C13 C 0.5519(2) 0.3939(2) 0.18943(13)
H14 H 0.509611 0.351835 0.152012
C14 C 0.50571(17) 0.4414(2) 0.24213(12)
H15 H 0.432209 0.431817 0.240707
O3 O 0.36525(11) 0.60049(18) 0.43355(8)
O4 O 0.30063(11) 0.4919(2) 0.30956(8)
N2 N 0.05003(12) 0.62289(16) 0.44698(8)
H16 H -0.017091 0.626741 0.449444
C15 C 0.26847(14) 0.6059(2) 0.43561(10)
C16 C 0.18321(14) 0.55930(19) 0.38111(10)
C17 C 0.20784(15) 0.4997(2) 0.31751(10)
C18 C 0.12137(15) 0.4475(2) 0.25789(10)
C19 C 0.04846(19) 0.5634(3) 0.22651(12)
H17 H 0.005397 0.593182 0.258977
H18 H 0.002469 0.532880 0.185328
H19 H 0.091904 0.636740 0.215593
C20 C 0.17904(19) 0.3926(3) 0.20194(12)
H20 H 0.221721 0.462623 0.186893
H21 H 0.126868 0.361645 0.163667
H22 H 0.224709 0.319073 0.220159
C21 C 0.0560(2) 0.3319(3) 0.28132(14)
H23 H 0.103957 0.263532 0.303201
H24 H 0.009461 0.294207 0.242109
H25 H 0.013548 0.365569 0.313314
C22 C 0.07868(14) 0.5709(2) 0.39101(10)
H26 H 0.024479 0.540328 0.356214
C23 C 0.12462(14) 0.67086(18) 0.50124(10)
C24 C 0.23322(14) 0.66343(19) 0.49658(10)
C25 C 0.30874(15) 0.7109(2) 0.55215(10)
H27 H 0.381571 0.707364 0.550136
C26 C 0.27662(17) 0.7624(2) 0.60922(11)
H28 H 0.327667 0.793366 0.645777
C27 C 0.16807(17) 0.7688(2) 0.61305(11)
H29 H 0.146853 0.803708 0.652185
C28 C 0.09236(16) 0.7239(2) 0.55945(10)
H30 H 0.019726 0.728805 0.561912
loop_
_geom_bond_atom_site_label_1
_geom_bond_atom_site_label_2
_geom_bond_site_symmetry_1
_geom_bond_site_symmetry_2
O1 C1 1_555 1_555
O2 C3 1_555 1_555
N1 H1 1_555 1_555
C1 C2 1_555 1_555
C2 C3 1_555 1_555
C3 C4 1_555 1_555
C4 C5 1_555 1_555
C5 H2 1_555 1_555
H3 C5 1_555 1_555
H4 C5 1_555 1_555
C6 C4 1_555 1_555
H5 C6 1_555 1_555
H6 C6 1_555 1_555
H7 C6 1_555 1_555
C7 C4 1_555 1_555
H8 C7 1_555 1_555
H9 C7 1_555 1_555
H10 C7 1_555 1_555
C8 N1 1_555 1_555
H11 C8 1_555 1_555
C9 N1 1_555 1_555
C10 C1 1_555 1_555
C11 C10 1_555 1_555
H12 C11 1_555 1_555
C12 C11 1_555 1_555
H13 C12 1_555 1_555
C13 C12 1_555 1_555
H14 C13 1_555 1_555
C14 C9 1_555 1_555
H15 C14 1_555 1_555
O3 C15 1_555 1_555
O4 C17 1_555 1_555
N2 H16 1_555 1_555
C15 C16 1_555 1_555
C16 C17 1_555 1_555
C17 C18 1_555 1_555
C18 C19 1_555 1_555
C19 H17 1_555 1_555
H18 C19 1_555 1_555
H19 C19 1_555 1_555
C20 C18 1_555 1_555
H20 C20 1_555 1_555
H21 C20 1_555 1_555
H22 C20 1_555 1_555
C21 C18 1_555 1_555
H23 C21 1_555 1_555
H24 C21 1_555 1_555
H25 C21 1_555 1_555
C22 N2 1_555 1_555
H26 C22 1_555 1_555
C23 N2 1_555 1_555
C24 C15 1_555 1_555
C25 C24 1_555 1_555
H27 C25 1_555 1_555
C26 C25 1_555 1_555
H28 C26 1_555 1_555
C27 C26 1_555 1_555
H29 C27 1_555 1_555
C28 C23 1_555 1_555
H30 C28 1_555 1_555
C2 C8 1_555 1_555
C9 C10 1_555 1_555
C13 C14 1_555 1_555
C16 C22 1_555 1_555
C23 C24 1_555 1_555
C27 C28 1_555 1_555

#END
