
#######################################################################
#
#                 Cambridge Crystallographic Data Centre
#                                CCDC 
#
#######################################################################
#
# If this CIF has been generated from an entry in the Cambridge 
# Structural Database, then it will include bibliographic, chemical, 
# crystal, experimental, refinement or atomic coordinate data resulting 
# from the CCDC's data processing and validation procedures.
#
#######################################################################

data_VIPGEJ
_chemical_formula_moiety         'C30 H22 Cl2 N2 O3,C1 H1 Cl3'
_chemical_name_systematic        
"(3,10-dichloro-6a-phenyl-6a,6b-dihydro-5H,8H,14H-dibenzo[d,d']imidazo[4,3-b:5,1-b']bis[1,3]oxazin-14-yl)(phenyl)methanone chloroform solvate"
_symmetry_cell_setting           monoclinic
_symmetry_space_group_name_H-M   'P 21/c'
_symmetry_Int_Tables_number      14
_space_group_name_Hall           '-P 2ybc'
loop_
_symmetry_equiv_pos_site_id
_symmetry_equiv_pos_as_xyz
1 x,y,z
2 -x,1/2+y,1/2-z
3 -x,-y,-z
4 x,1/2-y,1/2+z
_cell_length_a                   8.2095(10)
_cell_length_b                   37.859(5)
_cell_length_c                   9.6673(12)
_cell_angle_alpha                90
_cell_angle_beta                 99.332(2)
_cell_angle_gamma                90
_cell_volume                     2964.86
_cell_formula_units_Z            4
loop_
_atom_site_label
_atom_site_type_symbol
_atom_site_fract_x
_atom_site_fract_y
_atom_site_fract_z
C1 C 0.7355(4) 0.30499(8) 0.3588(3)
C2 C 0.8017(4) 0.30209(8) 0.4989(3)
H1 H 0.8923 0.2876 0.5271
C3 C 0.7321(3) 0.32097(7) 0.5970(3)
C4 C 0.8017(4) 0.31795(9) 0.7503(3)
H2 H 0.7882 0.2938 0.7802
H3 H 0.9191 0.3229 0.7631
C5 C 0.5532(3) 0.34509(7) 0.7928(3)
C6 C 0.5953(3) 0.34221(7) 0.5530(3)
C7 C 0.5297(4) 0.34422(8) 0.4110(3)
H4 H 0.4373 0.3582 0.3818
C8 C 0.6005(4) 0.32578(8) 0.3137(3)
H5 H 0.5575 0.3274 0.2188
C9 C 0.4952(4) 0.37463(7) 0.8820(3)
H6 H 0.3757 0.3728 0.8798
C10 C 0.5755(3) 0.39843(7) 0.6740(3)
H7 H 0.6956 0.3996 0.6791
C11 C 0.5359(5) 0.40356(8) 1.0965(3)
H8 H 0.5845 0.4016 1.1946
H9 H 0.4172 0.4054 1.0905
C12 C 0.4921(3) 0.42149(7) 0.5519(3)
C13 C 0.3131(3) 0.42871(7) 0.5293(3)
C14 C 0.2003(4) 0.40940(8) 0.5905(3)
H10 H 0.2362 0.3909 0.6511
C15 C 0.0339(4) 0.41771(11) 0.5610(4)
H11 H -0.0420 0.4045 0.6009
C16 C -0.0193(5) 0.44518(13) 0.4737(4)
H12 H -0.1310 0.4508 0.4553
C17 C 0.0914(6) 0.46431(13) 0.4136(5)
H13 H 0.0546 0.4831 0.3546
C18 C 0.2552(5) 0.45624(10) 0.4392(4)
H14 H 0.3290 0.4692 0.3961
C19 C 0.6014(4) 0.43553(7) 1.0341(3)
C20 C 0.6058(3) 0.43532(7) 0.8896(3)
C21 C 0.6785(4) 0.46359(8) 0.8306(3)
H15 H 0.6847 0.4635 0.7354
C22 C 0.7418(4) 0.49180(8) 0.9138(3)
H16 H 0.7908 0.5106 0.8745
C23 C 0.7320(4) 0.49190(8) 1.0544(3)
C24 C 0.6644(4) 0.46375(7) 1.1150(3)
H17 H 0.6613 0.4638 1.2107
C25 C 0.4606(3) 0.31092(7) 0.8024(3)
C26 C 0.5139(4) 0.28831(8) 0.9125(3)
H18 H 0.6079 0.2940 0.9759
C27 C 0.4298(5) 0.25737(9) 0.9300(4)
H19 H 0.4670 0.2425 1.0049
C28 C 0.2915(4) 0.24877(9) 0.8366(4)
H20 H 0.2343 0.2281 0.8480
C29 C 0.2380(4) 0.27086(9) 0.7259(4)
H21 H 0.1450 0.2648 0.6619
C30 C 0.3208(4) 0.30205(8) 0.7086(3)
H22 H 0.2824 0.3170 0.6340
Cl1 Cl 0.82745(13) 0.28144(2) 0.23674(9)
Cl2 Cl 0.80966(12) 0.52742(2) 1.15955(10)
N1 N 0.5207(3) 0.36126(5) 0.6544(2)
N2 N 0.5330(3) 0.40685(6) 0.8103(2)
O1 O 0.5800(3) 0.43330(7) 0.4742(3)
O2 O 0.5764(3) 0.37279(5) 1.02081(19)
O3 O 0.7266(2) 0.34117(5) 0.83813(19)
C31 C 0.9922(5) 0.63824(10) 0.9180(4)
H23 H 1.1049 0.6469 0.9482
Cl3 Cl 0.85415(15) 0.67149(3) 0.94710(13)
Cl4 Cl 0.96286(17) 0.60102(4) 1.01588(19)
Cl5 Cl 0.9681(2) 0.62821(5) 0.73992(15)
loop_
_geom_bond_atom_site_label_1
_geom_bond_atom_site_label_2
_geom_bond_site_symmetry_1
_geom_bond_site_symmetry_2
C1 C2 1_555 1_555
C2 H1 1_555 1_555
C3 C2 1_555 1_555
C4 C3 1_555 1_555
H2 C4 1_555 1_555
H3 C4 1_555 1_555
C5 C9 1_555 1_555
C6 C3 1_555 1_555
C7 C6 1_555 1_555
H4 C7 1_555 1_555
C8 C1 1_555 1_555
H5 C8 1_555 1_555
C9 H6 1_555 1_555
C10 H7 1_555 1_555
C11 H8 1_555 1_555
H9 C11 1_555 1_555
C12 C10 1_555 1_555
C13 C12 1_555 1_555
C14 C13 1_555 1_555
H10 C14 1_555 1_555
C15 C14 1_555 1_555
H11 C15 1_555 1_555
C16 C15 1_555 1_555
H12 C16 1_555 1_555
C17 C16 1_555 1_555
H13 C17 1_555 1_555
C18 C13 1_555 1_555
H14 C18 1_555 1_555
C19 C11 1_555 1_555
C20 C19 1_555 1_555
C21 C20 1_555 1_555
H15 C21 1_555 1_555
C22 C21 1_555 1_555
H16 C22 1_555 1_555
C23 C22 1_555 1_555
C24 C19 1_555 1_555
H17 C24 1_555 1_555
C25 C5 1_555 1_555
C26 C25 1_555 1_555
H18 C26 1_555 1_555
C27 C26 1_555 1_555
H19 C27 1_555 1_555
C28 C27 1_555 1_555
H20 C28 1_555 1_555
C29 C28 1_555 1_555
H21 C29 1_555 1_555
C30 C25 1_555 1_555
H22 C30 1_555 1_555
Cl1 C1 1_555 1_555
Cl2 C23 1_555 1_555
N1 C5 1_555 1_555
N2 C9 1_555 1_555
O1 C12 1_555 1_555
O2 C9 1_555 1_555
O3 C4 1_555 1_555
C31 H23 1_555 1_555
Cl3 C31 1_555 1_555
Cl4 C31 1_555 1_555
Cl5 C31 1_555 1_555
C5 O3 1_555 1_555
C6 N1 1_555 1_555
C7 C8 1_555 1_555
C10 N1 1_555 1_555
C10 N2 1_555 1_555
C11 O2 1_555 1_555
C17 C18 1_555 1_555
C20 N2 1_555 1_555
C23 C24 1_555 1_555
C29 C30 1_555 1_555

#END
