
#######################################################################
#
#                 Cambridge Crystallographic Data Centre
#                                CCDC 
#
#######################################################################
#
# If this CIF has been generated from an entry in the Cambridge 
# Structural Database, then it will include bibliographic, chemical, 
# crystal, experimental, refinement or atomic coordinate data resulting 
# from the CCDC's data processing and validation procedures.
#
#######################################################################

data_VIPHUZ
_chemical_formula_moiety         'C44 H36 N6 O8 2+,2(Cl1 1-),2(C1 H2 Cl2)'
_chemical_name_systematic        
'3,4,17,18-tetrakis(ethoxycarbonyl)-32,33,37,38-tetraaza-29,34-diazonianonacyclo[18.8.4.46,15.12,5.116,19.09,36.012,35.023,31.026,30]octatriaconta-1(29),2,4,6(37),7,9(36),10,12(35),13,15(34),16,18,20(32),21,23,25,27,30-octadecaene dichloride dichloromethane solvate'
_symmetry_cell_setting           triclinic
_symmetry_space_group_name_H-M   'P -1'
_symmetry_Int_Tables_number      2
_space_group_name_Hall           '-P 1'
loop_
_symmetry_equiv_pos_site_id
_symmetry_equiv_pos_as_xyz
1 x,y,z
2 -x,-y,-z
_cell_length_a                   9.1997(4)
_cell_length_b                   9.2382(4)
_cell_length_c                   15.5668(7)
_cell_angle_alpha                74.244(2)
_cell_angle_beta                 84.199(2)
_cell_angle_gamma                62.192(2)
_cell_volume                     1125.74
_exptl_crystal_colour            'yellow orange'
_exptl_crystal_description       Plates
_cell_formula_units_Z            1
loop_
_atom_site_label
_atom_site_type_symbol
_atom_site_fract_x
_atom_site_fract_y
_atom_site_fract_z
Cl1 Cl 0.14132(8) 0.53782(8) 0.41373(4)
O1 O 0.3715(3) 0.6129(3) 0.81786(13)
O2 O 0.1358(2) 0.5978(2) 0.85654(12)
O3 O 0.6285(3) 0.0763(3) 0.80294(13)
O4 O 0.4585(2) 0.2419(2) 0.88897(12)
N1 N 0.2109(3) 0.4339(3) 0.62049(14)
H1 H 0.1644 0.4486 0.5700
N2 N -0.0650(3) 0.7724(3) 0.56730(13)
H2 H -0.0629 0.6900 0.5483
N3 N -0.2713(3) 0.8357(3) 0.43113(14)
C1 C 0.3303(3) 0.2850(3) 0.66624(17)
C2 C 0.3741(3) 0.3140(3) 0.74188(17)
C3 C 0.2722(3) 0.4860(3) 0.73928(17)
C4 C 0.1714(3) 0.5590(3) 0.66270(16)
C5 C 0.0481(3) 0.7324(3) 0.62972(16)
C6 C 0.0410(3) 0.8652(3) 0.66064(17)
H3 H 0.1210 0.8415 0.7034
C7 C -0.0786(3) 1.0272(3) 0.63033(17)
H4 H -0.0841 1.1140 0.6541
C8 C -0.1939(3) 1.0667(3) 0.56412(17)
C9 C -0.3184(3) 1.2350(3) 0.52771(18)
H5 H -0.3282 1.3248 0.5503
C10 C -0.4226(3) 1.2681(3) 0.46158(18)
H6 H -0.5042 1.3809 0.4381
C11 C -0.4114(3) 1.1356(3) 0.42663(17)
C12 C -0.5128(3) 1.1629(3) 0.35607(18)
H7 H -0.5950 1.2740 0.3299
C13 C -0.4935(3) 1.0304(3) 0.32494(17)
H8 H -0.5626 1.0483 0.2777
C14 C -0.3694(3) 0.8662(3) 0.36411(16)
C15 C -0.2919(3) 0.9671(3) 0.46150(16)
C16 C -0.1829(3) 0.9340(3) 0.53178(17)
C17 C 0.2701(4) 0.5709(3) 0.80851(17)
C18 C 0.1150(4) 0.6855(4) 0.9257(2)
H9 H 0.1407 0.7817 0.9022
H10 H 0.1894 0.6072 0.9777
C19 C -0.0601(4) 0.7477(5) 0.9523(2)
H11 H -0.1324 0.8205 0.8996
H12 H -0.0807 0.8126 0.9965
H13 H -0.0823 0.6510 0.9782
C20 C 0.5018(4) 0.1958(3) 0.81194(18)
C21 C 0.5842(4) 0.1524(4) 0.96059(18)
H14 H 0.6858 0.1615 0.9401
H15 H 0.6111 0.0311 0.9799
C22 C 0.5139(4) 0.2345(4) 1.0360(2)
H16 H 0.4896 0.3539 1.0163
H17 H 0.5937 0.1770 1.0863
H18 H 0.4125 0.2264 1.0549
O1A O -0.3715(3) 0.3871(3) 0.18214(13)
O2A O -0.1358(2) 0.4022(2) 0.14346(12)
O3A O -0.6285(3) 0.9237(3) 0.19706(13)
O4A O -0.4585(2) 0.7581(2) 0.11103(12)
N1A N -0.2109(3) 0.5661(3) 0.37951(14)
H1A H -0.1644 0.5514 0.4300
N2A N 0.0650(3) 0.2276(3) 0.43270(13)
H2A H 0.0629 0.3100 0.4517
N3A N 0.2713(3) 0.1643(3) 0.56887(14)
C1A C -0.3303(3) 0.7150(3) 0.33376(17)
C2A C -0.3741(3) 0.6860(3) 0.25812(17)
C3A C -0.2722(3) 0.5140(3) 0.26072(17)
C4A C -0.1714(3) 0.4410(3) 0.33730(16)
C5A C -0.0481(3) 0.2676(3) 0.37028(16)
C6A C -0.0410(3) 0.1348(3) 0.33936(17)
H3A H -0.1210 0.1585 0.2966
C7A C 0.0786(3) -0.0272(3) 0.36967(17)
H4A H 0.0841 -0.1140 0.3459
C8A C 0.1939(3) -0.0667(3) 0.43588(17)
C9A C 0.3184(3) -0.2350(3) 0.47229(18)
H5A H 0.3282 -0.3248 0.4497
C10A C 0.4226(3) -0.2681(3) 0.53842(18)
H6A H 0.5042 -0.3809 0.5619
C11A C 0.4114(3) -0.1356(3) 0.57337(17)
C12A C 0.5128(3) -0.1629(3) 0.64393(18)
H7A H 0.5950 -0.2740 0.6701
C13A C 0.4935(3) -0.0304(3) 0.67506(17)
H8A H 0.5626 -0.0483 0.7223
C14A C 0.3694(3) 0.1338(3) 0.63589(16)
C15A C 0.2919(3) 0.0329(3) 0.53850(16)
C16A C 0.1829(3) 0.0660(3) 0.46822(17)
C17A C -0.2701(4) 0.4291(3) 0.19149(17)
C18A C -0.1150(4) 0.3145(4) 0.0743(2)
H9A H -0.1407 0.2183 0.0978
H10A H -0.1894 0.3928 0.0223
C19A C 0.0601(4) 0.2523(5) 0.0477(2)
H11A H 0.1324 0.1795 0.1004
H12A H 0.0807 0.1874 0.0035
H13A H 0.0823 0.3490 0.0218
C20A C -0.5018(4) 0.8042(3) 0.18806(18)
C21A C -0.5842(4) 0.8476(4) 0.03941(18)
H14A H -0.6858 0.8385 0.0599
H15A H -0.6111 0.9689 0.0201
C22A C -0.5139(4) 0.7655(4) -0.0360(2)
H16A H -0.4896 0.6461 -0.0163
H17A H -0.5937 0.8230 -0.0863
H18A H -0.4125 0.7736 -0.0549
C23 C 0.0253(4) 0.6568(4) 0.1955(2)
H19 H -0.0384 0.6258 0.1628
H20 H 0.0150 0.6142 0.2602
Cl2 Cl 0.23405(12) 0.56058(14) 0.16765(6)
Cl3 Cl -0.05654(16) 0.87827(12) 0.16851(7)
loop_
_geom_bond_atom_site_label_1
_geom_bond_atom_site_label_2
_geom_bond_site_symmetry_1
_geom_bond_site_symmetry_2
O1 C17 1_555 1_555
O2 C17 1_555 1_555
O3 C20 1_555 1_555
O4 C20 1_555 1_555
N1 H1 1_555 1_555
N2 H2 1_555 1_555
N3 C14 1_555 1_555
C1 N1 1_555 1_555
C2 C1 1_555 1_555
C3 C2 1_555 1_555
C4 N1 1_555 1_555
C5 N2 1_555 1_555
C6 C5 1_555 1_555
H3 C6 1_555 1_555
C7 C6 1_555 1_555
H4 C7 1_555 1_555
C8 C7 1_555 1_555
C9 C8 1_555 1_555
H5 C9 1_555 1_555
C10 C9 1_555 1_555
H6 C10 1_555 1_555
C11 C10 1_555 1_555
C12 C11 1_555 1_555
H7 C12 1_555 1_555
C13 C12 1_555 1_555
H8 C13 1_555 1_555
C14 C13 1_555 1_555
C15 N3 1_555 1_555
C16 N2 1_555 1_555
C17 C3 1_555 1_555
C18 O2 1_555 1_555
H9 C18 1_555 1_555
H10 C18 1_555 1_555
C19 C18 1_555 1_555
H11 C19 1_555 1_555
H12 C19 1_555 1_555
H13 C19 1_555 1_555
C20 C2 1_555 1_555
C21 O4 1_555 1_555
H14 C21 1_555 1_555
H15 C21 1_555 1_555
C22 C21 1_555 1_555
H16 C22 1_555 1_555
H17 C22 1_555 1_555
H18 C22 1_555 1_555
C23 H19 1_555 1_555
H20 C23 1_555 1_555
Cl2 C23 1_555 1_555
Cl3 C23 1_555 1_555
O1A C17A 1_555 1_555
O2A C17A 1_555 1_555
O3A C20A 1_555 1_555
O4A C20A 1_555 1_555
N1A H1A 1_555 1_555
N2A H2A 1_555 1_555
N3A C14A 1_555 1_555
C1A C14 1_555 1_555
C2A C1A 1_555 1_555
C3A C2A 1_555 1_555
C4A N1A 1_555 1_555
C5A N2A 1_555 1_555
C6A C5A 1_555 1_555
H3A C6A 1_555 1_555
C7A C6A 1_555 1_555
H4A C7A 1_555 1_555
C8A C7A 1_555 1_555
C9A C8A 1_555 1_555
H5A C9A 1_555 1_555
C10A C9A 1_555 1_555
H6A C10A 1_555 1_555
C11A C10A 1_555 1_555
C12A C11A 1_555 1_555
H7A C12A 1_555 1_555
C13A C12A 1_555 1_555
H8A C13A 1_555 1_555
C14A C1 1_555 1_555
C15A N3A 1_555 1_555
C16A N2A 1_555 1_555
C17A C3A 1_555 1_555
C18A O2A 1_555 1_555
H9A C18A 1_555 1_555
H10A C18A 1_555 1_555
C19A C18A 1_555 1_555
H11A C19A 1_555 1_555
H12A C19A 1_555 1_555
H13A C19A 1_555 1_555
C20A C2A 1_555 1_555
C21A O4A 1_555 1_555
H14A C21A 1_555 1_555
H15A C21A 1_555 1_555
C22A C21A 1_555 1_555
H16A C22A 1_555 1_555
H17A C22A 1_555 1_555
H18A C22A 1_555 1_555
C3 C4 1_555 1_555
C4 C5 1_555 1_555
C8 C16 1_555 1_555
C11 C15 1_555 1_555
C15 C16 1_555 1_555
N1A C1A 1_555 1_555
C3A C4A 1_555 1_555
C4A C5A 1_555 1_555
C8A C16A 1_555 1_555
C11A C15A 1_555 1_555
C13A C14A 1_555 1_555
C15A C16A 1_555 1_555

#END
