
#######################################################################
#
#                 Cambridge Crystallographic Data Centre
#                                CCDC 
#
#######################################################################
#
# If this CIF has been generated from an entry in the Cambridge 
# Structural Database, then it will include bibliographic, chemical, 
# crystal, experimental, refinement or atomic coordinate data resulting 
# from the CCDC's data processing and validation procedures.
#
#######################################################################

data_VIPHEK
_chemical_formula_moiety         'C21 H23 N1 O5,0.5(C3 H6 O1)'
_chemical_name_systematic        
'3,4-dimethoxy-6-methyl-5,7,8,15-tetrahydro-11H-benzo[c][1,3]benzodioxolo[5,6-g]azecin-14(6H)-one acetone solvate'
_symmetry_cell_setting           monoclinic
_symmetry_space_group_name_H-M   'P 21/n'
_symmetry_Int_Tables_number      14
_space_group_name_Hall           '-P 2yn'
loop_
_symmetry_equiv_pos_site_id
_symmetry_equiv_pos_as_xyz
1 x,y,z
2 1/2-x,1/2+y,1/2-z
3 -x,-y,-z
4 1/2+x,1/2-y,1/2+z
_cell_length_a                   10.5721(11)
_cell_length_b                   14.2791(15)
_cell_length_c                   13.9602(16)
_cell_angle_alpha                90
_cell_angle_beta                 109.686(2)
_cell_angle_gamma                90
_cell_volume                     1984.26
_exptl_crystal_colour            colorless
_exptl_crystal_description       block
_cell_formula_units_Z            4
loop_
_atom_site_label
_atom_site_type_symbol
_atom_site_fract_x
_atom_site_fract_y
_atom_site_fract_z
O1 O 0.48154(11) 0.68647(8) 0.73957(8)
O2 O 0.28650(10) 0.32222(8) 0.60627(9)
O3 O 0.50949(11) 0.25266(8) 0.74374(9)
O4 O 0.47252(13) 1.03701(8) 0.64762(10)
O5 O 0.31557(13) 1.05250(8) 0.48562(10)
N1 N 0.23275(12) 0.59935(9) 0.57196(9)
C1 C 0.39431(14) 0.46969(11) 0.60438(11)
C2 C 0.51243(14) 0.52382(11) 0.63379(11)
C3 C 0.40185(14) 0.78432(11) 0.59490(11)
C4 C 0.30370(15) 0.79354(11) 0.49744(11)
C5 C 0.39820(14) 0.37905(11) 0.64169(12)
C6 C 0.33300(16) 0.95951(11) 0.51189(12)
C7 C 0.45604(14) 0.69383(11) 0.64777(11)
C8 C 0.50933(14) 0.62118(11) 0.59149(12)
H1 H 0.4522 0.6211 0.5189
H2 H 0.6014 0.6390 0.5953
C9 C 0.63180(15) 0.39752(12) 0.74268(12)
H3 H 0.7122 0.3741 0.7910
C10 C 0.62847(14) 0.48711(11) 0.70275(12)
H4 H 0.7079 0.5240 0.7234
C11 C 0.26605(14) 0.51093(11) 0.53199(11)
H5 H 0.2767 0.5224 0.4652
H6 H 0.1916 0.4658 0.5218
C12 C 0.46183(15) 0.86415(11) 0.65132(11)
H7 H 0.5256 0.8582 0.7178
C13 C 0.42600(16) 0.95040(11) 0.60803(12)
C14 C 0.51724(15) 0.34273(11) 0.71155(12)
C15 C 0.26922(15) 0.88395(11) 0.45610(12)
H8 H 0.2031 0.8922 0.3909
C16 C 0.14474(15) 0.65798(12) 0.49137(13)
H9 H 0.0960 0.7022 0.5211
H10 H 0.0774 0.6179 0.4419
C17 C 0.22257(17) 0.71325(12) 0.43592(12)
H11 H 0.2841 0.6701 0.4176
H12 H 0.1583 0.7384 0.3719
C18 C 0.17835(17) 0.58188(13) 0.65321(14)
H13 H 0.0951 0.5457 0.6264
H14 H 0.1595 0.6417 0.6801
H15 H 0.2439 0.5465 0.7078
C19 C 0.39596(18) 1.10335(13) 0.57353(14)
H16 H 0.3377 1.1406 0.6017
H17 H 0.4569 1.1467 0.5549
C20 C 0.21607(17) 0.30987(14) 0.67710(16)
H18 H 0.1476 0.2611 0.6520
H19 H 0.1728 0.3689 0.6843
H20 H 0.2797 0.2912 0.7434
C21 C 0.62876(19) 0.21374(15) 0.81291(17)
H21 H 0.7005 0.2165 0.7832
H22 H 0.6125 0.1484 0.8268
H23 H 0.6557 0.2495 0.8765
C22? C 0.4449(3) 0.4996(2) 0.90301(18)
O6? O 0.5353(4) 0.3614(3) 0.9910(4)
C23? C 0.5102(4) 0.4442(3) 0.9927(4)
loop_
_geom_bond_atom_site_label_1
_geom_bond_atom_site_label_2
_geom_bond_site_symmetry_1
_geom_bond_site_symmetry_2
O1 C7 1_555 1_555
O2 C5 1_555 1_555
O3 C14 1_555 1_555
O4 C13 1_555 1_555
O5 C6 1_555 1_555
N1 C11 1_555 1_555
C1 C2 1_555 1_555
C2 C8 1_555 1_555
C3 C4 1_555 1_555
C4 C15 1_555 1_555
C5 C1 1_555 1_555
C6 C13 1_555 1_555
C7 C3 1_555 1_555
C8 C7 1_555 1_555
H1 C8 1_555 1_555
H2 C8 1_555 1_555
C9 H3 1_555 1_555
C10 C2 1_555 1_555
H4 C10 1_555 1_555
C11 C1 1_555 1_555
H5 C11 1_555 1_555
H6 C11 1_555 1_555
C12 C3 1_555 1_555
H7 C12 1_555 1_555
C13 C12 1_555 1_555
C14 C5 1_555 1_555
C15 C6 1_555 1_555
H8 C15 1_555 1_555
C16 N1 1_555 1_555
H9 C16 1_555 1_555
H10 C16 1_555 1_555
C17 C4 1_555 1_555
H11 C17 1_555 1_555
H12 C17 1_555 1_555
C18 N1 1_555 1_555
H13 C18 1_555 1_555
H14 C18 1_555 1_555
H15 C18 1_555 1_555
C19 O4 1_555 1_555
H16 C19 1_555 1_555
H17 C19 1_555 1_555
C20 O2 1_555 1_555
H18 C20 1_555 1_555
H19 C20 1_555 1_555
H20 C20 1_555 1_555
C21 O3 1_555 1_555
H21 C21 1_555 1_555
H22 C21 1_555 1_555
H23 C21 1_555 1_555
O5 C19 1_555 1_555
C9 C10 1_555 1_555
C9 C14 1_555 1_555
C16 C17 1_555 1_555

#END
