
#######################################################################
#
#                 Cambridge Crystallographic Data Centre
#                                CCDC 
#
#######################################################################
#
# If this CIF has been generated from an entry in the Cambridge 
# Structural Database, then it will include bibliographic, chemical, 
# crystal, experimental, refinement or atomic coordinate data resulting 
# from the CCDC's data processing and validation procedures.
#
#######################################################################

data_VIPHOU
_chemical_formula_moiety         'C21 H23 N1 O5,0.5(C3 H7 N1 O1)'
_chemical_name_systematic        
'3,4-dimethoxy-6-methyl-5,7,8,15-tetrahydro-11H-benzo[c][1,3]benzodioxolo[5,6-g]azecin-14(6H)-one N,N-dimethylformamide solvate'
_symmetry_cell_setting           monoclinic
_symmetry_space_group_name_H-M   'P 21/n'
_symmetry_Int_Tables_number      14
_space_group_name_Hall           '-P 2yn'
loop_
_symmetry_equiv_pos_site_id
_symmetry_equiv_pos_as_xyz
1 x,y,z
2 1/2-x,1/2+y,1/2-z
3 -x,-y,-z
4 1/2+x,1/2-y,1/2+z
_cell_length_a                   10.6658(19)
_cell_length_b                   14.335(3)
_cell_length_c                   13.962(3)
_cell_angle_alpha                90
_cell_angle_beta                 110.100(5)
_cell_angle_gamma                90
_cell_volume                     2004.69
_exptl_crystal_colour            colorless
_cell_formula_units_Z            4
loop_
_atom_site_label
_atom_site_type_symbol
_atom_site_fract_x
_atom_site_fract_y
_atom_site_fract_z
O1 O 0.4784(2) 0.68559(14) 0.74052(15)
O2 O 0.28803(19) 0.32263(13) 0.60558(16)
O3 O 0.5105(2) 0.25257(14) 0.74066(16)
O4 O 0.3175(2) 1.05072(14) 0.48596(17)
O5 O 0.4726(2) 1.03485(14) 0.64868(17)
N1 N 0.2339(2) 0.59895(16) 0.57125(18)
C1 C 0.4010(3) 0.78293(19) 0.5959(2)
C2 C 0.3954(3) 0.46913(19) 0.6042(2)
C3 C 0.5118(3) 0.52368(19) 0.6349(2)
C4 C 0.3998(3) 0.37929(19) 0.6411(2)
C5 C 0.3039(3) 0.79294(19) 0.4982(2)
C6 C 0.4255(3) 0.94860(19) 0.6090(2)
C7 C 0.3332(3) 0.9580(2) 0.5133(2)
C8 C 0.4543(3) 0.69258(19) 0.6490(2)
C9 C 0.6273(3) 0.4867(2) 0.7034(2)
H1 H 0.7044 0.5228 0.7244
C10 C 0.5181(3) 0.34269(19) 0.7102(2)
C11 C 0.6314(3) 0.3972(2) 0.7418(2)
H2 H 0.7102 0.3741 0.7886
C12 C 0.5086(3) 0.62078(19) 0.5932(2)
H3 H 0.4536 0.6209 0.5215
H4 H 0.5984 0.6386 0.5981
C13 C 0.2675(3) 0.51095(19) 0.5316(2)
H5 H 0.2777 0.5224 0.4661
H6 H 0.1950 0.4669 0.5211
C14 C 0.4602(3) 0.86262(19) 0.6522(2)
H7 H 0.5219 0.8568 0.7178
C15 C 0.2698(3) 0.8828(2) 0.4571(2)
H8 H 0.2053 0.8909 0.3930
C16 C 0.1461(3) 0.6568(2) 0.4903(2)
H9 H 0.0978 0.6994 0.5190
H10 H 0.0813 0.6174 0.4412
C17 C 0.2232(3) 0.7130(2) 0.4357(2)
H11 H 0.2832 0.6713 0.4176
H12 H 0.1604 0.7378 0.3728
C18 C 0.3986(3) 1.1007(2) 0.5736(2)
H13 H 0.3429 1.1384 0.6006
H14 H 0.4592 1.1417 0.5555
C19 C 0.1800(3) 0.5818(2) 0.6520(3)
H15 H 0.0999 0.5454 0.6257
H16 H 0.1600 0.6402 0.6771
H17 H 0.2445 0.5484 0.7065
C20 C 0.2195(3) 0.3102(3) 0.6764(3)
H18 H 0.1510 0.2640 0.6508
H19 H 0.1797 0.3683 0.6852
H20 H 0.2816 0.2902 0.7409
C21 C 0.6300(3) 0.2125(2) 0.8110(3)
H21 H 0.6989 0.2130 0.7812
H22 H 0.6127 0.1495 0.8259
H23 H 0.6585 0.2484 0.8728
N2? N 0.0000 1.0000 0.5000
O6? O 0.0234(6) 1.1500(4) 0.4640(6)
C22? C 0.0659(8) 1.0138(7) 0.6065(6)
C23? C 0.0398(8) 1.0984(6) 0.5379(7)
C24? C 0.0197(8) 0.9351(6) 0.5752(7)
loop_
_geom_bond_atom_site_label_1
_geom_bond_atom_site_label_2
_geom_bond_site_symmetry_1
_geom_bond_site_symmetry_2
O1 C8 1_555 1_555
O2 C4 1_555 1_555
O3 C10 1_555 1_555
O4 C7 1_555 1_555
O5 C6 1_555 1_555
N1 C13 1_555 1_555
C1 C5 1_555 1_555
C2 C3 1_555 1_555
C3 C9 1_555 1_555
C4 C2 1_555 1_555
C5 C15 1_555 1_555
C6 C7 1_555 1_555
C7 C15 1_555 1_555
C8 C1 1_555 1_555
C9 H1 1_555 1_555
C10 C4 1_555 1_555
C11 C9 1_555 1_555
H2 C11 1_555 1_555
C12 C3 1_555 1_555
H3 C12 1_555 1_555
H4 C12 1_555 1_555
C13 C2 1_555 1_555
H5 C13 1_555 1_555
H6 C13 1_555 1_555
C14 C1 1_555 1_555
H7 C14 1_555 1_555
C15 H8 1_555 1_555
C16 N1 1_555 1_555
H9 C16 1_555 1_555
H10 C16 1_555 1_555
C17 C5 1_555 1_555
H11 C17 1_555 1_555
H12 C17 1_555 1_555
C18 O4 1_555 1_555
H13 C18 1_555 1_555
H14 C18 1_555 1_555
C19 N1 1_555 1_555
H15 C19 1_555 1_555
H16 C19 1_555 1_555
H17 C19 1_555 1_555
C20 O2 1_555 1_555
H18 C20 1_555 1_555
H19 C20 1_555 1_555
H20 C20 1_555 1_555
C21 O3 1_555 1_555
H21 C21 1_555 1_555
H22 C21 1_555 1_555
H23 C21 1_555 1_555
O5 C18 1_555 1_555
C6 C14 1_555 1_555
C8 C12 1_555 1_555
C10 C11 1_555 1_555
C16 C17 1_555 1_555

#END
