
#######################################################################
#
#                 Cambridge Crystallographic Data Centre
#                                CCDC 
#
#######################################################################
#
# If this CIF has been generated from an entry in the Cambridge 
# Structural Database, then it will include bibliographic, chemical, 
# crystal, experimental, refinement or atomic coordinate data resulting 
# from the CCDC's data processing and validation procedures.
#
#######################################################################

data_VIPHIO
_chemical_formula_moiety         'C21 H23 N1 O5,0.5(C4 H10 O1)'
_chemical_name_systematic        
'3,4-dimethoxy-6-methyl-5,7,8,15-tetrahydro-11H-benzo[c][1,3]benzodioxolo[5,6-g]azecin-14(6H)-one diethyl ether solvate'
_symmetry_cell_setting           monoclinic
_symmetry_space_group_name_H-M   'P 21/n'
_symmetry_Int_Tables_number      14
_space_group_name_Hall           '-P 2yn'
loop_
_symmetry_equiv_pos_site_id
_symmetry_equiv_pos_as_xyz
1 x,y,z
2 1/2-x,1/2+y,1/2-z
3 -x,-y,-z
4 1/2+x,1/2-y,1/2+z
_cell_length_a                   10.8577(2)
_cell_length_b                   14.2462(3)
_cell_length_c                   13.9180(3)
_cell_angle_alpha                90
_cell_angle_beta                 111.1380(10)
_cell_angle_gamma                90
_cell_volume                     2007.99
_exptl_crystal_colour            colorless
_exptl_crystal_description       block
_cell_formula_units_Z            4
loop_
_atom_site_label
_atom_site_type_symbol
_atom_site_fract_x
_atom_site_fract_y
_atom_site_fract_z
O1 O 0.48373(12) 0.31816(8) 0.74396(8)
O2 O 0.28757(12) 0.68129(8) 0.60784(10)
O3 O 0.33146(13) -0.04962(9) 0.48486(10)
O4 O 0.48462(13) -0.03288(9) 0.65062(10)
O5 O 0.50761(12) 0.75188(9) 0.74843(10)
N1 N 0.23832(13) 0.40333(9) 0.57322(10)
C1 C 0.39515(16) 0.53457(11) 0.60604(12)
C2 C 0.51182(16) 0.48103(11) 0.63609(12)
C3 C 0.45759(16) 0.31051(11) 0.65158(12)
C4 C 0.39857(16) 0.62518(11) 0.64380(13)
C5 C 0.46704(17) 0.13961(12) 0.65558(13)
H1 H 0.5300 0.1459 0.7235
C6 C 0.43412(17) 0.05333(12) 0.61121(14)
C7 C 0.30849(17) 0.20936(12) 0.49882(12)
C8 C 0.40519(16) 0.21951(12) 0.59802(12)
C9 C 0.27721(17) 0.11884(12) 0.45646(13)
H2 H 0.2120 0.1103 0.3898
C10 C 0.26868(16) 0.49216(11) 0.53284(12)
H3 H 0.1951 0.5369 0.5221
H4 H 0.2772 0.4807 0.4654
C11 C 0.62960(16) 0.60880(12) 0.74540(13)
H5 H 0.7094 0.6331 0.7937
C12 C 0.62662(16) 0.51899(12) 0.70548(13)
H6 H 0.7054 0.4828 0.7264
C13 C 0.50902(16) 0.38290(12) 0.59499(13)
H7 H 0.5995 0.3651 0.6006
H8 H 0.4524 0.3821 0.5211
C14 C 0.34230(17) 0.04323(12) 0.51284(13)
C15 C 0.51626(17) 0.66238(12) 0.71454(13)
C16 C 0.22570(19) 0.28892(12) 0.43594(13)
H9 H 0.1612 0.2628 0.3715
H10 H 0.2840 0.3325 0.4168
C17 C 0.15075(16) 0.34439(12) 0.49172(14)
H11 H 0.0834 0.3843 0.4413
H12 H 0.1043 0.3000 0.5217
C18 C 0.1884(2) 0.42082(14) 0.65560(16)
H13 H 0.2542 0.4563 0.7108
H14 H 0.1712 0.3608 0.6829
H15 H 0.1063 0.4570 0.6286
C19 C 0.40602(19) -0.09992(13) 0.57650(15)
H16 H 0.4637 -0.1468 0.5612
H17 H 0.3458 -0.1332 0.6040
C20 C 0.2195(2) 0.69180(15) 0.67854(18)
H18 H 0.1561 0.7436 0.6559
H19 H 0.2835 0.7054 0.7475
H20 H 0.1724 0.6336 0.6805
C21 C 0.6265(2) 0.79387(16) 0.81512(19)
H21 H 0.6920 0.7939 0.7817
H22 H 0.6608 0.7580 0.8794
H23 H 0.6088 0.8586 0.8302
C22? C -0.0545(3) -0.0260(3) 0.4136(2)
C23? C 0.0284(3) -0.0822(2) 0.5032(3)
O6? O -0.1283(4) 0.0432(3) 0.4233(3)
loop_
_geom_bond_atom_site_label_1
_geom_bond_atom_site_label_2
_geom_bond_site_symmetry_1
_geom_bond_site_symmetry_2
O1 C3 1_555 1_555
O2 C4 1_555 1_555
O3 C14 1_555 1_555
O4 C6 1_555 1_555
O5 C15 1_555 1_555
N1 C10 1_555 1_555
C1 C2 1_555 1_555
C2 C12 1_555 1_555
C3 C8 1_555 1_555
C4 C1 1_555 1_555
C5 H1 1_555 1_555
C6 C5 1_555 1_555
C7 C8 1_555 1_555
C8 C5 1_555 1_555
C9 C7 1_555 1_555
H2 C9 1_555 1_555
C10 C1 1_555 1_555
H3 C10 1_555 1_555
H4 C10 1_555 1_555
C11 H5 1_555 1_555
C12 C11 1_555 1_555
H6 C12 1_555 1_555
C13 C2 1_555 1_555
H7 C13 1_555 1_555
H8 C13 1_555 1_555
C14 C6 1_555 1_555
C15 C4 1_555 1_555
C16 C7 1_555 1_555
H9 C16 1_555 1_555
H10 C16 1_555 1_555
C17 N1 1_555 1_555
H11 C17 1_555 1_555
H12 C17 1_555 1_555
C18 N1 1_555 1_555
H13 C18 1_555 1_555
H14 C18 1_555 1_555
H15 C18 1_555 1_555
C19 O3 1_555 1_555
H16 C19 1_555 1_555
H17 C19 1_555 1_555
C20 O2 1_555 1_555
H18 C20 1_555 1_555
H19 C20 1_555 1_555
H20 C20 1_555 1_555
C21 O5 1_555 1_555
H21 C21 1_555 1_555
H22 C21 1_555 1_555
H23 C21 1_555 1_555
O4 C19 1_555 1_555
C3 C13 1_555 1_555
C9 C14 1_555 1_555
C11 C15 1_555 1_555
C16 C17 1_555 1_555

#END
