
#######################################################################
#
#                 Cambridge Crystallographic Data Centre
#                                CCDC 
#
#######################################################################
#
# If this CIF has been generated from an entry in the Cambridge 
# Structural Database, then it will include bibliographic, chemical, 
# crystal, experimental, refinement or atomic coordinate data resulting 
# from the CCDC's data processing and validation procedures.
#
#######################################################################

data_VIPJOW
_chemical_formula_moiety         'C20 H14 N2'
_chemical_name_systematic        
3-(2-phenylethenyl)-4-(pyridin-2-yl)benzonitrile
_symmetry_cell_setting           triclinic
_symmetry_space_group_name_H-M   'P -1'
_symmetry_Int_Tables_number      2
_space_group_name_Hall           '-P 1'
loop_
_symmetry_equiv_pos_site_id
_symmetry_equiv_pos_as_xyz
1 x,y,z
2 -x,-y,-z
_cell_length_a                   3.9188(4)
_cell_length_b                   12.5127(13)
_cell_length_c                   15.3057(15)
_cell_angle_alpha                101.080(5)
_cell_angle_beta                 96.416(5)
_cell_angle_gamma                92.665(5)
_cell_volume                     730.129
_exptl_crystal_colour            'light brown'
_cell_formula_units_Z            2
loop_
_atom_site_label
_atom_site_type_symbol
_atom_site_fract_x
_atom_site_fract_y
_atom_site_fract_z
C1 C 0.7466(4) 0.45112(11) 0.24368(9)
H1 H 0.7915 0.3929 0.1975
N1 N 0.5872(3) 0.51288(11) 0.39073(9)
N2 N 0.6665(4) -0.09095(11) 0.39874(10)
C2 C 0.7078(4) 0.64169(12) 0.29913(10)
H2 H 0.7287 0.7151 0.2912
C3 C 0.7728(4) 0.55657(13) 0.23266(11)
H3 H 0.8373 0.5718 0.1780
C4 C 0.6541(4) 0.43114(12) 0.32268(9)
C5 C 0.6430(4) 0.31721(12) 0.33730(9)
C6 C 0.4939(4) 0.22806(12) 0.27086(9)
C7 C 0.3194(4) 0.24351(12) 0.18429(10)
H4 H 0.2192 0.3110 0.1831
C8 C 0.2910(4) 0.17132(12) 0.10820(10)
H5 H 0.3819 0.1027 0.1107
C9 C 0.1333(4) 0.18611(12) 0.02010(9)
C10 C 0.1648(4) 0.10700(14) -0.05528(10)
H6 H 0.2757 0.0427 -0.0482
C11 C 0.0375(4) 0.12000(14) -0.14053(10)
H7 H 0.0668 0.0658 -0.1913
C12 C -0.1306(4) 0.21116(15) -0.15163(11)
H8 H -0.2198 0.2199 -0.2099
C13 C 0.6115(4) 0.61727(12) 0.37752(10)
H9 H 0.5608 0.6749 0.4234
C14 C 0.7965(4) 0.29864(12) 0.41947(10)
H10 H 0.8954 0.3591 0.4640
C15 C 0.8085(4) 0.19509(12) 0.43773(10)
H11 H 0.9145 0.1840 0.4939
C16 C 0.6615(4) 0.10684(12) 0.37190(10)
C17 C 0.6656(4) -0.00287(13) 0.38795(10)
C18 C 0.5060(4) 0.12369(12) 0.28981(10)
H12 H 0.4062 0.0628 0.2458
C19 C -0.1693(4) 0.29014(14) -0.07743(11)
H13 H -0.2870 0.3531 -0.0849
C20 C -0.0379(4) 0.27830(13) 0.00777(10)
H14 H -0.0647 0.3334 0.0582
loop_
_geom_bond_atom_site_label_1
_geom_bond_atom_site_label_2
_geom_bond_site_symmetry_1
_geom_bond_site_symmetry_2
C1 H1 1_555 1_555
N1 C4 1_555 1_555
N2 C17 1_555 1_555
C2 H2 1_555 1_555
C3 C1 1_555 1_555
H3 C3 1_555 1_555
C4 C1 1_555 1_555
C5 C4 1_555 1_555
C6 C5 1_555 1_555
C7 C6 1_555 1_555
H4 C7 1_555 1_555
C8 C7 1_555 1_555
H5 C8 1_555 1_555
C9 C8 1_555 1_555
C10 C9 1_555 1_555
H6 C10 1_555 1_555
C11 C10 1_555 1_555
H7 C11 1_555 1_555
C12 C11 1_555 1_555
H8 C12 1_555 1_555
C13 N1 1_555 1_555
H9 C13 1_555 1_555
C14 C5 1_555 1_555
H10 C14 1_555 1_555
C15 C14 1_555 1_555
H11 C15 1_555 1_555
C16 C15 1_555 1_555
C17 C16 1_555 1_555
C18 C6 1_555 1_555
H12 C18 1_555 1_555
C19 C12 1_555 1_555
H13 C19 1_555 1_555
C20 C9 1_555 1_555
H14 C20 1_555 1_555
C2 C3 1_555 1_555
C2 C13 1_555 1_555
C16 C18 1_555 1_555
C19 C20 1_555 1_555

#END
