
#######################################################################
#
#                 Cambridge Crystallographic Data Centre
#                                CCDC 
#
#######################################################################
#
# If this CIF has been generated from an entry in the Cambridge 
# Structural Database, then it will include bibliographic, chemical, 
# crystal, experimental, refinement or atomic coordinate data resulting 
# from the CCDC's data processing and validation procedures.
#
#######################################################################

data_VIPLEL
_chemical_formula_moiety         'C20 H10 O2'
_chemical_name_systematic        1,2-bis(Phenylethynyl)cyclobuten-3,4-dione
_symmetry_cell_setting           monoclinic
_symmetry_space_group_name_H-M   'P 21/a'
_symmetry_Int_Tables_number      14
_space_group_name_Hall           '-P 2yab'
loop_
_symmetry_equiv_pos_site_id
_symmetry_equiv_pos_as_xyz
1 x,y,z
2 1/2-x,1/2+y,-z
3 -x,-y,-z
4 1/2+x,1/2-y,z
_cell_length_a                   7.498(1)
_cell_length_b                   11.473(2)
_cell_length_c                   17.607(3)
_cell_angle_alpha                90
_cell_angle_beta                 96.189(4)
_cell_angle_gamma                90
_cell_volume                     1505.81
_exptl_crystal_colour            orange
_cell_formula_units_Z            4
loop_
_atom_site_label
_atom_site_type_symbol
_atom_site_fract_x
_atom_site_fract_y
_atom_site_fract_z
O1 O 0.03755(85) 0.49650(46) 0.28547(31)
C1 C -0.07191(68) 0.77205(35) 0.53757(26)
C2 C -0.11012(68) 0.81001(35) 0.60932(26)
C3 C -0.19972(68) 0.91535(35) 0.61646(26)
C4 C -0.25111(68) 0.98273(35) 0.55184(26)
C5 C -0.21289(68) 0.94478(35) 0.48009(26)
C6 C -0.12329(68) 0.83943(35) 0.47295(26)
O2 O 0.11398(90) 0.59413(47) 0.11630(31)
C7 C 0.06533(72) 1.16953(43) 0.16979(21)
C8 C 0.07712(72) 1.28374(43) 0.14362(21)
C9 C 0.12754(72) 1.30492(43) 0.07089(21)
C10 C 0.16616(72) 1.21188(43) 0.02434(21)
C11 C 0.15437(72) 1.09767(43) 0.05052(21)
C12 C 0.10396(72) 1.07650(43) 0.12325(21)
C13 C 0.0406(10) 0.5890(7) 0.2543(4)
C14 C 0.0149(9) 0.7131(6) 0.2759(4)
C15 C -0.0330(9) 0.7630(6) 0.3424(4)
C16 C -0.0783(9) 0.7992(6) 0.4015(4)
H1 H -0.0025 0.6905 0.5320
H2 H -0.0703 0.7578 0.6593
H3 H -0.2293 0.9447 0.6720
H4 H -0.3205 1.0643 0.5574
H5 H -0.2527 0.9969 0.4301
C17 C 0.0802(9) 0.6342(6) 0.1757(4)
C18 C 0.0567(9) 0.7540(6) 0.2071(4)
C19 C 0.0745(9) 0.8666(7) 0.1771(4)
C20 C 0.0912(9) 0.9613(7) 0.1507(4)
H6 H 0.0263 1.1531 0.2261
H7 H 0.0472 1.3558 0.1796
H8 H 0.1367 1.3933 0.0506
H9 H 0.2052 1.2283 -0.0320
H10 H 0.1843 1.0257 0.0145
loop_
_geom_bond_atom_site_label_1
_geom_bond_atom_site_label_2
_geom_bond_site_symmetry_1
_geom_bond_site_symmetry_2
O1 C13 1_555 1_555
C1 C2 1_555 1_555
C2 C3 1_555 1_555
C3 C4 1_555 1_555
C4 C5 1_555 1_555
C5 C6 1_555 1_555
C6 C1 1_555 1_555
O2 C17 1_555 1_555
C7 C8 1_555 1_555
C8 C9 1_555 1_555
C9 C10 1_555 1_555
C10 C11 1_555 1_555
C11 C12 1_555 1_555
C12 C7 1_555 1_555
C13 C14 1_555 1_555
C14 C15 1_555 1_555
C15 C16 1_555 1_555
C16 C6 1_555 1_555
H1 C1 1_555 1_555
H2 C2 1_555 1_555
H3 C3 1_555 1_555
H4 C4 1_555 1_555
H5 C5 1_555 1_555
C17 C13 1_555 1_555
C18 C14 1_555 1_555
C19 C18 1_555 1_555
C20 C12 1_555 1_555
H6 C7 1_555 1_555
H7 C8 1_555 1_555
H8 C9 1_555 1_555
H9 C10 1_555 1_555
H10 C11 1_555 1_555
C17 C18 1_555 1_555
C19 C20 1_555 1_555

#END
