
#######################################################################
#
#                 Cambridge Crystallographic Data Centre
#                                CCDC 
#
#######################################################################
#
# If this CIF has been generated from an entry in the Cambridge 
# Structural Database, then it will include bibliographic, chemical, 
# crystal, experimental, refinement or atomic coordinate data resulting 
# from the CCDC's data processing and validation procedures.
#
#######################################################################

data_VIPRIV
_chemical_formula_moiety         'C23 H27 N2 O3 1+,C4 H3 O4 1-'
_chemical_name_systematic        
'(4-Methoxyphenyl)(2-methyl-1-(2-(4-morpholiniumyl)ethyl)-1H-indol-3-yl)methanone maleate'
_symmetry_cell_setting           monoclinic
_symmetry_space_group_name_H-M   'P 21/n'
_symmetry_Int_Tables_number      14
_space_group_name_Hall           '-P 2yn'
loop_
_symmetry_equiv_pos_site_id
_symmetry_equiv_pos_as_xyz
1 x,y,z
2 1/2-x,1/2+y,1/2-z
3 -x,-y,-z
4 1/2+x,1/2-y,1/2+z
_cell_length_a                   12.388(2)
_cell_length_b                   10.661(1)
_cell_length_c                   18.736(3)
_cell_angle_alpha                90
_cell_angle_beta                 96.61(1)
_cell_angle_gamma                90
_cell_volume                     2457.99
_chemical_melting_point          161-163deg.C
_cell_formula_units_Z            4
loop_
_atom_site_label
_atom_site_type_symbol
_atom_site_fract_x
_atom_site_fract_y
_atom_site_fract_z
C1 C -0.1065(3) 0.8690(3) -0.0141(2)
O1 O -0.1199(2) 0.9144(2) -0.0744(1)
C2 C -0.1672(2) 0.9237(3) 0.0426(2)
C3 C -0.1843(3) 1.0522(3) 0.0427(2)
C4 C -0.2417(3) 1.1085(3) 0.0925(2)
C5 C -0.2875(3) 1.0359(3) 0.1418(2)
C6 C -0.2744(3) 0.9068(3) 0.1412(2)
C7 C -0.2137(3) 0.8524(3) 0.0929(2)
O2 O -0.3472(2) 1.0821(2) 0.1930(1)
C8 C -0.3519(4) 1.2139(4) 0.2001(2)
N1 N 0.1043(2) 0.6404(2) 0.0509(1)
C9 C 0.0331(2) 0.7345(3) 0.0645(1)
C10 C 0.0422(3) 0.7932(3) 0.1370(2)
C11 C -0.0312(2) 0.7637(3) 0.0011(2)
C12 C 0.0048(2) 0.6854(3) -0.0542(1)
C13 C -0.0255(3) 0.6716(3) -0.1281(2)
C14 C 0.0321(3) 0.5892(3) -0.1664(2)
C15 C 0.1169(3) 0.5188(3) -0.1327(2)
C16 C 0.1467(3) 0.5269(3) -0.0597(2)
C17 C 0.0893(2) 0.6101(3) -0.0216(2)
C18 C 0.1906(2) 0.5882(3) 0.1017(2)
C19 C 0.2949(2) 0.6569(3) 0.0929(2)
N2 N 0.3919(2) 0.5977(2) 0.1342(1)
C20 C 0.4937(3) 0.6477(4) 0.1084(2)
C21 C 0.5912(3) 0.5892(4) 0.1503(2)
O3 O 0.5940(2) 0.6153(3) 0.2242(1)
C22 C 0.5018(3) 0.5617(3) 0.2505(2)
C23 C 0.3974(3) 0.6159(3) 0.2135(2)
H1 H -0.1554 1.1031 0.0072
H2 H -0.2498 1.1980 0.0929
H3 H -0.3079 0.8556 0.1746
H4 H -0.2032 0.7632 0.0939
H5 H -0.3952 1.2348 0.2377
H6 H -0.3839 1.2499 0.1556
H7 H -0.2798 1.2464 0.2117
H8 H -0.0133 0.8558 0.1381
H9 H 0.1123 0.8316 0.1473
H10 H 0.0333 0.7301 0.1724
H11 H -0.0854 0.7184 -0.1518
H12 H 0.0129 0.5808 -0.2173
H13 H 0.1559 0.4630 -0.1608
H14 H 0.2047 0.4769 -0.0362
H15 H 0.1728 0.5989 0.1499
H16 H 0.1992 0.5005 0.0922
H17 H 0.2887 0.7416 0.1094
H18 H 0.3051 0.6575 0.0429
H19 H 0.3859(26) 0.5044(29) 0.1250(16)
H20 H 0.4965 0.7370 0.1149
H21 H 0.4937 0.6282 0.0584
H22 H 0.6558 0.6220 0.1334
H23 H 0.5885 0.5000 0.1433
H24 H 0.5022 0.4728 0.2424
H25 H 0.5054 0.5779 0.3011
H26 H 0.3946 0.7039 0.2238
H27 H 0.3368 0.5744 0.2308
O4 O 0.1596(3) 0.4206(3) 0.3176(2)
O5 O 0.1626(2) 0.6274(2) 0.2927(1)
C24 C 0.1455(3) 0.5353(4) 0.3353(2)
C25 C 0.1079(3) 0.5625(3) 0.4056(2)
C26 C 0.0952(3) 0.6684(3) 0.4399(2)
C27 C 0.1137(3) 0.7996(3) 0.4182(2)
O6 O 0.1353(2) 0.8247(2) 0.3561(1)
O7 O 0.1082(3) 0.8821(3) 0.4638(2)
H28 H 0.0891 0.4892 0.4312
H29 H 0.0701 0.6592 0.4862
H30 H 0.0226(62) 0.8797(64) 0.4554(35)
H31? H 0.3489(34) 0.2290(42) 0.1787(21)
loop_
_geom_bond_atom_site_label_1
_geom_bond_atom_site_label_2
_geom_bond_site_symmetry_1
_geom_bond_site_symmetry_2
C1 O1 1_555 1_555
C2 C1 1_555 1_555
C3 C2 1_555 1_555
C4 C3 1_555 1_555
C5 C4 1_555 1_555
C6 C5 1_555 1_555
C7 C2 1_555 1_555
O2 C5 1_555 1_555
C8 O2 1_555 1_555
N1 C9 1_555 1_555
C9 C10 1_555 1_555
C10 H8 1_555 1_555
C11 C1 1_555 1_555
C12 C11 1_555 1_555
C13 C12 1_555 1_555
C14 C13 1_555 1_555
C15 C14 1_555 1_555
C16 C15 1_555 1_555
C17 N1 1_555 1_555
C18 N1 1_555 1_555
C19 C18 1_555 1_555
N2 C19 1_555 1_555
C20 N2 1_555 1_555
C21 C20 1_555 1_555
O3 C21 1_555 1_555
C22 O3 1_555 1_555
C23 N2 1_555 1_555
O4 C24 1_555 1_555
O5 C24 1_555 1_555
C24 C25 1_555 1_555
C25 C26 1_555 1_555
C26 C27 1_555 1_555
C27 O6 1_555 1_555
O7 C27 1_555 1_555
H1 C3 1_555 1_555
H2 C4 1_555 1_555
H3 C6 1_555 1_555
H4 C7 1_555 1_555
H5 C8 1_555 1_555
H6 C8 1_555 1_555
H7 C8 1_555 1_555
H9 C10 1_555 1_555
H10 C10 1_555 1_555
H11 C13 1_555 1_555
H12 C14 1_555 1_555
H13 C15 1_555 1_555
H14 C16 1_555 1_555
H15 C18 1_555 1_555
H16 C18 1_555 1_555
H17 C19 1_555 1_555
H18 C19 1_555 1_555
H19 N2 1_555 1_555
H20 C20 1_555 1_555
H21 C20 1_555 1_555
H22 C21 1_555 1_555
H23 C21 1_555 1_555
H24 C22 1_555 1_555
H25 C22 1_555 1_555
H26 C23 1_555 1_555
H27 C23 1_555 1_555
H28 C25 1_555 1_555
H29 C26 1_555 1_555
H30 O7 1_555 1_555
C6 C7 1_555 1_555
C9 C11 1_555 1_555
C12 C17 1_555 1_555
C16 C17 1_555 1_555
C22 C23 1_555 1_555

#END
