
#######################################################################
#
#                 Cambridge Crystallographic Data Centre
#                                CCDC 
#
#######################################################################
#
# If this CIF has been generated from an entry in the Cambridge 
# Structural Database, then it will include bibliographic, chemical, 
# crystal, experimental, refinement or atomic coordinate data resulting 
# from the CCDC's data processing and validation procedures.
#
#######################################################################

data_VIPSIX
_chemical_formula_moiety         'C19 H19 N3 O4'
_chemical_name_systematic        
2-Amino-5-oxo-4-(3,4,5-trimethoxyphenyl)-5,6,7,8-tetrahydroquinoline-3-carbonitrile
_chemical_properties_biological  
'In vitro antifungal activity; poor activity against C. albicans 1 and 2, better activity against F. oxysporum 1 and 2; no inhibition of Mucor sp. yeast-hypha transition and chitin synthase inhibitor'
_symmetry_cell_setting           triclinic
_symmetry_space_group_name_H-M   'P -1'
_symmetry_Int_Tables_number      2
_space_group_name_Hall           '-P 1'
loop_
_symmetry_equiv_pos_site_id
_symmetry_equiv_pos_as_xyz
1 x,y,z
2 -x,-y,-z
_cell_length_a                   7.382(2)
_cell_length_b                   8.791(3)
_cell_length_c                   14.750(4)
_cell_angle_alpha                79.676(5)
_cell_angle_beta                 79.999(5)
_cell_angle_gamma                70.828(4)
_cell_volume                     882.662
_exptl_crystal_colour            'pale yellow'
_exptl_crystal_description       plate
_chemical_melting_point          '219 deg.C'
_cell_formula_units_Z            2
loop_
_atom_site_label
_atom_site_type_symbol
_atom_site_fract_x
_atom_site_fract_y
_atom_site_fract_z
O1 O 0.6505(3) 0.2699(2) 0.21263(17)
O2 O 0.9394(3) -0.3371(2) 0.08661(13)
O3 O 1.2560(2) -0.2419(2) 0.09121(12)
O4 O 1.2467(2) -0.0308(3) 0.20992(13)
N1 N 0.1991(2) 0.0777(2) 0.43863(12)
N2 N 0.6675(3) -0.4346(3) 0.41741(19)
N3 N 0.2307(3) -0.1869(2) 0.49857(14)
H1 H 0.1165 -0.1545 0.5280
H2 H 0.2952 -0.2885 0.5042
C1 C 0.3081(3) -0.0790(2) 0.44406(14)
C2 C 0.4964(3) -0.1254(2) 0.39290(14)
C3 C 0.5688(3) -0.0102(2) 0.33395(13)
C4 C 0.5069(3) 0.2908(3) 0.26674(16)
C5 C 0.3644(5) 0.4576(3) 0.2648(3)
H3 H 0.4362 0.5348 0.2563
H4 H 0.2977 0.4785 0.2106
C6 C 0.2228(5) 0.4901(3) 0.3433(3)
H5 H 0.1206 0.5883 0.3257
H6 H 0.2818 0.5124 0.3913
C7 C 0.1336(4) 0.3615(3) 0.3840(2)
H7 H 0.0290 0.3718 0.3493
H8 H 0.0778 0.3788 0.4473
C8 C 0.2711(3) 0.1903(2) 0.38490(15)
C9 C 0.4535(3) 0.1553(2) 0.33103(14)
C10 C 0.6004(3) -0.2961(3) 0.40308(16)
C11 C 0.7540(3) -0.0703(2) 0.27194(14)
C12 C 0.7576(3) -0.1741(3) 0.20957(15)
H9 H 0.6485 -0.2045 0.2090
C13 C 0.9233(3) -0.2324(3) 0.14820(15)
C14 C 1.0862(3) -0.1827(3) 0.14744(15)
C15 C 1.0805(3) -0.0805(3) 0.21078(16)
C16 C 0.9179(3) -0.0262(3) 0.27346(15)
H10 H 0.9184 0.0394 0.3163
C17 C 0.7863(5) -0.4025(5) 0.0913(3)
H11 H 0.7762 -0.4699 0.1496
H12 H 0.8113 -0.4664 0.0415
H13 H 0.6674 -0.3157 0.0859
C18 C 1.2531(4) -0.2032(4) -0.00643(18)
H14 H 1.1469 -0.2276 -0.0234
H15 H 1.3721 -0.2661 -0.0376
H16 H 1.2384 -0.0896 -0.0242
C19 C 1.2598(5) 0.0894(5) 0.1471(3)
H17 H 1.2638 0.0604 0.0869
H18 H 1.3757 0.1143 0.1501
H19 H 1.1497 0.1826 0.1577
loop_
_geom_bond_atom_site_label_1
_geom_bond_atom_site_label_2
_geom_bond_site_symmetry_1
_geom_bond_site_symmetry_2
O1 C4 1_555 1_555
O2 C13 1_555 1_555
O3 C14 1_555 1_555
O4 C15 1_555 1_555
N1 C1 1_555 1_555
N2 C10 1_555 1_555
N3 H1 1_555 1_555
H2 N3 1_555 1_555
C1 N3 1_555 1_555
C2 C1 1_555 1_555
C3 C2 1_555 1_555
C4 C5 1_555 1_555
C5 H3 1_555 1_555
H4 C5 1_555 1_555
C6 C5 1_555 1_555
H5 C6 1_555 1_555
H6 C6 1_555 1_555
C7 C6 1_555 1_555
H7 C7 1_555 1_555
H8 C7 1_555 1_555
C8 N1 1_555 1_555
C9 C3 1_555 1_555
C10 C2 1_555 1_555
C11 C3 1_555 1_555
C12 C11 1_555 1_555
H9 C12 1_555 1_555
C13 C12 1_555 1_555
C14 C13 1_555 1_555
C15 C14 1_555 1_555
C16 C11 1_555 1_555
H10 C16 1_555 1_555
C17 O2 1_555 1_555
H11 C17 1_555 1_555
H12 C17 1_555 1_555
H13 C17 1_555 1_555
C18 O3 1_555 1_555
H14 C18 1_555 1_555
H15 C18 1_555 1_555
H16 C18 1_555 1_555
C19 O4 1_555 1_555
H17 C19 1_555 1_555
H18 C19 1_555 1_555
H19 C19 1_555 1_555
C4 C9 1_555 1_555
C7 C8 1_555 1_555
C8 C9 1_555 1_555
C15 C16 1_555 1_555

#END
