
#######################################################################
#
#                 Cambridge Crystallographic Data Centre
#                                CCDC 
#
#######################################################################
#
# If this CIF has been generated from an entry in the Cambridge 
# Structural Database, then it will include bibliographic, chemical, 
# crystal, experimental, refinement or atomic coordinate data resulting 
# from the CCDC's data processing and validation procedures.
#
#######################################################################

data_VIPWOH
_chemical_formula_moiety         '0.5(C10 H10 N2 2+),C2 H8 N1 O6 P2 1-,H2 O1'
_chemical_name_systematic        
"hemikis(2,2'-bipyridinium) 1-aminoethylidenediphosphonate monohydrate"
_symmetry_cell_setting           triclinic
_symmetry_space_group_name_H-M   'P -1'
_symmetry_Int_Tables_number      2
_space_group_name_Hall           '-P 1'
loop_
_symmetry_equiv_pos_site_id
_symmetry_equiv_pos_as_xyz
1 x,y,z
2 -x,-y,-z
_cell_length_a                   5.4669(13)
_cell_length_b                   9.497(2)
_cell_length_c                   11.694(3)
_cell_angle_alpha                83.366(3)
_cell_angle_beta                 89.406(4)
_cell_angle_gamma                77.092(4)
_cell_volume                     587.763
_exptl_crystal_colour            colorless
_exptl_crystal_description       block
_cell_formula_units_Z            2
loop_
_atom_site_label
_atom_site_type_symbol
_atom_site_fract_x
_atom_site_fract_y
_atom_site_fract_z
P1 P 0.4840(2) 0.72434(11) -0.00384(9)
P2 P 0.3883(2) 0.84894(12) 0.23155(9)
O1 O 0.7036(6) 0.6171(4) -0.0584(3)
O2 O 0.2571(6) 0.6598(3) 0.0152(3)
O3 O 0.4456(6) 0.8690(3) -0.0760(3)
O4 O 0.2382(6) 0.9803(4) 0.1480(3)
O5 O 0.5461(6) 0.9003(4) 0.3145(3)
O6 O 0.2061(6) 0.7624(4) 0.2792(3)
N1 N 0.8244(6) 0.8204(4) 0.1142(3)
H1 H 0.9080 0.8182 0.1795
H2 H 0.7608 0.9124 0.0861
H3 H 0.9284 0.7770 0.0633
C1 C 0.6139(7) 0.7418(4) 0.1373(3)
C2 C 0.7250(9) 0.5922(5) 0.2034(4)
H4 H 0.8561 0.5397 0.1592
H5 H 0.5958 0.5386 0.2164
H6 H 0.7927 0.6047 0.2760
H14 H 0.722(12) 0.526(7) -0.028(6)
H15 H 0.314(15) 1.033(8) 0.130(7)
O7 O 0.2411(12) 0.5668(6) 0.4756(4)
H12 H 0.222(14) 0.622(6) 0.412(4)
H16 H 0.119(15) 0.528(13) 0.480(9)
N2 N 0.7930(7) 0.8743(4) 0.5037(3)
C3 C 0.7168(9) 0.7680(5) 0.5688(4)
H7 H 0.5946 0.7264 0.5404
C4 C 0.8173(10) 0.7190(5) 0.6777(4)
H8 H 0.7628 0.6460 0.7240
C5 C 1.0011(10) 0.7818(5) 0.7159(4)
H9 H 1.0731 0.7501 0.7887
C6 C 1.0790(9) 0.8911(5) 0.6473(4)
H10 H 1.2041 0.9322 0.6734
C7 C 0.9701(8) 0.9394(5) 0.5392(4)
H11 H 0.731(14) 0.890(8) 0.435(6)
N2A N 1.2070(7) 1.1257(4) 0.4963(3)
C3A C 1.2832(9) 1.2320(5) 0.4312(4)
H7A H 1.4054 1.2736 0.4596
C4A C 1.1827(10) 1.2810(5) 0.3223(4)
H8A H 1.2372 1.3540 0.2760
C5A C 0.9989(10) 1.2182(5) 0.2841(4)
H9A H 0.9269 1.2499 0.2113
C6A C 0.9210(9) 1.1089(5) 0.3527(4)
H10A H 0.7959 1.0678 0.3266
C7A C 1.0299(8) 1.0606(5) 0.4608(4)
H11A H 1.269(14) 1.110(8) 0.565(6)
H13? H 0.369(16) 0.501(10) 0.467(8)
loop_
_geom_bond_atom_site_label_1
_geom_bond_atom_site_label_2
_geom_bond_site_symmetry_1
_geom_bond_site_symmetry_2
P1 O1 1_555 1_555
P2 O4 1_555 1_555
O1 H14 1_555 1_555
O2 P1 1_555 1_555
O3 P1 1_555 1_555
O4 H15 1_555 1_555
O5 P2 1_555 1_555
O6 P2 1_555 1_555
O7 H12 1_555 1_555
N1 H1 1_555 1_555
H2 N1 1_555 1_555
H3 N1 1_555 1_555
N2 C3 1_555 1_555
C1 P1 1_555 1_555
C2 C1 1_555 1_555
H4 C2 1_555 1_555
H5 C2 1_555 1_555
H6 C2 1_555 1_555
C3 H7 1_555 1_555
C4 C3 1_555 1_555
H8 C4 1_555 1_555
C5 C4 1_555 1_555
H9 C5 1_555 1_555
C6 C5 1_555 1_555
H10 C6 1_555 1_555
C7 N2 1_555 1_555
H11 N2 1_555 1_555
H16 O7 1_555 1_555
N2A C3A 1_555 1_555
C3A H7A 1_555 1_555
C4A C3A 1_555 1_555
H8A C4A 1_555 1_555
C5A C4A 1_555 1_555
H9A C5A 1_555 1_555
C6A C5A 1_555 1_555
H10A C6A 1_555 1_555
C7A C7 1_555 1_555
H11A N2A 1_555 1_555
P2 C1 1_555 1_555
N1 C1 1_555 1_555
C6 C7 1_555 1_555
N2A C7A 1_555 1_555
C6A C7A 1_555 1_555

#END
