
#######################################################################
#
#                 Cambridge Crystallographic Data Centre
#                                CCDC 
#
#######################################################################
#
# If this CIF has been generated from an entry in the Cambridge 
# Structural Database, then it will include bibliographic, chemical, 
# crystal, experimental, refinement or atomic coordinate data resulting 
# from the CCDC's data processing and validation procedures.
#
#######################################################################

data_VIPXEY
_chemical_formula_moiety         
'C12 H9 N2 1+,H3 O1 1+,C3 H10 N1 O9 P3 2-,3(H2 O1)'
_chemical_name_systematic        
'1,10-Phenanthrolinium oxonium 1-aminopropane-1,1,3-triphosphonate trihydrate'
_symmetry_cell_setting           triclinic
_symmetry_space_group_name_H-M   'P -1'
_symmetry_Int_Tables_number      2
_space_group_name_Hall           '-P 1'
loop_
_symmetry_equiv_pos_site_id
_symmetry_equiv_pos_as_xyz
1 x,y,z
2 -x,-y,-z
_cell_length_a                   7.2243(5)
_cell_length_b                   12.3575(8)
_cell_length_c                   13.2057(9)
_cell_angle_alpha                80.957(1)
_cell_angle_beta                 89.559(1)
_cell_angle_gamma                78.953(1)
_cell_volume                     1142.4
_exptl_crystal_colour            yellow
_exptl_crystal_description       block
_cell_formula_units_Z            2
loop_
_atom_site_label
_atom_site_type_symbol
_atom_site_fract_x
_atom_site_fract_y
_atom_site_fract_z
C1 C 0.6757(2) 0.72176(12) 0.01002(12)
C2 C 0.5727(2) 0.63376(13) 0.06950(13)
C3 C 0.3952(3) 0.68109(13) 0.12377(14)
O1 O 0.7903(2) 0.74422(11) 0.19969(9)
O2 O 0.92235(18) 0.85124(10) 0.04578(10)
O3 O 0.58185(18) 0.90953(10) 0.10051(10)
O4 O 0.69091(19) 0.85033(10) -0.17302(9)
O5 O 0.37503(18) 0.87948(10) -0.08619(10)
O6 O 0.47981(19) 0.70433(10) -0.15772(10)
O7 O 0.12077(18) 0.62685(11) 0.24798(10)
O8 O 0.17008(19) 0.54089(10) 0.08433(10)
O9 O 0.39871(19) 0.47629(11) 0.23414(10)
N1 N 0.85559(19) 0.65689(11) -0.02694(11)
H1 H 0.9383 0.6335 0.0252
H2 H 0.9038 0.7007 -0.0759
H3 H 0.8306 0.5982 -0.0518
P1 P 0.74650(6) 0.81768(3) 0.09113(3)
P2 P 0.55130(6) 0.79341(3) -0.11240(3)
P3 P 0.25656(6) 0.57863(3) 0.17213(3)
H4 H 0.885(4) 0.714(2) 0.208(2)
H5 H 0.397(4) 0.945(3) -0.090(2)
H6 H 0.659(3) 0.5837(19) 0.1205(18)
H7 H 0.537(3) 0.5867(19) 0.0209(18)
H8 H 0.422(3) 0.716(2) 0.1765(19)
H9 H 0.310(4) 0.736(2) 0.0746(19)
H10 H 0.436(4) 0.428(3) 0.204(2)
C4 C 0.7992(3) 1.17425(17) 0.63925(17)
H11 H 0.8120 1.1960 0.7027
C5 C 0.8007(3) 1.25394(17) 0.55165(19)
H12 H 0.8140 1.3261 0.5575
C6 C 0.7824(3) 1.22468(17) 0.45776(17)
H13 H 0.7840 1.2763 0.3986
C7 C 0.7609(3) 1.11463(16) 0.45134(14)
C8 C 0.7612(2) 1.04077(15) 0.54431(13)
C9 C 0.7402(2) 0.92842(15) 0.53857(13)
C10 C 0.7201(3) 0.89410(16) 0.44325(14)
C11 C 0.7029(3) 0.78252(18) 0.44253(16)
H14 H 0.6876 0.7581 0.3806
C12 C 0.7088(3) 0.71022(18) 0.53240(17)
H15 H 0.7008 0.6361 0.5319
C13 C 0.7268(3) 0.74814(17) 0.62423(16)
H16 H 0.7297 0.6993 0.6857
C14 C 0.7177(3) 0.97271(19) 0.35132(15)
H17 H 0.7015 0.9511 0.2881
C15 C 0.7388(3) 1.07795(19) 0.35540(15)
H18 H 0.7391 1.1277 0.2947
N2 N 0.7809(2) 1.06990(13) 0.63789(12)
N3 N 0.7398(2) 0.85347(13) 0.62556(12)
H19 H 0.746(4) 0.872(2) 0.680(2)
O10 O 0.5752(3) 0.5269(2) 0.40631(16)
H20 H 0.521(5) 0.507(3) 0.359(2)
H21 H 0.690(3) 0.510(4) 0.395(3)
O11 O 0.9356(13) 0.4651(11) 0.350(3)
O12 O 0.1074(4) 0.6775(3) 0.8011(2)
H22 H 0.173(3) 0.6374(14) 0.8577(14)
H23 H 0.101(3) 0.7445(13) 0.8324(16)
O13 O 0.8206(2) 0.03258(13) 0.88374(13)
H24 H 0.814(4) 0.011(2) 0.8226(13)
H25 H 0.701(2) 0.0602(19) 0.8959(19)
H26 H 0.886(3) 0.0798(17) 0.905(2)
O14? O 0.9600(14) 0.5046(18) 0.4087(12)
H27? H 0.854(3) -0.0278(14) 0.9285(16)
loop_
_geom_bond_atom_site_label_1
_geom_bond_atom_site_label_2
_geom_bond_site_symmetry_1
_geom_bond_site_symmetry_2
C1 C2 1_555 1_555
C2 C3 1_555 1_555
C3 P3 1_555 1_555
O1 P1 1_555 1_555
O2 P1 1_555 1_555
O3 P1 1_555 1_555
O4 P2 1_555 1_555
O5 P2 1_555 1_555
O6 P2 1_555 1_555
O7 P3 1_555 1_555
O8 P3 1_555 1_555
O9 P3 1_555 1_555
N1 C1 1_555 1_555
H1 N1 1_555 1_555
H2 N1 1_555 1_555
H3 N1 1_555 1_555
P1 C1 1_555 1_555
P2 C1 1_555 1_555
H4 O1 1_555 1_555
H5 O5 1_555 1_555
H6 C2 1_555 1_555
H7 C2 1_555 1_555
H8 C3 1_555 1_555
H9 C3 1_555 1_555
H10 O9 1_555 1_555
C4 H11 1_555 1_555
C5 C4 1_555 1_555
H12 C5 1_555 1_555
C6 C5 1_555 1_555
H13 C6 1_555 1_555
C7 C6 1_555 1_555
C8 C7 1_555 1_555
C9 C8 1_555 1_555
C10 C9 1_555 1_555
C11 C10 1_555 1_555
H14 C11 1_555 1_555
C12 C11 1_555 1_555
H15 C12 1_555 1_555
C13 C12 1_555 1_555
H16 C13 1_555 1_555
C14 C10 1_555 1_555
H17 C14 1_555 1_555
C15 C7 1_555 1_555
H18 C15 1_555 1_555
N2 C4 1_555 1_555
N3 C9 1_555 1_555
H19 N3 1_555 1_555
O10 H20 1_555 1_555
H21 O10 1_555 1_555
O12 H22 1_555 1_555
H23 O12 1_555 1_555
O13 H24 1_555 1_555
H25 O13 1_555 1_555
H26 O13 1_555 1_555
C8 N2 1_555 1_555
C13 N3 1_555 1_555
C14 C15 1_555 1_555

#END
