
#######################################################################
#
#                 Cambridge Crystallographic Data Centre
#                                CCDC 
#
#######################################################################
#
# If this CIF has been generated from an entry in the Cambridge 
# Structural Database, then it will include bibliographic, chemical, 
# crystal, experimental, refinement or atomic coordinate data resulting 
# from the CCDC's data processing and validation procedures.
#
#######################################################################

data_VIPXIE
_chemical_formula_moiety         'C7 H5 N2 O4 1-,C4 H12 N1 O1 1+'
_chemical_name_systematic        
'2-hydroxy-N,N-dimethylethan-1-aminium 2-amino-4-nitrobenzoate'
_symmetry_cell_setting           monoclinic
_symmetry_space_group_name_H-M   'P 21/n'
_symmetry_Int_Tables_number      14
_space_group_name_Hall           '-P 2yn'
loop_
_symmetry_equiv_pos_site_id
_symmetry_equiv_pos_as_xyz
1 x,y,z
2 1/2-x,1/2+y,1/2-z
3 -x,-y,-z
4 1/2+x,1/2-y,1/2+z
_cell_length_a                   6.6816(2)
_cell_length_b                   22.8286(8)
_cell_length_c                   8.6570(3)
_cell_angle_alpha                90
_cell_angle_beta                 104.551(2)
_cell_angle_gamma                90
_cell_volume                     1278.11
_exptl_crystal_colour            yellow
_exptl_crystal_description       blade
_cell_formula_units_Z            4
loop_
_atom_site_label
_atom_site_type_symbol
_atom_site_fract_x
_atom_site_fract_y
_atom_site_fract_z
O1 O 0.16272(19) 0.18360(5) 0.56894(15)
O2 O 0.3854(2) 0.15398(6) 0.43175(16)
O3 O -0.4660(3) -0.04973(8) 0.2249(3)
O4 O -0.2616(3) -0.06559(8) 0.0708(2)
N1 N -0.1707(2) 0.11839(7) 0.5634(2)
H1 H -0.101(3) 0.1513(6) 0.593(3)
H2 H -0.3042(16) 0.1187(10) 0.558(3)
N2 N -0.3090(3) -0.03927(8) 0.1803(2)
C1 C 0.0836(3) 0.09665(7) 0.4120(2)
C2 C -0.1058(3) 0.08640(7) 0.4521(2)
C3 C -0.2321(3) 0.04031(8) 0.3743(2)
H3 H -0.3606 0.0324 0.3984
C4 C -0.1684(3) 0.00696(8) 0.2634(2)
C5 C 0.0187(3) 0.01502(8) 0.2244(2)
H4 H 0.0602 -0.0094 0.1491
C6 C 0.1419(3) 0.06031(8) 0.3006(2)
H5 H 0.2711 0.0670 0.2765
C7 C 0.2213(3) 0.14808(7) 0.4763(2)
O5 O 0.59794(19) 0.25309(6) 0.51573(16)
H6 H 0.529(3) 0.2221(7) 0.489(3)
N3 N 0.1711(2) 0.29912(6) 0.52114(17)
H7 H 0.206(3) 0.2616(5) 0.548(2)
C8 C 0.3578(3) 0.33333(8) 0.5092(2)
H8 H 0.4401 0.3433 0.6180
H9 H 0.3126 0.3705 0.4520
C9 C 0.4932(3) 0.30024(8) 0.4229(2)
H10 H 0.4067 0.2848 0.3209
H11 H 0.5960 0.3274 0.3976
C10 C 0.0140(3) 0.29638(9) 0.3653(2)
H12 H -0.1042 0.2729 0.3768
H13 H 0.0753 0.2783 0.2853
H14 H -0.0327 0.3361 0.3311
C11 C 0.0766(3) 0.32355(8) 0.6464(2)
H15 H 0.0397 0.3647 0.6223
H16 H 0.1760 0.3208 0.7508
H17 H -0.0481 0.3012 0.6482
loop_
_geom_bond_atom_site_label_1
_geom_bond_atom_site_label_2
_geom_bond_site_symmetry_1
_geom_bond_site_symmetry_2
O1 C7 1_555 1_555
O2 C7 1_555 1_555
O3 N2 1_555 1_555
O4 N2 1_555 1_555
N1 H1 1_555 1_555
H2 N1 1_555 1_555
N2 C4 1_555 1_555
C1 C2 1_555 1_555
C2 N1 1_555 1_555
C3 C2 1_555 1_555
H3 C3 1_555 1_555
C4 C3 1_555 1_555
C5 C4 1_555 1_555
H4 C5 1_555 1_555
C6 C1 1_555 1_555
H5 C6 1_555 1_555
C7 C1 1_555 1_555
O5 H6 1_555 1_555
N3 H7 1_555 1_555
C8 N3 1_555 1_555
H8 C8 1_555 1_555
H9 C8 1_555 1_555
C9 O5 1_555 1_555
H10 C9 1_555 1_555
H11 C9 1_555 1_555
C10 N3 1_555 1_555
H12 C10 1_555 1_555
H13 C10 1_555 1_555
H14 C10 1_555 1_555
C11 N3 1_555 1_555
H15 C11 1_555 1_555
H16 C11 1_555 1_555
H17 C11 1_555 1_555
C5 C6 1_555 1_555
C8 C9 1_555 1_555

#END
