
#######################################################################
#
#                 Cambridge Crystallographic Data Centre
#                                CCDC 
#
#######################################################################
#
# If this CIF has been generated from an entry in the Cambridge 
# Structural Database, then it will include bibliographic, chemical, 
# crystal, experimental, refinement or atomic coordinate data resulting 
# from the CCDC's data processing and validation procedures.
#
#######################################################################

data_VIQCUU
_chemical_formula_moiety         'C14 H13 N1 O4'
_chemical_name_systematic        
'Ethyl 1-hydroxy-3-oxo-5,6-dihydro-3H-pyrrolo(3,2,1-ij)quinoline-2-carboxylate'
_symmetry_cell_setting           monoclinic
_symmetry_space_group_name_H-M   'P 21'
_symmetry_Int_Tables_number      4
_space_group_name_Hall           'P 2yb'
loop_
_symmetry_equiv_pos_site_id
_symmetry_equiv_pos_as_xyz
1 x,y,z
2 -x,1/2+y,-z
_cell_length_a                   7.887(3)
_cell_length_b                   13.690(5)
_cell_length_c                   11.124(4)
_cell_angle_alpha                90
_cell_angle_beta                 98.43(2)
_cell_angle_gamma                90
_cell_volume                     1188.12
_exptl_crystal_colour            white
_exptl_crystal_description       plate
_chemical_melting_point          '140-142 deg.C'
_cell_formula_units_Z            4
_exptl_crystal_recrystallization_method heptane
loop_
_atom_site_label
_atom_site_type_symbol
_atom_site_fract_x
_atom_site_fract_y
_atom_site_fract_z
N1 N 0.3765(5) 0.6963(3) 0.3857(3)
O1 O 0.3789(5) 0.5307(2) 0.3925(3)
O2 O 0.0633(5) 0.7048(3) 0.0587(4)
H1 H 0.0463 0.6494 0.0314
O3 O 0.0556(5) 0.5226(2) 0.0551(3)
O4 O 0.2033(4) 0.4362(2) 0.2068(3)
C1 C 0.3235(6) 0.7839(3) 0.3287(5)
C2 C 0.3939(7) 0.8594(4) 0.3982(6)
C3 C 0.3583(8) 0.9536(4) 0.3527(7)
H2 H 0.4033 1.0081 0.3960
C4 C 0.2553(9) 0.9639(4) 0.2422(7)
H3 H 0.2322 1.0267 0.2125
C5 C 0.1831(8) 0.8852(4) 0.1720(6)
H4 H 0.1147 0.8947 0.0975
C6 C 0.2199(7) 0.7900(4) 0.2207(4)
C7 C 0.1634(8) 0.7004(4) 0.1657(5)
C8 C 0.2146(7) 0.6092(4) 0.2190(4)
C9 C 0.3273(6) 0.6050(3) 0.3381(4)
C10 C 0.4936(8) 0.7116(4) 0.4969(5)
H5 H 0.6070 0.6872 0.4893
H6 H 0.4529 0.6791 0.5648
C11 C 0.4963(8) 0.8248(4) 0.5146(5)
H7 H 0.4429 0.8436 0.5843
H8 H 0.6124 0.8502 0.5244
C12 C 0.1468(7) 0.5208(3) 0.1521(5)
C13 C 0.1373(8) 0.3467(3) 0.1413(5)
H9 H 0.1595 0.3484 0.0578
H10 H 0.0148 0.3405 0.1413
C14 C 0.2302(9) 0.2643(4) 0.2080(7)
H11 H 0.1892 0.2037 0.1711
H12 H 0.2108 0.2654 0.2912
H13 H 0.3507 0.2705 0.2047
N2 N 0.1159(5) 0.4163(3) 0.6158(4)
O5 O 0.1193(6) 0.2533(3) 0.6036(4)
O6 O 0.4238(5) 0.4232(3) 0.9476(3)
H14 H 0.4915 0.3774 0.9558
O7 O 0.4312(6) 0.2402(3) 0.9476(3)
O8 O 0.2892(5) 0.1566(2) 0.7944(3)
C15 C 0.1658(6) 0.5024(4) 0.6737(4)
C16 C 0.0929(8) 0.5823(4) 0.6055(5)
C17 C 0.1370(9) 0.6746(4) 0.6581(6)
H15 H 0.0947 0.7309 0.6175
C18 C 0.2391(9) 0.6827(5) 0.7659(7)
H16 H 0.2635 0.7453 0.7961
C19 C 0.3116(9) 0.6036(4) 0.8363(6)
H17 H 0.3820 0.6127 0.9102
C20 C 0.2702(7) 0.5076(4) 0.7871(5)
C21 C 0.3280(7) 0.4172(4) 0.8419(5)
C22 C 0.2733(7) 0.3302(4) 0.7812(4)
C23 C 0.1677(7) 0.3273(4) 0.6651(5)
C24 C 0.0130(8) 0.4364(4) 0.4972(5)
H18 H -0.0949 0.4013 0.4892
H19 H 0.0744 0.4166 0.4318
C25 C -0.0181(8) 0.5470(4) 0.4935(5)
H20 H 0.0160 0.5759 0.4211
H21 H -0.1378 0.5621 0.4960
C26 C 0.3440(8) 0.2399(4) 0.8482(5)
C27 C 0.3513(8) 0.0701(4) 0.8599(5)
H22 H 0.3033 0.0653 0.9352
H23 H 0.4753 0.0721 0.8793
C28 C 0.2960(9) -0.0167(4) 0.7784(6)
H24 H 0.3357 -0.0759 0.8193
H25 H 0.3442 -0.0109 0.7044
H26 H 0.1732 -0.0179 0.7602
loop_
_geom_bond_atom_site_label_1
_geom_bond_atom_site_label_2
_geom_bond_site_symmetry_1
_geom_bond_site_symmetry_2
N1 C1 1_555 1_555
O1 C9 1_555 1_555
O2 H1 1_555 1_555
O3 C12 1_555 1_555
O4 C12 1_555 1_555
C1 C2 1_555 1_555
C2 C3 1_555 1_555
C3 H2 1_555 1_555
C4 C3 1_555 1_555
H3 C4 1_555 1_555
C5 C4 1_555 1_555
H4 C5 1_555 1_555
C6 C1 1_555 1_555
C7 O2 1_555 1_555
C8 C7 1_555 1_555
C9 N1 1_555 1_555
C10 N1 1_555 1_555
H5 C10 1_555 1_555
H6 C10 1_555 1_555
C11 C2 1_555 1_555
H7 C11 1_555 1_555
H8 C11 1_555 1_555
C12 C8 1_555 1_555
C13 O4 1_555 1_555
H9 C13 1_555 1_555
H10 C13 1_555 1_555
C14 C13 1_555 1_555
H11 C14 1_555 1_555
H12 C14 1_555 1_555
H13 C14 1_555 1_555
N2 C15 1_555 1_555
O5 C23 1_555 1_555
O6 H14 1_555 1_555
O7 C26 1_555 1_555
O8 C26 1_555 1_555
C15 C16 1_555 1_555
C16 C17 1_555 1_555
C17 H15 1_555 1_555
C18 C17 1_555 1_555
H16 C18 1_555 1_555
C19 C18 1_555 1_555
H17 C19 1_555 1_555
C20 C15 1_555 1_555
C21 O6 1_555 1_555
C22 C21 1_555 1_555
C23 N2 1_555 1_555
C24 N2 1_555 1_555
H18 C24 1_555 1_555
H19 C24 1_555 1_555
C25 C16 1_555 1_555
H20 C25 1_555 1_555
H21 C25 1_555 1_555
C26 C22 1_555 1_555
C27 O8 1_555 1_555
H22 C27 1_555 1_555
H23 C27 1_555 1_555
C28 C27 1_555 1_555
H24 C28 1_555 1_555
H25 C28 1_555 1_555
H26 C28 1_555 1_555
C5 C6 1_555 1_555
C6 C7 1_555 1_555
C8 C9 1_555 1_555
C10 C11 1_555 1_555
C19 C20 1_555 1_555
C20 C21 1_555 1_555
C22 C23 1_555 1_555
C24 C25 1_555 1_555

#END
