
#######################################################################
#
#                 Cambridge Crystallographic Data Centre
#                                CCDC 
#
#######################################################################
#
# If this CIF has been generated from an entry in the Cambridge 
# Structural Database, then it will include bibliographic, chemical, 
# crystal, experimental, refinement or atomic coordinate data resulting 
# from the CCDC's data processing and validation procedures.
#
#######################################################################

data_VIQCEF
_chemical_formula_moiety         'C22 H28 O4'
_chemical_name_systematic        
1-(3,4-Dimethoxyphenyl)-6,7-dimethoxy-2,3-dimethyl-1,2,3,4-tetrahydronaphthalene
_symmetry_cell_setting           monoclinic
_symmetry_space_group_name_H-M   'P 21'
_symmetry_Int_Tables_number      4
_space_group_name_Hall           'P 2yb'
loop_
_symmetry_equiv_pos_site_id
_symmetry_equiv_pos_as_xyz
1 x,y,z
2 -x,1/2+y,-z
_cell_length_a                   5.4244(18)
_cell_length_b                   11.419(4)
_cell_length_c                   15.941(5)
_cell_angle_alpha                90
_cell_angle_beta                 99.108(13)
_cell_angle_gamma                90
_cell_volume                     974.956
_exptl_crystal_colour            colorless
_exptl_crystal_description       needle
_cell_formula_units_Z            2
loop_
_atom_site_label
_atom_site_type_symbol
_atom_site_fract_x
_atom_site_fract_y
_atom_site_fract_z
C1 C 0.4522(15) 1.3911(7) 0.7312(6)
H1 H 0.3027 1.3579 0.7463
H2 H 0.4331 1.4000 0.6707
H3 H 0.4823 1.4663 0.7578
C2 C 0.6403(13) 1.2018(5) 0.7295(4)
C3 C 0.4496(13) 1.1630(6) 0.6683(4)
H4 H 0.3262 1.2149 0.6443
C4 C 0.4405(11) 1.0448(6) 0.6420(4)
C5 C 0.2368(12) 1.0070(6) 0.5731(4)
H5 H 0.2074 1.0683 0.5307
H6 H 0.0845 0.9967 0.5970
C6 C 0.2955(11) 0.8936(6) 0.5303(4)
H7 H 0.4409 0.9079 0.5023
C7 C 0.0787(13) 0.8577(7) 0.4620(4)
H8 H -0.0599 0.8331 0.4885
H9 H 0.1301 0.7942 0.4293
H10 H 0.0295 0.9231 0.4254
C8 C 0.3857(15) 0.6788(6) 0.5655(4)
H11 H 0.4963 0.6777 0.5240
H12 H 0.2223 0.6540 0.5394
H13 H 0.4475 0.6266 0.6112
C9 C 0.3712(12) 0.8042(6) 0.6004(4)
H14 H 0.2429 0.8047 0.6373
C10 C 0.6191(11) 0.8380(5) 0.6548(4)
H15 H 0.7482 0.8284 0.6188
C11 C 0.6191(12) 0.9684(5) 0.6791(4)
C12 C 0.8171(13) 1.0098(5) 0.7412(4)
H16 H 0.9404 0.9582 0.7657
C13 C 0.8282(12) 1.1262(6) 0.7655(4)
C14 C 1.2011(14) 1.0987(7) 0.8626(5)
H17 H 1.2808 1.0617 0.8200
H18 H 1.1302 1.0399 0.8947
H19 H 1.3219 1.1434 0.9000
C15 C 0.6907(11) 0.7582(5) 0.7308(4)
C16 C 0.5733(11) 0.7649(5) 0.8023(4)
H20 H 0.4503 0.8212 0.8041
C17 C 0.6344(12) 0.6905(6) 0.8703(4)
C18 C 0.8175(12) 0.6049(6) 0.8677(5)
C19 C 0.9360(12) 0.5990(6) 0.7986(5)
H21 H 1.0601 0.5432 0.7971
C20 C 0.8747(12) 0.6749(6) 0.7305(4)
H22 H 0.9587 0.6695 0.6841
C21 C 0.3588(13) 0.7833(7) 0.9535(4)
H23 H 0.2137 0.7778 0.9106
H24 H 0.4387 0.8575 0.9490
H25 H 0.3100 0.7764 1.0086
C22 C 1.0660(14) 0.4510(6) 0.9398(5)
H26 H 1.2180 0.4907 0.9335
H27 H 1.0238 0.3963 0.8940
H28 H 1.0884 0.4098 0.9929
O1 O 0.6574(9) 1.3158(4) 0.7591(3)
O2 O 1.0106(9) 1.1735(4) 0.8234(3)
O3 O 0.5285(8) 0.6911(4) 0.9421(3)
O4 O 0.8695(8) 0.5345(4) 0.9381(3)
loop_
_geom_bond_atom_site_label_1
_geom_bond_atom_site_label_2
_geom_bond_site_symmetry_1
_geom_bond_site_symmetry_2
C1 H1 1_555 1_555
H2 C1 1_555 1_555
H3 C1 1_555 1_555
C2 C3 1_555 1_555
C3 H4 1_555 1_555
C4 C3 1_555 1_555
C5 C4 1_555 1_555
H5 C5 1_555 1_555
H6 C5 1_555 1_555
C6 C5 1_555 1_555
H7 C6 1_555 1_555
C7 C6 1_555 1_555
H8 C7 1_555 1_555
H9 C7 1_555 1_555
H10 C7 1_555 1_555
C8 H11 1_555 1_555
H12 C8 1_555 1_555
H13 C8 1_555 1_555
C9 C6 1_555 1_555
H14 C9 1_555 1_555
C10 C9 1_555 1_555
H15 C10 1_555 1_555
C11 C4 1_555 1_555
C12 C11 1_555 1_555
H16 C12 1_555 1_555
C13 C2 1_555 1_555
C14 H17 1_555 1_555
H18 C14 1_555 1_555
H19 C14 1_555 1_555
C15 C10 1_555 1_555
C16 C15 1_555 1_555
H20 C16 1_555 1_555
C17 C16 1_555 1_555
C18 C17 1_555 1_555
C19 C18 1_555 1_555
H21 C19 1_555 1_555
C20 C15 1_555 1_555
H22 C20 1_555 1_555
C21 H23 1_555 1_555
H24 C21 1_555 1_555
H25 C21 1_555 1_555
C22 H26 1_555 1_555
H27 C22 1_555 1_555
H28 C22 1_555 1_555
O1 C1 1_555 1_555
O2 C13 1_555 1_555
O3 C17 1_555 1_555
O4 C18 1_555 1_555
C2 O1 1_555 1_555
C8 C9 1_555 1_555
C10 C11 1_555 1_555
C12 C13 1_555 1_555
C14 O2 1_555 1_555
C19 C20 1_555 1_555
C21 O3 1_555 1_555
C22 O4 1_555 1_555

#END
