
#######################################################################
#
#                 Cambridge Crystallographic Data Centre
#                                CCDC 
#
#######################################################################
#
# If this CIF has been generated from an entry in the Cambridge 
# Structural Database, then it will include bibliographic, chemical, 
# crystal, experimental, refinement or atomic coordinate data resulting 
# from the CCDC's data processing and validation procedures.
#
#######################################################################

data_VIQCAC
_chemical_formula_moiety         'C16 H19 N1 O2'
_chemical_name_systematic        2-methyl-3-(pentylamino)-1,4-naphthoquinone
_symmetry_cell_setting           monoclinic
_symmetry_space_group_name_H-M   'C 2/c'
_symmetry_Int_Tables_number      15
_space_group_name_Hall           '-C 2yn'
loop_
_symmetry_equiv_pos_site_id
_symmetry_equiv_pos_as_xyz
1 x,y,z
2 -x,y,1/2-z
3 1/2+x,1/2+y,z
4 1/2-x,1/2+y,1/2-z
5 -x,-y,-z
6 x,-y,1/2+z
7 1/2-x,1/2-y,-z
8 1/2+x,1/2-y,1/2+z
_cell_length_a                   12.859(5)
_cell_length_b                   15.098(5)
_cell_length_c                   15.509(5)
_cell_angle_alpha                90
_cell_angle_beta                 106.754(5)
_cell_angle_gamma                90
_cell_volume                     2883.18
_exptl_crystal_colour            orange
_exptl_crystal_description       block
_cell_formula_units_Z            8
loop_
_atom_site_label
_atom_site_type_symbol
_atom_site_fract_x
_atom_site_fract_y
_atom_site_fract_z
C1 C 0.5539(3) 0.7228(3) 0.4037(3)
C2 C 0.5803(3) 0.6265(3) 0.4107(3)
C3 C 0.5037(4) 0.5653(3) 0.3701(3)
C4 C 0.3997(3) 0.5948(3) 0.3126(3)
C5 C 0.2778(4) 0.7196(4) 0.2407(3)
H1 H 0.2265 0.6787 0.2096
C6 C 0.2559(5) 0.8076(5) 0.2289(4)
H2 H 0.1901 0.8262 0.1901
C7 C 0.3305(5) 0.8695(4) 0.2741(4)
H3 H 0.3150 0.9296 0.2659
C8 C 0.4270(4) 0.8424(3) 0.3308(3)
H4 H 0.4776 0.8841 0.3612
C9 C 0.4503(3) 0.7526(3) 0.3435(2)
C10 C 0.3756(3) 0.6899(3) 0.2984(3)
C11 C 0.7632(7) 0.5362(5) 0.4617(5)
H5 H 0.7306 0.4939 0.4146
H6 H 0.8288 0.5593 0.4511
C12 C 0.7866(8) 0.4970(5) 0.5423(5)
H7 H 0.7206 0.4749 0.5530
H8 H 0.8196 0.5394 0.5891
C13 C 0.8690(7) 0.4165(6) 0.5442(6)
H9 H 0.8530 0.3944 0.4831
H10 H 0.9413 0.4418 0.5590
C14 C 0.8741(14) 0.3556(7) 0.5901(13)
H11 H 0.8009 0.3318 0.5729
H12 H 0.8850 0.3805 0.6498
C15 C 0.9427(10) 0.2786(6) 0.6050(7)
H13 H 0.9248 0.2407 0.6483
H14 H 0.9320 0.2471 0.5493
H15 H 1.0173 0.2965 0.6273
C16 C 0.5200(5) 0.4662(3) 0.3806(4)
H16 H 0.4556 0.4363 0.3461
H17 H 0.5803 0.4488 0.3596
H18 H 0.5346 0.4505 0.4430
N1 N 0.6821(3) 0.6131(2) 0.4617(3)
H19 H 0.7071 0.6536 0.5012
O1 O 0.6197(3) 0.7754(2) 0.4482(2)
O2 O 0.3294(3) 0.5402(2) 0.2745(2)
loop_
_geom_bond_atom_site_label_1
_geom_bond_atom_site_label_2
_geom_bond_site_symmetry_1
_geom_bond_site_symmetry_2
C1 C2 1_555 1_555
C2 C3 1_555 1_555
C3 C4 1_555 1_555
C4 C10 1_555 1_555
C5 H1 1_555 1_555
C6 C5 1_555 1_555
H2 C6 1_555 1_555
C7 C6 1_555 1_555
H3 C7 1_555 1_555
C8 C7 1_555 1_555
H4 C8 1_555 1_555
C9 C1 1_555 1_555
C10 C5 1_555 1_555
C11 H5 1_555 1_555
H6 C11 1_555 1_555
C12 C11 1_555 1_555
H7 C12 1_555 1_555
H8 C12 1_555 1_555
C13 C12 1_555 1_555
H9 C13 1_555 1_555
H10 C13 1_555 1_555
C14 C13 1_555 1_555
H11 C14 1_555 1_555
H12 C14 1_555 1_555
C15 C14 1_555 1_555
H13 C15 1_555 1_555
H14 C15 1_555 1_555
H15 C15 1_555 1_555
C16 C3 1_555 1_555
H16 C16 1_555 1_555
H17 C16 1_555 1_555
H18 C16 1_555 1_555
N1 C2 1_555 1_555
H19 N1 1_555 1_555
O1 C1 1_555 1_555
O2 C4 1_555 1_555
C8 C9 1_555 1_555
C9 C10 1_555 1_555
C11 N1 1_555 1_555

#END
