
#######################################################################
#
#                 Cambridge Crystallographic Data Centre
#                                CCDC 
#
#######################################################################
#
# If this CIF has been generated from an entry in the Cambridge 
# Structural Database, then it will include bibliographic, chemical, 
# crystal, experimental, refinement or atomic coordinate data resulting 
# from the CCDC's data processing and validation procedures.
#
#######################################################################

data_VIQJIP
_chemical_formula_moiety         'C6 H18 Cl4 N2 Si4'
_chemical_name_systematic        
1,3-bis(Dimethyl(chloro)silyl)-2,2-dichloro-4,4-dimethylcyclodisilazane
_symmetry_cell_setting           monoclinic
_symmetry_space_group_name_H-M   'P 21/n'
_symmetry_Int_Tables_number      14
_space_group_name_Hall           '-P 2yn'
loop_
_symmetry_equiv_pos_site_id
_symmetry_equiv_pos_as_xyz
1 x,y,z
2 1/2-x,1/2+y,1/2-z
3 -x,-y,-z
4 1/2+x,1/2-y,1/2+z
_cell_length_a                   6.498(1)
_cell_length_b                   12.843(2)
_cell_length_c                   10.789(1)
_cell_angle_alpha                90
_cell_angle_beta                 102.3(1)
_cell_angle_gamma                90
_cell_volume                     879.715
_exptl_crystal_colour            white
_cell_formula_units_Z            2
_exptl_crystal_recrystallization_method sublimation
loop_
_atom_site_label
_atom_site_type_symbol
_atom_site_fract_x
_atom_site_fract_y
_atom_site_fract_z
Cl1 Cl 0.3770(5) 0.1297(3) 1.0657(4)
Cl2 Cl -0.0912(6) 0.2224(2) 0.9629(4)
C3 C 0.2049(14) 0.0949(6) 0.7015(8)
H7 H 0.1514 0.1636 0.7187
H8 H 0.2163 0.0912 0.6125
H9 H 0.3441 0.0840 0.7565
Cl4 Cl -0.27041(10) 0.02538(9) 0.62890(8)
C5 C 0.0965(16) -0.1352(7) 0.6845(9)
H13 H 0.2411 -0.1515 0.7285
H14 H 0.0873 -0.1360 0.5926
H15 H 0.0002 -0.1874 0.7064
N1 N 0.02404(13) -0.00589(6) 0.89097(8)
Si1 Si 0.07113(4) 0.08998(2) 1.00753(2)
Si2 Si 0.02371(4) -0.00589(2) 0.73301(2)
Cl1B Cl -0.3770(5) -0.1297(3) 0.9343(4)
Cl2B Cl 0.0912(6) -0.2224(2) 1.0371(4)
C3B C -0.2049(14) -0.0949(6) 1.2985(8)
H7B H -0.1514 -0.1636 1.2813
H8B H -0.2163 -0.0912 1.3875
H9B H -0.3441 -0.0840 1.2435
Cl4B Cl 0.27041(10) -0.02538(9) 1.37110(8)
C5B C -0.0965(16) 0.1352(7) 1.3155(9)
H13B H -0.2411 0.1515 1.2715
H14B H -0.0873 0.1360 1.4074
H15B H -0.0002 0.1874 1.2936
N1B N -0.02404(13) 0.00589(6) 1.10903(8)
Si1B Si -0.07113(4) -0.08998(2) 0.99247(2)
Si2B Si -0.02371(4) 0.00589(2) 1.26699(2)
C1? C 0.3488(12) 0.1268(8) 1.0662(9)
H1? H 0.4344 0.0638 1.0872
H2? H 0.3611 0.1700 1.1423
H3? H 0.3986 0.1661 1.0005
C2? C -0.0866(15) 0.2080(6) 0.9633(9)
H4? H -0.0387 0.2435 0.8942
H5? H -0.0696 0.2545 1.0368
H6? H -0.2354 0.1891 0.9353
Cl3? Cl 0.2037(8) 0.1094(3) 0.6933(4)
C4? C -0.2372(19) 0.0336(14) 0.6420(14)
H10? H -0.3455 -0.0110 0.6650
H11? H -0.2412 0.0266 0.5511
H12? H -0.2638 0.1063 0.6614
Cl5? Cl 0.1086(11) -0.1430(5) 0.6749(6)
loop_
_geom_bond_atom_site_label_1
_geom_bond_atom_site_label_2
_geom_bond_site_symmetry_1
_geom_bond_site_symmetry_2
Cl1 Si1 1_555 1_555
Cl2 Si1 1_555 1_555
C3 H7 1_555 1_555
H8 C3 1_555 1_555
H9 C3 1_555 1_555
Cl4 Si2 1_555 1_555
C5 H13 1_555 1_555
H14 C5 1_555 1_555
H15 C5 1_555 1_555
N1 Si1 1_555 1_555
Si1 N1B 1_555 1_555
Si2 C3 1_555 1_555
Cl1B Si1B 1_555 1_555
Cl2B Si1B 1_555 1_555
C3B H7B 1_555 1_555
H8B C3B 1_555 1_555
H9B C3B 1_555 1_555
Cl4B Si2B 1_555 1_555
C5B H13B 1_555 1_555
H14B C5B 1_555 1_555
H15B C5B 1_555 1_555
N1B Si1B 1_555 1_555
Si1B N1 1_555 1_555
Si2B C3B 1_555 1_555
C5 Si2 1_555 1_555
N1 Si2 1_555 1_555
C5B Si2B 1_555 1_555
N1B Si2B 1_555 1_555

#END
