
#######################################################################
#
#                 Cambridge Crystallographic Data Centre
#                                CCDC 
#
#######################################################################
#
# If this CIF has been generated from an entry in the Cambridge 
# Structural Database, then it will include bibliographic, chemical, 
# crystal, experimental, refinement or atomic coordinate data resulting 
# from the CCDC's data processing and validation procedures.
#
#######################################################################

data_VIQREV
_chemical_formula_moiety         'C25 H32 O1 S1'
_chemical_name_systematic        2,6-bis(adamantan-1-yl)-4H-thiopyran-4-one
_symmetry_cell_setting           triclinic
_symmetry_space_group_name_H-M   'P -1'
_symmetry_Int_Tables_number      2
_space_group_name_Hall           '-P 1'
loop_
_symmetry_equiv_pos_site_id
_symmetry_equiv_pos_as_xyz
1 x,y,z
2 -x,-y,-z
_cell_length_a                   6.9449(16)
_cell_length_b                   11.711(3)
_cell_length_c                   12.796(3)
_cell_angle_alpha                92.256(4)
_cell_angle_beta                 105.066(4)
_cell_angle_gamma                94.873(4)
_cell_volume                     999.272
_exptl_crystal_colour            colorless
_exptl_crystal_description       plate
_cell_formula_units_Z            2
loop_
_atom_site_label
_atom_site_type_symbol
_atom_site_fract_x
_atom_site_fract_y
_atom_site_fract_z
S1 S 0.10696(6) 0.95552(3) 0.24733(3)
C1 C 0.07867(18) 1.09831(10) 0.21803(10)
C2 C 0.23530(19) 0.90514(11) 0.15818(10)
C3 C -0.03231(18) 1.15918(10) 0.28909(10)
C4 C 0.29310(19) 0.78246(10) 0.17492(10)
C5 C 0.1468(2) 1.14648(12) 0.13892(11)
H1 H 0.1244 1.2244 0.1273
C6 C 0.2516(2) 1.09050(13) 0.06964(12)
C7 C 0.2887(2) 0.97163(12) 0.08446(11)
H2 H 0.3570 0.9372 0.0380
C8 C -0.2502(2) 1.10420(12) 0.26275(12)
H3 H -0.3171 1.1122 0.1854
H4 H -0.2511 1.0213 0.2751
C9 C -0.3654(2) 1.16174(13) 0.33380(13)
H5 H -0.5061 1.1246 0.3158
O1 O 0.3093(2) 1.14463(11) 0.00041(11)
C10 C -0.0496(2) 1.20538(15) 0.48173(12)
H6 H 0.0161 1.1966 0.5600
C11 C 0.0672(2) 1.14747(13) 0.41071(11)
H7 H 0.0706 1.0652 0.4252
H8 H 0.2069 1.1836 0.4294
C12 C 0.5156(2) 0.78912(12) 0.23864(12)
H9 H 0.5988 0.8317 0.1981
H10 H 0.5350 0.8313 0.3098
C13 C 0.1670(2) 0.71336(12) 0.23843(14)
H11 H 0.1796 0.7547 0.3093
H12 H 0.0240 0.7062 0.1973
C14 C 0.3365(3) 0.59467(13) 0.08345(13)
H13 H 0.3197 0.5526 0.0116
C15 C -0.1527(3) 1.34600(12) 0.34104(15)
H14 H -0.1541 1.4295 0.3274
C16 C 0.2686(3) 0.71548(13) 0.06522(12)
H15 H 0.1264 0.7094 0.0229
H16 H 0.3497 0.7574 0.0231
C17 C -0.0362(2) 1.28787(12) 0.26970(13)
H17 H -0.1007 1.2975 0.1923
H18 H 0.1027 1.3252 0.2870
C18 C 0.2379(3) 0.59280(12) 0.25692(15)
H19 H 0.1558 0.5498 0.2990
C19 C -0.2633(3) 1.14864(14) 0.45291(13)
H20 H -0.3390 1.1846 0.4990
H21 H -0.2623 1.0661 0.4669
C20 C -0.3674(3) 1.28895(14) 0.31229(15)
H22 H -0.4445 1.3265 0.3566
H23 H -0.4330 1.2976 0.2349
C21 C -0.0515(3) 1.33254(14) 0.46056(15)
H24 H 0.0876 1.3698 0.4793
H25 H -0.1250 1.3705 0.5066
C22 C 0.5563(3) 0.60498(14) 0.14617(15)
H26 H 0.6380 0.6477 0.1048
H27 H 0.6026 0.5275 0.1564
C23 C 0.4567(3) 0.60338(14) 0.31992(14)
H28 H 0.5015 0.5260 0.3330
H29 H 0.4738 0.6450 0.3911
C24 C 0.5827(3) 0.66797(13) 0.25613(14)
H30 H 0.7270 0.6739 0.2976
C25 C 0.2104(3) 0.52847(14) 0.14689(17)
H31 H 0.2531 0.4503 0.1575
H32 H 0.0674 0.5214 0.1059
loop_
_geom_bond_atom_site_label_1
_geom_bond_atom_site_label_2
_geom_bond_site_symmetry_1
_geom_bond_site_symmetry_2
S1 C1 1_555 1_555
C1 C3 1_555 1_555
C2 S1 1_555 1_555
C3 C8 1_555 1_555
C4 C2 1_555 1_555
C5 C1 1_555 1_555
H1 C5 1_555 1_555
C6 C5 1_555 1_555
C7 C2 1_555 1_555
H2 C7 1_555 1_555
C8 H3 1_555 1_555
H4 C8 1_555 1_555
C9 C8 1_555 1_555
H5 C9 1_555 1_555
O1 C6 1_555 1_555
C10 H6 1_555 1_555
C11 C3 1_555 1_555
H7 C11 1_555 1_555
H8 C11 1_555 1_555
C12 C4 1_555 1_555
H9 C12 1_555 1_555
H10 C12 1_555 1_555
C13 C4 1_555 1_555
H11 C13 1_555 1_555
H12 C13 1_555 1_555
C14 H13 1_555 1_555
C15 H14 1_555 1_555
C16 C4 1_555 1_555
H15 C16 1_555 1_555
H16 C16 1_555 1_555
C17 C3 1_555 1_555
H17 C17 1_555 1_555
H18 C17 1_555 1_555
C18 C13 1_555 1_555
H19 C18 1_555 1_555
C19 C9 1_555 1_555
H20 C19 1_555 1_555
H21 C19 1_555 1_555
C20 C9 1_555 1_555
H22 C20 1_555 1_555
H23 C20 1_555 1_555
C21 C10 1_555 1_555
H24 C21 1_555 1_555
H25 C21 1_555 1_555
C22 C14 1_555 1_555
H26 C22 1_555 1_555
H27 C22 1_555 1_555
C23 C18 1_555 1_555
H28 C23 1_555 1_555
H29 C23 1_555 1_555
C24 C12 1_555 1_555
H30 C24 1_555 1_555
C25 C14 1_555 1_555
H31 C25 1_555 1_555
H32 C25 1_555 1_555
C6 C7 1_555 1_555
C10 C11 1_555 1_555
C10 C19 1_555 1_555
C14 C16 1_555 1_555
C15 C17 1_555 1_555
C15 C20 1_555 1_555
C15 C21 1_555 1_555
C18 C25 1_555 1_555
C22 C24 1_555 1_555
C23 C24 1_555 1_555

#END
