
#######################################################################
#
#                 Cambridge Crystallographic Data Centre
#                                CCDC 
#
#######################################################################
#
# If this CIF has been generated from an entry in the Cambridge 
# Structural Database, then it will include bibliographic, chemical, 
# crystal, experimental, refinement or atomic coordinate data resulting 
# from the CCDC's data processing and validation procedures.
#
#######################################################################

data_VIQTIB
_chemical_formula_moiety         'C22 H16 O1'
_chemical_name_systematic        
'[3-methyl-2-(phenylethynyl)phenyl](phenyl)methanone'
_symmetry_cell_setting           monoclinic
_symmetry_space_group_name_H-M   'P 21/n'
_symmetry_Int_Tables_number      14
_space_group_name_Hall           '-P 2yn'
loop_
_symmetry_equiv_pos_site_id
_symmetry_equiv_pos_as_xyz
1 x,y,z
2 1/2-x,1/2+y,1/2-z
3 -x,-y,-z
4 1/2+x,1/2-y,1/2+z
_cell_length_a                   10.6095(6)
_cell_length_b                   8.1690(5)
_cell_length_c                   18.6437(12)
_cell_angle_alpha                90
_cell_angle_beta                 93.550(2)
_cell_angle_gamma                90
_cell_volume                     1612.73
_cell_formula_units_Z            4
loop_
_atom_site_label
_atom_site_type_symbol
_atom_site_fract_x
_atom_site_fract_y
_atom_site_fract_z
C1 C 0.27763(12) 0.58233(18) 0.62367(8)
H1 H 0.248854 0.650651 0.584792
C2 C 0.19147(13) 0.49683(19) 0.66196(8)
H2 H 0.103740 0.505484 0.648918
C3 C 0.23269(14) 0.3988(2) 0.71915(8)
H3 H 0.173385 0.339454 0.745076
C4 C 0.35963(14) 0.38737(18) 0.73849(7)
H4 H 0.387583 0.321560 0.778375
C5 C 0.44673(13) 0.47096(17) 0.70029(7)
H5 H 0.534237 0.461816 0.713870
C6 C 0.40695(12) 0.56842(16) 0.64205(7)
C7 C 0.49674(12) 0.64885(16) 0.59965(7)
C8 C 0.57222(12) 0.70944(16) 0.56232(7)
C9 C 0.65891(12) 0.77992(15) 0.51479(7)
C10 C 0.61340(13) 0.83876(16) 0.44694(7)
C11 C 0.69888(16) 0.90710(18) 0.40228(8)
H6 H 0.669145 0.948257 0.356672
C12 C 0.82623(16) 0.9169(2) 0.42237(8)
H7 H 0.883372 0.961134 0.390206
C13 C 0.86998(14) 0.86222(19) 0.48942(8)
H8 H 0.957229 0.871023 0.503723
C14 C 0.78752(12) 0.79458(16) 0.53594(7)
C15 C 0.83823(12) 0.74726(18) 0.60979(8)
C16 C 0.83796(11) 0.57380(17) 0.63259(7)
C17 C 0.82639(12) 0.44871(18) 0.58237(8)
H9 H 0.811123 0.473746 0.532836
C18 C 0.83710(14) 0.28723(19) 0.60450(9)
H10 H 0.830361 0.201416 0.570086
C19 C 0.85760(14) 0.2510(2) 0.67665(10)
H11 H 0.865080 0.140168 0.691708
C20 C 0.86725(14) 0.3747(2) 0.72686(9)
H12 H 0.879744 0.348805 0.776473
C21 C 0.85884(13) 0.5357(2) 0.70535(8)
H13 H 0.867253 0.620854 0.740011
C22 C 0.47531(14) 0.8280(2) 0.42479(8)
H14 H 0.459704 0.876727 0.377044
H15 H 0.426760 0.887220 0.459530
H16 H 0.449234 0.712854 0.423334
O1 O 0.88516(12) 0.85306(14) 0.64925(6)
loop_
_geom_bond_atom_site_label_1
_geom_bond_atom_site_label_2
_geom_bond_site_symmetry_1
_geom_bond_site_symmetry_2
C1 H1 1_555 1_555
C2 C1 1_555 1_555
H2 C2 1_555 1_555
C3 C2 1_555 1_555
H3 C3 1_555 1_555
C4 C3 1_555 1_555
H4 C4 1_555 1_555
C5 C4 1_555 1_555
H5 C5 1_555 1_555
C6 C1 1_555 1_555
C7 C6 1_555 1_555
C8 C7 1_555 1_555
C9 C8 1_555 1_555
C10 C9 1_555 1_555
C11 C10 1_555 1_555
H6 C11 1_555 1_555
C12 C11 1_555 1_555
H7 C12 1_555 1_555
C13 C12 1_555 1_555
H8 C13 1_555 1_555
C14 C9 1_555 1_555
C15 C14 1_555 1_555
C16 C15 1_555 1_555
C17 C16 1_555 1_555
H9 C17 1_555 1_555
C18 C17 1_555 1_555
H10 C18 1_555 1_555
C19 C18 1_555 1_555
H11 C19 1_555 1_555
C20 C19 1_555 1_555
H12 C20 1_555 1_555
C21 C16 1_555 1_555
H13 C21 1_555 1_555
C22 C10 1_555 1_555
H14 C22 1_555 1_555
H15 C22 1_555 1_555
H16 C22 1_555 1_555
O1 C15 1_555 1_555
C5 C6 1_555 1_555
C13 C14 1_555 1_555
C20 C21 1_555 1_555

#END
