
#######################################################################
#
#                 Cambridge Crystallographic Data Centre
#                                CCDC 
#
#######################################################################
#
# If this CIF has been generated from an entry in the Cambridge 
# Structural Database, then it will include bibliographic, chemical, 
# crystal, experimental, refinement or atomic coordinate data resulting 
# from the CCDC's data processing and validation procedures.
#
#######################################################################

data_VIQXIF
_chemical_formula_moiety         'C21 H23 N1 O4'
_chemical_name_systematic        
't-butyl 3-(acetylamino)-2-(2-hydroxyphenyl)-3-phenylprop-2-enoate'
_symmetry_cell_setting           orthorhombic
_symmetry_space_group_name_H-M   'P 21 21 21'
_symmetry_Int_Tables_number      19
_space_group_name_Hall           'P 2ac 2ab'
loop_
_symmetry_equiv_pos_site_id
_symmetry_equiv_pos_as_xyz
1 x,y,z
2 1/2-x,-y,1/2+z
3 1/2+x,1/2-y,-z
4 -x,1/2+y,1/2-z
_cell_length_a                   8.547(2)
_cell_length_b                   9.871(2)
_cell_length_c                   22.608(5)
_cell_angle_alpha                90
_cell_angle_beta                 90
_cell_angle_gamma                90
_cell_volume                     1907.38
_exptl_crystal_colour            colorless
_exptl_crystal_description       block
_cell_formula_units_Z            4
loop_
_atom_site_label
_atom_site_type_symbol
_atom_site_fract_x
_atom_site_fract_y
_atom_site_fract_z
O1 O -0.27593(18) 0.78137(17) -0.17763(7)
H1 H -0.3801 0.7859 -0.1895
O2 O -0.18795(16) 0.51262(14) -0.09287(6)
O3 O 0.03759(19) 0.45250(15) -0.13654(8)
O4 O 0.41252(17) 0.78895(15) -0.20336(7)
N1 N 0.2099(2) 0.65082(19) -0.17769(8)
C1 C -0.1325(2) 0.77999(19) -0.08902(9)
C2 C -0.2637(2) 0.8228(2) -0.12090(9)
C3 C -0.3749(2) 0.9052(2) -0.09423(11)
H2 H -0.4612 0.9349 -0.1157
C4 C -0.3568(3) 0.9431(2) -0.03557(11)
H3 H -0.4322 0.9973 -0.0176
C5 C -0.2284(3) 0.9015(2) -0.00356(10)
H4 H -0.2167 0.9274 0.0357
C6 C -0.1165(3) 0.8203(2) -0.03061(10)
H5 H -0.0294 0.7926 -0.0092
C7 C -0.0170(2) 0.6872(2) -0.11783(9)
H6 H 0.187(3) 0.574(3) -0.1772(11)
C8 C -0.0499(2) 0.5398(2) -0.11690(9)
C9 C -0.2480(2) 0.3715(2) -0.08913(10)
C10 C -0.4100(3) 0.3944(3) -0.06397(12)
H7 H -0.4683 0.4525 -0.0900
H8 H -0.4016 0.4362 -0.0258
H9 H -0.4630 0.3091 -0.0602
C11 C -0.2578(3) 0.3072(3) -0.14994(11)
H10 H -0.3049 0.3698 -0.1771
H11 H -0.3202 0.2264 -0.1478
H12 H -0.1545 0.2845 -0.1634
C12 C -0.1465(3) 0.2901(2) -0.04750(11)
H13 H -0.1929 0.2028 -0.0412
H14 H -0.1377 0.3369 -0.0104
H15 H -0.0443 0.2790 -0.0645
C13 C 0.1079(2) 0.73740(19) -0.14781(8)
C14 C 0.1327(2) 0.88656(19) -0.15503(8)
C15 C 0.0938(2) 0.9455(2) -0.20863(9)
H16 H 0.0490 0.8934 -0.2384
C16 C 0.1218(3) 1.0828(2) -0.21792(11)
H17 H 0.0969 1.1222 -0.2541
C17 C 0.1860(3) 1.1599(2) -0.17373(11)
H18 H 0.2055 1.2514 -0.1801
C18 C 0.2218(3) 1.1019(2) -0.11983(11)
H19 H 0.2640 1.1548 -0.0898
C19 C 0.1950(3) 0.9646(2) -0.11033(9)
H20 H 0.2189 0.9257 -0.0740
C20 C 0.3501(2) 0.6776(2) -0.20390(9)
C21 C 0.4218(3) 0.5569(2) -0.23385(11)
H21 H 0.3680 0.5396 -0.2704
H22 H 0.4131 0.4792 -0.2085
H23 H 0.5302 0.5747 -0.2418
loop_
_geom_bond_atom_site_label_1
_geom_bond_atom_site_label_2
_geom_bond_site_symmetry_1
_geom_bond_site_symmetry_2
O1 H1 1_555 1_555
O2 C8 1_555 1_555
O3 C8 1_555 1_555
O4 C20 1_555 1_555
N1 H6 1_555 1_555
C1 C2 1_555 1_555
C2 O1 1_555 1_555
C3 C2 1_555 1_555
H2 C3 1_555 1_555
C4 C3 1_555 1_555
H3 C4 1_555 1_555
C5 C4 1_555 1_555
H4 C5 1_555 1_555
C6 C1 1_555 1_555
H5 C6 1_555 1_555
C7 C1 1_555 1_555
C8 C7 1_555 1_555
C9 O2 1_555 1_555
C10 C9 1_555 1_555
H7 C10 1_555 1_555
H8 C10 1_555 1_555
H9 C10 1_555 1_555
C11 C9 1_555 1_555
H10 C11 1_555 1_555
H11 C11 1_555 1_555
H12 C11 1_555 1_555
C12 C9 1_555 1_555
H13 C12 1_555 1_555
H14 C12 1_555 1_555
H15 C12 1_555 1_555
C13 N1 1_555 1_555
C14 C13 1_555 1_555
C15 C14 1_555 1_555
H16 C15 1_555 1_555
C16 C15 1_555 1_555
H17 C16 1_555 1_555
C17 C16 1_555 1_555
H18 C17 1_555 1_555
C18 C17 1_555 1_555
H19 C18 1_555 1_555
C19 C14 1_555 1_555
H20 C19 1_555 1_555
C20 N1 1_555 1_555
C21 C20 1_555 1_555
H21 C21 1_555 1_555
H22 C21 1_555 1_555
H23 C21 1_555 1_555
C5 C6 1_555 1_555
C7 C13 1_555 1_555
C18 C19 1_555 1_555

#END
