
#######################################################################
#
#                 Cambridge Crystallographic Data Centre
#                                CCDC 
#
#######################################################################
#
# If this CIF has been generated from an entry in the Cambridge 
# Structural Database, then it will include bibliographic, chemical, 
# crystal, experimental, refinement or atomic coordinate data resulting 
# from the CCDC's data processing and validation procedures.
#
#######################################################################

data_VIQZIH
_chemical_formula_moiety         'C24 H20 B1 1-,C12 H24 K1 O6 1+'
_chemical_name_systematic        '(18-crown-6)-potassium teraphenylborate'
_symmetry_cell_setting           monoclinic
_symmetry_space_group_name_H-M   'P 21/n'
_symmetry_Int_Tables_number      14
_space_group_name_Hall           '-P 2yn'
loop_
_symmetry_equiv_pos_site_id
_symmetry_equiv_pos_as_xyz
1 x,y,z
2 1/2-x,1/2+y,1/2-z
3 -x,-y,-z
4 1/2+x,1/2-y,1/2+z
_cell_length_a                   14.6855(10)
_cell_length_b                   14.1873(12)
_cell_length_c                   17.7565(15)
_cell_angle_alpha                90
_cell_angle_beta                 111.078(2)
_cell_angle_gamma                90
_cell_volume                     3452
_exptl_crystal_description       block
_cell_formula_units_Z            4
loop_
_atom_site_label
_atom_site_type_symbol
_atom_site_fract_x
_atom_site_fract_y
_atom_site_fract_z
K1 K 0.53064(13) 0.80580(12) 0.41109(11)
O1 O 0.6072(4) 0.9222(4) 0.3201(3)
O2 O 0.4850(4) 0.7870(5) 0.5521(3)
O3 O 0.3684(4) 0.9035(4) 0.4357(4)
O4 O 0.6709(4) 0.7502(3) 0.5646(3)
O5 O 0.7313(3) 0.8319(4) 0.4500(3)
O6 O 0.4212(4) 0.9503(5) 0.3062(4)
C1 C 0.7053(5) 0.9283(6) 0.3347(5)
H1 H 0.7236 0.9943 0.3382
H2 H 0.7181 0.9013 0.2893
C2 C 0.6245(6) 0.6952(6) 0.6024(6)
H3 H 0.6703 0.6803 0.6559
H4 H 0.6065 0.6364 0.5729
C3 C 0.5396(7) 0.7348(8) 0.6101(6)
H5 H 0.4999 0.6835 0.6173
H6 H 0.5599 0.7721 0.6592
C4 C 0.7641(6) 0.8827(7) 0.4055(6)
H7 H 0.8083 0.8427 0.3903
H8 H 0.8040 0.9313 0.4404
C5 C 0.5470(7) 0.9725(6) 0.2592(5)
H9 H 0.5559 0.9524 0.2101
H10 H 0.5672 1.0380 0.2681
C6 C 0.3948(7) 0.8158(7) 0.5515(5)
H11 H 0.3998 0.8300 0.6063
H12 H 0.3485 0.7645 0.5319
C7 C 0.3324(6) 0.9835(6) 0.3886(6)
H13 H 0.2648 0.9930 0.3830
H14 H 0.3692 1.0381 0.4159
C8 C 0.7956(5) 0.7861(7) 0.5192(5)
H15 H 0.8458 0.7545 0.5051
H16 H 0.8273 0.8332 0.5598
C9 C 0.3602(9) 0.8940(10) 0.5038(9)
H17 H 0.2912 0.8986 0.4949
H18 H 0.3913 0.9484 0.5359
C10 C 0.3377(7) 0.9768(10) 0.3174(7)
H19 H 0.3196 1.0379 0.2918
H20 H 0.2872 0.9330 0.2869
C11 C 0.7511(6) 0.7211(6) 0.5521(5)
H21 H 0.7338 0.6666 0.5167
H22 H 0.7983 0.7003 0.6033
C12 C 0.4446(7) 0.9685(8) 0.2454(6)
H23 H 0.4159 1.0287 0.2233
H24 H 0.4153 0.9210 0.2045
C13 C 0.4931(2) 0.5807(2) 0.30469(19)
C14 C 0.5864(2) 0.5948(2) 0.1997(2)
C15 C 0.6819(2) 0.5239(2) 0.3498(2)
C16 C 0.5385(2) 0.4252(2) 0.2412(2)
C17 C 0.6008(3) 0.3501(3) 0.2466(3)
H25 H 0.6674 0.3590 0.2741
C18 C 0.5702(3) 0.5592(3) 0.1229(2)
H26 H 0.5532 0.4960 0.1129
C19 C 0.7658(3) 0.5727(3) 0.3552(2)
H27 H 0.7629 0.6140 0.3137
C20 C 0.4414(3) 0.4048(3) 0.2000(2)
H28 H 0.3956 0.4520 0.1947
C21 C 0.6962(3) 0.4618(3) 0.4140(3)
H29 H 0.6437 0.4248 0.4134
C22 C 0.4246(3) 0.6447(3) 0.2595(3)
H30 H 0.4289 0.6667 0.2115
C23 C 0.5782(3) 0.6131(4) 0.0605(2)
H31 H 0.5667 0.5857 0.0103
C24 C 0.3386(3) 0.6497(3) 0.3501(3)
H32 H 0.2876 0.6719 0.3645
C25 C 0.5689(4) 0.2626(3) 0.2132(3)
H33 H 0.6138 0.2144 0.2189
C26 C 0.6104(3) 0.6902(3) 0.2079(2)
H34 H 0.6211 0.7191 0.2573
C27 C 0.6028(4) 0.7054(4) 0.0719(3)
H35 H 0.6083 0.7415 0.0300
B1 B 0.5769(3) 0.5324(3) 0.2747(2)
C28 C 0.4792(3) 0.5559(3) 0.3749(3)
H36 H 0.5239 0.5146 0.4098
C29 C 0.8530(3) 0.5634(4) 0.4186(3)
H37 H 0.9068 0.5981 0.4187
C30 C 0.8619(3) 0.5044(5) 0.4809(3)
H38 H 0.9204 0.5000 0.5246
C31 C 0.4088(4) 0.3175(4) 0.1661(3)
H39 H 0.3425 0.3074 0.1388
C32 C 0.4733(5) 0.2468(4) 0.1725(3)
H40 H 0.4519 0.1883 0.1492
C33 C 0.6192(3) 0.7445(3) 0.1452(3)
H41 H 0.6364 0.8078 0.1538
C34 C 0.7829(4) 0.4517(4) 0.4780(3)
H42 H 0.7877 0.4092 0.5191
C35 C 0.4040(4) 0.5880(4) 0.3969(3)
H43 H 0.3983 0.5668 0.4446
C36 C 0.3492(3) 0.6778(3) 0.2825(3)
H44 H 0.3050 0.7210 0.2495
K2? K 0.5433(8) 0.8540(11) 0.4353(7)
O7? O 0.6731(19) 0.904(2) 0.3596(17)
O8? O 0.448(2) 0.836(2) 0.5316(19)
O9? O 0.3485(16) 0.924(2) 0.3827(16)
O10? O 0.599(2) 0.7015(17) 0.5489(15)
O11? O 0.7343(14) 0.7825(19) 0.497(2)
O12? O 0.486(2) 0.977(2) 0.2990(15)
C37? C 0.761(2) 0.848(4) 0.385(2)
H45? H 0.8088 0.8790 0.3669
H46? H 0.7469 0.7869 0.3591
C38? C 0.576(4) 0.725(4) 0.620(2)
H47? H 0.6234 0.7701 0.6530
H48? H 0.5797 0.6691 0.6519
C39? C 0.474(3) 0.768(4) 0.597(2)
H49? H 0.4268 0.7170 0.5817
H50? H 0.4690 0.7980 0.6444
C40? C 0.8016(14) 0.836(3) 0.471(2)
H51? H 0.8132 0.8974 0.4973
H52? H 0.8635 0.8033 0.4861
C41? C 0.625(3) 0.958(4) 0.2847(19)
H53? H 0.6604 0.9463 0.2490
H54? H 0.6322 1.0243 0.2986
C42? C 0.347(4) 0.870(6) 0.513(5)
H55? H 0.3024 0.8183 0.4904
H56? H 0.3393 0.8908 0.5618
C43? C 0.3245(19) 0.964(5) 0.297(2)
H57? H 0.2825 0.9174 0.2607
H58? H 0.2838 1.0187 0.2938
C44? C 0.741(2) 0.685(2) 0.516(2)
H59? H 0.8083 0.6645 0.5357
H60? H 0.7050 0.6483 0.4686
C45? C 0.324(2) 0.948(3) 0.454(2)
H61? H 0.3601 1.0035 0.4801
H62? H 0.2549 0.9622 0.4374
C46? C 0.375(2) 0.985(4) 0.268(2)
H63? H 0.3621 1.0518 0.2561
H64? H 0.3530 0.9535 0.2162
C47? C 0.698(2) 0.668(3) 0.580(2)
H65? H 0.7001 0.6019 0.5927
H66? H 0.7355 0.7026 0.6286
C48? C 0.517(3) 0.940(4) 0.2366(14)
H67? H 0.4923 0.9761 0.1870
H68? H 0.5015 0.8737 0.2258
loop_
_geom_bond_atom_site_label_1
_geom_bond_atom_site_label_2
_geom_bond_site_symmetry_1
_geom_bond_site_symmetry_2
K1 O1 1_555 1_555
O1 C1 1_555 1_555
O2 K1 1_555 1_555
O3 K1 1_555 1_555
O4 K1 1_555 1_555
O5 K1 1_555 1_555
O6 K1 1_555 1_555
C1 H1 1_555 1_555
H2 C1 1_555 1_555
C2 O4 1_555 1_555
H3 C2 1_555 1_555
H4 C2 1_555 1_555
C3 O2 1_555 1_555
H5 C3 1_555 1_555
H6 C3 1_555 1_555
C4 O5 1_555 1_555
H7 C4 1_555 1_555
H8 C4 1_555 1_555
C5 O1 1_555 1_555
H9 C5 1_555 1_555
H10 C5 1_555 1_555
C6 O2 1_555 1_555
H11 C6 1_555 1_555
H12 C6 1_555 1_555
C7 O3 1_555 1_555
H13 C7 1_555 1_555
H14 C7 1_555 1_555
C8 O5 1_555 1_555
H15 C8 1_555 1_555
H16 C8 1_555 1_555
C9 O3 1_555 1_555
H17 C9 1_555 1_555
H18 C9 1_555 1_555
C10 O6 1_555 1_555
H19 C10 1_555 1_555
H20 C10 1_555 1_555
C11 O4 1_555 1_555
H21 C11 1_555 1_555
H22 C11 1_555 1_555
C12 O6 1_555 1_555
H23 C12 1_555 1_555
H24 C12 1_555 1_555
C13 C22 1_555 1_555
C14 C18 1_555 1_555
C15 C19 1_555 1_555
C16 C17 1_555 1_555
C17 H25 1_555 1_555
C18 H26 1_555 1_555
C19 H27 1_555 1_555
C20 C16 1_555 1_555
H28 C20 1_555 1_555
C21 C15 1_555 1_555
H29 C21 1_555 1_555
C22 H30 1_555 1_555
C23 C18 1_555 1_555
H31 C23 1_555 1_555
C24 H32 1_555 1_555
C25 C17 1_555 1_555
H33 C25 1_555 1_555
C26 C14 1_555 1_555
H34 C26 1_555 1_555
C27 C23 1_555 1_555
H35 C27 1_555 1_555
B1 C13 1_555 1_555
C28 C13 1_555 1_555
H36 C28 1_555 1_555
C29 C19 1_555 1_555
H37 C29 1_555 1_555
C30 C29 1_555 1_555
H38 C30 1_555 1_555
C31 C20 1_555 1_555
H39 C31 1_555 1_555
C32 C25 1_555 1_555
H40 C32 1_555 1_555
C33 C26 1_555 1_555
H41 C33 1_555 1_555
C34 C21 1_555 1_555
H42 C34 1_555 1_555
C35 C24 1_555 1_555
H43 C35 1_555 1_555
C36 C22 1_555 1_555
H44 C36 1_555 1_555
C1 C4 1_555 1_555
C2 C3 1_555 1_555
C5 C12 1_555 1_555
C6 C9 1_555 1_555
C7 C10 1_555 1_555
C8 C11 1_555 1_555
C14 B1 1_555 1_555
C15 B1 1_555 1_555
C16 B1 1_555 1_555
C24 C36 1_555 1_555
C27 C33 1_555 1_555
C28 C35 1_555 1_555
C30 C34 1_555 1_555
C31 C32 1_555 1_555

#END
