
#######################################################################
#
#                 Cambridge Crystallographic Data Centre
#                                CCDC 
#
#######################################################################
#
# If this CIF has been generated from an entry in the Cambridge 
# Structural Database, then it will include bibliographic, chemical, 
# crystal, experimental, refinement or atomic coordinate data resulting 
# from the CCDC's data processing and validation procedures.
#
#######################################################################

data_VIRBOQ
_chemical_formula_moiety         'C24 H48 K2 O12 2+,2(C24 H20 B1 1-)'
_chemical_name_systematic        
'(\m-18-crown-6)-(18-crown-6)-di-potassium bis(tetraphenylborate)'
_symmetry_cell_setting           monoclinic
_symmetry_space_group_name_H-M   'P 21/c'
_symmetry_Int_Tables_number      14
_space_group_name_Hall           '-P 2ybc'
loop_
_symmetry_equiv_pos_site_id
_symmetry_equiv_pos_as_xyz
1 x,y,z
2 -x,1/2+y,1/2-z
3 -x,-y,-z
4 x,1/2-y,1/2+z
_cell_length_a                   26.2242(9)
_cell_length_b                   14.1111(5)
_cell_length_c                   18.0007(7)
_cell_angle_alpha                90
_cell_angle_beta                 101.2680(10)
_cell_angle_gamma                90
_cell_volume                     6532.8
_exptl_crystal_colour            colorless
_exptl_crystal_description       Block
_cell_formula_units_Z            4
loop_
_atom_site_label
_atom_site_type_symbol
_atom_site_fract_x
_atom_site_fract_y
_atom_site_fract_z
K1 K 0.19470(3) 0.64619(7) 0.75563(5)
K2 K 0.31205(3) 0.31512(6) 0.71977(4)
O1 O 0.19630(9) 0.75523(19) 0.63185(14)
O2 O 0.10844(9) 0.64107(19) 0.63745(14)
O3 O 0.10197(9) 0.57721(18) 0.78285(13)
O4 O 0.19253(10) 0.51845(18) 0.87183(13)
O5 O 0.28844(9) 0.59490(17) 0.85101(13)
O6 O 0.28930(10) 0.70278(18) 0.72115(14)
O7 O 0.22059(10) 0.4609(2) 0.67324(15)
O8 O 0.30785(10) 0.43387(18) 0.59551(14)
O9 O 0.39210(9) 0.44856(19) 0.71645(14)
O10 O 0.39738(9) 0.32481(18) 0.83658(14)
O11 O 0.30330(8) 0.26139(16) 0.87025(13)
O12 O 0.21582(9) 0.29402(18) 0.75914(13)
C1 C 0.15525(19) 0.7468(4) 0.5721(3)
H1 H 0.1641 0.6979 0.5373
H2 H 0.1513 0.8076 0.5442
C2 C 0.10697(17) 0.7231(4) 0.5897(3)
H3 H 0.0818 0.7115 0.5419
H4 H 0.0942 0.7778 0.6152
C3 C 0.06051(13) 0.6311(3) 0.6608(2)
H5 H 0.0330 0.6159 0.6164
H6 H 0.0513 0.6918 0.6825
C4 C 0.06323(14) 0.5551(3) 0.7182(2)
H7 H 0.0291 0.5484 0.7332
H8 H 0.0717 0.4940 0.6963
C5 C 0.10073(14) 0.5156(3) 0.8446(2)
H9 H 0.0994 0.4490 0.8271
H10 H 0.0693 0.5283 0.8657
C6 C 0.14801(16) 0.5307(3) 0.9040(2)
H11 H 0.1477 0.5955 0.9251
H12 H 0.1486 0.4849 0.9458
C7 C 0.23994(15) 0.5078(3) 0.9259(2)
H13 H 0.2390 0.4490 0.9556
H14 H 0.2449 0.5622 0.9613
C8 C 0.28327(15) 0.5035(3) 0.8831(2)
H15 H 0.3161 0.4857 0.9175
H16 H 0.2755 0.4554 0.8424
C9 C 0.33269(15) 0.6007(3) 0.8163(2)
H17 H 0.3313 0.5496 0.7783
H18 H 0.3648 0.5925 0.8550
C10 C 0.33357(14) 0.6941(3) 0.7790(2)
H19 H 0.3339 0.7454 0.8166
H20 H 0.3654 0.6998 0.7574
C11 C 0.28408(16) 0.7922(3) 0.6837(2)
H21 H 0.2765 0.8416 0.7190
H22 H 0.3172 0.8088 0.6683
C12 C 0.24339(19) 0.7898(4) 0.6186(3)
H23 H 0.2378 0.8549 0.5979
H24 H 0.2546 0.7499 0.5795
C13 C 0.17884(15) 0.3952(3) 0.6570(2)
H25 H 0.1866 0.3467 0.6211
H26 H 0.1466 0.4286 0.6332
C14 C 0.17118(13) 0.3484(3) 0.7285(2)
H27 H 0.1653 0.3971 0.7655
H28 H 0.1402 0.3068 0.7178
C15 C 0.21217(14) 0.2508(3) 0.8297(2)
H29 H 0.1821 0.2071 0.8225
H30 H 0.2071 0.3000 0.8668
C16 C 0.26079(13) 0.1977(3) 0.8581(2)
H31 H 0.2584 0.1654 0.9062
H32 H 0.2659 0.1489 0.8208
C17 C 0.35171(14) 0.2172(3) 0.9007(2)
H33 H 0.3590 0.1666 0.8662
H34 H 0.3504 0.1884 0.9504
C18 C 0.39312(13) 0.2905(3) 0.90951(19)
H35 H 0.3844 0.3433 0.9410
H36 H 0.4267 0.2628 0.9351
C19 C 0.43368(13) 0.3991(3) 0.8404(2)
H37 H 0.4676 0.3782 0.8704
H38 H 0.4217 0.4541 0.8665
C20 C 0.44051(13) 0.4282(3) 0.7642(2)
H39 H 0.4630 0.4851 0.7685
H40 H 0.4581 0.3768 0.7414
C21 C 0.39662(15) 0.4727(3) 0.6420(2)
H41 H 0.4082 0.4168 0.6165
H42 H 0.4229 0.5234 0.6434
C22 C 0.34529(17) 0.5060(3) 0.5989(2)
H43 H 0.3340 0.5626 0.6240
H44 H 0.3486 0.5242 0.5469
C23 C 0.25620(16) 0.4612(3) 0.5589(2)
H45 H 0.2363 0.4036 0.5401
H46 H 0.2585 0.5013 0.5146
C24 C 0.22764(17) 0.5132(3) 0.6083(2)
H47 H 0.2467 0.5724 0.6252
H48 H 0.1931 0.5311 0.5786
B1 B 0.10259(15) 0.9518(3) 0.8233(2)
C25 C 0.10063(12) 1.0627(2) 0.85176(18)
C26 C 0.07563(13) 1.1359(3) 0.8059(2)
H49 H 0.0613 1.1224 0.7544
C27 C 0.07082(14) 1.2268(3) 0.8323(2)
H50 H 0.0532 1.2737 0.7991
C28 C 0.09145(14) 1.2496(3) 0.9063(2)
H51 H 0.0880 1.3119 0.9248
C29 C 0.11718(15) 1.1806(3) 0.9530(2)
H52 H 0.1319 1.1955 1.0042
C30 C 0.12180(14) 1.0892(2) 0.92617(19)
H53 H 0.1400 1.0431 0.9597
C31 C 0.05960(12) 0.8892(2) 0.85837(17)
C32 C 0.05039(13) 0.7935(3) 0.83941(19)
H54 H 0.0698 0.7650 0.8060
C33 C 0.01438(14) 0.7382(3) 0.8670(2)
H55 H 0.0101 0.6734 0.8530
C34 C -0.01528(14) 0.7777(3) 0.9148(2)
H56 H -0.0404 0.7408 0.9333
C35 C -0.00768(14) 0.8714(3) 0.9350(2)
H57 H -0.0276 0.8994 0.9680
C36 C 0.02911(13) 0.9256(3) 0.90729(18)
H58 H 0.0336 0.9901 0.9224
C37 C 0.08866(13) 0.9503(3) 0.73002(19)
C38 C 0.12395(19) 0.9814(4) 0.6871(2)
H59 H 0.1581 0.9974 0.7125
C39 C 0.1117(2) 0.9905(5) 0.6087(2)
H60 H 0.1372 1.0140 0.5823
C40 C 0.06346(15) 0.9660(3) 0.5690(2)
H61 H 0.0545 0.9735 0.5156
C41 C 0.02881(14) 0.9305(3) 0.6092(2)
H62 H -0.0044 0.9100 0.5831
C42 C 0.04116(13) 0.9239(3) 0.68739(19)
H63 H 0.0155 0.8998 0.7131
C43 C 0.16207(13) 0.9107(2) 0.85335(18)
C44 C 0.17443(14) 0.8224(3) 0.8852(2)
H64 H 0.1468 0.7813 0.8913
C45 C 0.22518(15) 0.7907(3) 0.9088(2)
H65 H 0.2314 0.7292 0.9301
C46 C 0.26634(14) 0.8471(3) 0.9016(2)
H66 H 0.3010 0.8255 0.9180
C47 C 0.25656(14) 0.9358(3) 0.8703(2)
H67 H 0.2845 0.9758 0.8641
C48 C 0.20584(13) 0.9662(3) 0.8480(2)
H68 H 0.2001 1.0283 0.8278
B2 B 0.40182(14) 0.0471(3) 0.6758(2)
C49 C 0.34418(12) 0.0980(2) 0.65027(17)
C50 C 0.33237(13) 0.1599(2) 0.58909(19)
H69 H 0.3599 0.1807 0.5657
C51 C 0.28241(14) 0.1931(2) 0.5603(2)
H70 H 0.2765 0.2351 0.5183
C52 C 0.24121(13) 0.1645(3) 0.5933(2)
H71 H 0.2068 0.1853 0.5735
C53 C 0.25141(14) 0.1055(3) 0.6548(2)
H72 H 0.2238 0.0863 0.6786
C54 C 0.30138(13) 0.0736(3) 0.6827(2)
H73 H 0.3070 0.0332 0.7258
C55 C 0.44518(12) 0.1078(2) 0.64044(17)
C56 C 0.47575(12) 0.0686(2) 0.59284(18)
H74 H 0.4712 0.0035 0.5796
C57 C 0.51273(13) 0.1210(3) 0.5638(2)
H75 H 0.5326 0.0913 0.5316
C58 C 0.52045(13) 0.2153(3) 0.5816(2)
H76 H 0.5459 0.2508 0.5626
C59 C 0.49039(14) 0.2577(3) 0.6280(2)
H77 H 0.4948 0.3229 0.6405
C60 C 0.45382(13) 0.2042(2) 0.6558(2)
H78 H 0.4336 0.2348 0.6871
C61 C 0.39672(12) -0.0602(2) 0.63771(18)
C62 C 0.36490(13) -0.0780(2) 0.56745(18)
H79 H 0.3441 -0.0278 0.5429
C63 C 0.36211(15) -0.1655(3) 0.5316(2)
H80 H 0.3399 -0.1739 0.4837
C64 C 0.39176(14) -0.2403(3) 0.5658(2)
H81 H 0.3904 -0.3003 0.5416
C65 C 0.42332(13) -0.2263(2) 0.6359(2)
H82 H 0.4436 -0.2772 0.6605
C66 C 0.42564(12) -0.1384(2) 0.6704(2)
H83 H 0.4478 -0.1307 0.7185
C67 C 0.41809(12) 0.0382(2) 0.76872(18)
C68 C 0.39375(13) -0.0291(3) 0.80872(19)
H84 H 0.3685 -0.0705 0.7808
C69 C 0.40524(14) -0.0370(3) 0.8872(2)
H85 H 0.3875 -0.0823 0.9118
C70 C 0.44255(14) 0.0214(3) 0.9296(2)
H86 H 0.4503 0.0171 0.9833
C71 C 0.46813(14) 0.0854(3) 0.8926(2)
H87 H 0.4943 0.1248 0.9208
C72 C 0.45594(12) 0.0930(3) 0.81433(19)
H88 H 0.4744 0.1379 0.7905
loop_
_geom_bond_atom_site_label_1
_geom_bond_atom_site_label_2
_geom_bond_site_symmetry_1
_geom_bond_site_symmetry_2
K1 O1 1_555 1_555
K2 O7 1_555 1_555
O1 C1 1_555 1_555
O2 K1 1_555 1_555
O3 K1 1_555 1_555
O4 K1 1_555 1_555
O5 K1 1_555 1_555
O6 K1 1_555 1_555
O7 K1 1_555 1_555
O8 K2 1_555 1_555
O9 K2 1_555 1_555
O10 K2 1_555 1_555
O11 K2 1_555 1_555
O12 K2 1_555 1_555
C1 H1 1_555 1_555
H2 C1 1_555 1_555
C2 O2 1_555 1_555
H3 C2 1_555 1_555
H4 C2 1_555 1_555
C3 O2 1_555 1_555
H5 C3 1_555 1_555
H6 C3 1_555 1_555
C4 O3 1_555 1_555
H7 C4 1_555 1_555
H8 C4 1_555 1_555
C5 O3 1_555 1_555
H9 C5 1_555 1_555
H10 C5 1_555 1_555
C6 O4 1_555 1_555
H11 C6 1_555 1_555
H12 C6 1_555 1_555
C7 O4 1_555 1_555
H13 C7 1_555 1_555
H14 C7 1_555 1_555
C8 O5 1_555 1_555
H15 C8 1_555 1_555
H16 C8 1_555 1_555
C9 O5 1_555 1_555
H17 C9 1_555 1_555
H18 C9 1_555 1_555
C10 O6 1_555 1_555
H19 C10 1_555 1_555
H20 C10 1_555 1_555
C11 O6 1_555 1_555
H21 C11 1_555 1_555
H22 C11 1_555 1_555
C12 O1 1_555 1_555
H23 C12 1_555 1_555
H24 C12 1_555 1_555
C13 O7 1_555 1_555
H25 C13 1_555 1_555
H26 C13 1_555 1_555
C14 O12 1_555 1_555
H27 C14 1_555 1_555
H28 C14 1_555 1_555
C15 O12 1_555 1_555
H29 C15 1_555 1_555
H30 C15 1_555 1_555
C16 O11 1_555 1_555
H31 C16 1_555 1_555
H32 C16 1_555 1_555
C17 O11 1_555 1_555
H33 C17 1_555 1_555
H34 C17 1_555 1_555
C18 O10 1_555 1_555
H35 C18 1_555 1_555
H36 C18 1_555 1_555
C19 O10 1_555 1_555
H37 C19 1_555 1_555
H38 C19 1_555 1_555
C20 O9 1_555 1_555
H39 C20 1_555 1_555
H40 C20 1_555 1_555
C21 O9 1_555 1_555
H41 C21 1_555 1_555
H42 C21 1_555 1_555
C22 O8 1_555 1_555
H43 C22 1_555 1_555
H44 C22 1_555 1_555
C23 O8 1_555 1_555
H45 C23 1_555 1_555
H46 C23 1_555 1_555
C24 O7 1_555 1_555
H47 C24 1_555 1_555
H48 C24 1_555 1_555
B1 C25 1_555 1_555
C25 C26 1_555 1_555
C26 H49 1_555 1_555
C27 C26 1_555 1_555
H50 C27 1_555 1_555
C28 C27 1_555 1_555
H51 C28 1_555 1_555
C29 C28 1_555 1_555
H52 C29 1_555 1_555
C30 C25 1_555 1_555
H53 C30 1_555 1_555
C31 B1 1_555 1_555
C32 C31 1_555 1_555
H54 C32 1_555 1_555
C33 C32 1_555 1_555
H55 C33 1_555 1_555
C34 C33 1_555 1_555
H56 C34 1_555 1_555
C35 C34 1_555 1_555
H57 C35 1_555 1_555
C36 C31 1_555 1_555
H58 C36 1_555 1_555
C37 B1 1_555 1_555
C38 C37 1_555 1_555
H59 C38 1_555 1_555
C39 C38 1_555 1_555
H60 C39 1_555 1_555
C40 C39 1_555 1_555
H61 C40 1_555 1_555
C41 C40 1_555 1_555
H62 C41 1_555 1_555
C42 C37 1_555 1_555
H63 C42 1_555 1_555
C43 B1 1_555 1_555
C44 C43 1_555 1_555
H64 C44 1_555 1_555
C45 C44 1_555 1_555
H65 C45 1_555 1_555
C46 C45 1_555 1_555
H66 C46 1_555 1_555
C47 C46 1_555 1_555
H67 C47 1_555 1_555
C48 C43 1_555 1_555
H68 C48 1_555 1_555
B2 C49 1_555 1_555
C49 C50 1_555 1_555
C50 H69 1_555 1_555
C51 C50 1_555 1_555
H70 C51 1_555 1_555
C52 C51 1_555 1_555
H71 C52 1_555 1_555
C53 C52 1_555 1_555
H72 C53 1_555 1_555
C54 C49 1_555 1_555
H73 C54 1_555 1_555
C55 B2 1_555 1_555
C56 C55 1_555 1_555
H74 C56 1_555 1_555
C57 C56 1_555 1_555
H75 C57 1_555 1_555
C58 C57 1_555 1_555
H76 C58 1_555 1_555
C59 C58 1_555 1_555
H77 C59 1_555 1_555
C60 C55 1_555 1_555
H78 C60 1_555 1_555
C61 B2 1_555 1_555
C62 C61 1_555 1_555
H79 C62 1_555 1_555
C63 C62 1_555 1_555
H80 C63 1_555 1_555
C64 C63 1_555 1_555
H81 C64 1_555 1_555
C65 C64 1_555 1_555
H82 C65 1_555 1_555
C66 C61 1_555 1_555
H83 C66 1_555 1_555
C67 B2 1_555 1_555
C68 C67 1_555 1_555
H84 C68 1_555 1_555
C69 C68 1_555 1_555
H85 C69 1_555 1_555
C70 C69 1_555 1_555
H86 C70 1_555 1_555
C71 C70 1_555 1_555
H87 C71 1_555 1_555
C72 C67 1_555 1_555
H88 C72 1_555 1_555
C1 C2 1_555 1_555
C3 C4 1_555 1_555
C5 C6 1_555 1_555
C7 C8 1_555 1_555
C9 C10 1_555 1_555
C11 C12 1_555 1_555
C13 C14 1_555 1_555
C15 C16 1_555 1_555
C17 C18 1_555 1_555
C19 C20 1_555 1_555
C21 C22 1_555 1_555
C23 C24 1_555 1_555
C29 C30 1_555 1_555
C35 C36 1_555 1_555
C41 C42 1_555 1_555
C47 C48 1_555 1_555
C53 C54 1_555 1_555
C59 C60 1_555 1_555
C65 C66 1_555 1_555
C71 C72 1_555 1_555

#END
