
#######################################################################
#
#                 Cambridge Crystallographic Data Centre
#                                CCDC 
#
#######################################################################
#
# If this CIF has been generated from an entry in the Cambridge 
# Structural Database, then it will include bibliographic, chemical, 
# crystal, experimental, refinement or atomic coordinate data resulting 
# from the CCDC's data processing and validation procedures.
#
#######################################################################

data_VIRGUY
_chemical_formula_moiety         'C8 H6 N2 S1'
_chemical_name_systematic        4-Phenyl-1,2,3-benzothiadiazole
_symmetry_cell_setting           monoclinic
_symmetry_space_group_name_H-M   'P a'
_symmetry_Int_Tables_number      7
_space_group_name_Hall           'P -2ya'
loop_
_symmetry_equiv_pos_site_id
_symmetry_equiv_pos_as_xyz
1 x,y,z
2 1/2+x,-y,z
_cell_length_a                   7.4103(16)
_cell_length_b                   5.6646(11)
_cell_length_c                   9.133(2)
_cell_angle_alpha                90
_cell_angle_beta                 96.61(2)
_cell_angle_gamma                90
_cell_volume                     380.822
_cell_formula_units_Z            2
loop_
_atom_site_label
_atom_site_type_symbol
_atom_site_fract_x
_atom_site_fract_y
_atom_site_fract_z
S1 S 0.15140(5) 0.2445(2) 0.72420(5)
N1 N 0.1257(7) -0.0297(8) 0.6590(4)
N2 N 0.0618(6) -0.0297(6) 0.5219(4)
C1 C 0.0271(5) 0.1917(8) 0.4628(5)
C2 C 0.0725(7) 0.3663(7) 0.5630(5)
C3 C -0.0482(5) 0.2195(6) 0.3078(5)
C4 C -0.0217(6) 0.0442(6) 0.2047(5)
C5 C -0.0884(6) 0.0710(7) 0.0599(5)
C6 C -0.1840(6) 0.2711(7) 0.0131(6)
C7 C -0.2118(6) 0.4474(7) 0.1136(5)
C8 C -0.1446(6) 0.4198(6) 0.2596(4)
loop_
_geom_bond_atom_site_label_1
_geom_bond_atom_site_label_2
_geom_bond_site_symmetry_1
_geom_bond_site_symmetry_2
S1 N1 1_555 1_555
N1 N2 1_555 1_555
N2 C1 1_555 1_555
C1 C2 1_555 1_555
C2 S1 1_555 1_555
C3 C1 1_555 1_555
C4 C3 1_555 1_555
C5 C4 1_555 1_555
C6 C5 1_555 1_555
C7 C6 1_555 1_555
C8 C3 1_555 1_555
C7 C8 1_555 1_555

#END
