
#######################################################################
#
#                 Cambridge Crystallographic Data Centre
#                                CCDC 
#
#######################################################################
#
# If this CIF has been generated from an entry in the Cambridge 
# Structural Database, then it will include bibliographic, chemical, 
# crystal, experimental, refinement or atomic coordinate data resulting 
# from the CCDC's data processing and validation procedures.
#
#######################################################################

data_VIRKEO
_chemical_name_common            11beta-Aminoprogesterone
_chemical_formula_moiety         'C21 H31 N1 O2'
_chemical_name_systematic        11\b-Aminopregn-4-ene-3,20-dione
_symmetry_cell_setting           orthorhombic
_symmetry_space_group_name_H-M   'P 21 21 21'
_symmetry_Int_Tables_number      19
_space_group_name_Hall           'P 2ac 2ab'
loop_
_symmetry_equiv_pos_site_id
_symmetry_equiv_pos_as_xyz
1 x,y,z
2 1/2-x,-y,1/2+z
3 -x,1/2+y,1/2-z
4 1/2+x,1/2-y,-z
_cell_length_a                   7.4436(3)
_cell_length_b                   11.5809(4)
_cell_length_c                   20.5000(7)
_cell_angle_alpha                90
_cell_angle_beta                 90
_cell_angle_gamma                90
_cell_volume                     1767.17
_exptl_crystal_colour            colorless
_exptl_crystal_description       prism
_cell_formula_units_Z            4
loop_
_atom_site_label
_atom_site_type_symbol
_atom_site_fract_x
_atom_site_fract_y
_atom_site_fract_z
O1 O 0.2891(2) 0.47718(10) 0.25310(6)
O2 O 0.3316(2) -0.27713(12) -0.12857(7)
N1 N 0.4959(2) -0.05509(14) 0.11388(7)
H1 H 0.5332 -0.0287 0.1534
H2 H 0.5796 -0.1042 0.0973
C1 C 0.4547(2) 0.22060(15) 0.17402(8)
H3 H 0.5500 0.1626 0.1819
H4 H 0.4934 0.2693 0.1369
C2 C 0.4368(2) 0.29665(15) 0.23461(8)
H5 H 0.4158 0.2472 0.2733
H6 H 0.5503 0.3394 0.2416
C3 C 0.2842(2) 0.38139(14) 0.22791(8)
C4 C 0.1275(2) 0.34079(15) 0.19160(8)
H7 H 0.0242 0.3889 0.1905
C5 C 0.1208(2) 0.23908(15) 0.15948(8)
C6 C -0.0521(2) 0.19721(15) 0.12957(9)
H8 H -0.1402 0.2613 0.1291
H9 H -0.1022 0.1344 0.1568
C7 C -0.0253(2) 0.15290(14) 0.05995(8)
H10 H 0.0047 0.2188 0.0312
H11 H -0.1392 0.1187 0.0442
C8 C 0.12394(19) 0.06229(13) 0.05529(7)
H12 H 0.0897 -0.0077 0.0810
C9 C 0.29932(19) 0.11407(13) 0.08285(7)
H13 H 0.3168 0.1865 0.0571
C10 C 0.2804(2) 0.15737(13) 0.15505(7)
C11 C 0.4720(2) 0.04286(14) 0.06918(8)
H14 H 0.5766 0.0958 0.0757
C12 C 0.48010(19) -0.00077(14) -0.00207(7)
H15 H 0.5072 0.0654 -0.0310
H16 H 0.5801 -0.0567 -0.0061
C13 C 0.3069(2) -0.05846(13) -0.02545(7)
C14 C 0.1539(2) 0.02895(13) -0.01587(7)
H17 H 0.1910 0.1010 -0.0391
C15 C -0.0036(2) -0.02176(14) -0.05473(8)
H18 H -0.0843 0.0401 -0.0706
H19 H -0.0739 -0.0762 -0.0276
C16 C 0.0869(2) -0.08535(16) -0.11263(8)
H20 H 0.0549 -0.0478 -0.1544
H21 H 0.0474 -0.1669 -0.1142
C17 C 0.2925(2) -0.07814(14) -0.10081(7)
H22 H 0.3390 -0.0076 -0.1233
C18 C 0.2705(2) -0.17267(13) 0.01008(8)
H23 H 0.1600 -0.2074 -0.0070
H24 H 0.2568 -0.1579 0.0569
H25 H 0.3714 -0.2256 0.0030
C19 C 0.2361(3) 0.06037(15) 0.20518(8)
H26 H 0.3471 0.0208 0.2179
H27 H 0.1533 0.0047 0.1853
H28 H 0.1799 0.0945 0.2439
C20 C 0.3976(2) -0.18178(15) -0.12545(8)
C21 C 0.5897(2) -0.16202(16) -0.14564(9)
H29 H 0.6481 -0.2365 -0.1536
H30 H 0.6535 -0.1210 -0.1108
H31 H 0.5926 -0.1156 -0.1856
loop_
_geom_bond_atom_site_label_1
_geom_bond_atom_site_label_2
_geom_bond_site_symmetry_1
_geom_bond_site_symmetry_2
O1 C3 1_555 1_555
O2 C20 1_555 1_555
N1 H1 1_555 1_555
H2 N1 1_555 1_555
C1 H3 1_555 1_555
H4 C1 1_555 1_555
C2 C1 1_555 1_555
H5 C2 1_555 1_555
H6 C2 1_555 1_555
C3 C2 1_555 1_555
C4 C3 1_555 1_555
H7 C4 1_555 1_555
C5 C4 1_555 1_555
C6 C5 1_555 1_555
H8 C6 1_555 1_555
H9 C6 1_555 1_555
C7 C6 1_555 1_555
H10 C7 1_555 1_555
H11 C7 1_555 1_555
C8 C7 1_555 1_555
H12 C8 1_555 1_555
C9 C8 1_555 1_555
H13 C9 1_555 1_555
C10 C1 1_555 1_555
C11 N1 1_555 1_555
H14 C11 1_555 1_555
C12 C11 1_555 1_555
H15 C12 1_555 1_555
H16 C12 1_555 1_555
C13 C12 1_555 1_555
C14 C8 1_555 1_555
H17 C14 1_555 1_555
C15 C14 1_555 1_555
H18 C15 1_555 1_555
H19 C15 1_555 1_555
C16 C15 1_555 1_555
H20 C16 1_555 1_555
H21 C16 1_555 1_555
C17 C13 1_555 1_555
H22 C17 1_555 1_555
C18 C13 1_555 1_555
H23 C18 1_555 1_555
H24 C18 1_555 1_555
H25 C18 1_555 1_555
C19 C10 1_555 1_555
H26 C19 1_555 1_555
H27 C19 1_555 1_555
H28 C19 1_555 1_555
C20 C17 1_555 1_555
C21 C20 1_555 1_555
H29 C21 1_555 1_555
H30 C21 1_555 1_555
H31 C21 1_555 1_555
C5 C10 1_555 1_555
C9 C10 1_555 1_555
C9 C11 1_555 1_555
C13 C14 1_555 1_555
C16 C17 1_555 1_555

#END
