
#######################################################################
#
#                 Cambridge Crystallographic Data Centre
#                                CCDC 
#
#######################################################################
#
# If this CIF has been generated from an entry in the Cambridge 
# Structural Database, then it will include bibliographic, chemical, 
# crystal, experimental, refinement or atomic coordinate data resulting 
# from the CCDC's data processing and validation procedures.
#
#######################################################################

data_VISBEH
_chemical_formula_moiety         'C23 H20 Cl1 F1 N2 O3 S1'
_chemical_name_systematic        
N-[(4-chloro-3-fluoro-1-methyl-2-oxo-2,3-dihydro-1H-indol-3-yl)(phenyl)methyl]-4-methylbenzene-1-sulfonamide
_symmetry_cell_setting           orthorhombic
_symmetry_space_group_name_H-M   'P 21 21 21'
_symmetry_Int_Tables_number      19
_space_group_name_Hall           'P 2ac 2ab'
loop_
_symmetry_equiv_pos_site_id
_symmetry_equiv_pos_as_xyz
1 x,y,z
2 1/2-x,-y,1/2+z
3 -x,1/2+y,1/2-z
4 1/2+x,1/2-y,-z
_cell_length_a                   9.5099(3)
_cell_length_b                   9.7883(3)
_cell_length_c                   23.6429(7)
_cell_angle_alpha                90
_cell_angle_beta                 90
_cell_angle_gamma                90
_cell_volume                     2200.82
_exptl_crystal_colour            colorless
_exptl_crystal_description       prismatic
_cell_formula_units_Z            4
loop_
_atom_site_label
_atom_site_type_symbol
_atom_site_fract_x
_atom_site_fract_y
_atom_site_fract_z
Cl1 Cl 0.95673(14) 0.83675(18) 0.69031(6)
S1 S 0.66474(7) 0.75292(8) 0.48390(3)
F1 F 0.6469(3) 0.9397(2) 0.64112(9)
O1 O 0.3731(3) 0.8121(3) 0.62936(11)
O2 O 0.8060(2) 0.8029(2) 0.48649(10)
O3 O 0.5648(2) 0.8162(2) 0.44717(9)
N1 N 0.4560(3) 0.6941(3) 0.70626(12)
N2 N 0.6009(3) 0.7692(3) 0.54740(11)
C1 C 0.5859(4) 0.6812(4) 0.73401(15)
C2 C 0.6130(5) 0.6110(5) 0.78358(16)
H1 H 0.5427 0.5632 0.8025
C3 C 0.7486(6) 0.6149(6) 0.80365(17)
H2 H 0.7697 0.5694 0.8371
C4 C 0.8536(5) 0.6834(5) 0.77608(18)
H3 H 0.9443 0.6840 0.7908
C5 C 0.8240(4) 0.7522(5) 0.72588(15)
C6 C 0.6896(3) 0.7502(4) 0.70414(13)
C7 C 0.6259(4) 0.8005(3) 0.64974(14)
C8 C 0.4680(4) 0.7729(4) 0.65943(14)
C9 C 0.3248(5) 0.6331(7) 0.7239(2)
H4 H 0.3389 0.5376 0.7313
H5 H 0.2560 0.6439 0.6946
H6 H 0.2922 0.6773 0.7577
C10 C 0.6802(3) 0.7230(3) 0.59704(12)
H7 H 0.7784 0.7500 0.5913
C11 C 0.6788(4) 0.5698(3) 0.60752(12)
C12 C 0.5575(4) 0.4925(4) 0.60105(14)
H8 H 0.4745 0.5338 0.5892
C13 C 0.5604(6) 0.3545(4) 0.61226(18)
H9 H 0.4791 0.3030 0.6075
C14 C 0.6804(7) 0.2924(4) 0.63014(19)
H10 H 0.6809 0.1992 0.6377
C15 C 0.8008(6) 0.3681(5) 0.63696(18)
H11 H 0.8829 0.3256 0.6490
C16 C 0.8009(4) 0.5060(4) 0.62610(14)
H12 H 0.8827 0.5566 0.6312
C17 C 0.6706(3) 0.5765(3) 0.46866(11)
C18 C 0.5486(4) 0.5123(4) 0.45013(14)
H13 H 0.4680 0.5628 0.4425
C19 C 0.5490(4) 0.3726(4) 0.44332(15)
H14 H 0.4678 0.3293 0.4307
C20 C 0.6674(4) 0.2947(3) 0.45471(16)
C21 C 0.7869(4) 0.3626(4) 0.47239(15)
H15 H 0.8679 0.3122 0.4796
C22 C 0.7905(3) 0.5018(3) 0.47977(14)
H16 H 0.8722 0.5449 0.4920
C23 C 0.6654(6) 0.1413(4) 0.4485(3)
H17 H 0.6188 0.1015 0.4805
H18 H 0.7602 0.1078 0.4466
H19 H 0.6161 0.1170 0.4145
H20 H 0.517(4) 0.764(4) 0.5478(15)
loop_
_geom_bond_atom_site_label_1
_geom_bond_atom_site_label_2
_geom_bond_site_symmetry_1
_geom_bond_site_symmetry_2
Cl1 C5 1_555 1_555
S1 O2 1_555 1_555
F1 C7 1_555 1_555
O1 C8 1_555 1_555
O3 S1 1_555 1_555
N1 C1 1_555 1_555
N2 S1 1_555 1_555
C1 C2 1_555 1_555
C2 H1 1_555 1_555
C3 C2 1_555 1_555
H2 C3 1_555 1_555
C4 C3 1_555 1_555
H3 C4 1_555 1_555
C5 C4 1_555 1_555
C6 C1 1_555 1_555
C7 C6 1_555 1_555
C8 N1 1_555 1_555
C9 N1 1_555 1_555
H4 C9 1_555 1_555
H5 C9 1_555 1_555
H6 C9 1_555 1_555
C10 N2 1_555 1_555
H7 C10 1_555 1_555
C11 C10 1_555 1_555
C12 C11 1_555 1_555
H8 C12 1_555 1_555
C13 C12 1_555 1_555
H9 C13 1_555 1_555
C14 C13 1_555 1_555
H10 C14 1_555 1_555
C15 C14 1_555 1_555
H11 C15 1_555 1_555
C16 C11 1_555 1_555
H12 C16 1_555 1_555
C17 S1 1_555 1_555
C18 C17 1_555 1_555
H13 C18 1_555 1_555
C19 C18 1_555 1_555
H14 C19 1_555 1_555
C20 C19 1_555 1_555
C21 C20 1_555 1_555
H15 C21 1_555 1_555
C22 C17 1_555 1_555
H16 C22 1_555 1_555
C23 C20 1_555 1_555
H17 C23 1_555 1_555
H18 C23 1_555 1_555
H19 C23 1_555 1_555
H20 N2 1_555 1_555
C5 C6 1_555 1_555
C7 C8 1_555 1_555
C7 C10 1_555 1_555
C15 C16 1_555 1_555
C21 C22 1_555 1_555

#END
