
#######################################################################
#
#                 Cambridge Crystallographic Data Centre
#                                CCDC 
#
#######################################################################
#
# If this CIF has been generated from an entry in the Cambridge 
# Structural Database, then it will include bibliographic, chemical, 
# crystal, experimental, refinement or atomic coordinate data resulting 
# from the CCDC's data processing and validation procedures.
#
#######################################################################

data_VISHEL
_chemical_formula_moiety         'C27 H39 B1 N2'
_chemical_name_systematic        
(1,3-bis(2,6-di-isopropylphenyl)imidazol-2-ylidene)borane
_symmetry_cell_setting           monoclinic
_symmetry_space_group_name_H-M   'P 21/n'
_symmetry_Int_Tables_number      14
_space_group_name_Hall           '-P 2yn'
loop_
_symmetry_equiv_pos_site_id
_symmetry_equiv_pos_as_xyz
1 x,y,z
2 1/2-x,1/2+y,1/2-z
3 -x,-y,-z
4 1/2+x,1/2-y,1/2+z
_cell_length_a                   19.622(3)
_cell_length_b                   6.9958(12)
_cell_length_c                   20.174(4)
_cell_angle_alpha                90
_cell_angle_beta                 101.398(2)
_cell_angle_gamma                90
_cell_volume                     2714.7
_exptl_crystal_colour            colorless
_chemical_melting_point          273deg.C(dec.)
_cell_formula_units_Z            4
_exptl_crystal_recrystallization_method dichloromethane
loop_
_atom_site_label
_atom_site_type_symbol
_atom_site_fract_x
_atom_site_fract_y
_atom_site_fract_z
B1 B 0.45398(18) 1.0077(5) 0.2527(3)
H1 H 0.4576(17) 1.092(5) 0.2075(17)
H2 H 0.4847(17) 1.095(5) 0.2934(16)
H3 H 0.405(2) 0.978(5) 0.2623(18)
N1 N 0.46619(10) 0.6302(3) 0.24530(11)
N2 N 0.56049(10) 0.7846(3) 0.24939(12)
C1 C 0.49215(12) 0.8093(3) 0.24936(14)
C2 C 0.51711(14) 0.4970(4) 0.24264(15)
H4 H 0.5115 0.3651 0.2396
C3 C 0.57592(14) 0.5938(4) 0.24519(16)
H5 H 0.6194 0.5420 0.2443
C4 C 0.61140(12) 0.9356(3) 0.25659(15)
C5 C 0.62217(12) 1.0296(4) 0.19905(15)
C6 C 0.67505(14) 1.1666(4) 0.20822(18)
H6 H 0.6844 1.2327 0.1710
C7 C 0.71308(15) 1.2046(4) 0.2710(2)
H7 H 0.7485 1.2948 0.2759
C8 C 0.70009(15) 1.1127(5) 0.32681(18)
H8 H 0.7265 1.1421 0.3692
C9 C 0.64799(14) 0.9760(4) 0.32123(16)
C10 C 0.63273(18) 0.8778(6) 0.38363(18)
H9 H 0.5892 0.8069 0.3695
C11 C 0.6210(3) 1.0195(8) 0.4369(2)
H10 H 0.5851 1.1078 0.4174
H11 H 0.6632 1.0882 0.4535
H12 H 0.6070 0.9524 0.4735
C12 C 0.6886(2) 0.7319(7) 0.4119(2)
H13 H 0.6941 0.6434 0.3770
H14 H 0.6751 0.6638 0.4486
H15 H 0.7319 0.7967 0.4280
C13 C 0.58059(16) 0.9858(5) 0.12893(17)
H16 H 0.5384 0.9179 0.1344
C14 C 0.5583(2) 1.1650(6) 0.0884(2)
H17 H 0.5320 1.2450 0.1128
H18 H 0.5301 1.1307 0.0456
H19 H 0.5987 1.2329 0.0812
C15 C 0.6208(2) 0.8552(7) 0.0907(2)
H20 H 0.6339 0.7414 0.1167
H21 H 0.6618 0.9197 0.0833
H22 H 0.5922 0.8217 0.0480
C16 C 0.39349(13) 0.5837(4) 0.24153(16)
C17 C 0.35082(15) 0.5777(4) 0.17843(18)
C18 C 0.28132(17) 0.5294(5) 0.1771(2)
H23 H 0.2502 0.5250 0.1358
C19 C 0.25851(19) 0.4893(5) 0.2342(3)
H24 H 0.2121 0.4574 0.2316
C20 C 0.3019(2) 0.4946(5) 0.2953(2)
H25 H 0.2848 0.4666 0.3340
C21 C 0.37226(16) 0.5417(4) 0.30116(18)
C22 C 0.4197(2) 0.5494(6) 0.36992(19)
H26 H 0.4673 0.5623 0.3622
C23 C 0.4173(3) 0.3664(7) 0.4095(2)
H27 H 0.4269 0.2596 0.3829
H28 H 0.3720 0.3519 0.4200
H29 H 0.4515 0.3718 0.4506
C24 C 0.4058(4) 0.7209(7) 0.4094(3)
H30 H 0.4086 0.8342 0.3833
H31 H 0.4397 0.7274 0.4508
H32 H 0.3601 0.7110 0.4196
C25 C 0.37502(19) 0.6256(6) 0.11359(19)
H33 H 0.4250 0.6513 0.1257
C26 C 0.3406(3) 0.8057(7) 0.0817(2)
H34 H 0.3493 0.9086 0.1137
H35 H 0.2914 0.7852 0.0685
H36 H 0.3593 0.8377 0.0426
C27 C 0.3653(3) 0.4587(8) 0.0649(3)
H37 H 0.3886 0.3483 0.0868
H38 H 0.3845 0.4902 0.0260
H39 H 0.3166 0.4317 0.0508
loop_
_geom_bond_atom_site_label_1
_geom_bond_atom_site_label_2
_geom_bond_site_symmetry_1
_geom_bond_site_symmetry_2
B1 H1 1_555 1_555
H2 B1 1_555 1_555
H3 B1 1_555 1_555
N1 C1 1_555 1_555
N2 C1 1_555 1_555
C1 B1 1_555 1_555
C2 N1 1_555 1_555
H4 C2 1_555 1_555
C3 N2 1_555 1_555
H5 C3 1_555 1_555
C4 N2 1_555 1_555
C5 C4 1_555 1_555
C6 C5 1_555 1_555
H6 C6 1_555 1_555
C7 C6 1_555 1_555
H7 C7 1_555 1_555
C8 C7 1_555 1_555
H8 C8 1_555 1_555
C9 C4 1_555 1_555
C10 C9 1_555 1_555
H9 C10 1_555 1_555
C11 C10 1_555 1_555
H10 C11 1_555 1_555
H11 C11 1_555 1_555
H12 C11 1_555 1_555
C12 C10 1_555 1_555
H13 C12 1_555 1_555
H14 C12 1_555 1_555
H15 C12 1_555 1_555
C13 C5 1_555 1_555
H16 C13 1_555 1_555
C14 C13 1_555 1_555
H17 C14 1_555 1_555
H18 C14 1_555 1_555
H19 C14 1_555 1_555
C15 C13 1_555 1_555
H20 C15 1_555 1_555
H21 C15 1_555 1_555
H22 C15 1_555 1_555
C16 N1 1_555 1_555
C17 C16 1_555 1_555
C18 C17 1_555 1_555
H23 C18 1_555 1_555
C19 C18 1_555 1_555
H24 C19 1_555 1_555
C20 C19 1_555 1_555
H25 C20 1_555 1_555
C21 C16 1_555 1_555
C22 C21 1_555 1_555
H26 C22 1_555 1_555
C23 C22 1_555 1_555
H27 C23 1_555 1_555
H28 C23 1_555 1_555
H29 C23 1_555 1_555
C24 C22 1_555 1_555
H30 C24 1_555 1_555
H31 C24 1_555 1_555
H32 C24 1_555 1_555
C25 C17 1_555 1_555
H33 C25 1_555 1_555
C26 C25 1_555 1_555
H34 C26 1_555 1_555
H35 C26 1_555 1_555
H36 C26 1_555 1_555
C27 C25 1_555 1_555
H37 C27 1_555 1_555
H38 C27 1_555 1_555
H39 C27 1_555 1_555
C2 C3 1_555 1_555
C8 C9 1_555 1_555
C20 C21 1_555 1_555

#END
