
#######################################################################
#
#                 Cambridge Crystallographic Data Centre
#                                CCDC 
#
#######################################################################
#
# If this CIF has been generated from an entry in the Cambridge 
# Structural Database, then it will include bibliographic, chemical, 
# crystal, experimental, refinement or atomic coordinate data resulting 
# from the CCDC's data processing and validation procedures.
#
#######################################################################

data_VISKOA
_chemical_formula_moiety         'C25 H23 Br1 N2'
_chemical_name_systematic        
1^4^-bromo-3^4^-methyl-2^5^-(piperidin-1-yl)[1^1^,2^1^:2^3^,3^1^-terphenyl]-2^4^-carbonitrile
_symmetry_cell_setting           monoclinic
_symmetry_space_group_name_H-M   'P 21/c'
_symmetry_Int_Tables_number      14
_space_group_name_Hall           '-P 2ybc'
loop_
_symmetry_equiv_pos_site_id
_symmetry_equiv_pos_as_xyz
1 x,y,z
2 -x,1/2+y,1/2-z
3 -x,-y,-z
4 x,1/2-y,1/2+z
_cell_length_a                   13.2298(3)
_cell_length_b                   10.1625(3)
_cell_length_c                   15.5329(5)
_cell_angle_alpha                90
_cell_angle_beta                 98.015(2)
_cell_angle_gamma                90
_cell_volume                     2067.96
_exptl_crystal_colour            red
_exptl_crystal_description       block
_cell_formula_units_Z            4
loop_
_atom_site_label
_atom_site_type_symbol
_atom_site_fract_x
_atom_site_fract_y
_atom_site_fract_z
Br1 Br 0.27077(3) 0.51567(4) -0.03531(2)
N1 N 0.86540(17) 0.1873(2) 0.28849(15)
C1 C 0.7858(2) 0.2736(3) 0.30117(18)
C2 C 0.7920(2) 0.3408(3) 0.38080(18)
N2 N 0.9540(2) 0.3045(3) 0.4915(2)
C3 C 0.7028(2) 0.2994(3) 0.23806(18)
H1 H 0.698225 0.256830 0.184667
C4 C 0.7211(2) 0.5030(3) 0.48107(19)
C5 C 0.6265(2) 0.3871(3) 0.25270(18)
C6 C 0.5386(2) 0.4165(3) 0.18455(19)
C7 C 0.3787(2) 0.4736(3) 0.0543(2)
C8 C 0.6339(2) 0.4492(3) 0.33332(19)
H2 H 0.582091 0.506070 0.344122
C9 C 0.7156(2) 0.4292(3) 0.39782(18)
C10 C 0.8024(2) 0.6612(3) 0.5832(2)
H3 H 0.856865 0.717696 0.600142
C11 C 0.8818(2) 0.3218(3) 0.44380(19)
C12 C 0.8012(2) 0.5883(3) 0.5086(2)
H4 H 0.854832 0.596055 0.475998
C13 C 0.4194(2) 0.3491(3) 0.0598(2)
H5 H 0.393460 0.284261 0.020542
C14 C 0.7242(2) 0.6523(3) 0.63360(19)
C15 C 0.6431(2) 0.4928(3) 0.5319(2)
H6 H 0.588727 0.436075 0.515243
C16 C 0.4994(2) 0.3213(3) 0.1243(2)
H7 H 0.527738 0.237417 0.127552
C17 C 0.4146(2) 0.5701(3) 0.1129(2)
H8 H 0.386129 0.653902 0.108888
C18 C 0.8826(2) 0.1591(3) 0.1993(2)
C19 C 0.6456(2) 0.5662(3) 0.6069(2)
H9 H 0.592873 0.557200 0.640360
C20 C 0.8769(3) 0.0689(3) 0.3428(2)
C21 C 0.4941(2) 0.5399(3) 0.1779(2)
H10 H 0.518032 0.604423 0.218096
C22 C 0.9902(3) 0.1080(4) 0.2009(3)
C23 C 0.7256(3) 0.7339(4) 0.7154(2)
H11 H 0.785775 0.787713 0.723432
H12 H 0.666119 0.789074 0.710109
H13 H 0.725680 0.676565 0.764556
C24 C 0.9848(3) 0.0165(4) 0.3491(3)
C25 C 1.0121(4) -0.0096(4) 0.2594(3)
H14 H 0.872(2) 0.236(3) 0.1678(19)
H15 H 0.837(2) 0.094(3) 0.171(2)
H16 H 0.862(2) 0.090(3) 0.397(2)
H17 H 0.827(3) 0.002(3) 0.315(2)
H18 H 1.034(3) 0.183(4) 0.221(2)
H19 H 0.999(3) 0.088(4) 0.143(3)
H20 H 1.034(3) 0.085(4) 0.382(2)
H21 H 0.990(3) -0.065(4) 0.384(3)
H22 H 1.084(4) -0.033(4) 0.265(3)
H23 H 0.971(3) -0.082(5) 0.235(3)
loop_
_geom_bond_atom_site_label_1
_geom_bond_atom_site_label_2
_geom_bond_site_symmetry_1
_geom_bond_site_symmetry_2
Br1 C7 1_555 1_555
N1 C1 1_555 1_555
C1 C2 1_555 1_555
C2 C9 1_555 1_555
N2 C11 1_555 1_555
C3 C1 1_555 1_555
H1 C3 1_555 1_555
C4 C9 1_555 1_555
C5 C3 1_555 1_555
C6 C5 1_555 1_555
C7 C13 1_555 1_555
C8 C5 1_555 1_555
H2 C8 1_555 1_555
C9 C8 1_555 1_555
C10 H3 1_555 1_555
C11 C2 1_555 1_555
C12 C4 1_555 1_555
H4 C12 1_555 1_555
C13 H5 1_555 1_555
C14 C10 1_555 1_555
C15 C4 1_555 1_555
H6 C15 1_555 1_555
C16 C6 1_555 1_555
H7 C16 1_555 1_555
C17 C7 1_555 1_555
H8 C17 1_555 1_555
C18 N1 1_555 1_555
C19 C14 1_555 1_555
H9 C19 1_555 1_555
C20 N1 1_555 1_555
C21 C6 1_555 1_555
H10 C21 1_555 1_555
C22 C18 1_555 1_555
C23 C14 1_555 1_555
H11 C23 1_555 1_555
H12 C23 1_555 1_555
H13 C23 1_555 1_555
C24 C20 1_555 1_555
C25 C22 1_555 1_555
H14 C18 1_555 1_555
H15 C18 1_555 1_555
H16 C20 1_555 1_555
H17 C20 1_555 1_555
H18 C22 1_555 1_555
H19 C22 1_555 1_555
H20 C24 1_555 1_555
H21 C24 1_555 1_555
H22 C25 1_555 1_555
H23 C25 1_555 1_555
C10 C12 1_555 1_555
C13 C16 1_555 1_555
C15 C19 1_555 1_555
C17 C21 1_555 1_555
C24 C25 1_555 1_555

#END
