
#######################################################################
#
#                 Cambridge Crystallographic Data Centre
#                                CCDC 
#
#######################################################################
#
# If this CIF has been generated from an entry in the Cambridge 
# Structural Database, then it will include bibliographic, chemical, 
# crystal, experimental, refinement or atomic coordinate data resulting 
# from the CCDC's data processing and validation procedures.
#
#######################################################################

data_VISLIV
_chemical_compound_source        'twigs and leaves of Baeckea frutescens'
_chemical_name_common            '(+)-baeckfrutone B'
_chemical_formula_moiety         'C24 H36 O3'
_chemical_name_systematic        
7-methoxy-6,8,8-trimethyl-4,5'-bis(propan-2-yl)-4,8-dihydrospiro[1-benzopyran-2,2'-bicyclo[3.1.0]hexan]-5(3H)-one
_symmetry_cell_setting           monoclinic
_symmetry_space_group_name_H-M   'P 21'
_symmetry_Int_Tables_number      4
_space_group_name_Hall           'P 2yb'
loop_
_symmetry_equiv_pos_site_id
_symmetry_equiv_pos_as_xyz
1 x,y,z
2 -x,1/2+y,-z
_cell_length_a                   13.5362(16)
_cell_length_b                   5.8924(7)
_cell_length_c                   14.2131(17)
_cell_angle_alpha                90
_cell_angle_beta                 108.775(3)
_cell_angle_gamma                90
_cell_volume                     1073.33
_exptl_crystal_colour            colorless
_exptl_crystal_description       prism
_cell_formula_units_Z            2
loop_
_atom_site_label
_atom_site_type_symbol
_atom_site_fract_x
_atom_site_fract_y
_atom_site_fract_z
O1 O 0.27845(8) 0.2016(2) 0.27806(8)
O2 O 0.28260(9) 0.2010(2) 0.61216(8)
O3 O 0.02506(9) -0.2109(2) 0.36490(9)
C1 C 0.58055(15) 0.0630(4) 0.11111(15)
H1 H 0.5951 -0.0847 0.1444
H2 H 0.6461 0.1463 0.1227
H3 H 0.5471 0.0404 0.0396
C2 C 0.50794(13) 0.1988(3) 0.15269(13)
H4 H 0.4911 0.3434 0.1140
C3 C 0.40601(13) 0.0751(3) 0.13742(12)
C4 C 0.30651(12) 0.2058(3) 0.12476(12)
H5 H 0.3095 0.3754 0.1264
C5 C 0.24483(12) 0.0869(3) 0.18116(12)
C6 C 0.22636(12) 0.1400(3) 0.34135(13)
C7 C 0.28532(12) 0.2088(3) 0.44641(12)
C8 C 0.23157(12) 0.1246(3) 0.51808(12)
C9 C 0.22018(14) 0.2816(3) 0.67030(14)
H6 H 0.1467 0.2867 0.6287
H7 H 0.2432 0.4342 0.6953
H8 H 0.2281 0.1788 0.7265
C10 C 0.10960(13) -0.1388(3) 0.56784(13)
H9 H 0.1656 -0.1521 0.6316
H10 H 0.0852 -0.2906 0.5428
H11 H 0.0516 -0.0520 0.5769
C11 C 0.15029(13) -0.0185(3) 0.49421(13)
C12 C 0.56092(14) 0.2629(4) 0.26124(14)
H12 H 0.5108 0.3409 0.2867
H13 H 0.6200 0.3638 0.2665
H14 H 0.5860 0.1253 0.3004
C13 C 0.32241(13) 0.0836(3) 0.03708(13)
H15 H 0.2812 -0.0559 0.0130
H16 H 0.3360 0.1769 -0.0154
C14 C 0.40233(13) -0.1359(3) 0.19870(13)
H17 H 0.4482 -0.1173 0.2683
H18 H 0.4247 -0.2720 0.1701
C15 C 0.28694(13) -0.1569(3) 0.19367(13)
H19 H 0.2475 -0.2521 0.1365
H20 H 0.2816 -0.2254 0.2554
C16 C 0.12721(12) 0.1070(3) 0.13752(13)
H21 H 0.1038 0.0344 0.0712
H22 H 0.1078 0.2695 0.1287
C17 C 0.07106(12) -0.0045(3) 0.20361(13)
H23 H 0.0686 -0.1717 0.1908
C18 C 0.13324(12) 0.0333(3) 0.31194(12)
C19 C 0.09720(12) -0.0724(3) 0.38878(13)
C20 C -0.04334(13) 0.0812(3) 0.17822(13)
H24 H -0.0742 0.0053 0.2252
C21 C -0.05158(14) 0.3374(3) 0.19120(14)
H25 H -0.0311 0.4170 0.1398
H26 H -0.0052 0.3825 0.2570
H27 H -0.1237 0.3769 0.1852
C22 C -0.10799(14) 0.0099(3) 0.07326(14)
H28 H -0.1811 0.0518 0.0610
H29 H -0.1028 -0.1548 0.0664
H30 H -0.0816 0.0867 0.0250
C23 C 0.29108(15) 0.4709(3) 0.44945(13)
H31 H 0.3285 0.5241 0.4050
H32 H 0.3281 0.5209 0.5175
H33 H 0.2203 0.5337 0.4278
C24 C 0.39683(12) 0.1076(3) 0.47845(13)
H34 H 0.3926 -0.0584 0.4750
H35 H 0.4347 0.1543 0.5467
H36 H 0.4337 0.1628 0.4339
loop_
_geom_bond_atom_site_label_1
_geom_bond_atom_site_label_2
_geom_bond_site_symmetry_1
_geom_bond_site_symmetry_2
O1 C5 1_555 1_555
O2 C8 1_555 1_555
O3 C19 1_555 1_555
C1 H1 1_555 1_555
H2 C1 1_555 1_555
H3 C1 1_555 1_555
C2 C1 1_555 1_555
H4 C2 1_555 1_555
C3 C2 1_555 1_555
C4 C3 1_555 1_555
H5 C4 1_555 1_555
C5 C4 1_555 1_555
C6 O1 1_555 1_555
C7 C6 1_555 1_555
C8 C7 1_555 1_555
C9 O2 1_555 1_555
H6 C9 1_555 1_555
H7 C9 1_555 1_555
H8 C9 1_555 1_555
C10 H9 1_555 1_555
H10 C10 1_555 1_555
H11 C10 1_555 1_555
C11 C8 1_555 1_555
C12 C2 1_555 1_555
H12 C12 1_555 1_555
H13 C12 1_555 1_555
H14 C12 1_555 1_555
C13 C3 1_555 1_555
H15 C13 1_555 1_555
H16 C13 1_555 1_555
C14 C3 1_555 1_555
H17 C14 1_555 1_555
H18 C14 1_555 1_555
C15 C5 1_555 1_555
H19 C15 1_555 1_555
H20 C15 1_555 1_555
C16 C5 1_555 1_555
H21 C16 1_555 1_555
H22 C16 1_555 1_555
C17 C16 1_555 1_555
H23 C17 1_555 1_555
C18 C6 1_555 1_555
C19 C11 1_555 1_555
C20 C17 1_555 1_555
H24 C20 1_555 1_555
C21 C20 1_555 1_555
H25 C21 1_555 1_555
H26 C21 1_555 1_555
H27 C21 1_555 1_555
C22 C20 1_555 1_555
H28 C22 1_555 1_555
H29 C22 1_555 1_555
H30 C22 1_555 1_555
C23 C7 1_555 1_555
H31 C23 1_555 1_555
H32 C23 1_555 1_555
H33 C23 1_555 1_555
C24 C7 1_555 1_555
H34 C24 1_555 1_555
H35 C24 1_555 1_555
H36 C24 1_555 1_555
C4 C13 1_555 1_555
C10 C11 1_555 1_555
C14 C15 1_555 1_555
C17 C18 1_555 1_555
C18 C19 1_555 1_555

#END
