
#######################################################################
#
#                 Cambridge Crystallographic Data Centre
#                                CCDC 
#
#######################################################################
#
# If this CIF has been generated from an entry in the Cambridge 
# Structural Database, then it will include bibliographic, chemical, 
# crystal, experimental, refinement or atomic coordinate data resulting 
# from the CCDC's data processing and validation procedures.
#
#######################################################################

data_VISRAT
_chemical_formula_moiety         'C16 H20 N2 O3'
_chemical_name_systematic        
8a-methyl-1-(phenoxyacetyl)hexahydropyrrolo[1,2-a]pyrimidin-6(2H)-one
_symmetry_cell_setting           monoclinic
_symmetry_space_group_name_H-M   'P 21'
_symmetry_Int_Tables_number      4
_space_group_name_Hall           'P 2yb'
loop_
_symmetry_equiv_pos_site_id
_symmetry_equiv_pos_as_xyz
1 x,y,z
2 -x,1/2+y,-z
_cell_length_a                   7.4940(15)
_cell_length_b                   9.2967(19)
_cell_length_c                   10.811(2)
_cell_angle_alpha                90
_cell_angle_beta                 93.85(3)
_cell_angle_gamma                90
_cell_volume                     751.497
_exptl_crystal_colour            colorless
_exptl_crystal_description       block
_cell_formula_units_Z            2
loop_
_atom_site_label
_atom_site_type_symbol
_atom_site_fract_x
_atom_site_fract_y
_atom_site_fract_z
C1 C 0.4327(2) 0.70795(16) 0.36451(17)
C2 C 0.4466(3) 0.58498(19) 0.43702(18)
H1 H 0.5456 0.5251 0.4342
C3 C 0.3111(3) 0.5523(2) 0.51382(19)
H2 H 0.3197 0.4698 0.5625
C4 C 0.1642(3) 0.6405(2) 0.51882(19)
H3 H 0.0743 0.6182 0.5709
C5 C 0.1516(2) 0.7625(2) 0.44566(19)
H4 H 0.0525 0.8223 0.4485
C6 C 0.2847(3) 0.79636(18) 0.36848(18)
H5 H 0.2749 0.8784 0.3192
C7 C 0.7117(2) 0.66950(17) 0.2726(2)
H6 H 0.7630 0.6411 0.3537
H7 H 0.7999 0.7265 0.2327
C8 C 0.6664(2) 0.53474(16) 0.19466(17)
C9 C 0.76295(18) 0.30482(15) 0.11150(15)
C10 C 0.59477(18) 0.22631(16) 0.15252(16)
H8 H 0.5690 0.2542 0.2359
H9 H 0.4915 0.2476 0.0966
C11 C 0.6435(2) 0.06705(17) 0.14721(17)
H10 H 0.5871 0.0131 0.2107
H11 H 0.6076 0.0264 0.0667
C12 C 0.8433(2) 0.06607(17) 0.16995(16)
C13 C 1.0910(2) 0.2386(2) 0.15443(19)
H12 H 1.1276 0.2585 0.0718
H13 H 1.1630 0.1597 0.1890
C14 C 1.1177(2) 0.3701(2) 0.2349(2)
H14 H 1.0996 0.3451 0.3202
H15 H 1.2394 0.4046 0.2312
C15 C 0.9902(2) 0.4867(2) 0.1933(2)
H16 H 1.0023 0.5659 0.2516
H17 H 1.0216 0.5220 0.1132
C16 C 0.7550(2) 0.3316(2) -0.02644(17)
H18 H 0.8707 0.3610 -0.0501
H19 H 0.6694 0.4060 -0.0474
H20 H 0.7198 0.2448 -0.0696
N1 N 0.80201(17) 0.43851(13) 0.18338(14)
N2 N 0.90357(17) 0.20001(14) 0.14879(13)
O1 O 0.55704(16) 0.75329(12) 0.28629(13)
O2 O 0.51461(15) 0.51584(12) 0.14992(12)
O3 O 0.93885(17) -0.03703(13) 0.20065(14)
loop_
_geom_bond_atom_site_label_1
_geom_bond_atom_site_label_2
_geom_bond_site_symmetry_1
_geom_bond_site_symmetry_2
C1 C2 1_555 1_555
C2 H1 1_555 1_555
C3 C2 1_555 1_555
H2 C3 1_555 1_555
C4 C3 1_555 1_555
H3 C4 1_555 1_555
C5 C4 1_555 1_555
H4 C5 1_555 1_555
C6 C1 1_555 1_555
H5 C6 1_555 1_555
C7 H6 1_555 1_555
H7 C7 1_555 1_555
C8 C7 1_555 1_555
C9 C10 1_555 1_555
C10 H8 1_555 1_555
H9 C10 1_555 1_555
C11 C10 1_555 1_555
H10 C11 1_555 1_555
H11 C11 1_555 1_555
C12 C11 1_555 1_555
C13 H12 1_555 1_555
H13 C13 1_555 1_555
C14 C13 1_555 1_555
H14 C14 1_555 1_555
H15 C14 1_555 1_555
C15 C14 1_555 1_555
H16 C15 1_555 1_555
H17 C15 1_555 1_555
C16 C9 1_555 1_555
H18 C16 1_555 1_555
H19 C16 1_555 1_555
H20 C16 1_555 1_555
N1 C8 1_555 1_555
N2 C9 1_555 1_555
O1 C1 1_555 1_555
O2 C8 1_555 1_555
O3 C12 1_555 1_555
C5 C6 1_555 1_555
C7 O1 1_555 1_555
C9 N1 1_555 1_555
C12 N2 1_555 1_555
C13 N2 1_555 1_555
C15 N1 1_555 1_555

#END
