
#######################################################################
#
#                 Cambridge Crystallographic Data Centre
#                                CCDC 
#
#######################################################################
#
# If this CIF has been generated from an entry in the Cambridge 
# Structural Database, then it will include bibliographic, chemical, 
# crystal, experimental, refinement or atomic coordinate data resulting 
# from the CCDC's data processing and validation procedures.
#
#######################################################################

data_VISREX
_chemical_formula_moiety         'C16 H20 N2 O3'
_chemical_name_systematic        
8a-methyl-1-(phenoxyacetyl)hexahydroimidazo[1,2-a]pyridin-5(1H)-one
_symmetry_cell_setting           orthorhombic
_symmetry_space_group_name_H-M   'P n a 21'
_symmetry_Int_Tables_number      33
_space_group_name_Hall           'P 2c -2n'
loop_
_symmetry_equiv_pos_site_id
_symmetry_equiv_pos_as_xyz
1 x,y,z
2 -x,-y,1/2+z
3 1/2+x,1/2-y,z
4 1/2-x,1/2+y,1/2+z
_cell_length_a                   8.4932(17)
_cell_length_b                   20.849(4)
_cell_length_c                   8.4803(17)
_cell_angle_alpha                90
_cell_angle_beta                 90
_cell_angle_gamma                90
_cell_volume                     1501.65
_exptl_crystal_colour            colorless
_exptl_crystal_description       block
_cell_formula_units_Z            4
loop_
_atom_site_label
_atom_site_type_symbol
_atom_site_fract_x
_atom_site_fract_y
_atom_site_fract_z
C1 C -0.0073(2) 0.05325(8) 1.0048(2)
C2 C 0.1503(3) 0.05588(10) 1.0870(3)
H1 H 0.2099 0.0181 1.0568
H2 H 0.1320 0.0532 1.1997
C3 C 0.2514(3) 0.11428(10) 1.0556(3)
H3 H 0.3617 0.1031 1.0673
H4 H 0.2269 0.1476 1.1317
C4 C 0.2218(2) 0.13918(9) 0.8894(2)
H5 H 0.2889 0.1759 0.8691
H6 H 0.2476 0.1061 0.8133
C5 C 0.0510(2) 0.15840(7) 0.87106(19)
C6 C 0.0032(3) 0.21782(8) 0.9647(2)
H7 H -0.1068 0.2261 0.9491
H8 H 0.0634 0.2540 0.9293
H9 H 0.0230 0.2107 1.0748
C7 C -0.1227(2) 0.12424(8) 0.6558(2)
H10 H -0.0834 0.0884 0.5943
H11 H -0.2019 0.1469 0.5951
C8 C -0.1878(2) 0.10194(8) 0.8125(2)
H12 H -0.2690 0.1308 0.8507
H13 H -0.2306 0.0589 0.8048
C9 C 0.0734(2) 0.21196(7) 0.61166(18)
C10 C 0.0139(2) 0.21454(8) 0.4420(2)
H14 H 0.0217 0.1722 0.3953
H15 H -0.0961 0.2270 0.4418
C11 C 0.0673(2) 0.32292(8) 0.36162(19)
C12 C -0.0462(2) 0.34866(9) 0.4603(2)
H16 H -0.1058 0.3222 0.5253
C13 C -0.0697(3) 0.41468(10) 0.4607(3)
H17 H -0.1464 0.4323 0.5260
C14 C 0.0185(3) 0.45423(11) 0.3666(3)
H18 H 0.0022 0.4983 0.3684
C15 C 0.1314(3) 0.42816(11) 0.2693(3)
H19 H 0.1916 0.4548 0.2053
C16 C 0.1560(2) 0.36291(10) 0.2660(2)
H20 H 0.2321 0.3457 0.1996
N1 N 0.00569(16) 0.16734(6) 0.70329(15)
N2 N -0.04969(17) 0.10352(6) 0.91347(17)
O1 O -0.09450(19) 0.00668(6) 1.0225(2)
O2 O 0.17849(16) 0.24795(5) 0.65704(14)
O3 O 0.10177(15) 0.25882(6) 0.34992(14)
loop_
_geom_bond_atom_site_label_1
_geom_bond_atom_site_label_2
_geom_bond_site_symmetry_1
_geom_bond_site_symmetry_2
C1 C2 1_555 1_555
C2 H1 1_555 1_555
H2 C2 1_555 1_555
C3 C2 1_555 1_555
H3 C3 1_555 1_555
H4 C3 1_555 1_555
C4 C3 1_555 1_555
H5 C4 1_555 1_555
H6 C4 1_555 1_555
C5 C4 1_555 1_555
C6 C5 1_555 1_555
H7 C6 1_555 1_555
H8 C6 1_555 1_555
H9 C6 1_555 1_555
C7 H10 1_555 1_555
H11 C7 1_555 1_555
C8 C7 1_555 1_555
H12 C8 1_555 1_555
H13 C8 1_555 1_555
C9 C10 1_555 1_555
C10 H14 1_555 1_555
H15 C10 1_555 1_555
C11 C12 1_555 1_555
C12 H16 1_555 1_555
C13 C12 1_555 1_555
H17 C13 1_555 1_555
C14 C13 1_555 1_555
H18 C14 1_555 1_555
C15 C14 1_555 1_555
H19 C15 1_555 1_555
C16 C11 1_555 1_555
H20 C16 1_555 1_555
N1 C5 1_555 1_555
N2 C1 1_555 1_555
O1 C1 1_555 1_555
O2 C9 1_555 1_555
O3 C10 1_555 1_555
C5 N2 1_555 1_555
C7 N1 1_555 1_555
C8 N2 1_555 1_555
C9 N1 1_555 1_555
C11 O3 1_555 1_555
C15 C16 1_555 1_555

#END
