
#######################################################################
#
#                 Cambridge Crystallographic Data Centre
#                                CCDC 
#
#######################################################################
#
# If this CIF has been generated from an entry in the Cambridge 
# Structural Database, then it will include bibliographic, chemical, 
# crystal, experimental, refinement or atomic coordinate data resulting 
# from the CCDC's data processing and validation procedures.
#
#######################################################################

data_VISSOG
_chemical_formula_moiety         'C21 H19 N3 O2'
_chemical_name_systematic        
(+-)-5-(5-Methoxy-1H-indol-3-yl)-2,3,4,5-tetrahydroazepino(3,4-b)indol-1(10H)-one
_symmetry_cell_setting           monoclinic
_symmetry_space_group_name_H-M   'P 21/n'
_symmetry_Int_Tables_number      14
_space_group_name_Hall           '-P 2yn'
loop_
_symmetry_equiv_pos_site_id
_symmetry_equiv_pos_as_xyz
1 x,y,z
2 1/2-x,1/2+y,1/2-z
3 -x,-y,-z
4 1/2+x,1/2-y,1/2+z
_cell_length_a                   12.698(3)
_cell_length_b                   8.0757(16)
_cell_length_c                   17.149(3)
_cell_angle_alpha                90
_cell_angle_beta                 102.88(3)
_cell_angle_gamma                90
_cell_volume                     1714.3
_exptl_crystal_colour            colorless
_exptl_crystal_description       prism
_cell_formula_units_Z            4
_exptl_crystal_recrystallization_method methanol
loop_
_atom_site_label
_atom_site_type_symbol
_atom_site_fract_x
_atom_site_fract_y
_atom_site_fract_z
C1 C 0.28431(11) 0.68669(19) 0.89672(7)
C2 C 0.31364(13) 0.8337(2) 0.86503(9)
H1 H 0.3853 0.8680 0.8748
C3 C 0.23276(13) 0.9261(2) 0.81884(9)
H2 H 0.2501 1.0234 0.7955
C4 C 0.12481(13) 0.8772(2) 0.80605(9)
H3 H 0.0716 0.9428 0.7746
C5 C 0.09582(12) 0.7349(2) 0.83886(8)
H4 H 0.0235 0.7051 0.8310
C6 C 0.17652(10) 0.63426(18) 0.88452(7)
C7 C 0.17521(10) 0.48101(18) 0.92591(7)
C8 C 0.28197(10) 0.44594(18) 0.96124(7)
C9 C 0.33779(10) 0.31417(19) 1.01383(7)
C10 C 0.17457(12) 0.1326(2) 0.98668(9)
H5 H 0.1574 0.0284 1.0091
H6 H 0.1686 0.1161 0.9298
C11 C 0.09325(11) 0.2602(2) 0.99803(8)
H7 H 0.1184 0.3136 1.0495
H8 H 0.0255 0.2054 0.9987
C12 C 0.07358(10) 0.39205(18) 0.93237(7)
H9 H 0.0265 0.4754 0.9485
C13 C 0.01154(10) 0.32173(17) 0.85396(7)
C14 C -0.09591(10) 0.25553(18) 0.83984(7)
C15 C -0.17370(10) 0.24146(18) 0.88601(8)
H10 H -0.1596 0.2806 0.9383
C16 C -0.27101(11) 0.16888(19) 0.85268(8)
C17 C -0.29416(12) 0.1094(2) 0.77443(9)
H11 H -0.3603 0.0588 0.7539
C18 C -0.22032(12) 0.1247(2) 0.72742(8)
H12 H -0.2359 0.0865 0.6749
C19 C -0.12164(11) 0.19867(17) 0.76019(7)
C20 C 0.04473(11) 0.30494(18) 0.78442(7)
H13 H 0.1116 0.3386 0.7765
C21 C -0.44752(13) 0.2088(3) 0.87534(11)
H14 H -0.4894 0.1859 0.9143
H15 H -0.4808 0.1571 0.8255
H16 H -0.4441 0.3263 0.8678
N1 N 0.34664(9) 0.57081(16) 0.94312(7)
N2 N -0.03467(9) 0.23104(16) 0.72731(7)
N3 N 0.28560(10) 0.17693(18) 1.02360(7)
O1 O 0.43424(7) 0.33469(14) 1.04898(6)
O2 O -0.34332(8) 0.14636(15) 0.90216(6)
H17 H 0.4190(13) 0.5755(19) 0.9586(9)
H18 H -0.0291(13) 0.211(2) 0.6774(10)
H19 H 0.3241(13) 0.100(2) 1.0541(10)
loop_
_geom_bond_atom_site_label_1
_geom_bond_atom_site_label_2
_geom_bond_site_symmetry_1
_geom_bond_site_symmetry_2
C1 C2 1_555 1_555
C2 H1 1_555 1_555
C3 C2 1_555 1_555
H2 C3 1_555 1_555
C4 C3 1_555 1_555
H3 C4 1_555 1_555
C5 C4 1_555 1_555
H4 C5 1_555 1_555
C6 C1 1_555 1_555
C7 C6 1_555 1_555
C8 C7 1_555 1_555
C9 C8 1_555 1_555
C10 H5 1_555 1_555
H6 C10 1_555 1_555
C11 C10 1_555 1_555
H7 C11 1_555 1_555
H8 C11 1_555 1_555
C12 C7 1_555 1_555
H9 C12 1_555 1_555
C13 C12 1_555 1_555
C14 C13 1_555 1_555
C15 C14 1_555 1_555
H10 C15 1_555 1_555
C16 C15 1_555 1_555
C17 C16 1_555 1_555
H11 C17 1_555 1_555
C18 C17 1_555 1_555
H12 C18 1_555 1_555
C19 C14 1_555 1_555
C20 C13 1_555 1_555
H13 C20 1_555 1_555
C21 H14 1_555 1_555
H15 C21 1_555 1_555
H16 C21 1_555 1_555
N1 C1 1_555 1_555
N2 C19 1_555 1_555
N3 C9 1_555 1_555
O1 C9 1_555 1_555
O2 C16 1_555 1_555
H17 N1 1_555 1_555
H18 N2 1_555 1_555
H19 N3 1_555 1_555
C5 C6 1_555 1_555
C8 N1 1_555 1_555
C10 N3 1_555 1_555
C11 C12 1_555 1_555
C18 C19 1_555 1_555
C20 N2 1_555 1_555
C21 O2 1_555 1_555

#END
