
#######################################################################
#
#                 Cambridge Crystallographic Data Centre
#                                CCDC 
#
#######################################################################
#
# If this CIF has been generated from an entry in the Cambridge 
# Structural Database, then it will include bibliographic, chemical, 
# crystal, experimental, refinement or atomic coordinate data resulting 
# from the CCDC's data processing and validation procedures.
#
#######################################################################

data_VISSEW
_chemical_formula_moiety         'C28 H31 N3 O7 S1'
_chemical_name_systematic        
"(+-)-Di-t-butyl 1-(phenylsulfonyl)-4-oxo-1a,2,4,9c-tetrahydro-1H-azireno(2',3':5,6)azepino(3,4-b)indole-3,5-dicarboxylate"
_symmetry_cell_setting           triclinic
_symmetry_space_group_name_H-M   'P -1'
_symmetry_Int_Tables_number      2
_space_group_name_Hall           '-P 1'
loop_
_symmetry_equiv_pos_site_id
_symmetry_equiv_pos_as_xyz
1 x,y,z
2 -x,-y,-z
_cell_length_a                   10.3736(4)
_cell_length_b                   11.4650(5)
_cell_length_c                   13.1802(5)
_cell_angle_alpha                88.041(3)
_cell_angle_beta                 71.034(3)
_cell_angle_gamma                68.628(3)
_cell_volume                     1374.19
_exptl_crystal_colour            colorless
_exptl_crystal_description       plate
_cell_formula_units_Z            2
_exptl_crystal_recrystallization_method 'ethyl acetate'
loop_
_atom_site_label
_atom_site_type_symbol
_atom_site_fract_x
_atom_site_fract_y
_atom_site_fract_z
C1 C 0.63125(17) 0.27370(15) 0.59091(14)
C2 C 0.55628(17) 0.23936(15) 0.69700(14)
C3 C 0.46623(19) 0.12312(15) 0.59851(14)
H1 H 0.4216 0.0587 0.6159
H2 H 0.5711 0.0804 0.5545
C4 C 0.38898(17) 0.21841(15) 0.53547(13)
H3 H 0.2799 0.2443 0.5572
C5 C 0.45171(16) 0.31243(15) 0.48872(13)
H4 H 0.3803 0.3957 0.4806
C6 C 0.58548(16) 0.31386(14) 0.50490(13)
C7 C 0.68398(17) 0.36803(14) 0.43718(14)
C8 C 0.69229(19) 0.42306(16) 0.34003(14)
H5 H 0.6231 0.4294 0.3053
C9 C 0.8030(2) 0.46776(17) 0.29591(16)
H6 H 0.8100 0.5055 0.2300
C10 C 0.90554(19) 0.45859(17) 0.34634(16)
H7 H 0.9807 0.4903 0.3138
C11 C 0.90034(18) 0.40494(16) 0.44179(16)
H8 H 0.9706 0.3984 0.4755
C12 C 0.78765(17) 0.36066(14) 0.48675(14)
C13 C 0.86313(18) 0.24119(16) 0.62990(15)
C14 C 0.97753(18) 0.03703(16) 0.68985(14)
C15 C 0.9471(2) -0.08175(18) 0.68609(18)
H9 H 0.8454 -0.0663 0.7311
H10 H 1.0143 -0.1491 0.7131
H11 H 0.9618 -0.1068 0.6116
C16 C 0.9373(2) 0.0900(2) 0.80409(16)
H12 H 0.8353 0.1010 0.8445
H13 H 0.9479 0.1716 0.8034
H14 H 1.0026 0.0319 0.8386
C17 C 1.1335(2) 0.0168(2) 0.62080(18)
H15 H 1.1526 -0.0174 0.5480
H16 H 1.2020 -0.0425 0.6523
H17 H 1.1471 0.0973 0.6174
C18 C 0.34511(18) 0.17785(15) 0.79246(14)
C19 C 0.23417(19) 0.24656(16) 0.98388(15)
C20 C 0.0788(3) 0.2576(5) 1.0015(4)
H18 H 0.0250 0.3385 0.9799
H19 H 0.0298 0.2525 1.0779
H20 H 0.0806 0.1889 0.9581
C21 C 0.3249(5) 0.1238(3) 1.0161(3)
H21 H 0.4247 0.1211 1.0023
H22 H 0.3289 0.0531 0.9739
H23 H 0.2796 0.1180 1.0930
C22 C 0.2319(5) 0.3581(4) 1.0445(3)
H24 H 0.3330 0.3509 1.0325
H25 H 0.1814 0.3591 1.1217
H26 H 0.1800 0.4363 1.0183
C26 C 0.48537(19) 0.28476(16) 0.22820(14)
C27 C 0.6199(2) 0.19724(18) 0.16674(15)
H36 H 0.6500 0.1120 0.1827
C28 C 0.7094(3) 0.2357(2) 0.08201(18)
H37 H 0.8021 0.1766 0.0389
C29 C 0.6654(3) 0.3595(2) 0.05932(18)
H38 H 0.7276 0.3850 0.0003
C30 C 0.5321(3) 0.4465(2) 0.12142(18)
H39 H 0.5031 0.5317 0.1055
C31 C 0.4396(2) 0.41006(18) 0.20740(16)
H40 H 0.3473 0.4694 0.2508
N1 N 0.75497(14) 0.30239(13) 0.58106(12)
N2 N 0.45447(15) 0.18523(13) 0.69877(11)
N3 N 0.47303(14) 0.20226(13) 0.41808(11)
O1 O 0.58248(13) 0.26036(13) 0.77601(10)
O2 O 0.27852(15) 0.11172(14) 0.79319(11)
O3 O 0.32268(15) 0.25506(13) 0.87341(10)
O4 O 0.93325(16) 0.29358(13) 0.65096(14)
O5 O 0.87536(12) 0.12328(10) 0.63857(9)
O6 O 0.23645(13) 0.33852(14) 0.38262(11)
O7 O 0.37164(15) 0.11794(13) 0.30520(11)
S1 S 0.37262(5) 0.23522(4) 0.33664(4)
C23? C 0.0807(4) 0.3109(7) 0.9778(6)
H27? H 0.0641 0.2580 0.9303
H28? H 0.0710 0.3925 0.9492
H29? H 0.0079 0.3236 1.0501
C24? C 0.2458(12) 0.1144(4) 1.0111(8)
H30? H 0.2204 0.0756 0.9591
H31? H 0.1780 0.1179 1.0838
H32? H 0.3466 0.0643 1.0079
C25? C 0.2755(8) 0.3132(8) 1.0580(5)
H33? H 0.2608 0.3993 1.0387
H34? H 0.3789 0.2679 1.0507
H35? H 0.2136 0.3157 1.1327
loop_
_geom_bond_atom_site_label_1
_geom_bond_atom_site_label_2
_geom_bond_site_symmetry_1
_geom_bond_site_symmetry_2
C1 C2 1_555 1_555
C2 N2 1_555 1_555
C3 H1 1_555 1_555
H2 C3 1_555 1_555
C4 C3 1_555 1_555
H3 C4 1_555 1_555
C5 C4 1_555 1_555
H4 C5 1_555 1_555
C6 C1 1_555 1_555
C7 C6 1_555 1_555
C8 C7 1_555 1_555
H5 C8 1_555 1_555
C9 C8 1_555 1_555
H6 C9 1_555 1_555
C10 C9 1_555 1_555
H7 C10 1_555 1_555
C11 C10 1_555 1_555
H8 C11 1_555 1_555
C12 C7 1_555 1_555
C13 N1 1_555 1_555
C14 C15 1_555 1_555
C15 H9 1_555 1_555
H10 C15 1_555 1_555
H11 C15 1_555 1_555
C16 C14 1_555 1_555
H12 C16 1_555 1_555
H13 C16 1_555 1_555
H14 C16 1_555 1_555
C17 C14 1_555 1_555
H15 C17 1_555 1_555
H16 C17 1_555 1_555
H17 C17 1_555 1_555
C18 N2 1_555 1_555
C19 C20 1_555 1_555
C20 H18 1_555 1_555
H19 C20 1_555 1_555
H20 C20 1_555 1_555
C21 C19 1_555 1_555
H21 C21 1_555 1_555
H22 C21 1_555 1_555
H23 C21 1_555 1_555
C22 C19 1_555 1_555
H24 C22 1_555 1_555
H25 C22 1_555 1_555
H26 C22 1_555 1_555
C26 C27 1_555 1_555
C27 H36 1_555 1_555
C28 C27 1_555 1_555
H37 C28 1_555 1_555
C29 C28 1_555 1_555
H38 C29 1_555 1_555
C30 C29 1_555 1_555
H39 C30 1_555 1_555
C31 C26 1_555 1_555
H40 C31 1_555 1_555
N1 C1 1_555 1_555
N2 C3 1_555 1_555
N3 C4 1_555 1_555
O1 C2 1_555 1_555
O2 C18 1_555 1_555
O3 C18 1_555 1_555
O4 C13 1_555 1_555
O5 C13 1_555 1_555
O6 S1 1_555 1_555
O7 S1 1_555 1_555
S1 C26 1_555 1_555
C5 C6 1_555 1_555
C5 N3 1_555 1_555
C11 C12 1_555 1_555
C12 N1 1_555 1_555
C14 O5 1_555 1_555
C19 O3 1_555 1_555
C30 C31 1_555 1_555
N3 S1 1_555 1_555

#END
