
#######################################################################
#
#                 Cambridge Crystallographic Data Centre
#                                CCDC 
#
#######################################################################
#
# If this CIF has been generated from an entry in the Cambridge 
# Structural Database, then it will include bibliographic, chemical, 
# crystal, experimental, refinement or atomic coordinate data resulting 
# from the CCDC's data processing and validation procedures.
#
#######################################################################

data_VISTUP
_chemical_formula_moiety         'C12 H13 Cl1 N2 O2'
_chemical_name_systematic        
N-{[3-(4-chlorophenyl)-4,5-dihydro-1,2-oxazol-5-yl]methyl}acetamide
_symmetry_cell_setting           orthorhombic
_symmetry_space_group_name_H-M   'P c a 21'
_symmetry_Int_Tables_number      29
_space_group_name_Hall           'P 2c -2ac'
loop_
_symmetry_equiv_pos_site_id
_symmetry_equiv_pos_as_xyz
1 x,y,z
2 -x,-y,1/2+z
3 1/2+x,-y,z
4 1/2-x,y,1/2+z
_cell_length_a                   8.711(2)
_cell_length_b                   4.877(2)
_cell_length_c                   29.462(6)
_cell_angle_alpha                90
_cell_angle_beta                 90
_cell_angle_gamma                90
_cell_volume                     1251.65
_exptl_crystal_colour            colorless
_exptl_crystal_description       block
_cell_formula_units_Z            4
loop_
_atom_site_label
_atom_site_type_symbol
_atom_site_fract_x
_atom_site_fract_y
_atom_site_fract_z
Cl1 Cl 0.4072(2) 0.2735(4) 0.29353(5)
O1 O 0.6575(4) 0.5798(5) 0.66449(14)
N1 N 0.6158(4) 0.1441(6) 0.64329(11)
C1 C 0.7813(6) 0.2260(9) 0.70662(18)
H1 H 0.783091 0.029266 0.705481
H2 H 0.743065 0.284401 0.735603
H3 H 0.883405 0.295454 0.702342
C2 C 0.5344(4) 0.2414(7) 0.44105(14)
N2 N 0.6822(4) 0.0718(8) 0.50225(13)
O2 O 0.6996(4) 0.0983(7) 0.54931(10)
C3 C 0.6803(5) 0.3317(6) 0.67033(14)
C4 C 0.6008(4) 0.3168(8) 0.56581(15)
H4 H 0.663370 0.476014 0.574160
C5 C 0.5159(4) 0.2171(8) 0.60612(16)
H5 H 0.445490 0.358910 0.616142
H6 H 0.455449 0.058173 0.597610
C6 C 0.4993(4) 0.3887(8) 0.52544(15)
H7 H 0.394258 0.328780 0.530097
H8 H 0.500361 0.584001 0.519222
C7 C 0.3895(6) 0.4376(11) 0.38002(18)
H9 H 0.317332 0.563749 0.369788
C8 C 0.4282(5) 0.4284(9) 0.42497(15)
H10 H 0.382312 0.550231 0.445103
C9 C 0.5754(4) 0.2306(7) 0.48871(14)
C10 C 0.4570(6) 0.2614(10) 0.35035(16)
C11 C 0.5612(7) 0.0734(11) 0.36482(18)
H11 H 0.606227 -0.046938 0.344272
C12 C 0.5993(6) 0.0624(10) 0.40963(17)
H12 H 0.670210 -0.067355 0.419433
loop_
_geom_bond_atom_site_label_1
_geom_bond_atom_site_label_2
_geom_bond_site_symmetry_1
_geom_bond_site_symmetry_2
Cl1 C10 1_555 1_555
O1 C3 1_555 1_555
N1 C3 1_555 1_555
C1 H1 1_555 1_555
H2 C1 1_555 1_555
H3 C1 1_555 1_555
C2 C8 1_555 1_555
N2 O2 1_555 1_555
O2 C4 1_555 1_555
C3 C1 1_555 1_555
C4 H4 1_555 1_555
C5 N1 1_555 1_555
H5 C5 1_555 1_555
H6 C5 1_555 1_555
C6 C4 1_555 1_555
H7 C6 1_555 1_555
H8 C6 1_555 1_555
C7 H9 1_555 1_555
C8 C7 1_555 1_555
H10 C8 1_555 1_555
C9 C2 1_555 1_555
C10 C7 1_555 1_555
C11 C10 1_555 1_555
H11 C11 1_555 1_555
C12 C2 1_555 1_555
H12 C12 1_555 1_555
N2 C9 1_555 1_555
C4 C5 1_555 1_555
C6 C9 1_555 1_555
C11 C12 1_555 1_555

#END
