
#######################################################################
#
#                 Cambridge Crystallographic Data Centre
#                                CCDC 
#
#######################################################################
#
# If this CIF has been generated from an entry in the Cambridge 
# Structural Database, then it will include bibliographic, chemical, 
# crystal, experimental, refinement or atomic coordinate data resulting 
# from the CCDC's data processing and validation procedures.
#
#######################################################################

data_VISVIF
_chemical_formula_moiety         'C14 H17 N3 O4'
_chemical_name_systematic        
4-(4-{[(2-oxo-1,3-oxazolidin-5-yl)methyl]amino}phenyl)morpholin-3-one
_symmetry_cell_setting           orthorhombic
_symmetry_space_group_name_H-M   'P 21 21 21'
_symmetry_Int_Tables_number      19
_space_group_name_Hall           'P 2ac 2ab'
loop_
_symmetry_equiv_pos_site_id
_symmetry_equiv_pos_as_xyz
1 x,y,z
2 1/2-x,-y,1/2+z
3 -x,1/2+y,1/2-z
4 1/2+x,1/2-y,-z
_cell_length_a                   5.2862(11)
_cell_length_b                   10.300(2)
_cell_length_c                   25.348(5)
_cell_angle_alpha                90
_cell_angle_beta                 90
_cell_angle_gamma                90
_cell_volume                     1380.14
_exptl_crystal_colour            colorless
_exptl_crystal_description       prismatic
_cell_formula_units_Z            4
loop_
_atom_site_label
_atom_site_type_symbol
_atom_site_fract_x
_atom_site_fract_y
_atom_site_fract_z
O1 O -0.2026(4) 0.68131(14) 0.36469(6)
O2 O -0.3857(7) 0.8593(3) 0.48002(10)
O3 O 0.4444(4) 0.8567(2) 0.02108(6)
O4 O 0.5597(3) 0.95552(15) 0.09496(5)
N1 N -0.1759(4) 0.89743(16) 0.38051(6)
N2 N 0.4482(4) 0.98868(18) 0.20431(6)
H1 H 0.4365 1.0619 0.1882
N3 N 0.7972(4) 0.7961(2) 0.06734(7)
H2 H 0.8426 0.7299 0.0490
C1 C -0.2503(4) 0.7751(2) 0.39227(7)
C2 C -0.3950(6) 0.7535(2) 0.44301(9)
H3 H -0.5706 0.7366 0.4343
H4 H -0.3286 0.6764 0.4601
C3 C -0.4352(7) 0.9725(3) 0.45428(11)
H5 H -0.4356 1.0422 0.4800
H6 H -0.6044 0.9671 0.4396
C4 C -0.2605(7) 1.0083(2) 0.41160(11)
H7 H -0.3438 1.0699 0.3884
H8 H -0.1140 1.0510 0.4267
C5 C -0.0156(4) 0.92146(19) 0.33597(7)
C6 C 0.1901(4) 0.8420(2) 0.32562(8)
H9 H 0.2263 0.7739 0.3485
C7 C 0.3423(4) 0.8619(2) 0.28211(8)
H10 H 0.4759 0.8053 0.2755
C8 C 0.2985(4) 0.96568(19) 0.24785(7)
C9 C 0.0969(4) 1.04840(19) 0.25952(7)
H11 H 0.0671 1.1201 0.2381
C10 C -0.0584(4) 1.02585(19) 0.30206(7)
H12 H -0.1943 1.0811 0.3083
C11 C 0.6242(4) 0.8924(2) 0.18525(8)
H13 H 0.5351 0.8119 0.1783
H14 H 0.7513 0.8756 0.2120
C12 C 0.7499(4) 0.9391(2) 0.13565(8)
H15 H 0.8352 1.0220 0.1423
C13 C 0.5914(4) 0.8653(2) 0.05715(7)
C14 C 0.9360(5) 0.8426(3) 0.11195(8)
H16 H 1.0920 0.8847 0.1013
H17 H 0.9745 0.7729 0.1364
O5? O -0.5619(16) 0.8668(5) 0.4556(3)
loop_
_geom_bond_atom_site_label_1
_geom_bond_atom_site_label_2
_geom_bond_site_symmetry_1
_geom_bond_site_symmetry_2
O1 C1 1_555 1_555
O2 C2 1_555 1_555
O3 C13 1_555 1_555
O4 C12 1_555 1_555
N1 C1 1_555 1_555
N2 H1 1_555 1_555
N3 H2 1_555 1_555
C1 C2 1_555 1_555
C2 H3 1_555 1_555
H4 C2 1_555 1_555
C3 O2 1_555 1_555
H5 C3 1_555 1_555
H6 C3 1_555 1_555
C4 N1 1_555 1_555
H7 C4 1_555 1_555
H8 C4 1_555 1_555
C5 N1 1_555 1_555
C6 C5 1_555 1_555
H9 C6 1_555 1_555
C7 C6 1_555 1_555
H10 C7 1_555 1_555
C8 N2 1_555 1_555
C9 C8 1_555 1_555
H11 C9 1_555 1_555
C10 C5 1_555 1_555
H12 C10 1_555 1_555
C11 N2 1_555 1_555
H13 C11 1_555 1_555
H14 C11 1_555 1_555
C12 C11 1_555 1_555
H15 C12 1_555 1_555
C13 O4 1_555 1_555
C14 N3 1_555 1_555
H16 C14 1_555 1_555
H17 C14 1_555 1_555
N3 C13 1_555 1_555
C3 C4 1_555 1_555
C7 C8 1_555 1_555
C9 C10 1_555 1_555
C12 C14 1_555 1_555

#END
