
#######################################################################
#
#                 Cambridge Crystallographic Data Centre
#                                CCDC 
#
#######################################################################
#
# If this CIF has been generated from an entry in the Cambridge 
# Structural Database, then it will include bibliographic, chemical, 
# crystal, experimental, refinement or atomic coordinate data resulting 
# from the CCDC's data processing and validation procedures.
#
#######################################################################

data_VISVEB
_chemical_formula_moiety         'C14 H21 N5 O4'
_chemical_name_systematic        
2-[2-({4-[5-(aminomethyl)-2-oxo-1,3-oxazolidin-3-yl]phenyl}amino)ethoxy]acetohydrazide
_symmetry_cell_setting           orthorhombic
_symmetry_space_group_name_H-M   'P 21 21 21'
_symmetry_Int_Tables_number      19
_space_group_name_Hall           'P 2ac 2ab'
loop_
_symmetry_equiv_pos_site_id
_symmetry_equiv_pos_as_xyz
1 x,y,z
2 1/2-x,-y,1/2+z
3 -x,1/2+y,1/2-z
4 1/2+x,1/2-y,-z
_cell_length_a                   7.45970(10)
_cell_length_b                   7.74340(10)
_cell_length_c                   27.1044(3)
_cell_angle_alpha                90
_cell_angle_beta                 90
_cell_angle_gamma                90
_cell_volume                     1565.64
_exptl_crystal_colour            colorless
_exptl_crystal_description       prismatic
_cell_formula_units_Z            4
loop_
_atom_site_label
_atom_site_type_symbol
_atom_site_fract_x
_atom_site_fract_y
_atom_site_fract_z
O1 O 0.6928(2) 0.2632(2) 0.86596(6)
O2 O 0.46337(18) 0.0952(2) 0.88825(5)
O3 O 1.1744(2) 0.3030(2) 0.55888(5)
O4 O 1.2355(3) 0.4900(3) 0.44063(6)
N1 N 0.5662(2) 0.06630(19) 0.81175(5)
N2 N 0.0894(2) 0.1504(2) 0.90031(6)
H1 H 0.1434 0.1343 0.9280
H2 H -0.0090 0.2082 0.8994
N3 N 0.9844(2) 0.1247(3) 0.63982(6)
H3 H 0.9338 0.0988 0.6123
N4 N 1.0585(3) 0.5561(2) 0.50429(6)
H4 H 1.0227 0.5276 0.5333
N5 N 0.9815(5) 0.7020(3) 0.48113(8)
H5 H 1.0161 0.7320 0.4521
H6 H 0.9002 0.7608 0.4961
C1 C 0.5861(3) 0.1525(2) 0.85524(7)
C2 C 0.4267(3) -0.0629(3) 0.81531(8)
H7 H 0.4768 -0.1784 0.8165
H8 H 0.3440 -0.0551 0.7878
C3 C 0.3352(3) -0.0164(3) 0.86359(7)
H9 H 0.3132 -0.1204 0.8833
C4 C 0.6765(2) 0.0829(2) 0.76900(6)
C5 C 0.8365(3) 0.1730(3) 0.76930(7)
H10 H 0.8746 0.2263 0.7982
C6 C 0.9411(3) 0.1849(3) 0.72717(7)
H11 H 1.0496 0.2440 0.7285
C7 C 0.8865(2) 0.1098(2) 0.68281(6)
C8 C 0.7234(3) 0.0205(2) 0.68282(7)
H12 H 0.6827 -0.0297 0.6537
C9 C 0.6219(2) 0.0054(2) 0.72508(7)
H13 H 0.5155 -0.0572 0.7243
C10 C 1.1671(3) 0.1818(3) 0.63932(7)
H14 H 1.2367 0.1113 0.6619
H15 H 1.1726 0.3003 0.6508
C11 C 1.2478(3) 0.1710(3) 0.58874(8)
H16 H 1.3768 0.1844 0.5908
H17 H 1.2223 0.0590 0.5743
C12 C 1.2567(4) 0.3163(4) 0.51266(8)
H18 H 1.2395 0.2093 0.4947
H19 H 1.3845 0.3331 0.5172
C13 C 1.1825(3) 0.4631(3) 0.48288(8)
C14 C 0.1639(3) 0.0805(3) 0.85544(7)
H20 H 0.1859 0.1742 0.8325
H21 H 0.0768 0.0035 0.8405
loop_
_geom_bond_atom_site_label_1
_geom_bond_atom_site_label_2
_geom_bond_site_symmetry_1
_geom_bond_site_symmetry_2
O1 C1 1_555 1_555
O2 C1 1_555 1_555
O3 C11 1_555 1_555
O4 C13 1_555 1_555
N1 C1 1_555 1_555
N2 H1 1_555 1_555
H2 N2 1_555 1_555
N3 H3 1_555 1_555
N4 H4 1_555 1_555
N5 N4 1_555 1_555
H5 N5 1_555 1_555
H6 N5 1_555 1_555
C2 N1 1_555 1_555
H7 C2 1_555 1_555
H8 C2 1_555 1_555
C3 O2 1_555 1_555
H9 C3 1_555 1_555
C4 N1 1_555 1_555
C5 C4 1_555 1_555
H10 C5 1_555 1_555
C6 C5 1_555 1_555
H11 C6 1_555 1_555
C7 N3 1_555 1_555
C8 C7 1_555 1_555
H12 C8 1_555 1_555
C9 C4 1_555 1_555
H13 C9 1_555 1_555
C10 N3 1_555 1_555
H14 C10 1_555 1_555
H15 C10 1_555 1_555
C11 C10 1_555 1_555
H16 C11 1_555 1_555
H17 C11 1_555 1_555
C12 O3 1_555 1_555
H18 C12 1_555 1_555
H19 C12 1_555 1_555
C13 N4 1_555 1_555
C14 N2 1_555 1_555
H20 C14 1_555 1_555
H21 C14 1_555 1_555
C2 C3 1_555 1_555
C3 C14 1_555 1_555
C6 C7 1_555 1_555
C8 C9 1_555 1_555
C12 C13 1_555 1_555

#END
