
#######################################################################
#
#                 Cambridge Crystallographic Data Centre
#                                CCDC 
#
#######################################################################
#
# If this CIF has been generated from an entry in the Cambridge 
# Structural Database, then it will include bibliographic, chemical, 
# crystal, experimental, refinement or atomic coordinate data resulting 
# from the CCDC's data processing and validation procedures.
#
#######################################################################

data_VISWOL
_chemical_formula_moiety         'C9 H17 N2 O1 1+,C1 H1 O3 1-,H2 O1'
_chemical_name_systematic        
'3-(2-Hydroxyethyl)-1-isopropyl-2-methyl-1H-imidazol-3-ium hydrogen carbonate monohydrate'
_symmetry_cell_setting           orthorhombic
_symmetry_space_group_name_H-M   'P b c n'
_symmetry_Int_Tables_number      60
_space_group_name_Hall           '-P 2n 2ab'
loop_
_symmetry_equiv_pos_site_id
_symmetry_equiv_pos_as_xyz
1 x,y,z
2 1/2-x,1/2-y,1/2+z
3 -x,y,1/2-z
4 1/2+x,1/2-y,-z
5 -x,-y,-z
6 1/2+x,1/2+y,1/2-z
7 x,-y,1/2+z
8 1/2-x,1/2+y,z
_cell_length_a                   12.1669(7)
_cell_length_b                   12.0650(7)
_cell_length_c                   19.2806(11)
_cell_angle_alpha                90
_cell_angle_beta                 90
_cell_angle_gamma                90
_cell_volume                     2830.27
_exptl_crystal_colour            colorless
_exptl_crystal_description       block
_cell_formula_units_Z            8
loop_
_atom_site_label
_atom_site_type_symbol
_atom_site_fract_x
_atom_site_fract_y
_atom_site_fract_z
O1 O 0.3997(2) 0.0976(2) 0.63965(13)
O2 O 0.5262(2) 0.0973(2) 0.55669(14)
C1 C 0.4417(3) 0.0598(3) 0.58570(16)
O3 O 0.3931(2) -0.0275(2) 0.55732(15)
H1 H 0.4260 -0.0441 0.5198
N1 N 0.7709(3) 0.1829(2) 0.25261(15)
C2 C 0.8547(3) 0.2527(3) 0.23044(18)
H2 H 0.8986 0.3002 0.2592
N2 N 0.7850(3) 0.1637(3) 0.14234(16)
O4 O 0.8051(3) -0.0154(3) 0.33952(18)
H3 H 0.7402 -0.0388 0.3467
C3 C 0.7292(4) 0.1303(3) 0.19808(18)
C4 C 0.8633(3) 0.2408(3) 0.16137(19)
H4 H 0.9135 0.2786 0.1311
C5 C 0.8138(4) 0.0951(4) 0.3636(2)
H5 H 0.8884 0.1196 0.3581
H6 H 0.7966 0.0970 0.4122
C6 C 0.7392(3) 0.1718(3) 0.32575(19)
H7 H 0.6651 0.1448 0.3286
H8 H 0.7417 0.2432 0.3476
C7 C 0.6318(5) 0.0527(5) 0.1994(3)
H9 H 0.6056 0.0436 0.2460
H10 H 0.5733 0.0799 0.1707
H11 H 0.6568 -0.0174 0.1820
C8 C 0.7595(6) 0.1333(5) 0.0690(2)
H12 H 0.7088 0.0723 0.0694
C9 C 0.7089(9) 0.2285(7) 0.0326(4)
H13 H 0.6917 0.2114 -0.0148
H14 H 0.6425 0.2455 0.0573
H15 H 0.7574 0.2912 0.0342
C10 C 0.8621(11) 0.1000(10) 0.0347(4)
H16 H 0.8933 0.0373 0.0582
H17 H 0.8450 0.0800 -0.0123
H18 H 0.9140 0.1599 0.0348
O5 O 1.0000 0.1454(16) 0.7500
H19 H 1.0424 0.0917 0.7598
H19B H 0.9576 0.0917 0.7402
H20? H 1.0334 0.2065 0.7563
loop_
_geom_bond_atom_site_label_1
_geom_bond_atom_site_label_2
_geom_bond_site_symmetry_1
_geom_bond_site_symmetry_2
O1 C1 1_555 1_555
O2 C1 1_555 1_555
C1 O3 1_555 1_555
O3 H1 1_555 1_555
N1 C2 1_555 1_555
C2 H2 1_555 1_555
N2 C3 1_555 1_555
O4 H3 1_555 1_555
C3 N1 1_555 1_555
C4 C2 1_555 1_555
H4 C4 1_555 1_555
C5 O4 1_555 1_555
H5 C5 1_555 1_555
H6 C5 1_555 1_555
C6 N1 1_555 1_555
H7 C6 1_555 1_555
H8 C6 1_555 1_555
C7 C3 1_555 1_555
H9 C7 1_555 1_555
H10 C7 1_555 1_555
H11 C7 1_555 1_555
C8 N2 1_555 1_555
H12 C8 1_555 1_555
C9 C8 1_555 1_555
H13 C9 1_555 1_555
H14 C9 1_555 1_555
H15 C9 1_555 1_555
C10 C8 1_555 1_555
H16 C10 1_555 1_555
H17 C10 1_555 1_555
H18 C10 1_555 1_555
O5 H19 1_555 1_555
H19B O5 1_555 1_555
N2 C4 1_555 1_555
C5 C6 1_555 1_555

#END
