
#######################################################################
#
#                 Cambridge Crystallographic Data Centre
#                                CCDC 
#
#######################################################################
#
# If this CIF has been generated from an entry in the Cambridge 
# Structural Database, then it will include bibliographic, chemical, 
# crystal, experimental, refinement or atomic coordinate data resulting 
# from the CCDC's data processing and validation procedures.
#
#######################################################################

data_VISYUT
_chemical_formula_moiety         'C11 H9 N1 O3 S1'
_chemical_name_systematic        4-(Phenylsulfonyl)-1H-pyrrole-2-carbaldehyde
_symmetry_cell_setting           monoclinic
_symmetry_space_group_name_H-M   'P 21/c'
_symmetry_Int_Tables_number      14
_space_group_name_Hall           '-P 2ybc'
loop_
_symmetry_equiv_pos_site_id
_symmetry_equiv_pos_as_xyz
1 x,y,z
2 -x,1/2+y,1/2-z
3 -x,-y,-z
4 x,1/2-y,1/2+z
_cell_length_a                   12.5682(4)
_cell_length_b                   7.3873(2)
_cell_length_c                   11.2454(4)
_cell_angle_alpha                90
_cell_angle_beta                 98.1280(10)
_cell_angle_gamma                90
_cell_volume                     1033.59
_exptl_crystal_colour            colorless
_exptl_crystal_description       block
_chemical_melting_point          '428 K'
_cell_formula_units_Z            4
_exptl_crystal_recrystallization_method CH2Cl2
loop_
_atom_site_label
_atom_site_type_symbol
_atom_site_fract_x
_atom_site_fract_y
_atom_site_fract_z
S1 S 0.74529(2) 0.66386(3) 0.33666(2)
O1 O 0.74937(6) 0.59569(14) 0.21777(7)
O2 O 0.78487(7) 0.84362(12) 0.36628(10)
C1 C 0.8859(4) 0.2807(4) 0.5431(3)
C2 C 0.82687(9) 0.33333(16) 0.43473(12)
H1 H 0.8009 0.2573 0.3689
C3 C 0.81322(15) 0.5225(2) 0.44216(16)
C4 C 0.86342(9) 0.57964(17) 0.55445(11)
H2 H 0.8666 0.7003 0.5839
N1 N 0.90652(8) 0.43282(13) 0.61341(9)
H3 H 0.9427 0.4338 0.6864
C5 C 0.92175(10) 0.10342(17) 0.58479(12)
H4 H 0.9019 0.0021 0.5345
O3 O 0.9766(2) 0.0776(3) 0.6822(2)
C6 C 0.60958(7) 0.65936(12) 0.36121(8)
C7 C 0.57959(8) 0.74666(14) 0.46141(8)
H5 H 0.6319 0.8035 0.5186
C8 C 0.47173(9) 0.74876(14) 0.47582(9)
H6 H 0.45 0.8063 0.544
C9 C 0.39537(8) 0.66722(14) 0.39118(10)
H7 H 0.3216 0.6712 0.4011
C10 C 0.42631(8) 0.57993(13) 0.29215(10)
H8 H 0.3738 0.5242 0.2346
C11 C 0.53422(8) 0.57421(13) 0.27731(8)
H9 H 0.5562 0.5128 0.2106
C12? C 0.893(3) 0.288(2) 0.5554(19)
C13? C 0.8692(5) 0.4665(9) 0.5361(6)
H10? H 0.8871 0.5656 0.5889
C14? C 0.8118(8) 0.4689(12) 0.4196(8)
C15? C 0.8034(5) 0.2985(8) 0.3714(6)
H11? H 0.7683 0.2658 0.294
N2? N 0.8541(4) 0.1869(8) 0.4543(5)
H12? H 0.8615 0.0693 0.4462
C16? C 0.9569(5) 0.1952(9) 0.6587(5)
H13? H 0.9873 0.2637 0.7266
O4? O 0.9703(11) 0.0339(14) 0.6576(11)
loop_
_geom_bond_atom_site_label_1
_geom_bond_atom_site_label_2
_geom_bond_site_symmetry_1
_geom_bond_site_symmetry_2
S1 O1 1_555 1_555
O2 S1 1_555 1_555
C1 C2 1_555 1_555
C2 H1 1_555 1_555
C3 S1 1_555 1_555
C4 C3 1_555 1_555
H2 C4 1_555 1_555
N1 C1 1_555 1_555
H3 N1 1_555 1_555
C5 C1 1_555 1_555
H4 C5 1_555 1_555
O3 C5 1_555 1_555
C6 S1 1_555 1_555
C7 C6 1_555 1_555
H5 C7 1_555 1_555
C8 C7 1_555 1_555
H6 C8 1_555 1_555
C9 C8 1_555 1_555
H7 C9 1_555 1_555
C10 C9 1_555 1_555
H8 C10 1_555 1_555
C11 C6 1_555 1_555
H9 C11 1_555 1_555
C2 C3 1_555 1_555
C4 N1 1_555 1_555
C10 C11 1_555 1_555

#END
