
#######################################################################
#
#                 Cambridge Crystallographic Data Centre
#                                CCDC 
#
#######################################################################
#
# If this CIF has been generated from an entry in the Cambridge 
# Structural Database, then it will include bibliographic, chemical, 
# crystal, experimental, refinement or atomic coordinate data resulting 
# from the CCDC's data processing and validation procedures.
#
#######################################################################

data_VISZED
_chemical_name_common            
3,5-diethoxy-2-(4-(4-ethoxyphenyl)-1H-pyrazol-3-yl)phenol
_chemical_formula_moiety         'C21 H24 N2 O4'
_chemical_name_systematic        
3-(2,4-diethoxy-6-hydroxyphenyl)-4-(4-ethoxyphenyl)-1H-pyrazole
_symmetry_cell_setting           monoclinic
_symmetry_space_group_name_H-M   'P 21/n'
_symmetry_Int_Tables_number      14
_space_group_name_Hall           '-P 2yn'
loop_
_symmetry_equiv_pos_site_id
_symmetry_equiv_pos_as_xyz
1 x,y,z
2 1/2-x,1/2+y,1/2-z
3 -x,-y,-z
4 1/2+x,1/2-y,1/2+z
_cell_length_a                   8.3072(7)
_cell_length_b                   17.8746(15)
_cell_length_c                   13.5921(11)
_cell_angle_alpha                90
_cell_angle_beta                 106.0580(10)
_cell_angle_gamma                90
_cell_volume                     1939.51
_exptl_crystal_colour            pink
_exptl_crystal_description       block
_chemical_melting_point          '168.4-169.6 deg.C'
_cell_formula_units_Z            4
loop_
_atom_site_label
_atom_site_type_symbol
_atom_site_fract_x
_atom_site_fract_y
_atom_site_fract_z
N1 N 0.7161(4) 0.19857(17) 0.9582(2)
H1 H 0.7143 0.2044 1.0207
N2 N 0.7347(3) 0.25204(16) 0.89229(18)
O1 O 0.7679(4) -0.08419(14) 0.53253(19)
O2 O 1.0399(3) 0.2672(2) 0.7884(2)
O3 O 0.4616(3) 0.27503(17) 0.64567(17)
H2 H 0.3903 0.2891 0.5943
O4 O 0.8236(5) 0.4120(2) 0.4895(2)
C1 C 0.8243(7) -0.1353(3) 0.3843(4)
H3 H 0.9307 -0.1538 0.4246
H4 H 0.8314 -0.1233 0.3168
H5 H 0.7403 -0.1730 0.3799
C2 C 0.7795(7) -0.0680(3) 0.4326(3)
H6 H 0.8637 -0.0297 0.4363
H7 H 0.6730 -0.0488 0.3913
C3 C 0.7474(5) -0.0259(2) 0.5935(3)
C4 C 0.7073(8) 0.0445(3) 0.5619(3)
H8 H 0.6870 0.0560 0.4929
C5 C 0.6953(7) 0.1006(3) 0.6304(3)
H9 H 0.6719 0.1491 0.6060
C6 C 0.7164(4) 0.0873(2) 0.7310(2)
C7 C 0.7455(10) 0.0153(2) 0.7586(3)
H10 H 0.7557 0.0023 0.8264
C8 C 0.7609(11) -0.0398(3) 0.6919(3)
H11 H 0.7813 -0.0886 0.7160
C9 C 0.7116(4) 0.14592(19) 0.8063(2)
C10 C 0.7322(4) 0.22253(19) 0.7992(2)
C11 C 0.7014(5) 0.1360(2) 0.9068(2)
H12 H 0.6858 0.0897 0.9339
C12 C 0.7519(4) 0.27131(19) 0.7157(2)
C13 C 0.6154(4) 0.29660(19) 0.6399(2)
C14 C 0.6328(5) 0.3433(2) 0.5614(2)
H13 H 0.5395 0.3593 0.5105
C15 C 0.7908(6) 0.3650(2) 0.5609(3)
C16 C 0.9309(6) 0.3404(3) 0.6349(3)
H14 H 1.0373 0.3551 0.6329
C17 C 0.9117(5) 0.2938(2) 0.7119(3)
C18 C 1.2030(7) 0.2971(5) 0.8007(4)
H15 H 1.2518 0.2713 0.7530
H16 H 1.1904 0.3492 0.7800
C19 C 1.3005(9) 0.2943(7) 0.8824(5)
H17 H 1.2431 0.3012 0.9341
H18 H 1.3827 0.3330 0.8881
H19 H 1.3549 0.2464 0.8913
C20 C 0.6856(8) 0.4406(3) 0.4113(3)
H20 H 0.6095 0.4673 0.4414
H21 H 0.6248 0.3999 0.3700
C21 C 0.7556(10) 0.4928(3) 0.3457(4)
H22 H 0.8329 0.5270 0.3889
H23 H 0.6657 0.5203 0.3008
H24 H 0.8127 0.4642 0.3059
loop_
_geom_bond_atom_site_label_1
_geom_bond_atom_site_label_2
_geom_bond_site_symmetry_1
_geom_bond_site_symmetry_2
N1 H1 1_555 1_555
N2 N1 1_555 1_555
O1 C2 1_555 1_555
O2 C17 1_555 1_555
O3 H2 1_555 1_555
O4 C15 1_555 1_555
C1 H3 1_555 1_555
H4 C1 1_555 1_555
H5 C1 1_555 1_555
C2 C1 1_555 1_555
H6 C2 1_555 1_555
H7 C2 1_555 1_555
C3 O1 1_555 1_555
C4 C3 1_555 1_555
H8 C4 1_555 1_555
C5 C4 1_555 1_555
H9 C5 1_555 1_555
C6 C5 1_555 1_555
C7 C6 1_555 1_555
H10 C7 1_555 1_555
C8 C3 1_555 1_555
H11 C8 1_555 1_555
C9 C6 1_555 1_555
C10 N2 1_555 1_555
C11 N1 1_555 1_555
H12 C11 1_555 1_555
C12 C10 1_555 1_555
C13 O3 1_555 1_555
C14 C13 1_555 1_555
H13 C14 1_555 1_555
C15 C14 1_555 1_555
C16 C15 1_555 1_555
H14 C16 1_555 1_555
C17 C12 1_555 1_555
C18 O2 1_555 1_555
H15 C18 1_555 1_555
H16 C18 1_555 1_555
C19 C18 1_555 1_555
H17 C19 1_555 1_555
H18 C19 1_555 1_555
H19 C19 1_555 1_555
C20 O4 1_555 1_555
H20 C20 1_555 1_555
H21 C20 1_555 1_555
C21 C20 1_555 1_555
H22 C21 1_555 1_555
H23 C21 1_555 1_555
H24 C21 1_555 1_555
C7 C8 1_555 1_555
C9 C10 1_555 1_555
C9 C11 1_555 1_555
C12 C13 1_555 1_555
C16 C17 1_555 1_555

#END
