
#######################################################################
#
#                 Cambridge Crystallographic Data Centre
#                                CCDC 
#
#######################################################################
#
# If this CIF has been generated from an entry in the Cambridge 
# Structural Database, then it will include bibliographic, chemical, 
# crystal, experimental, refinement or atomic coordinate data resulting 
# from the CCDC's data processing and validation procedures.
#
#######################################################################

data_VITBUX
_chemical_formula_moiety         'C22 H16 N2 O4'
_chemical_name_systematic        
'Methyl 4,5-dicyano-2-(2-((4-methylbenzyl)oxy)phenyl)-3-furoate'
_symmetry_cell_setting           monoclinic
_symmetry_space_group_name_H-M   'P 21'
_symmetry_Int_Tables_number      4
_space_group_name_Hall           'P 2yb'
loop_
_symmetry_equiv_pos_site_id
_symmetry_equiv_pos_as_xyz
1 x,y,z
2 -x,1/2+y,-z
_cell_length_a                   10.7714(11)
_cell_length_b                   7.8126(8)
_cell_length_c                   11.5206(12)
_cell_angle_alpha                90
_cell_angle_beta                 106.574(2)
_cell_angle_gamma                90
_cell_volume                     929.209
_exptl_crystal_colour            colorless
_exptl_crystal_description       prismatic
_cell_formula_units_Z            2
loop_
_atom_site_label
_atom_site_type_symbol
_atom_site_fract_x
_atom_site_fract_y
_atom_site_fract_z
N1 N 0.86015(18) 0.5065(3) 0.4246(2)
N2 N 0.5554(2) 0.2947(3) 0.09809(15)
O1 O 0.58042(10) 0.44605(15) 0.49922(9)
O2 O 0.29466(14) 0.1702(2) 0.18814(13)
O3 O 0.20990(11) 0.2459(2) 0.33502(11)
O4 O 0.55543(11) 0.27398(16) 0.70419(9)
C1 C 0.45560(15) 0.38798(19) 0.46861(13)
C2 C 0.62542(16) 0.4225(2) 0.40220(14)
C3 C 0.53265(16) 0.3506(2) 0.30939(14)
C4 C 0.42226(15) 0.3262(2) 0.35322(13)
C5 C 0.30289(16) 0.2397(2) 0.28191(14)
C6 C 0.38562(16) 0.4100(2) 0.56009(14)
C7 C 0.26583(17) 0.4889(3) 0.52797(18)
H1 H 0.2303 0.5266 0.4488
C8 C 0.1985(2) 0.5123(3) 0.6121(2)
H2 H 0.1178 0.5653 0.5898
C9 C 0.2507(2) 0.4576(3) 0.72777(19)
H3 H 0.2048 0.4734 0.7842
C10 C 0.37073(18) 0.3790(3) 0.76333(16)
H4 H 0.4051 0.3429 0.8430
C11 C 0.43952(16) 0.3544(2) 0.67955(14)
C12 C 0.62254(17) 0.2441(3) 0.82945(13)
H5 H 0.5761 0.1598 0.8628
H6 H 0.6270 0.3494 0.8750
C13 C 0.75599(18) 0.1813(2) 0.83959(14)
C14 C 0.8181(2) 0.0741(3) 0.93372(17)
H7 H 0.7733 0.0343 0.9864
C15 C 0.9449(2) 0.0251(3) 0.95119(18)
H8 H 0.9840 -0.0468 1.0156
C16 C 1.0157(2) 0.0808(3) 0.87465(17)
C17 C 0.95198(19) 0.1838(3) 0.77875(16)
H9 H 0.9956 0.2201 0.7242
C18 C 0.82554(17) 0.2343(2) 0.76169(15)
H10 H 0.7861 0.3051 0.6968
C19 C 1.1548(2) 0.0295(4) 0.8960(2)
H11 H 1.1901 0.0875 0.8391
H12 H 1.1599 -0.0920 0.8856
H13 H 1.2033 0.0601 0.9769
C20 C 0.75578(19) 0.4717(3) 0.41458(17)
C21 C 0.54476(18) 0.3153(3) 0.19166(15)
C22 C 0.08524(18) 0.1784(3) 0.2714(2)
H14 H 0.0725 0.1885 0.1858
H15 H 0.0190 0.2415 0.2937
H16 H 0.0807 0.0601 0.2922
loop_
_geom_bond_atom_site_label_1
_geom_bond_atom_site_label_2
_geom_bond_site_symmetry_1
_geom_bond_site_symmetry_2
N1 C20 1_555 1_555
N2 C21 1_555 1_555
O1 C1 1_555 1_555
O2 C5 1_555 1_555
O3 C5 1_555 1_555
O4 C11 1_555 1_555
C1 C4 1_555 1_555
C2 O1 1_555 1_555
C3 C2 1_555 1_555
C4 C3 1_555 1_555
C5 C4 1_555 1_555
C6 C1 1_555 1_555
C7 C6 1_555 1_555
H1 C7 1_555 1_555
C8 C7 1_555 1_555
H2 C8 1_555 1_555
C9 C8 1_555 1_555
H3 C9 1_555 1_555
C10 C9 1_555 1_555
H4 C10 1_555 1_555
C11 C6 1_555 1_555
C12 O4 1_555 1_555
H5 C12 1_555 1_555
H6 C12 1_555 1_555
C13 C12 1_555 1_555
C14 C13 1_555 1_555
H7 C14 1_555 1_555
C15 C14 1_555 1_555
H8 C15 1_555 1_555
C16 C15 1_555 1_555
C17 C16 1_555 1_555
H9 C17 1_555 1_555
C18 C13 1_555 1_555
H10 C18 1_555 1_555
C19 C16 1_555 1_555
H11 C19 1_555 1_555
H12 C19 1_555 1_555
H13 C19 1_555 1_555
C20 C2 1_555 1_555
C21 C3 1_555 1_555
C22 O3 1_555 1_555
H14 C22 1_555 1_555
H15 C22 1_555 1_555
H16 C22 1_555 1_555
C10 C11 1_555 1_555
C17 C18 1_555 1_555

#END
