
#######################################################################
#
#                 Cambridge Crystallographic Data Centre
#                                CCDC 
#
#######################################################################
#
# If this CIF has been generated from an entry in the Cambridge 
# Structural Database, then it will include bibliographic, chemical, 
# crystal, experimental, refinement or atomic coordinate data resulting 
# from the CCDC's data processing and validation procedures.
#
#######################################################################

data_VITCEI
_chemical_formula_moiety         'C15 H11 N3 O1 S1'
_chemical_name_systematic        
4-Benzoyl-5-(dimethylamino)thiophene-2,3-dicarbonitrile
_symmetry_cell_setting           monoclinic
_symmetry_space_group_name_H-M   'P 21/c'
_symmetry_Int_Tables_number      14
_space_group_name_Hall           '-P 2ybc'
loop_
_symmetry_equiv_pos_site_id
_symmetry_equiv_pos_as_xyz
1 x,y,z
2 -x,1/2+y,1/2-z
3 -x,-y,-z
4 x,1/2-y,1/2+z
_cell_length_a                   8.1738(11)
_cell_length_b                   21.296(3)
_cell_length_c                   8.4023(11)
_cell_angle_alpha                90
_cell_angle_beta                 109.477(3)
_cell_angle_gamma                90
_cell_volume                     1378.89
_exptl_crystal_colour            green
_exptl_crystal_description       prismatic
_cell_formula_units_Z            4
loop_
_atom_site_label
_atom_site_type_symbol
_atom_site_fract_x
_atom_site_fract_y
_atom_site_fract_z
S1 S 1.06548(7) 0.25794(3) 0.73836(7)
N1 N 0.8008(4) 0.39538(10) 0.5063(3)
N2 N 0.5206(3) 0.24626(9) 0.2322(3)
N3 N 1.1271(2) 0.13553(8) 0.7881(2)
O1 O 0.90837(19) 0.07798(8) 0.4214(2)
C1 C 0.8807(3) 0.28038(9) 0.5782(3)
C2 C 0.7902(2) 0.22960(9) 0.4951(2)
C3 C 0.8677(2) 0.17068(9) 0.5532(2)
C4 C 1.0214(2) 0.17856(9) 0.6896(3)
C5 C 0.8070(2) 0.11105(9) 0.4609(2)
C6 C 0.6212(2) 0.09370(8) 0.4157(2)
C7 C 0.5154(3) 0.11977(9) 0.4978(3)
H1 H 0.5603 0.1497 0.5817
C8 C 0.3433(3) 0.10154(10) 0.4557(3)
H2 H 0.2725 0.1197 0.5095
C9 C 0.2782(3) 0.05677(11) 0.3346(4)
H3 H 0.1628 0.0445 0.3065
C10 C 0.3814(3) 0.02968(10) 0.2542(3)
H4 H 0.3361 -0.0013 0.1733
C11 C 0.5531(3) 0.04825(9) 0.2930(3)
H5 H 0.6223 0.0303 0.2370
C12 C 0.8384(3) 0.34424(11) 0.5394(3)
C13 C 0.6383(3) 0.23769(10) 0.3488(3)
C14 C 1.2860(3) 0.15433(13) 0.9182(3)
H6 H 1.3288 0.1923 0.8845
H7 H 1.3711 0.1217 0.9347
H8 H 1.2634 0.1615 1.0218
C15 C 1.0749(3) 0.06986(11) 0.7855(3)
H9 H 0.9527 0.0676 0.7673
H10 H 1.1378 0.0505 0.8915
H11 H 1.0999 0.0483 0.6960
loop_
_geom_bond_atom_site_label_1
_geom_bond_atom_site_label_2
_geom_bond_site_symmetry_1
_geom_bond_site_symmetry_2
S1 C1 1_555 1_555
N1 C12 1_555 1_555
N2 C13 1_555 1_555
N3 C4 1_555 1_555
O1 C5 1_555 1_555
C1 C2 1_555 1_555
C2 C3 1_555 1_555
C3 C4 1_555 1_555
C4 S1 1_555 1_555
C5 C3 1_555 1_555
C6 C5 1_555 1_555
C7 C6 1_555 1_555
H1 C7 1_555 1_555
C8 C7 1_555 1_555
H2 C8 1_555 1_555
C9 C8 1_555 1_555
H3 C9 1_555 1_555
C10 C9 1_555 1_555
H4 C10 1_555 1_555
C11 C6 1_555 1_555
H5 C11 1_555 1_555
C12 C1 1_555 1_555
C13 C2 1_555 1_555
C14 N3 1_555 1_555
H6 C14 1_555 1_555
H7 C14 1_555 1_555
H8 C14 1_555 1_555
C15 N3 1_555 1_555
H9 C15 1_555 1_555
H10 C15 1_555 1_555
H11 C15 1_555 1_555
C10 C11 1_555 1_555

#END
