
#######################################################################
#
#                 Cambridge Crystallographic Data Centre
#                                CCDC 
#
#######################################################################
#
# If this CIF has been generated from an entry in the Cambridge 
# Structural Database, then it will include bibliographic, chemical, 
# crystal, experimental, refinement or atomic coordinate data resulting 
# from the CCDC's data processing and validation procedures.
#
#######################################################################

data_VITCUZ
_chemical_formula_moiety         '2(C55 H60 Br10 O10),I1 1-,C16 H19 N2 1+'
_chemical_name_systematic        
'bis(4,9,14,19,24,26,28,30,32,34-decakis(2-bromoethoxy)hexacyclo[21.2.2.2^3,6^.2^8,11^.2^13,16^.2^18,21^]pentatriaconta-1(25),3,5,8,10,13,15,18,20,23,26,28,30,32,34-pentadecaene) trans-4-[p-(dimethylamino)styryl]-1-methylpyridinium iodide'
_symmetry_cell_setting           triclinic
_symmetry_space_group_name_H-M   'P -1'
_symmetry_Int_Tables_number      2
_space_group_name_Hall           '-P 1'
loop_
_symmetry_equiv_pos_site_id
_symmetry_equiv_pos_as_xyz
1 x,y,z
2 -x,-y,-z
_cell_length_a                   12.3928(6)
_cell_length_b                   15.6251(7)
_cell_length_c                   18.2747(9)
_cell_angle_alpha                82.203(4)
_cell_angle_beta                 81.506(4)
_cell_angle_gamma                76.519(4)
_cell_volume                     3384.54
_exptl_crystal_colour            red
_exptl_crystal_description       block
_cell_formula_units_Z            1
_exptl_crystal_preparation       Luminescent
loop_
_atom_site_label
_atom_site_type_symbol
_atom_site_fract_x
_atom_site_fract_y
_atom_site_fract_z
Br1 Br -0.12930(9) 0.23562(7) 1.07302(6)
Br2 Br 0.33977(9) -0.12949(7) 0.67024(6)
Br3 Br 0.30172(9) 0.25551(7) 1.15920(6)
Br4 Br 0.46940(9) 0.63090(6) 0.89326(6)
Br5 Br -0.27443(8) 0.46601(6) 0.86458(6)
O1 O -0.0831(5) 0.1657(4) 0.9151(3)
O2 O 0.0800(5) 0.1459(4) 0.6187(3)
O3 O 0.3118(4) -0.0626(4) 0.8315(4)
O4 O 0.2958(5) 0.2116(4) 0.9963(4)
O5 O 0.6280(5) 0.0949(3) 0.7977(3)
O6 O 0.4591(5) 0.4438(4) 0.8513(3)
O7 O 0.5645(4) 0.3532(4) 0.5780(3)
O8 O 0.2029(5) 0.6116(4) 0.6724(3)
O9 O 0.1720(5) 0.4093(4) 0.4591(3)
O10 O -0.0826(5) 0.4199(4) 0.7341(3)
C1 C -0.2242(7) 0.1925(6) 1.0156(5)
H1 H -0.215298 0.127811 1.028212
H2 H -0.303435 0.220606 1.030101
C2 C -0.1963(7) 0.2120(6) 0.9334(5)
H3 H -0.247299 0.191271 0.906343
H4 H -0.203597 0.276393 0.919743
C3 C -0.0440(7) 0.1636(5) 0.8405(5)
C4 C -0.0907(6) 0.2247(5) 0.7843(5)
H5 H -0.152787 0.270763 0.797521
C5 C -0.0495(6) 0.2201(5) 0.7107(5)
C6 C 0.0410(7) 0.1498(5) 0.6932(4)
C7 C 0.0881(7) 0.0902(5) 0.7474(5)
H6 H 0.150014 0.044140 0.733936
C8 C 0.0472(7) 0.0957(5) 0.8221(5)
C9 C 0.1005(6) 0.0290(5) 0.8825(5)
H7 H 0.046338 0.028549 0.928065
H8 H 0.118685 -0.030922 0.865698
C10 C 0.2063(7) 0.0506(5) 0.9006(5)
C11 C 0.3112(7) 0.0038(5) 0.8746(5)
C12 C 0.4165(7) -0.1176(6) 0.8086(6)
H9 H 0.454152 -0.146688 0.852546
H10 H 0.465506 -0.082064 0.776839
C13 C 0.3940(9) -0.1858(6) 0.7658(6)
H11 H 0.337071 -0.215519 0.795698
H12 H 0.463349 -0.231274 0.755971
C14 C 0.4079(7) 0.0261(5) 0.8895(5)
H13 H 0.478909 -0.007788 0.871903
C15 C 0.4024(7) 0.0968(5) 0.9294(5)
C16 C 0.2971(7) 0.1430(5) 0.9565(5)
C17 C 0.1919(8) 0.2567(6) 1.0315(6)
H14 H 0.152000 0.213608 1.062003
H15 H 0.144333 0.290159 0.993597
C18 C 0.2151(9) 0.3186(6) 1.0797(6)
H16 H 0.143418 0.353625 1.101899
H17 H 0.256826 0.360216 1.048855
C19 C 0.2015(7) 0.1201(5) 0.9416(5)
H18 H 0.130459 0.153215 0.960029
C20 C 0.5073(7) 0.1242(6) 0.9393(5)
H19 H 0.571115 0.072708 0.935801
H20 H 0.499559 0.144073 0.989327
C21 C 0.5306(7) 0.1978(5) 0.8813(5)
C22 C 0.5881(7) 0.1833(5) 0.8109(5)
C23 C 0.7316(9) 0.0724(6) 0.7543(8)
H21 H 0.786228 0.100634 0.770788
H22 H 0.723718 0.094388 0.701489
C24 C 0.7723(10) -0.0250(7) 0.7616(8)
H23 H 0.831992 -0.045148 0.721383
C25 C 0.6023(6) 0.2527(5) 0.7566(5)
H24 H 0.641987 0.239984 0.709317
C26 C 0.5593(6) 0.3401(5) 0.7702(5)
C27 C 0.5020(6) 0.3556(5) 0.8403(5)
C28 C 0.4048(10) 0.4629(6) 0.9221(6)
H25 H 0.458623 0.444885 0.959256
H26 H 0.344649 0.429670 0.936720
C29 C 0.3563(9) 0.5600(6) 0.9198(6)
H27 H 0.315714 0.573330 0.969260
H28 H 0.301621 0.576839 0.883213
C30 C 0.4881(7) 0.2873(6) 0.8945(5)
H29 H 0.449228 0.300623 0.941837
C31 C 0.5722(6) 0.4165(5) 0.7115(5)
H30 H 0.583376 0.465904 0.736055
H31 H 0.640425 0.397503 0.676761
C32 C 0.4747(6) 0.4501(5) 0.6671(4)
C33 C 0.4715(7) 0.4168(5) 0.6008(5)
C34 C 0.5678(7) 0.3238(6) 0.5068(5)
H32 H 0.510412 0.288468 0.508884
H33 H 0.550965 0.375547 0.469275
C35 C 0.6749(9) 0.2716(7) 0.4858(6)
H34 H 0.706501 0.316092 0.450664
H35 H 0.654088 0.233972 0.453126
C36 C 0.3820(7) 0.4471(5) 0.5599(5)
H36 H 0.382734 0.423825 0.514382
C37 C 0.2906(6) 0.5116(5) 0.5852(4)
C38 C 0.2944(7) 0.5457(5) 0.6509(5)
C39 C 0.2126(9) 0.6618(7) 0.7288(6)
H37 H 0.289764 0.671329 0.723647
H38 H 0.197692 0.628958 0.778136
C40 C 0.1329(9) 0.7480(7) 0.7238(7)
H39 H 0.179882 0.791513 0.705376
H40 H 0.104788 0.758488 0.776109
C41 C 0.3844(6) 0.5158(5) 0.6914(5)
H41 H 0.384699 0.540313 0.736212
C42 C 0.1893(6) 0.5384(5) 0.5442(5)
H42 H 0.212945 0.537704 0.490117
H43 H 0.149774 0.599446 0.553485
C43 C 0.1105(6) 0.4760(5) 0.5693(5)
C44 C 0.1054(6) 0.4105(5) 0.5266(5)
C45 C 0.1628(7) 0.3483(6) 0.4107(5)
H44 H 0.084583 0.357849 0.400072
H45 H 0.186013 0.286792 0.433772
C46 C 0.2386(8) 0.3641(7) 0.3399(5)
H46 H 0.226832 0.428146 0.323071
H47 H 0.222658 0.333376 0.300075
C47 C 0.0356(6) 0.3521(5) 0.5522(5)
H48 H 0.029746 0.309641 0.521159
C48 C -0.0256(7) 0.3546(5) 0.6221(5)
C49 C -0.0189(7) 0.4194(5) 0.6653(5)
C50 C -0.0574(9) 0.4686(7) 0.7871(5)
H49 H -0.085659 0.532777 0.774181
H50 H 0.024497 0.457414 0.787546
C51 C -0.1126(9) 0.4392(7) 0.8619(6)
H51 H -0.092028 0.469289 0.900411
H52 H -0.085429 0.374633 0.873467
C52 C 0.0493(7) 0.4789(5) 0.6394(5)
H53 H 0.054081 0.522107 0.669980
C53 C -0.0987(7) 0.2891(5) 0.6503(5)
H54 H -0.108254 0.258839 0.608213
H55 H -0.173501 0.321367 0.670414
C54 C 0.1075(15) 0.0649(8) 0.5942(7)
H56 H 0.040957 0.038490 0.606416
H57 H 0.166073 0.027832 0.623361
C55 C 0.1456(14) 0.0580(11) 0.5191(7)
H58 H 0.145497 -0.003632 0.511929
H59 H 0.225254 0.061081 0.514203
Br6 Br 0.3958(9) 0.317(3) 0.3622(9)
Br7 Br 0.69261(15) -0.06735(12) 0.68689(11)
H60 H 0.752258 -0.051035 0.812887
Br8 Br 0.0029(3) 0.13111(14) 0.46345(16)
Br9 Br -0.02491(9) 0.73037(7) 0.74963(7)
Br10 Br 0.70169(11) 0.15529(7) 0.55131(8)
C56 C 0.6100(19) -0.1507(13) 0.3741(10)
C57 C 0.5386(18) -0.0694(13) 0.3584(8)
H61 H 0.518811 -0.051424 0.309513
C58 C 0.4962(18) -0.0142(11) 0.4144(10)
H62 H 0.447361 0.041366 0.403677
C59 C 0.6389(17) -0.1770(11) 0.4456(12)
H63 H 0.687716 -0.232556 0.456330
C60 C 0.340(2) 0.1971(17) 0.7563(14)
H64 H 0.414883 0.193760 0.768788
H65 H 0.287717 0.247615 0.777566
H66 H 0.315385 0.142427 0.776816
C61 C 0.259(2) 0.2842(19) 0.6565(19)
H67 H 0.184970 0.271011 0.670224
H68 H 0.265602 0.332301 0.683801
H69 H 0.270114 0.302314 0.602876
C62 C 0.3824(14) 0.1417(9) 0.6108(8)
C63 C 0.3085(15) 0.2212(11) 0.5935(7)
H70 H 0.290227 0.237651 0.544111
C64 C 0.525(2) -0.0405(11) 0.4859(9)
C65 C 0.5965(19) -0.1218(12) 0.5016(9)
H71 H 0.616265 -0.139765 0.550493
C66 C 0.421(2) 0.0930(13) 0.5447(13)
H72 H 0.399274 0.122585 0.498460
C67 C 0.482(3) 0.0119(15) 0.5442(13)
H73 H 0.500925 -0.015678 0.591706
C68 C 0.2613(13) 0.2768(8) 0.6485(9)
H74 H 0.210839 0.331155 0.636720
N1 N 0.2881(13) 0.2527(9) 0.7208(8)
C69 C 0.4091(13) 0.1176(8) 0.6830(9)
C70 C 0.3620(14) 0.1732(10) 0.7381(7)
H75 H 0.380252 0.156749 0.787460
C71 C 0.235(2) 0.3115(18) 0.7821(16)
H76 H 0.227743 0.373778 0.762144
H77 H 0.281835 0.298258 0.822663
H78 H 0.160599 0.300431 0.801109
H79 H 0.459642 0.063243 0.694849
N2 N 0.6588(16) -0.2085(13) 0.3257(12)
C56A C 0.3900(19) 0.1507(13) 0.6259(10)
C57A C 0.4614(18) 0.0694(13) 0.6416(8)
H61A H 0.481189 0.051424 0.690487
C58A C 0.5038(18) 0.0142(11) 0.5856(10)
H62A H 0.552639 -0.041366 0.596323
C59A C 0.3611(17) 0.1770(11) 0.5544(12)
H63A H 0.312284 0.232556 0.543670
C60A C 0.660(2) -0.1971(17) 0.2437(14)
H64A H 0.585117 -0.193760 0.231212
H65A H 0.712283 -0.247615 0.222434
H66A H 0.684615 -0.142427 0.223184
C61A C 0.741(2) -0.2842(19) 0.3435(19)
H67A H 0.815030 -0.271011 0.329776
H68A H 0.734398 -0.332301 0.316199
H69A H 0.729886 -0.302314 0.397124
C62A C 0.6176(14) -0.1417(9) 0.3892(8)
C63A C 0.6915(15) -0.2212(11) 0.4065(7)
H70A H 0.709773 -0.237651 0.455889
C64A C 0.475(2) 0.0405(11) 0.5141(9)
C65A C 0.4035(19) 0.1218(12) 0.4984(9)
H71A H 0.383735 0.139765 0.449507
C66A C 0.579(2) -0.0930(13) 0.4553(13)
H72A H 0.600726 -0.122585 0.501540
C67A C 0.518(3) -0.0119(15) 0.4558(13)
H73A H 0.499075 0.015678 0.408294
C68A C 0.7387(13) -0.2768(8) 0.3515(9)
H74A H 0.789161 -0.331155 0.363280
N1A N 0.7119(13) -0.2527(9) 0.2792(8)
C69A C 0.5909(13) -0.1176(8) 0.3170(9)
C70A C 0.6380(14) -0.1732(10) 0.2619(7)
H75A H 0.619748 -0.156749 0.212540
C71A C 0.765(2) -0.3115(18) 0.2179(16)
H76A H 0.772257 -0.373778 0.237856
H77A H 0.718165 -0.298258 0.177337
H78A H 0.839401 -0.300431 0.198891
H79A H 0.540358 -0.063243 0.305151
N2A N 0.3412(16) 0.2085(13) 0.6743(12)
I1 I 0.10361(18) 0.49653(16) 0.93494(14)
Br11? Br 0.3949(8) 0.3441(8) 0.3535(6)
H80? H 0.854505 -0.041190 0.749025
H81? H 0.732795 0.304323 0.490016
H82? H 0.680927 0.260025 0.433242
H83? H 0.142096 0.777996 0.672683
H84? H 0.148124 0.785982 0.758476
H85? H 0.213727 0.425843 0.317994
H86? H 0.230796 0.324551 0.303906
H87? H 0.165847 -0.004558 0.508428
Br12? Br 0.8333(2) -0.03475(15) 0.86364(19)
H88? H 0.711286 -0.056838 0.764444
Br13? Br 0.0972(6) 0.1195(3) 0.44154(19)
Br14? Br 0.0238(5) 0.7814(4) 0.6798(5)
Br15? Br 0.7891(9) 0.2076(7) 0.5090(7)
H89? H 0.211260 0.084994 0.503438
loop_
_geom_bond_atom_site_label_1
_geom_bond_atom_site_label_2
_geom_bond_site_symmetry_1
_geom_bond_site_symmetry_2
Br1 C1 1_555 1_555
Br2 C13 1_555 1_555
Br3 C18 1_555 1_555
Br4 C29 1_555 1_555
Br5 C51 1_555 1_555
O1 C2 1_555 1_555
O2 C6 1_555 1_555
O3 C11 1_555 1_555
O4 C16 1_555 1_555
O5 C22 1_555 1_555
O6 C27 1_555 1_555
O7 C33 1_555 1_555
O8 C38 1_555 1_555
O9 C44 1_555 1_555
O10 C49 1_555 1_555
C1 H1 1_555 1_555
H2 C1 1_555 1_555
C2 C1 1_555 1_555
H3 C2 1_555 1_555
H4 C2 1_555 1_555
C3 O1 1_555 1_555
C4 C3 1_555 1_555
H5 C4 1_555 1_555
C5 C4 1_555 1_555
C6 C5 1_555 1_555
C7 C6 1_555 1_555
H6 C7 1_555 1_555
C8 C3 1_555 1_555
C9 C8 1_555 1_555
H7 C9 1_555 1_555
H8 C9 1_555 1_555
C10 C9 1_555 1_555
C11 C10 1_555 1_555
C12 O3 1_555 1_555
H9 C12 1_555 1_555
H10 C12 1_555 1_555
C13 C12 1_555 1_555
H11 C13 1_555 1_555
H12 C13 1_555 1_555
C14 C11 1_555 1_555
H13 C14 1_555 1_555
C15 C14 1_555 1_555
C16 C15 1_555 1_555
C17 O4 1_555 1_555
H14 C17 1_555 1_555
H15 C17 1_555 1_555
C18 C17 1_555 1_555
H16 C18 1_555 1_555
H17 C18 1_555 1_555
C19 C10 1_555 1_555
H18 C19 1_555 1_555
C20 C15 1_555 1_555
H19 C20 1_555 1_555
H20 C20 1_555 1_555
C21 C20 1_555 1_555
C22 C21 1_555 1_555
C23 O5 1_555 1_555
H21 C23 1_555 1_555
H22 C23 1_555 1_555
C24 C23 1_555 1_555
H23 C24 1_555 1_555
C25 C22 1_555 1_555
H24 C25 1_555 1_555
C26 C25 1_555 1_555
C27 C26 1_555 1_555
C28 O6 1_555 1_555
H25 C28 1_555 1_555
H26 C28 1_555 1_555
C29 C28 1_555 1_555
H27 C29 1_555 1_555
H28 C29 1_555 1_555
C30 C21 1_555 1_555
H29 C30 1_555 1_555
C31 C26 1_555 1_555
H30 C31 1_555 1_555
H31 C31 1_555 1_555
C32 C31 1_555 1_555
C33 C32 1_555 1_555
C34 O7 1_555 1_555
H32 C34 1_555 1_555
H33 C34 1_555 1_555
C35 C34 1_555 1_555
H34 C35 1_555 1_555
H35 C35 1_555 1_555
C36 C33 1_555 1_555
H36 C36 1_555 1_555
C37 C36 1_555 1_555
C38 C37 1_555 1_555
C39 O8 1_555 1_555
H37 C39 1_555 1_555
H38 C39 1_555 1_555
C40 C39 1_555 1_555
H39 C40 1_555 1_555
H40 C40 1_555 1_555
C41 C32 1_555 1_555
H41 C41 1_555 1_555
C42 C37 1_555 1_555
H42 C42 1_555 1_555
H43 C42 1_555 1_555
C43 C42 1_555 1_555
C44 C43 1_555 1_555
C45 O9 1_555 1_555
H44 C45 1_555 1_555
H45 C45 1_555 1_555
C46 C45 1_555 1_555
H46 C46 1_555 1_555
H47 C46 1_555 1_555
C47 C44 1_555 1_555
H48 C47 1_555 1_555
C48 C47 1_555 1_555
C49 C48 1_555 1_555
C50 O10 1_555 1_555
H49 C50 1_555 1_555
H50 C50 1_555 1_555
C51 C50 1_555 1_555
H51 C51 1_555 1_555
H52 C51 1_555 1_555
C52 C43 1_555 1_555
H53 C52 1_555 1_555
C53 C5 1_555 1_555
H54 C53 1_555 1_555
H55 C53 1_555 1_555
C54 O2 1_555 1_555
H56 C54 1_555 1_555
H57 C54 1_555 1_555
C55 C54 1_555 1_555
H58 C55 1_555 1_555
H59 C55 1_555 1_555
Br6 C46 1_555 1_555
Br7 C24 1_555 1_555
H60 C24 1_555 1_555
Br8 C55 1_555 1_555
Br9 C40 1_555 1_555
Br10 C35 1_555 1_555
C56 C57 1_555 1_555
C57 H61 1_555 1_555
H61 C69A 1_555 1_555
C58 C57 1_555 1_555
H62 C58 1_555 1_555
C59 C56 1_555 1_555
H63 C59 1_555 1_555
C60 H64 1_555 1_555
H64 C70 1_555 1_555
H65 C60 1_555 1_555
H66 C60 1_555 1_555
C61 H67 1_555 1_555
H67 C68 1_555 1_555
H68 C61 1_555 1_555
H69 C61 1_555 1_555
C62 C63 1_555 1_555
C63 C61 1_555 1_555
H70 C63 1_555 1_555
C64 C58 1_555 1_555
C65 C59 1_555 1_555
H71 C65 1_555 1_555
C66 C62 1_555 1_555
H72 C66 1_555 1_555
C67 C64 1_555 1_555
H73 C67 1_555 1_555
C68 H68 1_555 1_555
H74 C61 1_555 1_555
N1 C60 1_555 1_555
C69 C62 1_555 1_555
C70 H66 1_555 1_555
H75 C60 1_555 1_555
C71 H65 1_555 1_555
H76 C71 1_555 1_555
H77 C71 1_555 1_555
H78 C71 1_555 1_555
H79 C69 1_555 1_555
N2 C56 1_555 1_555
C56A C63 1_555 1_555
C57A C62 1_555 1_555
H61A C69 1_555 1_555
C58A C66 1_555 1_555
H62A C58A 1_555 1_555
C59A C62 1_555 1_555
H63A C63 1_555 1_555
C60A N2 1_555 1_555
H64A C60A 1_555 1_555
H65A C60A 1_555 1_555
H66A C60A 1_555 1_555
C61A N2 1_555 1_555
H67A C61A 1_555 1_555
H68A C61A 1_555 1_555
H69A C61A 1_555 1_555
C62A C57 1_555 1_555
C63A C56 1_555 1_555
H70A C59 1_555 1_555
C64A C64 1_555 1_555
C65A C66 1_555 1_555
H71A C65A 1_555 1_555
C66A C56 1_555 1_555
H72A C66A 1_555 1_555
C67A C58 1_555 1_555
H73A C67A 1_555 1_555
C68A N2 1_555 1_555
H74A C61A 1_555 1_555
N1A N2 1_555 1_555
C69A C56 1_555 1_555
C70A N2 1_555 1_555
H75A C60A 1_555 1_555
C71A H65A 1_555 1_555
H76A C71A 1_555 1_555
H77A C71A 1_555 1_555
H78A C71A 1_555 1_555
H79A C57 1_555 1_555
N2A C60 1_555 1_555
C7 C8 1_555 1_555
C16 C19 1_555 1_555
C27 C30 1_555 1_555
C38 C41 1_555 1_555
C48 C53 1_555 1_555
C49 C52 1_555 1_555
C57 C69A 1_555 1_555
C58 C66A 1_555 1_555
C59 C62A 1_555 1_555
C59 C63A 1_555 1_555
C59 C66A 1_555 1_555
H63 C63A 1_555 1_555
H65 N1 1_555 1_555
C61 N1 1_555 1_555
C61 N2A 1_555 1_555
H68 N1 1_555 1_555
H69 C63 1_555 1_555
H69 C68 1_555 1_555
C62 N2A 1_555 1_555
C63 C68 1_555 1_555
C63 C59A 1_555 1_555
C63 N2A 1_555 1_555
H70 C59A 1_555 1_555
C64 C65 1_555 1_555
C64 C66A 1_555 1_555
C64 C67A 1_555 1_555
C65 C66A 1_555 1_555
C66 C67 1_555 1_555
C66 C56A 1_555 1_555
C66 C59A 1_555 1_555
C66 C64A 1_555 1_555
C67 C58A 1_555 1_555
C67 C64A 1_555 1_555
C68 H74 1_555 1_555
C68 N1 1_555 1_555
C68 N2A 1_555 1_555
N1 C70 1_555 1_555
N1 C71 1_555 1_555
N1 N2A 1_555 1_555
C69 C70 1_555 1_555
C69 C56A 1_555 1_555
C69 C57A 1_555 1_555
C69 N2A 1_555 1_555
C70 H75 1_555 1_555
C70 N2A 1_555 1_555
H79 C57A 1_555 1_555
N2 C62A 1_555 1_555
N2 C63A 1_555 1_555
N2 C69A 1_555 1_555
C56A C57A 1_555 1_555
C56A C59A 1_555 1_555
C56A N2A 1_555 1_555
C57A H61A 1_555 1_555
C57A C58A 1_555 1_555
C58A C64A 1_555 1_555
C59A H63A 1_555 1_555
C59A C65A 1_555 1_555
C60A N1A 1_555 1_555
H64A C70A 1_555 1_555
H65A N1A 1_555 1_555
H66A C70A 1_555 1_555
C61A C63A 1_555 1_555
C61A N1A 1_555 1_555
H67A C68A 1_555 1_555
H68A C68A 1_555 1_555
H68A N1A 1_555 1_555
H69A C63A 1_555 1_555
H69A C68A 1_555 1_555
C62A C63A 1_555 1_555
C62A C66A 1_555 1_555
C62A C69A 1_555 1_555
C63A H70A 1_555 1_555
C63A C68A 1_555 1_555
C64A C65A 1_555 1_555
C64A C67A 1_555 1_555
C66A C67A 1_555 1_555
C68A H74A 1_555 1_555
C68A N1A 1_555 1_555
N1A C70A 1_555 1_555
N1A C71A 1_555 1_555
C69A C70A 1_555 1_555
C69A H79A 1_555 1_555
C70A H75A 1_555 1_555

#END
