
#######################################################################
#
#                 Cambridge Crystallographic Data Centre
#                                CCDC 
#
#######################################################################
#
# If this CIF has been generated from an entry in the Cambridge 
# Structural Database, then it will include bibliographic, chemical, 
# crystal, experimental, refinement or atomic coordinate data resulting 
# from the CCDC's data processing and validation procedures.
#
#######################################################################

data_VITKIU
_chemical_formula_moiety         'C9 H14 N1 1+,H4 B5 O10 1-'
_chemical_name_systematic        
"1-n-Butylpyridinium 1,1'-spiro-bis(3,5-dihydroxy-2,4,6-trioxa-1,3,5-triboracyclohexane)"
_symmetry_cell_setting           triclinic
_symmetry_space_group_name_H-M   'P -1'
_symmetry_Int_Tables_number      2
_space_group_name_Hall           '-P 1'
loop_
_symmetry_equiv_pos_site_id
_symmetry_equiv_pos_as_xyz
1 x,y,z
2 -x,-y,-z
_cell_length_a                   9.2635(19)
_cell_length_b                   9.7473(19)
_cell_length_c                   9.806(2)
_cell_angle_alpha                73.12(3)
_cell_angle_beta                 83.82(3)
_cell_angle_gamma                69.59(3)
_cell_volume                     794.064
_cell_formula_units_Z            2
loop_
_atom_site_label
_atom_site_type_symbol
_atom_site_fract_x
_atom_site_fract_y
_atom_site_fract_z
B1 B 0.2157(7) 0.8771(7) 0.9481(7)
B2 B 0.3771(6) 0.6968(6) 0.8302(6)
B3 B 0.1003(6) 0.7704(6) 0.8042(6)
B4 B -0.1207(6) 0.6768(6) 0.8409(6)
B5 B -0.1190(7) 0.8790(6) 0.6355(6)
O1 O 0.2058(5) 0.9708(6) 1.0288(5)
H1 H 0.1150 1.0140 1.0446
O2 O 0.5225(4) 0.6104(5) 0.8004(5)
H2 H 0.5855 0.6217 0.8450
O3 O -0.2009(4) 0.5834(4) 0.9184(4)
H3 H -0.1438 0.5126 0.9776
O4 O -0.1935(5) 0.9754(5) 0.5168(4)
H4 H -0.1363 1.0178 0.4665
O5 O 0.3612(4) 0.7916(5) 0.9165(4)
O6 O 0.0908(4) 0.8672(4) 0.8983(4)
O7 O 0.2578(4) 0.6878(4) 0.7757(4)
O8 O 0.0198(4) 0.6605(4) 0.8768(4)
O9 O -0.1973(4) 0.7879(4) 0.7257(4)
O10 O 0.0227(4) 0.8682(4) 0.6699(3)
C1 C -0.002(2) 0.7246(15) 0.2615(15)
H5 H -0.0181 0.7999 0.1711
H6 H -0.0823 0.7594 0.3268
H7 H -0.0049 0.6312 0.2495
C2 C 0.1497(19) 0.6987(16) 0.3190(15)
H8 H 0.1456 0.7870 0.3481
H9 H 0.2274 0.6860 0.2448
C3 C 0.1941(16) 0.560(2) 0.4448(14)
H10 H 0.1257 0.5820 0.5235
H11 H 0.1749 0.4781 0.4199
C4 C 0.3356(18) 0.5083(15) 0.4904(15)
H12 H 0.3516 0.5815 0.5311
H13 H 0.4059 0.4984 0.4103
C5 C 0.4095(17) 0.2323(12) 0.5581(11)
H14 H 0.3965 0.2358 0.4643
C6 C 0.4692(10) 0.0952(10) 0.6617(10)
H15 H 0.4988 0.0035 0.6379
C7 C 0.4829(11) 0.0962(11) 0.7886(10)
H16 H 0.5294 0.0051 0.8561
C8 C 0.4301(10) 0.2301(13) 0.8283(10)
H17 H 0.4394 0.2280 0.9225
C9 C 0.3686(13) 0.3571(10) 0.7368(9)
H18 H 0.3228 0.4465 0.7642
N1 N 0.3724(12) 0.3565(8) 0.6009(8)
loop_
_geom_bond_atom_site_label_1
_geom_bond_atom_site_label_2
_geom_bond_site_symmetry_1
_geom_bond_site_symmetry_2
B1 O1 1_555 1_555
B2 O2 1_555 1_555
B3 O6 1_555 1_555
B4 O3 1_555 1_555
B5 O4 1_555 1_555
O1 H1 1_555 1_555
O2 H2 1_555 1_555
O3 H3 1_555 1_555
O4 H4 1_555 1_555
O5 B1 1_555 1_555
O6 B1 1_555 1_555
O7 B2 1_555 1_555
O8 B3 1_555 1_555
O9 B4 1_555 1_555
O10 B3 1_555 1_555
C1 H5 1_555 1_555
H6 C1 1_555 1_555
H7 C1 1_555 1_555
C2 C1 1_555 1_555
H8 C2 1_555 1_555
H9 C2 1_555 1_555
C3 C2 1_555 1_555
H10 C3 1_555 1_555
H11 C3 1_555 1_555
C4 C3 1_555 1_555
H12 C4 1_555 1_555
H13 C4 1_555 1_555
C5 H14 1_555 1_555
C6 C5 1_555 1_555
H15 C6 1_555 1_555
C7 C6 1_555 1_555
H16 C7 1_555 1_555
C8 C7 1_555 1_555
H17 C8 1_555 1_555
C9 C8 1_555 1_555
H18 C9 1_555 1_555
N1 C4 1_555 1_555
B2 O5 1_555 1_555
B3 O7 1_555 1_555
B4 O8 1_555 1_555
B5 O9 1_555 1_555
B5 O10 1_555 1_555
C5 N1 1_555 1_555
C9 N1 1_555 1_555

#END
