
#######################################################################
#
#                 Cambridge Crystallographic Data Centre
#                                CCDC 
#
#######################################################################
#
# If this CIF has been generated from an entry in the Cambridge 
# Structural Database, then it will include bibliographic, chemical, 
# crystal, experimental, refinement or atomic coordinate data resulting 
# from the CCDC's data processing and validation procedures.
#
#######################################################################

data_VITMAN
_chemical_formula_moiety         'C60 H66 Li6 O6'
_chemical_name_systematic        
hexakis(\m~3~-2-Methyl-1-phenylpropen-1-olato-O,O,O)-hexa-lithium
_symmetry_cell_setting           monoclinic
_symmetry_space_group_name_H-M   'C 2/c'
_symmetry_Int_Tables_number      15
_space_group_name_Hall           '-C 2yn'
loop_
_symmetry_equiv_pos_site_id
_symmetry_equiv_pos_as_xyz
1 x,y,z
2 1/2+x,1/2+y,z
3 -x,y,1/2-z
4 1/2-x,1/2+y,1/2-z
5 -x,-y,-z
6 1/2-x,1/2-y,-z
7 x,-y,1/2+z
8 1/2+x,1/2-y,1/2+z
_cell_length_a                   17.6011(11)
_cell_length_b                   14.7389(9)
_cell_length_c                   21.0943(13)
_cell_angle_alpha                90
_cell_angle_beta                 105.2510(10)
_cell_angle_gamma                90
_cell_volume                     5279.58
_exptl_crystal_colour            colorless
_exptl_crystal_description       block
_cell_formula_units_Z            4
loop_
_atom_site_label
_atom_site_type_symbol
_atom_site_fract_x
_atom_site_fract_y
_atom_site_fract_z
C1 C 0.75668(7) -0.02745(8) 0.89799(6)
C2 C 0.76463(8) 0.06229(9) 0.87987(6)
H1 H 0.7970 0.1027 0.9105
C3 C 0.72568(8) 0.09354(9) 0.81750(7)
H2 H 0.7309 0.1552 0.8061
C4 C 0.67956(8) 0.03520(10) 0.77214(6)
H3 H 0.6533 0.0564 0.7295
C5 C 0.67174(8) -0.05429(10) 0.78911(6)
H4 H 0.6401 -0.0946 0.7580
C6 C 0.70992(8) -0.08542(9) 0.85148(6)
H5 H 0.7041 -0.1470 0.8626
C7 C 0.79918(7) -0.06011(8) 0.96527(6)
C8 C 0.76144(7) -0.09676(10) 1.00661(6)
C9 C 0.67328(8) -0.10095(12) 0.99256(7)
H6 H 0.6495 -0.0664 0.9526
H7 H 0.6568 -0.0749 1.0296
H8 H 0.6560 -0.1643 0.9863
C10 C 0.80506(9) -0.13067(12) 1.07378(7)
H9 H 0.8009 -0.0859 1.1070
H10 H 0.8606 -0.1399 1.0753
H11 H 0.7820 -0.1883 1.0827
C11 C 1.16726(8) -0.13790(10) 0.92983(6)
H12 H 1.1600 -0.1304 0.9726
C12 C 1.24123(8) -0.12387(11) 0.92013(7)
H13 H 1.2841 -0.1074 0.9561
C13 C 1.25278(8) -0.13383(10) 0.85796(7)
H14 H 1.3035 -0.1247 0.8512
C14 C 1.18975(8) -0.15713(8) 0.80595(6)
H15 H 1.1972 -0.1634 0.7632
C15 C 1.11565(7) -0.17149(8) 0.81562(6)
H16 H 1.0729 -0.1874 0.7794
C16 C 1.10314(7) -0.16287(8) 0.87811(6)
C17 C 1.02388(7) -0.17381(8) 0.89054(5)
C18 C 0.97693(7) -0.24616(8) 0.87043(6)
C19 C 1.00210(9) -0.33004(8) 0.84073(6)
H17 H 1.0580 -0.3252 0.8419
H18 H 0.9939 -0.3834 0.8658
H19 H 0.9708 -0.3361 0.7951
C20 C 0.89596(8) -0.25137(9) 0.88130(7)
H20 H 0.8784 -0.1903 0.8892
H21 H 0.8593 -0.2773 0.8423
H22 H 0.8974 -0.2899 0.9195
C21 C 0.96087(6) 0.24744(8) 0.88611(5)
C22 C 0.98490(7) 0.31552(8) 0.84954(6)
H23 H 0.9992 0.2999 0.8105
C23 C 0.98822(7) 0.40571(8) 0.86930(6)
H24 H 1.0036 0.4512 0.8433
C24 C 0.96906(7) 0.42949(8) 0.92693(6)
H25 H 0.9704 0.4912 0.9401
C25 C 0.94797(7) 0.36241(8) 0.96507(6)
H26 H 0.9364 0.3780 1.0052
C26 C 0.94369(7) 0.27245(8) 0.94483(5)
H27 H 0.9289 0.2271 0.9713
C27 C 0.95482(7) 0.15021(8) 0.86512(5)
C28 C 0.91917(7) 0.12370(8) 0.80323(6)
C29 C 0.87507(8) 0.18559(9) 0.74911(6)
H28 H 0.8679 0.2450 0.7676
H29 H 0.8235 0.1592 0.7281
H30 H 0.9052 0.1928 0.7164
C30 C 0.91459(9) 0.02509(9) 0.78418(6)
H31 H 0.9165(10) 0.0189(12) 0.7387(9)
H32 H 0.8633(11) -0.0020(12) 0.7856(9)
H33 H 0.9564(11) -0.0129(12) 0.8111(9)
Li1 Li 0.92068(12) -0.01370(14) 0.90929(10)
Li2 Li 0.96477(12) -0.13188(14) 0.99885(10)
Li3 Li 0.93040(12) -0.00183(14) 1.06427(10)
O1 O 0.87834(5) -0.04768(6) 0.98001(4)
O2 O 1.00416(5) -0.10398(5) 0.92515(4)
O3 O 0.98563(5) 0.09117(5) 0.91444(4)
C1D C 1.24332(7) 0.02745(8) 1.10201(6)
C2D C 1.23537(8) -0.06229(9) 1.12013(6)
H1D H 1.2030 -0.1027 1.0895
C3D C 1.27432(8) -0.09354(9) 1.18250(7)
H2D H 1.2691 -0.1552 1.1939
C4D C 1.32044(8) -0.03520(10) 1.22786(6)
H3D H 1.3467 -0.0564 1.2705
C5D C 1.32826(8) 0.05429(10) 1.21089(6)
H4D H 1.3599 0.0946 1.2420
C6D C 1.29008(8) 0.08542(9) 1.14852(6)
H5D H 1.2959 0.1470 1.1374
C7D C 1.20082(7) 0.06011(8) 1.03473(6)
C8D C 1.23856(7) 0.09676(10) 0.99339(6)
C9D C 1.32672(8) 0.10095(12) 1.00744(7)
H6D H 1.3505 0.0664 1.0474
H7D H 1.3432 0.0749 0.9704
H8D H 1.3440 0.1643 1.0137
C10D C 1.19494(9) 0.13067(12) 0.92622(7)
H9D H 1.1991 0.0859 0.8930
H10D H 1.1394 0.1399 0.9247
H11D H 1.2180 0.1883 0.9173
C11D C 0.83274(8) 0.13790(10) 1.07017(6)
H12D H 0.8400 0.1304 1.0274
C12D C 0.75877(8) 0.12387(11) 1.07987(7)
H13D H 0.7159 0.1074 1.0439
C13D C 0.74722(8) 0.13383(10) 1.14204(7)
H14D H 0.6965 0.1247 1.1488
C14D C 0.81025(8) 0.15713(8) 1.19405(6)
H15D H 0.8028 0.1634 1.2368
C15D C 0.88435(7) 0.17149(8) 1.18438(6)
H16D H 0.9271 0.1874 1.2206
C16D C 0.89686(7) 0.16287(8) 1.12189(6)
C17D C 0.97612(7) 0.17381(8) 1.10946(5)
C18D C 1.02307(7) 0.24616(8) 1.12957(6)
C19D C 0.99790(9) 0.33004(8) 1.15927(6)
H17D H 0.9420 0.3252 1.1581
H18D H 1.0061 0.3834 1.1342
H19D H 1.0292 0.3361 1.2049
C20D C 1.10404(8) 0.25137(9) 1.11870(7)
H20D H 1.1216 0.1903 1.1108
H21D H 1.1407 0.2773 1.1577
H22D H 1.1026 0.2899 1.0805
C21D C 1.03913(6) -0.24744(8) 1.11389(5)
C22D C 1.01510(7) -0.31552(8) 1.15046(6)
H23D H 1.0008 -0.2999 1.1895
C23D C 1.01178(7) -0.40571(8) 1.13070(6)
H24D H 0.9964 -0.4512 1.1567
C24D C 1.03094(7) -0.42949(8) 1.07307(6)
H25D H 1.0296 -0.4912 1.0599
C25D C 1.05203(7) -0.36241(8) 1.03493(6)
H26D H 1.0636 -0.3780 0.9948
C26D C 1.05631(7) -0.27245(8) 1.05517(5)
H27D H 1.0711 -0.2271 1.0287
C27D C 1.04518(7) -0.15021(8) 1.13488(5)
C28D C 1.08083(7) -0.12370(8) 1.19677(6)
C29D C 1.12493(8) -0.18559(9) 1.25089(6)
H28D H 1.1321 -0.2450 1.2324
H29D H 1.1765 -0.1592 1.2719
H30D H 1.0948 -0.1928 1.2836
C30D C 1.08541(9) -0.02509(9) 1.21582(6)
H31D H 1.0835(10) -0.0189(12) 1.2613(9)
H32D H 1.1367(11) 0.0020(12) 1.2144(9)
H33D H 1.0436(11) 0.0129(12) 1.1889(9)
Li1D Li 1.07932(12) 0.01370(14) 1.09071(10)
Li2D Li 1.03523(12) 0.13188(14) 1.00115(10)
Li3D Li 1.06960(12) 0.00183(14) 0.93573(10)
O1D O 1.12166(5) 0.04768(6) 1.01999(4)
O2D O 0.99584(5) 0.10398(5) 1.07485(4)
O3D O 1.01437(5) -0.09117(5) 1.08556(4)
loop_
_geom_bond_atom_site_label_1
_geom_bond_atom_site_label_2
_geom_bond_site_symmetry_1
_geom_bond_site_symmetry_2
C1 C2 1_555 1_555
C2 H1 1_555 1_555
C3 C2 1_555 1_555
H2 C3 1_555 1_555
C4 C3 1_555 1_555
H3 C4 1_555 1_555
C5 C4 1_555 1_555
H4 C5 1_555 1_555
C6 C1 1_555 1_555
H5 C6 1_555 1_555
C7 C1 1_555 1_555
C8 C7 1_555 1_555
C9 C8 1_555 1_555
H6 C9 1_555 1_555
H7 C9 1_555 1_555
H8 C9 1_555 1_555
C10 C8 1_555 1_555
H9 C10 1_555 1_555
H10 C10 1_555 1_555
H11 C10 1_555 1_555
C11 H12 1_555 1_555
C12 C11 1_555 1_555
H13 C12 1_555 1_555
C13 C12 1_555 1_555
H14 C13 1_555 1_555
C14 C13 1_555 1_555
H15 C14 1_555 1_555
C15 C14 1_555 1_555
H16 C15 1_555 1_555
C16 C11 1_555 1_555
C17 C16 1_555 1_555
C18 C17 1_555 1_555
C19 C18 1_555 1_555
H17 C19 1_555 1_555
H18 C19 1_555 1_555
H19 C19 1_555 1_555
C20 C18 1_555 1_555
H20 C20 1_555 1_555
H21 C20 1_555 1_555
H22 C20 1_555 1_555
C21 C22 1_555 1_555
C22 H23 1_555 1_555
C23 C22 1_555 1_555
H24 C23 1_555 1_555
C24 C23 1_555 1_555
H25 C24 1_555 1_555
C25 C24 1_555 1_555
H26 C25 1_555 1_555
C26 C21 1_555 1_555
H27 C26 1_555 1_555
C27 C21 1_555 1_555
C28 C27 1_555 1_555
C29 C28 1_555 1_555
H28 C29 1_555 1_555
H29 C29 1_555 1_555
H30 C29 1_555 1_555
C30 C28 1_555 1_555
H31 C30 1_555 1_555
H32 C30 1_555 1_555
H33 C30 1_555 1_555
Li1 O1 1_555 1_555
Li2 O1 1_555 1_555
Li3 O1 1_555 1_555
O1 C7 1_555 1_555
O2 C17 1_555 1_555
O3 C27 1_555 1_555
C1D C2D 1_555 1_555
C2D H1D 1_555 1_555
C3D C2D 1_555 1_555
H2D C3D 1_555 1_555
C4D C3D 1_555 1_555
H3D C4D 1_555 1_555
C5D C4D 1_555 1_555
H4D C5D 1_555 1_555
C6D C1D 1_555 1_555
H5D C6D 1_555 1_555
C7D C1D 1_555 1_555
C8D C7D 1_555 1_555
C9D C8D 1_555 1_555
H6D C9D 1_555 1_555
H7D C9D 1_555 1_555
H8D C9D 1_555 1_555
C10D C8D 1_555 1_555
H9D C10D 1_555 1_555
H10D C10D 1_555 1_555
H11D C10D 1_555 1_555
C11D H12D 1_555 1_555
C12D C11D 1_555 1_555
H13D C12D 1_555 1_555
C13D C12D 1_555 1_555
H14D C13D 1_555 1_555
C14D C13D 1_555 1_555
H15D C14D 1_555 1_555
C15D C14D 1_555 1_555
H16D C15D 1_555 1_555
C16D C11D 1_555 1_555
C17D C16D 1_555 1_555
C18D C17D 1_555 1_555
C19D C18D 1_555 1_555
H17D C19D 1_555 1_555
H18D C19D 1_555 1_555
H19D C19D 1_555 1_555
C20D C18D 1_555 1_555
H20D C20D 1_555 1_555
H21D C20D 1_555 1_555
H22D C20D 1_555 1_555
C21D C22D 1_555 1_555
C22D H23D 1_555 1_555
C23D C22D 1_555 1_555
H24D C23D 1_555 1_555
C24D C23D 1_555 1_555
H25D C24D 1_555 1_555
C25D C24D 1_555 1_555
H26D C25D 1_555 1_555
C26D C21D 1_555 1_555
H27D C26D 1_555 1_555
C27D C21D 1_555 1_555
C28D C27D 1_555 1_555
C29D C28D 1_555 1_555
H28D C29D 1_555 1_555
H29D C29D 1_555 1_555
H30D C29D 1_555 1_555
C30D C28D 1_555 1_555
H31D C30D 1_555 1_555
H32D C30D 1_555 1_555
H33D C30D 1_555 1_555
Li1D O1D 1_555 1_555
Li2D O3 1_555 1_555
Li3D O2 1_555 1_555
O1D C7D 1_555 1_555
O2D Li3 1_555 1_555
O3D Li2 1_555 1_555
C5 C6 1_555 1_555
C15 C16 1_555 1_555
C25 C26 1_555 1_555
Li1 O2 1_555 1_555
Li1 O3 1_555 1_555
Li2 O2 1_555 1_555
Li3 O3D 1_555 1_555
O3 Li3D 1_555 1_555
C5D C6D 1_555 1_555
C15D C16D 1_555 1_555
C17D O2D 1_555 1_555
C25D C26D 1_555 1_555
C27D O3D 1_555 1_555
Li1D O2D 1_555 1_555
Li1D O3D 1_555 1_555
Li2D O1D 1_555 1_555
Li2D O2D 1_555 1_555
Li3D O1D 1_555 1_555

#END
