
#######################################################################
#
#                 Cambridge Crystallographic Data Centre
#                                CCDC 
#
#######################################################################
#
# If this CIF has been generated from an entry in the Cambridge 
# Structural Database, then it will include bibliographic, chemical, 
# crystal, experimental, refinement or atomic coordinate data resulting 
# from the CCDC's data processing and validation procedures.
#
#######################################################################

data_VITMUH
_chemical_formula_moiety         'C8 H7 I1 N2 O3'
_chemical_name_systematic        '(Z)-O-Methyl-4-nitrobenzohydroximoyl iodide'
_symmetry_cell_setting           orthorhombic
_symmetry_space_group_name_H-M   'P n m a'
_symmetry_Int_Tables_number      62
_space_group_name_Hall           '-P 2ac 2n'
loop_
_symmetry_equiv_pos_site_id
_symmetry_equiv_pos_as_xyz
1 x,y,z
2 1/2-x,-y,1/2+z
3 1/2+x,1/2-y,1/2-z
4 -x,1/2+y,-z
5 -x,-y,-z
6 1/2+x,y,1/2-z
7 1/2-x,1/2+y,1/2+z
8 x,1/2-y,z
_cell_length_a                   12.682(2)
_cell_length_b                   6.5217(15)
_cell_length_c                   11.755(2)
_cell_angle_alpha                90
_cell_angle_beta                 90
_cell_angle_gamma                90
_cell_volume                     972.235
_exptl_crystal_colour            colorless
_exptl_crystal_description       'needle fragment'
_chemical_melting_point          94.2-95.2deg.C
_cell_formula_units_Z            4
loop_
_atom_site_label
_atom_site_type_symbol
_atom_site_fract_x
_atom_site_fract_y
_atom_site_fract_z
I1 I 0.831955(13) 0.2500 0.346959(12)
O1 O 0.68139(15) 0.2500 0.15190(14)
O2 O 0.32441(15) 0.2500 0.73788(18)
O3 O 0.46527(19) 0.2500 0.84126(14)
N1 N 0.61654(18) 0.2500 0.24687(16)
N2 N 0.42086(16) 0.2500 0.74855(16)
C1 C 0.66675(18) 0.2500 0.34187(17)
C2 C 0.60479(18) 0.2500 0.44866(17)
C3 C 0.49457(19) 0.2500 0.44218(18)
H1 H 0.4610 0.2500 0.3699
C4 C 0.43404(19) 0.2500 0.54017(19)
H2 H 0.3592 0.2500 0.5360
C5 C 0.48509(19) 0.2500 0.64500(17)
C6 C 0.59366(19) 0.2500 0.65443(17)
H3 H 0.6266 0.2500 0.7270
C7 C 0.65371(18) 0.2500 0.55540(19)
H4 H 0.7285 0.2500 0.5602
C8 C 0.6152(2) 0.2500 0.0520(2)
H5 H 0.660(3) 0.2500 -0.011(4)
H6 H 0.574(2) 0.129(5) 0.049(2)
H6G H 0.574(2) 0.371(5) 0.049(2)
loop_
_geom_bond_atom_site_label_1
_geom_bond_atom_site_label_2
_geom_bond_site_symmetry_1
_geom_bond_site_symmetry_2
I1 C1 1_555 1_555
O1 N1 1_555 1_555
O2 N2 1_555 1_555
O3 N2 1_555 1_555
N1 C1 1_555 1_555
N2 C5 1_555 1_555
C1 C2 1_555 1_555
C2 C3 1_555 1_555
C3 H1 1_555 1_555
C4 C3 1_555 1_555
H2 C4 1_555 1_555
C5 C4 1_555 1_555
C6 C5 1_555 1_555
H3 C6 1_555 1_555
C7 C2 1_555 1_555
H4 C7 1_555 1_555
C8 O1 1_555 1_555
H5 C8 1_555 1_555
H6 C8 1_555 1_555
H6G C8 1_555 1_555
C6 C7 1_555 1_555

#END
