
#######################################################################
#
#                 Cambridge Crystallographic Data Centre
#                                CCDC 
#
#######################################################################
#
# If this CIF has been generated from an entry in the Cambridge 
# Structural Database, then it will include bibliographic, chemical, 
# crystal, experimental, refinement or atomic coordinate data resulting 
# from the CCDC's data processing and validation procedures.
#
#######################################################################

data_VITNES
_chemical_formula_moiety         'C9 H10 N2 O3 S1'
_chemical_name_systematic        
'Methyl (Z)-O-methyl-4-nitrobenzothiohydroximate'
_symmetry_cell_setting           monoclinic
_symmetry_space_group_name_H-M   'P 21/n'
_symmetry_Int_Tables_number      14
_space_group_name_Hall           '-P 2yn'
loop_
_symmetry_equiv_pos_site_id
_symmetry_equiv_pos_as_xyz
1 x,y,z
2 1/2-x,1/2+y,1/2-z
3 -x,-y,-z
4 1/2+x,1/2-y,1/2+z
_cell_length_a                   11.8046(15)
_cell_length_b                   7.0774(10)
_cell_length_c                   12.2741(15)
_cell_angle_alpha                90
_cell_angle_beta                 100.401(9)
_cell_angle_gamma                90
_cell_volume                     1008.6
_exptl_crystal_colour            colorless
_chemical_melting_point          113-114deg.C
_cell_formula_units_Z            4
loop_
_atom_site_label
_atom_site_type_symbol
_atom_site_fract_x
_atom_site_fract_y
_atom_site_fract_z
S1 S 0.00287(2) 0.39388(4) 0.33985(3)
O1 O -0.11714(7) 0.72243(13) 0.29346(7)
O2 O 0.57369(8) 0.83890(14) 0.57696(8)
O3 O 0.60963(8) 0.70405(15) 0.42805(8)
N1 N 0.00025(8) 0.77135(15) 0.32625(8)
N2 N 0.54307(9) 0.75654(15) 0.48831(9)
C1 C 0.06192(10) 0.62218(16) 0.35019(9)
C2 C 0.18765(9) 0.65281(16) 0.38558(10)
C3 C 0.22692(10) 0.75662(18) 0.48145(10)
H1 H 0.1732 0.8045 0.5236
C4 C 0.34359(10) 0.79076(17) 0.51604(10)
H2 H 0.3708 0.8615 0.5813
C5 C 0.41914(9) 0.71841(16) 0.45242(10)
C6 C 0.38364(10) 0.61288(17) 0.35704(10)
H3 H 0.4379 0.5650 0.3155
C7 C 0.26625(10) 0.57921(17) 0.32407(10)
H4 H 0.2395 0.5061 0.2597
C8 C -0.18322(11) 0.89297(19) 0.27558(11)
H5 H -0.1728 0.9661 0.3444
H6 H -0.2649 0.8616 0.2524
H7 H -0.1572 0.9679 0.2176
C9 C 0.11504(10) 0.25354(18) 0.42181(11)
H8 H 0.1836 0.2544 0.3871
H9 H 0.0879 0.1234 0.4262
H10 H 0.1344 0.3068 0.4966
loop_
_geom_bond_atom_site_label_1
_geom_bond_atom_site_label_2
_geom_bond_site_symmetry_1
_geom_bond_site_symmetry_2
S1 C1 1_555 1_555
O1 N1 1_555 1_555
O2 N2 1_555 1_555
O3 N2 1_555 1_555
N1 C1 1_555 1_555
N2 C5 1_555 1_555
C1 C2 1_555 1_555
C2 C3 1_555 1_555
C3 H1 1_555 1_555
C4 C3 1_555 1_555
H2 C4 1_555 1_555
C5 C4 1_555 1_555
C6 C5 1_555 1_555
H3 C6 1_555 1_555
C7 C2 1_555 1_555
H4 C7 1_555 1_555
C8 O1 1_555 1_555
H5 C8 1_555 1_555
H6 C8 1_555 1_555
H7 C8 1_555 1_555
C9 S1 1_555 1_555
H8 C9 1_555 1_555
H9 C9 1_555 1_555
H10 C9 1_555 1_555
C6 C7 1_555 1_555

#END
