
#######################################################################
#
#                 Cambridge Crystallographic Data Centre
#                                CCDC 
#
#######################################################################
#
# If this CIF has been generated from an entry in the Cambridge 
# Structural Database, then it will include bibliographic, chemical, 
# crystal, experimental, refinement or atomic coordinate data resulting 
# from the CCDC's data processing and validation procedures.
#
#######################################################################

data_VITNAO
_chemical_formula_moiety         'C8 H7 F1 N2 O3'
_chemical_name_systematic        '(Z)-O-Methyl-4-nitrobenzohydroximoyl fluoride'
_symmetry_cell_setting           monoclinic
_symmetry_space_group_name_H-M   'P 21/c'
_symmetry_Int_Tables_number      14
_space_group_name_Hall           '-P 2ybc'
loop_
_symmetry_equiv_pos_site_id
_symmetry_equiv_pos_as_xyz
1 x,y,z
2 -x,1/2+y,1/2-z
3 -x,-y,-z
4 x,1/2-y,1/2+z
_cell_length_a                   3.8475(10)
_cell_length_b                   22.501(5)
_cell_length_c                   10.088(2)
_cell_angle_alpha                90
_cell_angle_beta                 91.130(11)
_cell_angle_gamma                90
_cell_volume                     873.175
_exptl_crystal_colour            colorless
_exptl_crystal_description       'needle fragment'
_cell_formula_units_Z            4
loop_
_atom_site_label
_atom_site_type_symbol
_atom_site_fract_x
_atom_site_fract_y
_atom_site_fract_z
F1 F 0.2841(2) 0.75737(4) 0.42169(9)
O1 O 0.4280(3) 0.85604(4) 0.52647(10)
O2 O 1.1156(3) 0.53010(5) 0.81942(12)
O3 O 0.8552(3) 0.48790(5) 0.65306(12)
N1 N 0.5689(3) 0.80635(5) 0.59023(13)
N2 N 0.9383(3) 0.53200(5) 0.71737(13)
C1 C 0.4856(4) 0.75835(6) 0.53230(14)
C2 C 0.6045(3) 0.69965(6) 0.57830(14)
C3 C 0.7832(4) 0.69503(6) 0.69998(14)
H1 H 0.8290 0.7297 0.7510
C4 C 0.8936(4) 0.64022(6) 0.74641(14)
H2 H 1.0152 0.6366 0.8289
C5 C 0.8213(4) 0.59072(6) 0.66890(14)
C6 C 0.6494(4) 0.59391(6) 0.54725(15)
H3 H 0.6070 0.5591 0.4962
C7 C 0.5407(4) 0.64902(7) 0.50161(15)
H4 H 0.4229 0.6524 0.4183
C8 C 0.5626(4) 0.90846(7) 0.59082(17)
H5 H 0.5009 0.9079 0.6846
H6 H 0.4625 0.9438 0.5482
H7 H 0.8162 0.9094 0.5835
loop_
_geom_bond_atom_site_label_1
_geom_bond_atom_site_label_2
_geom_bond_site_symmetry_1
_geom_bond_site_symmetry_2
F1 C1 1_555 1_555
O1 N1 1_555 1_555
O2 N2 1_555 1_555
O3 N2 1_555 1_555
N1 C1 1_555 1_555
N2 C5 1_555 1_555
C1 C2 1_555 1_555
C2 C3 1_555 1_555
C3 H1 1_555 1_555
C4 C3 1_555 1_555
H2 C4 1_555 1_555
C5 C4 1_555 1_555
C6 C5 1_555 1_555
H3 C6 1_555 1_555
C7 C2 1_555 1_555
H4 C7 1_555 1_555
C8 O1 1_555 1_555
H5 C8 1_555 1_555
H6 C8 1_555 1_555
H7 C8 1_555 1_555
C6 C7 1_555 1_555

#END
