
#######################################################################
#
#                 Cambridge Crystallographic Data Centre
#                                CCDC 
#
#######################################################################
#
# If this CIF has been generated from an entry in the Cambridge 
# Structural Database, then it will include bibliographic, chemical, 
# crystal, experimental, refinement or atomic coordinate data resulting 
# from the CCDC's data processing and validation procedures.
#
#######################################################################

data_VITSOG
_chemical_formula_moiety         'C28 H31 O5 P1,C1 H1 Cl3'
_chemical_name_systematic        
'1,7-bis(Hydroxymethyl)-4-oxo-4-(triphenylmethyl)-3,5-dioxa-4\l^5^-phosphabicyclo(5.3.0)decane chloroform solvate'
_symmetry_cell_setting           monoclinic
_symmetry_space_group_name_H-M   'P 21/c'
_symmetry_Int_Tables_number      14
_space_group_name_Hall           '-P 2ybc'
loop_
_symmetry_equiv_pos_site_id
_symmetry_equiv_pos_as_xyz
1 x,y,z
2 -x,1/2+y,1/2-z
3 -x,-y,-z
4 x,1/2-y,1/2+z
_cell_length_a                   15.638(2)
_cell_length_b                   11.119(3)
_cell_length_c                   17.404(3)
_cell_angle_alpha                90
_cell_angle_beta                 106.06(1)
_cell_angle_gamma                90
_cell_volume                     2908.08
_exptl_crystal_colour            white
_cell_formula_units_Z            4
loop_
_atom_site_label
_atom_site_type_symbol
_atom_site_fract_x
_atom_site_fract_y
_atom_site_fract_z
P1 P 0.28793(7) 0.11323(9) 0.45653(6)
O1 O 0.3489(2) 0.1582(2) 0.5301(2)
O2 O 0.3198(2) -0.0044(2) 0.4223(1)
O3 O 0.2770(2) 0.2091(2) 0.3884(2)
O4 O 0.5389(2) -0.0911(3) 0.3293(2)
O5 O 0.3917(2) 0.3787(3) 0.2983(2)
C1 C 0.1766(2) 0.0739(3) 0.4677(2)
C2 C 0.4089(2) 0.0010(4) 0.4099(2)
C3 C 0.2762(3) 0.1833(4) 0.3057(2)
C4 C 0.5070(3) 0.0294(4) 0.3252(2)
C5 C 0.4293(3) 0.2675(4) 0.3316(3)
C6 C 0.4079(2) 0.0357(3) 0.3254(2)
C7 C 0.3683(2) 0.1612(3) 0.2951(2)
C8 C 0.3529(3) 0.1509(4) 0.2029(2)
C9 C 0.3415(4) 0.0175(4) 0.1828(3)
C10 C 0.3532(3) -0.0501(4) 0.2614(2)
C11 C 0.1106(3) 0.0480(4) 0.3847(2)
C12 C 0.0292(3) 0.1076(4) 0.3598(3)
C13 C -0.0319(3) 0.0781(5) 0.2878(3)
C14 C -0.0138(4) -0.0110(5) 0.2403(3)
C15 C 0.0666(4) -0.0707(5) 0.2644(3)
C16 C 0.1279(3) -0.0422(4) 0.3358(2)
C17 C 0.1869(3) -0.0384(4) 0.5217(2)
C18 C 0.2510(3) -0.0404(5) 0.5950(3)
C19 C 0.2591(3) -0.1390(7) 0.6455(4)
C20 C 0.2029(4) -0.2363(6) 0.6234(4)
C21 C 0.1391(4) -0.2335(5) 0.5528(4)
C22 C 0.1297(3) -0.1344(4) 0.5018(3)
C23 C 0.1456(2) 0.1839(4) 0.5084(2)
C24 C 0.1502(3) 0.2997(4) 0.4797(3)
C25 C 0.1223(3) 0.3976(5) 0.5153(3)
C26 C 0.0884(3) 0.3817(6) 0.5796(3)
C27 C 0.0830(3) 0.2671(6) 0.6084(3)
C28 C 0.1121(3) 0.1692(6) 0.5740(2)
H1 H 0.583(4) -0.117(5) 0.389(4)
H2 H 0.405(4) 0.394(5) 0.253(3)
H3 H 0.4479(2) 0.0666(4) 0.4506(2)
H4 H 0.4395(2) -0.0865(4) 0.4228(2)
H5 H 0.2361(3) 0.1041(4) 0.2862(2)
H6 H 0.2467(3) 0.2589(4) 0.2689(2)
H7 H 0.5466(3) 0.0786(4) 0.3762(2)
H8 H 0.5137(3) 0.0702(4) 0.2709(2)
H9 H 0.4930(3) 0.2558(4) 0.3197(3)
H10 H 0.4383(3) 0.2691(4) 0.3954(3)
H11 H 0.4095(3) 0.1864(4) 0.1862(2)
H12 H 0.2938(3) 0.1998(4) 0.1719(2)
H13 H 0.2760(4) 0.0009(4) 0.1434(3)
H14 H 0.3912(4) -0.0114(4) 0.1542(3)
H15 H 0.2894(3) -0.0686(4) 0.2716(2)
H16 H 0.3885(3) -0.1336(4) 0.2611(2)
H17 H 0.0117(3) 0.1793(4) 0.3961(2)
H18 H -0.0970(3) 0.1264(4) 0.2677(2)
H19 H -0.0618(3) -0.0344(4) 0.1828(2)
H20 H 0.0820(3) -0.1422(4) 0.2264(2)
H21 H 0.1907(3) -0.0892(4) 0.3548(2)
H22 H 0.2977(3) 0.0366(4) 0.6146(3)
H23 H 0.3122(3) -0.1399(4) 0.7040(3)
H24 H 0.2099(3) -0.3128(4) 0.6640(3)
H25 H 0.0932(3) -0.3093(4) 0.5347(3)
H26 H 0.0787(3) -0.1328(4) 0.4454(3)
H27 H 0.1774(3) 0.3158(4) 0.4288(2)
H28 H 0.1259(3) 0.4901(4) 0.4924(2)
H29 H 0.0656(3) 0.4591(4) 0.6082(2)
H30 H 0.0567(3) 0.2538(4) 0.6604(2)
H31 H 0.1082(3) 0.0795(4) 0.5968(2)
C29 C 0.6475(4) 0.4256(5) 0.5937(3)
Cl1 Cl 0.5415(8) 0.3393(9) 0.5822(7)
Cl2 Cl 0.633(1) 0.477(1) 0.5032(7)
Cl3 Cl 0.734(1) 0.332(2) 0.602(1)
Cl4? Cl 0.7548(7) 0.418(1) 0.6396(9)
Cl5? Cl 0.6445(8) 0.356(1) 0.4942(5)
Cl6? Cl 0.5751(6) 0.3343(7) 0.6249(4)
Cl7? Cl 0.570(2) 0.344(2) 0.592(2)
Cl8? Cl 0.740(1) 0.335(2) 0.6362(9)
Cl9? Cl 0.641(1) 0.5254(9) 0.5213(9)
loop_
_geom_bond_atom_site_label_1
_geom_bond_atom_site_label_2
_geom_bond_site_symmetry_1
_geom_bond_site_symmetry_2
P1 O1 1_555 1_555
O2 P1 1_555 1_555
O3 P1 1_555 1_555
O4 C4 1_555 1_555
O5 C5 1_555 1_555
C1 P1 1_555 1_555
C2 O2 1_555 1_555
C3 O3 1_555 1_555
C4 C6 1_555 1_555
C5 C7 1_555 1_555
C6 C2 1_555 1_555
C7 C3 1_555 1_555
C8 C7 1_555 1_555
C9 C8 1_555 1_555
C10 C6 1_555 1_555
C11 C1 1_555 1_555
C12 C11 1_555 1_555
C13 C12 1_555 1_555
C14 C13 1_555 1_555
C15 C14 1_555 1_555
C16 C11 1_555 1_555
C17 C1 1_555 1_555
C18 C17 1_555 1_555
C19 C18 1_555 1_555
C20 C19 1_555 1_555
C21 C20 1_555 1_555
C22 C17 1_555 1_555
C23 C1 1_555 1_555
C24 C23 1_555 1_555
C25 C24 1_555 1_555
C26 C25 1_555 1_555
C27 C26 1_555 1_555
C28 C23 1_555 1_555
H1 O4 1_555 1_555
H2 O5 1_555 1_555
C29 Cl1 1_555 1_555
Cl2 C29 1_555 1_555
Cl3 C29 1_555 1_555
H3 C2 1_555 1_555
H4 C2 1_555 1_555
H5 C3 1_555 1_555
H6 C3 1_555 1_555
H7 C4 1_555 1_555
H8 C4 1_555 1_555
H9 C5 1_555 1_555
H10 C5 1_555 1_555
H11 C8 1_555 1_555
H12 C8 1_555 1_555
H13 C9 1_555 1_555
H14 C9 1_555 1_555
H15 C10 1_555 1_555
H16 C10 1_555 1_555
H17 C12 1_555 1_555
H18 C13 1_555 1_555
H19 C14 1_555 1_555
H20 C15 1_555 1_555
H21 C16 1_555 1_555
H22 C18 1_555 1_555
H23 C19 1_555 1_555
H24 C20 1_555 1_555
H25 C21 1_555 1_555
H26 C22 1_555 1_555
H27 C24 1_555 1_555
H28 C25 1_555 1_555
H29 C26 1_555 1_555
H30 C27 1_555 1_555
H31 C28 1_555 1_555
C6 C7 1_555 1_555
C9 C10 1_555 1_555
C15 C16 1_555 1_555
C21 C22 1_555 1_555
C27 C28 1_555 1_555

#END
