
#######################################################################
#
#                 Cambridge Crystallographic Data Centre
#                                CCDC 
#
#######################################################################
#
# If this CIF has been generated from an entry in the Cambridge 
# Structural Database, then it will include bibliographic, chemical, 
# crystal, experimental, refinement or atomic coordinate data resulting 
# from the CCDC's data processing and validation procedures.
#
#######################################################################

data_VITSUM
_chemical_formula_moiety         'C8 H13 O5 P1'
_chemical_name_systematic        
1-Oxo-4-(hydroxymethyl)-1\l^5^-phospha-2,9,10-trioxatricyclo(5.2.2.0^4,7^)undecane
_symmetry_cell_setting           monoclinic
_symmetry_space_group_name_H-M   'P 21/n'
_symmetry_Int_Tables_number      14
_space_group_name_Hall           '-P 2yn'
loop_
_symmetry_equiv_pos_site_id
_symmetry_equiv_pos_as_xyz
1 x,y,z
2 1/2-x,1/2+y,1/2-z
3 -x,-y,-z
4 1/2+x,1/2-y,1/2+z
_cell_length_a                   7.022(1)
_cell_length_b                   10.5157(9)
_cell_length_c                   13.122(2)
_cell_angle_alpha                90
_cell_angle_beta                 103.340(8)
_cell_angle_gamma                90
_cell_volume                     942.801
_cell_formula_units_Z            4
loop_
_atom_site_label
_atom_site_type_symbol
_atom_site_fract_x
_atom_site_fract_y
_atom_site_fract_z
P1 P 0.10854(6) 0.12860(5) 0.64068(4)
O1 O 0.2939(2) 0.0579(1) 0.6662(2)
O2 O -0.0748(2) 0.0419(1) 0.6300(1)
O3 O 0.0843(2) 0.1998(1) 0.5337(1)
O4 O 0.1019(2) 0.2293(1) 0.7281(1)
O5 O -0.1217(2) 0.5533(1) 0.6770(1)
C1 C -0.2670(2) 0.0951(2) 0.5801(2)
C2 C -0.1121(2) 0.2321(2) 0.4712(2)
C3 C -0.2505(2) 0.2317(2) 0.5450(2)
C4 C -0.0876(2) 0.2801(2) 0.7399(2)
C5 C -0.2044(2) 0.3303(2) 0.6375(2)
C6 C -0.1138(2) 0.4532(2) 0.6060(2)
C7 C -0.4290(2) 0.3476(2) 0.6225(2)
C8 C -0.4591(2) 0.2900(2) 0.5115(2)
H1 H -0.005(4) 0.552(3) 0.728(3)
H2 H -0.334(3) 0.085(2) 0.640(2)
H3 H -0.316(3) 0.045(2) 0.525(2)
H4 H -0.139(3) 0.170(2) 0.421(2)
H5 H -0.099(3) 0.313(2) 0.440(2)
H6 H -0.150(3) 0.214(2) 0.766(2)
H7 H -0.051(3) 0.348(2) 0.794(2)
H8 H -0.188(3) 0.482(2) 0.535(2)
H9 H 0.018(3) 0.437(2) 0.600(2)
H10 H -0.482(3) 0.295(2) 0.668(2)
H11 H -0.469(3) 0.440(2) 0.630(2)
H12 H -0.468(3) 0.353(2) 0.458(2)
H13 H -0.571(3) 0.233(2) 0.492(2)
loop_
_geom_bond_atom_site_label_1
_geom_bond_atom_site_label_2
_geom_bond_site_symmetry_1
_geom_bond_site_symmetry_2
P1 O1 1_555 1_555
O2 P1 1_555 1_555
O3 P1 1_555 1_555
O4 P1 1_555 1_555
O5 C6 1_555 1_555
C1 O2 1_555 1_555
C2 O3 1_555 1_555
C3 C1 1_555 1_555
C4 O4 1_555 1_555
C5 C3 1_555 1_555
C6 C5 1_555 1_555
C7 C5 1_555 1_555
C8 C3 1_555 1_555
H1 O5 1_555 1_555
H2 C1 1_555 1_555
H3 C1 1_555 1_555
H4 C2 1_555 1_555
H5 C2 1_555 1_555
H6 C4 1_555 1_555
H7 C4 1_555 1_555
H8 C6 1_555 1_555
H9 C6 1_555 1_555
H10 C7 1_555 1_555
H11 C7 1_555 1_555
H12 C8 1_555 1_555
H13 C8 1_555 1_555
C2 C3 1_555 1_555
C4 C5 1_555 1_555
C7 C8 1_555 1_555

#END
