
#######################################################################
#
#                 Cambridge Crystallographic Data Centre
#                                CCDC 
#
#######################################################################
#
# If this CIF has been generated from an entry in the Cambridge 
# Structural Database, then it will include bibliographic, chemical, 
# crystal, experimental, refinement or atomic coordinate data resulting 
# from the CCDC's data processing and validation procedures.
#
#######################################################################

data_VITTAT
_chemical_formula_moiety         'C9 H15 O5 P1'
_chemical_name_systematic        
1-Oxo-4-(hydroxymethyl)-1\l^5^-phospha-2,10,11-trioxatricyclo(6.2.2.0^4,8^)dodecane
_symmetry_cell_setting           monoclinic
_symmetry_space_group_name_H-M   'P 21/c'
_symmetry_Int_Tables_number      14
_space_group_name_Hall           '-P 2ybc'
loop_
_symmetry_equiv_pos_site_id
_symmetry_equiv_pos_as_xyz
1 x,y,z
2 -x,1/2+y,1/2-z
3 -x,-y,-z
4 x,1/2-y,1/2+z
_cell_length_a                   7.545(3)
_cell_length_b                   11.133(5)
_cell_length_c                   12.061(3)
_cell_angle_alpha                90
_cell_angle_beta                 91.14(3)
_cell_angle_gamma                90
_cell_volume                     1012.91
_cell_formula_units_Z            4
loop_
_atom_site_label
_atom_site_type_symbol
_atom_site_fract_x
_atom_site_fract_y
_atom_site_fract_z
P1 P 1.0011(1) 0.2080(1) 0.6041(1)
O1 O 0.8682(4) 0.2695(3) 0.5353(2)
O2 O 1.1249(3) 0.2960(2) 0.6695(2)
O3 O 1.1244(4) 0.1278(2) 0.5327(2)
O4 O 0.9179 0.1256(2) 0.6921(2)
O5 O 1.3618(4) -0.1545(2) 0.6133(2)
C1 C 1.3055(5) 0.1028(4) 0.5722(3)
C2 C 1.0200(5) 0.0863(3) 0.7898(3)
C3 C 1.2312(5) 0.2510(3) 0.7644(3)
C4 C 1.2468(5) -0.0847(3) 0.6796(3)
C5 C 1.3138(4) 0.0457(3) 0.6859(3)
C6 C 1.2159(5) 0.1164(3) 0.7785(3)
C7 C 1.5076(5) 0.0470(4) 0.7292(3)
C8 C 1.4946(6) 0.0276(4) 0.8537(3)
C9 C 1.3171(6) 0.0794(4) 0.8870(3)
H1 H 1.38407 0.18697 0.57357
H2 H 1.37271 0.04254 0.51279
H3 H 1.00583 -0.01283 0.79968
H4 H 0.96961 0.12681 0.86535
H5 H 1.19251 0.29590 0.84104
H6 H 1.37445 0.27388 0.75309
H7 H 1.23634 -0.12490 0.76161
H8 H 1.11043 -0.08689 0.64144
H9 H 1.57096 0.13400 0.71091
H10 H 1.58535 -0.02284 0.68963
H11 H 1.60453 0.07169 0.89944
H12 H 1.50281 -0.06914 0.87465
H13 H 1.33750 0.15684 0.94226
H14 H 1.24163 0.01207 0.93394
H15 H 1.28210 -0.19440 0.56180
loop_
_geom_bond_atom_site_label_1
_geom_bond_atom_site_label_2
_geom_bond_site_symmetry_1
_geom_bond_site_symmetry_2
P1 O1 1_555 1_555
O2 P1 1_555 1_555
O3 P1 1_555 1_555
O4 P1 1_555 1_555
O5 C4 1_555 1_555
C1 O3 1_555 1_555
C2 O4 1_555 1_555
C3 O2 1_555 1_555
C4 C5 1_555 1_555
C5 C1 1_555 1_555
C6 C2 1_555 1_555
C7 C5 1_555 1_555
C8 C7 1_555 1_555
C9 C6 1_555 1_555
H1 C1 1_555 1_555
H2 C1 1_555 1_555
H3 C2 1_555 1_555
H4 C2 1_555 1_555
H5 C3 1_555 1_555
H6 C3 1_555 1_555
H7 C4 1_555 1_555
H8 C4 1_555 1_555
H9 C7 1_555 1_555
H10 C7 1_555 1_555
H11 C8 1_555 1_555
H12 C8 1_555 1_555
H13 C9 1_555 1_555
H14 C9 1_555 1_555
H15 O5 1_555 1_555
C3 C6 1_555 1_555
C5 C6 1_555 1_555
C8 C9 1_555 1_555

#END
