
#######################################################################
#
#                 Cambridge Crystallographic Data Centre
#                                CCDC 
#
#######################################################################
#
# If this CIF has been generated from an entry in the Cambridge 
# Structural Database, then it will include bibliographic, chemical, 
# crystal, experimental, refinement or atomic coordinate data resulting 
# from the CCDC's data processing and validation procedures.
#
#######################################################################

data_VIVHEP
_chemical_formula_moiety         'C22 H20 N2'
_chemical_name_systematic        
3-(4-Methylphenyl)-1,5-diphenyl-4,5-dihydro-1H-pyrazole
_symmetry_cell_setting           monoclinic
_symmetry_space_group_name_H-M   'P 21/c'
_symmetry_Int_Tables_number      14
_space_group_name_Hall           '-P 2ybc'
loop_
_symmetry_equiv_pos_site_id
_symmetry_equiv_pos_as_xyz
1 x,y,z
2 -x,1/2+y,1/2-z
3 -x,-y,-z
4 x,1/2-y,1/2+z
_cell_length_a                   5.8798(3)
_cell_length_b                   10.8995(4)
_cell_length_c                   26.8261(13)
_cell_angle_alpha                90
_cell_angle_beta                 95.626(5)
_cell_angle_gamma                90
_cell_volume                     1710.92
_cell_formula_units_Z            4
loop_
_atom_site_label
_atom_site_type_symbol
_atom_site_fract_x
_atom_site_fract_y
_atom_site_fract_z
N1 N -0.1093(4) 0.68270(17) 0.34787(7)
N2 N 0.0661(3) 0.71111(16) 0.31953(7)
C1 C -0.1682(4) 0.7635(2) 0.38430(8)
C2 C -0.0372(4) 0.8661(2) 0.39696(8)
H1 H 0.0951 0.8805 0.3815
C3 C -0.1013(5) 0.9465(2) 0.43212(9)
H2 H -0.0115 1.0153 0.4402
C4 C -0.2941(5) 0.9281(3) 0.45557(10)
H3 H -0.3362 0.9837 0.4793
C5 C -0.4247(5) 0.8261(3) 0.44350(10)
H4 H -0.5562 0.8125 0.4593
C6 C -0.3637(4) 0.7431(2) 0.40809(9)
H5 H -0.4532 0.6741 0.4003
C7 C -0.1925(4) 0.55589(19) 0.34002(8)
H6 H -0.3583 0.5563 0.3313
C8 C -0.1335(4) 0.4755(2) 0.38550(8)
C9 C -0.2823(5) 0.3866(2) 0.39719(10)
H7 H -0.4218 0.3781 0.3779
C10 C -0.2285(7) 0.3091(3) 0.43723(12)
H8 H -0.3312 0.2482 0.4445
C11 C -0.0275(7) 0.3206(3) 0.46611(11)
H9 H 0.0076 0.2685 0.4932
C12 C 0.1224(5) 0.4091(3) 0.45510(11)
H10 H 0.2609 0.4174 0.4747
C13 C 0.0701(5) 0.4869(2) 0.41486(10)
H11 H 0.1736 0.5474 0.4077
C14 C -0.0713(4) 0.5179(2) 0.29398(8)
H12 H 0.0083 0.4404 0.2996
H13 H -0.1789 0.5111 0.2643
C15 C 0.0940(4) 0.62182(19) 0.28922(8)
C16 C 0.2644(4) 0.62924(18) 0.25337(7)
C17 C 0.2819(4) 0.5385(2) 0.21740(8)
H14 H 0.1860 0.4705 0.2168
C18 C 0.4387(4) 0.5476(2) 0.18265(8)
H15 H 0.4466 0.4857 0.1591
C19 C 0.5843(4) 0.6468(2) 0.18212(9)
C20 C 0.7537(5) 0.6578(2) 0.14373(10)
H16 H 0.8942 0.6185 0.1560
H17 H 0.7820 0.7429 0.1375
H18 H 0.6929 0.6190 0.1132
C21 C 0.5675(4) 0.7358(2) 0.21828(9)
H19 H 0.6648 0.8032 0.2190
C22 C 0.4127(4) 0.7283(2) 0.25310(9)
H20 H 0.4068 0.7902 0.2768
loop_
_geom_bond_atom_site_label_1
_geom_bond_atom_site_label_2
_geom_bond_site_symmetry_1
_geom_bond_site_symmetry_2
N1 N2 1_555 1_555
N2 C15 1_555 1_555
C1 N1 1_555 1_555
C2 C1 1_555 1_555
H1 C2 1_555 1_555
C3 C2 1_555 1_555
H2 C3 1_555 1_555
C4 C3 1_555 1_555
H3 C4 1_555 1_555
C5 C4 1_555 1_555
H4 C5 1_555 1_555
C6 C1 1_555 1_555
H5 C6 1_555 1_555
C7 N1 1_555 1_555
H6 C7 1_555 1_555
C8 C7 1_555 1_555
C9 C8 1_555 1_555
H7 C9 1_555 1_555
C10 C9 1_555 1_555
H8 C10 1_555 1_555
C11 C10 1_555 1_555
H9 C11 1_555 1_555
C12 C11 1_555 1_555
H10 C12 1_555 1_555
C13 C8 1_555 1_555
H11 C13 1_555 1_555
C14 C7 1_555 1_555
H12 C14 1_555 1_555
H13 C14 1_555 1_555
C15 C14 1_555 1_555
C16 C15 1_555 1_555
C17 C16 1_555 1_555
H14 C17 1_555 1_555
C18 C17 1_555 1_555
H15 C18 1_555 1_555
C19 C18 1_555 1_555
C20 C19 1_555 1_555
H16 C20 1_555 1_555
H17 C20 1_555 1_555
H18 C20 1_555 1_555
C21 C19 1_555 1_555
H19 C21 1_555 1_555
C22 C16 1_555 1_555
H20 C22 1_555 1_555
C5 C6 1_555 1_555
C12 C13 1_555 1_555
C21 C22 1_555 1_555

#END
