
#######################################################################
#
#                 Cambridge Crystallographic Data Centre
#                                CCDC 
#
#######################################################################
#
# If this CIF has been generated from an entry in the Cambridge 
# Structural Database, then it will include bibliographic, chemical, 
# crystal, experimental, refinement or atomic coordinate data resulting 
# from the CCDC's data processing and validation procedures.
#
#######################################################################

data_VIVSUP
_chemical_formula_moiety         'C21 H18 I1 N1 O5'
_chemical_name_systematic        
(3S)-8-((2-Iodo-4,5-dimethoxybenzyl)oxy)-3-methylfuro[3,4-c]quinolin-1(3H)-one
_symmetry_cell_setting           orthorhombic
_symmetry_space_group_name_H-M   'P 21 21 21'
_symmetry_Int_Tables_number      19
_space_group_name_Hall           'P 2ac 2ab'
loop_
_symmetry_equiv_pos_site_id
_symmetry_equiv_pos_as_xyz
1 x,y,z
2 1/2-x,-y,1/2+z
3 -x,1/2+y,1/2-z
4 1/2+x,1/2-y,-z
_cell_length_a                   4.4686(9)
_cell_length_b                   12.844(3)
_cell_length_c                   33.757(7)
_cell_angle_alpha                90
_cell_angle_beta                 90
_cell_angle_gamma                90
_cell_volume                     1937.47
_exptl_crystal_colour            colorless
_exptl_crystal_description       needle
_chemical_melting_point          '200-202 deg.C'
_cell_formula_units_Z            4
_exptl_crystal_recrystallization_method acetonitrile
loop_
_atom_site_label
_atom_site_type_symbol
_atom_site_fract_x
_atom_site_fract_y
_atom_site_fract_z
I1 I 0.09498(13) 0.05461(4) 0.172959(16)
O1 O 0.6487(15) 0.3094(4) 0.10549(18)
O2 O 0.0883(18) 0.4914(5) 0.22386(19)
O3 O 0.0843(16) 0.6611(4) 0.23833(17)
O4 O 0.6760(16) 0.0305(5) 0.00591(17)
O5 O 0.3842(18) -0.1266(4) 0.03247(17)
N1 N 0.7291(17) 0.7315(5) 0.1338(2)
C1 C 0.850(2) 0.5767(7) 0.0976(2)
H1 H 0.9683 0.6166 0.0808
C2 C 0.8281(19) 0.4738(6) 0.0913(2)
H2 H 0.9313 0.4433 0.0704
C3 C 0.6484(19) 0.4116(6) 0.1165(3)
C4 C 0.5047(16) 0.4522(6) 0.1472(2)
H3 H 0.3942 0.4098 0.1641
C5 C 0.5217(15) 0.5625(6) 0.1540(2)
C6 C 0.6979(19) 0.6254(6) 0.1287(2)
C7 C 0.582(2) 0.7770(6) 0.1629(2)
H4 H 0.5985 0.8487 0.1660
C8 C 0.400(2) 0.7205(6) 0.1894(2)
C9 C 0.3732(19) 0.6154(6) 0.1851(2)
C10 C 0.172(2) 0.5778(6) 0.2165(3)
C11 C 0.225(2) 0.7560(6) 0.2246(2)
H5 H 0.0706 0.8050 0.2160
C12 C 0.402(3) 0.8039(7) 0.2572(3)
H6 H 0.2727 0.8176 0.2794
H7 H 0.4888 0.8680 0.2482
H8 H 0.5579 0.7570 0.2652
C13 C 0.451(2) 0.2392(6) 0.1251(2)
H9 H 0.2533 0.2700 0.1271
H10 H 0.5232 0.2253 0.1517
C14 C 0.434(2) 0.1389(6) 0.1019(2)
C15 C 0.570(2) 0.1309(6) 0.0647(2)
H11 H 0.6735 0.1880 0.0547
C16 C 0.556(2) 0.0425(6) 0.0429(2)
C17 C 0.391(2) -0.0418(6) 0.0566(2)
C18 C 0.257(2) -0.0358(6) 0.0937(2)
H12 H 0.1468 -0.0919 0.1033
C19 C 0.2862(17) 0.0524(7) 0.1160(2)
C20 C 0.853(2) 0.1119(9) -0.0085(3)
H13 H 0.7273 0.1698 -0.0154
H14 H 0.9598 0.0889 -0.0315
H15 H 0.9928 0.1329 0.0116
C21 C 0.215(3) -0.2119(7) 0.0449(3)
H16 H 0.0111 -0.1908 0.0487
H17 H 0.2944 -0.2380 0.0694
H18 H 0.2237 -0.2655 0.0251
loop_
_geom_bond_atom_site_label_1
_geom_bond_atom_site_label_2
_geom_bond_site_symmetry_1
_geom_bond_site_symmetry_2
I1 C19 1_555 1_555
O1 C3 1_555 1_555
O2 C10 1_555 1_555
O3 C10 1_555 1_555
O4 C16 1_555 1_555
O5 C17 1_555 1_555
N1 C6 1_555 1_555
C1 H1 1_555 1_555
C2 C1 1_555 1_555
H2 C2 1_555 1_555
C3 C2 1_555 1_555
C4 C3 1_555 1_555
H3 C4 1_555 1_555
C5 C4 1_555 1_555
C6 C1 1_555 1_555
C7 N1 1_555 1_555
H4 C7 1_555 1_555
C8 C7 1_555 1_555
C9 C5 1_555 1_555
C10 C9 1_555 1_555
C11 O3 1_555 1_555
H5 C11 1_555 1_555
C12 C11 1_555 1_555
H6 C12 1_555 1_555
H7 C12 1_555 1_555
H8 C12 1_555 1_555
C13 O1 1_555 1_555
H9 C13 1_555 1_555
H10 C13 1_555 1_555
C14 C13 1_555 1_555
C15 C14 1_555 1_555
H11 C15 1_555 1_555
C16 C15 1_555 1_555
C17 C16 1_555 1_555
C18 C17 1_555 1_555
H12 C18 1_555 1_555
C19 C14 1_555 1_555
C20 O4 1_555 1_555
H13 C20 1_555 1_555
H14 C20 1_555 1_555
H15 C20 1_555 1_555
C21 O5 1_555 1_555
H16 C21 1_555 1_555
H17 C21 1_555 1_555
H18 C21 1_555 1_555
C5 C6 1_555 1_555
C8 C9 1_555 1_555
C8 C11 1_555 1_555
C18 C19 1_555 1_555

#END
