
#######################################################################
#
#                 Cambridge Crystallographic Data Centre
#                                CCDC 
#
#######################################################################
#
# If this CIF has been generated from an entry in the Cambridge 
# Structural Database, then it will include bibliographic, chemical, 
# crystal, experimental, refinement or atomic coordinate data resulting 
# from the CCDC's data processing and validation procedures.
#
#######################################################################

data_VIWGOZ
_chemical_formula_moiety         'C17 H22 Cl1 N3 O3'
_chemical_name_systematic        
'Methyl 4-(4-chlorophenyl)-2-oxo-6-(piperidin-1-yl)hexahydropyrimidine-5-carboxylate unknown solvate'
_symmetry_cell_setting           triclinic
_symmetry_space_group_name_H-M   'P -1'
_symmetry_Int_Tables_number      2
_space_group_name_Hall           '-P 1'
loop_
_symmetry_equiv_pos_site_id
_symmetry_equiv_pos_as_xyz
1 x,y,z
2 -x,-y,-z
_cell_length_a                   6.160(4)
_cell_length_b                   12.887(8)
_cell_length_c                   13.845(9)
_cell_angle_alpha                100.498(9)
_cell_angle_beta                 100.213(9)
_cell_angle_gamma                97.508(9)
_cell_volume                     1048.36
_exptl_crystal_colour            colorless
_exptl_crystal_description       BLOCK
_cell_formula_units_Z            2
loop_
_atom_site_label
_atom_site_type_symbol
_atom_site_fract_x
_atom_site_fract_y
_atom_site_fract_z
C1 C 0.9980(5) -0.0748(2) 0.3028(2)
H1 H 0.9169 -0.0666 0.3535
C2 C 1.1509(5) -0.1427(2) 0.3042(2)
H2 H 1.1788 -0.1778 0.3570
C3 C 1.2627(5) -0.1584(2) 0.2267(3)
C4 C 1.2287(5) -0.1038(2) 0.1493(2)
H3 H 1.3051 -0.1148 0.0971
C5 C 1.0789(5) -0.0324(2) 0.1512(2)
H4 H 1.0576 0.0060 0.1006
C6 C 0.9611(5) -0.0176(2) 0.2268(2)
C7 C 0.7919(5) 0.0585(2) 0.2300(2)
H5 H 0.6787 0.0323 0.2653
C8 C 0.5492(5) 0.1341(2) 0.1123(2)
C9 C 0.7133(5) 0.2422(2) 0.2872(2)
H6 H 0.6254 0.2195 0.3345
C10 C 0.8987(5) 0.1749(2) 0.28478(19)
H7 H 1.0079 0.2041 0.2490
C11 C 1.0135(5) 0.1732(2) 0.3903(2)
C12 C 1.3609(6) 0.1740(3) 0.4942(3)
H8 H 1.3283 0.2234 0.5484
H9 H 1.5182 0.1874 0.4948
H10 H 1.3189 0.1020 0.5020
C13 C 0.9145(6) 0.4071(3) 0.2563(3)
H11 H 0.8078 0.4077 0.1958
H12 H 1.0278 0.3666 0.2371
C14 C 1.0220(6) 0.5197(3) 0.3070(3)
H13 H 1.0959 0.5529 0.2613
H14 H 1.1345 0.5186 0.3653
C15 C 0.8511(7) 0.5853(3) 0.3394(3)
H15 H 0.7494 0.5944 0.2807
H16 H 0.9262 0.6556 0.3772
C16 C 0.7205(6) 0.5297(3) 0.4038(3)
H17 H 0.6000 0.5678 0.4178
H18 H 0.8183 0.5309 0.4673
C17 C 0.6238(5) 0.4144(2) 0.3514(3)
H19 H 0.5484 0.3793 0.3956
H20 H 0.5141 0.4134 0.2915
Cl1 Cl 1.44831(16) -0.24902(8) 0.22386(8)
N1 N 0.7996(4) 0.35600(17) 0.32400(17)
N2 N 0.5635(4) 0.2179(2) 0.18833(18)
H21 H 0.4742 0.2625 0.1776
N3 N 0.6814(4) 0.06157(18) 0.12966(17)
H22 H 0.7007 0.0158 0.0797
O1 O 0.9188(4) 0.15648(18) 0.45541(15)
O2 O 1.2367(3) 0.18766(18) 0.40007(14)
O3 O 0.4194(3) 0.12464(16) 0.02943(15)
loop_
_geom_bond_atom_site_label_1
_geom_bond_atom_site_label_2
_geom_bond_site_symmetry_1
_geom_bond_site_symmetry_2
C1 H1 1_555 1_555
C2 C1 1_555 1_555
H2 C2 1_555 1_555
C3 C2 1_555 1_555
C4 C3 1_555 1_555
H3 C4 1_555 1_555
C5 C4 1_555 1_555
H4 C5 1_555 1_555
C6 C1 1_555 1_555
C7 C6 1_555 1_555
H5 C7 1_555 1_555
C8 N2 1_555 1_555
C9 H6 1_555 1_555
C10 C7 1_555 1_555
H7 C10 1_555 1_555
C11 C10 1_555 1_555
C12 H8 1_555 1_555
H9 C12 1_555 1_555
H10 C12 1_555 1_555
C13 H11 1_555 1_555
H12 C13 1_555 1_555
C14 C13 1_555 1_555
H13 C14 1_555 1_555
H14 C14 1_555 1_555
C15 C14 1_555 1_555
H15 C15 1_555 1_555
H16 C15 1_555 1_555
C16 C15 1_555 1_555
H17 C16 1_555 1_555
H18 C16 1_555 1_555
C17 C16 1_555 1_555
H19 C17 1_555 1_555
H20 C17 1_555 1_555
Cl1 C3 1_555 1_555
N1 C9 1_555 1_555
N2 C9 1_555 1_555
H21 N2 1_555 1_555
N3 C7 1_555 1_555
H22 N3 1_555 1_555
O1 C11 1_555 1_555
O2 C11 1_555 1_555
O3 C8 1_555 1_555
C5 C6 1_555 1_555
C8 N3 1_555 1_555
C9 C10 1_555 1_555
C12 O2 1_555 1_555
C13 N1 1_555 1_555
C17 N1 1_555 1_555

#END
