
#######################################################################
#
#                 Cambridge Crystallographic Data Centre
#                                CCDC 
#
#######################################################################
#
# If this CIF has been generated from an entry in the Cambridge 
# Structural Database, then it will include bibliographic, chemical, 
# crystal, experimental, refinement or atomic coordinate data resulting 
# from the CCDC's data processing and validation procedures.
#
#######################################################################

data_VIWGAL
_chemical_formula_moiety         'C19 H20 Cl1 N3 O3'
_chemical_name_systematic        
'Methyl 2-((carbamoylamino)(4-chlorophenyl)methyl)-3-((4-methylphenyl)amino)acrylate'
_symmetry_cell_setting           orthorhombic
_symmetry_space_group_name_H-M   'P b c a'
_symmetry_Int_Tables_number      61
_space_group_name_Hall           '-P 2ac 2ab'
loop_
_symmetry_equiv_pos_site_id
_symmetry_equiv_pos_as_xyz
1 x,y,z
2 1/2-x,-y,1/2+z
3 -x,1/2+y,1/2-z
4 1/2+x,1/2-y,-z
5 -x,-y,-z
6 1/2+x,y,1/2-z
7 x,1/2-y,1/2+z
8 1/2-x,1/2+y,z
_cell_length_a                   17.341(3)
_cell_length_b                   8.4602(15)
_cell_length_c                   25.733(5)
_cell_angle_alpha                90
_cell_angle_beta                 90
_cell_angle_gamma                90
_cell_volume                     3775.25
_exptl_crystal_colour            colorless
_exptl_crystal_description       block
_cell_formula_units_Z            8
loop_
_atom_site_label
_atom_site_type_symbol
_atom_site_fract_x
_atom_site_fract_y
_atom_site_fract_z
C10 C 0.685(3) -0.149(4) 0.5837(17)
H10 H 0.6767 -0.0797 0.5546
H11 H 0.6374 -0.1954 0.5941
H12 H 0.7209 -0.2303 0.5738
C11 C 0.8084(5) 0.0557(14) 0.6890(5)
H13 H 0.8589 0.0702 0.7003
C12 C 0.7937(7) -0.0340(16) 0.6448(5)
H14 H 0.8344 -0.0796 0.6266
C13 C 0.7183(9) -0.0557(17) 0.6280(4)
C14 C 0.6576(5) 0.0124(17) 0.6552(6)
H15 H 0.6072 -0.0021 0.6439
C15 C 0.6723(7) 0.1022(13) 0.6994(5)
H16 H 0.6317 0.1477 0.7176
C16 C 0.7477(9) 0.1238(9) 0.7162(3)
N2 N 0.7590(4) 0.2188(8) 0.7610(3)
H17 H 0.716(4) 0.241(8) 0.780(3)
C17 C 0.8267(5) 0.2890(12) 0.7749(4)
H18 H 0.8693 0.2719 0.7537
C18 C 0.8364(9) 0.3805(17) 0.8167(5)
C19 C 0.7715(2) 0.4207(4) 0.85751(16)
C20 C 0.7453(2) 0.5555(6) 0.93674(16)
H19 H 0.7033 0.6150 0.9223
H20 H 0.7716 0.6184 0.9622
H21 H 0.7257 0.4613 0.9528
C21 C 0.9112(2) 0.4497(4) 0.82513(14)
H22 H 0.9367 0.4112 0.7936
C22 C 0.95635(18) 0.7118(4) 0.79395(14)
C23 C 0.95548(18) 0.3898(4) 0.87215(15)
C24 C 0.9536(2) 0.2306(5) 0.88475(18)
H23 H 0.9242 0.1621 0.8645
C25 C 0.9941(3) 0.1713(5) 0.9265(2)
H24 H 0.9924 0.0640 0.9342
C26 C 1.0370(2) 0.2718(6) 0.95660(19)
C27 C 1.0414(3) 0.4275(6) 0.94473(19)
H25 H 1.0719 0.4947 0.9646
C28 C 1.0002(2) 0.4861(5) 0.90267(17)
H26 H 1.0030 0.5934 0.8950
Cl1 Cl 1.08745(8) 0.19794(19) 1.01007(6)
N3 N 0.90868(16) 0.6226(3) 0.82340(11)
H27 H 0.8749 0.6702 0.8422
N4 N 0.94579(17) 0.8695(3) 0.79868(13)
H28 H 0.9737 0.9338 0.7809
H29 H 0.9111 0.9055 0.8194
O1 O 0.70382(14) 0.3795(3) 0.85665(12)
O2 O 0.79811(12) 0.5131(3) 0.89612(9)
O3 O 1.00540(13) 0.6542(3) 0.76466(10)
C1? C 0.691(4) -0.149(5) 0.577(2)
H1? H 0.6706 -0.2510 0.5867
H2? H 0.7373 -0.1621 0.5578
H3? H 0.6534 -0.0930 0.5570
C2? C 0.8263(6) 0.020(2) 0.6739(7)
H4? H 0.8795 0.0115 0.6775
C3? C 0.7885(11) -0.063(2) 0.6350(7)
H5? H 0.8164 -0.1278 0.6125
C4? C 0.7090(11) -0.050(2) 0.6296(8)
C5? C 0.6673(6) 0.046(3) 0.6631(9)
H6? H 0.6141 0.0548 0.6595
C6? C 0.7051(11) 0.1295(18) 0.7020(6)
H7? H 0.6773 0.1940 0.7245
C7? C 0.7847(11) 0.1166(14) 0.7074(5)
N1? N 0.8253(5) 0.2061(13) 0.7466(4)
H8? H 0.884(6) 0.211(11) 0.748(4)
C8? C 0.7917(9) 0.2791(15) 0.7862(6)
H9? H 0.7392 0.2593 0.7893
C9? C 0.8226(12) 0.385(3) 0.8257(8)
loop_
_geom_bond_atom_site_label_1
_geom_bond_atom_site_label_2
_geom_bond_site_symmetry_1
_geom_bond_site_symmetry_2
C10 H10 1_555 1_555
H11 C10 1_555 1_555
H12 C10 1_555 1_555
C11 H13 1_555 1_555
C12 C11 1_555 1_555
H14 C12 1_555 1_555
C13 C10 1_555 1_555
C14 C13 1_555 1_555
H15 C14 1_555 1_555
C15 C14 1_555 1_555
H16 C15 1_555 1_555
C16 C11 1_555 1_555
N2 C16 1_555 1_555
H17 N2 1_555 1_555
C17 N2 1_555 1_555
H18 C17 1_555 1_555
C18 C17 1_555 1_555
C19 C18 1_555 1_555
C20 H19 1_555 1_555
H20 C20 1_555 1_555
H21 C20 1_555 1_555
C21 C18 1_555 1_555
H22 C21 1_555 1_555
C22 N3 1_555 1_555
C23 C21 1_555 1_555
C24 C23 1_555 1_555
H23 C24 1_555 1_555
C25 C24 1_555 1_555
H24 C25 1_555 1_555
C26 C25 1_555 1_555
C27 C26 1_555 1_555
H25 C27 1_555 1_555
C28 C23 1_555 1_555
H26 C28 1_555 1_555
Cl1 C26 1_555 1_555
N3 C21 1_555 1_555
H27 N3 1_555 1_555
N4 C22 1_555 1_555
H28 N4 1_555 1_555
H29 N4 1_555 1_555
O1 C19 1_555 1_555
O2 C19 1_555 1_555
O3 C22 1_555 1_555
C12 C13 1_555 1_555
C15 C16 1_555 1_555
C20 O2 1_555 1_555
C27 C28 1_555 1_555

#END
