
#######################################################################
#
#                 Cambridge Crystallographic Data Centre
#                                CCDC 
#
#######################################################################
#
# If this CIF has been generated from an entry in the Cambridge 
# Structural Database, then it will include bibliographic, chemical, 
# crystal, experimental, refinement or atomic coordinate data resulting 
# from the CCDC's data processing and validation procedures.
#
#######################################################################

data_VIWGIT
_chemical_formula_moiety         'C18 H25 N3 O3,C2 H6 O1 S1'
_chemical_name_systematic        
'Methyl 4-(4-methylphenyl)-2-oxo-6-(piperidin-1-yl)hexahydropyrimidine-5-carboxylate dimethyl sulfoxide solvate'
_symmetry_cell_setting           triclinic
_symmetry_space_group_name_H-M   'P -1'
_symmetry_Int_Tables_number      2
_space_group_name_Hall           '-P 1'
loop_
_symmetry_equiv_pos_site_id
_symmetry_equiv_pos_as_xyz
1 x,y,z
2 -x,-y,-z
_cell_length_a                   6.1780(11)
_cell_length_b                   12.785(2)
_cell_length_c                   14.614(3)
_cell_angle_alpha                93.231(2)
_cell_angle_beta                 101.915(2)
_cell_angle_gamma                96.631(2)
_cell_volume                     1118.05
_cell_formula_units_Z            2
loop_
_atom_site_label
_atom_site_type_symbol
_atom_site_fract_x
_atom_site_fract_y
_atom_site_fract_z
C1 C 0.0889(4) 0.6050(2) 0.74231(17)
H1 H -0.0231 0.6448 0.7596
H2 H 0.1737 0.5808 0.7989
C2 C -0.0235(5) 0.5106(2) 0.6744(2)
H3 H -0.1173 0.4644 0.7048
H4 H -0.1181 0.5350 0.6204
C3 C 0.1467(5) 0.4493(2) 0.6419(2)
H5 H 0.2252 0.4152 0.6941
H6 H 0.0708 0.3948 0.5933
C4 C 0.3115(5) 0.5215(2) 0.60434(19)
H7 H 0.2367 0.5466 0.5462
H8 H 0.4282 0.4824 0.5907
C5 C 0.4155(4) 0.6158(2) 0.67467(18)
H9 H 0.5004 0.5916 0.7312
H10 H 0.5161 0.6628 0.6479
C6 C 0.3155(4) 0.77772(19) 0.74226(15)
H11 H 0.4276 0.8100 0.7101
C7 C 0.4377(4) 0.86483(19) 0.90583(16)
C8 C 0.2300(4) 0.95902(18) 0.77940(15)
H12 H 0.3477 0.9861 0.7478
C9 C 0.1288(4) 0.84764(18) 0.73313(14)
H13 H 0.0152 0.8180 0.7657
C10 C 0.0233(4) 0.85346(19) 0.63106(16)
C11 C -0.3179(6) 0.8478(4) 0.5220(2)
H14 H -0.2706 0.9167 0.5047
H15 H -0.4753 0.8404 0.5200
H16 H -0.2869 0.7949 0.4789
C12 C 0.0603(4) 1.03552(18) 0.77098(15)
C13 C -0.0756(4) 1.0469(2) 0.83537(17)
H17 H -0.0612 1.0069 0.8870
C14 C -0.2316(4) 1.1174(2) 0.8230(2)
H18 H -0.3201 1.1240 0.8668
C15 C -0.2591(4) 1.1786(2) 0.7464(2)
C16 C -0.4214(5) 1.2595(3) 0.7359(3)
H19 H -0.3570 1.3216 0.7768
H20 H -0.5574 1.2304 0.7522
H21 H -0.4525 1.2777 0.6721
C17 C -0.1290(5) 1.1651(2) 0.6819(2)
H22 H -0.1471 1.2035 0.6293
C18 C 0.0284(4) 1.0955(2) 0.69379(18)
H23 H 0.1149 1.0886 0.6492
N1 N 0.2377(3) 0.67248(15) 0.69776(12)
N2 N 0.4213(3) 0.78093(16) 0.84290(13)
H24 H 0.4764 0.7256 0.8629
N3 N 0.3324(4) 0.94752(16) 0.87683(13)
H25 H 0.3252 0.9966 0.9184
O1 O 0.5437(3) 0.86466(14) 0.98818(12)
O2 O 0.1241(3) 0.87552(17) 0.57109(12)
O3 O -0.1984(3) 0.83470(18) 0.61629(12)
C19 C 0.2889(7) 0.3490(3) 0.9102(2)
H26 H 0.4115 0.3938 0.8961
H27 H 0.1670 0.3389 0.8565
H28 H 0.3351 0.2818 0.9256
C20 C 0.0005(8) 0.3021(5) 1.0143(3)
H29 H 0.0688 0.2384 1.0210
H30 H -0.1157 0.2935 0.9586
H31 H -0.0619 0.3165 1.0680
O4 O 0.3837(5) 0.40814(19) 1.09010(16)
S1 S 0.20303(16) 0.40826(7) 1.00600(6)
loop_
_geom_bond_atom_site_label_1
_geom_bond_atom_site_label_2
_geom_bond_site_symmetry_1
_geom_bond_site_symmetry_2
C1 H1 1_555 1_555
H2 C1 1_555 1_555
C2 C1 1_555 1_555
H3 C2 1_555 1_555
H4 C2 1_555 1_555
C3 C2 1_555 1_555
H5 C3 1_555 1_555
H6 C3 1_555 1_555
C4 C3 1_555 1_555
H7 C4 1_555 1_555
H8 C4 1_555 1_555
C5 C4 1_555 1_555
H9 C5 1_555 1_555
H10 C5 1_555 1_555
C6 H11 1_555 1_555
C7 N2 1_555 1_555
C8 H12 1_555 1_555
C9 C6 1_555 1_555
H13 C9 1_555 1_555
C10 C9 1_555 1_555
C11 H14 1_555 1_555
H15 C11 1_555 1_555
H16 C11 1_555 1_555
C12 C8 1_555 1_555
C13 C12 1_555 1_555
H17 C13 1_555 1_555
C14 C13 1_555 1_555
H18 C14 1_555 1_555
C15 C14 1_555 1_555
C16 C15 1_555 1_555
H19 C16 1_555 1_555
H20 C16 1_555 1_555
H21 C16 1_555 1_555
C17 C15 1_555 1_555
H22 C17 1_555 1_555
C18 C12 1_555 1_555
H23 C18 1_555 1_555
N1 C1 1_555 1_555
N2 C6 1_555 1_555
H24 N2 1_555 1_555
N3 C7 1_555 1_555
H25 N3 1_555 1_555
O1 C7 1_555 1_555
O2 C10 1_555 1_555
O3 C10 1_555 1_555
C19 H26 1_555 1_555
H27 C19 1_555 1_555
H28 C19 1_555 1_555
C20 H29 1_555 1_555
H30 C20 1_555 1_555
H31 C20 1_555 1_555
O4 S1 1_555 1_555
S1 C19 1_555 1_555
C5 N1 1_555 1_555
C6 N1 1_555 1_555
C8 C9 1_555 1_555
C8 N3 1_555 1_555
C11 O3 1_555 1_555
C17 C18 1_555 1_555
C20 S1 1_555 1_555

#END
