
#######################################################################
#
#                 Cambridge Crystallographic Data Centre
#                                CCDC 
#
#######################################################################
#
# If this CIF has been generated from an entry in the Cambridge 
# Structural Database, then it will include bibliographic, chemical, 
# crystal, experimental, refinement or atomic coordinate data resulting 
# from the CCDC's data processing and validation procedures.
#
#######################################################################

data_VIWQOH
_chemical_name_common            
1,7,8,14,20,21,32,33-Octa-azapentacyclo(12.12.12.2$6,9!.2$19,22!.2$31,34!)dotetraconta-4,6,8,10,17,19,21,23,29,31,33,35,39,41,43-pentadecaene
_chemical_formula_moiety         'C30 H36 N14'
_chemical_name_systematic        
Hexaimino-1,14-diaminotripyridazino(12.12.12)cryptand
_symmetry_cell_setting           monoclinic
_symmetry_space_group_name_H-M   'P 21/c'
_symmetry_Int_Tables_number      14
_space_group_name_Hall           '-P 2ybc'
loop_
_symmetry_equiv_pos_site_id
_symmetry_equiv_pos_as_xyz
1 x,y,z
2 x,1/2-y,1/2+z
3 -x,-y,-z
4 -x,1/2+y,1/2-z
_cell_length_a                   11.257(2)
_cell_length_b                   13.324(3)
_cell_length_c                   20.972(4)
_cell_angle_alpha                90
_cell_angle_beta                 91.946(2)
_cell_angle_gamma                90
_cell_volume                     3143.74
_exptl_crystal_colour            colorless
_exptl_crystal_description       Cubes
_cell_formula_units_Z            4
loop_
_atom_site_label
_atom_site_type_symbol
_atom_site_fract_x
_atom_site_fract_y
_atom_site_fract_z
N1 N 1.3285(5) 0.6439(4) 0.2015(2)
N2 N 1.4156(5) 0.6414(4) 0.1582(2)
C1 C 1.4371(5) 0.7233(5) 0.1240(3)
C2 C 1.3776(6) 0.8132(5) 0.1316(3)
H1 H 1.3964 0.8707 0.1071
C3 C 1.2906(6) 0.8164(5) 0.1757(3)
H2 H 1.2479 0.8764 0.1832
C4 C 1.2669(5) 0.7288(5) 0.2092(3)
C5 C 1.1752(5) 0.7221(5) 0.2574(3)
H3 H 1.1646 0.6610 0.2799
N3 N 1.1104(4) 0.7966(4) 0.2693(2)
C6 C 1.0204(6) 0.7830(6) 0.3182(3)
H4 H 1.0395 0.8274 0.3550
H5 H 1.0224 0.7127 0.3335
C7 C 0.8976(5) 0.8072(5) 0.2915(3)
H6 H 0.8407 0.8033 0.3264
H7 H 0.8970 0.8771 0.2755
N4 N 0.8571(4) 0.7410(3) 0.2402(2)
N5 N 1.5248(4) 0.7494(3) -0.0935(2)
C8 C 1.6300(5) 0.7989(5) -0.0659(3)
H8 H 1.6151 0.8720 -0.0638
H9 H 1.6975 0.7880 -0.0941
C9 C 1.6642(5) 0.7599(6) 0.0020(3)
H10 H 1.6762 0.6864 0.0007
H11 H 1.7397 0.7914 0.0171
N6 N 1.5706(5) 0.7838(4) 0.0459(2)
C10 C 1.5315(5) 0.7103(5) 0.0768(3)
H12 H 1.5630 0.6452 0.0697
N7 N 1.1290(5) 0.9822(4) 0.0913(2)
N8 N 1.2176(5) 0.9855(4) 0.0497(3)
C11 C 1.2095(5) 0.9295(4) -0.0036(3)
C12 C 1.1158(5) 0.8666(4) -0.0181(3)
H13 H 1.1139 0.8272 -0.0558
C13 C 1.0249(5) 0.8625(4) 0.0240(3)
H14 H 0.9573 0.8211 0.0161
C14 C 1.0359(5) 0.9216(4) 0.0790(3)
C15 C 0.9434(5) 0.9240(4) 0.1276(3)
H15 H 0.9522 0.9687 0.1627
N9 N 0.8531(4) 0.8679(3) 0.1232(2)
C16 C 0.7662(6) 0.8786(5) 0.1726(3)
H16 H 0.6893 0.9006 0.1530
H17 H 0.7933 0.9305 0.2035
C17 C 0.7491(5) 0.7787(4) 0.2075(3)
H18 H 0.6869 0.7875 0.2393
H19 H 0.7204 0.7278 0.1763
C18 C 1.4808(6) 0.8053(4) -0.1496(3)
H20 H 1.4215 0.7635 -0.1733
H21 H 1.5479 0.8171 -0.1780
C19 C 1.4237(6) 0.9066(4) -0.1344(3)
H22 H 1.4815 0.9489 -0.1100
H23 H 1.4014 0.9418 -0.1746
N10 N 1.3177(4) 0.8911(4) -0.0969(2)
C20 C 1.3140(5) 0.9381(5) -0.0446(3)
H24 H 1.3789 0.9796 -0.0314
N11 N 1.0774(4) 0.6283(4) -0.0289(2)
N12 N 0.9940(5) 0.6239(4) 0.0151(2)
C21 C 1.1893(5) 0.5978(4) -0.0145(3)
C22 C 1.2234(6) 0.5616(5) 0.0446(3)
H25 H 1.3027 0.5398 0.0533
C23 C 1.1409(5) 0.5575(5) 0.0906(3)
H26 H 1.1610 0.5340 0.1324
C24 C 1.0256(5) 0.5893(4) 0.0741(3)
C25 C 0.9250(6) 0.5885(4) 0.1169(3)
H27 H 0.8495 0.6111 0.1013
N13 N 0.9365(5) 0.5583(4) 0.1743(2)
C26 C 0.8274(6) 0.5607(5) 0.2110(3)
H28 H 0.8136 0.4939 0.2300
H29 H 0.7585 0.5768 0.1822
C27 C 0.8384(6) 0.6387(4) 0.2631(3)
H30 H 0.7651 0.6375 0.2880
H31 H 0.9056 0.6202 0.2924
C28 C 1.5509(5) 0.6463(4) -0.1103(3)
H32 H 1.5967 0.6146 -0.0746
H33 H 1.6016 0.6461 -0.1480
C29 C 1.4401(6) 0.5832(4) -0.1254(3)
H34 H 1.3901 0.6172 -0.1586
H35 H 1.4638 0.5170 -0.1422
N14 N 1.3719(4) 0.5692(4) -0.0681(2)
C30 C 1.2691(5) 0.6072(4) -0.0688(3)
H36 H 1.2420 0.6431 -0.1056
loop_
_geom_bond_atom_site_label_1
_geom_bond_atom_site_label_2
_geom_bond_site_symmetry_1
_geom_bond_site_symmetry_2
N1 N2 1_555 1_555
N2 C1 1_555 1_555
C1 C2 1_555 1_555
C2 H1 1_555 1_555
C3 C2 1_555 1_555
H2 C3 1_555 1_555
C4 N1 1_555 1_555
C5 C4 1_555 1_555
H3 C5 1_555 1_555
N3 C5 1_555 1_555
C6 N3 1_555 1_555
H4 C6 1_555 1_555
H5 C6 1_555 1_555
C7 C6 1_555 1_555
H6 C7 1_555 1_555
H7 C7 1_555 1_555
N4 C7 1_555 1_555
N5 C8 1_555 1_555
C8 H8 1_555 1_555
H9 C8 1_555 1_555
C9 C8 1_555 1_555
H10 C9 1_555 1_555
H11 C9 1_555 1_555
N6 C9 1_555 1_555
C10 C1 1_555 1_555
H12 C10 1_555 1_555
N7 N8 1_555 1_555
N8 C11 1_555 1_555
C11 C12 1_555 1_555
C12 H13 1_555 1_555
C13 C12 1_555 1_555
H14 C13 1_555 1_555
C14 N7 1_555 1_555
C15 C14 1_555 1_555
H15 C15 1_555 1_555
N9 C15 1_555 1_555
C16 N9 1_555 1_555
H16 C16 1_555 1_555
H17 C16 1_555 1_555
C17 N4 1_555 1_555
H18 C17 1_555 1_555
H19 C17 1_555 1_555
C18 N5 1_555 1_555
H20 C18 1_555 1_555
H21 C18 1_555 1_555
C19 C18 1_555 1_555
H22 C19 1_555 1_555
H23 C19 1_555 1_555
N10 C19 1_555 1_555
C20 C11 1_555 1_555
H24 C20 1_555 1_555
N11 N12 1_555 1_555
N12 C24 1_555 1_555
C21 N11 1_555 1_555
C22 C21 1_555 1_555
H25 C22 1_555 1_555
C23 C22 1_555 1_555
H26 C23 1_555 1_555
C24 C23 1_555 1_555
C25 C24 1_555 1_555
H27 C25 1_555 1_555
N13 C25 1_555 1_555
C26 N13 1_555 1_555
H28 C26 1_555 1_555
H29 C26 1_555 1_555
C27 N4 1_555 1_555
H30 C27 1_555 1_555
H31 C27 1_555 1_555
C28 N5 1_555 1_555
H32 C28 1_555 1_555
H33 C28 1_555 1_555
C29 C28 1_555 1_555
H34 C29 1_555 1_555
H35 C29 1_555 1_555
N14 C29 1_555 1_555
C30 C21 1_555 1_555
H36 C30 1_555 1_555
C3 C4 1_555 1_555
N6 C10 1_555 1_555
C13 C14 1_555 1_555
C16 C17 1_555 1_555
N10 C20 1_555 1_555
C26 C27 1_555 1_555
N14 C30 1_555 1_555

#END
