
#######################################################################
#
#                 Cambridge Crystallographic Data Centre
#                                CCDC 
#
#######################################################################
#
# If this CIF has been generated from an entry in the Cambridge 
# Structural Database, then it will include bibliographic, chemical, 
# crystal, experimental, refinement or atomic coordinate data resulting 
# from the CCDC's data processing and validation procedures.
#
#######################################################################

data_VIWRUP
_chemical_formula_moiety         'C14 H20 O10'
_chemical_name_systematic        2,3,4,6-Tetra-O-acetyl-D-glucopyranose
_symmetry_cell_setting           orthorhombic
_symmetry_space_group_name_H-M   'P 21 21 21'
_symmetry_Int_Tables_number      19
_space_group_name_Hall           'P 2ac 2ab'
loop_
_symmetry_equiv_pos_site_id
_symmetry_equiv_pos_as_xyz
1 x,y,z
2 1/2-x,-y,1/2+z
3 -x,1/2+y,1/2-z
4 1/2+x,1/2-y,-z
_cell_length_a                   7.9674(5)
_cell_length_b                   10.2547(4)
_cell_length_c                   21.1565(10)
_cell_angle_alpha                90
_cell_angle_beta                 90
_cell_angle_gamma                90
_cell_volume                     1728.56
_exptl_crystal_colour            colorless
_exptl_crystal_description       block
_cell_formula_units_Z            4
loop_
_atom_site_label
_atom_site_type_symbol
_atom_site_fract_x
_atom_site_fract_y
_atom_site_fract_z
O1 O 0.3568(4) 0.5681(3) 0.68340(17)
H1 H 0.4365 0.5492 0.6607
O2 O 0.1641(2) 0.78506(19) 0.72120(11)
O3 O 0.1829(2) 0.84654(19) 0.84871(10)
O4 O 0.5317(2) 0.8203(2) 0.89902(10)
O5 O 0.5012(3) 0.5741(2) 0.77537(11)
O6 O 0.5676(3) 0.4745(2) 0.89262(13)
O7 O -0.0634(3) 0.6697(4) 0.74717(16)
O8 O 0.2965(3) 1.0428(2) 0.86741(13)
O9 O 0.3900(6) 0.7599(5) 0.98348(16)
O10 O 0.7773(5) 0.3749(4) 0.93863(18)
C1 C 0.4097(4) 0.6467(3) 0.73061(15)
H2 H 0.4825 0.7145 0.7129
C2 C 0.2635(3) 0.7111(3) 0.76432(14)
H3 H 0.1935 0.6438 0.7840
C3 C 0.3299(3) 0.8005(3) 0.81459(14)
H4 H 0.3894 0.8741 0.7953
C4 C 0.4446(3) 0.7282(3) 0.85924(14)
H5 H 0.3794 0.6675 0.8853
C5 C 0.5794(4) 0.6541(3) 0.82249(15)
H6 H 0.6544 0.7167 0.8018
C6 C -0.0019(4) 0.7571(4) 0.71884(17)
C7 C -0.0916(5) 0.8496(4) 0.6769(2)
H7 H -0.0607 0.9373 0.6877
H8 H -0.2105 0.8388 0.6821
H9 H -0.0618 0.8325 0.6337
C8 C 0.1812(4) 0.9698(3) 0.87074(15)
C9 C 0.0135(5) 0.9972(4) 0.9005(2)
H10 H 0.0078 1.0873 0.9126
H11 H -0.0004 0.9433 0.9372
H12 H -0.0741 0.9785 0.8707
C10 C 0.4932(5) 0.8282(4) 0.96060(17)
C11 C 0.5841(5) 0.9310(4) 0.9939(2)
H13 H 0.6170 0.9002 1.0349
H14 H 0.5128 1.0059 0.9985
H15 H 0.6822 0.9546 0.9701
C12 C 0.6815(4) 0.5639(3) 0.86339(18)
H16 H 0.7627 0.5170 0.8379
H17 H 0.7415 0.6133 0.8953
C13 C 0.6296(6) 0.3828(4) 0.92902(17)
C14 C 0.4987(9) 0.2948(4) 0.9538(2)
H18 H 0.5459 0.2402 0.9861
H19 H 0.4563 0.2415 0.9202
H20 H 0.4089 0.3456 0.9714
O11? O 0.4987(12) 0.7212(9) 0.6965(5)
H21? H 0.5662 0.6775 0.6763
H22? H 0.3600 0.5827 0.7017
loop_
_geom_bond_atom_site_label_1
_geom_bond_atom_site_label_2
_geom_bond_site_symmetry_1
_geom_bond_site_symmetry_2
O1 H1 1_555 1_555
O2 C2 1_555 1_555
O3 C3 1_555 1_555
O4 C4 1_555 1_555
O5 C1 1_555 1_555
O6 C12 1_555 1_555
O7 C6 1_555 1_555
O8 C8 1_555 1_555
O9 C10 1_555 1_555
O10 C13 1_555 1_555
C1 O1 1_555 1_555
H2 C1 1_555 1_555
C2 C1 1_555 1_555
H3 C2 1_555 1_555
C3 C2 1_555 1_555
H4 C3 1_555 1_555
C4 C3 1_555 1_555
H5 C4 1_555 1_555
C5 O5 1_555 1_555
H6 C5 1_555 1_555
C6 O2 1_555 1_555
C7 C6 1_555 1_555
H7 C7 1_555 1_555
H8 C7 1_555 1_555
H9 C7 1_555 1_555
C8 O3 1_555 1_555
C9 C8 1_555 1_555
H10 C9 1_555 1_555
H11 C9 1_555 1_555
H12 C9 1_555 1_555
C10 O4 1_555 1_555
C11 C10 1_555 1_555
H13 C11 1_555 1_555
H14 C11 1_555 1_555
H15 C11 1_555 1_555
C12 C5 1_555 1_555
H16 C12 1_555 1_555
H17 C12 1_555 1_555
C13 O6 1_555 1_555
C14 C13 1_555 1_555
H18 C14 1_555 1_555
H19 C14 1_555 1_555
H20 C14 1_555 1_555
C4 C5 1_555 1_555

#END
