
#######################################################################
#
#                 Cambridge Crystallographic Data Centre
#                                CCDC 
#
#######################################################################
#
# If this CIF has been generated from an entry in the Cambridge 
# Structural Database, then it will include bibliographic, chemical, 
# crystal, experimental, refinement or atomic coordinate data resulting 
# from the CCDC's data processing and validation procedures.
#
#######################################################################

data_VIWROJ
_chemical_formula_moiety         'C14 H20 O10'
_chemical_name_systematic        2,3,4,6-Tetra-O-acetyl-\b-D-glucopyranose
_symmetry_cell_setting           orthorhombic
_symmetry_space_group_name_H-M   'P 21 21 21'
_symmetry_Int_Tables_number      19
_space_group_name_Hall           'P 2ac 2ab'
loop_
_symmetry_equiv_pos_site_id
_symmetry_equiv_pos_as_xyz
1 x,y,z
2 1/2-x,-y,1/2+z
3 -x,1/2+y,1/2-z
4 1/2+x,1/2-y,-z
_cell_length_a                   7.8612(4)
_cell_length_b                   10.2045(5)
_cell_length_c                   20.7362(11)
_cell_angle_alpha                90
_cell_angle_beta                 90
_cell_angle_gamma                90
_cell_volume                     1663.45
_exptl_crystal_colour            colorless
_exptl_crystal_description       block
_chemical_melting_point          '405-407 K'
_cell_formula_units_Z            4
loop_
_atom_site_label
_atom_site_type_symbol
_atom_site_fract_x
_atom_site_fract_y
_atom_site_fract_z
O1 O 0.3606(5) 0.5659(4) 0.68131(18)
H1 H 0.4439 0.5385 0.6599
O2 O 0.1637(3) 0.7842(3) 0.71929(13)
O3 O 0.1820(3) 0.8460(3) 0.84905(13)
O4 O 0.5404(4) 0.8235(3) 0.90004(13)
O5 O 0.5083(4) 0.5752(3) 0.77512(13)
O6 O 0.5744(4) 0.4786(3) 0.89513(14)
O7 O -0.0612(4) 0.6550(4) 0.74231(17)
O8 O 0.2996(4) 1.0408(3) 0.87292(14)
O9 O 0.3749(5) 0.7779(5) 0.98532(16)
O10 O 0.7902(5) 0.3682(4) 0.93748(17)
C1 C 0.4161(6) 0.6487(5) 0.7279(2)
H2 H 0.4900 0.7184 0.7088
C2 C 0.2659(5) 0.7098(4) 0.7633(2)
H3 H 0.1956 0.6395 0.7837
C3 C 0.3319(5) 0.8023(4) 0.81460(19)
H4 H 0.3912 0.8785 0.7943
C4 C 0.4517(5) 0.7302(4) 0.85979(19)
H5 H 0.3855 0.6681 0.8874
C5 C 0.5866(6) 0.6551(4) 0.82222(19)
H6 H 0.6632 0.7193 0.8002
C6 C -0.0033(5) 0.7495(5) 0.7146(2)
C7 C -0.0996(6) 0.8416(6) 0.6745(3)
H7 H -0.1140 0.9244 0.6977
H8 H -0.2116 0.8043 0.6647
H9 H -0.0377 0.8575 0.6342
C8 C 0.1795(6) 0.9669(5) 0.87414(19)
C9 C 0.0117(6) 0.9951(5) 0.9040(2)
H10 H 0.0085 1.0867 0.9181
H11 H -0.0054 0.9374 0.9412
H12 H -0.0786 0.9799 0.8723
C10 C 0.4909(7) 0.8378(5) 0.9617(2)
C11 C 0.5939(6) 0.9388(5) 0.9955(2)
H13 H 0.6708 0.8961 1.0262
H14 H 0.5182 0.9987 1.0187
H15 H 0.6607 0.9882 0.9638
C12 C 0.6922(5) 0.5672(4) 0.8645(2)
H16 H 0.7761 0.5180 0.8384
H17 H 0.7541 0.6193 0.8973
C13 C 0.6418(6) 0.3809(5) 0.9297(2)
C14 C 0.5055(8) 0.2934(5) 0.9560(2)
H18 H 0.5472 0.2495 0.9950
H19 H 0.4752 0.2275 0.9236
H20 H 0.4050 0.3458 0.9667
loop_
_geom_bond_atom_site_label_1
_geom_bond_atom_site_label_2
_geom_bond_site_symmetry_1
_geom_bond_site_symmetry_2
O1 H1 1_555 1_555
O2 C2 1_555 1_555
O3 C3 1_555 1_555
O4 C4 1_555 1_555
O5 C1 1_555 1_555
O6 C12 1_555 1_555
O7 C6 1_555 1_555
O8 C8 1_555 1_555
O9 C10 1_555 1_555
O10 C13 1_555 1_555
C1 O1 1_555 1_555
H2 C1 1_555 1_555
C2 C1 1_555 1_555
H3 C2 1_555 1_555
C3 C2 1_555 1_555
H4 C3 1_555 1_555
C4 C3 1_555 1_555
H5 C4 1_555 1_555
C5 O5 1_555 1_555
H6 C5 1_555 1_555
C6 O2 1_555 1_555
C7 C6 1_555 1_555
H7 C7 1_555 1_555
H8 C7 1_555 1_555
H9 C7 1_555 1_555
C8 O3 1_555 1_555
C9 C8 1_555 1_555
H10 C9 1_555 1_555
H11 C9 1_555 1_555
H12 C9 1_555 1_555
C10 O4 1_555 1_555
C11 C10 1_555 1_555
H13 C11 1_555 1_555
H14 C11 1_555 1_555
H15 C11 1_555 1_555
C12 C5 1_555 1_555
H16 C12 1_555 1_555
H17 C12 1_555 1_555
C13 O6 1_555 1_555
C14 C13 1_555 1_555
H18 C14 1_555 1_555
H19 C14 1_555 1_555
H20 C14 1_555 1_555
C4 C5 1_555 1_555

#END
