
#######################################################################
#
#                 Cambridge Crystallographic Data Centre
#                                CCDC 
#
#######################################################################
#
# If this CIF has been generated from an entry in the Cambridge 
# Structural Database, then it will include bibliographic, chemical, 
# crystal, experimental, refinement or atomic coordinate data resulting 
# from the CCDC's data processing and validation procedures.
#
#######################################################################

data_VIXBEL
_chemical_formula_moiety         'C20 H24 N2 O3 S1'
_chemical_name_systematic        
3-Methoxy-N,N-dimethyl-2-(2-methylphenyl)-N'-((4-methylphenyl)sulfonyl)prop-2-enimidamide
_symmetry_cell_setting           monoclinic
_symmetry_space_group_name_H-M   'P 21/n'
_symmetry_Int_Tables_number      14
_space_group_name_Hall           '-P 2yn'
loop_
_symmetry_equiv_pos_site_id
_symmetry_equiv_pos_as_xyz
1 x,y,z
2 1/2-x,1/2+y,1/2-z
3 -x,-y,-z
4 1/2+x,1/2-y,1/2+z
_cell_length_a                   7.7286(3)
_cell_length_b                   19.9060(10)
_cell_length_c                   13.2464(7)
_cell_angle_alpha                90
_cell_angle_beta                 102.301(4)
_cell_angle_gamma                90
_cell_volume                     1991.11
_exptl_crystal_colour            colorless
_exptl_crystal_description       bloc
_cell_formula_units_Z            4
loop_
_atom_site_label
_atom_site_type_symbol
_atom_site_fract_x
_atom_site_fract_y
_atom_site_fract_z
S1 S 0.96114(9) 0.51607(5) 0.19745(6)
O1 O 0.8277(2) 0.55407(11) 0.23198(15)
O2 O 0.9019(2) 0.46079(11) 0.12746(16)
O3 O 0.6127(2) 0.60195(10) -0.06109(15)
N1 N 1.2004(3) 0.65288(12) 0.08424(17)
N2 N 1.1020(2) 0.56134(13) 0.15507(18)
C1 C 0.7252(6) 0.7349(2) -0.1253(4)
H1 H 0.7748 0.6916 -0.1343
H2 H 0.7896 0.7690 -0.1530
H3 H 0.6032 0.7358 -0.1608
C2 C 0.7376(4) 0.7477(2) -0.0118(5)
C3 C 0.6721(7) 0.8078(3) 0.0222(8)
H4 H 0.6182 0.8386 -0.0274
C4 C 0.6832(10) 0.8232(4) 0.1225(9)
C5 C 0.7674(7) 0.7800(3) 0.1966(5)
H5 H 0.7809 0.7912 0.2660
C6 C 0.8332(4) 0.7193(2) 0.1691(3)
H6 H 0.8884 0.6897 0.2202
C7 C 0.8172(3) 0.70261(17) 0.0659(3)
C8 C 0.5218(4) 0.55085(18) -0.1262(3)
H7 H 0.4020 0.5648 -0.1532
H8 H 0.5217 0.5102 -0.0871
H9 H 0.5802 0.5430 -0.1822
C9 C 0.7833(3) 0.58995(15) -0.0165(2)
H10 H 0.8328 0.5487 -0.0272
C10 C 0.8827(3) 0.63531(14) 0.0423(2)
C11 C 1.0641(3) 0.61388(16) 0.0963(2)
C12 C 1.1895(4) 0.70019(17) -0.0001(3)
H11 H 1.0681 0.7054 -0.0352
H12 H 1.2574 0.6837 -0.0477
H13 H 1.2359 0.7428 0.0268
C13 C 1.3792(3) 0.64021(17) 0.1444(2)
H14 H 1.3740 0.6081 0.1977
H15 H 1.4294 0.6814 0.1750
H16 H 1.4514 0.6228 0.0998
C14 C 1.4269(5) 0.3958(2) 0.5813(3)
H17 H 1.4272 0.4256 0.6383
H18 H 1.5460 0.3895 0.5726
H19 H 1.3779 0.3533 0.5949
C15 C 1.3155(4) 0.4258(2) 0.4834(3)
C16 C 1.2336(6) 0.4854(2) 0.4868(3)
H20 H 1.2511 0.5084 0.5493
C17 C 1.1244(5) 0.5136(2) 0.4009(3)
H21 H 1.0673 0.5541 0.4067
C18 C 1.1010(3) 0.48209(17) 0.3083(2)
C19 C 1.1847(5) 0.4223(2) 0.3042(3)
H22 H 1.1690 0.3995 0.2417
C20 C 1.2923(5) 0.3951(2) 0.3908(3)
H23 H 1.3500 0.3546 0.3853
loop_
_geom_bond_atom_site_label_1
_geom_bond_atom_site_label_2
_geom_bond_site_symmetry_1
_geom_bond_site_symmetry_2
S1 O1 1_555 1_555
O2 S1 1_555 1_555
O3 C8 1_555 1_555
N1 C11 1_555 1_555
N2 S1 1_555 1_555
C1 H1 1_555 1_555
H2 C1 1_555 1_555
H3 C1 1_555 1_555
C2 C1 1_555 1_555
C3 C2 1_555 1_555
H4 C3 1_555 1_555
C4 C3 1_555 1_555
C5 C4 1_555 1_555
H5 C5 1_555 1_555
C6 C5 1_555 1_555
H6 C6 1_555 1_555
C7 C2 1_555 1_555
C8 H7 1_555 1_555
H8 C8 1_555 1_555
H9 C8 1_555 1_555
C9 O3 1_555 1_555
H10 C9 1_555 1_555
C10 C7 1_555 1_555
C11 N2 1_555 1_555
C12 N1 1_555 1_555
H11 C12 1_555 1_555
H12 C12 1_555 1_555
H13 C12 1_555 1_555
C13 N1 1_555 1_555
H14 C13 1_555 1_555
H15 C13 1_555 1_555
H16 C13 1_555 1_555
C14 H17 1_555 1_555
H18 C14 1_555 1_555
H19 C14 1_555 1_555
C15 C14 1_555 1_555
C16 C15 1_555 1_555
H20 C16 1_555 1_555
C17 C16 1_555 1_555
H21 C17 1_555 1_555
C18 S1 1_555 1_555
C19 C18 1_555 1_555
H22 C19 1_555 1_555
C20 C15 1_555 1_555
H23 C20 1_555 1_555
C6 C7 1_555 1_555
C9 C10 1_555 1_555
C10 C11 1_555 1_555
C17 C18 1_555 1_555
C19 C20 1_555 1_555

#END
