
#######################################################################
#
#                 Cambridge Crystallographic Data Centre
#                                CCDC 
#
#######################################################################
#
# If this CIF has been generated from an entry in the Cambridge 
# Structural Database, then it will include bibliographic, chemical, 
# crystal, experimental, refinement or atomic coordinate data resulting 
# from the CCDC's data processing and validation procedures.
#
#######################################################################

data_VIXDUC
_chemical_name_common            
5,11,17,23-Tetra-t-butyl-25,26,27,28-bis(N-hexylcarbamoylmethoxy)-2,8,14,20-tetrathiacalix(4)arene
_chemical_formula_moiety         'C72 H108 N4 O8 S4'
_chemical_name_systematic        
5,11,17,23-Tetra-t-butyl-25,26,27,28-tetrakis(N-hexylcarbamoylmethoxy)-2,8,14,20-tetrathiapentacyclo(19.3.1.1^3,7^.1^9,13^.1^15,19^)octacosa-1(25),3,5,7(28),9,11,13(27),15,17,19(26),21,23-dodecaene
_symmetry_cell_setting           triclinic
_symmetry_space_group_name_H-M   'P -1'
_symmetry_Int_Tables_number      2
_space_group_name_Hall           '-P 1'
loop_
_symmetry_equiv_pos_site_id
_symmetry_equiv_pos_as_xyz
1 x,y,z
2 -x,-y,-z
_cell_length_a                   15.245(4)
_cell_length_b                   16.265(4)
_cell_length_c                   17.083(4)
_cell_angle_alpha                95.015(5)
_cell_angle_beta                 107.938(5)
_cell_angle_gamma                100.446(5)
_cell_volume                     3916.47
_exptl_crystal_colour            colorless
_exptl_crystal_description       block
_chemical_melting_point          '188 deg.C'
_cell_formula_units_Z            2
_exptl_crystal_recrystallization_method dichloromethane/acetonitrile
loop_
_atom_site_label
_atom_site_type_symbol
_atom_site_fract_x
_atom_site_fract_y
_atom_site_fract_z
S1 S 0.42910(11) 0.89761(10) 0.05420(8)
S2 S 0.47681(12) 0.99309(11) 0.38817(9)
S3 S 0.76575(13) 0.82592(12) 0.46031(11)
S4 S 0.70851(14) 0.71373(12) 0.12685(11)
O1 O 0.6305(3) 0.8690(2) 0.0911(2)
O2 O 0.7024(3) 0.8315(3) 0.2630(3)
O3 O 0.6773(3) 0.9754(3) 0.4381(2)
O4 O 0.3970(3) 0.8772(3) 0.2222(2)
O5 O 0.7349(4) 0.9643(4) -0.0463(3)
O6 O 0.8831(4) 0.8930(3) 0.2559(3)
O7 O 0.8292(3) 1.0932(3) 0.4581(3)
O8 O 0.2320(4) 0.8973(4) 0.2834(3)
N1 N 0.8006(4) 0.9253(4) 0.0792(4)
H1 H 0.7897 0.8991 0.1179
N2 N 0.9059(4) 0.9994(4) 0.3568(4)
H2 H 0.8792 1.0263 0.3852
N3 N 0.8465(4) 1.1390(4) 0.5897(4)
H3 H 0.8240 1.1344 0.6299
N4 N 0.2451(5) 0.9969(5) 0.2015(4)
H4 H 0.2617 1.0098 0.1596
C1 C 0.5620(5) 0.7977(4) 0.0876(3)
C2 C 0.4682(5) 0.8028(4) 0.0715(3)
C3 C 0.4018(5) 0.7295(4) 0.0632(4)
H5 H 0.3390 0.7330 0.0518
C4 C 0.4241(6) 0.6517(5) 0.0709(4)
C5 C 0.5192(6) 0.6498(4) 0.0920(4)
H6 H 0.5371 0.5987 0.1002
C6 C 0.5878(5) 0.7212(4) 0.1013(4)
C7 C 0.7337(4) 0.6994(4) 0.2335(4)
C8 C 0.7559(5) 0.6236(4) 0.2543(5)
H7 H 0.7533 0.5816 0.2126
C9 C 0.7819(5) 0.6091(4) 0.3365(5)
C10 C 0.7827(5) 0.6733(5) 0.3955(5)
H8 H 0.7991 0.6650 0.4509
C11 C 0.7602(4) 0.7497(4) 0.3761(4)
C12 C 0.7353(4) 0.7637(4) 0.2922(4)
C13 C 0.6440(5) 0.8263(5) 0.4413(4)
C14 C 0.5788(6) 0.7530(5) 0.4362(4)
H9 H 0.5994 0.7029 0.4437
C15 C 0.4829(6) 0.7522(5) 0.4200(4)
C16 C 0.4541(5) 0.8274(5) 0.4051(3)
H10 H 0.3903 0.8280 0.3911
C17 C 0.5175(4) 0.9001(4) 0.4107(3)
C18 C 0.6131(5) 0.9014(4) 0.4324(3)
C19 C 0.5063(4) 1.0065(4) 0.2961(3)
C20 C 0.5729(4) 1.0760(4) 0.2972(3)
H11 H 0.6027 1.1131 0.3469
C21 C 0.5986(4) 1.0943(4) 0.2278(4)
C22 C 0.5515(4) 1.0348(4) 0.1561(3)
H12 H 0.5659 1.0439 0.1080
C23 C 0.4858(4) 0.9644(4) 0.1524(3)
C24 C 0.4606(4) 0.9497(4) 0.2225(3)
C25 C 0.3469(6) 0.5699(5) 0.0521(6)
C26 C 0.3025(10) 0.5458(7) -0.0435(7)
H13 H 0.3514 0.5429 -0.0673
H14 H 0.2691 0.5878 -0.0657
H15 H 0.2592 0.4918 -0.0568
C27 C 0.2695(9) 0.5835(7) 0.0853(9)
H16 H 0.2249 0.5309 0.0764
H17 H 0.2381 0.6238 0.0569
H18 H 0.2960 0.6046 0.1438
C28 C 0.3879(10) 0.4948(7) 0.0837(12)
H19 H 0.4053 0.5016 0.1433
H20 H 0.4428 0.4928 0.0679
H21 H 0.3413 0.4432 0.0598
C29 C 0.8054(9) 0.5234(6) 0.3605(7)
C30 C 0.835(6) 0.520(3) 0.448(3)
C31 C 0.840(3) 0.484(2) 0.294(4)
C32 C 0.690(2) 0.4667(17) 0.340(3)
C36 C 0.4108(8) 0.6706(6) 0.4156(7)
C37 C 0.3565(12) 0.6901(9) 0.4760(13)
H22 H 0.2959 0.6517 0.4583
H23 H 0.3480 0.7472 0.4756
H24 H 0.3921 0.6835 0.5313
C38 C 0.3333(12) 0.6533(10) 0.3274(10)
H25 H 0.3620 0.6444 0.2854
H26 H 0.3045 0.7010 0.3191
H27 H 0.2861 0.6038 0.3235
C39 C 0.4542(10) 0.5979(7) 0.4387(14)
H28 H 0.4902 0.5869 0.4032
H29 H 0.4055 0.5488 0.4322
H30 H 0.4952 0.6108 0.4956
C40 C 0.6737(5) 1.1707(4) 0.2292(4)
C41 C 0.7226(6) 1.2209(5) 0.3148(4)
H31 H 0.6789 1.2478 0.3319
H32 H 0.7750 1.2632 0.3140
H33 H 0.7451 1.1837 0.3533
C42 C 0.6273(6) 1.2272(5) 0.1696(5)
H34 H 0.5939 1.1943 0.1157
H35 H 0.6751 1.2723 0.1654
H36 H 0.5838 1.2505 0.1904
C43 C 0.7489(6) 1.1400(6) 0.1984(6)
H37 H 0.7806 1.1064 0.2367
H38 H 0.7940 1.1879 0.1951
H39 H 0.7189 1.1064 0.1444
C44 C 0.6321(5) 0.8885(5) 0.0123(4)
H40 H 0.5891 0.9255 -0.0063
H41 H 0.6096 0.8367 -0.0275
C45 C 0.7270(6) 0.9297(5) 0.0135(5)
C46 C 0.8993(7) 0.9633(9) 0.0886(7)
H42 H 0.9278 0.9987 0.1426
H43 H 0.8989 0.9999 0.0467
C47 C 0.9624(11) 0.9021(12) 0.0814(15)
H44 H 1.0249 0.9337 0.0868
H45 H 0.9687 0.8682 0.1260
C48 C 0.9203(19) 0.845(2) -0.0020(15)
C49 C 1.0262(18) 0.845(2) 0.0297(15)
C51 C 1.0168(16) 0.7822(15) -0.0472(15)
C52 C 1.1002(12) 0.7474(13) -0.0584(11)
H46 H 1.1284 0.7228 -0.0103
H47 H 1.1463 0.7926 -0.0648
H48 H 1.0778 0.7050 -0.1070
C53 C 0.7513(5) 0.9159(4) 0.2949(4)
H49 H 0.7467 0.9300 0.3497
H50 H 0.7200 0.9526 0.2594
C54 C 0.8526(5) 0.9342(5) 0.3020(4)
C55 C 1.0040(7) 1.0296(6) 0.3734(6)
H51 H 1.0290 0.9857 0.3510
H52 H 1.0357 1.0415 0.4331
C56 C 1.0259(7) 1.1094(8) 0.3359(7)
H53 H 1.0925 1.1211 0.3415
H54 H 0.9903 1.0981 0.2768
C57 C 1.0046(7) 1.1883(7) 0.3734(7)
H55 H 1.0412 1.1990 0.4323
H56 H 0.9385 1.1749 0.3693
C58 C 1.0222(11) 1.2721(11) 0.3387(12)
C59 C 1.1202(14) 1.3141(16) 0.337(2)
C61 C 1.1020(17) 1.4000(10) 0.3116(12)
C62 C 0.7216(5) 1.0214(4) 0.5186(4)
H57 H 0.7441 0.9838 0.5575
H58 H 0.6768 1.0473 0.5361
C63 C 0.8026(5) 1.0882(4) 0.5183(4)
C64 C 0.9326(8) 1.2029(7) 0.6024(6)
H59 H 0.9177 1.2448 0.5663
H60 H 0.9781 1.1762 0.5870
C65 C 0.9766(9) 1.2469(9) 0.6924(9)
H61 H 0.9825 1.2047 0.7293
H62 H 1.0396 1.2796 0.7007
C66 C 0.9179(14) 1.3047(14) 0.714(2)
C67 C 0.999(3) 1.345(6) 0.796(3)
C68 C 0.931(3) 1.390(5) 0.825(5)
C71 C 0.9928(19) 1.4606(16) 0.897(2)
C72 C 0.2992(5) 0.8703(5) 0.1768(4)
H63 H 0.2660 0.8116 0.1663
H64 H 0.2932 0.8894 0.1236
C73 C 0.2548(4) 0.9230(6) 0.2251(4)
C74 C 0.2082(7) 1.0573(7) 0.2421(6)
H65 H 0.1700 1.0278 0.2715
H66 H 0.1674 1.0827 0.2001
C75 C 0.2859(10) 1.1275(8) 0.3039(8)
H67 H 0.3404 1.1075 0.3355
H68 H 0.2631 1.1602 0.3407
C76 C 0.302(4) 1.173(2) 0.2332(18)
C77 C 0.390(2) 1.232(4) 0.298(2)
C79 C 0.345(3) 1.309(3) 0.285(3)
C80 C 0.414(3) 1.338(2) 0.237(2)
H69 H 0.4405 1.2920 0.2237
H70 H 0.4630 1.3845 0.2707
H71 H 0.3795 1.3560 0.1863
C33? C 0.9220(18) 0.551(2) 0.419(2)
C34? C 0.804(3) 0.458(2) 0.290(3)
C35? C 0.752(3) 0.489(2) 0.408(2)
C50? C 0.990(4) 0.799(4) -0.010(4)
C60? C 1.053(3) 1.3214(19) 0.339(2)
C69? C 0.975(6) 1.389(5) 0.804(4)
C70? C 0.983(6) 1.356(5) 0.843(6)
C78? C 0.325(4) 1.212(6) 0.251(5)
loop_
_geom_bond_atom_site_label_1
_geom_bond_atom_site_label_2
_geom_bond_site_symmetry_1
_geom_bond_site_symmetry_2
S1 C2 1_555 1_555
S2 C17 1_555 1_555
S3 C11 1_555 1_555
S4 C6 1_555 1_555
O1 C1 1_555 1_555
O2 C12 1_555 1_555
O3 C18 1_555 1_555
O4 C24 1_555 1_555
O5 C45 1_555 1_555
O6 C54 1_555 1_555
O7 C63 1_555 1_555
O8 C73 1_555 1_555
N1 H1 1_555 1_555
N2 H2 1_555 1_555
N3 H3 1_555 1_555
N4 H4 1_555 1_555
C1 C2 1_555 1_555
C2 C3 1_555 1_555
C3 H5 1_555 1_555
C4 C3 1_555 1_555
C5 C4 1_555 1_555
H6 C5 1_555 1_555
C6 C1 1_555 1_555
C7 S4 1_555 1_555
C8 C7 1_555 1_555
H7 C8 1_555 1_555
C9 C8 1_555 1_555
C10 C9 1_555 1_555
H8 C10 1_555 1_555
C11 C10 1_555 1_555
C12 C7 1_555 1_555
C13 S3 1_555 1_555
C14 C13 1_555 1_555
H9 C14 1_555 1_555
C15 C14 1_555 1_555
C16 C15 1_555 1_555
H10 C16 1_555 1_555
C17 C16 1_555 1_555
C18 C13 1_555 1_555
C19 S2 1_555 1_555
C20 C19 1_555 1_555
H11 C20 1_555 1_555
C21 C20 1_555 1_555
C22 C21 1_555 1_555
H12 C22 1_555 1_555
C23 S1 1_555 1_555
C24 C19 1_555 1_555
C25 C4 1_555 1_555
C26 C25 1_555 1_555
H13 C26 1_555 1_555
H14 C26 1_555 1_555
H15 C26 1_555 1_555
C27 C25 1_555 1_555
H16 C27 1_555 1_555
H17 C27 1_555 1_555
H18 C27 1_555 1_555
C28 C25 1_555 1_555
H19 C28 1_555 1_555
H20 C28 1_555 1_555
H21 C28 1_555 1_555
C29 C9 1_555 1_555
C30 C29 1_555 1_555
C31 C29 1_555 1_555
C32 C29 1_555 1_555
C36 C15 1_555 1_555
C37 C36 1_555 1_555
H22 C37 1_555 1_555
H23 C37 1_555 1_555
H24 C37 1_555 1_555
C38 C36 1_555 1_555
H25 C38 1_555 1_555
H26 C38 1_555 1_555
H27 C38 1_555 1_555
C39 C36 1_555 1_555
H28 C39 1_555 1_555
H29 C39 1_555 1_555
H30 C39 1_555 1_555
C40 C21 1_555 1_555
C41 C40 1_555 1_555
H31 C41 1_555 1_555
H32 C41 1_555 1_555
H33 C41 1_555 1_555
C42 C40 1_555 1_555
H34 C42 1_555 1_555
H35 C42 1_555 1_555
H36 C42 1_555 1_555
C43 C40 1_555 1_555
H37 C43 1_555 1_555
H38 C43 1_555 1_555
H39 C43 1_555 1_555
C44 O1 1_555 1_555
H40 C44 1_555 1_555
H41 C44 1_555 1_555
C45 N1 1_555 1_555
C46 N1 1_555 1_555
H42 C46 1_555 1_555
H43 C46 1_555 1_555
C47 C46 1_555 1_555
H44 C47 1_555 1_555
H45 C47 1_555 1_555
C48 C47 1_555 1_555
C49 C48 1_555 1_555
C51 C49 1_555 1_555
C52 C51 1_555 1_555
H46 C52 1_555 1_555
H47 C52 1_555 1_555
H48 C52 1_555 1_555
C53 O2 1_555 1_555
H49 C53 1_555 1_555
H50 C53 1_555 1_555
C54 N2 1_555 1_555
C55 N2 1_555 1_555
H51 C55 1_555 1_555
H52 C55 1_555 1_555
C56 C55 1_555 1_555
H53 C56 1_555 1_555
H54 C56 1_555 1_555
C57 C56 1_555 1_555
H55 C57 1_555 1_555
H56 C57 1_555 1_555
C58 C57 1_555 1_555
C59 C58 1_555 1_555
C61 C59 1_555 1_555
C62 O3 1_555 1_555
H57 C62 1_555 1_555
H58 C62 1_555 1_555
C63 N3 1_555 1_555
C64 N3 1_555 1_555
H59 C64 1_555 1_555
H60 C64 1_555 1_555
C65 C64 1_555 1_555
H61 C65 1_555 1_555
H62 C65 1_555 1_555
C66 C65 1_555 1_555
C67 C66 1_555 1_555
C68 C67 1_555 1_555
C71 C68 1_555 1_555
C72 O4 1_555 1_555
H63 C72 1_555 1_555
H64 C72 1_555 1_555
C73 N4 1_555 1_555
C74 N4 1_555 1_555
H65 C74 1_555 1_555
H66 C74 1_555 1_555
C75 C74 1_555 1_555
H67 C75 1_555 1_555
H68 C75 1_555 1_555
C76 C75 1_555 1_555
C77 C76 1_555 1_555
C79 C77 1_555 1_555
C80 C79 1_555 1_555
H69 C80 1_555 1_555
H70 C80 1_555 1_555
H71 C80 1_555 1_555
C5 C6 1_555 1_555
C11 C12 1_555 1_555
C17 C18 1_555 1_555
C22 C23 1_555 1_555
C23 C24 1_555 1_555
C44 C45 1_555 1_555
C53 C54 1_555 1_555
C62 C63 1_555 1_555
C72 C73 1_555 1_555

#END
