
#######################################################################
#
#                 Cambridge Crystallographic Data Centre
#                                CCDC 
#
#######################################################################
#
# If this CIF has been generated from an entry in the Cambridge 
# Structural Database, then it will include bibliographic, chemical, 
# crystal, experimental, refinement or atomic coordinate data resulting 
# from the CCDC's data processing and validation procedures.
#
#######################################################################

data_VIXPUO
_chemical_formula_moiety         'C23 H15 Cl2 N3 O2'
_chemical_name_systematic        
'Ethyl 3-amino-5,6-bis(4-chlorophenyl)-2,4-dicyanobenzoate'
_symmetry_cell_setting           triclinic
_symmetry_space_group_name_H-M   'P -1'
_symmetry_Int_Tables_number      2
_space_group_name_Hall           '-P 1'
loop_
_symmetry_equiv_pos_site_id
_symmetry_equiv_pos_as_xyz
1 x,y,z
2 -x,-y,-z
_cell_length_a                   7.6007(9)
_cell_length_b                   10.6932(13)
_cell_length_c                   14.3335(17)
_cell_angle_alpha                68.723(1)
_cell_angle_beta                 85.519(1)
_cell_angle_gamma                74.003(1)
_cell_volume                     1043.21
_exptl_crystal_colour            yellow
_exptl_crystal_description       block
_chemical_melting_point          '231-232 deg.C'
_cell_formula_units_Z            2
_exptl_crystal_recrystallization_method ethanol
loop_
_atom_site_label
_atom_site_type_symbol
_atom_site_fract_x
_atom_site_fract_y
_atom_site_fract_z
Cl1 Cl -0.37531(8) 1.12589(8) 0.41516(5)
Cl2 Cl 0.19250(10) 0.31294(7) 0.49501(6)
C1 C 0.5891(2) 0.7916(2) 0.18498(14)
C2 C 0.6612(2) 0.8983(2) 0.12011(14)
C3 C 0.5723(2) 1.0384(2) 0.10366(14)
C4 C 0.4095(2) 1.06509(19) 0.15646(14)
C5 C 0.3345(2) 0.95926(19) 0.22028(13)
C6 C 0.4247(2) 0.8193(2) 0.23398(13)
C7 C 0.7021(3) 0.6437(2) 0.20666(16)
C8 C 0.8281(5) 0.4718(4) 0.1354(4)
H1 H 0.9259 0.4850 0.0882
H2 H 0.8832 0.4257 0.2022
C9 C 0.7394(6) 0.3883(3) 0.1168(4)
H3 H 0.6530 0.3649 0.1684
H4 H 0.8268 0.3047 0.1158
H5 H 0.6761 0.4364 0.0531
C10 C 0.8313(3) 0.8662(2) 0.07103(15)
C11 C 0.3244(3) 1.2092(2) 0.14157(16)
C12 C 0.1604(2) 0.99708(19) 0.27156(13)
C13 C 0.1434(3) 1.0792(2) 0.32986(15)
H6 H 0.2433 1.1085 0.3386
C14 C -0.0201(3) 1.1180(2) 0.37496(16)
H7 H -0.0305 1.1730 0.4137
C15 C -0.1671(3) 1.0739(2) 0.36169(15)
C16 C -0.1538(3) 0.9903(2) 0.30655(15)
H8 H -0.2534 0.9595 0.2996
C17 C 0.0102(3) 0.9524(2) 0.26124(15)
H9 H 0.0198 0.8963 0.2234
C18 C 0.3534(2) 0.69976(19) 0.29910(14)
C19 C 0.3326(3) 0.6710(2) 0.40101(15)
H10 H 0.3550 0.7308 0.4294
C20 C 0.2789(3) 0.5537(2) 0.46110(16)
H11 H 0.2640 0.5352 0.5294
C21 C 0.2479(3) 0.4654(2) 0.41848(18)
C22 C 0.2626(3) 0.4928(2) 0.31692(19)
H12 H 0.2381 0.4332 0.2889
C23 C 0.3144(3) 0.6106(2) 0.25757(17)
H13 H 0.3234 0.6308 0.1888
N1 N 0.9676(3) 0.8459(2) 0.03230(17)
N2 N 0.6391(2) 1.14295(18) 0.04055(13)
H14 H 0.7384 1.1243 0.0093
H15 H 0.5821 1.2281 0.0317
N3 N 0.2702(3) 1.3254(2) 0.12687(18)
O1 O 0.7789(3) 0.5722(2) 0.28415(14)
O2 O 0.7078(2) 0.60743(17) 0.12779(14)
loop_
_geom_bond_atom_site_label_1
_geom_bond_atom_site_label_2
_geom_bond_site_symmetry_1
_geom_bond_site_symmetry_2
Cl1 C15 1_555 1_555
Cl2 C21 1_555 1_555
C1 C2 1_555 1_555
C2 C3 1_555 1_555
C3 C4 1_555 1_555
C4 C5 1_555 1_555
C5 C6 1_555 1_555
C6 C1 1_555 1_555
C7 C1 1_555 1_555
C8 H1 1_555 1_555
H2 C8 1_555 1_555
C9 C8 1_555 1_555
H3 C9 1_555 1_555
H4 C9 1_555 1_555
H5 C9 1_555 1_555
C10 C2 1_555 1_555
C11 C4 1_555 1_555
C12 C5 1_555 1_555
C13 C12 1_555 1_555
H6 C13 1_555 1_555
C14 C13 1_555 1_555
H7 C14 1_555 1_555
C15 C14 1_555 1_555
C16 C15 1_555 1_555
H8 C16 1_555 1_555
C17 C12 1_555 1_555
H9 C17 1_555 1_555
C18 C6 1_555 1_555
C19 C18 1_555 1_555
H10 C19 1_555 1_555
C20 C19 1_555 1_555
H11 C20 1_555 1_555
C21 C20 1_555 1_555
C22 C21 1_555 1_555
H12 C22 1_555 1_555
C23 C18 1_555 1_555
H13 C23 1_555 1_555
N1 C10 1_555 1_555
N2 C3 1_555 1_555
H14 N2 1_555 1_555
H15 N2 1_555 1_555
N3 C11 1_555 1_555
O1 C7 1_555 1_555
O2 C7 1_555 1_555
C8 O2 1_555 1_555
C16 C17 1_555 1_555
C22 C23 1_555 1_555

#END
