
#######################################################################
#
#                 Cambridge Crystallographic Data Centre
#                                CCDC 
#
#######################################################################
#
# If this CIF has been generated from an entry in the Cambridge 
# Structural Database, then it will include bibliographic, chemical, 
# crystal, experimental, refinement or atomic coordinate data resulting 
# from the CCDC's data processing and validation procedures.
#
#######################################################################

data_VIXPIC
_chemical_formula_moiety         'C23 H17 N3 O2'
_chemical_name_systematic        
'Ethyl 3-amino-2,4-dicyano-5,6-diphenylbenzoate'
_symmetry_cell_setting           monoclinic
_symmetry_space_group_name_H-M   'P 21/n'
_symmetry_Int_Tables_number      14
_space_group_name_Hall           '-P 2yn'
loop_
_symmetry_equiv_pos_site_id
_symmetry_equiv_pos_as_xyz
1 x,y,z
2 1/2-x,1/2+y,1/2-z
3 -x,-y,-z
4 1/2+x,1/2-y,1/2+z
_cell_length_a                   10.2906(16)
_cell_length_b                   9.6726(15)
_cell_length_c                   38.429(6)
_cell_angle_alpha                90
_cell_angle_beta                 92.455(2)
_cell_angle_gamma                90
_cell_volume                     3821.59
_exptl_crystal_colour            yellow
_exptl_crystal_description       block
_chemical_melting_point          '151-152 deg.C'
_cell_formula_units_Z            8
_exptl_crystal_recrystallization_method ethanol
loop_
_atom_site_label
_atom_site_type_symbol
_atom_site_fract_x
_atom_site_fract_y
_atom_site_fract_z
C1 C 0.5471(3) 0.7210(3) 0.74496(7)
C2 C 0.6092(3) 0.8264(3) 0.76418(7)
C3 C 0.6432(3) 0.8074(3) 0.79977(7)
C4 C 0.6118(3) 0.6801(3) 0.81439(7)
C5 C 0.5428(3) 0.5771(3) 0.79575(7)
C6 C 0.5082(3) 0.5981(3) 0.76039(7)
C7 C 0.5428(3) 0.7315(4) 0.70597(8)
C8 C 0.5002(5) 0.8689(4) 0.65573(9)
H1 H 0.5870 0.8430 0.6493
H2 H 0.4380 0.8127 0.6423
C9 C 0.4786(5) 1.0080(5) 0.64851(11)
H3 H 0.3934 1.0335 0.6555
H4 H 0.4847 1.0238 0.6240
H5 H 0.5426 1.0628 0.6611
C10 C 0.6421(3) 0.9558(3) 0.74903(7)
C11 C 0.6568(3) 0.6549(3) 0.84992(8)
C12 C 0.5129(3) 0.4458(3) 0.81429(7)
C13 C 0.6123(4) 0.3620(3) 0.82578(9)
H6 H 0.6970 0.3848 0.8205
C14 C 0.5908(5) 0.2438(4) 0.84508(10)
H7 H 0.6604 0.1891 0.8529
C15 C 0.4679(5) 0.2083(4) 0.85246(11)
H8 H 0.4526 0.1295 0.8655
C16 C 0.3658(5) 0.2894(5) 0.84054(12)
H9 H 0.2812 0.2642 0.8454
C17 C 0.3875(4) 0.4107(4) 0.82103(9)
H10 H 0.3182 0.4654 0.8130
C18 C 0.4276(3) 0.4958(3) 0.73986(7)
C19 C 0.4646(3) 0.3587(3) 0.73700(8)
H11 H 0.5438 0.3294 0.7470
C20 C 0.3844(4) 0.2655(4) 0.71944(9)
H12 H 0.4094 0.1733 0.7179
C21 C 0.2681(4) 0.3077(4) 0.70423(9)
H13 H 0.2143 0.2444 0.6924
C22 C 0.2315(4) 0.4433(4) 0.70650(9)
H14 H 0.1532 0.4723 0.6959
C23 C 0.3097(3) 0.5372(4) 0.72433(8)
H15 H 0.2835 0.6288 0.7260
N1 N 0.6695(3) 1.0628(3) 0.73909(7)
N2 N 0.7055(3) 0.9073(3) 0.81843(6)
H31 H 0.7272 0.8935 0.8400
H32 H 0.7236 0.9847 0.8088
N3 N 0.6985(3) 0.6421(3) 0.87772(7)
O1 O 0.5963(2) 0.6476(3) 0.68792(6)
O2 O 0.4858(2) 0.8441(2) 0.69408(6)
C24 C 0.8257(3) -0.0961(3) 0.03401(7)
C25 C 0.8545(3) -0.2038(3) 0.01141(7)
C26 C 0.8208(3) -0.1952(3) -0.02447(7)
C27 C 0.7607(3) -0.0712(3) -0.03599(7)
C28 C 0.7317(3) 0.0371(3) -0.01326(7)
C29 C 0.7630(3) 0.0237(3) 0.02257(7)
C30 C 0.8630(3) -0.1145(3) 0.07183(8)
C31 C 0.9662(4) -0.0059(4) 0.12109(8)
H16 H 1.0448 -0.0573 0.1272
H17 H 0.8950 -0.0458 0.1334
C32 C 0.9830(4) 0.1404(4) 0.13061(9)
H18 H 1.0517 0.1797 0.1177
H19 H 1.0048 0.1476 0.1551
H20 H 0.9036 0.1895 0.1253
C33 C 0.9202(3) -0.3261(3) 0.02435(8)
C34 C 0.7291(3) -0.0560(3) -0.07253(8)
C35 C 0.6703(3) 0.1651(3) -0.02778(7)
C36 C 0.7355(4) 0.2446(3) -0.05137(8)
H21 H 0.8163 0.2158 -0.0586
C37 C 0.6825(5) 0.3650(4) -0.06420(10)
H22 H 0.7278 0.4181 -0.0798
C38 C 0.5632(5) 0.4072(4) -0.05409(13)
H23 H 0.5276 0.4893 -0.0627
C39 C 0.4958(4) 0.3289(5) -0.03125(13)
H24 H 0.4140 0.3573 -0.0247
C40 C 0.5493(4) 0.2074(4) -0.01791(10)
H25 H 0.5037 0.1545 -0.0023
C41 C 0.7259(3) 0.1311(3) 0.04807(7)
C42 C 0.7761(3) 0.2652(3) 0.04734(8)
H26 H 0.8330 0.2899 0.0302
C43 C 0.7417(4) 0.3611(4) 0.07190(9)
H27 H 0.7759 0.4500 0.0714
C44 C 0.6569(4) 0.3256(4) 0.09709(9)
H28 H 0.6338 0.3908 0.1135
C45 C 0.6061(3) 0.1948(4) 0.09813(9)
H29 H 0.5492 0.1709 0.1153
C46 C 0.6400(3) 0.0983(3) 0.07353(8)
H30 H 0.6045 0.0099 0.0741
N4 N 0.9743(3) -0.4224(3) 0.03375(8)
N5 N 0.8446(3) -0.2993(3) -0.04661(6)
H33 H 0.8814 -0.3738 -0.0390
H34 H 0.8230 -0.2913 -0.0684
N6 N 0.7058(3) -0.0467(3) -0.10165(7)
O3 O 0.8291(3) -0.2103(3) 0.08888(6)
O4 O 0.9383(2) -0.0125(2) 0.08341(5)
loop_
_geom_bond_atom_site_label_1
_geom_bond_atom_site_label_2
_geom_bond_site_symmetry_1
_geom_bond_site_symmetry_2
C1 C2 1_555 1_555
C2 C3 1_555 1_555
C3 C4 1_555 1_555
C4 C5 1_555 1_555
C5 C6 1_555 1_555
C6 C1 1_555 1_555
C7 C1 1_555 1_555
C8 H1 1_555 1_555
H2 C8 1_555 1_555
C9 C8 1_555 1_555
H3 C9 1_555 1_555
H4 C9 1_555 1_555
H5 C9 1_555 1_555
C10 C2 1_555 1_555
C11 C4 1_555 1_555
C12 C5 1_555 1_555
C13 C12 1_555 1_555
H6 C13 1_555 1_555
C14 C13 1_555 1_555
H7 C14 1_555 1_555
C15 C14 1_555 1_555
H8 C15 1_555 1_555
C16 C15 1_555 1_555
H9 C16 1_555 1_555
C17 C12 1_555 1_555
H10 C17 1_555 1_555
C18 C6 1_555 1_555
C19 C18 1_555 1_555
H11 C19 1_555 1_555
C20 C19 1_555 1_555
H12 C20 1_555 1_555
C21 C20 1_555 1_555
H13 C21 1_555 1_555
C22 C21 1_555 1_555
H14 C22 1_555 1_555
C23 C18 1_555 1_555
H15 C23 1_555 1_555
C24 C25 1_555 1_555
C25 C26 1_555 1_555
C26 C27 1_555 1_555
C27 C28 1_555 1_555
C28 C29 1_555 1_555
C29 C24 1_555 1_555
C30 C24 1_555 1_555
C31 H16 1_555 1_555
H17 C31 1_555 1_555
C32 C31 1_555 1_555
H18 C32 1_555 1_555
H19 C32 1_555 1_555
H20 C32 1_555 1_555
C33 C25 1_555 1_555
C34 C27 1_555 1_555
C35 C28 1_555 1_555
C36 C35 1_555 1_555
H21 C36 1_555 1_555
C37 C36 1_555 1_555
H22 C37 1_555 1_555
C38 C37 1_555 1_555
H23 C38 1_555 1_555
C39 C38 1_555 1_555
H24 C39 1_555 1_555
C40 C35 1_555 1_555
H25 C40 1_555 1_555
C41 C29 1_555 1_555
C42 C41 1_555 1_555
H26 C42 1_555 1_555
C43 C42 1_555 1_555
H27 C43 1_555 1_555
C44 C43 1_555 1_555
H28 C44 1_555 1_555
C45 C44 1_555 1_555
H29 C45 1_555 1_555
C46 C41 1_555 1_555
H30 C46 1_555 1_555
N1 C10 1_555 1_555
N2 C3 1_555 1_555
H31 N2 1_555 1_555
H32 N2 1_555 1_555
N3 C11 1_555 1_555
N4 C33 1_555 1_555
N5 C26 1_555 1_555
H33 N5 1_555 1_555
H34 N5 1_555 1_555
N6 C34 1_555 1_555
O1 C7 1_555 1_555
O2 C7 1_555 1_555
O3 C30 1_555 1_555
O4 C30 1_555 1_555
C8 O2 1_555 1_555
C16 C17 1_555 1_555
C22 C23 1_555 1_555
C31 O4 1_555 1_555
C39 C40 1_555 1_555
C45 C46 1_555 1_555

#END
