
#######################################################################
#
#                 Cambridge Crystallographic Data Centre
#                                CCDC 
#
#######################################################################
#
# If this CIF has been generated from an entry in the Cambridge 
# Structural Database, then it will include bibliographic, chemical, 
# crystal, experimental, refinement or atomic coordinate data resulting 
# from the CCDC's data processing and validation procedures.
#
#######################################################################

data_VIXPOI
_chemical_formula_moiety         'C25 H21 N3 O2'
_chemical_name_systematic        
'Ethyl 3-amino-2,4-dicyano-5,6-bis(4-methylphenyl)benzoate'
_symmetry_cell_setting           triclinic
_symmetry_space_group_name_H-M   'P -1'
_symmetry_Int_Tables_number      2
_space_group_name_Hall           '-P 1'
loop_
_symmetry_equiv_pos_site_id
_symmetry_equiv_pos_as_xyz
1 x,y,z
2 -x,-y,-z
_cell_length_a                   7.7356(11)
_cell_length_b                   10.7613(15)
_cell_length_c                   14.462(2)
_cell_angle_alpha                68.201(2)
_cell_angle_beta                 82.240(2)
_cell_angle_gamma                73.073(2)
_cell_volume                     1068.89
_exptl_crystal_colour            yellow
_exptl_crystal_description       block
_chemical_melting_point          '190-191 deg.C'
_cell_formula_units_Z            2
_exptl_crystal_recrystallization_method ethanol
loop_
_atom_site_label
_atom_site_type_symbol
_atom_site_fract_x
_atom_site_fract_y
_atom_site_fract_z
C1 C -0.09506(19) 0.52610(15) 0.18213(11)
C2 C -0.16607(19) 0.48433(15) 0.11781(11)
C3 C -0.0766(2) 0.36064(15) 0.10055(11)
C4 C 0.08538(19) 0.28181(15) 0.15172(11)
C5 C 0.15958(19) 0.32495(15) 0.21458(11)
C6 C 0.06847(19) 0.44998(15) 0.22945(11)
C7 C -0.2086(2) 0.65107(17) 0.20594(13)
C8 C -0.3336(4) 0.8939(2) 0.1389(3)
H1 H -0.4369 0.9253 0.0969
H2 H -0.3783 0.8751 0.2073
C9 C -0.2454(5) 0.9987(3) 0.1124(3)
H3 H -0.1479 0.9705 0.1565
H4 H -0.3293 1.0818 0.1173
H5 H -0.1983 1.0161 0.0452
C10 C -0.3346(2) 0.56431(16) 0.07022(12)
C11 C 0.1705(2) 0.15216(18) 0.13695(13)
C12 C 0.33308(19) 0.23684(15) 0.26438(11)
C13 C 0.3535(2) 0.09804(17) 0.32282(12)
H6 H 0.2573 0.0589 0.3314
C14 C 0.5150(2) 0.01722(18) 0.36842(13)
H7 H 0.5251 -0.0752 0.4076
C15 C 0.6618(2) 0.07138(19) 0.35677(12)
C16 C 0.6404(2) 0.20961(19) 0.29960(12)
H8 H 0.7365 0.2486 0.2916
C17 C 0.4797(2) 0.29160(17) 0.25383(12)
H9 H 0.4696 0.3844 0.2156
C18 C 0.8398(3) -0.0182(3) 0.40423(18)
H10 H 0.8174 -0.0777 0.4704
H11 H 0.9110 0.0399 0.4072
H12 H 0.9040 -0.0735 0.3652
C19 C 0.13817(19) 0.50391(15) 0.29445(11)
C20 C 0.1590(2) 0.43103(18) 0.39571(12)
H13 H 0.1354 0.3444 0.4235
C21 C 0.2144(2) 0.4859(2) 0.45590(14)
H14 H 0.2280 0.4352 0.5236
C22 C 0.2499(2) 0.6143(2) 0.41729(15)
C23 C 0.2322(3) 0.6861(2) 0.31574(16)
H15 H 0.2575 0.7721 0.2880
C24 C 0.1775(2) 0.63197(18) 0.25497(14)
H16 H 0.1670 0.6818 0.1870
C25 C 0.3040(4) 0.6751(3) 0.4850(2)
H17 H 0.2075 0.7523 0.4899
H18 H 0.4108 0.7058 0.4577
H19 H 0.3278 0.6055 0.5500
N1 N -0.4697(2) 0.62313(16) 0.03222(13)
N2 N -0.14184(19) 0.31847(15) 0.03828(11)
H20 H -0.2407 0.3678 0.0080
H21 H -0.0845 0.2424 0.0290
N3 N 0.2242(3) 0.04929(19) 0.12341(15)
O1 O -0.2839(2) 0.64357(16) 0.28428(11)
O2 O -0.21523(18) 0.76606(12) 0.12868(11)
loop_
_geom_bond_atom_site_label_1
_geom_bond_atom_site_label_2
_geom_bond_site_symmetry_1
_geom_bond_site_symmetry_2
C1 C2 1_555 1_555
C2 C3 1_555 1_555
C3 C4 1_555 1_555
C4 C5 1_555 1_555
C5 C6 1_555 1_555
C6 C1 1_555 1_555
C7 C1 1_555 1_555
C8 H1 1_555 1_555
H2 C8 1_555 1_555
C9 C8 1_555 1_555
H3 C9 1_555 1_555
H4 C9 1_555 1_555
H5 C9 1_555 1_555
C10 C2 1_555 1_555
C11 C4 1_555 1_555
C12 C5 1_555 1_555
C13 C12 1_555 1_555
H6 C13 1_555 1_555
C14 C13 1_555 1_555
H7 C14 1_555 1_555
C15 C14 1_555 1_555
C16 C15 1_555 1_555
H8 C16 1_555 1_555
C17 C12 1_555 1_555
H9 C17 1_555 1_555
C18 C15 1_555 1_555
H10 C18 1_555 1_555
H11 C18 1_555 1_555
H12 C18 1_555 1_555
C19 C6 1_555 1_555
C20 C19 1_555 1_555
H13 C20 1_555 1_555
C21 C20 1_555 1_555
H14 C21 1_555 1_555
C22 C21 1_555 1_555
C23 C22 1_555 1_555
H15 C23 1_555 1_555
C24 C19 1_555 1_555
H16 C24 1_555 1_555
C25 C22 1_555 1_555
H17 C25 1_555 1_555
H18 C25 1_555 1_555
H19 C25 1_555 1_555
N1 C10 1_555 1_555
N2 C3 1_555 1_555
H20 N2 1_555 1_555
H21 N2 1_555 1_555
N3 C11 1_555 1_555
O1 C7 1_555 1_555
O2 C7 1_555 1_555
C8 O2 1_555 1_555
C16 C17 1_555 1_555
C23 C24 1_555 1_555

#END
