
#######################################################################
#
#                 Cambridge Crystallographic Data Centre
#                                CCDC 
#
#######################################################################
#
# If this CIF has been generated from an entry in the Cambridge 
# Structural Database, then it will include bibliographic, chemical, 
# crystal, experimental, refinement or atomic coordinate data resulting 
# from the CCDC's data processing and validation procedures.
#
#######################################################################

data_VIXQAV
_chemical_formula_moiety         'C31 H33 N3 O2,C1 H1 Cl3'
_chemical_name_systematic        
'Ethyl 3-amino-2,4-dicyano-5,6-bis(4-t-butylphenyl)benzoate chloroform solvate'
_symmetry_cell_setting           triclinic
_symmetry_space_group_name_H-M   'P -1'
_symmetry_Int_Tables_number      2
_space_group_name_Hall           '-P 1'
loop_
_symmetry_equiv_pos_site_id
_symmetry_equiv_pos_as_xyz
1 x,y,z
2 -x,-y,-z
_cell_length_a                   7.9457(13)
_cell_length_b                   14.0078(17)
_cell_length_c                   15.333(2)
_cell_angle_alpha                104.185(10)
_cell_angle_beta                 103.448(12)
_cell_angle_gamma                90.181(12)
_cell_volume                     1605.91
_exptl_crystal_colour            colorless
_exptl_crystal_description       needle
_chemical_melting_point          '184-185 deg.C'
_cell_formula_units_Z            2
loop_
_atom_site_label
_atom_site_type_symbol
_atom_site_fract_x
_atom_site_fract_y
_atom_site_fract_z
C1 C 0.5193(6) 0.1221(3) 0.6797(3)
C2 C 0.3874(6) 0.0910(3) 0.5974(3)
C3 C 0.4056(6) 0.1097(3) 0.5130(3)
C4 C 0.5603(6) 0.1642(3) 0.5172(3)
C5 C 0.6859(6) 0.2042(3) 0.6010(3)
C6 C 0.6661(6) 0.1813(3) 0.6842(3)
C7 C 0.2295(7) 0.0388(3) 0.5989(3)
C8 C 0.5782(6) 0.1849(3) 0.4318(3)
C9 C 0.8343(6) 0.2697(3) 0.6029(3)
C10 C 0.9534(6) 0.2393(3) 0.5480(3)
H1 H 0.9359 0.1758 0.5060
C11 C 1.0958(6) 0.3003(3) 0.5540(3)
H2 H 1.1747 0.2769 0.5168
C12 C 1.1270(6) 0.3961(3) 0.6137(3)
C13 C 1.0044(6) 0.4263(3) 0.6674(3)
H3 H 1.0197 0.4907 0.7079
C14 C 0.8657(6) 0.3667(3) 0.6633(3)
H4 H 0.7881 0.3901 0.7013
C15 C 1.2852(6) 0.4654(3) 0.6237(3)
C16 C 1.4077(7) 0.4155(4) 0.5637(4)
H5 H 1.3497 0.4048 0.4979
H6 H 1.4375 0.3519 0.5772
H7 H 1.5137 0.4581 0.5779
C17 C 1.2223(7) 0.5591(3) 0.5940(4)
H8 H 1.1421 0.5902 0.6307
H9 H 1.1627 0.5415 0.5281
H10 H 1.3220 0.6053 0.6044
C18 C 1.3890(7) 0.4936(4) 0.7246(3)
H11 H 1.4867 0.5398 0.7313
H12 H 1.4327 0.4342 0.7426
H13 H 1.3140 0.5248 0.7644
C19 C 0.7976(6) 0.2195(3) 0.7752(3)
C20 C 0.7465(6) 0.2799(3) 0.8505(3)
H14 H 0.6282 0.2941 0.8447
C21 C 0.8674(6) 0.3197(3) 0.9341(3)
H15 H 0.8304 0.3613 0.9842
C22 C 1.0422(6) 0.2991(3) 0.9451(3)
C23 C 1.0900(6) 0.2368(3) 0.8687(3)
H16 H 1.2077 0.2214 0.8742
C24 C 0.9699(6) 0.1974(3) 0.7861(3)
H17 H 1.0060 0.1547 0.7363
C25 C 1.1855(6) 0.3423(3) 1.0351(3)
C26 C 1.3272(7) 0.3992(4) 1.0123(3)
H18 H 1.2759 0.4511 0.9839
H19 H 1.3818 0.3538 0.9691
H20 H 1.4148 0.4290 1.0694
C27 C 1.1098(7) 0.4138(3) 1.1085(3)
H21 H 1.0218 0.3777 1.1256
H22 H 1.0568 0.4671 1.0828
H23 H 1.2030 0.4417 1.1636
C28 C 1.2604(7) 0.2576(4) 1.0745(3)
H24 H 1.3170 0.2148 1.0306
H25 H 1.1668 0.2193 1.0850
H26 H 1.3455 0.2841 1.1334
C29 C 0.5033(6) 0.0866(3) 0.7621(3)
C30 C 0.6124(7) -0.0263(3) 0.8518(3)
H27 H 0.6583 -0.0926 0.8394
H28 H 0.4916 -0.0339 0.8571
C31 C 0.7217(9) 0.0381(5) 0.9418(3)
H29 H 0.7195 0.0075 0.9926
H30 H 0.6749 0.1033 0.9544
H31 H 0.8415 0.0450 0.9365
N1 N 0.2828(6) 0.0755(3) 0.4332(3)
H33 H 0.190(7) 0.056(4) 0.430(3)
H34 H 0.273(7) 0.104(4) 0.394(3)
N2 N 0.5816(5) 0.1962(3) 0.3606(3)
N3 N 0.1014(6) -0.0001(3) 0.5981(2)
O1 O 0.3983(5) 0.1132(2) 0.8078(2)
O2 O 0.6151(4) 0.0183(2) 0.77509(18)
C32 C 1.0921(7) -0.1872(4) 0.7480(3)
H32 H 1.1511 -0.1910 0.6964
Cl1 Cl 1.0548(2) -0.06265(10) 0.79274(10)
Cl2 Cl 1.2272(2) -0.23400(10) 0.83389(10)
Cl3 Cl 0.8903(2) -0.25819(11) 0.70246(9)
loop_
_geom_bond_atom_site_label_1
_geom_bond_atom_site_label_2
_geom_bond_site_symmetry_1
_geom_bond_site_symmetry_2
C1 C2 1_555 1_555
C2 C3 1_555 1_555
C3 C4 1_555 1_555
C4 C5 1_555 1_555
C5 C6 1_555 1_555
C6 C1 1_555 1_555
C7 C2 1_555 1_555
C8 C4 1_555 1_555
C9 C5 1_555 1_555
C10 C9 1_555 1_555
H1 C10 1_555 1_555
C11 C10 1_555 1_555
H2 C11 1_555 1_555
C12 C11 1_555 1_555
C13 C12 1_555 1_555
H3 C13 1_555 1_555
C14 C9 1_555 1_555
H4 C14 1_555 1_555
C15 C12 1_555 1_555
C16 C15 1_555 1_555
H5 C16 1_555 1_555
H6 C16 1_555 1_555
H7 C16 1_555 1_555
C17 C15 1_555 1_555
H8 C17 1_555 1_555
H9 C17 1_555 1_555
H10 C17 1_555 1_555
C18 C15 1_555 1_555
H11 C18 1_555 1_555
H12 C18 1_555 1_555
H13 C18 1_555 1_555
C19 C6 1_555 1_555
C20 C19 1_555 1_555
H14 C20 1_555 1_555
C21 C20 1_555 1_555
H15 C21 1_555 1_555
C22 C21 1_555 1_555
C23 C22 1_555 1_555
H16 C23 1_555 1_555
C24 C19 1_555 1_555
H17 C24 1_555 1_555
C25 C22 1_555 1_555
C26 C25 1_555 1_555
H18 C26 1_555 1_555
H19 C26 1_555 1_555
H20 C26 1_555 1_555
C27 C25 1_555 1_555
H21 C27 1_555 1_555
H22 C27 1_555 1_555
H23 C27 1_555 1_555
C28 C25 1_555 1_555
H24 C28 1_555 1_555
H25 C28 1_555 1_555
H26 C28 1_555 1_555
C29 C1 1_555 1_555
C30 H27 1_555 1_555
H28 C30 1_555 1_555
C31 C30 1_555 1_555
H29 C31 1_555 1_555
H30 C31 1_555 1_555
H31 C31 1_555 1_555
C32 H32 1_555 1_555
N1 C3 1_555 1_555
H33 N1 1_555 1_555
H34 N1 1_555 1_555
N2 C8 1_555 1_555
N3 C7 1_555 1_555
O1 C29 1_555 1_555
O2 C29 1_555 1_555
Cl1 C32 1_555 1_555
Cl2 C32 1_555 1_555
Cl3 C32 1_555 1_555
C13 C14 1_555 1_555
C23 C24 1_555 1_555
C30 O2 1_555 1_555

#END
