
#######################################################################
#
#                 Cambridge Crystallographic Data Centre
#                                CCDC 
#
#######################################################################
#
# If this CIF has been generated from an entry in the Cambridge 
# Structural Database, then it will include bibliographic, chemical, 
# crystal, experimental, refinement or atomic coordinate data resulting 
# from the CCDC's data processing and validation procedures.
#
#######################################################################

data_VIXQOI
_chemical_formula_moiety         'C23 H22 O8'
_chemical_name_systematic        
'Dimethyl 7,12,13-trimethoxy-6-oxo-tetracyclo[7.6.1.0^4,9^.0^10,15^]hexadeca-2,4,7,10,12,14-hexaen-2,16-dicarboxylate'
_symmetry_cell_setting           triclinic
_symmetry_space_group_name_H-M   'P -1'
_symmetry_Int_Tables_number      2
_space_group_name_Hall           '-P 1'
loop_
_symmetry_equiv_pos_site_id
_symmetry_equiv_pos_as_xyz
1 x,y,z
2 -x,-y,-z
_cell_length_a                   7.0090(10)
_cell_length_b                   7.941(2)
_cell_length_c                   19.455(4)
_cell_angle_alpha                98.18(3)
_cell_angle_beta                 100.36(3)
_cell_angle_gamma                96.47(3)
_cell_volume                     1043.66
_cell_formula_units_Z            2
loop_
_atom_site_label
_atom_site_type_symbol
_atom_site_fract_x
_atom_site_fract_y
_atom_site_fract_z
O1 O 1.0277(3) 1.2347(2) 0.00437(9)
O2 O 1.3927(3) 1.1805(3) 0.04035(10)
O3 O 1.1964(2) 1.59560(19) 0.21945(9)
O4 O 1.2249(3) 1.6213(2) 0.33582(10)
O5 O 1.5793(3) 1.2421(3) 0.42373(10)
O6 O 1.2995(3) 1.2544(4) 0.46306(11)
O7 O 0.7042(2) 0.62749(19) 0.17004(8)
O8 O 0.7389(2) 0.66104(19) 0.30460(8)
C1 C 0.8308(4) 1.2618(4) -0.01690(15)
H1 H 0.7457 1.1815 0.0003
H2 H 0.7969 1.2455 -0.0677
H3 H 0.8164 1.3769 0.0023
C2 C 1.0937(3) 1.2305(3) 0.07440(12)
C3 C 1.2994(3) 1.1968(3) 0.08774(13)
C4 C 1.3877(3) 1.1917(3) 0.16093(12)
H4 H 1.5181 1.1743 0.1714
C5 C 1.2899(3) 1.2110(2) 0.21375(11)
C6 C 1.0735(3) 1.2289(2) 0.20011(11)
C7 C 0.9942(3) 1.2535(3) 0.12636(11)
H5 H 0.8703 1.2863 0.1163
C8 C 1.1668(3) 1.5403(3) 0.27784(14)
C9 C 1.0422(3) 1.3659(3) 0.26195(12)
H6 H 0.9041 1.3829 0.2531
C10 C 1.3073(4) 1.7671(3) 0.23232(16)
H7 H 1.2238 1.8507 0.2434
H8 H 1.3558 1.7875 0.1907
H9 H 1.4154 1.7762 0.2714
C11 C 1.3872(3) 1.2182(3) 0.28657(12)
H10 H 1.5182 1.2025 0.2962
C12 C 1.3876(4) 1.2479(3) 0.41505(14)
C13 C 1.2930(3) 1.2471(3) 0.34097(12)
C14 C 1.6861(5) 1.2448(5) 0.49478(17)
H11 H 1.6625 1.3426 0.5256
H12 H 1.8237 1.2522 0.4947
H13 H 1.6430 1.1415 0.5113
C15 C 1.0787(3) 1.2673(3) 0.32514(12)
H14 H 1.0321 1.3194 0.3667
C16 C 0.9648(3) 1.0925(3) 0.29109(11)
C17 C 0.9603(3) 1.0697(2) 0.21936(11)
C18 C 0.8726(3) 0.9168(2) 0.17540(11)
H15 H 0.8649 0.9034 0.1267
C19 C 0.7966(3) 0.7841(3) 0.20678(11)
C20 C 0.8118(3) 0.8032(3) 0.28043(11)
C21 C 0.8931(3) 0.9589(3) 0.32303(11)
H16 H 0.8996 0.9739 0.3717
C22 C 0.6490(5) 0.6145(4) 0.09622(14)
H17 H 0.5854 0.7111 0.0853
H18 H 0.5606 0.5102 0.0773
H19 H 0.7634 0.6134 0.0755
C23 C 0.7490(4) 0.6725(4) 0.37855(14)
H20 H 0.8836 0.6972 0.4027
H21 H 0.6912 0.5653 0.3883
H22 H 0.6792 0.7627 0.3947
loop_
_geom_bond_atom_site_label_1
_geom_bond_atom_site_label_2
_geom_bond_site_symmetry_1
_geom_bond_site_symmetry_2
O1 C1 1_555 1_555
O2 C3 1_555 1_555
O3 C8 1_555 1_555
O4 C8 1_555 1_555
O5 C12 1_555 1_555
O6 C12 1_555 1_555
O7 C19 1_555 1_555
O8 C20 1_555 1_555
C1 H1 1_555 1_555
H2 C1 1_555 1_555
H3 C1 1_555 1_555
C2 O1 1_555 1_555
C3 C2 1_555 1_555
C4 C3 1_555 1_555
H4 C4 1_555 1_555
C5 C4 1_555 1_555
C6 C5 1_555 1_555
C7 C2 1_555 1_555
H5 C7 1_555 1_555
C8 C9 1_555 1_555
C9 C6 1_555 1_555
H6 C9 1_555 1_555
C10 O3 1_555 1_555
H7 C10 1_555 1_555
H8 C10 1_555 1_555
H9 C10 1_555 1_555
C11 C5 1_555 1_555
H10 C11 1_555 1_555
C12 C13 1_555 1_555
C13 C11 1_555 1_555
C14 O5 1_555 1_555
H11 C14 1_555 1_555
H12 C14 1_555 1_555
H13 C14 1_555 1_555
C15 C9 1_555 1_555
H14 C15 1_555 1_555
C16 C15 1_555 1_555
C17 C6 1_555 1_555
C18 C17 1_555 1_555
H15 C18 1_555 1_555
C19 C18 1_555 1_555
C20 C19 1_555 1_555
C21 C16 1_555 1_555
H16 C21 1_555 1_555
C22 O7 1_555 1_555
H17 C22 1_555 1_555
H18 C22 1_555 1_555
H19 C22 1_555 1_555
C23 O8 1_555 1_555
H20 C23 1_555 1_555
H21 C23 1_555 1_555
H22 C23 1_555 1_555
C6 C7 1_555 1_555
C13 C15 1_555 1_555
C16 C17 1_555 1_555
C20 C21 1_555 1_555

#END
