
#######################################################################
#
#                 Cambridge Crystallographic Data Centre
#                                CCDC 
#
#######################################################################
#
# If this CIF has been generated from an entry in the Cambridge 
# Structural Database, then it will include bibliographic, chemical, 
# crystal, experimental, refinement or atomic coordinate data resulting 
# from the CCDC's data processing and validation procedures.
#
#######################################################################

data_VIXQUO
_chemical_formula_moiety         'C24 H28 O8'
_chemical_name_systematic        
'Methyl 1-(methoxycarbonylmethyl)-5,6-dimethoxy-3-(3,4-dimethoxyphenyl)indan-2-carboxylate'
_symmetry_cell_setting           monoclinic
_symmetry_space_group_name_H-M   'P 21/n'
_symmetry_Int_Tables_number      14
_space_group_name_Hall           '-P 2yn'
loop_
_symmetry_equiv_pos_site_id
_symmetry_equiv_pos_as_xyz
1 x,y,z
2 1/2-x,1/2+y,1/2-z
3 -x,-y,-z
4 1/2+x,1/2-y,1/2+z
_cell_length_a                   5.7128(11)
_cell_length_b                   10.524(2)
_cell_length_c                   36.910(7)
_cell_angle_alpha                90
_cell_angle_beta                 92.73(3)
_cell_angle_gamma                90
_cell_volume                     2216.57
_cell_formula_units_Z            4
loop_
_atom_site_label
_atom_site_type_symbol
_atom_site_fract_x
_atom_site_fract_y
_atom_site_fract_z
O1 O 0.1555(6) 0.6379(3) 0.24269(9)
O2 O -0.1205(5) 0.4943(3) 0.27710(8)
O3 O 0.1440(5) 0.7009(3) 0.02318(8)
O4 O -0.1168(5) 0.8964(3) 0.03245(8)
O5 O -0.3402(6) 0.2794(4) 0.07122(12)
O6 O -0.7096(5) 0.3092(3) 0.08038(8)
O7 O -0.8894(8) 0.1319(6) 0.14672(16)
O8 O -0.5894(8) 0.0381(5) 0.13216(11)
C1 C -0.1674(7) 0.4874(4) 0.16524(11)
C2 C -0.0074(7) 0.5668(4) 0.18397(12)
H1 H 0.0901 0.6197 0.1713
C3 C 0.0052(7) 0.5664(4) 0.22129(13)
C4 C -0.1457(8) 0.4877(4) 0.24015(12)
C5 C -0.3014(9) 0.4107(5) 0.22145(12)
H2 H -0.3993 0.3573 0.2339
C6 C -0.3133(8) 0.4124(5) 0.18392(12)
C7 C 0.3303(9) 0.7061(5) 0.22576(15)
H3 H 0.4164 0.6496 0.2109
H4 H 0.4349 0.7436 0.2439
H5 H 0.2594 0.7718 0.2109
C8 C -0.2878(9) 0.4294(6) 0.29737(13)
H6 H -0.4417 0.4608 0.2908
H7 H -0.2541 0.4434 0.3228
H8 H -0.2808 0.3401 0.2923
C9 C -0.2033(7) 0.4669(4) 0.12467(10)
H9 H -0.0875 0.4047 0.1171
C10 C -0.1851(7) 0.5852(4) 0.10074(11)
C11 C -0.0272(6) 0.5859(4) 0.07347(11)
H10 H 0.0668 0.5153 0.0700
C12 C -0.0085(7) 0.6917(4) 0.05127(11)
C13 C -0.1469(8) 0.7967(4) 0.05570(12)
C14 C -0.3076(8) 0.7951(4) 0.08288(13)
H11 H -0.4058 0.8644 0.0859
C15 C -0.3213(7) 0.6890(5) 0.10564(13)
H12 H -0.4249 0.6896 0.1243
C16 C 0.2988(8) 0.5954(4) 0.01815(12)
H13 H 0.4032 0.5865 0.0392
H14 H 0.3881 0.6101 -0.0028
H15 H 0.2084 0.5190 0.0148
C17 C -0.2653(10) 1.0040(5) 0.03599(16)
H16 H -0.4261 0.9774 0.0340
H17 H -0.2364 1.0641 0.0172
H18 H -0.2334 1.0430 0.0592
C18 C -0.4475(8) 0.4031(4) 0.12232(11)
H19 H -0.5542 0.4750 0.1179
C19 C -0.4885(9) 0.3229(4) 0.08898(12)
C20 C -0.7751(8) 0.2284(4) 0.04954(13)
H20 H -0.7006 0.2587 0.0284
H21 H -0.9421 0.2303 0.0452
H22 H -0.7257 0.1427 0.0546
C21 C -0.5169(19) 0.3530(10) 0.1597(3)
H23 H -0.6743 0.3779 0.1664
C22 C -0.469(2) 0.2091(10) 0.1617(2)
H24 H -0.3330 0.1895 0.1479
H25 H -0.4331 0.1852 0.1867
C23 C -0.6788(9) 0.1308(5) 0.14674(12)
C24 C -0.8080(16) -0.0642(11) 0.1236(3)
H26 H -0.8756 -0.0879 0.1459
H27 H -0.7488 -0.1386 0.1121
H28 H -0.9256 -0.0250 0.1079
C25? C -0.407(2) 0.3079(15) 0.1563(3)
H29? H -0.2852 0.2449 0.1518
C26? C -0.625(2) 0.2460(13) 0.1670(3)
H30? H -0.6110 0.2257 0.1926
H31? H -0.7540 0.3053 0.1633
C27? C -0.971(3) -0.0148(12) 0.1224(3)
H32? H -0.8881 -0.0195 0.1004
H33? H -1.1366 -0.0148 0.1166
H34? H -0.9309 -0.0868 0.1374
loop_
_geom_bond_atom_site_label_1
_geom_bond_atom_site_label_2
_geom_bond_site_symmetry_1
_geom_bond_site_symmetry_2
O1 C3 1_555 1_555
O2 C4 1_555 1_555
O3 C12 1_555 1_555
O4 C13 1_555 1_555
O5 C19 1_555 1_555
O6 C19 1_555 1_555
O7 C23 1_555 1_555
O8 C23 1_555 1_555
C1 C2 1_555 1_555
C2 H1 1_555 1_555
C3 C2 1_555 1_555
C4 C3 1_555 1_555
C5 C4 1_555 1_555
H2 C5 1_555 1_555
C6 C1 1_555 1_555
C7 O1 1_555 1_555
H3 C7 1_555 1_555
H4 C7 1_555 1_555
H5 C7 1_555 1_555
C8 O2 1_555 1_555
H6 C8 1_555 1_555
H7 C8 1_555 1_555
H8 C8 1_555 1_555
C9 C1 1_555 1_555
H9 C9 1_555 1_555
C10 C9 1_555 1_555
C11 C10 1_555 1_555
H10 C11 1_555 1_555
C12 C11 1_555 1_555
C13 C12 1_555 1_555
C14 C13 1_555 1_555
H11 C14 1_555 1_555
C15 C10 1_555 1_555
H12 C15 1_555 1_555
C16 O3 1_555 1_555
H13 C16 1_555 1_555
H14 C16 1_555 1_555
H15 C16 1_555 1_555
C17 O4 1_555 1_555
H16 C17 1_555 1_555
H17 C17 1_555 1_555
H18 C17 1_555 1_555
C18 C9 1_555 1_555
H19 C18 1_555 1_555
C19 C18 1_555 1_555
C20 O6 1_555 1_555
H20 C20 1_555 1_555
H21 C20 1_555 1_555
H22 C20 1_555 1_555
C21 C6 1_555 1_555
H23 C21 1_555 1_555
C22 C21 1_555 1_555
H24 C22 1_555 1_555
H25 C22 1_555 1_555
C23 C22 1_555 1_555
C24 O8 1_555 1_555
H26 C24 1_555 1_555
H27 C24 1_555 1_555
H28 C24 1_555 1_555
C5 C6 1_555 1_555
C14 C15 1_555 1_555
C18 C21 1_555 1_555

#END
