
#######################################################################
#
#                 Cambridge Crystallographic Data Centre
#                                CCDC 
#
#######################################################################
#
# If this CIF has been generated from an entry in the Cambridge 
# Structural Database, then it will include bibliographic, chemical, 
# crystal, experimental, refinement or atomic coordinate data resulting 
# from the CCDC's data processing and validation procedures.
#
#######################################################################

data_VIXSUQ
_chemical_formula_moiety         'C23 H24 O9'
_chemical_name_systematic        
'Methyl 1,2-(acetoxy-C,O)-3-hydroxy-5,6-dimethoxy-3-(3,4-dimethoxyphenyl)indan-2-carboxylate'
_symmetry_cell_setting           orthorhombic
_symmetry_space_group_name_H-M   'P b c a'
_symmetry_Int_Tables_number      61
_space_group_name_Hall           '-P 2ac 2ab'
loop_
_symmetry_equiv_pos_site_id
_symmetry_equiv_pos_as_xyz
1 x,y,z
2 1/2+x,y,1/2-z
3 x,1/2-y,1/2+z
4 1/2-x,1/2+y,z
5 -x,-y,-z
6 1/2-x,-y,1/2+z
7 -x,1/2+y,1/2-z
8 1/2+x,1/2-y,-z
_cell_length_a                   14.1493(4)
_cell_length_b                   17.3003(6)
_cell_length_c                   17.4340(7)
_cell_angle_alpha                90
_cell_angle_beta                 90
_cell_angle_gamma                90
_cell_volume                     4267.62
_cell_formula_units_Z            8
loop_
_atom_site_label
_atom_site_type_symbol
_atom_site_fract_x
_atom_site_fract_y
_atom_site_fract_z
C1 C 0.64201(18) -0.17195(16) -0.09885(14)
H1 H 0.6582 -0.1263 -0.1294
H2 H 0.6150 -0.2117 -0.1324
H3 H 0.6991 -0.1922 -0.0742
C2 C 0.37613(15) -0.10563(14) 0.11419(14)
H4 H 0.4015 -0.1113 0.1662
H5 H 0.3245 -0.1426 0.1065
H6 H 0.3522 -0.0529 0.1073
C3 C 0.68387(15) -0.05461(13) 0.00814(12)
H7 H 0.7330 -0.0695 -0.0259
C4 C 0.59861(15) -0.09322(12) 0.00855(12)
C5 C 0.52795(14) -0.07401(13) 0.06322(12)
C6 C 0.54098(15) -0.01324(12) 0.11290(12)
H8 H 0.4934 0.0003 0.1490
C7 C 0.62598(14) 0.02846(12) 0.10925(12)
C8 C 0.69609(14) 0.00688(13) 0.05893(12)
C9 C 0.64963(15) 0.10404(13) 0.14941(12)
C10 C 0.62305(14) 0.11017(12) 0.23305(12)
C11 C 0.59712(15) 0.18008(13) 0.26552(13)
H9 H 0.5909 0.2245 0.2338
C12 C 0.58003(15) 0.18622(13) 0.34406(13)
H10 H 0.5628 0.2347 0.3656
C13 C 0.58818(15) 0.12192(13) 0.39067(13)
C14 C 0.61021(14) 0.05014(12) 0.35789(12)
C15 C 0.62829(14) 0.04478(12) 0.28046(12)
H11 H 0.6445 -0.0038 0.2588
C16 C 0.56758(19) 0.19574(14) 0.50509(14)
H12 H 0.6222 0.2276 0.4910
H13 H 0.5662 0.1888 0.5609
H14 H 0.5094 0.2214 0.4884
C17 C 0.61220(16) -0.08651(13) 0.37473(14)
H15 H 0.5592 -0.0914 0.3389
H16 H 0.6061 -0.1254 0.4153
H17 H 0.6718 -0.0945 0.3472
C18 C 0.78197(15) 0.05868(14) 0.06452(12)
H18 H 0.7910 0.0902 0.0170
C19 C 0.87229(15) 0.01650(15) 0.08755(13)
H19 H 0.8727 -0.0371 0.0676
H20 H 0.9289 0.0440 0.0684
C20 C 0.86890(15) 0.01719(15) 0.17322(14)
C21 C 0.75950(15) 0.10949(13) 0.13452(13)
C22 C 0.79376(16) 0.19237(15) 0.12539(14)
C23 C 0.8184(3) 0.31081(19) 0.18704(19)
H21 H 0.8855 0.3140 0.1734
H22 H 0.8082 0.3358 0.2368
H23 H 0.7806 0.3371 0.1478
O1 O 0.57426(10) -0.15109(9) -0.04120(8)
O2 O 0.44936(10) -0.12026(8) 0.05952(9)
O3 O 0.57492(11) 0.12166(9) 0.46847(9)
O4 O 0.61159(11) -0.01140(8) 0.40791(8)
O5 O 0.61233(10) 0.16826(8) 0.10705(8)
H24 H 0.5533 0.1641 0.1039
O6 O 0.90999(12) -0.02292(11) 0.21872(10)
O7 O 0.80936(10) 0.07378(9) 0.19827(8)
O8 O 0.81918(13) 0.22016(10) 0.06579(10)
O9 O 0.79043(14) 0.23086(10) 0.19160(10)
loop_
_geom_bond_atom_site_label_1
_geom_bond_atom_site_label_2
_geom_bond_site_symmetry_1
_geom_bond_site_symmetry_2
C1 H1 1_555 1_555
H2 C1 1_555 1_555
H3 C1 1_555 1_555
C2 H4 1_555 1_555
H5 C2 1_555 1_555
H6 C2 1_555 1_555
C3 H7 1_555 1_555
C4 C3 1_555 1_555
C5 C4 1_555 1_555
C6 C5 1_555 1_555
H8 C6 1_555 1_555
C7 C6 1_555 1_555
C8 C3 1_555 1_555
C9 C7 1_555 1_555
C10 C9 1_555 1_555
C11 C10 1_555 1_555
H9 C11 1_555 1_555
C12 C11 1_555 1_555
H10 C12 1_555 1_555
C13 C12 1_555 1_555
C14 C13 1_555 1_555
C15 C10 1_555 1_555
H11 C15 1_555 1_555
C16 H12 1_555 1_555
H13 C16 1_555 1_555
H14 C16 1_555 1_555
C17 H15 1_555 1_555
H16 C17 1_555 1_555
H17 C17 1_555 1_555
C18 C8 1_555 1_555
H18 C18 1_555 1_555
C19 C18 1_555 1_555
H19 C19 1_555 1_555
H20 C19 1_555 1_555
C20 C19 1_555 1_555
C21 C9 1_555 1_555
C22 C21 1_555 1_555
C23 H21 1_555 1_555
H22 C23 1_555 1_555
H23 C23 1_555 1_555
O1 C1 1_555 1_555
O2 C2 1_555 1_555
O3 C13 1_555 1_555
O4 C14 1_555 1_555
O5 C9 1_555 1_555
H24 O5 1_555 1_555
O6 C20 1_555 1_555
O7 C20 1_555 1_555
O8 C22 1_555 1_555
O9 C22 1_555 1_555
C4 O1 1_555 1_555
C5 O2 1_555 1_555
C7 C8 1_555 1_555
C14 C15 1_555 1_555
C16 O3 1_555 1_555
C17 O4 1_555 1_555
C18 C21 1_555 1_555
C21 O7 1_555 1_555
C23 O9 1_555 1_555

#END
