
#######################################################################
#
#                 Cambridge Crystallographic Data Centre
#                                CCDC 
#
#######################################################################
#
# If this CIF has been generated from an entry in the Cambridge 
# Structural Database, then it will include bibliographic, chemical, 
# crystal, experimental, refinement or atomic coordinate data resulting 
# from the CCDC's data processing and validation procedures.
#
#######################################################################

data_VIXYOQ
_chemical_formula_moiety         'C21 H16 O9'
_chemical_name_systematic        
"Methyl 1,2-(acetoxy-C,O)-3-hydroxy-5,6-(methylenedioxy-O,O')-3-(3,4-methylenedioxyphenyl)indan-2-carboxylate"
_symmetry_cell_setting           orthorhombic
_symmetry_space_group_name_H-M   'P b c a'
_symmetry_Int_Tables_number      61
_space_group_name_Hall           '-P 2ac 2ab'
loop_
_symmetry_equiv_pos_site_id
_symmetry_equiv_pos_as_xyz
1 x,y,z
2 1/2+x,y,1/2-z
3 x,1/2-y,1/2+z
4 1/2-x,1/2+y,z
5 -x,-y,-z
6 1/2-x,-y,1/2+z
7 -x,1/2+y,1/2-z
8 1/2+x,1/2-y,-z
_cell_length_a                   7.41810(10)
_cell_length_b                   16.6837(3)
_cell_length_c                   27.9934(5)
_cell_angle_alpha                90
_cell_angle_beta                 90
_cell_angle_gamma                90
_cell_volume                     3464.5
_cell_formula_units_Z            8
loop_
_atom_site_label
_atom_site_type_symbol
_atom_site_fract_x
_atom_site_fract_y
_atom_site_fract_z
C1 C -0.2313(4) 0.06079(18) 0.30303(10)
H1 H -0.2368 0.0198 0.3286
H2 H -0.3123 0.0441 0.2767
C2 C -0.1256(4) 0.17770(18) 0.32995(9)
C3 C 0.0166(4) 0.13668(18) 0.30842(9)
C4 C 0.1896(4) 0.16392(17) 0.30902(9)
H3 H 0.2860 0.1350 0.2948
C5 C 0.2161(4) 0.23806(17) 0.33219(9)
C6 C 0.0745(4) 0.27834(17) 0.35327(9)
C7 C -0.1020(4) 0.24890(18) 0.35324(9)
H4 H -0.1986 0.2764 0.3683
C8 C 0.3923(4) 0.28384(17) 0.33713(9)
H5 H 0.4753 0.2583 0.3608
C9 C 0.3263(4) 0.36732(17) 0.35392(9)
C10 C 0.1317(4) 0.35717(17) 0.37551(9)
C11 C 0.1303(4) 0.35260(17) 0.42995(9)
C12 C -0.0064(4) 0.39227(16) 0.45528(10)
H6 H -0.0961 0.4229 0.4393
C13 C -0.0051(4) 0.38497(17) 0.50418(10)
C14 C 0.1234(4) 0.34096(17) 0.52802(9)
C15 C 0.2561(4) 0.30069(19) 0.50444(10)
H7 H 0.3433 0.2696 0.5210
C16 C 0.2578(4) 0.30745(17) 0.45455(10)
H8 H 0.3488 0.2803 0.4370
C17 C -0.0546(5) 0.39978(19) 0.58220(10)
H9 H -0.1495 0.3778 0.6033
H10 H -0.0077 0.4497 0.5968
C18 C 0.4861(4) 0.30175(17) 0.29005(9)
H11 H 0.6165 0.3114 0.2949
H12 H 0.4703 0.2571 0.2671
C19 C 0.3937(4) 0.37568(18) 0.27291(11)
C20 C 0.4622(5) 0.4130(2) 0.38465(10)
C21 C 0.5205(4) 0.53172(19) 0.42709(11)
H13 H 0.4657 0.5839 0.4339
H14 H 0.6365 0.5397 0.4110
H15 H 0.5397 0.5026 0.4571
O1 O -0.2856(3) 0.13775(12) 0.32140(6)
O2 O -0.0495(3) 0.06900(11) 0.28579(7)
O3 O 0.0172(3) 0.42108(11) 0.36207(6)
H16 H -0.0045 0.4182 0.3327
O4 O -0.1274(3) 0.41632(12) 0.53597(6)
O5 O 0.0888(3) 0.34242(12) 0.57666(6)
O6 O 0.3076(3) 0.41275(11) 0.30952(6)
O7 O 0.6049(3) 0.38612(13) 0.39674(7)
O8 O 0.4016(3) 0.48573(12) 0.39637(6)
O9 O 0.3886(3) 0.40399(11) 0.23340(7)
loop_
_geom_bond_atom_site_label_1
_geom_bond_atom_site_label_2
_geom_bond_site_symmetry_1
_geom_bond_site_symmetry_2
C1 H1 1_555 1_555
H2 C1 1_555 1_555
C2 C3 1_555 1_555
C3 C4 1_555 1_555
C4 H3 1_555 1_555
C5 C4 1_555 1_555
C6 C5 1_555 1_555
C7 C2 1_555 1_555
H4 C7 1_555 1_555
C8 C5 1_555 1_555
H5 C8 1_555 1_555
C9 C8 1_555 1_555
C10 C6 1_555 1_555
C11 C10 1_555 1_555
C12 C11 1_555 1_555
H6 C12 1_555 1_555
C13 C12 1_555 1_555
C14 C13 1_555 1_555
C15 C14 1_555 1_555
H7 C15 1_555 1_555
C16 C11 1_555 1_555
H8 C16 1_555 1_555
C17 H9 1_555 1_555
H10 C17 1_555 1_555
C18 C8 1_555 1_555
H11 C18 1_555 1_555
H12 C18 1_555 1_555
C19 C18 1_555 1_555
C20 C9 1_555 1_555
C21 H13 1_555 1_555
H14 C21 1_555 1_555
H15 C21 1_555 1_555
O1 C1 1_555 1_555
O2 C1 1_555 1_555
O3 C10 1_555 1_555
H16 O3 1_555 1_555
O4 C13 1_555 1_555
O5 C14 1_555 1_555
O6 C9 1_555 1_555
O7 C20 1_555 1_555
O8 C20 1_555 1_555
O9 C19 1_555 1_555
C2 O1 1_555 1_555
C3 O2 1_555 1_555
C6 C7 1_555 1_555
C9 C10 1_555 1_555
C15 C16 1_555 1_555
C17 O5 1_555 1_555
C17 O4 1_555 1_555
C19 O6 1_555 1_555
C21 O8 1_555 1_555

#END
