
#######################################################################
#
#                 Cambridge Crystallographic Data Centre
#                                CCDC 
#
#######################################################################
#
# If this CIF has been generated from an entry in the Cambridge 
# Structural Database, then it will include bibliographic, chemical, 
# crystal, experimental, refinement or atomic coordinate data resulting 
# from the CCDC's data processing and validation procedures.
#
#######################################################################

data_VIYCEN
_chemical_formula_moiety         'C20 H20 Br2 Cl2 N2 O4'
_chemical_name_systematic        
2,2'-(3,10-Dioxa-2,11-diazadodeca-1,11-diene-1,12-diyl)bis(6-bromo-4-chlorophenol)
_symmetry_cell_setting           triclinic
_symmetry_space_group_name_H-M   'P -1'
_symmetry_Int_Tables_number      2
_space_group_name_Hall           '-P 1'
loop_
_symmetry_equiv_pos_site_id
_symmetry_equiv_pos_as_xyz
1 x,y,z
2 -x,-y,-z
_cell_length_a                   4.5419(10)
_cell_length_b                   8.0851(14)
_cell_length_c                   15.660(2)
_cell_angle_alpha                76.9600(10)
_cell_angle_beta                 84.470(2)
_cell_angle_gamma                86.470(2)
_cell_volume                     557.155
_exptl_crystal_colour            colorless
_exptl_crystal_description       needle-like
_cell_formula_units_Z            1
loop_
_atom_site_label
_atom_site_type_symbol
_atom_site_fract_x
_atom_site_fract_y
_atom_site_fract_z
Br1 Br 0.5821(5) 1.0879(3) 0.23759(16)
Cl1 Cl 0.8403(13) 0.7358(7) -0.0236(4)
N1 N -0.071(3) 0.5095(17) 0.3072(11)
O1 O -0.243(3) 0.3755(16) 0.3377(9)
O2 O 0.186(3) 0.7947(17) 0.3106(10)
H1 H 0.0772 0.7148 0.3291
C1 C -0.406(4) 0.388(2) 0.4190(13)
H2 H -0.5323 0.4904 0.4096
H3 H -0.2688 0.3969 0.4613
C2 C -0.593(4) 0.238(2) 0.4560(13)
H4 H -0.7140 0.2214 0.4113
H5 H -0.7237 0.2618 0.5049
C3 C -0.403(4) 0.074(2) 0.4880(12)
H6 H -0.2534 0.0580 0.4418
H7 H -0.3043 0.0836 0.5388
C4 C 0.091(4) 0.506(2) 0.2346(13)
H8 H 0.0753 0.4156 0.2076
C5 C 0.290(4) 0.635(2) 0.1952(12)
C6 C 0.332(4) 0.7780(19) 0.2341(12)
C7 C 0.528(4) 0.898(2) 0.1871(12)
C8 C 0.687(4) 0.888(2) 0.1073(13)
H9 H 0.8166 0.9711 0.0778
C9 C 0.641(4) 0.749(2) 0.0751(13)
C10 C 0.454(4) 0.628(2) 0.1147(13)
H10 H 0.4320 0.5374 0.0887
Br1A Br -1.5821(5) -1.0879(3) 0.76241(16)
Cl1A Cl -1.8403(13) -0.7358(7) 1.0236(4)
N1A N -0.929(3) -0.5095(17) 0.6928(11)
O1A O -0.757(3) -0.3755(16) 0.6623(9)
O2A O -1.186(3) -0.7947(17) 0.6894(10)
H1A H -1.0772 -0.7148 0.6709
C1A C -0.594(4) -0.388(2) 0.5810(13)
H2A H -0.4677 -0.4904 0.5904
H3A H -0.7312 -0.3969 0.5387
C2A C -0.407(4) -0.238(2) 0.5440(13)
H4A H -0.2860 -0.2214 0.5887
H5A H -0.2763 -0.2618 0.4951
C3A C -0.597(4) -0.074(2) 0.5120(12)
H6A H -0.7466 -0.0580 0.5582
H7A H -0.6957 -0.0836 0.4612
C4A C -1.091(4) -0.506(2) 0.7654(13)
H8A H -1.0753 -0.4156 0.7924
C5A C -1.290(4) -0.635(2) 0.8048(12)
C6A C -1.332(4) -0.7780(19) 0.7659(12)
C7A C -1.528(4) -0.898(2) 0.8129(12)
C8A C -1.687(4) -0.888(2) 0.8927(13)
H9A H -1.8166 -0.9711 0.9222
C9A C -1.641(4) -0.749(2) 0.9249(13)
C10A C -1.454(4) -0.628(2) 0.8853(13)
H10A H -1.4320 -0.5374 0.9113
loop_
_geom_bond_atom_site_label_1
_geom_bond_atom_site_label_2
_geom_bond_site_symmetry_1
_geom_bond_site_symmetry_2
Br1 C7 1_555 1_555
Cl1 C9 1_555 1_555
N1 O1 1_555 1_555
O1 C1 1_555 1_555
O2 H1 1_555 1_555
C1 H2 1_555 1_555
H3 C1 1_555 1_555
C2 C1 1_555 1_555
H4 C2 1_555 1_555
H5 C2 1_555 1_555
C3 C2 1_555 1_555
H6 C3 1_555 1_555
H7 C3 1_555 1_555
C4 N1 1_555 1_555
H8 C4 1_555 1_555
C5 C4 1_555 1_555
C6 O2 1_555 1_555
C7 C6 1_555 1_555
C8 C7 1_555 1_555
H9 C8 1_555 1_555
C9 C8 1_555 1_555
C10 C5 1_555 1_555
H10 C10 1_555 1_555
Br1A C7A 1_555 1_555
Cl1A C9A 1_555 1_555
N1A O1A 1_555 1_555
O1A C1A 1_555 1_555
O2A H1A 1_555 1_555
C1A H2A 1_555 1_555
H3A C1A 1_555 1_555
C2A C1A 1_555 1_555
H4A C2A 1_555 1_555
H5A C2A 1_555 1_555
C3A C3 1_555 1_555
H6A C3A 1_555 1_555
H7A C3A 1_555 1_555
C4A N1A 1_555 1_555
H8A C4A 1_555 1_555
C5A C4A 1_555 1_555
C6A O2A 1_555 1_555
C7A C6A 1_555 1_555
C8A C7A 1_555 1_555
H9A C8A 1_555 1_555
C9A C8A 1_555 1_555
C10A C5A 1_555 1_555
H10A C10A 1_555 1_555
C5 C6 1_555 1_555
C9 C10 1_555 1_555
C2A C3A 1_555 1_555
C5A C6A 1_555 1_555
C9A C10A 1_555 1_555

#END
