
#######################################################################
#
#                 Cambridge Crystallographic Data Centre
#                                CCDC 
#
#######################################################################
#
# If this CIF has been generated from an entry in the Cambridge 
# Structural Database, then it will include bibliographic, chemical, 
# crystal, experimental, refinement or atomic coordinate data resulting 
# from the CCDC's data processing and validation procedures.
#
#######################################################################

data_VIYSUS
_chemical_formula_moiety         'C44 H40 N2 O7 S1'
_chemical_name_systematic        
1-(2-O-benzyl-3,4-deoxy-(3-C-p-toluenesulfonyl)-6-O-trityl-erythro-\b-D-hex-3-eno-pyranosyl)thymine
_symmetry_cell_setting           monoclinic
_symmetry_space_group_name_H-M   'P 21'
_symmetry_Int_Tables_number      4
_space_group_name_Hall           'P 2yb'
loop_
_symmetry_equiv_pos_site_id
_symmetry_equiv_pos_as_xyz
1 x,y,z
2 -x,1/2+y,-z
_cell_length_a                   12.5900(6)
_cell_length_b                   10.7859(6)
_cell_length_c                   14.6066(7)
_cell_angle_alpha                90
_cell_angle_beta                 104.147(2)
_cell_angle_gamma                90
_cell_volume                     1923.34
_exptl_crystal_colour            colorless
_exptl_crystal_description       plate
_cell_formula_units_Z            2
loop_
_atom_site_label
_atom_site_type_symbol
_atom_site_fract_x
_atom_site_fract_y
_atom_site_fract_z
O1 O 0.28719(16) 0.94991(19) 0.93182(14)
C1 C 0.3233(3) 0.9928(3) 1.0258(2)
H1 H 0.4000 1.0185 1.0360
N1 N 0.25874(19) 1.1014(2) 1.03398(19)
C2 C 0.3110(3) 1.2139(3) 1.0508(2)
O2 O 0.40800(19) 1.2269(2) 1.05765(18)
N2 N 0.2439(2) 1.3108(2) 1.0583(2)
H2 H 0.2749 1.3820 1.0702
C3 C 0.1317(3) 1.3077(3) 1.0491(2)
O3 O 0.0833(2) 1.4009(2) 1.0609(2)
C4 C 0.0818(3) 1.1895(3) 1.0223(2)
C5 C 0.1453(2) 1.0935(3) 1.0165(2)
H3 H 0.1124 1.0168 0.9999
C6 C -0.0409(3) 1.1847(4) 1.0009(3)
H4 H -0.0711 1.2368 0.9476
H5 H -0.0650 1.2133 1.0547
H6 H -0.0650 1.1009 0.9866
C7 C 0.3171(3) 0.8922(3) 1.0973(2)
H7 H 0.2424 0.8851 1.1056
O4 O 0.3918(2) 0.9221(2) 1.18441(16)
C8 C 0.3534(2) 0.7720(3) 1.0635(2)
S1 S 0.36942(7) 0.64551(7) 1.14278(6)
O5 O 0.28731(18) 0.6547(3) 1.19453(17)
O6 O 0.3751(2) 0.5356(2) 1.0897(2)
C9 C 0.3739(2) 0.7551(3) 0.9805(2)
H8 H 0.3971 0.6778 0.9650
C10 C 0.3605(2) 0.8583(3) 0.9110(2)
H9 H 0.4322 0.8974 0.9174
C11 C 0.3189(3) 0.8181(4) 0.8096(2)
H10 H 0.2922 0.8895 0.7702
H11 H 0.3777 0.7804 0.7872
O7 O 0.23280(18) 0.7314(2) 0.80432(13)
C12 C 0.1599(3) 0.7134(4) 0.7125(2)
C13 C 0.0945(3) 0.5964(3) 0.7228(2)
C14 C 0.1143(5) 0.5283(5) 0.8035(3)
H12 H 0.1660 0.5558 0.8566
C15 C 0.0581(6) 0.4178(5) 0.8078(4)
H13 H 0.0736 0.3721 0.8635
C16 C -0.0182(5) 0.3761(5) 0.7324(4)
H14 H -0.0560 0.3028 0.7357
C17 C -0.0384(4) 0.4433(4) 0.6521(3)
H15 H -0.0898 0.4150 0.5992
C18 C 0.0153(3) 0.5524(4) 0.6473(3)
H16 H -0.0021 0.5981 0.5916
C19 C 0.0826(3) 0.8247(3) 0.6894(2)
C20 C 0.0222(3) 0.8504(4) 0.5984(3)
H17 H 0.0314 0.8011 0.5487
C21 C -0.0504(3) 0.9462(4) 0.5803(3)
H18 H -0.0898 0.9617 0.5188
C22 C -0.0655(3) 1.0195(4) 0.6521(4)
H19 H -0.1147 1.0853 0.6390
C23 C -0.0087(3) 0.9969(4) 0.7435(3)
H20 H -0.0196 1.0464 0.7925
C24 C 0.0652(3) 0.8989(4) 0.7615(3)
H21 H 0.1038 0.8831 0.8233
C25 C 0.2261(3) 0.6882(5) 0.6400(2)
C26 C 0.2655(3) 0.5678(6) 0.6319(3)
H22 H 0.2496 0.5049 0.6700
C27 C 0.3272(5) 0.5414(8) 0.5683(5)
H23 H 0.3529 0.4616 0.5627
C28 C 0.3494(6) 0.6352(13) 0.5143(5)
H24 H 0.3906 0.6167 0.4711
C29 C 0.3151(6) 0.7572(11) 0.5187(5)
H25 H 0.3321 0.8193 0.4805
C30 C 0.2529(4) 0.7806(7) 0.5851(3)
H26 H 0.2293 0.8610 0.5918
C31 C 0.4992(3) 0.6629(3) 1.2221(2)
C32 C 0.5058(3) 0.6633(5) 1.3166(3)
H27 H 0.4429 0.6596 1.3393
C33 C 0.6097(4) 0.6693(5) 1.3787(3)
H28 H 0.6152 0.6688 1.4433
C34 C 0.7034(4) 0.6759(4) 1.3474(3)
C35 C 0.6928(3) 0.6773(5) 1.2535(3)
H29 H 0.7555 0.6831 1.2308
C36 C 0.5918(3) 0.6703(4) 1.1897(3)
H30 H 0.5871 0.6707 1.1252
C37 C 0.8146(4) 0.6830(6) 1.4168(4)
H31 H 0.8061 0.7135 1.4763
H32 H 0.8612 0.7381 1.3927
H33 H 0.8470 0.6019 1.4252
C38 C 0.3464(5) 0.9524(4) 1.2624(3)
H34 H 0.3936 0.9190 1.3197
H35 H 0.2755 0.9126 1.2532
C39 C 0.3326(3) 1.0893(4) 1.2751(3)
C40 C 0.4200(3) 1.1690(5) 1.2868(3)
H36 H 0.4886 1.1391 1.2844
C41 C 0.4058(4) 1.2943(5) 1.3021(4)
H37 H 0.4648 1.3485 1.3102
C42 C 0.3058(5) 1.3373(5) 1.3052(4)
H38 H 0.2967 1.4208 1.3171
C43 C 0.2190(4) 1.2598(5) 1.2910(4)
H39 H 0.1502 1.2905 1.2917
C44 C 0.2320(3) 1.1378(5) 1.2758(3)
H40 H 0.1715 1.0855 1.2655
loop_
_geom_bond_atom_site_label_1
_geom_bond_atom_site_label_2
_geom_bond_site_symmetry_1
_geom_bond_site_symmetry_2
O1 C1 1_555 1_555
C1 H1 1_555 1_555
N1 C1 1_555 1_555
C2 N1 1_555 1_555
O2 C2 1_555 1_555
N2 C2 1_555 1_555
H2 N2 1_555 1_555
C3 N2 1_555 1_555
O3 C3 1_555 1_555
C4 C3 1_555 1_555
C5 N1 1_555 1_555
H3 C5 1_555 1_555
C6 C4 1_555 1_555
H4 C6 1_555 1_555
H5 C6 1_555 1_555
H6 C6 1_555 1_555
C7 C1 1_555 1_555
H7 C7 1_555 1_555
O4 C7 1_555 1_555
C8 C7 1_555 1_555
S1 C8 1_555 1_555
O5 S1 1_555 1_555
O6 S1 1_555 1_555
C9 C8 1_555 1_555
H8 C9 1_555 1_555
C10 O1 1_555 1_555
H9 C10 1_555 1_555
C11 C10 1_555 1_555
H10 C11 1_555 1_555
H11 C11 1_555 1_555
O7 C11 1_555 1_555
C12 O7 1_555 1_555
C13 C12 1_555 1_555
C14 C13 1_555 1_555
H12 C14 1_555 1_555
C15 C14 1_555 1_555
H13 C15 1_555 1_555
C16 C15 1_555 1_555
H14 C16 1_555 1_555
C17 C16 1_555 1_555
H15 C17 1_555 1_555
C18 C13 1_555 1_555
H16 C18 1_555 1_555
C19 C12 1_555 1_555
C20 C19 1_555 1_555
H17 C20 1_555 1_555
C21 C20 1_555 1_555
H18 C21 1_555 1_555
C22 C21 1_555 1_555
H19 C22 1_555 1_555
C23 C22 1_555 1_555
H20 C23 1_555 1_555
C24 C19 1_555 1_555
H21 C24 1_555 1_555
C25 C12 1_555 1_555
C26 C25 1_555 1_555
H22 C26 1_555 1_555
C27 C26 1_555 1_555
H23 C27 1_555 1_555
C28 C27 1_555 1_555
H24 C28 1_555 1_555
C29 C28 1_555 1_555
H25 C29 1_555 1_555
C30 C25 1_555 1_555
H26 C30 1_555 1_555
C31 S1 1_555 1_555
C32 C31 1_555 1_555
H27 C32 1_555 1_555
C33 C32 1_555 1_555
H28 C33 1_555 1_555
C34 C33 1_555 1_555
C35 C34 1_555 1_555
H29 C35 1_555 1_555
C36 C31 1_555 1_555
H30 C36 1_555 1_555
C37 C34 1_555 1_555
H31 C37 1_555 1_555
H32 C37 1_555 1_555
H33 C37 1_555 1_555
C38 O4 1_555 1_555
H34 C38 1_555 1_555
H35 C38 1_555 1_555
C39 C38 1_555 1_555
C40 C39 1_555 1_555
H36 C40 1_555 1_555
C41 C40 1_555 1_555
H37 C41 1_555 1_555
C42 C41 1_555 1_555
H38 C42 1_555 1_555
C43 C42 1_555 1_555
H39 C43 1_555 1_555
C44 C39 1_555 1_555
H40 C44 1_555 1_555
C4 C5 1_555 1_555
C9 C10 1_555 1_555
C17 C18 1_555 1_555
C23 C24 1_555 1_555
C29 C30 1_555 1_555
C35 C36 1_555 1_555
C43 C44 1_555 1_555

#END
