
#######################################################################
#
#                 Cambridge Crystallographic Data Centre
#                                CCDC 
#
#######################################################################
#
# If this CIF has been generated from an entry in the Cambridge 
# Structural Database, then it will include bibliographic, chemical, 
# crystal, experimental, refinement or atomic coordinate data resulting 
# from the CCDC's data processing and validation procedures.
#
#######################################################################

data_VIYTUU
_chemical_formula_moiety         'C5 H12 O5 S2'
_chemical_name_systematic        2,3-bis(methylsulfonyl)propan-1-ol
_symmetry_cell_setting           triclinic
_symmetry_space_group_name_H-M   'P -1'
_symmetry_Int_Tables_number      2
_space_group_name_Hall           '-P 1'
loop_
_symmetry_equiv_pos_site_id
_symmetry_equiv_pos_as_xyz
1 x,y,z
2 -x,-y,-z
_cell_length_a                   5.817(2)
_cell_length_b                   8.453(3)
_cell_length_c                   9.551(4)
_cell_angle_alpha                73.662(8)
_cell_angle_beta                 86.225(9)
_cell_angle_gamma                84.422(8)
_cell_volume                     448.17
_exptl_crystal_colour            colorless
_cell_formula_units_Z            2
loop_
_atom_site_label
_atom_site_type_symbol
_atom_site_fract_x
_atom_site_fract_y
_atom_site_fract_z
C1 C -0.0643(4) 0.3477(3) 0.3186(3)
H1 H -0.1171 0.3734 0.2210
H2 H -0.1737 0.3969 0.3770
H3 H -0.0495 0.2299 0.3599
C2 C 0.1607(3) 0.6480(2) 0.2382(2)
H4 H 0.0354 0.6916 0.2942
C3 C 0.3862(3) 0.7179(2) 0.2578(2)
H5 H 0.4963 0.7080 0.1793
H6 H 0.4517 0.6535 0.3493
C4 C 0.6183(4) 0.9810(3) 0.2787(3)
H7 H 0.6119 1.0950 0.2785
H8 H 0.7189 0.9640 0.1995
H9 H 0.6765 0.9122 0.3695
C5 C 0.0983(4) 0.6945(3) 0.0786(2)
H10 H 0.1058 0.8126 0.0360
H11 H 0.2084 0.6373 0.0251
O1 O 0.3632(3) 0.36229(19) 0.2186(2)
O2 O 0.2695(3) 0.39651(19) 0.46328(18)
O3 O 0.2607(4) 1.02625(19) 0.1183(2)
O4 O 0.1962(3) 0.9395(2) 0.3815(2)
O5 O -0.1265(3) 0.6513(2) 0.06720(19)
H12 H -0.1816 0.7107 -0.0085
S1 S 0.20443(9) 0.42593(6) 0.31475(6)
S2 S 0.34056(9) 0.92967(6) 0.25775(6)
loop_
_geom_bond_atom_site_label_1
_geom_bond_atom_site_label_2
_geom_bond_site_symmetry_1
_geom_bond_site_symmetry_2
C1 H1 1_555 1_555
H2 C1 1_555 1_555
H3 C1 1_555 1_555
C2 H4 1_555 1_555
C3 C2 1_555 1_555
H5 C3 1_555 1_555
H6 C3 1_555 1_555
C4 H7 1_555 1_555
H8 C4 1_555 1_555
H9 C4 1_555 1_555
C5 C2 1_555 1_555
H10 C5 1_555 1_555
H11 C5 1_555 1_555
O1 S1 1_555 1_555
O2 S1 1_555 1_555
O3 S2 1_555 1_555
O4 S2 1_555 1_555
O5 C5 1_555 1_555
H12 O5 1_555 1_555
S1 C1 1_555 1_555
S2 C3 1_555 1_555
C2 S1 1_555 1_555
C4 S2 1_555 1_555

#END
