
#######################################################################
#
#                 Cambridge Crystallographic Data Centre
#                                CCDC 
#
#######################################################################
#
# If this CIF has been generated from an entry in the Cambridge 
# Structural Database, then it will include bibliographic, chemical, 
# crystal, experimental, refinement or atomic coordinate data resulting 
# from the CCDC's data processing and validation procedures.
#
#######################################################################

data_VIYVAC
_chemical_formula_moiety         'C18 H20 O4 S2'
_chemical_name_systematic        
1,1'-(But-2-ene-1,4-diyldisulfonyl)bis(4-methylbenzene)
_symmetry_cell_setting           monoclinic
_symmetry_space_group_name_H-M   'P 21/c'
_symmetry_Int_Tables_number      14
_space_group_name_Hall           '-P 2ybc'
loop_
_symmetry_equiv_pos_site_id
_symmetry_equiv_pos_as_xyz
1 x,y,z
2 -x,1/2+y,1/2-z
3 -x,-y,-z
4 x,1/2-y,1/2+z
_cell_length_a                   10.9735(7)
_cell_length_b                   6.7443(5)
_cell_length_c                   12.3384(8)
_cell_angle_alpha                90
_cell_angle_beta                 104.967(3)
_cell_angle_gamma                90
_cell_volume                     882.169
_exptl_crystal_colour            colorless
_cell_formula_units_Z            2
loop_
_atom_site_label
_atom_site_type_symbol
_atom_site_fract_x
_atom_site_fract_y
_atom_site_fract_z
S1 S 0.85463(5) 0.16315(8) 0.58943(4)
O1 O 0.87106(15) 0.0363(2) 0.68613(13)
O2 O 0.80110(14) 0.0797(2) 0.47955(12)
C1 C 0.5538(2) 0.8858(4) 0.6538(2)
H1 H 0.5461 0.8889 0.7312
H2 H 0.4695 0.8817 0.6019
H3 H 0.5982 1.0048 0.6392
C2 C 0.62670(19) 0.7042(3) 0.63708(19)
C3 C 0.6311(2) 0.6457(3) 0.52972(19)
H4 H 0.5873 0.7213 0.4667
C4 C 0.69845(19) 0.4790(3) 0.51337(18)
H5 H 0.7008 0.4402 0.4399
C5 C 0.76249(19) 0.3695(3) 0.60657(17)
C6 C 1.00514(19) 0.2649(3) 0.59107(18)
H6 H 1.0383 0.3377 0.6623
H7 H 1.0644 0.1556 0.5882
C7 C 0.99918(19) 0.4020(3) 0.49504(18)
H8 H 0.9940 0.3463 0.4233
C8 C 0.6912(2) 0.5920(3) 0.72845(18)
H9 H 0.6889 0.6304 0.8020
C9 C 0.7591(2) 0.4245(3) 0.71396(18)
H10 H 0.8027 0.3487 0.7769
S1B S 1.14537(5) 0.83685(8) 0.41057(4)
O1B O 1.12894(15) 0.9637(2) 0.31387(13)
O2B O 1.19890(14) 0.9203(2) 0.52045(12)
C1B C 1.4462(2) 0.1142(4) 0.3462(2)
H1B H 1.4539 0.1111 0.2688
H2B H 1.5305 0.1183 0.3981
H3B H 1.4018 -0.0048 0.3608
C2B C 1.37330(19) 0.2958(3) 0.36292(19)
C3B C 1.3689(2) 0.3543(3) 0.47028(19)
H4B H 1.4127 0.2787 0.5333
C4B C 1.30155(19) 0.5210(3) 0.48663(18)
H5B H 1.2992 0.5598 0.5601
C5B C 1.23751(19) 0.6305(3) 0.39343(17)
C6B C 0.99486(19) 0.7351(3) 0.40893(18)
H6B H 0.9617 0.6623 0.3377
H7B H 0.9356 0.8444 0.4118
C7B C 1.00082(19) 0.5980(3) 0.50496(18)
H8B H 1.0060 0.6537 0.5767
C8B C 1.3088(2) 0.4080(3) 0.27155(18)
H9B H 1.3111 0.3696 0.1980
C9B C 1.2409(2) 0.5755(3) 0.28604(18)
H10B H 1.1973 0.6513 0.2231
loop_
_geom_bond_atom_site_label_1
_geom_bond_atom_site_label_2
_geom_bond_site_symmetry_1
_geom_bond_site_symmetry_2
S1 O1 1_555 1_555
O2 S1 1_555 1_555
C1 H1 1_555 1_555
H2 C1 1_555 1_555
H3 C1 1_555 1_555
C2 C1 1_555 1_555
C3 C2 1_555 1_555
H4 C3 1_555 1_555
C4 C3 1_555 1_555
H5 C4 1_555 1_555
C5 S1 1_555 1_555
C6 S1 1_555 1_555
H6 C6 1_555 1_555
H7 C6 1_555 1_555
C7 C6 1_555 1_555
H8 C7 1_555 1_555
C8 C2 1_555 1_555
H9 C8 1_555 1_555
C9 C5 1_555 1_555
H10 C9 1_555 1_555
S1B O1B 1_555 1_555
O2B S1B 1_555 1_555
C1B H1B 1_555 1_555
H2B C1B 1_555 1_555
H3B C1B 1_555 1_555
C2B C1B 1_555 1_555
C3B C2B 1_555 1_555
H4B C3B 1_555 1_555
C4B C3B 1_555 1_555
H5B C4B 1_555 1_555
C5B S1B 1_555 1_555
C6B S1B 1_555 1_555
H6B C6B 1_555 1_555
H7B C6B 1_555 1_555
C7B C7 1_555 1_555
H8B C7B 1_555 1_555
C8B C2B 1_555 1_555
H9B C8B 1_555 1_555
C9B C5B 1_555 1_555
H10B C9B 1_555 1_555
C4 C5 1_555 1_555
C8 C9 1_555 1_555
C4B C5B 1_555 1_555
C6B C7B 1_555 1_555
C8B C9B 1_555 1_555

#END
