
#######################################################################
#
#                 Cambridge Crystallographic Data Centre
#                                CCDC 
#
#######################################################################
#
# If this CIF has been generated from an entry in the Cambridge 
# Structural Database, then it will include bibliographic, chemical, 
# crystal, experimental, refinement or atomic coordinate data resulting 
# from the CCDC's data processing and validation procedures.
#
#######################################################################

data_VIYYAF
_chemical_formula_moiety         'C25 H34 O4 S2'
_chemical_name_systematic        
1,1'-(pent-2-ene-1,2-diyldisulfonyl)bis(4-butylbenzene)
_symmetry_cell_setting           monoclinic
_symmetry_space_group_name_H-M   'P 21/c'
_symmetry_Int_Tables_number      14
_space_group_name_Hall           '-P 2ybc'
loop_
_symmetry_equiv_pos_site_id
_symmetry_equiv_pos_as_xyz
1 x,y,z
2 -x,1/2+y,1/2-z
3 -x,-y,-z
4 x,1/2-y,1/2+z
_cell_length_a                   29.984(3)
_cell_length_b                   5.2734(5)
_cell_length_c                   15.4864(17)
_cell_angle_alpha                90
_cell_angle_beta                 100.375(2)
_cell_angle_gamma                90
_cell_volume                     2408.64
_exptl_crystal_colour            colorless
_cell_formula_units_Z            4
loop_
_atom_site_label
_atom_site_type_symbol
_atom_site_fract_x
_atom_site_fract_y
_atom_site_fract_z
S1 S 0.81356(4) 0.7195(2) 0.69410(7)
S2 S 0.68323(4) 0.5917(2) 0.65535(8)
O1 O 0.84624(11) 0.7801(7) 0.7726(2)
O2 O 0.78919(11) 0.9243(6) 0.6442(2)
O3 O 0.66247(11) 0.4619(7) 0.7192(2)
O4 O 0.69090(12) 0.8589(7) 0.6657(3)
C1 C 1.01750(19) 0.3109(12) 0.3461(4)
H1 H 1.0069 0.4795 0.3251
H2 H 1.0314 0.2261 0.3013
H3 H 1.0399 0.3276 0.4003
C2 C 0.97739(17) 0.1541(12) 0.3642(3)
H4 H 0.9564 0.1227 0.3081
H5 H 0.9886 -0.0121 0.3888
C3 C 0.95157(17) 0.2851(11) 0.4280(3)
H6 H 0.9728 0.3176 0.4837
H7 H 0.9405 0.4512 0.4031
C4 C 0.91150(17) 0.1335(11) 0.4477(3)
H8 H 0.8905 0.0964 0.3921
H9 H 0.9225 -0.0301 0.4749
C5 C 0.88614(15) 0.2758(10) 0.5090(3)
C6 C 0.89091(16) 0.2069(10) 0.5978(3)
H10 H 0.9096 0.0671 0.6194
C7 C 0.86860(15) 0.3410(9) 0.6539(3)
H11 H 0.8717 0.2932 0.7139
C8 C 0.84170(15) 0.5450(9) 0.6221(3)
C9 C 0.77391(15) 0.5004(9) 0.7217(3)
C10 C 0.73619(14) 0.4345(9) 0.6481(3)
H12 H 0.7314 0.2488 0.6478
H13 H 0.7453 0.4810 0.5918
C11 C 0.6525(12) 0.555(5) 0.5513(11)
C12 C 0.6246(9) 0.348(4) 0.5277(9)
H14 H 0.6203 0.2247 0.5702
C13 C 0.6026(5) 0.323(2) 0.4403(8)
H15 H 0.5822 0.1864 0.4243
C14 C 0.6101(4) 0.492(2) 0.3774(6)
C15 C 0.6394(4) 0.697(2) 0.4018(7)
H16 H 0.6451 0.8134 0.3583
C16 C 0.6601(6) 0.732(3) 0.4888(9)
H17 H 0.6791 0.8742 0.5053
C17 C 0.5879(3) 0.4605(19) 0.2814(6)
H18 H 0.6113 0.4091 0.2473
H19 H 0.5653 0.3217 0.2771
C18 C 0.5643(3) 0.6986(19) 0.2400(5)
H20 H 0.5869 0.8365 0.2426
H21 H 0.5412 0.7528 0.2746
C19 C 0.5412(3) 0.6596(18) 0.1444(6)
H22 H 0.5639 0.5963 0.1104
H23 H 0.5174 0.5287 0.1421
C20 C 0.5202(3) 0.899(2) 0.1023(6)
H24 H 0.4962 0.9567 0.1332
H25 H 0.5072 0.8661 0.0407
H26 H 0.5435 1.0312 0.1057
C21 C 0.78142(16) 0.4013(10) 0.8024(3)
H27 H 0.8078 0.4563 0.8413
C22 C 0.75184(16) 0.2105(10) 0.8373(3)
H28 H 0.7695 0.0549 0.8557
H29 H 0.7260 0.1641 0.7907
C23 C 0.7342(2) 0.3226(13) 0.9156(3)
H30 H 0.7597 0.3545 0.9635
H31 H 0.7132 0.2029 0.9353
H32 H 0.7184 0.4823 0.8981
C24 C 0.85894(16) 0.4800(10) 0.4787(3)
H33 H 0.8558 0.5287 0.4189
C25 C 0.83602(16) 0.6158(10) 0.5341(3)
H34 H 0.8169 0.7539 0.5125
C26? C 0.6509(12) 0.521(5) 0.5488(11)
C27? C 0.6237(9) 0.307(4) 0.5401(9)
H35? H 0.6227 0.1996 0.5889
C28? C 0.5978(5) 0.252(2) 0.4580(7)
H36? H 0.5784 0.1085 0.4518
C29? C 0.5995(4) 0.402(2) 0.3854(6)
C30? C 0.6266(4) 0.618(2) 0.3957(7)
H37? H 0.6276 0.7247 0.3467
C31? C 0.6524(6) 0.679(3) 0.4775(9)
H38? H 0.6708 0.8272 0.4843
C32? C 0.5715(3) 0.3357(19) 0.2961(5)
H39? H 0.5845 0.1801 0.2749
H40? H 0.5404 0.2934 0.3048
C33? C 0.5678(3) 0.5316(19) 0.2248(6)
H41? H 0.5983 0.5647 0.2112
H42? H 0.5563 0.6920 0.2459
C34? C 0.5362(3) 0.4480(19) 0.1414(6)
H43? H 0.5469 0.2836 0.1221
H44? H 0.5054 0.4214 0.1548
C35? C 0.5332(4) 0.635(2) 0.0675(6)
H45? H 0.5218 0.7975 0.0855
H46? H 0.5125 0.5705 0.0160
H47? H 0.5634 0.6603 0.0530
loop_
_geom_bond_atom_site_label_1
_geom_bond_atom_site_label_2
_geom_bond_site_symmetry_1
_geom_bond_site_symmetry_2
S1 O1 1_555 1_555
S2 O3 1_555 1_555
O2 S1 1_555 1_555
O4 S2 1_555 1_555
C1 H1 1_555 1_555
H2 C1 1_555 1_555
H3 C1 1_555 1_555
C2 C1 1_555 1_555
H4 C2 1_555 1_555
H5 C2 1_555 1_555
C3 C2 1_555 1_555
H6 C3 1_555 1_555
H7 C3 1_555 1_555
C4 C3 1_555 1_555
H8 C4 1_555 1_555
H9 C4 1_555 1_555
C5 C4 1_555 1_555
C6 C5 1_555 1_555
H10 C6 1_555 1_555
C7 C6 1_555 1_555
H11 C7 1_555 1_555
C8 S1 1_555 1_555
C9 S1 1_555 1_555
C10 S2 1_555 1_555
H12 C10 1_555 1_555
H13 C10 1_555 1_555
C11 S2 1_555 1_555
C12 C11 1_555 1_555
H14 C12 1_555 1_555
C13 C12 1_555 1_555
H15 C13 1_555 1_555
C14 C13 1_555 1_555
C15 C14 1_555 1_555
H16 C15 1_555 1_555
C16 C11 1_555 1_555
H17 C16 1_555 1_555
C17 C14 1_555 1_555
H18 C17 1_555 1_555
H19 C17 1_555 1_555
C18 C17 1_555 1_555
H20 C18 1_555 1_555
H21 C18 1_555 1_555
C19 C18 1_555 1_555
H22 C19 1_555 1_555
H23 C19 1_555 1_555
C20 C19 1_555 1_555
H24 C20 1_555 1_555
H25 C20 1_555 1_555
H26 C20 1_555 1_555
C21 C9 1_555 1_555
H27 C21 1_555 1_555
C22 C21 1_555 1_555
H28 C22 1_555 1_555
H29 C22 1_555 1_555
C23 C22 1_555 1_555
H30 C23 1_555 1_555
H31 C23 1_555 1_555
H32 C23 1_555 1_555
C24 C5 1_555 1_555
H33 C24 1_555 1_555
C25 C8 1_555 1_555
H34 C25 1_555 1_555
C7 C8 1_555 1_555
C9 C10 1_555 1_555
C15 C16 1_555 1_555
C24 C25 1_555 1_555

#END
