
#######################################################################
#
#                 Cambridge Crystallographic Data Centre
#                                CCDC 
#
#######################################################################
#
# If this CIF has been generated from an entry in the Cambridge 
# Structural Database, then it will include bibliographic, chemical, 
# crystal, experimental, refinement or atomic coordinate data resulting 
# from the CCDC's data processing and validation procedures.
#
#######################################################################

data_VIZDAJ
_chemical_compound_source        'Aerial parts of Pterocaulon purpurascens'
_chemical_name_common            Purpurenol
_chemical_formula_moiety         'C16 H18 O7'
_chemical_name_systematic        
5,6-Dimethoxy-7,8-(2-methyl-2-hydroxybut-3,4-dioxy)coumarin
_chemical_properties_biological  
'digestive agent with insecticidal and antisnake bite activity, used in Argentinian folk medicine'
_symmetry_cell_setting           triclinic
_symmetry_space_group_name_H-M   'P 1'
_symmetry_Int_Tables_number      1
_space_group_name_Hall           'P 1'
loop_
_symmetry_equiv_pos_site_id
_symmetry_equiv_pos_as_xyz
1 x,y,z
_cell_length_a                   8.804(1)
_cell_length_b                   8.930(1)
_cell_length_c                   11.376(1)
_cell_angle_alpha                73.83(1)
_cell_angle_beta                 65.51(1)
_cell_angle_gamma                69.11(2)
_cell_volume                     751.378
_exptl_crystal_colour            yellow
_chemical_melting_point          110-112deg.C
_cell_formula_units_Z            2
loop_
_atom_site_label
_atom_site_type_symbol
_atom_site_fract_x
_atom_site_fract_y
_atom_site_fract_z
O1 O 0.0629 0.9537 0.7911
C1 C -0.0416(5) 1.1066(4) 0.7635(4)
C2 C -0.0031(5) 1.1770(4) 0.6269(4)
C3 C 0.1299(5) 1.0998(4) 0.5314(4)
C4 C 0.2391(4) 0.9431(4) 0.5626(3)
C5 C 0.3818(5) 0.8528(4) 0.4699(3)
C6 C 0.4843(4) 0.7067(4) 0.5095(3)
C7 C 0.4443(4) 0.6441(4) 0.6439(3)
C8 C 0.2978(4) 0.7253(4) 0.7353(3)
C9 C 0.2001(4) 0.8745(4) 0.6950(3)
O2 O 0.2444(3) 0.6633(3) 0.8660(2)
O3 O 0.5509(3) 0.5018(3) 0.6789(2)
C10 C 0.5262(5) 0.4699(4) 0.8170(3)
C11 C 0.3342(4) 0.4956(4) 0.8959(3)
C12 C 0.2820(4) 0.4565(4) 1.0463(3)
C13 C 0.3803(5) 0.2851(5) 1.0866(4)
C14 C 0.3065(6) 0.5786(5) 1.1030(4)
O4 O 0.1006(4) 0.4666(4) 1.0955(3)
O5 O -0.1529(4) 1.1666(4) 0.8559(3)
O6 O 0.4193(4) 0.9175(3) 0.3400(2)
C15 C 0.3485(6) 0.8564(6) 0.2758(4)
O7 O 0.6193(3) 0.6161(3) 0.4185(2)
C16 C 0.7868(5) 0.6187(5) 0.4009(4)
H1 H -0.0832(5) 1.2951(4) 0.6009(4)
H2 H 0.1542(5) 1.1562(4) 0.4306(4)
H3 H 0.5962(5) 0.3463(4) 0.8424(3)
H4 H 0.5739(5) 0.5519(4) 0.8378(3)
H5 H 0.2987(4) 0.4104(4) 0.8678(3)
H6 H 0.5157(5) 0.2784(5) 1.0574(4)
H7 H 0.3683(5) 0.2022(5) 1.0397(4)
H8 H 0.3272(5) 0.2525(5) 1.1914(4)
H9 H 0.4426(6) 0.5729(5) 1.0670(4)
H10 H 0.2605(6) 0.5500(5) 1.2084(4)
H11 H 0.2337(6) 0.6993(5) 1.0739(4)
H12 H 0.0809(79) 0.3601(31) 1.1270(57)
H13 H 0.3816(6) 0.9109(6) 0.1742(4)
H14 H 0.2090(6) 0.8860(6) 0.3224(4)
H15 H 0.4015(6) 0.7263(6) 0.2826(4)
H16 H 0.8828(5) 0.5444(5) 0.3281(4)
H17 H 0.8095(5) 0.5720(5) 0.4923(4)
H18 H 0.7963(5) 0.7419(5) 0.3689(4)
O8 O 1.0453(3) 0.6763(3) 0.5174(2)
C17 C 1.1548(4) 0.5266(4) 0.5458(4)
C18 C 1.1224(5) 0.4588(4) 0.6820(4)
C19 C 0.9905(5) 0.5341(4) 0.7765(3)
C20 C 0.8754(4) 0.6896(4) 0.7457(3)
C21 C 0.7339(5) 0.7748(4) 0.8409(3)
C22 C 0.6281(5) 0.9230(4) 0.8032(3)
C23 C 0.6674(4) 0.9887(4) 0.6697(3)
C24 C 0.8078(4) 0.9040(4) 0.5739(3)
C25 C 0.9088(4) 0.7549(4) 0.6154(3)
O9 O 0.8495(3) 0.9621(3) 0.4443(2)
O10 O 0.5650(4) 1.1369(3) 0.6375(2)
C26 C 0.6439(5) 1.2157(4) 0.5077(3)
C27 C 0.7196(4) 1.1007(4) 0.4091(3)
C28 C 0.8114(5) 1.1708(4) 0.2702(4)
C29 C 0.8732(7) 1.0488(6) 0.1779(4)
C30 C 0.6903(6) 1.3303(5) 0.2262(4)
O11 O 0.9577(4) 1.2082(4) 0.2698(3)
O12 O 1.2688(4) 0.4657(4) 0.4528(3)
O13 O 0.6983(4) 0.7091(3) 0.9706(2)
C31 C 0.7566(6) 0.7804(6) 1.0377(4)
O14 O 0.4938(3) 1.0088(3) 0.8954(3)
C32 C 0.3251(5) 1.0171(5) 0.8996(4)
H19 H 1.2075(5) 0.3440(4) 0.7080(4)
H20 H 0.9687(5) 0.4787(4) 0.8773(3)
H21 H 0.5467(5) 1.3189(4) 0.4814(3)
H22 H 0.7463(5) 1.2564(4) 0.5066(3)
H23 H 0.6092(4) 1.0715(4) 0.4116(3)
H24 H 0.7624(7) 1.0217(6) 0.1791(4)
H25 H 0.9593(7) 0.9388(6) 0.2095(4)
H26 H 0.9414(7) 1.0996(6) 0.0799(4)
H27 H 0.6004(6) 1.3032(5) 0.1989(4)
H28 H 0.7669(6) 1.3991(5) 0.1434(4)
H29 H 0.6190(6) 1.4004(5) 0.3056(4)
H30 H 0.9138(70) 1.3153(34) 0.2935(53)
H31 H 0.7253(6) 0.7243(6) 1.1389(4)
H32 H 0.6926(6) 0.9089(6) 1.0323(4)
H33 H 0.8954(6) 0.7615(6) 0.9923(4)
H34 H 0.2256(5) 1.0865(5) 0.9745(4)
H35 H 0.3112(5) 0.8959(5) 0.9213(4)
H36 H 0.3121(5) 1.0750(5) 0.8060(4)
loop_
_geom_bond_atom_site_label_1
_geom_bond_atom_site_label_2
_geom_bond_site_symmetry_1
_geom_bond_site_symmetry_2
O1 C1 1_555 1_555
C1 C2 1_555 1_555
C2 C3 1_555 1_555
C3 C4 1_555 1_555
C4 C5 1_555 1_555
C5 C6 1_555 1_555
C6 C7 1_555 1_555
C7 C8 1_555 1_555
C8 C9 1_555 1_555
C9 O1 1_555 1_555
O2 C8 1_555 1_555
O3 C7 1_555 1_555
C10 O3 1_555 1_555
C11 O2 1_555 1_555
C12 C11 1_555 1_555
C13 C12 1_555 1_555
C14 C12 1_555 1_555
O4 C12 1_555 1_555
O5 C1 1_555 1_555
O6 C5 1_555 1_555
C15 O6 1_555 1_555
O7 C6 1_555 1_555
C16 O7 1_555 1_555
O8 C17 1_555 1_555
C17 C18 1_555 1_555
C18 C19 1_555 1_555
C19 C20 1_555 1_555
C20 C21 1_555 1_555
C21 C22 1_555 1_555
C22 C23 1_555 1_555
C23 C24 1_555 1_555
C24 C25 1_555 1_555
C25 O8 1_555 1_555
O9 C24 1_555 1_555
O10 C23 1_555 1_555
C26 O10 1_555 1_555
C27 O9 1_555 1_555
C28 C27 1_555 1_555
C29 C28 1_555 1_555
C30 C28 1_555 1_555
O11 C28 1_555 1_555
O12 C17 1_555 1_555
O13 C21 1_555 1_555
C31 O13 1_555 1_555
O14 C22 1_555 1_555
C32 O14 1_555 1_555
H1 C2 1_555 1_555
H2 C3 1_555 1_555
H3 C10 1_555 1_555
H4 C10 1_555 1_555
H5 C11 1_555 1_555
H6 C13 1_555 1_555
H7 C13 1_555 1_555
H8 C13 1_555 1_555
H9 C14 1_555 1_555
H10 C14 1_555 1_555
H11 C14 1_555 1_555
H12 O4 1_555 1_555
H13 C15 1_555 1_555
H14 C15 1_555 1_555
H15 C15 1_555 1_555
H16 C16 1_555 1_555
H17 C16 1_555 1_555
H18 C16 1_555 1_555
H19 C18 1_555 1_555
H20 C19 1_555 1_555
H21 C26 1_555 1_555
H22 C26 1_555 1_555
H23 C27 1_555 1_555
H24 C29 1_555 1_555
H25 C29 1_555 1_555
H26 C29 1_555 1_555
H27 C30 1_555 1_555
H28 C30 1_555 1_555
H29 C30 1_555 1_555
H30 O11 1_555 1_555
H31 C31 1_555 1_555
H32 C31 1_555 1_555
H33 C31 1_555 1_555
H34 C32 1_555 1_555
H35 C32 1_555 1_555
H36 C32 1_555 1_555
C4 C9 1_555 1_555
C10 C11 1_555 1_555
C20 C25 1_555 1_555
C26 C27 1_555 1_555

#END
