
#######################################################################
#
#                 Cambridge Crystallographic Data Centre
#                                CCDC 
#
#######################################################################
#
# If this CIF has been generated from an entry in the Cambridge 
# Structural Database, then it will include bibliographic, chemical, 
# crystal, experimental, refinement or atomic coordinate data resulting 
# from the CCDC's data processing and validation procedures.
#
#######################################################################

data_VIZWEI
_chemical_formula_moiety         'C4 N7 O2 1-,H4 N1 1+'
_chemical_name_systematic        
'ammonium 6-oxido-[1,2,5]oxadiazolo[3,4-b][1,2,3]triazolo[4,5-e]pyrazin-5-ide'
_symmetry_cell_setting           monoclinic
_symmetry_space_group_name_H-M   'P 21/c'
_symmetry_Int_Tables_number      14
_space_group_name_Hall           '-P 2ybc'
loop_
_symmetry_equiv_pos_site_id
_symmetry_equiv_pos_as_xyz
1 x,y,z
2 -x,1/2+y,1/2-z
3 -x,-y,-z
4 x,1/2-y,1/2+z
_cell_length_a                   11.8394(7)
_cell_length_b                   15.5423(10)
_cell_length_c                   8.4208(5)
_cell_angle_alpha                90
_cell_angle_beta                 104.344(2)
_cell_angle_gamma                90
_cell_volume                     1501.22
_exptl_crystal_colour            yellow
_exptl_crystal_description       plate
_cell_formula_units_Z            8
loop_
_atom_site_label
_atom_site_type_symbol
_atom_site_fract_x
_atom_site_fract_y
_atom_site_fract_z
N1 N 0.14662(15) 0.37677(11) 1.0880(2)
N2 N 0.14876(15) 0.45629(11) 1.1541(2)
C1 C 0.13533(16) 0.50698(13) 1.0205(2)
N3 N 0.13255(15) 0.59107(11) 1.0186(2)
C2 C 0.11554(17) 0.62045(14) 0.8614(3)
N4 N 0.10845(16) 0.70100(12) 0.8150(2)
O1 O 0.09295(14) 0.69785(10) 0.64660(19)
N5 N 0.09052(17) 0.61369(13) 0.5889(2)
C3 C 0.10431(18) 0.56571(15) 0.7204(3)
N6 N 0.10990(15) 0.47776(12) 0.7246(2)
C4 C 0.12384(17) 0.45084(13) 0.8752(3)
N7 N 0.13159(15) 0.36813(11) 0.9268(2)
O2 O 0.15830(15) 0.31231(10) 1.1792(2)
N8 N 0.46221(16) 0.45257(12) 0.6345(2)
N9 N 0.56469(15) 0.46677(12) 0.7442(2)
C5 C 0.54067(18) 0.53620(14) 0.8277(3)
N10 N 0.61253(15) 0.57326(12) 0.9523(2)
C6 C 0.55591(18) 0.63952(14) 1.0087(3)
N11 N 0.60020(17) 0.68869(13) 1.1350(2)
O3 O 0.50994(14) 0.74366(11) 1.1459(2)
N12 N 0.40959(16) 0.72724(12) 1.0240(2)
C7 C 0.43721(18) 0.66350(14) 0.9391(3)
N13 N 0.36353(15) 0.62429(11) 0.8081(2)
C8 C 0.41856(18) 0.56073(14) 0.7581(2)
N14 N 0.37158(15) 0.50526(12) 0.6342(2)
O4 O 0.45129(15) 0.39213(11) 0.5393(2)
N15 N 0.24614(19) 0.63093(13) 0.3597(3)
H1 H 0.283(3) 0.671(2) 0.401(3)
H2 H 0.295(2) 0.5894(19) 0.351(3)
H3 H 0.188(2) 0.6235(17) 0.409(3)
H4 H 0.204(2) 0.6382(17) 0.250(4)
N16 N 0.1997(2) 0.34478(13) 0.5253(3)
H5 H 0.188(2) 0.302(2) 0.571(4)
H6 H 0.160(2) 0.3881(19) 0.562(3)
H7 H 0.172(2) 0.3412(17) 0.403(4)
H8 H 0.279(3) 0.3531(18) 0.550(3)
loop_
_geom_bond_atom_site_label_1
_geom_bond_atom_site_label_2
_geom_bond_site_symmetry_1
_geom_bond_site_symmetry_2
N1 N2 1_555 1_555
N2 C1 1_555 1_555
C1 N3 1_555 1_555
N3 C2 1_555 1_555
C2 N4 1_555 1_555
N4 O1 1_555 1_555
O1 N5 1_555 1_555
N5 C3 1_555 1_555
C3 C2 1_555 1_555
N6 C3 1_555 1_555
C4 C1 1_555 1_555
N7 N1 1_555 1_555
O2 N1 1_555 1_555
N8 N9 1_555 1_555
N9 C5 1_555 1_555
C5 N10 1_555 1_555
N10 C6 1_555 1_555
C6 N11 1_555 1_555
N11 O3 1_555 1_555
O3 N12 1_555 1_555
N12 C7 1_555 1_555
C7 C6 1_555 1_555
N13 C7 1_555 1_555
C8 C5 1_555 1_555
N14 N8 1_555 1_555
O4 N8 1_555 1_555
N15 H1 1_555 1_555
H2 N15 1_555 1_555
H3 N15 1_555 1_555
H4 N15 1_555 1_555
N16 H5 1_555 1_555
H6 N16 1_555 1_555
H7 N16 1_555 1_555
H8 N16 1_555 1_555
N6 C4 1_555 1_555
C4 N7 1_555 1_555
N13 C8 1_555 1_555
C8 N14 1_555 1_555

#END
