
#######################################################################
#
#                 Cambridge Crystallographic Data Centre
#                                CCDC 
#
#######################################################################
#
# If this CIF has been generated from an entry in the Cambridge 
# Structural Database, then it will include bibliographic, chemical, 
# crystal, experimental, refinement or atomic coordinate data resulting 
# from the CCDC's data processing and validation procedures.
#
#######################################################################

data_VIZWUX
_chemical_formula_moiety         'C14 H19 N3 O1'
_chemical_name_systematic        
(7S,9aR)-7-Benzyloctahydropyrazino(1,2-a)pyrimidin-6-one
_symmetry_cell_setting           monoclinic
_symmetry_space_group_name_H-M   'P 21'
_symmetry_Int_Tables_number      4
_space_group_name_Hall           'P 2yb'
loop_
_symmetry_equiv_pos_site_id
_symmetry_equiv_pos_as_xyz
1 x,y,z
2 -x,1/2+y,-z
_cell_length_a                   5.9571(6)
_cell_length_b                   8.1070(8)
_cell_length_c                   13.4071(13)
_cell_angle_alpha                90
_cell_angle_beta                 93.393(2)
_cell_angle_gamma                90
_cell_volume                     646.35
_exptl_crystal_colour            amber
_exptl_crystal_description       plate
_chemical_melting_point          '116-117 deg.C'
_cell_formula_units_Z            2
loop_
_atom_site_label
_atom_site_type_symbol
_atom_site_fract_x
_atom_site_fract_y
_atom_site_fract_z
N1 N 0.7656(3) 0.2567(2) 0.34662(13)
C1 C 0.6269(4) 0.3857(3) 0.32935(16)
O1 O 0.4795(3) 0.4237(2) 0.38585(13)
C2 C 0.6549(4) 0.4898(3) 0.23601(16)
H1 H 0.5038 0.5033 0.2040
N2 N 0.7899(3) 0.4157(3) 0.16169(13)
H2 H 0.7565 0.4184 0.0984
C3 C 0.9878(4) 0.3365(3) 0.20713(19)
H3 H 1.0795 0.4188 0.2428
H4 H 1.0754 0.2913 0.1549
C4 C 0.9352(4) 0.2007(3) 0.27834(16)
H5 H 0.8703 0.1087 0.2390
N3 N 1.1383(3) 0.1425(3) 0.33052(14)
H6 H 1.2700 0.1776 0.3181
C5 C 1.1006(4) 0.0199(3) 0.40544(19)
H7 H 1.2426 -0.0078 0.4406
H8 H 1.0412 -0.0794 0.3733
C6 C 0.9366(4) 0.0811(3) 0.48014(18)
H9 H 0.9042 -0.0074 0.5258
H10 H 1.0044 0.1711 0.5189
C7 C 0.7208(4) 0.1393(3) 0.42693(17)
H11 H 0.6390 0.0452 0.3987
H12 H 0.6275 0.1920 0.4745
C8 C 0.7353(4) 0.6629(3) 0.26603(18)
H13 H 0.6570 0.6982 0.3237
H14 H 0.8946 0.6583 0.2856
C9 C 0.6981(4) 0.7891(3) 0.18439(16)
C10 C 0.8557(4) 0.8186(3) 0.11586(18)
H15 H 0.9886 0.7581 0.1192
C11 C 0.8211(5) 0.9366(4) 0.04181(18)
H16 H 0.9306 0.9557 -0.0034
C12 C 0.6251(7) 1.0247(4) 0.0355(2)
H17 H 0.6002 1.1036 -0.0142
C13 C 0.4664(5) 0.9962(4) 0.1028(2)
H18 H 0.3326 1.0556 0.0985
C14 C 0.5029(4) 0.8804(3) 0.1766(2)
H19 H 0.3936 0.8631 0.2222
loop_
_geom_bond_atom_site_label_1
_geom_bond_atom_site_label_2
_geom_bond_site_symmetry_1
_geom_bond_site_symmetry_2
N1 C1 1_555 1_555
C1 O1 1_555 1_555
C2 C1 1_555 1_555
H1 C2 1_555 1_555
N2 C2 1_555 1_555
H2 N2 1_555 1_555
C3 N2 1_555 1_555
H3 C3 1_555 1_555
H4 C3 1_555 1_555
C4 N1 1_555 1_555
H5 C4 1_555 1_555
N3 C4 1_555 1_555
H6 N3 1_555 1_555
C5 N3 1_555 1_555
H7 C5 1_555 1_555
H8 C5 1_555 1_555
C6 C5 1_555 1_555
H9 C6 1_555 1_555
H10 C6 1_555 1_555
C7 N1 1_555 1_555
H11 C7 1_555 1_555
H12 C7 1_555 1_555
C8 C2 1_555 1_555
H13 C8 1_555 1_555
H14 C8 1_555 1_555
C9 C8 1_555 1_555
C10 C9 1_555 1_555
H15 C10 1_555 1_555
C11 C10 1_555 1_555
H16 C11 1_555 1_555
C12 C11 1_555 1_555
H17 C12 1_555 1_555
C13 C12 1_555 1_555
H18 C13 1_555 1_555
C14 C9 1_555 1_555
H19 C14 1_555 1_555
C3 C4 1_555 1_555
C6 C7 1_555 1_555
C13 C14 1_555 1_555

#END
