
#######################################################################
#
#                 Cambridge Crystallographic Data Centre
#                                CCDC 
#
#######################################################################
#
# If this CIF has been generated from an entry in the Cambridge 
# Structural Database, then it will include bibliographic, chemical, 
# crystal, experimental, refinement or atomic coordinate data resulting 
# from the CCDC's data processing and validation procedures.
#
#######################################################################

data_VOBBEV
_chemical_formula_moiety         'C16 H12 N2 O8'
_chemical_name_systematic        
"Dimethyl 2,2'-dinitrobiphenyl-4,4'-dicarboxylate"
_symmetry_cell_setting           triclinic
_symmetry_space_group_name_H-M   'P -1'
_symmetry_Int_Tables_number      2
_space_group_name_Hall           '-P 1'
loop_
_symmetry_equiv_pos_site_id
_symmetry_equiv_pos_as_xyz
1 x,y,z
2 -x,-y,-z
_cell_length_a                   8.0520(5)
_cell_length_b                   10.4193(7)
_cell_length_c                   10.5310(11)
_cell_angle_alpha                108.423(4)
_cell_angle_beta                 95.142(4)
_cell_angle_gamma                111.617(3)
_cell_volume                     757.713
_exptl_crystal_colour            yellow
_exptl_crystal_description       BLOCK
_cell_formula_units_Z            2
loop_
_atom_site_label
_atom_site_type_symbol
_atom_site_fract_x
_atom_site_fract_y
_atom_site_fract_z
O1 O 0.28379(14) -0.04398(11) 0.86338(10)
O2 O 0.02811(15) -0.01405(13) 0.81152(11)
O3 O 0.80395(15) 0.15657(14) 0.70622(13)
O4 O 0.80373(15) 0.23016(13) 0.53753(11)
O5 O 0.72326(16) 0.49239(12) 0.69694(11)
O6 O 0.93059(15) 0.61445(13) 0.61157(11)
O7 O 0.80462(15) 0.55730(12) 0.14341(11)
O8 O 0.56913(17) 0.35679(13) -0.01199(11)
N1 N 0.72907(16) 0.18850(13) 0.62186(13)
N2 N 0.78359(17) 0.51402(14) 0.59936(12)
C1 C 0.1936(2) -0.12748(18) 0.94307(16)
H1 H 0.2829 -0.1467 0.9949
H2 H 0.0943 -0.2224 0.8810
H3 H 0.1427 -0.0698 1.0072
C2 C 0.1814(2) 0.00368(16) 0.79992(15)
C3 C 0.2780(2) 0.07985(15) 0.71294(14)
C4 C 0.4574(2) 0.10299(15) 0.70668(14)
H4 H 0.5234 0.0717 0.7606
C5 C 0.53980(19) 0.17125(15) 0.62247(15)
C6 C 0.4489(2) 0.21904(15) 0.53960(15)
C7 C 0.2683(2) 0.19281(16) 0.54750(15)
H5 H 0.2004 0.2214 0.4919
C8 C 0.1845(2) 0.12668(16) 0.63336(15)
H6 H 0.0622 0.1132 0.6379
C9 C 0.5175(2) 0.28358(16) 0.43647(15)
C10 C 0.6699(2) 0.41620(16) 0.45972(15)
C11 C 0.7209(2) 0.46404(16) 0.35496(15)
H7 H 0.8284 0.5524 0.3740
C12 C 0.6138(2) 0.38191(16) 0.22211(15)
C13 C 0.4585(2) 0.25263(17) 0.19660(16)
H8 H 0.3833 0.1967 0.1060
C14 C 0.4123(2) 0.20443(16) 0.30184(15)
H9 H 0.3060 0.1149 0.2819
C15 C 0.6575(2) 0.42811(17) 0.10439(16)
C16 C 0.8490(3) 0.6119(2) 0.03466(17)
H10 H 0.9564 0.7083 0.0729
H11 H 0.7443 0.6240 -0.0062
H12 H 0.8765 0.5404 -0.0362
loop_
_geom_bond_atom_site_label_1
_geom_bond_atom_site_label_2
_geom_bond_site_symmetry_1
_geom_bond_site_symmetry_2
O1 C1 1_555 1_555
O2 C2 1_555 1_555
O3 N1 1_555 1_555
O4 N1 1_555 1_555
O5 N2 1_555 1_555
O6 N2 1_555 1_555
O7 C15 1_555 1_555
O8 C15 1_555 1_555
N1 C5 1_555 1_555
N2 C10 1_555 1_555
C1 H1 1_555 1_555
H2 C1 1_555 1_555
H3 C1 1_555 1_555
C2 O1 1_555 1_555
C3 C2 1_555 1_555
C4 C3 1_555 1_555
H4 C4 1_555 1_555
C5 C4 1_555 1_555
C6 C5 1_555 1_555
C7 C6 1_555 1_555
H5 C7 1_555 1_555
C8 C3 1_555 1_555
H6 C8 1_555 1_555
C9 C6 1_555 1_555
C10 C9 1_555 1_555
C11 C10 1_555 1_555
H7 C11 1_555 1_555
C12 C11 1_555 1_555
C13 C12 1_555 1_555
H8 C13 1_555 1_555
C14 C9 1_555 1_555
H9 C14 1_555 1_555
C15 C12 1_555 1_555
C16 O7 1_555 1_555
H10 C16 1_555 1_555
H11 C16 1_555 1_555
H12 C16 1_555 1_555
C7 C8 1_555 1_555
C13 C14 1_555 1_555

#END
