
#######################################################################
#
#                 Cambridge Crystallographic Data Centre
#                                CCDC 
#
#######################################################################
#
# If this CIF has been generated from an entry in the Cambridge 
# Structural Database, then it will include bibliographic, chemical, 
# crystal, experimental, refinement or atomic coordinate data resulting 
# from the CCDC's data processing and validation procedures.
#
#######################################################################

data_VOBREL
_chemical_formula_moiety         'C17 H27 N5 O4'
_chemical_name_systematic        
9-sec-butyl-6-isopropyl-11-oxa-1,5,8,14,15-pentaazabicyclo[11.2.1]hexadeca-13(16),14-diene-4,7,10-trione
_symmetry_cell_setting           orthorhombic
_symmetry_space_group_name_H-M   'P 21 21 21'
_symmetry_Int_Tables_number      19
_space_group_name_Hall           'P 2ac 2ab'
loop_
_symmetry_equiv_pos_site_id
_symmetry_equiv_pos_as_xyz
1 x,y,z
2 1/2+x,1/2-y,-z
3 -x,1/2+y,1/2-z
4 1/2-x,-y,1/2+z
_cell_length_a                   9.359(4)
_cell_length_b                   10.657(4)
_cell_length_c                   19.105(7)
_cell_angle_alpha                90
_cell_angle_beta                 90
_cell_angle_gamma                90
_cell_volume                     1905.51
_exptl_crystal_colour            colorless
_exptl_crystal_description       plate
_cell_formula_units_Z            4
loop_
_atom_site_label
_atom_site_type_symbol
_atom_site_fract_x
_atom_site_fract_y
_atom_site_fract_z
N1 N 0.6821(5) 0.7817(5) 0.2184(3)
N2 N 0.5823(5) 0.7434(5) 0.2648(3)
N3 N 0.5799(5) 0.6179(6) 0.2607(3)
N4 N 0.6458(4) 0.5798(4) -0.0225(2)
H1 H 0.5644 0.6093 -0.0387
N5 N 0.6675(4) 0.8510(4) 0.0200(2)
H2 H 0.5738 0.8581 0.0192
O1 O 0.7240(4) 0.4319(4) 0.1216(2)
O2 O 0.4956(4) 0.4838(4) 0.1017(2)
O3 O 0.8789(3) 0.6129(3) -0.0060(2)
O4 O 0.8682(4) 0.8885(3) 0.0820(2)
C1 C 0.7449(6) 0.6839(6) 0.1872(3)
H3 H 0.8201 0.6860 0.1538
C2 C 0.6788(6) 0.5814(6) 0.2133(3)
C3 C 0.6993(7) 0.4479(6) 0.1963(3)
H4 H 0.7821 0.4147 0.2228
H5 H 0.6135 0.3998 0.2104
C4 C 0.6115(6) 0.4577(6) 0.0790(3)
C5 C 0.6511(5) 0.4512(5) 0.0031(3)
H6 H 0.7517 0.4203 -0.0007
C6 C 0.7600(5) 0.6543(5) -0.0221(3)
C7 C 0.7385(5) 0.7932(5) -0.0395(3)
H7 H 0.8351 0.8324 -0.0440
C8 C 0.7377(6) 0.8936(5) 0.0755(3)
C9 C 0.6469(6) 0.9528(6) 0.1330(3)
H8 H 0.6500 1.0453 0.1285
H9 H 0.5463 0.9256 0.1276
C10 C 0.7007(6) 0.9151(6) 0.2047(3)
H10 H 0.8034 0.9364 0.2084
H11 H 0.6488 0.9638 0.2407
C11 C 0.5544(6) 0.3621(6) -0.0377(3)
H12 H 0.4544 0.3951 -0.0358
C12 C 0.5577(6) 0.2337(5) -0.0027(4)
H13 H 0.6565 0.2034 -0.0005
H14 H 0.4998 0.1746 -0.0300
H15 H 0.5189 0.2404 0.0448
C13 C 0.6017(6) 0.3580(6) -0.1138(3)
H16 H 0.6953 0.3151 -0.1168
H17 H 0.6145 0.4449 -0.1311
C14 C 0.4945(6) 0.2899(6) -0.1611(4)
H18 H 0.4860 0.2022 -0.1462
H19 H 0.5280 0.2929 -0.2097
H20 H 0.4011 0.3309 -0.1577
C15 C 0.6597(5) 0.8135(6) -0.1083(3)
H21 H 0.5664 0.7679 -0.1064
C16 C 0.6313(6) 0.9517(5) -0.1210(3)
H22 H 0.5749 0.9857 -0.0821
H23 H 0.5781 0.9619 -0.1648
H24 H 0.7223 0.9967 -0.1242
C17 C 0.7502(6) 0.7580(6) -0.1670(3)
H25 H 0.7004 0.7685 -0.2117
H26 H 0.7660 0.6685 -0.1581
H27 H 0.8425 0.8015 -0.1689
loop_
_geom_bond_atom_site_label_1
_geom_bond_atom_site_label_2
_geom_bond_site_symmetry_1
_geom_bond_site_symmetry_2
N1 N2 1_555 1_555
N2 N3 1_555 1_555
N3 C2 1_555 1_555
N4 H1 1_555 1_555
N5 H2 1_555 1_555
O1 C3 1_555 1_555
O2 C4 1_555 1_555
O3 C6 1_555 1_555
O4 C8 1_555 1_555
C1 N1 1_555 1_555
H3 C1 1_555 1_555
C2 C1 1_555 1_555
C3 C2 1_555 1_555
H4 C3 1_555 1_555
H5 C3 1_555 1_555
C4 O1 1_555 1_555
C5 N4 1_555 1_555
H6 C5 1_555 1_555
C6 N4 1_555 1_555
C7 N5 1_555 1_555
H7 C7 1_555 1_555
C8 N5 1_555 1_555
C9 C8 1_555 1_555
H8 C9 1_555 1_555
H9 C9 1_555 1_555
C10 N1 1_555 1_555
H10 C10 1_555 1_555
H11 C10 1_555 1_555
C11 C5 1_555 1_555
H12 C11 1_555 1_555
C12 C11 1_555 1_555
H13 C12 1_555 1_555
H14 C12 1_555 1_555
H15 C12 1_555 1_555
C13 C11 1_555 1_555
H16 C13 1_555 1_555
H17 C13 1_555 1_555
C14 C13 1_555 1_555
H18 C14 1_555 1_555
H19 C14 1_555 1_555
H20 C14 1_555 1_555
C15 C7 1_555 1_555
H21 C15 1_555 1_555
C16 C15 1_555 1_555
H22 C16 1_555 1_555
H23 C16 1_555 1_555
H24 C16 1_555 1_555
C17 C15 1_555 1_555
H25 C17 1_555 1_555
H26 C17 1_555 1_555
H27 C17 1_555 1_555
C4 C5 1_555 1_555
C6 C7 1_555 1_555
C9 C10 1_555 1_555

#END
