
#######################################################################
#
#                 Cambridge Crystallographic Data Centre
#                                CCDC 
#
#######################################################################
#
# If this CIF has been generated from an entry in the Cambridge 
# Structural Database, then it will include bibliographic, chemical, 
# crystal, experimental, refinement or atomic coordinate data resulting 
# from the CCDC's data processing and validation procedures.
#
#######################################################################

data_VOBTUD
_chemical_formula_moiety         'C23 H13 N3 O2'
_chemical_name_systematic        
'Prop-2-yn-1-yl 15,16,16-tricyanotetracyclo[6.6.2.0^2,7^.0^9,14^]hexadeca-2,4,6,9,11,13-hexaene-15-carboxylate'
_symmetry_cell_setting           monoclinic
_symmetry_space_group_name_H-M   'P 21/c'
_symmetry_Int_Tables_number      14
_space_group_name_Hall           '-P 2ybc'
loop_
_symmetry_equiv_pos_site_id
_symmetry_equiv_pos_as_xyz
1 x,y,z
2 -x,1/2+y,1/2-z
3 -x,-y,-z
4 x,1/2-y,1/2+z
_cell_length_a                   10.1454(4)
_cell_length_b                   8.1110(2)
_cell_length_c                   22.8788(10)
_cell_angle_alpha                90
_cell_angle_beta                 96.244(2)
_cell_angle_gamma                90
_cell_volume                     1871.51
_exptl_crystal_colour            colorless
_exptl_crystal_description       block
_chemical_melting_point          '148-149 deg.C'
_cell_formula_units_Z            4
_exptl_crystal_recrystallization_method chloroform/n-heptane
loop_
_atom_site_label
_atom_site_type_symbol
_atom_site_fract_x
_atom_site_fract_y
_atom_site_fract_z
C1 C 0.98593(14) 0.15073(17) 0.35867(6)
C2 C 0.87544(14) 0.23417(18) 0.37348(7)
H1 H 0.8808 0.3032 0.4072
C3 C 0.75631(15) 0.21464(19) 0.33790(7)
H2 H 0.6800 0.2733 0.3468
C4 C 0.74766(15) 0.11074(19) 0.28966(7)
H3 H 0.6648 0.0963 0.2666
C5 C 0.85901(14) 0.02719(18) 0.27461(7)
H4 H 0.8531 -0.0438 0.2414
C6 C 0.97849(13) 0.04978(16) 0.30905(6)
C7 C 1.10951(14) -0.02960(17) 0.29912(6)
H5 H 1.1039 -0.0913 0.2611
C8 C 1.21602(13) 0.10170(17) 0.30291(6)
C9 C 1.30296(15) 0.13129(18) 0.26141(7)
H6 H 1.2980 0.0684 0.2262
C10 C 1.39746(14) 0.25458(19) 0.27225(8)
H7 H 1.4570 0.2774 0.2440
C11 C 1.40563(14) 0.34465(19) 0.32401(7)
H8 H 1.4709 0.4284 0.3308
C12 C 1.31981(14) 0.31408(18) 0.36592(7)
H9 H 1.3262 0.3756 0.4014
C13 C 1.22422(13) 0.19183(17) 0.35510(6)
C14 C 1.12004(13) 0.14618(17) 0.39477(6)
H10 H 1.1232 0.2202 0.4299
C15 C 1.15044(14) -0.14605(17) 0.35398(6)
C16 C 1.13837(13) -0.04032(17) 0.41299(6)
C17 C 1.06422(16) -0.29271(19) 0.35060(7)
C18 C 1.28914(15) -0.20138(18) 0.35232(7)
C19 C 1.01985(14) -0.09835(18) 0.43922(6)
C20 C 1.26094(14) -0.06505(18) 0.45803(7)
C21 C 1.37928(16) -0.2659(2) 0.51771(7)
H11 H 1.4601 -0.2613 0.4971
H12 H 1.3905 -0.1898 0.5517
C22 C 1.35597(16) -0.4334(2) 0.53709(8)
C23 C 1.33298(19) -0.5678(2) 0.55225(9)
H13 H 1.3144 -0.6764 0.5645
N1 N 0.99434(17) -0.40301(18) 0.34552(7)
N2 N 1.39715(14) -0.24036(18) 0.35099(6)
N3 N 0.92698(14) -0.14204(18) 0.45865(6)
O1 O 1.34101(10) 0.03827(13) 0.47195(5)
O2 O 1.26257(10) -0.22045(12) 0.47784(5)
loop_
_geom_bond_atom_site_label_1
_geom_bond_atom_site_label_2
_geom_bond_site_symmetry_1
_geom_bond_site_symmetry_2
C1 C2 1_555 1_555
C2 H1 1_555 1_555
C3 C2 1_555 1_555
H2 C3 1_555 1_555
C4 C3 1_555 1_555
H3 C4 1_555 1_555
C5 C4 1_555 1_555
H4 C5 1_555 1_555
C6 C1 1_555 1_555
C7 C6 1_555 1_555
H5 C7 1_555 1_555
C8 C7 1_555 1_555
C9 C8 1_555 1_555
H6 C9 1_555 1_555
C10 C9 1_555 1_555
H7 C10 1_555 1_555
C11 C10 1_555 1_555
H8 C11 1_555 1_555
C12 C11 1_555 1_555
H9 C12 1_555 1_555
C13 C8 1_555 1_555
C14 C1 1_555 1_555
H10 C14 1_555 1_555
C15 C7 1_555 1_555
C16 C14 1_555 1_555
C17 C15 1_555 1_555
C18 C15 1_555 1_555
C19 C16 1_555 1_555
C20 C16 1_555 1_555
C21 H11 1_555 1_555
H12 C21 1_555 1_555
C22 C21 1_555 1_555
C23 C22 1_555 1_555
H13 C23 1_555 1_555
N1 C17 1_555 1_555
N2 C18 1_555 1_555
N3 C19 1_555 1_555
O1 C20 1_555 1_555
O2 C20 1_555 1_555
C5 C6 1_555 1_555
C12 C13 1_555 1_555
C13 C14 1_555 1_555
C15 C16 1_555 1_555
C21 O2 1_555 1_555

#END
