
#######################################################################
#
#                 Cambridge Crystallographic Data Centre
#                                CCDC 
#
#######################################################################
#
# If this CIF has been generated from an entry in the Cambridge 
# Structural Database, then it will include bibliographic, chemical, 
# crystal, experimental, refinement or atomic coordinate data resulting 
# from the CCDC's data processing and validation procedures.
#
#######################################################################

data_VOBVAL
_chemical_formula_moiety         'C27 H18 N4 O2'
_chemical_name_systematic        
1,8-Dimethyl-16-(4-nitrophenyl)tetracyclo[6.6.2.0^2,7^.0^9,14^]hexadeca-2,4,6,9,11,13-hexaene-15,15,16-tricarbonitrile
_symmetry_cell_setting           triclinic
_symmetry_space_group_name_H-M   'P -1'
_symmetry_Int_Tables_number      2
_space_group_name_Hall           '-P 1'
loop_
_symmetry_equiv_pos_site_id
_symmetry_equiv_pos_as_xyz
1 x,y,z
2 -x,-y,-z
_cell_length_a                   8.5514(3)
_cell_length_b                   10.1353(4)
_cell_length_c                   12.6000(7)
_cell_angle_alpha                89.003(3)
_cell_angle_beta                 74.269(3)
_cell_angle_gamma                79.104(3)
_cell_volume                     1031.54
_exptl_crystal_colour            colorless
_exptl_crystal_description       prism
_chemical_melting_point          '55-57 deg.C'
_cell_formula_units_Z            2
_exptl_crystal_recrystallization_method chloroform/methanol
loop_
_atom_site_label
_atom_site_type_symbol
_atom_site_fract_x
_atom_site_fract_y
_atom_site_fract_z
C1 C 0.86538(17) 0.18731(14) 0.59705(12)
C2 C 0.92958(18) 0.18288(14) 0.48357(13)
H1 H 0.8575 0.1935 0.4371
C3 C 1.10036(19) 0.16283(15) 0.43777(14)
H2 H 1.1449 0.1618 0.3600
C4 C 1.20495(19) 0.14452(15) 0.50551(14)
H3 H 1.3213 0.1303 0.4740
C5 C 1.14149(17) 0.14673(15) 0.61903(14)
H4 H 1.2142 0.1320 0.6650
C6 C 0.97152(17) 0.17049(13) 0.66550(13)
C7 C 0.88497(17) 0.18360(14) 0.78804(13)
C8 C 1.00234(18) 0.16451(15) 0.86142(14)
H5 H 1.0700 0.0737 0.8485
H6 H 0.9380 0.1766 0.9390
H7 H 1.0745 0.2309 0.8440
C9 C 0.76408(17) 0.08680(14) 0.80963(13)
C10 C 0.75578(18) -0.01140(15) 0.88782(14)
H8 H 0.8271 -0.0210 0.9348
C11 C 0.64209(19) -0.09586(16) 0.89701(14)
H9 H 0.6373 -0.1643 0.9497
C12 C 0.53624(19) -0.08093(16) 0.83016(14)
H10 H 0.4591 -0.1390 0.8372
C13 C 0.54219(18) 0.01853(15) 0.75282(14)
H11 H 0.4682 0.0295 0.7077
C14 C 0.65705(17) 0.10218(14) 0.74170(12)
C15 C 0.68266(17) 0.21094(14) 0.65773(13)
C16 C 0.56893(18) 0.22543(16) 0.58221(13)
H12 H 0.5912 0.2988 0.5321
H13 H 0.4534 0.2455 0.6268
H14 H 0.5890 0.1413 0.5392
C17 C 0.64890(17) 0.34777(14) 0.73089(12)
C18 C 0.47287(19) 0.37157(15) 0.79550(13)
C19 C 0.66972(19) 0.46024(15) 0.65541(14)
C20 C 0.77048(17) 0.33279(14) 0.81031(12)
C21 C 0.66772(18) 0.33555(14) 0.92617(13)
C22 C 0.87448(17) 0.44352(14) 0.79865(12)
C23 C 0.99028(18) 0.45991(14) 0.69923(13)
H15 H 0.9980 0.4077 0.6355
C24 C 1.09383(18) 0.55157(14) 0.69291(13)
H16 H 1.1757 0.5599 0.6263
C25 C 1.07558(17) 0.63056(14) 0.78535(13)
C26 C 0.95991(18) 0.61994(15) 0.88375(13)
H17 H 0.9487 0.6762 0.9460
C27 C 0.86011(18) 0.52514(15) 0.88997(13)
H18 H 0.7808 0.5158 0.9576
N1 N 0.33612(17) 0.38228(15) 0.84212(12)
N2 N 0.6820(2) 0.54202(15) 0.59123(14)
N3 N 0.59106(17) 0.33712(13) 1.01615(12)
N4 N 1.18388(15) 0.72945(13) 0.77886(11)
O1 O 1.30364(15) 0.72286(14) 0.69783(11)
O2 O 1.14849(14) 0.81392(11) 0.85389(11)
loop_
_geom_bond_atom_site_label_1
_geom_bond_atom_site_label_2
_geom_bond_site_symmetry_1
_geom_bond_site_symmetry_2
C1 C2 1_555 1_555
C2 H1 1_555 1_555
C3 C2 1_555 1_555
H2 C3 1_555 1_555
C4 C3 1_555 1_555
H3 C4 1_555 1_555
C5 C4 1_555 1_555
H4 C5 1_555 1_555
C6 C1 1_555 1_555
C7 C6 1_555 1_555
C8 C7 1_555 1_555
H5 C8 1_555 1_555
H6 C8 1_555 1_555
H7 C8 1_555 1_555
C9 C7 1_555 1_555
C10 C9 1_555 1_555
H8 C10 1_555 1_555
C11 C10 1_555 1_555
H9 C11 1_555 1_555
C12 C11 1_555 1_555
H10 C12 1_555 1_555
C13 C12 1_555 1_555
H11 C13 1_555 1_555
C14 C9 1_555 1_555
C15 C1 1_555 1_555
C16 C15 1_555 1_555
H12 C16 1_555 1_555
H13 C16 1_555 1_555
H14 C16 1_555 1_555
C17 C15 1_555 1_555
C18 C17 1_555 1_555
C19 C17 1_555 1_555
C20 C7 1_555 1_555
C21 C20 1_555 1_555
C22 C20 1_555 1_555
C23 C22 1_555 1_555
H15 C23 1_555 1_555
C24 C23 1_555 1_555
H16 C24 1_555 1_555
C25 C24 1_555 1_555
C26 C25 1_555 1_555
H17 C26 1_555 1_555
C27 C22 1_555 1_555
H18 C27 1_555 1_555
N1 C18 1_555 1_555
N2 C19 1_555 1_555
N3 C21 1_555 1_555
N4 C25 1_555 1_555
O1 N4 1_555 1_555
O2 N4 1_555 1_555
C5 C6 1_555 1_555
C13 C14 1_555 1_555
C14 C15 1_555 1_555
C17 C20 1_555 1_555
C26 C27 1_555 1_555

#END
