
#######################################################################
#
#                 Cambridge Crystallographic Data Centre
#                                CCDC 
#
#######################################################################
#
# If this CIF has been generated from an entry in the Cambridge 
# Structural Database, then it will include bibliographic, chemical, 
# crystal, experimental, refinement or atomic coordinate data resulting 
# from the CCDC's data processing and validation procedures.
#
#######################################################################

data_VOBYIW
_chemical_formula_moiety         'C19 H13 Cl2 N3 O2'
_chemical_name_systematic        
3,4-Dichloro-7-(4-(dimethylamino)phenyl)-8-methyl-2-oxo-1-oxaspiro[4.4]nona-3,6,8-triene-6,9-dicarbonitrile
_symmetry_cell_setting           triclinic
_symmetry_space_group_name_H-M   'P -1'
_symmetry_Int_Tables_number      2
_space_group_name_Hall           '-P 1'
loop_
_symmetry_equiv_pos_site_id
_symmetry_equiv_pos_as_xyz
1 x,y,z
2 -x,-y,-z
_cell_length_a                   7.0886(4)
_cell_length_b                   9.9321(6)
_cell_length_c                   13.6422(8)
_cell_angle_alpha                100.773(3)
_cell_angle_beta                 95.561(3)
_cell_angle_gamma                110.002(3)
_cell_volume                     873.071
_exptl_crystal_colour            red
_exptl_crystal_description       rod
_cell_formula_units_Z            2
loop_
_atom_site_label
_atom_site_type_symbol
_atom_site_fract_x
_atom_site_fract_y
_atom_site_fract_z
Cl1 Cl 1.06330(8) 1.17495(6) 0.30209(4)
Cl2 Cl 1.01757(8) 1.51734(6) 0.36383(4)
O1 O 0.5653(2) 1.41518(15) 0.40442(12)
O2 O 0.54330(19) 1.17982(14) 0.37828(11)
N1 N 0.8566(3) 1.12076(19) 0.60141(15)
N2 N 0.4476(3) 1.0933(2) 0.10797(15)
N3 N 0.1354(3) 0.32524(18) -0.04927(13)
C1 C 0.6683(3) 1.0978(2) 0.34455(15)
C2 C 0.6951(3) 1.0032(2) 0.41424(15)
C3 C 0.6301(3) 0.8611(2) 0.36525(15)
C4 C 0.5419(3) 0.8463(2) 0.25723(15)
C5 C 0.5641(3) 0.9848(2) 0.24768(15)
C6 C 0.8639(3) 1.2170(2) 0.33699(15)
C7 C 0.8480(3) 1.3472(2) 0.36046(16)
C8 C 0.6428(3) 1.3268(2) 0.38399(16)
C9 C 0.7863(3) 1.0659(2) 0.51856(17)
C10 C 0.6501(3) 0.7428(2) 0.41316(16)
H1 H 0.7359 0.7872 0.4803
H2 H 0.7128 0.6852 0.3707
H3 H 0.5148 0.6781 0.4201
C11 C 0.4962(3) 1.0372(2) 0.16689(17)
C12 C 0.4488(3) 0.7111(2) 0.17961(15)
C13 C 0.3819(3) 0.5695(2) 0.20028(16)
H4 H 0.4084 0.5612 0.2681
C14 C 0.2804(3) 0.4443(2) 0.12614(15)
H5 H 0.2379 0.3517 0.1439
C15 C 0.2373(3) 0.4487(2) 0.02450(16)
C16 C 0.3082(3) 0.5894(2) 0.00231(16)
H6 H 0.2844 0.5973 -0.0657
C17 C 0.4102(3) 0.7140(2) 0.07688(16)
H7 H 0.4570 0.8062 0.0588
C18 C 0.0590(4) 0.1824(2) -0.02464(19)
H8 H 0.1717 0.1651 0.0116
H9 H -0.0017 0.1051 -0.0872
H10 H -0.0445 0.1804 0.0183
C19 C 0.0798(3) 0.3340(2) -0.15279(16)
H11 H -0.0038 0.3947 -0.1534
H12 H 0.0021 0.2347 -0.1948
H13 H 0.2036 0.3785 -0.1798
loop_
_geom_bond_atom_site_label_1
_geom_bond_atom_site_label_2
_geom_bond_site_symmetry_1
_geom_bond_site_symmetry_2
Cl1 C6 1_555 1_555
Cl2 C7 1_555 1_555
O1 C8 1_555 1_555
O2 C1 1_555 1_555
N1 C9 1_555 1_555
N2 C11 1_555 1_555
N3 C15 1_555 1_555
C1 C2 1_555 1_555
C2 C3 1_555 1_555
C3 C4 1_555 1_555
C4 C5 1_555 1_555
C5 C1 1_555 1_555
C6 C1 1_555 1_555
C7 C6 1_555 1_555
C8 O2 1_555 1_555
C9 C2 1_555 1_555
C10 C3 1_555 1_555
H1 C10 1_555 1_555
H2 C10 1_555 1_555
H3 C10 1_555 1_555
C11 C5 1_555 1_555
C12 C4 1_555 1_555
C13 C12 1_555 1_555
H4 C13 1_555 1_555
C14 C13 1_555 1_555
H5 C14 1_555 1_555
C15 C14 1_555 1_555
C16 C15 1_555 1_555
H6 C16 1_555 1_555
C17 C12 1_555 1_555
H7 C17 1_555 1_555
C18 N3 1_555 1_555
H8 C18 1_555 1_555
H9 C18 1_555 1_555
H10 C18 1_555 1_555
C19 N3 1_555 1_555
H11 C19 1_555 1_555
H12 C19 1_555 1_555
H13 C19 1_555 1_555
C7 C8 1_555 1_555
C16 C17 1_555 1_555

#END
