
#######################################################################
#
#                 Cambridge Crystallographic Data Centre
#                                CCDC 
#
#######################################################################
#
# If this CIF has been generated from an entry in the Cambridge 
# Structural Database, then it will include bibliographic, chemical, 
# crystal, experimental, refinement or atomic coordinate data resulting 
# from the CCDC's data processing and validation procedures.
#
#######################################################################

data_VOCBIZ
_chemical_name_common            7,8-dimethyl-N(10)-n-butylisoalloxazine
_chemical_formula_moiety         'C16 H18 N4 O2'
_chemical_name_systematic        
10-n-butyl-7,8-dimethylbenzo[g]pteridine-2,4(3H,10H)-dione
_symmetry_cell_setting           triclinic
_symmetry_space_group_name_H-M   'P -1'
_symmetry_Int_Tables_number      2
_space_group_name_Hall           '-P 1'
loop_
_symmetry_equiv_pos_site_id
_symmetry_equiv_pos_as_xyz
1 x,y,z
2 -x,-y,-z
_cell_length_a                   8.152(6)
_cell_length_b                   10.051(8)
_cell_length_c                   10.325(8)
_cell_angle_alpha                64.562(12)
_cell_angle_beta                 68.541(13)
_cell_angle_gamma                78.667(14)
_cell_volume                     710.23
_exptl_crystal_colour            yellow
_exptl_crystal_description       block
_chemical_melting_point          'above 240 deg.C'
_cell_formula_units_Z            2
_exptl_crystal_recrystallization_method methanol/chloroform
loop_
_atom_site_label
_atom_site_type_symbol
_atom_site_fract_x
_atom_site_fract_y
_atom_site_fract_z
N1 N 0.1874(4) 0.9586(3) 0.2005(3)
N2 N 0.3574(3) 1.1635(3) -0.0876(3)
N3 N 0.2336(4) 1.0982(3) 0.3103(3)
N4 N 0.3787(4) 1.3253(3) 0.1504(3)
O1 O 0.2937(3) 1.2430(3) 0.4036(3)
O2 O 0.4819(3) 1.4094(3) -0.1052(3)
C1 C 0.2909(4) 1.0403(4) -0.0708(4)
C2 C 0.3071(4) 1.0195(4) -0.2010(4)
H1 H 0.3600 1.0910 -0.2954
C3 C 0.2476(4) 0.8974(4) -0.1935(4)
C4 C 0.2695(5) 0.8762(4) -0.3347(4)
H2 H 0.3204 0.9616 -0.4218
H3 H 0.1564 0.8628 -0.3351
H4 H 0.3458 0.7908 -0.3371
C5 C 0.1675(4) 0.7897(4) -0.0491(4)
C6 C 0.1064(5) 0.6514(4) -0.0353(4)
H5 H 0.0512 0.5924 0.0695
H6 H 0.2059 0.5966 -0.0774
H7 H 0.0231 0.6766 -0.0891
C7 C 0.1474(4) 0.8099(4) 0.0795(4)
H8 H 0.0928 0.7386 0.1734
C8 C 0.2068(4) 0.9351(4) 0.0728(4)
C9 C 0.1010(4) 0.8492(4) 0.3526(3)
H9 H 0.0025 0.8109 0.3499
H10 H 0.0547 0.8975 0.4233
C10 C 0.2265(5) 0.7226(4) 0.4078(4)
H11 H 0.3204 0.7600 0.4177
H12 H 0.2794 0.6789 0.3336
C11 C 0.1340(5) 0.6047(4) 0.5594(4)
H13 H 0.0865 0.6477 0.6346
H14 H 0.0359 0.5717 0.5507
C12 C 0.2542(6) 0.4736(4) 0.6128(5)
H15 H 0.2999 0.4292 0.5400
H16 H 0.1892 0.4029 0.7083
H17 H 0.3501 0.5050 0.6242
C13 C 0.2525(4) 1.0811(4) 0.1863(4)
C14 C 0.3013(5) 1.2192(4) 0.2953(4)
C15 C 0.4076(4) 1.3156(4) 0.0168(4)
C16 C 0.3387(4) 1.1806(4) 0.0340(4)
H18 H 0.414(5) 1.408(5) 0.151(5)
loop_
_geom_bond_atom_site_label_1
_geom_bond_atom_site_label_2
_geom_bond_site_symmetry_1
_geom_bond_site_symmetry_2
N1 C8 1_555 1_555
N2 C1 1_555 1_555
N3 C13 1_555 1_555
N4 C14 1_555 1_555
O1 C14 1_555 1_555
O2 C15 1_555 1_555
C1 C2 1_555 1_555
C2 H1 1_555 1_555
C3 C2 1_555 1_555
C4 C3 1_555 1_555
H2 C4 1_555 1_555
H3 C4 1_555 1_555
H4 C4 1_555 1_555
C5 C3 1_555 1_555
C6 C5 1_555 1_555
H5 C6 1_555 1_555
H6 C6 1_555 1_555
H7 C6 1_555 1_555
C7 C5 1_555 1_555
H8 C7 1_555 1_555
C8 C1 1_555 1_555
C9 N1 1_555 1_555
H9 C9 1_555 1_555
H10 C9 1_555 1_555
C10 C9 1_555 1_555
H11 C10 1_555 1_555
H12 C10 1_555 1_555
C11 C10 1_555 1_555
H13 C11 1_555 1_555
H14 C11 1_555 1_555
C12 C11 1_555 1_555
H15 C12 1_555 1_555
H16 C12 1_555 1_555
H17 C12 1_555 1_555
C13 N1 1_555 1_555
C14 N3 1_555 1_555
C15 N4 1_555 1_555
C16 N2 1_555 1_555
H18 N4 1_555 1_555
C7 C8 1_555 1_555
C13 C16 1_555 1_555
C15 C16 1_555 1_555

#END
