
#######################################################################
#
#                 Cambridge Crystallographic Data Centre
#                                CCDC 
#
#######################################################################
#
# If this CIF has been generated from an entry in the Cambridge 
# Structural Database, then it will include bibliographic, chemical, 
# crystal, experimental, refinement or atomic coordinate data resulting 
# from the CCDC's data processing and validation procedures.
#
#######################################################################

data_VOCFUP
_chemical_formula_moiety         'C6 H15 As1 Cl2'
_chemical_name_systematic        Dichloro-triethyl-arsenic(v)
_symmetry_cell_setting           hexagonal
_symmetry_space_group_name_H-M   'P -6'
_symmetry_Int_Tables_number      174
_space_group_name_Hall           'P -6'
loop_
_symmetry_equiv_pos_site_id
_symmetry_equiv_pos_as_xyz
1 x,y,z
2 -y,x-y,z
3 -x+y,-x,z
4 x,y,-z
5 -y,x-y,-z
6 -x+y,-x,-z
_cell_length_a                   8.354(2)
_cell_length_b                   8.354(2)
_cell_length_c                   8.629(2)
_cell_angle_alpha                90
_cell_angle_beta                 90
_cell_angle_gamma                120
_cell_volume                     521.531
_exptl_crystal_colour            colorless
_exptl_crystal_description       block
_cell_formula_units_Z            2
loop_
_atom_site_label
_atom_site_type_symbol
_atom_site_fract_x
_atom_site_fract_y
_atom_site_fract_z
As1 As 0.6667 0.3333 0.0000
Cl1 Cl 0.6667 0.3333 0.2760(5)
C1 C 0.4038(9) 0.1645(9) 0.0000
H1 H 0.3459 0.1830 0.0933
H2 H 0.3459 0.1830 -0.0933
C2 C 0.3801(15) -0.0382(16) 0.0000
H3 H 0.2483 -0.1312 0.0000
H4 H 0.4388 -0.0536 0.0927
H5 H 0.4388 -0.0536 -0.0927
Cl1C Cl 0.6667 0.3333 -0.2760(5)
C1A C 0.8355(9) 0.2393(13) 0.0000
C1B C 0.7607(13) 0.5962(9) 0.0000
H1A H 0.8170 0.1629 0.0933
H1D H 0.8170 0.1629 -0.0933
H1B H 0.8371 0.6541 0.0933
H1E H 0.8371 0.6541 -0.0933
C2A C 1.0382(16) 0.4183(22) 0.0000
C2B C 0.5817(22) 0.6199(15) 0.0000
H3A H 1.1312 0.3795 0.0000
H3B H 0.6205 0.7517 0.0000
H4A H 1.0536 0.4924 0.0927
H4D H 1.0536 0.4924 -0.0927
H4B H 0.5076 0.5612 0.0927
H4E H 0.5076 0.5612 -0.0927
As2 As 0.0000 0.0000 0.5000
Cl2 Cl 0.0000 0.0000 0.7738(5)
C3 C 0.1918(10) -0.0627(11) 0.5000
H6 H 0.2705 -0.0122 0.4068
H7 H 0.2705 -0.0122 0.5932
C4 C 0.0865(18) -0.2887(18) 0.5000
H8 H 0.1785 -0.3288 0.5000
H9 H 0.0090 -0.3364 0.4073
H10 H 0.0090 -0.3364 0.5927
Cl2C Cl 0.0000 0.0000 0.2262(5)
C3A C 0.0627(11) 0.2545(15) 0.5000
C3B C -0.2545(15) -0.1918(10) 0.5000
H6A H 0.0122 0.2827 0.4068
H6D H 0.0122 0.2827 0.5932
H6B H -0.2827 -0.2705 0.4068
H6E H -0.2827 -0.2705 0.5932
C4A C 0.2887(18) 0.3752(25) 0.5000
C4B C -0.3752(25) -0.0865(18) 0.5000
H8A H 0.3288 0.5073 0.5000
H8B H -0.5073 -0.1785 0.5000
H9A H 0.3364 0.3454 0.4073
H9D H 0.3364 0.3454 0.5927
H9B H -0.3454 -0.0090 0.4073
H9E H -0.3454 -0.0090 0.5927
loop_
_geom_bond_atom_site_label_1
_geom_bond_atom_site_label_2
_geom_bond_site_symmetry_1
_geom_bond_site_symmetry_2
As1 Cl1 1_555 1_555
C1 As1 1_555 1_555
H1 C1 1_555 1_555
H2 C1 1_555 1_555
C2 C1 1_555 1_555
H3 C2 1_555 1_555
H4 C2 1_555 1_555
H5 C2 1_555 1_555
As2 Cl2 1_555 1_555
C3 As2 1_555 1_555
H6 C3 1_555 1_555
H7 C3 1_555 1_555
C4 C3 1_555 1_555
H8 C4 1_555 1_555
H9 C4 1_555 1_555
H10 C4 1_555 1_555
Cl1C As1 1_555 1_555
C1A As1 1_555 1_555
C1B As1 1_555 1_555
H1A C1A 1_555 1_555
H1D C1A 1_555 1_555
H1B C1B 1_555 1_555
H1E C1B 1_555 1_555
C2A C1A 1_555 1_555
C2B C1B 1_555 1_555
H3A C2A 1_555 1_555
H3B C2B 1_555 1_555
H4A C2A 1_555 1_555
H4D C2A 1_555 1_555
H4B C2B 1_555 1_555
H4E C2B 1_555 1_555
Cl2C As2 1_555 1_555
C3A As2 1_555 1_555
C3B As2 1_555 1_555
H6A C3A 1_555 1_555
H6D C3A 1_555 1_555
H6B C3B 1_555 1_555
H6E C3B 1_555 1_555
C4A C3A 1_555 1_555
C4B C3B 1_555 1_555
H8A C4A 1_555 1_555
H8B C4B 1_555 1_555
H9A C4A 1_555 1_555
H9D C4A 1_555 1_555
H9B C4B 1_555 1_555
H9E C4B 1_555 1_555

#END
