
#######################################################################
#
#                 Cambridge Crystallographic Data Centre
#                                CCDC 
#
#######################################################################
#
# If this CIF has been generated from an entry in the Cambridge 
# Structural Database, then it will include bibliographic, chemical, 
# crystal, experimental, refinement or atomic coordinate data resulting 
# from the CCDC's data processing and validation procedures.
#
#######################################################################

data_VOCKAB
_chemical_formula_moiety         'C21 H22 N2 O5,H2 O1'
_chemical_name_systematic        
'Methyl 17-hydroxy-18,23-dioxa-3,13-diazahexacyclo[13.7.1.0^1,13^.0^2,10^.0^4,9^.0^16,21^]tricosa-2(10),4,6,8,19-pentaene-20-carboxylate monohydrate'
_symmetry_cell_setting           orthorhombic
_symmetry_space_group_name_H-M   'P 21 21 21'
_symmetry_Int_Tables_number      19
_space_group_name_Hall           'P 2ac 2ab'
loop_
_symmetry_equiv_pos_site_id
_symmetry_equiv_pos_as_xyz
1 x,y,z
2 1/2+x,1/2-y,-z
3 -x,1/2+y,1/2-z
4 1/2-x,-y,1/2+z
_cell_length_a                   9.1220(9)
_cell_length_b                   12.1164(12)
_cell_length_c                   17.2633(17)
_cell_angle_alpha                90
_cell_angle_beta                 90
_cell_angle_gamma                90
_cell_volume                     1908.04
_exptl_crystal_colour            colorless
_exptl_crystal_description       prism
_cell_formula_units_Z            4
loop_
_atom_site_label
_atom_site_type_symbol
_atom_site_fract_x
_atom_site_fract_y
_atom_site_fract_z
O1 O 0.95202(10) 0.67214(8) 0.89593(5)
H1 H 0.8829 0.6267 0.8851
H2 H 0.9065 0.7340 0.8997
O2 O 0.59930(9) 1.02724(6) 0.92589(5)
O3 O 0.78034(9) 0.90087(7) 0.91839(5)
O4 O 0.27942(8) 0.82104(6) 0.86537(5)
O5 O 0.19595(9) 0.66301(7) 0.80880(5)
H3 H 0.1144 0.6675 0.8312
O6 O 0.47477(8) 0.50343(6) 0.88868(4)
N1 N 0.55655(10) 0.46045(7) 1.05533(5)
H4 H 0.4780 0.5010 1.0634
N2 N 0.72463(10) 0.51832(7) 0.85975(5)
C1 C 0.62871(13) 0.25367(9) 1.20880(6)
H5 H 0.5906 0.2223 1.2550
C2 C 0.55486(12) 0.34086(9) 1.17437(6)
H6 H 0.4687 0.3712 1.1968
C3 C 0.61292(11) 0.38211(8) 1.10517(6)
C4 C 0.64522(11) 0.46404(8) 0.99052(6)
C5 C 0.61405(11) 0.53502(8) 0.92217(6)
C6 C 0.60353(10) 0.65784(8) 0.94432(6)
H7 H 0.6960 0.6812 0.9694
H8 H 0.5229 0.6682 0.9820
C7 C 0.57516(10) 0.73049(8) 0.87237(6)
H9 H 0.6672 0.7324 0.8410
C8 C 0.53433(11) 0.84736(8) 0.89187(6)
C9 C 0.65038(12) 0.92512(8) 0.91335(6)
C10 C 0.70423(14) 1.10955(10) 0.94893(9)
H10 H 0.7570 1.0841 0.9950
H11 H 0.6531 1.1786 0.9608
H12 H 0.7740 1.1220 0.9067
C11 C 0.39498(11) 0.88297(8) 0.88590(6)
H13 H 0.3769 0.9585 0.8972
C12 C 0.30409(11) 0.70194(8) 0.85717(6)
H14 H 0.2965 0.6653 0.9089
C13 C 0.45376(11) 0.67982(8) 0.82210(6)
H15 H 0.4576 0.7144 0.7695
C14 C 0.79548(12) 0.40760(9) 0.85933(6)
H16 H 0.8674 0.4041 0.8165
H17 H 0.7201 0.3504 0.8499
C15 C 0.87299(12) 0.38327(9) 0.93553(6)
H18 H 0.9139 0.3076 0.9350
H19 H 0.9543 0.4361 0.9438
C16 C 0.76148(11) 0.39438(8) 0.99860(6)
C17 C 0.74329(11) 0.33939(8) 1.07167(6)
C18 C 0.75816(14) 0.21059(9) 1.17720(7)
H20 H 0.8058 0.1510 1.2025
C19 C 0.81815(12) 0.25336(9) 1.10958(7)
H21 H 0.9075 0.2252 1.0894
C20 C 0.63750(12) 0.53058(9) 0.78667(6)
H22 H 0.6402 0.4616 0.7559
H23 H 0.6764 0.5917 0.7546
C21 C 0.48095(11) 0.55587(8) 0.81371(6)
H24 H 0.4077 0.5222 0.7777
loop_
_geom_bond_atom_site_label_1
_geom_bond_atom_site_label_2
_geom_bond_site_symmetry_1
_geom_bond_site_symmetry_2
O1 H1 1_555 1_555
H2 O1 1_555 1_555
O2 C9 1_555 1_555
O3 C9 1_555 1_555
O4 C11 1_555 1_555
O5 H3 1_555 1_555
O6 C5 1_555 1_555
N1 H4 1_555 1_555
N2 C5 1_555 1_555
C1 H5 1_555 1_555
C2 C1 1_555 1_555
H6 C2 1_555 1_555
C3 N1 1_555 1_555
C4 N1 1_555 1_555
C5 C4 1_555 1_555
C6 C5 1_555 1_555
H7 C6 1_555 1_555
H8 C6 1_555 1_555
C7 C6 1_555 1_555
H9 C7 1_555 1_555
C8 C7 1_555 1_555
C9 C8 1_555 1_555
C10 O2 1_555 1_555
H10 C10 1_555 1_555
H11 C10 1_555 1_555
H12 C10 1_555 1_555
C11 C8 1_555 1_555
H13 C11 1_555 1_555
C12 O4 1_555 1_555
H14 C12 1_555 1_555
C13 C7 1_555 1_555
H15 C13 1_555 1_555
C14 N2 1_555 1_555
H16 C14 1_555 1_555
H17 C14 1_555 1_555
C15 C14 1_555 1_555
H18 C15 1_555 1_555
H19 C15 1_555 1_555
C16 C4 1_555 1_555
C17 C3 1_555 1_555
C18 C1 1_555 1_555
H20 C18 1_555 1_555
C19 C17 1_555 1_555
H21 C19 1_555 1_555
C20 N2 1_555 1_555
H22 C20 1_555 1_555
H23 C20 1_555 1_555
C21 O6 1_555 1_555
H24 C21 1_555 1_555
O5 C12 1_555 1_555
C2 C3 1_555 1_555
C12 C13 1_555 1_555
C13 C21 1_555 1_555
C15 C16 1_555 1_555
C16 C17 1_555 1_555
C18 C19 1_555 1_555
C20 C21 1_555 1_555

#END
