
#######################################################################
#
#                 Cambridge Crystallographic Data Centre
#                                CCDC 
#
#######################################################################
#
# If this CIF has been generated from an entry in the Cambridge 
# Structural Database, then it will include bibliographic, chemical, 
# crystal, experimental, refinement or atomic coordinate data resulting 
# from the CCDC's data processing and validation procedures.
#
#######################################################################

data_VOCSOV
_chemical_compound_source        'Leaves of Goniothalamus amuyon'
_chemical_name_common            Goniodiol-7-monoacetate
_chemical_formula_moiety         'C15 H16 O5'
_chemical_name_systematic        
6R-(7R,8R-Dihydro-7-acetoxy-8-hydroxystyryl)-5,6-dihydro-2-pyrone
_chemical_properties_biological  
'potent cytotoxic activity against human epidermoid carcinoma of the nasopharynx, murine lymphocytic leukaemia, human melanoma and CNS carcinoma'
_symmetry_cell_setting           triclinic
_symmetry_space_group_name_H-M   'P 1'
_symmetry_Int_Tables_number      1
_space_group_name_Hall           'P 1'
loop_
_symmetry_equiv_pos_site_id
_symmetry_equiv_pos_as_xyz
1 x,y,z
_cell_length_a                   8.831(1)
_cell_length_b                   15.321(1)
_cell_length_c                   5.451(1)
_cell_angle_alpha                91.93(1)
_cell_angle_beta                 105.08(1)
_cell_angle_gamma                94.40(1)
_cell_volume                     708.92
_exptl_crystal_colour            white
_chemical_melting_point          148-149deg.C
_cell_formula_units_Z            2
loop_
_atom_site_label
_atom_site_type_symbol
_atom_site_fract_x
_atom_site_fract_y
_atom_site_fract_z
O1 O 0.0000 0.0000 0.0000
C1 C -0.1273(4) -0.0570(2) -0.0969(7)
C2 C -0.2502(4) -0.0644(3) 0.0351(8)
C3 C -0.2527(4) -0.0059(3) 0.2185(8)
C4 C -0.1190(4) 0.0638(2) 0.3136(7)
C5 C 0.0281(4) 0.0324(2) 0.2634(6)
C6 C 0.1654(4) 0.1005(2) 0.3160(5)
C7 C 0.3133(4) 0.0692(2) 0.2529(6)
C8 C 0.4501(4) 0.1384(2) 0.3359(6)
C9 C 0.5540(5) 0.1390(3) 0.5730(7)
C10 C 0.6777(5) 0.2043(3) 0.6510(8)
C11 C 0.6969(5) 0.2702(3) 0.4974(9)
C12 C 0.5947(5) 0.2703(3) 0.2599(9)
C13 C 0.4732(5) 0.2057(3) 0.1782(7)
O2 O -0.1345(3) -0.0962(2) -0.2996(5)
O3 O 0.1215(3) 0.1744(1) 0.1615(4)
C14 C 0.1265(4) 0.2534(2) 0.2777(6)
O4 O 0.1556(4) 0.2662(2) 0.5034(5)
C15 C 0.0900(5) 0.3217(2) 0.0866(8)
O5 O 0.3472(3) -0.0088(2) 0.3802(5)
H1 H -0.331(5) -0.109(3) -0.006(7)
H2 H -0.348(6) -0.002(4) 0.302(9)
H3 H -0.084(6) 0.075(3) 0.499(10)
H4 H -0.150(6) 0.118(4) 0.247(10)
H5 H 0.053(3) -0.013(2) 0.368(5)
H6 H 0.192(4) 0.128(2) 0.519(6)
H7 H 0.286(4) 0.059(2) 0.070(6)
H8 H 0.539(5) 0.091(3) 0.673(7)
H9 H 0.754(6) 0.198(3) 0.839(9)
H10 H 0.781(5) 0.324(3) 0.559(7)
H11 H 0.607(6) 0.308(3) 0.158(9)
H12 H 0.424(5) 0.205(3) 0.032(7)
H13 H 0.078(6) 0.303(4) -0.092(9)
H14 H -0.016(7) 0.339(4) 0.104(10)
H15 H 0.161(5) 0.377(3) 0.153(8)
H16 H 0.335(5) -0.054(3) 0.262(8)
O6 O 0.4349(3) -0.2334(2) -0.2391(4)
C16 C 0.3388(4) -0.1778(2) -0.1792(7)
C17 C 0.1820(4) -0.1755(3) -0.3549(8)
C18 C 0.1281(4) -0.2343(3) -0.5404(10)
C19 C 0.2279(4) -0.3032(3) -0.5988(9)
C20 C 0.3997(3) -0.2691(2) -0.4998(6)
C21 C 0.5118(3) -0.3384(2) -0.5085(5)
C22 C 0.6853(3) -0.3031(2) -0.4268(6)
C23 C 0.7920(3) -0.3762(2) -0.4271(5)
C24 C 0.7764(4) -0.4295(3) -0.6439(7)
C25 C 0.8741(5) -0.4970(3) -0.6406(8)
C26 C 0.9884(4) -0.5103(2) -0.4253(7)
C27 C 1.0053(5) -0.4578(3) -0.2102(8)
C28 C 0.9071(4) -0.3907(2) -0.2116(7)
O7 O 0.3842(3) -0.1352(2) 0.0222(5)
O8 O 0.4918(2) -0.4071(1) -0.3429(4)
C29 C 0.4271(4) -0.4868(2) -0.4511(6)
O9 O 0.3664(4) -0.4995(2) -0.6744(5)
C30 C 0.4426(6) -0.5533(3) -0.2546(8)
O10 O 0.7066(3) -0.2409(2) -0.6069(5)
H17 H 0.124(6) -0.134(3) -0.311(9)
H18 H 0.034(6) -0.235(4) -0.635(10)
H19 H 0.198(5) -0.313(3) -0.784(8)
H20 H 0.203(5) -0.351(3) -0.467(8)
H21 H 0.416(4) -0.221(2) -0.612(6)
H22 H 0.485(3) -0.362(2) -0.683(5)
H23 H 0.720(4) -0.276(2) -0.238(6)
H24 H 0.698(5) -0.420(3) -0.797(7)
H25 H 0.856(6) -0.541(3) -0.795(9)
H26 H 1.060(6) -0.559(4) -0.410(10)
H27 H 1.096(6) -0.466(4) -0.041(10)
H28 H 0.919(5) -0.353(3) -0.046(8)
H29 H 0.383(6) -0.606(4) -0.336(9)
H30 H 0.542(6) -0.560(4) -0.210(10)
H31 H 0.419(6) -0.531(4) -0.078(10)
H32 H 0.760(8) -0.189(4) -0.485(11)
loop_
_geom_bond_atom_site_label_1
_geom_bond_atom_site_label_2
_geom_bond_site_symmetry_1
_geom_bond_site_symmetry_2
O1 C1 1_555 1_555
C1 C2 1_555 1_555
C2 C3 1_555 1_555
C3 C4 1_555 1_555
C4 C5 1_555 1_555
C5 O1 1_555 1_555
C6 C5 1_555 1_555
C7 C6 1_555 1_555
C8 C7 1_555 1_555
C9 C8 1_555 1_555
C10 C9 1_555 1_555
C11 C10 1_555 1_555
C12 C11 1_555 1_555
C13 C8 1_555 1_555
O2 C1 1_555 1_555
O3 C6 1_555 1_555
C14 O3 1_555 1_555
O4 C14 1_555 1_555
C15 C14 1_555 1_555
O5 C7 1_555 1_555
H1 C2 1_555 1_555
H2 C3 1_555 1_555
H3 C4 1_555 1_555
H4 C4 1_555 1_555
H5 C5 1_555 1_555
H6 C6 1_555 1_555
H7 C7 1_555 1_555
H8 C9 1_555 1_555
H9 C10 1_555 1_555
H10 C11 1_555 1_555
H11 C12 1_555 1_555
H12 C13 1_555 1_555
H13 C15 1_555 1_555
H14 C15 1_555 1_555
H15 C15 1_555 1_555
H16 O5 1_555 1_555
O6 C16 1_555 1_555
C16 C17 1_555 1_555
C17 C18 1_555 1_555
C18 C19 1_555 1_555
C19 C20 1_555 1_555
C20 O6 1_555 1_555
C21 C20 1_555 1_555
C22 C21 1_555 1_555
C23 C22 1_555 1_555
C24 C23 1_555 1_555
C25 C24 1_555 1_555
C26 C25 1_555 1_555
C27 C26 1_555 1_555
C28 C23 1_555 1_555
O7 C16 1_555 1_555
O8 C21 1_555 1_555
C29 O8 1_555 1_555
O9 C29 1_555 1_555
C30 C29 1_555 1_555
O10 C22 1_555 1_555
H17 C17 1_555 1_555
H18 C18 1_555 1_555
H19 C19 1_555 1_555
H20 C19 1_555 1_555
H21 C20 1_555 1_555
H22 C21 1_555 1_555
H23 C22 1_555 1_555
H24 C24 1_555 1_555
H25 C25 1_555 1_555
H26 C26 1_555 1_555
H27 C27 1_555 1_555
H28 C28 1_555 1_555
H29 C30 1_555 1_555
H30 C30 1_555 1_555
H31 C30 1_555 1_555
H32 O10 1_555 1_555
C12 C13 1_555 1_555
C27 C28 1_555 1_555

#END
