
#######################################################################
#
#                 Cambridge Crystallographic Data Centre
#                                CCDC 
#
#######################################################################
#
# If this CIF has been generated from an entry in the Cambridge 
# Structural Database, then it will include bibliographic, chemical, 
# crystal, experimental, refinement or atomic coordinate data resulting 
# from the CCDC's data processing and validation procedures.
#
#######################################################################

data_VODBAS
_chemical_formula_moiety         'C40 H44 N24 O12,C9 H10 N3 1+,Cl1 1-,14(H2 O1)'
_chemical_name_systematic        
'Tetramethylcucurbit(6)uril 3-amino-5-phenylpyrazolium clathrate chloride tetradecahydrate'
_symmetry_cell_setting           triclinic
_symmetry_space_group_name_H-M   'P -1'
_symmetry_Int_Tables_number      2
_space_group_name_Hall           '-P 1'
loop_
_symmetry_equiv_pos_site_id
_symmetry_equiv_pos_as_xyz
1 x,y,z
2 -x,-y,-z
_cell_length_a                   12.036(2)
_cell_length_b                   12.903(2)
_cell_length_c                   22.467(4)
_cell_angle_alpha                76.327(2)
_cell_angle_beta                 89.287(2)
_cell_angle_gamma                85.571(2)
_cell_volume                     3380.07
_cell_formula_units_Z            2
loop_
_atom_site_label
_atom_site_type_symbol
_atom_site_fract_x
_atom_site_fract_y
_atom_site_fract_z
C1 C 0.4890(4) 1.0925(4) 0.1949(2)
H1 H 0.5256 1.0648 0.1626
H2 H 0.5344 1.1457 0.2041
C2 C 0.3365(4) 1.1804(3) 0.30874(19)
H3 H 0.4033 1.2188 0.3053
H4 H 0.2910 1.2004 0.3408
C3 C 0.4923(3) 0.8997(3) 0.2479(2)
C4 C 0.4757(4) 1.0208(3) 0.31021(19)
H5 H 0.5368 1.0606 0.3196
C5 C 0.4823(4) 0.9051(3) 0.35063(19)
H6 H 0.5501 0.8891 0.3758
C6 C 0.3235(3) 1.0003(3) 0.37599(18)
C7 C 0.5136(4) 0.7265(3) 0.3220(2)
H7 H 0.5720 0.7119 0.3529
H8 H 0.5436 0.7049 0.2861
C8 C 0.3646(4) 0.8187(3) 0.44087(18)
H9 H 0.3134 0.8462 0.4682
H10 H 0.4344 0.7951 0.4627
C9 C 0.3829(4) 0.5905(3) 0.3162(2)
C10 C 0.3882(3) 0.6424(3) 0.4088(2)
H11 H 0.4527 0.6204 0.4363
C11 C 0.3092(3) 0.5510(3) 0.4146(2)
H12 H 0.3359 0.4879 0.4461
C12 C 0.2142(3) 0.6951(3) 0.44416(18)
C13 C 0.2668(4) 0.4356(3) 0.3427(2)
H13 H 0.2800 0.3765 0.3783
H14 H 0.3061 0.4162 0.3085
C14 C 0.1145(4) 0.5322(3) 0.45437(19)
H15 H 0.0710 0.5659 0.4822
H16 H 0.1450 0.4629 0.4777
C15 C 0.1137(4) 0.4747(3) 0.2697(2)
C16 C 0.0584(3) 0.4315(3) 0.37294(18)
C17 C -0.0485(3) 0.4528(3) 0.32930(19)
C18 C -0.0573(4) 0.5747(3) 0.39307(19)
C19 C 0.0707(4) 0.3215(3) 0.4166(2)
H17 H 0.0089 0.3135 0.4443
H18 H 0.1389 0.3141 0.4394
H19 H 0.0721 0.2675 0.3936
C20 C -0.1231(4) 0.3611(3) 0.3371(2)
H20 H -0.1533 0.3463 0.3777
H21 H -0.0804 0.2987 0.3308
H22 H -0.1828 0.3804 0.3077
C21 C -0.0593(4) 0.5119(3) 0.2105(2)
H23 H -0.0121 0.4924 0.1789
H24 H -0.1254 0.4725 0.2133
C22 C -0.2157(4) 0.5982(3) 0.3227(2)
H25 H -0.2600 0.5452 0.3124
H26 H -0.2544 0.6252 0.3547
C23 C -0.0409(4) 0.6930(3) 0.1452(2)
C24 C -0.1995(4) 0.6712(3) 0.2075(2)
H27 H -0.2606 0.6322 0.1975
C25 C -0.2039(4) 0.7880(3) 0.1676(2)
H28 H -0.2700 0.8051 0.1410
C26 C -0.2213(3) 0.7914(3) 0.2713(2)
C27 C -0.0818(4) 0.8738(3) 0.07918(19)
H29 H -0.0291 0.8458 0.0527
H30 H -0.1510 0.8961 0.0565
C28 C -0.2377(4) 0.9664(3) 0.1963(2)
H31 H -0.2960 0.9806 0.1653
H32 H -0.2681 0.9882 0.2320
C29 C 0.0629(4) 0.9999(3) 0.07458(18)
C30 C -0.1125(3) 1.0501(3) 0.10961(19)
H33 H -0.1770 1.0693 0.0819
C31 C -0.0360(3) 1.1436(3) 0.10248(19)
H34 H -0.0665 1.2070 0.0723
C32 C -0.1081(3) 1.1032(3) 0.2017(2)
C33 C 0.1613(4) 1.1654(4) 0.06284(19)
H35 H 0.1330 1.2359 0.0401
H36 H 0.2065 1.1328 0.0351
C34 C 0.0084(4) 1.2581(3) 0.1755(2)
H37 H -0.0052 1.3171 0.1400
H38 H -0.0323 1.2766 0.2096
C35 C 0.3291(4) 1.1153(3) 0.1259(2)
C36 C 0.2178(4) 1.2616(3) 0.14599(19)
C37 C 0.3242(3) 1.2371(3) 0.18954(18)
C38 C 0.1624(4) 1.2248(3) 0.25010(18)
C39 C 0.2053(4) 1.3720(3) 0.1031(2)
H39 H 0.2663 1.3802 0.0749
H40 H 0.2052 1.4253 0.1265
H41 H 0.1364 1.3802 0.0808
C40 C 0.3999(4) 1.3284(4) 0.1820(2)
H42 H 0.3604 1.3881 0.1936
H43 H 0.4226 1.3494 0.1400
H44 H 0.4645 1.3052 0.2077
N1 N 0.4838(3) 1.0062(3) 0.24878(16)
N2 N 0.4827(3) 0.8403(3) 0.30578(16)
N3 N 0.3681(3) 1.0660(3) 0.32664(16)
N4 N 0.3838(3) 0.9042(3) 0.38778(15)
N5 N 0.4208(3) 0.6625(3) 0.34534(17)
N6 N 0.3127(3) 0.5288(3) 0.35461(17)
N7 N 0.3188(3) 0.7274(2) 0.42488(16)
N8 N 0.2056(3) 0.5969(3) 0.43157(16)
N9 N 0.1490(3) 0.4497(3) 0.32903(15)
N10 N 0.0000(3) 0.4808(3) 0.26867(16)
N11 N 0.0401(3) 0.5158(2) 0.40685(15)
N12 N -0.1085(3) 0.5465(3) 0.34648(16)
N13 N -0.0919(3) 0.6255(3) 0.19271(17)
N14 N -0.1021(3) 0.7888(3) 0.13256(17)
N15 N -0.2079(3) 0.6857(3) 0.26916(17)
N16 N -0.2062(3) 0.8516(3) 0.21292(17)
N17 N -0.0386(3) 0.9662(3) 0.09424(15)
N18 N 0.0683(3) 1.1019(3) 0.08239(16)
N19 N -0.1456(3) 1.0307(3) 0.17302(17)
N20 N -0.0352(3) 1.1629(3) 0.16311(15)
N21 N 0.2315(3) 1.1773(3) 0.11221(15)
N22 N 0.3799(3) 1.1444(3) 0.17261(16)
N23 N 0.1263(3) 1.2461(3) 0.18996(15)
N24 N 0.2745(3) 1.2136(3) 0.25049(15)
O1 O 0.5103(3) 0.8650(3) 0.20177(15)
O2 O 0.4087(3) 0.5809(3) 0.26483(16)
O3 O 0.1736(3) 0.4881(3) 0.22467(14)
O4 O 0.0419(3) 0.6701(3) 0.11827(16)
O5 O 0.1338(3) 0.9504(3) 0.05155(16)
O6 O 0.3638(3) 1.0449(3) 0.10040(16)
O7 O 0.2414(3) 1.0248(2) 0.40504(14)
O8 O 0.1433(2) 0.7448(2) 0.46731(14)
O9 O -0.0967(3) 0.6423(2) 0.41972(14)
O10 O -0.2430(3) 0.8255(2) 0.31629(15)
O11 O -0.1343(3) 1.1143(3) 0.25309(15)
O12 O 0.1018(3) 1.2181(2) 0.29434(13)
C41 C 0.1210(5) 0.9636(4) 0.2867(2)
H45 H 0.1250 1.0308 0.2946
C42 C 0.1821(5) 0.9380(4) 0.2410(3)
H46 H 0.2249 0.9889 0.2170
C43 C 0.1828(5) 0.8384(4) 0.2290(2)
H47 H 0.2271 0.8211 0.1980
C44 C 0.1184(5) 0.7666(4) 0.2627(3)
H48 H 0.1184 0.6986 0.2554
C45 C 0.0510(5) 0.7940(4) 0.3090(2)
H49 H 0.0045 0.7447 0.3311
C46 C 0.0529(3) 0.8932(3) 0.32201(19)
C47 C -0.0154(3) 0.9241(3) 0.37081(18)
C48 C -0.0251(4) 1.0182(3) 0.3905(2)
H50 H 0.0109 1.0799 0.3745
C49 C -0.0990(4) 1.0023(3) 0.4389(2)
N25 N -0.1329(4) 0.9031(3) 0.44802(19)
N26 N -0.0826(3) 0.8562(3) 0.40536(18)
H51 H -0.0427 0.7956 0.4241
H52 H -0.1346 0.8391 0.3816
N27 N -0.1452(4) 1.0713(3) 0.4729(2)
H53 H -0.1077 1.1277 0.4705
H54 H -0.1804 1.0281 0.5106
Cl1 Cl -0.3384(3) 0.7574(4) 0.49656(17)
O14 O -0.3380(5) 1.2267(6) 0.2745(4)
O15 O 0.3004(7) 0.6297(6) 0.1374(4)
O16 O 0.6183(7) 0.4583(8) 0.2476(7)
O17 O 0.0303(9) 0.6054(6) 0.0033(4)
O18 O 0.3435(10) 0.8137(11) 0.5998(4)
O19 O 0.4995(11) 0.9214(10) 0.5493(5)
O20 O -0.3814(11) 0.9717(12) 0.0431(7)
O21 O 0.270(3) 0.786(3) 0.0333(8)
O23 O 0.485(2) 0.653(3) 0.5807(13)
O24 O -0.324(2) 1.257(2) 0.1009(15)
O25 O 0.164(3) 1.535(3) -0.0812(14)
O26 O 0.290(4) 1.339(3) -0.0563(11)
O28 O 0.5336(18) 0.649(4) 0.1549(13)
O13? O 0.3942(6) 0.5619(5) 0.5663(2)
O22? O 0.712(2) 1.057(8) 0.3438(13)
O27? O 0.428(4) 0.8322(18) 0.0874(9)
loop_
_geom_bond_atom_site_label_1
_geom_bond_atom_site_label_2
_geom_bond_site_symmetry_1
_geom_bond_site_symmetry_2
C1 H1 1_555 1_555
H2 C1 1_555 1_555
C2 H3 1_555 1_555
H4 C2 1_555 1_555
C3 N1 1_555 1_555
C4 H5 1_555 1_555
C5 C4 1_555 1_555
H6 C5 1_555 1_555
C6 N3 1_555 1_555
C7 H7 1_555 1_555
H8 C7 1_555 1_555
C8 H9 1_555 1_555
H10 C8 1_555 1_555
C9 N5 1_555 1_555
C10 H11 1_555 1_555
C11 C10 1_555 1_555
H12 C11 1_555 1_555
C12 N7 1_555 1_555
C13 H13 1_555 1_555
H14 C13 1_555 1_555
C14 H15 1_555 1_555
H16 C14 1_555 1_555
C15 N9 1_555 1_555
C16 C17 1_555 1_555
C17 C20 1_555 1_555
C18 N11 1_555 1_555
C19 C16 1_555 1_555
H17 C19 1_555 1_555
H18 C19 1_555 1_555
H19 C19 1_555 1_555
C20 H20 1_555 1_555
H21 C20 1_555 1_555
H22 C20 1_555 1_555
C21 H23 1_555 1_555
H24 C21 1_555 1_555
C22 H25 1_555 1_555
H26 C22 1_555 1_555
C23 N13 1_555 1_555
C24 H27 1_555 1_555
C25 C24 1_555 1_555
H28 C25 1_555 1_555
C26 N15 1_555 1_555
C27 H29 1_555 1_555
H30 C27 1_555 1_555
C28 H31 1_555 1_555
H32 C28 1_555 1_555
C29 N17 1_555 1_555
C30 H33 1_555 1_555
C31 C30 1_555 1_555
H34 C31 1_555 1_555
C32 N19 1_555 1_555
C33 H35 1_555 1_555
H36 C33 1_555 1_555
C34 H37 1_555 1_555
H38 C34 1_555 1_555
C35 N21 1_555 1_555
C36 C37 1_555 1_555
C37 C40 1_555 1_555
C38 N23 1_555 1_555
C39 C36 1_555 1_555
H39 C39 1_555 1_555
H40 C39 1_555 1_555
H41 C39 1_555 1_555
C40 H42 1_555 1_555
H43 C40 1_555 1_555
H44 C40 1_555 1_555
N1 C1 1_555 1_555
N2 C3 1_555 1_555
N3 C2 1_555 1_555
N4 C5 1_555 1_555
N5 C7 1_555 1_555
N6 C9 1_555 1_555
N7 C8 1_555 1_555
N8 C11 1_555 1_555
N9 C13 1_555 1_555
N10 C15 1_555 1_555
N11 C14 1_555 1_555
N12 C17 1_555 1_555
N13 C21 1_555 1_555
N14 C23 1_555 1_555
N15 C22 1_555 1_555
N16 C25 1_555 1_555
N17 C27 1_555 1_555
N18 C29 1_555 1_555
N19 C28 1_555 1_555
N20 C31 1_555 1_555
N21 C33 1_555 1_555
N22 C1 1_555 1_555
N23 C34 1_555 1_555
N24 C2 1_555 1_555
O1 C3 1_555 1_555
O2 C9 1_555 1_555
O3 C15 1_555 1_555
O4 C23 1_555 1_555
O5 C29 1_555 1_555
O6 C35 1_555 1_555
O7 C6 1_555 1_555
O8 C12 1_555 1_555
O9 C18 1_555 1_555
O10 C26 1_555 1_555
O11 C32 1_555 1_555
O12 C38 1_555 1_555
C41 H45 1_555 1_555
C42 C41 1_555 1_555
H46 C42 1_555 1_555
C43 C42 1_555 1_555
H47 C43 1_555 1_555
C44 C43 1_555 1_555
H48 C44 1_555 1_555
C45 C44 1_555 1_555
H49 C45 1_555 1_555
C46 C41 1_555 1_555
C47 C46 1_555 1_555
C48 C47 1_555 1_555
H50 C48 1_555 1_555
C49 C48 1_555 1_555
N25 C49 1_555 1_555
N26 C47 1_555 1_555
H51 N26 1_555 1_555
H52 N26 1_555 1_555
N27 C49 1_555 1_555
H53 N27 1_555 1_555
H54 N27 1_555 1_555
C4 N1 1_555 1_555
C4 N3 1_555 1_555
C5 N2 1_555 1_555
C6 N4 1_555 1_555
C7 N2 1_555 1_555
C8 N4 1_555 1_555
C10 N5 1_555 1_555
C10 N7 1_555 1_555
C11 N6 1_555 1_555
C12 N8 1_555 1_555
C13 N6 1_555 1_555
C14 N8 1_555 1_555
C16 N9 1_555 1_555
C16 N11 1_555 1_555
C17 N10 1_555 1_555
C18 N12 1_555 1_555
C21 N10 1_555 1_555
C22 N12 1_555 1_555
C24 N13 1_555 1_555
C24 N15 1_555 1_555
C25 N14 1_555 1_555
C26 N16 1_555 1_555
C27 N14 1_555 1_555
C28 N16 1_555 1_555
C30 N17 1_555 1_555
C30 N19 1_555 1_555
C31 N18 1_555 1_555
C32 N20 1_555 1_555
C33 N18 1_555 1_555
C34 N20 1_555 1_555
C35 N22 1_555 1_555
C36 N21 1_555 1_555
C36 N23 1_555 1_555
C37 N22 1_555 1_555
C37 N24 1_555 1_555
C38 N24 1_555 1_555
C45 C46 1_555 1_555
N25 N26 1_555 1_555

#END
