
#######################################################################
#
#                 Cambridge Crystallographic Data Centre
#                                CCDC 
#
#######################################################################
#
# If this CIF has been generated from an entry in the Cambridge 
# Structural Database, then it will include bibliographic, chemical, 
# crystal, experimental, refinement or atomic coordinate data resulting 
# from the CCDC's data processing and validation procedures.
#
#######################################################################

data_VODHUR
_chemical_compound_source        'soft coral Pachyclavularia violacea'
_chemical_formula_moiety         'C24 H34 O7'
_chemical_name_systematic        'Pachyclavulariolide G'
_symmetry_cell_setting           orthorhombic
_symmetry_space_group_name_H-M   'P 21 21 21'
_symmetry_Int_Tables_number      19
_space_group_name_Hall           'P 2ac 2ab'
loop_
_symmetry_equiv_pos_site_id
_symmetry_equiv_pos_as_xyz
1 x,y,z
2 1/2-x,-y,1/2+z
3 1/2+x,1/2-y,-z
4 -x,1/2+y,1/2-z
_cell_length_a                   9.386(2)
_cell_length_b                   14.587(4)
_cell_length_c                   17.384(4)
_cell_angle_alpha                90
_cell_angle_beta                 90
_cell_angle_gamma                90
_cell_volume                     2380.11
_exptl_crystal_colour            colorless
_exptl_crystal_description       prism
_chemical_melting_point          129-130deg.C
_cell_formula_units_Z            4
_exptl_crystal_recrystallization_method 'ethyl acetate'
loop_
_atom_site_label
_atom_site_type_symbol
_atom_site_fract_x
_atom_site_fract_y
_atom_site_fract_z
O1 O 0.0044(7) -0.1490(6) -0.7072(5)
O2 O 0.0384(8) -0.2280(6) -0.5993(5)
O3 O -0.5716(7) -0.1326(4) -0.8822(3)
O4 O -0.4066(6) -0.3207(4) -0.7741(3)
O5 O -0.2112(9) -0.3504(7) -0.8469(6)
O6 O -0.4944(7) -0.1674(5) -0.6880(3)
O7 O -0.4390(8) -0.0266(4) -0.6451(5)
C1 C -0.237(1) -0.1672(8) -0.7154(6)
C2 C -0.111(1) -0.1255(8) -0.7563(6)
C3 C -0.123(1) -0.0187(9) -0.7661(7)
C4 C -0.167(1) 0.0145(8) -0.8437(7)
C5 C -0.290(1) 0.0582(8) -0.8528(8)
C6 C -0.357(1) 0.0968(7) -0.9250(8)
C7 C -0.484(1) 0.0384(7) -0.9495(6)
C8 C -0.441(1) -0.0542(7) -0.9829(6)
C9 C -0.546(1) -0.1292(7) -0.9643(5)
C10 C -0.500(1) -0.2255(7) -0.9864(6)
C11 C -0.561(1) -0.2850(7) -0.9263(6)
C12 C -0.564(1) -0.2255(7) -0.8521(6)
C13 C -0.421(1) -0.2310(7) -0.8110(5)
C14 C -0.390(1) -0.1582(6) -0.7486(5)
C15 C -0.197(1) -0.2117(7) -0.6526(6)
C16 C -0.037(1) -0.1989(8) -0.6461(8)
C17 C -0.272(1) -0.2667(7) -0.5944(6)
C18 C -0.065(1) -0.0027(9) -0.9098(7)
C19 C -0.412(1) -0.0480(7) -1.0687(5)
C20 C -0.695(1) -0.2419(7) -0.8021(6)
C21 C -0.289(1) -0.3702(8) -0.7984(7)
C22 C -0.283(1) -0.4579(7) -0.7456(7)
C23 C -0.508(1) -0.0947(7) -0.6407(6)
C24 C -0.621(1) -0.1123(7) -0.5809(6)
H1 H -0.0993 -0.1538 -0.8048
H2 H -0.0319 0.0071 -0.7553
H3 H -0.1901 0.0036 -0.7298
H4 H -0.3445 0.0664 -0.8071
H5 H -0.2876 0.0959 -0.9649
H6 H -0.3871 0.1572 -0.9155
H7 H -0.5366 0.0711 -0.9878
H8 H -0.5443 0.0282 -0.9063
H9 H -0.3535 -0.0703 -0.9590
H10 H -0.6340 -0.1162 -0.9894
H11 H -0.3988 -0.2300 -0.9867
H12 H -0.5357 -0.2414 -1.0358
H13 H -0.5047 -0.3381 -0.9186
H14 H -0.6559 -0.3034 -0.9399
H15 H -0.3494 -0.2263 -0.8492
H16 H -0.3987 -0.0991 -0.7710
H17 H -0.3437 -0.2296 -0.5702
H18 H -0.2079 -0.2881 -0.5567
H19 H -0.3181 -0.3175 -0.6184
H20 H -0.1093 -0.0388 -0.9480
H21 H 0.0169 -0.0355 -0.8904
H22 H -0.0338 0.0536 -0.9307
H23 H -0.3854 -0.1056 -1.0878
H24 H -0.3379 -0.0045 -1.0775
H25 H -0.4964 -0.0271 -1.0941
H26 H -0.7777 -0.2343 -0.8319
H27 H -0.6941 -0.1992 -0.7608
H28 H -0.6905 -0.3024 -0.7821
H29 H -0.3691 -0.4920 -0.7531
H30 H -0.2750 -0.4399 -0.6941
H31 H -0.2044 -0.4943 -0.7607
H32 H -0.7098 -0.1230 -0.6049
H33 H -0.6284 -0.0606 -0.5475
H34 H -0.5952 -0.1647 -0.5509
loop_
_geom_bond_atom_site_label_1
_geom_bond_atom_site_label_2
_geom_bond_site_symmetry_1
_geom_bond_site_symmetry_2
O1 C2 1_555 1_555
O2 C16 1_555 1_555
O3 C9 1_555 1_555
O4 C13 1_555 1_555
O5 C21 1_555 1_555
O6 C14 1_555 1_555
O7 C23 1_555 1_555
C1 C2 1_555 1_555
C2 C3 1_555 1_555
C3 C4 1_555 1_555
C4 C5 1_555 1_555
C5 C6 1_555 1_555
C6 C7 1_555 1_555
C7 C8 1_555 1_555
C8 C9 1_555 1_555
C9 C10 1_555 1_555
C10 C11 1_555 1_555
C11 C12 1_555 1_555
C12 O3 1_555 1_555
C13 C12 1_555 1_555
C14 C1 1_555 1_555
C15 C1 1_555 1_555
C16 O1 1_555 1_555
C17 C15 1_555 1_555
C18 C4 1_555 1_555
C19 C8 1_555 1_555
C20 C12 1_555 1_555
C21 O4 1_555 1_555
C22 C21 1_555 1_555
C23 O6 1_555 1_555
C24 C23 1_555 1_555
H1 C2 1_555 1_555
H2 C3 1_555 1_555
H3 C3 1_555 1_555
H4 C5 1_555 1_555
H5 C6 1_555 1_555
H6 C6 1_555 1_555
H7 C7 1_555 1_555
H8 C7 1_555 1_555
H9 C8 1_555 1_555
H10 C9 1_555 1_555
H11 C10 1_555 1_555
H12 C10 1_555 1_555
H13 C11 1_555 1_555
H14 C11 1_555 1_555
H15 C13 1_555 1_555
H16 C14 1_555 1_555
H17 C17 1_555 1_555
H18 C17 1_555 1_555
H19 C17 1_555 1_555
H20 C18 1_555 1_555
H21 C18 1_555 1_555
H22 C18 1_555 1_555
H23 C19 1_555 1_555
H24 C19 1_555 1_555
H25 C19 1_555 1_555
H26 C20 1_555 1_555
H27 C20 1_555 1_555
H28 C20 1_555 1_555
H29 C22 1_555 1_555
H30 C22 1_555 1_555
H31 C22 1_555 1_555
H32 C24 1_555 1_555
H33 C24 1_555 1_555
H34 C24 1_555 1_555
C13 C14 1_555 1_555
C15 C16 1_555 1_555

#END
