
#######################################################################
#
#                 Cambridge Crystallographic Data Centre
#                                CCDC 
#
#######################################################################
#
# If this CIF has been generated from an entry in the Cambridge 
# Structural Database, then it will include bibliographic, chemical, 
# crystal, experimental, refinement or atomic coordinate data resulting 
# from the CCDC's data processing and validation procedures.
#
#######################################################################

data_VODJED
_chemical_compound_source        'soft coral Pachyclavularia violacea'
_chemical_formula_moiety         'C20 H30 O5'
_chemical_name_systematic        Pachyclavulariolide
_symmetry_cell_setting           monoclinic
_symmetry_space_group_name_H-M   'P 21'
_symmetry_Int_Tables_number      4
_space_group_name_Hall           'P 2yb'
loop_
_symmetry_equiv_pos_site_id
_symmetry_equiv_pos_as_xyz
1 x,y,z
2 -x,1/2+y,-z
_cell_length_a                   6.169(1)
_cell_length_b                   9.214(2)
_cell_length_c                   17.134(2)
_cell_angle_alpha                90
_cell_angle_beta                 96.55(2)
_cell_angle_gamma                90
_cell_volume                     967.559
_exptl_crystal_colour            colorless
_exptl_crystal_description       prisms
_chemical_melting_point          224-226deg.C
_cell_formula_units_Z            2
_exptl_crystal_recrystallization_method 'ethyl acetate'
loop_
_atom_site_label
_atom_site_type_symbol
_atom_site_fract_x
_atom_site_fract_y
_atom_site_fract_z
O1 O -0.4579(5) 0.433(1) -0.4597(2)
O2 O -0.3758(5) 0.394(1) -0.5817(2)
O3 O -0.0604(5) 0.107(1) -0.1697(2)
O4 O -0.1938(5) -0.030(1) -0.3682(2)
O5 O 0.1503(4) 0.171(1) -0.3424(2)
C1 C -0.1893(7) 0.286(1) -0.3943(3)
C2 C -0.3707(7) 0.389(1) -0.3804(3)
C3 C -0.3028(8) 0.525(1) -0.3339(3)
C4 C -0.3330(8) 0.521(1) -0.2482(3)
C5 C -0.1621(8) 0.519(1) -0.1934(3)
C6 C -0.1616(9) 0.512(1) -0.1057(3)
C7 C -0.1008(9) 0.360(1) -0.0751(3)
C8 C -0.287(1) 0.254(1) -0.0945(3)
C9 C -0.2101(9) 0.102(1) -0.1099(3)
C10 C -0.397(1) 0.004(1) -0.1439(3)
C11 C -0.2903(9) -0.094(1) -0.1975(3)
C12 C -0.1105(8) -0.005(1) -0.2275(3)
C13 C -0.1931(7) 0.072(1) -0.3060(3)
C14 C -0.0652(7) 0.205(1) -0.3262(3)
C15 C -0.1705(7) 0.278(1) -0.4715(3)
C16 C -0.3385(8) 0.371(1) -0.5124(3)
C17 C -0.020(1) 0.194(1) -0.5164(3)
C18 C -0.5664(7) 0.524(1) -0.2318(3)
C19 C -0.446(1) 0.252(1) -0.0319(3)
C20 C 0.0919(8) -0.095(1) -0.2340(3)
H1 H -0.4798 0.3410 -0.3563
H2 H -0.3839 0.6048 -0.3574
H3 H -0.1513 0.5411 -0.3380
H4 H -0.0227 0.5206 -0.2129
H5 H -0.3032 0.5379 -0.0920
H6 H -0.0589 0.5818 -0.0813
H7 H -0.0672 0.3645 -0.0191
H8 H 0.0242 0.3289 -0.0975
H9 H -0.3660 0.2845 -0.1428
H10 H -0.1391 0.0617 -0.0620
H11 H -0.5093 0.0607 -0.1722
H12 H -0.4556 -0.0484 -0.1037
H13 H -0.3930 -0.1237 -0.2399
H14 H -0.2314 -0.1762 -0.1695
H15 H -0.3388 0.1022 -0.3028
H16 H -0.0487 0.2676 -0.2819
H17 H -0.1042 0.1306 -0.5523
H18 H 0.0773 0.1391 -0.4819
H19 H 0.0586 0.2595 -0.5456
H20 H -0.6351 0.6098 -0.2551
H21 H -0.5771 0.5199 -0.1790
H22 H -0.6416 0.4416 -0.2584
H23 H -0.4925 0.3514 -0.0241
H24 H -0.3759 0.2171 0.0160
H25 H -0.5704 0.1962 -0.0488
H26 H 0.0611 -0.1684 -0.2724
H27 H 0.1404 -0.1375 -0.1848
H28 H 0.2045 -0.0333 -0.2495
H29 H -0.3481 -0.0687 -0.4033
H30 H 0.1481 0.0767 -0.3699
loop_
_geom_bond_atom_site_label_1
_geom_bond_atom_site_label_2
_geom_bond_site_symmetry_1
_geom_bond_site_symmetry_2
O1 C2 1_555 1_555
O2 C16 1_555 1_555
O3 C9 1_555 1_555
O4 C13 1_555 1_555
O5 C14 1_555 1_555
C1 C2 1_555 1_555
C2 C3 1_555 1_555
C3 C4 1_555 1_555
C4 C5 1_555 1_555
C5 C6 1_555 1_555
C6 C7 1_555 1_555
C7 C8 1_555 1_555
C8 C9 1_555 1_555
C9 C10 1_555 1_555
C10 C11 1_555 1_555
C11 C12 1_555 1_555
C12 O3 1_555 1_555
C13 C12 1_555 1_555
C14 C1 1_555 1_555
C15 C1 1_555 1_555
C16 O1 1_555 1_555
C17 C15 1_555 1_555
C18 C4 1_555 1_555
C19 C8 1_555 1_555
C20 C12 1_555 1_555
H1 C2 1_555 1_555
H2 C3 1_555 1_555
H3 C3 1_555 1_555
H4 C5 1_555 1_555
H5 C6 1_555 1_555
H6 C6 1_555 1_555
H7 C7 1_555 1_555
H8 C7 1_555 1_555
H9 C8 1_555 1_555
H10 C9 1_555 1_555
H11 C10 1_555 1_555
H12 C10 1_555 1_555
H13 C11 1_555 1_555
H14 C11 1_555 1_555
H15 C13 1_555 1_555
H16 C14 1_555 1_555
H17 C17 1_555 1_555
H18 C17 1_555 1_555
H19 C17 1_555 1_555
H20 C18 1_555 1_555
H21 C18 1_555 1_555
H22 C18 1_555 1_555
H23 C19 1_555 1_555
H24 C19 1_555 1_555
H25 C19 1_555 1_555
H26 C20 1_555 1_555
H27 C20 1_555 1_555
H28 C20 1_555 1_555
H29 O4 1_555 1_555
H30 O5 1_555 1_555
C13 C14 1_555 1_555
C15 C16 1_555 1_555

#END
