
#######################################################################
#
#                 Cambridge Crystallographic Data Centre
#                                CCDC 
#
#######################################################################
#
# If this CIF has been generated from an entry in the Cambridge 
# Structural Database, then it will include bibliographic, chemical, 
# crystal, experimental, refinement or atomic coordinate data resulting 
# from the CCDC's data processing and validation procedures.
#
#######################################################################

data_VODJIH
_chemical_compound_source        'soft coral Pachyclavularia violacea'
_chemical_formula_moiety         'C24 H34 O8'
_chemical_name_systematic        'Pachyclavulariolide E'
_chemical_properties_biological  
'cytotoxicity against the growth of P-388, KB, A549 and HT-29 tumour cells'
_symmetry_cell_setting           monoclinic
_symmetry_space_group_name_H-M   'P 21'
_symmetry_Int_Tables_number      4
_space_group_name_Hall           'P 2yb'
loop_
_symmetry_equiv_pos_site_id
_symmetry_equiv_pos_as_xyz
1 x,y,z
2 -x,1/2+y,-z
_cell_length_a                   8.871(1)
_cell_length_b                   9.979(1)
_cell_length_c                   13.838(2)
_cell_angle_alpha                90
_cell_angle_beta                 98.41(1)
_cell_angle_gamma                90
_cell_volume                     1211.82
_exptl_crystal_colour            colorless
_exptl_crystal_description       prism
_chemical_melting_point          150-152deg.C
_cell_formula_units_Z            2
_exptl_crystal_recrystallization_method 'ethyl acetate'
loop_
_atom_site_label
_atom_site_type_symbol
_atom_site_fract_x
_atom_site_fract_y
_atom_site_fract_z
O1 O 0.3428(2) 0.5707(4) 0.8063(1)
O2 O 0.2174(2) 0.5038(5) 0.9266(1)
O3 O 0.8863(1) 0.2109(4) 0.70629(8)
O4 O 0.5163(1) 0.1330(5) 0.77714(8)
O5 O 0.7589(1) 0.2775(4) 0.89951(8)
O6 O 0.4330(1) 0.4882(4) 0.66791(9)
O7 O 0.3249(1) 0.2226(4) 0.6717(1)
O8 O 0.8197(2) 0.4846(5) 0.9545(1)
C1 C 0.5373(2) 0.4111(5) 0.8312(1)
C2 C 0.4788(2) 0.5276(5) 0.7653(1)
C3 C 0.5810(2) 0.6515(5) 0.7669(2)
C4 C 0.6994(2) 0.6515(5) 0.6974(1)
C5 C 0.8439(2) 0.6285(5) 0.7300(1)
C6 C 0.9713(2) 0.6150(5) 0.6708(2)
C7 C 1.0078(2) 0.4668(5) 0.6556(2)
C8 C 0.8804(2) 0.3933(5) 0.5886(1)
C9 C 0.8893(2) 0.2421(5) 0.6044(1)
C10 C 0.7549(2) 0.1682(5) 0.5471(1)
C11 C 0.7160(2) 0.0603(5) 0.6185(1)
C12 C 0.7604(2) 0.1257(5) 0.7187(1)
C13 C 0.6293(2) 0.2168(5) 0.7406(1)
C14 C 0.6733(2) 0.3332(5) 0.8113(1)
C15 C 0.4491(2) 0.3931(5) 0.8990(1)
C16 C 0.3238(3) 0.4905(5) 0.8838(2)
C17 C 0.4560(2) 0.2954(5) 0.9809(2)
C18 C 0.6364(2) 0.6868(5) 0.5927(2)
C19 C 0.8847(3) 0.4246(5) 0.4796(2)
C20 C 0.8133(2) 0.0240(5) 0.7971(2)
C21 C 0.3690(2) 0.1454(5) 0.7361(2)
C22 C 0.2685(2) 0.0507(5) 0.7812(2)
C23 C 0.8345(2) 0.3676(5) 0.9621(1)
C24 C 0.9372(3) 0.2954(5) 1.0414(2)
H1 H 0.6331 0.6564 0.8318
H2 H 0.5159 0.7230 0.7519
H3 H 0.8702 0.6149 0.7987
H4 H 1.0601 0.6544 0.7052
H5 H 0.9440 0.6543 0.6098
H6 H 1.0216 0.4194 0.7171
H7 H 1.0983 0.4576 0.6271
H8 H 0.7860 0.4199 0.6045
H9 H 0.9817 0.2065 0.5854
H10 H 0.7821 0.1264 0.4897
H11 H 0.6710 0.2243 0.5306
H12 H 0.7745 -0.0223 0.6127
H13 H 0.6111 0.0353 0.6072
H14 H 0.5823 0.2516 0.6810
H15 H 0.7388 0.3876 0.7821
H16 H 0.3672 0.2398 0.9750
H17 H 0.4660 0.3409 1.0420
H18 H 0.5434 0.2359 0.9827
H19 H 0.6858 0.7623 0.5747
H20 H 0.5312 0.6963 0.5865
H21 H 0.6594 0.6112 0.5516
H22 H 0.9766 0.3883 0.4615
H23 H 0.8790 0.5156 0.4701
H24 H 0.8002 0.3796 0.4414
H25 H 0.7311 -0.0373 0.8048
H26 H 0.8479 0.0652 0.8560
H27 H 0.8943 -0.0310 0.7774
H28 H 0.1664 0.0581 0.7503
H29 H 0.2756 0.0649 0.8485
H30 H 0.3005 -0.0425 0.7713
H31 H 1.0079 0.2396 1.0120
H32 H 0.8775 0.2352 1.0754
H33 H 0.9899 0.3552 1.0845
H34 H 0.3661 0.3909 0.6682
loop_
_geom_bond_atom_site_label_1
_geom_bond_atom_site_label_2
_geom_bond_site_symmetry_1
_geom_bond_site_symmetry_2
O1 C2 1_555 1_555
O2 C16 1_555 1_555
O3 C9 1_555 1_555
O4 C13 1_555 1_555
O5 C14 1_555 1_555
O6 C2 1_555 1_555
O7 C21 1_555 1_555
O8 C23 1_555 1_555
C1 C2 1_555 1_555
C2 C3 1_555 1_555
C3 C4 1_555 1_555
C4 C5 1_555 1_555
C5 C6 1_555 1_555
C6 C7 1_555 1_555
C7 C8 1_555 1_555
C8 C9 1_555 1_555
C9 C10 1_555 1_555
C10 C11 1_555 1_555
C11 C12 1_555 1_555
C12 O3 1_555 1_555
C13 C12 1_555 1_555
C14 C1 1_555 1_555
C15 C1 1_555 1_555
C16 O1 1_555 1_555
C17 C15 1_555 1_555
C18 C4 1_555 1_555
C19 C8 1_555 1_555
C20 C12 1_555 1_555
C21 O4 1_555 1_555
C22 C21 1_555 1_555
C23 O5 1_555 1_555
C24 C23 1_555 1_555
H1 C3 1_555 1_555
H2 C3 1_555 1_555
H3 C5 1_555 1_555
H4 C6 1_555 1_555
H5 C6 1_555 1_555
H6 C7 1_555 1_555
H7 C7 1_555 1_555
H8 C8 1_555 1_555
H9 C9 1_555 1_555
H10 C10 1_555 1_555
H11 C10 1_555 1_555
H12 C11 1_555 1_555
H13 C11 1_555 1_555
H14 C13 1_555 1_555
H15 C14 1_555 1_555
H16 C17 1_555 1_555
H17 C17 1_555 1_555
H18 C17 1_555 1_555
H19 C18 1_555 1_555
H20 C18 1_555 1_555
H21 C18 1_555 1_555
H22 C19 1_555 1_555
H23 C19 1_555 1_555
H24 C19 1_555 1_555
H25 C20 1_555 1_555
H26 C20 1_555 1_555
H27 C20 1_555 1_555
H28 C22 1_555 1_555
H29 C22 1_555 1_555
H30 C22 1_555 1_555
H31 C24 1_555 1_555
H32 C24 1_555 1_555
H33 C24 1_555 1_555
H34 O6 1_555 1_555
C13 C14 1_555 1_555
C15 C16 1_555 1_555

#END
