
#######################################################################
#
#                 Cambridge Crystallographic Data Centre
#                                CCDC 
#
#######################################################################
#
# If this CIF has been generated from an entry in the Cambridge 
# Structural Database, then it will include bibliographic, chemical, 
# crystal, experimental, refinement or atomic coordinate data resulting 
# from the CCDC's data processing and validation procedures.
#
#######################################################################

data_VODPUZ
_chemical_formula_moiety         'C15 H17 Br1 N2 O1 S1'
_chemical_name_systematic        
1-(4-diethylamino-2-p-bromophenylimino-2H-3-thietyl)-1-ethanone
_symmetry_cell_setting           monoclinic
_symmetry_space_group_name_H-M   'P 21/n'
_symmetry_Int_Tables_number      14
_space_group_name_Hall           '-P 2yn'
loop_
_symmetry_equiv_pos_site_id
_symmetry_equiv_pos_as_xyz
1 x,y,z
2 1/2-x,1/2+y,1/2-z
3 -x,-y,-z
4 1/2+x,1/2-y,1/2+z
_cell_length_a                   8.6884(13)
_cell_length_b                   10.783(2)
_cell_length_c                   17.295(3)
_cell_angle_alpha                90
_cell_angle_beta                 90.378(13)
_cell_angle_gamma                90
_cell_volume                     1620.28
_exptl_crystal_colour            yellow
_exptl_crystal_description       block
_chemical_melting_point          126-128deg.C
_cell_formula_units_Z            4
_exptl_crystal_recrystallization_method 'hexane/ethyl acetate'
loop_
_atom_site_label
_atom_site_type_symbol
_atom_site_fract_x
_atom_site_fract_y
_atom_site_fract_z
Br1 Br 0.13330(11) 0.56915(9) 0.08195(3)
S1 S 0.27347(18) 0.46094(12) 0.46588(7)
O1 O 0.1497(6) 0.7017(4) 0.6809(2)
N1 N 0.1596(5) 0.6977(4) 0.4232(2)
N2 N 0.3233(5) 0.4273(4) 0.6204(2)
C1 C 0.1439(6) 0.6083(6) 0.1891(3)
C2 C 0.0702(6) 0.5323(6) 0.2407(3)
H1 H 0.017(7) 0.464(6) 0.227(4)
C3 C 0.0765(6) 0.5603(5) 0.3185(3)
H2 H 0.034(6) 0.511(5) 0.350(3)
C4 C 0.1560(6) 0.6635(5) 0.3443(3)
C5 C 0.2267(6) 0.7401(5) 0.2908(3)
H3 H 0.277(8) 0.815(7) 0.309(4)
C6 C 0.2239(7) 0.7108(5) 0.2135(3)
H4 H 0.280(7) 0.762(6) 0.173(4)
C7 C 0.1986(6) 0.6213(5) 0.4744(3)
C8 C 0.2099(6) 0.6213(5) 0.5579(3)
C9 C 0.2723(6) 0.5011(5) 0.5657(3)
C10 C 0.1625(7) 0.7179(5) 0.6110(3)
C11 C 0.1169(15) 0.8396(7) 0.5765(5)
H5 H 0.055(12) 0.900(10) 0.607(6)
H6 H 0.199(13) 0.886(13) 0.585(7)
H7 H 0.114(9) 0.851(8) 0.532(5)
C12 C 0.3799(7) 0.3018(5) 0.6026(3)
H8 H 0.421(6) 0.303(5) 0.550(4)
H9 H 0.474(8) 0.293(6) 0.637(4)
C13 C 0.2583(10) 0.2060(7) 0.6169(4)
H10 H 0.223(8) 0.219(7) 0.668(4)
H11 H 0.170(9) 0.208(9) 0.571(5)
H12 H 0.298(7) 0.134(6) 0.605(3)
C14 C 0.3333(7) 0.4660(6) 0.7028(3)
H13 H 0.320(6) 0.396(6) 0.739(3)
H14 H 0.247(7) 0.520(5) 0.715(3)
C15 C 0.4789(8) 0.5350(8) 0.7197(4)
H15 H 0.559(8) 0.486(7) 0.710(4)
H16 H 0.480(7) 0.549(5) 0.773(4)
H17 H 0.494(9) 0.623(8) 0.685(4)
loop_
_geom_bond_atom_site_label_1
_geom_bond_atom_site_label_2
_geom_bond_site_symmetry_1
_geom_bond_site_symmetry_2
Br1 C1 1_555 1_555
S1 C7 1_555 1_555
O1 C10 1_555 1_555
N1 C4 1_555 1_555
N2 C9 1_555 1_555
C1 C2 1_555 1_555
C2 H1 1_555 1_555
C3 C2 1_555 1_555
H2 C3 1_555 1_555
C4 C3 1_555 1_555
C5 C4 1_555 1_555
H3 C5 1_555 1_555
C6 C1 1_555 1_555
H4 C6 1_555 1_555
C7 N1 1_555 1_555
C8 C7 1_555 1_555
C9 S1 1_555 1_555
C10 C8 1_555 1_555
C11 C10 1_555 1_555
H5 C11 1_555 1_555
H6 C11 1_555 1_555
H7 C11 1_555 1_555
C12 N2 1_555 1_555
H8 C12 1_555 1_555
H9 C12 1_555 1_555
C13 C12 1_555 1_555
H10 C13 1_555 1_555
H11 C13 1_555 1_555
H12 C13 1_555 1_555
C14 N2 1_555 1_555
H13 C14 1_555 1_555
H14 C14 1_555 1_555
C15 C14 1_555 1_555
H15 C15 1_555 1_555
H16 C15 1_555 1_555
H17 C15 1_555 1_555
C5 C6 1_555 1_555
C8 C9 1_555 1_555

#END
