
#######################################################################
#
#                 Cambridge Crystallographic Data Centre
#                                CCDC 
#
#######################################################################
#
# If this CIF has been generated from an entry in the Cambridge 
# Structural Database, then it will include bibliographic, chemical, 
# crystal, experimental, refinement or atomic coordinate data resulting 
# from the CCDC's data processing and validation procedures.
#
#######################################################################

data_VOFDAX
_chemical_formula_moiety         'C15 H16 N2 O2'
_chemical_name_systematic        1-(2-(4-Hydroxyphenyl)ethyl)-3-phenylurea
_symmetry_cell_setting           monoclinic
_symmetry_space_group_name_H-M   'P 21/c'
_symmetry_Int_Tables_number      14
_space_group_name_Hall           '-P 2ybc'
loop_
_symmetry_equiv_pos_site_id
_symmetry_equiv_pos_as_xyz
1 x,y,z
2 -x,1/2+y,1/2-z
3 -x,-y,-z
4 x,1/2-y,1/2+z
_cell_length_a                   8.9975(18)
_cell_length_b                   10.262(2)
_cell_length_c                   15.040(3)
_cell_angle_alpha                90
_cell_angle_beta                 103.035(3)
_cell_angle_gamma                90
_cell_volume                     1352.9
_exptl_crystal_colour            colorless
_exptl_crystal_description       block
_cell_formula_units_Z            4
loop_
_atom_site_label
_atom_site_type_symbol
_atom_site_fract_x
_atom_site_fract_y
_atom_site_fract_z
C1 C 0.36047(18) 0.63879(17) 0.17423(12)
C2 C 0.4425(2) 0.71788(19) 0.12825(15)
H1 H 0.4160 0.8052 0.1184
C3 C 0.5634(2) 0.6675(2) 0.09706(14)
H2 H 0.6176 0.7219 0.0664
C4 C 0.6062(2) 0.53813(19) 0.11019(11)
C5 C 0.5212(2) 0.45950(18) 0.15489(12)
H3 H 0.5460 0.3717 0.1634
C6 C 0.39967(19) 0.50902(17) 0.18733(12)
H4 H 0.3449 0.4548 0.2178
C7 C 0.7427(2) 0.4869(2) 0.07810(13)
H5 H 0.7443 0.5256 0.0195
H6 H 0.7327 0.3933 0.0697
C8 C 0.8930(2) 0.5167(2) 0.14533(13)
H7 H 0.9777 0.4951 0.1180
H8 H 0.8985 0.6090 0.1598
C9 C 1.01819(19) 0.45543(17) 0.30223(12)
C10 C 1.10173(19) 0.37406(16) 0.46217(12)
C11 C 1.2412(2) 0.43746(19) 0.48759(14)
H9 H 1.2757 0.4907 0.4464
C12 C 1.3283(2) 0.4199(2) 0.57578(16)
H10 H 1.4223 0.4614 0.5928
C13 C 1.2799(3) 0.3439(2) 0.63783(15)
H11 H 1.3403 0.3334 0.6963
C14 C 1.1407(3) 0.2830(2) 0.61304(15)
H12 H 1.1057 0.2322 0.6553
C15 C 1.0523(2) 0.2968(2) 0.52562(14)
H13 H 0.9590 0.2540 0.5091
N1 N 0.90353(18) 0.44127(17) 0.22837(11)
H14 H 0.830(2) 0.390(2) 0.2309(16)
N2 N 1.00435(17) 0.38137(16) 0.37476(10)
H15 H 0.925(2) 0.3327(19) 0.3659(15)
O1 O 0.24213(15) 0.69367(13) 0.20433(11)
H16 H 0.2034 0.6388 0.2316
O2 O 1.12730(15) 0.52825(16) 0.30326(10)
loop_
_geom_bond_atom_site_label_1
_geom_bond_atom_site_label_2
_geom_bond_site_symmetry_1
_geom_bond_site_symmetry_2
C1 C2 1_555 1_555
C2 H1 1_555 1_555
C3 C2 1_555 1_555
H2 C3 1_555 1_555
C4 C3 1_555 1_555
C5 C4 1_555 1_555
H3 C5 1_555 1_555
C6 C1 1_555 1_555
H4 C6 1_555 1_555
C7 C4 1_555 1_555
H5 C7 1_555 1_555
H6 C7 1_555 1_555
C8 C7 1_555 1_555
H7 C8 1_555 1_555
H8 C8 1_555 1_555
C9 N1 1_555 1_555
C10 C11 1_555 1_555
C11 H9 1_555 1_555
C12 C11 1_555 1_555
H10 C12 1_555 1_555
C13 C12 1_555 1_555
H11 C13 1_555 1_555
C14 C13 1_555 1_555
H12 C14 1_555 1_555
C15 C10 1_555 1_555
H13 C15 1_555 1_555
N1 C8 1_555 1_555
H14 N1 1_555 1_555
N2 C9 1_555 1_555
H15 N2 1_555 1_555
O1 C1 1_555 1_555
H16 O1 1_555 1_555
O2 C9 1_555 1_555
C5 C6 1_555 1_555
C10 N2 1_555 1_555
C14 C15 1_555 1_555

#END
