
#######################################################################
#
#                 Cambridge Crystallographic Data Centre
#                                CCDC 
#
#######################################################################
#
# If this CIF has been generated from an entry in the Cambridge 
# Structural Database, then it will include bibliographic, chemical, 
# crystal, experimental, refinement or atomic coordinate data resulting 
# from the CCDC's data processing and validation procedures.
#
#######################################################################

data_VOFFAZ
_chemical_formula_moiety         'C13 H12 N2 O2'
_chemical_name_systematic        1-(4-Hydroxyphenyl)-3-phenylurea
_symmetry_cell_setting           monoclinic
_symmetry_space_group_name_H-M   'P 21/c'
_symmetry_Int_Tables_number      14
_space_group_name_Hall           '-P 2ybc'
loop_
_symmetry_equiv_pos_site_id
_symmetry_equiv_pos_as_xyz
1 x,y,z
2 -x,1/2+y,1/2-z
3 -x,-y,-z
4 x,1/2-y,1/2+z
_cell_length_a                   23.7070(14)
_cell_length_b                   4.6299(3)
_cell_length_c                   10.0458(6)
_cell_angle_alpha                90
_cell_angle_beta                 91.9470(10)
_cell_angle_gamma                90
_cell_volume                     1102
_exptl_crystal_colour            black
_exptl_crystal_description       needle
_cell_formula_units_Z            4
loop_
_atom_site_label
_atom_site_type_symbol
_atom_site_fract_x
_atom_site_fract_y
_atom_site_fract_z
C1 C 0.07451(11) -0.0493(5) -0.1467(3)
C2 C 0.12681(12) -0.1664(6) -0.1642(3)
H1 H 0.1313 -0.3104 -0.2275
C3 C 0.17265(12) -0.0726(5) -0.0889(3)
H2 H 0.2081 -0.1510 -0.1022
C4 C 0.16611(11) 0.1387(5) 0.0069(3)
C5 C 0.11312(11) 0.2505(6) 0.0249(3)
H3 H 0.1081 0.3909 0.0896
C6 C 0.06733(11) 0.1574(6) -0.0518(3)
H4 H 0.0317 0.2350 -0.0389
C7 C 0.25353(11) 0.0873(5) 0.1427(3)
C8 C 0.34178(11) 0.1167(5) 0.2759(3)
C9 C 0.33325(12) -0.0805(6) 0.3756(3)
H5 H 0.2967 -0.1304 0.3972
C10 C 0.37838(15) -0.2044(7) 0.4434(3)
H6 H 0.3722 -0.3394 0.5099
C11 C 0.43192(15) -0.1304(7) 0.4137(4)
H7 H 0.4624 -0.2152 0.4594
C12 C 0.44086(13) 0.0682(7) 0.3168(4)
H8 H 0.4775 0.1216 0.2974
C13 C 0.39579(12) 0.1901(6) 0.2476(3)
H9 H 0.4022 0.3240 0.1808
N1 N 0.21304(10) 0.2511(5) 0.0824(3)
H10 H 0.2109(11) 0.434(2) 0.097(3)
N2 N 0.29553(10) 0.2457(4) 0.2054(3)
H11 H 0.2936(11) 0.430(2) 0.194(3)
O1 O 0.03001(8) -0.1469(4) -0.2277(2)
H12 H 0.0087(12) -0.003(5) -0.234(4)
O2 O 0.25291(7) -0.1766(4) 0.14307(19)
loop_
_geom_bond_atom_site_label_1
_geom_bond_atom_site_label_2
_geom_bond_site_symmetry_1
_geom_bond_site_symmetry_2
C1 C2 1_555 1_555
C2 H1 1_555 1_555
C3 C2 1_555 1_555
H2 C3 1_555 1_555
C4 C3 1_555 1_555
C5 C4 1_555 1_555
H3 C5 1_555 1_555
C6 C1 1_555 1_555
H4 C6 1_555 1_555
C7 N1 1_555 1_555
C8 C9 1_555 1_555
C9 H5 1_555 1_555
C10 C9 1_555 1_555
H6 C10 1_555 1_555
C11 C10 1_555 1_555
H7 C11 1_555 1_555
C12 C11 1_555 1_555
H8 C12 1_555 1_555
C13 C8 1_555 1_555
H9 C13 1_555 1_555
N1 C4 1_555 1_555
H10 N1 1_555 1_555
N2 C7 1_555 1_555
H11 N2 1_555 1_555
O1 C1 1_555 1_555
H12 O1 1_555 1_555
O2 C7 1_555 1_555
C5 C6 1_555 1_555
C8 N2 1_555 1_555
C12 C13 1_555 1_555

#END
