
#######################################################################
#
#                 Cambridge Crystallographic Data Centre
#                                CCDC 
#
#######################################################################
#
# If this CIF has been generated from an entry in the Cambridge 
# Structural Database, then it will include bibliographic, chemical, 
# crystal, experimental, refinement or atomic coordinate data resulting 
# from the CCDC's data processing and validation procedures.
#
#######################################################################

data_VOFFAX
_chemical_compound_source        'Stem bark Of Goniothalamus giganteus'
_chemical_formula_moiety         'C17 H18 O6'
_chemical_name_systematic        'Goniodiol diacetate'
_chemical_properties_biological  
'selective cytotoxic activity against human lung tumour cells'
_symmetry_cell_setting           triclinic
_symmetry_space_group_name_H-M   'P 1'
_symmetry_Int_Tables_number      1
_space_group_name_Hall           'P 1'
loop_
_symmetry_equiv_pos_site_id
_symmetry_equiv_pos_as_xyz
1 x,y,z
_cell_length_a                   5.312(2)
_cell_length_b                   9.135(3)
_cell_length_c                   9.545(3)
_cell_angle_alpha                105.73
_cell_angle_beta                 102.99
_cell_angle_gamma                105.77
_cell_volume                     406.165
_chemical_melting_point          141-143deg.C
_cell_formula_units_Z            1
loop_
_atom_site_label
_atom_site_type_symbol
_atom_site_fract_x
_atom_site_fract_y
_atom_site_fract_z
O1 O 0.897(1) 0.3566(8) 0.1157(7)
O2 O 1.075(2) 0.345(1) -0.0704(9)
O3 O 0.947(1) 0.4021(8) 0.4269(7)
O4 O 0.834(1) 0.5823(9) 0.5850(9)
O5 O 0.31970 0.10590 0.13780
O6 O 0.412(2) -0.1000(9) 0.002(1)
C1 C 0.956(2) 0.408(1) 0.005(1)
C2 C 0.882(3) 0.545(1) -0.018(1)
C3 C 0.822(3) 0.632(1) 0.090(1)
C4 C 0.781(3) 0.592(1) 0.229(1)
C5 C 0.708(2) 0.407(1) 0.183(1)
C6 C 0.678(2) 0.3473(9) 0.311(1)
C7 C 0.579(2) 0.161(1) 0.258(1)
C8 C 0.541(2) 0.092(1) 0.383(1)
C9 C 0.393(2) 0.152(1) 0.477(1)
C10 C 0.353(3) 0.083(2) 0.592(2)
C11 C 0.444(2) -0.035(1) 0.607(1)
C12 C 0.586(3) -0.091(2) 0.514(2)
C13 C 0.626(2) -0.022(1) 0.406(1)
C14 C 0.990(2) 0.518(1) 0.564(1)
C15 C 1.255(2) 0.545(1) 0.679(1)
C16 C 0.262(2) -0.023(1) 0.008(1)
C17 C 0.000(2) -0.054(1) -0.103(1)
H1 H 0.880 0.569 -0.109
H2 H 0.801 0.731 0.080
H3 H 0.964 0.652 0.318
H4 H 0.654 0.631 0.265
H5 H 0.537 0.353 0.101
H6 H 0.558 0.395 0.353
H7 H 0.724 0.127 0.229
H8 H 0.343 0.245 0.470
H9 H 0.259 0.120 0.659
H10 H 0.416 -0.083 0.686
H11 H 0.664 -0.176 0.522
H12 H 0.725 -0.062 0.338
H13 H 1.288 0.635 0.772
H14 H 1.248 0.453 0.701
H15 H 1.404 0.579 0.640
H16 H 0.019 0.027 -0.154
H17 H -0.070 -0.158 -0.178
H18 H -0.135 -0.0141 -0.052
loop_
_geom_bond_atom_site_label_1
_geom_bond_atom_site_label_2
_geom_bond_site_symmetry_1
_geom_bond_site_symmetry_2
O1 C1 1_555 1_555
O2 C1 1_555 1_555
O3 C6 1_555 1_555
O4 C14 1_555 1_555
O5 C7 1_555 1_555
O6 C16 1_555 1_555
C1 C2 1_555 1_555
C2 C3 1_555 1_555
C3 C4 1_555 1_555
C4 C5 1_555 1_555
C5 O1 1_555 1_555
C6 C5 1_555 1_555
C7 C6 1_555 1_555
C8 C7 1_555 1_555
C9 C8 1_555 1_555
C10 C9 1_555 1_555
C11 C10 1_555 1_555
C12 C11 1_555 1_555
C13 C8 1_555 1_555
C14 O3 1_555 1_555
C15 C14 1_555 1_555
C16 O5 1_555 1_555
C17 C16 1_555 1_555
H1 C2 1_555 1_555
H2 C3 1_555 1_555
H3 C4 1_555 1_555
H4 C4 1_555 1_555
H5 C5 1_555 1_555
H6 C6 1_555 1_555
H7 C7 1_555 1_555
H8 C9 1_555 1_555
H9 C10 1_555 1_555
H10 C11 1_555 1_555
H11 C12 1_555 1_555
H12 C13 1_555 1_555
H13 C15 1_555 1_555
H14 C15 1_555 1_555
H15 C15 1_555 1_555
H16 C17 1_555 1_555
H17 C17 1_555 1_555
H18 C17 1_555 1_555
C12 C13 1_555 1_555

#END
