
#######################################################################
#
#                 Cambridge Crystallographic Data Centre
#                                CCDC 
#
#######################################################################
#
# If this CIF has been generated from an entry in the Cambridge 
# Structural Database, then it will include bibliographic, chemical, 
# crystal, experimental, refinement or atomic coordinate data resulting 
# from the CCDC's data processing and validation procedures.
#
#######################################################################

data_VOFRUF
_chemical_formula_moiety         'C180 H156 N20,4(C4 H10 O3)'
_chemical_name_systematic        
"1,5,8,11,15,19,22,25,29,33,36,39,43,47,50,53,60,65,72,77-Icosa-aza-2,3,13,14,16,17,27,28,30,31,41,42,44,45,55,56,57,58,67,68,69,70,79,80(1,4)-tetracosabenzenapentacyclo[27.27.6^1,36^.6^8,29^.6^15,50^.6^22,43^]octacontaphane-4,11,18,25,32,39,46,53,59,65,71,77-dodecaene 2,2'-oxydiethanol solvate"
_symmetry_cell_setting           monoclinic
_symmetry_space_group_name_H-M   'P 2/n'
_symmetry_Int_Tables_number      13
_space_group_name_Hall           '-P 2yac'
loop_
_symmetry_equiv_pos_site_id
_symmetry_equiv_pos_as_xyz
1 x,y,z
2 1/2-x,y,1/2-z
3 -x,-y,-z
4 1/2+x,-y,1/2+z
_cell_length_a                   25.5517(15)
_cell_length_b                   12.7178(7)
_cell_length_c                   26.1062(15)
_cell_angle_alpha                90
_cell_angle_beta                 93.196(2)
_cell_angle_gamma                90
_cell_volume                     8470.31
_exptl_crystal_colour            yellow
_exptl_crystal_description       block
_cell_formula_units_Z            2
loop_
_atom_site_label
_atom_site_type_symbol
_atom_site_fract_x
_atom_site_fract_y
_atom_site_fract_z
N1 N 0.28644(11) 0.5904(2) 0.63395(11)
N2 N 0.37468(12) 0.9378(2) 0.81651(12)
N3 N 0.65393(13) 0.1427(3) 0.92345(15)
N4 N 0.45827(13) 1.3773(2) 0.39626(12)
N5 N 0.6323(2) 0.2466(4) 0.81499(17)
N6 N 0.64289(13) 0.3558(2) 0.97992(12)
N7 N 0.12231(14) 1.4419(3) 1.02273(15)
N8 N 0.39397(13) 1.1845(2) 0.36300(12)
N9 N 0.53201(13) 1.2597(3) 0.47721(12)
N10 N -0.04224(17) 0.0646(3) 0.5702(3)
C1 C 0.33299(13) 0.5556(2) 0.66191(13)
C2 C 0.36590(15) 0.6287(3) 0.68573(14)
H1 H 0.3567 0.7011 0.6843
C3 C 0.41218(15) 0.5982(3) 0.71176(14)
H2 H 0.4343 0.6501 0.7277
C4 C 0.42693(13) 0.4928(2) 0.71503(12)
C5 C 0.39378(16) 0.4227(3) 0.68878(15)
H3 H 0.4033 0.3505 0.6886
C6 C 0.34803(15) 0.4525(3) 0.66306(15)
H4 H 0.3266 0.4010 0.6459
C7 C 0.47662(14) 0.4581(3) 0.74123(13)
C8 C 0.49938(14) 0.5091(3) 0.78384(13)
H5 H 0.4834 0.5706 0.7964
C9 C 0.54491(15) 0.4718(3) 0.80832(14)
H6 H 0.5602 0.5095 0.8368
C10 C 0.56879(17) 0.3807(3) 0.79241(16)
C11 C 0.5479(2) 0.3325(4) 0.74771(17)
H7 H 0.5647 0.2724 0.7346
C12 C 0.50369(18) 0.3709(3) 0.72278(17)
H8 H 0.4908 0.3378 0.6920
C13 C 0.61587(18) 0.3393(4) 0.82060(17)
H9 H 0.6347 0.3844 0.8441
C14 C 0.29432(13) 0.6713(2) 0.59654(13)
C15 C 0.31496(13) 0.6482(3) 0.55001(14)
H10 H 0.3227 0.5774 0.5417
C16 C 0.32444(13) 0.7274(2) 0.51560(14)
H11 H 0.3378 0.7100 0.4835
C17 C 0.31472(12) 0.8326(2) 0.52709(12)
C18 C 0.29377(14) 0.8542(3) 0.57385(13)
H12 H 0.2866 0.9250 0.5826
C19 C 0.28312(14) 0.7747(3) 0.60808(14)
H13 H 0.2681 0.7914 0.6396
C20 C 0.32545(12) 0.9182(2) 0.49049(12)
C21 C 0.36451(13) 0.9103(3) 0.45579(14)
H14 H 0.3842 0.8471 0.4542
C22 C 0.37541(15) 0.9930(3) 0.42329(14)
H15 H 0.4026 0.9862 0.4001
C23 C 0.34646(14) 1.0861(3) 0.42467(14)
C24 C 0.30674(14) 1.0928(3) 0.45799(14)
H16 H 0.2861 1.1549 0.4585
C25 C 0.29619(14) 1.0110(2) 0.49063(14)
H17 H 0.2687 1.0179 0.5135
C26 C 0.35705(15) 1.1787(3) 0.39303(14)
H18 H 0.3346 1.2379 0.3954
C27 C 0.24215(13) 0.5249(3) 0.62855(13)
C28 C 0.22833(15) 0.4617(3) 0.66963(14)
H19 H 0.2488 0.4640 0.7011
C29 C 0.18543(15) 0.3963(3) 0.66490(16)
H20 H 0.1770 0.3544 0.6934
C30 C 0.15432(13) 0.3898(3) 0.62015(14)
C31 C 0.16685(13) 0.4546(3) 0.58002(14)
H21 H 0.1453 0.4538 0.5491
C32 C 0.21008(14) 0.5207(3) 0.58386(13)
H22 H 0.2179 0.5637 0.5555
C33 C 0.10850(14) 0.3171(3) 0.61565(17)
C34 C 0.07800(16) 0.3031(4) 0.65717(19)
H23 H 0.0857 0.3405 0.6882
C35 C 0.03592(19) 0.2338(5) 0.6533(3)
H24 H 0.0158 0.2233 0.6824
C36 C 0.02237(19) 0.1804(4) 0.6092(3)
C37 C 0.05283(17) 0.1933(3) 0.5675(3)
H25 H 0.0448 0.1551 0.5368
C38 C 0.09526(15) 0.2621(3) 0.5704(2)
H26 H 0.1154 0.2718 0.5413
C39 C -0.0229(2) 0.1088(5) 0.6084(4)
H27 H -0.0384 0.0958 0.6401
C40 C 0.40598(16) 0.8620(3) 0.84458(14)
C41 C 0.4445(4) 0.8814(8) 0.8752(4)
H28 H 0.4528 0.9529 0.8824
C42 C 0.4756(4) 0.8043(8) 0.8990(4)
H29 H 0.5045 0.8265 0.9208
C43 C 0.46813(15) 0.7055(3) 0.89356(13)
C44 C 0.4133(5) 0.6740(11) 0.8706(5)
H30 H 0.4017 0.6030 0.8715
C45 C 0.3815(5) 0.7518(9) 0.8488(5)
H31 H 0.3463 0.7380 0.8370
C46 C 0.50125(14) 0.6195(3) 0.91608(13)
C47 C 0.55480(14) 0.6315(3) 0.92792(13)
H32 H 0.5706 0.6984 0.9237
C48 C 0.58560(14) 0.5477(3) 0.94571(13)
H33 H 0.6221 0.5579 0.9530
C49 C 0.56389(14) 0.4498(3) 0.95289(13)
C50 C 0.51067(15) 0.4382(3) 0.94233(15)
H34 H 0.4947 0.3721 0.9480
C51 C 0.48015(15) 0.5206(3) 0.92377(15)
H35 H 0.4438 0.5094 0.9161
C52 C 0.59373(15) 0.3574(3) 0.97226(13)
H36 H 0.5748 0.2953 0.9794
C53 C 0.39320(13) 0.9704(3) 0.76900(14)
C54 C 0.40511(15) 0.8964(3) 0.73282(15)
H37 H 0.3993 0.8240 0.7395
C55 C 0.42523(15) 0.9257(3) 0.68748(16)
H38 H 0.4326 0.8734 0.6629
C56 C 0.43520(13) 1.0308(3) 0.67660(14)
C57 C 0.42283(14) 1.1038(3) 0.71379(16)
H39 H 0.4294 1.1761 0.7077
C58 C 0.40171(14) 1.0757(3) 0.75834(15)
H40 H 0.3928 1.1282 0.7822
C59 C 0.45601(13) 1.0649(3) 0.62742(15)
C60 C 0.43703(14) 1.0226(3) 0.58096(15)
H41 H 0.4132 0.9653 0.5809
C61 C 0.45215(14) 1.0622(3) 0.53511(15)
H42 H 0.4385 1.0316 0.5039
C62 C 0.48660(13) 1.1451(3) 0.53334(15)
C63 C 0.50775(14) 1.1862(3) 0.57987(15)
H43 H 0.5325 1.2418 0.5796
C64 C 0.49291(14) 1.1464(3) 0.62572(15)
H44 H 0.5079 1.1745 0.6569
C65 C 0.50038(14) 1.1855(3) 0.48308(15)
H45 H 0.4844 1.1535 0.4532
C66 C 0.33762(13) 0.9998(2) 0.84148(13)
C67 C 0.29463(14) 1.0416(3) 0.81302(14)
H46 H 0.2901 1.0266 0.7774
C68 C 0.25893(14) 1.1039(3) 0.83559(14)
H47 H 0.2300 1.1311 0.8153
C69 C 0.26398(13) 1.1286(2) 0.88768(14)
C70 C 0.30642(14) 1.0852(3) 0.91581(14)
H48 H 0.3107 1.0993 0.9515
C71 C 0.34288(15) 1.0213(3) 0.89298(14)
H49 H 0.3715 0.9927 0.9132
C72 C 0.22545(13) 1.1959(3) 0.91215(14)
C73 C 0.17172(14) 1.1865(3) 0.89937(15)
H50 H 0.1599 1.1376 0.8737
C74 C 0.13572(15) 1.2471(3) 0.92335(15)
H51 H 0.0995 1.2396 0.9140
C75 C 0.15152(14) 1.3182(3) 0.96065(15)
C76 C 0.20488(16) 1.3298(3) 0.97349(16)
H52 H 0.2165 1.3795 0.9988
C77 C 0.24099(15) 1.2687(3) 0.94908(15)
H53 H 0.2773 1.2772 0.9580
C78 C 0.11108(17) 1.3804(3) 0.98584(17)
H54 H 0.0755 1.3738 0.9737
C79 C 0.6781(2) 0.1212(5) 0.8746(2)
H55 H 0.6570 0.0672 0.8554
H56 H 0.7136 0.0921 0.8819
C80 C 0.6820(2) 0.2176(6) 0.8415(2)
H57 H 0.6946 0.2772 0.8633
H58 H 0.7083 0.2047 0.8158
C81 C 0.69127(15) 0.1963(3) 0.95852(17)
H59 H 0.7123 0.2455 0.9387
H60 H 0.7155 0.1437 0.9747
C82 C 0.66556(18) 0.2565(3) 0.99988(17)
H61 H 0.6376 0.2129 1.0138
H62 H 0.6918 0.2719 1.0282
C83 C 0.63706(19) 0.0450(4) 0.9469(3)
H63 H 0.6307 0.0591 0.9833
H64 H 0.6660 -0.0066 0.9462
C84 C 0.5882(2) -0.0040(4) 0.9215(4)
H65 H 0.5925 -0.0124 0.8843
H66 H 0.5824 -0.0745 0.9363
C85 C 0.45031(16) 1.3350(3) 0.34422(14)
H67 H 0.4783 1.2832 0.3385
H68 H 0.4539 1.3930 0.3194
C86 C 0.39742(17) 1.2825(3) 0.33358(16)
H69 H 0.3692 1.3310 0.3430
H70 H 0.3924 1.2668 0.2965
C87 C 0.51477(16) 1.3897(4) 0.40941(16)
H71 H 0.5196 1.4406 0.4380
H72 H 0.5318 1.4193 0.3795
C88 C 0.54160(16) 1.2880(4) 0.42484(16)
H73 H 0.5287 1.2311 0.4015
H74 H 0.5798 1.2953 0.4213
C89 C 0.43009(18) 1.4756(3) 0.40159(18)
H75 H 0.3958 1.4706 0.3822
H76 H 0.4502 1.5331 0.3863
C90 C 0.42114(19) 1.5025(3) 0.45709(18)
H77 H 0.4536 1.4881 0.4784
H78 H 0.4133 1.5785 0.4597
N1A N 0.21356(11) 0.5904(2) 0.86605(11)
N2A N 0.12532(12) 0.9378(2) 0.68349(12)
N3A N -0.15393(13) 0.1427(3) 0.57655(15)
N4A N 0.04173(13) 1.3773(2) 1.10374(12)
N5A N -0.1323(2) 0.2466(4) 0.68501(17)
N6A N -0.14289(13) 0.3558(2) 0.52008(12)
N7A N 0.37769(14) 1.4419(3) 0.47727(15)
N8A N 0.10603(13) 1.1845(2) 1.13700(12)
N9A N -0.03201(13) 1.2597(3) 1.02279(12)
N10A N 0.54224(17) 0.0646(3) 0.9298(3)
C1A C 0.16701(13) 0.5556(2) 0.83809(13)
C2A C 0.13410(15) 0.6287(3) 0.81427(14)
H1A H 0.1433 0.7011 0.8157
C3A C 0.08782(15) 0.5982(3) 0.78824(14)
H2A H 0.0657 0.6501 0.7723
C4A C 0.07307(13) 0.4928(2) 0.78497(12)
C5A C 0.10622(16) 0.4227(3) 0.81122(15)
H3A H 0.0967 0.3505 0.8114
C6A C 0.15197(15) 0.4525(3) 0.83694(15)
H4A H 0.1734 0.4010 0.8541
C7A C 0.02338(14) 0.4581(3) 0.75877(13)
C8A C 0.00062(14) 0.5091(3) 0.71616(13)
H5A H 0.0166 0.5706 0.7036
C9A C -0.04491(15) 0.4718(3) 0.69168(14)
H6A H -0.0602 0.5095 0.6632
C10A C -0.06879(17) 0.3807(3) 0.70759(16)
C11A C -0.0479(2) 0.3325(4) 0.75229(17)
H7A H -0.0647 0.2724 0.7654
C12A C -0.00369(18) 0.3709(3) 0.77722(17)
H8A H 0.0092 0.3378 0.8080
C13A C -0.11587(18) 0.3393(4) 0.67940(17)
H9A H -0.1347 0.3844 0.6559
C14A C 0.20568(13) 0.6713(2) 0.90346(13)
C15A C 0.18504(13) 0.6482(3) 0.94999(14)
H10A H 0.1773 0.5774 0.9583
C16A C 0.17556(13) 0.7274(2) 0.98440(14)
H11A H 0.1622 0.7100 1.0165
C17A C 0.18528(12) 0.8326(2) 0.97291(12)
C18A C 0.20623(14) 0.8542(3) 0.92615(13)
H12A H 0.2134 0.9250 0.9174
C19A C 0.21688(14) 0.7747(3) 0.89192(14)
H13A H 0.2319 0.7914 0.8604
C20A C 0.17455(12) 0.9182(2) 1.00951(12)
C21A C 0.13549(13) 0.9103(3) 1.04421(14)
H14A H 0.1158 0.8471 1.0458
C22A C 0.12459(15) 0.9930(3) 1.07671(14)
H15A H 0.0974 0.9862 1.0999
C23A C 0.15354(14) 1.0861(3) 1.07533(14)
C24A C 0.19326(14) 1.0928(3) 1.04201(14)
H16A H 0.2139 1.1549 1.0415
C25A C 0.20381(14) 1.0110(2) 1.00937(14)
H17A H 0.2313 1.0179 0.9865
C26A C 0.14295(15) 1.1787(3) 1.10697(14)
H18A H 0.1654 1.2379 1.1046
C27A C 0.25785(13) 0.5249(3) 0.87145(13)
C28A C 0.27167(15) 0.4617(3) 0.83037(14)
H19A H 0.2512 0.4640 0.7989
C29A C 0.31457(15) 0.3963(3) 0.83510(16)
H20A H 0.3230 0.3544 0.8066
C30A C 0.34568(13) 0.3898(3) 0.87985(14)
C31A C 0.33315(13) 0.4546(3) 0.91998(14)
H21A H 0.3547 0.4538 0.9509
C32A C 0.28992(14) 0.5207(3) 0.91614(13)
H22A H 0.2821 0.5637 0.9445
C33A C 0.39150(14) 0.3171(3) 0.88435(17)
C34A C 0.42200(16) 0.3031(4) 0.84283(19)
H23A H 0.4143 0.3405 0.8118
C35A C 0.46408(19) 0.2338(5) 0.8467(3)
H24A H 0.4842 0.2233 0.8176
C36A C 0.47763(19) 0.1804(4) 0.8908(3)
C37A C 0.44717(17) 0.1933(3) 0.9325(3)
H25A H 0.4552 0.1551 0.9632
C38A C 0.40474(15) 0.2621(3) 0.9296(2)
H26A H 0.3846 0.2718 0.9587
C39A C 0.5229(2) 0.1088(5) 0.8916(4)
H27A H 0.5384 0.0958 0.8599
C40A C 0.09402(16) 0.8620(3) 0.65542(14)
C41A C 0.0555(4) 0.8814(8) 0.6248(4)
H28A H 0.0472 0.9529 0.6176
C42A C 0.0244(4) 0.8043(8) 0.6010(4)
H29A H -0.0045 0.8265 0.5792
C43A C 0.03187(15) 0.7055(3) 0.60644(13)
C44A C 0.0867(5) 0.6740(11) 0.6294(5)
H30A H 0.0983 0.6030 0.6285
C45A C 0.1185(5) 0.7518(9) 0.6512(5)
H31A H 0.1537 0.7380 0.6630
C46A C -0.00125(14) 0.6195(3) 0.58392(13)
C47A C -0.05480(14) 0.6315(3) 0.57208(13)
H32A H -0.0706 0.6984 0.5763
C48A C -0.08560(14) 0.5477(3) 0.55429(13)
H33A H -0.1221 0.5579 0.5470
C49A C -0.06389(14) 0.4498(3) 0.54711(13)
C50A C -0.01067(15) 0.4382(3) 0.55767(15)
H34A H 0.0053 0.3721 0.5520
C51A C 0.01985(15) 0.5206(3) 0.57623(15)
H35A H 0.0562 0.5094 0.5839
C52A C -0.09373(15) 0.3574(3) 0.52774(13)
H36A H -0.0748 0.2953 0.5206
C53A C 0.10680(13) 0.9704(3) 0.73100(14)
C54A C 0.09489(15) 0.8964(3) 0.76718(15)
H37A H 0.1007 0.8240 0.7605
C55A C 0.07477(15) 0.9257(3) 0.81252(16)
H38A H 0.0674 0.8734 0.8371
C56A C 0.06480(13) 1.0308(3) 0.82340(14)
C57A C 0.07717(14) 1.1038(3) 0.78621(16)
H39A H 0.0706 1.1761 0.7923
C58A C 0.09829(14) 1.0757(3) 0.74166(15)
H40A H 0.1072 1.1282 0.7178
C59A C 0.04399(13) 1.0649(3) 0.87258(15)
C60A C 0.06297(14) 1.0226(3) 0.91904(15)
H41A H 0.0868 0.9653 0.9191
C61A C 0.04785(14) 1.0622(3) 0.96489(15)
H42A H 0.0615 1.0316 0.9961
C62A C 0.01340(13) 1.1451(3) 0.96666(15)
C63A C -0.00775(14) 1.1862(3) 0.92013(15)
H43A H -0.0325 1.2418 0.9204
C64A C 0.00709(14) 1.1464(3) 0.87428(15)
H44A H -0.0079 1.1745 0.8431
C65A C -0.00038(14) 1.1855(3) 1.01692(15)
H45A H 0.0156 1.1535 1.0468
C66A C 0.16238(13) 0.9998(2) 0.65852(13)
C67A C 0.20537(14) 1.0416(3) 0.68698(14)
H46A H 0.2099 1.0266 0.7226
C68A C 0.24107(14) 1.1039(3) 0.66441(14)
H47A H 0.2700 1.1311 0.6847
C69A C 0.23602(13) 1.1286(2) 0.61232(14)
C70A C 0.19358(14) 1.0852(3) 0.58419(14)
H48A H 0.1893 1.0993 0.5485
C71A C 0.15712(15) 1.0213(3) 0.60702(14)
H49A H 0.1285 0.9927 0.5868
C72A C 0.27455(13) 1.1959(3) 0.58785(14)
C73A C 0.32828(14) 1.1865(3) 0.60063(15)
H50A H 0.3401 1.1376 0.6263
C74A C 0.36428(15) 1.2471(3) 0.57665(15)
H51A H 0.4005 1.2396 0.5860
C75A C 0.34848(14) 1.3182(3) 0.53935(15)
C76A C 0.29512(16) 1.3298(3) 0.52651(16)
H52A H 0.2835 1.3795 0.5012
C77A C 0.25901(15) 1.2687(3) 0.55092(15)
H53A H 0.2227 1.2772 0.5420
C78A C 0.38892(17) 1.3804(3) 0.51416(17)
H54A H 0.4245 1.3738 0.5263
C79A C -0.1781(2) 0.1212(5) 0.6254(2)
H55A H -0.1570 0.0672 0.6446
H56A H -0.2136 0.0921 0.6181
C80A C -0.1820(2) 0.2176(6) 0.6585(2)
H57A H -0.1946 0.2772 0.6367
H58A H -0.2083 0.2047 0.6842
C81A C -0.19127(15) 0.1963(3) 0.54148(17)
H59A H -0.2123 0.2455 0.5613
H60A H -0.2155 0.1437 0.5253
C82A C -0.16556(18) 0.2565(3) 0.50012(17)
H61A H -0.1376 0.2129 0.4862
H62A H -0.1918 0.2719 0.4718
C83A C -0.13706(19) 0.0450(4) 0.5531(3)
H63A H -0.1307 0.0591 0.5167
H64A H -0.1660 -0.0066 0.5538
C84A C -0.0882(2) -0.0040(4) 0.5785(4)
H65A H -0.0925 -0.0124 0.6157
H66A H -0.0824 -0.0745 0.5637
C85A C 0.04969(16) 1.3350(3) 1.15578(14)
H67A H 0.0217 1.2832 1.1615
H68A H 0.0461 1.3930 1.1806
C86A C 0.10258(17) 1.2825(3) 1.16642(16)
H69A H 0.1308 1.3310 1.1570
H70A H 0.1076 1.2668 1.2035
C87A C -0.01477(16) 1.3897(4) 1.09059(16)
H71A H -0.0196 1.4406 1.0620
H72A H -0.0318 1.4193 1.1205
C88A C -0.04160(16) 1.2880(4) 1.07516(16)
H73A H -0.0287 1.2311 1.0985
H74A H -0.0798 1.2953 1.0787
C89A C 0.06991(18) 1.4756(3) 1.09841(18)
H75A H 0.1042 1.4706 1.1178
H76A H 0.0498 1.5331 1.1137
C90A C 0.07886(19) 1.5025(3) 1.04291(18)
H77A H 0.0464 1.4881 1.0216
H78A H 0.0867 1.5785 1.0403
O1 O 0.6262(2) 0.1466(4) 0.6918(2)
O2 O 0.7002(5) 0.3547(6) 0.6314(3)
C91 C 0.5824(3) 0.0068(6) 0.7337(3)
C92 C 0.6351(3) 0.0465(7) 0.7168(3)
C93 C 0.6735(3) 0.2005(8) 0.6746(3)
C94 C 0.6565(5) 0.3006(7) 0.6522(5)
O3 O 0.5692(3) 0.0436(6) 0.7880(3)
C95? C 0.4640(2) 0.8677(4) 0.8398(2)
H79? H 0.4793 0.9226 0.8210
C96? C 0.4944(2) 0.7911(4) 0.8635(2)
H80? H 0.5314 0.7915 0.8612
C97? C 0.4177(2) 0.7093(5) 0.8942(3)
H81? H 0.4005 0.6556 0.9121
C98? C 0.3871(2) 0.7868(5) 0.8703(3)
H82? H 0.3502 0.7840 0.8732
O4? O 0.6884(10) 0.424(2) 0.7135(10)
O5? O 0.7789(14) 0.610(3) 0.5985(14)
O6? O 0.7732(9) 0.4926(19) 0.5448(10)
O7? O 0.7180(10) 0.576(2) 0.6016(9)
O8? O 0.790(2) 0.493(5) 0.595(2)
O9? O 0.9489(6) 0.8773(12) 0.7254(5)
O10? O 0.8278(14) 0.786(3) 0.6658(15)
O11? O 0.7579(14) 0.840(3) 0.7251(11)
O12? O 0.8150(11) 0.772(2) 0.6300(13)
C99? C 0.7119(7) 0.4590(16) 0.6102(7)
C100? C 0.7545(7) 0.5075(13) 0.5973(6)
C101? C 0.6866(7) 0.3122(16) 0.7130(7)
C102? C 0.7148(10) 0.452(2) 0.6626(10)
C103? C 0.7540(10) 0.515(2) 0.6479(10)
C104? C 0.7243(13) 0.482(3) 0.7522(16)
C105? C 0.9294(12) 0.769(2) 0.6965(11)
C106? C 0.8884(8) 0.7826(17) 0.6512(8)
C107? C 0.7901(12) 0.830(2) 0.6689(11)
C108? C 0.7830(11) 0.764(2) 0.7067(11)
C109? C 0.8067(17) 0.723(4) 0.5901(18)
C110? C 0.7713(19) 0.689(4) 0.6221(19)
C111? C 0.8085(19) 0.644(4) 0.6405(17)
O13? O 0.5969(4) -0.0718(8) 0.7609(3)
loop_
_geom_bond_atom_site_label_1
_geom_bond_atom_site_label_2
_geom_bond_site_symmetry_1
_geom_bond_site_symmetry_2
N1 C1 1_555 1_555
N2 C40 1_555 1_555
N3 C79 1_555 1_555
N4 C85 1_555 1_555
N5 C13 1_555 1_555
N6 C52 1_555 1_555
N7 C78 1_555 1_555
N8 C26 1_555 1_555
N9 C65 1_555 1_555
N10 C39 1_555 1_555
C1 C2 1_555 1_555
C2 H1 1_555 1_555
C3 C2 1_555 1_555
H2 C3 1_555 1_555
C4 C3 1_555 1_555
C5 C4 1_555 1_555
H3 C5 1_555 1_555
C6 C1 1_555 1_555
H4 C6 1_555 1_555
C7 C4 1_555 1_555
C8 C7 1_555 1_555
H5 C8 1_555 1_555
C9 C8 1_555 1_555
H6 C9 1_555 1_555
C10 C9 1_555 1_555
C11 C10 1_555 1_555
H7 C11 1_555 1_555
C12 C7 1_555 1_555
H8 C12 1_555 1_555
C13 C10 1_555 1_555
H9 C13 1_555 1_555
C14 N1 1_555 1_555
C15 C14 1_555 1_555
H10 C15 1_555 1_555
C16 C15 1_555 1_555
H11 C16 1_555 1_555
C17 C16 1_555 1_555
C18 C17 1_555 1_555
H12 C18 1_555 1_555
C19 C14 1_555 1_555
H13 C19 1_555 1_555
C20 C17 1_555 1_555
C21 C20 1_555 1_555
H14 C21 1_555 1_555
C22 C21 1_555 1_555
H15 C22 1_555 1_555
C23 C22 1_555 1_555
C24 C23 1_555 1_555
H16 C24 1_555 1_555
C25 C20 1_555 1_555
H17 C25 1_555 1_555
C26 C23 1_555 1_555
H18 C26 1_555 1_555
C27 N1 1_555 1_555
C28 C27 1_555 1_555
H19 C28 1_555 1_555
C29 C28 1_555 1_555
H20 C29 1_555 1_555
C30 C29 1_555 1_555
C31 C30 1_555 1_555
H21 C31 1_555 1_555
C32 C27 1_555 1_555
H22 C32 1_555 1_555
C33 C30 1_555 1_555
C34 C33 1_555 1_555
H23 C34 1_555 1_555
C35 C34 1_555 1_555
H24 C35 1_555 1_555
C36 C35 1_555 1_555
C37 C36 1_555 1_555
H25 C37 1_555 1_555
C38 C33 1_555 1_555
H26 C38 1_555 1_555
C39 C36 1_555 1_555
H27 C39 1_555 1_555
C40 C41 1_555 1_555
C41 H28 1_555 1_555
C42 C41 1_555 1_555
H29 C42 1_555 1_555
C43 C42 1_555 1_555
C44 C43 1_555 1_555
H30 C44 1_555 1_555
C45 C40 1_555 1_555
H31 C45 1_555 1_555
C46 C43 1_555 1_555
C47 C46 1_555 1_555
H32 C47 1_555 1_555
C48 C47 1_555 1_555
H33 C48 1_555 1_555
C49 C48 1_555 1_555
C50 C49 1_555 1_555
H34 C50 1_555 1_555
C51 C46 1_555 1_555
H35 C51 1_555 1_555
C52 C49 1_555 1_555
H36 C52 1_555 1_555
C53 N2 1_555 1_555
C54 C53 1_555 1_555
H37 C54 1_555 1_555
C55 C54 1_555 1_555
H38 C55 1_555 1_555
C56 C55 1_555 1_555
C57 C56 1_555 1_555
H39 C57 1_555 1_555
C58 C53 1_555 1_555
H40 C58 1_555 1_555
C59 C56 1_555 1_555
C60 C59 1_555 1_555
H41 C60 1_555 1_555
C61 C60 1_555 1_555
H42 C61 1_555 1_555
C62 C61 1_555 1_555
C63 C62 1_555 1_555
H43 C63 1_555 1_555
C64 C59 1_555 1_555
H44 C64 1_555 1_555
C65 C62 1_555 1_555
H45 C65 1_555 1_555
C66 N2 1_555 1_555
C67 C66 1_555 1_555
H46 C67 1_555 1_555
C68 C67 1_555 1_555
H47 C68 1_555 1_555
C69 C68 1_555 1_555
C70 C69 1_555 1_555
H48 C70 1_555 1_555
C71 C66 1_555 1_555
H49 C71 1_555 1_555
C72 C69 1_555 1_555
C73 C72 1_555 1_555
H50 C73 1_555 1_555
C74 C73 1_555 1_555
H51 C74 1_555 1_555
C75 C74 1_555 1_555
C76 C75 1_555 1_555
H52 C76 1_555 1_555
C77 C72 1_555 1_555
H53 C77 1_555 1_555
C78 C75 1_555 1_555
H54 C78 1_555 1_555
C79 H55 1_555 1_555
H56 C79 1_555 1_555
C80 N5 1_555 1_555
H57 C80 1_555 1_555
H58 C80 1_555 1_555
C81 N3 1_555 1_555
H59 C81 1_555 1_555
H60 C81 1_555 1_555
C82 N6 1_555 1_555
H61 C82 1_555 1_555
H62 C82 1_555 1_555
C83 N3 1_555 1_555
H63 C83 1_555 1_555
H64 C83 1_555 1_555
C84 C83 1_555 1_555
H65 C84 1_555 1_555
H66 C84 1_555 1_555
C85 H67 1_555 1_555
H68 C85 1_555 1_555
C86 N8 1_555 1_555
H69 C86 1_555 1_555
H70 C86 1_555 1_555
C87 N4 1_555 1_555
H71 C87 1_555 1_555
H72 C87 1_555 1_555
C88 N9 1_555 1_555
H73 C88 1_555 1_555
H74 C88 1_555 1_555
C89 N4 1_555 1_555
H75 C89 1_555 1_555
H76 C89 1_555 1_555
C90 C89 1_555 1_555
H77 C90 1_555 1_555
H78 C90 1_555 1_555
O1 C92 1_555 1_555
O2 C94 1_555 1_555
C91 C92 1_555 1_555
C93 O1 1_555 1_555
C94 C93 1_555 1_555
O3 C91 1_555 1_555
N1A C1A 1_555 1_555
N2A C40A 1_555 1_555
N3A C79A 1_555 1_555
N4A C85A 1_555 1_555
N5A C13A 1_555 1_555
N6A C52A 1_555 1_555
N7A C90 1_555 1_555
N8A C26A 1_555 1_555
N9A C65A 1_555 1_555
N10A C84 1_555 1_555
C1A C2A 1_555 1_555
C2A H1A 1_555 1_555
C3A C2A 1_555 1_555
H2A C3A 1_555 1_555
C4A C3A 1_555 1_555
C5A C4A 1_555 1_555
H3A C5A 1_555 1_555
C6A C1A 1_555 1_555
H4A C6A 1_555 1_555
C7A C4A 1_555 1_555
C8A C7A 1_555 1_555
H5A C8A 1_555 1_555
C9A C8A 1_555 1_555
H6A C9A 1_555 1_555
C10A C9A 1_555 1_555
C11A C10A 1_555 1_555
H7A C11A 1_555 1_555
C12A C7A 1_555 1_555
H8A C12A 1_555 1_555
C13A C10A 1_555 1_555
H9A C13A 1_555 1_555
C14A N1A 1_555 1_555
C15A C14A 1_555 1_555
H10A C15A 1_555 1_555
C16A C15A 1_555 1_555
H11A C16A 1_555 1_555
C17A C16A 1_555 1_555
C18A C17A 1_555 1_555
H12A C18A 1_555 1_555
C19A C14A 1_555 1_555
H13A C19A 1_555 1_555
C20A C17A 1_555 1_555
C21A C20A 1_555 1_555
H14A C21A 1_555 1_555
C22A C21A 1_555 1_555
H15A C22A 1_555 1_555
C23A C22A 1_555 1_555
C24A C23A 1_555 1_555
H16A C24A 1_555 1_555
C25A C20A 1_555 1_555
H17A C25A 1_555 1_555
C26A C23A 1_555 1_555
H18A C26A 1_555 1_555
C27A N1A 1_555 1_555
C28A C27A 1_555 1_555
H19A C28A 1_555 1_555
C29A C28A 1_555 1_555
H20A C29A 1_555 1_555
C30A C29A 1_555 1_555
C31A C30A 1_555 1_555
H21A C31A 1_555 1_555
C32A C27A 1_555 1_555
H22A C32A 1_555 1_555
C33A C30A 1_555 1_555
C34A C33A 1_555 1_555
H23A C34A 1_555 1_555
C35A C34A 1_555 1_555
H24A C35A 1_555 1_555
C36A C35A 1_555 1_555
C37A C36A 1_555 1_555
H25A C37A 1_555 1_555
C38A C33A 1_555 1_555
H26A C38A 1_555 1_555
C39A N10A 1_555 1_555
H27A C39A 1_555 1_555
C40A C41A 1_555 1_555
C41A H28A 1_555 1_555
C42A C41A 1_555 1_555
H29A C42A 1_555 1_555
C43A C42A 1_555 1_555
C44A C43A 1_555 1_555
H30A C44A 1_555 1_555
C45A C40A 1_555 1_555
H31A C45A 1_555 1_555
C46A C43A 1_555 1_555
C47A C46A 1_555 1_555
H32A C47A 1_555 1_555
C48A C47A 1_555 1_555
H33A C48A 1_555 1_555
C49A C48A 1_555 1_555
C50A C49A 1_555 1_555
H34A C50A 1_555 1_555
C51A C46A 1_555 1_555
H35A C51A 1_555 1_555
C52A C49A 1_555 1_555
H36A C52A 1_555 1_555
C53A N2A 1_555 1_555
C54A C53A 1_555 1_555
H37A C54A 1_555 1_555
C55A C54A 1_555 1_555
H38A C55A 1_555 1_555
C56A C55A 1_555 1_555
C57A C56A 1_555 1_555
H39A C57A 1_555 1_555
C58A C53A 1_555 1_555
H40A C58A 1_555 1_555
C59A C56A 1_555 1_555
C60A C59A 1_555 1_555
H41A C60A 1_555 1_555
C61A C60A 1_555 1_555
H42A C61A 1_555 1_555
C62A C61A 1_555 1_555
C63A C62A 1_555 1_555
H43A C63A 1_555 1_555
C64A C59A 1_555 1_555
H44A C64A 1_555 1_555
C65A C62A 1_555 1_555
H45A C65A 1_555 1_555
C66A N2A 1_555 1_555
C67A C66A 1_555 1_555
H46A C67A 1_555 1_555
C68A C67A 1_555 1_555
H47A C68A 1_555 1_555
C69A C68A 1_555 1_555
C70A C69A 1_555 1_555
H48A C70A 1_555 1_555
C71A C66A 1_555 1_555
H49A C71A 1_555 1_555
C72A C69A 1_555 1_555
C73A C72A 1_555 1_555
H50A C73A 1_555 1_555
C74A C73A 1_555 1_555
H51A C74A 1_555 1_555
C75A C74A 1_555 1_555
C76A C75A 1_555 1_555
H52A C76A 1_555 1_555
C77A C72A 1_555 1_555
H53A C77A 1_555 1_555
C78A N7A 1_555 1_555
H54A C78A 1_555 1_555
C79A H55A 1_555 1_555
H56A C79A 1_555 1_555
C80A N5A 1_555 1_555
H57A C80A 1_555 1_555
H58A C80A 1_555 1_555
C81A N3A 1_555 1_555
H59A C81A 1_555 1_555
H60A C81A 1_555 1_555
C82A N6A 1_555 1_555
H61A C82A 1_555 1_555
H62A C82A 1_555 1_555
C83A N3A 1_555 1_555
H63A C83A 1_555 1_555
H64A C83A 1_555 1_555
C84A N10 1_555 1_555
H65A C84A 1_555 1_555
H66A C84A 1_555 1_555
C85A H67A 1_555 1_555
H68A C85A 1_555 1_555
C86A N8A 1_555 1_555
H69A C86A 1_555 1_555
H70A C86A 1_555 1_555
C87A N4A 1_555 1_555
H71A C87A 1_555 1_555
H72A C87A 1_555 1_555
C88A N9A 1_555 1_555
H73A C88A 1_555 1_555
H74A C88A 1_555 1_555
C89A N4A 1_555 1_555
H75A C89A 1_555 1_555
H76A C89A 1_555 1_555
C90A N7 1_555 1_555
H77A C90A 1_555 1_555
H78A C90A 1_555 1_555
C5 C6 1_555 1_555
C11 C12 1_555 1_555
C18 C19 1_555 1_555
C24 C25 1_555 1_555
C31 C32 1_555 1_555
C37 C38 1_555 1_555
C44 C45 1_555 1_555
C50 C51 1_555 1_555
C57 C58 1_555 1_555
C63 C64 1_555 1_555
C70 C71 1_555 1_555
C76 C77 1_555 1_555
C79 C80 1_555 1_555
C81 C82 1_555 1_555
C85 C86 1_555 1_555
C87 C88 1_555 1_555
C5A C6A 1_555 1_555
C11A C12A 1_555 1_555
C18A C19A 1_555 1_555
C24A C25A 1_555 1_555
C31A C32A 1_555 1_555
C36A C39A 1_555 1_555
C37A C38A 1_555 1_555
C44A C45A 1_555 1_555
C50A C51A 1_555 1_555
C57A C58A 1_555 1_555
C63A C64A 1_555 1_555
C70A C71A 1_555 1_555
C75A C78A 1_555 1_555
C76A C77A 1_555 1_555
C79A C80A 1_555 1_555
C81A C82A 1_555 1_555
C83A C84A 1_555 1_555
C85A C86A 1_555 1_555
C87A C88A 1_555 1_555
C89A C90A 1_555 1_555

#END
