
#######################################################################
#
#                 Cambridge Crystallographic Data Centre
#                                CCDC 
#
#######################################################################
#
# If this CIF has been generated from an entry in the Cambridge 
# Structural Database, then it will include bibliographic, chemical, 
# crystal, experimental, refinement or atomic coordinate data resulting 
# from the CCDC's data processing and validation procedures.
#
#######################################################################

data_VOFVAN
_chemical_formula_moiety         'C13 H11 N1 O1'
_chemical_name_systematic        4-Aminobenzophenone
_symmetry_cell_setting           monoclinic
_symmetry_space_group_name_H-M   'P 21'
_symmetry_Int_Tables_number      4
_space_group_name_Hall           'P 2yb'
loop_
_symmetry_equiv_pos_site_id
_symmetry_equiv_pos_as_xyz
1 x,y,z
2 -x,1/2+y,-z
_cell_length_a                   12.036(3)
_cell_length_b                   5.450(7)
_cell_length_c                   8.299(2)
_cell_angle_alpha                90
_cell_angle_beta                 97.86
_cell_angle_gamma                90
_cell_volume                     539.268
_exptl_crystal_colour            'light yellow'
_cell_formula_units_Z            2
loop_
_atom_site_label
_atom_site_type_symbol
_atom_site_fract_x
_atom_site_fract_y
_atom_site_fract_z
O1 O 0.6743(6) 0.060(2) 0.8015(7)
N1 N 0.5731(6) -0.196(2) 0.0526(9)
C1 C 0.7270(7) 0.127(2) 0.692(1)
C2 C 0.6900(7) 0.0419 0.525(1)
C3 C 0.6222(7) -0.167(2) 0.497(1)
C4 C 0.5822(7) -0.245(2) 0.343(1)
C5 C 0.6147(7) -0.116(2) 0.207(1)
C6 C 0.6791(7) 0.088(2) 0.234(1)
C7 C 0.7192(7) 0.169(2) 0.388(1)
C8 C 0.8211(8) 0.300(2) 0.729(1)
C9 C 0.9191(8) 0.265(2) 0.667(1)
C10 C 1.0085(9) 0.416(3) 0.716(1)
C11 C 0.998(1) 0.609(3) 0.816(1)
C12 C 0.902(1) 0.644(3) 0.871(1)
C13 C 0.810(1) 0.490(2) 0.831(1)
H1 H 0.6034 -0.2583 0.5863
H2 H 0.5334 -0.3860 0.3241
H3 H 0.6970 0.1790 0.1393
H4 H 0.7646 0.3100 0.4027
H5 H 0.9275 0.1294 0.5922
H6 H 1.0850 0.3811 0.6755
H7 H 1.0618 0.7144 0.8389
H8 H 0.9028 0.7822 0.9424
H9 H 0.7395 0.5192 0.8805
H10 H 0.6214 -0.2585 -0.0213
H11 H 0.4934 -0.1880 0.0106
loop_
_geom_bond_atom_site_label_1
_geom_bond_atom_site_label_2
_geom_bond_site_symmetry_1
_geom_bond_site_symmetry_2
O1 C1 1_555 1_555
N1 C5 1_555 1_555
C1 C2 1_555 1_555
C2 C3 1_555 1_555
C3 C4 1_555 1_555
C4 C5 1_555 1_555
C5 C6 1_555 1_555
C6 C7 1_555 1_555
C7 C2 1_555 1_555
C8 C1 1_555 1_555
C9 C8 1_555 1_555
C10 C9 1_555 1_555
C11 C10 1_555 1_555
C12 C11 1_555 1_555
C13 C8 1_555 1_555
H1 C3 1_555 1_555
H2 C4 1_555 1_555
H3 C6 1_555 1_555
H4 C7 1_555 1_555
H5 C9 1_555 1_555
H6 C10 1_555 1_555
H7 C11 1_555 1_555
H8 C12 1_555 1_555
H9 C13 1_555 1_555
H10 N1 1_555 1_555
H11 N1 1_555 1_555
C12 C13 1_555 1_555

#END
