
#######################################################################
#
#                 Cambridge Crystallographic Data Centre
#                                CCDC 
#
#######################################################################
#
# If this CIF has been generated from an entry in the Cambridge 
# Structural Database, then it will include bibliographic, chemical, 
# crystal, experimental, refinement or atomic coordinate data resulting 
# from the CCDC's data processing and validation procedures.
#
#######################################################################

data_VOFZAT
_chemical_formula_moiety         'C19 H22 Cl1 F1 N2 O1'
_chemical_name_systematic        
9-(t-Butylamino)-7-chloro-5-fluoro-3,3-dimethyl-3,4-dihydroacridin-1(2H)-one
_symmetry_cell_setting           triclinic
_symmetry_space_group_name_H-M   'P -1'
_symmetry_Int_Tables_number      2
_space_group_name_Hall           '-P 1'
loop_
_symmetry_equiv_pos_site_id
_symmetry_equiv_pos_as_xyz
1 x,y,z
2 -x,-y,-z
_cell_length_a                   9.508(2)
_cell_length_b                   9.679(3)
_cell_length_c                   10.314(3)
_cell_angle_alpha                82.54(3)
_cell_angle_beta                 74.65(2)
_cell_angle_gamma                73.17(2)
_cell_volume                     874.655
_exptl_crystal_colour            yellow
_exptl_crystal_description       block
_chemical_melting_point          '199.4-202.2 deg.C'
_cell_formula_units_Z            2
loop_
_atom_site_label
_atom_site_type_symbol
_atom_site_fract_x
_atom_site_fract_y
_atom_site_fract_z
Cl1 Cl -0.03009(12) 0.71145(12) 1.38017(10)
F1 F 0.4546(3) 0.3143(2) 1.29075(19)
O1 O 0.3000(3) 0.4685(3) 0.6258(2)
N1 N 0.4626(3) 0.3014(3) 1.0319(2)
N2 N 0.1548(3) 0.6104(3) 0.8429(3)
H1 H 0.164(4) 0.580(3) 0.7657(18)
C1 C 0.1166(4) 0.6003(3) 1.1403(3)
H2 H 0.0368 0.6627 1.1083
C2 C 0.1159(4) 0.5950(4) 1.2737(3)
C3 C 0.2312(4) 0.4994(3) 1.3258(3)
H3 H 0.2312 0.4981 1.4161
C4 C 0.3421(4) 0.4095(3) 1.2424(3)
C5 C 0.3518(4) 0.4067(3) 1.1031(3)
C6 C 0.2380(3) 0.5111(3) 1.0515(3)
C7 C 0.4632(3) 0.2966(3) 0.9053(3)
C8 C 0.5854(4) 0.1754(3) 0.8327(3)
H4 H 0.6002 0.0915 0.8953
H5 H 0.6792 0.2040 0.8056
C9 C 0.5537(3) 0.1319(3) 0.7091(3)
C10 C 0.5126(4) 0.2702(3) 0.6219(3)
H6 H 0.6006 0.3078 0.5900
H7 H 0.4873 0.2468 0.5438
C11 C 0.3831(4) 0.3857(3) 0.6930(3)
C12 C 0.3618(3) 0.3980(3) 0.8377(3)
C13 C 0.2491(3) 0.5121(3) 0.9086(3)
C14 C 0.4236(4) 0.0610(4) 0.7507(4)
H8 H 0.3352 0.1268 0.8003
H9 H 0.4510 -0.0253 0.8062
H10 H 0.4026 0.0366 0.6718
C15 C 0.6963(4) 0.0257(4) 0.6316(4)
H11 H 0.7173 -0.0635 0.6848
H12 H 0.7806 0.0668 0.6134
H13 H 0.6799 0.0076 0.5481
C16 C 0.0869(3) 0.7693(3) 0.8463(3)
C17 C -0.0831(4) 0.8044(4) 0.9021(4)
H14 H -0.1271 0.7637 0.8477
H15 H -0.1248 0.9074 0.9008
H16 H -0.1051 0.7643 0.9930
C18 C 0.1616(4) 0.8446(3) 0.9185(4)
H17 H 0.1263 0.8295 1.0140
H18 H 0.1362 0.9463 0.8940
H19 H 0.2694 0.8056 0.8929
C19 C 0.1176(5) 0.8237(4) 0.6973(3)
H20 H 0.2248 0.8020 0.6597
H21 H 0.0743 0.9263 0.6904
H22 H 0.0729 0.7767 0.6489
loop_
_geom_bond_atom_site_label_1
_geom_bond_atom_site_label_2
_geom_bond_site_symmetry_1
_geom_bond_site_symmetry_2
Cl1 C2 1_555 1_555
F1 C4 1_555 1_555
O1 C11 1_555 1_555
N1 C5 1_555 1_555
N2 H1 1_555 1_555
C1 H2 1_555 1_555
C2 C1 1_555 1_555
C3 C2 1_555 1_555
H3 C3 1_555 1_555
C4 C3 1_555 1_555
C5 C4 1_555 1_555
C6 C1 1_555 1_555
C7 N1 1_555 1_555
C8 C7 1_555 1_555
H4 C8 1_555 1_555
H5 C8 1_555 1_555
C9 C8 1_555 1_555
C10 C9 1_555 1_555
H6 C10 1_555 1_555
H7 C10 1_555 1_555
C11 C10 1_555 1_555
C12 C7 1_555 1_555
C13 N2 1_555 1_555
C14 C9 1_555 1_555
H8 C14 1_555 1_555
H9 C14 1_555 1_555
H10 C14 1_555 1_555
C15 C9 1_555 1_555
H11 C15 1_555 1_555
H12 C15 1_555 1_555
H13 C15 1_555 1_555
C16 N2 1_555 1_555
C17 C16 1_555 1_555
H14 C17 1_555 1_555
H15 C17 1_555 1_555
H16 C17 1_555 1_555
C18 C16 1_555 1_555
H17 C18 1_555 1_555
H18 C18 1_555 1_555
H19 C18 1_555 1_555
C19 C16 1_555 1_555
H20 C19 1_555 1_555
H21 C19 1_555 1_555
H22 C19 1_555 1_555
C5 C6 1_555 1_555
C6 C13 1_555 1_555
C11 C12 1_555 1_555
C12 C13 1_555 1_555

#END
