
#######################################################################
#
#                 Cambridge Crystallographic Data Centre
#                                CCDC 
#
#######################################################################
#
# If this CIF has been generated from an entry in the Cambridge 
# Structural Database, then it will include bibliographic, chemical, 
# crystal, experimental, refinement or atomic coordinate data resulting 
# from the CCDC's data processing and validation procedures.
#
#######################################################################

data_VOGRIU
_chemical_name_common            'Perylenebisimides chloroform solvate'
_chemical_formula_moiety         'C51 H50 N4 O5,2(C1 H1 Cl3)'
_chemical_name_systematic        
'5-(3-(2-oxoazepan-1-yl)propyl)-2,10-bis(pentan-3-yl)-6-phenyl-1H-2,5,10-triazadibenzo[cd,lm]cyclohepta[1,2,3,4-ghi]perylene-1,3,9,11(2H,5H,10H)-tetrone chloroform solvate'
_symmetry_cell_setting           monoclinic
_symmetry_space_group_name_H-M   'P 21/n'
_symmetry_Int_Tables_number      14
_space_group_name_Hall           '-P 2yn'
loop_
_symmetry_equiv_pos_site_id
_symmetry_equiv_pos_as_xyz
1 x,y,z
2 1/2-x,1/2+y,1/2-z
3 -x,-y,-z
4 1/2+x,1/2-y,1/2+z
_cell_length_a                   13.8572(19)
_cell_length_b                   13.0034(17)
_cell_length_c                   27.369(4)
_cell_angle_alpha                90
_cell_angle_beta                 92.799(4)
_cell_angle_gamma                90
_cell_volume                     4925.76
_exptl_crystal_colour            brown
_exptl_crystal_description       plate
_cell_formula_units_Z            4
_exptl_crystal_preparation       Luminescent
loop_
_atom_site_label
_atom_site_type_symbol
_atom_site_fract_x
_atom_site_fract_y
_atom_site_fract_z
Cl1 Cl 0.3294(5) 0.4757(6) 0.6216(3)
Cl2 Cl 0.1644(6) 0.3028(15) 0.5983(3)
Cl3 Cl 0.3540(6) 0.2682(10) 0.6343(5)
C1 C 0.2821(5) 0.3548(5) 0.5969(3)
H1 H 0.306(4) 0.342(4) 0.566(2)
Cl7 Cl 0.6415(3) 0.0210(4) 0.69578(10)
Cl8 Cl 0.6011(5) 0.2119(5) 0.66870(17)
Cl9 Cl 0.5035(6) 0.1457(6) 0.7495(4)
C2 C 0.6116(5) 0.1379(5) 0.7232(3)
H2 H 0.671(6) 0.159(6) 0.744(3)
O1 O 0.8869(3) 0.5906(3) 1.16730(13)
O2 O 1.0875(3) 0.1549(3) 0.82680(13)
O3 O 0.7967(3) 0.2503(4) 0.75617(13)
O4 O 0.5684(3) 0.5444(4) 1.12215(15)
N1 N 0.9430(4) 0.2044(4) 0.79010(15)
N2 N 1.0726(3) 0.2412(4) 1.00548(15)
N3 N 0.7262(4) 0.5695(4) 1.14550(16)
C3 C 0.7360(4) 0.3974(4) 0.97887(18)
C4 C 0.8256(4) 0.5565(4) 1.1385(2)
C5 C 0.9465(4) 0.4770(4) 1.08727(18)
H3 H 0.9943 0.5046 1.1096
C6 C 0.7801(4) 0.4654(4) 1.05986(18)
C7 C 0.8084(4) 0.4131(4) 1.01729(18)
C8 C 0.9766(4) 0.4160(4) 1.04794(17)
C9 C 0.8510(4) 0.4979(4) 1.09440(18)
C10 C 0.9065(4) 0.3809(4) 1.01235(17)
C11 C 0.8886(4) 0.2847(4) 0.88151(18)
C12 C 0.8222(4) 0.2860(4) 0.84022(18)
O5 O 1.1688(5) -0.1082(4) 1.00936(18)
C13 C 0.9797(4) 0.2383(4) 0.87746(18)
C14 C 0.8615(4) 0.3252(4) 0.92702(18)
C15 C 1.0794(4) 0.4015(4) 1.04695(17)
H4 H 1.1184 0.4554 1.0605
C16 C 1.0139(4) 0.2676(4) 0.96399(17)
C17 C 0.8524(4) 0.2462(5) 0.79277(19)
C18 C 0.9291(4) 0.3255(4) 0.96847(18)
C19 C 0.7655(4) 0.3632(4) 0.93078(18)
C20 C 1.0100(4) 0.1958(4) 0.83083(19)
C21 C 0.6400(4) 0.4211(5) 0.9871(2)
H5 H 0.5917 0.4078 0.9621
C22 C 1.1266(4) 0.3212(4) 1.02923(17)
C23 C 0.7036(4) 0.3645(4) 0.88926(19)
H6 H 0.6405 0.3921 0.8914
C24 C 1.0385(4) 0.2287(4) 0.91865(18)
H7 H 1.0985 0.1941 0.9164
C25 C 0.7313(4) 0.3268(5) 0.84502(19)
H8 H 0.6871 0.3290 0.8174
C26 C 1.2340(4) 0.3115(5) 1.03322(19)
C27 C 0.6830(4) 0.4871(5) 1.06694(19)
C28 C 1.0945(4) 0.1334(4) 1.01711(19)
H9 H 1.1616 0.1177 1.0088
H10 H 1.0506 0.0881 0.9973
C29 C 0.6131(4) 0.4639(5) 1.0312(2)
H11 H 0.5469 0.4769 1.0365
N4 N 1.2040(4) -0.0268(5) 1.08191(19)
C30 C 1.2833(4) 0.2653(5) 0.9956(2)
H12 H 1.2481 0.2406 0.9674
C31 C 1.2870(4) 0.3468(5) 1.0740(2)
H13 H 1.2547 0.3775 1.1002
C32 C 0.6537(5) 0.5349(5) 1.1133(2)
C33 C 1.0825(5) 0.1128(5) 1.0708(2)
H14 H 1.0153 0.1291 1.0788
H15 H 1.1259 0.1591 1.0904
C34 C 1.3822(5) 0.2552(5) 0.9991(2)
H16 H 1.4146 0.2237 0.9732
C35 C 1.3879(5) 0.3378(5) 1.0771(2)
H17 H 1.4242 0.3640 1.1047
C36 C 0.9745(5) 0.1616(5) 0.7423(2)
H18 H 1.0414 0.1349 0.7493
C37 C 1.1046(5) 0.0024(5) 1.0852(2)
H19 H 1.0859 -0.0082 1.1193
H20 H 1.0642 -0.0437 1.0640
C38 C 0.7007(5) 0.6211(6) 1.1924(2)
H21 H 0.7654 0.6478 1.2042
C39 C 1.4341(5) 0.2900(5) 1.0395(3)
H22 H 1.5023 0.2815 1.0418
C40 C 0.9146(5) 0.0687(6) 0.7252(2)
H23 H 0.8503 0.0931 0.7128
H24 H 0.9464 0.0360 0.6976
C41 C 0.9837(5) 0.2427(6) 0.7038(2)
H25 H 1.0096 0.2101 0.6745
H26 H 0.9183 0.2688 0.6943
C42 C 0.6628(6) 0.7876(6) 1.1468(3)
H27 H 0.7309 0.8082 1.1478
H28 H 0.6222 0.8485 1.1507
H29 H 0.6457 0.7548 1.1153
C43 C 1.2289(7) -0.0845(7) 1.0415(3)
C44 C 1.0459(6) 0.3314(7) 0.7178(2)
H30 H 1.0209 0.3652 0.7466
H31 H 1.0462 0.3805 0.6906
H32 H 1.1120 0.3074 0.7255
C45 C 0.9007(7) -0.0107(6) 0.7638(3)
H33 H 0.9639 -0.0337 0.7772
H34 H 0.8654 -0.0694 0.7493
H35 H 0.8638 0.0191 0.7899
C46 C 0.7392(6) 0.4561(8) 1.2385(3)
H36 H 0.7402 0.4169 1.2080
H37 H 0.7111 0.4137 1.2638
H38 H 0.8053 0.4754 1.2491
C47 C 1.3884(7) -0.0429(7) 1.0349(4)
H39 H 1.3514 0.0118 1.0172
H40 H 1.4423 -0.0632 1.0145
C48 C 0.6818(8) 0.5475(7) 1.2307(3)
H41 H 0.6849 0.5860 1.2620
H42 H 0.6140 0.5247 1.2251
C49 C 0.6474(9) 0.7164(6) 1.1857(3)
H43 H 0.5782 0.6974 1.1829
H44 H 0.6572 0.7555 1.2165
C50 C 1.2694(7) 0.0023(10) 1.1214(3)
H45 H 1.2332 0.0394 1.1462
H46 H 1.2971 -0.0605 1.1370
C51 C 1.3272(7) -0.1289(8) 1.0404(5)
H47 H 1.3443 -0.1662 1.0711
H48 H 1.3318 -0.1769 1.0125
C52 C 1.3443(9) 0.0645(8) 1.1069(4)
H49 H 1.3705 0.1037 1.1355
H50 H 1.3181 0.1146 1.0824
C53 C 1.4309(9) 0.0016(14) 1.0836(6)
H51 H 1.4860 0.0478 1.0777
H52 H 1.4537 -0.0543 1.1059
Cl4? Cl 0.290(2) 0.4745(8) 0.6171(5)
Cl5? Cl 0.1547(5) 0.375(2) 0.5926(3)
Cl6? Cl 0.320(2) 0.2557(12) 0.6323(6)
Cl10? Cl 0.6472(7) 0.0085(7) 0.7208(8)
Cl11? Cl 0.5561(4) 0.1162(5) 0.77982(14)
Cl12? Cl 0.5299(6) 0.2093(4) 0.6863(2)
loop_
_geom_bond_atom_site_label_1
_geom_bond_atom_site_label_2
_geom_bond_site_symmetry_1
_geom_bond_site_symmetry_2
Cl1 C1 1_555 1_555
Cl2 C1 1_555 1_555
Cl3 C1 1_555 1_555
C1 H1 1_555 1_555
Cl7 C2 1_555 1_555
Cl8 C2 1_555 1_555
Cl9 C2 1_555 1_555
C2 H2 1_555 1_555
O1 C4 1_555 1_555
O2 C20 1_555 1_555
O3 C17 1_555 1_555
O4 C32 1_555 1_555
N1 C17 1_555 1_555
N2 C16 1_555 1_555
N3 C4 1_555 1_555
C3 C7 1_555 1_555
C4 C9 1_555 1_555
C5 H3 1_555 1_555
C6 C7 1_555 1_555
C7 C10 1_555 1_555
C8 C5 1_555 1_555
C9 C5 1_555 1_555
C10 C8 1_555 1_555
C11 C12 1_555 1_555
C12 C17 1_555 1_555
O5 C43 1_555 1_555
C13 C11 1_555 1_555
C14 C11 1_555 1_555
C15 C8 1_555 1_555
H4 C15 1_555 1_555
C16 C18 1_555 1_555
C18 C10 1_555 1_555
C19 C3 1_555 1_555
C20 N1 1_555 1_555
C21 C3 1_555 1_555
H5 C21 1_555 1_555
C22 N2 1_555 1_555
C23 C19 1_555 1_555
H6 C23 1_555 1_555
C24 C13 1_555 1_555
H7 C24 1_555 1_555
C25 C12 1_555 1_555
H8 C25 1_555 1_555
C26 C22 1_555 1_555
C27 C6 1_555 1_555
C28 N2 1_555 1_555
H9 C28 1_555 1_555
H10 C28 1_555 1_555
C29 C21 1_555 1_555
H11 C29 1_555 1_555
N4 C37 1_555 1_555
C30 C26 1_555 1_555
H12 C30 1_555 1_555
C31 C26 1_555 1_555
H13 C31 1_555 1_555
C32 N3 1_555 1_555
C33 C28 1_555 1_555
H14 C33 1_555 1_555
H15 C33 1_555 1_555
C34 C30 1_555 1_555
H16 C34 1_555 1_555
C35 C31 1_555 1_555
H17 C35 1_555 1_555
C36 N1 1_555 1_555
H18 C36 1_555 1_555
C37 C33 1_555 1_555
H19 C37 1_555 1_555
H20 C37 1_555 1_555
C38 N3 1_555 1_555
H21 C38 1_555 1_555
C39 C34 1_555 1_555
H22 C39 1_555 1_555
C40 C36 1_555 1_555
H23 C40 1_555 1_555
H24 C40 1_555 1_555
C41 C36 1_555 1_555
H25 C41 1_555 1_555
H26 C41 1_555 1_555
C42 H27 1_555 1_555
H28 C42 1_555 1_555
H29 C42 1_555 1_555
C43 N4 1_555 1_555
C44 C41 1_555 1_555
H30 C44 1_555 1_555
H31 C44 1_555 1_555
H32 C44 1_555 1_555
C45 C40 1_555 1_555
H33 C45 1_555 1_555
H34 C45 1_555 1_555
H35 C45 1_555 1_555
C46 H36 1_555 1_555
H37 C46 1_555 1_555
H38 C46 1_555 1_555
C47 H39 1_555 1_555
H40 C47 1_555 1_555
C48 C38 1_555 1_555
H41 C48 1_555 1_555
H42 C48 1_555 1_555
C49 C38 1_555 1_555
H43 C49 1_555 1_555
H44 C49 1_555 1_555
C50 N4 1_555 1_555
H45 C50 1_555 1_555
H46 C50 1_555 1_555
C51 C43 1_555 1_555
H47 C51 1_555 1_555
H48 C51 1_555 1_555
C52 C50 1_555 1_555
H49 C52 1_555 1_555
H50 C52 1_555 1_555
C53 C47 1_555 1_555
H51 C53 1_555 1_555
H52 C53 1_555 1_555
C6 C9 1_555 1_555
C13 C20 1_555 1_555
C14 C18 1_555 1_555
C14 C19 1_555 1_555
C15 C22 1_555 1_555
C16 C24 1_555 1_555
C23 C25 1_555 1_555
C27 C29 1_555 1_555
C27 C32 1_555 1_555
C35 C39 1_555 1_555
C42 C49 1_555 1_555
C46 C48 1_555 1_555
C47 C51 1_555 1_555
C52 C53 1_555 1_555

#END
