
#######################################################################
#
#                 Cambridge Crystallographic Data Centre
#                                CCDC 
#
#######################################################################
#
# If this CIF has been generated from an entry in the Cambridge 
# Structural Database, then it will include bibliographic, chemical, 
# crystal, experimental, refinement or atomic coordinate data resulting 
# from the CCDC's data processing and validation procedures.
#
#######################################################################

data_VOHBAX
_chemical_formula_moiety         'C27 H25 N3 O4 S1'
_chemical_name_systematic        
'Ethyl 4-((4-methylphenyl)sulfonyl)-6-phenyl-1,11b-dihydro-4H-[1,2,4]triazino[6,1-a]isoquinoline-1-carboxylate'
_symmetry_cell_setting           monoclinic
_symmetry_space_group_name_H-M   'P 21/c'
_symmetry_Int_Tables_number      14
_space_group_name_Hall           '-P 2ybc'
loop_
_symmetry_equiv_pos_site_id
_symmetry_equiv_pos_as_xyz
1 x,y,z
2 -x,1/2+y,1/2-z
3 -x,-y,-z
4 x,1/2-y,1/2+z
_cell_length_a                   12.1540(13)
_cell_length_b                   14.0210(14)
_cell_length_c                   14.7920(15)
_cell_angle_alpha                90
_cell_angle_beta                 94.189(2)
_cell_angle_gamma                90
_cell_volume                     2513.99
_cell_formula_units_Z            4
loop_
_atom_site_label
_atom_site_type_symbol
_atom_site_fract_x
_atom_site_fract_y
_atom_site_fract_z
S1 S 0.74933(5) 0.08975(4) -0.10329(3)
N1 N 0.70636(13) 0.11646(10) 0.00034(10)
C1 C 0.77862(14) 0.02845(12) 0.12860(11)
H1 H 0.7827 -0.0285 0.0906
N2 N 0.78983(12) 0.11435(10) 0.07142(9)
O1 O 0.84772(14) 0.14299(11) -0.11260(10)
O2 O 0.62002(15) -0.13040(10) 0.15435(11)
C2 C 0.79752(15) 0.20165(12) 0.12270(12)
C3 C 0.66377(15) 0.03229(13) 0.16712(12)
H2 H 0.6644 0.0836 0.2121
O3 O 0.65296(15) 0.10374(12) -0.16285(10)
N3 N 0.57599(13) 0.05228(12) 0.09626(11)
C4 C 0.74861(16) 0.28987(13) 0.08147(12)
C5 C 0.87194(15) 0.02638(13) 0.20045(12)
C6 C 0.85164(17) 0.19974(14) 0.20433(13)
H3 H 0.8562 0.2552 0.2389
C7 C 0.60129(16) 0.08536(13) 0.02127(13)
H4 H 0.5450 0.0896 -0.0246
C8 C 0.78366(19) 0.32828(15) 0.00146(15)
H5 H 0.8379 0.2973 -0.0287
O4 O 0.63888(18) -0.07039(14) 0.29331(11)
C9 C 0.63879(17) -0.06030(15) 0.21361(13)
C10 C 0.92482(19) -0.05700(16) 0.22875(15)
H6 H 0.9041 -0.1147 0.2015
C11 C 0.90382(16) 0.11317(14) 0.24065(13)
C12 C 0.78093(17) -0.03162(14) -0.09587(12)
C13 C 0.8271(2) -0.22215(16) -0.06190(15)
C14 C 0.69546(18) -0.09732(15) -0.10083(14)
H7 H 0.6231 -0.0779 -0.1152
C15 C 0.71979(19) -0.19215(15) -0.08402(15)
H8 H 0.6631 -0.2368 -0.0876
C16 C 0.7381(2) 0.41201(16) -0.03323(17)
H9 H 0.7621 0.4376 -0.0864
C17 C 0.66811(19) 0.33712(16) 0.12465(15)
H10 H 0.6435 0.3125 0.1780
C18 C 0.88874(18) -0.06021(17) -0.07518(15)
H11 H 0.9457 -0.0158 -0.0726
C19 C 0.91079(19) -0.15538(18) -0.05837(16)
H12 H 0.9832 -0.1749 -0.0444
C20 C 0.9877(2) 0.11397(18) 0.31009(16)
H13 H 1.0088 0.1712 0.3379
C21 C 1.0078(2) -0.0548(2) 0.29700(17)
H14 H 1.0428 -0.1111 0.3159
C22 C 0.5963(3) -0.22321(19) 0.1929(2)
H15 H 0.6613 -0.2462 0.2283
H16 H 0.5373 -0.2166 0.2333
C23 C 0.6573(2) 0.45766(17) 0.01084(19)
H17 H 0.6259 0.5135 -0.0131
C24 C 1.0394(2) 0.0304(2) 0.33771(18)
H18 H 1.0957 0.0314 0.3838
C25 C 0.8506(3) -0.32602(19) -0.0408(2)
H19 H 0.9283 -0.3347 -0.0270
H20 H 0.8267 -0.3643 -0.0923
H21 H 0.8115 -0.3450 0.0104
C26 C 0.6235(2) 0.42136(18) 0.0889(2)
H22 H 0.5698 0.4532 0.1189
C27 C 0.5656(6) -0.2891(3) 0.1259(4)
H23 H 0.5496 -0.3491 0.1534
H24 H 0.6248 -0.2973 0.0870
H25 H 0.5011 -0.2666 0.0909
loop_
_geom_bond_atom_site_label_1
_geom_bond_atom_site_label_2
_geom_bond_site_symmetry_1
_geom_bond_site_symmetry_2
S1 N1 1_555 1_555
N1 N2 1_555 1_555
C1 H1 1_555 1_555
N2 C1 1_555 1_555
O1 S1 1_555 1_555
O2 C9 1_555 1_555
C2 N2 1_555 1_555
C3 C1 1_555 1_555
H2 C3 1_555 1_555
O3 S1 1_555 1_555
N3 C3 1_555 1_555
C4 C2 1_555 1_555
C5 C1 1_555 1_555
C6 C2 1_555 1_555
H3 C6 1_555 1_555
C7 N1 1_555 1_555
H4 C7 1_555 1_555
C8 C4 1_555 1_555
H5 C8 1_555 1_555
O4 C9 1_555 1_555
C9 C3 1_555 1_555
C10 C5 1_555 1_555
H6 C10 1_555 1_555
C11 C5 1_555 1_555
C12 S1 1_555 1_555
C13 C15 1_555 1_555
C14 C12 1_555 1_555
H7 C14 1_555 1_555
C15 C14 1_555 1_555
H8 C15 1_555 1_555
C16 C8 1_555 1_555
H9 C16 1_555 1_555
C17 C4 1_555 1_555
H10 C17 1_555 1_555
C18 C12 1_555 1_555
H11 C18 1_555 1_555
C19 C13 1_555 1_555
H12 C19 1_555 1_555
C20 C11 1_555 1_555
H13 C20 1_555 1_555
C21 C10 1_555 1_555
H14 C21 1_555 1_555
C22 O2 1_555 1_555
H15 C22 1_555 1_555
H16 C22 1_555 1_555
C23 C16 1_555 1_555
H17 C23 1_555 1_555
C24 C20 1_555 1_555
H18 C24 1_555 1_555
C25 C13 1_555 1_555
H19 C25 1_555 1_555
H20 C25 1_555 1_555
H21 C25 1_555 1_555
C26 C17 1_555 1_555
H22 C26 1_555 1_555
C27 C22 1_555 1_555
H23 C27 1_555 1_555
H24 C27 1_555 1_555
H25 C27 1_555 1_555
N3 C7 1_555 1_555
C6 C11 1_555 1_555
C18 C19 1_555 1_555
C21 C24 1_555 1_555
C23 C26 1_555 1_555

#END
