
#######################################################################
#
#                 Cambridge Crystallographic Data Centre
#                                CCDC 
#
#######################################################################
#
# If this CIF has been generated from an entry in the Cambridge 
# Structural Database, then it will include bibliographic, chemical, 
# crystal, experimental, refinement or atomic coordinate data resulting 
# from the CCDC's data processing and validation procedures.
#
#######################################################################

data_VOHFAA
_chemical_formula_moiety         'C16 H21 N3 O7,0.5(C1 H4 O1),1.75(H2 O1)'
_chemical_name_systematic        
'Glycyl-tyrosyl-glutamic acid methanol solvate hydrate'
_chemical_properties_biological  'neuronal toxicity'
_symmetry_cell_setting           triclinic
_symmetry_space_group_name_H-M   'P 1'
_symmetry_Int_Tables_number      1
_space_group_name_Hall           'P 1'
loop_
_symmetry_equiv_pos_site_id
_symmetry_equiv_pos_as_xyz
1 x,y,z
_cell_length_a                   9.4682(13)
_cell_length_b                   9.6899(15)
_cell_length_c                   12.0583(15)
_cell_angle_alpha                109.199(13)
_cell_angle_beta                 99.525(11)
_cell_angle_gamma                102.145(12)
_cell_volume                     987.843
_exptl_crystal_colour            white
_exptl_crystal_description       needle
_cell_formula_units_Z            2
_exptl_crystal_recrystallization_method methanol/water
loop_
_atom_site_label
_atom_site_type_symbol
_atom_site_fract_x
_atom_site_fract_y
_atom_site_fract_z
C1 C 0.0723(11) 1.2779(11) 0.2356(9)
H1 H 0.1271 1.2596 0.1735
H2 H 0.0716 1.3837 0.2610
C2 C -0.0007(11) 0.9362(11) 0.6766(8)
H3 H -0.0776 0.9873 0.6703
H4 H -0.0445 0.8426 0.6868
N1 N 0.1209(15) 1.0343(14) 0.7851(12)
H5 H 0.2101 1.0636 0.7782
H6 H 0.1027 1.0623 0.8554
C4 C 0.0483(7) 0.8959(8) 0.5585(6)
C5 C -0.0051(7) 0.8491(7) 0.3481(6)
H11 H 0.0996 0.9065 0.3651
C6 C -0.0979(7) 0.9033(8) 0.2664(6)
C7 C -0.1021(8) 1.0128(8) 0.1122(6)
H12 H -0.2088 0.9576 0.0838
C8 C -0.0191(9) 0.6738(9) 0.2832(7)
H13 H 0.0232 0.6604 0.2138
H14 H 0.0397 0.6422 0.3392
C9 C -0.1755(5) 0.5723(7) 0.2414(5)
C10 C -0.2288(7) 0.4844(8) 0.3044(5)
H15 H -0.1681 0.4913 0.3762
C11 C -0.3729(8) 0.3860(8) 0.2602(8)
H16 H -0.4086 0.3272 0.3024
C12 C -0.4637(6) 0.3756(9) 0.1529(8)
C13 C -0.4103(7) 0.4636(11) 0.0899(6)
H17 H -0.4711 0.4566 0.0181
C14 C -0.2662(8) 0.5619(9) 0.1341(6)
H18 H -0.2305 0.6208 0.0919
C15 C -0.0899(9) 1.1759(10) 0.1791(7)
H19 H -0.1413 1.1831 0.2431
H20 H -0.1401 1.2141 0.1237
C16 C 0.1556(12) 1.2536(13) 0.3442(10)
N3 N -0.0463(7) 0.8821(7) 0.4622(5)
H21 H -0.1336 0.8925 0.4661
N4 N -0.0316(6) 0.9411(6) 0.1843(5)
H22 H 0.0515 0.9223 0.1754
O1 O -0.2125(6) 0.9290(6) 0.2830(5)
O2 O 0.1762(6) 0.8841(7) 0.5622(5)
O3 O 0.0726(6) 0.9653(8) -0.0046(5)
C17 C -0.0444(8) 0.9967(9) 0.0027(6)
O4 O -0.1206(6) 1.0151(7) -0.0858(5)
H23 H -0.1947 1.0383 -0.0681
O12 O -0.5973(11) 0.2733(15) 0.1182(13)
H45 H -0.6428 0.2676 0.0520
O13 O 0.2864(9) 1.2452(10) 0.3494(7)
O14 O 0.0902(10) 1.2462(11) 0.4243(7)
H46 H 0.1457 1.2346 0.4783
C18 C 0.4548(11) 0.6566(11) 0.3963(8)
H24 H 0.3636 0.5836 0.3398
H25 H 0.5382 0.6366 0.3630
C19 C 0.4486(8) 0.8244(10) 0.4133(7)
H26 H 0.3473 0.8313 0.4158
C20 C 0.5560(7) 0.9338(8) 0.5303(6)
O5 O 0.6919(5) 0.9774(7) 0.5398(5)
N5 N 0.4994(6) 0.9793(7) 0.6259(5)
H27 H 0.4042 0.9543 0.6159
C21 C 0.5999(9) 1.0736(10) 0.7509(7)
H28 H 0.7007 1.0618 0.7548
C22 C 0.5354(7) 1.0241(7) 0.8439(6)
O6 O 0.6249(6) 1.0246(7) 0.9337(5)
H29 H 0.7110 1.0560 0.9302
O7 O 0.4021(5) 0.9911(7) 0.8364(5)
C23 C 0.6046(13) 1.2391(13) 0.7794(10)
H30 H 0.6596 1.2959 0.8636
H31 H 0.6628 1.2754 0.7304
C24 C 0.472(3) 1.278(3) 0.763(2)
H32 H 0.4984 1.3871 0.8087
H33 H 0.4116 1.2303 0.8052
C25 C 0.364(2) 1.2477(17) 0.6376(14)
O8 O 0.4420(15) 1.2481(15) 0.5608(11)
H34 H 0.405(18) 1.229(17) 0.486(4)
O9 O 0.2329(18) 1.2370(19) 0.6317(15)
C26 C 0.4728(9) 0.6386(10) 0.5206(8)
C27 C 0.6090(10) 0.6499(11) 0.5851(9)
H35 H 0.6905 0.6590 0.5516
C28 C 0.6279(13) 0.6479(13) 0.7031(10)
H36 H 0.7213 0.6541 0.7467
C29 C 0.5117(15) 0.6372(12) 0.7521(10)
C30 C 0.3690(14) 0.6144(12) 0.6853(11)
H37 H 0.2870 0.5979 0.7174
C31 C 0.3510(12) 0.6168(11) 0.5685(10)
H38 H 0.2564 0.6035 0.5228
N6 N 0.4878(7) 0.8624(8) 0.3136(6)
H39 H 0.5785 0.8708 0.3083
C32 C 0.3984(7) 0.8847(8) 0.2321(6)
O10 O 0.2655(6) 0.8775(7) 0.2270(5)
C33 C 0.4670(8) 0.9271(9) 0.1389(6)
H40 H 0.5356 1.0290 0.1775
H41 H 0.5234 0.8571 0.1072
N7 N 0.3529(9) 0.9220(15) 0.0391(9)
H42 H 0.2602 0.8971 0.0390
H43 H 0.3784 0.9440 -0.0197
O11 O 0.5441(14) 0.6472(14) 0.8738(9)
H44 H 0.4669 0.6379 0.8965
O15 O 0.2840(19) 0.5793(18) 0.9382(15)
H47 H 0.3658 0.5913 0.9814
C34 C 0.193(3) 0.455(3) 0.929(2)
H48 H 0.2027 0.4479 1.0069
H49 H 0.2154 0.3695 0.8741
H50 H 0.0924 0.4538 0.8974
O17 O 0.009(2) 0.408(3) 1.0114(19)
O18 O -0.002(3) 0.560(4) 0.936(3)
O19 O -0.036(2) 0.332(2) 0.8173(17)
O20 O -0.037(4) 0.571(5) 0.693(4)
O21 O 0.717(4) 0.259(5) 0.483(4)
H51 H 0.7146 0.2737 0.4193
C35 C 0.853(4) 0.278(4) 0.537(3)
H52 H 0.8983 0.2179 0.4805
H53 H 0.8546 0.2470 0.6044
H54 H 0.9079 0.3838 0.5647
C3? C -0.0007(11) 0.9362(11) 0.6766(8)
H7? H 0.0236 1.0459 0.7172
H8? H -0.1076 0.8932 0.6603
N2? N 0.0797(16) 0.8720(16) 0.7527(13)
H9? H 0.1408 0.8226 0.7265
H10? H 0.0658 0.8837 0.8236
O16? O 0.218(2) 0.333(2) 0.9312(17)
loop_
_geom_bond_atom_site_label_1
_geom_bond_atom_site_label_2
_geom_bond_site_symmetry_1
_geom_bond_site_symmetry_2
C1 H1 1_555 1_555
H2 C1 1_555 1_555
C2 H3 1_555 1_555
H4 C2 1_555 1_555
N1 C2 1_555 1_555
H5 N1 1_555 1_555
H6 N1 1_555 1_555
C4 C2 1_555 1_555
C5 H11 1_555 1_555
C6 C5 1_555 1_555
C7 H12 1_555 1_555
C8 C5 1_555 1_555
H13 C8 1_555 1_555
H14 C8 1_555 1_555
C9 C8 1_555 1_555
C10 C9 1_555 1_555
H15 C10 1_555 1_555
C11 C10 1_555 1_555
H16 C11 1_555 1_555
C12 C11 1_555 1_555
C13 C12 1_555 1_555
H17 C13 1_555 1_555
C14 C9 1_555 1_555
H18 C14 1_555 1_555
C15 C1 1_555 1_555
H19 C15 1_555 1_555
H20 C15 1_555 1_555
C16 C1 1_555 1_555
N3 C4 1_555 1_555
H21 N3 1_555 1_555
N4 C6 1_555 1_555
H22 N4 1_555 1_555
O1 C6 1_555 1_555
O2 C4 1_555 1_555
O3 C17 1_555 1_555
C17 C7 1_555 1_555
O4 C17 1_555 1_555
H23 O4 1_555 1_555
C18 H24 1_555 1_555
H25 C18 1_555 1_555
C19 C18 1_555 1_555
H26 C19 1_555 1_555
C20 C19 1_555 1_555
O5 C20 1_555 1_555
N5 C20 1_555 1_555
H27 N5 1_555 1_555
C21 N5 1_555 1_555
H28 C21 1_555 1_555
C22 C21 1_555 1_555
O6 C22 1_555 1_555
H29 O6 1_555 1_555
O7 C22 1_555 1_555
C23 C21 1_555 1_555
H30 C23 1_555 1_555
H31 C23 1_555 1_555
C24 C23 1_555 1_555
H32 C24 1_555 1_555
H33 C24 1_555 1_555
C25 C24 1_555 1_555
O8 C25 1_555 1_555
H34 O8 1_555 1_555
O9 C25 1_555 1_555
C26 C18 1_555 1_555
C27 C26 1_555 1_555
H35 C27 1_555 1_555
C28 C27 1_555 1_555
H36 C28 1_555 1_555
C29 C28 1_555 1_555
C30 C29 1_555 1_555
H37 C30 1_555 1_555
C31 C26 1_555 1_555
H38 C31 1_555 1_555
N6 C19 1_555 1_555
H39 N6 1_555 1_555
C32 N6 1_555 1_555
O10 C32 1_555 1_555
C33 C32 1_555 1_555
H40 C33 1_555 1_555
H41 C33 1_555 1_555
N7 C33 1_555 1_555
H42 N7 1_555 1_555
H43 N7 1_555 1_555
O11 C29 1_555 1_555
H44 O11 1_555 1_555
O12 C12 1_555 1_555
H45 O12 1_555 1_555
O13 C16 1_555 1_555
O14 C16 1_555 1_555
H46 O14 1_555 1_555
O15 H47 1_555 1_555
C34 O15 1_555 1_555
H48 C34 1_555 1_555
H49 C34 1_555 1_555
H50 C34 1_555 1_555
O21 H51 1_555 1_555
C35 O21 1_555 1_555
H52 C35 1_555 1_555
H53 C35 1_555 1_555
H54 C35 1_555 1_555
C5 N3 1_555 1_555
C7 C15 1_555 1_555
C7 N4 1_555 1_555
C13 C14 1_555 1_555
C30 C31 1_555 1_555

#END
