
#######################################################################
#
#                 Cambridge Crystallographic Data Centre
#                                CCDC 
#
#######################################################################
#
# If this CIF has been generated from an entry in the Cambridge 
# Structural Database, then it will include bibliographic, chemical, 
# crystal, experimental, refinement or atomic coordinate data resulting 
# from the CCDC's data processing and validation procedures.
#
#######################################################################

data_VOHFUV
_chemical_formula_moiety         'C22 H25 N1 O3'
_chemical_name_systematic        
't-butyl 2-((benzylamino)(phenyl)methylene)-3-oxobutanoate'
_symmetry_cell_setting           triclinic
_symmetry_space_group_name_H-M   'P -1'
_symmetry_Int_Tables_number      2
_space_group_name_Hall           '-P 1'
loop_
_symmetry_equiv_pos_site_id
_symmetry_equiv_pos_as_xyz
1 x,y,z
2 -x,-y,-z
_cell_length_a                   9.615(7)
_cell_length_b                   10.042(8)
_cell_length_c                   10.834(8)
_cell_angle_alpha                87.159(13)
_cell_angle_beta                 87.752(13)
_cell_angle_gamma                73.682(12)
_cell_volume                     1002.34
_cell_formula_units_Z            2
loop_
_atom_site_label
_atom_site_type_symbol
_atom_site_fract_x
_atom_site_fract_y
_atom_site_fract_z
O1 O 0.20540(16) 0.96477(17) 0.70175(16)
O2 O 0.03157(13) 0.92128(13) 0.82867(12)
O3 O 0.47791(15) 0.65321(17) 0.93116(16)
N1 N 0.28718(17) 0.52014(17) 0.88938(16)
H1 H 0.3406 0.5249 0.9499
C1 C 0.4810(2) 0.3918(2) 0.6937(2)
H2 H 0.5013 0.4624 0.7357
C2 C 0.5598(3) 0.3443(3) 0.5881(3)
H3 H 0.6320 0.3840 0.5593
C3 C 0.5341(3) 0.2405(4) 0.5253(3)
H4 H 0.5888 0.2083 0.4547
C4 C 0.4261(3) 0.1838(3) 0.5675(3)
H5 H 0.4067 0.1131 0.5249
C5 C 0.3463(3) 0.2313(2) 0.6729(2)
H6 H 0.2734 0.1920 0.7007
C6 C 0.3723(2) 0.33598(19) 0.73802(19)
C7 C 0.2850(2) 0.3829(2) 0.8544(2)
H7 H 0.1854 0.3833 0.8427
H8 H 0.3227 0.3165 0.9215
C8 C 0.21219(19) 0.6397(2) 0.83445(17)
C9 C 0.07802(18) 0.63556(19) 0.77197(17)
C10 C -0.0381(2) 0.6121(2) 0.8414(2)
H9 H -0.0325 0.6016 0.9270
C11 C -0.1608(2) 0.6044(3) 0.7851(3)
H10 H -0.2376 0.5878 0.8322
C12 C -0.1699(3) 0.6213(3) 0.6594(3)
H11 H -0.2529 0.6156 0.6212
C13 C -0.0582(3) 0.6465(3) 0.5894(3)
H12 H -0.0658 0.6589 0.5041
C14 C 0.0666(2) 0.6534(2) 0.6454(2)
H13 H 0.1428 0.6702 0.5975
C15 C 0.25874(18) 0.75905(19) 0.83182(17)
C16 C 0.4002(2) 0.7566(2) 0.8761(2)
C17 C 0.4571(2) 0.8811(3) 0.8571(3)
H14 H 0.5434 0.8671 0.9035
H15 H 0.3851 0.9621 0.8847
H16 H 0.4792 0.8937 0.7708
C18 C 0.1651(2) 0.8912(2) 0.77846(19)
C19 C -0.0855(2) 1.0437(2) 0.7855(2)
C20 C -0.0534(3) 1.1737(3) 0.8238(3)
H17 H -0.0258 1.1628 0.9087
H18 H -0.1383 1.2510 0.8143
H19 H 0.0244 1.1903 0.7727
C21 C -0.2140(2) 1.0230(3) 0.8597(3)
H20 H -0.2336 0.9392 0.8363
H21 H -0.2972 1.1005 0.8439
H22 H -0.1933 1.0162 0.9461
C22 C -0.1039(4) 1.0402(4) 0.6482(3)
H23 H -0.0181 1.0502 0.6050
H24 H -0.1858 1.1149 0.6230
H25 H -0.1196 0.9532 0.6292
loop_
_geom_bond_atom_site_label_1
_geom_bond_atom_site_label_2
_geom_bond_site_symmetry_1
_geom_bond_site_symmetry_2
O1 C18 1_555 1_555
O2 C18 1_555 1_555
O3 C16 1_555 1_555
N1 H1 1_555 1_555
C1 H2 1_555 1_555
C2 C1 1_555 1_555
H3 C2 1_555 1_555
C3 C2 1_555 1_555
H4 C3 1_555 1_555
C4 C3 1_555 1_555
H5 C4 1_555 1_555
C5 C4 1_555 1_555
H6 C5 1_555 1_555
C6 C1 1_555 1_555
C7 N1 1_555 1_555
H7 C7 1_555 1_555
H8 C7 1_555 1_555
C8 N1 1_555 1_555
C9 C8 1_555 1_555
C10 C9 1_555 1_555
H9 C10 1_555 1_555
C11 C10 1_555 1_555
H10 C11 1_555 1_555
C12 C11 1_555 1_555
H11 C12 1_555 1_555
C13 C12 1_555 1_555
H12 C13 1_555 1_555
C14 C9 1_555 1_555
H13 C14 1_555 1_555
C15 C8 1_555 1_555
C16 C15 1_555 1_555
C17 C16 1_555 1_555
H14 C17 1_555 1_555
H15 C17 1_555 1_555
H16 C17 1_555 1_555
C18 C15 1_555 1_555
C19 O2 1_555 1_555
C20 C19 1_555 1_555
H17 C20 1_555 1_555
H18 C20 1_555 1_555
H19 C20 1_555 1_555
C21 C19 1_555 1_555
H20 C21 1_555 1_555
H21 C21 1_555 1_555
H22 C21 1_555 1_555
C22 C19 1_555 1_555
H23 C22 1_555 1_555
H24 C22 1_555 1_555
H25 C22 1_555 1_555
C5 C6 1_555 1_555
C6 C7 1_555 1_555
C13 C14 1_555 1_555

#END
