
#######################################################################
#
#                 Cambridge Crystallographic Data Centre
#                                CCDC 
#
#######################################################################
#
# If this CIF has been generated from an entry in the Cambridge 
# Structural Database, then it will include bibliographic, chemical, 
# crystal, experimental, refinement or atomic coordinate data resulting 
# from the CCDC's data processing and validation procedures.
#
#######################################################################

data_VOHJEJ
_chemical_formula_moiety         'C19 H25 N3 O3 S1'
_chemical_name_systematic        
4-cyclohexyl-3-((4-methylphenyl)sulfonyl)-3,4,6,7-tetrahydro-8H-pyrazolo[1,2-a][1,2,4]triazin-8-one
_symmetry_cell_setting           triclinic
_symmetry_space_group_name_H-M   'P -1'
_symmetry_Int_Tables_number      2
_space_group_name_Hall           '-P 1'
loop_
_symmetry_equiv_pos_site_id
_symmetry_equiv_pos_as_xyz
1 x,y,z
2 -x,-y,-z
_cell_length_a                   9.5840(8)
_cell_length_b                   10.1560(12)
_cell_length_c                   10.5530(15)
_cell_angle_alpha                84.535(2)
_cell_angle_beta                 78.000(2)
_cell_angle_gamma                71.7170(10)
_cell_volume                     953.513
_cell_formula_units_Z            2
loop_
_atom_site_label
_atom_site_type_symbol
_atom_site_fract_x
_atom_site_fract_y
_atom_site_fract_z
S1 S 0.26899(8) 0.18300(7) 0.65857(7)
O1 O 0.3091(2) 0.0712(2) 0.7503(2)
O2 O 0.2553(3) 0.1521(2) 0.5326(2)
N1 N 0.6610(2) 0.2609(2) 0.53624(19)
N2 N 0.3570(2) 0.3853(2) 0.5376(2)
N3 N 0.6001(2) 0.3167(2) 0.4210(2)
O3 O 0.6856(3) 0.4002(2) 0.22002(19)
C1 C 0.5636(3) 0.1823(2) 0.6146(2)
H1 H 0.5688 0.1024 0.5666
C2 C 0.6134(3) 0.1314(3) 0.7460(2)
H2 H 0.5253 0.1157 0.8035
C3 C 0.1003(3) 0.3033(3) 0.7291(2)
C4 C 0.4019(3) 0.2818(2) 0.6366(2)
H3 H 0.3854 0.3300 0.7171
C5 C 0.6510(3) 0.2400(3) 0.8116(3)
H4 H 0.7390 0.2594 0.7599
H5 H 0.5685 0.3254 0.8173
C6 C -0.1642(3) 0.4938(3) 0.8419(3)
C7 C 0.7111(3) 0.3352(3) 0.3195(3)
C8 C 0.0107(3) 0.3936(3) 0.6518(3)
H6 H 0.0380 0.3905 0.5620
C9 C 0.6799(3) 0.1901(3) 0.9463(3)
H7 H 0.5895 0.1775 1.0001
H8 H 0.7065 0.2596 0.9851
C10 C 0.7354(4) -0.0077(3) 0.7428(3)
H9 H 0.8260 0.0005 0.6859
H10 H 0.7039 -0.0766 0.7082
C11 C 0.4521(3) 0.3915(3) 0.4367(3)
H11 H 0.4195 0.4505 0.3688
C12 C 0.0598(3) 0.3081(3) 0.8627(3)
H12 H 0.1211 0.2485 0.9151
C13 C 0.8153(3) 0.1786(3) 0.4818(3)
H13 H 0.8189 0.0872 0.4590
H14 H 0.8815 0.1688 0.5426
C14 C 0.7680(3) -0.0554(3) 0.8778(3)
H15 H 0.6813 -0.0754 0.9314
H16 H 0.8512 -0.1403 0.8717
C15 C -0.0727(3) 0.4028(3) 0.9170(3)
H17 H -0.1010 0.4052 1.0068
C16 C -0.1190(3) 0.4882(3) 0.7086(3)
H18 H -0.1783 0.5502 0.6562
C17 C 0.8059(3) 0.0536(3) 0.9416(3)
H19 H 0.8981 0.0675 0.8929
H20 H 0.8207 0.0221 1.0289
C18 C 0.8571(3) 0.2639(4) 0.3622(3)
H21 H 0.9014 0.3309 0.3830
H22 H 0.9272 0.2048 0.2952
C19 C -0.3091(4) 0.5934(4) 0.9032(4)
H23 H -0.3211 0.5821 0.9958
H24 H -0.3903 0.5753 0.8753
H25 H -0.3088 0.6866 0.8777
loop_
_geom_bond_atom_site_label_1
_geom_bond_atom_site_label_2
_geom_bond_site_symmetry_1
_geom_bond_site_symmetry_2
S1 O1 1_555 1_555
O2 S1 1_555 1_555
N1 N3 1_555 1_555
N2 C4 1_555 1_555
N3 C7 1_555 1_555
O3 C7 1_555 1_555
C1 N1 1_555 1_555
H1 C1 1_555 1_555
C2 C1 1_555 1_555
H2 C2 1_555 1_555
C3 S1 1_555 1_555
C4 S1 1_555 1_555
H3 C4 1_555 1_555
C5 C2 1_555 1_555
H4 C5 1_555 1_555
H5 C5 1_555 1_555
C6 C15 1_555 1_555
C7 C18 1_555 1_555
C8 C3 1_555 1_555
H6 C8 1_555 1_555
C9 C5 1_555 1_555
H7 C9 1_555 1_555
H8 C9 1_555 1_555
C10 C2 1_555 1_555
H9 C10 1_555 1_555
H10 C10 1_555 1_555
C11 N2 1_555 1_555
H11 C11 1_555 1_555
C12 C3 1_555 1_555
H12 C12 1_555 1_555
C13 N1 1_555 1_555
H13 C13 1_555 1_555
H14 C13 1_555 1_555
C14 C10 1_555 1_555
H15 C14 1_555 1_555
H16 C14 1_555 1_555
C15 C12 1_555 1_555
H17 C15 1_555 1_555
C16 C6 1_555 1_555
H18 C16 1_555 1_555
C17 C9 1_555 1_555
H19 C17 1_555 1_555
H20 C17 1_555 1_555
C18 C13 1_555 1_555
H21 C18 1_555 1_555
H22 C18 1_555 1_555
C19 C6 1_555 1_555
H23 C19 1_555 1_555
H24 C19 1_555 1_555
H25 C19 1_555 1_555
N3 C11 1_555 1_555
C1 C4 1_555 1_555
C8 C16 1_555 1_555
C14 C17 1_555 1_555

#END
