
#######################################################################
#
#                 Cambridge Crystallographic Data Centre
#                                CCDC 
#
#######################################################################
#
# If this CIF has been generated from an entry in the Cambridge 
# Structural Database, then it will include bibliographic, chemical, 
# crystal, experimental, refinement or atomic coordinate data resulting 
# from the CCDC's data processing and validation procedures.
#
#######################################################################

data_VOHJOS
_chemical_formula_moiety         'C19 H15 N1 O4'
_chemical_name_systematic        
'(Z)-ethyl 3-(1,3-dioxo-1,3-dihydro-2H-isoindol-2-yl)-3-phenylacrylate'
_symmetry_cell_setting           triclinic
_symmetry_space_group_name_H-M   'P -1'
_symmetry_Int_Tables_number      2
_space_group_name_Hall           '-P 1'
loop_
_symmetry_equiv_pos_site_id
_symmetry_equiv_pos_as_xyz
1 x,y,z
2 -x,-y,-z
_cell_length_a                   7.2589(4)
_cell_length_b                   8.0219(5)
_cell_length_c                   13.7297(8)
_cell_angle_alpha                82.478(1)
_cell_angle_beta                 89.572(1)
_cell_angle_gamma                78.912(1)
_cell_volume                     777.679
_exptl_crystal_colour            colorless
_exptl_crystal_description       plate
_cell_formula_units_Z            2
loop_
_atom_site_label
_atom_site_type_symbol
_atom_site_fract_x
_atom_site_fract_y
_atom_site_fract_z
O1 O 0.41836(12) 0.51468(9) 0.71790(6)
O2 O 0.30109(12) 0.04977(9) 0.92298(6)
O3 O 0.03511(11) 0.37798(10) 0.70603(6)
O4 O 0.00535(11) 0.25770(10) 0.56887(6)
N1 N 0.38144(12) 0.25464(10) 0.80392(6)
C1 C 0.41342(13) 0.15069(12) 0.72641(7)
C2 C 0.28688(14) 0.16898(13) 0.65321(7)
H1 H 0.3207 0.1047 0.6002
C3 C 0.09890(14) 0.28114(12) 0.64834(7)
C4 C -0.18786(15) 0.34968(14) 0.55522(8)
H2 H -0.1919 0.4664 0.5202
H3 H -0.2485 0.3595 0.6196
C5 C -0.28734(17) 0.24804(18) 0.49537(9)
H4 H -0.2244 0.2374 0.4325
H5 H -0.4181 0.3070 0.4833
H6 H -0.2843 0.1337 0.5314
C6 C 0.37675(13) 0.43271(12) 0.79198(7)
C7 C 0.31561(13) 0.48858(12) 0.88790(7)
C8 C 0.28415(13) 0.34709(12) 0.95119(7)
C9 C 0.32092(14) 0.19515(12) 0.89741(7)
C10 C 0.29146(14) 0.64965(12) 0.91748(7)
H7 H 0.3159 0.7457 0.8747
C11 C 0.22966(14) 0.66487(13) 1.01301(8)
H8 H 0.2081 0.7742 1.0351
C12 C 0.19888(14) 0.52277(13) 1.07668(7)
H9 H 0.1582 0.5368 1.1415
C13 C 0.22707(14) 0.35998(13) 1.04645(7)
H10 H 0.2077 0.2625 1.0897
C14 C 0.59378(14) 0.02834(12) 0.73083(7)
C15 C 0.75363(14) 0.06907(12) 0.77060(7)
H11 H 0.7437 0.1718 0.7993
C16 C 0.92710(15) -0.03993(13) 0.76835(8)
H12 H 1.0355 -0.0112 0.7950
C17 C 0.94154(15) -0.19123(14) 0.72702(8)
H13 H 1.0604 -0.2646 0.7242
C18 C 0.78274(16) -0.23504(14) 0.68999(8)
H14 H 0.7926 -0.3397 0.6632
C19 C 0.60919(15) -0.12650(13) 0.69196(8)
H15 H 0.5007 -0.1574 0.6669
loop_
_geom_bond_atom_site_label_1
_geom_bond_atom_site_label_2
_geom_bond_site_symmetry_1
_geom_bond_site_symmetry_2
O1 C6 1_555 1_555
O2 C9 1_555 1_555
O3 C3 1_555 1_555
O4 C3 1_555 1_555
N1 C1 1_555 1_555
C1 C2 1_555 1_555
C2 H1 1_555 1_555
C3 C2 1_555 1_555
C4 O4 1_555 1_555
H2 C4 1_555 1_555
H3 C4 1_555 1_555
C5 C4 1_555 1_555
H4 C5 1_555 1_555
H5 C5 1_555 1_555
H6 C5 1_555 1_555
C6 N1 1_555 1_555
C7 C6 1_555 1_555
C8 C7 1_555 1_555
C9 N1 1_555 1_555
C10 C7 1_555 1_555
H7 C10 1_555 1_555
C11 C10 1_555 1_555
H8 C11 1_555 1_555
C12 C11 1_555 1_555
H9 C12 1_555 1_555
C13 C8 1_555 1_555
H10 C13 1_555 1_555
C14 C1 1_555 1_555
C15 C14 1_555 1_555
H11 C15 1_555 1_555
C16 C15 1_555 1_555
H12 C16 1_555 1_555
C17 C16 1_555 1_555
H13 C17 1_555 1_555
C18 C17 1_555 1_555
H14 C18 1_555 1_555
C19 C14 1_555 1_555
H15 C19 1_555 1_555
C8 C9 1_555 1_555
C12 C13 1_555 1_555
C18 C19 1_555 1_555

#END
