
#######################################################################
#
#                 Cambridge Crystallographic Data Centre
#                                CCDC 
#
#######################################################################
#
# If this CIF has been generated from an entry in the Cambridge 
# Structural Database, then it will include bibliographic, chemical, 
# crystal, experimental, refinement or atomic coordinate data resulting 
# from the CCDC's data processing and validation procedures.
#
#######################################################################

data_VOHJIN
_chemical_formula_moiety         'C14 H21 N3 O5,0.5(C4 H8 O2)'
_chemical_name_systematic        
'4-((N-(t-butoxycarbonyl)-\b-alanyl)amino)-1-methyl-1H-pyrrole-2-carboxylic acid 1,4-dioxane solvate'
_symmetry_cell_setting           triclinic
_symmetry_space_group_name_H-M   'P -1'
_symmetry_Int_Tables_number      2
_space_group_name_Hall           '-P 1'
loop_
_symmetry_equiv_pos_site_id
_symmetry_equiv_pos_as_xyz
1 x,y,z
2 -x,-y,-z
_cell_length_a                   5.6994(4)
_cell_length_b                   12.1727(8)
_cell_length_c                   13.5102(9)
_cell_angle_alpha                73.506(3)
_cell_angle_beta                 88.323(4)
_cell_angle_gamma                89.037(4)
_cell_volume                     898.308
_exptl_crystal_colour            brown
_exptl_crystal_description       rod
_cell_formula_units_Z            2
loop_
_atom_site_label
_atom_site_type_symbol
_atom_site_fract_x
_atom_site_fract_y
_atom_site_fract_z
O1 O 1.33463(12) 0.11657(6) 0.46319(5)
O2 O 1.29562(13) -0.05026(6) 0.42516(5)
O3 O 0.34381(13) 0.23797(6) 0.14720(6)
O4 O 0.28666(12) 0.14444(6) -0.17532(5)
O5 O 0.39536(13) 0.33187(6) -0.21726(5)
N1 N 0.92237(14) 0.19906(7) 0.34280(6)
N2 N 0.19759(15) 0.25710(7) -0.07153(6)
N3 N 0.56625(14) 0.07598(7) 0.18791(6)
C1 C 1.02575(16) 0.09300(8) 0.35825(7)
C2 C 0.90386(16) 0.03349(8) 0.30338(7)
H1 H 0.9359 -0.0424 0.3004
C3 C 0.72415(16) 0.10608(8) 0.25291(7)
C4 C 0.73838(17) 0.20797(8) 0.27885(7)
H2 H 0.6375 0.2726 0.2560
C5 C 0.9879(2) 0.28878(9) 0.38779(9)
H3 H 1.1482 0.3136 0.3652
H4 H 0.9800 0.2594 0.4633
H5 H 0.8796 0.3540 0.3653
C6 C 1.23080(16) 0.05576(8) 0.42010(7)
C7 C 0.38648(16) 0.14172(8) 0.14008(7)
C8 C 0.23996(17) 0.08443(8) 0.07701(7)
H6 H 0.3457 0.0492 0.0349
H7 H 0.1468 0.0225 0.1244
C9 C 0.07542(16) 0.16825(8) 0.00637(7)
H8 H -0.0253 0.1257 -0.0282
H9 H -0.0280 0.2044 0.0485
C10 C 0.29425(16) 0.23634(8) -0.15591(7)
C11 C 0.54072(17) 0.32796(8) -0.30735(7)
C12 C 0.74254(19) 0.24391(11) -0.27485(9)
H10 H 0.8559 0.2536 -0.3326
H11 H 0.6824 0.1655 -0.2550
H12 H 0.8198 0.2583 -0.2159
C13 C 0.39340(19) 0.30041(10) -0.38853(8)
H13 H 0.4897 0.3072 -0.4513
H14 H 0.2606 0.3542 -0.4045
H15 H 0.3346 0.2220 -0.3624
C14 C 0.6307(2) 0.44958(10) -0.34519(9)
H16 H 0.7207 0.4669 -0.2908
H17 H 0.4976 0.5030 -0.3626
H18 H 0.7319 0.4576 -0.4067
H19 H 1.4175(17) -0.0685(14) 0.4599(11)
H20 H 0.586(2) 0.0069(5) 0.1806(10)
H21 H 0.225(2) 0.3236(6) -0.0607(11)
O6 O 0.21270(12) 0.48498(6) -0.05078(6)
C15 C 0.21142(17) 0.51041(9) 0.04639(8)
H22 H 0.2217 0.5943 0.0346
H23 H 0.3495 0.4740 0.0860
C16 C 0.00995(18) 0.53330(9) -0.10716(8)
H24 H 0.0110 0.5134 -0.1733
H25 H 0.0142 0.6178 -0.1231
O6A O -0.21270(12) 0.51502(6) 0.05078(6)
C15A C -0.21142(17) 0.48959(9) -0.04639(8)
H22A H -0.2217 0.4057 -0.0346
H23A H -0.3495 0.5260 -0.0860
C16A C -0.00995(18) 0.46670(9) 0.10716(8)
H24A H -0.0110 0.4866 0.1733
H25A H -0.0142 0.3822 0.1231
loop_
_geom_bond_atom_site_label_1
_geom_bond_atom_site_label_2
_geom_bond_site_symmetry_1
_geom_bond_site_symmetry_2
O1 C6 1_555 1_555
O2 C6 1_555 1_555
O3 C7 1_555 1_555
O4 C10 1_555 1_555
O5 C10 1_555 1_555
N1 C1 1_555 1_555
N2 C9 1_555 1_555
N3 C3 1_555 1_555
C1 C2 1_555 1_555
C2 H1 1_555 1_555
C3 C2 1_555 1_555
C4 N1 1_555 1_555
H2 C4 1_555 1_555
C5 N1 1_555 1_555
H3 C5 1_555 1_555
H4 C5 1_555 1_555
H5 C5 1_555 1_555
C6 C1 1_555 1_555
C7 N3 1_555 1_555
C8 C7 1_555 1_555
H6 C8 1_555 1_555
H7 C8 1_555 1_555
C9 C8 1_555 1_555
H8 C9 1_555 1_555
H9 C9 1_555 1_555
C10 N2 1_555 1_555
C11 O5 1_555 1_555
C12 C11 1_555 1_555
H10 C12 1_555 1_555
H11 C12 1_555 1_555
H12 C12 1_555 1_555
C13 C11 1_555 1_555
H13 C13 1_555 1_555
H14 C13 1_555 1_555
H15 C13 1_555 1_555
C14 C11 1_555 1_555
H16 C14 1_555 1_555
H17 C14 1_555 1_555
H18 C14 1_555 1_555
H19 O2 1_555 1_555
H20 N3 1_555 1_555
H21 N2 1_555 1_555
O6 C15 1_555 1_555
C15 H22 1_555 1_555
H23 C15 1_555 1_555
C16 O6 1_555 1_555
H24 C16 1_555 1_555
H25 C16 1_555 1_555
O6A C15A 1_555 1_555
C15A C16 1_555 1_555
H22A C15A 1_555 1_555
H23A C15A 1_555 1_555
C16A C15 1_555 1_555
H24A C16A 1_555 1_555
H25A C16A 1_555 1_555
C3 C4 1_555 1_555
O6A C16A 1_555 1_555

#END
