
#######################################################################
#
#                 Cambridge Crystallographic Data Centre
#                                CCDC 
#
#######################################################################
#
# If this CIF has been generated from an entry in the Cambridge 
# Structural Database, then it will include bibliographic, chemical, 
# crystal, experimental, refinement or atomic coordinate data resulting 
# from the CCDC's data processing and validation procedures.
#
#######################################################################

data_VOHKIO
_chemical_formula_moiety         'C15 H10 O6,C12 H12 N2 O2 S1,C2 H6 O1'
_chemical_name_systematic        
"2-(3,4-dihydroxyphenyl)-5,7-dihydroxy-4H-chromen-4-one 4,4'-sulfonyldianiline ethanol solvate"
_symmetry_cell_setting           monoclinic
_symmetry_space_group_name_H-M   'P 21/c'
_symmetry_Int_Tables_number      14
_space_group_name_Hall           '-P 2ybc'
loop_
_symmetry_equiv_pos_site_id
_symmetry_equiv_pos_as_xyz
1 x,y,z
2 -x,1/2+y,1/2-z
3 -x,-y,-z
4 x,1/2-y,1/2+z
_cell_length_a                   22.293(2)
_cell_length_b                   7.7975(7)
_cell_length_c                   16.0553(14)
_cell_angle_alpha                90
_cell_angle_beta                 91.814(5)
_cell_angle_gamma                90
_cell_volume                     2789.49
_cell_formula_units_Z            4
loop_
_atom_site_label
_atom_site_type_symbol
_atom_site_fract_x
_atom_site_fract_y
_atom_site_fract_z
O1 O 0.99220(11) 0.2240(3) 0.48197(15)
O2 O 0.97795(11) 0.4401(4) 0.71117(17)
O3 O 0.76068(11) -0.1097(4) 0.32464(17)
H1 H 0.7740 -0.1387 0.2797
C1 C 0.83379(18) 0.1148(5) 0.4971(3)
H2 H 0.8241 0.1547 0.5496
C2 C 0.93856(15) 0.2201(4) 0.5210(2)
C3 C 0.93369(17) 0.2871(5) 0.5978(2)
H3 H 0.8970 0.2801 0.6236
C4 C 0.98286(16) 0.3684(5) 0.6408(2)
C5 C 0.86113(16) 0.0031(5) 0.3397(2)
O4 O 1.09123(12) 0.5152(4) 0.71037(16)
H4 H 1.0578 0.5046 0.7297
C6 C 0.80397(16) -0.0258(5) 0.3699(2)
C7 C 0.79066(18) 0.0337(5) 0.4483(3)
H5 H 0.7523 0.0187 0.4682
C8 C 0.89195(16) 0.1384(5) 0.4692(2)
C9 C 1.04189(16) 0.2993(4) 0.5190(2)
C10 C 1.09270(17) 0.3020(5) 0.4737(2)
H6 H 1.0931 0.2546 0.4206
C11 C 1.14361(17) 0.3771(5) 0.5091(2)
O5 O 1.19299(11) 0.3823(4) 0.46288(17)
H7 H 1.2204 0.4287 0.4896
C12 C 1.14310(17) 0.4481(5) 0.5890(2)
H8 H 1.1777 0.4977 0.6124
C13 C 1.09134(17) 0.4440(5) 0.6327(2)
C14 C 1.03862(16) 0.3700(4) 0.5986(2)
C15 C 0.90409(16) 0.0817(5) 0.3888(2)
H9 H 0.9422 0.0979 0.3684
O6 O 0.87052(12) -0.0517(4) 0.26029(16)
H10 H 0.9052 -0.0310 0.2482
S1 S 0.61280(5) 0.12941(14) 0.14266(7)
N1 N 0.79781(19) 0.6650(6) 0.1951(3)
C16 C 0.75597(16) 0.5347(5) 0.1797(2)
C17 C 0.70152(18) 0.5734(5) 0.1387(2)
H11 H 0.6943 0.6842 0.1193
C18 C 0.65859(17) 0.4495(5) 0.1267(2)
H12 H 0.6221 0.4765 0.1001
C19 C 0.66950(16) 0.2843(5) 0.1543(2)
C20 C 0.57248(16) 0.1413(4) 0.2338(2)
C21 C 0.59706(17) 0.0836(5) 0.3084(3)
H13 H 0.6349 0.0335 0.3103
C22 C 0.56523(18) 0.1004(5) 0.3805(3)
H14 H 0.5818 0.0619 0.4310
C23 C 0.50836(18) 0.1748(5) 0.3775(3)
N2 N 0.47620(16) 0.1940(5) 0.4493(2)
H15 H 0.4408 0.2378 0.4467
H16 H 0.4916 0.1621 0.4966
C24 C 0.76615(17) 0.3679(5) 0.2073(2)
H17 H 0.8021 0.3404 0.2350
C25 C 0.72329(18) 0.2433(5) 0.1938(2)
H18 H 0.7306 0.1314 0.2114
O7 O 0.57324(14) 0.1786(5) 0.07334(17)
C26 C 0.48412(18) 0.2253(5) 0.3020(3)
H19 H 0.4454 0.2697 0.2991
C27 C 0.51558(18) 0.2117(5) 0.2311(3)
H20 H 0.4987 0.2498 0.1807
O8 O 0.64135(15) -0.0355(4) 0.1395(2)
H21 H 0.7963(17) 0.751(5) 0.153(3)
H22 H 0.8318(19) 0.635(6) 0.215(3)
C28 C 0.3242(3) 0.5062(12) 0.5962(5)
H23 H 0.2983 0.5174 0.6434
H24 H 0.3345 0.6216 0.5792
O9 O 0.2932(2) 0.4414(12) 0.5378(5)
H25 H 0.3134 0.4349 0.4961
C29 C 0.3765(3) 0.4293(11) 0.6253(5)
H26 H 0.3797 0.3170 0.6014
H27 H 0.3760 0.4200 0.6849
H28 H 0.4103 0.4974 0.6098
loop_
_geom_bond_atom_site_label_1
_geom_bond_atom_site_label_2
_geom_bond_site_symmetry_1
_geom_bond_site_symmetry_2
O1 C2 1_555 1_555
O2 C4 1_555 1_555
O3 H1 1_555 1_555
C1 H2 1_555 1_555
C2 C3 1_555 1_555
C3 H3 1_555 1_555
C4 C3 1_555 1_555
C5 C6 1_555 1_555
O4 H4 1_555 1_555
C6 O3 1_555 1_555
C7 C1 1_555 1_555
H5 C7 1_555 1_555
C8 C1 1_555 1_555
C9 O1 1_555 1_555
C10 C9 1_555 1_555
H6 C10 1_555 1_555
C11 C10 1_555 1_555
O5 C11 1_555 1_555
H7 O5 1_555 1_555
C12 C11 1_555 1_555
H8 C12 1_555 1_555
C13 O4 1_555 1_555
C14 C4 1_555 1_555
C15 C5 1_555 1_555
H9 C15 1_555 1_555
O6 C5 1_555 1_555
H10 O6 1_555 1_555
S1 C19 1_555 1_555
N1 C16 1_555 1_555
C16 C17 1_555 1_555
C17 H11 1_555 1_555
C18 C17 1_555 1_555
H12 C18 1_555 1_555
C19 C18 1_555 1_555
C20 S1 1_555 1_555
C21 C20 1_555 1_555
H13 C21 1_555 1_555
C22 C21 1_555 1_555
H14 C22 1_555 1_555
C23 C22 1_555 1_555
N2 C23 1_555 1_555
H15 N2 1_555 1_555
H16 N2 1_555 1_555
C24 C16 1_555 1_555
H17 C24 1_555 1_555
C25 C19 1_555 1_555
H18 C25 1_555 1_555
O7 S1 1_555 1_555
C26 C23 1_555 1_555
H19 C26 1_555 1_555
C27 C20 1_555 1_555
H20 C27 1_555 1_555
O8 S1 1_555 1_555
H21 N1 1_555 1_555
H22 N1 1_555 1_555
C28 H23 1_555 1_555
H24 C28 1_555 1_555
O9 C28 1_555 1_555
H25 O9 1_555 1_555
C29 C28 1_555 1_555
H26 C29 1_555 1_555
H27 C29 1_555 1_555
H28 C29 1_555 1_555
C2 C8 1_555 1_555
C6 C7 1_555 1_555
C8 C15 1_555 1_555
C9 C14 1_555 1_555
C12 C13 1_555 1_555
C13 C14 1_555 1_555
C24 C25 1_555 1_555
C26 C27 1_555 1_555

#END
