
#######################################################################
#
#                 Cambridge Crystallographic Data Centre
#                                CCDC 
#
#######################################################################
#
# If this CIF has been generated from an entry in the Cambridge 
# Structural Database, then it will include bibliographic, chemical, 
# crystal, experimental, refinement or atomic coordinate data resulting 
# from the CCDC's data processing and validation procedures.
#
#######################################################################

data_VOHKAF
_chemical_formula_moiety         'C16 H17 N1 O4'
_chemical_name_systematic        
'(Z)-ethyl 2-(1,3-dioxo-1,3-dihydro-2H-isoindol-2-yl)-2-hexenoate'
_symmetry_cell_setting           monoclinic
_symmetry_space_group_name_H-M   'C 2/c'
_symmetry_Int_Tables_number      15
_space_group_name_Hall           '-C 2yn'
loop_
_symmetry_equiv_pos_site_id
_symmetry_equiv_pos_as_xyz
1 x,y,z
2 1/2+x,1/2+y,z
3 -x,y,1/2-z
4 1/2-x,1/2+y,1/2-z
5 -x,-y,-z
6 1/2-x,1/2-y,-z
7 x,-y,1/2+z
8 1/2+x,1/2-y,1/2+z
_cell_length_a                   24.1585(17)
_cell_length_b                   9.1995(7)
_cell_length_c                   15.4967(11)
_cell_angle_alpha                90
_cell_angle_beta                 120.190(2)
_cell_angle_gamma                90
_cell_volume                     2976.94
_exptl_crystal_colour            colorless
_exptl_crystal_description       lath
_cell_formula_units_Z            8
loop_
_atom_site_label
_atom_site_type_symbol
_atom_site_fract_x
_atom_site_fract_y
_atom_site_fract_z
O1 O 0.16085(4) 0.68562(9) 0.58771(6)
O2 O 0.08279(4) 0.40128(9) 0.30762(6)
O3 O 0.13635(4) 0.89485(8) 0.31765(6)
O4 O 0.06794(4) 0.82662(10) 0.36845(7)
N1 N 0.12983(4) 0.56560(9) 0.43890(6)
C1 C 0.13200(5) 0.58831(11) 0.53054(7)
C2 C 0.09356(4) 0.46843(10) 0.53866(7)
C3 C 0.07965(5) 0.43870(12) 0.61330(7)
H1 H 0.0942(7) 0.4992(16) 0.6689(11)
C4 C 0.04105(5) 0.31804(12) 0.59960(8)
H2 H 0.0292(8) 0.2948(18) 0.6498(12)
C5 C 0.01781(5) 0.23109(12) 0.51486(8)
H3 H -0.0098(8) 0.1522(18) 0.5063(12)
C6 C 0.03231(5) 0.26172(12) 0.43996(8)
H4 H 0.0158(7) 0.2018(16) 0.3789(11)
C7 C 0.07021(5) 0.38194(10) 0.45384(7)
C8 C 0.09264(5) 0.44369(11) 0.38801(7)
C9 C 0.15366(5) 0.66842(11) 0.39688(7)
C10 C 0.11419(5) 0.80366(11) 0.36014(7)
C11 C 0.10003(6) 1.02815(13) 0.27784(10)
H5 H 0.1053(8) 1.088(2) 0.3346(13)
H6 H 0.0536(8) 1.0043(19) 0.2359(12)
C12 C 0.12654(6) 1.10189(14) 0.22000(10)
H7 H 0.1731(9) 1.120(2) 0.2648(14)
H8 H 0.1049(8) 1.1976(19) 0.1955(12)
H9 H 0.1210(9) 1.038(2) 0.1607(15)
C13 C 0.20605(5) 0.64538(11) 0.39069(7)
H10 H 0.2200(7) 0.7207(16) 0.3633(11)
C14 C 0.24735(5) 0.51297(12) 0.42469(8)
H11 H 0.2322(7) 0.4409(17) 0.4626(11)
H12 H 0.2930(8) 0.5467(19) 0.4675(13)
C15 C 0.24389(6) 0.42960(14) 0.33697(9)
H13 H 0.1981(9) 0.398(2) 0.2914(14)
H14 H 0.2541(8) 0.501(2) 0.2956(13)
C16 C 0.29008(7) 0.30197(15) 0.37075(11)
H15 H 0.3340(9) 0.340(2) 0.4104(14)
H16 H 0.2877(10) 0.246(2) 0.3118(16)
H17 H 0.2806(9) 0.232(2) 0.4115(15)
loop_
_geom_bond_atom_site_label_1
_geom_bond_atom_site_label_2
_geom_bond_site_symmetry_1
_geom_bond_site_symmetry_2
O1 C1 1_555 1_555
O2 C8 1_555 1_555
O3 C10 1_555 1_555
O4 C10 1_555 1_555
N1 C1 1_555 1_555
C1 C2 1_555 1_555
C2 C3 1_555 1_555
C3 H1 1_555 1_555
C4 C3 1_555 1_555
H2 C4 1_555 1_555
C5 C4 1_555 1_555
H3 C5 1_555 1_555
C6 C5 1_555 1_555
H4 C6 1_555 1_555
C7 C2 1_555 1_555
C8 N1 1_555 1_555
C9 N1 1_555 1_555
C10 C9 1_555 1_555
C11 O3 1_555 1_555
H5 C11 1_555 1_555
H6 C11 1_555 1_555
C12 C11 1_555 1_555
H7 C12 1_555 1_555
H8 C12 1_555 1_555
H9 C12 1_555 1_555
C13 C9 1_555 1_555
H10 C13 1_555 1_555
C14 C13 1_555 1_555
H11 C14 1_555 1_555
H12 C14 1_555 1_555
C15 C14 1_555 1_555
H13 C15 1_555 1_555
H14 C15 1_555 1_555
C16 C15 1_555 1_555
H15 C16 1_555 1_555
H16 C16 1_555 1_555
H17 C16 1_555 1_555
C6 C7 1_555 1_555
C7 C8 1_555 1_555

#END
