
#######################################################################
#
#                 Cambridge Crystallographic Data Centre
#                                CCDC 
#
#######################################################################
#
# If this CIF has been generated from an entry in the Cambridge 
# Structural Database, then it will include bibliographic, chemical, 
# crystal, experimental, refinement or atomic coordinate data resulting 
# from the CCDC's data processing and validation procedures.
#
#######################################################################

data_VOHQUG
_chemical_formula_moiety         'C17 H24 N4 O3 Si1'
_chemical_name_systematic        
1-(3-(4-phenyl-1H-1,2,3-triazol-1-yl)propyl)-2,8,9-trioxa-5-aza-1-silabicyclo[3.3.3]undecane
_symmetry_cell_setting           monoclinic
_symmetry_space_group_name_H-M   'P 21/c'
_symmetry_Int_Tables_number      14
_space_group_name_Hall           '-P 2ybc'
loop_
_symmetry_equiv_pos_site_id
_symmetry_equiv_pos_as_xyz
1 x,y,z
2 -x,1/2+y,1/2-z
3 -x,-y,-z
4 x,1/2-y,1/2+z
_cell_length_a                   11.151(5)
_cell_length_b                   18.583(3)
_cell_length_c                   8.759(5)
_cell_angle_alpha                90
_cell_angle_beta                 101.395(5)
_cell_angle_gamma                90
_cell_volume                     1779.25
_exptl_crystal_colour            colorless
_cell_formula_units_Z            4
loop_
_atom_site_label
_atom_site_type_symbol
_atom_site_fract_x
_atom_site_fract_y
_atom_site_fract_z
C1 C 1.0540(3) -0.20190(15) 0.6762(4)
H1 H 1.0933 -0.2460 0.6759
C2 C 1.0659(3) -0.16215(15) 0.8128(4)
H2 H 1.1129 -0.1800 0.9046
C3 C 1.0085(2) -0.09622(14) 0.8133(3)
H3 H 1.0166 -0.0703 0.9056
C4 C 0.9383(2) -0.06833(13) 0.6760(3)
C5 C 0.9249(3) -0.10916(14) 0.5398(3)
H4 H 0.8767 -0.0920 0.4481
C6 C 0.9828(3) -0.17505(15) 0.5406(4)
H5 H 0.9739 -0.2016 0.4490
C7 C 0.8832(2) 0.00380(13) 0.6746(3)
C8 C 0.7886(2) 0.03507(14) 0.5711(3)
H6 H 0.7407 0.0141 0.4833
C9 C 0.6953(2) 0.16028(15) 0.5619(3)
H7 H 0.6542 0.1479 0.4570
H8 H 0.7414 0.2041 0.5562
C10 C 0.6004(2) 0.17381(14) 0.6606(4)
H9 H 0.5541 0.2165 0.6218
H10 H 0.6422 0.1837 0.7665
C11 C 0.5112(3) 0.11174(14) 0.6633(3)
H11 H 0.5579 0.0674 0.6782
H12 H 0.4576 0.1091 0.5618
C12 C 0.5126(3) 0.11671(16) 1.1233(3)
H13 H 0.5730 0.1469 1.1883
H14 H 0.5240 0.0677 1.1613
C13 C 0.3846(3) 0.14241(16) 1.1327(3)
H15 H 0.3603 0.1235 1.2253
H16 H 0.3818 0.1945 1.1362
C14 C 0.2553(2) 0.22341(14) 0.8442(3)
H17 H 0.1906 0.2489 0.7748
H18 H 0.2993 0.2576 0.9184
C15 C 0.2014(2) 0.16419(15) 0.9292(4)
H19 H 0.1664 0.1842 1.0129
H20 H 0.1377 0.1387 0.8581
C16 C 0.2510(2) 0.00876(15) 0.8385(4)
H21 H 0.2572 -0.0433 0.8431
H22 H 0.1708 0.0214 0.7795
C17 C 0.2677(3) 0.03942(14) 1.0024(4)
H23 H 0.1920 0.0359 1.0407
H24 H 0.3309 0.0133 1.0727
N1 N 0.9270(2) 0.05346(12) 0.7861(3)
N2 N 0.8637(2) 0.11352(12) 0.7552(3)
N3 N 0.7803(2) 0.10221(12) 0.6241(3)
N4 N 0.3033(2) 0.11533(11) 0.9918(3)
O1 O 0.34309(17) 0.03733(9) 0.7644(2)
O2 O 0.33667(17) 0.19125(10) 0.7572(2)
O3 O 0.52830(17) 0.11983(11) 0.9689(2)
Si1 Si 0.41320(6) 0.11581(3) 0.81515(8)
loop_
_geom_bond_atom_site_label_1
_geom_bond_atom_site_label_2
_geom_bond_site_symmetry_1
_geom_bond_site_symmetry_2
C1 H1 1_555 1_555
C2 C1 1_555 1_555
H2 C2 1_555 1_555
C3 C2 1_555 1_555
H3 C3 1_555 1_555
C4 C3 1_555 1_555
C5 C4 1_555 1_555
H4 C5 1_555 1_555
C6 C1 1_555 1_555
H5 C6 1_555 1_555
C7 C4 1_555 1_555
C8 C7 1_555 1_555
H6 C8 1_555 1_555
C9 H7 1_555 1_555
H8 C9 1_555 1_555
C10 C9 1_555 1_555
H9 C10 1_555 1_555
H10 C10 1_555 1_555
C11 C10 1_555 1_555
H11 C11 1_555 1_555
H12 C11 1_555 1_555
C12 H13 1_555 1_555
H14 C12 1_555 1_555
C13 C12 1_555 1_555
H15 C13 1_555 1_555
H16 C13 1_555 1_555
C14 H17 1_555 1_555
H18 C14 1_555 1_555
C15 C14 1_555 1_555
H19 C15 1_555 1_555
H20 C15 1_555 1_555
C16 H21 1_555 1_555
H22 C16 1_555 1_555
C17 C16 1_555 1_555
H23 C17 1_555 1_555
H24 C17 1_555 1_555
N1 C7 1_555 1_555
N2 N1 1_555 1_555
N3 C8 1_555 1_555
N4 C13 1_555 1_555
O1 C16 1_555 1_555
O2 C14 1_555 1_555
O3 C12 1_555 1_555
Si1 C11 1_555 1_555
C5 C6 1_555 1_555
C9 N3 1_555 1_555
C15 N4 1_555 1_555
C17 N4 1_555 1_555
N2 N3 1_555 1_555
N4 Si1 1_555 1_555
O1 Si1 1_555 1_555
O2 Si1 1_555 1_555
O3 Si1 1_555 1_555

#END
