
#######################################################################
#
#                 Cambridge Crystallographic Data Centre
#                                CCDC 
#
#######################################################################
#
# If this CIF has been generated from an entry in the Cambridge 
# Structural Database, then it will include bibliographic, chemical, 
# crystal, experimental, refinement or atomic coordinate data resulting 
# from the CCDC's data processing and validation procedures.
#
#######################################################################

data_VOHQOA
_chemical_formula_moiety         'C20 H25 N5 O5 Si1'
_chemical_name_systematic        
2-((1-(3-(2,8,9-trioxa-5-aza-1-silabicyclo[3.3.3]undec-1-yl)propyl)-1H-1,2,3-triazol-4-yl)methyl)-1H-isoindole-1,3(2H)-dione
_symmetry_cell_setting           orthorhombic
_symmetry_space_group_name_H-M   'P b c a'
_symmetry_Int_Tables_number      61
_space_group_name_Hall           '-P 2ac 2ab'
loop_
_symmetry_equiv_pos_site_id
_symmetry_equiv_pos_as_xyz
1 x,y,z
2 1/2-x,-y,1/2+z
3 1/2+x,1/2-y,-z
4 -x,1/2+y,1/2-z
5 -x,-y,-z
6 1/2+x,y,1/2-z
7 1/2-x,1/2+y,z
8 x,1/2-y,1/2+z
_cell_length_a                   22.8796(5)
_cell_length_b                   7.19450(10)
_cell_length_c                   25.1019(18)
_cell_angle_alpha                90
_cell_angle_beta                 90
_cell_angle_gamma                90
_cell_volume                     4131.96
_exptl_crystal_colour            colorless
_exptl_crystal_description       chunk
_cell_formula_units_Z            8
loop_
_atom_site_label
_atom_site_type_symbol
_atom_site_fract_x
_atom_site_fract_y
_atom_site_fract_z
C1 C 0.77420(9) 1.7331(3) 0.94584(9)
H1 H 0.8002 1.7103 0.9181
C2 C 0.79326(9) 1.7951(3) 0.99552(9)
H2 H 0.8330 1.8127 1.0012
C3 C 0.75439(9) 1.8313(3) 1.03679(9)
H3 H 0.7685 1.8760 1.0691
C4 C 0.69453(9) 1.8015(3) 1.03046(8)
H4 H 0.6683 1.8239 1.0580
C5 C 0.67588(8) 1.7375(3) 0.98156(8)
C6 C 0.71491(8) 1.7072(3) 0.93983(8)
C7 C 0.68159(8) 1.6323(3) 0.89364(8)
C8 C 0.61723(8) 1.6759(3) 0.96374(8)
C9 C 0.57660(8) 1.5388(3) 0.87950(8)
H5 H 0.5886 1.5360 0.8425
H6 H 0.5433 1.6216 0.8823
C10 C 0.55823(8) 1.3476(3) 0.89588(8)
C11 C 0.50522(9) 1.2856(3) 0.91322(8)
H7 H 0.4715 1.3555 0.9185
C12 C 0.46744(8) 0.9612(3) 0.93205(8)
H8 H 0.4374 1.0135 0.9549
H9 H 0.4851 0.8570 0.9506
C13 C 0.44008(9) 0.8944(3) 0.88004(8)
H10 H 0.4709 0.8555 0.8560
H11 H 0.4196 0.9972 0.8635
C14 C 0.39731(9) 0.7326(3) 0.88784(8)
H12 H 0.3605 0.7816 0.9009
H13 H 0.4128 0.6500 0.9149
C15 C 0.47004(10) 0.4102(3) 0.77430(10)
H14 H 0.4711 0.2882 0.7907
H15 H 0.5088 0.4385 0.7609
C16 C 0.42614(10) 0.4120(3) 0.72897(9)
H16 H 0.4334 0.5166 0.7055
H17 H 0.4288 0.2982 0.7084
C17 C 0.34008(10) 0.7397(3) 0.73435(9)
H18 H 0.3744 0.7789 0.7146
H19 H 0.3075 0.8177 0.7238
C18 C 0.32652(10) 0.5386(3) 0.72206(9)
H20 H 0.2866 0.5090 0.7318
H21 H 0.3317 0.5136 0.6844
C19 C 0.30977(13) 0.2972(4) 0.82321(10)
H22 H 0.2720 0.3484 0.8135
H23 H 0.3033 0.1854 0.8440
C20 C 0.34418(12) 0.2511(3) 0.77357(10)
H24 H 0.3756 0.1652 0.7818
H25 H 0.3190 0.1947 0.7470
N1 N 0.62427(7) 1.6131(2) 0.91155(7)
N2 N 0.59514(7) 1.1999(2) 0.89332(8)
N3 N 0.56680(7) 1.0494(3) 0.90861(8)
N4 N 0.51198(7) 1.1023(2) 0.92096(7)
N5 N 0.36792(8) 0.4283(2) 0.75388(7)
O1 O 0.69875(7) 1.5940(2) 0.84930(6)
O2 O 0.57150(6) 1.6720(2) 0.98812(6)
O3 O 0.45286(6) 0.5455(2) 0.81222(6)
O4 O 0.35034(6) 0.7589(2) 0.79001(6)
O5 O 0.34193(8) 0.4292(2) 0.85382(6)
Si1 Si 0.38277(2) 0.59362(8) 0.82562(2)
loop_
_geom_bond_atom_site_label_1
_geom_bond_atom_site_label_2
_geom_bond_site_symmetry_1
_geom_bond_site_symmetry_2
C1 H1 1_555 1_555
C2 C1 1_555 1_555
H2 C2 1_555 1_555
C3 C2 1_555 1_555
H3 C3 1_555 1_555
C4 C3 1_555 1_555
H4 C4 1_555 1_555
C5 C4 1_555 1_555
C6 C1 1_555 1_555
C7 C6 1_555 1_555
C8 C5 1_555 1_555
C9 H5 1_555 1_555
H6 C9 1_555 1_555
C10 C9 1_555 1_555
C11 C10 1_555 1_555
H7 C11 1_555 1_555
C12 H8 1_555 1_555
H9 C12 1_555 1_555
C13 C12 1_555 1_555
H10 C13 1_555 1_555
H11 C13 1_555 1_555
C14 C13 1_555 1_555
H12 C14 1_555 1_555
H13 C14 1_555 1_555
C15 H14 1_555 1_555
H15 C15 1_555 1_555
C16 C15 1_555 1_555
H16 C16 1_555 1_555
H17 C16 1_555 1_555
C17 H18 1_555 1_555
H19 C17 1_555 1_555
C18 C17 1_555 1_555
H20 C18 1_555 1_555
H21 C18 1_555 1_555
C19 H22 1_555 1_555
H23 C19 1_555 1_555
C20 C19 1_555 1_555
H24 C20 1_555 1_555
H25 C20 1_555 1_555
N1 C7 1_555 1_555
N2 C10 1_555 1_555
N3 N2 1_555 1_555
N4 C11 1_555 1_555
N5 C16 1_555 1_555
O1 C7 1_555 1_555
O2 C8 1_555 1_555
O3 C15 1_555 1_555
O4 C17 1_555 1_555
O5 C19 1_555 1_555
Si1 C14 1_555 1_555
C5 C6 1_555 1_555
C8 N1 1_555 1_555
C9 N1 1_555 1_555
C12 N4 1_555 1_555
C18 N5 1_555 1_555
C20 N5 1_555 1_555
N3 N4 1_555 1_555
N5 Si1 1_555 1_555
O3 Si1 1_555 1_555
O4 Si1 1_555 1_555
O5 Si1 1_555 1_555

#END
