
#######################################################################
#
#                 Cambridge Crystallographic Data Centre
#                                CCDC 
#
#######################################################################
#
# If this CIF has been generated from an entry in the Cambridge 
# Structural Database, then it will include bibliographic, chemical, 
# crystal, experimental, refinement or atomic coordinate data resulting 
# from the CCDC's data processing and validation procedures.
#
#######################################################################

data_VOHTUJ
_chemical_formula_moiety         'C24 H16 Br1 N3 O4'
_chemical_name_systematic        
'methyl 8-(4-bromophenyl)-9,9-dicyano-1,3-dioxo-2-phenyl-2-azaspiro[4.4]non-7-ene-7-carboxylate'
_symmetry_cell_setting           monoclinic
_symmetry_space_group_name_H-M   'P 21/c'
_symmetry_Int_Tables_number      14
_space_group_name_Hall           '-P 2ybc'
loop_
_symmetry_equiv_pos_site_id
_symmetry_equiv_pos_as_xyz
1 x,y,z
2 -x,1/2+y,1/2-z
3 -x,-y,-z
4 x,1/2-y,1/2+z
_cell_length_a                   12.4868(9)
_cell_length_b                   11.6831(9)
_cell_length_c                   14.4806(11)
_cell_angle_alpha                90
_cell_angle_beta                 94.481(2)
_cell_angle_gamma                90
_cell_volume                     2106.04
_exptl_crystal_colour            colorless
_exptl_crystal_description       prismatic
_cell_formula_units_Z            4
loop_
_atom_site_label
_atom_site_type_symbol
_atom_site_fract_x
_atom_site_fract_y
_atom_site_fract_z
Br1 Br 0.10808(2) 0.25353(3) 1.01186(2)
N1 N 0.71938(14) 0.31043(16) 0.66573(12)
N2 N 0.56994(18) 0.1746(2) 0.82803(14)
N3 N 0.39640(19) 0.03099(19) 0.58436(15)
O1 O 0.59286(12) 0.44621(13) 0.69709(11)
O2 O 0.80431(15) 0.15825(16) 0.60129(14)
O3 O 0.30025(14) 0.51866(15) 0.50272(11)
O4 O 0.22985(13) 0.49612(14) 0.63835(11)
C1 C 0.61716(17) 0.35928(18) 0.66019(14)
C2 C 0.72559(19) 0.2163(2) 0.60698(17)
C3 C 0.61941(18) 0.2034(2) 0.55333(16)
H1 H 0.5958 0.1243 0.5539
H2 H 0.6240 0.2271 0.4896
C4 C 0.54165(17) 0.28006(18) 0.60113(14)
C5 C 0.45964(17) 0.3487(2) 0.53940(15)
H3 H 0.4914 0.4184 0.5173
H4 H 0.4316 0.3038 0.4866
C6 C 0.37273(17) 0.37535(18) 0.60298(14)
C7 C 0.37374(16) 0.30449(18) 0.67498(14)
C8 C 0.46651(17) 0.21753(18) 0.66780(15)
C9 C 0.52309(18) 0.19029(19) 0.75897(15)
C10 C 0.42569(18) 0.1105(2) 0.62376(15)
C11 C 0.29768(17) 0.47021(19) 0.57523(15)
C12 C 0.1583(2) 0.5912(3) 0.6153(2)
H5 H 0.1985 0.6537 0.5925
H6 H 0.1250 0.6150 0.6697
H7 H 0.1040 0.5677 0.5686
C13 C 0.30659(16) 0.29465(19) 0.75434(14)
C14 C 0.2509(2) 0.1944(2) 0.76863(18)
H8 H 0.2536 0.1346 0.7264
C15 C 0.1912(2) 0.1818(2) 0.84484(19)
H9 H 0.1531 0.1147 0.8534
C16 C 0.18936(19) 0.2693(2) 0.90693(16)
C17 C 0.24464(19) 0.3690(2) 0.89561(16)
H10 H 0.2429 0.4277 0.9389
C18 C 0.30313(19) 0.3811(2) 0.81891(16)
H11 H 0.3407 0.4486 0.8107
C19 C 0.80817(17) 0.35602(19) 0.72291(16)
C20 C 0.79237(19) 0.3883(2) 0.81274(17)
H12 H 0.7257 0.3785 0.8361
C21 C 0.8766(2) 0.4353(2) 0.8673(2)
H13 H 0.8664 0.4586 0.9274
C22 C 0.9758(2) 0.4477(3) 0.8330(3)
H14 H 1.0320 0.4810 0.8695
C23 C 0.9917(2) 0.4112(3) 0.7458(3)
H15 H 1.0597 0.4167 0.7241
C24 C 0.90791(19) 0.3663(2) 0.6893(2)
H16 H 0.9187 0.3433 0.6292
loop_
_geom_bond_atom_site_label_1
_geom_bond_atom_site_label_2
_geom_bond_site_symmetry_1
_geom_bond_site_symmetry_2
Br1 C16 1_555 1_555
N1 C1 1_555 1_555
N2 C9 1_555 1_555
N3 C10 1_555 1_555
O1 C1 1_555 1_555
O2 C2 1_555 1_555
O3 C11 1_555 1_555
O4 C11 1_555 1_555
C1 C4 1_555 1_555
C2 N1 1_555 1_555
C3 C2 1_555 1_555
H1 C3 1_555 1_555
H2 C3 1_555 1_555
C4 C3 1_555 1_555
C5 C4 1_555 1_555
H3 C5 1_555 1_555
H4 C5 1_555 1_555
C6 C5 1_555 1_555
C7 C6 1_555 1_555
C8 C4 1_555 1_555
C9 C8 1_555 1_555
C10 C8 1_555 1_555
C11 C6 1_555 1_555
C12 O4 1_555 1_555
H5 C12 1_555 1_555
H6 C12 1_555 1_555
H7 C12 1_555 1_555
C13 C7 1_555 1_555
C14 C13 1_555 1_555
H8 C14 1_555 1_555
C15 C14 1_555 1_555
H9 C15 1_555 1_555
C16 C15 1_555 1_555
C17 C16 1_555 1_555
H10 C17 1_555 1_555
C18 C13 1_555 1_555
H11 C18 1_555 1_555
C19 N1 1_555 1_555
C20 C19 1_555 1_555
H12 C20 1_555 1_555
C21 C20 1_555 1_555
H13 C21 1_555 1_555
C22 C21 1_555 1_555
H14 C22 1_555 1_555
C23 C22 1_555 1_555
H15 C23 1_555 1_555
C24 C19 1_555 1_555
H16 C24 1_555 1_555
C7 C8 1_555 1_555
C17 C18 1_555 1_555
C23 C24 1_555 1_555

#END
