
#######################################################################
#
#                 Cambridge Crystallographic Data Centre
#                                CCDC 
#
#######################################################################
#
# If this CIF has been generated from an entry in the Cambridge 
# Structural Database, then it will include bibliographic, chemical, 
# crystal, experimental, refinement or atomic coordinate data resulting 
# from the CCDC's data processing and validation procedures.
#
#######################################################################

data_VOHWIZ
_chemical_formula_moiety         'C11 H9 N3 O4 S1,H2 O1'
_chemical_name_systematic        
'2-Nitro-N-(4-pyridinio)benzenesulfonamidate monohydrate'
_symmetry_cell_setting           monoclinic
_symmetry_space_group_name_H-M   'P 21'
_symmetry_Int_Tables_number      4
_space_group_name_Hall           'P 2yb'
loop_
_symmetry_equiv_pos_site_id
_symmetry_equiv_pos_as_xyz
1 x,y,z
2 -x,1/2+y,-z
_cell_length_a                   8.7206(17)
_cell_length_b                   11.972(2)
_cell_length_c                   12.743(3)
_cell_angle_alpha                90
_cell_angle_beta                 107.65(3)
_cell_angle_gamma                90
_cell_volume                     1267.78
_exptl_crystal_colour            colorless
_exptl_crystal_description       block
_cell_formula_units_Z            4
loop_
_atom_site_label
_atom_site_type_symbol
_atom_site_fract_x
_atom_site_fract_y
_atom_site_fract_z
S1 S 0.54299(7) 0.49945(5) 0.75574(5)
O1 O 0.36887(19) 0.49815(17) 0.72910(14)
O2 O 0.6116(2) 0.59540(15) 0.71745(16)
O3 O 0.4219(3) 0.29003(18) 0.87441(18)
O4 O 0.2777(2) 0.4008(2) 0.94108(18)
N1 N 1.0324(3) 0.2999(2) 0.67719(19)
N2 N 0.5920(2) 0.38299(18) 0.71702(19)
N3 N 0.4050(3) 0.3727(2) 0.9245(2)
C1 C 0.7414(3) 0.3615(2) 0.7078(2)
C2 C 0.7644(3) 0.2549(2) 0.6690(2)
H1 H 0.6813 0.2029 0.6537
C3 C 0.9100(3) 0.2265(2) 0.6532(2)
H2 H 0.9231 0.1563 0.6259
C4 C 1.0168(3) 0.4019(2) 0.7153(2)
H3 H 1.1030 0.4513 0.7304
C5 C 0.8752(3) 0.4350(2) 0.7325(2)
H4 H 0.8672 0.5058 0.7604
C6 C 0.6158(3) 0.5053(3) 0.9027(2)
C7 C 0.7441(3) 0.5753(2) 0.9531(2)
H5 H 0.7936 0.6156 0.9100
C8 C 0.7996(3) 0.5858(2) 1.0674(2)
H6 H 0.8857 0.6329 1.0999
C9 C 0.7271(3) 0.5264(3) 1.1326(2)
H7 H 0.7656 0.5325 1.2089
C10 C 0.5978(3) 0.4582(2) 1.0843(2)
H8 H 0.5469 0.4197 1.1277
C11 C 0.5441(3) 0.4472(2) 0.9712(2)
H9 H 1.127(3) 0.280(3) 0.665(3)
S2 S 1.01577(7) 0.25356(5) 0.35546(5)
O5 O 0.9524(2) 0.15286(15) 0.38857(15)
O6 O 1.1904(2) 0.26159(18) 0.38501(16)
O7 O 1.1373(3) 0.46983(18) 0.24125(19)
O8 O 1.2807(2) 0.3638(2) 0.16880(18)
N4 N 0.5077(3) 0.4240(2) 0.43389(18)
N5 N 0.9564(2) 0.36491(18) 0.39696(18)
N6 N 1.1564(3) 0.3888(2) 0.18846(19)
C12 C 0.8049(3) 0.3782(2) 0.4049(2)
C13 C 0.7734(3) 0.4806(2) 0.4510(2)
H10 H 0.8534 0.5347 0.4722
C14 C 0.6264(3) 0.4998(2) 0.4642(2)
H11 H 0.6078 0.5669 0.4949
C15 C 0.5302(3) 0.3265(2) 0.3884(2)
H12 H 0.4464 0.2752 0.3672
C16 C 0.6767(3) 0.3014(2) 0.3725(2)
H13 H 0.6905 0.2339 0.3405
C17 C 0.9459(3) 0.2526(2) 0.2084(2)
C18 C 0.8167(3) 0.1850(2) 0.1552(2)
H14 H 0.7672 0.1423 0.1967
C19 C 0.7603(3) 0.1799(2) 0.0417(2)
H15 H 0.6723 0.1349 0.0080
C20 C 0.8324(3) 0.2406(3) -0.0223(2)
H16 H 0.7933 0.2365 -0.0987
C21 C 0.9631(3) 0.3074(2) 0.0276(2)
H17 H 1.0141 0.3476 -0.0146
C22 C 1.0173(3) 0.3137(2) 0.1415(2)
H18 H 0.411(2) 0.441(2) 0.444(2)
O9 O 0.2408(2) 0.50194(18) 0.48520(16)
H19 H 0.260(3) 0.500(3) 0.5558(8)
H20 H 0.160(2) 0.460(2) 0.4517(18)
O10 O 0.6923(2) 0.74683(18) 0.37557(18)
H21 H 0.719(4) 0.751(4) 0.4468(8)
H22 H 0.601(2) 0.780(3) 0.346(2)
loop_
_geom_bond_atom_site_label_1
_geom_bond_atom_site_label_2
_geom_bond_site_symmetry_1
_geom_bond_site_symmetry_2
S1 O1 1_555 1_555
O2 S1 1_555 1_555
O3 N3 1_555 1_555
O4 N3 1_555 1_555
N1 C3 1_555 1_555
N2 S1 1_555 1_555
N3 C11 1_555 1_555
C1 N2 1_555 1_555
C2 C1 1_555 1_555
H1 C2 1_555 1_555
C3 C2 1_555 1_555
H2 C3 1_555 1_555
C4 N1 1_555 1_555
H3 C4 1_555 1_555
C5 C1 1_555 1_555
H4 C5 1_555 1_555
C6 S1 1_555 1_555
C7 C6 1_555 1_555
H5 C7 1_555 1_555
C8 C7 1_555 1_555
H6 C8 1_555 1_555
C9 C8 1_555 1_555
H7 C9 1_555 1_555
C10 C9 1_555 1_555
H8 C10 1_555 1_555
C11 C6 1_555 1_555
H9 N1 1_555 1_555
S2 O5 1_555 1_555
O6 S2 1_555 1_555
O7 N6 1_555 1_555
O8 N6 1_555 1_555
N4 C14 1_555 1_555
N5 S2 1_555 1_555
N6 C22 1_555 1_555
C12 N5 1_555 1_555
C13 C12 1_555 1_555
H10 C13 1_555 1_555
C14 C13 1_555 1_555
H11 C14 1_555 1_555
C15 N4 1_555 1_555
H12 C15 1_555 1_555
C16 C12 1_555 1_555
H13 C16 1_555 1_555
C17 S2 1_555 1_555
C18 C17 1_555 1_555
H14 C18 1_555 1_555
C19 C18 1_555 1_555
H15 C19 1_555 1_555
C20 C19 1_555 1_555
H16 C20 1_555 1_555
C21 C20 1_555 1_555
H17 C21 1_555 1_555
C22 C17 1_555 1_555
H18 N4 1_555 1_555
O9 H19 1_555 1_555
H20 O9 1_555 1_555
O10 H21 1_555 1_555
H22 O10 1_555 1_555
C4 C5 1_555 1_555
C10 C11 1_555 1_555
C15 C16 1_555 1_555
C21 C22 1_555 1_555

#END
