
#######################################################################
#
#                 Cambridge Crystallographic Data Centre
#                                CCDC 
#
#######################################################################
#
# If this CIF has been generated from an entry in the Cambridge 
# Structural Database, then it will include bibliographic, chemical, 
# crystal, experimental, refinement or atomic coordinate data resulting 
# from the CCDC's data processing and validation procedures.
#
#######################################################################

data_VOHXAS
_chemical_formula_moiety         'C7 H11 N3 O2 S1'
_chemical_name_systematic        
'Ethyl 5-amino-3-methylsulfanyl-1H-pyrazole-4-carboxylate'
_symmetry_cell_setting           triclinic
_symmetry_space_group_name_H-M   'P -1'
_symmetry_Int_Tables_number      2
_space_group_name_Hall           '-P 1'
loop_
_symmetry_equiv_pos_site_id
_symmetry_equiv_pos_as_xyz
1 x,y,z
2 -x,-y,-z
_cell_length_a                   7.0012(7)
_cell_length_b                   7.5870(8)
_cell_length_c                   10.1055(10)
_cell_angle_alpha                81.038(2)
_cell_angle_beta                 72.173(2)
_cell_angle_gamma                65.6430(10)
_cell_volume                     465.258
_exptl_crystal_colour            yellow
_exptl_crystal_description       block
_cell_formula_units_Z            2
_exptl_crystal_recrystallization_method methanol
loop_
_atom_site_label
_atom_site_type_symbol
_atom_site_fract_x
_atom_site_fract_y
_atom_site_fract_z
S1 S 0.46271(10) 0.72168(10) 0.13781(7)
O1 O 0.3262(3) 0.7811(3) 0.61242(17)
O2 O 0.1914(3) 0.7558(3) 0.44317(18)
N1 N 0.8938(3) 0.7010(3) 0.3056(2)
H1 H 1.0232 0.6889 0.3013
C1 C 0.3414(4) 0.7574(3) 0.4801(2)
N2 N 0.7639(3) 0.7355(3) 0.5482(2)
H2 H 0.8881 0.7260 0.5535
H3 H 0.6578 0.7515 0.6223
C2 C 0.7355(3) 0.7256(3) 0.4242(2)
C3 C 0.1246(4) 0.8045(4) 0.7109(3)
H4 H 0.0903 0.6923 0.7138
H5 H 0.0088 0.9182 0.6866
C4 C 0.6221(4) 0.7165(3) 0.2425(3)
N3 N 0.8282(3) 0.6970(3) 0.1904(2)
C5 C 0.5518(3) 0.7352(3) 0.3906(2)
C6 C 0.1484(5) 0.8274(4) 0.8514(3)
H6 H 0.0146 0.8433 0.9215
H7 H 0.1818 0.9392 0.8472
H8 H 0.2638 0.7143 0.8740
C7 C 0.6528(5) 0.7014(5) -0.0316(3)
H9 H 0.5843 0.7025 -0.1009
H10 H 0.7777 0.5824 -0.0347
H11 H 0.6977 0.8085 -0.0493
loop_
_geom_bond_atom_site_label_1
_geom_bond_atom_site_label_2
_geom_bond_site_symmetry_1
_geom_bond_site_symmetry_2
S1 C4 1_555 1_555
O1 C1 1_555 1_555
O2 C1 1_555 1_555
N1 H1 1_555 1_555
C1 C5 1_555 1_555
N2 H2 1_555 1_555
H3 N2 1_555 1_555
C2 N1 1_555 1_555
C3 O1 1_555 1_555
H4 C3 1_555 1_555
H5 C3 1_555 1_555
C4 N3 1_555 1_555
N3 N1 1_555 1_555
C5 C2 1_555 1_555
C6 C3 1_555 1_555
H6 C6 1_555 1_555
H7 C6 1_555 1_555
H8 C6 1_555 1_555
C7 S1 1_555 1_555
H9 C7 1_555 1_555
H10 C7 1_555 1_555
H11 C7 1_555 1_555
N2 C2 1_555 1_555
C4 C5 1_555 1_555

#END
