
#######################################################################
#
#                 Cambridge Crystallographic Data Centre
#                                CCDC 
#
#######################################################################
#
# If this CIF has been generated from an entry in the Cambridge 
# Structural Database, then it will include bibliographic, chemical, 
# crystal, experimental, refinement or atomic coordinate data resulting 
# from the CCDC's data processing and validation procedures.
#
#######################################################################

data_VOHXOH
_chemical_formula_moiety         'C17 H20 O10'
_chemical_name_systematic        
(1R,2R,3R,4R,4aR,9aS)-1,2,3,4,4a,5-Hexahydroxy-7,9a-dimethoxy-2-methyl-1,2,3,4,4a,9a-hexahydroanthracene-9,10-dione
_chemical_properties_biological  
'modified product from compound extracted from fermentation of fungus Stemphylium sp. 33231 from the mangrove Bruguiera sexangula var. rhynchopetala'
_symmetry_cell_setting           orthorhombic
_symmetry_space_group_name_H-M   'P 21 21 21'
_symmetry_Int_Tables_number      19
_space_group_name_Hall           'P 2ac 2ab'
loop_
_symmetry_equiv_pos_site_id
_symmetry_equiv_pos_as_xyz
1 x,y,z
2 1/2-x,-y,1/2+z
3 1/2+x,1/2-y,-z
4 -x,1/2+y,1/2-z
_cell_length_a                   6.16471(7)
_cell_length_b                   11.40078(15)
_cell_length_c                   23.0795(3)
_cell_angle_alpha                90
_cell_angle_beta                 90
_cell_angle_gamma                90
_cell_volume                     1622.09
_cell_formula_units_Z            4
_exptl_crystal_recrystallization_method methanol/water
loop_
_atom_site_label
_atom_site_type_symbol
_atom_site_fract_x
_atom_site_fract_y
_atom_site_fract_z
O1 O 0.69289(18) 0.87910(10) 0.10451(5)
O2 O 0.1695(2) 0.85303(13) 0.09008(6)
O3 O 0.88553(19) 0.90420(11) -0.00185(6)
H1 H 0.8823 0.8893 0.0329
O4 O 0.3154(2) 0.98841(12) -0.00837(6)
H2 H 0.2063 0.9487 -0.0030
O5 O 0.3891(2) 1.14533(13) 0.09194(6)
O6 O 0.9230(3) 1.15174(13) -0.03091(6)
O7 O 0.8087(2) 1.24049(12) 0.07634(7)
O8 O 0.7715(2) 1.12693(16) 0.18565(6)
O9 O -0.0026(3) 0.85853(16) 0.30712(7)
C1 C 0.5160(3) 0.94728(15) 0.08117(7)
C2 C 0.6181(3) 1.07316(16) 0.16464(8)
C3 C 0.3004(3) 0.93946(16) 0.17663(8)
O10 O 0.6047(3) 1.09855(17) 0.28797(7)
H3 H 0.6935 1.1217 0.2641
C4 C 0.7436(3) 1.10438(15) 0.00027(8)
H4 H 0.6148 1.1497 -0.0106
C5 C 0.3091(3) 0.91095(16) 0.11340(7)
C6 C 0.4582(3) 1.01324(16) 0.20089(8)
C7 C 0.4985(3) 0.92933(15) 0.01485(7)
H5 H 0.4841 0.8453 0.0069
C8 C 0.5754(3) 1.07401(15) 0.09896(7)
C9 C 0.1420(3) 0.88635(18) 0.21013(9)
H6 H 0.0371 0.8388 0.1932
C10 C 0.4573(3) 1.03017(18) 0.26154(8)
C11 C 0.1434(3) 0.90590(18) 0.27011(9)
C12 C 0.2994(4) 0.9766(2) 0.29539(9)
H7 H 0.2986 0.9884 0.3353
C13 C 0.7758(3) 1.11919(15) 0.06539(8)
H8 H 0.9044 1.0752 0.0776
C14 C 0.6595(3) 0.75481(17) 0.10903(9)
H9 H 0.5880 0.7269 0.0748
H10 H 0.5712 0.7383 0.1423
H11 H 0.7971 0.7162 0.1131
C15 C 0.7017(3) 0.97602(16) -0.01685(8)
C16 C 0.6756(3) 0.9643(2) -0.08191(8)
H12 H 0.8083 0.9868 -0.1007
H13 H 0.5601 1.0144 -0.0948
H14 H 0.6421 0.8844 -0.0915
C17 C -0.1733(4) 0.7873(2) 0.28422(11)
H15 H -0.2578 0.8324 0.2573
H16 H -0.2645 0.7608 0.3153
H17 H -0.1121 0.7207 0.2647
H18 H 0.421(4) 1.206(3) 0.0752(12)
H19 H 1.025(6) 1.121(3) -0.0209(14)
H20 H 0.857(6) 1.247(3) 0.1100(17)
loop_
_geom_bond_atom_site_label_1
_geom_bond_atom_site_label_2
_geom_bond_site_symmetry_1
_geom_bond_site_symmetry_2
O1 C1 1_555 1_555
O2 C5 1_555 1_555
O3 H1 1_555 1_555
O4 H2 1_555 1_555
O5 C8 1_555 1_555
O6 C4 1_555 1_555
O7 C13 1_555 1_555
O8 C2 1_555 1_555
O9 C11 1_555 1_555
C1 C5 1_555 1_555
C2 C6 1_555 1_555
C3 C5 1_555 1_555
O10 H3 1_555 1_555
C4 H4 1_555 1_555
C6 C3 1_555 1_555
C7 O4 1_555 1_555
H5 C7 1_555 1_555
C8 C1 1_555 1_555
C9 C3 1_555 1_555
H6 C9 1_555 1_555
C10 O10 1_555 1_555
C11 C9 1_555 1_555
C12 C10 1_555 1_555
H7 C12 1_555 1_555
C13 C4 1_555 1_555
H8 C13 1_555 1_555
C14 O1 1_555 1_555
H9 C14 1_555 1_555
H10 C14 1_555 1_555
H11 C14 1_555 1_555
C15 O3 1_555 1_555
C16 C15 1_555 1_555
H12 C16 1_555 1_555
H13 C16 1_555 1_555
H14 C16 1_555 1_555
C17 O9 1_555 1_555
H15 C17 1_555 1_555
H16 C17 1_555 1_555
H17 C17 1_555 1_555
H18 O5 1_555 1_555
H19 O6 1_555 1_555
H20 O7 1_555 1_555
C1 C7 1_555 1_555
C2 C8 1_555 1_555
C4 C15 1_555 1_555
C6 C10 1_555 1_555
C7 C15 1_555 1_555
C8 C13 1_555 1_555
C11 C12 1_555 1_555

#END
