
#######################################################################
#
#                 Cambridge Crystallographic Data Centre
#                                CCDC 
#
#######################################################################
#
# If this CIF has been generated from an entry in the Cambridge 
# Structural Database, then it will include bibliographic, chemical, 
# crystal, experimental, refinement or atomic coordinate data resulting 
# from the CCDC's data processing and validation procedures.
#
#######################################################################

data_VOHYIB
_chemical_formula_moiety         'C32 H39 N3 O6 S2'
_chemical_name_systematic        
2,2',4,4',6,6'-Hexamethyl-N-(3-phthalimidopropyl)-N,N'-(propane-1,3-diyl)dibenzenesulfonamide
_symmetry_cell_setting           monoclinic
_symmetry_space_group_name_H-M   'C 2/c'
_symmetry_Int_Tables_number      15
_space_group_name_Hall           '-C 2yn'
loop_
_symmetry_equiv_pos_site_id
_symmetry_equiv_pos_as_xyz
1 x,y,z
2 1/2+x,1/2+y,z
3 -x,y,1/2-z
4 1/2-x,1/2+y,1/2-z
5 -x,-y,-z
6 1/2-x,1/2-y,-z
7 x,-y,1/2+z
8 1/2+x,1/2-y,1/2+z
_cell_length_a                   32.042(3)
_cell_length_b                   9.9782(8)
_cell_length_c                   25.105(2)
_cell_angle_alpha                90
_cell_angle_beta                 127.9170(10)
_cell_angle_gamma                90
_cell_volume                     6332.21
_exptl_crystal_colour            colorless
_exptl_crystal_description       block
_cell_formula_units_Z            8
loop_
_atom_site_label
_atom_site_type_symbol
_atom_site_fract_x
_atom_site_fract_y
_atom_site_fract_z
S1 S 0.15326(3) 0.47012(8) 0.46771(4)
S2 S 0.06920(4) 0.72487(9) 0.64731(6)
C1 C 0.14805(12) 0.2922(3) 0.45787(15)
C2 C 0.10216(14) 0.2310(3) 0.40203(16)
C3 C 0.10074(16) 0.0918(4) 0.39911(18)
H1 H 0.0703 0.0502 0.3626
C4 C 0.1424(2) 0.0131(4) 0.4479(2)
C5 C 0.18654(16) 0.0764(4) 0.50242(19)
H2 H 0.2148 0.0242 0.5361
C6 C 0.19082(13) 0.2140(3) 0.50937(17)
C7 C 0.24128(15) 0.2685(4) 0.57208(19)
H3 H 0.2644 0.1956 0.5992
H4 H 0.2334 0.3194 0.5974
H5 H 0.2583 0.3253 0.5597
C8 C 0.1398(2) -0.1383(4) 0.4422(2)
H6 H 0.1062 -0.1645 0.4014
H7 H 0.1439 -0.1763 0.4803
H8 H 0.1676 -0.1700 0.4413
C9 C 0.05315(15) 0.3038(5) 0.34304(18)
H9 H 0.0273 0.2393 0.3114
H10 H 0.0627 0.3598 0.3210
H11 H 0.0385 0.3580 0.3595
C10 C 0.10008(13) 0.4624(3) 0.51695(17)
H12 H 0.0998 0.3656 0.5203
H13 H 0.0691 0.4888 0.4724
C11 C 0.09849(17) 0.5273(4) 0.5705(2)
H14 H 0.0740 0.4792 0.5740
H15 H 0.1333 0.5236 0.6140
C12 C 0.08133(16) 0.6696(4) 0.55154(18)
H16 H 0.0432 0.6719 0.5171
H17 H 0.0972 0.7070 0.5321
C13 C 0.05511(12) 0.8878(3) 0.66060(17)
C14 C 0.08566(13) 0.9494(4) 0.72467(17)
C15 C 0.07141(15) 1.0790(4) 0.7284(2)
H18 H 0.0910 1.1211 0.7702
C16 C 0.03042(19) 1.1470(5) 0.6740(3)
C17 C 0.00179(16) 1.0841(4) 0.6122(2)
H19 H -0.0259 1.1306 0.5745
C18 C 0.01232(15) 0.9547(5) 0.6035(2)
C19 C -0.02361(16) 0.8980(5) 0.5329(2)
H20 H -0.0494 0.9641 0.5028
H21 H -0.0413 0.8201 0.5326
H22 H -0.0030 0.8737 0.5185
C20 C 0.0171(2) 1.2887(5) 0.6807(3)
H23 H 0.0404 1.3153 0.7273
H24 H -0.0188 1.2922 0.6646
H25 H 0.0215 1.3484 0.6545
C21 C 0.13243(15) 0.8889(5) 0.78906(18)
H26 H 0.1462 0.9517 0.8253
H27 H 0.1593 0.8679 0.7844
H28 H 0.1217 0.8085 0.7987
C22 C 0.14972(14) 0.8142(4) 0.65501(19)
H29 H 0.1754 0.7424 0.6717
H30 H 0.1547 0.8552 0.6936
C23 C 0.16017(16) 0.9152(4) 0.62171(19)
H31 H 0.1295 0.9732 0.5946
H32 H 0.1647 0.8699 0.5914
C24 C 0.20845(15) 1.0008(4) 0.67022(18)
H33 H 0.2389 0.9430 0.6991
H34 H 0.2152 1.0570 0.6447
C25 C 0.16924(18) 1.1983(4) 0.68724(19)
C26 C 0.17520(14) 1.2568(3) 0.74571(17)
C27 C 0.15189(16) 1.3666(4) 0.7500(2)
H35 H 0.1280 1.4190 0.7123
C28 C 0.16498(18) 1.3968(4) 0.8121(2)
H36 H 0.1497 1.4712 0.8162
C29 C 0.20005(17) 1.3201(4) 0.8680(2)
H37 H 0.2080 1.3429 0.9093
C30 C 0.22369(14) 1.2090(4) 0.86355(18)
H38 H 0.2474 1.1565 0.9013
C31 C 0.21105(12) 1.1789(3) 0.80191(16)
C32 C 0.22889(12) 1.0682(3) 0.78088(16)
O1 O 0.20542(11) 0.5116(3) 0.49361(14)
O2 O 0.11048(11) 0.5309(3) 0.40790(13)
O3 O 0.10576(13) 0.6647(3) 0.71039(18)
O4 O 0.14220(13) 1.2330(3) 0.62932(13)
O5 O 0.26026(10) 0.9802(3) 0.81456(12)
O6 O 0.02164(12) 0.6529(3) 0.59969(18)
N1 N 0.20210(11) 1.0851(3) 0.71198(13)
N2 N 0.09614(12) 0.7566(3) 0.61035(16)
N3 N 0.14813(10) 0.5046(3) 0.52664(13)
H39 H 0.1729 0.5466 0.5626
loop_
_geom_bond_atom_site_label_1
_geom_bond_atom_site_label_2
_geom_bond_site_symmetry_1
_geom_bond_site_symmetry_2
S1 C1 1_555 1_555
S2 C13 1_555 1_555
C1 C2 1_555 1_555
C2 C3 1_555 1_555
C3 H1 1_555 1_555
C4 C3 1_555 1_555
C5 C4 1_555 1_555
H2 C5 1_555 1_555
C6 C1 1_555 1_555
C7 C6 1_555 1_555
H3 C7 1_555 1_555
H4 C7 1_555 1_555
H5 C7 1_555 1_555
C8 C4 1_555 1_555
H6 C8 1_555 1_555
H7 C8 1_555 1_555
H8 C8 1_555 1_555
C9 C2 1_555 1_555
H9 C9 1_555 1_555
H10 C9 1_555 1_555
H11 C9 1_555 1_555
C10 H12 1_555 1_555
H13 C10 1_555 1_555
C11 C10 1_555 1_555
H14 C11 1_555 1_555
H15 C11 1_555 1_555
C12 C11 1_555 1_555
H16 C12 1_555 1_555
H17 C12 1_555 1_555
C13 C14 1_555 1_555
C14 C15 1_555 1_555
C15 H18 1_555 1_555
C16 C15 1_555 1_555
C17 C16 1_555 1_555
H19 C17 1_555 1_555
C18 C13 1_555 1_555
C19 C18 1_555 1_555
H20 C19 1_555 1_555
H21 C19 1_555 1_555
H22 C19 1_555 1_555
C20 C16 1_555 1_555
H23 C20 1_555 1_555
H24 C20 1_555 1_555
H25 C20 1_555 1_555
C21 C14 1_555 1_555
H26 C21 1_555 1_555
H27 C21 1_555 1_555
H28 C21 1_555 1_555
C22 H29 1_555 1_555
H30 C22 1_555 1_555
C23 C22 1_555 1_555
H31 C23 1_555 1_555
H32 C23 1_555 1_555
C24 C23 1_555 1_555
H33 C24 1_555 1_555
H34 C24 1_555 1_555
C25 C26 1_555 1_555
C26 C27 1_555 1_555
C27 H35 1_555 1_555
C28 C27 1_555 1_555
H36 C28 1_555 1_555
C29 C28 1_555 1_555
H37 C29 1_555 1_555
C30 C29 1_555 1_555
H38 C30 1_555 1_555
C31 C26 1_555 1_555
C32 C31 1_555 1_555
O1 S1 1_555 1_555
O2 S1 1_555 1_555
O3 S2 1_555 1_555
O4 C25 1_555 1_555
O5 C32 1_555 1_555
O6 S2 1_555 1_555
N1 C24 1_555 1_555
N2 S2 1_555 1_555
N3 S1 1_555 1_555
H39 N3 1_555 1_555
C5 C6 1_555 1_555
C10 N3 1_555 1_555
C12 N2 1_555 1_555
C17 C18 1_555 1_555
C22 N2 1_555 1_555
C25 N1 1_555 1_555
C30 C31 1_555 1_555
C32 N1 1_555 1_555

#END
