
#######################################################################
#
#                 Cambridge Crystallographic Data Centre
#                                CCDC 
#
#######################################################################
#
# If this CIF has been generated from an entry in the Cambridge 
# Structural Database, then it will include bibliographic, chemical, 
# crystal, experimental, refinement or atomic coordinate data resulting 
# from the CCDC's data processing and validation procedures.
#
#######################################################################

data_VOJBAY
_chemical_formula_moiety         'C6 H5 Cl1 I1 N1'
_chemical_name_systematic        2-Chloro-4-iodoaniline
_symmetry_cell_setting           orthorhombic
_symmetry_space_group_name_H-M   'P 21 21 21'
_symmetry_Int_Tables_number      19
_space_group_name_Hall           'P 2ac 2ab'
loop_
_symmetry_equiv_pos_site_id
_symmetry_equiv_pos_as_xyz
1 x,y,z
2 1/2-x,-y,1/2+z
3 1/2+x,1/2-y,-z
4 -x,1/2+y,1/2-z
_cell_length_a                   5.6277(2)
_cell_length_b                   8.7859(3)
_cell_length_c                   14.9217(5)
_cell_angle_alpha                90
_cell_angle_beta                 90
_cell_angle_gamma                90
_cell_volume                     737.795
_exptl_crystal_colour            colorless
_exptl_crystal_description       'rounded block'
_cell_formula_units_Z            4
loop_
_atom_site_label
_atom_site_type_symbol
_atom_site_fract_x
_atom_site_fract_y
_atom_site_fract_z
I1 I 0.48590(4) 0.17882(2) 0.730162(15)
Cl1 Cl 0.46148(17) 0.51349(10) 0.40305(6)
N1 N 0.9067(6) 0.6647(5) 0.4646(2)
H1 H 1.048(5) 0.679(5) 0.474(3)
H2 H 0.882(7) 0.656(5) 0.411(2)
C1 C 0.6370(6) 0.3328(4) 0.6386(2)
C2 C 0.5194(7) 0.3639(3) 0.5594(2)
H3 H 0.3764 0.3121 0.5448
C3 C 0.6128(6) 0.4711(4) 0.5018(2)
C4 C 0.8253(6) 0.5480(4) 0.5199(3)
C5 C 0.9422(6) 0.5117(4) 0.5999(2)
H4 H 1.0875 0.5611 0.6142
C6 C 0.8494(7) 0.4049(4) 0.6588(3)
H5 H 0.9312 0.3812 0.7127
loop_
_geom_bond_atom_site_label_1
_geom_bond_atom_site_label_2
_geom_bond_site_symmetry_1
_geom_bond_site_symmetry_2
I1 C1 1_555 1_555
Cl1 C3 1_555 1_555
N1 H1 1_555 1_555
H2 N1 1_555 1_555
C1 C2 1_555 1_555
C2 H3 1_555 1_555
C3 C2 1_555 1_555
C4 N1 1_555 1_555
C5 C4 1_555 1_555
H4 C5 1_555 1_555
C6 C1 1_555 1_555
H5 C6 1_555 1_555
C3 C4 1_555 1_555
C5 C6 1_555 1_555

#END
