
#######################################################################
#
#                 Cambridge Crystallographic Data Centre
#                                CCDC 
#
#######################################################################
#
# If this CIF has been generated from an entry in the Cambridge 
# Structural Database, then it will include bibliographic, chemical, 
# crystal, experimental, refinement or atomic coordinate data resulting 
# from the CCDC's data processing and validation procedures.
#
#######################################################################

data_VOJJAG
_chemical_formula_moiety         'C28 H26 Cl2 N4 O4 S1'
_chemical_name_systematic        
2-(4-Chlorophenyl)-5-(3,4-dibutoxy-5-(5-(4-chlorophenyl)-1,3,4-oxadiazol-2-yl)thiophen-2-yl)-1,3,4-oxadiazole
_symmetry_cell_setting           monoclinic
_symmetry_space_group_name_H-M   'C 2/c'
_symmetry_Int_Tables_number      15
_space_group_name_Hall           '-C 2yn'
loop_
_symmetry_equiv_pos_site_id
_symmetry_equiv_pos_as_xyz
1 x,y,z
2 1/2+x,1/2+y,z
3 -x,y,1/2-z
4 1/2-x,1/2+y,1/2-z
5 -x,-y,-z
6 1/2-x,1/2-y,-z
7 x,-y,1/2+z
8 1/2+x,1/2-y,1/2+z
_cell_length_a                   19.215(4)
_cell_length_b                   22.847(5)
_cell_length_c                   14.933(3)
_cell_angle_alpha                90
_cell_angle_beta                 121.25(3)
_cell_angle_gamma                90
_cell_volume                     5604.51
_exptl_crystal_colour            yellow
_exptl_crystal_description       block
_chemical_melting_point          '451 K'
_cell_formula_units_Z            8
_exptl_crystal_recrystallization_method 'ethyl acetate'
loop_
_atom_site_label
_atom_site_type_symbol
_atom_site_fract_x
_atom_site_fract_y
_atom_site_fract_z
S1 S 0.42931(8) 0.23942(6) 0.30296(10)
Cl1 Cl 0.55998(13) -0.21791(7) 0.42942(15)
Cl2 Cl 0.69885(12) 0.65697(7) 0.60696(15)
O1 O 0.6213(2) 0.15456(15) 0.5028(3)
O2 O 0.6482(2) 0.28280(14) 0.5192(3)
O3 O 0.49888(19) 0.07239(14) 0.3740(2)
O4 O 0.5531(2) 0.38674(15) 0.4339(3)
N1 N 0.3730(3) 0.0474(2) 0.2575(3)
N2 N 0.3786(3) 0.1093(2) 0.2660(3)
N3 N 0.4340(3) 0.3757(2) 0.2900(4)
N4 N 0.4475(3) 0.4330(2) 0.3069(4)
C1 C 0.6637(4) 0.3351(3) 0.8279(5)
H1 H 0.6939 0.3319 0.9028
H2 H 0.6102 0.3191 0.8006
H3 H 0.6592 0.3756 0.8083
C2 C 0.7039(4) 0.3043(3) 0.7869(4)
H4 H 0.7086 0.2630 0.8044
H5 H 0.7577 0.3202 0.8115
C3 C 0.6462(4) 0.3145(3) 0.6681(4)
H6 H 0.5907 0.3034 0.6451
H7 H 0.6473 0.3549 0.6490
C4 C 0.6818(3) 0.2761(3) 0.6269(4)
H8 H 0.7398 0.2836 0.6625
H9 H 0.6743 0.2360 0.6413
C5 C 0.7651(3) -0.0001(3) 0.6258(4)
H10 H 0.7620 -0.0206 0.6798
H11 H 0.8207 0.0012 0.6432
H12 H 0.7327 -0.0202 0.5603
C6 C 0.7339(4) 0.0605(2) 0.6166(5)
H13 H 0.6783 0.0585 0.6011
H14 H 0.7661 0.0798 0.6838
C7 C 0.7355(4) 0.0965(3) 0.5357(4)
H15 H 0.7052 0.0757 0.4697
H16 H 0.7916 0.0987 0.5530
C8 C 0.7034(3) 0.1572(3) 0.5182(5)
H17 H 0.7386 0.1815 0.5783
H18 H 0.7009 0.1738 0.4569
C9 C 0.5230(4) -0.1491(2) 0.3946(5)
C10 C 0.4501(4) -0.1366(3) 0.3208(5)
H19 H 0.4140 -0.1669 0.2841
C11 C 0.4230(4) -0.0771(3) 0.2937(5)
H20 H 0.3714 -0.0694 0.2367
C12 C 0.4728(3) -0.0316(2) 0.3514(3)
C13 C 0.5496(3) -0.0449(2) 0.4331(4)
H21 H 0.5834 -0.0144 0.4734
C14 C 0.5787(4) -0.1012(2) 0.4579(4)
H22 H 0.6314 -0.1088 0.5125
C15 C 0.4457(3) 0.0271(2) 0.3244(4)
C16 C 0.4529(3) 0.1223(2) 0.3318(4)
C17 C 0.4872(3) 0.1802(2) 0.3644(3)
C18 C 0.5670(3) 0.1949(2) 0.4454(3)
C19 C 0.5800(3) 0.2557(2) 0.4558(4)
C20 C 0.5068(3) 0.2866(2) 0.3816(4)
C21 C 0.4949(3) 0.3481(2) 0.3638(4)
C22 C 0.5193(3) 0.4405(2) 0.3924(4)
C23 C 0.5637(3) 0.4922(2) 0.4449(4)
C24 C 0.5285(4) 0.5466(3) 0.4006(5)
H23 H 0.4771 0.5499 0.3407
C25 C 0.5782(4) 0.5975(3) 0.4552(5)
H24 H 0.5601 0.6344 0.4262
C26 C 0.6473(4) 0.5927(3) 0.5436(5)
C27 C 0.6769(4) 0.5396(3) 0.5885(4)
H25 H 0.7251 0.5370 0.6532
C28 C 0.6361(3) 0.4912(2) 0.5388(4)
H26 H 0.6578 0.4551 0.5694
loop_
_geom_bond_atom_site_label_1
_geom_bond_atom_site_label_2
_geom_bond_site_symmetry_1
_geom_bond_site_symmetry_2
S1 C17 1_555 1_555
Cl1 C9 1_555 1_555
Cl2 C26 1_555 1_555
O1 C8 1_555 1_555
O2 C4 1_555 1_555
O3 C15 1_555 1_555
O4 C21 1_555 1_555
N1 N2 1_555 1_555
N2 C16 1_555 1_555
N3 N4 1_555 1_555
N4 C22 1_555 1_555
C1 H1 1_555 1_555
H2 C1 1_555 1_555
H3 C1 1_555 1_555
C2 C1 1_555 1_555
H4 C2 1_555 1_555
H5 C2 1_555 1_555
C3 C2 1_555 1_555
H6 C3 1_555 1_555
H7 C3 1_555 1_555
C4 C3 1_555 1_555
H8 C4 1_555 1_555
H9 C4 1_555 1_555
C5 H10 1_555 1_555
H11 C5 1_555 1_555
H12 C5 1_555 1_555
C6 C5 1_555 1_555
H13 C6 1_555 1_555
H14 C6 1_555 1_555
C7 C6 1_555 1_555
H15 C7 1_555 1_555
H16 C7 1_555 1_555
C8 C7 1_555 1_555
H17 C8 1_555 1_555
H18 C8 1_555 1_555
C9 C10 1_555 1_555
C10 H19 1_555 1_555
C11 C10 1_555 1_555
H20 C11 1_555 1_555
C12 C11 1_555 1_555
C13 C12 1_555 1_555
H21 C13 1_555 1_555
C14 C9 1_555 1_555
H22 C14 1_555 1_555
C15 N1 1_555 1_555
C16 O3 1_555 1_555
C17 C16 1_555 1_555
C18 O1 1_555 1_555
C19 O2 1_555 1_555
C20 S1 1_555 1_555
C21 N3 1_555 1_555
C22 O4 1_555 1_555
C23 C22 1_555 1_555
C24 C23 1_555 1_555
H23 C24 1_555 1_555
C25 C24 1_555 1_555
H24 C25 1_555 1_555
C26 C25 1_555 1_555
C27 C26 1_555 1_555
H25 C27 1_555 1_555
C28 C23 1_555 1_555
H26 C28 1_555 1_555
C12 C15 1_555 1_555
C13 C14 1_555 1_555
C17 C18 1_555 1_555
C18 C19 1_555 1_555
C19 C20 1_555 1_555
C20 C21 1_555 1_555
C27 C28 1_555 1_555

#END
