
#######################################################################
#
#                 Cambridge Crystallographic Data Centre
#                                CCDC 
#
#######################################################################
#
# If this CIF has been generated from an entry in the Cambridge 
# Structural Database, then it will include bibliographic, chemical, 
# crystal, experimental, refinement or atomic coordinate data resulting 
# from the CCDC's data processing and validation procedures.
#
#######################################################################

data_VOJJOU
_chemical_formula_moiety         'C17 H17 Br1 N2 O5'
_chemical_name_systematic        
(E)-N'-(5-bromo-2-hydroxybenzylidene)-3,4,5-trimethoxybenzohydrazide
_symmetry_cell_setting           monoclinic
_symmetry_space_group_name_H-M   'P 21/c'
_symmetry_Int_Tables_number      14
_space_group_name_Hall           '-P 2ybc'
loop_
_symmetry_equiv_pos_site_id
_symmetry_equiv_pos_as_xyz
1 x,y,z
2 -x,1/2+y,1/2-z
3 -x,-y,-z
4 x,1/2-y,1/2+z
_cell_length_a                   11.4157(19)
_cell_length_b                   16.279(3)
_cell_length_c                   9.3738(16)
_cell_angle_alpha                90
_cell_angle_beta                 100.210(3)
_cell_angle_gamma                90
_cell_volume                     1714.41
_cell_formula_units_Z            4
_exptl_crystal_recrystallization_method tetrahydrofuran
loop_
_atom_site_label
_atom_site_type_symbol
_atom_site_fract_x
_atom_site_fract_y
_atom_site_fract_z
Br1 Br 0.94048(4) 1.21831(2) 0.94475(6)
O1 O 0.9086(2) 0.92631(14) 1.3259(2)
H1 H 0.8677 0.8897 1.2824
O2 O 0.74380(19) 0.70776(12) 1.2188(2)
O3 O 0.6562(2) 0.42963(12) 0.9513(2)
O4 O 0.4797(2) 0.47058(14) 0.7287(2)
O5 O 0.42036(19) 0.62400(14) 0.6698(2)
N1 N 0.7240(2) 0.78966(13) 1.0217(2)
H2 H 0.6980 0.7944 0.9302
N2 N 0.7787(2) 0.85483(14) 1.0984(2)
C1 C 0.9120(3) 0.99080(18) 1.2363(3)
C2 C 0.8549(2) 0.98993(16) 1.0913(3)
C3 C 0.8637(3) 1.05886(18) 1.0069(3)
H3 H 0.8252 1.0596 0.9107
C4 C 0.9282(3) 1.12578(18) 1.0634(4)
C5 C 0.9863(3) 1.1252(2) 1.2051(4)
H4 H 1.0316 1.1702 1.2427
C6 C 0.9772(3) 1.0587(2) 1.2899(4)
H5 H 1.0158 1.0591 1.3861
C7 C 0.7914(2) 0.91924(17) 1.0253(3)
H6 H 0.7588 0.9206 0.9271
C8 C 0.7105(2) 0.71797(17) 1.0892(3)
C9 C 0.6508(2) 0.65335(17) 0.9912(3)
C10 C 0.6826(3) 0.57283(17) 1.0217(3)
H7 H 0.7397 0.5600 1.1023
C11 C 0.6292(3) 0.51139(17) 0.9317(3)
C12 C 0.5412(3) 0.52992(18) 0.8141(3)
C13 C 0.5089(3) 0.61112(19) 0.7852(3)
C14 C 0.5643(2) 0.67246(18) 0.8733(3)
H8 H 0.5434 0.7270 0.8534
C15 C 0.7519(3) 0.4079(2) 1.0611(4)
H9 H 0.8233 0.4340 1.0431
H10 H 0.7622 0.3493 1.0618
H11 H 0.7355 0.4255 1.1533
C16 C 0.5452(4) 0.4238(2) 0.6446(4)
H12 H 0.5791 0.4595 0.5812
H13 H 0.4935 0.3848 0.5880
H14 H 0.6077 0.3952 0.7071
C17 C 0.3907(3) 0.7059(2) 0.6315(4)
H15 H 0.3538 0.7308 0.7052
H16 H 0.3364 0.7070 0.5407
H17 H 0.4616 0.7357 0.6225
loop_
_geom_bond_atom_site_label_1
_geom_bond_atom_site_label_2
_geom_bond_site_symmetry_1
_geom_bond_site_symmetry_2
Br1 C4 1_555 1_555
O1 H1 1_555 1_555
O2 C8 1_555 1_555
O3 C11 1_555 1_555
O4 C12 1_555 1_555
O5 C13 1_555 1_555
N1 H2 1_555 1_555
N2 N1 1_555 1_555
C1 O1 1_555 1_555
C2 C1 1_555 1_555
C3 C2 1_555 1_555
H3 C3 1_555 1_555
C4 C3 1_555 1_555
C5 C4 1_555 1_555
H4 C5 1_555 1_555
C6 C1 1_555 1_555
H5 C6 1_555 1_555
C7 N2 1_555 1_555
H6 C7 1_555 1_555
C8 N1 1_555 1_555
C9 C8 1_555 1_555
C10 C9 1_555 1_555
H7 C10 1_555 1_555
C11 C10 1_555 1_555
C12 C11 1_555 1_555
C13 C12 1_555 1_555
C14 C9 1_555 1_555
H8 C14 1_555 1_555
C15 O3 1_555 1_555
H9 C15 1_555 1_555
H10 C15 1_555 1_555
H11 C15 1_555 1_555
C16 O4 1_555 1_555
H12 C16 1_555 1_555
H13 C16 1_555 1_555
H14 C16 1_555 1_555
C17 O5 1_555 1_555
H15 C17 1_555 1_555
H16 C17 1_555 1_555
H17 C17 1_555 1_555
C2 C7 1_555 1_555
C5 C6 1_555 1_555
C13 C14 1_555 1_555

#END
