
#######################################################################
#
#                 Cambridge Crystallographic Data Centre
#                                CCDC 
#
#######################################################################
#
# If this CIF has been generated from an entry in the Cambridge 
# Structural Database, then it will include bibliographic, chemical, 
# crystal, experimental, refinement or atomic coordinate data resulting 
# from the CCDC's data processing and validation procedures.
#
#######################################################################

data_VOJLIQ
_chemical_name_common            
'Cyclomaltoheptaose p-aminobenzoic acid clathrate pentahydrate'
_chemical_formula_moiety         'C42 H70 O35,C7 H7 N1 O2,5(H2 O1)'
_chemical_name_systematic        
'\b-Cyclodextrin p-aminobenzoic acid clathrate pentahydrate'
_symmetry_cell_setting           monoclinic
_symmetry_space_group_name_H-M   'P 21'
_symmetry_Int_Tables_number      4
_space_group_name_Hall           'P 2yb'
loop_
_symmetry_equiv_pos_site_id
_symmetry_equiv_pos_as_xyz
1 x,y,z
2 -x,1/2+y,-z
_cell_length_a                   15.2196(10)
_cell_length_b                   10.2279(7)
_cell_length_c                   20.9321(14)
_cell_angle_alpha                90
_cell_angle_beta                 110.9270(10)
_cell_angle_gamma                90
_cell_volume                     3043.45
_cell_formula_units_Z            2
loop_
_atom_site_label
_atom_site_type_symbol
_atom_site_fract_x
_atom_site_fract_y
_atom_site_fract_z
O1 O 0.31677(15) 0.4257(4) 0.70669(12)
O2 O 0.17267(17) 0.4052(4) 0.58434(13)
H1 H 0.2064 0.3532 0.5740
O3 O 0.2560(2) 0.5436(5) 0.49879(14)
H2 H 0.2172 0.4846 0.4859
O4 O 0.3169(2) 0.6529(4) 0.70108(14)
C1 C 0.4639(5) 0.7643(7) 0.7164(4)
H3 H 0.4807 0.7497 0.7651
H4 H 0.5209 0.7568 0.7060
O5 O 0.4274(4) 0.8956(6) 0.7004(2)
H5 H 0.4260 0.9309 0.7352
O7 O 0.42898(15) 0.6634(4) 0.57214(12)
O8 O 0.36523(17) 0.6939(5) 0.43243(14)
H9 H 0.3351 0.7453 0.4026
O9 O 0.54476(18) 0.6545(5) 0.41577(13)
H10 H 0.5876 0.6034 0.4189
O10 O 0.53424(18) 0.8351(4) 0.58763(15)
C3 C 0.6920(12) 0.8191(18) 0.6577(6)
H11 H 0.6687 0.8412 0.6939
H12 H 0.7454 0.7611 0.6766
O11 O 0.7210(6) 0.9371(9) 0.6323(7)
H13 H 0.7217 0.9985 0.6577
O13 O 0.69849(14) 0.6307(4) 0.53905(13)
O14 O 0.71531(17) 0.5277(4) 0.41967(13)
H17 H 0.6717 0.5758 0.4186
O15 O 0.85284(17) 0.3347(4) 0.48895(12)
H18 H 0.8841 0.2804 0.5165
O16 O 0.85446(14) 0.6997(3) 0.57671(12)
O17 O 1.04472(16) 0.6832(4) 0.64754(14)
H19 H 1.0965 0.6538 0.6705
O18 O 0.92248(13) 0.3639(3) 0.63396(11)
O19 O 0.9597(3) 0.1346(4) 0.58150(13)
H20 H 0.9553 0.0552 0.5757
O20 O 0.9441(4) -0.0327(4) 0.68771(17)
H21 H 0.8900 -0.0561 0.6664
O21 O 1.05540(15) 0.3388(4) 0.73218(11)
O22 O 1.1454(2) 0.2917(6) 0.87407(16)
H22 H 1.1793 0.3214 0.8547
O23 O 0.93504(14) 0.1005(4) 0.80336(11)
O24 O 0.9319(2) -0.1687(4) 0.80054(16)
H23 H 0.8893 -0.1446 0.7658
O25 O 0.7822(2) -0.2008(4) 0.85124(15)
H24 H 0.7756 -0.2158 0.8878
O26 O 0.97495(16) 0.1002(4) 0.92124(11)
O27 O 0.9268(2) 0.1423(5) 1.04242(13)
H25 H 0.9082 0.1745 1.0711
O28 O 0.73675(14) 0.0190(4) 0.91336(10)
O29 O 0.6600(2) -0.2261(4) 0.92203(14)
H26 H 0.7176 -0.2309 0.9361
O30 O 0.47039(19) -0.1403(4) 0.87774(15)
H27 H 0.4223 -0.1042 0.8527
O31 O 0.68390(15) 0.1006(4) 0.99639(10)
O32 O 0.6667(4) 0.3700(5) 1.0091(3)
H28 H 0.7053 0.3499 0.9917
O33 O 0.45352(14) 0.1396(4) 0.86120(10)
O34 O 0.31089(18) -0.0168(4) 0.77684(15)
H29 H 0.2606 -0.0528 0.7560
O35 O 0.23580(17) 0.1793(4) 0.67135(11)
H30 H 0.2575 0.1942 0.6414
O36 O 0.34470(17) 0.2856(4) 0.87508(11)
O37 O 0.2395(2) 0.5147(4) 0.84490(17)
H31 H 0.2068 0.5225 0.8044
C5 C 0.2622(2) 0.5386(5) 0.68091(18)
H32 H 0.2108 0.5420 0.6987
C6 C 0.2199(2) 0.5271(5) 0.60226(17)
H33 H 0.1737 0.5972 0.5846
C7 C 0.2963(2) 0.5427(5) 0.57129(17)
H34 H 0.3382 0.4668 0.5850
C8 C 0.3548(2) 0.6646(5) 0.59966(17)
H35 H 0.3161 0.7433 0.5848
C9 C 0.3943(2) 0.6568(5) 0.67716(18)
H36 H 0.4273 0.5730 0.6893
C10 C 0.4487(2) 0.7806(4) 0.54528(19)
H37 H 0.3980 0.8431 0.5409
C11 C 0.4516(2) 0.7535(5) 0.47413(18)
H38 H 0.4587 0.8367 0.4533
C12 C 0.5347(2) 0.6666(4) 0.47979(16)
H39 H 0.5241 0.5797 0.4955
C13 C 0.6254(2) 0.7236(4) 0.53094(17)
H40 H 0.6406 0.8054 0.5128
C14 C 0.6143(2) 0.7500(5) 0.59922(19)
H41 H 0.6006 0.6666 0.6168
C15 C 0.77427(19) 0.6680(4) 0.51938(16)
H42 H 0.7556 0.7452 0.4898
C16 C 0.7955(2) 0.5567(4) 0.47870(15)
H43 H 0.8470 0.5838 0.4639
C17 C 0.8270(2) 0.4373(4) 0.52435(16)
H44 H 0.7745 0.4075 0.5374
C18 C 0.90889(18) 0.4730(4) 0.58858(14)
H45 H 0.9655 0.4869 0.5775
C19 C 0.8896(2) 0.5932(4) 0.62424(15)
H46 H 0.8434 0.5715 0.6454
C20 C 0.9775(2) 0.6462(4) 0.67786(17)
H47 H 0.9618 0.7215 0.6998
H48 H 1.0047 0.5801 0.7126
C21 C 1.0131(2) 0.3087(4) 0.66185(15)
H49 H 1.0525 0.3424 0.6373
C22 C 1.0022(2) 0.1619(4) 0.65193(16)
H50 H 1.0651 0.1227 0.6684
C23 C 0.9472(3) 0.1053(4) 0.69337(16)
H51 H 0.8828 0.1394 0.6753
C24 C 0.9927(2) 0.1470(4) 0.76748(15)
H52 H 1.0551 0.1068 0.7869
C25 C 1.0030(2) 0.2948(4) 0.77317(16)
H53 H 0.9403 0.3344 0.7557
C26 C 1.0543(3) 0.3448(5) 0.84434(18)
H54 H 1.0590 0.4393 0.8429
H55 H 1.0182 0.3236 0.8729
C27 C 0.9782(2) 0.0290(5) 0.86420(16)
H56 H 1.0441 0.0123 0.8700
C28 C 0.9270(2) -0.0999(4) 0.85712(17)
H57 H 0.9603 -0.1517 0.8980
C29 C 0.8279(2) -0.0798(4) 0.85506(15)
H58 H 0.7932 -0.0285 0.8143
C30 C 0.83096(19) -0.0033(4) 0.91809(14)
H59 H 0.8645 -0.0537 0.9595
C31 C 0.8813(2) 0.1261(4) 0.91938(15)
H60 H 0.8473 0.1740 0.8772
C32 C 0.8885(3) 0.2128(5) 0.98010(19)
H61 H 0.9282 0.2875 0.9810
H62 H 0.8265 0.2451 0.9752
C33 C 0.7123(2) -0.0127(4) 0.97077(14)
H63 H 0.7668 -0.0514 1.0065
C34 C 0.6327(2) -0.1107(4) 0.94841(16)
H64 H 0.6159 -0.1344 0.9880
C35 C 0.5476(2) -0.0504(4) 0.89421(15)
H65 H 0.5625 -0.0342 0.8530
C36 C 0.5221(2) 0.0780(4) 0.91902(14)
H66 H 0.4952 0.0616 0.9544
C37 C 0.6069(2) 0.1691(5) 0.94698(15)
H67 H 0.6257 0.1999 0.9094
C38 C 0.5878(3) 0.2844(5) 0.9848(2)
H68 H 0.5340 0.3323 0.9546
H69 H 0.5722 0.2533 1.0233
C39 C 0.3613(2) 0.1558(5) 0.86041(16)
H70 H 0.3521 0.0980 0.8948
C40 C 0.2943(2) 0.1153(5) 0.79014(16)
H71 H 0.2297 0.1227 0.7894
C41 C 0.3057(2) 0.2068(5) 0.73708(14)
H72 H 0.3684 0.1952 0.7348
C42 C 0.2940(2) 0.3476(4) 0.75503(14)
H73 H 0.2283 0.3630 0.7500
C43 C 0.3578(2) 0.3804(5) 0.82824(15)
H74 H 0.4236 0.3790 0.8314
C44 C 0.3359(3) 0.5115(5) 0.85203(19)
H75 H 0.3752 0.5253 0.8995
H76 H 0.3489 0.5806 0.8249
O38 O 0.8884(4) 0.5743(6) 0.9262(3)
O39 O 0.9186(12) 0.583(2) 0.8191(10)
N1 N 0.5176(10) 0.326(2) 0.7065(8)
H77 H 0.5166 0.2943 0.6667
H78 H 0.4818 0.3978 0.6990
H79 H 0.4954 0.2667 0.7278
C45 C 0.8737(11) 0.5592(10) 0.8614(5)
C46 C 0.7781(8) 0.4968(8) 0.8199(5)
C47 C 0.7116(10) 0.475(2) 0.8501(6)
H80 H 0.7219 0.5054 0.8940
C48 C 0.6297(11) 0.406(3) 0.8147(8)
H81 H 0.5852 0.3912 0.8349
C49 C 0.6143(10) 0.360(2) 0.7492(9)
C50 C 0.6808(11) 0.382(2) 0.7190(7)
H82 H 0.6705 0.3512 0.6751
C51 C 0.7627(10) 0.451(2) 0.7544(6)
H83 H 0.8072 0.4655 0.7342
O40 O 0.9835(2) 0.8875(4) 0.53932(14)
O41 O 0.1439(3) 0.8595(5) 0.7520(2)
O42 O 0.8271(3) 0.2518(6) 0.1188(2)
O43 O 0.2152(4) 0.1155(6) 0.9791(2)
O44 O 0.5802(4) 0.0525(7) 0.7071(3)
C2? C 0.4340(13) 0.7927(11) 0.7040(10)
H6? H 0.4670 0.8324 0.6770
H7? H 0.3862 0.8518 0.7075
O6? O 0.4976(11) 0.7482(18) 0.7705(7)
H8? H 0.4858 0.7869 0.8007
C4? C 0.7030(9) 0.8206(19) 0.6453(6)
H14? H 0.7582 0.7665 0.6532
H15? H 0.7114 0.9023 0.6246
O12? O 0.6880(6) 0.8447(10) 0.7088(4)
H16? H 0.6659 0.7791 0.7198
loop_
_geom_bond_atom_site_label_1
_geom_bond_atom_site_label_2
_geom_bond_site_symmetry_1
_geom_bond_site_symmetry_2
O1 C5 1_555 1_555
O2 H1 1_555 1_555
O3 H2 1_555 1_555
O4 C5 1_555 1_555
C1 H3 1_555 1_555
H4 C1 1_555 1_555
O5 C1 1_555 1_555
H5 O5 1_555 1_555
O7 C8 1_555 1_555
O8 H9 1_555 1_555
O9 H10 1_555 1_555
O10 C10 1_555 1_555
C3 H11 1_555 1_555
H12 C3 1_555 1_555
O11 C3 1_555 1_555
H13 O11 1_555 1_555
O13 C13 1_555 1_555
O14 H17 1_555 1_555
O15 H18 1_555 1_555
O16 C15 1_555 1_555
O17 H19 1_555 1_555
O18 C18 1_555 1_555
O19 H20 1_555 1_555
O20 H21 1_555 1_555
O21 C21 1_555 1_555
O22 H22 1_555 1_555
O23 C24 1_555 1_555
O24 H23 1_555 1_555
O25 H24 1_555 1_555
O26 C27 1_555 1_555
O27 H25 1_555 1_555
O28 C30 1_555 1_555
O29 H26 1_555 1_555
O30 H27 1_555 1_555
O31 C33 1_555 1_555
O32 H28 1_555 1_555
O33 C36 1_555 1_555
O34 H29 1_555 1_555
O35 H30 1_555 1_555
O36 C39 1_555 1_555
O37 H31 1_555 1_555
C5 H32 1_555 1_555
C6 O2 1_555 1_555
H33 C6 1_555 1_555
C7 O3 1_555 1_555
H34 C7 1_555 1_555
C8 C7 1_555 1_555
H35 C8 1_555 1_555
C9 O4 1_555 1_555
H36 C9 1_555 1_555
C10 O7 1_555 1_555
H37 C10 1_555 1_555
C11 O8 1_555 1_555
H38 C11 1_555 1_555
C12 O9 1_555 1_555
H39 C12 1_555 1_555
C13 C12 1_555 1_555
H40 C13 1_555 1_555
C14 O10 1_555 1_555
H41 C14 1_555 1_555
C15 O13 1_555 1_555
H42 C15 1_555 1_555
C16 O14 1_555 1_555
H43 C16 1_555 1_555
C17 O15 1_555 1_555
H44 C17 1_555 1_555
C18 C17 1_555 1_555
H45 C18 1_555 1_555
C19 O16 1_555 1_555
H46 C19 1_555 1_555
C20 O17 1_555 1_555
H47 C20 1_555 1_555
H48 C20 1_555 1_555
C21 O18 1_555 1_555
H49 C21 1_555 1_555
C22 O19 1_555 1_555
H50 C22 1_555 1_555
C23 O20 1_555 1_555
H51 C23 1_555 1_555
C24 C23 1_555 1_555
H52 C24 1_555 1_555
C25 O21 1_555 1_555
H53 C25 1_555 1_555
C26 O22 1_555 1_555
H54 C26 1_555 1_555
H55 C26 1_555 1_555
C27 O23 1_555 1_555
H56 C27 1_555 1_555
C28 O24 1_555 1_555
H57 C28 1_555 1_555
C29 O25 1_555 1_555
H58 C29 1_555 1_555
C30 C29 1_555 1_555
H59 C30 1_555 1_555
C31 O26 1_555 1_555
H60 C31 1_555 1_555
C32 O27 1_555 1_555
H61 C32 1_555 1_555
H62 C32 1_555 1_555
C33 O28 1_555 1_555
H63 C33 1_555 1_555
C34 O29 1_555 1_555
H64 C34 1_555 1_555
C35 O30 1_555 1_555
H65 C35 1_555 1_555
C36 C35 1_555 1_555
H66 C36 1_555 1_555
C37 O31 1_555 1_555
H67 C37 1_555 1_555
C38 O32 1_555 1_555
H68 C38 1_555 1_555
H69 C38 1_555 1_555
C39 O33 1_555 1_555
H70 C39 1_555 1_555
C40 O34 1_555 1_555
H71 C40 1_555 1_555
C41 O35 1_555 1_555
H72 C41 1_555 1_555
C42 O1 1_555 1_555
H73 C42 1_555 1_555
C43 O36 1_555 1_555
H74 C43 1_555 1_555
C44 O37 1_555 1_555
H75 C44 1_555 1_555
H76 C44 1_555 1_555
O38 C45 1_555 1_555
O39 C45 1_555 1_555
N1 H77 1_555 1_555
H78 N1 1_555 1_555
H79 N1 1_555 1_555
C45 C46 1_555 1_555
C46 C47 1_555 1_555
C47 H80 1_555 1_555
C48 C47 1_555 1_555
H81 C48 1_555 1_555
C49 N1 1_555 1_555
C50 C49 1_555 1_555
H82 C50 1_555 1_555
C51 C46 1_555 1_555
H83 C51 1_555 1_555
C1 C9 1_555 1_555
C3 C14 1_555 1_555
C5 C6 1_555 1_555
C6 C7 1_555 1_555
C8 C9 1_555 1_555
C10 C11 1_555 1_555
C11 C12 1_555 1_555
C13 C14 1_555 1_555
C15 C16 1_555 1_555
C16 C17 1_555 1_555
C18 C19 1_555 1_555
C19 C20 1_555 1_555
C21 C22 1_555 1_555
C22 C23 1_555 1_555
C24 C25 1_555 1_555
C25 C26 1_555 1_555
C27 C28 1_555 1_555
C28 C29 1_555 1_555
C30 C31 1_555 1_555
C31 C32 1_555 1_555
C33 C34 1_555 1_555
C34 C35 1_555 1_555
C36 C37 1_555 1_555
C37 C38 1_555 1_555
C39 C40 1_555 1_555
C40 C41 1_555 1_555
C41 C42 1_555 1_555
C42 C43 1_555 1_555
C43 C44 1_555 1_555
C48 C49 1_555 1_555
C50 C51 1_555 1_555

#END
