
#######################################################################
#
#                 Cambridge Crystallographic Data Centre
#                                CCDC 
#
#######################################################################
#
# If this CIF has been generated from an entry in the Cambridge 
# Structural Database, then it will include bibliographic, chemical, 
# crystal, experimental, refinement or atomic coordinate data resulting 
# from the CCDC's data processing and validation procedures.
#
#######################################################################

data_VOJRIV
_chemical_formula_moiety         'C21 H23 N2 O1 1+,I1 1-,H2 O1'
_chemical_name_systematic        
'5,7-Diphenyl-1-methylazonia-3-aza-adamantan-6-one iodide monohydrate'
_symmetry_cell_setting           monoclinic
_symmetry_space_group_name_H-M   'P 21/c'
_symmetry_Int_Tables_number      14
_space_group_name_Hall           '-P 2ybc'
loop_
_symmetry_equiv_pos_site_id
_symmetry_equiv_pos_as_xyz
1 x,y,z
2 -x,1/2+y,1/2-z
3 -x,-y,-z
4 x,1/2-y,1/2+z
_cell_length_a                   10.031(1)
_cell_length_b                   12.872(2)
_cell_length_c                   15.640(2)
_cell_angle_alpha                90
_cell_angle_beta                 98.300(9)
_cell_angle_gamma                90
_cell_volume                     1998.27
_cell_formula_units_Z            4
loop_
_atom_site_label
_atom_site_type_symbol
_atom_site_fract_x
_atom_site_fract_y
_atom_site_fract_z
I1 I 0.2366(1) 0.0801(1) 0.0950(1)
O1 O 0.5256(6) 0.0354(5) 0.3230(4)
N1 N 0.3443(6) 0.3202(5) 0.2982(5)
C1 C 0.4103(12) 0.3758(9) 0.3805(8)
N2 N 0.5072(7) 0.3108(5) 0.4298(5)
C2 C 0.6141(10) 0.2797(9) 0.3825(8)
C3 C 0.5590(7) 0.2197(6) 0.2991(5)
C4 C 0.4872(8) 0.1226(7) 0.3323(5)
C5 C 0.3739(8) 0.1533(6) 0.3829(5)
C6 C 0.2754(9) 0.2236(7) 0.3263(7)
C7 C 0.4512(9) 0.2856(8) 0.2464(7)
C8 C 0.4409(12) 0.2192(8) 0.4594(6)
C9 C 0.2428(11) 0.3868(8) 0.2448(8)
C10 C 0.6676(8) 0.1875(6) 0.2447(6)
C11 C 0.8004(9) 0.1849(7) 0.2793(8)
C12 C 0.8957(12) 0.1517(8) 0.2282(10)
C13 C 0.8622(10) 0.1234(7) 0.1456(8)
C14 C 0.7311(10) 0.1270(7) 0.1114(7)
C15 C 0.6316(9) 0.1574(6) 0.1592(6)
C16 C 0.2932(8) 0.0606(6) 0.4084(6)
C17 C 0.2694(13) 0.0452(9) 0.4916(8)
C18 C 0.1905(14) -0.0344(10) 0.5131(10)
C19 C 0.1353(18) -0.1004(11) 0.4512(12)
C20 C 0.1578(13) -0.0879(9) 0.3690(10)
C21 C 0.2359(10) -0.0079(7) 0.3469(8)
O2 O 0.0089(12) 0.1432(9) -0.0938(8)
loop_
_geom_bond_atom_site_label_1
_geom_bond_atom_site_label_2
_geom_bond_site_symmetry_1
_geom_bond_site_symmetry_2
O1 C4 1_555 1_555
N1 C1 1_555 1_555
C1 N2 1_555 1_555
N2 C2 1_555 1_555
C2 C3 1_555 1_555
C3 C4 1_555 1_555
C4 C5 1_555 1_555
C5 C6 1_555 1_555
C6 N1 1_555 1_555
C7 N1 1_555 1_555
C8 N2 1_555 1_555
C9 N1 1_555 1_555
C10 C3 1_555 1_555
C11 C10 1_555 1_555
C12 C11 1_555 1_555
C13 C12 1_555 1_555
C14 C13 1_555 1_555
C15 C10 1_555 1_555
C16 C5 1_555 1_555
C17 C16 1_555 1_555
C18 C17 1_555 1_555
C19 C18 1_555 1_555
C20 C19 1_555 1_555
C21 C16 1_555 1_555
C3 C7 1_555 1_555
C5 C8 1_555 1_555
C14 C15 1_555 1_555
C20 C21 1_555 1_555

#END
