
#######################################################################
#
#                 Cambridge Crystallographic Data Centre
#                                CCDC 
#
#######################################################################
#
# If this CIF has been generated from an entry in the Cambridge 
# Structural Database, then it will include bibliographic, chemical, 
# crystal, experimental, refinement or atomic coordinate data resulting 
# from the CCDC's data processing and validation procedures.
#
#######################################################################

data_VOJROB
_chemical_formula_moiety         'C21 H23 N2 O1 1+,Br1 1-,H2 O1'
_chemical_name_systematic        
'5,7-Diphenyl-1-methylazonia-3-aza-adamantan-6-one bromide monohydrate'
_symmetry_cell_setting           monoclinic
_symmetry_space_group_name_H-M   'P 21/c'
_symmetry_Int_Tables_number      14
_space_group_name_Hall           '-P 2ybc'
loop_
_symmetry_equiv_pos_site_id
_symmetry_equiv_pos_as_xyz
1 x,y,z
2 -x,1/2+y,1/2-z
3 -x,-y,-z
4 x,1/2-y,1/2+z
_cell_length_a                   9.901(2)
_cell_length_b                   12.844(3)
_cell_length_c                   15.183(3)
_cell_angle_alpha                90
_cell_angle_beta                 98.76(2)
_cell_angle_gamma                90
_cell_volume                     1908.28
_cell_formula_units_Z            4
loop_
_atom_site_label
_atom_site_type_symbol
_atom_site_fract_x
_atom_site_fract_y
_atom_site_fract_z
Br1 Br 0.2392(1) 0.0823(1) 0.0943(1)
O1 O 0.5238(5) 0.0374(3) 0.3217(4)
N1 N 0.3388(6) 0.3207(5) 0.2938(4)
C1 C 0.4052(8) 0.3782(6) 0.3783(5)
N2 N 0.5008(6) 0.3122(5) 0.4298(4)
C2 C 0.6141(8) 0.2835(7) 0.3828(5)
C3 C 0.5562(7) 0.2197(5) 0.2966(4)
C4 C 0.4852(7) 0.1246(5) 0.3296(5)
C5 C 0.3679(7) 0.1533(6) 0.3804(4)
C6 C 0.2683(7) 0.2254(6) 0.3211(5)
C7 C 0.4497(7) 0.2891(6) 0.2406(5)
C8 C 0.4353(8) 0.2201(6) 0.4608(5)
C9 C 0.2357(8) 0.3897(6) 0.2393(5)
C10 C 0.6681(7) 0.1889(5) 0.2433(4)
C11 C 0.8027(7) 0.1888(6) 0.2804(5)
C12 C 0.9022(8) 0.1532(7) 0.2316(6)
C13 C 0.8684(8) 0.1212(6) 0.1450(6)
C14 C 0.7342(8) 0.1217(6) 0.1067(5)
C15 C 0.6332(8) 0.1544(5) 0.1553(4)
C16 C 0.2879(7) 0.0616(6) 0.4049(5)
C17 C 0.2642(9) 0.0442(7) 0.4915(5)
C18 C 0.1858(10) -0.0371(7) 0.5143(6)
C19 C 0.1279(10) -0.1051(7) 0.4471(6)
C20 C 0.1502(9) -0.0891(8) 0.3600(6)
C21 C 0.2279(8) -0.0067(7) 0.3400(6)
O2 O 0.0068(8) 0.1338(6) -0.0871(5)
loop_
_geom_bond_atom_site_label_1
_geom_bond_atom_site_label_2
_geom_bond_site_symmetry_1
_geom_bond_site_symmetry_2
O1 C4 1_555 1_555
N1 C1 1_555 1_555
C1 N2 1_555 1_555
N2 C2 1_555 1_555
C2 C3 1_555 1_555
C3 C4 1_555 1_555
C4 C5 1_555 1_555
C5 C6 1_555 1_555
C6 N1 1_555 1_555
C7 N1 1_555 1_555
C8 N2 1_555 1_555
C9 N1 1_555 1_555
C10 C3 1_555 1_555
C11 C10 1_555 1_555
C12 C11 1_555 1_555
C13 C12 1_555 1_555
C14 C13 1_555 1_555
C15 C10 1_555 1_555
C16 C5 1_555 1_555
C17 C16 1_555 1_555
C18 C17 1_555 1_555
C19 C18 1_555 1_555
C20 C19 1_555 1_555
C21 C16 1_555 1_555
C3 C7 1_555 1_555
C5 C8 1_555 1_555
C14 C15 1_555 1_555
C20 C21 1_555 1_555

#END
