
#######################################################################
#
#                 Cambridge Crystallographic Data Centre
#                                CCDC 
#
#######################################################################
#
# If this CIF has been generated from an entry in the Cambridge 
# Structural Database, then it will include bibliographic, chemical, 
# crystal, experimental, refinement or atomic coordinate data resulting 
# from the CCDC's data processing and validation procedures.
#
#######################################################################

data_VOJRUH
_chemical_formula_moiety         'C20 H21 N2 O1 1+,Cl1 O4 1-'
_chemical_name_systematic        
'5,7-Diphenyl-1-azonia-3-aza-adamantan-6-one perchlorate'
_symmetry_cell_setting           orthorhombic
_symmetry_space_group_name_H-M   'P n a m'
_symmetry_Int_Tables_number      62
_space_group_name_Hall           '-P 2c 2n'
loop_
_symmetry_equiv_pos_site_id
_symmetry_equiv_pos_as_xyz
1 x,y,z
2 1/2-x,1/2+y,1/2+z
3 1/2+x,1/2-y,z
4 -x,-y,1/2+z
5 -x,-y,-z
6 1/2+x,1/2-y,1/2-z
7 1/2-x,1/2+y,-z
8 x,y,1/2-z
_cell_length_a                   15.769(1)
_cell_length_b                   15.721(1)
_cell_length_c                   15.000(1)
_cell_angle_alpha                90
_cell_angle_beta                 90
_cell_angle_gamma                90
_cell_volume                     3718.57
_cell_formula_units_Z            8
loop_
_atom_site_label
_atom_site_type_symbol
_atom_site_fract_x
_atom_site_fract_y
_atom_site_fract_z
O1 O 1.1968(2) 0.0130(2) 0.2500
N1 N 0.9668(2) 0.1239(2) 0.2500
C1 C 0.9047(3) 0.0510(3) 0.2500
N2 N 0.9502(2) -0.0274(2) 0.2500
C2 C 1.0029(2) -0.0351(2) 0.1698(2)
C3 C 1.0698(2) 0.0382(2) 0.1648(2)
C4 C 1.1215(3) 0.0301(2) 0.2500
C5 C 1.0206(2) 0.1230(2) 0.1679(2)
C6 C 1.1242(2) 0.0316(2) 0.0814(2)
C7 C 1.1576(2) -0.0466(2) 0.0553(2)
C8 C 1.2082(2) -0.0536(3) -0.0191(2)
C9 C 1.2279(2) 0.0163(3) -0.0694(2)
C10 C 1.1960(2) 0.0935(3) -0.0445(2)
C11 C 1.1454(2) 0.1013(2) 0.0304(2)
C5G C 1.0206(2) 0.1230(2) 0.3321(2)
C3G C 1.0698(2) 0.0382(2) 0.3352(2)
C2G C 1.0029(2) -0.0351(2) 0.3302(2)
C6G C 1.1242(2) 0.0316(2) 0.4186(2)
C7G C 1.1576(2) -0.0466(2) 0.4447(2)
C8G C 1.2082(2) -0.0536(3) 0.5191(2)
C9G C 1.2279(2) 0.0163(3) 0.5694(2)
C10G C 1.1960(2) 0.0935(3) 0.5445(2)
C11G C 1.1454(2) 0.1013(2) 0.4696(2)
Cl1 Cl -0.2721(1) 0.7204(1) 0.2500
O2 O -0.3604(2) 0.6964(2) 0.2500
O3 O -0.2315(2) 0.6858(2) 0.1730(2)
O4 O -0.2652(3) 0.8104(3) 0.2500
O3G O -0.2315(2) 0.6858(2) 0.3270(2)
O5 O 0.4935(2) 0.1988(2) 0.2500
N3 N 0.3667(2) -0.0224(2) 0.2500
C12 C 0.4341(3) -0.0907(3) 0.2500
N4 N 0.5159(2) -0.0532(2) 0.2500
C13 C 0.5288(2) -0.0012(2) 0.1703(2)
C14 C 0.4631(2) 0.0729(2) 0.1646(2)
C15 C 0.4746(2) 0.1248(3) 0.2500
C16 C 0.3738(2) 0.0321(2) 0.1675(2)
C17 C 0.4744(2) 0.1266(2) 0.0816(2)
C18 C 0.4063(2) 0.1599(2) 0.0353(2)
C19 C 0.4186(3) 0.2091(3) -0.0408(3)
C20 C 0.4974(3) 0.2260(2) -0.0703(2)
C21 C 0.5658(3) 0.1945(2) -0.0256(2)
C22 C 0.5553(2) 0.1450(2) 0.0506(2)
C16G C 0.3738(2) 0.0321(2) 0.3325(2)
C14G C 0.4631(2) 0.0729(2) 0.3354(2)
C13G C 0.5288(2) -0.0012(2) 0.3297(2)
C17G C 0.4744(2) 0.1266(2) 0.4184(2)
C18G C 0.4063(2) 0.1599(2) 0.4647(2)
C19G C 0.4186(3) 0.2091(3) 0.5408(3)
C20G C 0.4974(3) 0.2260(2) 0.5703(2)
C21G C 0.5658(3) 0.1945(2) 0.5256(2)
C22G C 0.5553(2) 0.1450(2) 0.4494(2)
Cl2? Cl 0.2421(1) 0.2793(1) 0.2500
O6? O 0.1978(5) 0.2090(5) 0.2500
O7? O 0.3010(5) 0.2854(4) 0.1783(5)
O8? O 0.1967(5) 0.3631(5) 0.2500
O9? O 0.2213(5) 0.3579(5) 0.2500
O10? O 0.2031(5) 0.2428(7) 0.1749(6)
O11? O 0.3240(4) 0.2642(5) 0.2500
loop_
_geom_bond_atom_site_label_1
_geom_bond_atom_site_label_2
_geom_bond_site_symmetry_1
_geom_bond_site_symmetry_2
O1 C4 1_555 1_555
N1 C1 1_555 1_555
C1 N2 1_555 1_555
N2 C2 1_555 1_555
C2 C3 1_555 1_555
C3 C4 1_555 1_555
C4 C3G 1_555 1_555
C5 N1 1_555 1_555
C6 C3 1_555 1_555
C7 C6 1_555 1_555
C8 C7 1_555 1_555
C9 C8 1_555 1_555
C10 C9 1_555 1_555
C11 C6 1_555 1_555
Cl1 O2 1_555 1_555
O3 Cl1 1_555 1_555
O4 Cl1 1_555 1_555
O5 C15 1_555 1_555
N3 C12 1_555 1_555
C12 N4 1_555 1_555
N4 C13 1_555 1_555
C13 C14 1_555 1_555
C14 C15 1_555 1_555
C15 C14G 1_555 1_555
C16 N3 1_555 1_555
C17 C14 1_555 1_555
C18 C17 1_555 1_555
C19 C18 1_555 1_555
C20 C19 1_555 1_555
C21 C20 1_555 1_555
C22 C17 1_555 1_555
C5G N1 1_555 1_555
C3G C5G 1_555 1_555
C2G N2 1_555 1_555
C6G C3G 1_555 1_555
C7G C6G 1_555 1_555
C8G C7G 1_555 1_555
C9G C8G 1_555 1_555
C10G C9G 1_555 1_555
C11G C6G 1_555 1_555
O3G Cl1 1_555 1_555
C16G N3 1_555 1_555
C14G C16G 1_555 1_555
C13G N4 1_555 1_555
C17G C14G 1_555 1_555
C18G C17G 1_555 1_555
C19G C18G 1_555 1_555
C20G C19G 1_555 1_555
C21G C20G 1_555 1_555
C22G C17G 1_555 1_555
C3 C5 1_555 1_555
C10 C11 1_555 1_555
C14 C16 1_555 1_555
C21 C22 1_555 1_555
C3G C2G 1_555 1_555
C10G C11G 1_555 1_555
C14G C13G 1_555 1_555
C21G C22G 1_555 1_555

#END
