
#######################################################################
#
#                 Cambridge Crystallographic Data Centre
#                                CCDC 
#
#######################################################################
#
# If this CIF has been generated from an entry in the Cambridge 
# Structural Database, then it will include bibliographic, chemical, 
# crystal, experimental, refinement or atomic coordinate data resulting 
# from the CCDC's data processing and validation procedures.
#
#######################################################################

data_VOJVIB
_chemical_compound_source        'Angelica sinensis'
_chemical_name_common            endo-Z,Z'-3a,7'a:7a,3'a-Diligustilide
_chemical_formula_moiety         'C24 H28 O4'
_chemical_name_systematic        
15,18-Dibutylidene-14,17-dioxapentacyclo[6.4.3.3^2,7^.0^1,8^.0^2,7^]octadeca-5,11-diene-13,16-dione
_symmetry_cell_setting           triclinic
_symmetry_space_group_name_H-M   'P -1'
_symmetry_Int_Tables_number      2
_space_group_name_Hall           '-P 1'
loop_
_symmetry_equiv_pos_site_id
_symmetry_equiv_pos_as_xyz
1 x,y,z
2 -x,-y,-z
_cell_length_a                   8.4800(17)
_cell_length_b                   11.621(2)
_cell_length_c                   16.162(3)
_cell_angle_alpha                94.10(3)
_cell_angle_beta                 97.23(3)
_cell_angle_gamma                106.63(3)
_cell_volume                     1504.23
_cell_formula_units_Z            3
loop_
_atom_site_label
_atom_site_type_symbol
_atom_site_fract_x
_atom_site_fract_y
_atom_site_fract_z
O1 O 0.1097(3) 0.1693(3) -0.02087(15)
C1 C 0.2255(4) 0.2147(3) 0.0329(2)
O2 O 0.3760(3) 0.2769(2) 0.01426(14)
C2 C 0.4093(4) 0.3002(3) 0.1637(2)
C3 C 0.4921(4) 0.3281(3) 0.0879(2)
C4 C 0.2867(4) 0.1032(3) 0.15766(19)
C5 C 0.4119(4) 0.4143(3) 0.2176(2)
H1 H 0.5145 0.4401 0.2572
H2 H 0.4138 0.4777 0.1814
C6 C 0.2691(5) 0.4020(4) 0.2654(3)
H3 H 0.2611 0.4819 0.2816
H4 H 0.2917 0.3666 0.3165
C7 C 0.1044(5) 0.3258(4) 0.2171(3)
H5 H 0.0078 0.3389 0.2317
C8 C 0.4507(4) 0.1931(3) 0.2065(2)
C9 C 0.2337(4) 0.2149(3) 0.1260(2)
C10 C 0.0898(4) 0.2423(4) 0.1559(2)
H6 H -0.0165 0.1979 0.1297
C11 C 0.6419(4) 0.3938(3) 0.0801(2)
H7 H 0.7160 0.4281 0.1290
C12 C 0.7025(4) 0.4179(4) -0.0018(2)
H8 H 0.6072 0.3973 -0.0460
H9 H 0.7586 0.5037 0.0002
C13 C 0.8188(5) 0.3495(4) -0.0237(3)
H10 H 0.7682 0.2645 -0.0190
H11 H 0.9204 0.3775 0.0166
C14 C 0.8628(7) 0.3625(5) -0.1111(3)
H12 H 0.9365 0.3158 -0.1215
H13 H 0.9167 0.4460 -0.1158
H14 H 0.7631 0.3340 -0.1516
O3 O 0.5109(3) 0.2487(3) 0.35860(15)
O4 O 0.2747(3) 0.1092(2) 0.30337(13)
C15 C 0.4217(4) 0.1917(3) 0.2970(2)
C16 C 0.1943(4) 0.0475(3) 0.2243(2)
C17 C 0.3140(5) 0.0126(3) 0.0925(2)
H15 H 0.2111 -0.0522 0.0749
H16 H 0.3451 0.0522 0.0436
C18 C 0.4493(5) -0.0397(4) 0.1276(3)
H17 H 0.4717 -0.0908 0.0833
H18 H 0.4106 -0.0896 0.1709
C19 C 0.6090(5) 0.0584(4) 0.1643(3)
H19 H 0.7104 0.0431 0.1624
C20 C 0.6085(4) 0.1638(3) 0.1986(2)
H20 H 0.7096 0.2221 0.2187
C21 C 0.0572(5) -0.0422(4) 0.2199(2)
H21 H 0.0082 -0.0815 0.1668
C22 C -0.0281(6) -0.0878(5) 0.2916(3)
H22 H 0.0555 -0.0739 0.3411
H23 H -0.1019 -0.0403 0.3027
C23 C -0.1237(6) -0.2140(4) 0.2800(3)
H24 H -0.0967 -0.2679 0.3150
C24 C -0.2640(6) -0.2545(5) 0.2116(3)
H25 H -0.3136 -0.3402 0.2095
H26 H -0.2254 -0.2359 0.1594
H27 H -0.3453 -0.2140 0.2210
O5 O 0.0757(3) 0.5857(2) 0.35893(13)
O6 O -0.1778(3) 0.4691(2) 0.30459(14)
C25 C -0.0800(4) 0.5169(3) 0.3663(2)
C26 C 0.0681(4) 0.5979(3) 0.5056(2)
C27 C 0.1669(4) 0.6419(3) 0.43765(19)
C28 C 0.0554(4) 0.6995(3) 0.5674(2)
H28 H 0.0282 0.6679 0.6194
H29 H 0.1621 0.7617 0.5798
C29 C -0.0760(5) 0.7538(4) 0.5318(3)
H30 H -0.0884 0.8130 0.5740
H31 H -0.0409 0.7953 0.4842
C30 C -0.2405(5) 0.6591(4) 0.5044(3)
H32 H -0.3374 0.6789 0.5108
C31 C -0.1018(4) 0.5167(3) 0.45764(19)
C32 C -0.2534(4) 0.5497(3) 0.4717(2)
H33 H -0.3577 0.4928 0.4573
C33 C 0.3163(4) 0.7191(3) 0.4408(2)
H34 H 0.3742 0.7530 0.4937
C34 C 0.4009(5) 0.7571(4) 0.3678(2)
H35 H 0.3195 0.7333 0.3171
H36 H 0.4834 0.7149 0.3627
C35 C 0.4857(6) 0.8919(4) 0.3747(3)
H37 H 0.4064 0.9343 0.3865
H38 H 0.5194 0.9125 0.3211
C36 C 0.6375(6) 0.9351(4) 0.4426(3)
H39 H 0.6843 1.0210 0.4449
H40 H 0.7189 0.8963 0.4300
H41 H 0.6052 0.9151 0.4959
O5A O -0.0757(3) 0.4143(2) 0.64107(13)
O6A O 0.1778(3) 0.5309(2) 0.69541(14)
C25A C 0.0800(4) 0.4831(3) 0.6337(2)
C26A C -0.0681(4) 0.4021(3) 0.4944(2)
C27A C -0.1669(4) 0.3581(3) 0.56235(19)
C28A C -0.0554(4) 0.3005(3) 0.4326(2)
H28A H -0.0282 0.3321 0.3806
H29A H -0.1621 0.2383 0.4202
C29A C 0.0760(5) 0.2462(4) 0.4682(3)
H30A H 0.0884 0.1870 0.4260
H31A H 0.0409 0.2047 0.5158
C30A C 0.2405(5) 0.3409(4) 0.4956(3)
H32A H 0.3374 0.3211 0.4892
C31A C 0.1018(4) 0.4833(3) 0.54236(19)
C32A C 0.2534(4) 0.4503(3) 0.5283(2)
H33A H 0.3577 0.5072 0.5427
C33A C -0.3163(4) 0.2809(3) 0.5592(2)
H34A H -0.3742 0.2470 0.5063
C34A C -0.4009(5) 0.2429(4) 0.6322(2)
H35A H -0.3195 0.2667 0.6829
H36A H -0.4834 0.2851 0.6373
C35A C -0.4857(6) 0.1081(4) 0.6253(3)
H37A H -0.4064 0.0657 0.6135
H38A H -0.5194 0.0875 0.6789
C36A C -0.6375(6) 0.0649(4) 0.5574(3)
H39A H -0.6843 -0.0210 0.5551
H40A H -0.7189 0.1037 0.5700
H41A H -0.6052 0.0849 0.5041
loop_
_geom_bond_atom_site_label_1
_geom_bond_atom_site_label_2
_geom_bond_site_symmetry_1
_geom_bond_site_symmetry_2
O1 C1 1_555 1_555
C1 O2 1_555 1_555
O2 C3 1_555 1_555
C2 C3 1_555 1_555
C3 C11 1_555 1_555
C4 C8 1_555 1_555
C5 C2 1_555 1_555
H1 C5 1_555 1_555
H2 C5 1_555 1_555
C6 C5 1_555 1_555
H3 C6 1_555 1_555
H4 C6 1_555 1_555
C7 C6 1_555 1_555
H5 C7 1_555 1_555
C8 C2 1_555 1_555
C9 C1 1_555 1_555
C10 C7 1_555 1_555
H6 C10 1_555 1_555
C11 H7 1_555 1_555
C12 C11 1_555 1_555
H8 C12 1_555 1_555
H9 C12 1_555 1_555
C13 C12 1_555 1_555
H10 C13 1_555 1_555
H11 C13 1_555 1_555
C14 C13 1_555 1_555
H12 C14 1_555 1_555
H13 C14 1_555 1_555
H14 C14 1_555 1_555
O3 C15 1_555 1_555
O4 C15 1_555 1_555
C15 C8 1_555 1_555
C16 C4 1_555 1_555
C17 C4 1_555 1_555
H15 C17 1_555 1_555
H16 C17 1_555 1_555
C18 C17 1_555 1_555
H17 C18 1_555 1_555
H18 C18 1_555 1_555
C19 C18 1_555 1_555
H19 C19 1_555 1_555
C20 C8 1_555 1_555
H20 C20 1_555 1_555
C21 C16 1_555 1_555
H21 C21 1_555 1_555
C22 C21 1_555 1_555
H22 C22 1_555 1_555
H23 C22 1_555 1_555
C23 C22 1_555 1_555
H24 C23 1_555 1_555
C24 C23 1_555 1_555
H25 C24 1_555 1_555
H26 C24 1_555 1_555
H27 C24 1_555 1_555
O5 C25 1_555 1_555
O6 C25 1_555 1_555
C25 C31 1_555 1_555
C26 C27 1_555 1_555
C27 O5 1_555 1_555
C28 C26 1_555 1_555
H28 C28 1_555 1_555
H29 C28 1_555 1_555
C29 C28 1_555 1_555
H30 C29 1_555 1_555
H31 C29 1_555 1_555
C30 C29 1_555 1_555
H32 C30 1_555 1_555
C31 C26 1_555 1_555
C32 C30 1_555 1_555
H33 C32 1_555 1_555
C33 C27 1_555 1_555
H34 C33 1_555 1_555
C34 C33 1_555 1_555
H35 C34 1_555 1_555
H36 C34 1_555 1_555
C35 C34 1_555 1_555
H37 C35 1_555 1_555
H38 C35 1_555 1_555
C36 C35 1_555 1_555
H39 C36 1_555 1_555
H40 C36 1_555 1_555
H41 C36 1_555 1_555
O5A C25A 1_555 1_555
O6A C25A 1_555 1_555
C25A C31A 1_555 1_555
C26A C31 1_555 1_555
C27A O5A 1_555 1_555
C28A C26A 1_555 1_555
H28A C28A 1_555 1_555
H29A C28A 1_555 1_555
C29A C28A 1_555 1_555
H30A C29A 1_555 1_555
H31A C29A 1_555 1_555
C30A C29A 1_555 1_555
H32A C30A 1_555 1_555
C31A C26 1_555 1_555
C32A C30A 1_555 1_555
H33A C32A 1_555 1_555
C33A C27A 1_555 1_555
H34A C33A 1_555 1_555
C34A C33A 1_555 1_555
H35A C34A 1_555 1_555
H36A C34A 1_555 1_555
C35A C34A 1_555 1_555
H37A C35A 1_555 1_555
H38A C35A 1_555 1_555
C36A C35A 1_555 1_555
H39A C36A 1_555 1_555
H40A C36A 1_555 1_555
H41A C36A 1_555 1_555
C2 C9 1_555 1_555
C4 C9 1_555 1_555
C9 C10 1_555 1_555
O4 C16 1_555 1_555
C19 C20 1_555 1_555
C31 C32 1_555 1_555
C26A C27A 1_555 1_555
C26A C31A 1_555 1_555
C31A C32A 1_555 1_555

#END
