
#######################################################################
#
#                 Cambridge Crystallographic Data Centre
#                                CCDC 
#
#######################################################################
#
# If this CIF has been generated from an entry in the Cambridge 
# Structural Database, then it will include bibliographic, chemical, 
# crystal, experimental, refinement or atomic coordinate data resulting 
# from the CCDC's data processing and validation procedures.
#
#######################################################################

data_VOJYEZ
_chemical_formula_moiety         'C8 H10 Cl3 N3'
_chemical_name_systematic        3,5,6-trichloro-N,N-diethylpyridazin-4-amine
_symmetry_cell_setting           monoclinic
_symmetry_space_group_name_H-M   'P 21/c'
_symmetry_Int_Tables_number      14
_space_group_name_Hall           '-P 2ybc'
loop_
_symmetry_equiv_pos_site_id
_symmetry_equiv_pos_as_xyz
1 x,y,z
2 -x,1/2+y,1/2-z
3 -x,-y,-z
4 x,1/2-y,1/2+z
_cell_length_a                   9.8565(3)
_cell_length_b                   7.2922(3)
_cell_length_c                   15.0344(5)
_cell_angle_alpha                90
_cell_angle_beta                 94.56(1)
_cell_angle_gamma                90
_cell_volume                     1077.19
_exptl_crystal_colour            colorless
_exptl_crystal_description       prism
_chemical_melting_point          '52-54 deg.C'
_cell_formula_units_Z            4
_exptl_crystal_recrystallization_method hexane
loop_
_atom_site_label
_atom_site_type_symbol
_atom_site_fract_x
_atom_site_fract_y
_atom_site_fract_z
Cl1 Cl 0.76242(3) 0.24447(4) -0.10136(2)
Cl2 Cl 1.01945(3) 0.33173(4) 0.230315(17)
Cl3 Cl 1.28743(3) 0.25304(4) 0.13690(2)
N1 N 1.13557(10) 0.20167(15) -0.00809(7)
N2 N 1.01745(10) 0.19558(14) -0.06018(7)
N3 N 0.76306(9) 0.31810(13) 0.09620(7)
C1 C 0.90329(12) 0.23771(15) -0.02513(8)
C2 C 0.88836(11) 0.28398(14) 0.06592(7)
C3 C 1.01239(11) 0.29247(15) 0.11765(7)
C4 C 1.13140(11) 0.25118(14) 0.07601(8)
C5 C 0.65561(11) 0.17782(16) 0.08540(8)
C6 C 0.61860(13) 0.10348(18) 0.17450(9)
C7 C 0.74061(11) 0.47748(15) 0.15235(8)
C8 C 0.61221(12) 0.58017(18) 0.11906(9)
H1 H 0.5741(15) 0.2253(19) 0.0517(10)
H2 H 0.6913(13) 0.079(2) 0.0487(9)
H3 H 0.5473(14) 0.006(2) 0.1638(10)
H4 H 0.5829(15) 0.197(2) 0.2119(10)
H5 H 0.6935(15) 0.052(2) 0.2047(10)
H6 H 0.7401(13) 0.442(2) 0.2155(9)
H7 H 0.8177(14) 0.556(2) 0.1495(9)
H8 H 0.5287(14) 0.504(2) 0.1235(10)
H9 H 0.6109(15) 0.617(2) 0.0571(10)
H10 H 0.6073(17) 0.692(2) 0.1552(12)
loop_
_geom_bond_atom_site_label_1
_geom_bond_atom_site_label_2
_geom_bond_site_symmetry_1
_geom_bond_site_symmetry_2
Cl1 C1 1_555 1_555
Cl2 C3 1_555 1_555
Cl3 C4 1_555 1_555
N1 N2 1_555 1_555
N2 C1 1_555 1_555
N3 C2 1_555 1_555
C1 C2 1_555 1_555
C2 C3 1_555 1_555
C3 C4 1_555 1_555
C4 N1 1_555 1_555
C5 N3 1_555 1_555
C6 C5 1_555 1_555
C7 N3 1_555 1_555
C8 C7 1_555 1_555
H1 C5 1_555 1_555
H2 C5 1_555 1_555
H3 C6 1_555 1_555
H4 C6 1_555 1_555
H5 C6 1_555 1_555
H6 C7 1_555 1_555
H7 C7 1_555 1_555
H8 C8 1_555 1_555
H9 C8 1_555 1_555
H10 C8 1_555 1_555

#END
