
#######################################################################
#
#                 Cambridge Crystallographic Data Centre
#                                CCDC 
#
#######################################################################
#
# If this CIF has been generated from an entry in the Cambridge 
# Structural Database, then it will include bibliographic, chemical, 
# crystal, experimental, refinement or atomic coordinate data resulting 
# from the CCDC's data processing and validation procedures.
#
#######################################################################

data_VOJZEB
_chemical_formula_moiety         'C17 H12 Br1 Cl1 N4 O2'
_chemical_name_systematic        
3-(4-bromophenyl)-N'-(2-chlorobenzoyl)-1H-pyrazole-5-carbohydrazide
_symmetry_cell_setting           triclinic
_symmetry_space_group_name_H-M   'P -1'
_symmetry_Int_Tables_number      2
_space_group_name_Hall           '-P 1'
loop_
_symmetry_equiv_pos_site_id
_symmetry_equiv_pos_as_xyz
1 x,y,z
2 -x,-y,-z
_cell_length_a                   4.6083(12)
_cell_length_b                   7.0246(18)
_cell_length_c                   26.804(7)
_cell_angle_alpha                95.804(8)
_cell_angle_beta                 92.071(8)
_cell_angle_gamma                95.433(8)
_cell_volume                     858.443
_exptl_crystal_colour            white
_chemical_melting_point          '280-281 deg.C'
_cell_formula_units_Z            2
_exptl_crystal_recrystallization_method ethanol
loop_
_atom_site_label
_atom_site_type_symbol
_atom_site_fract_x
_atom_site_fract_y
_atom_site_fract_z
Br1 Br -0.9108(4) 0.1883(2) 0.46411(6)
Cl1 Cl 0.0291(10) 1.2182(6) 0.04577(16)
O1 O 0.063(2) 1.1527(11) 0.2629(3)
O2 O -0.0275(15) 1.1267(11) 0.1511(3)
N1 N -0.0162(18) 0.5343(11) 0.2839(3)
N2 N 0.1144(18) 0.6575(11) 0.2562(3)
H1 H 0.2233 0.6315 0.2315
N3 N 0.3268(17) 0.9704(12) 0.2120(4)
H2 H 0.3827 0.8578 0.2049
N4 N 0.4197(18) 1.1183(12) 0.1849(4)
H3 H 0.6003 1.1636 0.1868
C1 C -0.684(3) 0.3298(19) 0.4199(4)
C2 C -0.620(3) 0.5183(19) 0.4288(5)
H4 H -0.6949 0.5858 0.4563
C3 C -0.445(3) 0.6125(16) 0.3979(4)
H5 H -0.3906 0.7434 0.4057
C4 C -0.346(2) 0.5182(14) 0.3552(4)
C5 C -0.413(3) 0.3251(16) 0.3466(4)
H6 H -0.3371 0.2581 0.3192
C6 C -0.592(3) 0.2249(18) 0.3775(5)
H7 H -0.6485 0.0940 0.3703
C7 C -0.171(2) 0.6225(13) 0.3199(4)
C8 C -0.138(2) 0.8149(13) 0.3133(4)
H8 H -0.2196 0.9145 0.3315
C9 C 0.046(2) 0.8278(12) 0.2736(4)
C10 C 0.146(2) 1.0033(13) 0.2501(4)
C11 C 0.228(2) 1.1909(14) 0.1558(4)
C12 C 0.350(2) 1.3569(14) 0.1304(4)
C13 C 0.547(2) 1.4937(14) 0.1563(4)
H9 H 0.6111 1.4756 0.1887
C14 C 0.654(3) 1.6589(16) 0.1355(5)
H10 H 0.7877 1.7488 0.1540
C15 C 0.565(3) 1.6881(18) 0.0898(6)
H11 H 0.6367 1.7992 0.0764
C16 C 0.366(3) 1.5548(19) 0.0615(5)
H12 H 0.3052 1.5765 0.0293
C17 C 0.258(3) 1.3870(17) 0.0820(4)
loop_
_geom_bond_atom_site_label_1
_geom_bond_atom_site_label_2
_geom_bond_site_symmetry_1
_geom_bond_site_symmetry_2
Br1 C1 1_555 1_555
Cl1 C17 1_555 1_555
O1 C10 1_555 1_555
O2 C11 1_555 1_555
N1 N2 1_555 1_555
N2 H1 1_555 1_555
N3 H2 1_555 1_555
N4 N3 1_555 1_555
H3 N4 1_555 1_555
C1 C2 1_555 1_555
C2 H4 1_555 1_555
C3 C2 1_555 1_555
H5 C3 1_555 1_555
C4 C3 1_555 1_555
C5 C4 1_555 1_555
H6 C5 1_555 1_555
C6 C1 1_555 1_555
H7 C6 1_555 1_555
C7 N1 1_555 1_555
C8 C7 1_555 1_555
H8 C8 1_555 1_555
C9 N2 1_555 1_555
C10 N3 1_555 1_555
C11 N4 1_555 1_555
C12 C11 1_555 1_555
C13 C12 1_555 1_555
H9 C13 1_555 1_555
C14 C13 1_555 1_555
H10 C14 1_555 1_555
C15 C14 1_555 1_555
H11 C15 1_555 1_555
C16 C15 1_555 1_555
H12 C16 1_555 1_555
C17 C12 1_555 1_555
C4 C7 1_555 1_555
C5 C6 1_555 1_555
C8 C9 1_555 1_555
C9 C10 1_555 1_555
C16 C17 1_555 1_555

#END
