
#######################################################################
#
#                 Cambridge Crystallographic Data Centre
#                                CCDC 
#
#######################################################################
#
# If this CIF has been generated from an entry in the Cambridge 
# Structural Database, then it will include bibliographic, chemical, 
# crystal, experimental, refinement or atomic coordinate data resulting 
# from the CCDC's data processing and validation procedures.
#
#######################################################################

data_VOKGEH
_chemical_formula_moiety         'C25 H18 O2'
_chemical_name_systematic        7-(Benzyloxy)-2-phenylnaptho(2,3-b)furan
_symmetry_cell_setting           monoclinic
_symmetry_space_group_name_H-M   'P 21/n'
_symmetry_Int_Tables_number      14
_space_group_name_Hall           '-P 2yn'
loop_
_symmetry_equiv_pos_site_id
_symmetry_equiv_pos_as_xyz
1 x,y,z
2 1/2+x,1/2-y,1/2+z
3 -x,-y,-z
4 1/2-x,1/2+y,1/2-z
_cell_length_a                   7.4050(10)
_cell_length_b                   5.9660(10)
_cell_length_c                   39.162(4)
_cell_angle_alpha                90
_cell_angle_beta                 94.610(10)
_cell_angle_gamma                90
_cell_volume                     1724.51
_exptl_crystal_colour            colorless
_exptl_crystal_description       plate
_chemical_melting_point          220-221deg.C
_cell_formula_units_Z            4
loop_
_atom_site_label
_atom_site_type_symbol
_atom_site_fract_x
_atom_site_fract_y
_atom_site_fract_z
C1 C 0.6380(3) 0.4561(5) 0.42206(6)
C2 C 0.7329(3) 0.3495(5) 0.44985(7)
H1 H 0.7846 0.2040 0.4468
C3 C 0.7499(4) 0.4513(5) 0.48149(7)
H2 H 0.8168 0.3786 0.5004
C4 C 0.6725(4) 0.6604(6) 0.48608(7)
H3 H 0.6828 0.7312 0.5082
C5 C 0.5774(4) 0.7648(5) 0.45867(8)
H4 H 0.5254 0.9098 0.4620
C6 C 0.5600(3) 0.6636(5) 0.42690(7)
H5 H 0.4926 0.7375 0.4082
C7 C 0.6264(3) 0.3406(5) 0.38834(6)
C8 C 0.6891(3) 0.1448(5) 0.37793(7)
H6 H 0.7589 0.0376 0.3917
C9 C 0.6326(3) 0.1269(4) 0.34199(6)
C10 C 0.5384(3) 0.3249(4) 0.33313(6)
O1 O 0.5345(2) 0.4595(3) 0.36210(4)
C11 C 0.6528(3) -0.0340(4) 0.31640(7)
H7 H 0.7146 -0.1727 0.3217
C12 C 0.5798(3) 0.0123(4) 0.28256(6)
C13 C 0.4877(3) 0.2207(4) 0.27545(6)
C14 C 0.4657(3) 0.3767(4) 0.30160(6)
H8 H 0.4027 0.5156 0.2972
C15 C 0.6024(3) -0.1362(4) 0.25503(7)
H9 H 0.6590 -0.2787 0.2598
C16 C 0.5470(3) -0.0840(4) 0.22275(7)
H10 H 0.5673 -0.1878 0.2047
C17 C 0.4603(3) 0.1208(4) 0.21495(6)
C18 C 0.4250(3) 0.2697(4) 0.24032(7)
H11 H 0.3592 0.4053 0.2348
O2 O 0.4182(2) 0.1575(3) 0.18027(4)
C19 C 0.3538(4) 0.3728(4) 0.17029(7)
H12 H 0.4265 0.4854 0.1823
H13 H 0.2308 0.3901 0.1760
C20 C 0.3644(3) 0.3986(5) 0.13209(6)
C21 C 0.4317(3) 0.2303(4) 0.11146(7)
H14 H 0.4714 0.0898 0.1214
C22 C 0.4412(3) 0.2687(5) 0.07667(6)
H15 H 0.4876 0.1540 0.0626
C23 C 0.3834(3) 0.4708(5) 0.06238(7)
H16 H 0.3890 0.4954 0.0383
C24 C 0.3180(4) 0.6364(5) 0.08284(7)
H17 H 0.2774 0.7768 0.0730
C25 C 0.3091(3) 0.5991(5) 0.11721(7)
H18 H 0.2645 0.7146 0.1314
loop_
_geom_bond_atom_site_label_1
_geom_bond_atom_site_label_2
_geom_bond_site_symmetry_1
_geom_bond_site_symmetry_2
C1 C2 1_555 1_555
C2 H1 1_555 1_555
C3 C2 1_555 1_555
H2 C3 1_555 1_555
C4 C3 1_555 1_555
H3 C4 1_555 1_555
C5 C4 1_555 1_555
H4 C5 1_555 1_555
C6 C1 1_555 1_555
H5 C6 1_555 1_555
C7 C1 1_555 1_555
C8 C7 1_555 1_555
H6 C8 1_555 1_555
C9 C8 1_555 1_555
C10 C9 1_555 1_555
O1 C7 1_555 1_555
C11 C9 1_555 1_555
H7 C11 1_555 1_555
C12 C11 1_555 1_555
C13 C12 1_555 1_555
C14 C10 1_555 1_555
H8 C14 1_555 1_555
C15 C12 1_555 1_555
H9 C15 1_555 1_555
C16 C15 1_555 1_555
H10 C16 1_555 1_555
C17 C16 1_555 1_555
C18 C13 1_555 1_555
H11 C18 1_555 1_555
O2 C17 1_555 1_555
C19 O2 1_555 1_555
H12 C19 1_555 1_555
H13 C19 1_555 1_555
C20 C19 1_555 1_555
C21 C20 1_555 1_555
H14 C21 1_555 1_555
C22 C21 1_555 1_555
H15 C22 1_555 1_555
C23 C22 1_555 1_555
H16 C23 1_555 1_555
C24 C23 1_555 1_555
H17 C24 1_555 1_555
C25 C20 1_555 1_555
H18 C25 1_555 1_555
C5 C6 1_555 1_555
C10 O1 1_555 1_555
C13 C14 1_555 1_555
C17 C18 1_555 1_555
C24 C25 1_555 1_555

#END
