
#######################################################################
#
#                 Cambridge Crystallographic Data Centre
#                                CCDC 
#
#######################################################################
#
# If this CIF has been generated from an entry in the Cambridge 
# Structural Database, then it will include bibliographic, chemical, 
# crystal, experimental, refinement or atomic coordinate data resulting 
# from the CCDC's data processing and validation procedures.
#
#######################################################################

data_VOKKAJ
_chemical_formula_moiety         'C51 H53 B3 F2 O2'
_chemical_name_systematic        
(1,3-bis(4-(dimesitylboryl)phenyl)-3-(hydroxy)prop-2-en-1-onato)(difluoro)boron
_symmetry_cell_setting           monoclinic
_symmetry_space_group_name_H-M   'P 21'
_symmetry_Int_Tables_number      4
_space_group_name_Hall           'P 2yb'
loop_
_symmetry_equiv_pos_site_id
_symmetry_equiv_pos_as_xyz
1 x,y,z
2 -x,1/2+y,-z
_cell_length_a                   9.9391(16)
_cell_length_b                   16.595(3)
_cell_length_c                   14.119(2)
_cell_angle_alpha                90
_cell_angle_beta                 109.870(3)
_cell_angle_gamma                90
_cell_volume                     2190.14
_exptl_crystal_colour            yellow
_exptl_crystal_description       block
_cell_formula_units_Z            2
loop_
_atom_site_label
_atom_site_type_symbol
_atom_site_fract_x
_atom_site_fract_y
_atom_site_fract_z
B1 B -0.1685(11) 0.8345(7) 0.4388(8)
B2 B 0.5615(7) 1.0815(5) 0.6055(6)
B3 B -0.1882(8) 0.5276(5) -0.0013(5)
F1 F -0.2809(5) 0.8855(3) 0.4051(4)
F2 F -0.1749(6) 0.7899(4) 0.5149(4)
O1 O -0.1758(5) 0.7798(3) 0.3531(4)
O2 O -0.0353(5) 0.8806(3) 0.4695(3)
C1 C -0.0740(7) 0.7715(4) 0.3172(5)
C2 C 0.0482(6) 0.8172(4) 0.3520(5)
H1 H 0.1217 0.8112 0.3237
C3 C 0.0636(7) 0.8724(5) 0.4293(5)
C4 C 0.1904(7) 0.9244(4) 0.4714(5)
C5 C 0.2032(7) 0.9698(4) 0.5569(5)
H2 H 0.1306 0.9672 0.5864
C6 C 0.3193(7) 1.0178(5) 0.5983(5)
H3 H 0.3264 1.0475 0.6573
C7 C 0.4273(6) 1.0248(4) 0.5578(5)
C8 C 0.4127(7) 0.9796(4) 0.4714(5)
H4 H 0.4840 0.9838 0.4407
C9 C 0.2965(7) 0.9286(4) 0.4290(4)
H5 H 0.2903 0.8970 0.3716
C10 C 0.6074(4) 1.0980(3) 0.7250(2)
C11 C 0.6327(4) 1.0327(2) 0.7903(3)
C12 C 0.6578(4) 1.0451(3) 0.8923(3)
H6 H 0.6751 1.0004 0.9369
C13 C 0.6578(4) 1.1228(3) 0.9289(2)
C14 C 0.6326(4) 1.1882(2) 0.8636(3)
H7 H 0.6325 1.2413 0.8886
C15 C 0.6074(4) 1.1758(2) 0.7616(3)
C16 C 0.5794(7) 1.2487(4) 0.6954(5)
H8 H 0.6241 1.2959 0.7356
H9 H 0.4760 1.2574 0.6655
H10 H 0.6199 1.2405 0.6418
C17 C 0.6771(7) 1.1374(5) 1.0406(4)
H11 H 0.7391 1.1843 1.0653
H12 H 0.7209 1.0898 1.0802
H13 H 0.5836 1.1474 1.0474
C18 C 0.6399(8) 0.9455(4) 0.7603(5)
H14 H 0.6716 0.9117 0.8208
H15 H 0.7079 0.9405 0.7240
H16 H 0.5450 0.9279 0.7166
C19 C 0.6356(5) 1.1211(3) 0.5348(3)
C20 C 0.5580(4) 1.1725(3) 0.4579(4)
C21 C 0.6242(7) 1.2098(3) 0.3973(3)
H17 H 0.5711 1.2449 0.3447
C22 C 0.7681(7) 1.1956(3) 0.4135(4)
C23 C 0.8458(4) 1.1442(4) 0.4903(4)
H18 H 0.9442 1.1345 0.5014
C24 C 0.7796(5) 1.1070(3) 0.5510(3)
C25 C 0.8656(6) 1.0451(4) 0.6267(4)
H19 H 0.9675 1.0516 0.6366
H20 H 0.8346 0.9908 0.6014
H21 H 0.8501 1.0531 0.6910
C26 C 0.4022(8) 1.1911(6) 0.4344(6)
H22 H 0.3813 1.2449 0.4044
H23 H 0.3792 1.1895 0.4966
H24 H 0.3444 1.1510 0.3869
C27 C 0.8418(10) 1.2375(6) 0.3467(6)
H25 H 0.8065 1.2143 0.2788
H26 H 0.9455 1.2296 0.3758
H27 H 0.8202 1.2953 0.3430
C28 C -0.1005(6) 0.7109(4) 0.2362(4)
C29 C -0.2317(6) 0.6690(4) 0.2040(4)
H28 H -0.3026 0.6806 0.2332
C30 C -0.2566(6) 0.6114(4) 0.1303(4)
H29 H -0.3434 0.5818 0.1119
C31 C -0.1581(6) 0.5946(4) 0.0806(4)
C32 C -0.0304(6) 0.6393(4) 0.1124(5)
H30 H 0.0385 0.6305 0.0805
C33 C -0.0023(6) 0.6958(4) 0.1887(5)
H31 H 0.0856 0.7245 0.2088
C34 C -0.1058(4) 0.5262(3) -0.0798(3)
C35 C -0.1118(5) 0.5926(2) -0.1412(4)
C36 C -0.0394(5) 0.5913(3) -0.2099(3)
H32 H -0.0435 0.6366 -0.2518
C37 C 0.0389(5) 0.5236(4) -0.2172(3)
C38 C 0.0448(5) 0.4572(3) -0.1559(4)
H33 H 0.0983 0.4110 -0.1609
C39 C -0.0275(5) 0.4585(2) -0.0872(3)
C40 C -0.0208(8) 0.3832(5) -0.0249(6)
H34 H 0.0325 0.3412 -0.0459
H35 H -0.1181 0.3641 -0.0352
H36 H 0.0274 0.3955 0.0465
C41 C -0.1967(8) 0.6699(5) -0.1412(5)
H37 H -0.2859 0.6561 -0.1298
H38 H -0.2188 0.6971 -0.2063
H39 H -0.1395 0.7057 -0.0874
C42 C 0.1269(9) 0.5235(6) -0.2863(6)
H40 H 0.1645 0.4692 -0.2886
H41 H 0.2065 0.5614 -0.2607
H42 H 0.0665 0.5397 -0.3542
C43 C -0.3029(4) 0.4596(3) -0.0019(4)
C44 C -0.4240(5) 0.4485(3) -0.0864(3)
C45 C -0.5303(4) 0.3954(3) -0.0829(3)
H43 H -0.6131 0.3878 -0.1406
C46 C -0.5153(5) 0.3533(3) 0.0053(4)
C47 C -0.3941(6) 0.3644(3) 0.0898(3)
H44 H -0.3839 0.3356 0.1500
C48 C -0.2879(4) 0.4175(3) 0.0862(3)
C49 C -0.1540(7) 0.4229(5) 0.1805(5)
H45 H -0.1819 0.4368 0.2388
H46 H -0.0899 0.4645 0.1709
H47 H -0.1046 0.3708 0.1923
C50 C -0.4458(7) 0.4913(5) -0.1859(5)
H48 H -0.5313 0.4699 -0.2376
H49 H -0.3621 0.4824 -0.2064
H50 H -0.4579 0.5492 -0.1777
C51 C -0.6291(8) 0.2970(5) 0.0145(6)
H51 H -0.6608 0.2615 -0.0445
H52 H -0.7105 0.3284 0.0183
H53 H -0.5899 0.2644 0.0756
loop_
_geom_bond_atom_site_label_1
_geom_bond_atom_site_label_2
_geom_bond_site_symmetry_1
_geom_bond_site_symmetry_2
B1 F1 1_555 1_555
B2 C7 1_555 1_555
B3 C31 1_555 1_555
F2 B1 1_555 1_555
O1 B1 1_555 1_555
O2 B1 1_555 1_555
C1 O1 1_555 1_555
C2 C1 1_555 1_555
H1 C2 1_555 1_555
C3 O2 1_555 1_555
C4 C3 1_555 1_555
C5 C4 1_555 1_555
H2 C5 1_555 1_555
C6 C5 1_555 1_555
H3 C6 1_555 1_555
C7 C6 1_555 1_555
C8 C7 1_555 1_555
H4 C8 1_555 1_555
C9 C4 1_555 1_555
H5 C9 1_555 1_555
C10 B2 1_555 1_555
C11 C10 1_555 1_555
C12 C11 1_555 1_555
H6 C12 1_555 1_555
C13 C12 1_555 1_555
C14 C13 1_555 1_555
H7 C14 1_555 1_555
C15 C10 1_555 1_555
C16 C15 1_555 1_555
H8 C16 1_555 1_555
H9 C16 1_555 1_555
H10 C16 1_555 1_555
C17 C13 1_555 1_555
H11 C17 1_555 1_555
H12 C17 1_555 1_555
H13 C17 1_555 1_555
C18 C11 1_555 1_555
H14 C18 1_555 1_555
H15 C18 1_555 1_555
H16 C18 1_555 1_555
C19 B2 1_555 1_555
C20 C19 1_555 1_555
C21 C20 1_555 1_555
H17 C21 1_555 1_555
C22 C21 1_555 1_555
C23 C22 1_555 1_555
H18 C23 1_555 1_555
C24 C19 1_555 1_555
C25 C24 1_555 1_555
H19 C25 1_555 1_555
H20 C25 1_555 1_555
H21 C25 1_555 1_555
C26 C20 1_555 1_555
H22 C26 1_555 1_555
H23 C26 1_555 1_555
H24 C26 1_555 1_555
C27 C22 1_555 1_555
H25 C27 1_555 1_555
H26 C27 1_555 1_555
H27 C27 1_555 1_555
C28 C1 1_555 1_555
C29 C28 1_555 1_555
H28 C29 1_555 1_555
C30 C29 1_555 1_555
H29 C30 1_555 1_555
C31 C30 1_555 1_555
C32 C31 1_555 1_555
H30 C32 1_555 1_555
C33 C28 1_555 1_555
H31 C33 1_555 1_555
C34 B3 1_555 1_555
C35 C34 1_555 1_555
C36 C35 1_555 1_555
H32 C36 1_555 1_555
C37 C36 1_555 1_555
C38 C37 1_555 1_555
H33 C38 1_555 1_555
C39 C34 1_555 1_555
C40 C39 1_555 1_555
H34 C40 1_555 1_555
H35 C40 1_555 1_555
H36 C40 1_555 1_555
C41 C35 1_555 1_555
H37 C41 1_555 1_555
H38 C41 1_555 1_555
H39 C41 1_555 1_555
C42 C37 1_555 1_555
H40 C42 1_555 1_555
H41 C42 1_555 1_555
H42 C42 1_555 1_555
C43 B3 1_555 1_555
C44 C43 1_555 1_555
C45 C44 1_555 1_555
H43 C45 1_555 1_555
C46 C45 1_555 1_555
C47 C46 1_555 1_555
H44 C47 1_555 1_555
C48 C43 1_555 1_555
C49 C48 1_555 1_555
H45 C49 1_555 1_555
H46 C49 1_555 1_555
H47 C49 1_555 1_555
C50 C44 1_555 1_555
H48 C50 1_555 1_555
H49 C50 1_555 1_555
H50 C50 1_555 1_555
C51 C46 1_555 1_555
H51 C51 1_555 1_555
H52 C51 1_555 1_555
H53 C51 1_555 1_555
C2 C3 1_555 1_555
C8 C9 1_555 1_555
C14 C15 1_555 1_555
C23 C24 1_555 1_555
C32 C33 1_555 1_555
C38 C39 1_555 1_555
C47 C48 1_555 1_555

#END
