
#######################################################################
#
#                 Cambridge Crystallographic Data Centre
#                                CCDC 
#
#######################################################################
#
# If this CIF has been generated from an entry in the Cambridge 
# Structural Database, then it will include bibliographic, chemical, 
# crystal, experimental, refinement or atomic coordinate data resulting 
# from the CCDC's data processing and validation procedures.
#
#######################################################################

data_VOKLIQ
_chemical_formula_moiety         'C54 H38 O8'
_chemical_name_systematic        
"(+-)-Dimethyl 3,3'-((7,7'-bis(benzyloxy)-2,2'-dihydroxy-1,1'-binaphthalene-3,3'-diyl)bis(ethyne-1,2-diyl))bis(benzoate)"
_symmetry_cell_setting           monoclinic
_symmetry_space_group_name_H-M   'P 2/n'
_symmetry_Int_Tables_number      13
_space_group_name_Hall           '-P 2yac'
loop_
_symmetry_equiv_pos_site_id
_symmetry_equiv_pos_as_xyz
1 x,y,z
2 1/2+x,-y,1/2+z
3 -x,-y,-z
4 1/2-x,y,1/2-z
_cell_length_a                   11.126(2)
_cell_length_b                   13.556(3)
_cell_length_c                   17.716(4)
_cell_angle_alpha                90
_cell_angle_beta                 99.03(3)
_cell_angle_gamma                90
_cell_volume                     2638.88
_exptl_crystal_colour            yellow
_chemical_melting_point          86deg.C.(dec.)
_cell_formula_units_Z            2
_exptl_crystal_recrystallization_method dichloromethane/hexane
loop_
_atom_site_label
_atom_site_type_symbol
_atom_site_fract_x
_atom_site_fract_y
_atom_site_fract_z
C1 C 0.1814(3) 0.1950(3) 0.2414(2)
C2 C 0.1205(3) 0.2594(3) 0.1847(2)
C3 C -0.0096(4) 0.2591(3) 0.1708(3)
C4 C -0.0721(3) 0.1978(3) 0.2150(3)
H1 H -0.1594(3) 0.1978(3) 0.2054(3)
C5 C -0.0134(4) 0.1368(3) 0.2712(3)
C6 C 0.1166(4) 0.1340(3) 0.2822(3)
O1 O 0.1678(3) 0.0689(3) 0.3354(2)
H2 H 0.2419(3) 0.0611(3) 0.3303(2)
C7 C 0.1832(3) 0.3232(3) 0.1421(3)
H3 H 0.2704(3) 0.3267(3) 0.1524(3)
C8 C 0.1211(4) 0.3821(3) 0.0860(3)
C9 C -0.0074(4) 0.3797(4) 0.0710(3)
H4 H -0.0497(4) 0.4195(4) 0.0306(3)
C10 C -0.0697(4) 0.3208(4) 0.1121(3)
H5 H -0.1571(4) 0.3216(4) 0.1021(3)
O2 O 0.1720(3) 0.4465(3) 0.0410(2)
C11 C 0.3025(4) 0.4546(4) 0.0517(4)
H6 H 0.3390(4) 0.3908(4) 0.0494(4)
H7 H 0.3314(4) 0.4833(4) 0.1008(4)
C12 C 0.3361(4) 0.5198(4) -0.0100(3)
C13 C 0.3777(4) 0.6136(5) 0.0068(4)
H8 H 0.3843(4) 0.6383(5) 0.0581(4)
C14 C 0.4112(5) 0.6725(7) -0.0517(7)
H9 H 0.4386(5) 0.7391(7) -0.0423(7)
C15 C 0.4041(7) 0.6341(11) -0.1239(8)
H10 H 0.4306(7) 0.6725(11) -0.1638(8)
C16 C 0.3626(7) 0.5430(9) -0.1394(5)
H11 H 0.3547(7) 0.5182(9) -0.1907(5)
C17 C 0.3291(5) 0.4845(6) -0.0833(4)
H12 H 0.3004(5) 0.4186(6) -0.0946(4)
C18 C -0.0799(4) 0.0772(4) 0.3168(3)
C19 C -0.1377(4) 0.0289(4) 0.3541(3)
C20 C -0.2083(4) -0.0321(4) 0.3972(3)
C21 C -0.1526(5) -0.0972(5) 0.4523(3)
H13 H -0.0654(5) -0.1018(5) 0.4621(3)
C22 C -0.2199(5) -0.1554(5) 0.4934(4)
H14 H -0.1801(5) -0.2019(5) 0.5298(4)
C23 C -0.3457(5) -0.1490(5) 0.4815(4)
H15 H -0.3926(5) -0.1890(5) 0.5109(4)
C24 C -0.4033(5) -0.0836(4) 0.4280(3)
C25 C -0.3355(4) -0.0249(4) 0.3870(3)
H16 H -0.3763(4) 0.0211(4) 0.3504(3)
C26 C -0.5381(5) -0.0715(5) 0.4134(4)
O3 O -0.5915(3) -0.0113(4) 0.3709(3)
O4 O -0.5926(4) -0.1350(3) 0.4536(3)
C27 C -0.7259(6) -0.1326(7) 0.4400(7)
H17 H -0.7572(6) -0.1805(7) 0.4718(7)
H18 H -0.7537(6) -0.0681(7) 0.4514(7)
H19 H -0.7540(6) -0.1478(7) 0.3873(7)
C1C C 0.3186(3) 0.1950(3) 0.2586(2)
C2C C 0.3795(3) 0.2594(3) 0.3153(2)
C3C C 0.5096(4) 0.2591(3) 0.3292(3)
C4C C 0.5721(3) 0.1978(3) 0.2850(3)
H1C H 0.6594(3) 0.1978(3) 0.2946(3)
C5C C 0.5134(4) 0.1368(3) 0.2288(3)
C6C C 0.3834(4) 0.1340(3) 0.2178(3)
O1C O 0.3322(3) 0.0689(3) 0.1646(2)
H2C H 0.2581(3) 0.0611(3) 0.1697(2)
C18C C 0.5799(4) 0.0772(4) 0.1832(3)
C19C C 0.6377(4) 0.0289(4) 0.1459(3)
C20C C 0.7083(4) -0.0321(4) 0.1028(3)
C21C C 0.6526(5) -0.0972(5) 0.0477(3)
H13C H 0.5654(5) -0.1018(5) 0.0379(3)
C22C C 0.7199(5) -0.1554(5) 0.0066(4)
H14C H 0.6801(5) -0.2019(5) -0.0298(4)
C23C C 0.8457(5) -0.1490(5) 0.0185(4)
H15C H 0.8926(5) -0.1890(5) -0.0109(4)
C24C C 0.9033(5) -0.0836(4) 0.0720(3)
C25C C 0.8355(4) -0.0249(4) 0.1130(3)
H16C H 0.8763(4) 0.0211(4) 0.1496(3)
C26C C 1.0381(5) -0.0715(5) 0.0866(4)
O3C O 1.0915(3) -0.0113(4) 0.1291(3)
O4C O 1.0926(4) -0.1350(3) 0.0464(3)
C27C C 1.2259(6) -0.1326(7) 0.0600(7)
H17C H 1.2572(6) -0.1805(7) 0.0282(7)
H18C H 1.2537(6) -0.0681(7) 0.0486(7)
H19C H 1.2540(6) -0.1478(7) 0.1127(7)
C10C C 0.5697(4) 0.3208(4) 0.3879(3)
C9C C 0.5074(4) 0.3797(4) 0.4290(3)
C8C C 0.3789(4) 0.3821(3) 0.4140(3)
C7C C 0.3168(3) 0.3232(3) 0.3579(3)
H3C H 0.2296(3) 0.3267(3) 0.3476(3)
O2C O 0.3280(3) 0.4465(3) 0.4590(2)
C11C C 0.1975(4) 0.4546(4) 0.4483(4)
H6C H 0.1610(4) 0.3908(4) 0.4506(4)
H7C H 0.1686(4) 0.4833(4) 0.3992(4)
C12C C 0.1639(4) 0.5198(4) 0.5100(3)
C13C C 0.1223(4) 0.6136(5) 0.4932(4)
H8C H 0.1157(4) 0.6383(5) 0.4419(4)
C14C C 0.0888(5) 0.6725(7) 0.5517(7)
H9C H 0.0614(5) 0.7391(7) 0.5423(7)
C15C C 0.0959(7) 0.6341(11) 0.6239(8)
H10C H 0.0694(7) 0.6725(11) 0.6638(8)
C16C C 0.1374(7) 0.5430(9) 0.6394(5)
H11C H 0.1453(7) 0.5182(9) 0.6907(5)
C17C C 0.1709(5) 0.4845(6) 0.5833(4)
H12C H 0.1996(5) 0.4186(6) 0.5946(4)
H4C H 0.5497(4) 0.4195(4) 0.4694(3)
H5C H 0.6571(4) 0.3216(4) 0.3979(3)
loop_
_geom_bond_atom_site_label_1
_geom_bond_atom_site_label_2
_geom_bond_site_symmetry_1
_geom_bond_site_symmetry_2
C1 C2 1_555 1_555
C2 C3 1_555 1_555
C3 C4 1_555 1_555
C4 H1 1_555 1_555
C5 C4 1_555 1_555
C6 C1 1_555 1_555
O1 C6 1_555 1_555
H2 O1 1_555 1_555
C7 C2 1_555 1_555
H3 C7 1_555 1_555
C8 C7 1_555 1_555
C9 C8 1_555 1_555
H4 C9 1_555 1_555
C10 C3 1_555 1_555
H5 C10 1_555 1_555
O2 C8 1_555 1_555
C11 O2 1_555 1_555
H6 C11 1_555 1_555
H7 C11 1_555 1_555
C12 C11 1_555 1_555
C13 C12 1_555 1_555
H8 C13 1_555 1_555
C14 C13 1_555 1_555
H9 C14 1_555 1_555
C15 C14 1_555 1_555
H10 C15 1_555 1_555
C16 C15 1_555 1_555
H11 C16 1_555 1_555
C17 C12 1_555 1_555
H12 C17 1_555 1_555
C18 C5 1_555 1_555
C19 C18 1_555 1_555
C20 C19 1_555 1_555
C21 C20 1_555 1_555
H13 C21 1_555 1_555
C22 C21 1_555 1_555
H14 C22 1_555 1_555
C23 C22 1_555 1_555
H15 C23 1_555 1_555
C24 C23 1_555 1_555
C25 C20 1_555 1_555
H16 C25 1_555 1_555
C26 C24 1_555 1_555
O3 C26 1_555 1_555
O4 C26 1_555 1_555
C27 O4 1_555 1_555
H17 C27 1_555 1_555
H18 C27 1_555 1_555
H19 C27 1_555 1_555
C1C C1 1_555 1_555
C2C C1C 1_555 1_555
C3C C2C 1_555 1_555
C4C C3C 1_555 1_555
H1C C4C 1_555 1_555
C5C C4C 1_555 1_555
C6C C1C 1_555 1_555
O1C C6C 1_555 1_555
H2C O1C 1_555 1_555
C18C C5C 1_555 1_555
C19C C18C 1_555 1_555
C20C C19C 1_555 1_555
C21C C20C 1_555 1_555
H13C C21C 1_555 1_555
C22C C21C 1_555 1_555
H14C C22C 1_555 1_555
C23C C22C 1_555 1_555
H15C C23C 1_555 1_555
C24C C23C 1_555 1_555
C25C C20C 1_555 1_555
H16C C25C 1_555 1_555
C26C C24C 1_555 1_555
O3C C26C 1_555 1_555
O4C C26C 1_555 1_555
C27C O4C 1_555 1_555
H17C C27C 1_555 1_555
H18C C27C 1_555 1_555
H19C C27C 1_555 1_555
C10C C3C 1_555 1_555
C9C C10C 1_555 1_555
C8C C9C 1_555 1_555
C7C C2C 1_555 1_555
H3C C7C 1_555 1_555
O2C C8C 1_555 1_555
C11C O2C 1_555 1_555
H6C C11C 1_555 1_555
H7C C11C 1_555 1_555
C12C C11C 1_555 1_555
C13C C12C 1_555 1_555
H8C C13C 1_555 1_555
C14C C13C 1_555 1_555
H9C C14C 1_555 1_555
C15C C14C 1_555 1_555
H10C C15C 1_555 1_555
C16C C15C 1_555 1_555
H11C C16C 1_555 1_555
C17C C12C 1_555 1_555
H12C C17C 1_555 1_555
H4C C9C 1_555 1_555
H5C C10C 1_555 1_555
C5 C6 1_555 1_555
C9 C10 1_555 1_555
C16 C17 1_555 1_555
C24 C25 1_555 1_555
C5C C6C 1_555 1_555
C24C C25C 1_555 1_555
C8C C7C 1_555 1_555
C16C C17C 1_555 1_555

#END
