
#######################################################################
#
#                 Cambridge Crystallographic Data Centre
#                                CCDC 
#
#######################################################################
#
# If this CIF has been generated from an entry in the Cambridge 
# Structural Database, then it will include bibliographic, chemical, 
# crystal, experimental, refinement or atomic coordinate data resulting 
# from the CCDC's data processing and validation procedures.
#
#######################################################################

data_VOKPEQ
_chemical_formula_moiety         'C23 H14 O2'
_chemical_name_systematic        
(Z)-3-Benzylidene-1,3-dihydro-6-(2-phenylethynyl)isobenzofuran-1-one
_symmetry_cell_setting           triclinic
_symmetry_space_group_name_H-M   'P 1'
_symmetry_Int_Tables_number      1
_space_group_name_Hall           'P 1'
loop_
_symmetry_equiv_pos_site_id
_symmetry_equiv_pos_as_xyz
1 x,y,z
_cell_length_a                   8.535(2)
_cell_length_b                   9.915(2)
_cell_length_c                   15.536(3)
_cell_angle_alpha                80.14(2)
_cell_angle_beta                 80.900(10)
_cell_angle_gamma                71.33(2)
_cell_volume                     1219.6
_exptl_crystal_colour            yellow
_chemical_melting_point          169-170deg.C
_cell_formula_units_Z            3
_exptl_crystal_recrystallization_method perdeuteromethanol
loop_
_atom_site_label
_atom_site_type_symbol
_atom_site_fract_x
_atom_site_fract_y
_atom_site_fract_z
C1 C 0.5933(8) 0.3678(8) -0.4283(4)
C2 C 0.4666(7) 0.4442(8) -0.4828(4)
H1 H 0.3890 0.5326 -0.4688
C3 C 0.4515(7) 0.3803(9) -0.5516(4)
H2 H 0.3733 0.4332 -0.5913
C4 C 0.5560(9) 0.2486(9) -0.5682(4)
H3 H 0.5456 0.2035 -0.6160
C5 C 0.6781(10) 0.1772(9) -0.5160(5)
H4 H 0.7477 0.0836 -0.5259
C6 C 0.7015(8) 0.2366(9) -0.4429(4)
H5 H 0.7848 0.1862 -0.4055
C7 C 0.6046(8) 0.4332(8) -0.3526(4)
C8 C 0.6119(7) 0.4868(7) -0.2895(4)
C9 C 0.6241(7) 0.5463(7) -0.2166(4)
C10 C 0.7405(8) 0.4809(8) -0.1593(4)
H6 H 0.8120 0.3861 -0.1637
C11 C 0.7444(9) 0.5505(10) -0.0883(4)
C12 C 0.6381(11) 0.6826(11) -0.0775(4)
C13 C 0.5140(9) 0.7531(9) -0.1336(5)
H7 H 0.4369 0.8445 -0.1254
C14 C 0.5078(8) 0.6854(7) -0.2021(4)
H8 H 0.4253 0.7310 -0.2408
C15 C 0.8608(8) 0.4914(10) -0.0175(4)
O1 O 0.8214(5) 0.5971(5) 0.0385(3)
C16 C 0.6934(12) 0.7045(12) 0.0042(7)
O2 O 0.9590(6) 0.3812(6) -0.0034(4)
C17 C 0.6281(10) 0.8227(10) 0.0458(6)
H9 H 0.5460 0.8896 0.0129
C18 C 0.6728(11) 0.8451(11) 0.1277(5)
C19 C 0.7947(9) 0.7667(9) 0.1752(5)
H10 H 0.8626 0.6782 0.1557
C20 C 0.8215(9) 0.8073(8) 0.2535(5)
H11 H 0.9059 0.7458 0.2872
C21 C 0.7199(9) 0.9377(9) 0.2771(5)
H12 H 0.7349 0.9698 0.3291
C22 C 0.5885(9) 1.0199(9) 0.2289(5)
H13 H 0.5240 1.1126 0.2434
C23 C 0.5631(9) 0.9813(10) 0.1604(6)
H14 H 0.4738 1.0392 0.1294
C24 C 1.0858(8) 0.8451(8) 0.9901(4)
C25 C 1.2067(8) 0.7739(7) 1.0441(4)
H15 H 1.2718 0.6790 1.0342
C26 C 1.2276(9) 0.8315(9) 1.1162(5)
H16 H 1.3135 0.7803 1.1519
C27 C 1.1206(9) 0.9675(9) 1.1337(5)
H17 H 1.1365 1.0075 1.1825
C28 C 0.9945(8) 1.0404(7) 1.0805(4)
H18 H 0.9261 1.1334 1.0926
C29 C 0.9803(9) 0.9823(8) 1.0114(5)
H19 H 0.8915 1.0312 0.9770
C30 C 1.0675(7) 0.7876(7) 0.9167(4)
C31 C 1.0584(7) 0.7376(8) 0.8550(4)
C32 C 1.0549(8) 0.6652(9) 0.7804(4)
C33 C 0.9312(8) 0.7408(9) 0.7221(4)
H20 H 0.8569 0.8328 0.7317
C34 C 0.9261(7) 0.6694(8) 0.6561(4)
C35 C 1.0358(8) 0.5331(7) 0.6406(4)
C36 C 1.1571(9) 0.4628(8) 0.6975(5)
H21 H 1.2314 0.3714 0.6865
C37 C 1.1616(8) 0.5328(8) 0.7686(4)
H22 H 1.2405 0.4870 0.8092
C38 C 0.8218(8) 0.7214(8) 0.5848(4)
O3 O 0.8576(5) 0.6194(6) 0.5276(3)
C39 C 0.9903(7) 0.5020(7) 0.5607(4)
O4 O 0.7153(6) 0.8360(6) 0.5694(4)
C40 C 1.0641(9) 0.3868(9) 0.5181(5)
H23 H 1.1516 0.3141 0.5441
C41 C 1.0204(10) 0.3569(9) 0.4369(5)
C42 C 0.8842(9) 0.4507(10) 0.3855(5)
H24 H 0.8211 0.5428 0.4016
C43 C 0.8626(9) 0.4012(10) 0.3123(5)
H25 H 0.7728 0.4561 0.2801
C44 C 0.9655(9) 0.2736(10) 0.2842(5)
H26 H 0.9503 0.2435 0.2316
C45 C 1.0902(11) 0.1864(11) 0.3333(6)
H27 H 1.1562 0.0967 0.3148
C46 C 1.1153(12) 0.2360(10) 0.4114(5)
H28 H 1.2009 0.1763 0.4450
C47 C 0.2831(8) -0.1232(7) 0.5032(4)
C48 C 0.1209(8) -0.1313(9) 0.4962(5)
H29 H 0.0316 -0.1003 0.5393
C49 C 0.0994(9) -0.1855(10) 0.4247(5)
H30 H -0.0049 -0.1983 0.4190
C50 C 0.2360(9) -0.2364(9) 0.3606(4)
H31 H 0.2203 -0.2749 0.3111
C51 C 0.3870(9) -0.2248(9) 0.3681(5)
H32 H 0.4761 -0.2537 0.3240
C52 C 0.4109(8) -0.1705(8) 0.4414(4)
H33 H 0.5185 -0.1631 0.4453
C53 C 0.3041(9) -0.0627(7) 0.5765(4)
C54 C 0.2891(12) -0.0060(8) 0.6403(4)
C55 C 0.3230(8) 0.0506(7) 0.7110(4)
C56 C 0.4773(7) 0.0609(7) 0.7174(4)
H34 H 0.5723 0.0246 0.6778
C57 C 0.4943(7) 0.1188(7) 0.7915(4)
C58 C 0.3617(7) 0.1641(7) 0.8541(5)
C59 C 0.2040(8) 0.1550(8) 0.8468(5)
H35 H 0.1146 0.1823 0.8910
C60 C 0.1876(8) 0.0978(8) 0.7764(5)
H36 H 0.0817 0.0924 0.7673
C61 C 0.6479(6) 0.1365(6) 0.8197(4)
O5 O 0.6021(8) 0.1975(8) 0.8999(5)
C62 C 0.4077(10) 0.2226(10) 0.9238(6)
O6 O 0.7946(7) 0.1055(10) 0.7858(5)
C63 C 0.3543(10) 0.2778(9) 0.9898(5)
H37 H 0.2391 0.2855 1.0001
C64 C 0.3985(7) 0.3352(9) 1.0607(4)
C65 C 0.5527(8) 0.3417(8) 1.0690(4)
H38 H 0.6398 0.3132 1.0238
C66 C 0.5833(9) 0.3980(9) 1.1385(5)
H39 H 0.6926 0.4000 1.1439
C67 C 0.4578(9) 0.4435(9) 1.2016(5)
H40 H 0.4788 0.4787 1.2497
C68 C 0.2946(9) 0.4394(9) 1.1968(4)
H41 H 0.2075 0.4738 1.2404
C69 C 0.2661(8) 0.3843(9) 1.1278(5)
H42 H 0.1595 0.3769 1.1217
loop_
_geom_bond_atom_site_label_1
_geom_bond_atom_site_label_2
_geom_bond_site_symmetry_1
_geom_bond_site_symmetry_2
C1 C2 1_555 1_555
C2 H1 1_555 1_555
C3 C2 1_555 1_555
H2 C3 1_555 1_555
C4 C3 1_555 1_555
H3 C4 1_555 1_555
C5 C4 1_555 1_555
H4 C5 1_555 1_555
C6 C1 1_555 1_555
H5 C6 1_555 1_555
C7 C1 1_555 1_555
C8 C7 1_555 1_555
C9 C8 1_555 1_555
C10 C9 1_555 1_555
H6 C10 1_555 1_555
C11 C10 1_555 1_555
C12 C11 1_555 1_555
C13 C12 1_555 1_555
H7 C13 1_555 1_555
C14 C9 1_555 1_555
H8 C14 1_555 1_555
C15 C11 1_555 1_555
O1 C15 1_555 1_555
C16 C12 1_555 1_555
O2 C15 1_555 1_555
C17 C16 1_555 1_555
H9 C17 1_555 1_555
C18 C17 1_555 1_555
C19 C18 1_555 1_555
H10 C19 1_555 1_555
C20 C19 1_555 1_555
H11 C20 1_555 1_555
C21 C20 1_555 1_555
H12 C21 1_555 1_555
C22 C21 1_555 1_555
H13 C22 1_555 1_555
C23 C18 1_555 1_555
H14 C23 1_555 1_555
C24 C25 1_555 1_555
C25 H15 1_555 1_555
C26 C25 1_555 1_555
H16 C26 1_555 1_555
C27 C26 1_555 1_555
H17 C27 1_555 1_555
C28 C27 1_555 1_555
H18 C28 1_555 1_555
C29 C24 1_555 1_555
H19 C29 1_555 1_555
C30 C24 1_555 1_555
C31 C30 1_555 1_555
C32 C31 1_555 1_555
C33 C32 1_555 1_555
H20 C33 1_555 1_555
C34 C33 1_555 1_555
C35 C34 1_555 1_555
C36 C35 1_555 1_555
H21 C36 1_555 1_555
C37 C32 1_555 1_555
H22 C37 1_555 1_555
C38 C34 1_555 1_555
O3 C38 1_555 1_555
C39 C35 1_555 1_555
O4 C38 1_555 1_555
C40 C39 1_555 1_555
H23 C40 1_555 1_555
C41 C40 1_555 1_555
C42 C41 1_555 1_555
H24 C42 1_555 1_555
C43 C42 1_555 1_555
H25 C43 1_555 1_555
C44 C43 1_555 1_555
H26 C44 1_555 1_555
C45 C44 1_555 1_555
H27 C45 1_555 1_555
C46 C41 1_555 1_555
H28 C46 1_555 1_555
C47 C48 1_555 1_555
C48 H29 1_555 1_555
C49 C48 1_555 1_555
H30 C49 1_555 1_555
C50 C49 1_555 1_555
H31 C50 1_555 1_555
C51 C50 1_555 1_555
H32 C51 1_555 1_555
C52 C47 1_555 1_555
H33 C52 1_555 1_555
C53 C47 1_555 1_555
C54 C53 1_555 1_555
C55 C54 1_555 1_555
C56 C55 1_555 1_555
H34 C56 1_555 1_555
C57 C56 1_555 1_555
C58 C57 1_555 1_555
C59 C58 1_555 1_555
H35 C59 1_555 1_555
C60 C55 1_555 1_555
H36 C60 1_555 1_555
C61 C57 1_555 1_555
O5 C61 1_555 1_555
C62 C58 1_555 1_555
O6 C61 1_555 1_555
C63 C62 1_555 1_555
H37 C63 1_555 1_555
C64 C63 1_555 1_555
C65 C64 1_555 1_555
H38 C65 1_555 1_555
C66 C65 1_555 1_555
H39 C66 1_555 1_555
C67 C66 1_555 1_555
H40 C67 1_555 1_555
C68 C67 1_555 1_555
H41 C68 1_555 1_555
C69 C64 1_555 1_555
H42 C69 1_555 1_555
C5 C6 1_555 1_555
C13 C14 1_555 1_555
O1 C16 1_555 1_555
C22 C23 1_555 1_555
C28 C29 1_555 1_555
C36 C37 1_555 1_555
O3 C39 1_555 1_555
C45 C46 1_555 1_555
C51 C52 1_555 1_555
C59 C60 1_555 1_555
O5 C62 1_555 1_555
C68 C69 1_555 1_555

#END
