
#######################################################################
#
#                 Cambridge Crystallographic Data Centre
#                                CCDC 
#
#######################################################################
#
# If this CIF has been generated from an entry in the Cambridge 
# Structural Database, then it will include bibliographic, chemical, 
# crystal, experimental, refinement or atomic coordinate data resulting 
# from the CCDC's data processing and validation procedures.
#
#######################################################################

data_VOKXOJ
_chemical_compound_source        
'fermentation broth of Botrytis cinerea TB-3-H8'
_chemical_name_common            gamma-Abscisolactone
_chemical_formula_moiety         'C15 H16 O4'
_chemical_name_systematic        
(4-cis)-5-(2,6,6-Trimethyl-3-oxo-4-hydroxy-1,4-cyclohexadien-1-yl)-3-methyl-\g-2,4-pentadienelactone
_symmetry_cell_setting           monoclinic
_symmetry_space_group_name_H-M   'P 21/c'
_symmetry_Int_Tables_number      14
_space_group_name_Hall           '-P 2ybc'
loop_
_symmetry_equiv_pos_site_id
_symmetry_equiv_pos_as_xyz
1 x,y,z
2 -x,1/2+y,1/2-z
3 -x,-y,-z
4 x,1/2-y,1/2+z
_cell_length_a                   14.644(3)
_cell_length_b                   7.257(1)
_cell_length_c                   13.670(2)
_cell_angle_alpha                90
_cell_angle_beta                 109.60(1)
_cell_angle_gamma                90
_cell_volume                     1368.56
_exptl_crystal_colour            colorless
_chemical_melting_point          123-125deg.C
_cell_formula_units_Z            4
loop_
_atom_site_label
_atom_site_type_symbol
_atom_site_fract_x
_atom_site_fract_y
_atom_site_fract_z
O1 O 0.59176(8) 0.50100(17) 0.37927(10)
O2 O 0.44132(11) 0.3953(2) 0.35773(14)
O3 O 0.90862(9) 0.13367(17) 0.50736(10)
O4 O 1.00983(10) 0.1835(2) 0.37643(12)
C1 C 0.49451(15) 0.5251(3) 0.37051(16)
C2 C 0.48055(15) 0.7200(3) 0.37932(16)
H1 H 0.4221 0.7748 0.3756
C3 C 0.56240(15) 0.8101(3) 0.39346(14)
C4 C 0.63520(13) 0.6734(2) 0.39377(13)
C5 C 0.72721(13) 0.6972(2) 0.40243(13)
H2 H 0.7506 0.8173 0.4136
C6 C 0.58383(17) 1.0105(3) 0.40705(17)
H3 H 0.5247 1.0773 0.3966
H4 H 0.6129 1.0506 0.3573
H5 H 0.6277 1.0330 0.4760
C7 C 0.79695(11) 0.5544(2) 0.39626(13)
C8 C 0.82316(11) 0.4154(2) 0.46516(13)
C9 C 0.89109(11) 0.2743(2) 0.45361(13)
C10 C 0.93932(12) 0.3053(2) 0.37722(13)
C11 C 0.91347(12) 0.4441(2) 0.31050(14)
H6 H 0.9461 0.4590 0.2632
C12 C 0.83510(11) 0.5776(2) 0.30687(13)
C13 C 0.78953(14) 0.3920(3) 0.55664(15)
H7 H 0.7601 0.5043 0.5683
H8 H 0.8439 0.3628 0.6171
H9 H 0.7430 0.2938 0.5431
C14 C 0.75154(13) 0.5457(3) 0.20402(14)
H10 H 0.7751 0.5609 0.1469
H11 H 0.7008 0.6332 0.1980
H12 H 0.7267 0.4230 0.2031
C15 C 0.87318(14) 0.7746(2) 0.30462(17)
H13 H 0.9210 0.8026 0.3706
H14 H 0.8204 0.8604 0.2908
H15 H 0.9018 0.7837 0.2511
H16 H 1.0145(16) 0.099(3) 0.4190(18)
loop_
_geom_bond_atom_site_label_1
_geom_bond_atom_site_label_2
_geom_bond_site_symmetry_1
_geom_bond_site_symmetry_2
O1 C1 1_555 1_555
O2 C1 1_555 1_555
O3 C9 1_555 1_555
O4 C10 1_555 1_555
C1 C2 1_555 1_555
C2 H1 1_555 1_555
C3 C2 1_555 1_555
C4 O1 1_555 1_555
C5 C4 1_555 1_555
H2 C5 1_555 1_555
C6 C3 1_555 1_555
H3 C6 1_555 1_555
H4 C6 1_555 1_555
H5 C6 1_555 1_555
C7 C5 1_555 1_555
C8 C7 1_555 1_555
C9 C8 1_555 1_555
C10 C9 1_555 1_555
C11 C10 1_555 1_555
H6 C11 1_555 1_555
C12 C7 1_555 1_555
C13 C8 1_555 1_555
H7 C13 1_555 1_555
H8 C13 1_555 1_555
H9 C13 1_555 1_555
C14 C12 1_555 1_555
H10 C14 1_555 1_555
H11 C14 1_555 1_555
H12 C14 1_555 1_555
C15 C12 1_555 1_555
H13 C15 1_555 1_555
H14 C15 1_555 1_555
H15 C15 1_555 1_555
H16 O4 1_555 1_555
C3 C4 1_555 1_555
C11 C12 1_555 1_555

#END
