
#######################################################################
#
#                 Cambridge Crystallographic Data Centre
#                                CCDC 
#
#######################################################################
#
# If this CIF has been generated from an entry in the Cambridge 
# Structural Database, then it will include bibliographic, chemical, 
# crystal, experimental, refinement or atomic coordinate data resulting 
# from the CCDC's data processing and validation procedures.
#
#######################################################################

data_VOKYIE
_chemical_formula_moiety         'C18 H16 O5'
_chemical_name_systematic        
'Methyl 6-methoxy-3-(4-methoxyphenyl)benzofuran-4-carboxylate'
_symmetry_cell_setting           monoclinic
_symmetry_space_group_name_H-M   'P 21/n'
_symmetry_Int_Tables_number      14
_space_group_name_Hall           '-P 2yn'
loop_
_symmetry_equiv_pos_site_id
_symmetry_equiv_pos_as_xyz
1 x,y,z
2 1/2-x,1/2+y,1/2-z
3 -x,-y,-z
4 1/2+x,1/2-y,1/2+z
_cell_length_a                   11.645(3)
_cell_length_b                   18.164(6)
_cell_length_c                   14.486(3)
_cell_angle_alpha                90
_cell_angle_beta                 94.983(16)
_cell_angle_gamma                90
_cell_volume                     3052.49
_exptl_crystal_colour            silver
_exptl_crystal_description       block
_cell_formula_units_Z            8
loop_
_atom_site_label
_atom_site_type_symbol
_atom_site_fract_x
_atom_site_fract_y
_atom_site_fract_z
C1 C 0.40056(14) 0.11621(10) 1.33491(11)
C2 C 0.30913(14) 0.09548(10) 1.38336(12)
H1 H 0.2346 0.0911 1.3551
C3 C 0.33510(14) 0.08178(11) 1.47607(12)
C4 C 0.44670(14) 0.09106(10) 1.51704(12)
H2 H 0.4616 0.0820 1.5801
C5 C 0.53556(13) 0.11325(10) 1.46703(11)
C6 C 0.51413(13) 0.12412(10) 1.37136(11)
O1 O 0.25572(10) 0.06026(9) 1.53443(8)
C7 C 0.14173(15) 0.04570(14) 1.49635(14)
H3 H 0.0952 0.0316 1.5450
H4 H 0.1427 0.0065 1.4520
H5 H 0.1100 0.0892 1.4662
C8 C 0.64750(14) 0.13002(11) 1.51908(12)
O2 O 0.68642(11) 0.09891(9) 1.58709(10)
O3 O 0.69812(10) 0.18715(8) 1.48265(9)
C9 C 0.81050(15) 0.20740(14) 1.52306(16)
H6 H 0.8380 0.2490 1.4906
H7 H 0.8625 0.1668 1.5186
H8 H 0.8063 0.2199 1.5871
O4 O 0.39000(10) 0.13078(8) 1.24245(8)
C10 C 0.50032(15) 0.14604(13) 1.22097(13)
H9 H 0.5184 0.1575 1.1614
C11 C 0.57886(14) 0.14285(10) 1.29332(11)
C12 C 0.70364(14) 0.15215(11) 1.28718(11)
C13 C 0.78118(15) 0.09718(11) 1.31518(13)
H10 H 0.7545 0.0541 1.3407
C14 C 0.89708(16) 0.10506(11) 1.30599(13)
H11 H 0.9476 0.0673 1.3252
C15 C 0.93926(15) 0.16820(11) 1.26861(12)
C16 C 0.86309(15) 0.22339(11) 1.23988(13)
H12 H 0.8899 0.2664 1.2142
C17 C 0.74689(15) 0.21465(11) 1.24935(13)
H13 H 0.6963 0.2522 1.2295
O5 O 1.05596(10) 0.17081(8) 1.26262(10)
C18 C 1.10035(18) 0.23427(14) 1.22174(17)
H14 H 1.1825 0.2299 1.2216
H15 H 1.0822 0.2770 1.2566
H16 H 1.0665 0.2390 1.1592
C19 C 1.30684(14) 0.08722(10) 0.95663(11)
C20 C 1.40275(14) 0.07809(10) 0.90872(12)
H17 H 1.4757 0.0706 0.9386
C21 C 1.38387(13) 0.08080(10) 0.81402(12)
C22 C 1.27331(13) 0.09096(10) 0.77105(12)
H18 H 1.2631 0.0923 0.7067
C23 C 1.17891(13) 0.09905(9) 0.82079(11)
C24 C 1.19495(13) 0.09904(9) 0.91820(11)
O6 O 1.46816(10) 0.07403(9) 0.75526(9)
C25 C 1.58068(15) 0.05602(13) 0.79349(15)
H19 H 1.6314 0.0531 0.7448
H20 H 1.5792 0.0094 0.8246
H21 H 1.6077 0.0934 0.8370
C26 C 1.06489(14) 0.10319(11) 0.76766(12)
O7 O 1.04673(11) 0.13174(11) 0.69382(10)
O8 O 0.98556(9) 0.06800(8) 0.81023(8)
C27 C 0.86932(15) 0.07086(14) 0.76901(15)
H22 H 0.8203 0.0431 0.8061
H23 H 0.8659 0.0503 0.7078
H24 H 0.8438 0.1211 0.7655
O9 O 1.31071(10) 0.08608(8) 1.05089(8)
C28 C 1.19929(15) 0.09839(11) 1.07078(12)
H25 H 1.1772 0.1002 1.1309
C29 C 1.12551(13) 0.10756(10) 0.99570(11)
C30 C 1.00226(13) 0.12541(10) 0.99880(11)
C31 C 0.95583(15) 0.18808(10) 0.95684(13)
H26 H 1.0025 0.2186 0.9245
C32 C 0.84151(15) 0.20646(11) 0.96183(13)
H27 H 0.8119 0.2491 0.9334
C33 C 0.77149(14) 0.16170(11) 1.00880(12)
C34 C 0.81607(15) 0.09917(11) 1.05084(12)
H28 H 0.7692 0.0686 1.0829
C35 C 0.93048(14) 0.08150(10) 1.04557(11)
H29 H 0.9598 0.0389 1.0743
O10 O 0.65708(10) 0.17496(9) 1.01770(10)
C36 C 0.6166(2) 0.24694(15) 0.99938(19)
H30 H 0.5358 0.2493 1.0077
H31 H 0.6287 0.2600 0.9367
H32 H 0.6577 0.2807 1.0412
loop_
_geom_bond_atom_site_label_1
_geom_bond_atom_site_label_2
_geom_bond_site_symmetry_1
_geom_bond_site_symmetry_2
C1 C2 1_555 1_555
C2 H1 1_555 1_555
C3 C2 1_555 1_555
C4 C3 1_555 1_555
H2 C4 1_555 1_555
C5 C4 1_555 1_555
C6 C1 1_555 1_555
O1 C3 1_555 1_555
C7 O1 1_555 1_555
H3 C7 1_555 1_555
H4 C7 1_555 1_555
H5 C7 1_555 1_555
C8 C5 1_555 1_555
O2 C8 1_555 1_555
O3 C8 1_555 1_555
C9 O3 1_555 1_555
H6 C9 1_555 1_555
H7 C9 1_555 1_555
H8 C9 1_555 1_555
O4 C1 1_555 1_555
C10 O4 1_555 1_555
H9 C10 1_555 1_555
C11 C6 1_555 1_555
C12 C11 1_555 1_555
C13 C12 1_555 1_555
H10 C13 1_555 1_555
C14 C13 1_555 1_555
H11 C14 1_555 1_555
C15 C14 1_555 1_555
C16 C15 1_555 1_555
H12 C16 1_555 1_555
C17 C12 1_555 1_555
H13 C17 1_555 1_555
O5 C15 1_555 1_555
C18 O5 1_555 1_555
H14 C18 1_555 1_555
H15 C18 1_555 1_555
H16 C18 1_555 1_555
C19 C20 1_555 1_555
C20 H17 1_555 1_555
C21 C20 1_555 1_555
C22 C21 1_555 1_555
H18 C22 1_555 1_555
C23 C22 1_555 1_555
C24 C19 1_555 1_555
O6 C21 1_555 1_555
C25 O6 1_555 1_555
H19 C25 1_555 1_555
H20 C25 1_555 1_555
H21 C25 1_555 1_555
C26 C23 1_555 1_555
O7 C26 1_555 1_555
O8 C26 1_555 1_555
C27 O8 1_555 1_555
H22 C27 1_555 1_555
H23 C27 1_555 1_555
H24 C27 1_555 1_555
O9 C19 1_555 1_555
C28 O9 1_555 1_555
H25 C28 1_555 1_555
C29 C24 1_555 1_555
C30 C29 1_555 1_555
C31 C30 1_555 1_555
H26 C31 1_555 1_555
C32 C31 1_555 1_555
H27 C32 1_555 1_555
C33 C32 1_555 1_555
C34 C33 1_555 1_555
H28 C34 1_555 1_555
C35 C30 1_555 1_555
H29 C35 1_555 1_555
O10 C33 1_555 1_555
C36 O10 1_555 1_555
H30 C36 1_555 1_555
H31 C36 1_555 1_555
H32 C36 1_555 1_555
C5 C6 1_555 1_555
C10 C11 1_555 1_555
C16 C17 1_555 1_555
C23 C24 1_555 1_555
C28 C29 1_555 1_555
C34 C35 1_555 1_555

#END
