
#######################################################################
#
#                 Cambridge Crystallographic Data Centre
#                                CCDC 
#
#######################################################################
#
# If this CIF has been generated from an entry in the Cambridge 
# Structural Database, then it will include bibliographic, chemical, 
# crystal, experimental, refinement or atomic coordinate data resulting 
# from the CCDC's data processing and validation procedures.
#
#######################################################################

data_VOLBOO
_chemical_name_common            'Kadcoccilactone A'
_chemical_formula_moiety         'C30 H44 O7'
_chemical_name_systematic        
10,12a-Dihydroxy-5,5,7b,10a-tetramethyl-10-(1-(5-methyl-6-oxo-3,6-dihydro-2H-pyran-2-yl)ethyl)hexadecahydro-2H-furo[3,2-b]indeno[4',5':5,6]cyclohepta[1,2-c]furan-2-one
_chemical_properties_biological  
'no cytotoxic activity against human cancer cell lines'
_symmetry_cell_setting           monoclinic
_symmetry_space_group_name_H-M   'P 21'
_symmetry_Int_Tables_number      4
_space_group_name_Hall           'P 2yb'
loop_
_symmetry_equiv_pos_site_id
_symmetry_equiv_pos_as_xyz
1 x,y,z
2 -x,1/2+y,-z
_cell_length_a                   8.336(1)
_cell_length_b                   10.329(1)
_cell_length_c                   15.953(1)
_cell_angle_alpha                90
_cell_angle_beta                 91.17(1)
_cell_angle_gamma                90
_cell_volume                     1373.31
_exptl_crystal_colour            colorless
_exptl_crystal_description       block
_cell_formula_units_Z            2
loop_
_atom_site_label
_atom_site_type_symbol
_atom_site_fract_x
_atom_site_fract_y
_atom_site_fract_z
O1 O 0.4313(4) 0.4183(5) 0.03368(19)
O2 O 0.7995(4) 0.2162(4) 0.1307(3)
O3 O 0.5614(3) 0.2753(3) 0.17883(17)
O4 O 0.4790(3) 0.2585(2) 0.34702(18)
H1 H 0.5108 0.2372 0.3007
O5 O 0.2051(4) 0.5495(3) 0.65167(18)
H2 H 0.1610 0.5323 0.6958
O6 O 0.5581(3) 0.2883(3) 0.70720(18)
O7 O 0.8027(4) 0.2306(4) 0.7457(3)
C1 C 0.5182(6) 0.4689(5) 0.1044(3)
H3 H 0.5038 0.5624 0.1113
C2 C 0.6911(6) 0.4307(6) 0.0977(3)
H4 H 0.7236 0.4297 0.0396
H5 H 0.7601 0.4896 0.1291
C3 C 0.6969(5) 0.2981(5) 0.1345(3)
C4 C 0.2677(6) 0.3954(7) 0.0587(3)
C5 C 0.2864(5) 0.3462(5) 0.1506(2)
H6 H 0.2890 0.2514 0.1479
C6 C 0.1467(4) 0.3822(5) 0.2062(2)
H7 H 0.1441 0.4757 0.2118
H8 H 0.0477 0.3560 0.1781
C7 C 0.1509(5) 0.3230(4) 0.2937(2)
H9 H 0.1957 0.2366 0.2904
H10 H 0.0417 0.3148 0.3129
C8 C 0.2482(4) 0.4006(4) 0.3588(2)
H11 H 0.2187 0.4915 0.3496
C9 C 0.4327(4) 0.3933(3) 0.3454(2)
C10 C 0.4546(4) 0.3900(4) 0.1792(2)
C11 C 0.5269(4) 0.4633(4) 0.4150(2)
H12 H 0.5207 0.5555 0.4041
H13 H 0.6387 0.4384 0.4112
C12 C 0.4746(4) 0.4398(4) 0.5054(2)
H14 H 0.5323 0.4980 0.5430
H15 H 0.5003 0.3516 0.5218
C13 C 0.2929(4) 0.4626(3) 0.5124(2)
C14 C 0.2032(4) 0.3698(3) 0.4501(2)
C15 C 0.0268(4) 0.3974(5) 0.4723(3)
H16 H -0.0436 0.3291 0.4520
H17 H -0.0092 0.4794 0.4490
C16 C 0.0324(5) 0.4018(5) 0.5696(3)
H18 H 0.0005 0.3187 0.5922
H19 H -0.0410 0.4673 0.5896
C17 C 0.2080(4) 0.4347(4) 0.5990(2)
C18 C 0.2610(6) 0.6069(4) 0.4909(3)
H20 H 0.3104 0.6278 0.4388
H21 H 0.3054 0.6606 0.5346
H22 H 0.1475 0.6215 0.4859
C19 C 0.4797(4) 0.4596(4) 0.2623(2)
H23 H 0.4212 0.5407 0.2587
H24 H 0.5927 0.4815 0.2672
C20 C 0.2956(5) 0.3310(4) 0.6538(2)
H25 H 0.3440 0.2702 0.6146
C21 C 0.1851(6) 0.2498(5) 0.7092(3)
H26 H 0.2482 0.1885 0.7408
H27 H 0.1085 0.2044 0.6743
H28 H 0.1296 0.3057 0.7469
C22 C 0.4357(4) 0.3905(4) 0.7048(2)
H29 H 0.4780 0.4635 0.6728
C23 C 0.4065(5) 0.4366(5) 0.7933(3)
H30 H 0.3360 0.5113 0.7921
H31 H 0.3554 0.3686 0.8250
C24 C 0.5624(6) 0.4716(5) 0.8337(3)
H32 H 0.5636 0.5330 0.8763
C25 C 0.6999(6) 0.4187(5) 0.8114(3)
C26 C 0.6954(5) 0.3087(4) 0.7525(3)
C27 C 0.8649(7) 0.4531(6) 0.8480(4)
H33 H 0.8553 0.5253 0.8854
H34 H 0.9354 0.4754 0.8034
H35 H 0.9078 0.3801 0.8782
C28 C 0.2316(5) 0.2237(3) 0.4688(3)
H36 H 0.3405 0.2015 0.4566
H37 H 0.1599 0.1726 0.4346
H38 H 0.2119 0.2068 0.5269
C29 C 0.2011(8) 0.2893(9) 0.0010(3)
H39 H 0.1895 0.3224 -0.0550
H40 H 0.0983 0.2618 0.0205
H41 H 0.2735 0.2170 0.0014
C30 C 0.1740(8) 0.5194(9) 0.0495(4)
H42 H 0.1673 0.5433 -0.0086
H43 H 0.2272 0.5868 0.0808
H44 H 0.0680 0.5072 0.0704
loop_
_geom_bond_atom_site_label_1
_geom_bond_atom_site_label_2
_geom_bond_site_symmetry_1
_geom_bond_site_symmetry_2
O1 C1 1_555 1_555
O2 C3 1_555 1_555
O3 C3 1_555 1_555
O4 H1 1_555 1_555
O5 H2 1_555 1_555
O6 C22 1_555 1_555
O7 C26 1_555 1_555
C1 H3 1_555 1_555
C2 C1 1_555 1_555
H4 C2 1_555 1_555
H5 C2 1_555 1_555
C3 C2 1_555 1_555
C4 O1 1_555 1_555
C5 C4 1_555 1_555
H6 C5 1_555 1_555
C6 C5 1_555 1_555
H7 C6 1_555 1_555
H8 C6 1_555 1_555
C7 C6 1_555 1_555
H9 C7 1_555 1_555
H10 C7 1_555 1_555
C8 C7 1_555 1_555
H11 C8 1_555 1_555
C9 O4 1_555 1_555
C10 O3 1_555 1_555
C11 C9 1_555 1_555
H12 C11 1_555 1_555
H13 C11 1_555 1_555
C12 C11 1_555 1_555
H14 C12 1_555 1_555
H15 C12 1_555 1_555
C13 C12 1_555 1_555
C14 C8 1_555 1_555
C15 C14 1_555 1_555
H16 C15 1_555 1_555
H17 C15 1_555 1_555
C16 C15 1_555 1_555
H18 C16 1_555 1_555
H19 C16 1_555 1_555
C17 O5 1_555 1_555
C18 C13 1_555 1_555
H20 C18 1_555 1_555
H21 C18 1_555 1_555
H22 C18 1_555 1_555
C19 C9 1_555 1_555
H23 C19 1_555 1_555
H24 C19 1_555 1_555
C20 C17 1_555 1_555
H25 C20 1_555 1_555
C21 C20 1_555 1_555
H26 C21 1_555 1_555
H27 C21 1_555 1_555
H28 C21 1_555 1_555
C22 C20 1_555 1_555
H29 C22 1_555 1_555
C23 C22 1_555 1_555
H30 C23 1_555 1_555
H31 C23 1_555 1_555
C24 C23 1_555 1_555
H32 C24 1_555 1_555
C25 C24 1_555 1_555
C26 O6 1_555 1_555
C27 C25 1_555 1_555
H33 C27 1_555 1_555
H34 C27 1_555 1_555
H35 C27 1_555 1_555
C28 C14 1_555 1_555
H36 C28 1_555 1_555
H37 C28 1_555 1_555
H38 C28 1_555 1_555
C29 C4 1_555 1_555
H39 C29 1_555 1_555
H40 C29 1_555 1_555
H41 C29 1_555 1_555
C30 C4 1_555 1_555
H42 C30 1_555 1_555
H43 C30 1_555 1_555
H44 C30 1_555 1_555
C1 C10 1_555 1_555
C5 C10 1_555 1_555
C8 C9 1_555 1_555
C10 C19 1_555 1_555
C13 C14 1_555 1_555
C13 C17 1_555 1_555
C16 C17 1_555 1_555
C25 C26 1_555 1_555

#END
