
#######################################################################
#
#                 Cambridge Crystallographic Data Centre
#                                CCDC 
#
#######################################################################
#
# If this CIF has been generated from an entry in the Cambridge 
# Structural Database, then it will include bibliographic, chemical, 
# crystal, experimental, refinement or atomic coordinate data resulting 
# from the CCDC's data processing and validation procedures.
#
#######################################################################

data_VOLBEE
_chemical_compound_source        'stems of Schisandra propinqua var propinqua'
_chemical_name_common            'Propindilactone H'
_chemical_formula_moiety         'C29 H44 O10'
_chemical_name_systematic        
7b,8,9,12a-Tetrahydroxy-10-(1-hydroxy-1-(4-methyl-5-oxotetrahydro-2-furanyl)-2-propanyl)-5,5,10a-trimethylhexadecahydro-2H-furo-[3,2-b]indeno[4',5':5,6]cyclohepta[1,2-c]furan-2-one
_chemical_properties_biological  
'no cytotoxic activity against human cancer cell lines'
_symmetry_cell_setting           triclinic
_symmetry_space_group_name_H-M   'P 1'
_symmetry_Int_Tables_number      1
_space_group_name_Hall           'P 1'
loop_
_symmetry_equiv_pos_site_id
_symmetry_equiv_pos_as_xyz
1 x,y,z
_cell_length_a                   7.464(1)
_cell_length_b                   9.449(1)
_cell_length_c                   10.763(1)
_cell_angle_alpha                78.65(1)
_cell_angle_beta                 84.64(1)
_cell_angle_gamma                65.71(1)
_cell_volume                     678.291
_exptl_crystal_colour            yellow
_exptl_crystal_description       block
_chemical_melting_point          188-189deg.C
_cell_formula_units_Z            1
loop_
_atom_site_label
_atom_site_type_symbol
_atom_site_fract_x
_atom_site_fract_y
_atom_site_fract_z
O1 O 1.0701(3) -0.3323(2) 0.8247(2)
O2 O 0.9517(3) 0.0287(2) 0.81037(19)
O3 O 1.0430(3) 0.0287(3) 1.0000(2)
O4 O 0.9157(3) 0.2757(2) 0.6231(2)
H1 H 0.8126 0.3529 0.6054
O5 O 0.5858(4) 0.5265(3) 0.5703(2)
H2 H 0.6901 0.4522 0.5918
O6 O 0.5230(3) 0.3358(3) 0.3199(2)
H3 H 0.4324 0.4189 0.2918
O7 O 0.3114(3) 0.6456(3) 0.2846(3)
H4 H 0.2683 0.7307 0.2365
O8 O 0.2967(3) 0.9375(3) 0.1986(2)
H5 H 0.2920 0.8514 0.2242
O9 O 0.4682(3) 1.0166(2) -0.03818(19)
O10 O 0.2979(5) 1.1584(4) -0.2118(2)
C1 C 1.1660(4) -0.2295(3) 0.7768(3)
H6 H 1.2732 -0.2743 0.7174
C2 C 1.2353(4) -0.1865(4) 0.8859(3)
H7 H 1.2571 -0.2679 0.9605
H8 H 1.3565 -0.1722 0.8637
C3 C 1.0726(4) -0.0356(4) 0.9091(3)
C4 C 0.9187(4) -0.2995(3) 0.7354(3)
C5 C 0.8266(4) -0.1170(3) 0.7056(3)
H9 H 0.7401 -0.0822 0.7778
C6 C 0.7005(5) -0.0386(4) 0.5882(3)
H10 H 0.5870 -0.0653 0.5985
H11 H 0.7758 -0.0801 0.5154
C7 C 0.6295(4) 0.1418(3) 0.5621(3)
H12 H 0.6202 0.1779 0.6418
H13 H 0.4989 0.1881 0.5267
C8 C 0.7654(4) 0.2001(3) 0.4708(3)
H14 H 0.8065 0.1314 0.4070
C9 C 0.9586(4) 0.1755(3) 0.5302(3)
C10 C 1.0021(4) -0.0732(3) 0.7133(2)
C11 C 1.0826(4) 0.2252(3) 0.4229(3)
H15 H 1.2085 0.2068 0.4556
H16 H 1.1068 0.1618 0.3574
C12 C 0.9767(4) 0.3999(3) 0.3658(3)
H17 H 1.0613 0.4280 0.3008
H18 H 0.9587 0.4616 0.4317
C13 C 0.7750(4) 0.4475(3) 0.3071(3)
C14 C 0.6492(4) 0.3676(3) 0.3959(3)
C15 C 0.5073(4) 0.4966(4) 0.4686(3)
H19 H 0.3908 0.4754 0.4973
C16 C 0.4508(4) 0.6453(4) 0.3680(3)
H20 H 0.3939 0.7393 0.4080
C17 C 0.6493(4) 0.6318(3) 0.3036(3)
H21 H 0.7145 0.6610 0.3630
C18 C 0.8056(5) 0.3965(4) 0.1774(3)
H22 H 0.8814 0.2848 0.1870
H23 H 0.8742 0.4506 0.1216
H24 H 0.6802 0.4221 0.1422
C19 C 1.0779(3) 0.0032(3) 0.5930(3)
H25 H 1.0985 -0.0620 0.5294
H26 H 1.2062 -0.0041 0.6120
C20 C 0.6411(4) 0.7464(3) 0.1778(3)
H27 H 0.5949 0.7126 0.1113
C21 C 0.4981(4) 0.9185(3) 0.1872(3)
H28 H 0.5292 0.9407 0.2658
C22 C 0.5185(4) 1.0435(3) 0.0805(3)
H29 H 0.6549 1.0333 0.0754
C23 C 0.3818(6) 1.2129(4) 0.0890(3)
H30 H 0.4444 1.2618 0.1314
H31 H 0.2609 1.2184 0.1338
C24 C 0.3428(5) 1.2916(3) -0.0499(3)
H32 H 0.2099 1.3750 -0.0598
C25 C 0.3609(5) 1.1562(4) -0.1112(3)
C26 C 0.4955(6) 1.3550(4) -0.1097(4)
H33 H 0.4625 1.4027 -0.1964
H34 H 0.6232 1.2697 -0.1062
H35 H 0.4965 1.4322 -0.0639
C27 C 0.8474(5) 0.7398(4) 0.1407(4)
H36 H 0.8414 0.8108 0.0624
H37 H 0.9337 0.6344 0.1303
H38 H 0.8963 0.7700 0.2060
C28 C 0.7786(5) -0.3690(4) 0.8053(4)
H39 H 0.8439 -0.4819 0.8217
H40 H 0.6654 -0.3377 0.7542
H41 H 0.7380 -0.3311 0.8841
C29 C 1.0084(5) -0.3769(4) 0.6209(4)
H42 H 1.0637 -0.4895 0.6465
H43 H 1.1099 -0.3433 0.5845
H44 H 0.9085 -0.3471 0.5593
loop_
_geom_bond_atom_site_label_1
_geom_bond_atom_site_label_2
_geom_bond_site_symmetry_1
_geom_bond_site_symmetry_2
O1 C1 1_555 1_555
O2 C3 1_555 1_555
O3 C3 1_555 1_555
O4 H1 1_555 1_555
O5 H2 1_555 1_555
O6 H3 1_555 1_555
O7 H4 1_555 1_555
O8 H5 1_555 1_555
O9 C22 1_555 1_555
O10 C25 1_555 1_555
C1 H6 1_555 1_555
C2 C1 1_555 1_555
H7 C2 1_555 1_555
H8 C2 1_555 1_555
C3 C2 1_555 1_555
C4 O1 1_555 1_555
C5 C4 1_555 1_555
H9 C5 1_555 1_555
C6 C5 1_555 1_555
H10 C6 1_555 1_555
H11 C6 1_555 1_555
C7 C6 1_555 1_555
H12 C7 1_555 1_555
H13 C7 1_555 1_555
C8 C7 1_555 1_555
H14 C8 1_555 1_555
C9 O4 1_555 1_555
C10 O2 1_555 1_555
C11 C9 1_555 1_555
H15 C11 1_555 1_555
H16 C11 1_555 1_555
C12 C11 1_555 1_555
H17 C12 1_555 1_555
H18 C12 1_555 1_555
C13 C12 1_555 1_555
C14 O6 1_555 1_555
C15 O5 1_555 1_555
H19 C15 1_555 1_555
C16 O7 1_555 1_555
H20 C16 1_555 1_555
C17 C13 1_555 1_555
H21 C17 1_555 1_555
C18 C13 1_555 1_555
H22 C18 1_555 1_555
H23 C18 1_555 1_555
H24 C18 1_555 1_555
C19 C9 1_555 1_555
H25 C19 1_555 1_555
H26 C19 1_555 1_555
C20 C17 1_555 1_555
H27 C20 1_555 1_555
C21 O8 1_555 1_555
H28 C21 1_555 1_555
C22 C21 1_555 1_555
H29 C22 1_555 1_555
C23 C22 1_555 1_555
H30 C23 1_555 1_555
H31 C23 1_555 1_555
C24 C23 1_555 1_555
H32 C24 1_555 1_555
C25 O9 1_555 1_555
C26 C24 1_555 1_555
H33 C26 1_555 1_555
H34 C26 1_555 1_555
H35 C26 1_555 1_555
C27 C20 1_555 1_555
H36 C27 1_555 1_555
H37 C27 1_555 1_555
H38 C27 1_555 1_555
C28 C4 1_555 1_555
H39 C28 1_555 1_555
H40 C28 1_555 1_555
H41 C28 1_555 1_555
C29 C4 1_555 1_555
H42 C29 1_555 1_555
H43 C29 1_555 1_555
H44 C29 1_555 1_555
C1 C10 1_555 1_555
C5 C10 1_555 1_555
C8 C9 1_555 1_555
C8 C14 1_555 1_555
C10 C19 1_555 1_555
C13 C14 1_555 1_555
C14 C15 1_555 1_555
C15 C16 1_555 1_555
C16 C17 1_555 1_555
C20 C21 1_555 1_555
C24 C25 1_555 1_555

#END
