
#######################################################################
#
#                 Cambridge Crystallographic Data Centre
#                                CCDC 
#
#######################################################################
#
# If this CIF has been generated from an entry in the Cambridge 
# Structural Database, then it will include bibliographic, chemical, 
# crystal, experimental, refinement or atomic coordinate data resulting 
# from the CCDC's data processing and validation procedures.
#
#######################################################################

data_VOLBAA
_chemical_compound_source        'liverwort Jungermannia atrobrunnea'
_chemical_name_common            'Jungermatrobrunin A monohydrate'
_chemical_formula_moiety         'C24 H32 O8,H2 O1'
_chemical_name_systematic        
'15,17-Dihydroxy-7,7,11-trimethyl-18-methylene-13,14-dioxapentacyclo[13.2.1.0^3,12^.0^6,11^.0^12,16^]octadec-3-ene-5,10-diyl diacetate monohydrate'
_chemical_properties_biological  'weak antifungal activity'
_symmetry_cell_setting           monoclinic
_symmetry_space_group_name_H-M   'P 21'
_symmetry_Int_Tables_number      4
_space_group_name_Hall           'P 2yb'
loop_
_symmetry_equiv_pos_site_id
_symmetry_equiv_pos_as_xyz
1 x,y,z
2 -x,1/2+y,-z
_cell_length_a                   6.2573(2)
_cell_length_b                   12.0494(5)
_cell_length_c                   16.0026(6)
_cell_angle_alpha                90
_cell_angle_beta                 99.936(2)
_cell_angle_gamma                90
_cell_volume                     1188.45
_exptl_crystal_colour            colorless
_exptl_crystal_description       prism
_chemical_melting_point          157-159deg.C
_cell_formula_units_Z            2
_exptl_crystal_recrystallization_method methanol
loop_
_atom_site_label
_atom_site_type_symbol
_atom_site_fract_x
_atom_site_fract_y
_atom_site_fract_z
C1 C 0.3804(4) 0.3031(2) 0.65932(15)
H1 H 0.2558 0.3517 0.6613
C2 C 0.3794(5) 0.2702(3) 0.56751(17)
H2 H 0.3839 0.3364 0.5334
H3 H 0.5074 0.2263 0.5639
C3 C 0.1786(5) 0.2040(3) 0.53346(17)
H4 H 0.1780 0.1870 0.4742
H5 H 0.0514 0.2487 0.5368
C4 C 0.1649(4) 0.0962(3) 0.58193(17)
C5 C 0.1783(4) 0.1271(2) 0.67752(16)
H6 H 0.0495 0.1734 0.6773
C6 C 0.1403(4) 0.0296(2) 0.73435(17)
H7 H -0.0090 0.0035 0.7167
C7 C 0.1727(4) 0.0551(2) 0.82653(17)
H8 H 0.1404 -0.0005 0.8627
C8 C 0.2440(3) 0.1511(2) 0.86111(15)
C9 C 0.3032(3) 0.24605(19) 0.80568(14)
C10 C 0.3693(4) 0.2043(2) 0.72032(14)
C11 C 0.4635(4) 0.32514(19) 0.86057(14)
H9 H 0.5570 0.3642 0.8270
C12 C 0.5950(4) 0.2667(2) 0.93817(15)
H10 H 0.6459 0.1936 0.9233
C13 C 0.4242(4) 0.2568(2) 0.99609(15)
H11 H 0.4902 0.2382 1.0545
C14 C 0.2641(4) 0.1671(2) 0.95636(16)
H12 H 0.3076 0.0970 0.9839
H13 H 0.1218 0.1852 0.9687
C15 C 0.3117(4) 0.4051(2) 0.89745(15)
C16 C 0.3303(4) 0.3724(2) 0.98980(16)
C17 C 0.2746(5) 0.4343(3) 1.05059(19)
H14 H 0.2919 0.4074 1.1058
H15 H 0.2179 0.5050 1.0382
C18 C 0.3378(5) 0.0148(3) 0.5596(2)
H16 H 0.3128 0.0020 0.4995
H17 H 0.3282 -0.0543 0.5887
H18 H 0.4797 0.0460 0.5768
C19 C -0.0585(5) 0.0439(4) 0.5493(2)
H19 H -0.0688 0.0250 0.4905
H20 H -0.1706 0.0961 0.5557
H21 H -0.0754 -0.0218 0.5814
C20 C 0.5896(4) 0.1456(2) 0.74111(16)
H22 H 0.6315 0.1194 0.6896
H23 H 0.5786 0.0838 0.7780
H24 H 0.6966 0.1967 0.7687
C21 C 0.5761(5) 0.4747(2) 0.67064(16)
C22 C 0.7875(6) 0.5270(3) 0.7044(2)
H25 H 0.7814 0.6046 0.6907
H26 H 0.8994 0.4922 0.6795
H27 H 0.8187 0.5180 0.7649
C23 C 0.2128(8) -0.1651(3) 0.7317(2)
C24 C 0.3819(11) -0.2499(4) 0.7220(4)
H28 H 0.3245 -0.3229 0.7277
H29 H 0.5072 -0.2387 0.7651
H30 H 0.4222 -0.2425 0.6670
O1 O 0.4220(4) 0.52085(19) 0.63086(15)
O2 O 0.5785(3) 0.36569(15) 0.68888(11)
O3 O 0.1137(2) 0.31571(15) 0.78076(9)
O4 O 0.0934(3) 0.37048(16) 0.86109(10)
O5 O 0.3508(3) 0.51414(15) 0.87744(13)
H31 H 0.2475 0.5528 0.8845
O6 O 0.7697(3) 0.3337(2) 0.97958(12)
H32 H 0.839(7) 0.350(4) 0.946(2)
O7 O 0.2878(4) -0.06233(17) 0.72454(15)
O8 O 0.0320(6) -0.1843(2) 0.7446(2)
O9 O 0.0489(4) 0.6775(2) 0.89013(14)
H33 H 0.0720 0.7376 0.9227
H34 H 0.0426 0.7018 0.8334
loop_
_geom_bond_atom_site_label_1
_geom_bond_atom_site_label_2
_geom_bond_site_symmetry_1
_geom_bond_site_symmetry_2
C1 H1 1_555 1_555
C2 C1 1_555 1_555
H2 C2 1_555 1_555
H3 C2 1_555 1_555
C3 C2 1_555 1_555
H4 C3 1_555 1_555
H5 C3 1_555 1_555
C4 C3 1_555 1_555
C5 C4 1_555 1_555
H6 C5 1_555 1_555
C6 C5 1_555 1_555
H7 C6 1_555 1_555
C7 C6 1_555 1_555
H8 C7 1_555 1_555
C8 C7 1_555 1_555
C9 C8 1_555 1_555
C10 C1 1_555 1_555
C11 C9 1_555 1_555
H9 C11 1_555 1_555
C12 C11 1_555 1_555
H10 C12 1_555 1_555
C13 C12 1_555 1_555
H11 C13 1_555 1_555
C14 C8 1_555 1_555
H12 C14 1_555 1_555
H13 C14 1_555 1_555
C15 C11 1_555 1_555
C16 C13 1_555 1_555
C17 C16 1_555 1_555
H14 C17 1_555 1_555
H15 C17 1_555 1_555
C18 C4 1_555 1_555
H16 C18 1_555 1_555
H17 C18 1_555 1_555
H18 C18 1_555 1_555
C19 C4 1_555 1_555
H19 C19 1_555 1_555
H20 C19 1_555 1_555
H21 C19 1_555 1_555
C20 C10 1_555 1_555
H22 C20 1_555 1_555
H23 C20 1_555 1_555
H24 C20 1_555 1_555
C21 C22 1_555 1_555
C22 H25 1_555 1_555
H26 C22 1_555 1_555
H27 C22 1_555 1_555
C23 C24 1_555 1_555
C24 H28 1_555 1_555
H29 C24 1_555 1_555
H30 C24 1_555 1_555
O1 C21 1_555 1_555
O2 C1 1_555 1_555
O3 C9 1_555 1_555
O4 C15 1_555 1_555
O5 C15 1_555 1_555
H31 O5 1_555 1_555
O6 C12 1_555 1_555
H32 O6 1_555 1_555
O7 C6 1_555 1_555
O8 C23 1_555 1_555
O9 H33 1_555 1_555
H34 O9 1_555 1_555
C5 C10 1_555 1_555
C9 C10 1_555 1_555
C13 C14 1_555 1_555
C15 C16 1_555 1_555
C21 O2 1_555 1_555
C23 O7 1_555 1_555
O3 O4 1_555 1_555

#END
