
#######################################################################
#
#                 Cambridge Crystallographic Data Centre
#                                CCDC 
#
#######################################################################
#
# If this CIF has been generated from an entry in the Cambridge 
# Structural Database, then it will include bibliographic, chemical, 
# crystal, experimental, refinement or atomic coordinate data resulting 
# from the CCDC's data processing and validation procedures.
#
#######################################################################

data_VOLCEE
_chemical_formula_moiety         'C16 H16 O5'
_chemical_name_systematic        
2,4,19-Trioxapentacyclo(10.7.0.0^3,11^.0^5,10^.0^13,18^)nonadeca-5(10),13(18)-dien-9,14-dione
_symmetry_cell_setting           tetragonal
_symmetry_space_group_name_H-M   'P 43 21 2'
_symmetry_Int_Tables_number      96
_space_group_name_Hall           'P 4nw 2abw'
loop_
_symmetry_equiv_pos_site_id
_symmetry_equiv_pos_as_xyz
1 x,y,z
2 1/2-y,1/2+x,3/4+z
3 -x,-y,1/2+z
4 1/2+y,1/2-x,1/4+z
5 y,x,-z
6 1/2+x,1/2-y,1/4-z
7 -y,-x,1/2-z
8 1/2-x,1/2+y,3/4-z
_cell_length_a                   8.813(1)
_cell_length_b                   8.813(1)
_cell_length_c                   17.583(2)
_cell_angle_alpha                90
_cell_angle_beta                 90
_cell_angle_gamma                90
_cell_volume                     1365.65
_cell_formula_units_Z            4
loop_
_atom_site_label
_atom_site_type_symbol
_atom_site_fract_x
_atom_site_fract_y
_atom_site_fract_z
C1 C 0.3210(3) -0.2674(3) -0.0191(1)
C2 C 0.2116(3) -0.1373(4) -0.0300(2)
C3 C 0.2438(5) -0.0384(5) -0.0921(2)
C5 C 0.4127(3) 0.0205(3) -0.0967(1)
C6 C 0.5136(3) -0.1098(3) -0.0784(1)
O1 O 0.6625(2) -0.1008(2) -0.0976(1)
C7 C 0.7363(3) -0.2335(3) -0.0657(1)
C8 C 0.6108(2) -0.3431(2) -0.0402(1)
C9 C 0.4746(2) -0.2396(2) -0.0447(1)
O2 O 0.2823(2) -0.3867(2) 0.0103(1)
O3 O 0.8136(2) -0.1864(2) 0.0000
H1 H 0.212 -0.072 0.020
H2 H 0.103 -0.183 -0.039
H3 H 0.172 0.056 -0.088
H4 H 0.220 -0.097 -0.143
H5 H 0.436 0.061 -0.152
H6 H 0.430 0.108 -0.057
H13 H 0.818(3) -0.269(3) -0.103(1)
H14 H 0.605(3) -0.433(2) -0.076(1)
C8D C 0.6569(2) -0.3892(2) 0.0402(1)
C7D C 0.7665(3) -0.2637(3) 0.0657(1)
C9D C 0.7604(2) -0.5254(2) 0.0447(1)
H14D H 0.567(2) -0.395(3) 0.076(1)
O1D O 0.8992(2) -0.3375(2) 0.0976(1)
H13D H 0.731(3) -0.182(3) 0.103(1)
C1D C 0.7326(3) -0.6790(3) 0.0191(1)
C6D C 0.8902(3) -0.4864(3) 0.0784(1)
C2D C 0.8627(4) -0.7884(3) 0.0300(2)
O2D O 0.6133(2) -0.7177(2) -0.0103(1)
C5D C 1.0205(3) -0.5873(3) 0.0967(1)
C3D C 0.9616(5) -0.7562(5) 0.0921(2)
H1D H 0.928 -0.788 -0.020
H2D H 0.817 -0.897 0.039
H5D H 1.061 -0.564 0.152
H6D H 1.108 -0.570 0.057
H3D H 1.056 -0.828 0.088
H4D H 0.903 -0.780 0.143
C4? C 0.2753(7) 0.0168(8) -0.0472(3)
H7? H 0.148 -0.128 0.020
H8? H 0.140 -0.167 -0.075
H9? H 0.304 0.068 0.005
H10? H 0.190 0.080 -0.074
H11? H 0.379 0.014 -0.154
H12? H 0.472 0.122 -0.088
loop_
_geom_bond_atom_site_label_1
_geom_bond_atom_site_label_2
_geom_bond_site_symmetry_1
_geom_bond_site_symmetry_2
C1 C2 1_555 1_555
C2 C3 1_555 1_555
C3 C5 1_555 1_555
C5 C6 1_555 1_555
C6 O1 1_555 1_555
O1 C7 1_555 1_555
C7 C8 1_555 1_555
C8 C9 1_555 1_555
C9 C1 1_555 1_555
O2 C1 1_555 1_555
O3 C7 1_555 1_555
H1 C2 1_555 1_555
H2 C2 1_555 1_555
H3 C3 1_555 1_555
H4 C3 1_555 1_555
H5 C5 1_555 1_555
H6 C5 1_555 1_555
H13 C7 1_555 1_555
H14 C8 1_555 1_555
C8D C8 1_555 1_555
C7D O3 1_555 1_555
C9D C8D 1_555 1_555
H14D C8D 1_555 1_555
O1D C7D 1_555 1_555
H13D C7D 1_555 1_555
C1D C9D 1_555 1_555
C6D C9D 1_555 1_555
C2D C1D 1_555 1_555
O2D C1D 1_555 1_555
C5D C6D 1_555 1_555
C3D C2D 1_555 1_555
H1D C2D 1_555 1_555
H2D C2D 1_555 1_555
H5D C5D 1_555 1_555
H6D C5D 1_555 1_555
H3D C3D 1_555 1_555
H4D C3D 1_555 1_555
C6 C9 1_555 1_555
C8D C7D 1_555 1_555
O1D C6D 1_555 1_555
C5D C3D 1_555 1_555

#END
