
#######################################################################
#
#                 Cambridge Crystallographic Data Centre
#                                CCDC 
#
#######################################################################
#
# If this CIF has been generated from an entry in the Cambridge 
# Structural Database, then it will include bibliographic, chemical, 
# crystal, experimental, refinement or atomic coordinate data resulting 
# from the CCDC's data processing and validation procedures.
#
#######################################################################

data_VOLGOT
_chemical_formula_moiety         'C23 H33 N3 O3'
_chemical_name_systematic        
'(S)-Methyl 2-(3,5-di-t-butylbenzamido)-3-(1-methyl-1H-imidazol-5-yl)propanoate'
_symmetry_cell_setting           monoclinic
_symmetry_space_group_name_H-M   'P 21'
_symmetry_Int_Tables_number      4
_space_group_name_Hall           'P 2yb'
loop_
_symmetry_equiv_pos_site_id
_symmetry_equiv_pos_as_xyz
1 x,y,z
2 -x,1/2+y,-z
_cell_length_a                   10.885(2)
_cell_length_b                   9.4701(19)
_cell_length_c                   12.124(2)
_cell_angle_alpha                90
_cell_angle_beta                 114.36(3)
_cell_angle_gamma                90
_cell_volume                     1138.5
_exptl_crystal_colour            colorless
_exptl_crystal_description       Platelet
_chemical_melting_point          191-193deg.C
_cell_formula_units_Z            2
loop_
_atom_site_label
_atom_site_type_symbol
_atom_site_fract_x
_atom_site_fract_y
_atom_site_fract_z
O1 O 0.4856(2) 0.7127(3) 0.1837(2)
N1 N 0.2608(3) 0.6960(3) 0.0848(3)
C1 C 0.3563(3) 0.6449(4) 0.5280(3)
H1 H 0.3543 0.6296 0.6047
C2 C 0.3624(3) 0.6891(4) 0.3056(3)
C3 C 0.3742(3) 0.7027(4) 0.1870(3)
N2 N 0.1927(3) 0.3541(3) -0.0763(3)
O2 O 0.3351(3) 0.8045(3) -0.1649(3)
C4 C 0.2404(3) 0.6708(4) 0.3145(3)
H2 H 0.1590 0.6724 0.2430
O3 O 0.2766(3) 0.9397(3) -0.0430(3)
N3 N 0.0220(3) 0.2822(3) -0.0356(3)
C5 C 0.4813(3) 0.6614(4) 0.5223(3)
C6 C 0.4815(3) 0.6862(4) 0.4101(3)
H3 H 0.5649 0.7015 0.4042
C7 C 0.2346(3) 0.6501(4) 0.4255(3)
C8 C 0.2928(3) 0.8252(4) -0.0774(4)
C9 C 0.0106(3) 0.4252(4) -0.0608(3)
H4 H -0.0602 0.4832 -0.0599
C10 C 0.2694(3) 0.6839(4) -0.0298(3)
H5 H 0.3477 0.6213 -0.0185
C11 C 0.0981(3) 0.6312(4) 0.4319(3)
C12 C 0.1132(3) 0.4721(4) -0.0871(3)
C13 C 0.3124(4) 0.3425(5) -0.1014(4)
H6 H 0.3883 0.3903 -0.0374
H7 H 0.2947 0.3868 -0.1796
H8 H 0.3346 0.2427 -0.1041
C14 C 0.1417(3) 0.6144(4) -0.1236(3)
H9 H 0.0637 0.6769 -0.1378
H10 H 0.1512 0.6057 -0.2011
C15 C 0.1322(4) 0.2447(4) -0.0458(4)
H11 H 0.1664 0.1510 -0.0332
C16 C 0.6142(3) 0.6537(4) 0.6355(4)
C17 C 0.3636(4) 0.9298(5) -0.2189(5)
H12 H 0.2867 0.9945 -0.2435
H13 H 0.3794 0.9029 -0.2901
H14 H 0.4442 0.9766 -0.1598
C18 C 0.5971(4) 0.5859(5) 0.7422(4)
H15 H 0.6856 0.5750 0.8099
H16 H 0.5548 0.4930 0.7182
H17 H 0.5398 0.6461 0.7671
C19 C 0.0280(4) 0.5006(6) 0.3584(4)
H18 H 0.0845 0.4172 0.3917
H19 H 0.0139 0.5136 0.2738
H20 H -0.0593 0.4876 0.3625
C20 C 0.7174(4) 0.5622(5) 0.6101(4)
H21 H 0.7412 0.6091 0.5495
H22 H 0.6778 0.4696 0.5796
H23 H 0.7988 0.5500 0.6852
C21 C 0.1109(4) 0.6137(5) 0.5612(4)
H24 H 0.1640 0.5289 0.5971
H25 H 0.0209 0.6043 0.5605
H26 H 0.1562 0.6966 0.6092
C22 C 0.0130(4) 0.7644(6) 0.3789(5)
H27 H -0.0779 0.7507 0.3751
H28 H 0.0074 0.7816 0.2973
H29 H 0.0553 0.8458 0.4307
C23 C 0.6700(4) 0.8022(5) 0.6700(5)
H30 H 0.6857 0.8442 0.6030
H31 H 0.7552 0.7982 0.7423
H32 H 0.6050 0.8600 0.6868
H33 H 0.168(5) 0.704(6) 0.081(4)
loop_
_geom_bond_atom_site_label_1
_geom_bond_atom_site_label_2
_geom_bond_site_symmetry_1
_geom_bond_site_symmetry_2
O1 C3 1_555 1_555
N1 C3 1_555 1_555
C1 H1 1_555 1_555
C2 C3 1_555 1_555
N2 C12 1_555 1_555
O2 C8 1_555 1_555
C4 C2 1_555 1_555
H2 C4 1_555 1_555
O3 C8 1_555 1_555
N3 C9 1_555 1_555
C5 C1 1_555 1_555
C6 C2 1_555 1_555
H3 C6 1_555 1_555
C7 C1 1_555 1_555
C8 C10 1_555 1_555
C9 H4 1_555 1_555
C10 N1 1_555 1_555
H5 C10 1_555 1_555
C11 C7 1_555 1_555
C12 C9 1_555 1_555
C13 N2 1_555 1_555
H6 C13 1_555 1_555
H7 C13 1_555 1_555
H8 C13 1_555 1_555
C14 C10 1_555 1_555
H9 C14 1_555 1_555
H10 C14 1_555 1_555
C15 N2 1_555 1_555
H11 C15 1_555 1_555
C16 C5 1_555 1_555
C17 O2 1_555 1_555
H12 C17 1_555 1_555
H13 C17 1_555 1_555
H14 C17 1_555 1_555
C18 C16 1_555 1_555
H15 C18 1_555 1_555
H16 C18 1_555 1_555
H17 C18 1_555 1_555
C19 C11 1_555 1_555
H18 C19 1_555 1_555
H19 C19 1_555 1_555
H20 C19 1_555 1_555
C20 C16 1_555 1_555
H21 C20 1_555 1_555
H22 C20 1_555 1_555
H23 C20 1_555 1_555
C21 C11 1_555 1_555
H24 C21 1_555 1_555
H25 C21 1_555 1_555
H26 C21 1_555 1_555
C22 C11 1_555 1_555
H27 C22 1_555 1_555
H28 C22 1_555 1_555
H29 C22 1_555 1_555
C23 C16 1_555 1_555
H30 C23 1_555 1_555
H31 C23 1_555 1_555
H32 C23 1_555 1_555
H33 N1 1_555 1_555
C4 C7 1_555 1_555
N3 C15 1_555 1_555
C5 C6 1_555 1_555
C12 C14 1_555 1_555

#END
