
#######################################################################
#
#                 Cambridge Crystallographic Data Centre
#                                CCDC 
#
#######################################################################
#
# If this CIF has been generated from an entry in the Cambridge 
# Structural Database, then it will include bibliographic, chemical, 
# crystal, experimental, refinement or atomic coordinate data resulting 
# from the CCDC's data processing and validation procedures.
#
#######################################################################

data_VOLGUZ
_chemical_formula_moiety         'C23 H33 N3 O2 S1,C1 Cl4'
_chemical_name_systematic        
'(S)-Methyl 2-(3,5-di-t-butylphenylthioamido)-3-(1-methyl-1H-imidazol-5-yl)propanoate carbon tetrachloride solvate'
_symmetry_cell_setting           monoclinic
_symmetry_space_group_name_H-M   'C 2'
_symmetry_Int_Tables_number      5
_space_group_name_Hall           'C 2y'
loop_
_symmetry_equiv_pos_site_id
_symmetry_equiv_pos_as_xyz
1 x,y,z
2 -x,y,-z
3 1/2+x,1/2+y,z
4 1/2-x,1/2+y,-z
_cell_length_a                   22.551(10)
_cell_length_b                   8.405(3)
_cell_length_c                   15.485(7)
_cell_angle_alpha                90
_cell_angle_beta                 93.528(8)
_cell_angle_gamma                90
_cell_volume                     2929.48
_exptl_crystal_colour            colorless
_exptl_crystal_description       platelet
_chemical_melting_point          136-138deg.C
_cell_formula_units_Z            4
loop_
_atom_site_label
_atom_site_type_symbol
_atom_site_fract_x
_atom_site_fract_y
_atom_site_fract_z
S1 S 0.24256(6) 0.5216(2) 0.43253(9)
N1 N 0.35622(19) 0.5930(5) 0.4186(3)
H1 H 0.3907 0.5709 0.3979
N2 N 0.4311(2) 0.4209(6) 0.5921(3)
N3 N 0.5209(2) 0.5270(7) 0.6146(3)
O1 O 0.4149(2) 0.9450(5) 0.5175(4)
O2 O 0.40101(19) 0.8704(5) 0.3780(4)
C1 C 0.2834(4) 0.2689(9) 0.3012(5)
H2 H 0.2563 0.2372 0.3426
C2 C 0.2890(2) 0.1785(6) 0.2270(4)
C3 C 0.3286(2) 0.2249(7) 0.1664(3)
H3 H 0.3324 0.1631 0.1157
C4 C 0.3624(3) 0.3619(8) 0.1799(4)
C5 C 0.3568(5) 0.4523(9) 0.2541(6)
H4 H 0.3799 0.5459 0.2633
C6 C 0.3172(6) 0.4059(11) 0.3147(6)
C7 C 0.2515(3) 0.0284(8) 0.2123(4)
C8 C 0.1852(3) 0.0712(10) 0.2020(5)
H5 H 0.1780 0.1398 0.1512
H6 H 0.1737 0.1274 0.2538
H7 H 0.1617 -0.0264 0.1943
C9 C 0.2607(4) -0.0866(10) 0.2892(5)
H8 H 0.3027 -0.1172 0.2961
H9 H 0.2363 -0.1818 0.2783
H10 H 0.2491 -0.0341 0.3420
C10 C 0.2677(4) -0.0617(11) 0.1307(5)
H11 H 0.3096 -0.0926 0.1363
H12 H 0.2608 0.0073 0.0800
H13 H 0.2429 -0.1571 0.1236
C21 C 0.4055(4) 0.4115(11) 0.1131(5)
C22 C 0.3719(6) 0.4573(18) 0.0285(6)
H26 H 0.3490 0.5546 0.0371
H27 H 0.3448 0.3710 0.0100
H28 H 0.4002 0.4757 -0.0160
C23 C 0.4460(6) 0.5456(16) 0.1439(9)
H29 H 0.4227 0.6435 0.1481
H30 H 0.4767 0.5613 0.1026
H31 H 0.4647 0.5191 0.2008
C24 C 0.4453(6) 0.2635(15) 0.0950(9)
H32 H 0.4486 0.1956 0.1465
H33 H 0.4849 0.2995 0.0811
H34 H 0.4271 0.2030 0.0462
C29 C 0.3089(2) 0.5099(7) 0.3899(3)
C30 C 0.3535(2) 0.7173(6) 0.4822(4)
H44 H 0.3120 0.7594 0.4769
C31 C 0.3938(3) 0.8567(7) 0.4630(5)
C32 C 0.4325(3) 1.0121(10) 0.3531(6)
H45 H 0.4432 1.0018 0.2929
H46 H 0.4687 1.0247 0.3909
H47 H 0.4070 1.1054 0.3586
C33 C 0.3642(2) 0.6614(7) 0.5755(4)
H48 H 0.3614 0.7538 0.6146
H49 H 0.3327 0.5849 0.5889
C34 C 0.4240(3) 0.5831(7) 0.5927(3)
C35 C 0.4789(3) 0.6439(8) 0.6074(4)
H50 H 0.4874 0.7544 0.6121
C36 C 0.4903(3) 0.3958(8) 0.6045(4)
H51 H 0.5078 0.2930 0.6057
C37 C 0.3854(3) 0.3024(7) 0.5803(5)
H52 H 0.4035 0.1963 0.5825
H53 H 0.3639 0.3178 0.5239
H54 H 0.3577 0.3122 0.6263
C38 C 0.1144(4) 0.4875(11) 0.1635(5)
Cl1 Cl 0.1552(2) 0.4720(6) 0.0712(2)
Cl2 Cl 0.16296(11) 0.4967(3) 0.25470(15)
Cl3 Cl 0.0670(2) 0.3247(8) 0.1703(3)
Cl4 Cl 0.0674(3) 0.6496(8) 0.1578(4)
C11? C 0.2989(9) 0.2571(17) 0.2961(9)
H14? H 0.2756 0.2091 0.3380
C12? C 0.3091(5) 0.1767(11) 0.2200(6)
C13? C 0.3432(4) 0.2470(11) 0.1586(5)
H15? H 0.3502 0.1920 0.1066
C14? C 0.3670(5) 0.3978(12) 0.1734(7)
C15? C 0.3568(9) 0.4783(15) 0.2494(10)
H16? H 0.3730 0.5814 0.2595
C16? C 0.3227(12) 0.408(2) 0.3108(11)
C17? C 0.2833(5) 0.0115(13) 0.2021(8)
C18? C 0.3325(7) -0.1076(16) 0.1787(13)
H17? H 0.3653 -0.1037 0.2231
H18? H 0.3471 -0.0789 0.1225
H19? H 0.3159 -0.2155 0.1756
C19? C 0.2528(10) -0.056(2) 0.2791(12)
H20? H 0.2767 -0.0322 0.3326
H21? H 0.2487 -0.1716 0.2726
H22? H 0.2134 -0.0080 0.2818
C20? C 0.2376(8) 0.014(2) 0.1236(12)
H23? H 0.2032 0.0787 0.1376
H24? H 0.2246 -0.0944 0.1098
H25? H 0.2559 0.0607 0.0736
C25? C 0.4040(6) 0.4735(15) 0.1056(8)
C26? C 0.3757(8) 0.6294(15) 0.0732(11)
H35? H 0.3753 0.7053 0.1212
H36? H 0.3350 0.6092 0.0503
H37? H 0.3989 0.6736 0.0274
C27? C 0.4672(6) 0.505(2) 0.1427(11)
H38? H 0.4659 0.5695 0.1954
H39? H 0.4892 0.5632 0.1000
H40? H 0.4871 0.4041 0.1565
C28? C 0.4079(8) 0.3615(16) 0.0267(8)
H41? H 0.4245 0.2589 0.0460
H42? H 0.4336 0.4096 -0.0149
H43? H 0.3681 0.3453 -0.0009
C39? C 0.1131(6) 0.5498(14) 0.1656(8)
Cl5? Cl 0.0901(6) 0.4878(16) 0.0628(6)
Cl6? Cl 0.1879(4) 0.5148(16) 0.1811(10)
Cl7? Cl 0.0753(6) 0.4435(16) 0.2392(8)
Cl8? Cl 0.0994(3) 0.7500(9) 0.1758(6)
loop_
_geom_bond_atom_site_label_1
_geom_bond_atom_site_label_2
_geom_bond_site_symmetry_1
_geom_bond_site_symmetry_2
S1 C29 1_555 1_555
N1 H1 1_555 1_555
N2 C34 1_555 1_555
N3 C35 1_555 1_555
O1 C31 1_555 1_555
O2 C31 1_555 1_555
C1 H2 1_555 1_555
C2 C1 1_555 1_555
C3 C2 1_555 1_555
H3 C3 1_555 1_555
C4 C3 1_555 1_555
C5 C4 1_555 1_555
H4 C5 1_555 1_555
C6 C1 1_555 1_555
C7 C2 1_555 1_555
C8 C7 1_555 1_555
H5 C8 1_555 1_555
H6 C8 1_555 1_555
H7 C8 1_555 1_555
C9 C7 1_555 1_555
H8 C9 1_555 1_555
H9 C9 1_555 1_555
H10 C9 1_555 1_555
C10 C7 1_555 1_555
H11 C10 1_555 1_555
H12 C10 1_555 1_555
H13 C10 1_555 1_555
C21 C4 1_555 1_555
C22 C21 1_555 1_555
H26 C22 1_555 1_555
H27 C22 1_555 1_555
H28 C22 1_555 1_555
C23 C21 1_555 1_555
H29 C23 1_555 1_555
H30 C23 1_555 1_555
H31 C23 1_555 1_555
C24 C21 1_555 1_555
H32 C24 1_555 1_555
H33 C24 1_555 1_555
H34 C24 1_555 1_555
C29 N1 1_555 1_555
C30 N1 1_555 1_555
H44 C30 1_555 1_555
C31 C30 1_555 1_555
C32 O2 1_555 1_555
H45 C32 1_555 1_555
H46 C32 1_555 1_555
H47 C32 1_555 1_555
C33 C30 1_555 1_555
H48 C33 1_555 1_555
H49 C33 1_555 1_555
C34 C33 1_555 1_555
C35 C34 1_555 1_555
H50 C35 1_555 1_555
C36 N2 1_555 1_555
H51 C36 1_555 1_555
C37 N2 1_555 1_555
H52 C37 1_555 1_555
H53 C37 1_555 1_555
H54 C37 1_555 1_555
C38 Cl1 1_555 1_555
Cl2 C38 1_555 1_555
Cl3 C38 1_555 1_555
Cl4 C38 1_555 1_555
N3 C36 1_555 1_555
C5 C6 1_555 1_555
C6 C29 1_555 1_555

#END
