
#######################################################################
#
#                 Cambridge Crystallographic Data Centre
#                                CCDC 
#
#######################################################################
#
# If this CIF has been generated from an entry in the Cambridge 
# Structural Database, then it will include bibliographic, chemical, 
# crystal, experimental, refinement or atomic coordinate data resulting 
# from the CCDC's data processing and validation procedures.
#
#######################################################################

data_VOLJIR01
_chemical_formula_moiety         'C14 H9 F4 N1 O1'
_chemical_name_systematic        
N-(4-fluorophenyl)-3-(trifluoromethyl)benzamide
_symmetry_cell_setting           orthorhombic
_symmetry_space_group_name_H-M   'P n a 21'
_symmetry_Int_Tables_number      33
_space_group_name_Hall           'P 2c -2n'
loop_
_symmetry_equiv_pos_site_id
_symmetry_equiv_pos_as_xyz
1 x,y,z
2 -x,-y,1/2+z
3 1/2-x,1/2+y,1/2+z
4 1/2+x,1/2-y,z
_cell_length_a                   9.4513(3)
_cell_length_b                   13.6988(15)
_cell_length_c                   9.4512(9)
_cell_angle_alpha                90
_cell_angle_beta                 90
_cell_angle_gamma                90
_cell_volume                     1223.66
_exptl_crystal_colour            colorless
_exptl_crystal_description       plate
_cell_formula_units_Z            4
loop_
_atom_site_label
_atom_site_type_symbol
_atom_site_fract_x
_atom_site_fract_y
_atom_site_fract_z
F1 F 0.17173(12) 1.14418(8) 0.20474(19)
F2 F -0.03943(15) 0.29744(10) 0.3110(2)
F3 F 0.01096(18) 0.27421(11) 0.5296(2)
F4 F 0.15999(12) 0.33903(9) 0.3909(2)
N1 N -0.01648(13) 0.77870(11) 0.3635(2)
H1 H -0.1084 0.7745 0.3771
O1 O 0.18670(12) 0.69005(8) 0.36197(19)
C1 C -0.02130(17) 0.61120(13) 0.4409(2)
C2 C 0.03309(19) 0.51871(13) 0.4103(2)
H2 H 0.1170 0.5127 0.3556
C3 C -0.0349(2) 0.43561(13) 0.4595(2)
C4 C -0.1583(2) 0.44360(14) 0.5384(3)
H3 H -0.2060 0.3866 0.5702
C5 C -0.2112(2) 0.53489(14) 0.5701(3)
H4 H -0.2948 0.5405 0.6254
C6 C -0.14350(18) 0.61879(14) 0.5222(2)
H5 H -0.1807 0.6813 0.5450
C7 C 0.03704(18) 0.87106(13) 0.3202(2)
C8 C 0.15450(18) 0.88124(13) 0.2335(2)
H6 H 0.2035 0.8252 0.2001
C9 C 0.1999(2) 0.97407(13) 0.1959(3)
H7 H 0.2809 0.9824 0.1377
C10 C 0.12600(19) 1.05361(14) 0.2441(3)
C11 C 0.00919(18) 1.04617(14) 0.3277(3)
H8 H -0.0401 1.1028 0.3583
C12 C -0.03606(17) 0.95320(13) 0.3670(2)
H9 H -0.1169 0.9459 0.4258
C13 C 0.05963(17) 0.69715(12) 0.3858(2)
C14 C 0.0232(2) 0.33730(15) 0.4227(3)
loop_
_geom_bond_atom_site_label_1
_geom_bond_atom_site_label_2
_geom_bond_site_symmetry_1
_geom_bond_site_symmetry_2
F1 C10 1_555 1_555
F2 C14 1_555 1_555
F3 C14 1_555 1_555
F4 C14 1_555 1_555
N1 H1 1_555 1_555
O1 C13 1_555 1_555
C1 C2 1_555 1_555
C2 H2 1_555 1_555
C3 C2 1_555 1_555
C4 C3 1_555 1_555
H3 C4 1_555 1_555
C5 C4 1_555 1_555
H4 C5 1_555 1_555
C6 C1 1_555 1_555
H5 C6 1_555 1_555
C7 N1 1_555 1_555
C8 C7 1_555 1_555
H6 C8 1_555 1_555
C9 C8 1_555 1_555
H7 C9 1_555 1_555
C10 C9 1_555 1_555
C11 C10 1_555 1_555
H8 C11 1_555 1_555
C12 C7 1_555 1_555
H9 C12 1_555 1_555
C13 N1 1_555 1_555
C14 C3 1_555 1_555
C1 C13 1_555 1_555
C5 C6 1_555 1_555
C11 C12 1_555 1_555

#END
