
#######################################################################
#
#                 Cambridge Crystallographic Data Centre
#                                CCDC 
#
#######################################################################
#
# If this CIF has been generated from an entry in the Cambridge 
# Structural Database, then it will include bibliographic, chemical, 
# crystal, experimental, refinement or atomic coordinate data resulting 
# from the CCDC's data processing and validation procedures.
#
#######################################################################

data_VOLJIR
_chemical_formula_moiety         'C14 H9 F4 N1 O1'
_chemical_name_systematic        
N-(4-fluorophenyl)-3-(trifluoromethyl)benzamide
_symmetry_cell_setting           monoclinic
_symmetry_space_group_name_H-M   'C c'
_symmetry_Int_Tables_number      9
_space_group_name_Hall           'C -2yc'
loop_
_symmetry_equiv_pos_site_id
_symmetry_equiv_pos_as_xyz
1 x,y,z
2 x,-y,1/2+z
3 1/2+x,1/2+y,z
4 1/2+x,1/2-y,1/2+z
_cell_length_a                   14.2784(10)
_cell_length_b                   11.3734(9)
_cell_length_c                   14.8822(11)
_cell_angle_alpha                90
_cell_angle_beta                 96.670(4)
_cell_angle_gamma                90
_cell_volume                     2400.42
_cell_formula_units_Z            8
loop_
_atom_site_label
_atom_site_type_symbol
_atom_site_fract_x
_atom_site_fract_y
_atom_site_fract_z
F1 F 0.54005(7) 0.04636(10) 0.09089(7)
F2 F 0.21507(8) -0.24072(8) 0.61371(7)
F3 F 0.08166(7) -0.17375(10) 0.64296(8)
F4 F 0.20100(7) -0.16505(8) 0.74328(6)
O1 O 0.41445(7) 0.19098(9) 0.47423(7)
N1 N 0.35061(8) 0.03374(10) 0.39365(8)
H1 H 0.3102 -0.0245 0.3951
C1 C 0.28811(9) 0.08890(12) 0.53030(9)
C2 C 0.24455(9) 0.18775(13) 0.56189(9)
H2 H 0.2621 0.2640 0.5439
C3 C 0.17545(10) 0.17494(13) 0.61971(10)
H3 H 0.1441 0.2423 0.6394
C4 C 0.15222(10) 0.06380(14) 0.64877(9)
H4 H 0.1051 0.0549 0.6884
C5 C 0.19823(9) -0.03414(13) 0.61966(9)
C6 C 0.26551(9) -0.02280(12) 0.55956(9)
H5 H 0.2956 -0.0904 0.5388
C7 C 0.40165(9) 0.03925(12) 0.31736(9)
C8 C 0.42399(10) 0.14663(13) 0.28021(10)
H6 H 0.4073 0.2181 0.3073
C9 C 0.47078(10) 0.14894(14) 0.20337(10)
H7 H 0.4864 0.2215 0.1772
C10 C 0.49398(10) 0.04372(15) 0.16603(10)
C11 C 0.47096(11) -0.06372(14) 0.20011(11)
H8 H 0.4869 -0.1348 0.1720
C12 C 0.42392(10) -0.06531(13) 0.27655(10)
H9 H 0.4068 -0.1383 0.3011
C13 C 0.35795(9) 0.10876(12) 0.46380(9)
C14 C 0.17465(10) -0.15289(14) 0.65408(10)
F5 F 0.40716(7) 0.78018(8) 0.47423(7)
F6 F 0.85765(8) -0.08533(10) 0.24352(8)
F7 F 0.75707(7) 0.00592(11) 0.15015(7)
F8 F 0.87228(7) 0.09923(10) 0.22015(7)
O2 O 0.69407(7) 0.38677(9) 0.36057(7)
N2 N 0.56148(8) 0.34133(10) 0.42490(8)
H10 H 0.5282 0.2825 0.4430
C15 C 0.66469(9) 0.18487(12) 0.38243(9)
C16 C 0.72599(9) 0.15761(12) 0.31884(9)
H11 H 0.7514 0.2185 0.2853
C17 C 0.74968(10) 0.04129(13) 0.30473(10)
C18 C 0.71523(11) -0.04836(13) 0.35517(11)
H12 H 0.7317 -0.1279 0.3453
C19 C 0.65632(11) -0.02044(13) 0.42024(10)
H13 H 0.6335 -0.0811 0.4558
C20 C 0.63061(10) 0.09548(12) 0.43351(9)
H14 H 0.5897 0.1137 0.4775
C21 C 0.52550(9) 0.45643(12) 0.43607(9)
C22 C 0.55945(10) 0.55682(13) 0.39595(10)
H15 H 0.6098 0.5504 0.3597
C23 C 0.51937(10) 0.66552(12) 0.40937(10)
H16 H 0.5421 0.7342 0.3827
C24 C 0.44626(10) 0.67253(12) 0.46179(10)
C25 C 0.41105(10) 0.57600(13) 0.50189(10)
H17 H 0.3604 0.5836 0.5376
C26 C 0.45119(10) 0.46694(12) 0.48899(10)
H18 H 0.4280 0.3991 0.5163
C27 C 0.64136(9) 0.31304(12) 0.38943(9)
C28 C 0.80924(11) 0.01478(14) 0.23060(10)
loop_
_geom_bond_atom_site_label_1
_geom_bond_atom_site_label_2
_geom_bond_site_symmetry_1
_geom_bond_site_symmetry_2
F1 C10 1_555 1_555
F2 C14 1_555 1_555
F3 C14 1_555 1_555
F4 C14 1_555 1_555
O1 C13 1_555 1_555
N1 H1 1_555 1_555
C1 C2 1_555 1_555
C2 H2 1_555 1_555
C3 C2 1_555 1_555
H3 C3 1_555 1_555
C4 C3 1_555 1_555
H4 C4 1_555 1_555
C5 C4 1_555 1_555
C6 C1 1_555 1_555
H5 C6 1_555 1_555
C7 N1 1_555 1_555
C8 C7 1_555 1_555
H6 C8 1_555 1_555
C9 C8 1_555 1_555
H7 C9 1_555 1_555
C10 C9 1_555 1_555
C11 C10 1_555 1_555
H8 C11 1_555 1_555
C12 C7 1_555 1_555
H9 C12 1_555 1_555
C13 N1 1_555 1_555
C14 C5 1_555 1_555
F5 C24 1_555 1_555
F6 C28 1_555 1_555
F7 C28 1_555 1_555
F8 C28 1_555 1_555
O2 C27 1_555 1_555
N2 H10 1_555 1_555
C15 C16 1_555 1_555
C16 H11 1_555 1_555
C17 C16 1_555 1_555
C18 C17 1_555 1_555
H12 C18 1_555 1_555
C19 C18 1_555 1_555
H13 C19 1_555 1_555
C20 C15 1_555 1_555
H14 C20 1_555 1_555
C21 N2 1_555 1_555
C22 C21 1_555 1_555
H15 C22 1_555 1_555
C23 C22 1_555 1_555
H16 C23 1_555 1_555
C24 C23 1_555 1_555
C25 C24 1_555 1_555
H17 C25 1_555 1_555
C26 C21 1_555 1_555
H18 C26 1_555 1_555
C27 N2 1_555 1_555
C28 C17 1_555 1_555
C1 C13 1_555 1_555
C5 C6 1_555 1_555
C11 C12 1_555 1_555
C15 C27 1_555 1_555
C19 C20 1_555 1_555
C25 C26 1_555 1_555

#END
