
#######################################################################
#
#                 Cambridge Crystallographic Data Centre
#                                CCDC 
#
#######################################################################
#
# If this CIF has been generated from an entry in the Cambridge 
# Structural Database, then it will include bibliographic, chemical, 
# crystal, experimental, refinement or atomic coordinate data resulting 
# from the CCDC's data processing and validation procedures.
#
#######################################################################

data_VOLMOY
_chemical_formula_moiety         'C17 H22 O2'
_chemical_name_systematic        
trans-4-Methyl-4-methoxycarbonyl-1,2,3,4,a,9,9a,10-octahydroanthracene
_symmetry_cell_setting           triclinic
_symmetry_space_group_name_H-M   'P -1'
_symmetry_Int_Tables_number      2
_space_group_name_Hall           '-P 1'
loop_
_symmetry_equiv_pos_site_id
_symmetry_equiv_pos_as_xyz
1 x,y,z
2 -x,-y,-z
_cell_length_a                   9.603(6)
_cell_length_b                   10.608(2)
_cell_length_c                   7.559(2)
_cell_angle_alpha                103.48(2)
_cell_angle_beta                 110.44(3)
_cell_angle_gamma                83.22(4)
_cell_volume                     701.098
_chemical_melting_point          92deg.C
_cell_formula_units_Z            2
loop_
_atom_site_label
_atom_site_type_symbol
_atom_site_fract_x
_atom_site_fract_y
_atom_site_fract_z
O1 O 0.1616(3) 0.4246(2) 0.8374(4)
O2 O 0.3720(3) 0.3870(3) 0.7686(4)
C1 C 0.2383(5) 0.5196(4) 1.0036(6)
C2 C 0.2465(5) 0.3682(3) 0.7282(5)
C3 C -0.0044(4) 0.2583(3) 0.5478(6)
C4 C 0.1537(4) 0.2746(4) 0.5442(6)
C5 C 0.1471(5) 0.3365(4) 0.3731(7)
C6 C 0.0816(5) 0.2438(5) 0.1785(6)
C7 C 0.1735(5) 0.1164(4) 0.1676(5)
C8 C 0.1889(4) 0.0493(4) 0.3347(5)
C9 C 0.2946(4) -0.0678(4) 0.3284(5)
C10 C 0.3386(4) -0.1301(4) 0.5001(6)
C11 C 0.3927(4) -0.2598(4) 0.4904(6)
C12 C 0.4317(5) -0.3180(4) 0.6468(7)
C13 C 0.4210(4) -0.2485(4) 0.8211(6)
C14 C 0.3704(4) -0.1198(4) 0.8368(6)
C15 C 0.3255(4) -0.0586(4) 0.6750(6)
C16 C 0.2592(5) 0.0785(4) 0.7009(6)
C17 C 0.2491(4) 0.1449(4) 0.5352(5)
H1 H 0.302 0.474 1.109
H2 H 0.150 0.560 1.030
H3 H 0.300 0.570 0.950
H4 H -0.020(3) 0.243(3) 0.634(5)
H5 H -0.042(3) 0.211(3) 0.440(5)
H6 H -0.060(3) 0.350(3) 0.560(4)
H7 H 0.238(3) 0.340(3) 0.350(4)
H8 H 0.094(3) 0.431(3) 0.371(4)
H9 H 0.005(3) 0.233(3) 0.210(4)
H10 H 0.045(3) 0.286(3) 0.047(3)
H11 H 0.271(3) 0.134(3) 0.172(4)
H12 H 0.142(3) 0.048(3) 0.043(4)
H13 H 0.090(3) 0.023(2) 0.330(4)
H14 H 0.381(3) -0.047(2) 0.315(4)
H15 H 0.373(3) -0.312(2) 0.352(4)
H16 H 0.347(3) -0.080(3) 0.980(3)
H17 H 0.166(2) 0.072(2) 0.710(4)
H18 H 0.330(3) 0.137(2) 0.826(3)
H19 H 0.348(3) 0.151(2) 0.534(4)
H20? H 0.260(3) -0.047(2) 0.217(4)
H21? H 0.460(3) -0.405(3) 0.644(4)
H22? H 0.415(3) -0.405(3) 0.644(4)
loop_
_geom_bond_atom_site_label_1
_geom_bond_atom_site_label_2
_geom_bond_site_symmetry_1
_geom_bond_site_symmetry_2
O1 C1 1_555 1_555
O2 C2 1_555 1_555
C1 H1 1_555 1_555
C2 O1 1_555 1_555
C3 C4 1_555 1_555
C4 C2 1_555 1_555
C5 C4 1_555 1_555
C6 C5 1_555 1_555
C7 C6 1_555 1_555
C8 C7 1_555 1_555
C9 C8 1_555 1_555
C10 C9 1_555 1_555
C11 C10 1_555 1_555
C12 C11 1_555 1_555
C13 C12 1_555 1_555
C14 C13 1_555 1_555
C15 C10 1_555 1_555
C16 C15 1_555 1_555
C17 C4 1_555 1_555
H2 C1 1_555 1_555
H3 C1 1_555 1_555
H4 C3 1_555 1_555
H5 C3 1_555 1_555
H6 C3 1_555 1_555
H7 C5 1_555 1_555
H8 C5 1_555 1_555
H9 C6 1_555 1_555
H10 C6 1_555 1_555
H11 C7 1_555 1_555
H12 C7 1_555 1_555
H13 C8 1_555 1_555
H14 C9 1_555 1_555
H15 C11 1_555 1_555
H16 C14 1_555 1_555
H17 C16 1_555 1_555
H18 C16 1_555 1_555
H19 C17 1_555 1_555
C8 C17 1_555 1_555
C14 C15 1_555 1_555
C16 C17 1_555 1_555

#END
