
#######################################################################
#
#                 Cambridge Crystallographic Data Centre
#                                CCDC 
#
#######################################################################
#
# If this CIF has been generated from an entry in the Cambridge 
# Structural Database, then it will include bibliographic, chemical, 
# crystal, experimental, refinement or atomic coordinate data resulting 
# from the CCDC's data processing and validation procedures.
#
#######################################################################

data_VOLXUQ
_chemical_formula_moiety         'C15 H9 N1'
_chemical_name_systematic        2-(buta-1,3-diynyl)-5-phenylpyridine
_symmetry_cell_setting           orthorhombic
_symmetry_space_group_name_H-M   'P b c a'
_symmetry_Int_Tables_number      61
_space_group_name_Hall           '-P 2ac 2ab'
loop_
_symmetry_equiv_pos_site_id
_symmetry_equiv_pos_as_xyz
1 x,y,z
2 1/2-x,-y,1/2+z
3 1/2+x,1/2-y,-z
4 -x,1/2+y,1/2-z
5 -x,-y,-z
6 1/2+x,y,1/2-z
7 1/2-x,1/2+y,z
8 x,1/2-y,1/2+z
_cell_length_a                   9.4953(12)
_cell_length_b                   10.3905(13)
_cell_length_c                   22.351(3)
_cell_angle_alpha                90
_cell_angle_beta                 90
_cell_angle_gamma                90
_cell_volume                     2205.17
_exptl_crystal_colour            'pale yellow'
_exptl_crystal_description       plate
_cell_formula_units_Z            8
_exptl_crystal_recrystallization_method cyclohexane
loop_
_atom_site_label
_atom_site_type_symbol
_atom_site_fract_x
_atom_site_fract_y
_atom_site_fract_z
N1 N 0.15613(12) 0.38556(10) 0.50566(5)
C1 C 0.27578(14) 0.31813(12) 0.51388(6)
C2 C 0.39583(15) 0.33864(13) 0.48024(6)
H1 H 0.4775(17) 0.2861(14) 0.4872(6)
C3 C 0.39370(15) 0.43204(13) 0.43649(6)
H2 H 0.4747(17) 0.4474(13) 0.4117(6)
C4 C 0.27285(14) 0.50319(12) 0.42683(6)
C5 C 0.15746(15) 0.47492(12) 0.46305(6)
H3 H 0.0691(16) 0.5232(13) 0.4582(6)
C6 C 0.27112(14) 0.22070(13) 0.55939(6)
C7 C 0.26723(14) 0.13791(13) 0.59679(6)
C8 C 0.25993(15) 0.04178(13) 0.63871(6)
C9 C 0.25188(18) -0.04191(16) 0.67470(7)
H4 H 0.2459(19) -0.104(2) 0.7033(8)
C10 C 0.26285(15) 0.60500(12) 0.38069(6)
C11 C 0.37986(18) 0.67898(13) 0.36573(6)
H5 H 0.4684(18) 0.6648(13) 0.3859(7)
C12 C 0.3693(2) 0.77572(15) 0.32356(7)
H6 H 0.4519(18) 0.8281(15) 0.3142(7)
C13 C 0.2429(2) 0.79974(16) 0.29544(7)
H7 H 0.2318(18) 0.8668(18) 0.2646(8)
C14 C 0.1266(2) 0.72690(16) 0.30960(7)
H8 H 0.036(2) 0.7413(18) 0.2920(8)
C15 C 0.13585(17) 0.63002(14) 0.35190(6)
H9 H 0.0518(17) 0.5788(14) 0.3613(6)
loop_
_geom_bond_atom_site_label_1
_geom_bond_atom_site_label_2
_geom_bond_site_symmetry_1
_geom_bond_site_symmetry_2
N1 C1 1_555 1_555
C1 C2 1_555 1_555
C2 H1 1_555 1_555
C3 C2 1_555 1_555
H2 C3 1_555 1_555
C4 C3 1_555 1_555
C5 N1 1_555 1_555
H3 C5 1_555 1_555
C6 C1 1_555 1_555
C7 C6 1_555 1_555
C8 C7 1_555 1_555
C9 C8 1_555 1_555
H4 C9 1_555 1_555
C10 C4 1_555 1_555
C11 C10 1_555 1_555
H5 C11 1_555 1_555
C12 C11 1_555 1_555
H6 C12 1_555 1_555
C13 C12 1_555 1_555
H7 C13 1_555 1_555
C14 C13 1_555 1_555
H8 C14 1_555 1_555
C15 C10 1_555 1_555
H9 C15 1_555 1_555
C4 C5 1_555 1_555
C14 C15 1_555 1_555

#END
