
#######################################################################
#
#                 Cambridge Crystallographic Data Centre
#                                CCDC 
#
#######################################################################
#
# If this CIF has been generated from an entry in the Cambridge 
# Structural Database, then it will include bibliographic, chemical, 
# crystal, experimental, refinement or atomic coordinate data resulting 
# from the CCDC's data processing and validation procedures.
#
#######################################################################

data_VOLZON
_chemical_formula_moiety         'C75 H112 N12,7.5(H2 O1)'
_chemical_name_systematic        
'85,85-dimethyl-5,12,20,27,35,42,50,57,62,69,74,81-dodecaazatetradecacyclo[29.29.10.10^16,46^.1^3,59^.1^5,12^.1^14,18^.1^29,33^.1^44,48^.0^6,11^.0^21,26^.0^36,41^.0^51,56^.0^63,68^.0^75,80^]pentaoctaconta-1,3(71),14(84),15,17,29(83),30,32,44(72),45,47,59-dodecaene hydrate'
_symmetry_cell_setting           cubic
_symmetry_space_group_name_H-M   'F 41 3 2'
_symmetry_Int_Tables_number      210
_space_group_name_Hall           'F 4d 2 3'
loop_
_symmetry_equiv_pos_site_id
_symmetry_equiv_pos_as_xyz
1 x,y,z
2 1/4-y,1/4+x,1/4+z
3 -x,-y,z
4 1/4+y,1/4-x,1/4+z
5 1/4+x,1/4-z,1/4+y
6 x,-y,-z
7 1/4+x,1/4+z,1/4-y
8 1/4+z,1/4+y,1/4-x
9 -x,y,-z
10 1/4-z,1/4+y,1/4+x
11 z,x,y
12 y,z,x
13 -y,-z,x
14 z,-x,-y
15 -y,z,-x
16 -z,-x,y
17 -z,x,-y
18 y,-z,-x
19 1/4+y,1/4+x,1/4-z
20 1/4-y,1/4-x,1/4-z
21 1/4-x,1/4+z,1/4+y
22 1/4-x,1/4-z,1/4-y
23 1/4+z,1/4-y,1/4+x
24 1/4-z,1/4-y,1/4-x
25 x,1/2+y,1/2+z
26 1/4-y,3/4+x,3/4+z
27 -x,1/2-y,1/2+z
28 1/4+y,3/4-x,3/4+z
29 1/4+x,3/4-z,3/4+y
30 x,1/2-y,1/2-z
31 1/4+x,3/4+z,3/4-y
32 1/4+z,3/4+y,3/4-x
33 -x,1/2+y,1/2-z
34 1/4-z,3/4+y,3/4+x
35 z,1/2+x,1/2+y
36 y,1/2+z,1/2+x
37 -y,1/2-z,1/2+x
38 z,1/2-x,1/2-y
39 -y,1/2+z,1/2-x
40 -z,1/2-x,1/2+y
41 -z,1/2+x,1/2-y
42 y,1/2-z,1/2-x
43 1/4+y,3/4+x,3/4-z
44 1/4-y,3/4-x,3/4-z
45 1/4-x,3/4+z,3/4+y
46 1/4-x,3/4-z,3/4-y
47 1/4+z,3/4-y,3/4+x
48 1/4-z,3/4-y,3/4-x
49 1/2+x,y,1/2+z
50 3/4-y,1/4+x,3/4+z
51 1/2-x,-y,1/2+z
52 3/4+y,1/4-x,3/4+z
53 3/4+x,1/4-z,3/4+y
54 1/2+x,-y,1/2-z
55 3/4+x,1/4+z,3/4-y
56 3/4+z,1/4+y,3/4-x
57 1/2-x,y,1/2-z
58 3/4-z,1/4+y,3/4+x
59 1/2+z,x,1/2+y
60 1/2+y,z,1/2+x
61 1/2-y,-z,1/2+x
62 1/2+z,-x,1/2-y
63 1/2-y,z,1/2-x
64 1/2-z,-x,1/2+y
65 1/2-z,x,1/2-y
66 1/2+y,-z,1/2-x
67 3/4+y,1/4+x,3/4-z
68 3/4-y,1/4-x,3/4-z
69 3/4-x,1/4+z,3/4+y
70 3/4-x,1/4-z,3/4-y
71 3/4+z,1/4-y,3/4+x
72 3/4-z,1/4-y,3/4-x
73 1/2+x,1/2+y,z
74 3/4-y,3/4+x,1/4+z
75 1/2-x,1/2-y,z
76 3/4+y,3/4-x,1/4+z
77 3/4+x,3/4-z,1/4+y
78 1/2+x,1/2-y,-z
79 3/4+x,3/4+z,1/4-y
80 3/4+z,3/4+y,1/4-x
81 1/2-x,1/2+y,-z
82 3/4-z,3/4+y,1/4+x
83 1/2+z,1/2+x,y
84 1/2+y,1/2+z,x
85 1/2-y,1/2-z,x
86 1/2+z,1/2-x,-y
87 1/2-y,1/2+z,-x
88 1/2-z,1/2-x,y
89 1/2-z,1/2+x,-y
90 1/2+y,1/2-z,-x
91 3/4+y,3/4+x,1/4-z
92 3/4-y,3/4-x,1/4-z
93 3/4-x,3/4+z,1/4+y
94 3/4-x,3/4-z,1/4-y
95 3/4+z,3/4-y,1/4+x
96 3/4-z,3/4-y,1/4-x
_cell_length_a                   25.4685(14)
_cell_length_b                   25.4685(14)
_cell_length_c                   25.4685(14)
_cell_angle_alpha                90
_cell_angle_beta                 90
_cell_angle_gamma                90
_cell_volume                     16520
_cell_formula_units_Z            8
loop_
_atom_site_label
_atom_site_type_symbol
_atom_site_fract_x
_atom_site_fract_y
_atom_site_fract_z
O1 O -0.2500 0.1733(4) 0.2500
C1 C -0.12733(14) 0.10799(13) 0.18206(15)
H1 H -0.1192 0.0867 0.2116
C2 C -0.17019(14) 0.09592(13) 0.15112(13)
C3 C -0.20354(18) 0.04753(16) 0.16108(17)
C4 C -0.23853(13) -0.01523(12) 0.22223(13)
C5 C -0.20510(16) -0.06399(14) 0.21368(16)
H2 H -0.1749 -0.0635 0.2382
H3 H -0.1912 -0.0640 0.1774
C6 C -0.23762(16) -0.11380(13) 0.22273(14)
H4 H -0.2656 -0.1160 0.1958
H5 H -0.2148 -0.1450 0.2189
H6 H -0.2385 0.0531 0.1451
H7 H -0.1871 0.0173 0.1431
H8 H -0.2682 -0.0159 0.1965
C7 C -0.2500 0.0729(12) 0.2500
N1 N -0.21060(14) 0.03426(11) 0.21634(12)
C8 C -0.2144(8) 0.1073(9) 0.2832(8)
H9 H -0.2350 0.1357 0.2991
H10 H -0.1868 0.1225 0.2610
C1N C -0.10799(13) 0.18206(15) 0.12733(14)
H1N H -0.0867 0.2116 0.1192
C2N C -0.09592(13) 0.15112(13) 0.17019(14)
C3N C -0.04753(16) 0.16108(17) 0.20354(18)
C4N C 0.01523(12) 0.22223(13) 0.23853(13)
C5N C 0.06399(14) 0.21368(16) 0.20510(16)
H2N H 0.0635 0.2382 0.1749
H3N H 0.0640 0.1774 0.1912
C6N C 0.11380(13) 0.22273(14) 0.23762(16)
H4N H 0.1160 0.1958 0.2656
H5N H 0.1450 0.2189 0.2148
H6N H -0.0531 0.1451 0.2385
H7N H -0.0173 0.1431 0.1871
H8N H 0.0159 0.1965 0.2682
C7N C -0.0729(12) 0.2500 0.2500
N1N N -0.03426(11) 0.21634(12) 0.21060(14)
C8N C -0.1073(9) 0.2832(8) 0.2144(8)
H9N H -0.1357 0.2991 0.2350
H10N H -0.1225 0.2610 0.1868
C1O C -0.18206(15) 0.12733(14) 0.10799(13)
H1O H -0.2116 0.1192 0.0867
C2O C -0.15112(13) 0.17019(14) 0.09592(13)
C3O C -0.16108(17) 0.20354(18) 0.04753(16)
C4O C -0.22223(13) 0.23853(13) -0.01523(12)
C5O C -0.21368(16) 0.20510(16) -0.06399(14)
H2O H -0.2382 0.1749 -0.0635
H3O H -0.1774 0.1912 -0.0640
C6O C -0.22273(14) 0.23762(16) -0.11380(13)
H4O H -0.1958 0.2656 -0.1160
H5O H -0.2189 0.2148 -0.1450
H6O H -0.1451 0.2385 0.0531
H7O H -0.1431 0.1871 0.0173
H8O H -0.1965 0.2682 -0.0159
C7O C -0.2500 0.2500 0.0729(12)
N1O N -0.21634(12) 0.21060(14) 0.03426(11)
C8O C -0.2832(8) 0.2144(8) 0.1073(9)
H9O H -0.2991 0.2350 0.1357
H10O H -0.2610 0.1868 0.1225
C1JA C -0.10799(13) 0.31794(15) 0.37267(14)
H1JA H -0.0867 0.2884 0.3808
C2JA C -0.09592(13) 0.34888(13) 0.32981(14)
C3JA C -0.04753(16) 0.33892(17) 0.29646(18)
C4JA C 0.01523(12) 0.27777(13) 0.26147(13)
C5JA C 0.06399(14) 0.28632(16) 0.29490(16)
H2JA H 0.0635 0.2618 0.3251
H3JA H 0.0640 0.3226 0.3088
C6JA C 0.11380(13) 0.27727(14) 0.26238(16)
H4JA H 0.1160 0.3042 0.2344
H5JA H 0.1450 0.2811 0.2852
H6JA H -0.0531 0.3549 0.2615
H7JA H -0.0173 0.3569 0.3129
H8JA H 0.0159 0.3035 0.2318
N1JA N -0.03426(11) 0.28366(12) 0.28940(14)
C8JA C -0.1073(9) 0.2168(8) 0.2856(8)
H9JA H -0.1357 0.2009 0.2650
H10JA H -0.1225 0.2390 0.3132
C1DB C -0.37267(14) 0.10799(13) 0.31794(15)
H1DB H -0.3808 0.0867 0.2884
C2DB C -0.32981(14) 0.09592(13) 0.34888(13)
C3DB C -0.29646(18) 0.04753(16) 0.33892(17)
C4DB C -0.26147(13) -0.01523(12) 0.27777(13)
C5DB C -0.29490(16) -0.06399(14) 0.28632(16)
H2DB H -0.3251 -0.0635 0.2618
H3DB H -0.3088 -0.0640 0.3226
C6DB C -0.26238(16) -0.11380(13) 0.27727(14)
H4DB H -0.2344 -0.1160 0.3042
H5DB H -0.2852 -0.1450 0.2811
H6DB H -0.2615 0.0531 0.3549
H7DB H -0.3129 0.0173 0.3569
H8DB H -0.2318 -0.0159 0.3035
N1DB N -0.28940(14) 0.03426(11) 0.28366(12)
C8DB C -0.2856(8) 0.1073(9) 0.2168(8)
H9DB H -0.2650 0.1357 0.2009
H10DB H -0.3132 0.1225 0.2390
C1CA C -0.12733(14) 0.39201(13) 0.31794(15)
H1CA H -0.1192 0.4133 0.2884
C2CA C -0.17019(14) 0.40408(13) 0.34888(13)
C3CA C -0.20354(18) 0.45247(16) 0.33892(17)
C4CA C -0.23853(13) 0.51523(12) 0.27777(13)
C5CA C -0.20510(16) 0.56399(14) 0.28632(16)
H2CA H -0.1749 0.5635 0.2618
H3CA H -0.1912 0.5640 0.3226
C6CA C -0.23762(16) 0.61380(13) 0.27727(14)
H4CA H -0.2656 0.6160 0.3042
H5CA H -0.2148 0.6450 0.2811
H6CA H -0.2385 0.4469 0.3549
H7CA H -0.1871 0.4827 0.3569
H8CA H -0.2682 0.5159 0.3035
C7CA C -0.2500 0.4271(12) 0.2500
N1CA N -0.21060(14) 0.46574(11) 0.28366(12)
C8CA C -0.2144(8) 0.3927(9) 0.2168(8)
H9CA H -0.2350 0.3643 0.2009
H10CA H -0.1868 0.3775 0.2390
C1NA C -0.18206(15) 0.37267(14) 0.39201(13)
H1NA H -0.2116 0.3808 0.4133
C2NA C -0.15112(13) 0.32981(14) 0.40408(13)
C3NA C -0.16108(17) 0.29646(18) 0.45247(16)
C4NA C -0.22223(13) 0.26147(13) 0.51523(12)
C5NA C -0.21368(16) 0.29490(16) 0.56399(14)
H2NA H -0.2382 0.3251 0.5635
H3NA H -0.1774 0.3088 0.5640
C6NA C -0.22273(14) 0.26238(16) 0.61380(13)
H4NA H -0.1958 0.2344 0.6160
H5NA H -0.2189 0.2852 0.6450
H6NA H -0.1451 0.2615 0.4469
H7NA H -0.1431 0.3129 0.4827
H8NA H -0.1965 0.2318 0.5159
C7NA C -0.2500 0.2500 0.4271(12)
N1NA N -0.21634(12) 0.28940(14) 0.46574(11)
C8NA C -0.2832(8) 0.2856(8) 0.3927(9)
H9NA H -0.2991 0.2650 0.3643
H10NA H -0.2610 0.3132 0.3775
C1GB C -0.39201(13) 0.18206(15) 0.37267(14)
H1GB H -0.4133 0.2116 0.3808
C2GB C -0.40408(13) 0.15112(13) 0.32981(14)
C3GB C -0.45247(16) 0.16108(17) 0.29646(18)
C4GB C -0.51523(12) 0.22223(13) 0.26147(13)
C5GB C -0.56399(14) 0.21368(16) 0.29490(16)
H2GB H -0.5635 0.2382 0.3251
H3GB H -0.5640 0.1774 0.3088
C6GB C -0.61380(13) 0.22273(14) 0.26238(16)
H4GB H -0.6160 0.1958 0.2344
H5GB H -0.6450 0.2189 0.2852
H6GB H -0.4469 0.1451 0.2615
H7GB H -0.4827 0.1431 0.3129
H8GB H -0.5159 0.1965 0.2318
C7GB C -0.4271(12) 0.2500 0.2500
N1GB N -0.46574(11) 0.21634(12) 0.28940(14)
C8GB C -0.3927(9) 0.2832(8) 0.2856(8)
H9GB H -0.3643 0.2991 0.2650
H10GB H -0.3775 0.2610 0.3132
C1IB C -0.31794(15) 0.12733(14) 0.39201(13)
H1IB H -0.2884 0.1192 0.4133
C2IB C -0.34888(13) 0.17019(14) 0.40408(13)
C3IB C -0.33892(17) 0.20354(18) 0.45247(16)
C4IB C -0.27777(13) 0.23853(13) 0.51523(12)
C5IB C -0.28632(16) 0.20510(16) 0.56399(14)
H2IB H -0.2618 0.1749 0.5635
H3IB H -0.3226 0.1912 0.5640
C6IB C -0.27727(14) 0.23762(16) 0.61380(13)
H4IB H -0.3042 0.2656 0.6160
H5IB H -0.2811 0.2148 0.6450
H6IB H -0.3549 0.2385 0.4469
H7IB H -0.3569 0.1871 0.4827
H8IB H -0.3035 0.2682 0.5159
N1IB N -0.28366(12) 0.21060(14) 0.46574(11)
C8IB C -0.2168(8) 0.2144(8) 0.3927(9)
H9IB H -0.2009 0.2350 0.3643
H10IB H -0.2390 0.1868 0.3775
C1VB C -0.37267(14) 0.39201(13) 0.18206(15)
H1VB H -0.3808 0.4133 0.2116
C2VB C -0.32981(14) 0.40408(13) 0.15112(13)
C3VB C -0.29646(18) 0.45247(16) 0.16108(17)
C4VB C -0.26147(13) 0.51523(12) 0.22223(13)
C5VB C -0.29490(16) 0.56399(14) 0.21368(16)
H2VB H -0.3251 0.5635 0.2382
H3VB H -0.3088 0.5640 0.1774
C6VB C -0.26238(16) 0.61380(13) 0.22273(14)
H4VB H -0.2344 0.6160 0.1958
H5VB H -0.2852 0.6450 0.2189
H6VB H -0.2615 0.4469 0.1451
H7VB H -0.3129 0.4827 0.1431
H8VB H -0.2318 0.5159 0.1965
N1VB N -0.28940(14) 0.46574(11) 0.21634(12)
C8VB C -0.2856(8) 0.3927(9) 0.2832(8)
H9VB H -0.2650 0.3643 0.2991
H10VB H -0.3132 0.3775 0.2610
C1DC C -0.31794(15) 0.37267(14) 0.10799(13)
H1DC H -0.2884 0.3808 0.0867
C2DC C -0.34888(13) 0.32981(14) 0.09592(13)
C3DC C -0.33892(17) 0.29646(18) 0.04753(16)
C4DC C -0.27777(13) 0.26147(13) -0.01523(12)
C5DC C -0.28632(16) 0.29490(16) -0.06399(14)
H2DC H -0.2618 0.3251 -0.0635
H3DC H -0.3226 0.3088 -0.0640
C6DC C -0.27727(14) 0.26238(16) -0.11380(13)
H4DC H -0.3042 0.2344 -0.1160
H5DC H -0.2811 0.2852 -0.1450
H6DC H -0.3549 0.2615 0.0531
H7DC H -0.3569 0.3129 0.0173
H8DC H -0.3035 0.2318 -0.0159
N1DC N -0.28366(12) 0.28940(14) 0.03426(11)
C8DC C -0.2168(8) 0.2856(8) 0.1073(9)
H9DC H -0.2009 0.2650 0.1357
H10DC H -0.2390 0.3132 0.1225
C1KC C -0.39201(13) 0.31794(15) 0.12733(14)
H1KC H -0.4133 0.2884 0.1192
C2KC C -0.40408(13) 0.34888(13) 0.17019(14)
C3KC C -0.45247(16) 0.33892(17) 0.20354(18)
C4KC C -0.51523(12) 0.27777(13) 0.23853(13)
C5KC C -0.56399(14) 0.28632(16) 0.20510(16)
H2KC H -0.5635 0.2618 0.1749
H3KC H -0.5640 0.3226 0.1912
C6KC C -0.61380(13) 0.27727(14) 0.23762(16)
H4KC H -0.6160 0.3042 0.2656
H5KC H -0.6450 0.2811 0.2148
H6KC H -0.4469 0.3549 0.2385
H7KC H -0.4827 0.3569 0.1871
H8KC H -0.5159 0.3035 0.2682
N1KC N -0.46574(11) 0.28366(12) 0.21060(14)
C8KC C -0.3927(9) 0.2168(8) 0.2144(8)
H9KC H -0.3643 0.2009 0.2350
H10KC H -0.3775 0.2390 0.1868
H11? H -0.2211(18) 0.0647(9) 0.2288(18)
H12? H -0.2385 0.0531 0.1451
H13? H -0.1871 0.0173 0.1431
H14? H -0.2682 -0.0159 0.1965
N2? N -0.21060(14) 0.03426(11) 0.21634(12)
H15? H -0.1983 0.0861 0.3110
O2? O -0.1250 0.0470(9) 0.2970(9)
O3? O -0.1482(6) 0.0876(6) 0.3234(6)
loop_
_geom_bond_atom_site_label_1
_geom_bond_atom_site_label_2
_geom_bond_site_symmetry_1
_geom_bond_site_symmetry_2
C1 H1 1_555 1_555
C2 C1 1_555 1_555
C3 C2 1_555 1_555
C4 C5 1_555 1_555
C5 H2 1_555 1_555
H3 C5 1_555 1_555
C6 C5 1_555 1_555
H4 C6 1_555 1_555
H5 C6 1_555 1_555
H6 C3 1_555 1_555
H7 C3 1_555 1_555
H8 C4 1_555 1_555
C7 N1 1_555 1_555
N1 C3 1_555 1_555
C8 C7 1_555 1_555
H9 C8 1_555 1_555
H10 C8 1_555 1_555
C1N H1N 1_555 1_555
C2N C1 1_555 1_555
C3N C2N 1_555 1_555
C4N C5N 1_555 1_555
C5N H2N 1_555 1_555
H3N C5N 1_555 1_555
C6N C5N 1_555 1_555
H4N C6N 1_555 1_555
H5N C6N 1_555 1_555
H6N C3N 1_555 1_555
H7N C3N 1_555 1_555
H8N C4N 1_555 1_555
C7N N1N 1_555 1_555
N1N C3N 1_555 1_555
C8N C7N 1_555 1_555
H9N C8N 1_555 1_555
H10N C8N 1_555 1_555
C1O C2 1_555 1_555
H1O C1O 1_555 1_555
C2O C1N 1_555 1_555
C3O C2O 1_555 1_555
C4O C5O 1_555 1_555
C5O H2O 1_555 1_555
H3O C5O 1_555 1_555
C6O C5O 1_555 1_555
H4O C6O 1_555 1_555
H5O C6O 1_555 1_555
H6O C3O 1_555 1_555
H7O C3O 1_555 1_555
H8O C4O 1_555 1_555
C7O N1O 1_555 1_555
N1O C3O 1_555 1_555
C8O C7O 1_555 1_555
H9O C8O 1_555 1_555
H10O C8O 1_555 1_555
C1JA H1JA 1_555 1_555
C2JA C1JA 1_555 1_555
C3JA C2JA 1_555 1_555
C4JA C4N 1_555 1_555
C5JA C4JA 1_555 1_555
H2JA C5JA 1_555 1_555
H3JA C5JA 1_555 1_555
C6JA C6N 1_555 1_555
H4JA C6JA 1_555 1_555
H5JA C6JA 1_555 1_555
H6JA C3JA 1_555 1_555
H7JA C3JA 1_555 1_555
H8JA C4JA 1_555 1_555
N1JA C7N 1_555 1_555
C8JA C7N 1_555 1_555
H9JA C8JA 1_555 1_555
H10JA C8JA 1_555 1_555
C1DB H1DB 1_555 1_555
C2DB C1DB 1_555 1_555
C3DB C2DB 1_555 1_555
C4DB C4 1_555 1_555
C5DB C4DB 1_555 1_555
H2DB C5DB 1_555 1_555
H3DB C5DB 1_555 1_555
C6DB C6 1_555 1_555
H4DB C6DB 1_555 1_555
H5DB C6DB 1_555 1_555
H6DB C3DB 1_555 1_555
H7DB C3DB 1_555 1_555
H8DB C4DB 1_555 1_555
N1DB C7 1_555 1_555
C8DB C7 1_555 1_555
H9DB C8DB 1_555 1_555
H10DB C8DB 1_555 1_555
C1CA C2JA 1_555 1_555
H1CA C1CA 1_555 1_555
C2CA C1CA 1_555 1_555
C3CA C2CA 1_555 1_555
C4CA C5CA 1_555 1_555
C5CA H2CA 1_555 1_555
H3CA C5CA 1_555 1_555
C6CA C5CA 1_555 1_555
H4CA C6CA 1_555 1_555
H5CA C6CA 1_555 1_555
H6CA C3CA 1_555 1_555
H7CA C3CA 1_555 1_555
H8CA C4CA 1_555 1_555
C7CA N1CA 1_555 1_555
N1CA C3CA 1_555 1_555
C8CA C7CA 1_555 1_555
H9CA C8CA 1_555 1_555
H10CA C8CA 1_555 1_555
C1NA C2CA 1_555 1_555
H1NA C1NA 1_555 1_555
C2NA C1JA 1_555 1_555
C3NA C2NA 1_555 1_555
C4NA C5NA 1_555 1_555
C5NA H2NA 1_555 1_555
H3NA C5NA 1_555 1_555
C6NA C5NA 1_555 1_555
H4NA C6NA 1_555 1_555
H5NA C6NA 1_555 1_555
H6NA C3NA 1_555 1_555
H7NA C3NA 1_555 1_555
H8NA C4NA 1_555 1_555
C7NA N1NA 1_555 1_555
N1NA C3NA 1_555 1_555
C8NA C7NA 1_555 1_555
H9NA C8NA 1_555 1_555
H10NA C8NA 1_555 1_555
C1GB H1GB 1_555 1_555
C2GB C1DB 1_555 1_555
C3GB C2GB 1_555 1_555
C4GB C5GB 1_555 1_555
C5GB H2GB 1_555 1_555
H3GB C5GB 1_555 1_555
C6GB C5GB 1_555 1_555
H4GB C6GB 1_555 1_555
H5GB C6GB 1_555 1_555
H6GB C3GB 1_555 1_555
H7GB C3GB 1_555 1_555
H8GB C4GB 1_555 1_555
C7GB N1GB 1_555 1_555
N1GB C3GB 1_555 1_555
C8GB C7GB 1_555 1_555
H9GB C8GB 1_555 1_555
H10GB C8GB 1_555 1_555
C1IB C2DB 1_555 1_555
H1IB C1IB 1_555 1_555
C2IB C1GB 1_555 1_555
C3IB C2IB 1_555 1_555
C4IB C4NA 1_555 1_555
C5IB C4IB 1_555 1_555
H2IB C5IB 1_555 1_555
H3IB C5IB 1_555 1_555
C6IB C6NA 1_555 1_555
H4IB C6IB 1_555 1_555
H5IB C6IB 1_555 1_555
H6IB C3IB 1_555 1_555
H7IB C3IB 1_555 1_555
H8IB C4IB 1_555 1_555
N1IB C7NA 1_555 1_555
C8IB C7NA 1_555 1_555
H9IB C8IB 1_555 1_555
H10IB C8IB 1_555 1_555
C1VB H1VB 1_555 1_555
C2VB C1VB 1_555 1_555
C3VB C2VB 1_555 1_555
C4VB C4CA 1_555 1_555
C5VB C4VB 1_555 1_555
H2VB C5VB 1_555 1_555
H3VB C5VB 1_555 1_555
C6VB C6CA 1_555 1_555
H4VB C6VB 1_555 1_555
H5VB C6VB 1_555 1_555
H6VB C3VB 1_555 1_555
H7VB C3VB 1_555 1_555
H8VB C4VB 1_555 1_555
N1VB C7CA 1_555 1_555
C8VB C7CA 1_555 1_555
H9VB C8VB 1_555 1_555
H10VB C8VB 1_555 1_555
C1DC C2VB 1_555 1_555
H1DC C1DC 1_555 1_555
C2DC C1DC 1_555 1_555
C3DC C2DC 1_555 1_555
C4DC C4O 1_555 1_555
C5DC C4DC 1_555 1_555
H2DC C5DC 1_555 1_555
H3DC C5DC 1_555 1_555
C6DC C6O 1_555 1_555
H4DC C6DC 1_555 1_555
H5DC C6DC 1_555 1_555
H6DC C3DC 1_555 1_555
H7DC C3DC 1_555 1_555
H8DC C4DC 1_555 1_555
N1DC C7O 1_555 1_555
C8DC C7O 1_555 1_555
H9DC C8DC 1_555 1_555
H10DC C8DC 1_555 1_555
C1KC C2DC 1_555 1_555
H1KC C1KC 1_555 1_555
C2KC C1VB 1_555 1_555
C3KC C2KC 1_555 1_555
C4KC C4GB 1_555 1_555
C5KC C4KC 1_555 1_555
H2KC C5KC 1_555 1_555
H3KC C5KC 1_555 1_555
C6KC C6GB 1_555 1_555
H4KC C6KC 1_555 1_555
H5KC C6KC 1_555 1_555
H6KC C3KC 1_555 1_555
H7KC C3KC 1_555 1_555
H8KC C4KC 1_555 1_555
N1KC C7GB 1_555 1_555
C8KC C7GB 1_555 1_555
H9KC C8KC 1_555 1_555
H10KC C8KC 1_555 1_555
C4 N1 1_555 1_555
C1N C2N 1_555 1_555
C4N N1N 1_555 1_555
C1O C2O 1_555 1_555
C4O N1O 1_555 1_555
C3JA N1JA 1_555 1_555
C4JA N1JA 1_555 1_555
C5JA C6JA 1_555 1_555
C3DB N1DB 1_555 1_555
C4DB N1DB 1_555 1_555
C5DB C6DB 1_555 1_555
C4CA N1CA 1_555 1_555
C1NA C2NA 1_555 1_555
C4NA N1NA 1_555 1_555
C1GB C2GB 1_555 1_555
C4GB N1GB 1_555 1_555
C1IB C2IB 1_555 1_555
C3IB N1IB 1_555 1_555
C4IB N1IB 1_555 1_555
C5IB C6IB 1_555 1_555
C3VB N1VB 1_555 1_555
C4VB N1VB 1_555 1_555
C5VB C6VB 1_555 1_555
C3DC N1DC 1_555 1_555
C4DC N1DC 1_555 1_555
C5DC C6DC 1_555 1_555
C1KC C2KC 1_555 1_555
C3KC N1KC 1_555 1_555
C4KC N1KC 1_555 1_555
C5KC C6KC 1_555 1_555

#END
