
#######################################################################
#
#                 Cambridge Crystallographic Data Centre
#                                CCDC 
#
#######################################################################
#
# If this CIF has been generated from an entry in the Cambridge 
# Structural Database, then it will include bibliographic, chemical, 
# crystal, experimental, refinement or atomic coordinate data resulting 
# from the CCDC's data processing and validation procedures.
#
#######################################################################

data_VOMBUW
_chemical_formula_moiety         'C70 H66 B2 F4 N12,3(C1 H2 Cl2)'
_chemical_name_systematic        
'3,4,24,25,33,34,54,55-octaethyl-7,7,37,37-tetrafluoro-6,8\l^5^,36,38\l^5^,61,62,63,64,65,66,67,68-dodecaaza-7,37-diborapentadecacyclo[55.3.1.1^14,17^.1^18,22^.1^23,26^.1^27,31^.1^44,47^.1^48,52^.1^53,56^.0^2,6^.0^5,9^.0^8,13^.0^32,36^.0^35,39^.0^38,43^]octahexaconta-1(61),2,4,8,10,12,14,16,18(67),19,21,23,25,27(65),28,30,32,34,38,40,42,44,46,48(63),49,51,53,55,57,59-triacontaene dichloromethane solvate'
_symmetry_cell_setting           monoclinic
_symmetry_space_group_name_H-M   'C 2/c'
_symmetry_Int_Tables_number      15
_space_group_name_Hall           '-C 2yn'
loop_
_symmetry_equiv_pos_site_id
_symmetry_equiv_pos_as_xyz
1 x,y,z
2 -x,y,1/2-z
3 1/2+x,1/2+y,z
4 1/2-x,1/2+y,1/2-z
5 -x,-y,-z
6 x,-y,1/2+z
7 1/2-x,1/2-y,-z
8 1/2+x,1/2-y,1/2+z
_cell_length_a                   19.9804(8)
_cell_length_b                   24.2299(7)
_cell_length_c                   14.8827(4)
_cell_angle_alpha                90
_cell_angle_beta                 96.210(3)
_cell_angle_gamma                90
_cell_volume                     7162.78
_exptl_crystal_colour            orange
_exptl_crystal_description       needle
_cell_formula_units_Z            4
loop_
_atom_site_label
_atom_site_type_symbol
_atom_site_fract_x
_atom_site_fract_y
_atom_site_fract_z
N1 N -0.15306(14) 0.53610(10) 0.08211(16)
C1 C -0.13220(18) 0.57812(13) 0.1399(2)
C2 C -0.07458(17) 0.58590(14) 0.2999(2)
H1 H -0.0735 0.6251 0.2995
N2 N -0.10551(13) 0.50067(10) 0.22428(16)
C3 C -0.14811(18) 0.62877(13) 0.1000(2)
C4 C -0.07806(16) 0.41118(13) 0.29687(19)
C5 C -0.09528(17) 0.31981(13) 0.2846(2)
H2 H -0.1144 0.2850 0.2672
C6 C -0.07834(16) 0.47101(13) 0.2974(2)
C7 C -0.18399(17) 0.55927(13) 0.0037(2)
C8 C -0.04810(18) 0.55682(13) 0.3747(2)
H3 H -0.0287 0.5759 0.4269
C9 C -0.11995(17) 0.37121(13) 0.2542(2)
H4 H -0.1584 0.3776 0.2121
C10 C -0.18097(17) 0.61675(13) 0.0134(2)
C11 C -0.10269(16) 0.55703(13) 0.2255(2)
C12 C -0.2093(2) 0.66129(14) -0.0514(2)
H5 H -0.2055 0.6491 -0.1142
H6 H -0.1821 0.6953 -0.0405
C13 C -0.1319(2) 0.68480(14) 0.1391(2)
H7 H -0.1359 0.6837 0.2048
H8 H -0.1655 0.7116 0.1115
C14 C -0.2821(2) 0.67435(17) -0.0417(3)
H9 H -0.2993 0.7003 -0.0891
H10 H -0.2854 0.6909 0.0178
H11 H -0.3086 0.6403 -0.0474
C15 C -0.0620(2) 0.70495(17) 0.1247(3)
H12 H -0.0578 0.7068 0.0598
H13 H -0.0283 0.6794 0.1537
H14 H -0.0548 0.7417 0.1513
N3 N -0.20337(14) 0.46975(11) -0.06081(17)
N4 N -0.16493(14) 0.35984(11) -0.04982(17)
C16 C -0.27095(18) 0.45439(15) -0.2021(2)
H15 H -0.2890 0.4295 -0.2478
C17 C -0.25562(18) 0.54575(14) -0.1438(2)
H16 H -0.2645 0.5842 -0.1482
C18 C -0.04415(18) 0.19832(14) 0.0698(2)
H17 H -0.0386 0.1595 0.0749
N5 N -0.06006(14) 0.31174(11) 0.05311(16)
C19 C -0.23154(17) 0.43528(14) -0.1247(2)
C20 C 0.00085(17) 0.23315(13) 0.1181(2)
H18 H 0.0373 0.2189 0.1575
C21 C -0.15931(18) 0.30328(14) -0.0494(2)
C22 C -0.21843(18) 0.37622(14) -0.1093(2)
C23 C -0.2163(2) 0.28231(16) -0.1050(3)
C24 C -0.2531(2) 0.32832(17) -0.1416(3)
C25 C -0.00862(16) 0.28988(13) 0.10760(19)
C26 C -0.1951(3) 0.1957(2) -0.1954(3)
H19 H -0.2041 0.2151 -0.2532
H20 H -0.2085 0.1570 -0.2031
H21 H -0.1469 0.1978 -0.1747
C27 C -0.3078(2) 0.3190(2) -0.3041(3)
H22 H -0.3516 0.3212 -0.3406
H23 H -0.2871 0.2831 -0.3136
H24 H -0.2785 0.3485 -0.3220
C28 C -0.10398(17) 0.27706(13) 0.0071(2)
C29 C -0.28270(18) 0.51055(15) -0.2101(2)
H25 H -0.3096 0.5247 -0.2615
C30 C -0.3177(2) 0.32550(19) -0.2040(3)
H26 H -0.3439 0.3596 -0.1965
H27 H -0.3447 0.2940 -0.1856
C31 C -0.09719(17) 0.22008(14) 0.0140(2)
H28 H -0.1287 0.1964 -0.0192
C32 C -0.2355(2) 0.2230(2) -0.1248(3)
H29 H -0.2840 0.2213 -0.1468
H30 H -0.2286 0.2016 -0.0679
C33 C -0.21497(17) 0.52444(13) -0.0699(2)
C34 C -0.04972(17) 0.49972(13) 0.3737(2)
H31 H -0.0312 0.4798 0.4255
C35 C -0.03830(17) 0.32840(13) 0.34409(19)
N6 N -0.02912(15) 0.38394(11) 0.35243(17)
F1 F -0.19978(9) 0.45130(7) 0.13680(11)
F2 F -0.09563(9) 0.44582(7) 0.08737(11)
B1 B -0.1417(2) 0.47907(15) 0.1261(2)
H32 H 0.0077(16) 0.3983(13) 0.374(2)
H33 H -0.1407(19) 0.3845(17) -0.014(3)
N1A N 0.15306(14) 0.53610(10) 0.41789(16)
C1A C 0.13220(18) 0.57812(13) 0.3601(2)
C2A C 0.07458(17) 0.58590(14) 0.2001(2)
H1A H 0.0735 0.6251 0.2005
N2A N 0.10551(13) 0.50067(10) 0.27572(16)
C3A C 0.14811(18) 0.62877(13) 0.4000(2)
C4A C 0.07806(16) 0.41118(13) 0.20313(19)
C5A C 0.09528(17) 0.31981(13) 0.2154(2)
H2A H 0.1144 0.2850 0.2328
C6A C 0.07834(16) 0.47101(13) 0.2026(2)
C7A C 0.18399(17) 0.55927(13) 0.4963(2)
C8A C 0.04810(18) 0.55682(13) 0.1253(2)
H3A H 0.0287 0.5759 0.0731
C9A C 0.11995(17) 0.37121(13) 0.2458(2)
H4A H 0.1584 0.3776 0.2879
C10A C 0.18097(17) 0.61675(13) 0.4866(2)
C11A C 0.10269(16) 0.55703(13) 0.2745(2)
C12A C 0.2093(2) 0.66129(14) 0.5514(2)
H5A H 0.2055 0.6491 0.6142
H6A H 0.1821 0.6953 0.5405
C13A C 0.1319(2) 0.68480(14) 0.3609(2)
H7A H 0.1359 0.6837 0.2952
H8A H 0.1655 0.7116 0.3885
C14A C 0.2821(2) 0.67435(17) 0.5417(3)
H9A H 0.2993 0.7003 0.5891
H10A H 0.2854 0.6909 0.4822
H11A H 0.3086 0.6403 0.5474
C15A C 0.0620(2) 0.70495(17) 0.3753(3)
H12A H 0.0578 0.7068 0.4402
H13A H 0.0283 0.6794 0.3463
H14A H 0.0548 0.7417 0.3487
N3A N 0.20337(14) 0.46975(11) 0.56081(17)
N4A N 0.16493(14) 0.35984(11) 0.54982(17)
C16A C 0.27095(18) 0.45439(15) 0.7021(2)
H15A H 0.2890 0.4295 0.7478
C17A C 0.25562(18) 0.54575(14) 0.6438(2)
H16A H 0.2645 0.5842 0.6482
C18A C 0.04415(18) 0.19832(14) 0.4302(2)
H17A H 0.0386 0.1595 0.4251
N5A N 0.06006(14) 0.31174(11) 0.44689(16)
C19A C 0.23154(17) 0.43528(14) 0.6247(2)
C20A C -0.00085(17) 0.23315(13) 0.3819(2)
H18A H -0.0373 0.2189 0.3425
C21A C 0.15931(18) 0.30328(14) 0.5494(2)
C22A C 0.21843(18) 0.37622(14) 0.6093(2)
C23A C 0.2163(2) 0.28231(16) 0.6050(3)
C24A C 0.2531(2) 0.32832(17) 0.6416(3)
C25A C 0.00862(16) 0.28988(13) 0.39240(19)
C26A C 0.1951(3) 0.1957(2) 0.6954(3)
H19A H 0.2041 0.2151 0.7532
H20A H 0.2085 0.1570 0.7031
H21A H 0.1469 0.1978 0.6747
C27A C 0.3078(2) 0.3190(2) 0.8041(3)
H22A H 0.3516 0.3212 0.8406
H23A H 0.2871 0.2831 0.8136
H24A H 0.2785 0.3485 0.8220
C28A C 0.10398(17) 0.27706(13) 0.4929(2)
C29A C 0.28270(18) 0.51055(15) 0.7101(2)
H25A H 0.3096 0.5247 0.7615
C30A C 0.3177(2) 0.32550(19) 0.7040(3)
H26A H 0.3439 0.3596 0.6965
H27A H 0.3447 0.2940 0.6856
C31A C 0.09719(17) 0.22008(14) 0.4860(2)
H28A H 0.1287 0.1964 0.5192
C32A C 0.2355(2) 0.2230(2) 0.6248(3)
H29A H 0.2840 0.2213 0.6468
H30A H 0.2286 0.2016 0.5679
C33A C 0.21497(17) 0.52444(13) 0.5699(2)
C34A C 0.04972(17) 0.49972(13) 0.1263(2)
H31A H 0.0312 0.4798 0.0745
C35A C 0.03830(17) 0.32840(13) 0.15591(19)
N6A N 0.02912(15) 0.38394(11) 0.14757(17)
F1A F 0.19978(9) 0.45130(7) 0.36320(11)
F2A F 0.09563(9) 0.44582(7) 0.41263(11)
B1A B 0.1417(2) 0.47907(15) 0.3739(2)
H32A H -0.0077(16) 0.3983(13) 0.126(2)
H33A H 0.1407(19) 0.3845(17) 0.514(3)
C42 C 0.1511(2) -0.0181(2) 0.0246(3)
H44 H 0.1470 -0.0171 -0.0423
H45 H 0.1991 -0.0242 0.0464
Cl1 Cl 0.12553(8) 0.04565(5) 0.06496(9)
Cl2 Cl 0.10419(9) -0.07225(6) 0.05880(12)
C36? C -0.2681(10) 0.3302(8) -0.2618(12)
H34? H -0.2624 0.2944 -0.2921
H35? H -0.2569 0.3599 -0.3031
C37? C -0.2211(10) 0.3329(8) -0.1761(12)
C38? C -0.1846(10) 0.2885(7) -0.1365(12)
C39? C -0.3406(11) 0.3363(10) -0.2421(15)
H36? H -0.3704 0.3344 -0.2989
H37? H -0.3464 0.3720 -0.2130
H38? H -0.3519 0.3065 -0.2019
C40? C -0.1858(10) 0.2308(9) -0.1719(13)
H39? H -0.1410 0.2138 -0.1557
H40? H -0.1941 0.2318 -0.2386
C41? C -0.2367(14) 0.1962(10) -0.1371(16)
H41? H -0.2417 0.1619 -0.1721
H42? H -0.2798 0.2159 -0.1422
H43? H -0.2229 0.1875 -0.0735
loop_
_geom_bond_atom_site_label_1
_geom_bond_atom_site_label_2
_geom_bond_site_symmetry_1
_geom_bond_site_symmetry_2
N1 C1 1_555 1_555
C1 C3 1_555 1_555
C2 H1 1_555 1_555
N2 C6 1_555 1_555
C3 C10 1_555 1_555
C4 C6 1_555 1_555
C5 H2 1_555 1_555
C6 C34 1_555 1_555
C7 N1 1_555 1_555
C8 C2 1_555 1_555
H3 C8 1_555 1_555
C9 C4 1_555 1_555
H4 C9 1_555 1_555
C10 C7 1_555 1_555
C11 C1 1_555 1_555
C12 C10 1_555 1_555
H5 C12 1_555 1_555
H6 C12 1_555 1_555
C13 C3 1_555 1_555
H7 C13 1_555 1_555
H8 C13 1_555 1_555
C14 C12 1_555 1_555
H9 C14 1_555 1_555
H10 C14 1_555 1_555
H11 C14 1_555 1_555
C15 C13 1_555 1_555
H12 C15 1_555 1_555
H13 C15 1_555 1_555
H14 C15 1_555 1_555
N3 C19 1_555 1_555
N4 C21 1_555 1_555
C16 H15 1_555 1_555
C17 H16 1_555 1_555
C18 H17 1_555 1_555
N5 C25 1_555 1_555
C19 C16 1_555 1_555
C20 C18 1_555 1_555
H18 C20 1_555 1_555
C21 C23 1_555 1_555
C22 N4 1_555 1_555
C23 C24 1_555 1_555
C24 C22 1_555 1_555
C25 C20 1_555 1_555
C26 H19 1_555 1_555
H20 C26 1_555 1_555
H21 C26 1_555 1_555
C27 H22 1_555 1_555
H23 C27 1_555 1_555
H24 C27 1_555 1_555
C28 N5 1_555 1_555
C29 C16 1_555 1_555
H25 C29 1_555 1_555
C30 C24 1_555 1_555
H26 C30 1_555 1_555
H27 C30 1_555 1_555
C31 C18 1_555 1_555
H28 C31 1_555 1_555
C32 C23 1_555 1_555
H29 C32 1_555 1_555
H30 C32 1_555 1_555
C33 C7 1_555 1_555
C34 C8 1_555 1_555
H31 C34 1_555 1_555
C35 C5 1_555 1_555
N6 C4 1_555 1_555
F1 B1 1_555 1_555
F2 B1 1_555 1_555
B1 N1 1_555 1_555
H32 N6 1_555 1_555
H33 N4 1_555 1_555
C42 H44 1_555 1_555
H45 C42 1_555 1_555
Cl1 C42 1_555 1_555
Cl2 C42 1_555 1_555
N1A C1A 1_555 1_555
C1A C3A 1_555 1_555
C2A H1A 1_555 1_555
N2A C6A 1_555 1_555
C3A C10A 1_555 1_555
C4A C6A 1_555 1_555
C5A H2A 1_555 1_555
C6A C34A 1_555 1_555
C7A N1A 1_555 1_555
C8A C2A 1_555 1_555
H3A C8A 1_555 1_555
C9A C4A 1_555 1_555
H4A C9A 1_555 1_555
C10A C7A 1_555 1_555
C11A C1A 1_555 1_555
C12A C10A 1_555 1_555
H5A C12A 1_555 1_555
H6A C12A 1_555 1_555
C13A C3A 1_555 1_555
H7A C13A 1_555 1_555
H8A C13A 1_555 1_555
C14A C12A 1_555 1_555
H9A C14A 1_555 1_555
H10A C14A 1_555 1_555
H11A C14A 1_555 1_555
C15A C13A 1_555 1_555
H12A C15A 1_555 1_555
H13A C15A 1_555 1_555
H14A C15A 1_555 1_555
N3A C19A 1_555 1_555
N4A C21A 1_555 1_555
C16A H15A 1_555 1_555
C17A H16A 1_555 1_555
C18A H17A 1_555 1_555
N5A C25A 1_555 1_555
C19A C16A 1_555 1_555
C20A C18A 1_555 1_555
H18A C20A 1_555 1_555
C21A C23A 1_555 1_555
C22A N4A 1_555 1_555
C23A C24A 1_555 1_555
C24A C22A 1_555 1_555
C25A C35 1_555 1_555
C26A H19A 1_555 1_555
H20A C26A 1_555 1_555
H21A C26A 1_555 1_555
C27A H22A 1_555 1_555
H23A C27A 1_555 1_555
H24A C27A 1_555 1_555
C28A N5A 1_555 1_555
C29A C16A 1_555 1_555
H25A C29A 1_555 1_555
C30A C24A 1_555 1_555
H26A C30A 1_555 1_555
H27A C30A 1_555 1_555
C31A C18A 1_555 1_555
H28A C31A 1_555 1_555
C32A C23A 1_555 1_555
H29A C32A 1_555 1_555
H30A C32A 1_555 1_555
C33A C7A 1_555 1_555
C34A C8A 1_555 1_555
H31A C34A 1_555 1_555
C35A C25 1_555 1_555
N6A C4A 1_555 1_555
F1A B1A 1_555 1_555
F2A B1A 1_555 1_555
B1A N1A 1_555 1_555
H32A N6A 1_555 1_555
H33A N4A 1_555 1_555
C2 C11 1_555 1_555
N2 C11 1_555 1_555
N2 B1 1_555 1_555
C5 C9 1_555 1_555
N3 C33 1_555 1_555
C17 C29 1_555 1_555
C17 C33 1_555 1_555
C19 C22 1_555 1_555
C21 C28 1_555 1_555
C26 C32 1_555 1_555
C27 C30 1_555 1_555
C28 C31 1_555 1_555
C35 N6 1_555 1_555
C2A C11A 1_555 1_555
N2A C11A 1_555 1_555
N2A B1A 1_555 1_555
C5A C9A 1_555 1_555
C5A C35A 1_555 1_555
N3A C33A 1_555 1_555
C17A C29A 1_555 1_555
C17A C33A 1_555 1_555
C19A C22A 1_555 1_555
C20A C25A 1_555 1_555
C21A C28A 1_555 1_555
C26A C32A 1_555 1_555
C27A C30A 1_555 1_555
C28A C31A 1_555 1_555
C35A N6A 1_555 1_555

#END
