
#######################################################################
#
#                 Cambridge Crystallographic Data Centre
#                                CCDC 
#
#######################################################################
#
# If this CIF has been generated from an entry in the Cambridge 
# Structural Database, then it will include bibliographic, chemical, 
# crystal, experimental, refinement or atomic coordinate data resulting 
# from the CCDC's data processing and validation procedures.
#
#######################################################################

data_VOMBOQ
_chemical_formula_moiety         
'C70 H72 N12 4+,4(Cl1 O4 1-),0.66(H2 O1),3(C1 H1 Cl3),C6 H14'
_chemical_name_systematic        
'3,4,21,22,30,31,48,49-octaethyl-56,58,59,60,62,64,65,66-octaaza-55,57,61,63-tetraazoniatridecacyclo[49.3.1.12,5.16,10.111,14.115,19.120,23.124,28.129,32.133,37.138,41.142,46.147,50]hexahexaconta-1(55),2,4,6(65),7,9,11,13,15(63),16,18,20,22,24(61),25,27,29,31,33(59),34,36,38,40,42(57),43,45,47,49,51,53-triacontaene tetraperchlorate chloroform hexane solvate hydrate'
_symmetry_cell_setting           monoclinic
_symmetry_space_group_name_H-M   'P 21/n'
_symmetry_Int_Tables_number      14
_space_group_name_Hall           '-P 2yn'
loop_
_symmetry_equiv_pos_site_id
_symmetry_equiv_pos_as_xyz
1 x,y,z
2 1/2-x,1/2+y,1/2-z
3 -x,-y,-z
4 1/2+x,1/2-y,1/2+z
_cell_length_a                   17.313(10)
_cell_length_b                   18.516(10)
_cell_length_c                   26.742(15)
_cell_angle_alpha                90
_cell_angle_beta                 93.634(8)
_cell_angle_gamma                90
_cell_volume                     8555.38
_exptl_crystal_colour            red
_exptl_crystal_description       Plate
_cell_formula_units_Z            4
loop_
_atom_site_label
_atom_site_type_symbol
_atom_site_fract_x
_atom_site_fract_y
_atom_site_fract_z
C71 C 0.4183(5) -0.0925(5) 0.4807(3)
H73 H 0.4741 -0.1021 0.4845
Cl1 Cl 0.39897(15) -0.00824(12) 0.51057(9)
Cl2 Cl 0.36971(17) -0.16117(13) 0.51020(12)
Cl3 Cl 0.39096(16) -0.08450(19) 0.41732(9)
O1 O 0.4929(4) 0.0526(3) 0.0952(3)
O2 O 0.4079(4) 0.1472(3) 0.1103(3)
O3 O 0.4305(3) 0.0529(2) 0.16868(17)
O4 O 0.5280(4) 0.1374(3) 0.1563(2)
Cl4 Cl 0.46513(9) 0.09993(8) 0.13161(6)
O5 O 0.2848(4) 0.0036(3) 0.23797(19)
O6 O 0.2254(3) 0.0773(3) 0.2954(2)
O7 O 0.1933(4) -0.0462(3) 0.2906(2)
O8 O 0.3162(3) -0.0095(3) 0.3241(2)
Cl5 Cl 0.25369(10) 0.00662(8) 0.28737(6)
O9 O 0.6476(3) -0.2187(2) 0.38271(18)
O10 O 0.5662(5) -0.1728(6) 0.4414(2)
O11 O 0.6909(7) -0.1443(5) 0.4490(4)
O12 O 0.6512(7) -0.2643(4) 0.4647(3)
Cl6 Cl 0.64067(10) -0.20221(8) 0.43668(6)
Cl7 Cl 0.8227(2) -0.2694(2) 0.20445(15)
O13 O 0.7818(7) -0.2009(5) 0.2073(5)
O14 O 0.8845(8) -0.2687(10) 0.2420(6)
O15 O 0.7620(4) -0.3218(4) 0.2066(3)
O16 O 0.8515(8) -0.2701(7) 0.1556(5)
O21 O 0.6886(4) -0.2608(3) 0.2885(2)
C1 C 0.2371(3) -0.0339(3) 0.0936(2)
C2 C 0.1635(4) -0.0110(3) 0.0746(2)
C3 C 0.1557(4) 0.0627(3) 0.0894(2)
C4 C 0.2221(4) 0.0817(3) 0.1172(2)
C5 C 0.2403(4) 0.1474(3) 0.1434(2)
C6 C 0.2184(4) 0.2169(3) 0.1266(2)
H1 H 0.1873 0.2220 0.0972
C7 C 0.2424(4) 0.2774(3) 0.1533(2)
H2 H 0.2272 0.3226 0.1412
C8 C 0.2893(4) 0.2727(4) 0.1983(3)
H3 H 0.3047 0.3140 0.2160
C9 C 0.3121(3) 0.2033(3) 0.2155(2)
C10 C 0.3620(4) 0.1907(3) 0.2595(2)
C11 C 0.3729(4) 0.2287(3) 0.3044(2)
C12 C 0.4284(4) 0.1901(3) 0.3353(2)
C13 C 0.4497(4) 0.1296(3) 0.3093(2)
C14 C 0.4995(4) 0.0688(3) 0.3247(2)
C15 C 0.5689(5) 0.0742(4) 0.3521(2)
H4 H 0.5870 0.1188 0.3636
C16 C 0.6132(4) 0.0100(3) 0.3627(3)
H5 H 0.6608 0.0129 0.3808
C17 C 0.5852(4) -0.0558(3) 0.3459(2)
H6 H 0.6143 -0.0972 0.3529
C18 C 0.5155(4) -0.0618(3) 0.3191(2)
C19 C 0.4768(4) -0.1284(3) 0.3000(2)
C20 C 0.4154(4) -0.1369(3) 0.2657(3)
H7 H 0.3855 -0.1004 0.2503
C21 C 0.4064(4) -0.2115(3) 0.2582(2)
H8 H 0.3684 -0.2333 0.2372
C22 C 0.4639(4) -0.2480(3) 0.2876(2)
C23 C 0.4792(4) -0.3245(3) 0.2954(2)
C24 C 0.4196(4) -0.3748(4) 0.2795(3)
H9 H 0.3734 -0.3598 0.2630
C25 C 0.4347(5) -0.4484(4) 0.2900(3)
H10 H 0.3983 -0.4834 0.2803
C26 C 0.5042(5) -0.4680(3) 0.3152(3)
H11 H 0.5135 -0.5159 0.3239
C27 C 0.5597(4) -0.4159(3) 0.3272(2)
C28 C 0.6360(4) -0.4309(3) 0.3528(2)
C29 C 0.6793(4) -0.4964(3) 0.3642(3)
C30 C 0.7496(4) -0.4746(3) 0.3893(3)
C31 C 0.7507(4) -0.3989(3) 0.3903(3)
C32 C 0.8109(4) -0.3478(3) 0.4078(3)
C33 C 0.8643(5) -0.3565(4) 0.4463(3)
H12 H 0.8657 -0.3989 0.4650
C34 C 0.9172(5) -0.3018(4) 0.4577(3)
H13 H 0.9546 -0.3086 0.4838
C35 C 0.9160(4) -0.2376(4) 0.4316(3)
H14 H 0.9504 -0.2006 0.4408
C36 C 0.8621(4) -0.2294(3) 0.3910(3)
C37 C 0.8550(4) -0.1634(3) 0.3594(2)
C38 C 0.9063(4) -0.1086(4) 0.3517(3)
C39 C 0.8709(4) -0.0591(3) 0.3173(3)
C40 C 0.7955(4) -0.0861(3) 0.3047(3)
C41 C 0.7331(4) -0.0563(3) 0.2705(3)
C42 C 0.7255(5) 0.0182(4) 0.2641(3)
H15 H 0.7604 0.0504 0.2799
C43 C 0.6621(5) 0.0427(4) 0.2323(3)
H16 H 0.6549 0.0920 0.2277
C44 C 0.6123(5) -0.0032(3) 0.2088(3)
H17 H 0.5713 0.0145 0.1882
C45 C 0.6217(5) -0.0784(4) 0.2150(3)
C46 C 0.5709(4) -0.1309(4) 0.1881(3)
C47 C 0.5779(5) -0.2049(4) 0.1826(3)
H18 H 0.6182 -0.2332 0.1964
C48 C 0.5157(5) -0.2294(4) 0.1534(3)
H19 H 0.5070 -0.2769 0.1433
C49 C 0.4674(4) -0.1703(3) 0.1415(3)
C50 C 0.3908(4) -0.1670(3) 0.1132(2)
C51 C 0.3653(5) -0.2279(3) 0.0864(3)
H20 H 0.3948 -0.2699 0.0865
C52 C 0.2934(5) -0.2234(3) 0.0591(3)
H21 H 0.2742 -0.2629 0.0408
C53 C 0.2522(5) -0.1609(3) 0.0596(2)
H22 H 0.2059 -0.1563 0.0403
C54 C 0.2810(4) -0.1027(3) 0.0899(2)
C55 C 0.1027(4) -0.0532(4) 0.0441(3)
H23 H 0.0527 -0.0306 0.0475
H24 H 0.1003 -0.1017 0.0576
C56 C 0.1180(4) -0.0579(4) -0.0122(2)
H25 H 0.1139 -0.0107 -0.0269
H26 H 0.0806 -0.0895 -0.0288
H27 H 0.1691 -0.0766 -0.0157
C57 C 0.0851(4) 0.1097(4) 0.0794(2)
H28 H 0.0851 0.1468 0.1050
H29 H 0.0392 0.0804 0.0825
C58 C 0.0797(4) 0.1466(4) 0.0274(3)
H30 H 0.1252 0.1753 0.0237
H31 H 0.0347 0.1771 0.0245
H32 H 0.0758 0.1104 0.0017
C59 C 0.3814(5) 0.3651(3) 0.3151(3)
H33 H 0.4251 0.3627 0.3389
H34 H 0.3511 0.4071 0.3216
H35 H 0.3991 0.3681 0.2818
C60 C 0.3315(5) 0.2971(3) 0.3195(3)
H36 H 0.3174 0.2922 0.3539
H37 H 0.2842 0.3026 0.2985
C61 C 0.4532(6) 0.2073(4) 0.3905(3)
H38 H 0.5086 0.2003 0.3962
H39 H 0.4417 0.2574 0.3975
C62 C 0.4122(8) 0.1601(6) 0.4244(4)
H40 H 0.3587 0.1739 0.4237
H41 H 0.4351 0.1648 0.4579
H42 H 0.4161 0.1109 0.4136
C63 C 0.6553(5) -0.5717(3) 0.3501(3)
H43 H 0.7014 -0.5998 0.3450
H44 H 0.6248 -0.5701 0.3184
C64 C 0.6082(6) -0.6107(4) 0.3887(3)
H45 H 0.6381 -0.6134 0.4201
H46 H 0.5958 -0.6586 0.3770
H47 H 0.5613 -0.5845 0.3930
C65 C 0.8142(5) -0.5243(4) 0.4115(3)
H48 H 0.8167 -0.5669 0.3906
H49 H 0.8633 -0.4992 0.4106
C66 C 0.8034(6) -0.5479(5) 0.4650(4)
H50 H 0.7782 -0.5101 0.4824
H51 H 0.8530 -0.5578 0.4818
H52 H 0.7721 -0.5908 0.4648
C67 C 0.9898(5) -0.1016(5) 0.3718(4)
H53 H 0.9919 -0.1077 0.4079
H54 H 1.0075 -0.0531 0.3650
C68 C 1.0458(6) -0.1558(5) 0.3499(6)
H55 H 1.0344 -0.2036 0.3613
H56 H 1.0980 -0.1433 0.3607
H57 H 1.0399 -0.1543 0.3140
C69 C 0.9082(5) 0.0055(4) 0.2963(3)
H58 H 0.8812 0.0178 0.2646
H59 H 0.9611 -0.0066 0.2897
C70 C 0.9091(7) 0.0720(4) 0.3308(4)
H60 H 0.8577 0.0812 0.3407
H61 H 0.9273 0.1132 0.3132
H62 H 0.9429 0.0632 0.3600
N1 N 0.2708(3) 0.0221(2) 0.12012(18)
H63 H 0.3155 0.0206 0.1362
N2 N 0.2852(3) 0.1454(3) 0.18886(17)
H64 H 0.2967 0.1035 0.2010
N3 N 0.4081(3) 0.1295(2) 0.26368(18)
H65 H 0.4103 0.0964 0.2412
N4 N 0.4734(3) 0.0013(2) 0.30942(19)
H66 H 0.4291 -0.0019 0.2931
N5 N 0.5068(3) -0.1949(3) 0.31276(18)
H67 H 0.5463 -0.2024 0.3333
N6 N 0.5473(3) -0.3451(2) 0.3172(2)
N7 N 0.6826(3) -0.3743(3) 0.3680(2)
H68 H 0.6706 -0.3295 0.3641
N8 N 0.8125(3) -0.2842(3) 0.3795(2)
H69 H 0.7806 -0.2798 0.3538
N9 N 0.7880(3) -0.1505(3) 0.3304(2)
H70 H 0.7479 -0.1780 0.3285
N10 N 0.6819(4) -0.1018(3) 0.2461(2)
H71 H 0.6878 -0.1475 0.2505
N11 N 0.5023(3) -0.1110(3) 0.1631(2)
H72 H 0.4841 -0.0678 0.1615
N12 N 0.3499(3) -0.1058(2) 0.11485(18)
Cl8? Cl 0.7913(4) -0.2757(3) 0.2321(2)
O17? O 0.8005(11) -0.1973(6) 0.2270(7)
O18? O 0.8709(10) -0.2938(13) 0.2493(9)
O19? O 0.7347(9) -0.2915(11) 0.2659(6)
O20? O 0.7809(13) -0.2979(12) 0.1810(6)
loop_
_geom_bond_atom_site_label_1
_geom_bond_atom_site_label_2
_geom_bond_site_symmetry_1
_geom_bond_site_symmetry_2
C1 C2 1_555 1_555
C2 C3 1_555 1_555
C3 C4 1_555 1_555
C4 C5 1_555 1_555
C5 C6 1_555 1_555
C6 H1 1_555 1_555
C7 C6 1_555 1_555
H2 C7 1_555 1_555
C8 C7 1_555 1_555
H3 C8 1_555 1_555
C9 C8 1_555 1_555
C10 C9 1_555 1_555
C11 C10 1_555 1_555
C12 C11 1_555 1_555
C13 C12 1_555 1_555
C14 C13 1_555 1_555
C15 C14 1_555 1_555
H4 C15 1_555 1_555
C16 C15 1_555 1_555
H5 C16 1_555 1_555
C17 C16 1_555 1_555
H6 C17 1_555 1_555
C18 C17 1_555 1_555
C19 C18 1_555 1_555
C20 C19 1_555 1_555
H7 C20 1_555 1_555
C21 C20 1_555 1_555
H8 C21 1_555 1_555
C22 C21 1_555 1_555
C23 C22 1_555 1_555
C24 C23 1_555 1_555
H9 C24 1_555 1_555
C25 C24 1_555 1_555
H10 C25 1_555 1_555
C26 C25 1_555 1_555
H11 C26 1_555 1_555
C27 C26 1_555 1_555
C28 C27 1_555 1_555
C29 C28 1_555 1_555
C30 C29 1_555 1_555
C31 C30 1_555 1_555
C32 C31 1_555 1_555
C33 C32 1_555 1_555
H12 C33 1_555 1_555
C34 C33 1_555 1_555
H13 C34 1_555 1_555
C35 C34 1_555 1_555
H14 C35 1_555 1_555
C36 C35 1_555 1_555
C37 C36 1_555 1_555
C38 C37 1_555 1_555
C39 C38 1_555 1_555
C40 C39 1_555 1_555
C41 C40 1_555 1_555
C42 C41 1_555 1_555
H15 C42 1_555 1_555
C43 C42 1_555 1_555
H16 C43 1_555 1_555
C44 C43 1_555 1_555
H17 C44 1_555 1_555
C45 C44 1_555 1_555
C46 C45 1_555 1_555
C47 C46 1_555 1_555
H18 C47 1_555 1_555
C48 C47 1_555 1_555
H19 C48 1_555 1_555
C49 C48 1_555 1_555
C50 C49 1_555 1_555
C51 C50 1_555 1_555
H20 C51 1_555 1_555
C52 C51 1_555 1_555
H21 C52 1_555 1_555
C53 C52 1_555 1_555
H22 C53 1_555 1_555
C54 C1 1_555 1_555
C55 C2 1_555 1_555
H23 C55 1_555 1_555
H24 C55 1_555 1_555
C56 C55 1_555 1_555
H25 C56 1_555 1_555
H26 C56 1_555 1_555
H27 C56 1_555 1_555
C57 C3 1_555 1_555
H28 C57 1_555 1_555
H29 C57 1_555 1_555
C58 C57 1_555 1_555
H30 C58 1_555 1_555
H31 C58 1_555 1_555
H32 C58 1_555 1_555
C59 H33 1_555 1_555
H34 C59 1_555 1_555
H35 C59 1_555 1_555
C60 C11 1_555 1_555
H36 C60 1_555 1_555
H37 C60 1_555 1_555
C61 C12 1_555 1_555
H38 C61 1_555 1_555
H39 C61 1_555 1_555
C62 C61 1_555 1_555
H40 C62 1_555 1_555
H41 C62 1_555 1_555
H42 C62 1_555 1_555
C63 C29 1_555 1_555
H43 C63 1_555 1_555
H44 C63 1_555 1_555
C64 C63 1_555 1_555
H45 C64 1_555 1_555
H46 C64 1_555 1_555
H47 C64 1_555 1_555
C65 C30 1_555 1_555
H48 C65 1_555 1_555
H49 C65 1_555 1_555
C66 C65 1_555 1_555
H50 C66 1_555 1_555
H51 C66 1_555 1_555
H52 C66 1_555 1_555
C67 C38 1_555 1_555
H53 C67 1_555 1_555
H54 C67 1_555 1_555
C68 C67 1_555 1_555
H55 C68 1_555 1_555
H56 C68 1_555 1_555
H57 C68 1_555 1_555
C69 C39 1_555 1_555
H58 C69 1_555 1_555
H59 C69 1_555 1_555
C70 C69 1_555 1_555
H60 C70 1_555 1_555
H61 C70 1_555 1_555
H62 C70 1_555 1_555
N1 C1 1_555 1_555
H63 N1 1_555 1_555
N2 C5 1_555 1_555
H64 N2 1_555 1_555
N3 C10 1_555 1_555
H65 N3 1_555 1_555
N4 C14 1_555 1_555
H66 N4 1_555 1_555
N5 C19 1_555 1_555
H67 N5 1_555 1_555
N6 C23 1_555 1_555
N7 C28 1_555 1_555
H68 N7 1_555 1_555
N8 C32 1_555 1_555
H69 N8 1_555 1_555
N9 C37 1_555 1_555
H70 N9 1_555 1_555
N10 C41 1_555 1_555
H71 N10 1_555 1_555
N11 C46 1_555 1_555
H72 N11 1_555 1_555
N12 C50 1_555 1_555
C71 H73 1_555 1_555
Cl1 C71 1_555 1_555
Cl2 C71 1_555 1_555
Cl3 C71 1_555 1_555
O1 Cl4 1_555 1_555
O2 Cl4 1_555 1_555
O3 Cl4 1_555 1_555
O4 Cl4 1_555 1_555
O5 Cl5 1_555 1_555
O6 Cl5 1_555 1_555
O7 Cl5 1_555 1_555
O8 Cl5 1_555 1_555
O9 Cl6 1_555 1_555
O10 Cl6 1_555 1_555
O11 Cl6 1_555 1_555
O12 Cl6 1_555 1_555
Cl7 O13 1_555 1_555
O14 Cl7 1_555 1_555
O15 Cl7 1_555 1_555
O16 Cl7 1_555 1_555
C4 N1 1_555 1_555
C9 N2 1_555 1_555
C13 N3 1_555 1_555
C18 N4 1_555 1_555
C22 N5 1_555 1_555
C27 N6 1_555 1_555
C31 N7 1_555 1_555
C36 N8 1_555 1_555
C40 N9 1_555 1_555
C45 N10 1_555 1_555
C49 N11 1_555 1_555
C53 C54 1_555 1_555
C54 N12 1_555 1_555
C59 C60 1_555 1_555

#END
