
#######################################################################
#
#                 Cambridge Crystallographic Data Centre
#                                CCDC 
#
#######################################################################
#
# If this CIF has been generated from an entry in the Cambridge 
# Structural Database, then it will include bibliographic, chemical, 
# crystal, experimental, refinement or atomic coordinate data resulting 
# from the CCDC's data processing and validation procedures.
#
#######################################################################

data_VOMHIQ
_chemical_formula_moiety         'C26 H20 F4 N2 O2'
_chemical_name_systematic        
1-((benzyloxy)methyl)-N-(4-cyano-2,3,5,6-tetrafluorophenyl)-2-phenylcyclobutanecarboxamide
_symmetry_cell_setting           monoclinic
_symmetry_space_group_name_H-M   'P 21'
_symmetry_Int_Tables_number      4
_space_group_name_Hall           'P 2yb'
loop_
_symmetry_equiv_pos_site_id
_symmetry_equiv_pos_as_xyz
1 x,y,z
2 -x,1/2+y,-z
_cell_length_a                   8.5521(2)
_cell_length_b                   8.5649(3)
_cell_length_c                   15.8893(5)
_cell_angle_alpha                90
_cell_angle_beta                 103.6840(14)
_cell_angle_gamma                90
_cell_volume                     1130.82
_exptl_crystal_colour            colorless
_exptl_crystal_description       Block
_cell_formula_units_Z            2
loop_
_atom_site_label
_atom_site_type_symbol
_atom_site_fract_x
_atom_site_fract_y
_atom_site_fract_z
F1 F 0.43949(15) 0.27288(19) 0.59732(8)
F2 F 0.20519(17) 0.4398(3) 0.49640(9)
F3 F 0.48981(19) 0.90369(18) 0.59019(10)
F4 F 0.72010(15) 0.73678(13) 0.69609(8)
O1 O 0.55563(15) 0.27205(17) 0.77471(9)
O2 O 1.03115(14) 0.41744(15) 0.77716(9)
N1 N 0.70861(19) 0.4194(2) 0.70603(10)
H1 H 0.808(2) 0.451(3) 0.7102(15)
N2 N 0.1180(3) 0.8408(5) 0.44300(17)
C1 C 0.6878(2) 0.3091(2) 0.76537(12)
C2 C 0.8435(2) 0.2402(2) 0.81985(13)
C3 C 0.8162(2) 0.0690(2) 0.84468(15)
H2 H 0.7187 0.0207 0.8076
H3 H 0.9113 0.0011 0.8486
C4 C 0.7934(2) 0.1236(2) 0.93346(15)
H4 H 0.8584 0.0642 0.9830
H5 H 0.6794 0.1295 0.9368
C5 C 0.8670(2) 0.2835(2) 0.91870(13)
H6 H 0.9848 0.2809 0.9467
C6 C 0.7977(2) 0.4308(2) 0.94617(12)
C7 C 0.7172(2) 0.4290(3) 1.01278(13)
H7 H 0.7039 0.3330 1.0402
C8 C 0.6561(2) 0.5654(3) 1.03960(14)
H8 H 0.6030 0.5623 1.0858
C9 C 0.6722(2) 0.7061(2) 0.99939(14)
H9 H 0.6285 0.7993 1.0167
C10 C 0.7531(2) 0.7086(2) 0.93360(13)
H10 H 0.7651 0.8045 0.9058
C11 C 0.8168(2) 0.5736(2) 0.90767(12)
H11 H 0.8740 0.5781 0.8633
C12 C 0.9904(2) 0.2572(2) 0.78247(14)
H12 H 1.0824 0.2009 0.8196
H13 H 0.9681 0.2100 0.7240
C13 C 0.5833(2) 0.5017(2) 0.65226(12)
C14 C 0.4497(2) 0.4291(3) 0.59988(12)
C15 C 0.3303(3) 0.5154(4) 0.54690(14)
C16 C 0.3394(3) 0.6759(4) 0.54241(15)
C17 C 0.4747(3) 0.7491(3) 0.59295(14)
C18 C 0.5930(2) 0.6630(3) 0.64658(13)
C19 C 0.2156(3) 0.7672(5) 0.48747(16)
C20 C 1.1747(2) 0.4359(2) 0.74582(13)
H14 H 1.1597 0.3873 0.6879
H15 H 1.2666 0.3842 0.7857
C21 C 1.2079(2) 0.6074(2) 0.74040(12)
C22 C 1.3499(2) 0.6713(2) 0.78955(12)
H16 H 1.4253 0.6067 0.8276
C23 C 1.3817(2) 0.8295(2) 0.78307(13)
H17 H 1.4797 0.8721 0.8161
C24 C 1.2719(3) 0.9255(3) 0.72903(13)
H18 H 1.2937 1.0337 0.7252
C25 C 1.1297(3) 0.8624(3) 0.68041(14)
H19 H 1.0533 0.9278 0.6436
C26 C 1.0986(2) 0.7041(2) 0.68542(13)
H20 H 1.0019 0.6613 0.6510
loop_
_geom_bond_atom_site_label_1
_geom_bond_atom_site_label_2
_geom_bond_site_symmetry_1
_geom_bond_site_symmetry_2
F1 C14 1_555 1_555
F2 C15 1_555 1_555
F3 C17 1_555 1_555
F4 C18 1_555 1_555
O1 C1 1_555 1_555
O2 C12 1_555 1_555
N1 H1 1_555 1_555
N2 C19 1_555 1_555
C1 N1 1_555 1_555
C2 C1 1_555 1_555
C3 C2 1_555 1_555
H2 C3 1_555 1_555
H3 C3 1_555 1_555
C4 C3 1_555 1_555
H4 C4 1_555 1_555
H5 C4 1_555 1_555
C5 C2 1_555 1_555
H6 C5 1_555 1_555
C6 C5 1_555 1_555
C7 C6 1_555 1_555
H7 C7 1_555 1_555
C8 C7 1_555 1_555
H8 C8 1_555 1_555
C9 C8 1_555 1_555
H9 C9 1_555 1_555
C10 C9 1_555 1_555
H10 C10 1_555 1_555
C11 C6 1_555 1_555
H11 C11 1_555 1_555
C12 C2 1_555 1_555
H12 C12 1_555 1_555
H13 C12 1_555 1_555
C13 N1 1_555 1_555
C14 C13 1_555 1_555
C15 C14 1_555 1_555
C16 C15 1_555 1_555
C17 C16 1_555 1_555
C18 C13 1_555 1_555
C19 C16 1_555 1_555
C20 O2 1_555 1_555
H14 C20 1_555 1_555
H15 C20 1_555 1_555
C21 C20 1_555 1_555
C22 C21 1_555 1_555
H16 C22 1_555 1_555
C23 C22 1_555 1_555
H17 C23 1_555 1_555
C24 C23 1_555 1_555
H18 C24 1_555 1_555
C25 C24 1_555 1_555
H19 C25 1_555 1_555
C26 C21 1_555 1_555
H20 C26 1_555 1_555
C4 C5 1_555 1_555
C10 C11 1_555 1_555
C17 C18 1_555 1_555
C25 C26 1_555 1_555

#END
