
#######################################################################
#
#                 Cambridge Crystallographic Data Centre
#                                CCDC 
#
#######################################################################
#
# If this CIF has been generated from an entry in the Cambridge 
# Structural Database, then it will include bibliographic, chemical, 
# crystal, experimental, refinement or atomic coordinate data resulting 
# from the CCDC's data processing and validation procedures.
#
#######################################################################

data_VOMPEU
_chemical_formula_moiety         'C75 H112 N12,4.5(H2 O1)'
_chemical_name_systematic        
'85,85-dimethyl-5,12,20,27,35,42,50,57,62,69,74,81-dodecaazatetradecacyclo[29.29.10.10^16,46^.1^3,59^.1^5,12^.1^14,18^.1^29,33^.1^44,48^.0^6,11^.0^21,26^.0^36,41^.0^51,56^.0^63,68^.0^75,80^]pentaoctaconta-1,3(71),14(84),15,17,29(83),30,32,44(72),45,47,59-dodecaene hydrate'
_symmetry_cell_setting           cubic
_symmetry_space_group_name_H-M   'F 41 3 2'
_symmetry_Int_Tables_number      210
_space_group_name_Hall           'F 4d 2 3'
loop_
_symmetry_equiv_pos_site_id
_symmetry_equiv_pos_as_xyz
1 x,y,z
2 1/4-y,1/4+x,1/4+z
3 -x,-y,z
4 1/4+y,1/4-x,1/4+z
5 1/4+x,1/4-z,1/4+y
6 x,-y,-z
7 1/4+x,1/4+z,1/4-y
8 1/4+z,1/4+y,1/4-x
9 -x,y,-z
10 1/4-z,1/4+y,1/4+x
11 z,x,y
12 y,z,x
13 -y,-z,x
14 z,-x,-y
15 -y,z,-x
16 -z,-x,y
17 -z,x,-y
18 y,-z,-x
19 1/4+y,1/4+x,1/4-z
20 1/4-y,1/4-x,1/4-z
21 1/4-x,1/4+z,1/4+y
22 1/4-x,1/4-z,1/4-y
23 1/4+z,1/4-y,1/4+x
24 1/4-z,1/4-y,1/4-x
25 x,1/2+y,1/2+z
26 1/4-y,3/4+x,3/4+z
27 -x,1/2-y,1/2+z
28 1/4+y,3/4-x,3/4+z
29 1/4+x,3/4-z,3/4+y
30 x,1/2-y,1/2-z
31 1/4+x,3/4+z,3/4-y
32 1/4+z,3/4+y,3/4-x
33 -x,1/2+y,1/2-z
34 1/4-z,3/4+y,3/4+x
35 z,1/2+x,1/2+y
36 y,1/2+z,1/2+x
37 -y,1/2-z,1/2+x
38 z,1/2-x,1/2-y
39 -y,1/2+z,1/2-x
40 -z,1/2-x,1/2+y
41 -z,1/2+x,1/2-y
42 y,1/2-z,1/2-x
43 1/4+y,3/4+x,3/4-z
44 1/4-y,3/4-x,3/4-z
45 1/4-x,3/4+z,3/4+y
46 1/4-x,3/4-z,3/4-y
47 1/4+z,3/4-y,3/4+x
48 1/4-z,3/4-y,3/4-x
49 1/2+x,y,1/2+z
50 3/4-y,1/4+x,3/4+z
51 1/2-x,-y,1/2+z
52 3/4+y,1/4-x,3/4+z
53 3/4+x,1/4-z,3/4+y
54 1/2+x,-y,1/2-z
55 3/4+x,1/4+z,3/4-y
56 3/4+z,1/4+y,3/4-x
57 1/2-x,y,1/2-z
58 3/4-z,1/4+y,3/4+x
59 1/2+z,x,1/2+y
60 1/2+y,z,1/2+x
61 1/2-y,-z,1/2+x
62 1/2+z,-x,1/2-y
63 1/2-y,z,1/2-x
64 1/2-z,-x,1/2+y
65 1/2-z,x,1/2-y
66 1/2+y,-z,1/2-x
67 3/4+y,1/4+x,3/4-z
68 3/4-y,1/4-x,3/4-z
69 3/4-x,1/4+z,3/4+y
70 3/4-x,1/4-z,3/4-y
71 3/4+z,1/4-y,3/4+x
72 3/4-z,1/4-y,3/4-x
73 1/2+x,1/2+y,z
74 3/4-y,3/4+x,1/4+z
75 1/2-x,1/2-y,z
76 3/4+y,3/4-x,1/4+z
77 3/4+x,3/4-z,1/4+y
78 1/2+x,1/2-y,-z
79 3/4+x,3/4+z,1/4-y
80 3/4+z,3/4+y,1/4-x
81 1/2-x,1/2+y,-z
82 3/4-z,3/4+y,1/4+x
83 1/2+z,1/2+x,y
84 1/2+y,1/2+z,x
85 1/2-y,1/2-z,x
86 1/2+z,1/2-x,-y
87 1/2-y,1/2+z,-x
88 1/2-z,1/2-x,y
89 1/2-z,1/2+x,-y
90 1/2+y,1/2-z,-x
91 3/4+y,3/4+x,1/4-z
92 3/4-y,3/4-x,1/4-z
93 3/4-x,3/4+z,1/4+y
94 3/4-x,3/4-z,1/4-y
95 3/4+z,3/4-y,1/4+x
96 3/4-z,3/4-y,1/4-x
_cell_length_a                   25.612(5)
_cell_length_b                   25.612(5)
_cell_length_c                   25.612(5)
_cell_angle_alpha                90
_cell_angle_beta                 90
_cell_angle_gamma                90
_cell_volume                     16800.8
_cell_formula_units_Z            8
loop_
_atom_site_label
_atom_site_type_symbol
_atom_site_fract_x
_atom_site_fract_y
_atom_site_fract_z
O1 O 0.1716(12) 0.1467(14) 0.0903(12)
C1 C 0.15189(16) 0.32872(17) 0.09741(17)
C2 C 0.10974(15) 0.31683(17) 0.12840(18)
H1 H 0.0893 0.2878 0.1208
C3 C 0.2139(2) 0.2939(2) -0.06195(18)
H2 H 0.2373 0.3236 -0.0615
H3 H 0.1783 0.3069 -0.0620
C4 C 0.1617(2) 0.2955(2) 0.0494(2)
C5 C 0.22273(16) 0.26097(17) -0.01387(14)
C6 C 0.22344(19) 0.2614(2) -0.11171(17)
H4 H 0.1978 0.2337 -0.1138
H5 H 0.2193 0.2836 -0.1422
N1 N 0.21654(14) 0.28886(18) 0.03434(15)
H6 H 0.1467 0.2613 0.0553
H7 H 0.1431 0.3111 0.0202
H8 H 0.1979 0.2318 -0.0143
C7 C 0.2500 0.2500 0.0741(12)
C8 C 0.2258(9) 0.2211(9) 0.1154(8)
H9 H 0.2518 0.2011 0.1336
H10 H 0.2001 0.1979 0.1010
H11 H 0.2093 0.2448 0.1393
C1KA C 0.09741(17) 0.34811(16) 0.17128(17)
C2KA C 0.12840(18) 0.39026(15) 0.18317(17)
H1KA H 0.1208 0.4107 0.2122
C3KA C -0.06195(18) 0.2861(2) 0.2061(2)
H2KA H -0.0615 0.2627 0.1764
H3KA H -0.0620 0.3217 0.1931
C4KA C 0.0494(2) 0.3383(2) 0.2045(2)
C5KA C -0.01387(14) 0.27727(16) 0.23903(17)
C6KA C -0.11171(17) 0.27656(19) 0.2386(2)
H4KA H -0.1138 0.3022 0.2663
H5KA H -0.1422 0.2807 0.2164
N1KA N 0.03434(15) 0.28346(14) 0.21114(18)
H6KA H 0.0553 0.3533 0.2387
H7KA H 0.0202 0.3569 0.1889
H8KA H -0.0143 0.3021 0.2682
C7J C 0.0741(12) 0.2500 0.2500
C8KA C 0.1154(8) 0.2742(9) 0.2789(9)
H9KA H 0.1336 0.2482 0.2989
H10KA H 0.1010 0.2999 0.3021
H11KA H 0.1393 0.2907 0.2552
C1VB C 0.34811(16) 0.17128(17) 0.09741(17)
C2VB C 0.39026(15) 0.18317(17) 0.12840(18)
H1VB H 0.4107 0.2122 0.1208
C3VB C 0.2861(2) 0.2061(2) -0.06195(18)
H2VB H 0.2627 0.1764 -0.0615
H3VB H 0.3217 0.1931 -0.0620
C4VB C 0.3383(2) 0.2045(2) 0.0494(2)
C5VB C 0.27727(16) 0.23903(17) -0.01387(14)
C6VB C 0.27656(19) 0.2386(2) -0.11171(17)
H4VB H 0.3022 0.2663 -0.1138
H5VB H 0.2807 0.2164 -0.1422
N1VB N 0.28346(14) 0.21114(18) 0.03434(15)
H6VB H 0.3533 0.2387 0.0553
H7VB H 0.3569 0.1889 0.0202
H8VB H 0.3021 0.2682 -0.0143
C8VB C 0.2742(9) 0.2789(9) 0.1154(8)
H9VB H 0.2482 0.2989 0.1336
H10VB H 0.2999 0.3021 0.1010
H11VB H 0.2907 0.2552 0.1393
C1FC C 0.17128(17) 0.40259(17) 0.15189(16)
C2FC C 0.18317(17) 0.37160(18) 0.10974(15)
H1FC H 0.2122 0.3792 0.0893
C3FC C 0.2061(2) 0.56195(18) 0.2139(2)
H2FC H 0.1764 0.5615 0.2373
H3FC H 0.1931 0.5620 0.1783
C4FC C 0.2045(2) 0.4506(2) 0.1617(2)
C5FC C 0.23903(17) 0.51387(14) 0.22273(16)
C6FC C 0.2386(2) 0.61171(17) 0.22344(19)
H4FC H 0.2663 0.6138 0.1978
H5FC H 0.2164 0.6422 0.2193
N1FC N 0.21114(18) 0.46566(15) 0.21654(14)
H6FC H 0.2387 0.4447 0.1467
H7FC H 0.1889 0.4798 0.1431
H8FC H 0.2682 0.5143 0.1979
C7OA C 0.2500 0.4259(12) 0.2500
C8FC C 0.2789(9) 0.3846(8) 0.2258(9)
H9FC H 0.2989 0.3664 0.2518
H10FC H 0.3021 0.3990 0.2001
H11FC H 0.2552 0.3607 0.2093
C1J C 0.09741(17) 0.15189(16) 0.32872(17)
C2J C 0.12840(18) 0.10974(15) 0.31683(17)
H1J H 0.1208 0.0893 0.2878
C3J C -0.06195(18) 0.2139(2) 0.2939(2)
H2J H -0.0615 0.2373 0.3236
H3J H -0.0620 0.1783 0.3069
C4J C 0.0494(2) 0.1617(2) 0.2955(2)
C5J C -0.01387(14) 0.22273(16) 0.26097(17)
C6J C -0.11171(17) 0.22344(19) 0.2614(2)
H4J H -0.1138 0.1978 0.2337
H5J H -0.1422 0.2193 0.2836
N1J N 0.03434(15) 0.21654(14) 0.28886(18)
H6J H 0.0553 0.1467 0.2613
H7J H 0.0202 0.1431 0.3111
H8J H -0.0143 0.1979 0.2318
C8J C 0.1154(8) 0.2258(9) 0.2211(9)
H9J H 0.1336 0.2518 0.2011
H10J H 0.1010 0.2001 0.1979
H11J H 0.1393 0.2093 0.2448
C1K C 0.32872(17) 0.09741(17) 0.15189(16)
C2K C 0.31683(17) 0.12840(18) 0.10974(15)
H1K H 0.2878 0.1208 0.0893
C3K C 0.2939(2) -0.06195(18) 0.2139(2)
H2K H 0.3236 -0.0615 0.2373
H3K H 0.3069 -0.0620 0.1783
C4K C 0.2955(2) 0.0494(2) 0.1617(2)
C5K C 0.26097(17) -0.01387(14) 0.22273(16)
C6K C 0.2614(2) -0.11171(17) 0.22344(19)
H4K H 0.2337 -0.1138 0.1978
H5K H 0.2836 -0.1422 0.2193
N1K N 0.28886(18) 0.03434(15) 0.21654(14)
H6K H 0.2613 0.0553 0.1467
H7K H 0.3111 0.0202 0.1431
H8K H 0.2318 -0.0143 0.1979
C7K C 0.2500 0.0741(12) 0.2500
C8K C 0.2211(9) 0.1154(8) 0.2258(9)
H9K H 0.2011 0.1336 0.2518
H10K H 0.1979 0.1010 0.2001
H11K H 0.2448 0.1393 0.2093
C1CA C 0.15189(16) 0.17128(17) 0.40259(17)
C2CA C 0.10974(15) 0.18317(17) 0.37160(18)
H1CA H 0.0893 0.2122 0.3792
C3CA C 0.2139(2) 0.2061(2) 0.56195(18)
H2CA H 0.2373 0.1764 0.5615
H3CA H 0.1783 0.1931 0.5620
C4CA C 0.1617(2) 0.2045(2) 0.4506(2)
C5CA C 0.22273(16) 0.23903(17) 0.51387(14)
C6CA C 0.22344(19) 0.2386(2) 0.61171(17)
H4CA H 0.1978 0.2663 0.6138
H5CA H 0.2193 0.2164 0.6422
N1CA N 0.21654(14) 0.21114(18) 0.46566(15)
H6CA H 0.1467 0.2387 0.4447
H7CA H 0.1431 0.1889 0.4798
H8CA H 0.1979 0.2682 0.5143
C7CA C 0.2500 0.2500 0.4259(12)
C8CA C 0.2258(9) 0.2789(9) 0.3846(8)
H9CA H 0.2518 0.2989 0.3664
H10CA H 0.2001 0.3021 0.3990
H11CA H 0.2093 0.2552 0.3607
C1OA C 0.32872(17) 0.40259(17) 0.34811(16)
C2OA C 0.31683(17) 0.37160(18) 0.39026(15)
H1OA H 0.2878 0.3792 0.4107
C3OA C 0.2939(2) 0.56195(18) 0.2861(2)
H2OA H 0.3236 0.5615 0.2627
H3OA H 0.3069 0.5620 0.3217
C4OA C 0.2955(2) 0.4506(2) 0.3383(2)
C5OA C 0.26097(17) 0.51387(14) 0.27727(16)
C6OA C 0.2614(2) 0.61171(17) 0.27656(19)
H4OA H 0.2337 0.6138 0.3022
H5OA H 0.2836 0.6422 0.2807
N1OA N 0.28886(18) 0.46566(15) 0.28346(14)
H6OA H 0.2613 0.4447 0.3533
H7OA H 0.3111 0.4798 0.3569
H8OA H 0.2318 0.5143 0.3021
C8OA C 0.2211(9) 0.3846(8) 0.2742(9)
H9OA H 0.2011 0.3664 0.2482
H10OA H 0.1979 0.3990 0.2999
H11OA H 0.2448 0.3607 0.2907
C1DB C 0.34811(16) 0.32872(17) 0.40259(17)
C2DB C 0.39026(15) 0.31683(17) 0.37160(18)
H1DB H 0.4107 0.2878 0.3792
C3DB C 0.2861(2) 0.2939(2) 0.56195(18)
H2DB H 0.2627 0.3236 0.5615
H3DB H 0.3217 0.3069 0.5620
C4DB C 0.3383(2) 0.2955(2) 0.4506(2)
C5DB C 0.27727(16) 0.26097(17) 0.51387(14)
C6DB C 0.27656(19) 0.2614(2) 0.61171(17)
H4DB H 0.3022 0.2337 0.6138
H5DB H 0.2807 0.2836 0.6422
N1DB N 0.28346(14) 0.28886(18) 0.46566(15)
H6DB H 0.3533 0.2613 0.4447
H7DB H 0.3569 0.3111 0.4798
H8DB H 0.3021 0.2318 0.5143
C8DB C 0.2742(9) 0.2211(9) 0.3846(8)
H9DB H 0.2482 0.2011 0.3664
H10DB H 0.2999 0.1979 0.3990
H11DB H 0.2907 0.2448 0.3607
C1JB C 0.17128(17) 0.09741(17) 0.34811(16)
C2JB C 0.18317(17) 0.12840(18) 0.39026(15)
H1JB H 0.2122 0.1208 0.4107
C3JB C 0.2061(2) -0.06195(18) 0.2861(2)
H2JB H 0.1764 -0.0615 0.2627
H3JB H 0.1931 -0.0620 0.3217
C4JB C 0.2045(2) 0.0494(2) 0.3383(2)
C5JB C 0.23903(17) -0.01387(14) 0.27727(16)
C6JB C 0.2386(2) -0.11171(17) 0.27656(19)
H4JB H 0.2663 -0.1138 0.3022
H5JB H 0.2164 -0.1422 0.2807
N1JB N 0.21114(18) 0.03434(15) 0.28346(14)
H6JB H 0.2387 0.0553 0.3533
H7JB H 0.1889 0.0202 0.3569
H8JB H 0.2682 -0.0143 0.3021
C8JB C 0.2789(9) 0.1154(8) 0.2742(9)
H9JB H 0.2989 0.1336 0.2482
H10JB H 0.3021 0.1010 0.2999
H11JB H 0.2552 0.1393 0.2907
C1LB C 0.40259(17) 0.15189(16) 0.17128(17)
C2LB C 0.37160(18) 0.10974(15) 0.18317(17)
H1LB H 0.3792 0.0893 0.2122
C3LB C 0.56195(18) 0.2139(2) 0.2061(2)
H2LB H 0.5615 0.2373 0.1764
H3LB H 0.5620 0.1783 0.1931
C4LB C 0.4506(2) 0.1617(2) 0.2045(2)
C5LB C 0.51387(14) 0.22273(16) 0.23903(17)
C6LB C 0.61171(17) 0.22344(19) 0.2386(2)
H4LB H 0.6138 0.1978 0.2663
H5LB H 0.6422 0.2193 0.2164
N1LB N 0.46566(15) 0.21654(14) 0.21114(18)
H6LB H 0.4447 0.1467 0.2387
H7LB H 0.4798 0.1431 0.1889
H8LB H 0.5143 0.1979 0.2682
C7LB C 0.4259(12) 0.2500 0.2500
C8LB C 0.3846(8) 0.2258(9) 0.2789(9)
H9LB H 0.3664 0.2518 0.2989
H10LB H 0.3990 0.2001 0.3021
H11LB H 0.3607 0.2093 0.2552
C1IC C 0.40259(17) 0.34811(16) 0.32872(17)
C2IC C 0.37160(18) 0.39026(15) 0.31683(17)
H1IC H 0.3792 0.4107 0.2878
C3IC C 0.56195(18) 0.2861(2) 0.2939(2)
H2IC H 0.5615 0.2627 0.3236
H3IC H 0.5620 0.3217 0.3069
C4IC C 0.4506(2) 0.3383(2) 0.2955(2)
C5IC C 0.51387(14) 0.27727(16) 0.26097(17)
C6IC C 0.61171(17) 0.27656(19) 0.2614(2)
H4IC H 0.6138 0.3022 0.2337
H5IC H 0.6422 0.2807 0.2836
N1IC N 0.46566(15) 0.28346(14) 0.28886(18)
H6IC H 0.4447 0.3533 0.2613
H7IC H 0.4798 0.3569 0.3111
H8IC H 0.5143 0.3021 0.2318
C8IC C 0.3846(8) 0.2742(9) 0.2211(9)
H9IC H 0.3664 0.2482 0.2011
H10IC H 0.3990 0.2999 0.1979
H11IC H 0.3607 0.2907 0.2448
O2? O 0.2500 0.2500 0.1735(7)
H12? H 0.233(2) 0.270(2) 0.0546(18)
N2? N 0.21654(14) 0.28886(18) 0.03434(15)
H13? H 0.1467 0.2613 0.0553
H14? H 0.1431 0.3111 0.0202
H15? H 0.1979 0.2318 -0.0143
loop_
_geom_bond_atom_site_label_1
_geom_bond_atom_site_label_2
_geom_bond_site_symmetry_1
_geom_bond_site_symmetry_2
C1 C2 1_555 1_555
C2 H1 1_555 1_555
C3 H2 1_555 1_555
H3 C3 1_555 1_555
C4 C1 1_555 1_555
C5 C3 1_555 1_555
C6 C3 1_555 1_555
H4 C6 1_555 1_555
H5 C6 1_555 1_555
N1 C4 1_555 1_555
H6 C4 1_555 1_555
H7 C4 1_555 1_555
H8 C5 1_555 1_555
C7 N1 1_555 1_555
C8 C7 1_555 1_555
H9 C8 1_555 1_555
H10 C8 1_555 1_555
H11 C8 1_555 1_555
C1KA C2 1_555 1_555
C2KA C1KA 1_555 1_555
H1KA C2KA 1_555 1_555
C3KA H2KA 1_555 1_555
H3KA C3KA 1_555 1_555
C4KA C1KA 1_555 1_555
C5KA C3KA 1_555 1_555
C6KA C3KA 1_555 1_555
H4KA C6KA 1_555 1_555
H5KA C6KA 1_555 1_555
N1KA C4KA 1_555 1_555
H6KA C4KA 1_555 1_555
H7KA C4KA 1_555 1_555
H8KA C5KA 1_555 1_555
C7J N1KA 1_555 1_555
C8KA C7J 1_555 1_555
H9KA C8KA 1_555 1_555
H10KA C8KA 1_555 1_555
H11KA C8KA 1_555 1_555
C1VB C2VB 1_555 1_555
C2VB H1VB 1_555 1_555
C3VB H2VB 1_555 1_555
H3VB C3VB 1_555 1_555
C4VB C1VB 1_555 1_555
C5VB C5 1_555 1_555
C6VB C6 1_555 1_555
H4VB C6VB 1_555 1_555
H5VB C6VB 1_555 1_555
N1VB C7 1_555 1_555
H6VB C4VB 1_555 1_555
H7VB C4VB 1_555 1_555
H8VB C5VB 1_555 1_555
C8VB C7 1_555 1_555
H9VB C8VB 1_555 1_555
H10VB C8VB 1_555 1_555
H11VB C8VB 1_555 1_555
C1FC C2KA 1_555 1_555
C2FC C1 1_555 1_555
H1FC C2FC 1_555 1_555
C3FC H2FC 1_555 1_555
H3FC C3FC 1_555 1_555
C4FC C1FC 1_555 1_555
C5FC C3FC 1_555 1_555
C6FC C3FC 1_555 1_555
H4FC C6FC 1_555 1_555
H5FC C6FC 1_555 1_555
N1FC C4FC 1_555 1_555
H6FC C4FC 1_555 1_555
H7FC C4FC 1_555 1_555
H8FC C5FC 1_555 1_555
C7OA N1FC 1_555 1_555
C8FC C7OA 1_555 1_555
H9FC C8FC 1_555 1_555
H10FC C8FC 1_555 1_555
H11FC C8FC 1_555 1_555
C1J C2J 1_555 1_555
C2J H1J 1_555 1_555
C3J H2J 1_555 1_555
H3J C3J 1_555 1_555
C4J C1J 1_555 1_555
C5J C5KA 1_555 1_555
C6J C6KA 1_555 1_555
H4J C6J 1_555 1_555
H5J C6J 1_555 1_555
N1J C7J 1_555 1_555
H6J C4J 1_555 1_555
H7J C4J 1_555 1_555
H8J C5J 1_555 1_555
C8J C7J 1_555 1_555
H9J C8J 1_555 1_555
H10J C8J 1_555 1_555
H11J C8J 1_555 1_555
C1K C2K 1_555 1_555
C2K C1VB 1_555 1_555
H1K C2K 1_555 1_555
C3K H2K 1_555 1_555
H3K C3K 1_555 1_555
C4K C1K 1_555 1_555
C5K C3K 1_555 1_555
C6K C3K 1_555 1_555
H4K C6K 1_555 1_555
H5K C6K 1_555 1_555
N1K C4K 1_555 1_555
H6K C4K 1_555 1_555
H7K C4K 1_555 1_555
H8K C5K 1_555 1_555
C7K N1K 1_555 1_555
C8K C7K 1_555 1_555
H9K C8K 1_555 1_555
H10K C8K 1_555 1_555
H11K C8K 1_555 1_555
C1CA C2CA 1_555 1_555
C2CA C1J 1_555 1_555
H1CA C2CA 1_555 1_555
C3CA H2CA 1_555 1_555
H3CA C3CA 1_555 1_555
C4CA C1CA 1_555 1_555
C5CA C3CA 1_555 1_555
C6CA C3CA 1_555 1_555
H4CA C6CA 1_555 1_555
H5CA C6CA 1_555 1_555
N1CA C4CA 1_555 1_555
H6CA C4CA 1_555 1_555
H7CA C4CA 1_555 1_555
H8CA C5CA 1_555 1_555
C7CA N1CA 1_555 1_555
C8CA C7CA 1_555 1_555
H9CA C8CA 1_555 1_555
H10CA C8CA 1_555 1_555
H11CA C8CA 1_555 1_555
C1OA C2OA 1_555 1_555
C2OA H1OA 1_555 1_555
C3OA H2OA 1_555 1_555
H3OA C3OA 1_555 1_555
C4OA C1OA 1_555 1_555
C5OA C5FC 1_555 1_555
C6OA C6FC 1_555 1_555
H4OA C6OA 1_555 1_555
H5OA C6OA 1_555 1_555
N1OA C7OA 1_555 1_555
H6OA C4OA 1_555 1_555
H7OA C4OA 1_555 1_555
H8OA C5OA 1_555 1_555
C8OA C7OA 1_555 1_555
H9OA C8OA 1_555 1_555
H10OA C8OA 1_555 1_555
H11OA C8OA 1_555 1_555
C1DB C2OA 1_555 1_555
C2DB C1DB 1_555 1_555
H1DB C2DB 1_555 1_555
C3DB H2DB 1_555 1_555
H3DB C3DB 1_555 1_555
C4DB C1DB 1_555 1_555
C5DB C5CA 1_555 1_555
C6DB C6CA 1_555 1_555
H4DB C6DB 1_555 1_555
H5DB C6DB 1_555 1_555
N1DB C7CA 1_555 1_555
H6DB C4DB 1_555 1_555
H7DB C4DB 1_555 1_555
H8DB C5DB 1_555 1_555
C8DB C7CA 1_555 1_555
H9DB C8DB 1_555 1_555
H10DB C8DB 1_555 1_555
H11DB C8DB 1_555 1_555
C1JB C2J 1_555 1_555
C2JB C1CA 1_555 1_555
H1JB C2JB 1_555 1_555
C3JB H2JB 1_555 1_555
H3JB C3JB 1_555 1_555
C4JB C1JB 1_555 1_555
C5JB C5K 1_555 1_555
C6JB C6K 1_555 1_555
H4JB C6JB 1_555 1_555
H5JB C6JB 1_555 1_555
N1JB C7K 1_555 1_555
H6JB C4JB 1_555 1_555
H7JB C4JB 1_555 1_555
H8JB C5JB 1_555 1_555
C8JB C7K 1_555 1_555
H9JB C8JB 1_555 1_555
H10JB C8JB 1_555 1_555
H11JB C8JB 1_555 1_555
C1LB C2VB 1_555 1_555
C2LB C1K 1_555 1_555
H1LB C2LB 1_555 1_555
C3LB H2LB 1_555 1_555
H3LB C3LB 1_555 1_555
C4LB C1LB 1_555 1_555
C5LB C3LB 1_555 1_555
C6LB C3LB 1_555 1_555
H4LB C6LB 1_555 1_555
H5LB C6LB 1_555 1_555
N1LB C4LB 1_555 1_555
H6LB C4LB 1_555 1_555
H7LB C4LB 1_555 1_555
H8LB C5LB 1_555 1_555
C7LB N1LB 1_555 1_555
C8LB C7LB 1_555 1_555
H9LB C8LB 1_555 1_555
H10LB C8LB 1_555 1_555
H11LB C8LB 1_555 1_555
C1IC C2DB 1_555 1_555
C2IC C1OA 1_555 1_555
H1IC C2IC 1_555 1_555
C3IC H2IC 1_555 1_555
H3IC C3IC 1_555 1_555
C4IC C1IC 1_555 1_555
C5IC C5LB 1_555 1_555
C6IC C6LB 1_555 1_555
H4IC C6IC 1_555 1_555
H5IC C6IC 1_555 1_555
N1IC C7LB 1_555 1_555
H6IC C4IC 1_555 1_555
H7IC C4IC 1_555 1_555
H8IC C5IC 1_555 1_555
C8IC C7LB 1_555 1_555
H9IC C8IC 1_555 1_555
H10IC C8IC 1_555 1_555
H11IC C8IC 1_555 1_555
C5 N1 1_555 1_555
C5KA N1KA 1_555 1_555
C3VB C5VB 1_555 1_555
C3VB C6VB 1_555 1_555
C4VB N1VB 1_555 1_555
C5VB N1VB 1_555 1_555
C1FC C2FC 1_555 1_555
C5FC N1FC 1_555 1_555
C3J C5J 1_555 1_555
C3J C6J 1_555 1_555
C4J N1J 1_555 1_555
C5J N1J 1_555 1_555
C5K N1K 1_555 1_555
C5CA N1CA 1_555 1_555
C3OA C5OA 1_555 1_555
C3OA C6OA 1_555 1_555
C4OA N1OA 1_555 1_555
C5OA N1OA 1_555 1_555
C3DB C5DB 1_555 1_555
C3DB C6DB 1_555 1_555
C4DB N1DB 1_555 1_555
C5DB N1DB 1_555 1_555
C1JB C2JB 1_555 1_555
C3JB C5JB 1_555 1_555
C3JB C6JB 1_555 1_555
C4JB N1JB 1_555 1_555
C5JB N1JB 1_555 1_555
C1LB C2LB 1_555 1_555
C5LB N1LB 1_555 1_555
C1IC C2IC 1_555 1_555
C3IC C5IC 1_555 1_555
C3IC C6IC 1_555 1_555
C4IC N1IC 1_555 1_555
C5IC N1IC 1_555 1_555

#END
