
#######################################################################
#
#                 Cambridge Crystallographic Data Centre
#                                CCDC 
#
#######################################################################
#
# If this CIF has been generated from an entry in the Cambridge 
# Structural Database, then it will include bibliographic, chemical, 
# crystal, experimental, refinement or atomic coordinate data resulting 
# from the CCDC's data processing and validation procedures.
#
#######################################################################

data_VOMPIY
_chemical_formula_moiety         'C72 H108 N12,14.68(H2 O1)'
_chemical_name_systematic        
'5,12,20,27,35,42,50,57,62,69,74,81-dodecaazatridecacyclo[29.29.10.10^16,46^.1^3,59^.1^14,18^.1^29,33^.1^44,48^.0^6,11^.0^21,26^.0^36,41^.0^51,56^.0^63,68^.0^75,80^]tetraoctaconta-1,3(71),14(84),15,17,29(83),30,32,44(72),45,47,59-dodecaene hydrate'
_symmetry_cell_setting           cubic
_symmetry_space_group_name_H-M   'F 41 3 2'
_symmetry_Int_Tables_number      210
_space_group_name_Hall           'F 4d 2 3'
loop_
_symmetry_equiv_pos_site_id
_symmetry_equiv_pos_as_xyz
1 x,y,z
2 -x,1/2-y,1/2+z
3 1/2-x,1/2+y,-z
4 1/2+x,-y,1/2-z
5 z,x,y
6 1/2+z,-x,1/2-y
7 -z,1/2-x,1/2+y
8 1/2-z,1/2+x,-y
9 y,z,x
10 1/2-y,1/2+z,-x
11 1/2+y,-z,1/2-x
12 -y,1/2-z,1/2+x
13 3/4+y,1/4+x,3/4-z
14 1/4-y,1/4-x,1/4-z
15 1/4+y,3/4-x,3/4+z
16 3/4-y,3/4+x,1/4+z
17 3/4+x,1/4+z,3/4-y
18 3/4-x,3/4+z,1/4+y
19 1/4-x,1/4-z,1/4-y
20 1/4+x,3/4-z,3/4+y
21 3/4+z,1/4+y,3/4-x
22 1/4+z,3/4-y,3/4+x
23 3/4-z,3/4+y,1/4+x
24 1/4-z,1/4-y,1/4-x
25 x,1/2+y,1/2+z
26 -x,-y,z
27 1/2-x,y,1/2-z
28 1/2+x,1/2-y,-z
29 z,1/2+x,1/2+y
30 1/2+z,1/2-x,-y
31 -z,-x,y
32 1/2-z,x,1/2-y
33 y,1/2+z,1/2+x
34 1/2-y,z,1/2-x
35 1/2+y,1/2-z,-x
36 -y,-z,x
37 3/4+y,3/4+x,1/4-z
38 1/4-y,3/4-x,3/4-z
39 1/4+y,1/4-x,1/4+z
40 3/4-y,1/4+x,3/4+z
41 3/4+x,3/4+z,1/4-y
42 3/4-x,1/4+z,3/4+y
43 1/4-x,3/4-z,3/4-y
44 1/4+x,1/4-z,1/4+y
45 3/4+z,3/4+y,1/4-x
46 1/4+z,1/4-y,1/4+x
47 3/4-z,1/4+y,3/4+x
48 1/4-z,3/4-y,3/4-x
49 1/2+x,y,1/2+z
50 1/2-x,1/2-y,z
51 -x,1/2+y,1/2-z
52 x,-y,-z
53 1/2+z,x,1/2+y
54 z,-x,-y
55 1/2-z,1/2-x,y
56 -z,1/2+x,1/2-y
57 1/2+y,z,1/2+x
58 -y,1/2+z,1/2-x
59 y,-z,-x
60 1/2-y,1/2-z,x
61 1/4+y,1/4+x,1/4-z
62 3/4-y,1/4-x,3/4-z
63 3/4+y,3/4-x,1/4+z
64 1/4-y,3/4+x,3/4+z
65 1/4+x,1/4+z,1/4-y
66 1/4-x,3/4+z,3/4+y
67 3/4-x,1/4-z,3/4-y
68 3/4+x,3/4-z,1/4+y
69 1/4+z,1/4+y,1/4-x
70 3/4+z,3/4-y,1/4+x
71 1/4-z,3/4+y,3/4+x
72 3/4-z,1/4-y,3/4-x
73 1/2+x,1/2+y,z
74 1/2-x,-y,1/2+z
75 -x,y,-z
76 x,1/2-y,1/2-z
77 1/2+z,1/2+x,y
78 z,1/2-x,1/2-y
79 1/2-z,-x,1/2+y
80 -z,x,-y
81 1/2+y,1/2+z,x
82 -y,z,-x
83 y,1/2-z,1/2-x
84 1/2-y,-z,1/2+x
85 1/4+y,3/4+x,3/4-z
86 3/4-y,3/4-x,1/4-z
87 3/4+y,1/4-x,3/4+z
88 1/4-y,1/4+x,1/4+z
89 1/4+x,3/4+z,3/4-y
90 1/4-x,1/4+z,1/4+y
91 3/4-x,3/4-z,1/4-y
92 3/4+x,1/4-z,3/4+y
93 1/4+z,3/4+y,3/4-x
94 3/4+z,1/4-y,3/4+x
95 1/4-z,1/4+y,1/4+x
96 3/4-z,3/4-y,1/4-x
_cell_length_a                   25.712(11)
_cell_length_b                   25.712(11)
_cell_length_c                   25.712(11)
_cell_angle_alpha                90
_cell_angle_beta                 90
_cell_angle_gamma                90
_cell_volume                     16998.4
_cell_formula_units_Z            8
loop_
_atom_site_label
_atom_site_type_symbol
_atom_site_fract_x
_atom_site_fract_y
_atom_site_fract_z
N1 N 0.54315(12) 0.21510(11) 0.46480(10)
H1 H 0.530(2) 0.190(2) 0.478(2)
C1 C 0.62679(13) 0.14289(12) 0.42906(12)
H2 H 0.6359 0.1631 0.4577
C2 C 0.58330(13) 0.15658(12) 0.39975(12)
C3 C 0.55319(18) 0.20542(16) 0.41051(13)
H3 H 0.5723 0.2347 0.3964
H4 H 0.5202 0.2035 0.3923
C4 C 0.51186(11) 0.26257(10) 0.47276(10)
H5 H 0.4835 0.2626 0.4473
C5 C 0.54427(13) 0.31202(12) 0.46472(13)
H6 H 0.5734 0.3118 0.4887
H7 H 0.5581 0.3122 0.4296
C6 C 0.51237(15) 0.36133(12) 0.47330(12)
H8 H 0.5347 0.3915 0.4698
H9 H 0.4854 0.3636 0.4470
N1HA N 0.71510(11) 0.03520(10) 0.45685(12)
H1HA H 0.690(2) 0.022(2) 0.470(2)
C1HA C 0.64289(12) 0.07094(12) 0.37321(13)
H2HA H 0.6631 0.0423 0.3641
C2HA C 0.65658(12) 0.10025(12) 0.41670(13)
C3HA C 0.70542(16) 0.08949(13) 0.44681(18)
H3HA H 0.7347 0.1036 0.4277
H4HA H 0.7035 0.1077 0.4798
C4HA C 0.76257(10) 0.02724(10) 0.48814(11)
H5HA H 0.7626 0.0527 0.5165
C5HA C 0.81202(12) 0.03528(13) 0.45573(13)
H6HA H 0.8118 0.0113 0.4266
H7HA H 0.8122 0.0704 0.4419
C6HA C 0.86133(12) 0.02670(12) 0.48763(15)
H8HA H 0.8915 0.0302 0.4653
H9HA H 0.8636 0.0530 0.5146
N1CB N 0.53520(10) 0.04315(12) 0.28490(11)
H1CB H 0.522(2) 0.030(2) 0.310(2)
C1CB C 0.57094(12) 0.12679(13) 0.35711(12)
H2CB H 0.5423 0.1359 0.3369
C2CB C 0.60025(12) 0.08330(13) 0.34342(12)
C3CB C 0.58949(13) 0.05319(18) 0.29458(16)
H3CB H 0.6036 0.0723 0.2653
H4CB H 0.6077 0.0202 0.2965
C4CB C 0.52724(10) 0.01186(11) 0.23743(10)
H5CB H 0.5527 -0.0165 0.2374
C5CB C 0.53528(13) 0.04427(13) 0.18798(12)
H6CB H 0.5113 0.0734 0.1882
H7CB H 0.5704 0.0581 0.1878
C6CB C 0.52670(12) 0.01237(15) 0.13867(12)
H8CB H 0.5302 0.0347 0.1085
H9CB H 0.5530 -0.0146 0.1364
N1VB N 0.45685(12) 0.21510(11) 0.53520(10)
H1VB H 0.470(2) 0.190(2) 0.522(2)
C1VB C 0.37321(13) 0.14289(12) 0.57094(12)
H2VB H 0.3641 0.1631 0.5423
C2VB C 0.41670(13) 0.15658(12) 0.60025(12)
C3VB C 0.44681(18) 0.20542(16) 0.58949(13)
H3VB H 0.4277 0.2347 0.6036
H4VB H 0.4798 0.2035 0.6077
C4VB C 0.48814(11) 0.26257(10) 0.52724(10)
H5VB H 0.5165 0.2626 0.5527
C5VB C 0.45573(13) 0.31202(12) 0.53528(13)
H6VB H 0.4266 0.3118 0.5113
H7VB H 0.4419 0.3122 0.5704
C6VB C 0.48763(15) 0.36133(12) 0.52670(12)
H8VB H 0.4653 0.3915 0.5302
H9VB H 0.5146 0.3636 0.5530
N1BA N 0.46480(10) 0.04315(12) 0.71510(11)
H1BA H 0.478(2) 0.030(2) 0.690(2)
C1BA C 0.42906(12) 0.12679(13) 0.64289(12)
H2BA H 0.4577 0.1359 0.6631
C2BA C 0.39975(12) 0.08330(13) 0.65658(12)
C3BA C 0.41051(13) 0.05319(18) 0.70542(16)
H3BA H 0.3964 0.0723 0.7347
H4BA H 0.3923 0.0202 0.7035
C4BA C 0.47276(10) 0.01186(11) 0.76257(10)
H5BA H 0.4473 -0.0165 0.7626
C5BA C 0.46472(13) 0.04427(13) 0.81202(12)
H6BA H 0.4887 0.0734 0.8118
H7BA H 0.4296 0.0581 0.8122
C6BA C 0.47330(12) 0.01237(15) 0.86133(12)
H8BA H 0.4698 0.0347 0.8915
H9BA H 0.4470 -0.0146 0.8636
N1GB N 0.28490(11) 0.03520(10) 0.54315(12)
H1GB H 0.310(2) 0.022(2) 0.530(2)
C1GB C 0.35711(12) 0.07094(12) 0.62679(13)
H2GB H 0.3369 0.0423 0.6359
C2GB C 0.34342(12) 0.10025(12) 0.58330(13)
C3GB C 0.29458(16) 0.08949(13) 0.55319(18)
H3GB H 0.2653 0.1036 0.5723
H4GB H 0.2965 0.1077 0.5202
C4GB C 0.23743(10) 0.02724(10) 0.51186(11)
H5GB H 0.2374 0.0527 0.4835
C5GB C 0.18798(12) 0.03528(13) 0.54427(13)
H6GB H 0.1882 0.0113 0.5734
H7GB H 0.1878 0.0704 0.5581
C6GB C 0.13867(12) 0.02670(12) 0.51237(15)
H8GB H 0.1085 0.0302 0.5347
H9GB H 0.1364 0.0530 0.4854
N1YB N 0.46480(10) -0.04315(12) 0.28490(11)
H1YB H 0.478(2) -0.030(2) 0.310(2)
C1YB C 0.42906(12) -0.12679(13) 0.35711(12)
H2YB H 0.4577 -0.1359 0.3369
C2YB C 0.39975(12) -0.08330(13) 0.34342(12)
C3YB C 0.41051(13) -0.05319(18) 0.29458(16)
H3YB H 0.3964 -0.0723 0.2653
H4YB H 0.3923 -0.0202 0.2965
C4YB C 0.47276(10) -0.01186(11) 0.23743(10)
H5YB H 0.4473 0.0165 0.2374
C5YB C 0.46472(13) -0.04427(13) 0.18798(12)
H6YB H 0.4887 -0.0734 0.1882
H7YB H 0.4296 -0.0581 0.1878
C6YB C 0.47330(12) -0.01237(15) 0.13867(12)
H8YB H 0.4698 -0.0347 0.1085
H9YB H 0.4470 0.0146 0.1364
N1BC N 0.71510(11) -0.03520(10) 0.54315(12)
H1BC H 0.690(2) -0.022(2) 0.530(2)
C1BC C 0.64289(12) -0.07094(12) 0.62679(13)
H2BC H 0.6631 -0.0423 0.6359
C2BC C 0.65658(12) -0.10025(12) 0.58330(13)
C3BC C 0.70542(16) -0.08949(13) 0.55319(18)
H3BC H 0.7347 -0.1036 0.5723
H4BC H 0.7035 -0.1077 0.5202
C4BC C 0.76257(10) -0.02724(10) 0.51186(11)
H5BC H 0.7626 -0.0527 0.4835
C5BC C 0.81202(12) -0.03528(13) 0.54427(13)
H6BC H 0.8118 -0.0113 0.5734
H7BC H 0.8122 -0.0704 0.5581
C6BC C 0.86133(12) -0.02670(12) 0.51237(15)
H8BC H 0.8915 -0.0302 0.5347
H9BC H 0.8636 -0.0530 0.4854
N1F N 0.53520(10) -0.04315(12) 0.71510(11)
H1F H 0.522(2) -0.030(2) 0.690(2)
C1F C 0.57094(12) -0.12679(13) 0.64289(12)
H2F H 0.5423 -0.1359 0.6631
C2F C 0.60025(12) -0.08330(13) 0.65658(12)
C3F C 0.58949(13) -0.05319(18) 0.70542(16)
H3F H 0.6036 -0.0723 0.7347
H4F H 0.6077 -0.0202 0.7035
C4F C 0.52724(10) -0.01186(11) 0.76257(10)
H5F H 0.5527 0.0165 0.7626
C5F C 0.53528(13) -0.04427(13) 0.81202(12)
H6F H 0.5113 -0.0734 0.8118
H7F H 0.5704 -0.0581 0.8122
C6F C 0.52670(12) -0.01237(15) 0.86133(12)
H8F H 0.5302 -0.0347 0.8915
H9F H 0.5530 0.0146 0.8636
N1I N 0.28490(11) -0.03520(10) 0.45685(12)
H1I H 0.310(2) -0.022(2) 0.470(2)
C1I C 0.35711(12) -0.07094(12) 0.37321(13)
H2I H 0.3369 -0.0423 0.3641
C2I C 0.34342(12) -0.10025(12) 0.41670(13)
C3I C 0.29458(16) -0.08949(13) 0.44681(18)
H3I H 0.2653 -0.1036 0.4277
H4I H 0.2965 -0.1077 0.4798
C4I C 0.23743(10) -0.02724(10) 0.48814(11)
H5I H 0.2374 -0.0527 0.5165
C5I C 0.18798(12) -0.03528(13) 0.45573(13)
H6I H 0.1882 -0.0113 0.4266
H7I H 0.1878 -0.0704 0.4419
C6I C 0.13867(12) -0.02670(12) 0.48763(15)
H8I H 0.1085 -0.0302 0.4653
H9I H 0.1364 -0.0530 0.5146
N1Y N 0.45685(12) -0.21510(11) 0.46480(10)
H1Y H 0.470(2) -0.190(2) 0.478(2)
C1Y C 0.37321(13) -0.14289(12) 0.42906(12)
H2Y H 0.3641 -0.1631 0.4577
C2Y C 0.41670(13) -0.15658(12) 0.39975(12)
C3Y C 0.44681(18) -0.20542(16) 0.41051(13)
H3Y H 0.4277 -0.2347 0.3964
H4Y H 0.4798 -0.2035 0.3923
C4Y C 0.48814(11) -0.26257(10) 0.47276(10)
H5Y H 0.5165 -0.2626 0.4473
C5Y C 0.45573(13) -0.31202(12) 0.46472(13)
H6Y H 0.4266 -0.3118 0.4887
H7Y H 0.4419 -0.3122 0.4296
C6Y C 0.48763(15) -0.36133(12) 0.47330(12)
H8Y H 0.4653 -0.3915 0.4698
H9Y H 0.5146 -0.3636 0.4470
N1YA N 0.54315(12) -0.21510(11) 0.53520(10)
H1YA H 0.530(2) -0.190(2) 0.522(2)
C1YA C 0.62679(13) -0.14289(12) 0.57094(12)
H2YA H 0.6359 -0.1631 0.5423
C2YA C 0.58330(13) -0.15658(12) 0.60025(12)
C3YA C 0.55319(18) -0.20542(16) 0.58949(13)
H3YA H 0.5723 -0.2347 0.6036
H4YA H 0.5202 -0.2035 0.6077
C4YA C 0.51186(11) -0.26257(10) 0.52724(10)
H5YA H 0.4835 -0.2626 0.5527
C5YA C 0.54427(13) -0.31202(12) 0.53528(13)
H6YA H 0.5734 -0.3118 0.5113
H7YA H 0.5581 -0.3122 0.5704
C6YA C 0.51237(15) -0.36133(12) 0.52670(12)
H8YA H 0.5347 -0.3915 0.5302
H9YA H 0.4854 -0.3636 0.5530
O1 O 0.6250 0.20715(14) 0.54285(14)
O2? O 0.4464(5) 0.1575(4) 0.3960(4)
O3? O 0.4606(10) 0.0777(11) 0.4614(10)
O4? O 0.5000 0.1078(4) 0.5000
loop_
_geom_bond_atom_site_label_1
_geom_bond_atom_site_label_2
_geom_bond_site_symmetry_1
_geom_bond_site_symmetry_2
N1 H1 1_555 1_555
C1 H2 1_555 1_555
C2 C1 1_555 1_555
C3 N1 1_555 1_555
H3 C3 1_555 1_555
H4 C3 1_555 1_555
C4 N1 1_555 1_555
H5 C4 1_555 1_555
C5 C4 1_555 1_555
H6 C5 1_555 1_555
H7 C5 1_555 1_555
C6 C5 1_555 1_555
H8 C6 1_555 1_555
H9 C6 1_555 1_555
N1HA H1HA 1_555 1_555
C1HA H2HA 1_555 1_555
C2HA C1 1_555 1_555
C3HA N1HA 1_555 1_555
H3HA C3HA 1_555 1_555
H4HA C3HA 1_555 1_555
C4HA N1HA 1_555 1_555
H5HA C4HA 1_555 1_555
C5HA C4HA 1_555 1_555
H6HA C5HA 1_555 1_555
H7HA C5HA 1_555 1_555
C6HA C5HA 1_555 1_555
H8HA C6HA 1_555 1_555
H9HA C6HA 1_555 1_555
N1CB H1CB 1_555 1_555
C1CB C2 1_555 1_555
H2CB C1CB 1_555 1_555
C2CB C1HA 1_555 1_555
C3CB N1CB 1_555 1_555
H3CB C3CB 1_555 1_555
H4CB C3CB 1_555 1_555
C4CB N1CB 1_555 1_555
H5CB C4CB 1_555 1_555
C5CB C4CB 1_555 1_555
H6CB C5CB 1_555 1_555
H7CB C5CB 1_555 1_555
C6CB C5CB 1_555 1_555
H8CB C6CB 1_555 1_555
H9CB C6CB 1_555 1_555
N1VB H1VB 1_555 1_555
C1VB H2VB 1_555 1_555
C2VB C1VB 1_555 1_555
C3VB N1VB 1_555 1_555
H3VB C3VB 1_555 1_555
H4VB C3VB 1_555 1_555
C4VB C4 1_555 1_555
H5VB C4VB 1_555 1_555
C5VB C4VB 1_555 1_555
H6VB C5VB 1_555 1_555
H7VB C5VB 1_555 1_555
C6VB C6 1_555 1_555
H8VB C6VB 1_555 1_555
H9VB C6VB 1_555 1_555
N1BA H1BA 1_555 1_555
C1BA C2VB 1_555 1_555
H2BA C1BA 1_555 1_555
C2BA C1BA 1_555 1_555
C3BA N1BA 1_555 1_555
H3BA C3BA 1_555 1_555
H4BA C3BA 1_555 1_555
C4BA N1BA 1_555 1_555
H5BA C4BA 1_555 1_555
C5BA C4BA 1_555 1_555
H6BA C5BA 1_555 1_555
H7BA C5BA 1_555 1_555
C6BA C5BA 1_555 1_555
H8BA C6BA 1_555 1_555
H9BA C6BA 1_555 1_555
N1GB H1GB 1_555 1_555
C1GB C2BA 1_555 1_555
H2GB C1GB 1_555 1_555
C2GB C1VB 1_555 1_555
C3GB N1GB 1_555 1_555
H3GB C3GB 1_555 1_555
H4GB C3GB 1_555 1_555
C4GB N1GB 1_555 1_555
H5GB C4GB 1_555 1_555
C5GB C4GB 1_555 1_555
H6GB C5GB 1_555 1_555
H7GB C5GB 1_555 1_555
C6GB C5GB 1_555 1_555
H8GB C6GB 1_555 1_555
H9GB C6GB 1_555 1_555
N1YB H1YB 1_555 1_555
C1YB H2YB 1_555 1_555
C2YB C1YB 1_555 1_555
C3YB N1YB 1_555 1_555
H3YB C3YB 1_555 1_555
H4YB C3YB 1_555 1_555
C4YB C4CB 1_555 1_555
H5YB C4YB 1_555 1_555
C5YB C4YB 1_555 1_555
H6YB C5YB 1_555 1_555
H7YB C5YB 1_555 1_555
C6YB C6CB 1_555 1_555
H8YB C6YB 1_555 1_555
H9YB C6YB 1_555 1_555
N1BC H1BC 1_555 1_555
C1BC H2BC 1_555 1_555
C2BC C1BC 1_555 1_555
C3BC N1BC 1_555 1_555
H3BC C3BC 1_555 1_555
H4BC C3BC 1_555 1_555
C4BC C4HA 1_555 1_555
H5BC C4BC 1_555 1_555
C5BC C4BC 1_555 1_555
H6BC C5BC 1_555 1_555
H7BC C5BC 1_555 1_555
C6BC C6HA 1_555 1_555
H8BC C6BC 1_555 1_555
H9BC C6BC 1_555 1_555
N1F H1F 1_555 1_555
C1F H2F 1_555 1_555
C2F C1BC 1_555 1_555
C3F N1F 1_555 1_555
H3F C3F 1_555 1_555
H4F C3F 1_555 1_555
C4F C4BA 1_555 1_555
H5F C4F 1_555 1_555
C5F C4F 1_555 1_555
H6F C5F 1_555 1_555
H7F C5F 1_555 1_555
C6F C6BA 1_555 1_555
H8F C6F 1_555 1_555
H9F C6F 1_555 1_555
N1I H1I 1_555 1_555
C1I C2YB 1_555 1_555
H2I C1I 1_555 1_555
C2I C1I 1_555 1_555
C3I N1I 1_555 1_555
H3I C3I 1_555 1_555
H4I C3I 1_555 1_555
C4I C4GB 1_555 1_555
H5I C4I 1_555 1_555
C5I C4I 1_555 1_555
H6I C5I 1_555 1_555
H7I C5I 1_555 1_555
C6I C6GB 1_555 1_555
H8I C6I 1_555 1_555
H9I C6I 1_555 1_555
N1Y H1Y 1_555 1_555
C1Y C2I 1_555 1_555
H2Y C1Y 1_555 1_555
C2Y C1YB 1_555 1_555
C3Y N1Y 1_555 1_555
H3Y C3Y 1_555 1_555
H4Y C3Y 1_555 1_555
C4Y N1Y 1_555 1_555
H5Y C4Y 1_555 1_555
C5Y C4Y 1_555 1_555
H6Y C5Y 1_555 1_555
H7Y C5Y 1_555 1_555
C6Y C5Y 1_555 1_555
H8Y C6Y 1_555 1_555
H9Y C6Y 1_555 1_555
N1YA H1YA 1_555 1_555
C1YA C2BC 1_555 1_555
H2YA C1YA 1_555 1_555
C2YA C1F 1_555 1_555
C3YA N1YA 1_555 1_555
H3YA C3YA 1_555 1_555
H4YA C3YA 1_555 1_555
C4YA C4Y 1_555 1_555
H5YA C4YA 1_555 1_555
C5YA C4YA 1_555 1_555
H6YA C5YA 1_555 1_555
H7YA C5YA 1_555 1_555
C6YA C6Y 1_555 1_555
H8YA C6YA 1_555 1_555
H9YA C6YA 1_555 1_555
C2 C3 1_555 1_555
C1HA C2HA 1_555 1_555
C2HA C3HA 1_555 1_555
C1CB C2CB 1_555 1_555
C2CB C3CB 1_555 1_555
N1VB C4VB 1_555 1_555
C2VB C3VB 1_555 1_555
C5VB C6VB 1_555 1_555
C2BA C3BA 1_555 1_555
C1GB C2GB 1_555 1_555
C2GB C3GB 1_555 1_555
N1YB C4YB 1_555 1_555
C2YB C3YB 1_555 1_555
C5YB C6YB 1_555 1_555
N1BC C4BC 1_555 1_555
C2BC C3BC 1_555 1_555
C5BC C6BC 1_555 1_555
N1F C4F 1_555 1_555
C1F C2F 1_555 1_555
C2F C3F 1_555 1_555
C5F C6F 1_555 1_555
N1I C4I 1_555 1_555
C2I C3I 1_555 1_555
C5I C6I 1_555 1_555
C1Y C2Y 1_555 1_555
C2Y C3Y 1_555 1_555
N1YA C4YA 1_555 1_555
C1YA C2YA 1_555 1_555
C2YA C3YA 1_555 1_555
C5YA C6YA 1_555 1_555

#END
