
#######################################################################
#
#                 Cambridge Crystallographic Data Centre
#                                CCDC 
#
#######################################################################
#
# If this CIF has been generated from an entry in the Cambridge 
# Structural Database, then it will include bibliographic, chemical, 
# crystal, experimental, refinement or atomic coordinate data resulting 
# from the CCDC's data processing and validation procedures.
#
#######################################################################

data_VOMQAQ
_chemical_formula_moiety         'C19 H17 Cl1 N4 O2'
_chemical_name_systematic        
7-(4-Chlorobenzyl)-2-(4-methoxyphenyl)-6,7-dihydro[1,2,4]triazolo[1,5-a]pyrazin-8(5H)-one
_chemical_properties_biological  
'preliminary biological evaluation showed that this compound did not inhibit the growth of lung cancer cells'
_symmetry_cell_setting           monoclinic
_symmetry_space_group_name_H-M   'P 21/n'
_symmetry_Int_Tables_number      14
_space_group_name_Hall           '-P 2yn'
loop_
_symmetry_equiv_pos_site_id
_symmetry_equiv_pos_as_xyz
1 x,y,z
2 1/2-x,1/2+y,1/2-z
3 -x,-y,-z
4 1/2+x,1/2-y,1/2+z
_cell_length_a                   7.33070(10)
_cell_length_b                   17.1568(2)
_cell_length_c                   13.4779(2)
_cell_angle_alpha                90
_cell_angle_beta                 92.8480(10)
_cell_angle_gamma                90
_cell_volume                     1693.04
_exptl_crystal_colour            colorless
_chemical_melting_point          197-199deg.C
_cell_formula_units_Z            4
loop_
_atom_site_label
_atom_site_type_symbol
_atom_site_fract_x
_atom_site_fract_y
_atom_site_fract_z
Cl1 Cl 0.16704(10) 0.05280(4) 0.36870(6)
O1 O 0.1943(3) -0.03242(10) 0.87991(13)
O2 O -0.9332(3) -0.19149(11) 1.15315(14)
N1 N 0.2425(3) -0.14163(11) 0.78940(14)
N2 N -0.0668(3) -0.20762(11) 0.86114(14)
N3 N -0.2207(3) -0.23172(11) 0.90178(15)
C1 C 0.2404(3) 0.00509(14) 0.47870(19)
C2 C 0.2546(3) 0.04724(12) 0.55953(17)
H1 H 0.2274 0.1002 0.5592
C3 C 0.3100(4) 0.01019(15) 0.6420(2)
H2 H 0.3213 0.0391 0.7003
C4 C 0.3525(3) -0.06852(14) 0.64754(18)
C5 C 0.3371(3) -0.11032(14) 0.55982(19)
H3 H 0.3655 -0.1632 0.5593
C6 C 0.2796(4) -0.07323(15) 0.47327(19)
H4 H 0.2676 -0.1001 0.4134
C7 C 0.4031(3) -0.10801(16) 0.74517(18)
H5 H 0.4914 -0.1489 0.7345
H6 H 0.4596 -0.0703 0.7907
C8 C 0.1574(4) -0.20960(14) 0.73880(18)
H7 H 0.2516 -0.2409 0.7102
H8 H 0.0751 -0.1917 0.6850
C9 C 0.0529(4) -0.25917(14) 0.80837(19)
H9 H -0.0185 -0.2980 0.7713
H10 H 0.1364 -0.2858 0.8550
C10 C 0.1453(3) -0.09705(13) 0.85151(16)
C11 C -0.0234(3) -0.13303(12) 0.88492(16)
N4 N -0.1595(3) -0.10533(13) 0.94341(17)
C12 C -0.2795(3) -0.16901(13) 0.95166(16)
C13 C -0.4492(3) -0.17319(13) 1.00516(16)
C14 C -0.5077(4) -0.11105(14) 1.06054(19)
H11 H -0.4373 -0.0659 1.0642
C15 C -0.6683(4) -0.11396(14) 1.11085(19)
H12 H -0.7047 -0.0713 1.1475
C16 C -0.7746(3) -0.18135(14) 1.10588(18)
C17 C -0.7173(3) -0.24397(14) 1.05089(19)
H13 H -0.7873 -0.2892 1.0475
C18 C -0.5586(4) -0.24039(14) 1.00118(18)
H14 H -0.5229 -0.2831 0.9643
C19 C -0.9976(5) -0.1281(2) 1.2092(3)
H15 H -1.1096 -0.1426 1.2383
H16 H -1.0189 -0.0840 1.1664
H17 H -0.9080 -0.1149 1.2608
loop_
_geom_bond_atom_site_label_1
_geom_bond_atom_site_label_2
_geom_bond_site_symmetry_1
_geom_bond_site_symmetry_2
Cl1 C1 1_555 1_555
O1 C10 1_555 1_555
O2 C16 1_555 1_555
N1 C7 1_555 1_555
N2 N3 1_555 1_555
N3 C12 1_555 1_555
C1 C2 1_555 1_555
C2 H1 1_555 1_555
C3 C2 1_555 1_555
H2 C3 1_555 1_555
C4 C3 1_555 1_555
C5 C4 1_555 1_555
H3 C5 1_555 1_555
C6 C1 1_555 1_555
H4 C6 1_555 1_555
C7 C4 1_555 1_555
H5 C7 1_555 1_555
H6 C7 1_555 1_555
C8 N1 1_555 1_555
H7 C8 1_555 1_555
H8 C8 1_555 1_555
C9 N2 1_555 1_555
H9 C9 1_555 1_555
H10 C9 1_555 1_555
C10 N1 1_555 1_555
C11 N2 1_555 1_555
N4 C11 1_555 1_555
C12 N4 1_555 1_555
C13 C12 1_555 1_555
C14 C13 1_555 1_555
H11 C14 1_555 1_555
C15 C14 1_555 1_555
H12 C15 1_555 1_555
C16 C15 1_555 1_555
C17 C16 1_555 1_555
H13 C17 1_555 1_555
C18 C13 1_555 1_555
H14 C18 1_555 1_555
C19 O2 1_555 1_555
H15 C19 1_555 1_555
H16 C19 1_555 1_555
H17 C19 1_555 1_555
C5 C6 1_555 1_555
C8 C9 1_555 1_555
C10 C11 1_555 1_555
C17 C18 1_555 1_555

#END
