
#######################################################################
#
#                 Cambridge Crystallographic Data Centre
#                                CCDC 
#
#######################################################################
#
# If this CIF has been generated from an entry in the Cambridge 
# Structural Database, then it will include bibliographic, chemical, 
# crystal, experimental, refinement or atomic coordinate data resulting 
# from the CCDC's data processing and validation procedures.
#
#######################################################################

data_VOMREU
_chemical_name_common            'Dibromohelicene chloroform solvate'
_chemical_formula_moiety         'C44 H22 Br2 N2,C1 H1 Cl3'
_chemical_name_systematic        
"3,20-Dibromobenzo(2'',1'':5,6;3'',4'':5',6')diphenanthro(4,3-h:4',3'-h')diquinoline chloroform solvate"
_symmetry_cell_setting           monoclinic
_symmetry_space_group_name_H-M   'P 21/n'
_symmetry_Int_Tables_number      14
_space_group_name_Hall           '-P 2yn'
loop_
_symmetry_equiv_pos_site_id
_symmetry_equiv_pos_as_xyz
1 x,y,z
2 1/2-x,1/2+y,1/2-z
3 -x,-y,-z
4 1/2+x,1/2-y,1/2+z
_cell_length_a                   10.584(1)
_cell_length_b                   18.204(2)
_cell_length_c                   18.277(2)
_cell_angle_alpha                90
_cell_angle_beta                 93.740(4)
_cell_angle_gamma                90
_cell_volume                     3513.95
_exptl_crystal_colour            orange
_chemical_melting_point          'above 300deg.C'
_cell_formula_units_Z            4
loop_
_atom_site_label
_atom_site_type_symbol
_atom_site_fract_x
_atom_site_fract_y
_atom_site_fract_z
Br1 Br 0.05180(10) 0.38079(5) 0.32492(5)
N1 N 0.10118(56) 0.46187(31) 0.20354(32)
N2 N -0.16969(63) 0.87067(35) 0.00480(37)
Br2 Br -0.39391(11) 0.93359(7) -0.04724(9)
C1 C 0.1551(7) 0.4166(4) 0.2509(4)
C2 C 0.1754(7) 0.4875(4) 0.1495(4)
C3 C 0.3019(7) 0.4656(4) 0.1453(4)
C4 C 0.3537(8) 0.4152(4) 0.1988(4)
H1 H 0.4504 0.3967 0.1971
C5 C 0.2800(8) 0.3907(5) 0.2519(5)
H2 H 0.3165 0.3525 0.2933
C6 C 0.3711(8) 0.4931(4) 0.0873(4)
H3 H 0.4654 0.4729 0.0803
C7 C 0.3203(7) 0.5448(4) 0.0408(4)
H4 H 0.3765 0.5661 -0.0017
C8 C 0.1951(6) 0.5718(4) 0.0460(4)
C9 C 0.1166(7) 0.5376(4) 0.0961(4)
C10 C -0.0159(7) 0.5496(4) 0.0905(4)
H5 H -0.0657(62) 0.5274(37) 0.1287(37)
C11 C -0.0686(7) 0.5907(4) 0.0341(4)
H6 H -0.1704 0.5946 0.0258
C12 C 0.0068(7) 0.6287(4) -0.0145(4)
C13 C 0.1389(6) 0.6261(4) -0.0039(4)
C14 C -0.0507(7) 0.6685(4) -0.0760(4)
H7 H -0.1522 0.6746 -0.0835
C15 C 0.0248(7) 0.6988(4) -0.1257(4)
H8 H 0.0171 0.7214 -0.1762
C16 C 0.1570(7) 0.7016(4) -0.1135(4)
C17 C 0.2146(7) 0.6746(4) -0.0465(4)
C18 C 0.3403(6) 0.6972(4) -0.0246(4)
C19 C 0.4204(8) 0.7194(4) -0.0811(5)
C20 C 0.3618(8) 0.7348(5) -0.1514(5)
H9 H 0.4211 0.7499 -0.1949
C21 C 0.2377(8) 0.7318(4) -0.1655(5)
H10 H 0.1969 0.7522 -0.2173
C22 C 0.5540(8) 0.7262(5) -0.0642(5)
H11 H 0.6145 0.7430 -0.1061
C23 C 0.6046(8) 0.7115(4) 0.0037(5)
H12 H 0.7064 0.7109 0.0135
C24 C 0.5267(7) 0.6972(4) 0.0631(4)
C25 C 0.3927(7) 0.7003(4) 0.0498(4)
C26 C 0.3172(6) 0.7049(4) 0.1130(4)
C27 C 0.3719(7) 0.6764(4) 0.1804(4)
C28 C 0.5051(8) 0.6640(5) 0.1883(5)
H13 H 0.5469 0.6420 0.2392
C29 C 0.5793(8) 0.6797(5) 0.1335(5)
H14 H 0.6809 0.6786 0.1437
C30 C 0.2935(7) 0.6600(4) 0.2376(5)
H15 H 0.3354 0.6389 0.2888
C31 C 0.1681(8) 0.6703(4) 0.2297(4)
H16 H 0.1080 0.6482 0.2698
C32 C 0.1126(7) 0.7106(4) 0.1676(4)
C33 C 0.1915(7) 0.7348(4) 0.1125(4)
C34 C 0.1409(7) 0.7902(4) 0.0618(4)
C35 C 0.0109(7) 0.8065(4) 0.0595(4)
C36 C -0.0691(8) 0.7723(5) 0.1100(5)
H17 H -0.1501(70) 0.7824(39) 0.0981(39)
C37 C -0.0180(7) 0.7285(4) 0.1624(4)
H18 H -0.0782 0.7060 0.2023
C38 C 0.2203(7) 0.8346(4) 0.0191(4)
H19 H 0.3216 0.8270 0.0244
C39 C 0.1695(7) 0.8860(4) -0.0281(4)
H20 H 0.2318 0.9182 -0.0600
C40 C 0.0388(7) 0.8985(4) -0.0363(4)
C41 C -0.0423(7) 0.8603(4) 0.0067(4)
C42 C -0.2147(9) 0.9190(5) -0.0438(5)
C43 C -0.1455(9) 0.9599(5) -0.0902(5)
H21 H -0.1911 0.9987 -0.1280
C44 C -0.0177(8) 0.9499(5) -0.0878(5)
H22 H 0.0399 0.9806 -0.1237
Cl1 Cl 0.19049(26) 0.01387(17) 0.67006(17)
Cl2 Cl 0.31314(31) -0.06894(16) 0.78676(16)
Cl3 Cl 0.21590(32) 0.07492(17) 0.81508(19)
C45 C 0.2849(9) 0.0194(5) 0.7508(5)
H23 H 0.3742 0.0438 0.7387
loop_
_geom_bond_atom_site_label_1
_geom_bond_atom_site_label_2
_geom_bond_site_symmetry_1
_geom_bond_site_symmetry_2
Br1 C1 1_555 1_555
N1 C1 1_555 1_555
N2 C41 1_555 1_555
Br2 C42 1_555 1_555
C1 C5 1_555 1_555
C2 N1 1_555 1_555
C3 C2 1_555 1_555
C4 C3 1_555 1_555
H1 C4 1_555 1_555
C5 C4 1_555 1_555
H2 C5 1_555 1_555
C6 C3 1_555 1_555
H3 C6 1_555 1_555
C7 C6 1_555 1_555
H4 C7 1_555 1_555
C8 C7 1_555 1_555
C9 C2 1_555 1_555
C10 C9 1_555 1_555
H5 C10 1_555 1_555
C11 C10 1_555 1_555
H6 C11 1_555 1_555
C12 C11 1_555 1_555
C13 C8 1_555 1_555
C14 C12 1_555 1_555
H7 C14 1_555 1_555
C15 C14 1_555 1_555
H8 C15 1_555 1_555
C16 C15 1_555 1_555
C17 C13 1_555 1_555
C18 C17 1_555 1_555
C19 C18 1_555 1_555
C20 C19 1_555 1_555
H9 C20 1_555 1_555
C21 C16 1_555 1_555
H10 C21 1_555 1_555
C22 C19 1_555 1_555
H11 C22 1_555 1_555
C23 C22 1_555 1_555
H12 C23 1_555 1_555
C24 C23 1_555 1_555
C25 C18 1_555 1_555
C26 C25 1_555 1_555
C27 C26 1_555 1_555
C28 C27 1_555 1_555
H13 C28 1_555 1_555
C29 C24 1_555 1_555
H14 C29 1_555 1_555
C30 C27 1_555 1_555
H15 C30 1_555 1_555
C31 C30 1_555 1_555
H16 C31 1_555 1_555
C32 C31 1_555 1_555
C33 C26 1_555 1_555
C34 C33 1_555 1_555
C35 C34 1_555 1_555
C36 C35 1_555 1_555
H17 C36 1_555 1_555
C37 C32 1_555 1_555
H18 C37 1_555 1_555
C38 C34 1_555 1_555
H19 C38 1_555 1_555
C39 C38 1_555 1_555
H20 C39 1_555 1_555
C40 C39 1_555 1_555
C41 C35 1_555 1_555
C42 N2 1_555 1_555
C43 C42 1_555 1_555
H21 C43 1_555 1_555
C44 C40 1_555 1_555
H22 C44 1_555 1_555
Cl1 C45 1_555 1_555
Cl2 C45 1_555 1_555
Cl3 C45 1_555 1_555
C45 H23 1_555 1_555
C8 C9 1_555 1_555
C12 C13 1_555 1_555
C16 C17 1_555 1_555
C20 C21 1_555 1_555
C24 C25 1_555 1_555
C28 C29 1_555 1_555
C32 C33 1_555 1_555
C36 C37 1_555 1_555
C40 C41 1_555 1_555
C43 C44 1_555 1_555

#END
