
#######################################################################
#
#                 Cambridge Crystallographic Data Centre
#                                CCDC 
#
#######################################################################
#
# If this CIF has been generated from an entry in the Cambridge 
# Structural Database, then it will include bibliographic, chemical, 
# crystal, experimental, refinement or atomic coordinate data resulting 
# from the CCDC's data processing and validation procedures.
#
#######################################################################

data_VONNIW
_chemical_name_common            
6,13,15,17-Tetrabromo-3,10-dithiatricyclo[10.2.2.2$5,8!]octadeca-1(14),5,7,12,15,17-hexaene
_chemical_formula_moiety         'C16 H12 Br4 S2'
_chemical_name_systematic        
5,8,15,18-tetrabromo-2,11-dithia(3.3)paracyclophane
_symmetry_cell_setting           monoclinic
_symmetry_space_group_name_H-M   'C c'
_symmetry_Int_Tables_number      9
_space_group_name_Hall           'C -2yc'
loop_
_symmetry_equiv_pos_site_id
_symmetry_equiv_pos_as_xyz
1 x,y,z
2 x,-y,1/2+z
3 1/2+x,1/2+y,z
4 1/2+x,1/2-y,1/2+z
_cell_length_a                   9.1102(5)
_cell_length_b                   15.1617(9)
_cell_length_c                   12.7480(8)
_cell_angle_alpha                90
_cell_angle_beta                 95.025(1)
_cell_angle_gamma                90
_cell_volume                     1754.06
_exptl_crystal_colour            colorless
_exptl_crystal_description       'rectangular thin plates'
_chemical_melting_point          '256-259 deg.C'
_cell_formula_units_Z            4
_exptl_crystal_recrystallization_method benzene
loop_
_atom_site_label
_atom_site_type_symbol
_atom_site_fract_x
_atom_site_fract_y
_atom_site_fract_z
Br1 Br 0.41244(5) 0.21946(4) 0.42287(4)
Br2 Br -0.25319(6) 0.05643(4) 0.35571(5)
Br3 Br 0.41969(6) 0.02195(4) 0.67594(5)
Br4 Br -0.25390(6) 0.17260(4) 0.63160(5)
S1 S 0.18298(15) -0.11065(8) 0.48681(10)
S2 S 0.17265(16) 0.34902(8) 0.56764(11)
C1 C 0.0605(6) 0.0453(3) 0.3939(4)
C2 C 0.2004(6) 0.0838(3) 0.4021(4)
H1 H 0.2836 0.0480 0.4045
C3 C 0.2167(6) 0.1745(3) 0.4067(4)
C4 C 0.0963(6) 0.2301(3) 0.4047(4)
C5 C -0.0423(6) 0.1930(3) 0.3854(4)
H2 H -0.1251 0.2291 0.3767
C6 C -0.0579(5) 0.1014(3) 0.3791(4)
C7 C 0.0424(6) -0.0547(3) 0.4046(4)
H3 H 0.0383 -0.0805 0.3348
H4 H -0.0517 -0.0660 0.4322
C8 C 0.1233(6) -0.0912(3) 0.6180(4)
H5 H 0.0299 -0.1207 0.6239
H6 H 0.1950 -0.1163 0.6704
C9 C 0.1060(6) 0.0059(3) 0.6401(4)
C10 C -0.0357(6) 0.0420(3) 0.6343(4)
H7 H -0.1172 0.0049 0.6272
C11 C -0.0558(5) 0.1324(3) 0.6390(4)
C12 C 0.0610(5) 0.1917(3) 0.6477(4)
C13 C 0.2030(6) 0.1543(3) 0.6628(4)
H8 H 0.2844 0.1912 0.6748
C14 C 0.2237(6) 0.0649(3) 0.6602(4)
C15 C 0.0399(6) 0.2903(3) 0.6394(4)
H9 H 0.0434 0.3145 0.7100
H10 H -0.0578 0.3018 0.6056
C16 C 0.1083(7) 0.3282(3) 0.4299(4)
H11 H 0.0126 0.3555 0.4145
H12 H 0.1761 0.3554 0.3850
loop_
_geom_bond_atom_site_label_1
_geom_bond_atom_site_label_2
_geom_bond_site_symmetry_1
_geom_bond_site_symmetry_2
Br1 C3 1_555 1_555
Br2 C6 1_555 1_555
Br3 C14 1_555 1_555
Br4 C11 1_555 1_555
S1 C7 1_555 1_555
S2 C15 1_555 1_555
C1 C2 1_555 1_555
C2 H1 1_555 1_555
C3 C2 1_555 1_555
C4 C3 1_555 1_555
C5 C4 1_555 1_555
H2 C5 1_555 1_555
C6 C1 1_555 1_555
C7 C1 1_555 1_555
H3 C7 1_555 1_555
H4 C7 1_555 1_555
C8 S1 1_555 1_555
H5 C8 1_555 1_555
H6 C8 1_555 1_555
C9 C8 1_555 1_555
C10 C9 1_555 1_555
H7 C10 1_555 1_555
C11 C10 1_555 1_555
C12 C11 1_555 1_555
C13 C12 1_555 1_555
H8 C13 1_555 1_555
C14 C9 1_555 1_555
C15 C12 1_555 1_555
H9 C15 1_555 1_555
H10 C15 1_555 1_555
C16 S2 1_555 1_555
H11 C16 1_555 1_555
H12 C16 1_555 1_555
C4 C16 1_555 1_555
C5 C6 1_555 1_555
C13 C14 1_555 1_555

#END
