
#######################################################################
#
#                 Cambridge Crystallographic Data Centre
#                                CCDC 
#
#######################################################################
#
# If this CIF has been generated from an entry in the Cambridge 
# Structural Database, then it will include bibliographic, chemical, 
# crystal, experimental, refinement or atomic coordinate data resulting 
# from the CCDC's data processing and validation procedures.
#
#######################################################################

data_VOPLUI
_chemical_formula_moiety         'C11 H19 N1 O3'
_chemical_name_systematic        
rac-trans-4-(Cyclohexylamino)-5-methoxydihydro-2(3H)-furanone
_symmetry_cell_setting           orthorhombic
_symmetry_space_group_name_H-M   'P b c a'
_symmetry_Int_Tables_number      61
_space_group_name_Hall           '-P 2ac 2ab'
loop_
_symmetry_equiv_pos_site_id
_symmetry_equiv_pos_as_xyz
1 x,y,z
2 1/2-x,-y,1/2+z
3 -x,1/2+y,1/2-z
4 1/2+x,1/2-y,-z
5 -x,-y,-z
6 1/2+x,y,1/2-z
7 x,1/2-y,1/2+z
8 1/2-x,1/2+y,z
_cell_length_a                   6.8659(8)
_cell_length_b                   9.0594(10)
_cell_length_c                   36.987(4)
_cell_angle_alpha                90
_cell_angle_beta                 90
_cell_angle_gamma                90
_cell_volume                     2300.63
_exptl_crystal_colour            colorless
_exptl_crystal_description       needle
_chemical_melting_point          '67.2-67.6 deg.C'
_cell_formula_units_Z            8
_exptl_crystal_recrystallization_method 'petroleum ether'
loop_
_atom_site_label
_atom_site_type_symbol
_atom_site_fract_x
_atom_site_fract_y
_atom_site_fract_z
C1 C 0.3737(3) 0.6831(2) 0.15475(5)
H1 H 0.2464 0.6896 0.1666
C2 C 0.4688(3) 0.8354(2) 0.15676(5)
H2 H 0.5937 0.8327 0.1445
H3 H 0.3870 0.9068 0.1445
C3 C 0.4958(3) 0.5716(2) 0.17547(5)
H4 H 0.6212 0.5608 0.1637
H5 H 0.4312 0.4764 0.1750
C4 C 0.4986(3) 0.8832(2) 0.19589(6)
H6 H 0.5646 0.9778 0.1963
H7 H 0.3727 0.8954 0.2074
C5 C 0.6175(4) 0.7712(3) 0.21692(6)
H8 H 0.6252 0.8013 0.2420
H9 H 0.7488 0.7680 0.2073
C6 C 0.5270(3) 0.6186(2) 0.21461(5)
H10 H 0.4030 0.6188 0.2272
H11 H 0.6115 0.5479 0.2265
C7 C 0.2302(3) 0.7214(2) 0.09353(5)
H12 H 0.2873 0.8202 0.0915
C8 C 0.2180(3) 0.6455(2) 0.05684(5)
H13 H 0.3333 0.5839 0.0527
C9 C -0.0780(3) 0.6059(2) 0.08390(5)
C10 C 0.0156(3) 0.7285(2) 0.10443(5)
H14 H 0.0007 0.7141 0.1303
H15 H -0.0408 0.8229 0.0978
C11 C 0.2016(4) 0.6888(4) -0.00591(6)
H16 H 0.3185 0.6323 -0.0094
H17 H 0.1970 0.7674 -0.0233
H18 H 0.0903 0.6259 -0.0090
O1 O 0.0436(2) 0.55518(15) 0.05814(4)
O2 O 0.2002(2) 0.74989(18) 0.03002(4)
O3 O -0.2379(2) 0.5535(2) 0.08762(4)
N1 N 0.3425(2) 0.62764(17) 0.11792(4)
H19 H 0.3882 0.5438 0.1110
loop_
_geom_bond_atom_site_label_1
_geom_bond_atom_site_label_2
_geom_bond_site_symmetry_1
_geom_bond_site_symmetry_2
C1 H1 1_555 1_555
C2 C1 1_555 1_555
H2 C2 1_555 1_555
H3 C2 1_555 1_555
C3 C1 1_555 1_555
H4 C3 1_555 1_555
H5 C3 1_555 1_555
C4 C2 1_555 1_555
H6 C4 1_555 1_555
H7 C4 1_555 1_555
C5 C4 1_555 1_555
H8 C5 1_555 1_555
H9 C5 1_555 1_555
C6 C3 1_555 1_555
H10 C6 1_555 1_555
H11 C6 1_555 1_555
C7 H12 1_555 1_555
C8 C7 1_555 1_555
H13 C8 1_555 1_555
C9 C10 1_555 1_555
C10 C7 1_555 1_555
H14 C10 1_555 1_555
H15 C10 1_555 1_555
C11 H16 1_555 1_555
H17 C11 1_555 1_555
H18 C11 1_555 1_555
O1 C8 1_555 1_555
O2 C8 1_555 1_555
O3 C9 1_555 1_555
N1 C1 1_555 1_555
H19 N1 1_555 1_555
C5 C6 1_555 1_555
C7 N1 1_555 1_555
C9 O1 1_555 1_555
C11 O2 1_555 1_555

#END
