
#######################################################################
#
#                 Cambridge Crystallographic Data Centre
#                                CCDC 
#
#######################################################################
#
# If this CIF has been generated from an entry in the Cambridge 
# Structural Database, then it will include bibliographic, chemical, 
# crystal, experimental, refinement or atomic coordinate data resulting 
# from the CCDC's data processing and validation procedures.
#
#######################################################################

data_VOPNOF
_chemical_formula_moiety         'C34 H28 S8,2(C6 H5 Cl1),2(C70)'
_chemical_name_systematic        
'2-(4,5-bis((4-methylphenyl)sulfanyl)-1,3-dithiol-2-ylidene)-4,5-bis((4-methylphenyl)sulfanyl)-1,3-dithiole bis(C70fullerene) chlorobenzene solvate'
_symmetry_cell_setting           monoclinic
_symmetry_space_group_name_H-M   'P 21/c'
_symmetry_Int_Tables_number      14
_space_group_name_Hall           '-P 2ybc'
loop_
_symmetry_equiv_pos_site_id
_symmetry_equiv_pos_as_xyz
1 x,y,z
2 -x,1/2+y,1/2-z
3 -x,-y,-z
4 x,1/2-y,1/2+z
_cell_length_a                   21.5671(18)
_cell_length_b                   21.3847(17)
_cell_length_c                   45.525(4)
_cell_angle_alpha                90
_cell_angle_beta                 90.3070(10)
_cell_angle_gamma                90
_cell_volume                     20996.1
_exptl_crystal_colour            black
_exptl_crystal_description       platelet
_chemical_melting_point          '495 K'
_cell_formula_units_Z            8
_exptl_crystal_recrystallization_method chlorobenzene
loop_
_atom_site_label
_atom_site_type_symbol
_atom_site_fract_x
_atom_site_fract_y
_atom_site_fract_z
C1 C 0.52050(16) 0.23145(17) 0.76285(8)
C2 C 0.52120(16) 0.23303(17) 0.73341(8)
C3 C 0.47947(17) 0.23289(18) 0.81589(8)
C4 C 0.52427(17) 0.18962(19) 0.81613(8)
C5 C 0.47750(17) 0.23767(18) 0.68057(8)
C6 C 0.52173(17) 0.19373(18) 0.67993(8)
C7 C 0.45363(19) 0.3235(2) 0.85615(8)
C8 C 0.51571(19) 0.3402(2) 0.85635(8)
H1 H 0.5454 0.3128 0.8491
C9 C 0.5331(2) 0.3981(2) 0.86754(9)
H2 H 0.5747 0.4096 0.8672
C10 C 0.4900(2) 0.4394(2) 0.87928(9)
C11 C 0.4282(2) 0.4220(2) 0.87846(10)
H3 H 0.3985 0.4493 0.8858
C12 C 0.4093(2) 0.3648(2) 0.86693(9)
H4 H 0.3675 0.3542 0.8664
C13 C 0.5107(2) 0.5004(2) 0.89250(10)
H5 H 0.5549 0.5040 0.8910
H6 H 0.4989 0.5018 0.9128
H7 H 0.4913 0.5344 0.8821
C14 C 0.61662(17) 0.14798(19) 0.85368(8)
C15 C 0.64994(19) 0.2014(2) 0.84771(8)
H8 H 0.6320 0.2340 0.8371
C16 C 0.71076(19) 0.2059(2) 0.85768(8)
H9 H 0.7339 0.2411 0.8528
C17 C 0.73796(18) 0.1594(2) 0.87477(8)
C18 C 0.70357(19) 0.1059(2) 0.88012(8)
H10 H 0.7212 0.0739 0.8912
C19 C 0.64393(18) 0.0990(2) 0.86949(8)
H11 H 0.6221 0.0622 0.8728
C20 C 0.8033(2) 0.1665(3) 0.88665(10)
H12 H 0.8197 0.2062 0.8808
H13 H 0.8288 0.1336 0.8790
H14 H 0.8026 0.1640 0.9077
C21 C 0.45101(19) 0.32991(19) 0.64108(8)
C22 C 0.5133(2) 0.3459(2) 0.64209(9)
H15 H 0.5421 0.3184 0.6502
C23 C 0.5325(2) 0.4029(2) 0.63101(9)
H16 H 0.5743 0.4136 0.6320
C24 C 0.4907(2) 0.4446(2) 0.61847(9)
C25 C 0.4288(2) 0.4275(2) 0.61738(10)
H17 H 0.4001 0.4546 0.6089
C26 C 0.4084(2) 0.3705(2) 0.62879(9)
H18 H 0.3666 0.3600 0.6281
C27 C 0.5131(3) 0.5053(2) 0.60571(10)
H19 H 0.5571 0.5087 0.6085
H20 H 0.4928 0.5395 0.6154
H21 H 0.5037 0.5065 0.5851
C28 C 0.61229(17) 0.15736(19) 0.64052(8)
C29 C 0.64304(18) 0.21328(19) 0.64613(9)
H22 H 0.6241 0.2443 0.6572
C30 C 0.70207(19) 0.2225(2) 0.63514(9)
H23 H 0.7227 0.2597 0.6393
C31 C 0.73107(19) 0.1780(2) 0.61819(9)
C32 C 0.70004(18) 0.1220(2) 0.61300(9)
H24 H 0.7189 0.0912 0.6017
C33 C 0.64197(18) 0.11133(19) 0.62433(8)
H25 H 0.6225 0.0731 0.6211
C34 C 0.7946(2) 0.1895(3) 0.60521(11)
H26 H 0.8072 0.1535 0.5942
H27 H 0.8239 0.1971 0.6208
H28 H 0.7929 0.2253 0.5925
S1 S 0.46925(4) 0.27700(5) 0.78370(2)
S2 S 0.56834(4) 0.18165(5) 0.78375(2)
S3 S 0.47069(4) 0.28124(5) 0.71329(2)
S4 S 0.56770(4) 0.18435(5) 0.71185(2)
S5 S 0.42820(5) 0.24779(5) 0.84492(2)
S6 S 0.53689(5) 0.13665(5) 0.84471(2)
S7 S 0.42460(5) 0.25461(5) 0.65231(2)
S8 S 0.53407(5) 0.14234(5) 0.65058(2)
C35 C 0.01493(17) 0.26474(17) 0.26371(8)
C36 C 0.01697(16) 0.26634(17) 0.23429(8)
C37 C 0.01597(19) 0.30446(19) 0.31727(8)
C38 C -0.02944(18) 0.26102(18) 0.31610(8)
C39 C 0.02398(17) 0.31168(19) 0.18193(8)
C40 C -0.02059(17) 0.26809(18) 0.18048(8)
C41 C 0.10739(18) 0.34084(19) 0.35648(8)
C42 C 0.1380(2) 0.2848(2) 0.35138(9)
H29 H 0.1186 0.2530 0.3408
C43 C 0.1978(2) 0.2763(2) 0.36215(9)
H30 H 0.2182 0.2389 0.3584
C44 C 0.2280(2) 0.3222(2) 0.37840(9)
C45 C 0.19685(19) 0.3781(2) 0.38293(9)
H31 H 0.2163 0.4097 0.3936
C46 C 0.13770(19) 0.3881(2) 0.37207(8)
H32 H 0.1181 0.4263 0.3751
C47 C 0.2919(2) 0.3112(3) 0.39046(12)
H33 H 0.3056 0.2700 0.3850
H34 H 0.2912 0.3146 0.4115
H35 H 0.3199 0.3417 0.3826
C48 C -0.05550(19) 0.17047(19) 0.35663(8)
C49 C 0.0058(2) 0.1523(2) 0.35507(9)
H36 H 0.0346 0.1779 0.3459
C50 C 0.0244(2) 0.0957(2) 0.36716(8)
H37 H 0.0657 0.0835 0.3656
C51 C -0.0172(2) 0.0570(2) 0.38158(8)
C52 C -0.0786(2) 0.0753(2) 0.38261(9)
H38 H -0.1074 0.0496 0.3918
C53 C -0.0985(2) 0.1313(2) 0.37015(9)
H39 H -0.1401 0.1426 0.3708
C54 C 0.0053(2) -0.0024(2) 0.39597(9)
H40 H 0.0491 -0.0069 0.3928
H41 H -0.0160 -0.0376 0.3876
H42 H -0.0027 -0.0007 0.4167
C55 C 0.11615(17) 0.35477(19) 0.14527(8)
C56 C 0.14929(18) 0.30066(19) 0.15125(8)
H43 H 0.1312 0.2688 0.1621
C57 C 0.20963(18) 0.2941(2) 0.14094(8)
H44 H 0.2320 0.2583 0.1456
C58 C 0.23715(18) 0.3400(2) 0.12384(8)
C59 C 0.20292(18) 0.3944(2) 0.11809(8)
H45 H 0.2204 0.4260 0.1068
C60 C 0.14394(18) 0.40192(19) 0.12890(8)
H46 H 0.1225 0.4388 0.1252
C61 C 0.3008(2) 0.3311(3) 0.11140(10)
H47 H 0.3122 0.3675 0.1003
H48 H 0.3010 0.2951 0.0988
H49 H 0.3300 0.3251 0.1271
C62 C -0.04278(19) 0.17705(19) 0.14055(8)
C63 C 0.01901(19) 0.1604(2) 0.14192(8)
H50 H 0.0480 0.1885 0.1494
C64 C 0.0381(2) 0.1021(2) 0.13227(8)
H51 H 0.0798 0.0914 0.1336
C65 C -0.0042(2) 0.0593(2) 0.12060(8)
C66 C -0.0661(2) 0.0766(2) 0.11944(9)
H52 H -0.0951 0.0488 0.1118
C67 C -0.0859(2) 0.1346(2) 0.12945(9)
H53 H -0.1277 0.1451 0.1287
C68 C 0.0177(3) -0.0028(2) 0.10900(10)
H54 H 0.0617 -0.0062 0.1117
H55 H 0.0078 -0.0059 0.0885
H56 H -0.0026 -0.0360 0.1194
S9 S 0.06203(4) 0.31308(5) 0.28581(2)
S10 S -0.03776(4) 0.21852(5) 0.28344(2)
S11 S 0.06620(4) 0.31717(5) 0.21515(2)
S12 S -0.03232(4) 0.22160(5) 0.21199(2)
S13 S 0.02856(5) 0.35537(5) 0.34691(2)
S14 S -0.08236(5) 0.24480(5) 0.34431(2)
S15 S 0.03730(5) 0.36700(5) 0.15448(2)
S16 S -0.06891(5) 0.25303(5) 0.15028(2)
C69 C 0.0705(2) 0.0649(2) 0.49924(11)
C70 C 0.0586(2) 0.0815(2) 0.46878(11)
C71 C -0.0070(2) 0.0970(2) 0.46605(11)
C72 C -0.0352(2) 0.0905(2) 0.49421(11)
C73 C 0.0126(2) 0.0717(2) 0.51479(11)
C74 C 0.1265(2) 0.0829(2) 0.51253(10)
C75 C 0.1717(2) 0.1170(2) 0.49611(10)
C76 C 0.19957(19) 0.1629(2) 0.51555(10)
C77 C 0.17124(19) 0.1568(2) 0.54410(9)
C78 C 0.1253(2) 0.1070(2) 0.54245(10)
C79 C 0.21378(17) 0.2219(2) 0.50494(10)
C80 C 0.20162(18) 0.2377(2) 0.47450(10)
C81 C 0.18178(19) 0.3022(2) 0.47314(10)
C82 C 0.18121(18) 0.3269(2) 0.50258(10)
C83 C 0.20079(17) 0.2768(2) 0.52207(10)
C84 C 0.0123(2) 0.0950(2) 0.54303(10)
C85 C 0.0700(2) 0.1132(2) 0.55742(10)
C86 C 0.0569(2) 0.1685(2) 0.57425(9)
C87 C -0.0084(2) 0.1837(2) 0.57100(9)
C88 C -0.0357(2) 0.1388(2) 0.55174(10)
C89 C 0.1017(2) 0.1146(2) 0.45339(9)
C90 C 0.0827(2) 0.1645(2) 0.43368(9)
C91 C 0.1272(2) 0.2132(2) 0.43535(9)
C92 C 0.17503(19) 0.1941(2) 0.45603(9)
C93 C 0.1599(2) 0.1325(2) 0.46694(10)
C94 C 0.10024(19) 0.2159(2) 0.57603(8)
C95 C 0.08046(19) 0.2801(2) 0.57439(8)
C96 C 0.12563(19) 0.3146(2) 0.55790(9)
C97 C 0.17371(18) 0.2712(2) 0.54927(9)
C98 C 0.15847(19) 0.2102(2) 0.56074(9)
C99 C -0.13857(18) 0.3128(2) 0.51954(9)
C100 C -0.10097(18) 0.3202(2) 0.54577(9)
C101 C -0.08608(19) 0.2586(2) 0.55706(9)
C102 C -0.11352(19) 0.2131(2) 0.53782(9)
C103 C -0.14567(17) 0.2466(2) 0.51458(10)
C104 C -0.13138(18) 0.3533(2) 0.49594(9)
C105 C -0.0857(2) 0.4035(2) 0.49760(10)
C106 C -0.0570(2) 0.4093(2) 0.46919(10)
C107 C -0.0852(2) 0.3634(2) 0.44967(9)
C108 C -0.13105(18) 0.3287(2) 0.46635(9)
C109 C 0.0057(2) 0.4216(2) 0.46720(10)
C110 C 0.0429(2) 0.42853(19) 0.49362(11)
C111 C 0.1031(2) 0.4012(2) 0.48820(11)
C112 C 0.1038(2) 0.3771(2) 0.45914(11)
C113 C 0.0439(2) 0.3890(2) 0.44601(10)
C114 C -0.0498(2) 0.4097(2) 0.52293(10)
C115 C -0.0576(2) 0.3670(2) 0.54743(9)
C116 C 0.00273(19) 0.3553(2) 0.56016(9)
C117 C 0.0475(2) 0.3893(2) 0.54393(9)
C118 C 0.0159(2) 0.42263(19) 0.52088(10)
C119 C 0.0173(2) 0.3452(2) 0.42757(9)
C120 C -0.0484(2) 0.3320(2) 0.42916(9)
C121 C -0.0557(2) 0.2660(2) 0.42455(8)
C122 C 0.0044(2) 0.2386(2) 0.41962(8)
C123 C 0.0493(2) 0.2880(2) 0.42132(9)
C124 C -0.09957(19) 0.2328(2) 0.44044(9)
C125 C -0.13782(18) 0.2653(2) 0.46163(9)
C126 C -0.14554(17) 0.2232(2) 0.48633(10)
C127 C -0.11275(19) 0.1660(2) 0.48014(10)
C128 C -0.08495(19) 0.1720(2) 0.45199(9)
C129 C 0.0185(2) 0.1771(2) 0.42885(9)
C130 C -0.0272(2) 0.1424(2) 0.44548(9)
C131 C -0.08459(19) 0.1301(2) 0.50261(11)
C132 C -0.08492(19) 0.1549(2) 0.53269(10)
C133 C -0.0292(2) 0.2465(2) 0.57158(8)
C134 C 0.01664(19) 0.2969(2) 0.57326(8)
C135 C 0.10839(19) 0.36589(19) 0.53992(10)
C136 C 0.13734(19) 0.3720(2) 0.51133(10)
C137 C 0.1384(2) 0.3233(2) 0.45173(10)
C138 C 0.1100(2) 0.2763(2) 0.43221(9)
C139 C 0.71397(18) 0.2227(2) 0.99300(10)
C140 C 0.70242(18) 0.2392(2) 1.02336(10)
C141 C 0.68249(19) 0.3035(2) 1.02432(10)
C142 C 0.68101(19) 0.3274(2) 0.99512(11)
C143 C 0.69992(18) 0.2772(2) 0.97559(10)
C144 C 0.69963(19) 0.1633(2) 0.98246(9)
C145 C 0.6725(2) 0.1176(2) 1.00224(10)
C146 C 0.6260(2) 0.0828(2) 0.98592(11)
C147 C 0.6249(2) 0.1067(2) 0.95613(10)
C148 C 0.6701(2) 0.1565(2) 0.95409(9)
C149 C 0.6618(2) 0.1338(2) 1.03145(10)
C150 C 0.67706(19) 0.1950(2) 1.04192(9)
C151 C 0.6300(2) 0.2145(2) 1.06269(9)
C152 C 0.5854(2) 0.1657(2) 1.06477(9)
C153 C 0.6041(2) 0.1153(2) 1.04528(10)
C154 C 0.5603(2) 0.0820(2) 1.02985(11)
C155 C 0.4951(2) 0.0974(2) 1.03305(11)
C156 C 0.4661(2) 0.0904(2) 1.00508(11)
C157 C 0.5135(2) 0.0712(2) 0.98416(12)
C158 C 0.5715(2) 0.0650(2) 0.99973(11)
C159 C 0.5121(2) 0.0943(2) 0.95615(11)
C160 C 0.4631(2) 0.1370(2) 0.94685(10)
C161 C 0.4897(2) 0.1818(2) 0.92760(9)
C162 C 0.5548(2) 0.1673(2) 0.92423(9)
C163 C 0.5684(2) 0.1125(2) 0.94155(10)
C164 C 0.5977(2) 0.2147(2) 0.92231(9)
C165 C 0.65686(19) 0.2095(2) 0.93746(9)
C166 C 0.67185(19) 0.2709(2) 0.94846(9)
C167 C 0.62316(19) 0.3135(2) 0.93955(9)
C168 C 0.57747(19) 0.2787(2) 0.92370(8)
C169 C 0.5062(2) 0.4218(2) 1.03035(11)
C170 C 0.5446(2) 0.3899(2) 1.05166(11)
C171 C 0.6047(2) 0.3780(2) 1.03823(11)
C172 C 0.6030(2) 0.4013(2) 1.00904(11)
C173 C 0.5420(2) 0.42872(19) 1.00380(11)
C174 C 0.4433(2) 0.4093(2) 1.02882(10)
C175 C 0.4163(2) 0.3636(2) 1.04835(9)
C176 C 0.36965(19) 0.3286(2) 1.03213(9)
C177 C 0.36868(19) 0.3530(2) 1.00230(10)
C178 C 0.4137(2) 0.4024(2) 1.00014(10)
C179 C 0.36351(18) 0.2647(2) 1.03709(9)
C180 C 0.40255(19) 0.2333(2) 1.05817(9)
C181 C 0.4175(2) 0.1723(2) 1.04702(10)
C182 C 0.38858(19) 0.1653(2) 1.01879(10)
C183 C 0.35537(18) 0.2223(2) 1.01241(10)
C184 C 0.4463(2) 0.2670(2) 1.07376(8)
C185 C 0.5077(2) 0.2404(2) 1.07883(8)
C186 C 0.5519(2) 0.2892(2) 1.07678(8)
C187 C 0.5190(2) 0.3468(2) 1.07037(9)
C188 C 0.4537(2) 0.3331(2) 1.06871(9)
C189 C 0.4489(2) 0.4089(2) 0.97473(10)
C190 C 0.5145(2) 0.4219(2) 0.97677(11)
C191 C 0.5450(2) 0.3881(2) 0.95345(10)
C192 C 0.5000(2) 0.3535(2) 0.93743(9)
C193 C 0.4402(2) 0.3664(2) 0.95079(9)
C194 C 0.36016(18) 0.3111(2) 0.97890(9)
C195 C 0.35393(18) 0.2454(2) 0.98411(10)
C196 C 0.38533(19) 0.2118(2) 0.96100(9)
C197 C 0.41193(19) 0.2570(2) 0.94159(9)
C198 C 0.39694(19) 0.3182(2) 0.95257(9)
C199 C 0.4142(2) 0.1535(2) 0.96623(10)
C200 C 0.4161(2) 0.1291(2) 0.99650(11)
C201 C 0.4753(2) 0.1432(2) 1.05335(10)
C202 C 0.5219(2) 0.1784(2) 1.06975(9)
C203 C 0.6125(2) 0.2779(2) 1.06553(9)
C204 C 0.6399(2) 0.3239(2) 1.04582(10)
C205 C 0.6368(2) 0.3721(2) 0.98616(11)
C206 C 0.6067(2) 0.3650(2) 0.95740(10)
C207 C 0.5139(2) 0.2947(2) 0.92467(8)
C208 C 0.4684(2) 0.2445(2) 0.92674(8)
C209 C 0.3644(2) 0.3743(2) 0.29297(11)
C210 C 0.4223(2) 0.3943(2) 0.27980(11)
C211 C 0.4382(2) 0.4533(3) 0.29298(12)
C212 C 0.3911(2) 0.4700(2) 0.31448(10)
C213 C 0.3451(2) 0.4205(2) 0.31433(10)
C214 C 0.3202(2) 0.3444(2) 0.27580(11)
C215 C 0.3310(3) 0.3339(2) 0.24492(12)
C216 C 0.2729(2) 0.3435(2) 0.22984(11)
C217 C 0.2262(2) 0.3594(2) 0.25115(10)
C218 C 0.2551(2) 0.3590(2) 0.27928(11)
C219 C 0.2715(3) 0.3711(2) 0.20225(11)
C220 C 0.2246(2) 0.4162(2) 0.19591(10)
C221 C 0.2523(2) 0.4645(3) 0.17802(9)
C222 C 0.3159(3) 0.4491(2) 0.17401(10)
C223 C 0.3292(3) 0.3918(2) 0.18912(11)
C224 C 0.3605(2) 0.4968(3) 0.17418(9)
C225 C 0.3404(2) 0.5603(2) 0.17804(9)
C226 C 0.3869(2) 0.5919(2) 0.19592(10)
C227 C 0.4339(2) 0.5467(2) 0.20264(10)
C228 C 0.4179(2) 0.4875(3) 0.18890(11)
C229 C 0.4308(2) 0.4320(3) 0.20399(12)
C230 C 0.3846(3) 0.3823(2) 0.20360(12)
C231 C 0.3864(2) 0.3537(2) 0.23245(12)
C232 C 0.4323(2) 0.3837(2) 0.25007(12)
C233 C 0.4603(2) 0.4334(3) 0.23223(12)
C234 C 0.47571(19) 0.4892(3) 0.24510(12)
C235 C 0.4622(2) 0.5473(3) 0.22987(11)
C236 C 0.4439(2) 0.5936(2) 0.25135(10)
C237 C 0.4450(2) 0.5640(3) 0.27942(11)
C238 C 0.46410(19) 0.5011(3) 0.27577(11)
C239 C 0.1474(2) 0.4887(2) 0.21214(11)
C240 C 0.1740(2) 0.5364(3) 0.19449(10)
C241 C 0.1597(2) 0.5972(3) 0.20797(11)
C242 C 0.1238(2) 0.5858(3) 0.23386(13)
C243 C 0.11589(18) 0.5183(3) 0.23631(11)
C244 C 0.2038(2) 0.6443(2) 0.20814(11)
C245 C 0.2638(2) 0.6335(2) 0.19464(10)
C246 C 0.3097(2) 0.6648(2) 0.21195(10)
C247 C 0.2789(2) 0.6940(2) 0.23680(11)
C248 C 0.2123(2) 0.6822(2) 0.23371(11)
C249 C 0.1324(2) 0.6215(2) 0.25881(12)
C250 C 0.1779(2) 0.6709(2) 0.25872(12)
C251 C 0.2081(3) 0.6723(2) 0.28758(12)
C252 C 0.1793(3) 0.6230(3) 0.30500(12)
C253 C 0.1329(2) 0.5917(3) 0.28755(12)
C254 C 0.2702(3) 0.6839(2) 0.29011(11)
C255 C 0.3060(2) 0.6948(2) 0.26403(11)
C256 C 0.3666(2) 0.6660(2) 0.26815(11)
C257 C 0.3680(2) 0.6369(2) 0.29591(10)
C258 C 0.3082(3) 0.6480(2) 0.30972(11)
C259 C 0.1258(2) 0.5276(3) 0.28982(12)
C260 C 0.1169(2) 0.4912(3) 0.26411(12)
C261 C 0.1500(2) 0.4319(2) 0.26747(11)
C262 C 0.1787(2) 0.4329(2) 0.29655(10)
C263 C 0.1637(2) 0.4922(3) 0.30995(11)
C264 C 0.2088(2) 0.5221(2) 0.32682(10)
C265 C 0.2162(3) 0.5888(2) 0.32462(10)
C266 C 0.2817(2) 0.6003(3) 0.32641(10)
C267 C 0.3142(2) 0.5428(2) 0.33075(9)
C268 C 0.2683(2) 0.4934(2) 0.33074(9)
C269 C 0.3738(2) 0.5325(3) 0.31941(10)
C270 C 0.4013(2) 0.5819(2) 0.30209(10)
C271 C 0.3999(2) 0.6416(2) 0.24440(10)
C272 C 0.3705(2) 0.6402(2) 0.21513(10)
C273 C 0.2777(2) 0.5776(2) 0.17961(9)
C274 C 0.2303(2) 0.5274(2) 0.17941(9)
C275 C 0.1760(2) 0.4301(2) 0.21485(10)
C276 C 0.1770(2) 0.4003(2) 0.24454(11)
C277 C 0.2347(2) 0.4016(2) 0.30204(9)
C278 C 0.2820(2) 0.4330(2) 0.31980(10)
C279 C 0.2765(2) 0.4699(3) 0.67361(11)
C280 C 0.2241(3) 0.5117(3) 0.67223(10)
C281 C 0.1679(2) 0.4740(4) 0.67296(10)
C282 C 0.1883(3) 0.4095(3) 0.67464(12)
C283 C 0.2540(3) 0.4069(3) 0.67396(12)
C284 C 0.1548(3) 0.3669(4) 0.69095(15)
C285 C 0.1025(2) 0.3884(3) 0.70720(14)
C286 C 0.1004(3) 0.3567(3) 0.73494(14)
C287 C 0.1546(3) 0.3145(3) 0.73551(16)
C288 C 0.1869(3) 0.3213(3) 0.70855(15)
C289 C 0.1848(3) 0.3049(2) 0.76151(15)
C290 C 0.1646(3) 0.3370(3) 0.78805(15)
C291 C 0.2188(3) 0.3532(3) 0.80417(13)
C292 C 0.2738(3) 0.3320(3) 0.78775(16)
C293 C 0.2529(3) 0.3018(2) 0.76125(18)
C294 C 0.3280(3) 0.3691(3) 0.78734(16)
C295 C 0.3297(3) 0.4291(4) 0.80245(13)
C296 C 0.3635(2) 0.4715(3) 0.78518(12)
C297 C 0.3822(2) 0.4401(3) 0.75822(14)
C298 C 0.3604(2) 0.3753(3) 0.75954(14)
C299 C 0.3824(2) 0.4704(3) 0.73244(12)
C300 C 0.3630(2) 0.5352(3) 0.73068(12)
C301 C 0.3302(2) 0.5450(3) 0.70391(11)
C302 C 0.3299(2) 0.4844(3) 0.68865(11)
C303 C 0.3608(2) 0.4397(3) 0.70580(12)
C304 C 0.3401(3) 0.3796(3) 0.70713(13)
C305 C 0.3395(3) 0.3466(3) 0.73481(16)
C306 C 0.2838(3) 0.3088(3) 0.73525(17)
C307 C 0.2509(3) 0.3183(3) 0.70815(17)
C308 C 0.2854(3) 0.3614(3) 0.69088(15)
C309 C 0.0382(2) 0.5476(3) 0.76627(13)
C310 C 0.04000(19) 0.4871(3) 0.77884(11)
C311 C 0.0438(2) 0.4413(3) 0.75547(12)
C312 C 0.0441(2) 0.4733(3) 0.72820(12)
C313 C 0.0409(2) 0.5414(3) 0.73487(12)
C314 C 0.0696(3) 0.5985(3) 0.77987(14)
C315 C 0.1018(3) 0.5885(3) 0.80680(14)
C316 C 0.1570(3) 0.6256(3) 0.80613(15)
C317 C 0.1597(3) 0.6589(3) 0.77892(15)
C318 C 0.1025(3) 0.6411(3) 0.76206(16)
C319 C 0.2138(3) 0.6669(2) 0.76435(15)
C320 C 0.2701(3) 0.6420(3) 0.77613(13)
C321 C 0.3078(2) 0.6200(2) 0.75193(11)
C322 C 0.2751(2) 0.6308(2) 0.72544(12)
C323 C 0.2171(3) 0.6591(2) 0.73247(14)
C324 C 0.1638(3) 0.6429(3) 0.71658(16)
C325 C 0.1065(3) 0.6355(3) 0.73200(15)
C326 C 0.0745(2) 0.5817(3) 0.71731(15)
C327 C 0.1121(3) 0.5594(4) 0.69418(13)
C328 C 0.1689(3) 0.5981(3) 0.69320(12)
C329 C 0.2699(3) 0.6111(3) 0.80240(12)
C330 C 0.3078(3) 0.5569(3) 0.80594(11)
C331 C 0.2719(3) 0.5124(4) 0.82427(11)
C332 C 0.2146(3) 0.5410(4) 0.83055(12)
C333 C 0.2117(3) 0.6019(4) 0.81777(13)
C334 C 0.1042(2) 0.5293(3) 0.81901(11)
C335 C 0.0721(2) 0.4765(3) 0.80489(11)
C336 C 0.1085(2) 0.4219(3) 0.80839(12)
C337 C 0.1651(3) 0.4410(3) 0.82570(10)
C338 C 0.1607(3) 0.5046(3) 0.83142(10)
C339 C 0.2214(3) 0.4094(3) 0.82129(12)
C340 C 0.2788(3) 0.4482(3) 0.82066(11)
C341 C 0.3481(2) 0.5368(3) 0.78445(12)
C342 C 0.3484(2) 0.5687(3) 0.75625(12)
C343 C 0.2815(2) 0.5885(2) 0.70140(10)
C344 C 0.2246(3) 0.5708(3) 0.68467(11)
C345 C 0.1141(3) 0.4957(4) 0.68636(11)
C346 C 0.0785(2) 0.4512(3) 0.70428(11)
C347 C 0.0771(2) 0.3850(3) 0.75920(13)
C348 C 0.1107(3) 0.3750(3) 0.78813(13)
C349 C 0.24091(19) 0.4474(2) 0.91910(9)
C350 C 0.18895(19) 0.4838(2) 0.91494(10)
H57 H 0.1617 0.4753 0.8996
C351 C 0.1776(2) 0.5330(2) 0.93370(12)
H58 H 0.1422 0.5572 0.9311
C352 C 0.2177(3) 0.5465(3) 0.95601(13)
H59 H 0.2098 0.5802 0.9683
C353 C 0.2699(3) 0.5106(3) 0.96040(11)
H60 H 0.2968 0.5197 0.9758
C354 C 0.2826(2) 0.4598(2) 0.94155(11)
H61 H 0.3180 0.4355 0.9441
Cl1 Cl 0.25261(8) 0.38337(7) 0.89656(3)
C355 C 0.23536(19) 0.4134(2) 0.58360(9)
C356 C 0.2740(2) 0.4169(2) 0.55983(11)
H62 H 0.3034 0.3859 0.5564
C357 C 0.2683(2) 0.4676(3) 0.54099(12)
H63 H 0.2939 0.4706 0.5247
C358 C 0.2258(3) 0.5127(2) 0.54617(12)
H64 H 0.2225 0.5466 0.5335
C359 C 0.1876(2) 0.5088(2) 0.56994(12)
H65 H 0.1583 0.5399 0.5732
C360 C 0.1924(2) 0.4590(2) 0.58908(10)
H66 H 0.1669 0.4565 0.6054
Cl2 Cl 0.23936(7) 0.34854(6) 0.60656(3)
C361 C 0.2571(2) 0.5535(2) 0.42041(9)
C362 C 0.3072(2) 0.5174(2) 0.41450(10)
H67 H 0.3332 0.5274 0.3990
C363 C 0.3192(2) 0.4654(2) 0.43179(11)
H68 H 0.3536 0.4404 0.4280
C364 C 0.2805(3) 0.4509(2) 0.45450(12)
H69 H 0.2887 0.4161 0.4662
C365 C 0.2299(2) 0.4873(3) 0.46007(11)
H70 H 0.2037 0.4767 0.4754
C366 C 0.2169(2) 0.5397(2) 0.44326(10)
H71 H 0.1826 0.5647 0.4471
Cl3 Cl 0.24483(7) 0.62109(6) 0.39978(3)
C367 C 0.26979(18) 0.58371(19) 0.08637(8)
C368 C 0.2287(2) 0.5842(2) 0.06322(10)
H72 H 0.2000 0.6163 0.0612
C369 C 0.2307(2) 0.5361(3) 0.04301(11)
H73 H 0.2031 0.5360 0.0272
C370 C 0.2729(3) 0.4886(2) 0.04592(11)
H74 H 0.2742 0.4566 0.0321
C371 C 0.3135(2) 0.4887(2) 0.06944(12)
H75 H 0.3422 0.4565 0.0715
C372 C 0.3118(2) 0.5364(2) 0.09014(10)
H76 H 0.3386 0.5361 0.1062
Cl4 Cl 0.26978(6) 0.64556(6) 0.11127(2)
loop_
_geom_bond_atom_site_label_1
_geom_bond_atom_site_label_2
_geom_bond_site_symmetry_1
_geom_bond_site_symmetry_2
C1 C2 1_555 1_555
C2 S3 1_555 1_555
C3 C4 1_555 1_555
C4 S2 1_555 1_555
C5 C6 1_555 1_555
C6 S4 1_555 1_555
C7 C8 1_555 1_555
C8 H1 1_555 1_555
C9 C8 1_555 1_555
H2 C9 1_555 1_555
C10 C9 1_555 1_555
C11 C10 1_555 1_555
H3 C11 1_555 1_555
C12 C7 1_555 1_555
H4 C12 1_555 1_555
C13 C10 1_555 1_555
H5 C13 1_555 1_555
H6 C13 1_555 1_555
H7 C13 1_555 1_555
C14 C15 1_555 1_555
C15 H8 1_555 1_555
C16 C15 1_555 1_555
H9 C16 1_555 1_555
C17 C16 1_555 1_555
C18 C17 1_555 1_555
H10 C18 1_555 1_555
C19 C14 1_555 1_555
H11 C19 1_555 1_555
C20 C17 1_555 1_555
H12 C20 1_555 1_555
H13 C20 1_555 1_555
H14 C20 1_555 1_555
C21 C22 1_555 1_555
C22 H15 1_555 1_555
C23 C22 1_555 1_555
H16 C23 1_555 1_555
C24 C23 1_555 1_555
C25 C24 1_555 1_555
H17 C25 1_555 1_555
C26 C21 1_555 1_555
H18 C26 1_555 1_555
C27 C24 1_555 1_555
H19 C27 1_555 1_555
H20 C27 1_555 1_555
H21 C27 1_555 1_555
C28 C29 1_555 1_555
C29 H22 1_555 1_555
C30 C29 1_555 1_555
H23 C30 1_555 1_555
C31 C30 1_555 1_555
C32 C31 1_555 1_555
H24 C32 1_555 1_555
C33 C28 1_555 1_555
H25 C33 1_555 1_555
C34 C31 1_555 1_555
H26 C34 1_555 1_555
H27 C34 1_555 1_555
H28 C34 1_555 1_555
S1 C1 1_555 1_555
S2 C1 1_555 1_555
S3 C5 1_555 1_555
S4 C2 1_555 1_555
S5 C3 1_555 1_555
S6 C4 1_555 1_555
S7 C5 1_555 1_555
S8 C6 1_555 1_555
C35 C36 1_555 1_555
C36 S11 1_555 1_555
C37 C38 1_555 1_555
C38 S10 1_555 1_555
C39 C40 1_555 1_555
C40 S12 1_555 1_555
C41 C42 1_555 1_555
C42 H29 1_555 1_555
C43 C42 1_555 1_555
H30 C43 1_555 1_555
C44 C43 1_555 1_555
C45 C44 1_555 1_555
H31 C45 1_555 1_555
C46 C41 1_555 1_555
H32 C46 1_555 1_555
C47 C44 1_555 1_555
H33 C47 1_555 1_555
H34 C47 1_555 1_555
H35 C47 1_555 1_555
C48 C49 1_555 1_555
C49 H36 1_555 1_555
C50 C49 1_555 1_555
H37 C50 1_555 1_555
C51 C50 1_555 1_555
C52 C51 1_555 1_555
H38 C52 1_555 1_555
C53 C48 1_555 1_555
H39 C53 1_555 1_555
C54 C51 1_555 1_555
H40 C54 1_555 1_555
H41 C54 1_555 1_555
H42 C54 1_555 1_555
C55 C56 1_555 1_555
C56 H43 1_555 1_555
C57 C56 1_555 1_555
H44 C57 1_555 1_555
C58 C57 1_555 1_555
C59 C58 1_555 1_555
H45 C59 1_555 1_555
C60 C55 1_555 1_555
H46 C60 1_555 1_555
C61 C58 1_555 1_555
H47 C61 1_555 1_555
H48 C61 1_555 1_555
H49 C61 1_555 1_555
C62 C63 1_555 1_555
C63 H50 1_555 1_555
C64 C63 1_555 1_555
H51 C64 1_555 1_555
C65 C64 1_555 1_555
C66 C65 1_555 1_555
H52 C66 1_555 1_555
C67 C62 1_555 1_555
H53 C67 1_555 1_555
C68 C65 1_555 1_555
H54 C68 1_555 1_555
H55 C68 1_555 1_555
H56 C68 1_555 1_555
S9 C35 1_555 1_555
S10 C35 1_555 1_555
S11 C39 1_555 1_555
S12 C36 1_555 1_555
S13 C37 1_555 1_555
S14 C38 1_555 1_555
S15 C39 1_555 1_555
S16 C40 1_555 1_555
C69 C70 1_555 1_555
C70 C71 1_555 1_555
C71 C72 1_555 1_555
C72 C73 1_555 1_555
C73 C69 1_555 1_555
C74 C69 1_555 1_555
C75 C74 1_555 1_555
C76 C75 1_555 1_555
C77 C76 1_555 1_555
C78 C74 1_555 1_555
C79 C76 1_555 1_555
C80 C79 1_555 1_555
C81 C80 1_555 1_555
C82 C81 1_555 1_555
C83 C79 1_555 1_555
C84 C73 1_555 1_555
C85 C78 1_555 1_555
C86 C85 1_555 1_555
C87 C86 1_555 1_555
C88 C84 1_555 1_555
C89 C70 1_555 1_555
C90 C89 1_555 1_555
C91 C90 1_555 1_555
C92 C80 1_555 1_555
C93 C75 1_555 1_555
C94 C86 1_555 1_555
C95 C94 1_555 1_555
C96 C95 1_555 1_555
C97 C83 1_555 1_555
C98 C77 1_555 1_555
C99 C100 1_555 1_555
C100 C101 1_555 1_555
C101 C102 1_555 1_555
C102 C103 1_555 1_555
C103 C99 1_555 1_555
C104 C99 1_555 1_555
C105 C104 1_555 1_555
C106 C105 1_555 1_555
C107 C106 1_555 1_555
C108 C104 1_555 1_555
C109 C106 1_555 1_555
C110 C109 1_555 1_555
C111 C110 1_555 1_555
C112 C111 1_555 1_555
C113 C109 1_555 1_555
C114 C105 1_555 1_555
C115 C100 1_555 1_555
C116 C115 1_555 1_555
C117 C116 1_555 1_555
C118 C110 1_555 1_555
C119 C113 1_555 1_555
C120 C107 1_555 1_555
C121 C120 1_555 1_555
C122 C121 1_555 1_555
C123 C119 1_555 1_555
C124 C121 1_555 1_555
C125 C108 1_555 1_555
C126 C103 1_555 1_555
C127 C126 1_555 1_555
C128 C124 1_555 1_555
C129 C90 1_555 1_555
C130 C71 1_555 1_555
C131 C72 1_555 1_555
C132 C88 1_555 1_555
C133 C87 1_555 1_555
C134 C95 1_555 1_555
C135 C96 1_555 1_555
C136 C82 1_555 1_555
C137 C81 1_555 1_555
C138 C91 1_555 1_555
C139 C140 1_555 1_555
C140 C141 1_555 1_555
C141 C142 1_555 1_555
C142 C143 1_555 1_555
C143 C139 1_555 1_555
C144 C139 1_555 1_555
C145 C144 1_555 1_555
C146 C145 1_555 1_555
C147 C146 1_555 1_555
C148 C144 1_555 1_555
C149 C145 1_555 1_555
C150 C140 1_555 1_555
C151 C150 1_555 1_555
C152 C151 1_555 1_555
C153 C149 1_555 1_555
C154 C153 1_555 1_555
C155 C154 1_555 1_555
C156 C155 1_555 1_555
C157 C156 1_555 1_555
C158 C146 1_555 1_555
C159 C157 1_555 1_555
C160 C159 1_555 1_555
C161 C160 1_555 1_555
C162 C161 1_555 1_555
C163 C147 1_555 1_555
C164 C162 1_555 1_555
C165 C148 1_555 1_555
C166 C143 1_555 1_555
C167 C166 1_555 1_555
C168 C164 1_555 1_555
C169 C170 1_555 1_555
C170 C171 1_555 1_555
C171 C172 1_555 1_555
C172 C173 1_555 1_555
C173 C169 1_555 1_555
C174 C169 1_555 1_555
C175 C174 1_555 1_555
C176 C175 1_555 1_555
C177 C176 1_555 1_555
C178 C174 1_555 1_555
C179 C176 1_555 1_555
C180 C179 1_555 1_555
C181 C180 1_555 1_555
C182 C181 1_555 1_555
C183 C179 1_555 1_555
C184 C180 1_555 1_555
C185 C184 1_555 1_555
C186 C185 1_555 1_555
C187 C170 1_555 1_555
C188 C175 1_555 1_555
C189 C178 1_555 1_555
C190 C173 1_555 1_555
C191 C190 1_555 1_555
C192 C191 1_555 1_555
C193 C189 1_555 1_555
C194 C177 1_555 1_555
C195 C183 1_555 1_555
C196 C195 1_555 1_555
C197 C196 1_555 1_555
C198 C193 1_555 1_555
C199 C160 1_555 1_555
C200 C156 1_555 1_555
C201 C155 1_555 1_555
C202 C152 1_555 1_555
C203 C151 1_555 1_555
C204 C141 1_555 1_555
C205 C142 1_555 1_555
C206 C167 1_555 1_555
C207 C168 1_555 1_555
C208 C161 1_555 1_555
C209 C210 1_555 1_555
C210 C211 1_555 1_555
C211 C212 1_555 1_555
C212 C213 1_555 1_555
C213 C209 1_555 1_555
C214 C209 1_555 1_555
C215 C214 1_555 1_555
C216 C215 1_555 1_555
C217 C216 1_555 1_555
C218 C214 1_555 1_555
C219 C216 1_555 1_555
C220 C219 1_555 1_555
C221 C220 1_555 1_555
C222 C221 1_555 1_555
C223 C219 1_555 1_555
C224 C222 1_555 1_555
C225 C224 1_555 1_555
C226 C225 1_555 1_555
C227 C226 1_555 1_555
C228 C224 1_555 1_555
C229 C228 1_555 1_555
C230 C223 1_555 1_555
C231 C215 1_555 1_555
C232 C210 1_555 1_555
C233 C229 1_555 1_555
C234 C233 1_555 1_555
C235 C227 1_555 1_555
C236 C235 1_555 1_555
C237 C236 1_555 1_555
C238 C211 1_555 1_555
C239 C240 1_555 1_555
C240 C241 1_555 1_555
C241 C242 1_555 1_555
C242 C243 1_555 1_555
C243 C239 1_555 1_555
C244 C241 1_555 1_555
C245 C244 1_555 1_555
C246 C245 1_555 1_555
C247 C246 1_555 1_555
C248 C244 1_555 1_555
C249 C242 1_555 1_555
C250 C248 1_555 1_555
C251 C250 1_555 1_555
C252 C251 1_555 1_555
C253 C249 1_555 1_555
C254 C251 1_555 1_555
C255 C247 1_555 1_555
C256 C255 1_555 1_555
C257 C256 1_555 1_555
C258 C254 1_555 1_555
C259 C253 1_555 1_555
C260 C243 1_555 1_555
C261 C260 1_555 1_555
C262 C261 1_555 1_555
C263 C259 1_555 1_555
C264 C263 1_555 1_555
C265 C252 1_555 1_555
C266 C258 1_555 1_555
C267 C266 1_555 1_555
C268 C264 1_555 1_555
C269 C212 1_555 1_555
C270 C237 1_555 1_555
C271 C236 1_555 1_555
C272 C226 1_555 1_555
C273 C225 1_555 1_555
C274 C221 1_555 1_555
C275 C220 1_555 1_555
C276 C217 1_555 1_555
C277 C218 1_555 1_555
C278 C213 1_555 1_555
C279 C280 1_555 1_555
C280 C281 1_555 1_555
C281 C282 1_555 1_555
C282 C283 1_555 1_555
C283 C279 1_555 1_555
C284 C282 1_555 1_555
C285 C284 1_555 1_555
C286 C285 1_555 1_555
C287 C286 1_555 1_555
C288 C284 1_555 1_555
C289 C287 1_555 1_555
C290 C289 1_555 1_555
C291 C290 1_555 1_555
C292 C291 1_555 1_555
C293 C289 1_555 1_555
C294 C292 1_555 1_555
C295 C294 1_555 1_555
C296 C295 1_555 1_555
C297 C296 1_555 1_555
C298 C294 1_555 1_555
C299 C297 1_555 1_555
C300 C299 1_555 1_555
C301 C300 1_555 1_555
C302 C279 1_555 1_555
C303 C299 1_555 1_555
C304 C303 1_555 1_555
C305 C298 1_555 1_555
C306 C293 1_555 1_555
C307 C288 1_555 1_555
C308 C283 1_555 1_555
C309 C310 1_555 1_555
C310 C311 1_555 1_555
C311 C312 1_555 1_555
C312 C313 1_555 1_555
C313 C309 1_555 1_555
C314 C309 1_555 1_555
C315 C314 1_555 1_555
C316 C315 1_555 1_555
C317 C316 1_555 1_555
C318 C314 1_555 1_555
C319 C317 1_555 1_555
C320 C319 1_555 1_555
C321 C320 1_555 1_555
C322 C321 1_555 1_555
C323 C319 1_555 1_555
C324 C323 1_555 1_555
C325 C318 1_555 1_555
C326 C313 1_555 1_555
C327 C326 1_555 1_555
C328 C324 1_555 1_555
C329 C320 1_555 1_555
C330 C329 1_555 1_555
C331 C330 1_555 1_555
C332 C331 1_555 1_555
C333 C316 1_555 1_555
C334 C315 1_555 1_555
C335 C310 1_555 1_555
C336 C335 1_555 1_555
C337 C336 1_555 1_555
C338 C332 1_555 1_555
C339 C291 1_555 1_555
C340 C295 1_555 1_555
C341 C296 1_555 1_555
C342 C300 1_555 1_555
C343 C301 1_555 1_555
C344 C280 1_555 1_555
C345 C281 1_555 1_555
C346 C285 1_555 1_555
C347 C286 1_555 1_555
C348 C290 1_555 1_555
C349 C350 1_555 1_555
C350 H57 1_555 1_555
C351 C350 1_555 1_555
H58 C351 1_555 1_555
C352 C351 1_555 1_555
H59 C352 1_555 1_555
C353 C352 1_555 1_555
H60 C353 1_555 1_555
C354 C349 1_555 1_555
H61 C354 1_555 1_555
Cl1 C349 1_555 1_555
C355 C356 1_555 1_555
C356 H62 1_555 1_555
C357 C356 1_555 1_555
H63 C357 1_555 1_555
C358 C357 1_555 1_555
H64 C358 1_555 1_555
C359 C358 1_555 1_555
H65 C359 1_555 1_555
C360 C355 1_555 1_555
H66 C360 1_555 1_555
Cl2 C355 1_555 1_555
C361 C362 1_555 1_555
C362 H67 1_555 1_555
C363 C362 1_555 1_555
H68 C363 1_555 1_555
C364 C363 1_555 1_555
H69 C364 1_555 1_555
C365 C364 1_555 1_555
H70 C365 1_555 1_555
C366 C361 1_555 1_555
H71 C366 1_555 1_555
Cl3 C361 1_555 1_555
C367 C368 1_555 1_555
C368 H72 1_555 1_555
C369 C368 1_555 1_555
H73 C369 1_555 1_555
C370 C369 1_555 1_555
H74 C370 1_555 1_555
C371 C370 1_555 1_555
H75 C371 1_555 1_555
C372 C367 1_555 1_555
H76 C372 1_555 1_555
Cl4 C367 1_555 1_555
C3 S1 1_555 1_555
C7 S5 1_555 1_555
C11 C12 1_555 1_555
C14 S6 1_555 1_555
C18 C19 1_555 1_555
C21 S7 1_555 1_555
C25 C26 1_555 1_555
C28 S8 1_555 1_555
C32 C33 1_555 1_555
C37 S9 1_555 1_555
C41 S13 1_555 1_555
C45 C46 1_555 1_555
C48 S14 1_555 1_555
C52 C53 1_555 1_555
C55 S15 1_555 1_555
C59 C60 1_555 1_555
C62 S16 1_555 1_555
C66 C67 1_555 1_555
C77 C78 1_555 1_555
C82 C83 1_555 1_555
C84 C85 1_555 1_555
C87 C88 1_555 1_555
C89 C93 1_555 1_555
C91 C92 1_555 1_555
C92 C93 1_555 1_555
C94 C98 1_555 1_555
C96 C97 1_555 1_555
C97 C98 1_555 1_555
C101 C133 1_555 1_555
C102 C132 1_555 1_555
C107 C108 1_555 1_555
C111 C136 1_555 1_555
C112 C113 1_555 1_555
C112 C137 1_555 1_555
C114 C115 1_555 1_555
C114 C118 1_555 1_555
C116 C134 1_555 1_555
C117 C118 1_555 1_555
C117 C135 1_555 1_555
C119 C120 1_555 1_555
C122 C123 1_555 1_555
C122 C129 1_555 1_555
C123 C138 1_555 1_555
C124 C125 1_555 1_555
C125 C126 1_555 1_555
C127 C128 1_555 1_555
C127 C131 1_555 1_555
C128 C130 1_555 1_555
C129 C130 1_555 1_555
C131 C132 1_555 1_555
C133 C134 1_555 1_555
C135 C136 1_555 1_555
C137 C138 1_555 1_555
C147 C148 1_555 1_555
C149 C150 1_555 1_555
C152 C153 1_555 1_555
C154 C158 1_555 1_555
C157 C158 1_555 1_555
C159 C163 1_555 1_555
C162 C163 1_555 1_555
C164 C165 1_555 1_555
C165 C166 1_555 1_555
C167 C168 1_555 1_555
C171 C204 1_555 1_555
C172 C205 1_555 1_555
C177 C178 1_555 1_555
C181 C201 1_555 1_555
C182 C183 1_555 1_555
C182 C200 1_555 1_555
C184 C188 1_555 1_555
C185 C202 1_555 1_555
C186 C187 1_555 1_555
C186 C203 1_555 1_555
C187 C188 1_555 1_555
C189 C190 1_555 1_555
C191 C206 1_555 1_555
C192 C193 1_555 1_555
C192 C207 1_555 1_555
C194 C195 1_555 1_555
C194 C198 1_555 1_555
C196 C199 1_555 1_555
C197 C198 1_555 1_555
C197 C208 1_555 1_555
C199 C200 1_555 1_555
C201 C202 1_555 1_555
C203 C204 1_555 1_555
C205 C206 1_555 1_555
C207 C208 1_555 1_555
C217 C218 1_555 1_555
C222 C223 1_555 1_555
C227 C228 1_555 1_555
C229 C230 1_555 1_555
C230 C231 1_555 1_555
C231 C232 1_555 1_555
C232 C233 1_555 1_555
C234 C235 1_555 1_555
C234 C238 1_555 1_555
C237 C238 1_555 1_555
C239 C275 1_555 1_555
C240 C274 1_555 1_555
C245 C273 1_555 1_555
C246 C272 1_555 1_555
C247 C248 1_555 1_555
C249 C250 1_555 1_555
C252 C253 1_555 1_555
C254 C255 1_555 1_555
C256 C271 1_555 1_555
C257 C258 1_555 1_555
C257 C270 1_555 1_555
C259 C260 1_555 1_555
C261 C276 1_555 1_555
C262 C263 1_555 1_555
C262 C277 1_555 1_555
C264 C265 1_555 1_555
C265 C266 1_555 1_555
C267 C268 1_555 1_555
C267 C269 1_555 1_555
C268 C278 1_555 1_555
C269 C270 1_555 1_555
C271 C272 1_555 1_555
C273 C274 1_555 1_555
C275 C276 1_555 1_555
C277 C278 1_555 1_555
C287 C288 1_555 1_555
C292 C293 1_555 1_555
C297 C298 1_555 1_555
C301 C302 1_555 1_555
C302 C303 1_555 1_555
C304 C305 1_555 1_555
C304 C308 1_555 1_555
C305 C306 1_555 1_555
C306 C307 1_555 1_555
C307 C308 1_555 1_555
C311 C347 1_555 1_555
C312 C346 1_555 1_555
C317 C318 1_555 1_555
C321 C342 1_555 1_555
C322 C323 1_555 1_555
C322 C343 1_555 1_555
C324 C325 1_555 1_555
C325 C326 1_555 1_555
C327 C328 1_555 1_555
C327 C345 1_555 1_555
C328 C344 1_555 1_555
C329 C333 1_555 1_555
C330 C341 1_555 1_555
C331 C340 1_555 1_555
C332 C333 1_555 1_555
C334 C335 1_555 1_555
C334 C338 1_555 1_555
C336 C348 1_555 1_555
C337 C338 1_555 1_555
C337 C339 1_555 1_555
C339 C340 1_555 1_555
C341 C342 1_555 1_555
C343 C344 1_555 1_555
C345 C346 1_555 1_555
C347 C348 1_555 1_555
C353 C354 1_555 1_555
C359 C360 1_555 1_555
C365 C366 1_555 1_555
C371 C372 1_555 1_555

#END
