
#######################################################################
#
#                 Cambridge Crystallographic Data Centre
#                                CCDC 
#
#######################################################################
#
# If this CIF has been generated from an entry in the Cambridge 
# Structural Database, then it will include bibliographic, chemical, 
# crystal, experimental, refinement or atomic coordinate data resulting 
# from the CCDC's data processing and validation procedures.
#
#######################################################################

data_VOQGEP
_chemical_formula_moiety         'C17 H12 S2 Si1'
_chemical_name_systematic        
11-Methyl-11H-[1]benzothieno[2',3':4,5]silolo[3,2-b][1]benzothiophene
_symmetry_cell_setting           orthorhombic
_symmetry_space_group_name_H-M   'C m c 21'
_symmetry_Int_Tables_number      36
_space_group_name_Hall           'C 2n -2'
loop_
_symmetry_equiv_pos_site_id
_symmetry_equiv_pos_as_xyz
1 x,y,z
2 -x,-y,1/2+z
3 x,-y,1/2+z
4 -x,y,z
5 1/2+x,1/2+y,z
6 1/2-x,1/2-y,1/2+z
7 1/2+x,1/2-y,1/2+z
8 1/2-x,1/2+y,z
_cell_length_a                   15.5429(17)
_cell_length_b                   13.1602(15)
_cell_length_c                   7.4458(9)
_cell_angle_alpha                90
_cell_angle_beta                 90
_cell_angle_gamma                90
_cell_volume                     1523.02
_cell_formula_units_Z            4
loop_
_atom_site_label
_atom_site_type_symbol
_atom_site_fract_x
_atom_site_fract_y
_atom_site_fract_z
Si1 Si 0.5000 0.25658(6) -0.0831(2)
S1 S 0.38312(4) -0.00229(6) 0.16030(16)
C1 C 0.45286(15) 0.08985(18) 0.0832(4)
C2 C 0.25825(17) 0.22913(19) -0.0530(4)
H1 H 0.2738 0.2900 -0.1078
C3 C 0.41371(16) 0.17238(18) 0.0068(4)
C4 C 0.29544(16) 0.07002(19) 0.0906(4)
C5 C 0.20884(18) 0.0445(2) 0.1100(5)
H2 H 0.1924 -0.0163 0.1634
C6 C 0.17206(19) 0.2037(2) -0.0340(5)
H3 H 0.1298 0.2478 -0.0758
C7 C 0.32183(16) 0.16272(18) 0.0107(4)
C8 C 0.14842(19) 0.1124(2) 0.0473(5)
H4 H 0.0903 0.0970 0.0596
C9 C 0.5000 0.3880(3) -0.0007(12)
S1C S 0.61688(4) -0.00229(6) 0.16030(16)
C1C C 0.54714(15) 0.08985(18) 0.0832(4)
C2C C 0.74175(17) 0.22913(19) -0.0530(4)
H1C H 0.7262 0.2900 -0.1078
C3C C 0.58629(16) 0.17238(18) 0.0068(4)
C4C C 0.70456(16) 0.07002(19) 0.0906(4)
C5C C 0.79116(18) 0.0445(2) 0.1100(5)
H2C H 0.8076 -0.0163 0.1634
C6C C 0.82794(19) 0.2037(2) -0.0340(5)
H3C H 0.8702 0.2478 -0.0758
C7C C 0.67817(16) 0.16272(18) 0.0107(4)
C8C C 0.85158(19) 0.1124(2) 0.0473(5)
H4C H 0.9097 0.0970 0.0596
H5? H 0.5528 0.4207 -0.0347
H6? H 0.4949 0.3880 0.1278
H7? H 0.4523 0.4242 -0.0521
loop_
_geom_bond_atom_site_label_1
_geom_bond_atom_site_label_2
_geom_bond_site_symmetry_1
_geom_bond_site_symmetry_2
Si1 C3 1_555 1_555
S1 C1 1_555 1_555
C1 C3 1_555 1_555
C2 H1 1_555 1_555
C3 C7 1_555 1_555
C4 S1 1_555 1_555
C5 C4 1_555 1_555
H2 C5 1_555 1_555
C6 C2 1_555 1_555
H3 C6 1_555 1_555
C7 C2 1_555 1_555
C8 C5 1_555 1_555
H4 C8 1_555 1_555
C9 Si1 1_555 1_555
S1C C1C 1_555 1_555
C1C C1 1_555 1_555
C2C H1C 1_555 1_555
C3C Si1 1_555 1_555
C4C S1C 1_555 1_555
C5C C4C 1_555 1_555
H2C C5C 1_555 1_555
C6C C2C 1_555 1_555
H3C C6C 1_555 1_555
C7C C2C 1_555 1_555
C8C C5C 1_555 1_555
H4C C8C 1_555 1_555
C4 C7 1_555 1_555
C6 C8 1_555 1_555
C1C C3C 1_555 1_555
C3C C7C 1_555 1_555
C4C C7C 1_555 1_555
C6C C8C 1_555 1_555

#END
