
#######################################################################
#
#                 Cambridge Crystallographic Data Centre
#                                CCDC 
#
#######################################################################
#
# If this CIF has been generated from an entry in the Cambridge 
# Structural Database, then it will include bibliographic, chemical, 
# crystal, experimental, refinement or atomic coordinate data resulting 
# from the CCDC's data processing and validation procedures.
#
#######################################################################

data_VOQLET
_chemical_formula_moiety         'C20 H19 Cl2 N1 O1'
_chemical_name_systematic        
2,4-bis(3-Chlorophenyl)-3-azabicyclo[3.3.1]nonan-9-one
_symmetry_cell_setting           orthorhombic
_symmetry_space_group_name_H-M   'P 21 21 21'
_symmetry_Int_Tables_number      19
_space_group_name_Hall           'P 2ac 2ab'
loop_
_symmetry_equiv_pos_site_id
_symmetry_equiv_pos_as_xyz
1 x,y,z
2 1/2-x,-y,1/2+z
3 -x,1/2+y,1/2-z
4 1/2+x,1/2-y,-z
_cell_length_a                   6.9950(14)
_cell_length_b                   12.180(2)
_cell_length_c                   20.770(4)
_cell_angle_alpha                90
_cell_angle_beta                 90
_cell_angle_gamma                90
_cell_volume                     1769.59
_exptl_crystal_colour            colorless
_exptl_crystal_description       block
_cell_formula_units_Z            4
_exptl_crystal_recrystallization_method ethanol
loop_
_atom_site_label
_atom_site_type_symbol
_atom_site_fract_x
_atom_site_fract_y
_atom_site_fract_z
C1 C 0.1155(3) 0.91094(15) 0.96470(9)
H1 H 0.0839 0.8690 1.0035
C2 C -0.0754(3) 0.94712(17) 0.93253(10)
H2 H -0.1483 0.9910 0.9635
C3 C -0.0574(3) 1.01301(18) 0.86920(11)
H3 H -0.1829 1.0398 0.8571
H4 H 0.0236 1.0763 0.8768
C4 C 0.0248(4) 0.94740(18) 0.81344(10)
H5 H 0.0035 0.9874 0.7737
H6 H 0.1617 0.9400 0.8193
C5 C -0.0633(3) 0.83391(19) 0.80751(10)
H7 H 0.0141 0.7906 0.7782
H8 H -0.1894 0.8411 0.7886
C6 C -0.0815(3) 0.77124(16) 0.87165(10)
H9 H -0.1583 0.7050 0.8646
C7 C 0.1088(3) 0.73829(16) 0.90524(9)
H10 H 0.0767 0.7017 0.9459
C8 C -0.1852(3) 0.84501(17) 0.91799(9)
C9 C 0.2390(3) 1.00628(15) 0.98456(9)
C10 C 0.3661(3) 1.05578(17) 0.94271(10)
H11 H 0.3780 1.0292 0.9009
C11 C 0.4763(4) 1.14476(18) 0.96219(12)
H12 H 0.5609 1.1773 0.9334
C12 C 0.4608(3) 1.18510(18) 1.02405(11)
H13 H 0.5330 1.2452 1.0372
C13 C 0.3367(3) 1.13481(15) 1.06568(10)
C14 C 0.2249(3) 1.04678(16) 1.04695(9)
H14 H 0.1404 1.0148 1.0760
C15 C 0.2255(3) 0.65933(15) 0.86531(10)
C16 C 0.2048(3) 0.54727(17) 0.87560(12)
H15 H 0.1230 0.5222 0.9077
C17 C 0.3056(4) 0.47232(18) 0.83825(15)
H16 H 0.2895 0.3975 0.8453
C18 C 0.4283(4) 0.5073(2) 0.79115(13)
H17 H 0.4961 0.4570 0.7664
C19 C 0.4494(3) 0.61781(19) 0.78124(12)
C20 C 0.3510(3) 0.69381(17) 0.81787(10)
H18 H 0.3692 0.7684 0.8106
Cl1 Cl 0.32230(11) 1.18133(5) 1.14500(3)
Cl2 Cl 0.60281(11) 0.66335(6) 0.72080(3)
N1 N 0.2172(3) 0.83753(13) 0.92051(8)
O1 O -0.3405(2) 0.82264(14) 0.94107(7)
H19 H 0.324(3) 0.8184(15) 0.9342(9)
loop_
_geom_bond_atom_site_label_1
_geom_bond_atom_site_label_2
_geom_bond_site_symmetry_1
_geom_bond_site_symmetry_2
C1 H1 1_555 1_555
C2 C1 1_555 1_555
H2 C2 1_555 1_555
C3 C2 1_555 1_555
H3 C3 1_555 1_555
H4 C3 1_555 1_555
C4 C3 1_555 1_555
H5 C4 1_555 1_555
H6 C4 1_555 1_555
C5 C4 1_555 1_555
H7 C5 1_555 1_555
H8 C5 1_555 1_555
C6 C5 1_555 1_555
H9 C6 1_555 1_555
C7 C6 1_555 1_555
H10 C7 1_555 1_555
C8 C2 1_555 1_555
C9 C1 1_555 1_555
C10 C9 1_555 1_555
H11 C10 1_555 1_555
C11 C10 1_555 1_555
H12 C11 1_555 1_555
C12 C11 1_555 1_555
H13 C12 1_555 1_555
C13 C12 1_555 1_555
C14 C9 1_555 1_555
H14 C14 1_555 1_555
C15 C7 1_555 1_555
C16 C15 1_555 1_555
H15 C16 1_555 1_555
C17 C16 1_555 1_555
H16 C17 1_555 1_555
C18 C17 1_555 1_555
H17 C18 1_555 1_555
C19 C18 1_555 1_555
C20 C15 1_555 1_555
H18 C20 1_555 1_555
Cl1 C13 1_555 1_555
Cl2 C19 1_555 1_555
N1 C1 1_555 1_555
O1 C8 1_555 1_555
H19 N1 1_555 1_555
C6 C8 1_555 1_555
C7 N1 1_555 1_555
C13 C14 1_555 1_555
C19 C20 1_555 1_555

#END
