
#######################################################################
#
#                 Cambridge Crystallographic Data Centre
#                                CCDC 
#
#######################################################################
#
# If this CIF has been generated from an entry in the Cambridge 
# Structural Database, then it will include bibliographic, chemical, 
# crystal, experimental, refinement or atomic coordinate data resulting 
# from the CCDC's data processing and validation procedures.
#
#######################################################################

data_VOQNAR
_chemical_formula_moiety         'C18 H21 N2 O1 1+,Cl1 1-'
_chemical_name_systematic        
'(2R,5S)-5-Benzyl-2,3-dimethyl-4-oxo-2-phenylimidazolidin-1-ium chloride'
_symmetry_cell_setting           monoclinic
_symmetry_space_group_name_H-M   'P 21'
_symmetry_Int_Tables_number      4
_space_group_name_Hall           'P 2yb'
loop_
_symmetry_equiv_pos_site_id
_symmetry_equiv_pos_as_xyz
1 x,y,z
2 -x,1/2+y,-z
_cell_length_a                   10.5797(11)
_cell_length_b                   7.5876(7)
_cell_length_c                   10.8741(12)
_cell_angle_alpha                90
_cell_angle_beta                 105.516(3)
_cell_angle_gamma                90
_cell_volume                     841.101
_exptl_crystal_colour            colorless
_exptl_crystal_description       needle
_cell_formula_units_Z            2
_exptl_crystal_recrystallization_method methanol
loop_
_atom_site_label
_atom_site_type_symbol
_atom_site_fract_x
_atom_site_fract_y
_atom_site_fract_z
Cl1 Cl 0.93865(4) 0.37096(8) 0.38333(4)
O1 O 0.55546(12) 0.94486(19) 0.53994(12)
N1 N 0.66144(12) 0.93555(17) 0.38197(12)
N2 N 0.80291(11) 0.70805(17) 0.45120(12)
C1 C 0.70374(14) 0.7044(2) 0.52767(14)
C2 C 0.63026(12) 0.8761(2) 0.48651(13)
C3 C 0.73966(14) 0.8101(2) 0.33039(14)
C4 C 0.6042(2) 1.0933(2) 0.3114(2)
C5 C 0.84477(16) 0.9014(2) 0.28214(17)
C6 C 0.65243(14) 0.6841(2) 0.23338(14)
C7 C 0.70586(18) 0.5811(2) 0.15399(17)
C8 C 0.6288(2) 0.4612(2) 0.07068(18)
C9 C 0.4987(2) 0.4414(2) 0.06476(19)
C10 C 0.44421(19) 0.5420(2) 0.14153(19)
C11 C 0.51948(16) 0.6636(2) 0.22594(16)
C12 C 0.76199(17) 0.6939(2) 0.67155(14)
C13 C 0.80340(14) 0.5137(2) 0.72774(17)
C14 C 0.8565(2) 0.4999(2) 0.8593(2)
C15 C 0.8969(2) 0.3397(3) 0.9158(2)
C16 C 0.8867(2) 0.1899(3) 0.8436(2)
C17 C 0.8346(2) 0.2009(2) 0.7136(2)
C18 C 0.79285(17) 0.3619(2) 0.65706(18)
H1 H 0.6438 0.6050 0.4996
H2 H 0.7941 0.5929 0.1569
H3 H 0.6658 0.3932 0.0182
H4 H 0.4478 0.3602 0.0089
H5 H 0.3557 0.5289 0.1373
H6 H 0.4811 0.7314 0.2775
H7 H 0.8647 0.6005 0.9097
H8 H 0.9314 0.3332 1.0038
H9 H 0.9148 0.0821 0.8819
H10 H 0.8274 0.1001 0.6636
H11 H 0.7568 0.3672 0.5692
H12 H 0.5471 1.1496 0.3547
H13 H 0.5549 1.0606 0.2269
H14 H 0.6729 1.1732 0.3063
H15 H 0.8041 0.9742 0.2103
H16 H 0.8988 0.8145 0.2568
H17 H 0.8980 0.9732 0.3489
H18 H 0.6969 0.7390 0.7115
H19 H 0.8388 0.7692 0.6932
H20 H 0.8213 0.6026 0.4327
H21 H 0.8734 0.7600 0.4934
loop_
_geom_bond_atom_site_label_1
_geom_bond_atom_site_label_2
_geom_bond_site_symmetry_1
_geom_bond_site_symmetry_2
O1 C2 1_555 1_555
N1 C2 1_555 1_555
N2 C1 1_555 1_555
C1 C2 1_555 1_555
C3 N1 1_555 1_555
C4 N1 1_555 1_555
C5 C3 1_555 1_555
C6 C3 1_555 1_555
C7 C6 1_555 1_555
C8 C7 1_555 1_555
C9 C8 1_555 1_555
C10 C9 1_555 1_555
C11 C6 1_555 1_555
C12 C1 1_555 1_555
C13 C12 1_555 1_555
C14 C13 1_555 1_555
C15 C14 1_555 1_555
C16 C15 1_555 1_555
C17 C16 1_555 1_555
C18 C13 1_555 1_555
H1 C1 1_555 1_555
H2 C7 1_555 1_555
H3 C8 1_555 1_555
H4 C9 1_555 1_555
H5 C10 1_555 1_555
H6 C11 1_555 1_555
H7 C14 1_555 1_555
H8 C15 1_555 1_555
H9 C16 1_555 1_555
H10 C17 1_555 1_555
H11 C18 1_555 1_555
H12 C4 1_555 1_555
H13 C4 1_555 1_555
H14 C4 1_555 1_555
H15 C5 1_555 1_555
H16 C5 1_555 1_555
H17 C5 1_555 1_555
H18 C12 1_555 1_555
H19 C12 1_555 1_555
H20 N2 1_555 1_555
H21 N2 1_555 1_555
N2 C3 1_555 1_555
C10 C11 1_555 1_555
C17 C18 1_555 1_555

#END
