
#######################################################################
#
#                 Cambridge Crystallographic Data Centre
#                                CCDC 
#
#######################################################################
#
# If this CIF has been generated from an entry in the Cambridge 
# Structural Database, then it will include bibliographic, chemical, 
# crystal, experimental, refinement or atomic coordinate data resulting 
# from the CCDC's data processing and validation procedures.
#
#######################################################################

data_VOQQEY
_chemical_name_common            
"2,2'-(1H,1'H-2,2'-biimidazole-1,1'-diyl)diacetic acid"
_chemical_formula_moiety         'C10 H10 N4 O4'
_chemical_name_systematic        
"2,2'-(2,2'-Biimidazole-1,1'-diyl)diethanoic acid"
_symmetry_cell_setting           orthorhombic
_symmetry_space_group_name_H-M   'P b c a'
_symmetry_Int_Tables_number      61
_space_group_name_Hall           '-P 2ac 2ab'
loop_
_symmetry_equiv_pos_site_id
_symmetry_equiv_pos_as_xyz
1 x,y,z
2 1/2-x,-y,1/2+z
3 -x,1/2+y,1/2-z
4 1/2+x,1/2-y,-z
5 -x,-y,-z
6 1/2+x,y,1/2-z
7 x,1/2-y,1/2+z
8 1/2-x,1/2+y,z
_cell_length_a                   8.4327(17)
_cell_length_b                   15.116(3)
_cell_length_c                   16.702(3)
_cell_angle_alpha                90
_cell_angle_beta                 90
_cell_angle_gamma                90
_cell_volume                     2128.98
_exptl_crystal_colour            colorless
_exptl_crystal_description       prism
_cell_formula_units_Z            8
_exptl_crystal_recrystallization_method N,N-dimethylformamide
loop_
_atom_site_label
_atom_site_type_symbol
_atom_site_fract_x
_atom_site_fract_y
_atom_site_fract_z
O1 O 0.09214(10) 0.31447(5) 0.31089(5)
H1 H 0.1441 0.2674 0.2969
O2 O 0.21420(10) 0.38341(5) 0.20945(5)
O3 O 0.24120(10) 0.83984(6) 0.49664(5)
N1 N 0.11682(11) 0.68000(6) 0.44503(5)
O4 O 0.10682(10) 0.91340(5) 0.40169(5)
H2 H 0.1596 0.9575 0.4189
C1 C 0.12876(13) 0.38415(7) 0.26763(6)
N2 N 0.11865(11) 0.54801(6) 0.26858(5)
N3 N 0.23979(12) 0.67789(6) 0.26608(5)
N4 N 0.23766(12) 0.55062(6) 0.44669(6)
C2 C 0.18459(13) 0.61528(7) 0.40021(6)
C3 C 0.12794(14) 0.65457(7) 0.52369(6)
H3 H 0.0916 0.6857 0.5681
C4 C 0.14467(13) 0.84266(7) 0.44296(6)
C5 C 0.18552(13) 0.61380(7) 0.31285(6)
C6 C 0.04544(14) 0.46687(7) 0.29809(7)
H4 H -0.0647 0.4654 0.2814
H5 H 0.0477 0.4670 0.3562
C7 C 0.04736(13) 0.76275(7) 0.41703(7)
H6 H -0.0594 0.7682 0.4381
H7 H 0.0405 0.7617 0.3591
C8 C 0.13028(14) 0.57281(7) 0.18970(6)
H8 H 0.0941 0.5413 0.1455
C9 C 0.20265(14) 0.57488(8) 0.52384(7)
H9 H 0.2264 0.5419 0.5693
C10 C 0.20507(14) 0.65256(8) 0.18896(7)
H10 H 0.2291 0.6850 0.1432
loop_
_geom_bond_atom_site_label_1
_geom_bond_atom_site_label_2
_geom_bond_site_symmetry_1
_geom_bond_site_symmetry_2
O1 H1 1_555 1_555
O2 C1 1_555 1_555
O3 C4 1_555 1_555
N1 C2 1_555 1_555
O4 H2 1_555 1_555
C1 O1 1_555 1_555
N2 C5 1_555 1_555
N3 C5 1_555 1_555
N4 C2 1_555 1_555
C2 C5 1_555 1_555
C3 N1 1_555 1_555
H3 C3 1_555 1_555
C4 O4 1_555 1_555
C6 C1 1_555 1_555
H4 C6 1_555 1_555
H5 C6 1_555 1_555
C7 N1 1_555 1_555
H6 C7 1_555 1_555
H7 C7 1_555 1_555
C8 N2 1_555 1_555
H8 C8 1_555 1_555
C9 N4 1_555 1_555
H9 C9 1_555 1_555
C10 N3 1_555 1_555
H10 C10 1_555 1_555
N2 C6 1_555 1_555
C3 C9 1_555 1_555
C4 C7 1_555 1_555
C8 C10 1_555 1_555

#END
