
#######################################################################
#
#                 Cambridge Crystallographic Data Centre
#                                CCDC 
#
#######################################################################
#
# If this CIF has been generated from an entry in the Cambridge 
# Structural Database, then it will include bibliographic, chemical, 
# crystal, experimental, refinement or atomic coordinate data resulting 
# from the CCDC's data processing and validation procedures.
#
#######################################################################

data_VOQXUW
_chemical_formula_moiety         'C30 H25 Br1 N2 O5 S1'
_chemical_name_systematic        
2-(6-bromo-1-((4-methylphenyl)sulfonyl)-3-nitro-2-phenyl-1,2,3,4-tetrahydroquinolin-4-yl)-1-phenylethanone
_symmetry_cell_setting           orthorhombic
_symmetry_space_group_name_H-M   'P 21 21 21'
_symmetry_Int_Tables_number      19
_space_group_name_Hall           'P 2ac 2ab'
loop_
_symmetry_equiv_pos_site_id
_symmetry_equiv_pos_as_xyz
1 x,y,z
2 1/2-x,-y,1/2+z
3 -x,1/2+y,1/2-z
4 1/2+x,1/2-y,-z
_cell_length_a                   12.2554(7)
_cell_length_b                   13.1266(7)
_cell_length_c                   17.1232(10)
_cell_angle_alpha                90
_cell_angle_beta                 90
_cell_angle_gamma                90
_cell_volume                     2754.64
_exptl_crystal_colour            colorless
_exptl_crystal_description       Block
_cell_formula_units_Z            4
loop_
_atom_site_label
_atom_site_type_symbol
_atom_site_fract_x
_atom_site_fract_y
_atom_site_fract_z
N1 N 0.4631(2) 0.0927(2) 0.40077(18)
C1 C 0.5511(3) 0.1419(3) 0.3608(2)
C2 C 0.6339(3) 0.0838(3) 0.3264(2)
H1 H 0.6331 0.0116 0.3302
C3 C 0.7164(3) 0.1326(3) 0.2868(2)
H2 H 0.7730 0.0943 0.2630
C4 C 0.7165(3) 0.2376(3) 0.2820(2)
Br1 Br 0.82933(3) 0.30418(3) 0.22700(3)
C5 C 0.6363(3) 0.2960(3) 0.3182(2)
H3 H 0.6397 0.3682 0.3162
C6 C 0.5511(3) 0.2479(3) 0.3572(2)
C7 C 0.4584(3) 0.3006(3) 0.3988(2)
H4 H 0.3901 0.2769 0.3724
C8 C 0.4578(3) 0.2517(3) 0.47979(19)
H5 H 0.5327 0.2556 0.5027
N2 N 0.3787(3) 0.3061(3) 0.53282(18)
O1 O 0.4168(3) 0.3505(3) 0.5890(2)
O2 O 0.2828(2) 0.3054(3) 0.51546(17)
C9 C 0.4223(3) 0.1393(2) 0.4744(2)
H6 H 0.3407 0.1380 0.4724
C10 C 0.4550(3) 0.4169(3) 0.3963(2)
H7 H 0.4640 0.4385 0.3412
H8 H 0.3816 0.4391 0.4133
C11 C 0.5384(3) 0.4729(3) 0.4448(2)
O3 O 0.6137(2) 0.42774(18) 0.47529(17)
C12 C 0.5246(3) 0.5854(3) 0.4549(2)
C13 C 0.5984(3) 0.6374(3) 0.5023(2)
H9 H 0.6560 0.6016 0.5273
C14 C 0.5872(4) 0.7413(3) 0.5129(3)
H10 H 0.6377 0.7767 0.5451
C15 C 0.5036(4) 0.7942(3) 0.4772(3)
H11 H 0.4958 0.8653 0.4858
C16 C 0.4315(4) 0.7437(3) 0.4291(3)
H12 H 0.3747 0.7803 0.4038
C17 C 0.4415(3) 0.6396(3) 0.4175(2)
H13 H 0.3919 0.6051 0.3840
C18 C 0.4570(3) 0.0764(3) 0.5436(2)
C19 C 0.5659(3) 0.0598(3) 0.5604(2)
H14 H 0.6205 0.0915 0.5294
C20 C 0.5959(3) -0.0024(3) 0.6218(3)
H15 H 0.6710 -0.0137 0.6325
C21 C 0.5178(3) -0.0480(3) 0.6676(2)
H16 H 0.5386 -0.0908 0.7098
C22 C 0.4096(3) -0.0313(3) 0.6519(3)
H17 H 0.3554 -0.0622 0.6837
C23 C 0.3787(3) 0.0299(3) 0.5902(2)
H18 H 0.3035 0.0404 0.5796
S1 S 0.37262(8) 0.03068(7) 0.34755(6)
O4 O 0.4335(2) -0.0249(2) 0.29072(16)
O5 O 0.3034(2) -0.0207(2) 0.40166(16)
C24 C 0.2968(3) 0.1242(3) 0.2982(2)
C25 C 0.3405(3) 0.1688(3) 0.2326(2)
H19 H 0.4087 0.1460 0.2130
C26 C 0.2855(4) 0.2466(3) 0.1952(3)
H20 H 0.3167 0.2771 0.1501
C27 C 0.1862(3) 0.2806(3) 0.2223(3)
C28 C 0.1431(3) 0.2360(3) 0.2895(2)
H21 H 0.0750 0.2594 0.3091
C29 C 0.1973(3) 0.1583(3) 0.3283(2)
H22 H 0.1675 0.1290 0.3743
C30 C 0.1238(4) 0.3613(4) 0.1783(3)
H23 H 0.1753 0.4092 0.1543
H24 H 0.0761 0.3982 0.2146
H25 H 0.0796 0.3292 0.1375
loop_
_geom_bond_atom_site_label_1
_geom_bond_atom_site_label_2
_geom_bond_site_symmetry_1
_geom_bond_site_symmetry_2
N1 C1 1_555 1_555
C1 C2 1_555 1_555
C2 H1 1_555 1_555
C3 C2 1_555 1_555
H2 C3 1_555 1_555
C4 C3 1_555 1_555
Br1 C4 1_555 1_555
C5 C4 1_555 1_555
H3 C5 1_555 1_555
C6 C1 1_555 1_555
C7 C6 1_555 1_555
H4 C7 1_555 1_555
C8 C7 1_555 1_555
H5 C8 1_555 1_555
N2 C8 1_555 1_555
O1 N2 1_555 1_555
O2 N2 1_555 1_555
C9 N1 1_555 1_555
H6 C9 1_555 1_555
C10 C7 1_555 1_555
H7 C10 1_555 1_555
H8 C10 1_555 1_555
C11 C10 1_555 1_555
O3 C11 1_555 1_555
C12 C11 1_555 1_555
C13 C12 1_555 1_555
H9 C13 1_555 1_555
C14 C13 1_555 1_555
H10 C14 1_555 1_555
C15 C14 1_555 1_555
H11 C15 1_555 1_555
C16 C15 1_555 1_555
H12 C16 1_555 1_555
C17 C12 1_555 1_555
H13 C17 1_555 1_555
C18 C9 1_555 1_555
C19 C18 1_555 1_555
H14 C19 1_555 1_555
C20 C19 1_555 1_555
H15 C20 1_555 1_555
C21 C20 1_555 1_555
H16 C21 1_555 1_555
C22 C21 1_555 1_555
H17 C22 1_555 1_555
C23 C18 1_555 1_555
H18 C23 1_555 1_555
S1 N1 1_555 1_555
O4 S1 1_555 1_555
O5 S1 1_555 1_555
C24 S1 1_555 1_555
C25 C24 1_555 1_555
H19 C25 1_555 1_555
C26 C25 1_555 1_555
H20 C26 1_555 1_555
C27 C26 1_555 1_555
C28 C27 1_555 1_555
H21 C28 1_555 1_555
C29 C24 1_555 1_555
H22 C29 1_555 1_555
C30 C27 1_555 1_555
H23 C30 1_555 1_555
H24 C30 1_555 1_555
H25 C30 1_555 1_555
C5 C6 1_555 1_555
C8 C9 1_555 1_555
C16 C17 1_555 1_555
C22 C23 1_555 1_555
C28 C29 1_555 1_555

#END
