
#######################################################################
#
#                 Cambridge Crystallographic Data Centre
#                                CCDC 
#
#######################################################################
#
# If this CIF has been generated from an entry in the Cambridge 
# Structural Database, then it will include bibliographic, chemical, 
# crystal, experimental, refinement or atomic coordinate data resulting 
# from the CCDC's data processing and validation procedures.
#
#######################################################################

data_VOQXOP
_chemical_formula_moiety         'C14 H10 N2 O1 S1'
_chemical_name_systematic        2-[(1,3-Benzothiazol-2-yl)iminomethyl]phenol
_symmetry_cell_setting           orthorhombic
_symmetry_space_group_name_H-M   'P b c a'
_symmetry_Int_Tables_number      61
_space_group_name_Hall           '-P 2ac 2ab'
loop_
_symmetry_equiv_pos_site_id
_symmetry_equiv_pos_as_xyz
1 x,y,z
2 1/2-x,-y,1/2+z
3 -x,1/2+y,1/2-z
4 1/2+x,1/2-y,-z
5 -x,-y,-z
6 1/2+x,y,1/2-z
7 x,1/2-y,1/2+z
8 1/2-x,1/2+y,z
_cell_length_a                   12.150(2)
_cell_length_b                   8.9578(15)
_cell_length_c                   22.026(4)
_cell_angle_alpha                90
_cell_angle_beta                 90
_cell_angle_gamma                90
_cell_volume                     2397.25
_exptl_crystal_colour            yellow
_exptl_crystal_description       rod
_chemical_melting_point          '417-418 K'
_cell_formula_units_Z            8
loop_
_atom_site_label
_atom_site_type_symbol
_atom_site_fract_x
_atom_site_fract_y
_atom_site_fract_z
C1 C 0.88027(14) 0.3483(2) 0.21383(9)
C2 C 0.91856(18) 0.4419(2) 0.16848(10)
H1 H 0.9937 0.4497 0.1611
C3 C 0.8451(2) 0.5230(3) 0.13448(10)
H2 H 0.8715 0.5858 0.1042
C4 C 0.73328(19) 0.5138(2) 0.14422(9)
H3 H 0.6847 0.5691 0.1206
C5 C 0.69463(16) 0.4221(2) 0.18923(9)
H4 H 0.6192 0.4159 0.1960
C6 C 0.76636(14) 0.3374(2) 0.22515(8)
C7 C 0.72317(13) 0.2428(2) 0.27182(8)
H5 H 0.6474 0.2382 0.2773
C8 C 0.74236(14) 0.0726(2) 0.35054(8)
C9 C 0.74360(15) -0.0870(2) 0.42653(8)
C10 C 0.78616(17) -0.1805(2) 0.47105(9)
H6 H 0.8619 -0.1912 0.4753
C11 C 0.71662(19) -0.2563(3) 0.50844(10)
H7 H 0.7452 -0.3190 0.5382
C12 C 0.60333(19) -0.2410(3) 0.50247(11)
H8 H 0.5570 -0.2935 0.5284
C13 C 0.55866(18) -0.1495(3) 0.45897(10)
H9 H 0.4828 -0.1395 0.4551
C14 C 0.62954(15) -0.0724(2) 0.42097(9)
N1 N 0.80522(12) -0.00477(18) 0.38564(7)
N2 N 0.78539(11) 0.16428(17) 0.30618(7)
O1 O 0.95340(10) 0.26804(18) 0.24619(7)
H10 H 0.9210 0.2214 0.2728
S1 S 0.59914(4) 0.05133(6) 0.36285(2)
loop_
_geom_bond_atom_site_label_1
_geom_bond_atom_site_label_2
_geom_bond_site_symmetry_1
_geom_bond_site_symmetry_2
C1 C2 1_555 1_555
C2 H1 1_555 1_555
C3 C2 1_555 1_555
H2 C3 1_555 1_555
C4 C3 1_555 1_555
H3 C4 1_555 1_555
C5 C4 1_555 1_555
H4 C5 1_555 1_555
C6 C1 1_555 1_555
C7 C6 1_555 1_555
H5 C7 1_555 1_555
C8 N1 1_555 1_555
C9 C10 1_555 1_555
C10 H6 1_555 1_555
C11 C10 1_555 1_555
H7 C11 1_555 1_555
C12 C11 1_555 1_555
H8 C12 1_555 1_555
C13 C12 1_555 1_555
H9 C13 1_555 1_555
C14 C9 1_555 1_555
N1 C9 1_555 1_555
N2 C7 1_555 1_555
O1 C1 1_555 1_555
H10 O1 1_555 1_555
S1 C8 1_555 1_555
C5 C6 1_555 1_555
C8 N2 1_555 1_555
C13 C14 1_555 1_555
C14 S1 1_555 1_555

#END
