
#######################################################################
#
#                 Cambridge Crystallographic Data Centre
#                                CCDC 
#
#######################################################################
#
# If this CIF has been generated from an entry in the Cambridge 
# Structural Database, then it will include bibliographic, chemical, 
# crystal, experimental, refinement or atomic coordinate data resulting 
# from the CCDC's data processing and validation procedures.
#
#######################################################################

data_VOQZEI
_chemical_formula_moiety         'C16 H30 B20'
_chemical_name_systematic        2,2'-bis(10ortho-carboranyl)byphenyl
_symmetry_cell_setting           monoclinic
_symmetry_space_group_name_H-M   'P 21/c'
_symmetry_Int_Tables_number      14
_space_group_name_Hall           '-P 2ybc'
loop_
_symmetry_equiv_pos_site_id
_symmetry_equiv_pos_as_xyz
1 x,y,z
2 -x,1/2+y,1/2-z
3 -x,-y,-z
4 x,1/2-y,1/2+z
_cell_length_a                   13.614(4)
_cell_length_b                   8.111(2)
_cell_length_c                   22.783(6)
_cell_angle_alpha                90
_cell_angle_beta                 100.705(7)
_cell_angle_gamma                90
_cell_volume                     2471.99
_exptl_crystal_colour            colorless
_exptl_crystal_description       'rectangular prism'
_cell_formula_units_Z            4
loop_
_atom_site_label
_atom_site_type_symbol
_atom_site_fract_x
_atom_site_fract_y
_atom_site_fract_z
C1 C 0.77488(10) 0.22349(18) 0.39102(6)
C2 C 0.85952(11) 0.15727(19) 0.37306(7)
H1 H 0.8841(13) 0.202(2) 0.3389(8)
C3 C 0.91326(11) 0.0283(2) 0.40301(7)
H2 H 0.9733(13) -0.011(2) 0.3884(8)
C4 C 0.88195(11) -0.04443(19) 0.45089(7)
H3 H 0.9191(14) -0.143(2) 0.4718(8)
C5 C 0.79708(11) 0.01585(19) 0.46853(7)
H4 H 0.7720(12) -0.032(2) 0.5014(8)
C6 C 0.74389(10) 0.15117(18) 0.44086(6)
C7 C 0.65185(10) 0.19543(17) 0.46471(6)
C8 C 0.56226(11) 0.13298(19) 0.43195(7)
H5 H 0.5652(11) 0.068(2) 0.3956(7)
C9 C 0.47147(11) 0.15536(19) 0.44968(7)
H6 H 0.4102(13) 0.107(2) 0.4253(8)
C10 C 0.46957(11) 0.2366(2) 0.50246(7)
H7 H 0.4074(13) 0.253(2) 0.5179(8)
C11 C 0.55734(11) 0.29563(19) 0.53646(7)
H8 H 0.5542(12) 0.351(2) 0.5748(8)
C12 C 0.64990(10) 0.27856(18) 0.51867(6)
C13 C 0.72322(10) 0.36782(18) 0.35559(6)
C14 C 0.79318(10) 0.47812(19) 0.31744(6)
H9 H 0.8628(13) 0.444(2) 0.3225(7)
C15 C 0.74117(10) 0.35187(18) 0.55913(6)
C16 C 0.71758(11) 0.51114(19) 0.60070(6)
H10 H 0.6478(13) 0.545(2) 0.5944(8)
B1 B 0.70658(12) 0.3454(2) 0.27846(7)
H11 H 0.7320(12) 0.230(2) 0.2633(7)
B2 B 0.60350(12) 0.3610(2) 0.31515(7)
H12 H 0.5619(12) 0.255(2) 0.3183(7)
B3 B 0.63651(12) 0.4981(2) 0.37670(7)
H13 H 0.6145(12) 0.479(2) 0.4187(7)
B4 B 0.76119(12) 0.5669(2) 0.37871(7)
H14 H 0.8180(11) 0.577(2) 0.4184(7)
B5 B 0.72944(13) 0.5440(2) 0.25061(8)
H15 H 0.7717(14) 0.546(2) 0.2136(8)
B6 B 0.60500(13) 0.4748(2) 0.24857(8)
H16 H 0.5548(13) 0.439(2) 0.2078(8)
B7 B 0.56143(12) 0.5686(2) 0.30954(8)
H17 H 0.4813(13) 0.595(2) 0.3085(8)
B8 B 0.65919(12) 0.6959(2) 0.34887(8)
H18 H 0.6427(12) 0.809(2) 0.3724(7)
B9 B 0.76233(12) 0.6803(2) 0.31192(8)
H19 H 0.8221(12) 0.769(2) 0.3112(7)
B10 B 0.63921(12) 0.6825(2) 0.26940(8)
H20 H 0.6129(13) 0.785(2) 0.2405(8)
B11 B 0.74373(12) 0.3249(2) 0.63535(7)
H21 H 0.6837(12) 0.258(2) 0.6480(7)
B12 B 0.83702(12) 0.2386(2) 0.59991(7)
H22 H 0.8375(12) 0.107(2) 0.5949(8)
B13 B 0.85924(12) 0.3779(2) 0.54337(7)
H23 H 0.8754(12) 0.335(2) 0.5022(7)
B14 B 0.77882(12) 0.5500(2) 0.54327(7)
H24 H 0.7379(12) 0.606(2) 0.5047(7)
B15 B 0.79000(13) 0.5124(2) 0.67012(8)
H25 H 0.7572(13) 0.553(2) 0.7074(8)
B16 B 0.87015(13) 0.3402(2) 0.67005(8)
H26 H 0.8959(12) 0.269(2) 0.7109(7)
B17 B 0.94149(12) 0.3738(2) 0.61322(8)
H27 H 1.0166(13) 0.328(2) 0.6159(8)
B18 B 0.90517(12) 0.5659(2) 0.57802(8)
H28 H 0.9569(12) 0.642(2) 0.5579(7)
B19 B 0.81167(13) 0.6510(2) 0.61324(8)
H29 H 0.7884(12) 0.779(2) 0.6142(7)
B20 B 0.91284(13) 0.5428(2) 0.65654(8)
H30 H 0.9726(14) 0.608(2) 0.6886(8)
loop_
_geom_bond_atom_site_label_1
_geom_bond_atom_site_label_2
_geom_bond_site_symmetry_1
_geom_bond_site_symmetry_2
C1 C2 1_555 1_555
C2 H1 1_555 1_555
C3 C2 1_555 1_555
H2 C3 1_555 1_555
C4 C3 1_555 1_555
H3 C4 1_555 1_555
C5 C4 1_555 1_555
H4 C5 1_555 1_555
C6 C1 1_555 1_555
C7 C6 1_555 1_555
C8 C7 1_555 1_555
H5 C8 1_555 1_555
C9 C8 1_555 1_555
H6 C9 1_555 1_555
C10 C9 1_555 1_555
H7 C10 1_555 1_555
C11 C10 1_555 1_555
H8 C11 1_555 1_555
C12 C7 1_555 1_555
C13 C1 1_555 1_555
C14 C13 1_555 1_555
H9 C14 1_555 1_555
C15 C12 1_555 1_555
C16 C15 1_555 1_555
H10 C16 1_555 1_555
B1 C13 1_555 1_555
H11 B1 1_555 1_555
B2 C13 1_555 1_555
H12 B2 1_555 1_555
B3 C13 1_555 1_555
H13 B3 1_555 1_555
B4 C13 1_555 1_555
H14 B4 1_555 1_555
B5 C14 1_555 1_555
H15 B5 1_555 1_555
B6 B1 1_555 1_555
H16 B6 1_555 1_555
B7 B2 1_555 1_555
H17 B7 1_555 1_555
B8 B3 1_555 1_555
H18 B8 1_555 1_555
B9 C14 1_555 1_555
H19 B9 1_555 1_555
B10 B5 1_555 1_555
H20 B10 1_555 1_555
B11 C15 1_555 1_555
H21 B11 1_555 1_555
B12 C15 1_555 1_555
H22 B12 1_555 1_555
B13 C15 1_555 1_555
H23 B13 1_555 1_555
B14 C15 1_555 1_555
H24 B14 1_555 1_555
B15 C16 1_555 1_555
H25 B15 1_555 1_555
B16 B11 1_555 1_555
H26 B16 1_555 1_555
B17 B12 1_555 1_555
H27 B17 1_555 1_555
B18 B13 1_555 1_555
H28 B18 1_555 1_555
B19 C16 1_555 1_555
H29 B19 1_555 1_555
B20 B15 1_555 1_555
H30 B20 1_555 1_555
C5 C6 1_555 1_555
C11 C12 1_555 1_555
C14 B1 1_555 1_555
C14 B4 1_555 1_555
C16 B11 1_555 1_555
C16 B14 1_555 1_555
B1 B2 1_555 1_555
B1 B5 1_555 1_555
B2 B3 1_555 1_555
B2 B6 1_555 1_555
B3 B4 1_555 1_555
B3 B7 1_555 1_555
B4 B8 1_555 1_555
B4 B9 1_555 1_555
B5 B6 1_555 1_555
B5 B9 1_555 1_555
B6 B7 1_555 1_555
B6 B10 1_555 1_555
B7 B8 1_555 1_555
B7 B10 1_555 1_555
B8 B9 1_555 1_555
B8 B10 1_555 1_555
B9 B10 1_555 1_555
B11 B12 1_555 1_555
B11 B15 1_555 1_555
B12 B13 1_555 1_555
B12 B16 1_555 1_555
B13 B14 1_555 1_555
B13 B17 1_555 1_555
B14 B18 1_555 1_555
B14 B19 1_555 1_555
B15 B16 1_555 1_555
B15 B19 1_555 1_555
B16 B17 1_555 1_555
B16 B20 1_555 1_555
B17 B18 1_555 1_555
B17 B20 1_555 1_555
B18 B19 1_555 1_555
B18 B20 1_555 1_555
B19 B20 1_555 1_555

#END
