
#######################################################################
#
#                 Cambridge Crystallographic Data Centre
#                                CCDC 
#
#######################################################################
#
# If this CIF has been generated from an entry in the Cambridge 
# Structural Database, then it will include bibliographic, chemical, 
# crystal, experimental, refinement or atomic coordinate data resulting 
# from the CCDC's data processing and validation procedures.
#
#######################################################################

data_VOQZIL
_chemical_formula_moiety         'C18 H19 N1 O1 S2,H2 O1'
_chemical_name_systematic        
'1-Methyl-3,5-bis[(E)-(3-methyl-2-thienyl)methylene]piperidin-4-one monohydrate'
_symmetry_cell_setting           triclinic
_symmetry_space_group_name_H-M   'P -1'
_symmetry_Int_Tables_number      2
_space_group_name_Hall           '-P 1'
loop_
_symmetry_equiv_pos_site_id
_symmetry_equiv_pos_as_xyz
1 x,y,z
2 -x,-y,-z
_cell_length_a                   7.5781(7)
_cell_length_b                   10.9926(9)
_cell_length_c                   11.5304(10)
_cell_angle_alpha                79.531(2)
_cell_angle_beta                 83.404(2)
_cell_angle_gamma                71.673(2)
_cell_volume                     894.902
_exptl_crystal_colour            colorless
_exptl_crystal_description       prism
_chemical_melting_point          '423 K'
_cell_formula_units_Z            2
_exptl_crystal_recrystallization_method ethanol
loop_
_atom_site_label
_atom_site_type_symbol
_atom_site_fract_x
_atom_site_fract_y
_atom_site_fract_z
S1 S 0.12090(9) 0.66376(7) 0.92973(5)
S2 S 0.60928(9) 0.12751(6) 0.41757(6)
O1 O 0.1381(3) 0.60702(18) 0.46923(16)
N1 N 0.3386(3) 0.31766(17) 0.73473(15)
C1 C 0.3009(4) 0.4473(2) 0.7629(2)
C2 C 0.1977(3) 0.5506(2) 0.67020(19)
C3 C 0.2189(3) 0.5242(2) 0.54771(19)
C4 C 0.3416(3) 0.3973(2) 0.52192(19)
C5 C 0.4442(3) 0.3036(2) 0.6214(2)
C6 C 0.4415(4) 0.2222(3) 0.8279(2)
C7 C 0.0932(3) 0.6700(2) 0.6881(2)
C8 C 0.3552(3) 0.3766(2) 0.40958(19)
C9 C 0.0478(3) 0.7334(2) 0.7898(2)
C10 C -0.0590(3) 0.8610(2) 0.7893(2)
C11 C -0.0799(4) 0.8984(3) 0.9011(3)
C12 C 0.0091(4) 0.8029(3) 0.9852(3)
C13 C -0.1438(4) 0.9519(3) 0.6826(3)
C14 C 0.4595(3) 0.2700(2) 0.3507(2)
C15 C 0.4559(3) 0.2664(3) 0.2315(2)
C16 C 0.5707(4) 0.1487(3) 0.1991(2)
C17 C 0.6615(4) 0.0657(3) 0.2886(3)
C18 C 0.3477(4) 0.3754(3) 0.1436(2)
H1 H 0.41793 0.46199 0.77200
H2 H 0.22827 0.45349 0.83775
H3 H 0.46857 0.21572 0.60610
H4 H 0.56308 0.31811 0.62516
H5 H 0.55653 0.23881 0.83494
H6 H 0.46732 0.13670 0.80858
H7 H 0.36829 0.22828 0.90153
H8 H 0.03931 0.72188 0.62050
H9 H 0.28175 0.44574 0.35991
H10 H -0.14837 0.98102 0.91613
H11 H 0.00891 0.81227 1.06375
H12 H -0.05985 0.93530 0.61429
H13 H -0.16638 1.03985 0.69444
H14 H -0.25932 0.93860 0.67070
H15 H 0.58282 0.12987 0.12261
H16 H 0.74340 -0.01605 0.28108
H17 H 0.26073 0.44002 0.18485
H18 H 0.28137 0.34220 0.09710
H19 H 0.43205 0.41357 0.09267
O2 O 0.0177(4) 0.2338(3) 0.7303(2)
H20 H 0.099(5) 0.273(4) 0.734(4)
H21 H -0.046(5) 0.280(4) 0.672(3)
loop_
_geom_bond_atom_site_label_1
_geom_bond_atom_site_label_2
_geom_bond_site_symmetry_1
_geom_bond_site_symmetry_2
S1 C9 1_555 1_555
S2 C14 1_555 1_555
O1 C3 1_555 1_555
N1 C1 1_555 1_555
C1 C2 1_555 1_555
C2 C3 1_555 1_555
C3 C4 1_555 1_555
C4 C5 1_555 1_555
C5 N1 1_555 1_555
C6 N1 1_555 1_555
C7 C2 1_555 1_555
C8 C4 1_555 1_555
C9 C7 1_555 1_555
C10 C9 1_555 1_555
C11 C10 1_555 1_555
C12 S1 1_555 1_555
C13 C10 1_555 1_555
C14 C8 1_555 1_555
C15 C14 1_555 1_555
C16 C15 1_555 1_555
C17 S2 1_555 1_555
C18 C15 1_555 1_555
O2 H20 1_555 1_555
H1 C1 1_555 1_555
H2 C1 1_555 1_555
H3 C5 1_555 1_555
H4 C5 1_555 1_555
H5 C6 1_555 1_555
H6 C6 1_555 1_555
H7 C6 1_555 1_555
H8 C7 1_555 1_555
H9 C8 1_555 1_555
H10 C11 1_555 1_555
H11 C12 1_555 1_555
H12 C13 1_555 1_555
H13 C13 1_555 1_555
H14 C13 1_555 1_555
H15 C16 1_555 1_555
H16 C17 1_555 1_555
H17 C18 1_555 1_555
H18 C18 1_555 1_555
H19 C18 1_555 1_555
H21 O2 1_555 1_555
C11 C12 1_555 1_555
C16 C17 1_555 1_555

#END
