
#######################################################################
#
#                 Cambridge Crystallographic Data Centre
#                                CCDC 
#
#######################################################################
#
# If this CIF has been generated from an entry in the Cambridge 
# Structural Database, then it will include bibliographic, chemical, 
# crystal, experimental, refinement or atomic coordinate data resulting 
# from the CCDC's data processing and validation procedures.
#
#######################################################################

data_VOQZEH
_chemical_formula_moiety         'C26 H23 Cl1 N4 O2,C3 H7 N1 O1,2(H2 O1)'
_chemical_name_systematic        
"2'-Amino-1'-(4-chlorophenyl)-1,7',7'-trimethyl-2,5'-dioxo-5',6',7',8'-tetrahydrospiro[indoline-3,4'(1'H)-quinoline]-3'-carbonitrile dimethylformamide solvate dihydrate"
_symmetry_cell_setting           triclinic
_symmetry_space_group_name_H-M   'P -1'
_symmetry_Int_Tables_number      2
_space_group_name_Hall           '-P 1'
loop_
_symmetry_equiv_pos_site_id
_symmetry_equiv_pos_as_xyz
1 x,y,z
2 -x,-y,-z
_cell_length_a                   9.2370(10)
_cell_length_b                   12.9553(17)
_cell_length_c                   14.4554(11)
_cell_angle_alpha                66.162(11)
_cell_angle_beta                 71.619(12)
_cell_angle_gamma                84.595(15)
_cell_volume                     1500.45
_exptl_crystal_colour            colorless
_exptl_crystal_description       block
_chemical_melting_point          'above 573 K'
_cell_formula_units_Z            2
loop_
_atom_site_label
_atom_site_type_symbol
_atom_site_fract_x
_atom_site_fract_y
_atom_site_fract_z
Cl1 Cl 0.98120(12) 1.26623(8) -0.42483(7)
O1 O 0.7477(2) 0.47841(13) 0.12855(14)
O2 O 0.9204(2) 0.60921(17) 0.22240(15)
N1 N 0.7639(2) 0.87742(14) -0.01571(14)
N2 N 0.6913(3) 0.51570(16) 0.33166(15)
N3 N 0.5786(3) 0.79554(19) 0.35627(18)
N4 N 0.7018(2) 0.98819(15) 0.08330(15)
H5 H 0.6681 0.9967 0.1424
H6 H 0.7271 1.0464 0.0242
C1 C 0.7780(2) 0.77324(18) -0.02435(17)
C2 C 0.7457(2) 0.67493(18) 0.06225(17)
C3 C 0.6836(2) 0.66875(18) 0.17425(17)
C4 C 0.6775(2) 0.78666(18) 0.17317(17)
C5 C 0.7150(2) 0.88302(17) 0.08337(17)
C6 C 0.7733(3) 0.5680(2) 0.04972(19)
C7 C 0.8399(3) 0.5698(2) -0.0597(2)
H7 H 0.8078 0.5007 -0.0600
H8 H 0.9504 0.5711 -0.0777
C8 C 0.7935(3) 0.6698(2) -0.1438(2)
C9 C 0.8308(3) 0.7769(2) -0.13491(18)
H9 H 0.9405 0.7912 -0.1630
H10 H 0.7845 0.8399 -0.1790
C10 C 0.6231(4) 0.6592(3) -0.1279(3)
H11 H 0.6032 0.5937 -0.1380
H12 H 0.5932 0.7254 -0.1785
H13 H 0.5659 0.6519 -0.0573
C11 C 0.8872(4) 0.6759(3) -0.2544(2)
H14 H 0.9938 0.6831 -0.2636
H15 H 0.8585 0.7402 -0.3074
H16 H 0.8678 0.6083 -0.2614
C12 C 0.7833(3) 0.5956(2) 0.24294(19)
C13 C 0.5405(3) 0.52001(19) 0.32746(19)
C14 C 0.4138(4) 0.4527(2) 0.4012(2)
H17 H 0.4199 0.3940 0.4636
C15 C 0.2771(4) 0.4775(3) 0.3771(3)
H18 H 0.1900 0.4339 0.4250
C16 C 0.2652(3) 0.5628(3) 0.2865(3)
H19 H 0.1714 0.5767 0.2735
C17 C 0.3932(3) 0.6290(2) 0.2137(2)
H20 H 0.3866 0.6874 0.1512
C18 C 0.5295(3) 0.60722(18) 0.23519(18)
C19 C 0.7487(4) 0.4264(3) 0.4093(2)
H21 H 0.7541 0.3587 0.3967
H22 H 0.6814 0.4131 0.4792
H23 H 0.8487 0.4482 0.4035
C20 C 0.6241(3) 0.79382(19) 0.27326(19)
C21 C 0.8148(2) 0.97855(18) -0.11100(17)
C22 C 0.7118(3) 1.04436(19) -0.15805(19)
H24 H 0.6077 1.0277 -0.1254
C23 C 0.7629(3) 1.1353(2) -0.2540(2)
H25 H 0.6939 1.1808 -0.2863
C24 C 0.9163(3) 1.1575(2) -0.3009(2)
C25 C 1.0204(3) 1.0947(2) -0.2537(2)
H26 H 1.1243 1.1127 -0.2860
C26 C 0.9691(3) 1.0041(2) -0.1572(2)
H27 H 1.0382 0.9607 -0.1237
O3 O 0.5785(4) 0.07513(19) 0.2612(2)
N5 N 0.3930(5) 0.0797(3) 0.4056(3)
C27 C 0.4592(6) 0.0402(3) 0.3331(3)
H28 H 0.4101 -0.0214 0.3366
C28 C 0.4561(9) 0.1747(5) 0.4057(5)
H29 H 0.5649 0.1780 0.3746
H30 H 0.4322 0.1686 0.4774
H31 H 0.4141 0.2420 0.3652
C29 C 0.2537(8) 0.0312(7) 0.4884(5)
H32 H 0.2198 -0.0318 0.4806
H33 H 0.1771 0.0869 0.4839
H34 H 0.2710 0.0060 0.5562
O4 O 0.1363(4) 0.7917(2) 0.0471(2)
H1 H 0.148(5) 0.772(4) -0.002(2)
H2 H 0.076(4) 0.747(3) 0.101(2)
O5 O 0.7925(3) 0.2586(2) 0.1329(2)
H3 H 0.781(5) 0.317(2) 0.144(3)
H4 H 0.721(3) 0.214(3) 0.176(3)
loop_
_geom_bond_atom_site_label_1
_geom_bond_atom_site_label_2
_geom_bond_site_symmetry_1
_geom_bond_site_symmetry_2
Cl1 C24 1_555 1_555
O1 C6 1_555 1_555
O2 C12 1_555 1_555
O3 C27 1_555 1_555
O4 H1 1_555 1_555
H2 O4 1_555 1_555
O5 H3 1_555 1_555
H4 O5 1_555 1_555
N1 C1 1_555 1_555
N2 C12 1_555 1_555
N3 C20 1_555 1_555
N4 H5 1_555 1_555
H6 N4 1_555 1_555
N5 C27 1_555 1_555
C1 C2 1_555 1_555
C2 C3 1_555 1_555
C3 C4 1_555 1_555
C4 C5 1_555 1_555
C5 N1 1_555 1_555
C6 C2 1_555 1_555
C7 C6 1_555 1_555
H7 C7 1_555 1_555
H8 C7 1_555 1_555
C8 C7 1_555 1_555
C9 C1 1_555 1_555
H9 C9 1_555 1_555
H10 C9 1_555 1_555
C10 C8 1_555 1_555
H11 C10 1_555 1_555
H12 C10 1_555 1_555
H13 C10 1_555 1_555
C11 C8 1_555 1_555
H14 C11 1_555 1_555
H15 C11 1_555 1_555
H16 C11 1_555 1_555
C12 C3 1_555 1_555
C13 N2 1_555 1_555
C14 C13 1_555 1_555
H17 C14 1_555 1_555
C15 C14 1_555 1_555
H18 C15 1_555 1_555
C16 C15 1_555 1_555
H19 C16 1_555 1_555
C17 C16 1_555 1_555
H20 C17 1_555 1_555
C18 C3 1_555 1_555
C19 N2 1_555 1_555
H21 C19 1_555 1_555
H22 C19 1_555 1_555
H23 C19 1_555 1_555
C20 C4 1_555 1_555
C21 N1 1_555 1_555
C22 C21 1_555 1_555
H24 C22 1_555 1_555
C23 C22 1_555 1_555
H25 C23 1_555 1_555
C24 C23 1_555 1_555
C25 C24 1_555 1_555
H26 C25 1_555 1_555
C26 C21 1_555 1_555
H27 C26 1_555 1_555
C27 H28 1_555 1_555
C28 N5 1_555 1_555
H29 C28 1_555 1_555
H30 C28 1_555 1_555
H31 C28 1_555 1_555
C29 N5 1_555 1_555
H32 C29 1_555 1_555
H33 C29 1_555 1_555
H34 C29 1_555 1_555
N4 C5 1_555 1_555
C8 C9 1_555 1_555
C13 C18 1_555 1_555
C17 C18 1_555 1_555
C25 C26 1_555 1_555

#END
