
#######################################################################
#
#                 Cambridge Crystallographic Data Centre
#                                CCDC 
#
#######################################################################
#
# If this CIF has been generated from an entry in the Cambridge 
# Structural Database, then it will include bibliographic, chemical, 
# crystal, experimental, refinement or atomic coordinate data resulting 
# from the CCDC's data processing and validation procedures.
#
#######################################################################

data_VORDEN
_chemical_formula_moiety         'C18 H13 Br1 F4 N2 O2'
_chemical_name_systematic        
2-(4-bromophenyl)-4-fluoro-4-(2-methoxy-5-methylphenyl)-5-(trifluoromethyl)-2,4-dihydro-3H-pyrazol-3-one
_symmetry_cell_setting           monoclinic
_symmetry_space_group_name_H-M   'P 21'
_symmetry_Int_Tables_number      4
_space_group_name_Hall           'P 2yb'
loop_
_symmetry_equiv_pos_site_id
_symmetry_equiv_pos_as_xyz
1 x,y,z
2 -x,1/2+y,-z
_cell_length_a                   8.5191(9)
_cell_length_b                   10.0835(11)
_cell_length_c                   10.8911(11)
_cell_angle_alpha                90
_cell_angle_beta                 94.787(2)
_cell_angle_gamma                90
_cell_volume                     932.308
_exptl_crystal_colour            colorless
_exptl_crystal_description       prismatic
_cell_formula_units_Z            2
loop_
_atom_site_label
_atom_site_type_symbol
_atom_site_fract_x
_atom_site_fract_y
_atom_site_fract_z
Br1 Br 0.72065(7) 1.15258(6) 0.83986(5)
F1 F -0.1151(3) 0.6222(3) 0.9057(2)
F2 F 0.1122(6) 0.3256(4) 0.7539(4)
F3 F 0.0077(6) 0.3524(5) 0.9195(5)
F4 F 0.2562(6) 0.3530(4) 0.9165(5)
N1 N 0.2463(5) 0.6062(4) 0.8460(3)
N2 N 0.2072(4) 0.7376(5) 0.8267(4)
O1 O -0.0176(4) 0.8576(4) 0.7679(4)
O2 O 0.0791(4) 0.6328(5) 0.5804(3)
C1 C 0.0493(5) 0.7557(5) 0.7946(4)
C2 C -0.0250(5) 0.6163(5) 0.8046(4)
C3 C 0.1209(6) 0.5376(5) 0.8365(4)
C4 C 0.1272(7) 0.3921(6) 0.8564(6)
C5 C -0.1287(5) 0.5722(5) 0.6929(4)
C6 C -0.0707(6) 0.5855(6) 0.5786(5)
C7 C -0.1651(8) 0.5492(8) 0.4738(6)
H1 H -0.1291 0.5590 0.3960
C8 C -0.3120(8) 0.4988(7) 0.4866(6)
H2 H -0.3756 0.4767 0.4160
C9 C -0.3691(6) 0.4795(7) 0.5987(6)
C10 C -0.2759(6) 0.5185(6) 0.7029(5)
H3 H -0.3130 0.5083 0.7803
C11 C -0.5294(8) 0.4172(10) 0.6126(8)
H4 H -0.6106 0.4811 0.5911
H5 H -0.5353 0.3895 0.6964
H6 H -0.5434 0.3417 0.5591
C12 C 0.1449(8) 0.6525(12) 0.4664(5)
H7 H 0.0863 0.7197 0.4200
H8 H 0.1403 0.5710 0.4206
H9 H 0.2526 0.6800 0.4814
C13 C 0.3276(5) 0.8342(5) 0.8316(4)
C14 C 0.4740(5) 0.8016(5) 0.7963(5)
H10 H 0.4934 0.7160 0.7697
C15 C 0.5923(6) 0.8954(6) 0.8001(5)
H11 H 0.6917 0.8735 0.7770
C16 C 0.5610(5) 1.0208(5) 0.8383(4)
C17 C 0.4164(6) 1.0538(6) 0.8765(5)
H12 H 0.3974 1.1391 0.9040
C18 C 0.3006(7) 0.9595(6) 0.8735(6)
H13 H 0.2028 0.9807 0.9002
loop_
_geom_bond_atom_site_label_1
_geom_bond_atom_site_label_2
_geom_bond_site_symmetry_1
_geom_bond_site_symmetry_2
Br1 C16 1_555 1_555
F1 C2 1_555 1_555
F2 C4 1_555 1_555
F3 C4 1_555 1_555
F4 C4 1_555 1_555
N1 N2 1_555 1_555
N2 C1 1_555 1_555
O1 C1 1_555 1_555
O2 C6 1_555 1_555
C1 C2 1_555 1_555
C2 C3 1_555 1_555
C3 N1 1_555 1_555
C4 C3 1_555 1_555
C5 C2 1_555 1_555
C6 C5 1_555 1_555
C7 C6 1_555 1_555
H1 C7 1_555 1_555
C8 C7 1_555 1_555
H2 C8 1_555 1_555
C9 C8 1_555 1_555
C10 C5 1_555 1_555
H3 C10 1_555 1_555
C11 C9 1_555 1_555
H4 C11 1_555 1_555
H5 C11 1_555 1_555
H6 C11 1_555 1_555
C12 O2 1_555 1_555
H7 C12 1_555 1_555
H8 C12 1_555 1_555
H9 C12 1_555 1_555
C13 N2 1_555 1_555
C14 C13 1_555 1_555
H10 C14 1_555 1_555
C15 C14 1_555 1_555
H11 C15 1_555 1_555
C16 C15 1_555 1_555
C17 C16 1_555 1_555
H12 C17 1_555 1_555
C18 C13 1_555 1_555
H13 C18 1_555 1_555
C9 C10 1_555 1_555
C17 C18 1_555 1_555

#END
