
#######################################################################
#
#                 Cambridge Crystallographic Data Centre
#                                CCDC 
#
#######################################################################
#
# If this CIF has been generated from an entry in the Cambridge 
# Structural Database, then it will include bibliographic, chemical, 
# crystal, experimental, refinement or atomic coordinate data resulting 
# from the CCDC's data processing and validation procedures.
#
#######################################################################

data_VORDAJ
_chemical_formula_moiety         'C17 H12 F4 N2 O2'
_chemical_name_systematic        
4-fluoro-4-(4-methoxyphenyl)-2-phenyl-5-(trifluoromethyl)-2,4-dihydro-3H-pyrazol-3-one
_symmetry_cell_setting           orthorhombic
_symmetry_space_group_name_H-M   'P b c a'
_symmetry_Int_Tables_number      61
_space_group_name_Hall           '-P 2ac 2ab'
loop_
_symmetry_equiv_pos_site_id
_symmetry_equiv_pos_as_xyz
1 x,y,z
2 1/2-x,-y,1/2+z
3 -x,1/2+y,1/2-z
4 1/2+x,1/2-y,-z
5 -x,-y,-z
6 1/2+x,y,1/2-z
7 x,1/2-y,1/2+z
8 1/2-x,1/2+y,z
_cell_length_a                   9.8411(13)
_cell_length_b                   17.461(2)
_cell_length_c                   18.605(2)
_cell_angle_alpha                90
_cell_angle_beta                 90
_cell_angle_gamma                90
_cell_volume                     3197
_exptl_crystal_colour            colorless
_exptl_crystal_description       prismatic
_cell_formula_units_Z            8
loop_
_atom_site_label
_atom_site_type_symbol
_atom_site_fract_x
_atom_site_fract_y
_atom_site_fract_z
N1 N 0.82545(17) 0.17854(9) 0.51255(9)
N2 N 0.89720(18) 0.15683(10) 0.57308(9)
O1 O 0.6527(2) 0.26321(12) 0.48700(13)
O2 O 0.9081(2) 0.57292(10) 0.61510(12)
F1 F 0.64401(16) 0.25030(9) 0.64333(11)
F2 F 0.8434(8) 0.2090(4) 0.7473(2)
F3 F 1.0377(9) 0.2325(6) 0.7019(4)
F4 F 0.9549(10) 0.1198(3) 0.7083(5)
C1 C 0.7360(2) 0.23659(13) 0.52639(14)
C2 C 0.7631(2) 0.26128(13) 0.60469(13)
C3 C 0.8652(2) 0.20134(12) 0.62438(12)
C4 C 0.9269(4) 0.18987(17) 0.69621(14)
C5 C 0.8338(2) 0.13138(12) 0.45005(11)
C6 C 0.8633(2) 0.05467(13) 0.45721(12)
H1 H 0.8777 0.0338 0.5026
C7 C 0.8713(2) 0.00889(15) 0.39726(13)
H2 H 0.8926 -0.0427 0.4021
C8 C 0.8481(3) 0.03877(17) 0.33067(14)
H3 H 0.8527 0.0077 0.2902
C9 C 0.8179(3) 0.11503(17) 0.32403(13)
H4 H 0.8012 0.1353 0.2787
C10 C 0.8118(3) 0.16234(14) 0.38332(13)
H5 H 0.7932 0.2143 0.3781
C11 C 0.8069(2) 0.34329(12) 0.60974(11)
C12 C 0.7121(2) 0.39949(13) 0.62525(13)
H6 H 0.6223 0.3860 0.6342
C13 C 0.7502(3) 0.47476(13) 0.62737(14)
H7 H 0.6861 0.5120 0.6386
C14 C 0.8821(2) 0.49629(13) 0.61319(13)
C15 C 0.9770(3) 0.44090(14) 0.59810(14)
H8 H 1.0666 0.4546 0.5887
C16 C 0.9388(3) 0.36487(14) 0.59694(15)
H9 H 1.0036 0.3275 0.5873
C17 C 1.0434(3) 0.59732(17) 0.60497(19)
H10 H 1.1002 0.5752 0.6414
H11 H 1.0476 0.6521 0.6081
H12 H 1.0745 0.5812 0.5585
F5? F 0.8342(12) 0.1553(6) 0.7390(4)
F6? F 1.0246(9) 0.1429(5) 0.6990(5)
F7? F 0.9718(11) 0.2496(4) 0.7261(4)
loop_
_geom_bond_atom_site_label_1
_geom_bond_atom_site_label_2
_geom_bond_site_symmetry_1
_geom_bond_site_symmetry_2
N1 N2 1_555 1_555
N2 C3 1_555 1_555
O1 C1 1_555 1_555
O2 C14 1_555 1_555
F1 C2 1_555 1_555
F2 C4 1_555 1_555
F3 C4 1_555 1_555
F4 C4 1_555 1_555
C1 N1 1_555 1_555
C2 C1 1_555 1_555
C3 C2 1_555 1_555
C4 C3 1_555 1_555
C5 N1 1_555 1_555
C6 C5 1_555 1_555
H1 C6 1_555 1_555
C7 C6 1_555 1_555
H2 C7 1_555 1_555
C8 C7 1_555 1_555
H3 C8 1_555 1_555
C9 C8 1_555 1_555
H4 C9 1_555 1_555
C10 C5 1_555 1_555
H5 C10 1_555 1_555
C11 C2 1_555 1_555
C12 C11 1_555 1_555
H6 C12 1_555 1_555
C13 C12 1_555 1_555
H7 C13 1_555 1_555
C14 C13 1_555 1_555
C15 C14 1_555 1_555
H8 C15 1_555 1_555
C16 C11 1_555 1_555
H9 C16 1_555 1_555
C17 O2 1_555 1_555
H10 C17 1_555 1_555
H11 C17 1_555 1_555
H12 C17 1_555 1_555
C9 C10 1_555 1_555
C15 C16 1_555 1_555

#END
