
#######################################################################
#
#                 Cambridge Crystallographic Data Centre
#                                CCDC 
#
#######################################################################
#
# If this CIF has been generated from an entry in the Cambridge 
# Structural Database, then it will include bibliographic, chemical, 
# crystal, experimental, refinement or atomic coordinate data resulting 
# from the CCDC's data processing and validation procedures.
#
#######################################################################

data_VORKAP
_chemical_formula_moiety         'C60 H68 Cl2 N2 O6'
_chemical_name_systematic        
5,11,17,23-Tetra-t-butyl-25,27-bis(chloroacetoxy)-26,28-bis(2-pyridylmethoxy)calix(4)arene
_symmetry_cell_setting           orthorhombic
_symmetry_space_group_name_H-M   'P b c a'
_symmetry_Int_Tables_number      61
_space_group_name_Hall           '-P 2ac 2ab'
loop_
_symmetry_equiv_pos_site_id
_symmetry_equiv_pos_as_xyz
1 x,y,z
2 1/2-x,-y,1/2+z
3 -x,1/2+y,1/2-z
4 1/2+x,1/2-y,-z
5 -x,-y,-z
6 1/2+x,y,1/2-z
7 x,1/2-y,1/2+z
8 1/2-x,1/2+y,z
_cell_length_a                   19.280(3)
_cell_length_b                   21.358(4)
_cell_length_c                   27.670(5)
_cell_angle_alpha                90
_cell_angle_beta                 90
_cell_angle_gamma                90
_cell_volume                     11394
_exptl_crystal_colour            colorless
_exptl_crystal_description       block
_chemical_melting_point          '492 K (dec.)'
_cell_formula_units_Z            8
_exptl_crystal_recrystallization_method dichloromethane
loop_
_atom_site_label
_atom_site_type_symbol
_atom_site_fract_x
_atom_site_fract_y
_atom_site_fract_z
C1 C 0.27395(12) 0.37545(14) 0.42051(10)
H1 H 0.2778 0.3320 0.4316
H2 H 0.2503 0.3765 0.3892
H3 H 0.2473 0.3998 0.4441
C2 C 0.33282(16) 0.47384(10) 0.40101(10)
H4 H 0.3069 0.4945 0.4269
H5 H 0.3058 0.4753 0.3710
H6 H 0.3772 0.4954 0.3962
C3 C 0.38874(15) 0.39897(17) 0.46104(8)
H7 H 0.3629 0.4180 0.4878
H8 H 0.4329 0.4210 0.4568
H9 H 0.3977 0.3548 0.4683
C4 C 0.34671(6) 0.40374(6) 0.41527(4)
C5 C 0.38737(6) 0.37502(6) 0.37349(4)
C6 C 0.45232(6) 0.39737(5) 0.36099(4)
H10 H 0.4727 0.4292 0.3803
C7 C 0.48890(6) 0.37492(5) 0.32112(4)
C8 C 0.45675(6) 0.32964(5) 0.29307(4)
C9 C 0.39628(6) 0.30022(5) 0.30749(4)
C10 C 0.36242(6) 0.32520(5) 0.34761(4)
H11 H 0.3199 0.3067 0.3575
C11 C 0.37162(6) 0.23968(5) 0.28397(4)
H12 H 0.3207 0.2359 0.2875
H13 H 0.3828 0.2403 0.2490
C12 C 0.40692(5) 0.18390(5) 0.30783(4)
C13 C 0.39348(6) 0.17075(5) 0.35611(4)
H14 H 0.3605 0.1956 0.3729
C14 C 0.42663(6) 0.12237(5) 0.38094(4)
C15 C 0.40669(7) 0.10824(6) 0.43342(4)
C16 C 0.33079(9) 0.08601(9) 0.43500(6)
H15 H 0.3274 0.0442 0.4206
H16 H 0.3017 0.1153 0.4168
H17 H 0.3150 0.0844 0.4686
C17 C 0.41044(10) 0.16788(7) 0.46416(5)
H18 H 0.3963 0.1583 0.4974
H19 H 0.3793 0.1996 0.4506
H20 H 0.4581 0.1839 0.4641
C18 C 0.45294(11) 0.05901(9) 0.45582(6)
H21 H 0.4506 0.0205 0.4366
H22 H 0.4373 0.0503 0.4888
H23 H 0.5009 0.0743 0.4566
C19 C 0.47492(6) 0.08790(5) 0.35545(4)
H24 H 0.4994 0.0557 0.3718
C20 C 0.48918(5) 0.09821(5) 0.30711(4)
C21 C 0.45332(6) 0.14606(5) 0.28322(4)
C22 C 0.41721(6) 0.12021(6) 0.20468(4)
H25 H 0.4223 0.0749 0.2111
H26 H 0.3688 0.1326 0.2118
C23 C 0.43374(12) 0.13369(11) 0.15553(8)
C24 C 0.47668(14) 0.09230(13) 0.13104(8)
H27 H 0.4935 0.0554 0.1462
C25 C 0.49456(15) 0.10698(11) 0.08260(9)
H28 H 0.5227 0.0797 0.0638
C26 C 0.46964(14) 0.16200(11) 0.06398(8)
H29 H 0.4835 0.1740 0.0324
C27 C 0.42547(14) 0.20051(13) 0.08921(7)
H30 H 0.4077 0.2375 0.0747
N1 N 0.40769(11) 0.18499(11) 0.13483(6)
C28 C 0.54527(6) 0.05932(5) 0.28236(4)
H31 H 0.5346 0.0142 0.2858
H32 H 0.5468 0.0695 0.2475
C29 C 0.61448(6) 0.07369(5) 0.30539(4)
C30 C 0.64430(6) 0.03450(5) 0.33961(4)
H33 H 0.6228 -0.0046 0.3464
C31 C 0.70397(6) 0.05041(5) 0.36404(4)
C32 C 0.73387(6) 0.10879(5) 0.35397(4)
H34 H 0.7743 0.1209 0.3712
C33 C 0.70679(5) 0.14937(5) 0.32001(4)
C34 C 0.64811(5) 0.12994(5) 0.29578(4)
C35 C 0.73591(6) 0.00799(5) 0.40259(4)
C36 C 0.70933(9) -0.05835(7) 0.40024(6)
H35 H 0.7219 -0.0769 0.3690
H36 H 0.6587 -0.0583 0.4037
H37 H 0.7301 -0.0830 0.4264
C37 C 0.81332(8) 0.00612(8) 0.39791(7)
H38 H 0.8325 -0.0229 0.4219
H39 H 0.8323 0.0481 0.4034
H40 H 0.8259 -0.0081 0.3654
C38 C 0.71857(12) 0.03580(8) 0.45221(5)
H41 H 0.6681 0.0392 0.4557
H42 H 0.7395 0.0774 0.4550
H43 H 0.7370 0.0085 0.4776
C39 C 0.64913(7) 0.17189(5) 0.21712(4)
C40 C 0.60600(7) 0.21265(6) 0.18484(4)
H44 H 0.5967 0.2529 0.2014
H45 H 0.5609 0.1919 0.1788
C41 C 0.73754(6) 0.21369(5) 0.31144(4)
H46 H 0.7382 0.2226 0.2763
H47 H 0.7860 0.2145 0.3233
C42 C 0.69560(5) 0.26366(5) 0.33726(4)
C43 C 0.69381(6) 0.26339(5) 0.38727(4)
H48 H 0.7218 0.2340 0.4040
C44 C 0.65298(6) 0.30414(5) 0.41403(4)
C45 C 0.64951(7) 0.29977(6) 0.46890(4)
C46 C 0.59420(11) 0.25230(8) 0.48189(6)
H49 H 0.5884 0.2511 0.5171
H50 H 0.6082 0.2108 0.4703
H51 H 0.5502 0.2643 0.4667
C47 C 0.71944(9) 0.28010(10) 0.48994(5)
H52 H 0.7558 0.3080 0.4777
H53 H 0.7297 0.2369 0.4803
H54 H 0.7177 0.2828 0.5253
C48 C 0.63195(10) 0.36182(8) 0.49275(5)
H55 H 0.6657 0.3936 0.4827
H56 H 0.6336 0.3570 0.5280
H57 H 0.5853 0.3749 0.4830
C49 C 0.61199(6) 0.34576(5) 0.38780(4)
H58 H 0.5825 0.3734 0.4051
C50 C 0.61214(6) 0.34878(5) 0.33771(4)
C51 C 0.65562(6) 0.30813(5) 0.31282(4)
O1 O 0.65609(4) 0.30856(3) 0.26247(2)
C52 C 0.71757(6) 0.33499(5) 0.24075(4)
H59 H 0.7291 0.3115 0.2110
H60 H 0.7570 0.3309 0.2634
C53 C 0.70710(6) 0.40284(5) 0.22849(4)
C54 C 0.74836(7) 0.44927(5) 0.24704(4)
H61 H 0.7851 0.4394 0.2686
C55 C 0.73564(8) 0.51019(6) 0.23396(5)
H62 H 0.7633 0.5431 0.2467
C56 C 0.68322(7) 0.52330(6) 0.20262(4)
H63 H 0.6739 0.5651 0.1928
C57 C 0.64483(7) 0.47493(5) 0.18592(4)
H64 H 0.6080 0.4842 0.1642
N2 N 0.65524(5) 0.41467(4) 0.19793(3)
C58 C 0.56322(6) 0.39393(5) 0.31181(4)
H65 H 0.5710 0.4371 0.3237
H66 H 0.5727 0.3932 0.2766
C59 C 0.46480(7) 0.35110(6) 0.21107(4)
C60 C 0.50687(7) 0.33853(6) 0.16687(4)
H67 H 0.5015 0.2940 0.1576
H68 H 0.5565 0.3459 0.1742
Cl1 Cl 0.48204(2) 0.386347(19) 0.117946(13)
Cl2 Cl 0.64671(2) 0.22763(2) 0.129509(12)
O2 O 0.61772(4) 0.16970(3) 0.26075(2)
O3 O 0.46492(4) 0.15558(3) 0.23417(2)
O4 O 0.48723(4) 0.31410(3) 0.24811(2)
O5 O 0.70226(5) 0.14692(4) 0.20739(3)
O6 O 0.41963(5) 0.38855(5) 0.21474(3)
C61? C 0.38924(18) 0.45015(15) 0.44644(11)
H69? H 0.3883 0.4917 0.4314
H70? H 0.4373 0.4355 0.4487
H71? H 0.3690 0.4526 0.4789
C62? C 0.3367(2) 0.34994(14) 0.45394(9)
H72? H 0.3204 0.3681 0.4844
H73? H 0.3811 0.3287 0.4593
H74? H 0.3025 0.3197 0.4420
C63? C 0.27429(13) 0.42358(18) 0.40034(12)
H75? H 0.2504 0.3882 0.3852
H76? H 0.2774 0.4583 0.3773
H77? H 0.2483 0.4371 0.4289
H78? H 0.3688 0.1281 0.2148
H79? H 0.4268 0.0748 0.2073
C64? C 0.42926(16) 0.14275(16) 0.15228(9)
C65? C 0.46313(16) 0.11110(17) 0.11663(9)
H80? H 0.4847 0.0724 0.1246
C66? C 0.46776(18) 0.13197(17) 0.07018(11)
H81? H 0.4869 0.1074 0.0449
C67? C 0.44179(17) 0.19318(17) 0.06260(11)
H82? H 0.4467 0.2117 0.0316
C68? C 0.40720(16) 0.22936(17) 0.10144(10)
H83? H 0.3890 0.2699 0.0952
N3? N 0.40208(13) 0.20336(13) 0.14599(8)
loop_
_geom_bond_atom_site_label_1
_geom_bond_atom_site_label_2
_geom_bond_site_symmetry_1
_geom_bond_site_symmetry_2
C1 H1 1_555 1_555
H2 C1 1_555 1_555
H3 C1 1_555 1_555
C2 H4 1_555 1_555
H5 C2 1_555 1_555
H6 C2 1_555 1_555
C3 H7 1_555 1_555
H8 C3 1_555 1_555
H9 C3 1_555 1_555
C4 C1 1_555 1_555
C5 C4 1_555 1_555
C6 C5 1_555 1_555
H10 C6 1_555 1_555
C7 C6 1_555 1_555
C8 C7 1_555 1_555
C9 C8 1_555 1_555
C10 C5 1_555 1_555
H11 C10 1_555 1_555
C11 C9 1_555 1_555
H12 C11 1_555 1_555
H13 C11 1_555 1_555
C12 C11 1_555 1_555
C13 C12 1_555 1_555
H14 C13 1_555 1_555
C14 C13 1_555 1_555
C15 C14 1_555 1_555
C16 C15 1_555 1_555
H15 C16 1_555 1_555
H16 C16 1_555 1_555
H17 C16 1_555 1_555
C17 C15 1_555 1_555
H18 C17 1_555 1_555
H19 C17 1_555 1_555
H20 C17 1_555 1_555
C18 C15 1_555 1_555
H21 C18 1_555 1_555
H22 C18 1_555 1_555
H23 C18 1_555 1_555
C19 C14 1_555 1_555
H24 C19 1_555 1_555
C20 C19 1_555 1_555
C21 C12 1_555 1_555
C22 H25 1_555 1_555
H26 C22 1_555 1_555
C23 C22 1_555 1_555
C24 C23 1_555 1_555
H27 C24 1_555 1_555
C25 C24 1_555 1_555
H28 C25 1_555 1_555
C26 C25 1_555 1_555
H29 C26 1_555 1_555
C27 C26 1_555 1_555
H30 C27 1_555 1_555
N1 C23 1_555 1_555
C28 C20 1_555 1_555
H31 C28 1_555 1_555
H32 C28 1_555 1_555
C29 C28 1_555 1_555
C30 C29 1_555 1_555
H33 C30 1_555 1_555
C31 C30 1_555 1_555
C32 C31 1_555 1_555
H34 C32 1_555 1_555
C33 C32 1_555 1_555
C34 C29 1_555 1_555
C35 C31 1_555 1_555
C36 C35 1_555 1_555
H35 C36 1_555 1_555
H36 C36 1_555 1_555
H37 C36 1_555 1_555
C37 C35 1_555 1_555
H38 C37 1_555 1_555
H39 C37 1_555 1_555
H40 C37 1_555 1_555
C38 C35 1_555 1_555
H41 C38 1_555 1_555
H42 C38 1_555 1_555
H43 C38 1_555 1_555
C39 C40 1_555 1_555
C40 H44 1_555 1_555
H45 C40 1_555 1_555
C41 C33 1_555 1_555
H46 C41 1_555 1_555
H47 C41 1_555 1_555
C42 C41 1_555 1_555
C43 C42 1_555 1_555
H48 C43 1_555 1_555
C44 C43 1_555 1_555
C45 C44 1_555 1_555
C46 C45 1_555 1_555
H49 C46 1_555 1_555
H50 C46 1_555 1_555
H51 C46 1_555 1_555
C47 C45 1_555 1_555
H52 C47 1_555 1_555
H53 C47 1_555 1_555
H54 C47 1_555 1_555
C48 C45 1_555 1_555
H55 C48 1_555 1_555
H56 C48 1_555 1_555
H57 C48 1_555 1_555
C49 C44 1_555 1_555
H58 C49 1_555 1_555
C50 C49 1_555 1_555
C51 C42 1_555 1_555
O1 C51 1_555 1_555
C52 O1 1_555 1_555
H59 C52 1_555 1_555
H60 C52 1_555 1_555
C53 C52 1_555 1_555
C54 C53 1_555 1_555
H61 C54 1_555 1_555
C55 C54 1_555 1_555
H62 C55 1_555 1_555
C56 C55 1_555 1_555
H63 C56 1_555 1_555
C57 C56 1_555 1_555
H64 C57 1_555 1_555
N2 C53 1_555 1_555
C58 C7 1_555 1_555
H65 C58 1_555 1_555
H66 C58 1_555 1_555
C59 C60 1_555 1_555
C60 H67 1_555 1_555
H68 C60 1_555 1_555
Cl1 C60 1_555 1_555
Cl2 C40 1_555 1_555
O2 C34 1_555 1_555
O3 C21 1_555 1_555
O4 C8 1_555 1_555
O5 C39 1_555 1_555
O6 C59 1_555 1_555
C2 C4 1_555 1_555
C3 C4 1_555 1_555
C9 C10 1_555 1_555
C20 C21 1_555 1_555
C22 O3 1_555 1_555
C27 N1 1_555 1_555
C33 C34 1_555 1_555
C39 O2 1_555 1_555
C50 C51 1_555 1_555
C50 C58 1_555 1_555
C57 N2 1_555 1_555
C59 O4 1_555 1_555

#END
