
#######################################################################
#
#                 Cambridge Crystallographic Data Centre
#                                CCDC 
#
#######################################################################
#
# If this CIF has been generated from an entry in the Cambridge 
# Structural Database, then it will include bibliographic, chemical, 
# crystal, experimental, refinement or atomic coordinate data resulting 
# from the CCDC's data processing and validation procedures.
#
#######################################################################

data_VORMOF
_chemical_formula_moiety         'C12 H17 N3 O2 1+,Cl1 O4 1-'
_chemical_name_systematic        
'4,4,5,5-Tetramethyl-2-(4-pyridinio)-2-imidazolin-1-oxyl-3-oxide radical perchlorate'
_symmetry_cell_setting           orthorhombic
_symmetry_space_group_name_H-M   'F d d 2'
_symmetry_Int_Tables_number      43
_space_group_name_Hall           'F 2 -2d'
loop_
_symmetry_equiv_pos_site_id
_symmetry_equiv_pos_as_xyz
1 x,y,z
2 -x,-y,z
3 1/4+x,1/4-y,1/4+z
4 1/4-x,1/4+y,1/4+z
5 x,1/2+y,1/2+z
6 -x,1/2-y,1/2+z
7 1/4+x,3/4-y,3/4+z
8 1/4-x,3/4+y,3/4+z
9 1/2+x,y,1/2+z
10 1/2-x,-y,1/2+z
11 3/4+x,1/4-y,3/4+z
12 3/4-x,1/4+y,3/4+z
13 1/2+x,1/2+y,z
14 1/2-x,1/2-y,z
15 3/4+x,3/4-y,1/4+z
16 3/4-x,3/4+y,1/4+z
_cell_length_a                   17.485(4)
_cell_length_b                   11.854(2)
_cell_length_c                   14.921(2)
_cell_angle_alpha                90
_cell_angle_beta                 90
_cell_angle_gamma                90
_cell_volume                     3092.63
_exptl_crystal_colour            'dark purple'
_exptl_crystal_description       block
_cell_formula_units_Z            8
loop_
_atom_site_label
_atom_site_type_symbol
_atom_site_fract_x
_atom_site_fract_y
_atom_site_fract_z
Cl1 Cl 0.0000 0.5000 0.05797(7)
O1 O 0.0203(2) 0.4065(5) 0.0039(3)
O2 O 0.06280(15) 0.5281(3) 0.1140(2)
O1A O -0.0203(2) 0.5935(5) 0.0039(3)
O2A O -0.06280(15) 0.4719(3) 0.1140(2)
N1 N 0.0000 0.5000 0.2971(2)
H1 H 0.0000 0.5000 0.2395
N2 N 0.05399(9) 0.54721(12) 0.62987(12)
C1 C 0.04640(17) 0.5698(2) 0.33929(18)
H2 H 0.0785 0.6169 0.3067
C2 C 0.04743(13) 0.57302(19) 0.43134(16)
H3 H 0.0793 0.6232 0.4614
C3 C 0.0000 0.5000 0.4789(2)
C4 C 0.0000 0.5000 0.5764(2)
C5 C 0.02991(11) 0.54883(16) 0.72622(14)
C6 C 0.09853(14) 0.5301(2) 0.78664(19)
H4 H 0.1322 0.5939 0.7827
H5 H 0.1253 0.4634 0.7680
H6 H 0.0816 0.5213 0.8474
C7 C -0.00457(14) 0.66478(19) 0.74312(19)
H7 H 0.0352 0.7206 0.7422
H8 H -0.0293 0.6654 0.8006
H9 H -0.0414 0.6815 0.6972
O3 O 0.11652(8) 0.59302(15) 0.60418(12)
N2A N -0.05399(9) 0.45279(12) 0.62987(12)
C1A C -0.04640(17) 0.4302(2) 0.33929(18)
H2A H -0.0785 0.3831 0.3067
C2A C -0.04743(13) 0.42698(19) 0.43134(16)
H3A H -0.0793 0.3768 0.4614
C5A C -0.02991(11) 0.45117(16) 0.72622(14)
C6A C -0.09853(14) 0.4699(2) 0.78664(19)
H4A H -0.1322 0.4061 0.7827
H5A H -0.1253 0.5366 0.7680
H6A H -0.0816 0.4787 0.8474
C7A C 0.00457(14) 0.33522(19) 0.74312(19)
H7A H -0.0352 0.2794 0.7422
H8A H 0.0293 0.3346 0.8006
H9A H 0.0414 0.3185 0.6972
O3A O -0.11652(8) 0.40698(15) 0.60418(12)
loop_
_geom_bond_atom_site_label_1
_geom_bond_atom_site_label_2
_geom_bond_site_symmetry_1
_geom_bond_site_symmetry_2
Cl1 O1 1_555 1_555
O2 Cl1 1_555 1_555
N1 H1 1_555 1_555
N2 C4 1_555 1_555
C1 N1 1_555 1_555
H2 C1 1_555 1_555
C2 C1 1_555 1_555
H3 C2 1_555 1_555
C3 C2 1_555 1_555
C4 C3 1_555 1_555
C5 N2 1_555 1_555
C6 C5 1_555 1_555
H4 C6 1_555 1_555
H5 C6 1_555 1_555
H6 C6 1_555 1_555
C7 C5 1_555 1_555
H7 C7 1_555 1_555
H8 C7 1_555 1_555
H9 C7 1_555 1_555
O3 N2 1_555 1_555
O1A Cl1 1_555 1_555
O2A Cl1 1_555 1_555
N2A C4 1_555 1_555
C1A N1 1_555 1_555
H2A C1A 1_555 1_555
C2A C3 1_555 1_555
H3A C2A 1_555 1_555
C5A C5 1_555 1_555
C6A C5A 1_555 1_555
H4A C6A 1_555 1_555
H5A C6A 1_555 1_555
H6A C6A 1_555 1_555
C7A C5A 1_555 1_555
H7A C7A 1_555 1_555
H8A C7A 1_555 1_555
H9A C7A 1_555 1_555
O3A N2A 1_555 1_555
N2A C5A 1_555 1_555
C1A C2A 1_555 1_555

#END
