
#######################################################################
#
#                 Cambridge Crystallographic Data Centre
#                                CCDC 
#
#######################################################################
#
# If this CIF has been generated from an entry in the Cambridge 
# Structural Database, then it will include bibliographic, chemical, 
# crystal, experimental, refinement or atomic coordinate data resulting 
# from the CCDC's data processing and validation procedures.
#
#######################################################################

data_VOSRUS
_chemical_formula_moiety         'C18 H20 N4 O3,C1 H4 O1,H2 O1'
_chemical_name_systematic        
"2'-amino-8a'-methoxy-6'-methyl-2-oxo-1,2,4a',5',6',7',8',8a'-octahydrospiro[indole-3,4'-pyrano[3,2-c]pyridine]-3'-carbonitrile methanol solvate monohydrate"
_symmetry_cell_setting           triclinic
_symmetry_space_group_name_H-M   'P -1'
_symmetry_Int_Tables_number      2
_space_group_name_Hall           '-P 1'
loop_
_symmetry_equiv_pos_site_id
_symmetry_equiv_pos_as_xyz
1 x,y,z
2 -x,-y,-z
_cell_length_a                   9.6303(9)
_cell_length_b                   10.7189(11)
_cell_length_c                   11.0439(10)
_cell_angle_alpha                80.827(8)
_cell_angle_beta                 65.076(9)
_cell_angle_gamma                81.324(8)
_cell_volume                     1016.16
_cell_formula_units_Z            2
loop_
_atom_site_label
_atom_site_type_symbol
_atom_site_fract_x
_atom_site_fract_y
_atom_site_fract_z
C1 C 0.2007(2) 0.8855(3) 0.8899(2)
H1 H 0.1096 0.8664 0.9625
C2 C 0.2299(3) 1.0089(3) 0.8390(3)
H2 H 0.1570 1.0746 0.8777
C3 C 0.3642(3) 1.0372(2) 0.7323(3)
H3 H 0.3814 1.1216 0.7001
C4 C 0.4749(2) 0.9416(2) 0.6714(2)
H4 H 0.5653 0.9613 0.5980
C5 C 0.4489(2) 0.81736(18) 0.72143(18)
C6 C 0.3119(2) 0.7911(2) 0.82908(19)
C7 C 0.4328(2) 0.59475(19) 0.77988(19)
C8 C 0.54188(19) 0.69226(17) 0.67761(17)
C9 C 0.69524(19) 0.66265(18) 0.69469(18)
H5 H 0.7119 0.5699 0.7082
C10 C 0.8316(2) 0.70471(19) 0.57022(19)
C11 C 0.7148(2) 0.64569(17) 0.43949(18)
C12 C 0.57263(19) 0.67305(18) 0.53515(18)
C13 C 0.4464(2) 0.6880(2) 0.4996(2)
C14 C 0.9186(3) 0.8969(3) 0.4265(3)
H6 H 0.9413 0.8525 0.3504
H7 H 1.0105 0.8961 0.4406
H8 H 0.8805 0.9831 0.4100
C15 C 0.9787(2) 0.6641(2) 0.5898(2)
H9 H 1.0651 0.6962 0.5117
H10 H 0.9953 0.5721 0.5994
C16 C 0.9691(2) 0.7145(2) 0.7139(2)
H11 H 1.0632 0.6871 0.7265
H12 H 0.9580 0.8066 0.7022
C17 C 0.8308(3) 0.7128(3) 0.9542(2)
H13 H 0.8211 0.8039 0.9449
H14 H 0.9232 0.6814 0.9665
H15 H 0.7436 0.6823 1.0306
C18 C 0.6930(2) 0.7112(2) 0.81760(19)
H16 H 0.6789 0.8032 0.8085
H17 H 0.6074 0.6801 0.8971
H18 H 0.676(3) 0.601(2) 0.293(2)
H19 H 0.843(3) 0.611(2) 0.259(2)
N1 N 0.3448(2) 0.7035(3) 0.4695(2)
N2 N 0.7477(2) 0.62130(18) 0.31462(17)
N3 N 0.30557(18) 0.66004(17) 0.86092(17)
H20 H 0.2293 0.6252 0.9249
N4 N 0.83752(18) 0.66831(17) 0.83280(16)
O1 O 0.45896(16) 0.47981(14) 0.78592(15)
O2 O 0.84479(13) 0.64271(13) 0.45902(13)
O3 O 0.80544(16) 0.83638(13) 0.54255(14)
C19 C 0.6659(5) 1.1686(4) 0.8310(4)
H21 H 0.5560 1.1793 0.8779
H22 H 0.7096 1.1193 0.8891
H23 H 0.6926 1.1256 0.7531
O4 O 0.7231(4) 1.2869(3) 0.7914(4)
H24 H 0.6783 1.3320 0.7492
O5 O 0.90917(17) 0.40786(16) 0.87001(16)
H25 H 0.8625 0.3674 0.8406
H26 H 0.8811 0.4867 0.8620
loop_
_geom_bond_atom_site_label_1
_geom_bond_atom_site_label_2
_geom_bond_site_symmetry_1
_geom_bond_site_symmetry_2
C1 H1 1_555 1_555
C2 C1 1_555 1_555
H2 C2 1_555 1_555
C3 C2 1_555 1_555
H3 C3 1_555 1_555
C4 C3 1_555 1_555
H4 C4 1_555 1_555
C5 C4 1_555 1_555
C6 C1 1_555 1_555
C7 C8 1_555 1_555
C8 C5 1_555 1_555
C9 C8 1_555 1_555
H5 C9 1_555 1_555
C10 C9 1_555 1_555
C11 C12 1_555 1_555
C12 C8 1_555 1_555
C13 C12 1_555 1_555
C14 H6 1_555 1_555
H7 C14 1_555 1_555
H8 C14 1_555 1_555
C15 C10 1_555 1_555
H9 C15 1_555 1_555
H10 C15 1_555 1_555
C16 C15 1_555 1_555
H11 C16 1_555 1_555
H12 C16 1_555 1_555
C17 H13 1_555 1_555
H14 C17 1_555 1_555
H15 C17 1_555 1_555
C18 C9 1_555 1_555
H16 C18 1_555 1_555
H17 C18 1_555 1_555
H18 N2 1_555 1_555
H19 N2 1_555 1_555
N1 C13 1_555 1_555
N2 C11 1_555 1_555
N3 C6 1_555 1_555
H20 N3 1_555 1_555
N4 C16 1_555 1_555
O1 C7 1_555 1_555
O2 C10 1_555 1_555
O3 C10 1_555 1_555
C19 H21 1_555 1_555
H22 C19 1_555 1_555
H23 C19 1_555 1_555
O4 C19 1_555 1_555
H24 O4 1_555 1_555
O5 H25 1_555 1_555
H26 O5 1_555 1_555
C5 C6 1_555 1_555
C7 N3 1_555 1_555
C11 O2 1_555 1_555
C14 O3 1_555 1_555
C17 N4 1_555 1_555
C18 N4 1_555 1_555

#END
