
#######################################################################
#
#                 Cambridge Crystallographic Data Centre
#                                CCDC 
#
#######################################################################
#
# If this CIF has been generated from an entry in the Cambridge 
# Structural Database, then it will include bibliographic, chemical, 
# crystal, experimental, refinement or atomic coordinate data resulting 
# from the CCDC's data processing and validation procedures.
#
#######################################################################

data_VOTYIO
_chemical_compound_source        'aerial parts of Tabernaemontana officinalis'
_chemical_name_common            
'4-Methyl-1,16-cyclocoryn-19-en-4-ium-17-oate trihydrate'
_chemical_formula_moiety         'C20 H22 N2 O2,3(H2 O1)'
_chemical_name_systematic        'Taberdivarine I trihydrate'
_symmetry_cell_setting           orthorhombic
_symmetry_space_group_name_H-M   'P 21 21 21'
_symmetry_Int_Tables_number      19
_space_group_name_Hall           'P 2ac 2ab'
loop_
_symmetry_equiv_pos_site_id
_symmetry_equiv_pos_as_xyz
1 x,y,z
2 1/2+x,1/2-y,-z
3 -x,1/2+y,1/2-z
4 1/2-x,-y,1/2+z
_cell_length_a                   11.0569(2)
_cell_length_b                   12.1433(2)
_cell_length_c                   13.9361(3)
_cell_angle_alpha                90
_cell_angle_beta                 90
_cell_angle_gamma                90
_cell_volume                     1871.16
_exptl_crystal_colour            colorless
_exptl_crystal_description       block
_cell_formula_units_Z            4
loop_
_atom_site_label
_atom_site_type_symbol
_atom_site_fract_x
_atom_site_fract_y
_atom_site_fract_z
O1 O 0.93370(9) -0.17655(9) 0.46566(8)
O2 O 1.13404(10) -0.15412(10) 0.46697(8)
N1 N 0.90043(11) 0.02035(10) 0.36876(8)
C1 C 1.30936(15) 0.03600(15) 0.21673(13)
H1 H 1.2981 -0.0195 0.2670
H2 H 1.3507 0.1004 0.2437
H3 H 1.3583 0.0049 0.1647
C2 C 1.18895(14) 0.06991(13) 0.17830(11)
H4 H 1.1902 0.1258 0.1306
C3 C 1.07992(13) 0.03197(13) 0.20224(10)
C4 C 1.05858(13) -0.06466(12) 0.27002(10)
H5 H 1.1349 -0.1085 0.2744
C5 C 1.02088(13) -0.02912(12) 0.37301(10)
H6 H 1.0790 0.0284 0.3956
C6 C 0.86488(14) 0.11589(12) 0.41536(10)
C7 C 0.91165(14) 0.16434(14) 0.49816(11)
H7 H 0.9764 0.1314 0.5326
C8 C 0.86022(15) 0.26215(14) 0.52819(12)
H8 H 0.8901 0.2972 0.5843
C9 C 0.76414(15) 0.31088(13) 0.47704(12)
H9 H 0.7324 0.3794 0.4981
C10 C 1.02912(14) -0.12838(12) 0.44197(10)
C11 C 0.71503(14) 0.26092(13) 0.39671(12)
H10 H 0.6492 0.2937 0.3635
C12 C 0.76450(13) 0.16102(13) 0.36542(10)
C13 C 0.73881(13) 0.08688(13) 0.28779(11)
C14 C 0.66786(13) 0.09402(13) 0.19668(11)
H11 H 0.6248 0.1654 0.1938
H12 H 0.6069 0.0343 0.1947
C15 C 0.75446(14) 0.08340(13) 0.10980(11)
H13 H 0.7098 0.0487 0.0562
H14 H 0.7781 0.1583 0.0889
N2 N 0.87017(11) 0.01616(11) 0.12862(9)
C16 C 0.90665(15) -0.03911(13) 0.03697(11)
H15 H 0.8982 0.0128 -0.0164
H16 H 0.8546 -0.1031 0.0258
H17 H 0.9910 -0.0632 0.0416
C17 C 0.97191(14) 0.09213(12) 0.16082(10)
H18 H 0.9990 0.1365 0.1052
H19 H 0.9400 0.1436 0.2098
C18 C 0.84807(13) -0.06783(12) 0.21012(11)
H20 H 0.7767 -0.1152 0.1948
C19 C 0.95898(14) -0.13856(12) 0.22759(10)
H21 H 0.9869 -0.1716 0.1665
H22 H 0.9393 -0.1988 0.2728
C20 C 0.82085(13) 0.00443(12) 0.29361(10)
O3 O 0.80637(10) 0.18917(10) 0.89624(8)
H23 H 0.7380(11) 0.1766(18) 0.9180(15)
H24 H 0.8297(17) 0.2373(14) 0.9343(13)
O4 O 0.87943(11) 0.63749(11) 0.58194(9)
H25 H 0.9008(18) 0.6920(14) 0.5507(15)
H26 H 0.8077(10) 0.6319(19) 0.5653(16)
O5 O 0.52787(11) 0.84098(11) 0.24884(9)
H27 H 0.5872(14) 0.828(2) 0.2839(14)
H28 H 0.4751(15) 0.853(2) 0.2903(13)
loop_
_geom_bond_atom_site_label_1
_geom_bond_atom_site_label_2
_geom_bond_site_symmetry_1
_geom_bond_site_symmetry_2
O1 C10 1_555 1_555
O2 C10 1_555 1_555
N1 C5 1_555 1_555
C1 H1 1_555 1_555
H2 C1 1_555 1_555
H3 C1 1_555 1_555
C2 C1 1_555 1_555
H4 C2 1_555 1_555
C3 C2 1_555 1_555
C4 C3 1_555 1_555
H5 C4 1_555 1_555
C5 C4 1_555 1_555
H6 C5 1_555 1_555
C6 N1 1_555 1_555
C7 C6 1_555 1_555
H7 C7 1_555 1_555
C8 C7 1_555 1_555
H8 C8 1_555 1_555
C9 C8 1_555 1_555
H9 C9 1_555 1_555
C10 C5 1_555 1_555
C11 C9 1_555 1_555
H10 C11 1_555 1_555
C12 C6 1_555 1_555
C13 C12 1_555 1_555
C14 C13 1_555 1_555
H11 C14 1_555 1_555
H12 C14 1_555 1_555
C15 C14 1_555 1_555
H13 C15 1_555 1_555
H14 C15 1_555 1_555
N2 C15 1_555 1_555
C16 N2 1_555 1_555
H15 C16 1_555 1_555
H16 C16 1_555 1_555
H17 C16 1_555 1_555
C17 C3 1_555 1_555
H18 C17 1_555 1_555
H19 C17 1_555 1_555
C18 N2 1_555 1_555
H20 C18 1_555 1_555
C19 C4 1_555 1_555
H21 C19 1_555 1_555
H22 C19 1_555 1_555
C20 N1 1_555 1_555
O3 H23 1_555 1_555
H24 O3 1_555 1_555
O4 H25 1_555 1_555
H26 O4 1_555 1_555
O5 H27 1_555 1_555
H28 O5 1_555 1_555
C11 C12 1_555 1_555
C13 C20 1_555 1_555
N2 C17 1_555 1_555
C18 C19 1_555 1_555
C18 C20 1_555 1_555

#END
