
#######################################################################
#
#                 Cambridge Crystallographic Data Centre
#                                CCDC 
#
#######################################################################
#
# If this CIF has been generated from an entry in the Cambridge 
# Structural Database, then it will include bibliographic, chemical, 
# crystal, experimental, refinement or atomic coordinate data resulting 
# from the CCDC's data processing and validation procedures.
#
#######################################################################

data_VOTZOV
_chemical_formula_moiety         'C25 H19 F3 N4 O2,C1 H4 O1'
_chemical_name_systematic        
"(E)-2'-Amino-6'-methyl-2-oxo-8'-(4-(trifluoromethyl)benzylidene)-5',6',7',8'-tetrahydrospiro[indoline-3,4'-pyrano[3,2-c]pyridine]-3'-carbonitrile methanol solvate"
_symmetry_cell_setting           triclinic
_symmetry_space_group_name_H-M   'P -1'
_symmetry_Int_Tables_number      2
_space_group_name_Hall           '-P 1'
loop_
_symmetry_equiv_pos_site_id
_symmetry_equiv_pos_as_xyz
1 x,y,z
2 -x,-y,-z
_cell_length_a                   9.8572(6)
_cell_length_b                   10.1502(8)
_cell_length_c                   11.8525(9)
_cell_angle_alpha                93.847(6)
_cell_angle_beta                 97.408(6)
_cell_angle_gamma                96.209(6)
_cell_volume                     1165.12
_exptl_crystal_colour            white
_cell_formula_units_Z            2
loop_
_atom_site_label
_atom_site_type_symbol
_atom_site_fract_x
_atom_site_fract_y
_atom_site_fract_z
C1 C -0.29149(16) 0.56873(17) 0.48871(15)
C2 C -0.36607(18) 0.59187(18) 0.57724(16)
H1 H -0.3696 0.5340 0.6368
C3 C -0.43597(18) 0.70385(19) 0.57539(17)
H2 H -0.4884 0.7230 0.6350
C4 C -0.43067(18) 0.78796(19) 0.48840(17)
H3 H -0.4794 0.8637 0.4893
C5 C -0.35480(17) 0.76296(18) 0.39958(16)
H4 H -0.3519 0.8202 0.3395
C6 C -0.28409(16) 0.65304(17) 0.40104(15)
C7 C -0.18903(16) 0.60304(17) 0.32061(15)
C8 C -0.15246(16) 0.47406(17) 0.37537(15)
C9 C -0.25142(16) 0.57286(17) 0.19763(15)
C10 C -0.17519(17) 0.58893(17) 0.11019(15)
C11 C 0.01086(16) 0.70460(17) 0.23568(15)
C12 C -0.05559(16) 0.69432(17) 0.32595(15)
C13 C 0.00450(16) 0.76704(17) 0.43828(15)
H5 H -0.0341 0.8527 0.4462
H6 H -0.0211 0.7138 0.5009
C14 C 0.19587(17) 0.86196(18) 0.35050(15)
H7 H 0.2976 0.8797 0.3592
H8 H 0.1585 0.9486 0.3506
C15 C 0.14493(16) 0.78330(17) 0.23851(15)
C16 C 0.21472(17) 0.78006(18) 0.14834(16)
H9 H 0.1696 0.7285 0.0815
C17 C 0.35324(17) 0.84725(17) 0.14121(15)
C18 C 0.43694(18) 0.78156(18) 0.07486(16)
H10 H 0.4013 0.6989 0.0338
C19 C 0.57052(18) 0.83484(18) 0.06804(16)
H11 H 0.6269 0.7873 0.0248
C20 C 0.62200(17) 0.95731(18) 0.12419(16)
C21 C 0.53853(17) 1.02739(18) 0.18552(16)
H12 H 0.5727 1.1129 0.2221
C22 C 0.40561(18) 0.97314(18) 0.19362(16)
H13 H 0.3490 1.0222 0.2354
C23 C -0.38874(18) 0.51114(18) 0.17069(15)
C24 C 0.20882(18) 0.87263(18) 0.55416(16)
H14 H 0.3097 0.8847 0.5630
H15 H 0.1781 0.8276 0.6186
H16 H 0.1745 0.9596 0.5523
C25 C 0.76900(19) 1.0108(2) 0.12394(17)
F1 F 0.81924(11) 0.97198(13) 0.02960(10)
F2 F 0.79014(11) 1.14361(11) 0.13550(11)
F3 F 0.85132(11) 0.97015(12) 0.21182(10)
N1 N -0.21329(14) 0.46275(15) 0.47072(13)
H17 H -0.209(2) 0.388(2) 0.5125(19)
N2 N 0.15524(13) 0.79208(14) 0.44759(12)
N3 N -0.49996(16) 0.45990(18) 0.14763(15)
N4 N -0.21615(18) 0.55701(17) -0.00069(14)
H18 H -0.159(2) 0.579(2) -0.054(2)
H19 H -0.301(2) 0.536(2) -0.027(2)
O1 O -0.04035(11) 0.64138(12) 0.12867(10)
O2 O -0.08042(12) 0.39516(12) 0.33736(11)
C26 C 0.1277(2) 0.2273(2) 0.2018(2)
H20 H 0.0733 0.1561 0.1499
H21 H 0.1149 0.2120 0.2806
H22 H 0.2254 0.2282 0.1933
O3 O 0.08434(19) 0.34940(18) 0.17537(16)
H23 H 0.0310 0.3721 0.2210
loop_
_geom_bond_atom_site_label_1
_geom_bond_atom_site_label_2
_geom_bond_site_symmetry_1
_geom_bond_site_symmetry_2
C1 C2 1_555 1_555
C2 H1 1_555 1_555
C3 C2 1_555 1_555
H2 C3 1_555 1_555
C4 C3 1_555 1_555
H3 C4 1_555 1_555
C5 C4 1_555 1_555
H4 C5 1_555 1_555
C6 C1 1_555 1_555
C7 C6 1_555 1_555
C8 C7 1_555 1_555
C9 C7 1_555 1_555
C10 C9 1_555 1_555
C11 C12 1_555 1_555
C12 C7 1_555 1_555
C13 C12 1_555 1_555
H5 C13 1_555 1_555
H6 C13 1_555 1_555
C14 H7 1_555 1_555
H8 C14 1_555 1_555
C15 C11 1_555 1_555
C16 C15 1_555 1_555
H9 C16 1_555 1_555
C17 C16 1_555 1_555
C18 C17 1_555 1_555
H10 C18 1_555 1_555
C19 C18 1_555 1_555
H11 C19 1_555 1_555
C20 C19 1_555 1_555
C21 C20 1_555 1_555
H12 C21 1_555 1_555
C22 C17 1_555 1_555
H13 C22 1_555 1_555
C23 C9 1_555 1_555
C24 H14 1_555 1_555
H15 C24 1_555 1_555
H16 C24 1_555 1_555
C25 C20 1_555 1_555
F1 C25 1_555 1_555
F2 C25 1_555 1_555
F3 C25 1_555 1_555
N1 C1 1_555 1_555
H17 N1 1_555 1_555
N2 C13 1_555 1_555
N3 C23 1_555 1_555
N4 C10 1_555 1_555
H18 N4 1_555 1_555
H19 N4 1_555 1_555
O1 C10 1_555 1_555
O2 C8 1_555 1_555
C26 H20 1_555 1_555
H21 C26 1_555 1_555
H22 C26 1_555 1_555
O3 C26 1_555 1_555
H23 O3 1_555 1_555
C5 C6 1_555 1_555
C8 N1 1_555 1_555
C11 O1 1_555 1_555
C14 C15 1_555 1_555
C14 N2 1_555 1_555
C21 C22 1_555 1_555
C24 N2 1_555 1_555

#END
