
#######################################################################
#
#                 Cambridge Crystallographic Data Centre
#                                CCDC 
#
#######################################################################
#
# If this CIF has been generated from an entry in the Cambridge 
# Structural Database, then it will include bibliographic, chemical, 
# crystal, experimental, refinement or atomic coordinate data resulting 
# from the CCDC's data processing and validation procedures.
#
#######################################################################

data_VOVHAR
_chemical_formula_moiety         'C15 H10 N2 O3'
_chemical_name_systematic        3-(4-nitrophenyl)-2H-chromen-2-imine
_symmetry_cell_setting           orthorhombic
_symmetry_space_group_name_H-M   'P 21 21 21'
_symmetry_Int_Tables_number      19
_space_group_name_Hall           'P 2ac 2ab'
loop_
_symmetry_equiv_pos_site_id
_symmetry_equiv_pos_as_xyz
1 x,y,z
2 1/2-x,-y,1/2+z
3 -x,1/2+y,1/2-z
4 1/2+x,1/2-y,-z
_cell_length_a                   3.7837(5)
_cell_length_b                   14.7712(18)
_cell_length_c                   21.858(3)
_cell_angle_alpha                90
_cell_angle_beta                 90
_cell_angle_gamma                90
_cell_volume                     1221.64
_exptl_crystal_colour            colorless
_exptl_crystal_description       block
_cell_formula_units_Z            4
loop_
_atom_site_label
_atom_site_type_symbol
_atom_site_fract_x
_atom_site_fract_y
_atom_site_fract_z
O1 O 0.5893(5) 0.43089(9) 0.78997(6)
O2 O 0.9699(6) 0.98747(11) 0.86512(9)
O3 O 0.7442(7) 0.96569(11) 0.95388(9)
N1 N 0.4724(6) 0.57283(12) 0.75444(9)
H1 H 0.3942 0.5477 0.7216
N2 N 0.8371(7) 0.93846(13) 0.90361(10)
C1 C 0.6858(7) 0.28117(15) 0.82398(10)
H2 H 0.6002 0.2599 0.7868
C2 C 0.7990(7) 0.22186(15) 0.86852(11)
H3 H 0.7868 0.1599 0.8614
C3 C 0.9309(7) 0.25340(16) 0.92390(11)
H4 H 1.0112 0.2128 0.9533
C4 C 0.9423(7) 0.34500(15) 0.93500(10)
H5 H 1.0272 0.3660 0.9723
C5 C 0.8278(6) 0.40665(14) 0.89097(9)
C6 C 0.5892(6) 0.52393(14) 0.79689(10)
C7 C 0.7220(6) 0.56016(13) 0.85503(9)
C8 C 0.8325(6) 0.50334(15) 0.89885(9)
H6 H 0.9149 0.5272 0.9355
C9 C 0.7025(6) 0.37297(13) 0.83594(9)
C10 C 0.7319(6) 0.65973(13) 0.86407(9)
C11 C 0.8678(6) 0.71905(14) 0.82050(9)
H7 H 0.9382 0.6968 0.7826
C12 C 0.8994(6) 0.81039(14) 0.83279(10)
H8 H 0.9931 0.8496 0.8037
C13 C 0.7898(7) 0.84257(14) 0.88897(9)
C14 C 0.6462(6) 0.78617(15) 0.93263(9)
H9 H 0.5697 0.8093 0.9699
C15 C 0.6178(6) 0.69546(14) 0.92029(9)
H10 H 0.5216 0.6570 0.9496
loop_
_geom_bond_atom_site_label_1
_geom_bond_atom_site_label_2
_geom_bond_site_symmetry_1
_geom_bond_site_symmetry_2
O1 C6 1_555 1_555
O2 N2 1_555 1_555
O3 N2 1_555 1_555
N1 H1 1_555 1_555
N2 C13 1_555 1_555
C1 H2 1_555 1_555
C2 C1 1_555 1_555
H3 C2 1_555 1_555
C3 C2 1_555 1_555
H4 C3 1_555 1_555
C4 C3 1_555 1_555
H5 C4 1_555 1_555
C5 C4 1_555 1_555
C6 N1 1_555 1_555
C7 C6 1_555 1_555
C8 C5 1_555 1_555
H6 C8 1_555 1_555
C9 O1 1_555 1_555
C10 C7 1_555 1_555
C11 C10 1_555 1_555
H7 C11 1_555 1_555
C12 C11 1_555 1_555
H8 C12 1_555 1_555
C13 C12 1_555 1_555
C14 C13 1_555 1_555
H9 C14 1_555 1_555
C15 C10 1_555 1_555
H10 C15 1_555 1_555
C1 C9 1_555 1_555
C5 C9 1_555 1_555
C7 C8 1_555 1_555
C14 C15 1_555 1_555

#END
