
#######################################################################
#
#                 Cambridge Crystallographic Data Centre
#                                CCDC 
#
#######################################################################
#
# If this CIF has been generated from an entry in the Cambridge 
# Structural Database, then it will include bibliographic, chemical, 
# crystal, experimental, refinement or atomic coordinate data resulting 
# from the CCDC's data processing and validation procedures.
#
#######################################################################

data_VOVHET
_chemical_formula_moiety         'C20 H24 O1'
_chemical_name_systematic        \a-Mesitylvalerophenone
_symmetry_cell_setting           triclinic
_symmetry_space_group_name_H-M   'P -1'
_symmetry_Int_Tables_number      2
_space_group_name_Hall           '-P 1'
loop_
_symmetry_equiv_pos_site_id
_symmetry_equiv_pos_as_xyz
1 x,y,z
2 -x,-y,-z
_cell_length_a                   9.224(3)
_cell_length_b                   11.916(3)
_cell_length_c                   8.691(3)
_cell_angle_alpha                102.24(2)
_cell_angle_beta                 110.08(2)
_cell_angle_gamma                101.50(2)
_cell_volume                     837.365
_chemical_melting_point          61.8-63.0deg.C
_cell_formula_units_Z            2
loop_
_atom_site_label
_atom_site_type_symbol
_atom_site_fract_x
_atom_site_fract_y
_atom_site_fract_z
O1 O 0.2592(2) 0.4600(1) 0.7043(2)
C1 C 0.3202(2) 0.4025(2) 0.3109(2)
C2 C 0.2947(3) 0.4448(2) 0.1693(3)
C3 C 0.2036(3) 0.5233(2) 0.1433(3)
C4 C 0.1391(3) 0.5606(2) 0.2591(3)
C5 C 0.1659(2) 0.5207(2) 0.4010(3)
C6 C 0.2562(2) 0.4403(2) 0.4286(2)
C7 C 0.2842(2) 0.4031(2) 0.5873(2)
C8 C 0.3531(2) 0.2972(2) 0.6060(2)
C9 C 0.2589(2) 0.1800(1) 0.4582(2)
C10 C 0.0915(2) 0.1310(2) 0.4021(2)
C11 C 0.0123(2) 0.0206(2) 0.2743(2)
C12 C 0.0928(3) -0.0424(2) 0.1981(2)
C13 C 0.2570(2) 0.0075(2) 0.2523(2)
C14 C 0.3425(2) 0.1166(1) 0.3809(2)
C15 C -0.0112(2) 0.1933(2) 0.4723(3)
C16 C 0.0030(3) -0.1631(2) 0.0604(3)
C17 C 0.5228(2) 0.1605(2) 0.4315(2)
C18 C 0.3829(2) 0.2817(2) 0.7846(2)
C19 C 0.4784(3) 0.1951(2) 0.8283(3)
C20 C 0.5127(3) 0.1897(2) 1.0120(3)
H1 H 0.386(2) 0.351(2) 0.331(2)
H2 H 0.346(2) 0.424(2) 0.094(2)
H3 H 0.185(3) 0.555(2) 0.046(3)
H4 H 0.061(3) 0.613(2) 0.230(3)
H5 H 0.118(2) 0.542(2) 0.483(2)
H6 H 0.465(1) 0.327(1) 0.607(2)
H7 H -0.112(2) -0.011(2) 0.233(2)
H8 H 0.316(2) -0.030(1) 0.198(2)
H9 H -0.107(3) 0.137(2) 0.453(3)
H10 H 0.045(3) 0.239(2) 0.601(3)
H11 H -0.035(3) 0.256(2) 0.415(3)
H12 H -0.036(3) -0.231(2) 0.103(3)
H13 H 0.068(3) -0.185(2) 0.006(3)
H14 H -0.088(3) -0.167(3) -0.040(4)
H15 H 0.557(2) 0.111(2) 0.366(3)
H16 H 0.568(3) 0.245(2) 0.424(3)
H17 H 0.593(3) 0.170(2) 0.552(3)
H18 H 0.274(2) 0.255(2) 0.791(2)
H19 H 0.457(2) 0.366(2) 0.878(2)
H20 H 0.597(2) 0.232(2) 0.823(3)
H21 H 0.417(2) 0.115(2) 0.743(2)
H22 H 0.581(3) 0.135(2) 1.046(3)
H23 H 0.589(3) 0.272(2) 1.100(3)
H24 H 0.415(3) 0.156(2) 1.025(3)
loop_
_geom_bond_atom_site_label_1
_geom_bond_atom_site_label_2
_geom_bond_site_symmetry_1
_geom_bond_site_symmetry_2
O1 C7 1_555 1_555
C1 C2 1_555 1_555
C2 C3 1_555 1_555
C3 C4 1_555 1_555
C4 C5 1_555 1_555
C5 C6 1_555 1_555
C6 C1 1_555 1_555
C7 C6 1_555 1_555
C8 C7 1_555 1_555
C9 C8 1_555 1_555
C10 C9 1_555 1_555
C11 C10 1_555 1_555
C12 C11 1_555 1_555
C13 C12 1_555 1_555
C14 C9 1_555 1_555
C15 C10 1_555 1_555
C16 C12 1_555 1_555
C17 C14 1_555 1_555
C18 C8 1_555 1_555
C19 C18 1_555 1_555
C20 C19 1_555 1_555
H1 C1 1_555 1_555
H2 C2 1_555 1_555
H3 C3 1_555 1_555
H4 C4 1_555 1_555
H5 C5 1_555 1_555
H6 C8 1_555 1_555
H7 C11 1_555 1_555
H8 C13 1_555 1_555
H9 C15 1_555 1_555
H10 C15 1_555 1_555
H11 C15 1_555 1_555
H12 C16 1_555 1_555
H13 C16 1_555 1_555
H14 C16 1_555 1_555
H15 C17 1_555 1_555
H16 C17 1_555 1_555
H17 C17 1_555 1_555
H18 C18 1_555 1_555
H19 C18 1_555 1_555
H20 C19 1_555 1_555
H21 C19 1_555 1_555
H22 C20 1_555 1_555
H23 C20 1_555 1_555
H24 C20 1_555 1_555
C13 C14 1_555 1_555

#END
