
#######################################################################
#
#                 Cambridge Crystallographic Data Centre
#                                CCDC 
#
#######################################################################
#
# If this CIF has been generated from an entry in the Cambridge 
# Structural Database, then it will include bibliographic, chemical, 
# crystal, experimental, refinement or atomic coordinate data resulting 
# from the CCDC's data processing and validation procedures.
#
#######################################################################

data_VOVHIX
_chemical_name_common            1,2-Dimesitylethanone
_chemical_formula_moiety         'C20 H24 O1'
_chemical_name_systematic        \a-Mesityl-2,4,6-trimethylacetophenone
_symmetry_cell_setting           monoclinic
_symmetry_space_group_name_H-M   'P 21/c'
_symmetry_Int_Tables_number      14
_space_group_name_Hall           '-P 2ybc'
loop_
_symmetry_equiv_pos_site_id
_symmetry_equiv_pos_as_xyz
1 x,y,z
2 -x,1/2+y,1/2-z
3 -x,-y,-z
4 x,1/2-y,1/2+z
_cell_length_a                   8.474(4)
_cell_length_b                   19.304(9)
_cell_length_c                   10.282(4)
_cell_angle_alpha                90
_cell_angle_beta                 97.42(3)
_cell_angle_gamma                90
_cell_volume                     1667.87
_exptl_crystal_colour            white
_chemical_melting_point          91.0-92.5deg.C
_cell_formula_units_Z            4
loop_
_atom_site_label
_atom_site_type_symbol
_atom_site_fract_x
_atom_site_fract_y
_atom_site_fract_z
O1 O 0.7046(3) 0.3055(1) 1.0676(2)
C1 C 0.3608(3) 0.2390(1) 1.0338(3)
C2 C 0.2538(3) 0.1849(1) 1.0407(3)
C3 C 0.2862(3) 0.1182(1) 1.0039(3)
C4 C 0.4316(3) 0.1056(1) 0.9613(3)
C5 C 0.5418(3) 0.1579(1) 0.9518(3)
C6 C 0.5046(3) 0.2256(1) 0.9865(2)
C7 C 0.6196(3) 0.2838(1) 0.9741(2)
C8 C 0.6197(3) 0.3141(1) 0.8383(2)
C9 C 0.7283(3) 0.3761(1) 0.8299(2)
C10 C 0.6680(3) 0.4435(1) 0.8316(2)
C11 C 0.7722(3) 0.4992(2) 0.8291(3)
C12 C 0.9329(3) 0.4906(2) 0.8266(3)
C13 C 0.9892(3) 0.4235(2) 0.8228(3)
C14 C 0.8898(3) 0.3663(1) 0.8246(2)
C15 C 0.3212(4) 0.3102(2) 1.0806(3)
C16 C 0.1679(4) 0.0603(2) 1.0127(3)
C17 C 0.7011(4) 0.1406(2) 0.9080(3)
C18 C 0.4930(3) 0.4577(2) 0.8341(3)
C19 C 1.0445(4) 0.5517(2) 0.8272(3)
C20 C 0.9605(4) 0.2946(2) 0.8211(3)
H1 H 0.155 0.194 1.072
H2 H 0.457 0.060 0.937
H3 H 0.514 0.327 0.806
H4 H 0.654 0.279 0.784
H5 H 0.731 0.545 0.829
H6 H 1.100 0.417 0.819
H7 H 0.405 0.341 1.070
H8 H 0.226 0.326 1.030
H9 H 0.307 0.308 1.171
H13 H 0.075 0.078 1.044
H14 H 0.140 0.040 0.929
H15 H 0.215 0.026 1.072
H19 H 0.705 0.093 0.888
H20 H 0.714 0.167 0.832
H21 H 0.784 0.152 0.976
H22 H 0.475 0.506 0.835
H23 H 0.433 0.438 0.759
H24 H 0.461 0.437 0.911
H25 H 0.986 0.594 0.830
H26 H 1.122 0.549 0.902
H27 H 1.095 0.551 0.750
H31 H 1.072 0.298 0.817
H32 H 0.943 0.270 0.898
H33 H 0.912 0.271 0.746
H10? H 0.219 0.310 1.109
H11? H 0.399 0.324 1.151
H12? H 0.321 0.342 1.010
H16? H 0.209 0.018 0.983
H17? H 0.149 0.055 1.101
H18? H 0.071 0.071 0.960
H28? H 1.150 0.536 0.825
H29? H 1.012 0.580 0.752
H30? H 1.039 0.578 0.905
loop_
_geom_bond_atom_site_label_1
_geom_bond_atom_site_label_2
_geom_bond_site_symmetry_1
_geom_bond_site_symmetry_2
O1 C7 1_555 1_555
C1 C2 1_555 1_555
C2 C3 1_555 1_555
C3 C4 1_555 1_555
C4 C5 1_555 1_555
C5 C6 1_555 1_555
C6 C1 1_555 1_555
C7 C6 1_555 1_555
C8 C7 1_555 1_555
C9 C8 1_555 1_555
C10 C9 1_555 1_555
C11 C10 1_555 1_555
C12 C11 1_555 1_555
C13 C12 1_555 1_555
C14 C9 1_555 1_555
C15 C1 1_555 1_555
C16 C3 1_555 1_555
C17 C5 1_555 1_555
C18 C10 1_555 1_555
C19 C12 1_555 1_555
C20 C14 1_555 1_555
H1 C2 1_555 1_555
H2 C4 1_555 1_555
H3 C8 1_555 1_555
H4 C8 1_555 1_555
H5 C11 1_555 1_555
H6 C13 1_555 1_555
H7 C15 1_555 1_555
H8 C15 1_555 1_555
H9 C15 1_555 1_555
H13 C16 1_555 1_555
H14 C16 1_555 1_555
H15 C16 1_555 1_555
H19 C17 1_555 1_555
H20 C17 1_555 1_555
H21 C17 1_555 1_555
H22 C18 1_555 1_555
H23 C18 1_555 1_555
H24 C18 1_555 1_555
H25 C19 1_555 1_555
H26 C19 1_555 1_555
H27 C19 1_555 1_555
H31 C20 1_555 1_555
H32 C20 1_555 1_555
H33 C20 1_555 1_555
C13 C14 1_555 1_555

#END
