
#######################################################################
#
#                 Cambridge Crystallographic Data Centre
#                                CCDC 
#
#######################################################################
#
# If this CIF has been generated from an entry in the Cambridge 
# Structural Database, then it will include bibliographic, chemical, 
# crystal, experimental, refinement or atomic coordinate data resulting 
# from the CCDC's data processing and validation procedures.
#
#######################################################################

data_VOVNEB
_chemical_formula_moiety         'C60 H54 B1 O3 P3,4(C4 H8 O1)'
_chemical_name_systematic        
'(boranetriyltris(3,5-dimethyl-4,1-phenylene))tris(diphenylphosphine) trioxide tetrahydrofuran solvate'
_symmetry_cell_setting           monoclinic
_symmetry_space_group_name_H-M   'P 21'
_symmetry_Int_Tables_number      4
_space_group_name_Hall           'P 2yb'
loop_
_symmetry_equiv_pos_site_id
_symmetry_equiv_pos_as_xyz
1 x,y,z
2 -x,1/2+y,-z
_cell_length_a                   8.6329(2)
_cell_length_b                   32.1721(8)
_cell_length_c                   12.9756(3)
_cell_angle_alpha                90
_cell_angle_beta                 105.072(2)
_cell_angle_gamma                90
_cell_volume                     3479.85
_exptl_crystal_colour            colorless
_exptl_crystal_description       block
_cell_formula_units_Z            2
loop_
_atom_site_label
_atom_site_type_symbol
_atom_site_fract_x
_atom_site_fract_y
_atom_site_fract_z
B1 B 0.8927(6) 0.48102(18) 0.2730(4)
C1 C 0.8364(5) 0.43770(14) 0.3112(4)
C2 C 0.8804(6) 0.42583(16) 0.4192(4)
C3 C 0.8396(6) 0.38706(15) 0.4499(4)
H1 H 0.8729 0.3794 0.5214
C4 C 0.7497(5) 0.35919(15) 0.3759(4)
C5 C 0.7019(6) 0.37149(16) 0.2690(4)
H2 H 0.6380 0.3537 0.2192
C6 C 0.7466(6) 0.40931(15) 0.2349(4)
C7 C 0.9802(7) 0.45311(17) 0.5071(4)
H3 H 1.0891 0.4537 0.5020
H4 H 0.9770 0.4421 0.5753
H5 H 0.9375 0.4808 0.4996
C8 C 0.6916(6) 0.41927(16) 0.1177(4)
H6 H 0.7833 0.4239 0.0903
H7 H 0.6261 0.4438 0.1075
H8 H 0.6302 0.3964 0.0805
C9 C 0.4996(5) 0.31072(16) 0.4304(4)
C10 C 0.4301(6) 0.34741(17) 0.4539(4)
H9 H 0.4856 0.3723 0.4569
C11 C 0.2794(6) 0.34732(18) 0.4730(4)
H10 H 0.2339 0.3720 0.4884
C12 C 0.1973(6) 0.31010(19) 0.4689(4)
H11 H 0.0966 0.3098 0.4824
C13 C 0.2629(6) 0.27413(18) 0.4453(5)
H12 H 0.2072 0.2493 0.4441
C14 C 0.4125(6) 0.27377(18) 0.4229(5)
H13 H 0.4538 0.2492 0.4032
C15 C 0.7122(6) 0.27251(15) 0.3188(4)
C16 C 0.8369(6) 0.24416(16) 0.3357(5)
H14 H 0.9129 0.2434 0.4013
C17 C 0.8494(8) 0.21681(19) 0.2555(5)
H15 H 0.9334 0.1978 0.2677
C18 C 0.7375(9) 0.2177(2) 0.1574(6)
H16 H 0.7483 0.2001 0.1030
C19 C 0.6081(8) 0.2453(2) 0.1405(5)
H17 H 0.5320 0.2456 0.0749
C20 C 0.5928(7) 0.27158(18) 0.2190(5)
H18 H 0.5042 0.2891 0.2078
C21 C 0.8609(5) 0.52360(15) 0.3253(4)
C22 C 0.7027(5) 0.53586(15) 0.3245(4)
C23 C 0.6747(6) 0.57526(15) 0.3585(4)
H19 H 0.5701 0.5833 0.3554
C24 C 0.8006(5) 0.60326(14) 0.3973(4)
C25 C 0.9556(5) 0.59068(14) 0.4032(4)
H20 H 1.0398 0.6088 0.4316
C26 C 0.9896(6) 0.55188(15) 0.3680(4)
C27 C 0.5607(6) 0.50791(18) 0.2825(5)
H21 H 0.5167 0.5131 0.2078
H22 H 0.4806 0.5134 0.3201
H23 H 0.5941 0.4794 0.2929
C28 C 1.1607(6) 0.54091(16) 0.3788(5)
H24 H 1.2285 0.5627 0.4164
H25 H 1.1783 0.5377 0.3091
H26 H 1.1857 0.5154 0.4177
C29 C 0.5757(6) 0.65982(16) 0.4552(4)
C30 C 0.5382(8) 0.6332(2) 0.5304(6)
H27 H 0.6115 0.6130 0.5636
C31 C 0.3892(8) 0.6368(3) 0.5561(6)
H28 H 0.3620 0.6185 0.6042
C32 C 0.2861(7) 0.6676(2) 0.5089(6)
H29 H 0.1890 0.6707 0.5266
C33 C 0.3222(7) 0.6934(2) 0.4377(6)
H30 H 0.2500 0.7140 0.4056
C34 C 0.4677(6) 0.68935(19) 0.4121(6)
H31 H 0.4917 0.7078 0.3632
C35 C 0.7739(6) 0.68716(16) 0.3199(4)
C36 C 0.6784(7) 0.6776(2) 0.2208(5)
H32 H 0.6083 0.6552 0.2119
C37 C 0.6871(10) 0.7017(3) 0.1338(6)
H33 H 0.6246 0.6945 0.0663
C38 C 0.7814(10) 0.7343(2) 0.1444(6)
H34 H 0.7816 0.7504 0.0850
C39 C 0.8814(9) 0.74498(19) 0.2437(7)
H35 H 0.9504 0.7676 0.2509
C40 C 0.8752(6) 0.72096(16) 0.3319(5)
H36 H 0.9396 0.7277 0.3990
C41 C 0.9840(5) 0.48195(15) 0.1834(3)
C42 C 0.9278(6) 0.50681(15) 0.0917(4)
C43 C 1.0066(6) 0.50645(15) 0.0108(4)
H37 H 0.9656 0.5222 -0.0503
C44 C 1.1447(6) 0.48319(16) 0.0190(4)
C45 C 1.2041(6) 0.45899(14) 0.1096(4)
H38 H 1.2966 0.4433 0.1160
C46 C 1.1250(5) 0.45807(14) 0.1916(4)
C47 C 0.7757(6) 0.53314(17) 0.0736(5)
H39 H 0.7914 0.5546 0.1267
H40 H 0.6875 0.5158 0.0787
H41 H 0.7528 0.5455 0.0039
C48 C 1.1973(6) 0.43086(17) 0.2870(4)
H42 H 1.2950 0.4187 0.2789
H43 H 1.1230 0.4092 0.2919
H44 H 1.2197 0.4474 0.3508
C49 C 1.1799(6) 0.52302(16) -0.1733(4)
C50 C 1.2722(7) 0.5582(2) -0.1564(5)
H45 H 1.3662 0.5589 -0.1015
C51 C 1.2263(8) 0.5927(2) -0.2202(5)
H46 H 1.2893 0.6166 -0.2065
C52 C 1.0941(7) 0.59287(18) -0.3012(5)
H47 H 1.0636 0.6166 -0.3423
C53 C 1.0015(8) 0.5563(2) -0.3232(5)
H48 H 0.9126 0.5553 -0.3818
C54 C 1.0418(8) 0.52213(19) -0.2588(5)
H49 H 0.9779 0.4985 -0.2717
C55 C 1.1639(8) 0.43284(19) -0.1582(5)
C56 C 1.2585(11) 0.4068(3) -0.2003(6)
H50 H 1.3666 0.4127 -0.1914
C57 C 1.0049(9) 0.42087(19) -0.1700(5)
H51 H 0.9387 0.4363 -0.1382
C58 C 0.9465(13) 0.3859(2) -0.2293(6)
H52 H 0.8398 0.3785 -0.2376
C59 C 1.191(2) 0.3716(3) -0.2558(7)
H53 H 1.2580 0.3538 -0.2805
C60 C 1.038(2) 0.3620(3) -0.2759(8)
H54 H 0.9949 0.3398 -0.3200
O1 O 0.8211(4) 0.29719(10) 0.5249(3)
O2 O 0.9016(4) 0.66928(10) 0.5319(3)
O3 O 1.4235(4) 0.47787(15) -0.0430(3)
P1 P 0.70533(14) 0.30861(4) 0.42197(10)
P2 P 0.77397(14) 0.65619(4) 0.43584(10)
P3 P 1.24610(16) 0.47908(5) -0.08555(10)
C61 C 0.2035(8) 0.3386(2) 0.0554(7)
H55 H 0.2101 0.3445 -0.0166
H56 H 0.2853 0.3546 0.1051
C62 C 0.0413(9) 0.3492(2) 0.0677(6)
H57 H -0.0400 0.3456 0.0009
H58 H 0.0378 0.3776 0.0922
C63 C 0.0178(9) 0.3187(2) 0.1504(6)
H59 H 0.0632 0.3291 0.2220
H60 H -0.0951 0.3127 0.1414
C64 C 0.1058(9) 0.2812(2) 0.1287(5)
H61 H 0.1560 0.2670 0.1950
H62 H 0.0323 0.2620 0.0828
O4 O 0.2243(5) 0.29472(15) 0.0781(4)
C65 C 0.6802(14) 0.6782(3) 0.8265(10)
H63 H 0.7129 0.7029 0.8696
H64 H 0.6145 0.6867 0.7571
C66 C 0.8173(16) 0.6560(3) 0.8151(11)
H65 H 0.9135 0.6655 0.8667
H66 H 0.8315 0.6594 0.7439
C67 C 0.780(2) 0.6104(4) 0.8358(16)
H67 H 0.7545 0.5944 0.7702
H68 H 0.8696 0.5974 0.8867
O5 O 0.6522(10) 0.6139(4) 0.8760(13)
C68 C 0.5937(13) 0.6518(3) 0.8759(10)
H69 H 0.6032 0.6609 0.9486
H70 H 0.4811 0.6522 0.8376
C69 C 0.5875(14) 0.3450(3) 0.8121(15)
H71 H 0.4917 0.3622 0.7958
H72 H 0.6807 0.3630 0.8272
C70 C 0.5879(16) 0.3213(8) 0.7349(12)
H73 H 0.6492 0.3343 0.6909
H74 H 0.4785 0.3181 0.6916
C71 C 0.649(3) 0.2834(6) 0.7634(16)
H75 H 0.5750 0.2620 0.7279
H76 H 0.7497 0.2799 0.7443
C72 C 0.672(2) 0.2809(4) 0.8683(12)
H77 H 0.7860 0.2810 0.9037
H78 H 0.6253 0.2556 0.8872
O6 O 0.5908(12) 0.3190(3) 0.9012(7)
C73 C 0.849(2) 0.1715(5) 0.8821(9)
H79 H 0.9394 0.1816 0.9376
H80 H 0.8112 0.1937 0.8311
C74 C 0.894(2) 0.1350(6) 0.8296(11)
H81 H 0.9860 0.1210 0.8754
H82 H 0.9184 0.1424 0.7630
C75 C 0.740(3) 0.1074(5) 0.8096(16)
H83 H 0.6500 0.1191 0.7562
H84 H 0.7584 0.0790 0.7910
C76 C 0.722(2) 0.1108(6) 0.9069(14)
H85 H 0.8103 0.0975 0.9580
H86 H 0.6222 0.0982 0.9119
O7 O 0.7213(11) 0.1569(5) 0.9273(8)
loop_
_geom_bond_atom_site_label_1
_geom_bond_atom_site_label_2
_geom_bond_site_symmetry_1
_geom_bond_site_symmetry_2
B1 C1 1_555 1_555
C1 C2 1_555 1_555
C2 C3 1_555 1_555
C3 H1 1_555 1_555
C4 C3 1_555 1_555
C5 C4 1_555 1_555
H2 C5 1_555 1_555
C6 C1 1_555 1_555
C7 C2 1_555 1_555
H3 C7 1_555 1_555
H4 C7 1_555 1_555
H5 C7 1_555 1_555
C8 C6 1_555 1_555
H6 C8 1_555 1_555
H7 C8 1_555 1_555
H8 C8 1_555 1_555
C9 C10 1_555 1_555
C10 H9 1_555 1_555
C11 C10 1_555 1_555
H10 C11 1_555 1_555
C12 C11 1_555 1_555
H11 C12 1_555 1_555
C13 C12 1_555 1_555
H12 C13 1_555 1_555
C14 C9 1_555 1_555
H13 C14 1_555 1_555
C15 C16 1_555 1_555
C16 H14 1_555 1_555
C17 C16 1_555 1_555
H15 C17 1_555 1_555
C18 C17 1_555 1_555
H16 C18 1_555 1_555
C19 C18 1_555 1_555
H17 C19 1_555 1_555
C20 C15 1_555 1_555
H18 C20 1_555 1_555
C21 B1 1_555 1_555
C22 C21 1_555 1_555
C23 C22 1_555 1_555
H19 C23 1_555 1_555
C24 C23 1_555 1_555
C25 C24 1_555 1_555
H20 C25 1_555 1_555
C26 C21 1_555 1_555
C27 C22 1_555 1_555
H21 C27 1_555 1_555
H22 C27 1_555 1_555
H23 C27 1_555 1_555
C28 C26 1_555 1_555
H24 C28 1_555 1_555
H25 C28 1_555 1_555
H26 C28 1_555 1_555
C29 C30 1_555 1_555
C30 H27 1_555 1_555
C31 C30 1_555 1_555
H28 C31 1_555 1_555
C32 C31 1_555 1_555
H29 C32 1_555 1_555
C33 C32 1_555 1_555
H30 C33 1_555 1_555
C34 C29 1_555 1_555
H31 C34 1_555 1_555
C35 C36 1_555 1_555
C36 H32 1_555 1_555
C37 C36 1_555 1_555
H33 C37 1_555 1_555
C38 C37 1_555 1_555
H34 C38 1_555 1_555
C39 C38 1_555 1_555
H35 C39 1_555 1_555
C40 C35 1_555 1_555
H36 C40 1_555 1_555
C41 B1 1_555 1_555
C42 C41 1_555 1_555
C43 C42 1_555 1_555
H37 C43 1_555 1_555
C44 C43 1_555 1_555
C45 C44 1_555 1_555
H38 C45 1_555 1_555
C46 C41 1_555 1_555
C47 C42 1_555 1_555
H39 C47 1_555 1_555
H40 C47 1_555 1_555
H41 C47 1_555 1_555
C48 C46 1_555 1_555
H42 C48 1_555 1_555
H43 C48 1_555 1_555
H44 C48 1_555 1_555
C49 C50 1_555 1_555
C50 H45 1_555 1_555
C51 C50 1_555 1_555
H46 C51 1_555 1_555
C52 C51 1_555 1_555
H47 C52 1_555 1_555
C53 C52 1_555 1_555
H48 C53 1_555 1_555
C54 C49 1_555 1_555
H49 C54 1_555 1_555
C55 C56 1_555 1_555
C56 H50 1_555 1_555
C57 C55 1_555 1_555
H51 C57 1_555 1_555
C58 C57 1_555 1_555
H52 C58 1_555 1_555
C59 C56 1_555 1_555
H53 C59 1_555 1_555
C60 C58 1_555 1_555
H54 C60 1_555 1_555
O1 P1 1_555 1_555
O2 P2 1_555 1_555
O3 P3 1_555 1_555
P1 C4 1_555 1_555
P2 C24 1_555 1_555
P3 C44 1_555 1_555
C61 H55 1_555 1_555
H56 C61 1_555 1_555
C62 C61 1_555 1_555
H57 C62 1_555 1_555
H58 C62 1_555 1_555
C63 C62 1_555 1_555
H59 C63 1_555 1_555
H60 C63 1_555 1_555
C64 C63 1_555 1_555
H61 C64 1_555 1_555
H62 C64 1_555 1_555
O4 C61 1_555 1_555
C65 H63 1_555 1_555
H64 C65 1_555 1_555
C66 C65 1_555 1_555
H65 C66 1_555 1_555
H66 C66 1_555 1_555
C67 C66 1_555 1_555
H67 C67 1_555 1_555
H68 C67 1_555 1_555
O5 C67 1_555 1_555
C68 C65 1_555 1_555
H69 C68 1_555 1_555
H70 C68 1_555 1_555
C69 H71 1_555 1_555
H72 C69 1_555 1_555
C70 C69 1_555 1_555
H73 C70 1_555 1_555
H74 C70 1_555 1_555
C71 C70 1_555 1_555
H75 C71 1_555 1_555
H76 C71 1_555 1_555
C72 C71 1_555 1_555
H77 C72 1_555 1_555
H78 C72 1_555 1_555
O6 C69 1_555 1_555
C73 H79 1_555 1_555
H80 C73 1_555 1_555
C74 C73 1_555 1_555
H81 C74 1_555 1_555
H82 C74 1_555 1_555
C75 C74 1_555 1_555
H83 C75 1_555 1_555
H84 C75 1_555 1_555
C76 C75 1_555 1_555
H85 C76 1_555 1_555
H86 C76 1_555 1_555
O7 C73 1_555 1_555
C5 C6 1_555 1_555
C9 P1 1_555 1_555
C13 C14 1_555 1_555
C15 P1 1_555 1_555
C19 C20 1_555 1_555
C25 C26 1_555 1_555
C29 P2 1_555 1_555
C33 C34 1_555 1_555
C35 P2 1_555 1_555
C39 C40 1_555 1_555
C45 C46 1_555 1_555
C49 P3 1_555 1_555
C53 C54 1_555 1_555
C55 P3 1_555 1_555
C59 C60 1_555 1_555
C64 O4 1_555 1_555
O5 C68 1_555 1_555
C72 O6 1_555 1_555
C76 O7 1_555 1_555

#END
