
#######################################################################
#
#                 Cambridge Crystallographic Data Centre
#                                CCDC 
#
#######################################################################
#
# If this CIF has been generated from an entry in the Cambridge 
# Structural Database, then it will include bibliographic, chemical, 
# crystal, experimental, refinement or atomic coordinate data resulting 
# from the CCDC's data processing and validation procedures.
#
#######################################################################

data_VOVRAB
_chemical_formula_moiety         'C6 H6 N2 O1,C5 H4 N4 S1'
_chemical_name_systematic        
'Isonicotinamide 1,7-dihydro-6H-purine-6-thione'
_symmetry_cell_setting           orthorhombic
_symmetry_space_group_name_H-M   'P b c n'
_symmetry_Int_Tables_number      60
_space_group_name_Hall           '-P 2n 2ab'
loop_
_symmetry_equiv_pos_site_id
_symmetry_equiv_pos_as_xyz
1 x,y,z
2 1/2-x,1/2-y,1/2+z
3 1/2+x,1/2-y,-z
4 -x,y,1/2-z
5 -x,-y,-z
6 1/2+x,1/2+y,1/2-z
7 1/2-x,1/2+y,z
8 x,-y,1/2+z
_cell_length_a                   11.241(6)
_cell_length_b                   12.972(5)
_cell_length_c                   17.291(7)
_cell_angle_alpha                90
_cell_angle_beta                 90
_cell_angle_gamma                90
_cell_volume                     2521.34
_exptl_crystal_colour            colorless
_exptl_crystal_description       block
_cell_formula_units_Z            8
loop_
_atom_site_label
_atom_site_type_symbol
_atom_site_fract_x
_atom_site_fract_y
_atom_site_fract_z
S1 S 0.49560(9) 0.22963(6) 0.12051(5)
N1 N 0.2166(3) 0.05226(16) 0.26444(13)
N2 N 0.3144(2) -0.09835(17) 0.21427(13)
N3 N 0.3060(2) 0.20685(17) 0.21586(12)
H1 H 0.3011 0.2730 0.2156
N4 N 0.4603(2) -0.02208(16) 0.14713(14)
H2 H 0.5226 -0.0167 0.1185
C1 C 0.2235(3) 0.1536(2) 0.25829(17)
H3 H 0.1673 0.1922 0.2851
C2 C 0.3038(3) 0.0043(2) 0.22107(16)
C3 C 0.4114(3) -0.1091(2) 0.16862(17)
H4 H 0.4410 -0.1730 0.1537
C4 C 0.3970(3) 0.1591(2) 0.17313(17)
C5 C 0.3930(3) 0.05770(19) 0.17896(15)
O1 O 0.0008(2) 0.16505(13) 0.11580(12)
N5 N -0.0102(2) -0.00322(17) 0.13891(13)
H5 H 0.0161 -0.0623 0.1299
H6 H -0.0643 0.0053 0.1720
N6 N 0.3337(2) 0.03626(16) -0.05188(14)
C6 C 0.2762(3) -0.0438(2) -0.02105(17)
H7 H 0.3009 -0.1097 -0.0349
C7 C 0.1838(3) -0.0354(2) 0.02931(16)
H8 H 0.1498 -0.0947 0.0500
C8 C 0.1399(3) 0.06003(19) 0.05007(15)
C9 C 0.0391(3) 0.07781(18) 0.10438(15)
C10 C 0.2921(3) 0.1289(2) -0.03238(17)
H9 H 0.3288 0.1867 -0.0534
C11 C 0.1966(3) 0.1438(2) 0.01792(16)
H10 H 0.1713 0.2102 0.0297
loop_
_geom_bond_atom_site_label_1
_geom_bond_atom_site_label_2
_geom_bond_site_symmetry_1
_geom_bond_site_symmetry_2
S1 C4 1_555 1_555
N1 C1 1_555 1_555
N2 C2 1_555 1_555
N3 H1 1_555 1_555
N4 H2 1_555 1_555
C1 N3 1_555 1_555
H3 C1 1_555 1_555
C2 N1 1_555 1_555
C3 N2 1_555 1_555
H4 C3 1_555 1_555
C4 N3 1_555 1_555
C5 N4 1_555 1_555
O1 C9 1_555 1_555
N5 H5 1_555 1_555
H6 N5 1_555 1_555
N6 C6 1_555 1_555
C6 H7 1_555 1_555
C7 C6 1_555 1_555
H8 C7 1_555 1_555
C8 C7 1_555 1_555
C9 N5 1_555 1_555
C10 N6 1_555 1_555
H9 C10 1_555 1_555
C11 C8 1_555 1_555
H10 C11 1_555 1_555
N4 C3 1_555 1_555
C2 C5 1_555 1_555
C4 C5 1_555 1_555
C8 C9 1_555 1_555
C10 C11 1_555 1_555

#END
