
#######################################################################
#
#                 Cambridge Crystallographic Data Centre
#                                CCDC 
#
#######################################################################
#
# If this CIF has been generated from an entry in the Cambridge 
# Structural Database, then it will include bibliographic, chemical, 
# crystal, experimental, refinement or atomic coordinate data resulting 
# from the CCDC's data processing and validation procedures.
#
#######################################################################

data_VOVSUU
_chemical_formula_moiety         'C23 H27 N1 O5'
_chemical_name_systematic        
3S,5S-4-t-Butoxycarbonyl-3-(\a-hydroxy)benzyl-5-benzyl-2,3,5,6-tetrahydro-4H-1,4-oxazin-2-one
_symmetry_cell_setting           monoclinic
_symmetry_space_group_name_H-M   'P 21'
_symmetry_Int_Tables_number      4
_space_group_name_Hall           'P 2yb'
loop_
_symmetry_equiv_pos_site_id
_symmetry_equiv_pos_as_xyz
1 x,y,z
2 -x,1/2+y,-z
_cell_length_a                   9.243(2)
_cell_length_b                   8.998(1)
_cell_length_c                   13.113(1)
_cell_angle_alpha                90
_cell_angle_beta                 93.74(1)
_cell_angle_gamma                90
_cell_volume                     1088.27
_cell_formula_units_Z            2
loop_
_atom_site_label
_atom_site_type_symbol
_atom_site_fract_x
_atom_site_fract_y
_atom_site_fract_z
O1 O 0.5530(2) 0.6921 0.5002(2)
O2 O 0.3448(3) 0.9407(4) 0.6166(2)
O3 O 0.5705(3) 0.9475(4) 0.6722(2)
O4 O 0.4104(2) 0.4793(4) 0.7842(2)
O5 O 0.6144(3) 0.5285(4) 0.8826(2)
N1 N 0.5655(3) 0.6521(4) 0.7340(2)
C1 C 0.4515(4) 0.8737(5) 0.6488(2)
C2 C 0.7054(4) 0.8612(5) 0.6801(3)
C3 C 0.6996(3) 0.7374(5) 0.7556(2)
C4 C 0.4494(3) 0.7059(5) 0.6624(2)
C5 C 0.4431(3) 0.6280(5) 0.5564(2)
C6 C 0.2931(3) 0.6376(5) 0.5025(2)
C7 C 0.1842(4) 0.5495(6) 0.5363(2)
C8 C 0.0455(4) 0.5507(6) 0.4884(3)
C9 C 0.0167(5) 0.6407(6) 0.4068(3)
C10 C 0.1234(5) 0.7269(6) 0.3711(3)
C11 C 0.2625(4) 0.7281(5) 0.4185(3)
C12 C 0.8379(3) 0.6440(5) 0.7519(3)
C13 C 0.5350(3) 0.5492(5) 0.8079(2)
C14 C 0.3595(4) 0.3636(5) 0.8533(3)
C15 C 0.4615(6) 0.2338(7) 0.8551(4)
C16 C 0.2128(5) 0.3223(7) 0.8015(4)
C17 C 0.3423(6) 0.4265(8) 0.9574(4)
C18 C 0.9615(3) 0.7128(5) 0.8130(2)
C19 C 1.0650(4) 0.8000(6) 0.7697(3)
C20 C 1.1726(4) 0.8703(6) 0.8297(4)
C21 C 1.1813(4) 0.8536(7) 0.9331(4)
C22 C 0.9733(4) 0.6946(7) 0.9185(3)
C23 C 1.0848(4) 0.7652(8) 0.9783(3)
H1 H 0.7834 0.9250 0.7009
H2 H 0.7214 0.8201 0.6150
H3 H 0.6974 0.7789 0.8220
H4 H 0.3609 0.6824 0.6919
H5 H 0.2042 0.4861 0.5936
H6 H -0.0282 0.4886 0.5126
H7 H -0.0783 0.6433 0.3744
H8 H 0.1025 0.7872 0.3127
H9 H 0.3355 0.7897 0.3935
H10 H 0.8624 0.6352 0.6829
H11 H 0.8204 0.5475 0.7784
H12 H 0.4658 0.1950 0.7879
H13 H 0.4279 0.1584 0.8987
H14 H 0.5554 0.2648 0.8799
H15 H 0.1518 0.4072 0.7981
H16 H 0.1694 0.2464 0.8397
H17 H 0.2256 0.2870 0.7343
H18 H 0.4326 0.4648 0.9842
H19 H 0.3112 0.3501 1.0012
H20 H 0.2722 0.5035 0.9529
H21 H 1.0618 0.8111 0.6976
H22 H 1.2412 0.9307 0.7985
H23 H 1.2549 0.9033 0.9737
H24 H 0.9054 0.6334 0.9504
H25 H 1.0927 0.7508 1.0503
H26 H 0.4659 0.5257 0.5669
H27 H 0.5748 0.6453 0.4531
loop_
_geom_bond_atom_site_label_1
_geom_bond_atom_site_label_2
_geom_bond_site_symmetry_1
_geom_bond_site_symmetry_2
O1 C5 1_555 1_555
O2 C1 1_555 1_555
O3 C1 1_555 1_555
O4 C13 1_555 1_555
O5 C13 1_555 1_555
N1 C3 1_555 1_555
C1 C4 1_555 1_555
C2 O3 1_555 1_555
C3 C2 1_555 1_555
C4 N1 1_555 1_555
C5 C4 1_555 1_555
C6 C5 1_555 1_555
C7 C6 1_555 1_555
C8 C7 1_555 1_555
C9 C8 1_555 1_555
C10 C9 1_555 1_555
C11 C6 1_555 1_555
C12 C3 1_555 1_555
C13 N1 1_555 1_555
C14 O4 1_555 1_555
C15 C14 1_555 1_555
C16 C14 1_555 1_555
C17 C14 1_555 1_555
C18 C12 1_555 1_555
C19 C18 1_555 1_555
C20 C19 1_555 1_555
C21 C20 1_555 1_555
C22 C18 1_555 1_555
C23 C21 1_555 1_555
H1 C2 1_555 1_555
H2 C2 1_555 1_555
H3 C3 1_555 1_555
H4 C4 1_555 1_555
H5 C7 1_555 1_555
H6 C8 1_555 1_555
H7 C9 1_555 1_555
H8 C10 1_555 1_555
H9 C11 1_555 1_555
H10 C12 1_555 1_555
H11 C12 1_555 1_555
H12 C15 1_555 1_555
H13 C15 1_555 1_555
H14 C15 1_555 1_555
H15 C16 1_555 1_555
H16 C16 1_555 1_555
H17 C16 1_555 1_555
H18 C17 1_555 1_555
H19 C17 1_555 1_555
H20 C17 1_555 1_555
H21 C19 1_555 1_555
H22 C20 1_555 1_555
H23 C21 1_555 1_555
H24 C22 1_555 1_555
H25 C23 1_555 1_555
H26 C5 1_555 1_555
H27 O1 1_555 1_555
C10 C11 1_555 1_555
C22 C23 1_555 1_555

#END
