
#######################################################################
#
#                 Cambridge Crystallographic Data Centre
#                                CCDC 
#
#######################################################################
#
# If this CIF has been generated from an entry in the Cambridge 
# Structural Database, then it will include bibliographic, chemical, 
# crystal, experimental, refinement or atomic coordinate data resulting 
# from the CCDC's data processing and validation procedures.
#
#######################################################################

data_VOVSOO
_chemical_formula_moiety         'C30 H30 Br1 N1 O6'
_chemical_name_systematic        
3S,5S-4-t-Butoxycarbonyl-5-benzyl-3-(\a-(p-bromophenylcarboxy)benzyl)-2,3,5,6-tetrahydro-4H-1,4-oxazin-2-one
_symmetry_cell_setting           orthorhombic
_symmetry_space_group_name_H-M   'P 21 21 21'
_symmetry_Int_Tables_number      19
_space_group_name_Hall           'P 2ac 2ab'
loop_
_symmetry_equiv_pos_site_id
_symmetry_equiv_pos_as_xyz
1 x,y,z
2 1/2+x,1/2-y,-z
3 -x,1/2+y,1/2-z
4 1/2-x,-y,1/2+z
_cell_length_a                   16.724(2)
_cell_length_b                   29.153(2)
_cell_length_c                   5.836(3)
_cell_angle_alpha                90
_cell_angle_beta                 90
_cell_angle_gamma                90
_cell_volume                     2845.37
_cell_formula_units_Z            4
loop_
_atom_site_label
_atom_site_type_symbol
_atom_site_fract_x
_atom_site_fract_y
_atom_site_fract_z
Br1 Br 0.4669(1) 0.95257(9) 0.7659(7)
O1 O 0.084(1) 0.9018(5) 1.034(3)
O2 O 0.118(1) 0.9313(8) 1.378(3)
O3 O 0.098(1) 0.8014(7) 0.899(3)
O4 O 0.037(1) 0.7905(5) 1.244(5)
O5 O -0.2286(8) 0.8324(4) 0.997(2)
O6 O -0.1508(7) 0.8651(4) 0.728(3)
N1 N -0.099(1) 0.8319(6) 1.047(3)
C1 C 0.214(1) 0.9320(8) 1.075(4)
C2 C 0.272(1) 0.9572(7) 1.189(4)
C3 C 0.346(1) 0.9633(8) 1.104(4)
C4 C 0.364(1) 0.9452(8) 0.897(5)
C5 C 0.311(1) 0.9200(7) 0.773(5)
C6 C 0.233(1) 0.9131(7) 0.856(5)
C7 C 0.132(2) 0.925(1) 1.196(6)
C8 C -0.155(1) 0.987(1) 1.146(6)
C9 C -0.042(1) 0.958(1) 0.846(4)
C10 C 0.004(1) 0.8929(8) 1.105(4)
C11 C -0.018(1) 0.8478(8) 0.983(4)
C12 C -0.049(1) 0.9342(8) 1.042(6)
C13 C -0.106(2) 0.946(1) 1.192(4)
C14 C -0.089(2) 0.996(1) 0.806(6)
C15 C 0.047(2) 0.811(1) 1.026(6)
C16 C -0.107(1) 0.7987(8) 1.230(6)
C17 C -0.029(2) 0.8003(7) 1.386(4)
C18 C -0.121(1) 0.7501(8) 1.147(4)
C19 C -0.211(2) 0.7142(8) 1.420(5)
C20 C -0.078(2) 0.689(1) 1.445(7)
C21 C -0.135(2) 0.717(1) 1.333(5)
C22 C -0.169(2) 0.663(1) 1.728(7)
C23 C -0.094(2) 0.663(1) 1.642(7)
C24 C -0.145(2) 1.009(1) 0.951(7)
C25 C -0.159(1) 0.8449(8) 0.899(4)
C26 C -0.229(2) 0.686(1) 1.621(6)
C27 C -0.306(1) 0.8472(7) 0.895(4)
C28 C -0.367(1) 0.824(1) 1.061(5)
C29 C -0.314(2) 0.820(1) 0.659(6)
C30 C -0.310(1) 0.894(1) 0.884(9)
H1 H 0.2613 0.9716 1.3315
H2 H 0.3857 0.9806 1.1847
H3 H 0.3262 0.9077 0.6260
H4 H 0.1952 0.8966 0.7684
H5 H -0.1938 0.9966 1.2516
H6 H -0.0052 0.9483 0.7326
H7 H 0.0011 0.8885 1.2659
H8 H -0.0177 0.8535 0.8231
H9 H -0.1164 0.9288 1.3284
H10 H -0.0806 1.0118 0.6674
H11 H -0.1515 0.8072 1.3196
H12 H -0.0238 0.8299 1.4507
H13 H -0.0336 0.7781 1.5036
H14 H -0.0734 0.7397 1.0732
H15 H -0.1638 0.7499 1.0428
H16 H -0.2575 0.7284 1.3706
H17 H -0.0263 0.6911 1.3690
H18 H -0.1720 0.6457 1.8710
H19 H -0.0485 0.6443 1.6932
H20 H -0.1755 1.0361 0.9199
H21 H -0.2813 0.6814 1.6879
H22 H -0.4187 0.8298 1.0048
H23 H -0.3589 0.8363 1.2055
H24 H -0.3575 0.7915 1.0618
H25 H -0.3634 0.8293 0.5807
H26 H -0.3141 0.7882 0.6735
H27 H -0.2712 0.8287 0.5522
H28 H -0.2649 0.9068 0.8044
H29 H -0.3069 0.9059 1.0413
H30 H -0.3574 0.9043 0.8183
loop_
_geom_bond_atom_site_label_1
_geom_bond_atom_site_label_2
_geom_bond_site_symmetry_1
_geom_bond_site_symmetry_2
Br1 C4 1_555 1_555
O1 C7 1_555 1_555
O2 C7 1_555 1_555
O3 C15 1_555 1_555
O4 C15 1_555 1_555
O5 C25 1_555 1_555
O6 C25 1_555 1_555
N1 C11 1_555 1_555
C1 C2 1_555 1_555
C2 C3 1_555 1_555
C3 C4 1_555 1_555
C4 C5 1_555 1_555
C5 C6 1_555 1_555
C6 C1 1_555 1_555
C7 C1 1_555 1_555
C8 C13 1_555 1_555
C9 C12 1_555 1_555
C10 O1 1_555 1_555
C11 C10 1_555 1_555
C12 C10 1_555 1_555
C13 C12 1_555 1_555
C14 C9 1_555 1_555
C15 C11 1_555 1_555
C16 N1 1_555 1_555
C17 O4 1_555 1_555
C18 C16 1_555 1_555
C19 C21 1_555 1_555
C20 C21 1_555 1_555
C21 C18 1_555 1_555
C22 C23 1_555 1_555
C23 C20 1_555 1_555
C24 C8 1_555 1_555
C25 N1 1_555 1_555
C26 C19 1_555 1_555
C27 O5 1_555 1_555
C28 C27 1_555 1_555
C29 C27 1_555 1_555
C30 C27 1_555 1_555
H1 C2 1_555 1_555
H2 C3 1_555 1_555
H3 C5 1_555 1_555
H4 C6 1_555 1_555
H5 C8 1_555 1_555
H6 C9 1_555 1_555
H7 C10 1_555 1_555
H8 C11 1_555 1_555
H9 C13 1_555 1_555
H10 C14 1_555 1_555
H11 C16 1_555 1_555
H12 C17 1_555 1_555
H13 C17 1_555 1_555
H14 C18 1_555 1_555
H15 C18 1_555 1_555
H16 C19 1_555 1_555
H17 C20 1_555 1_555
H18 C22 1_555 1_555
H19 C23 1_555 1_555
H20 C24 1_555 1_555
H21 C26 1_555 1_555
H22 C28 1_555 1_555
H23 C28 1_555 1_555
H24 C28 1_555 1_555
H25 C29 1_555 1_555
H26 C29 1_555 1_555
H27 C29 1_555 1_555
H28 C30 1_555 1_555
H29 C30 1_555 1_555
H30 C30 1_555 1_555
C14 C24 1_555 1_555
C16 C17 1_555 1_555
C22 C26 1_555 1_555

#END
