
#######################################################################
#
#                 Cambridge Crystallographic Data Centre
#                                CCDC 
#
#######################################################################
#
# If this CIF has been generated from an entry in the Cambridge 
# Structural Database, then it will include bibliographic, chemical, 
# crystal, experimental, refinement or atomic coordinate data resulting 
# from the CCDC's data processing and validation procedures.
#
#######################################################################

data_VOVSIK
_chemical_formula_moiety         'C34 H23 N1 O4'
_chemical_name_systematic        
4-((3,6-bis(4-Hydroxyphenyl)isoquinolin-5-yl)(4-hydroxyphenyl)methylene)cyclohexa-2,5-dien-1-one
_symmetry_cell_setting           rhombohedral
_symmetry_space_group_name_H-M   'R -3'
_symmetry_Int_Tables_number      148
_space_group_name_Hall           '-R 3'
loop_
_symmetry_equiv_pos_site_id
_symmetry_equiv_pos_as_xyz
1 x,y,z
2 -y,x-y,z
3 -x+y,-x,z
4 2/3+x,1/3+y,1/3+z
5 2/3-y,1/3+x-y,1/3+z
6 2/3-x+y,1/3-x,1/3+z
7 1/3+x,2/3+y,2/3+z
8 1/3-y,2/3+x-y,2/3+z
9 1/3-x+y,2/3-x,2/3+z
10 -x,-y,-z
11 y,-x+y,-z
12 x-y,x,-z
13 1/3-x,2/3-y,2/3-z
14 1/3+y,2/3-x+y,2/3-z
15 1/3+x-y,2/3+x,2/3-z
16 2/3-x,1/3-y,1/3-z
17 2/3+y,1/3-x+y,1/3-z
18 2/3+x-y,1/3+x,1/3-z
_cell_length_a                   34.548(5)
_cell_length_b                   34.548(5)
_cell_length_c                   17.358(4)
_cell_angle_alpha                90
_cell_angle_beta                 90
_cell_angle_gamma                120
_cell_volume                     17942.2
_exptl_crystal_colour            red
_exptl_crystal_description       needle
_cell_formula_units_Z            18
loop_
_atom_site_label
_atom_site_type_symbol
_atom_site_fract_x
_atom_site_fract_y
_atom_site_fract_z
C1 C 0.2277(3) 0.1975(2) -0.0439(4)
H1 H 0.2042 0.1936 -0.0105
C2 C 0.2306(3) 0.1613(2) -0.0662(4)
H2 H 0.2093 0.1324 -0.0479
C3 C 0.2635(3) 0.1664(2) -0.1142(4)
C4 C 0.2951(2) 0.2079(3) -0.1405(3)
H3 H 0.3185 0.2111 -0.1734
C5 C 0.29229(19) 0.24511(18) -0.1180(3)
H4 H 0.3138 0.2738 -0.1368
C6 C 0.2595(2) 0.2415(2) -0.0698(3)
C7 C 0.2561(2) 0.27959(18) -0.0393(3)
C8 C 0.2139(2) 0.2749(2) -0.0429(3)
H5 H 0.1900 0.2485 -0.0647
C9 C 0.20561(18) 0.3071(2) -0.0162(3)
H6 H 0.1766 0.3035 -0.0211
C10 C 0.24091(18) 0.34659(19) 0.0198(3)
C11 C 0.23327(19) 0.3797(2) 0.0528(3)
H7 H 0.2042 0.3760 0.0492
N1 N 0.26425(15) 0.41503(14) 0.0877(2)
C12 C 0.30523(17) 0.41968(15) 0.0954(2)
C13 C 0.31596(15) 0.38858(16) 0.0662(2)
H8 H 0.3450 0.3927 0.0743
C14 C 0.28390(17) 0.35106(16) 0.0247(2)
C15 C 0.29204(19) 0.31790(18) -0.0072(2)
C16 C 0.3394(2) 0.32517(19) -0.0041(2)
C17 C 0.37495(19) 0.36468(18) -0.0313(3)
C18 C 0.36998(18) 0.39008(18) -0.0878(3)
H9 H 0.3409 0.3799 -0.1080
C19 C 0.4038(2) 0.4282(2) -0.1157(3)
H10 H 0.3988 0.4440 -0.1556
C20 C 0.4475(3) 0.4448(2) -0.0843(4)
C21 C 0.4541(2) 0.4215(2) -0.0271(4)
H11 H 0.4831 0.4329 -0.0054
C22 C 0.4201(2) 0.3826(2) -0.0011(3)
H12 H 0.4256 0.3665 0.0376
C23 C 0.3466(2) 0.29150(18) 0.0306(3)
C24 C 0.3170(2) 0.26217(19) 0.0848(3)
H13 H 0.2916 0.2645 0.0988
C25 C 0.3234(3) 0.2286(2) 0.1202(3)
H14 H 0.3036 0.2094 0.1588
C26 C 0.3595(3) 0.2252(2) 0.0960(4)
C27 C 0.3903(2) 0.2541(2) 0.0409(3)
H15 H 0.4156 0.2519 0.0266
C28 C 0.3822(2) 0.28539(19) 0.0090(3)
H16 H 0.4019 0.3041 -0.0302
C29 C 0.33831(16) 0.45999(15) 0.1379(2)
C30 C 0.38403(17) 0.47942(16) 0.1242(2)
H17 H 0.3943 0.4666 0.0867
C31 C 0.41456(16) 0.51665(17) 0.1637(3)
H18 H 0.4456 0.5293 0.1539
C32 C 0.39979(18) 0.53574(16) 0.2180(3)
C33 C 0.35480(19) 0.51720(17) 0.2335(3)
H19 H 0.3449 0.5302 0.2712
C34 C 0.32389(15) 0.47927(16) 0.1934(3)
H20 H 0.2929 0.4665 0.2039
O1 O 0.42814(11) 0.57300(12) 0.2592(2)
H21 H 0.4545 0.5784 0.2534
O2 O 0.48358(14) 0.48403(15) -0.1088(3)
O3 O 0.3657(2) 0.1933(2) 0.1283(3)
H22 H 0.3851 0.1908 0.1033
O4 O 0.26460(19) 0.12940(15) -0.1387(3)
H23 H 0.2894 0.1373 -0.1594
loop_
_geom_bond_atom_site_label_1
_geom_bond_atom_site_label_2
_geom_bond_site_symmetry_1
_geom_bond_site_symmetry_2
C1 H1 1_555 1_555
C2 C1 1_555 1_555
H2 C2 1_555 1_555
C3 C2 1_555 1_555
C4 C3 1_555 1_555
H3 C4 1_555 1_555
C5 C4 1_555 1_555
H4 C5 1_555 1_555
C6 C1 1_555 1_555
C7 C6 1_555 1_555
C8 C7 1_555 1_555
H5 C8 1_555 1_555
C9 C8 1_555 1_555
H6 C9 1_555 1_555
C10 C9 1_555 1_555
C11 C10 1_555 1_555
H7 C11 1_555 1_555
N1 C11 1_555 1_555
C12 N1 1_555 1_555
C13 C12 1_555 1_555
H8 C13 1_555 1_555
C14 C10 1_555 1_555
C15 C7 1_555 1_555
C16 C15 1_555 1_555
C17 C16 1_555 1_555
C18 C17 1_555 1_555
H9 C18 1_555 1_555
C19 C18 1_555 1_555
H10 C19 1_555 1_555
C20 C19 1_555 1_555
C21 C20 1_555 1_555
H11 C21 1_555 1_555
C22 C17 1_555 1_555
H12 C22 1_555 1_555
C23 C16 1_555 1_555
C24 C23 1_555 1_555
H13 C24 1_555 1_555
C25 C24 1_555 1_555
H14 C25 1_555 1_555
C26 C25 1_555 1_555
C27 C26 1_555 1_555
H15 C27 1_555 1_555
C28 C23 1_555 1_555
H16 C28 1_555 1_555
C29 C12 1_555 1_555
C30 C29 1_555 1_555
H17 C30 1_555 1_555
C31 C30 1_555 1_555
H18 C31 1_555 1_555
C32 C31 1_555 1_555
C33 C32 1_555 1_555
H19 C33 1_555 1_555
C34 C29 1_555 1_555
H20 C34 1_555 1_555
O1 C32 1_555 1_555
H21 O1 1_555 1_555
O2 C20 1_555 1_555
O3 C26 1_555 1_555
H22 O3 1_555 1_555
O4 C3 1_555 1_555
H23 O4 1_555 1_555
C5 C6 1_555 1_555
C13 C14 1_555 1_555
C14 C15 1_555 1_555
C21 C22 1_555 1_555
C27 C28 1_555 1_555
C33 C34 1_555 1_555

#END
