
#######################################################################
#
#                 Cambridge Crystallographic Data Centre
#                                CCDC 
#
#######################################################################
#
# If this CIF has been generated from an entry in the Cambridge 
# Structural Database, then it will include bibliographic, chemical, 
# crystal, experimental, refinement or atomic coordinate data resulting 
# from the CCDC's data processing and validation procedures.
#
#######################################################################

data_VOVXOV
_chemical_formula_moiety         'C28 H35 N1 O7'
_chemical_name_systematic        
'Diethyl 3-benzoyl-4-(3,4-dimethoxyphenyl)-2-(dimethylamino)cyclopentane-1,1-dicarboxylate'
_symmetry_cell_setting           triclinic
_symmetry_space_group_name_H-M   'P -1'
_symmetry_Int_Tables_number      2
_space_group_name_Hall           '-P 1'
loop_
_symmetry_equiv_pos_site_id
_symmetry_equiv_pos_as_xyz
1 x,y,z
2 -x,-y,-z
_cell_length_a                   9.6890(4)
_cell_length_b                   12.1841(5)
_cell_length_c                   12.6032(5)
_cell_angle_alpha                82.264(2)
_cell_angle_beta                 71.354(2)
_cell_angle_gamma                75.129(2)
_cell_volume                     1360.27
_exptl_crystal_colour            colorless
_exptl_crystal_description       block
_chemical_melting_point          '327 K'
_cell_formula_units_Z            2
_chemical_properties_physical    'Heat-sensitive, Photo-sensitive'
_exptl_crystal_recrystallization_method 'isopropyl alcohol/hexane'
loop_
_atom_site_label
_atom_site_type_symbol
_atom_site_fract_x
_atom_site_fract_y
_atom_site_fract_z
O1 O -0.03021(13) 0.90758(8) 0.10376(9)
O2 O 0.06341(13) 0.14457(9) 0.47154(9)
O3 O 0.09159(12) 0.73222(8) -0.01391(8)
O4 O -0.09288(11) 0.18757(9) 0.36564(8)
O5 O 0.19093(12) 0.11493(9) 0.18819(9)
O6 O 0.32794(16) 0.44392(12) 0.44649(9)
O7 O 0.19004(14) 0.28966(11) 0.10364(9)
C1 C 0.09665(14) 0.47390(10) 0.32645(11)
H1 H 0.0668 0.4833 0.4073
N1 N 0.39302(16) 0.20224(12) 0.27618(16)
C2 C 0.09222(14) 0.60337(10) 0.15174(11)
H2 H 0.1324 0.5396 0.1092
C3 C 0.11513(15) 0.27047(10) 0.30468(11)
C4 C 0.06225(14) 0.70996(11) 0.09921(10)
C5 C 0.45936(15) 0.52812(11) 0.27769(11)
C6 C 0.26231(14) 0.41016(11) 0.29024(11)
H3 H 0.3038 0.4165 0.2084
C7 C 0.56311(16) 0.54645(13) 0.32492(13)
H4 H 0.5639 0.5152 0.3963
C8 C 0.06254(14) 0.59028(10) 0.26902(10)
C9 C -0.00344(15) 0.80644(11) 0.16377(11)
C10 C -0.03330(17) 0.79361(11) 0.27857(12)
H5 H -0.0763 0.8568 0.3216
C11 C 0.03037(15) 0.19170(10) 0.39025(11)
C12 C 0.45945(16) 0.57592(13) 0.17099(12)
H6 H 0.3909 0.5642 0.1387
C13 C -0.19717(18) 0.12916(13) 0.44919(14)
H7 H -0.1420 0.0641 0.4837
H8 H -0.2556 0.1017 0.4132
C14 C 0.16793(16) 0.22761(12) 0.18710(12)
C15 C 0.25693(16) 0.28591(11) 0.33068(12)
H9 H 0.2400 0.2775 0.4120
C16 C 0.01199(15) 0.39137(11) 0.30714(13)
H10 H -0.0111 0.4119 0.2366
H11 H -0.0810 0.3940 0.3672
C17 C 0.00117(16) 0.68537(11) 0.33038(11)
H12 H -0.0178 0.6777 0.4078
C18 C 0.35049(16) 0.45943(12) 0.34560(11)
C19 C 0.15588(18) 0.63751(13) -0.08224(12)
H13 H 0.1713 0.6634 -0.1596
H14 H 0.2500 0.5986 -0.0708
H15 H 0.0897 0.5864 -0.0625
C20 C -0.1068(2) 1.00541(12) 0.16640(15)
H16 H -0.1193 1.0710 0.1159
H17 H -0.2031 0.9953 0.2132
H18 H -0.0496 1.0160 0.2124
C21 C 0.66427(18) 0.65809(14) 0.15982(15)
H19 H 0.7330 0.7012 0.1203
C22 C 0.66493(17) 0.61099(15) 0.26576(14)
H20 H 0.7341 0.6227 0.2975
C23 C 0.56123(18) 0.64099(14) 0.11255(14)
H21 H 0.5602 0.6732 0.0415
C24 C 0.2586(2) 0.06540(18) 0.07941(16)
H22 H 0.3393 0.1006 0.0343
H23 H 0.1847 0.0770 0.0397
C25 C -0.2993(3) 0.2081(2) 0.5372(2)
H24 H -0.3674 0.1688 0.5917
H25 H -0.2414 0.2345 0.5734
H26 H -0.3547 0.2719 0.5030
C26 C 0.3172(3) -0.0587(2) 0.1007(2)
H27 H 0.3629 -0.0944 0.0306
H28 H 0.3902 -0.0690 0.1400
H29 H 0.2363 -0.0925 0.1454
C27 C 0.5305(2) 0.23871(19) 0.2385(3)
H30 H 0.5171 0.3105 0.1966
H31 H 0.5605 0.2469 0.3021
H32 H 0.6064 0.1833 0.1915
C28 C 0.4107(3) 0.09467(19) 0.3393(3)
H33 H 0.3176 0.0712 0.3640
H34 H 0.4861 0.0387 0.2926
H35 H 0.4403 0.1023 0.4032
loop_
_geom_bond_atom_site_label_1
_geom_bond_atom_site_label_2
_geom_bond_site_symmetry_1
_geom_bond_site_symmetry_2
O1 C9 1_555 1_555
O2 C11 1_555 1_555
O3 C4 1_555 1_555
O4 C11 1_555 1_555
O5 C14 1_555 1_555
O6 C18 1_555 1_555
O7 C14 1_555 1_555
C1 H1 1_555 1_555
N1 C15 1_555 1_555
C2 H2 1_555 1_555
C3 C11 1_555 1_555
C4 C2 1_555 1_555
C5 C7 1_555 1_555
C6 C1 1_555 1_555
H3 C6 1_555 1_555
C7 H4 1_555 1_555
C8 C1 1_555 1_555
C9 C4 1_555 1_555
C10 C9 1_555 1_555
H5 C10 1_555 1_555
C12 C5 1_555 1_555
H6 C12 1_555 1_555
C13 O4 1_555 1_555
H7 C13 1_555 1_555
H8 C13 1_555 1_555
C14 C3 1_555 1_555
C15 C3 1_555 1_555
H9 C15 1_555 1_555
C16 C1 1_555 1_555
H10 C16 1_555 1_555
H11 C16 1_555 1_555
C17 C8 1_555 1_555
H12 C17 1_555 1_555
C18 C5 1_555 1_555
C19 O3 1_555 1_555
H13 C19 1_555 1_555
H14 C19 1_555 1_555
H15 C19 1_555 1_555
C20 O1 1_555 1_555
H16 C20 1_555 1_555
H17 C20 1_555 1_555
H18 C20 1_555 1_555
C21 H19 1_555 1_555
C22 C7 1_555 1_555
H20 C22 1_555 1_555
C23 C12 1_555 1_555
H21 C23 1_555 1_555
C24 O5 1_555 1_555
H22 C24 1_555 1_555
H23 C24 1_555 1_555
C25 C13 1_555 1_555
H24 C25 1_555 1_555
H25 C25 1_555 1_555
H26 C25 1_555 1_555
C26 C24 1_555 1_555
H27 C26 1_555 1_555
H28 C26 1_555 1_555
H29 C26 1_555 1_555
C27 N1 1_555 1_555
H30 C27 1_555 1_555
H31 C27 1_555 1_555
H32 C27 1_555 1_555
C28 N1 1_555 1_555
H33 C28 1_555 1_555
H34 C28 1_555 1_555
H35 C28 1_555 1_555
C2 C8 1_555 1_555
C3 C16 1_555 1_555
C6 C15 1_555 1_555
C6 C18 1_555 1_555
C10 C17 1_555 1_555
C21 C22 1_555 1_555
C21 C23 1_555 1_555

#END
