
#######################################################################
#
#                 Cambridge Crystallographic Data Centre
#                                CCDC 
#
#######################################################################
#
# If this CIF has been generated from an entry in the Cambridge 
# Structural Database, then it will include bibliographic, chemical, 
# crystal, experimental, refinement or atomic coordinate data resulting 
# from the CCDC's data processing and validation procedures.
#
#######################################################################

data_VOWBUG
_chemical_formula_moiety         'C12 H10 N2 O2'
_chemical_name_systematic        
3-((2-Hydroxybenzylidene)amino)pyridin-2(1H)-one
_symmetry_cell_setting           monoclinic
_symmetry_space_group_name_H-M   'P 21/n'
_symmetry_Int_Tables_number      14
_space_group_name_Hall           '-P 2yn'
loop_
_symmetry_equiv_pos_site_id
_symmetry_equiv_pos_as_xyz
1 x,y,z
2 1/2-x,1/2+y,1/2-z
3 -x,-y,-z
4 1/2+x,1/2-y,1/2+z
_cell_length_a                   5.3962(11)
_cell_length_b                   8.8113(18)
_cell_length_c                   20.395(4)
_cell_angle_alpha                90
_cell_angle_beta                 90.746(7)
_cell_angle_gamma                90
_cell_volume                     969.65
_cell_formula_units_Z            4
loop_
_atom_site_label
_atom_site_type_symbol
_atom_site_fract_x
_atom_site_fract_y
_atom_site_fract_z
C1 C 0.2722(3) 0.83639(15) 0.01007(7)
C2 C 0.4841(3) 0.73529(15) 0.01293(7)
C3 C 0.6431(3) 0.72456(16) -0.03951(7)
H1 H 0.7816 0.6584 -0.0361
C4 C 0.6082(3) 0.80688(18) -0.09715(8)
H2 H 0.7179 0.7971 -0.1330
C5 C 0.4102(3) 0.90172(17) -0.09977(7)
H3 H 0.3803 0.9600 -0.1383
C6 C 0.4065(3) 0.63476(16) 0.11961(7)
H4 H 0.2534 0.6876 0.1218
C7 C 0.4864(3) 0.54005(16) 0.17397(7)
C8 C 0.3397(3) 0.52985(16) 0.23017(8)
H5 H 0.1909 0.5872 0.2321
C9 C 0.4052(3) 0.43933(17) 0.28240(8)
H6 H 0.3059 0.4346 0.3205
C10 C 0.6227(3) 0.35451(17) 0.27770(8)
H7 H 0.6701 0.2898 0.3130
C11 C 0.7718(3) 0.36235(17) 0.22272(8)
H8 H 0.9189 0.3034 0.2210
C12 C 0.7078(3) 0.45529(17) 0.17050(7)
N1 N 0.2535(2) 0.91489(14) -0.04820(6)
H9 H 0.1296 0.9792 -0.0525
N2 N 0.5433(2) 0.64778(13) 0.06791(6)
O1 O 0.1150(2) 0.85780(12) 0.05443(5)
O2 O 0.8593(2) 0.46093(14) 0.11768(6)
H10 H 0.8018 0.5228 0.0901
loop_
_geom_bond_atom_site_label_1
_geom_bond_atom_site_label_2
_geom_bond_site_symmetry_1
_geom_bond_site_symmetry_2
C1 C2 1_555 1_555
C2 C3 1_555 1_555
C3 H1 1_555 1_555
C4 C3 1_555 1_555
H2 C4 1_555 1_555
C5 C4 1_555 1_555
H3 C5 1_555 1_555
C6 H4 1_555 1_555
C7 C6 1_555 1_555
C8 C7 1_555 1_555
H5 C8 1_555 1_555
C9 C8 1_555 1_555
H6 C9 1_555 1_555
C10 C9 1_555 1_555
H7 C10 1_555 1_555
C11 C10 1_555 1_555
H8 C11 1_555 1_555
C12 C7 1_555 1_555
N1 C1 1_555 1_555
H9 N1 1_555 1_555
N2 C2 1_555 1_555
O1 C1 1_555 1_555
O2 C12 1_555 1_555
H10 O2 1_555 1_555
C5 N1 1_555 1_555
C6 N2 1_555 1_555
C11 C12 1_555 1_555

#END
