
#######################################################################
#
#                 Cambridge Crystallographic Data Centre
#                                CCDC 
#
#######################################################################
#
# If this CIF has been generated from an entry in the Cambridge 
# Structural Database, then it will include bibliographic, chemical, 
# crystal, experimental, refinement or atomic coordinate data resulting 
# from the CCDC's data processing and validation procedures.
#
#######################################################################

data_VOWVIO
_chemical_formula_moiety         'C33 H36 N4 O6'
_chemical_name_systematic        
3,3',3''-(Nitrilotris(ethane-2,1-diylnitrilomethylylidene))tris(4-hydroxy-5-methylbenzaldehyde)
_symmetry_cell_setting           monoclinic
_symmetry_space_group_name_H-M   'P 21/n'
_symmetry_Int_Tables_number      14
_space_group_name_Hall           '-P 2yn'
loop_
_symmetry_equiv_pos_site_id
_symmetry_equiv_pos_as_xyz
1 x,y,z
2 1/2-x,1/2+y,1/2-z
3 -x,-y,-z
4 1/2+x,1/2-y,1/2+z
_cell_length_a                   7.2035(9)
_cell_length_b                   18.776(2)
_cell_length_c                   21.734(3)
_cell_angle_alpha                90
_cell_angle_beta                 91.764(4)
_cell_angle_gamma                90
_cell_volume                     2938.19
_exptl_crystal_colour            yellow
_exptl_crystal_description       Block
_cell_formula_units_Z            4
loop_
_atom_site_label
_atom_site_type_symbol
_atom_site_fract_x
_atom_site_fract_y
_atom_site_fract_z
C1 C 0.4428(7) 0.5598(3) 0.8799(3)
H1 H 0.3229 0.5805 0.8884
H2 H 0.4354 0.5090 0.8877
C2 C 0.4846(8) 0.5718(3) 0.8130(3)
H3 H 0.6122 0.5585 0.8056
H4 H 0.4037 0.5423 0.7871
C3 C 0.4820(7) 0.6755(3) 0.7438(2)
H5 H 0.5288 0.6466 0.7133
C4 C 0.4433(7) 0.7478(3) 0.7296(2)
C5 C 0.4743(7) 0.7732(3) 0.6706(2)
H6 H 0.5193 0.7422 0.6412
C6 C 0.4400(7) 0.8431(3) 0.6546(2)
C7 C 0.3724(8) 0.8897(3) 0.7001(2)
H7 H 0.3530 0.9372 0.6899
C8 C 0.3345(8) 0.8678(3) 0.7582(3)
C9 C 0.3700(8) 0.7941(3) 0.7753(3)
C10 C 0.2499(9) 0.9159(3) 0.8037(3)
H8 H 0.2344 0.8907 0.8416
H9 H 0.1310 0.9318 0.7880
H10 H 0.3294 0.9563 0.8109
C11 C 0.4718(8) 0.8689(3) 0.5926(2)
H11 H 0.5241 0.8371 0.5653
C12 C 0.7557(7) 0.5480(3) 0.9270(3)
H12 H 0.7562 0.5139 0.8935
H13 H 0.7566 0.5217 0.9654
C13 C 0.9276(8) 0.5936(3) 0.9250(2)
H14 H 0.9122 0.6357 0.9502
H15 H 1.0338 0.5672 0.9413
C14 C 0.9266(7) 0.6782(3) 0.8426(2)
H16 H 0.8893 0.7125 0.8706
C15 C 0.9461(7) 0.6978(3) 0.7786(2)
C16 C 1.0042(7) 0.6466(3) 0.7351(3)
C17 C 1.0278(7) 0.6664(3) 0.6733(2)
C18 C 0.9948(7) 0.7365(3) 0.6568(3)
H17 H 1.0124 0.7503 0.6163
C19 C 0.9358(7) 0.7878(3) 0.6991(3)
C20 C 0.9125(8) 0.7682(3) 0.7597(3)
H18 H 0.8745 0.8018 0.7880
C21 C 1.0985(8) 0.6127(3) 0.6287(3)
H19 H 1.1124 0.5674 0.6489
H20 H 1.2166 0.6280 0.6142
H21 H 1.0119 0.6083 0.5944
C22 C 0.9019(9) 0.8615(3) 0.6807(3)
H22 H 0.8645 0.8934 0.7107
C23 C 0.5098(8) 0.6063(3) 0.9823(2)
H23 H 0.6082 0.6016 1.0135
H24 H 0.4154 0.5711 0.9909
C24 C 0.4253(8) 0.6803(3) 0.9866(3)
H25 H 0.3377 0.6878 0.9524
H26 H 0.3589 0.6847 1.0246
C25 C 0.5711(8) 0.7863(3) 0.9454(3)
H27 H 0.4691 0.7911 0.9184
C26 C 0.7175(8) 0.8356(3) 0.9420(3)
C27 C 0.8758(8) 0.8315(3) 0.9829(3)
C28 C 1.0169(9) 0.8859(3) 0.9776(3)
C29 C 0.9943(9) 0.9378(3) 0.9350(3)
H28 H 1.0843 0.9732 0.9333
C30 C 0.8378(8) 0.9411(3) 0.8921(3)
C31 C 0.7019(8) 0.8896(3) 0.8969(3)
H29 H 0.5989 0.8906 0.8700
C32 C 1.1835(9) 0.8813(4) 1.0211(3)
H30 H 1.1720 0.8403 1.0471
H31 H 1.1903 0.9235 1.0460
H32 H 1.2942 0.8772 0.9979
C33 C 0.8188(9) 0.9950(3) 0.8452(3)
H33 H 0.7145 0.9927 0.8190
N1 N 0.5856(6) 0.5915(2) 0.9218(2)
N2 N 0.4551(6) 0.6480(2) 0.7976(2)
N3 N 0.9598(6) 0.6145(2) 0.8616(2)
N4 N 0.5733(7) 0.7342(2) 0.9851(2)
O1 O 0.3358(5) 0.7722(2) 0.82945(17)
H34 H 0.3619 0.7298 0.8323
O2 O 0.4365(6) 0.9278(2) 0.57347(18)
O3 O 1.0373(5) 0.57961(19) 0.75174(17)
H35 H 1.0184 0.5749 0.7885
O4 O 0.9192(7) 0.8838(3) 0.6290(2)
O5 O 0.8947(6) 0.7823(2) 1.02283(18)
H36 H 0.8047 0.7556 1.0205
O6 O 0.9273(7) 1.0433(2) 0.8371(2)
loop_
_geom_bond_atom_site_label_1
_geom_bond_atom_site_label_2
_geom_bond_site_symmetry_1
_geom_bond_site_symmetry_2
C1 H1 1_555 1_555
H2 C1 1_555 1_555
C2 C1 1_555 1_555
H3 C2 1_555 1_555
H4 C2 1_555 1_555
C3 H5 1_555 1_555
C4 C3 1_555 1_555
C5 C4 1_555 1_555
H6 C5 1_555 1_555
C6 C5 1_555 1_555
C7 C6 1_555 1_555
H7 C7 1_555 1_555
C8 C7 1_555 1_555
C9 C4 1_555 1_555
C10 C8 1_555 1_555
H8 C10 1_555 1_555
H9 C10 1_555 1_555
H10 C10 1_555 1_555
C11 C6 1_555 1_555
H11 C11 1_555 1_555
C12 H12 1_555 1_555
H13 C12 1_555 1_555
C13 C12 1_555 1_555
H14 C13 1_555 1_555
H15 C13 1_555 1_555
C14 H16 1_555 1_555
C15 C14 1_555 1_555
C16 C15 1_555 1_555
C17 C16 1_555 1_555
C18 C17 1_555 1_555
H17 C18 1_555 1_555
C19 C18 1_555 1_555
C20 C15 1_555 1_555
H18 C20 1_555 1_555
C21 C17 1_555 1_555
H19 C21 1_555 1_555
H20 C21 1_555 1_555
H21 C21 1_555 1_555
C22 C19 1_555 1_555
H22 C22 1_555 1_555
C23 H23 1_555 1_555
H24 C23 1_555 1_555
C24 C23 1_555 1_555
H25 C24 1_555 1_555
H26 C24 1_555 1_555
C25 H27 1_555 1_555
C26 C25 1_555 1_555
C27 C26 1_555 1_555
C28 C27 1_555 1_555
C29 C28 1_555 1_555
H28 C29 1_555 1_555
C30 C29 1_555 1_555
C31 C26 1_555 1_555
H29 C31 1_555 1_555
C32 C28 1_555 1_555
H30 C32 1_555 1_555
H31 C32 1_555 1_555
H32 C32 1_555 1_555
C33 C30 1_555 1_555
H33 C33 1_555 1_555
N1 C1 1_555 1_555
N2 C2 1_555 1_555
N3 C13 1_555 1_555
N4 C24 1_555 1_555
O1 C9 1_555 1_555
H34 O1 1_555 1_555
O2 C11 1_555 1_555
O3 C16 1_555 1_555
H35 O3 1_555 1_555
O4 C22 1_555 1_555
O5 C27 1_555 1_555
H36 O5 1_555 1_555
O6 C33 1_555 1_555
C3 N2 1_555 1_555
C8 C9 1_555 1_555
C12 N1 1_555 1_555
C14 N3 1_555 1_555
C19 C20 1_555 1_555
C23 N1 1_555 1_555
C25 N4 1_555 1_555
C30 C31 1_555 1_555

#END
