
#######################################################################
#
#                 Cambridge Crystallographic Data Centre
#                                CCDC 
#
#######################################################################
#
# If this CIF has been generated from an entry in the Cambridge 
# Structural Database, then it will include bibliographic, chemical, 
# crystal, experimental, refinement or atomic coordinate data resulting 
# from the CCDC's data processing and validation procedures.
#
#######################################################################

data_VOWVEK
_chemical_formula_moiety         'C54 H54 N8 O3,2(C1 H1 Cl3)'
_chemical_name_systematic        
'1,4,16,19,22,34,39,51-Octaazaoctacyclo[17.17.17.2^6,9^.2^24,27^.2^41,44^.1^10,14^.1^28,32^.1^45,49^]dohexaconta-4,6,8,10(60),11,13,15,22,24,26,28(57),29,31,33,39,41,43,45(54),46,48,50,55,58,61-tetracosaene-13,31,48-triol chloroform solvate'
_symmetry_cell_setting           monoclinic
_symmetry_space_group_name_H-M   'P 21/c'
_symmetry_Int_Tables_number      14
_space_group_name_Hall           '-P 2ybc'
loop_
_symmetry_equiv_pos_site_id
_symmetry_equiv_pos_as_xyz
1 x,y,z
2 -x,1/2+y,1/2-z
3 -x,-y,-z
4 x,1/2-y,1/2+z
_cell_length_a                   17.6515(12)
_cell_length_b                   27.3690(18)
_cell_length_c                   11.1516(8)
_cell_angle_alpha                90
_cell_angle_beta                 102.653(2)
_cell_angle_gamma                90
_cell_volume                     5256.55
_exptl_crystal_colour            yellow
_exptl_crystal_description       Rod
_cell_formula_units_Z            4
loop_
_atom_site_label
_atom_site_type_symbol
_atom_site_fract_x
_atom_site_fract_y
_atom_site_fract_z
C1 C 0.14038(18) 0.56002(11) 0.3409(3)
H1 H 0.1704 0.5302 0.3603
H2 H 0.1020 0.5609 0.3911
C2 C 0.19393(18) 0.60372(12) 0.3719(3)
H3 H 0.1679 0.6328 0.3334
H4 H 0.2061 0.6088 0.4602
C3 C 0.28103(18) 0.62662(11) 0.2530(3)
H5 H 0.2457 0.6516 0.2257
C4 C 0.35205(18) 0.62459(11) 0.2055(3)
C5 C 0.37139(18) 0.66449(11) 0.1400(3)
H6 H 0.3372 0.6907 0.1222
C6 C 0.44032(18) 0.66572(11) 0.1011(3)
H7 H 0.4520 0.6929 0.0583
C7 C 0.49313(18) 0.62682(11) 0.1249(3)
C8 C 0.47164(19) 0.58616(11) 0.1870(3)
H8 H 0.5044 0.5592 0.2012
C9 C 0.40341(19) 0.58531(11) 0.2271(3)
H9 H 0.3913 0.5581 0.2693
C10 C 0.56908(18) 0.62981(11) 0.0897(3)
C11 C 0.57996(18) 0.65737(11) -0.0095(3)
H10 H 0.5379 0.6745 -0.0555
C12 C 0.65159(18) 0.66048(11) -0.0434(3)
C13 C 0.71605(18) 0.63546(12) 0.0278(3)
C14 C 0.7059(2) 0.60779(12) 0.1269(3)
H11 H 0.7479 0.5910 0.1739
C15 C 0.63404(19) 0.60485(12) 0.1570(3)
H12 H 0.6287 0.5858 0.2237
C16 C 0.65924(18) 0.68903(11) -0.1500(3)
H13 H 0.6153 0.7036 -0.1981
C17 C 0.73000(19) 0.72565(12) -0.2825(3)
H14 H 0.7636 0.7532 -0.2537
H15 H 0.6790 0.7382 -0.3204
C18 C 0.76229(18) 0.69720(12) -0.3766(3)
H16 H 0.7823 0.7198 -0.4291
H17 H 0.8050 0.6769 -0.3348
C19 C 0.65459(19) 0.69521(12) -0.5511(3)
H18 H 0.6770 0.6935 -0.6231
H19 H 0.6556 0.7291 -0.5255
C20 C 0.57145(18) 0.67827(12) -0.5858(3)
H20 H 0.5463 0.6927 -0.6638
H21 H 0.5701 0.6430 -0.5953
C21 C 0.47676(18) 0.66362(11) -0.4738(3)
H22 H 0.4688 0.6348 -0.5191
C22 C 0.42792(17) 0.67314(11) -0.3865(3)
C23 C 0.36342(17) 0.64391(11) -0.3867(3)
H23 H 0.3530 0.6177 -0.4408
C24 C 0.31489(17) 0.65306(11) -0.3083(3)
H24 H 0.2717 0.6332 -0.3117
C25 C 0.32888(17) 0.69133(10) -0.2240(3)
C26 C 0.39478(17) 0.71992(11) -0.2218(3)
H25 H 0.4066 0.7452 -0.1650
C27 C 0.44245(18) 0.71135(11) -0.3019(3)
H26 H 0.4852 0.7314 -0.2996
C28 C 0.27450(16) 0.70204(10) -0.1439(3)
C29 C 0.22407(17) 0.66699(11) -0.1152(3)
H27 H 0.2262 0.6355 -0.1455
C30 C 0.17087(16) 0.67693(11) -0.0436(3)
C31 C 0.16796(17) 0.72428(11) 0.0047(3)
C32 C 0.11598(17) 0.63943(11) -0.0221(3)
H28 H 0.1179 0.6085 -0.0559
C33 C 0.01185(17) 0.60958(11) 0.0575(3)
H29 H 0.0146 0.5830 0.0012
H30 H -0.0407 0.6223 0.0388
C34 C 0.21879(18) 0.75954(11) -0.0208(3)
H31 H 0.2181 0.7908 0.0116
C35 C 0.03157(17) 0.59080(11) 0.1884(3)
H32 H 0.0407 0.6183 0.2446
H33 H -0.0122 0.5725 0.2045
C36 C 0.27008(17) 0.74870(11) -0.0935(3)
H34 H 0.3031 0.7731 -0.1098
C37 C 0.08054(17) 0.50927(11) 0.1711(3)
H35 H 0.0376 0.5099 0.0999
H36 H 0.0636 0.4918 0.2362
C38 C 0.14804(18) 0.48231(11) 0.1387(3)
H37 H 0.1947 0.4889 0.2008
H38 H 0.1381 0.4474 0.1384
C39 C 0.22849(18) 0.50685(10) 0.0068(3)
H39 H 0.2687 0.5083 0.0763
C40 C 0.24512(16) 0.51608(10) -0.1138(3)
C41 C 0.18506(16) 0.51399(10) -0.2196(3)
C42 C 0.20289(17) 0.51845(11) -0.3344(3)
H40 H 0.1634 0.5174 -0.4049
C43 C 0.27862(17) 0.52433(11) -0.3440(3)
H41 H 0.2894 0.5267 -0.4218
C44 C 0.34028(16) 0.52689(10) -0.2405(3)
C45 C 0.32100(16) 0.52280(10) -0.1265(3)
H42 H 0.3604 0.5246 -0.0560
C46 C 0.42160(16) 0.53427(10) -0.2529(3)
C47 C 0.44158(17) 0.53007(11) -0.3674(3)
H43 H 0.4041 0.5201 -0.4352
C48 C 0.51529(16) 0.54034(11) -0.3817(3)
H44 H 0.5261 0.5385 -0.4595
C49 C 0.57415(16) 0.55346(10) -0.2818(3)
C50 C 0.55581(17) 0.55528(10) -0.1666(3)
H45 H 0.5944 0.5627 -0.0978
C51 C 0.48090(16) 0.54614(10) -0.1530(3)
H46 H 0.4701 0.5480 -0.0752
C52 C 0.65150(17) 0.56735(10) -0.2987(3)
H47 H 0.6863 0.5813 -0.2328
C53 C 0.74741(17) 0.58142(11) -0.4076(3)
H48 H 0.7788 0.5563 -0.4342
H49 H 0.7748 0.5931 -0.3276
C54 C 0.73513(18) 0.62316(11) -0.4987(3)
H50 H 0.7844 0.6317 -0.5181
H51 H 0.7004 0.6126 -0.5741
N1 N 0.10071(14) 0.55927(9) 0.2109(2)
N2 N 0.26537(15) 0.59605(9) 0.3296(2)
N3 N 0.72451(15) 0.69467(9) -0.1794(2)
N4 N 0.70261(14) 0.66634(9) -0.4522(2)
N5 N 0.52916(15) 0.69222(10) -0.4914(2)
N6 N 0.06588(14) 0.64807(9) 0.0413(2)
N7 N 0.16035(14) 0.49686(9) 0.0191(2)
N8 N 0.67291(14) 0.56122(9) -0.3984(2)
O1 O 0.78618(12) 0.63724(8) -0.0014(2)
H52 H 0.7838 0.6549 -0.0615
O2 O 0.11701(12) 0.73657(8) 0.07331(19)
H53 H 0.0906 0.7127 0.0817
O3 O 0.10993(11) 0.50734(8) -0.21314(18)
H54 H 0.1071 0.5053 -0.1409
C55 C -0.01243(18) 0.40560(12) 0.3663(3)
H55 H -0.0421 0.4315 0.3160
Cl1 Cl 0.04813(5) 0.37766(3) 0.28064(8)
Cl2 Cl -0.07839(5) 0.36238(3) 0.40098(8)
Cl3 Cl 0.04306(6) 0.43226(4) 0.50053(9)
C56 C 0.0384(2) 0.22247(14) 0.1310(4)
H56 H 0.0034 0.2061 0.0624
Cl4 Cl 0.10414(7) 0.17890(4) 0.20942(18)
Cl5 Cl 0.08765(5) 0.26918(4) 0.07086(9)
Cl6 Cl -0.01666(6) 0.24589(4) 0.22841(9)
loop_
_geom_bond_atom_site_label_1
_geom_bond_atom_site_label_2
_geom_bond_site_symmetry_1
_geom_bond_site_symmetry_2
C1 H1 1_555 1_555
H2 C1 1_555 1_555
C2 C1 1_555 1_555
H3 C2 1_555 1_555
H4 C2 1_555 1_555
C3 H5 1_555 1_555
C4 C3 1_555 1_555
C5 C4 1_555 1_555
H6 C5 1_555 1_555
C6 C5 1_555 1_555
H7 C6 1_555 1_555
C7 C6 1_555 1_555
C8 C7 1_555 1_555
H8 C8 1_555 1_555
C9 C4 1_555 1_555
H9 C9 1_555 1_555
C10 C7 1_555 1_555
C11 C10 1_555 1_555
H10 C11 1_555 1_555
C12 C11 1_555 1_555
C13 C12 1_555 1_555
C14 C13 1_555 1_555
H11 C14 1_555 1_555
C15 C10 1_555 1_555
H12 C15 1_555 1_555
C16 C12 1_555 1_555
H13 C16 1_555 1_555
C17 H14 1_555 1_555
H15 C17 1_555 1_555
C18 C17 1_555 1_555
H16 C18 1_555 1_555
H17 C18 1_555 1_555
C19 H18 1_555 1_555
H19 C19 1_555 1_555
C20 C19 1_555 1_555
H20 C20 1_555 1_555
H21 C20 1_555 1_555
C21 H22 1_555 1_555
C22 C21 1_555 1_555
C23 C22 1_555 1_555
H23 C23 1_555 1_555
C24 C23 1_555 1_555
H24 C24 1_555 1_555
C25 C24 1_555 1_555
C26 C25 1_555 1_555
H25 C26 1_555 1_555
C27 C22 1_555 1_555
H26 C27 1_555 1_555
C28 C25 1_555 1_555
C29 C28 1_555 1_555
H27 C29 1_555 1_555
C30 C29 1_555 1_555
C31 C30 1_555 1_555
C32 C30 1_555 1_555
H28 C32 1_555 1_555
C33 H29 1_555 1_555
H30 C33 1_555 1_555
C34 C31 1_555 1_555
H31 C34 1_555 1_555
C35 C33 1_555 1_555
H32 C35 1_555 1_555
H33 C35 1_555 1_555
C36 C28 1_555 1_555
H34 C36 1_555 1_555
C37 H35 1_555 1_555
H36 C37 1_555 1_555
C38 C37 1_555 1_555
H37 C38 1_555 1_555
H38 C38 1_555 1_555
C39 H39 1_555 1_555
C40 C39 1_555 1_555
C41 C40 1_555 1_555
C42 C41 1_555 1_555
H40 C42 1_555 1_555
C43 C42 1_555 1_555
H41 C43 1_555 1_555
C44 C43 1_555 1_555
C45 C40 1_555 1_555
H42 C45 1_555 1_555
C46 C44 1_555 1_555
C47 C46 1_555 1_555
H43 C47 1_555 1_555
C48 C47 1_555 1_555
H44 C48 1_555 1_555
C49 C48 1_555 1_555
C50 C49 1_555 1_555
H45 C50 1_555 1_555
C51 C46 1_555 1_555
H46 C51 1_555 1_555
C52 C49 1_555 1_555
H47 C52 1_555 1_555
C53 H48 1_555 1_555
H49 C53 1_555 1_555
C54 C53 1_555 1_555
H50 C54 1_555 1_555
H51 C54 1_555 1_555
N1 C1 1_555 1_555
N2 C2 1_555 1_555
N3 C16 1_555 1_555
N4 C18 1_555 1_555
N5 C20 1_555 1_555
N6 C32 1_555 1_555
N7 C38 1_555 1_555
N8 C52 1_555 1_555
O1 C13 1_555 1_555
H52 O1 1_555 1_555
O2 C31 1_555 1_555
H53 O2 1_555 1_555
O3 C41 1_555 1_555
H54 O3 1_555 1_555
C55 H55 1_555 1_555
Cl1 C55 1_555 1_555
Cl2 C55 1_555 1_555
Cl3 C55 1_555 1_555
C56 H56 1_555 1_555
Cl4 C56 1_555 1_555
Cl5 C56 1_555 1_555
Cl6 C56 1_555 1_555
C3 N2 1_555 1_555
C8 C9 1_555 1_555
C14 C15 1_555 1_555
C17 N3 1_555 1_555
C19 N4 1_555 1_555
C21 N5 1_555 1_555
C26 C27 1_555 1_555
C33 N6 1_555 1_555
C34 C36 1_555 1_555
C35 N1 1_555 1_555
C37 N1 1_555 1_555
C39 N7 1_555 1_555
C44 C45 1_555 1_555
C50 C51 1_555 1_555
C53 N8 1_555 1_555
C54 N4 1_555 1_555

#END
