
#######################################################################
#
#                 Cambridge Crystallographic Data Centre
#                                CCDC 
#
#######################################################################
#
# If this CIF has been generated from an entry in the Cambridge 
# Structural Database, then it will include bibliographic, chemical, 
# crystal, experimental, refinement or atomic coordinate data resulting 
# from the CCDC's data processing and validation procedures.
#
#######################################################################

data_VOXMEA
_chemical_formula_moiety         'C15 H26 O4 S2'
_chemical_name_systematic        
(2S,3R,4R,6R)-3,4-O-Carbonyl-7,7-dimethylenedithio-2,4,6-trimethylnonane-1,3,4-triol
_symmetry_cell_setting           triclinic
_symmetry_space_group_name_H-M   'P 1'
_symmetry_Int_Tables_number      1
_space_group_name_Hall           'P 1'
loop_
_symmetry_equiv_pos_site_id
_symmetry_equiv_pos_as_xyz
1 x,y,z
_cell_length_a                   6.460(2)
_cell_length_b                   8.917(3)
_cell_length_c                   15.616(5)
_cell_angle_alpha                83.60(3)
_cell_angle_beta                 83.41(2)
_cell_angle_gamma                89.52(2)
_cell_volume                     888.02
_exptl_crystal_colour            colorless
_cell_formula_units_Z            2
loop_
_atom_site_label
_atom_site_type_symbol
_atom_site_fract_x
_atom_site_fract_y
_atom_site_fract_z
C1 C 1.2513 0.7140 0.7088
C2 C 1.099(2) 0.8072(13) 0.7621(7)
C3 C 0.917(2) 0.8649(13) 0.7149(7)
C4 C 0.965(2) 0.9800(13) 0.6325(8)
C5 C 0.969(2) 0.9118(13) 0.5475(7)
C6 C 0.764(2) 0.8488(13) 0.5250(7)
C7 C 0.794(2) 0.7126(14) 0.4735(8)
C8 C 0.934(2) 0.7504(15) 0.3879(8)
C9 C 0.983(3) 0.627(2) 0.3289(10)
O1 O 1.436(2) 0.6829(12) 0.7479(7)
C10 C 1.017(2) 0.716(2) 0.8486(8)
O2 O 0.781(2) 0.9488(12) 0.7711(7)
C11 C 0.691(2) 1.0590(14) 0.7249(8)
O3 O 0.553(2) 1.1370(12) 0.7520(7)
O4 O 0.774(2) 1.0734(11) 0.6423(7)
C12 C 1.147(2) 1.0851(14) 0.6336(8)
C13 C 0.645(2) 0.9785(15) 0.4766(9)
S1 S 0.9113(14) 0.5573(10) 0.5376(6)
C14 C 0.672(3) 0.460(2) 0.575(13)
C15 C 0.538(3) 0.463(2) 0.5081(12)
S2 S 0.5381(14) 0.6467(10) 0.4516(6)
H1 H 1.2889 0.7700 0.6532
H2 H 1.1848 0.6221 0.6999
H3 H 1.172 0.8932 0.7762
H4 H 0.843 0.7800 0.7004
H5 H 1.069 0.8317 0.5478
H6 H 1.017 0.9878 0.5012
H7 H 0.684 0.8160 0.5793
H8 H 1.069 0.7799 0.4011
H9 H 0.878 0.8352 0.3550
H10 H 1.074 0.659 0.2771
H11 H 1.044 0.542 0.3604
H12 H 0.850 0.598 0.3138
H13 H 1.429 0.5925 0.7720
H14 H 1.131 0.681 0.8794
H15 H 0.926 0.776 0.8839
H16 H 0.940 0.632 0.8353
H17 H 1.165 1.1508 0.5802
H18 H 1.118 1.1442 0.6813
H19 H 1.272 1.0278 0.6403
H20 H 0.514 0.9401 0.4649
H21 H 0.621 1.0599 0.5119
H22 H 0.726 1.0146 0.4229
H23 H 0.605 0.507 0.6246
H24 H 0.701 0.357 0.5968
H25 H 0.398 0.441 0.5335
H26 H 0.580 0.389 0.4697
C16 C 0.332(2) 0.3137(13) -0.0916(8)
C17 C 0.166(2) 0.1906(13) -0.0830(7)
C18 C 0.146(2) 0.1050(13) 0.0077(7)
C19 C 0.324(2) 0.0028(13) 0.0367(7)
C20 C 0.463(2) 0.0770(13) 0.0918(8)
C21 C 0.374(2) 0.0911(13) 0.1866(7)
C22 C 0.437(2) 0.2440(13) 0.2175(8)
C23 C 0.371(2) 0.2526(15) 0.3138(8)
C24 C 0.143(2) 0.220(2) 0.3454(9)
O5 O 0.367(2) 0.3860(12) -0.1778(7)
C25 C -0.039(2) 0.2576(15) -0.1061(9)
O6 O -0.026(2) -0.0011(12) 0.0141(7)
C26 C 0.011(2) -0.1226(14) 0.0682(8)
O7 O -0.111(2) -0.2185(12) 0.0932(7)
O8 O 0.205(2) -0.1201(11) 0.0902(7)
C27 C 0.453(2) -0.0660(14) -0.0368(8)
C28 C 0.447(2) -0.0434(14) 0.2450(9)
S3 S 0.3119(14) 0.3982(10) 0.1541(6)
C29 C 0.524(2) 0.527(2) 0.1454(12)
C30 C 0.716(3) 0.459(2) 0.1345(14)
S4 S 0.7182(14) 0.2764(10) 0.1955(6)
H27 H 0.459 0.2715 -0.0731
H28 H 0.284 0.3883 -0.0542
H29 H 0.213 0.1208 -0.1236
H30 H 0.112 0.1757 0.0491
H31 H 0.501 0.1761 0.0643
H32 H 0.588 0.0181 0.0931
H33 H 0.225 0.0894 0.1883
H34 H 0.401 0.3534 0.3251
H35 H 0.454 0.1850 0.3481
H36 H 0.115 0.232 0.4060
H37 H 0.059 0.289 0.3130
H38 H 0.112 0.119 0.3364
H39 H 0.446 0.3322 -0.2090
H40 H -0.023 0.3101 -0.1635
H41 H -0.137 0.1763 -0.1031
H42 H -0.089 0.3262 -0.0652
H43 H 0.560 -0.1277 -0.0139
H44 H 0.364 -0.1269 -0.0642
H45 H 0.514 0.0128 -0.0786
H46 H 0.408 -0.1366 0.2259
H47 H 0.595 -0.0408 0.2458
H48 H 0.379 -0.0356 0.3024
H49 H 0.510 0.582 0.1952
H50 H 0.514 0.598 0.0951
H51 H 0.814 0.521 0.1565
H52 H 0.762 0.452 0.0743
loop_
_geom_bond_atom_site_label_1
_geom_bond_atom_site_label_2
_geom_bond_site_symmetry_1
_geom_bond_site_symmetry_2
C1 C2 1_555 1_555
C2 C3 1_555 1_555
C3 C4 1_555 1_555
C4 C5 1_555 1_555
C5 C6 1_555 1_555
C6 C7 1_555 1_555
C7 C8 1_555 1_555
C8 C9 1_555 1_555
C9 H10 1_555 1_555
O1 C1 1_555 1_555
C10 C2 1_555 1_555
O2 C3 1_555 1_555
C11 O2 1_555 1_555
O3 C11 1_555 1_555
O4 C4 1_555 1_555
C12 C4 1_555 1_555
C13 C6 1_555 1_555
S1 C7 1_555 1_555
C14 S1 1_555 1_555
C15 C14 1_555 1_555
S2 C7 1_555 1_555
C16 C17 1_555 1_555
C17 C18 1_555 1_555
C18 C19 1_555 1_555
C19 C20 1_555 1_555
C20 C21 1_555 1_555
C21 C22 1_555 1_555
C22 C23 1_555 1_555
C23 C24 1_555 1_555
C24 H36 1_555 1_555
O5 C16 1_555 1_555
C25 C17 1_555 1_555
O6 C18 1_555 1_555
C26 O6 1_555 1_555
O7 C26 1_555 1_555
O8 C19 1_555 1_555
C27 C19 1_555 1_555
C28 C21 1_555 1_555
S3 C22 1_555 1_555
C29 S3 1_555 1_555
C30 C29 1_555 1_555
S4 C22 1_555 1_555
H1 C1 1_555 1_555
H2 C1 1_555 1_555
H3 C2 1_555 1_555
H4 C3 1_555 1_555
H5 C5 1_555 1_555
H6 C5 1_555 1_555
H7 C6 1_555 1_555
H8 C8 1_555 1_555
H9 C8 1_555 1_555
H11 C9 1_555 1_555
H12 C9 1_555 1_555
H13 O1 1_555 1_555
H14 C10 1_555 1_555
H15 C10 1_555 1_555
H16 C10 1_555 1_555
H17 C12 1_555 1_555
H18 C12 1_555 1_555
H19 C12 1_555 1_555
H20 C13 1_555 1_555
H21 C13 1_555 1_555
H22 C13 1_555 1_555
H23 C14 1_555 1_555
H24 C14 1_555 1_555
H25 C15 1_555 1_555
H26 C15 1_555 1_555
H27 C16 1_555 1_555
H28 C16 1_555 1_555
H29 C17 1_555 1_555
H30 C18 1_555 1_555
H31 C20 1_555 1_555
H32 C20 1_555 1_555
H33 C21 1_555 1_555
H34 C23 1_555 1_555
H35 C23 1_555 1_555
H37 C24 1_555 1_555
H38 C24 1_555 1_555
H39 O5 1_555 1_555
H40 C25 1_555 1_555
H41 C25 1_555 1_555
H42 C25 1_555 1_555
H43 C27 1_555 1_555
H44 C27 1_555 1_555
H45 C27 1_555 1_555
H46 C28 1_555 1_555
H47 C28 1_555 1_555
H48 C28 1_555 1_555
H49 C29 1_555 1_555
H50 C29 1_555 1_555
H51 C30 1_555 1_555
H52 C30 1_555 1_555
C11 O4 1_555 1_555
C15 S2 1_555 1_555
C26 O8 1_555 1_555
C30 S4 1_555 1_555

#END
