
#######################################################################
#
#                 Cambridge Crystallographic Data Centre
#                                CCDC 
#
#######################################################################
#
# If this CIF has been generated from an entry in the Cambridge 
# Structural Database, then it will include bibliographic, chemical, 
# crystal, experimental, refinement or atomic coordinate data resulting 
# from the CCDC's data processing and validation procedures.
#
#######################################################################

data_VOXVOV
_chemical_formula_moiety         'C16 H16 N4 O2'
_chemical_name_systematic        
5-((2,3-Dimethylphenyl)hydrazono)-1,4-dimethyl-2,6-dioxo-1,2,5,6-tetrahydropyridine-3-carbonitrile
_symmetry_cell_setting           triclinic
_symmetry_space_group_name_H-M   'P -1'
_symmetry_Int_Tables_number      2
_space_group_name_Hall           '-P 1'
loop_
_symmetry_equiv_pos_site_id
_symmetry_equiv_pos_as_xyz
1 x,y,z
2 -x,-y,-z
_cell_length_a                   7.3985(5)
_cell_length_b                   7.5160(5)
_cell_length_c                   13.5827(9)
_cell_angle_alpha                100.7370(10)
_cell_angle_beta                 93.4910(10)
_cell_angle_gamma                103.1710(10)
_cell_volume                     718.323
_exptl_crystal_colour            red
_exptl_crystal_description       block
_cell_formula_units_Z            2
loop_
_atom_site_label
_atom_site_type_symbol
_atom_site_fract_x
_atom_site_fract_y
_atom_site_fract_z
C1 C -0.0516(2) 0.2349(2) -0.00150(11)
C2 C 0.0756(2) 0.2120(2) -0.07238(11)
C3 C 0.0100(2) 0.0848(2) -0.16400(11)
C4 C -0.1770(2) -0.0108(2) -0.18236(12)
H1 H -0.2200 -0.0957 -0.2429
C5 C -0.2997(2) 0.0183(2) -0.11217(12)
H2 H -0.4248 -0.0451 -0.1264
C6 C -0.2386(2) 0.1403(2) -0.02119(12)
H3 H -0.3213 0.1591 0.0264
C7 C 0.2771(2) 0.3205(2) -0.04995(13)
H4 H 0.2840 0.4514 -0.0430
H5 H 0.3458 0.2809 -0.1042
H6 H 0.3298 0.2981 0.0116
C8 C 0.1399(3) 0.0482(3) -0.24212(13)
H7 H 0.0710 -0.0406 -0.2999
H8 H 0.2360 -0.0008 -0.2144
H9 H 0.1956 0.1628 -0.2619
C9 C -0.0146(2) 0.4950(2) 0.25073(10)
C10 C 0.1804(2) 0.6025(2) 0.26873(11)
C11 C 0.1244(2) 0.7480(2) 0.43696(11)
C12 C -0.0680(2) 0.6337(2) 0.41725(11)
C13 C -0.1378(2) 0.5120(2) 0.32825(11)
C14 C 0.4281(2) 0.8444(3) 0.37643(13)
H10 H 0.5009 0.7968 0.4215
H11 H 0.4280 0.9708 0.4059
H12 H 0.4814 0.8411 0.3136
C15 C -0.1777(2) 0.6571(2) 0.49966(11)
C16 C -0.3350(2) 0.3987(2) 0.31045(12)
H13 H -0.3972 0.4275 0.3692
H14 H -0.3365 0.2684 0.2969
H15 H -0.3981 0.4274 0.2538
N1 N 0.01746(18) 0.35746(17) 0.09150(9)
N2 N -0.08778(17) 0.37807(16) 0.16408(9)
N3 N 0.23635(17) 0.72923(18) 0.35861(9)
N4 N -0.2623(2) 0.6751(2) 0.56665(11)
O1 O 0.29254(15) 0.58442(17) 0.20624(8)
O2 O 0.18616(18) 0.85469(19) 0.51685(9)
H16 H 0.138(3) 0.428(3) 0.1085(18)
loop_
_geom_bond_atom_site_label_1
_geom_bond_atom_site_label_2
_geom_bond_site_symmetry_1
_geom_bond_site_symmetry_2
C1 C2 1_555 1_555
C2 C3 1_555 1_555
C3 C4 1_555 1_555
C4 H1 1_555 1_555
C5 C4 1_555 1_555
H2 C5 1_555 1_555
C6 C1 1_555 1_555
H3 C6 1_555 1_555
C7 C2 1_555 1_555
H4 C7 1_555 1_555
H5 C7 1_555 1_555
H6 C7 1_555 1_555
C8 C3 1_555 1_555
H7 C8 1_555 1_555
H8 C8 1_555 1_555
H9 C8 1_555 1_555
C9 C10 1_555 1_555
C10 N3 1_555 1_555
C11 C12 1_555 1_555
C12 C13 1_555 1_555
C13 C9 1_555 1_555
C14 H10 1_555 1_555
H11 C14 1_555 1_555
H12 C14 1_555 1_555
C15 C12 1_555 1_555
C16 C13 1_555 1_555
H13 C16 1_555 1_555
H14 C16 1_555 1_555
H15 C16 1_555 1_555
N1 C1 1_555 1_555
N2 C9 1_555 1_555
N3 C11 1_555 1_555
N4 C15 1_555 1_555
O1 C10 1_555 1_555
O2 C11 1_555 1_555
H16 N1 1_555 1_555
C5 C6 1_555 1_555
C14 N3 1_555 1_555
N1 N2 1_555 1_555

#END
