
#######################################################################
#
#                 Cambridge Crystallographic Data Centre
#                                CCDC 
#
#######################################################################
#
# If this CIF has been generated from an entry in the Cambridge 
# Structural Database, then it will include bibliographic, chemical, 
# crystal, experimental, refinement or atomic coordinate data resulting 
# from the CCDC's data processing and validation procedures.
#
#######################################################################

data_VOYSAD
_chemical_formula_moiety         'C7 H6 N2 O1 P1 S3 1-,C5 H6 N1 1+'
_chemical_name_systematic        
'Pyridinium 3-amino-benz(b)(1,3,2)-oxazaphosphorine-2,4-dithione-2-sulfide'
_symmetry_cell_setting           monoclinic
_symmetry_space_group_name_H-M   'P 21/a'
_symmetry_Int_Tables_number      14
_space_group_name_Hall           '-P 2yab'
loop_
_symmetry_equiv_pos_site_id
_symmetry_equiv_pos_as_xyz
1 x,y,z
2 1/2-x,1/2+y,-z
3 -x,-y,-z
4 1/2+x,1/2-y,z
_cell_length_a                   16.745(2)
_cell_length_b                   8.563(2)
_cell_length_c                   21.050(5)
_cell_angle_alpha                90
_cell_angle_beta                 93.32(1)
_cell_angle_gamma                90
_cell_volume                     3013.24
_cell_formula_units_Z            8
loop_
_atom_site_label
_atom_site_type_symbol
_atom_site_fract_x
_atom_site_fract_y
_atom_site_fract_z
P1 P 0.68827(7) 0.4023(2) 0.12230(6)
S1 S 0.6304(1) 0.5950(5) 0.13389(9)
S3 S 0.63665(6) 0.2069(1) 0.0970(5)
S5 S 0.8853(2) 0.36277(5) 0.0028(1)
O1 O 0.74974(7) 0.38008(4) 0.1837(2)
N1 N 0.7622(2) 0.4378(6) 0.0682(2)
N2 N 0.7320(5) 0.5130(2) 0.0111(6)
C1 C 0.8318(4) 0.3602(1) 0.0663(3)
C3 C 0.81339(8) 0.2821(5) 0.1801(2)
C5 C 0.8563(7) 0.27337(8) 0.1244(5)
C7 C 0.9240(1) 0.1743(7) 0.12682(9)
C9 C 0.9473(2) 0.0940(1) 0.1808(7)
C11 C 0.9040(7) 0.1038(7) 0.2344(7)
C13 C 0.8365(3) 0.1991(8) 0.2339(3)
P2 P 0.6980(5) 0.34604(7) 0.6260(2)
S2 S 0.63020(3) 0.1695(2) 0.64128(6)
S4 S 0.6534(2) 0.54755(3) 0.5994(2)
S6 S 0.88368(4) 0.3703(2) 0.49705(3)
O2 O 0.7630(6) 0.3627(2) 0.6856(1)
N3 N 0.7685(4) 0.2940(5) 0.5703(3)
N4 N 0.7327(2) 0.2175(4) 0.5150(5)
C2 C 0.8370(5) 0.3712(3) 0.5635(9)
C4 C 0.8303(5) 0.4510(5) 0.6792(3)
C6 C 0.8682(2) 0.4572(5) 0.6220(5)
C8 C 0.9394(5) 0.5449(2) 0.6199(4)
C10 C 0.97003(9) 0.6186(5) 0.6735(2)
C12 C 0.9319(7) 0.6123(1) 0.7298(5)
C14 C 0.8630(2) 0.5257(9) 0.7331(1)
N5 N 0.8119(5) 0.8109(2) 0.1300(1)
C15 C 0.8400(1) 0.7337(4) 0.1809(2)
C17 C 0.9117(4) 0.6560(1) 0.1807(3)
C19 C 0.9560(5) 0.6607(6) 0.1270(1)
C21 C 0.9260(1) 0.7380(5) 0.0741(5)
C23 C 0.8559(3) 0.8123(6) 0.0770(5)
N6 N 0.5530(1) 0.5670(3) 0.3746(7)
C16 C 0.5941(2) 0.5670(8) 0.3199(3)
C18 C 0.6650(1) 0.4866(1) 0.3163(9)
C20 C 0.6950(1) 0.4092(7) 0.36805(7)
C22 C 0.6535(8) 0.4024(2) 0.4210(2)
C24 C 0.5850(1) 0.4817(4) 0.4257(3)
loop_
_geom_bond_atom_site_label_1
_geom_bond_atom_site_label_2
_geom_bond_site_symmetry_1
_geom_bond_site_symmetry_2
P1 S1 1_555 1_555
P2 S2 1_555 1_555
S3 P1 1_555 1_555
S4 P2 1_555 1_555
S5 C1 1_555 1_555
S6 C2 1_555 1_555
O1 P1 1_555 1_555
O2 P2 1_555 1_555
N1 P1 1_555 1_555
N2 N1 1_555 1_555
N3 P2 1_555 1_555
N4 N3 1_555 1_555
C1 N1 1_555 1_555
C2 N3 1_555 1_555
C3 O1 1_555 1_555
C4 O2 1_555 1_555
C5 C1 1_555 1_555
C6 C2 1_555 1_555
C7 C5 1_555 1_555
C8 C6 1_555 1_555
C9 C7 1_555 1_555
C10 C8 1_555 1_555
C11 C9 1_555 1_555
C12 C10 1_555 1_555
C13 C3 1_555 1_555
C14 C4 1_555 1_555
N5 C15 1_555 1_555
N6 C16 1_555 1_555
C15 C17 1_555 1_555
C16 C18 1_555 1_555
C17 C19 1_555 1_555
C18 C20 1_555 1_555
C19 C21 1_555 1_555
C20 C22 1_555 1_555
C21 C23 1_555 1_555
C22 C24 1_555 1_555
C23 N5 1_555 1_555
C24 N6 1_555 1_555
C3 C5 1_555 1_555
C4 C6 1_555 1_555
C11 C13 1_555 1_555
C12 C14 1_555 1_555

#END
