
#######################################################################
#
#                 Cambridge Crystallographic Data Centre
#                                CCDC 
#
#######################################################################
#
# If this CIF has been generated from an entry in the Cambridge 
# Structural Database, then it will include bibliographic, chemical, 
# crystal, experimental, refinement or atomic coordinate data resulting 
# from the CCDC's data processing and validation procedures.
#
#######################################################################

data_VOZQUY
_chemical_formula_moiety         'C35 H26 N2 S1'
_chemical_name_systematic        
2-(4-(10-ethyl-10H-phenothiazin-3-yl)phenyl)-3,3-diphenylacrylonitrile
_symmetry_cell_setting           triclinic
_symmetry_space_group_name_H-M   'P -1'
_symmetry_Int_Tables_number      2
_space_group_name_Hall           '-P 1'
loop_
_symmetry_equiv_pos_site_id
_symmetry_equiv_pos_as_xyz
1 x,y,z
2 -x,-y,-z
_cell_length_a                   9.8704(10)
_cell_length_b                   9.8969(12)
_cell_length_c                   15.6800(12)
_cell_angle_alpha                90.723(8)
_cell_angle_beta                 104.683(8)
_cell_angle_gamma                116.975(11)
_cell_volume                     1305.96
_exptl_crystal_colour            'yellowish orange'
_exptl_crystal_description       block
_cell_formula_units_Z            2
loop_
_atom_site_label
_atom_site_type_symbol
_atom_site_fract_x
_atom_site_fract_y
_atom_site_fract_z
S1 S 0.81090(5) 0.70536(5) 0.49219(3)
N1 N 0.65106(15) 0.36844(15) 0.40794(8)
N2 N 1.75429(17) 0.70664(18) 0.94978(11)
C1 C 0.4637(2) 0.0854(2) 0.37928(13)
H1 H 0.4368 -0.0073 0.3431
H2 H 0.3726 0.1021 0.3679
H3 H 0.4966 0.0764 0.4411
C2 C 1.1354(2) 0.7776(2) 1.13034(12)
H4 H 1.0470 0.7750 1.1427
C3 C 0.3409(2) 0.4642(2) 0.28087(12)
H5 H 0.2492 0.4191 0.2329
C4 C 1.2709(2) 0.9145(2) 1.14183(12)
H6 H 1.2745 1.0051 1.1622
C5 C 1.8556(2) 0.9382(2) 1.28535(11)
H7 H 1.8640 0.9259 1.3448
C6 C 0.3928(2) 0.6095(2) 0.32050(12)
H8 H 0.3358 0.6622 0.3012
C7 C 0.5325(2) 0.6765(2) 0.39026(11)
H9 H 0.5683 0.7744 0.4190
C8 C 1.98888(19) 1.0319(2) 1.26097(13)
H10 H 2.0874 1.0817 1.3038
C9 C 0.42180(19) 0.3829(2) 0.31052(11)
H11 H 0.3807 0.2824 0.2839
C10 C 1.34443(17) 0.52791(16) 0.84809(9)
H12 H 1.4093 0.4815 0.8615
C11 C 1.13149(19) 0.6445(2) 1.10049(12)
H13 H 1.0407 0.5514 1.0940
C12 C 0.5988(2) 0.22012(19) 0.35663(10)
H14 H 0.6888 0.2002 0.3666
H15 H 0.5650 0.2263 0.2937
C13 C 1.69489(15) 0.87815(15) 1.13233(9)
C14 C 1.97615(18) 1.05179(18) 1.17315(12)
H16 H 2.0658 1.1165 1.1568
C15 C 0.56447(17) 0.44854(19) 0.37985(9)
C16 C 0.80327(18) 0.30218(17) 0.53410(10)
H17 H 0.7521 0.2012 0.5061
C17 C 1.70897(18) 0.86225(18) 1.22164(10)
H18 H 1.6193 0.8001 1.2388
C18 C 1.40190(18) 0.91823(17) 1.12318(10)
H19 H 1.4942 1.0111 1.1330
C19 C 1.26089(17) 0.64707(17) 1.07994(10)
H20 H 1.2562 0.5561 1.0594
C20 C 0.95255(16) 0.59603(16) 0.62076(9)
H21 H 1.0011 0.6958 0.6502
C21 C 1.83030(17) 0.97578(16) 1.10921(10)
H22 H 1.8226 0.9901 1.0500
C22 C 0.84053(17) 0.55727(17) 0.53887(9)
C23 C 0.99561(16) 0.49097(16) 0.66100(9)
C24 C 1.21936(17) 0.47230(16) 0.77035(9)
H23 H 1.2007 0.3883 0.7328
C25 C 0.76240(16) 0.40794(17) 0.49259(9)
C26 C 0.91758(18) 0.34298(17) 0.61559(10)
H24 H 0.9426 0.2694 0.6405
C27 C 0.61958(18) 0.59931(19) 0.41760(9)
C28 C 1.51902(16) 0.72161(15) 0.98507(9)
C29 C 1.65364(17) 0.71532(17) 0.96806(9)
C30 C 1.12090(16) 0.54011(15) 0.74738(9)
C31 C 1.15004(16) 0.66254(16) 0.80708(9)
H25 H 1.0846 0.7083 0.7940
C32 C 1.37480(16) 0.65228(15) 0.90657(8)
C33 C 1.39757(15) 0.78495(15) 1.08996(8)
C34 C 1.53653(15) 0.79206(14) 1.06505(8)
C35 C 1.27304(16) 0.71723(15) 0.88479(9)
H26 H 1.2888 0.7985 0.9234
loop_
_geom_bond_atom_site_label_1
_geom_bond_atom_site_label_2
_geom_bond_site_symmetry_1
_geom_bond_site_symmetry_2
S1 C22 1_555 1_555
N1 C12 1_555 1_555
N2 C29 1_555 1_555
C1 H1 1_555 1_555
H2 C1 1_555 1_555
H3 C1 1_555 1_555
C2 H4 1_555 1_555
C3 H5 1_555 1_555
C4 C2 1_555 1_555
H6 C4 1_555 1_555
C5 H7 1_555 1_555
C6 C3 1_555 1_555
H8 C6 1_555 1_555
C7 C6 1_555 1_555
H9 C7 1_555 1_555
C8 C5 1_555 1_555
H10 C8 1_555 1_555
C9 C3 1_555 1_555
H11 C9 1_555 1_555
C10 H12 1_555 1_555
C11 C2 1_555 1_555
H13 C11 1_555 1_555
C12 C1 1_555 1_555
H14 C12 1_555 1_555
H15 C12 1_555 1_555
C13 C17 1_555 1_555
C14 C8 1_555 1_555
H16 C14 1_555 1_555
C15 N1 1_555 1_555
C16 H17 1_555 1_555
C17 C5 1_555 1_555
H18 C17 1_555 1_555
C18 C4 1_555 1_555
H19 C18 1_555 1_555
C19 C11 1_555 1_555
H20 C19 1_555 1_555
C20 H21 1_555 1_555
C21 C13 1_555 1_555
H22 C21 1_555 1_555
C22 C20 1_555 1_555
C23 C20 1_555 1_555
C24 C10 1_555 1_555
H23 C24 1_555 1_555
C25 N1 1_555 1_555
C26 C16 1_555 1_555
H24 C26 1_555 1_555
C27 S1 1_555 1_555
C28 C29 1_555 1_555
C30 C23 1_555 1_555
C31 C30 1_555 1_555
H25 C31 1_555 1_555
C32 C10 1_555 1_555
C33 C18 1_555 1_555
C34 C13 1_555 1_555
C35 C31 1_555 1_555
H26 C35 1_555 1_555
C7 C27 1_555 1_555
C9 C15 1_555 1_555
C14 C21 1_555 1_555
C15 C27 1_555 1_555
C16 C25 1_555 1_555
C19 C33 1_555 1_555
C22 C25 1_555 1_555
C23 C26 1_555 1_555
C24 C30 1_555 1_555
C28 C32 1_555 1_555
C28 C34 1_555 1_555
C32 C35 1_555 1_555
C33 C34 1_555 1_555

#END
