
#######################################################################
#
#                 Cambridge Crystallographic Data Centre
#                                CCDC 
#
#######################################################################
#
# If this CIF has been generated from an entry in the Cambridge 
# Structural Database, then it will include bibliographic, chemical, 
# crystal, experimental, refinement or atomic coordinate data resulting 
# from the CCDC's data processing and validation procedures.
#
#######################################################################

data_VPGVGB10
_chemical_formula_moiety         'C57 H93 N15 O15,1.2(C2 H6 O1 S1),5.7(H2 O1)'
_chemical_name_systematic        
'Cyclo-tris(L-valyl-L-prolyl-glycyl-L-valyl-glycyl) dimethylsulfoxide solvate hydrate'
_symmetry_cell_setting           rhombohedral
_symmetry_space_group_name_H-M   'R 3'
_symmetry_Int_Tables_number      146
_space_group_name_Hall           'R 3'
loop_
_symmetry_equiv_pos_site_id
_symmetry_equiv_pos_as_xyz
1 x,y,z
2 1/3+x,2/3+y,2/3+z
3 2/3+x,1/3+y,1/3+z
4 -y,x-y,z
5 -x+y,-x,z
6 1/3-y,2/3+x-y,2/3+z
7 1/3-x+y,2/3-x,2/3+z
8 2/3-y,1/3+x-y,1/3+z
9 2/3-x+y,1/3-x,1/3+z
_cell_length_a                   28.474(1)
_cell_length_b                   28.474(1)
_cell_length_c                   10.044(1)
_cell_angle_alpha                90
_cell_angle_beta                 90
_cell_angle_gamma                120
_cell_volume                     7052.36
_cell_formula_units_Z            3
loop_
_atom_site_label
_atom_site_type_symbol
_atom_site_fract_x
_atom_site_fract_y
_atom_site_fract_z
N1 N 0.19550 0.98900 0.51700
C1 C 0.20640 0.95270 0.44600
C2 C 0.20750 0.91050 0.54400
C3 C 0.22050 0.86970 0.47400
C4 C 0.24870 0.93940 0.65400
C5 C 0.16660 0.92400 0.33800
O1 O 0.11850 0.90080 0.35900
N2 N 0.18540 0.92390 0.21300
C6 C 0.14700 0.89350 0.10600
C7 C 0.18380 0.89820 -0.00900
C8 C 0.23550 0.95090 0.01400
C9 C 0.24130 0.95490 0.16400
C10 C 0.11040 0.83650 0.14400
O2 O 0.12650 0.80800 0.19700
N3 N 0.05790 0.81590 0.10400
C11 C 0.01640 0.75940 0.12300
C12 C -0.01070 0.74450 0.25000
O3 O -0.05010 0.70000 0.26800
N4 N 0.00740 0.78200 0.35100
C13 C -0.01410 0.77100 0.48200
C14 C 0.03180 0.78850 0.58700
C15 C 0.06180 0.75500 0.56000
C16 C 0.00670 0.77660 0.72800
C17 C -0.04440 0.80230 0.50800
O4 O -0.02070 0.85080 0.50700
N5 N -0.09670 0.77310 0.53600
C18 C -0.12750 0.79770 0.57400
C19 C 0.21670 1.04130 0.48500
O5 O 0.24830 1.06130 0.39000
H1 H 0.16900 0.97600 0.59100
H2 H 0.24200 0.97200 0.40200
H3 H 0.17300 0.89200 0.58900
H4 H 0.12800 0.91200 0.08300
H5 H 0.19100 0.86700 -0.00200
H6 H 0.16900 0.89600 -0.09100
H7 H 0.26700 0.95000 -0.02900
H8 H 0.23400 0.98000 -0.01700
H9 H 0.26200 0.98800 0.19800
H10 H 0.26200 0.93400 0.19400
H11 H 0.04700 0.84000 0.06400
H12 H -0.00900 0.75100 0.05100
H13 H 0.03500 0.74000 0.10900
H14 H 0.03500 0.81800 0.33300
H15 H -0.03700 0.73300 0.49200
H16 H 0.05700 0.82700 0.57600
H17 H -0.11300 0.73500 0.52200
H18 H -0.14300 0.78200 0.66300
H19 H -0.10800 0.83400 0.58100
C19D C -0.17540 0.78330 0.48500
C18C C 0.20230 1.07480 0.57400
N1D N -0.20650 0.80450 0.51700
O5D O -0.18700 0.75170 0.39000
N5C N 0.22690 1.13020 0.53600
H18C H 0.21800 1.07500 0.66300
H19C H 0.16600 1.05800 0.58100
C1D C -0.25370 0.79360 0.44600
H1D H -0.19300 0.83100 0.59100
C17C C 0.19770 1.15330 0.50800
H17C H 0.26500 1.15200 0.52200
C2D C -0.29700 0.79250 0.54400
C5D C -0.24260 0.83340 0.33800
H2D H -0.27000 0.75800 0.40200
C13C C 0.22900 1.21490 0.48200
O4C O 0.14920 1.12850 0.50700
C3D C -0.35080 0.77950 0.47400
C4D C -0.30930 0.75130 0.65400
H3D H -0.28100 0.82700 0.58900
O1D O -0.21770 0.88150 0.35900
N2D N -0.26150 0.81460 0.21300
N4C N 0.21800 1.22540 0.35100
C14C C 0.21150 1.24330 0.58700
H15C H 0.26700 1.23000 0.49200
C6D C -0.25350 0.85300 0.10600
C9D C -0.28640 0.75870 0.16400
C12C C 0.25550 1.24480 0.25000
H14C H 0.18200 1.21700 0.33300
C15C C 0.24500 1.30680 0.56000
C16C C 0.22340 1.23010 0.72800
H16C H 0.17300 1.23000 0.57600
C7D C -0.28560 0.81620 -0.00900
C10D C -0.27390 0.88960 0.14400
H4D H -0.21600 0.87200 0.08300
C8D C -0.28460 0.76450 0.01400
H9D H -0.27400 0.73800 0.19800
H10D H -0.32800 0.73800 0.19400
C11C C 0.24060 1.25700 0.12300
O3C O 0.30000 1.24990 0.26800
H5D H -0.32400 0.80900 -0.00200
H6D H -0.27300 0.83100 -0.09100
O2D O -0.31850 0.87350 0.19700
N3D N -0.24200 0.94210 0.10400
H7D H -0.31700 0.73300 -0.02900
H8D H -0.25400 0.76600 -0.01700
N3C N 0.18410 1.24200 0.10400
H12C H 0.24900 1.24000 0.05100
H13C H 0.26000 1.29500 0.10900
C11D C -0.25700 0.98360 0.12300
H11D H -0.20700 0.95300 0.06400
C10C C 0.16350 1.27390 0.14400
H11C H 0.16000 1.20700 0.06400
C12D C -0.24480 1.01070 0.25000
H12D H -0.24000 1.00900 0.05100
H13D H -0.29500 0.96500 0.10900
C6C C 0.10650 1.25350 0.10600
O2C O 0.19200 1.31850 0.19700
O3D O -0.24990 1.05010 0.26800
N4D N -0.22540 0.99260 0.35100
N2C N 0.07610 1.26150 0.21300
C7C C 0.10180 1.28560 -0.00900
H4C H 0.08800 1.21600 0.08300
C13D C -0.21490 1.01410 0.48200
H14D H -0.21700 0.96500 0.33300
C5C C 0.07600 1.24260 0.33800
C9C C 0.04510 1.28640 0.16400
C8C C 0.04910 1.28460 0.01400
H5C H 0.13300 1.32400 -0.00200
H6C H 0.10400 1.27300 -0.09100
C14D C -0.24330 0.96820 0.58700
C17D C -0.15330 1.04440 0.50800
H15D H -0.23000 1.03700 0.49200
C1C C 0.04730 1.25370 0.44600
O1C O 0.09920 1.21770 0.35900
H9C H 0.01200 1.27400 0.19800
H10C H 0.06600 1.32800 0.19400
H7C H 0.05000 1.31700 -0.02900
H8C H 0.02000 1.25400 -0.01700
C15D C -0.30680 0.93820 0.56000
C16D C -0.23010 0.99330 0.72800
H16D H -0.23000 0.94300 0.57600
O4D O -0.12850 1.02070 0.50700
N5D N -0.13020 1.09670 0.53600
N1C N 0.01100 1.20650 0.51700
C2C C 0.08950 1.29700 0.54400
H2C H 0.02800 1.27000 0.40200
C18D C -0.07480 1.12750 0.57400
H17D H -0.15200 1.11300 0.52200
C19C C -0.04130 1.17540 0.48500
H1C H 0.02400 1.19300 0.59100
C3C C 0.13030 1.35080 0.47400
C4C C 0.06060 1.30930 0.65400
H3C H 0.10800 1.28100 0.58900
H18D H -0.07500 1.14300 0.66300
H19D H -0.05800 1.10800 0.58100
O5C O -0.06130 1.18700 0.39000
S1 S -0.13900 0.80600 0.07800
O6 O -0.10970 0.82170 -0.05100
C20 C -0.12520 0.74930 0.15400
C21 C -0.10830 0.86270 0.18300
O7 O 0.02830 0.88960 -0.02200
O8 O 0.13700 0.96520 0.77900
O10 O 0.06680 0.94300 0.54100
O11 O -0.03690 0.89240 -0.19400
O12 O 0.03820 0.92720 0.27700
O9? O 0.09410 0.93680 0.68200
loop_
_geom_bond_atom_site_label_1
_geom_bond_atom_site_label_2
_geom_bond_site_symmetry_1
_geom_bond_site_symmetry_2
N1 C1 1_555 1_555
C1 C2 1_555 1_555
C2 C3 1_555 1_555
C4 C2 1_555 1_555
C5 C1 1_555 1_555
O1 C5 1_555 1_555
N2 C5 1_555 1_555
C6 N2 1_555 1_555
C7 C6 1_555 1_555
C8 C7 1_555 1_555
C9 N2 1_555 1_555
C10 C6 1_555 1_555
O2 C10 1_555 1_555
N3 C10 1_555 1_555
C11 N3 1_555 1_555
C12 C11 1_555 1_555
O3 C12 1_555 1_555
N4 C12 1_555 1_555
C13 N4 1_555 1_555
C14 C13 1_555 1_555
C15 C14 1_555 1_555
C16 C14 1_555 1_555
C17 C13 1_555 1_555
O4 C17 1_555 1_555
N5 C17 1_555 1_555
C18 N5 1_555 1_555
C19 N1 1_555 1_555
O5 C19 1_555 1_555
S1 O6 1_555 1_555
C20 S1 1_555 1_555
C21 S1 1_555 1_555
H1 N1 1_555 1_555
H2 C1 1_555 1_555
H3 C2 1_555 1_555
H4 C6 1_555 1_555
H5 C7 1_555 1_555
H6 C7 1_555 1_555
H7 C8 1_555 1_555
H8 C8 1_555 1_555
H9 C9 1_555 1_555
H10 C9 1_555 1_555
H11 N3 1_555 1_555
H12 C11 1_555 1_555
H13 C11 1_555 1_555
H14 N4 1_555 1_555
H15 C13 1_555 1_555
H16 C14 1_555 1_555
H17 N5 1_555 1_555
H18 C18 1_555 1_555
H19 C18 1_555 1_555
C19D C18 1_555 1_555
C18C C19 1_555 1_555
N1D C19D 1_555 1_555
O5D C19D 1_555 1_555
N5C C18C 1_555 1_555
H18C C18C 1_555 1_555
H19C C18C 1_555 1_555
C1D N1D 1_555 1_555
H1D N1D 1_555 1_555
C17C N5C 1_555 1_555
H17C N5C 1_555 1_555
C2D C1D 1_555 1_555
C5D C1D 1_555 1_555
H2D C1D 1_555 1_555
C13C C17C 1_555 1_555
O4C C17C 1_555 1_555
C3D C2D 1_555 1_555
C4D C2D 1_555 1_555
H3D C2D 1_555 1_555
O1D C5D 1_555 1_555
N2D C5D 1_555 1_555
N4C C13C 1_555 1_555
C14C C13C 1_555 1_555
H15C C13C 1_555 1_555
C6D N2D 1_555 1_555
C9D N2D 1_555 1_555
C12C N4C 1_555 1_555
H14C N4C 1_555 1_555
C15C C14C 1_555 1_555
C16C C14C 1_555 1_555
H16C C14C 1_555 1_555
C7D C6D 1_555 1_555
C10D C6D 1_555 1_555
H4D C6D 1_555 1_555
C8D C9D 1_555 1_555
H9D C9D 1_555 1_555
H10D C9D 1_555 1_555
C11C C12C 1_555 1_555
O3C C12C 1_555 1_555
H5D C7D 1_555 1_555
H6D C7D 1_555 1_555
O2D C10D 1_555 1_555
N3D C10D 1_555 1_555
H7D C8D 1_555 1_555
H8D C8D 1_555 1_555
N3C C11C 1_555 1_555
H12C C11C 1_555 1_555
H13C C11C 1_555 1_555
C11D N3D 1_555 1_555
H11D N3D 1_555 1_555
C10C N3C 1_555 1_555
H11C N3C 1_555 1_555
C12D C11D 1_555 1_555
H12D C11D 1_555 1_555
H13D C11D 1_555 1_555
C6C C10C 1_555 1_555
O2C C10C 1_555 1_555
O3D C12D 1_555 1_555
N4D C12D 1_555 1_555
N2C C6C 1_555 1_555
C7C C6C 1_555 1_555
H4C C6C 1_555 1_555
C13D N4D 1_555 1_555
H14D N4D 1_555 1_555
C5C N2C 1_555 1_555
C9C N2C 1_555 1_555
C8C C7C 1_555 1_555
H5C C7C 1_555 1_555
H6C C7C 1_555 1_555
C14D C13D 1_555 1_555
C17D C13D 1_555 1_555
H15D C13D 1_555 1_555
C1C C5C 1_555 1_555
O1C C5C 1_555 1_555
H9C C9C 1_555 1_555
H10C C9C 1_555 1_555
H7C C8C 1_555 1_555
H8C C8C 1_555 1_555
C15D C14D 1_555 1_555
C16D C14D 1_555 1_555
H16D C14D 1_555 1_555
O4D C17D 1_555 1_555
N5D C17D 1_555 1_555
N1C C1C 1_555 1_555
C2C C1C 1_555 1_555
H2C C1C 1_555 1_555
C18D N5D 1_555 1_555
H17D N5D 1_555 1_555
C19C N1C 1_555 1_555
H1C N1C 1_555 1_555
C3C C2C 1_555 1_555
C4C C2C 1_555 1_555
H3C C2C 1_555 1_555
H18D C18D 1_555 1_555
H19D C18D 1_555 1_555
O5C C19C 1_555 1_555
C8 C9 1_555 1_555
C7D C8D 1_555 1_555
C9C C8C 1_555 1_555
C18D C19C 1_555 1_555

#END
