
#######################################################################
#
#                 Cambridge Crystallographic Data Centre
#                                CCDC 
#
#######################################################################
#
# If this CIF has been generated from an entry in the Cambridge 
# Structural Database, then it will include bibliographic, chemical, 
# crystal, experimental, refinement or atomic coordinate data resulting 
# from the CCDC's data processing and validation procedures.
#
#######################################################################

data_VUBTUH01
_chemical_formula_moiety         'C17 H18 N2 O5'
_chemical_name_systematic        
'Ethyl 2-(2-amino-3-ethoxycarbonyl-4H-benzopyran-4-yl)cyanoacetate'
_symmetry_cell_setting           monoclinic
_symmetry_space_group_name_H-M   'P 21/n'
_symmetry_Int_Tables_number      14
_space_group_name_Hall           '-P 2yn'
loop_
_symmetry_equiv_pos_site_id
_symmetry_equiv_pos_as_xyz
1 x,y,z
2 1/2-x,1/2+y,1/2-z
3 -x,-y,-z
4 1/2+x,1/2-y,1/2+z
_cell_length_a                   9.277(3)
_cell_length_b                   8.521(2)
_cell_length_c                   21.320(2)
_cell_angle_alpha                90
_cell_angle_beta                 93.72(2)
_cell_angle_gamma                90
_cell_volume                     1681.78
_exptl_crystal_colour            colorless
_cell_formula_units_Z            4
_exptl_crystal_recrystallization_method '95% ethanol'
loop_
_atom_site_label
_atom_site_type_symbol
_atom_site_fract_x
_atom_site_fract_y
_atom_site_fract_z
O1 O 0.0507(1) 0.1777(2) 0.0212(1)
O2 O 0.4806(2) 0.2272(2) 0.1481(1)
O3 O 0.4960(2) 0.1037(2) 0.0560(1)
N1 N 0.2423(2) 0.0629(2) -0.0144(1)
N2 N -0.0421(2) -0.0199(3) 0.1481(1)
C1 C -0.0078(2) 0.3053(2) 0.0516(1)
C2 C -0.1341(2) 0.3655(3) 0.0240(1)
C3 C -0.1923(2) 0.4970(3) 0.0497(1)
C4 C -0.1250(3) 0.5678(3) 0.1015(1)
C5 C -0.0007(2) 0.5031(3) 0.1294(1)
C6 C 0.0600(2) 0.3670(2) 0.1054(1)
C7 C 0.1930(2) 0.2887(2) 0.1345(1)
C8 C 0.2703(2) 0.2033(2) 0.0843(1)
C9 C 0.1942(2) 0.1488(2) 0.0321(1)
C10 C 0.4225(2) 0.1719(3) 0.0928(1)
C11 C 0.6337(2) 0.2029(3) 0.1612(1)
C12 C 0.6737(3) 0.2666(5) 0.2225(1)
C13 C 0.1587(2) 0.1756(2) 0.1885(1)
C14 C 0.0465(3) 0.0631(3) 0.1679(1)
C15 C 0.1245(3) 0.2590(3) 0.2486(1)
O4 O 0.0339(7) 0.1757(10) 0.2801(3)
O5 O 0.1901(9) 0.3772(7) 0.2631(7)
C16 C -0.0098(7) 0.2261(10) 0.3421(3)
C17 C 0.1060(9) 0.2054(12) 0.3931(4)
O6? O 0.0797(9) 0.1693(9) 0.2931(3)
O7? O 0.1341(9) 0.3979(5) 0.2587(6)
C18? C 0.0536(15) 0.2631(11) 0.3489(4)
C19? C 0.0423(10) 0.1409(12) 0.3982(4)
loop_
_geom_bond_atom_site_label_1
_geom_bond_atom_site_label_2
_geom_bond_site_symmetry_1
_geom_bond_site_symmetry_2
O1 C1 1_555 1_555
O2 C10 1_555 1_555
O3 C10 1_555 1_555
N1 C9 1_555 1_555
N2 C14 1_555 1_555
C1 C2 1_555 1_555
C2 C3 1_555 1_555
C3 C4 1_555 1_555
C4 C5 1_555 1_555
C5 C6 1_555 1_555
C6 C1 1_555 1_555
C7 C6 1_555 1_555
C8 C7 1_555 1_555
C9 O1 1_555 1_555
C10 C8 1_555 1_555
C11 O2 1_555 1_555
C12 C11 1_555 1_555
C13 C7 1_555 1_555
C14 C13 1_555 1_555
C15 C13 1_555 1_555
O4 C15 1_555 1_555
O5 C15 1_555 1_555
C16 O4 1_555 1_555
C17 C16 1_555 1_555
C8 C9 1_555 1_555

#END
