
#######################################################################
#
#                 Cambridge Crystallographic Data Centre
#                                CCDC 
#
#######################################################################
#
# If this CIF has been generated from an entry in the Cambridge 
# Structural Database, then it will include bibliographic, chemical, 
# crystal, experimental, refinement or atomic coordinate data resulting 
# from the CCDC's data processing and validation procedures.
#
#######################################################################

data_VUBXOH
_chemical_formula_moiety         'C23 H19 Cl1 N2 O4 S1'
_chemical_name_systematic        
N-(2-(4-Chloro-1-(methoxyimino)-1H-isochromen-3-yl)phenyl)-4-methylbenzenesulfonamide
_symmetry_cell_setting           orthorhombic
_symmetry_space_group_name_H-M   'P 21 21 21'
_symmetry_Int_Tables_number      19
_space_group_name_Hall           'P 2ac 2ab'
loop_
_symmetry_equiv_pos_site_id
_symmetry_equiv_pos_as_xyz
1 x,y,z
2 1/2-x,-y,1/2+z
3 -x,1/2+y,1/2-z
4 1/2+x,1/2-y,-z
_cell_length_a                   10.001(2)
_cell_length_b                   13.527(3)
_cell_length_c                   15.571(3)
_cell_angle_alpha                90
_cell_angle_beta                 90
_cell_angle_gamma                90
_cell_volume                     2106.5
_exptl_crystal_description       block
_cell_formula_units_Z            4
loop_
_atom_site_label
_atom_site_type_symbol
_atom_site_fract_x
_atom_site_fract_y
_atom_site_fract_z
S1 S 0.13256(7) 0.91837(5) 0.75931(4)
Cl1 Cl -0.34528(8) 1.06752(6) 0.63075(4)
C1 C -0.0695(4) 1.1766(2) 0.58768(16)
H1 H -0.1533 1.2051 0.5802
C2 C 0.0254(5) 1.1829(3) 0.52314(18)
H2 H 0.0048 1.2164 0.4727
C3 C 0.1481(5) 1.1410(3) 0.5323(2)
H3 H 0.2097 1.1439 0.4876
C4 C 0.1809(3) 1.0937(2) 0.60858(18)
H4 H 0.2657 1.0666 0.6156
C5 C 0.0887(3) 1.08697(19) 0.67394(15)
C6 C -0.0392(3) 1.12746(19) 0.66391(14)
C7 C -0.1413(3) 1.12220(18) 0.73195(13)
C8 C -0.2718(3) 1.10057(18) 0.72817(15)
C9 C -0.3563(3) 1.09842(18) 0.80469(16)
C10 C -0.4931(3) 1.0776(2) 0.8051(2)
H5 H -0.5370 1.0658 0.7535
C11 C -0.5632(3) 1.0745(3) 0.8804(2)
H6 H -0.6548 1.0629 0.8790
C12 C -0.5011(3) 1.0880(3) 0.9575(2)
H7 H -0.5498 1.0838 1.0083
C13 C -0.3663(3) 1.1080(2) 0.96001(18)
H8 H -0.3237 1.1174 1.0125
C14 C -0.2936(3) 1.11408(19) 0.88410(16)
C15 C -0.1495(3) 1.13113(18) 0.88626(14)
C16 C 0.1199(3) 1.1296(3) 1.02000(17)
H9 H 0.2143 1.1381 1.0116
H10 H 0.1028 1.0639 1.0407
H11 H 0.0885 1.1769 1.0613
C17 C -0.0350(3) 0.88144(19) 0.76496(15)
C18 C -0.1047(3) 0.8913(2) 0.84158(17)
H12 H -0.0606 0.9122 0.8909
C19 C -0.2380(3) 0.8704(2) 0.84428(17)
H13 H -0.2846 0.8792 0.8954
C20 C -0.3053(3) 0.83649(19) 0.77272(18)
C21 C -0.4551(3) 0.8160(3) 0.7761(2)
H14 H -0.4849 0.7931 0.7210
H15 H -0.5018 0.8757 0.7908
H16 H -0.4729 0.7664 0.8186
C22 C -0.2347(3) 0.8231(2) 0.69837(18)
H17 H -0.2782 0.7982 0.6503
C23 C -0.0998(3) 0.8457(2) 0.69304(17)
H18 H -0.0536 0.8370 0.6418
O1 O -0.08335(17) 1.14405(13) 0.81087(9)
O2 O 0.0526(2) 1.14400(17) 0.94132(10)
O3 O 0.1937(2) 0.89903(16) 0.84077(14)
O4 O 0.1890(2) 0.87999(15) 0.68206(13)
N1 N -0.0856(2) 1.13133(19) 0.95623(13)
N2 N 0.1315(2) 1.03910(15) 0.75170(12)
H19 H 0.1568 1.0743 0.7947
loop_
_geom_bond_atom_site_label_1
_geom_bond_atom_site_label_2
_geom_bond_site_symmetry_1
_geom_bond_site_symmetry_2
S1 C17 1_555 1_555
Cl1 C8 1_555 1_555
C1 H1 1_555 1_555
C2 C1 1_555 1_555
H2 C2 1_555 1_555
C3 C2 1_555 1_555
H3 C3 1_555 1_555
C4 C3 1_555 1_555
H4 C4 1_555 1_555
C5 C4 1_555 1_555
C6 C1 1_555 1_555
C7 C6 1_555 1_555
C8 C7 1_555 1_555
C9 C8 1_555 1_555
C10 C9 1_555 1_555
H5 C10 1_555 1_555
C11 C10 1_555 1_555
H6 C11 1_555 1_555
C12 C11 1_555 1_555
H7 C12 1_555 1_555
C13 C12 1_555 1_555
H8 C13 1_555 1_555
C14 C9 1_555 1_555
C15 C14 1_555 1_555
C16 H9 1_555 1_555
H10 C16 1_555 1_555
H11 C16 1_555 1_555
C17 C18 1_555 1_555
C18 H12 1_555 1_555
C19 C18 1_555 1_555
H13 C19 1_555 1_555
C20 C19 1_555 1_555
C21 C20 1_555 1_555
H14 C21 1_555 1_555
H15 C21 1_555 1_555
H16 C21 1_555 1_555
C22 C20 1_555 1_555
H17 C22 1_555 1_555
C23 C17 1_555 1_555
H18 C23 1_555 1_555
O1 C7 1_555 1_555
O2 C16 1_555 1_555
O3 S1 1_555 1_555
O4 S1 1_555 1_555
N1 C15 1_555 1_555
N2 S1 1_555 1_555
H19 N2 1_555 1_555
C5 C6 1_555 1_555
C5 N2 1_555 1_555
C13 C14 1_555 1_555
C15 O1 1_555 1_555
C22 C23 1_555 1_555
O2 N1 1_555 1_555

#END
