
#######################################################################
#
#                 Cambridge Crystallographic Data Centre
#                                CCDC 
#
#######################################################################
#
# If this CIF has been generated from an entry in the Cambridge 
# Structural Database, then it will include bibliographic, chemical, 
# crystal, experimental, refinement or atomic coordinate data resulting 
# from the CCDC's data processing and validation procedures.
#
#######################################################################

data_VUBXIB
_chemical_formula_moiety         'C23 H18 N2 O5 S1'
_chemical_name_systematic        
2'-Methoxy-1-((4-methylphenyl)sulfonyl)spiro[indole-2,1'-isoindole]-3,3'(1H,2'H)-dione
_symmetry_cell_setting           monoclinic
_symmetry_space_group_name_H-M   'P 21/c'
_symmetry_Int_Tables_number      14
_space_group_name_Hall           '-P 2ybc'
loop_
_symmetry_equiv_pos_site_id
_symmetry_equiv_pos_as_xyz
1 x,y,z
2 -x,1/2+y,1/2-z
3 -x,-y,-z
4 x,1/2-y,1/2+z
_cell_length_a                   9.1045(18)
_cell_length_b                   14.400(3)
_cell_length_c                   16.628(3)
_cell_angle_alpha                90
_cell_angle_beta                 105.06(3)
_cell_angle_gamma                90
_cell_volume                     2105.14
_exptl_crystal_colour            colorless
_exptl_crystal_description       block
_cell_formula_units_Z            4
loop_
_atom_site_label
_atom_site_type_symbol
_atom_site_fract_x
_atom_site_fract_y
_atom_site_fract_z
S1 S 0.29747(5) 0.13090(3) 0.15272(3)
O1 O 0.19458(18) 0.07701(9) 0.43486(8)
O2 O 0.41168(14) -0.04364(9) 0.30845(8)
O3 O 0.17168(18) -0.16092(8) 0.22796(10)
O4 O 0.26628(16) 0.03679(8) 0.12798(8)
O5 O 0.43322(14) 0.17429(10) 0.14395(8)
N1 N 0.30524(16) 0.13514(9) 0.25280(8)
N2 N 0.25895(16) -0.02317(9) 0.29331(9)
C1 C 0.37626(19) 0.20532(11) 0.31019(10)
C2 C 0.4715(2) 0.27703(12) 0.30029(12)
H1 H 0.4978 0.2856 0.2504
C3 C 0.5260(2) 0.33536(13) 0.36754(14)
H2 H 0.5901 0.3839 0.3620
C4 C 0.4892(3) 0.32457(14) 0.44258(13)
H3 H 0.5276 0.3655 0.4862
C5 C 0.3956(2) 0.25319(12) 0.45230(12)
H4 H 0.3708 0.2446 0.5026
C6 C 0.3388(2) 0.19415(11) 0.38592(10)
C7 C 0.2439(2) 0.11320(12) 0.38179(11)
C8 C 0.21420(19) 0.07319(10) 0.29190(10)
C9 C 0.0470(2) 0.06649(11) 0.24831(11)
C10 C -0.0615(2) 0.13489(14) 0.23666(14)
H5 H -0.0369 0.1949 0.2562
C11 C -0.2081(3) 0.11130(17) 0.19501(17)
H6 H -0.2838 0.1564 0.1854
C12 C -0.2442(3) 0.02198(18) 0.16732(19)
H7 H -0.3440 0.0078 0.1393
C13 C -0.1355(3) -0.04670(16) 0.18023(16)
H8 H -0.1605 -0.1070 0.1615
C14 C 0.0120(2) -0.02335(13) 0.22196(12)
C15 C 0.1510(2) -0.08105(12) 0.24442(12)
C16 C 0.4673(3) -0.08460(18) 0.38910(15)
H9 H 0.4439 -0.0448 0.4304
H10 H 0.5755 -0.0925 0.4008
H11 H 0.4198 -0.1439 0.3902
C17 C 0.14287(19) 0.19932(12) 0.09945(10)
C18 C 0.0452(2) 0.16408(14) 0.02883(13)
H12 H 0.0542 0.1027 0.0133
C19 C -0.0669(2) 0.22091(16) -0.01904(14)
H13 H -0.1327 0.1970 -0.0670
C20 C -0.0831(2) 0.31177(14) 0.00258(12)
C21 C 0.0144(2) 0.34484(14) 0.07469(12)
H14 H 0.0033 0.4055 0.0913
C22 C 0.1281(2) 0.29021(13) 0.12285(12)
H15 H 0.1942 0.3143 0.1706
C23 C -0.2015(3) 0.37318(17) -0.05205(14)
H16 H -0.1896 0.3725 -0.1077
H17 H -0.1897 0.4355 -0.0309
H18 H -0.3010 0.3507 -0.0524
loop_
_geom_bond_atom_site_label_1
_geom_bond_atom_site_label_2
_geom_bond_site_symmetry_1
_geom_bond_site_symmetry_2
S1 O4 1_555 1_555
O1 C7 1_555 1_555
O2 N2 1_555 1_555
O3 C15 1_555 1_555
O5 S1 1_555 1_555
N1 S1 1_555 1_555
N2 C8 1_555 1_555
C1 N1 1_555 1_555
C2 C1 1_555 1_555
H1 C2 1_555 1_555
C3 C2 1_555 1_555
H2 C3 1_555 1_555
C4 C3 1_555 1_555
H3 C4 1_555 1_555
C5 C4 1_555 1_555
H4 C5 1_555 1_555
C6 C1 1_555 1_555
C7 C6 1_555 1_555
C8 N1 1_555 1_555
C9 C8 1_555 1_555
C10 C9 1_555 1_555
H5 C10 1_555 1_555
C11 C10 1_555 1_555
H6 C11 1_555 1_555
C12 C11 1_555 1_555
H7 C12 1_555 1_555
C13 C12 1_555 1_555
H8 C13 1_555 1_555
C14 C9 1_555 1_555
C15 N2 1_555 1_555
C16 O2 1_555 1_555
H9 C16 1_555 1_555
H10 C16 1_555 1_555
H11 C16 1_555 1_555
C17 S1 1_555 1_555
C18 C17 1_555 1_555
H12 C18 1_555 1_555
C19 C18 1_555 1_555
H13 C19 1_555 1_555
C20 C19 1_555 1_555
C21 C20 1_555 1_555
H14 C21 1_555 1_555
C22 C17 1_555 1_555
H15 C22 1_555 1_555
C23 C20 1_555 1_555
H16 C23 1_555 1_555
H17 C23 1_555 1_555
H18 C23 1_555 1_555
C5 C6 1_555 1_555
C7 C8 1_555 1_555
C13 C14 1_555 1_555
C14 C15 1_555 1_555
C21 C22 1_555 1_555

#END
