
#######################################################################
#
#                 Cambridge Crystallographic Data Centre
#                                CCDC 
#
#######################################################################
#
# If this CIF has been generated from an entry in the Cambridge 
# Structural Database, then it will include bibliographic, chemical, 
# crystal, experimental, refinement or atomic coordinate data resulting 
# from the CCDC's data processing and validation procedures.
#
#######################################################################

data_VUBYAU
_chemical_formula_moiety         'C36 H38 N4 O3'
_chemical_name_systematic        
3',6'-bis(diethylamino)-2-((2-methoxybenzylidene)amino)spiro[isoindole-1,9'-xanthen]-3(2H)-one
_symmetry_cell_setting           monoclinic
_symmetry_space_group_name_H-M   'P 21/c'
_symmetry_Int_Tables_number      14
_space_group_name_Hall           '-P 2ybc'
loop_
_symmetry_equiv_pos_site_id
_symmetry_equiv_pos_as_xyz
1 x,y,z
2 -x,1/2+y,1/2-z
3 -x,-y,-z
4 x,1/2-y,1/2+z
_cell_length_a                   13.0204(5)
_cell_length_b                   11.8790(5)
_cell_length_c                   20.0062(7)
_cell_angle_alpha                90
_cell_angle_beta                 95.061(2)
_cell_angle_gamma                90
_cell_volume                     3082.28
_exptl_crystal_colour            violet
_exptl_crystal_description       Hexagon
_cell_formula_units_Z            4
loop_
_atom_site_label
_atom_site_type_symbol
_atom_site_fract_x
_atom_site_fract_y
_atom_site_fract_z
O1 O 0.43646(12) 0.38271(12) 0.68055(9)
O2 O 0.13001(14) 0.76823(15) 0.77647(8)
N1 N 0.23279(13) 0.64818(14) 0.71901(9)
N2 N 0.18546(14) 0.64666(14) 0.65443(9)
O3 O -0.01573(16) 0.89228(15) 0.59550(10)
N3 N 0.18453(15) 0.10284(15) 0.71124(11)
N4 N 0.67519(16) 0.62855(17) 0.59054(11)
C1 C 0.27862(16) 0.44419(16) 0.72507(10)
C2 C 0.15074(18) 0.29870(18) 0.73933(11)
H1 H 0.0859 0.2796 0.7519
C3 C 0.46350(16) 0.49378(17) 0.67105(11)
C4 C 0.40848(16) 0.58298(17) 0.69407(11)
C5 C 0.31738(16) 0.56440(16) 0.73449(10)
C6 C 0.18301(17) 0.40907(18) 0.74370(11)
H2 H 0.1391 0.4625 0.7598
C7 C 0.33965(16) 0.36083(17) 0.70123(11)
C8 C 0.21458(17) 0.21486(17) 0.71616(11)
C9 C 0.20274(18) 0.70307(18) 0.77497(11)
C10 C 0.31016(17) 0.24909(18) 0.69648(12)
H3 H 0.3543 0.1963 0.6801
C11 C 0.06523(17) 0.72278(19) 0.56923(11)
C12 C 0.11922(17) 0.72324(18) 0.63712(11)
H4 H 0.1051 0.7793 0.6675
C13 C 0.55064(17) 0.50700(19) 0.63680(12)
H5 H 0.5846 0.4438 0.6224
C14 C 0.27541(19) 0.66629(18) 0.83141(11)
C15 C 0.34393(17) 0.58969(17) 0.80872(11)
C16 C 0.58796(18) 0.61426(19) 0.62373(12)
C17 C 0.08508(18) 0.0671(2) 0.73180(12)
H6 H 0.0650 -0.0023 0.7086
H7 H 0.0340 0.1237 0.7179
C18 C 0.44660(18) 0.68932(19) 0.68131(12)
H8 H 0.4126 0.7520 0.6963
C19 C -0.00448(18) 0.8081(2) 0.54919(12)
C20 C 0.53265(19) 0.7054(2) 0.64734(13)
H9 H 0.5548 0.7783 0.6398
C21 C 0.2603(2) 0.01351(19) 0.70115(13)
H10 H 0.2416 -0.0538 0.7247
H11 H 0.3277 0.0375 0.7205
C22 C 0.0840(2) 0.0483(2) 0.80634(13)
H12 H 0.1318 -0.0105 0.8203
H13 H 0.0159 0.0268 0.8163
H14 H 0.1037 0.1165 0.8298
C23 C 0.4228(2) 0.5460(2) 0.85181(13)
H15 H 0.4696 0.4947 0.8368
C24 C -0.0577(2) 0.8060(2) 0.48580(14)
H16 H -0.1047 0.8625 0.4729
C25 C 0.2818(2) 0.7003(2) 0.89834(13)
H17 H 0.2347 0.7508 0.9137
C26 C 0.71986(19) 0.5348(2) 0.55570(14)
H18 H 0.7276 0.4713 0.5862
H19 H 0.7883 0.5564 0.5449
C27 C -0.0928(2) 0.9756(2) 0.58202(15)
H20 H -0.0836 1.0112 0.5399
H21 H -0.0873 1.0310 0.6171
H22 H -0.1597 0.9411 0.5800
C28 C 0.0794(2) 0.6365(2) 0.52441(14)
H23 H 0.1246 0.5782 0.5371
C29 C 0.2665(3) -0.0145(2) 0.62811(15)
H24 H 0.1996 -0.0361 0.6084
H25 H 0.3140 -0.0755 0.6243
H26 H 0.2900 0.0503 0.6052
C30 C 0.7119(2) 0.7407(2) 0.57691(15)
H27 H 0.7848 0.7366 0.5706
H28 H 0.7044 0.7878 0.6158
C31 C 0.4299(3) 0.5809(3) 0.91772(15)
H29 H 0.4830 0.5528 0.9473
C32 C -0.0406(2) 0.7199(3) 0.44242(14)
H30 H -0.0756 0.7188 0.3999
C33 C 0.3611(3) 0.6557(3) 0.94111(15)
H31 H 0.3678 0.6768 0.9861
C34 C 0.0277(3) 0.6358(3) 0.46125(15)
H32 H 0.0392 0.5781 0.4314
C35 C 0.6587(3) 0.4966(4) 0.49178(17)
H33 H 0.5918 0.4715 0.5020
H34 H 0.6943 0.4359 0.4722
H35 H 0.6513 0.5583 0.4607
C36 C 0.6564(3) 0.7964(3) 0.51590(18)
H36 H 0.6726 0.7573 0.4761
H37 H 0.6782 0.8734 0.5136
H38 H 0.5834 0.7937 0.5193
loop_
_geom_bond_atom_site_label_1
_geom_bond_atom_site_label_2
_geom_bond_site_symmetry_1
_geom_bond_site_symmetry_2
O1 C3 1_555 1_555
O2 C9 1_555 1_555
N1 N2 1_555 1_555
N2 C12 1_555 1_555
O3 C19 1_555 1_555
N3 C8 1_555 1_555
N4 C16 1_555 1_555
C1 C5 1_555 1_555
C2 H1 1_555 1_555
C3 C4 1_555 1_555
C4 C5 1_555 1_555
C5 N1 1_555 1_555
C6 C1 1_555 1_555
H2 C6 1_555 1_555
C7 O1 1_555 1_555
C8 C2 1_555 1_555
C9 N1 1_555 1_555
C10 C7 1_555 1_555
H3 C10 1_555 1_555
C11 C12 1_555 1_555
C12 H4 1_555 1_555
C13 C3 1_555 1_555
H5 C13 1_555 1_555
C14 C9 1_555 1_555
C15 C5 1_555 1_555
C16 C13 1_555 1_555
C17 N3 1_555 1_555
H6 C17 1_555 1_555
H7 C17 1_555 1_555
C18 C4 1_555 1_555
H8 C18 1_555 1_555
C19 C11 1_555 1_555
C20 C16 1_555 1_555
H9 C20 1_555 1_555
C21 N3 1_555 1_555
H10 C21 1_555 1_555
H11 C21 1_555 1_555
C22 C17 1_555 1_555
H12 C22 1_555 1_555
H13 C22 1_555 1_555
H14 C22 1_555 1_555
C23 C15 1_555 1_555
H15 C23 1_555 1_555
C24 C19 1_555 1_555
H16 C24 1_555 1_555
C25 C14 1_555 1_555
H17 C25 1_555 1_555
C26 N4 1_555 1_555
H18 C26 1_555 1_555
H19 C26 1_555 1_555
C27 O3 1_555 1_555
H20 C27 1_555 1_555
H21 C27 1_555 1_555
H22 C27 1_555 1_555
C28 C11 1_555 1_555
H23 C28 1_555 1_555
C29 C21 1_555 1_555
H24 C29 1_555 1_555
H25 C29 1_555 1_555
H26 C29 1_555 1_555
C30 N4 1_555 1_555
H27 C30 1_555 1_555
H28 C30 1_555 1_555
C31 C23 1_555 1_555
H29 C31 1_555 1_555
C32 C24 1_555 1_555
H30 C32 1_555 1_555
C33 C25 1_555 1_555
H31 C33 1_555 1_555
C34 C28 1_555 1_555
H32 C34 1_555 1_555
C35 C26 1_555 1_555
H33 C35 1_555 1_555
H34 C35 1_555 1_555
H35 C35 1_555 1_555
C36 C30 1_555 1_555
H36 C36 1_555 1_555
H37 C36 1_555 1_555
H38 C36 1_555 1_555
C1 C7 1_555 1_555
C2 C6 1_555 1_555
C8 C10 1_555 1_555
C14 C15 1_555 1_555
C18 C20 1_555 1_555
C31 C33 1_555 1_555
C32 C34 1_555 1_555

#END
