
#######################################################################
#
#                 Cambridge Crystallographic Data Centre
#                                CCDC 
#
#######################################################################
#
# If this CIF has been generated from an entry in the Cambridge 
# Structural Database, then it will include bibliographic, chemical, 
# crystal, experimental, refinement or atomic coordinate data resulting 
# from the CCDC's data processing and validation procedures.
#
#######################################################################

data_VUBYAU01
_chemical_formula_moiety         'C36 H38 N4 O3'
_chemical_name_systematic        
3',6'-bis(diethylamino)-2-((2-methoxybenzylidene)amino)spiro[isoindole-1,9'-xanthen]-3(2H)-one
_symmetry_cell_setting           triclinic
_symmetry_space_group_name_H-M   'P -1'
_symmetry_Int_Tables_number      2
_space_group_name_Hall           '-P 1'
loop_
_symmetry_equiv_pos_site_id
_symmetry_equiv_pos_as_xyz
1 x,y,z
2 -x,-y,-z
_cell_length_a                   9.9945(4)
_cell_length_b                   11.6134(5)
_cell_length_c                   15.4804(7)
_cell_angle_alpha                90.227(2)
_cell_angle_beta                 102.174(2)
_cell_angle_gamma                115.296(2)
_cell_volume                     1578.97
_exptl_crystal_colour            pink
_exptl_crystal_description       block
_cell_formula_units_Z            2
loop_
_atom_site_label
_atom_site_type_symbol
_atom_site_fract_x
_atom_site_fract_y
_atom_site_fract_z
N1 N 0.01400(12) 0.33362(11) 0.23310(7)
N2 N 0.07212(13) 0.40525(11) 0.31470(7)
N3 N 0.21527(17) -0.10796(14) 0.37599(10)
N4 N 0.63740(15) 0.63488(13) 0.10083(11)
O1 O 0.34959(10) 0.22431(9) 0.18639(7)
O2 O -0.22263(12) 0.33179(13) 0.21907(8)
O3 O 0.51076(12) 0.62191(11) 0.40281(8)
C1 C 0.6635(2) 0.7171(2) 0.42084(16)
H1 H 0.6663 0.7996 0.4317
H2 H 0.7058 0.7163 0.3707
H3 H 0.7219 0.6999 0.4723
C2 C 0.42815(16) 0.60863(14) 0.46535(10)
C3 C 0.48546(19) 0.67699(16) 0.54907(11)
H4 H 0.5876 0.7352 0.5666
C4 C 0.3908(2) 0.65854(18) 0.60629(11)
H5 H 0.4301 0.7042 0.6624
C5 C 0.2385(2) 0.57310(18) 0.58124(11)
H6 H 0.1751 0.5617 0.6199
C6 C 0.18180(17) 0.50492(15) 0.49808(10)
H7 H 0.0793 0.4473 0.4811
C7 C 0.27406(15) 0.52019(13) 0.43890(9)
C8 C 0.21374(15) 0.44624(13) 0.35125(9)
H8 H 0.2775 0.4294 0.3226
C9 C -0.13714(15) 0.30011(14) 0.19160(9)
C10 C -0.16746(15) 0.22135(13) 0.10860(9)
C11 C -0.29948(17) 0.16791(17) 0.04075(11)
H9 H -0.3854 0.1785 0.0442
C12 C -0.2988(2) 0.09882(19) -0.03175(12)
H10 H -0.3854 0.0624 -0.0781
C13 C -0.1706(2) 0.08308(17) -0.03631(11)
H11 H -0.1723 0.0366 -0.0859
C14 C -0.03959(17) 0.13545(14) 0.03184(10)
H12 H 0.0461 0.1242 0.0288
C15 C -0.04045(14) 0.20459(12) 0.10423(9)
C16 C 0.08792(13) 0.27258(12) 0.18676(8)
C17 C 0.23075(14) 0.36929(12) 0.16226(8)
C18 C 0.24768(16) 0.48886(13) 0.13684(10)
H13 H 0.1672 0.5103 0.1333
C19 C 0.37981(16) 0.57629(14) 0.11683(11)
H14 H 0.3865 0.6551 0.1002
C20 C 0.50503(16) 0.54830(14) 0.12108(10)
C21 C 0.48861(15) 0.42796(13) 0.14655(9)
H15 H 0.5689 0.4060 0.1511
C22 C 0.35381(14) 0.34204(12) 0.16492(8)
C23 C 0.24750(14) 0.15451(12) 0.23574(8)
C24 C 0.27774(15) 0.06057(13) 0.27831(9)
H16 H 0.3605 0.0477 0.2710
C25 C 0.18519(16) -0.01552(14) 0.33236(9)
C26 C 0.06218(18) 0.00969(15) 0.34085(10)
H17 H -0.0004 -0.0367 0.3774
C27 C 0.03325(16) 0.10190(14) 0.29591(10)
H18 H -0.0503 0.1144 0.3020
C28 C 0.12395(14) 0.17688(12) 0.24185(8)
C29 C 0.6867(3) 0.8559(2) 0.1522(2)
H19 H 0.6062 0.8233 0.1830
H20 H 0.6932 0.9347 0.1298
H21 H 0.7814 0.8712 0.1923
C30 C 0.6540(2) 0.75976(18) 0.07598(15)
H22 H 0.5611 0.7490 0.0343
H23 H 0.7359 0.7941 0.0453
C31 C 0.7657(2) 0.6057(2) 0.10241(17)
H24 H 0.8201 0.6513 0.0589
H25 H 0.7283 0.5146 0.0862
C32 C 0.8729(4) 0.6431(3) 0.1927(2)
H26 H 0.9197 0.7345 0.2057
H27 H 0.9501 0.6145 0.1936
H28 H 0.8174 0.6041 0.2367
C33 C 0.1515(3) -0.1403(2) 0.52325(15)
H29 H 0.2539 -0.1241 0.5517
H30 H 0.0821 -0.2013 0.5535
H31 H 0.1415 -0.0618 0.5254
C34 C 0.1156(2) -0.19299(17) 0.42799(13)
H32 H 0.1228 -0.2736 0.4266
H33 H 0.0113 -0.2106 0.4003
C35 C 0.3473(2) -0.1282(2) 0.36993(13)
H34 H 0.3762 -0.1654 0.4224
H35 H 0.4319 -0.0460 0.3692
C36 C 0.3195(3) -0.2135(2) 0.28958(16)
H36 H 0.2373 -0.2957 0.2905
H37 H 0.4099 -0.2235 0.2892
H38 H 0.2933 -0.1763 0.2372
C37? C 0.8620(19) 0.5884(15) 0.1027(10)
C38? C 0.7901(14) 0.6359(13) 0.1635(9)
loop_
_geom_bond_atom_site_label_1
_geom_bond_atom_site_label_2
_geom_bond_site_symmetry_1
_geom_bond_site_symmetry_2
N1 N2 1_555 1_555
N2 C8 1_555 1_555
N3 C25 1_555 1_555
N4 C20 1_555 1_555
O1 C22 1_555 1_555
O2 C9 1_555 1_555
O3 C1 1_555 1_555
C1 H1 1_555 1_555
H2 C1 1_555 1_555
H3 C1 1_555 1_555
C2 O3 1_555 1_555
C3 C2 1_555 1_555
H4 C3 1_555 1_555
C4 C3 1_555 1_555
H5 C4 1_555 1_555
C5 C4 1_555 1_555
H6 C5 1_555 1_555
C6 C5 1_555 1_555
H7 C6 1_555 1_555
C7 C2 1_555 1_555
C8 C7 1_555 1_555
H8 C8 1_555 1_555
C9 N1 1_555 1_555
C10 C9 1_555 1_555
C11 C10 1_555 1_555
H9 C11 1_555 1_555
C12 C11 1_555 1_555
H10 C12 1_555 1_555
C13 C12 1_555 1_555
H11 C13 1_555 1_555
C14 C13 1_555 1_555
H12 C14 1_555 1_555
C15 C10 1_555 1_555
C16 N1 1_555 1_555
C17 C16 1_555 1_555
C18 C17 1_555 1_555
H13 C18 1_555 1_555
C19 C18 1_555 1_555
H14 C19 1_555 1_555
C20 C19 1_555 1_555
C21 C20 1_555 1_555
H15 C21 1_555 1_555
C22 C17 1_555 1_555
C23 O1 1_555 1_555
C24 C23 1_555 1_555
H16 C24 1_555 1_555
C25 C24 1_555 1_555
C26 C25 1_555 1_555
H17 C26 1_555 1_555
C27 C26 1_555 1_555
H18 C27 1_555 1_555
C28 C16 1_555 1_555
C29 H19 1_555 1_555
H20 C29 1_555 1_555
H21 C29 1_555 1_555
C30 N4 1_555 1_555
H22 C30 1_555 1_555
H23 C30 1_555 1_555
C31 N4 1_555 1_555
H24 C31 1_555 1_555
H25 C31 1_555 1_555
C32 C31 1_555 1_555
H26 C32 1_555 1_555
H27 C32 1_555 1_555
H28 C32 1_555 1_555
C33 H29 1_555 1_555
H30 C33 1_555 1_555
H31 C33 1_555 1_555
C34 N3 1_555 1_555
H32 C34 1_555 1_555
H33 C34 1_555 1_555
C35 N3 1_555 1_555
H34 C35 1_555 1_555
H35 C35 1_555 1_555
C36 C35 1_555 1_555
H36 C36 1_555 1_555
H37 C36 1_555 1_555
H38 C36 1_555 1_555
C6 C7 1_555 1_555
C14 C15 1_555 1_555
C15 C16 1_555 1_555
C21 C22 1_555 1_555
C23 C28 1_555 1_555
C27 C28 1_555 1_555
C29 C30 1_555 1_555
C33 C34 1_555 1_555

#END
