
#######################################################################
#
#                 Cambridge Crystallographic Data Centre
#                                CCDC 
#
#######################################################################
#
# If this CIF has been generated from an entry in the Cambridge 
# Structural Database, then it will include bibliographic, chemical, 
# crystal, experimental, refinement or atomic coordinate data resulting 
# from the CCDC's data processing and validation procedures.
#
#######################################################################

data_VUCDOM
_chemical_formula_moiety         'C20 H29 N2 1+,I1 1-'
_chemical_name_systematic        
'(4a\a,7a\b,10a\b)-2-Benzyl-1,2,3,4,4a,7,7a,8,9,10-decahydro-8,8-dimethylpyrrolo(2,3-i)isoquinolinium iodide'
_symmetry_cell_setting           monoclinic
_symmetry_space_group_name_H-M   'P 21/n'
_symmetry_Int_Tables_number      14
_space_group_name_Hall           '-P 2yn'
loop_
_symmetry_equiv_pos_site_id
_symmetry_equiv_pos_as_xyz
1 x,y,z
2 1/2-x,1/2+y,1/2-z
3 -x,-y,-z
4 1/2+x,1/2-y,1/2+z
_cell_length_a                   9.441(4)
_cell_length_b                   10.378(4)
_cell_length_c                   20.023(9)
_cell_angle_alpha                90
_cell_angle_beta                 91.56(3)
_cell_angle_gamma                90
_cell_volume                     1961.1
_exptl_crystal_colour            colorless
_cell_formula_units_Z            4
loop_
_atom_site_label
_atom_site_type_symbol
_atom_site_fract_x
_atom_site_fract_y
_atom_site_fract_z
I1 I 0.53972(2) -0.07530(2) 0.71604(1)
C1 C 0.7024(3) 0.2819(3) 0.62578(14)
N1 N 0.7498(3) 0.2657(3) 0.55694(12)
C2 C 0.6609(3) 0.1735(3) 0.5198(2)
C3 C 0.5072(3) 0.2170(3) 0.5168(2)
C4 C 0.4554(3) 0.2379(3) 0.5878(2)
C5 C 0.3015(3) 0.2732(3) 0.5952(2)
C6 C 0.2579(3) 0.2966(3) 0.6555(2)
C7 C 0.3621(3) 0.2920(3) 0.7131(2)
C8 C 0.5001(3) 0.3606(3) 0.69665(14)
N2 N 0.4903(3) 0.5090(2) 0.70550(12)
C9 C 0.5851(3) 0.5596(3) 0.6517(2)
C10 C 0.5521(3) 0.4720(3) 0.5929(2)
C11 C 0.5514(3) 0.3371(3) 0.62458(13)
C12 C 0.8992(3) 0.2311(4) 0.5563(2)
C13 C 0.9633(3) 0.2499(3) 0.4886(2)
C14 C 1.0618(3) 0.1627(4) 0.4657(2)
C15 C 1.1268(4) 0.1826(4) 0.4050(2)
C16 C 1.0911(4) 0.2875(4) 0.3664(2)
C17 C 0.9937(4) 0.3753(5) 0.3887(2)
C18 C 0.9304(4) 0.3569(4) 0.4500(2)
C19 C 0.5452(4) 0.5487(3) 0.7735(2)
C20 C 0.3453(3) 0.5651(3) 0.6956(2)
H1 H 0.772(3) 0.342(3) 0.6517(15)
H2 H 0.702(3) 0.199(3) 0.6498(15)
H3 H 0.670(3) 0.086(3) 0.538(2)
H4 H 0.696(4) 0.164(3) 0.478(2)
H5 H 0.448(3) 0.151(3) 0.491(2)
H6 H 0.490(4) 0.294(3) 0.495(2)
H7 H 0.469(3) 0.157(3) 0.6096(14)
H8 H 0.246(4) 0.279(3) 0.556(2)
H9 H 0.164(5) 0.321(4) 0.663(2)
H10 H 0.327(4) 0.320(3) 0.756(2)
H11 H 0.387(4) 0.199(4) 0.723(2)
H12 H 0.570(3) 0.334(3) 0.7260(15)
H13 H 0.565(3) 0.653(3) 0.6464(14)
H14 H 0.684(3) 0.547(3) 0.667(2)
H15 H 0.622(3) 0.483(3) 0.5612(15)
H16 H 0.465(3) 0.493(3) 0.572(2)
H17 H 0.921(3) 0.141(4) 0.569(2)
H18 H 0.946(3) 0.288(3) 0.587(2)
H19 H 1.090(4) 0.088(3) 0.492(2)
H20 H 1.180(6) 0.133(5) 0.390(3)
H21 H 1.134(4) 0.308(3) 0.325(2)
H22 H 0.973(4) 0.449(4) 0.366(2)
H23 H 0.865(5) 0.421(4) 0.468(2)
H24 H 0.536(5) 0.650(4) 0.773(2)
H25 H 0.474(4) 0.516(4) 0.803(2)
H26 H 0.645(4) 0.513(3) 0.781(2)
H27 H 0.356(4) 0.657(4) 0.703(2)
H28 H 0.315(4) 0.545(4) 0.650(2)
H29 H 0.288(4) 0.532(4) 0.730(2)
loop_
_geom_bond_atom_site_label_1
_geom_bond_atom_site_label_2
_geom_bond_site_symmetry_1
_geom_bond_site_symmetry_2
C1 N1 1_555 1_555
N1 C2 1_555 1_555
C2 C3 1_555 1_555
C3 C4 1_555 1_555
C4 C5 1_555 1_555
C5 C6 1_555 1_555
C6 C7 1_555 1_555
C7 C8 1_555 1_555
C8 N2 1_555 1_555
N2 C9 1_555 1_555
C9 C10 1_555 1_555
C10 C11 1_555 1_555
C11 C1 1_555 1_555
C12 N1 1_555 1_555
C13 C12 1_555 1_555
C14 C13 1_555 1_555
C15 C14 1_555 1_555
C16 C15 1_555 1_555
C17 C16 1_555 1_555
C18 C13 1_555 1_555
C19 N2 1_555 1_555
C20 N2 1_555 1_555
H1 C1 1_555 1_555
H2 C1 1_555 1_555
H3 C2 1_555 1_555
H4 C2 1_555 1_555
H5 C3 1_555 1_555
H6 C3 1_555 1_555
H7 C4 1_555 1_555
H8 C5 1_555 1_555
H9 C6 1_555 1_555
H10 C7 1_555 1_555
H11 C7 1_555 1_555
H12 C8 1_555 1_555
H13 C9 1_555 1_555
H14 C9 1_555 1_555
H15 C10 1_555 1_555
H16 C10 1_555 1_555
H17 C12 1_555 1_555
H18 C12 1_555 1_555
H19 C14 1_555 1_555
H20 C15 1_555 1_555
H21 C16 1_555 1_555
H22 C17 1_555 1_555
H23 C18 1_555 1_555
H24 C19 1_555 1_555
H25 C19 1_555 1_555
H26 C19 1_555 1_555
H27 C20 1_555 1_555
H28 C20 1_555 1_555
H29 C20 1_555 1_555
C4 C11 1_555 1_555
C8 C11 1_555 1_555
C17 C18 1_555 1_555

#END
