
#######################################################################
#
#                 Cambridge Crystallographic Data Centre
#                                CCDC 
#
#######################################################################
#
# If this CIF has been generated from an entry in the Cambridge 
# Structural Database, then it will include bibliographic, chemical, 
# crystal, experimental, refinement or atomic coordinate data resulting 
# from the CCDC's data processing and validation procedures.
#
#######################################################################

data_VUCFEG
_chemical_formula_moiety         'C38 H50 O7,C3 H6 O1'
_chemical_name_systematic        
'3-benzoyl-5-(3,7-dimethylocta-2,6-dien-1-yl)-14-hydroxy-9-(2-hydroxypropan-2-yl)-11,11,16,16-tetramethyl-12,13-dioxapentacyclo[8.4.1.1^3,7^.0^1,8^.0^5,14^]hexadecane-2,4-dione acetone solvate'
_symmetry_cell_setting           monoclinic
_symmetry_space_group_name_H-M   'P 21'
_symmetry_Int_Tables_number      4
_space_group_name_Hall           'P 2yb'
loop_
_symmetry_equiv_pos_site_id
_symmetry_equiv_pos_as_xyz
1 x,y,z
2 -x,1/2+y,-z
_cell_length_a                   8.4439(3)
_cell_length_b                   21.1595(6)
_cell_length_c                   10.6994(3)
_cell_angle_alpha                90
_cell_angle_beta                 107.5300(10)
_cell_angle_gamma                90
_cell_volume                     1822.87
_exptl_crystal_colour            colorless
_exptl_crystal_description       block
_cell_formula_units_Z            2
loop_
_atom_site_label
_atom_site_type_symbol
_atom_site_fract_x
_atom_site_fract_y
_atom_site_fract_z
O1 O 0.97349(16) 0.60179(7) 0.40620(12)
O2 O 0.42791(14) 0.65670(6) -0.02674(12)
H1 H 0.3400 0.6778 -0.0546
O3 O 0.51426(14) 0.73411(6) -0.14823(11)
O4 O 0.42045(14) 0.69862(6) -0.26488(11)
O5 O 1.13137(14) 0.72069(6) -0.12867(11)
H2 H 1.1173 0.7600 -0.1299
O6 O 0.77335(15) 0.54976(6) 0.07974(12)
O7 O 0.62589(15) 0.70311(6) 0.29444(12)
C1 C 0.4641(3) 0.48426(10) 0.3952(2)
H3 H 0.3833 0.4573 0.4127
C2 C 0.4244(2) 0.51987(10) 0.28069(19)
H4 H 0.3163 0.5171 0.2199
C3 C 0.5415(2) 0.55926(9) 0.25494(18)
H5 H 0.5131 0.5837 0.1768
C4 C 0.7006(2) 0.56333(9) 0.34266(17)
C5 C 0.8390(2) 0.60366(9) 0.32497(16)
C6 C 0.8084(2) 0.64639(9) 0.20252(16)
C7 C 0.67807(19) 0.69666(8) 0.20165(16)
C8 C 0.6264(2) 0.73859(9) 0.07957(16)
C9 C 0.4919(2) 0.78576(9) 0.08909(17)
H6 H 0.4459 0.8070 0.0033
H7 H 0.4004 0.7622 0.1080
C10 C 0.5554(2) 0.83519(9) 0.19317(18)
H8 H 0.5970 0.8205 0.2809
C11 C 0.5594(2) 0.89750(9) 0.17520(18)
C12 C 0.6271(2) 0.94095(10) 0.2900(2)
H9 H 0.6619 0.9153 0.3711
H10 H 0.5371 0.9695 0.2966
C13 C 0.7755(2) 0.98132(10) 0.2819(2)
H11 H 0.7409 1.0074 0.2014
H12 H 0.8078 1.0104 0.3579
C14 C 0.9238(2) 0.94225(10) 0.2805(2)
H13 H 0.9750 0.9190 0.3581
C15 C 0.9924(2) 0.93620(10) 0.1842(2)
C16 C 1.1414(3) 0.89458(12) 0.1989(2)
H14 H 1.1712 0.8737 0.2846
H15 H 1.2350 0.9204 0.1923
H16 H 1.1151 0.8626 0.1295
C17 C 0.6218(3) 0.48819(10) 0.48357(19)
H17 H 0.6491 0.4642 0.5622
C18 C 0.7392(2) 0.52683(9) 0.45757(18)
H18 H 0.8476 0.5288 0.5181
C19 C 0.9700(2) 0.68559(9) 0.19735(16)
C20 C 0.9188(2) 0.72409(9) 0.06716(16)
H19 H 1.0185 0.7474 0.0595
C21 C 0.7831(2) 0.77200(9) 0.06428(17)
H20 H 0.7535 0.7954 -0.0197
H21 H 0.8249 0.8029 0.1363
C22 C 0.9333(3) 0.96837(11) 0.0530(2)
H22 H 0.8390 0.9959 0.0505
H23 H 0.8985 0.9365 -0.0162
H24 H 1.0237 0.9938 0.0393
C23 C 0.4954(3) 0.92859(10) 0.0430(2)
H25 H 0.5857 0.9321 0.0035
H26 H 0.4534 0.9708 0.0532
H27 H 0.4054 0.9030 -0.0138
C24 C 0.5613(2) 0.69223(8) -0.03851(16)
C25 C 0.5258(2) 0.69069(9) -0.34891(17)
C26 C 0.5461(2) 0.75429(10) -0.40906(18)
H28 H 0.4370 0.7700 -0.4611
H29 H 0.6175 0.7493 -0.4656
H30 H 0.5969 0.7845 -0.3391
C27 C 0.6889(2) 0.65722(9) -0.27379(16)
H31 H 0.7292 0.6334 -0.3390
C28 C 0.8358(2) 0.69898(9) -0.19019(16)
H32 H 0.8008 0.7443 -0.1996
C29 C 0.9973(2) 0.69174(9) -0.22935(16)
C30 C 1.0533(2) 0.62385(9) -0.23457(19)
H33 H 1.1541 0.6232 -0.2620
H34 H 0.9653 0.5999 -0.2975
H35 H 1.0768 0.6046 -0.1475
C31 C 0.9795(2) 0.72336(10) -0.36114(17)
H36 H 0.9463 0.7676 -0.3577
H37 H 0.8948 0.7012 -0.4302
H38 H 1.0860 0.7217 -0.3801
C32 C 0.86183(19) 0.67810(8) -0.04776(16)
H39 H 0.9480 0.6441 -0.0302
C33 C 0.6983(2) 0.64495(8) -0.04692(16)
C34 C 0.75356(19) 0.60642(9) 0.07695(16)
C35 C 0.6549(2) 0.60865(9) -0.17652(16)
H40 H 0.5370 0.5954 -0.2043
H41 H 0.7260 0.5708 -0.1691
C36 C 0.4199(2) 0.64675(11) -0.45411(18)
H42 H 0.4182 0.6045 -0.4169
H43 H 0.4671 0.6442 -0.5272
H44 H 0.3064 0.6633 -0.4858
C37 C 1.0270(2) 0.73119(10) 0.31417(17)
H45 H 1.0623 0.7069 0.3959
H46 H 0.9348 0.7591 0.3154
H47 H 1.1202 0.7566 0.3057
C38 C 1.1160(2) 0.64088(9) 0.20140(18)
H48 H 1.1952 0.6627 0.1657
H49 H 1.0737 0.6031 0.1488
H50 H 1.1717 0.6284 0.2923
O8 O 0.06460(19) 0.84999(7) 0.84511(14)
C39 C 0.2374(3) 0.86625(12) 0.7091(2)
H51 H 0.2940 0.8282 0.7526
H52 H 0.3162 0.9015 0.7252
H53 H 0.1933 0.8586 0.6146
C40 C 0.0976(2) 0.88225(9) 0.76248(19)
C41 C -0.0006(3) 0.94001(11) 0.7104(2)
H54 H -0.1038 0.9396 0.7344
H55 H -0.0271 0.9409 0.6147
H56 H 0.0644 0.9776 0.7477
loop_
_geom_bond_atom_site_label_1
_geom_bond_atom_site_label_2
_geom_bond_site_symmetry_1
_geom_bond_site_symmetry_2
O1 C5 1_555 1_555
O2 H1 1_555 1_555
O3 O4 1_555 1_555
O4 C25 1_555 1_555
O5 H2 1_555 1_555
O6 C34 1_555 1_555
O7 C7 1_555 1_555
C1 H3 1_555 1_555
C2 C1 1_555 1_555
H4 C2 1_555 1_555
C3 C2 1_555 1_555
H5 C3 1_555 1_555
C4 C3 1_555 1_555
C5 C4 1_555 1_555
C6 C5 1_555 1_555
C7 C6 1_555 1_555
C8 C7 1_555 1_555
C9 C8 1_555 1_555
H6 C9 1_555 1_555
H7 C9 1_555 1_555
C10 C9 1_555 1_555
H8 C10 1_555 1_555
C11 C10 1_555 1_555
C12 C11 1_555 1_555
H9 C12 1_555 1_555
H10 C12 1_555 1_555
C13 C12 1_555 1_555
H11 C13 1_555 1_555
H12 C13 1_555 1_555
C14 C13 1_555 1_555
H13 C14 1_555 1_555
C15 C14 1_555 1_555
C16 C15 1_555 1_555
H14 C16 1_555 1_555
H15 C16 1_555 1_555
H16 C16 1_555 1_555
C17 C1 1_555 1_555
H17 C17 1_555 1_555
C18 C4 1_555 1_555
H18 C18 1_555 1_555
C19 C6 1_555 1_555
C20 C19 1_555 1_555
H19 C20 1_555 1_555
C21 C8 1_555 1_555
H20 C21 1_555 1_555
H21 C21 1_555 1_555
C22 C15 1_555 1_555
H22 C22 1_555 1_555
H23 C22 1_555 1_555
H24 C22 1_555 1_555
C23 C11 1_555 1_555
H25 C23 1_555 1_555
H26 C23 1_555 1_555
H27 C23 1_555 1_555
C24 O2 1_555 1_555
C25 C26 1_555 1_555
C26 H28 1_555 1_555
H29 C26 1_555 1_555
H30 C26 1_555 1_555
C27 C25 1_555 1_555
H31 C27 1_555 1_555
C28 C27 1_555 1_555
H32 C28 1_555 1_555
C29 O5 1_555 1_555
C30 C29 1_555 1_555
H33 C30 1_555 1_555
H34 C30 1_555 1_555
H35 C30 1_555 1_555
C31 C29 1_555 1_555
H36 C31 1_555 1_555
H37 C31 1_555 1_555
H38 C31 1_555 1_555
C32 C20 1_555 1_555
H39 C32 1_555 1_555
C33 C24 1_555 1_555
C34 C6 1_555 1_555
C35 C27 1_555 1_555
H40 C35 1_555 1_555
H41 C35 1_555 1_555
C36 C25 1_555 1_555
H42 C36 1_555 1_555
H43 C36 1_555 1_555
H44 C36 1_555 1_555
C37 C19 1_555 1_555
H45 C37 1_555 1_555
H46 C37 1_555 1_555
H47 C37 1_555 1_555
C38 C19 1_555 1_555
H48 C38 1_555 1_555
H49 C38 1_555 1_555
H50 C38 1_555 1_555
O8 C40 1_555 1_555
C39 H51 1_555 1_555
H52 C39 1_555 1_555
H53 C39 1_555 1_555
C40 C39 1_555 1_555
C41 C40 1_555 1_555
H54 C41 1_555 1_555
H55 C41 1_555 1_555
H56 C41 1_555 1_555
O3 C24 1_555 1_555
C8 C24 1_555 1_555
C17 C18 1_555 1_555
C20 C21 1_555 1_555
C28 C29 1_555 1_555
C28 C32 1_555 1_555
C32 C33 1_555 1_555
C33 C34 1_555 1_555
C33 C35 1_555 1_555

#END
