
#######################################################################
#
#                 Cambridge Crystallographic Data Centre
#                                CCDC 
#
#######################################################################
#
# If this CIF has been generated from an entry in the Cambridge 
# Structural Database, then it will include bibliographic, chemical, 
# crystal, experimental, refinement or atomic coordinate data resulting 
# from the CCDC's data processing and validation procedures.
#
#######################################################################

data_VUCGAD
_chemical_name_common            'attenuatumione D methanol solvate monohydrate'
_chemical_formula_moiety         'C38 H50 O5,C1 H4 O1,H2 O1'
_chemical_name_systematic        
'9-benzoyl-11-(3,7-dimethylocta-2,6-dien-1-yl)-3-(2-hydroxypropan-2-yl)-4,4,8,8-tetramethyltetracyclo[7.3.1.1^7,11^.0^1,5^]tetradecane-10,12,13-trione methanol solvate monohydrate'
_symmetry_cell_setting           orthorhombic
_symmetry_space_group_name_H-M   'P 21 21 21'
_symmetry_Int_Tables_number      19
_space_group_name_Hall           'P 2ac 2ab'
loop_
_symmetry_equiv_pos_site_id
_symmetry_equiv_pos_as_xyz
1 x,y,z
2 1/2+x,1/2-y,-z
3 -x,1/2+y,1/2-z
4 1/2-x,-y,1/2+z
_cell_length_a                   7.5563(2)
_cell_length_b                   12.4423(3)
_cell_length_c                   37.8037(7)
_cell_angle_alpha                90
_cell_angle_beta                 90
_cell_angle_gamma                90
_cell_volume                     3554.22
_exptl_crystal_colour            colorless
_exptl_crystal_description       prism
_cell_formula_units_Z            4
loop_
_atom_site_label
_atom_site_type_symbol
_atom_site_fract_x
_atom_site_fract_y
_atom_site_fract_z
C1 C 0.4703(4) 0.7759(2) 0.23582(9)
H1 H 0.4748 0.8497 0.2321
O1 O 0.4450(3) 0.89395(19) 0.16391(6)
O2 O 0.7715(5) 1.1147(2) 0.05862(7)
H2 H 0.8207 1.1634 0.0478
O3 O 0.6653(4) 0.48081(19) 0.07931(7)
O4 O 0.7781(3) 0.76443(17) 0.07180(6)
O5 O 0.4152(3) 0.57935(18) 0.14473(6)
C2 C 0.2226(5) 0.6910(3) 0.01053(9)
H3 H 0.1431 0.7172 -0.0061
C3 C 0.3149(6) 0.5949(3) 0.00432(10)
H4 H 0.2941 0.5558 -0.0162
C4 C 0.4355(5) 0.5589(3) 0.02854(10)
H5 H 0.4971 0.4957 0.0241
C5 C 0.4680(4) 0.6151(3) 0.05980(8)
C6 C 0.6075(5) 0.5720(3) 0.08365(9)
C7 C 0.6756(4) 0.6409(2) 0.11489(8)
C8 C 0.5390(4) 0.6408(2) 0.14420(8)
C9 C 0.5757(4) 0.7207(2) 0.17393(9)
C10 C 0.4395(4) 0.7076(3) 0.20358(9)
H6 H 0.3234 0.7243 0.1942
H7 H 0.4382 0.6327 0.2108
C11 C 0.4917(4) 0.7430(3) 0.26885(9)
C12 C 0.5047(5) 0.8227(3) 0.29862(9)
H8 H 0.4276 0.7995 0.3176
H9 H 0.4615 0.8917 0.2903
C13 C 0.6939(5) 0.8384(3) 0.31370(10)
H10 H 0.6869 0.8765 0.3360
H11 H 0.7468 0.7687 0.3181
C14 C 0.8082(5) 0.9002(3) 0.28867(10)
H12 H 0.7778 0.9720 0.2855
C15 C 0.9465(5) 0.8667(3) 0.27042(9)
C16 C 1.0536(6) 0.9404(3) 0.24776(11)
H13 H 0.9987 1.0100 0.2471
H14 H 1.0603 0.9119 0.2242
H15 H 1.1708 0.9468 0.2574
C17 C 1.0142(5) 0.7527(3) 0.27179(10)
H16 H 1.1093 0.7480 0.2886
H17 H 1.0563 0.7320 0.2488
H18 H 0.9201 0.7055 0.2789
C18 C 0.5020(6) 0.6263(3) 0.27996(10)
H19 H 0.3896 0.6040 0.2892
H20 H 0.5912 0.6181 0.2978
H21 H 0.5318 0.5828 0.2598
C19 C 0.5566(4) 0.8308(2) 0.15533(8)
C20 C 0.6857(4) 0.8525(2) 0.12489(9)
C21 C 0.8661(4) 0.8818(3) 0.14411(9)
H22 H 0.8343 0.9010 0.1684
C22 C 0.9329(5) 0.9881(2) 0.12638(9)
C23 C 0.7547(5) 1.0444(2) 0.11815(9)
H23 H 0.7045 1.0649 0.1411
C24 C 0.6371(5) 0.9540(2) 0.10400(9)
H24 H 0.6583 0.9432 0.0789
H25 H 0.5132 0.9716 0.1074
C25 C 0.7444(6) 1.1466(3) 0.09459(10)
C26 C 0.8800(7) 1.2314(3) 0.10474(11)
H26 H 0.9968 1.2053 0.0997
H27 H 0.8703 1.2468 0.1296
H28 H 0.8585 1.2958 0.0914
C27 C 0.5584(7) 1.1943(3) 0.09741(12)
H29 H 0.5521 1.2591 0.0837
H30 H 0.5327 1.2104 0.1217
H31 H 0.4736 1.1435 0.0886
C28 C 1.0490(5) 1.0468(3) 0.15343(10)
H32 H 1.1437 1.0005 0.1608
H33 H 0.9788 1.0662 0.1736
H34 H 1.0973 1.1105 0.1428
C29 C 1.0436(5) 0.9660(3) 0.09317(9)
H35 H 1.0772 1.0329 0.0825
H36 H 0.9750 0.9247 0.0767
H37 H 1.1480 0.9265 0.0996
C30 C 0.9948(4) 0.7887(2) 0.14703(9)
H38 H 1.0910 0.8099 0.1625
H39 H 1.0448 0.7751 0.1238
C31 C 0.9136(4) 0.6823(2) 0.16128(9)
H40 H 1.0093 0.6474 0.1744
C32 C 0.8539(4) 0.5987(2) 0.13334(9)
C33 C 0.8169(5) 0.4922(2) 0.15250(9)
H41 H 0.7632 0.4424 0.1363
H42 H 0.7382 0.5049 0.1720
H43 H 0.9260 0.4628 0.1611
C34 C 0.9989(4) 0.5780(3) 0.10579(9)
H44 H 1.1112 0.5717 0.1175
H45 H 1.0027 0.6368 0.0893
H46 H 0.9735 0.5126 0.0933
C35 C 0.2513(5) 0.7463(3) 0.04183(9)
H47 H 0.1875 0.8086 0.0465
C36 C 0.3732(4) 0.7099(3) 0.06590(9)
H48 H 0.3931 0.7487 0.0865
C37 C 0.7160(4) 0.7549(2) 0.10130(8)
C38 C 0.7665(4) 0.7028(3) 0.18883(8)
H49 H 0.7990 0.7656 0.2026
H50 H 0.7631 0.6420 0.2049
O6 O 0.362(4) 0.1591(9) 0.9978(7)
H51 H 0.2835 0.1677 0.9831
C39 C 0.406(2) 0.0616(15) 0.9986(5)
H52 H 0.3230 0.0222 1.0129
H53 H 0.5221 0.0551 1.0085
H54 H 0.4055 0.0332 0.9750
O7 O 0.506(3) 0.289(2) 0.9838(4)
loop_
_geom_bond_atom_site_label_1
_geom_bond_atom_site_label_2
_geom_bond_site_symmetry_1
_geom_bond_site_symmetry_2
C1 H1 1_555 1_555
O1 C19 1_555 1_555
O2 H2 1_555 1_555
O3 C6 1_555 1_555
O4 C37 1_555 1_555
O5 C8 1_555 1_555
C2 H3 1_555 1_555
C3 C2 1_555 1_555
H4 C3 1_555 1_555
C4 C3 1_555 1_555
H5 C4 1_555 1_555
C5 C4 1_555 1_555
C6 C5 1_555 1_555
C7 C6 1_555 1_555
C8 C7 1_555 1_555
C9 C8 1_555 1_555
C10 C1 1_555 1_555
H6 C10 1_555 1_555
H7 C10 1_555 1_555
C11 C1 1_555 1_555
C12 C11 1_555 1_555
H8 C12 1_555 1_555
H9 C12 1_555 1_555
C13 C12 1_555 1_555
H10 C13 1_555 1_555
H11 C13 1_555 1_555
C14 C13 1_555 1_555
H12 C14 1_555 1_555
C15 C14 1_555 1_555
C16 C15 1_555 1_555
H13 C16 1_555 1_555
H14 C16 1_555 1_555
H15 C16 1_555 1_555
C17 C15 1_555 1_555
H16 C17 1_555 1_555
H17 C17 1_555 1_555
H18 C17 1_555 1_555
C18 C11 1_555 1_555
H19 C18 1_555 1_555
H20 C18 1_555 1_555
H21 C18 1_555 1_555
C19 C9 1_555 1_555
C20 C19 1_555 1_555
C21 C20 1_555 1_555
H22 C21 1_555 1_555
C22 C21 1_555 1_555
C23 C22 1_555 1_555
H23 C23 1_555 1_555
C24 C20 1_555 1_555
H24 C24 1_555 1_555
H25 C24 1_555 1_555
C25 O2 1_555 1_555
C26 C25 1_555 1_555
H26 C26 1_555 1_555
H27 C26 1_555 1_555
H28 C26 1_555 1_555
C27 C25 1_555 1_555
H29 C27 1_555 1_555
H30 C27 1_555 1_555
H31 C27 1_555 1_555
C28 C22 1_555 1_555
H32 C28 1_555 1_555
H33 C28 1_555 1_555
H34 C28 1_555 1_555
C29 C22 1_555 1_555
H35 C29 1_555 1_555
H36 C29 1_555 1_555
H37 C29 1_555 1_555
C30 C21 1_555 1_555
H38 C30 1_555 1_555
H39 C30 1_555 1_555
C31 C30 1_555 1_555
H40 C31 1_555 1_555
C32 C7 1_555 1_555
C33 C32 1_555 1_555
H41 C33 1_555 1_555
H42 C33 1_555 1_555
H43 C33 1_555 1_555
C34 C32 1_555 1_555
H44 C34 1_555 1_555
H45 C34 1_555 1_555
H46 C34 1_555 1_555
C35 C2 1_555 1_555
H47 C35 1_555 1_555
C36 C5 1_555 1_555
H48 C36 1_555 1_555
C37 C7 1_555 1_555
C38 C9 1_555 1_555
H49 C38 1_555 1_555
H50 C38 1_555 1_555
O6 H51 1_555 1_555
C39 O6 1_555 1_555
H52 C39 1_555 1_555
H53 C39 1_555 1_555
H54 C39 1_555 1_555
C9 C10 1_555 1_555
C20 C37 1_555 1_555
C23 C24 1_555 1_555
C23 C25 1_555 1_555
C31 C32 1_555 1_555
C31 C38 1_555 1_555
C35 C36 1_555 1_555

#END
