
#######################################################################
#
#                 Cambridge Crystallographic Data Centre
#                                CCDC 
#
#######################################################################
#
# If this CIF has been generated from an entry in the Cambridge 
# Structural Database, then it will include bibliographic, chemical, 
# crystal, experimental, refinement or atomic coordinate data resulting 
# from the CCDC's data processing and validation procedures.
#
#######################################################################

data_VUCWEW
_chemical_formula_moiety         'C20 H13 Cl1 O3'
_chemical_name_systematic        
3-(4-Chlorophenyl)-7,9-dimethylnaphtho[1,2-b]furan-4,5-dione
_chemical_properties_biological  
'tested for inhibitory activity against cancer cell lines'
_symmetry_cell_setting           monoclinic
_symmetry_space_group_name_H-M   'P 21/c'
_symmetry_Int_Tables_number      14
_space_group_name_Hall           '-P 2ybc'
loop_
_symmetry_equiv_pos_site_id
_symmetry_equiv_pos_as_xyz
1 x,y,z
2 -x,1/2+y,1/2-z
3 -x,-y,-z
4 x,1/2-y,1/2+z
_cell_length_a                   15.697(5)
_cell_length_b                   7.380(2)
_cell_length_c                   27.585(8)
_cell_angle_alpha                90
_cell_angle_beta                 104.341(6)
_cell_angle_gamma                90
_cell_volume                     3095.98
_exptl_crystal_colour            red
_exptl_crystal_description       block
_cell_formula_units_Z            8
loop_
_atom_site_label
_atom_site_type_symbol
_atom_site_fract_x
_atom_site_fract_y
_atom_site_fract_z
Cl1 Cl 0.19724(4) 0.88889(10) 0.16695(2)
O1 O 0.70547(9) 0.8789(2) 0.32874(5)
O3 O 0.60596(11) 1.0746(3) 0.16578(6)
C2 C 0.42349(13) 0.9661(3) 0.26877(7)
H1 H 0.4416 1.0019 0.3021
C3 C 0.48620(12) 0.9206(3) 0.24299(7)
C5 C 0.97755(14) 0.9413(3) 0.31859(8)
H2 H 1.0257 0.9165 0.3451
C7 C 0.65585(12) 0.9632(3) 0.24898(7)
C8 C 0.82114(12) 0.9552(3) 0.28643(7)
C9 C 0.58057(13) 0.9208(3) 0.26834(7)
C10 C 0.72910(13) 0.9347(3) 0.28693(7)
C11 C 0.83591(13) 1.0164(3) 0.24073(7)
C12 C 0.30877(13) 0.9037(3) 0.19664(8)
C15 C 0.66528(14) 1.0350(3) 0.20162(7)
C16 C 0.89389(13) 0.9194(3) 0.32644(7)
C17 C 0.45754(13) 0.8669(3) 0.19318(7)
H4 H 0.4986 0.8370 0.1753
C23 C 0.76121(14) 1.0677(3) 0.19826(7)
C25 C 0.36904(14) 0.8576(3) 0.17000(7)
H6 H 0.3503 0.8206 0.1368
O6 O 0.77266(12) 1.1372(3) 0.16092(6)
C28 C 0.92079(14) 1.0359(3) 0.23510(8)
H8 H 0.9290 1.0756 0.2046
C30 C 0.33450(13) 0.9589(3) 0.24567(8)
H10 H 0.2929 0.9909 0.2630
C31 C 0.61488(13) 0.8711(3) 0.31601(8)
H11 H 0.5815 0.8356 0.3379
C36 C 0.99332(14) 0.9980(3) 0.27363(8)
C37 C 1.08548(15) 1.0162(4) 0.26705(10)
H15 H 1.0832 1.0572 0.2337
H16 H 1.1144 0.9006 0.2724
H17 H 1.1175 1.1021 0.2908
C38 C 0.88581(15) 0.8632(4) 0.37766(8)
H18 H 0.9434 0.8479 0.3994
H19 H 0.8541 0.7510 0.3752
H20 H 0.8547 0.9551 0.3910
Cl2 Cl -0.90451(4) 0.61355(11) -0.00711(3)
O2 O -0.41633(9) 0.8231(2) -0.04222(5)
C1 C -0.44432(12) 0.7368(3) 0.02984(6)
O4 O -0.46431(10) 0.6291(3) 0.10776(5)
C4 C -0.52732(13) 0.7389(3) -0.00815(7)
O5 O -0.29553(11) 0.6848(3) 0.15283(6)
C6 C -0.28650(13) 0.8078(3) 0.02756(7)
C13 C -0.61909(13) 0.7009(3) -0.00686(7)
C14 C -0.50494(14) 0.7930(3) -0.05025(8)
H3 H -0.5450 0.8079 -0.0810
C18 C -0.16834(15) 0.7896(3) 0.10291(8)
H5 H -0.1497 0.7664 0.1370
C19 C -0.79472(14) 0.6429(3) -0.00735(9)
C20 C -0.38072(13) 0.7888(3) 0.00667(7)
C21 C -0.31849(14) 0.7128(3) 0.10852(7)
C22 C -0.25637(13) 0.7711(3) 0.07897(7)
C24 C -0.41779(13) 0.6880(3) 0.08236(7)
C26 C -0.22552(14) 0.8607(3) 0.00050(8)
C27 C -0.68648(14) 0.7272(3) -0.04979(8)
H7 H -0.6723 0.7652 -0.0790
C29 C -0.77311(15) 0.6989(3) -0.05038(9)
H9 H -0.8168 0.7175 -0.0796
C32 C -0.64279(14) 0.6405(3) 0.03593(8)
H12 H -0.5994 0.6194 0.0651
C33 C -0.73036(15) 0.6116(3) 0.03549(9)
H13 H -0.7453 0.5710 0.0642
C34 C -0.10747(15) 0.8422(3) 0.07694(10)
C35 C -0.13812(15) 0.8752(3) 0.02622(9)
H14 H -0.0976 0.9092 0.0084
C39 C -0.25067(17) 0.9038(4) -0.05423(9)
H21 H -0.1991 0.9368 -0.0650
H22 H -0.2916 1.0028 -0.0602
H23 H -0.2774 0.7994 -0.0726
C40 C -0.01153(17) 0.8654(5) 0.10271(12)
H24 H 0.0200 0.9026 0.0787
H25 H 0.0118 0.7525 0.1175
H26 H -0.0054 0.9560 0.1283
loop_
_geom_bond_atom_site_label_1
_geom_bond_atom_site_label_2
_geom_bond_site_symmetry_1
_geom_bond_site_symmetry_2
Cl1 C12 1_555 1_555
Cl2 C19 1_555 1_555
O1 C10 1_555 1_555
O2 C14 1_555 1_555
O3 C15 1_555 1_555
C1 C4 1_555 1_555
C2 H1 1_555 1_555
C3 C2 1_555 1_555
O4 C24 1_555 1_555
C4 C13 1_555 1_555
O5 C21 1_555 1_555
C5 H2 1_555 1_555
C6 C20 1_555 1_555
C7 C9 1_555 1_555
C8 C10 1_555 1_555
C9 C3 1_555 1_555
C10 C7 1_555 1_555
C11 C8 1_555 1_555
C12 C25 1_555 1_555
C13 C27 1_555 1_555
C14 C4 1_555 1_555
H3 C14 1_555 1_555
C15 C7 1_555 1_555
C16 C5 1_555 1_555
C17 C3 1_555 1_555
H4 C17 1_555 1_555
C18 H5 1_555 1_555
C19 C29 1_555 1_555
C20 O2 1_555 1_555
C21 C22 1_555 1_555
C22 C6 1_555 1_555
C23 C11 1_555 1_555
C24 C1 1_555 1_555
C25 C17 1_555 1_555
H6 C25 1_555 1_555
O6 C23 1_555 1_555
C26 C6 1_555 1_555
C27 H7 1_555 1_555
C28 C11 1_555 1_555
H8 C28 1_555 1_555
C29 C27 1_555 1_555
H9 C29 1_555 1_555
C30 C2 1_555 1_555
H10 C30 1_555 1_555
C31 O1 1_555 1_555
H11 C31 1_555 1_555
C32 C13 1_555 1_555
H12 C32 1_555 1_555
C33 C19 1_555 1_555
H13 C33 1_555 1_555
C34 C18 1_555 1_555
C35 C26 1_555 1_555
H14 C35 1_555 1_555
C36 C5 1_555 1_555
C37 C36 1_555 1_555
H15 C37 1_555 1_555
H16 C37 1_555 1_555
H17 C37 1_555 1_555
C38 C16 1_555 1_555
H18 C38 1_555 1_555
H19 C38 1_555 1_555
H20 C38 1_555 1_555
C39 C26 1_555 1_555
H21 C39 1_555 1_555
H22 C39 1_555 1_555
H23 C39 1_555 1_555
C40 C34 1_555 1_555
H24 C40 1_555 1_555
H25 C40 1_555 1_555
H26 C40 1_555 1_555
C1 C20 1_555 1_555
C8 C16 1_555 1_555
C9 C31 1_555 1_555
C12 C30 1_555 1_555
C15 C23 1_555 1_555
C18 C22 1_555 1_555
C21 C24 1_555 1_555
C28 C36 1_555 1_555
C32 C33 1_555 1_555
C34 C35 1_555 1_555

#END
