
#######################################################################
#
#                 Cambridge Crystallographic Data Centre
#                                CCDC 
#
#######################################################################
#
# If this CIF has been generated from an entry in the Cambridge 
# Structural Database, then it will include bibliographic, chemical, 
# crystal, experimental, refinement or atomic coordinate data resulting 
# from the CCDC's data processing and validation procedures.
#
#######################################################################

data_VUCZEA
_chemical_formula_moiety         'C27 H36 N3 O1'
_chemical_name_systematic        
'1,3-bis(2,6-Di-isopropylphenyl)-2-nitrosylimidazol-2-yl radical'
_symmetry_cell_setting           monoclinic
_symmetry_space_group_name_H-M   'P 21/c'
_symmetry_Int_Tables_number      14
_space_group_name_Hall           '-P 2ybc'
loop_
_symmetry_equiv_pos_site_id
_symmetry_equiv_pos_as_xyz
1 x,y,z
2 -x,1/2+y,1/2-z
3 -x,-y,-z
4 x,1/2-y,1/2+z
_cell_length_a                   19.1583(19)
_cell_length_b                   13.2632(12)
_cell_length_c                   20.363(2)
_cell_angle_alpha                90
_cell_angle_beta                 104.173(3)
_cell_angle_gamma                90
_cell_volume                     5016.75
_exptl_crystal_colour            yellow
_exptl_crystal_description       block
_cell_formula_units_Z            8
_chemical_properties_physical    Heat-sensitive
_exptl_crystal_recrystallization_method toluene
loop_
_atom_site_label
_atom_site_type_symbol
_atom_site_fract_x
_atom_site_fract_y
_atom_site_fract_z
O1 O 0.0584(2) -0.0254(3) 0.2721(2)
N1 N 0.1125(2) 0.2259(3) 0.3010(2)
N2 N 0.0031(2) 0.1685(3) 0.2605(2)
N3 N 0.1046(2) 0.0471(3) 0.2937(2)
C1 C 0.0734(2) 0.1390(3) 0.2849(2)
C2 C 0.0666(3) 0.3082(3) 0.2881(2)
H1 H 0.0801 0.3769 0.2957
C3 C -0.0009(3) 0.2731(4) 0.2626(2)
H2 H -0.0433 0.3126 0.2487
C4 C 0.1877(2) 0.2293(3) 0.3367(2)
C5 C 0.2395(3) 0.2489(3) 0.2996(2)
C6 C 0.2046(3) 0.2165(4) 0.4065(2)
C7 C 0.3117(3) 0.2536(4) 0.3366(3)
H3 H 0.3485 0.2649 0.3136
C8 C 0.2770(3) 0.2240(4) 0.4410(3)
H4 H 0.2905 0.2166 0.4889
C9 C 0.3296(3) 0.2421(4) 0.4059(3)
H5 H 0.3786 0.2467 0.4301
C10 C 0.2180(3) 0.2614(4) 0.2231(2)
H6 H 0.1723 0.3011 0.2114
C11 C 0.2029(3) 0.1578(4) 0.1882(2)
H7 H 0.1669 0.1217 0.2061
H8 H 0.2475 0.1184 0.1969
H9 H 0.1846 0.1674 0.1392
C12 C 0.2739(3) 0.3181(4) 0.1954(3)
H10 H 0.2832 0.3840 0.2176
H11 H 0.2557 0.3277 0.1465
H12 H 0.3187 0.2791 0.2043
C13 C 0.1474(3) 0.1932(5) 0.4453(3)
H13 H 0.0995 0.1924 0.4118
C14 C 0.1601(4) 0.0875(6) 0.4771(4)
H14 H 0.1232 0.0731 0.5018
H15 H 0.2078 0.0847 0.5084
H16 H 0.1572 0.0371 0.4413
C15 C 0.1445(4) 0.2732(6) 0.4975(4)
H17 H 0.1074 0.2556 0.5211
H18 H 0.1330 0.3385 0.4749
H19 H 0.1914 0.2774 0.5302
C16 C -0.0604(2) 0.1078(3) 0.2353(2)
C17 C -0.0867(3) 0.1005(4) 0.1653(3)
C18 C -0.0964(3) 0.0683(4) 0.2816(3)
C19 C -0.1526(3) 0.0526(4) 0.1407(3)
H20 H -0.1716 0.0459 0.0933
C20 C -0.1627(3) 0.0212(4) 0.2543(3)
H21 H -0.1889 -0.0064 0.2841
C21 C -0.1908(3) 0.0141(4) 0.1853(3)
H22 H -0.2363 -0.0170 0.1681
C22 C -0.0445(3) 0.1409(4) 0.1163(3)
H23 H 0.0023 0.1680 0.1438
C23 C -0.0280(4) 0.0577(5) 0.0713(4)
H24 H -0.0018 0.0034 0.0995
H25 H 0.0016 0.0848 0.0424
H26 H -0.0731 0.0312 0.0429
C24 C -0.0852(4) 0.2282(5) 0.0734(3)
H27 H -0.0950 0.2813 0.1034
H28 H -0.1308 0.2030 0.0450
H29 H -0.0557 0.2557 0.0445
C25 C -0.0638(3) 0.0694(4) 0.3578(3)
H30 H -0.0193 0.1118 0.3666
C26 C -0.0419(4) -0.0372(5) 0.3844(3)
H31 H -0.0089 -0.0662 0.3595
H32 H -0.0849 -0.0797 0.3780
H33 H -0.0178 -0.0339 0.4328
C27 C -0.1153(3) 0.1161(5) 0.3970(3)
H34 H -0.1288 0.1842 0.3799
H35 H -0.0912 0.1193 0.4453
H36 H -0.1586 0.0743 0.3906
O2 O 0.4397(2) 1.1711(3) 0.2448(2)
N4 N 0.3885(2) 0.9181(3) 0.2248(2)
N5 N 0.4973(2) 0.9804(3) 0.2527(2)
N6 N 0.3934(2) 1.0967(3) 0.2306(2)
C28 C 0.4262(2) 1.0054(3) 0.2363(2)
C29 C 0.4360(3) 0.8370(3) 0.2317(3)
H37 H 0.4234 0.7678 0.2252
C30 C 0.5031(3) 0.8753(4) 0.2495(3)
H38 H 0.5466 0.8377 0.2583
C31 C 0.3112(3) 0.9110(4) 0.1983(3)
C32 C 0.2846(3) 0.9224(4) 0.1282(3)
C33 C 0.2671(3) 0.8943(4) 0.2429(3)
C34 C 0.2098(3) 0.9170(5) 0.1022(4)
H39 H 0.1897 0.9244 0.0550
C35 C 0.1930(3) 0.8893(4) 0.2143(4)
H40 H 0.1613 0.8776 0.2428
C36 C 0.1651(3) 0.9010(5) 0.1456(4)
H41 H 0.1145 0.8980 0.1276
C37 C 0.3326(3) 0.9410(5) 0.0805(3)
H42 H 0.3836 0.9364 0.1076
C38 C 0.3216(5) 1.0467(6) 0.0494(4)
H43 H 0.3288 1.0971 0.0857
H44 H 0.2726 1.0525 0.0207
H45 H 0.3564 1.0583 0.0221
C39 C 0.3219(4) 0.8601(6) 0.0245(3)
H46 H 0.3294 0.7931 0.0452
H47 H 0.3566 0.8712 -0.0031
H48 H 0.2729 0.8648 -0.0044
C40 C 0.2983(3) 0.8840(4) 0.3187(3)
H49 H 0.3455 0.8481 0.3258
C41 C 0.3125(4) 0.9880(4) 0.3520(3)
H50 H 0.3435 1.0272 0.3297
H51 H 0.3363 0.9800 0.4001
H52 H 0.2667 1.0235 0.3475
C42 C 0.2492(4) 0.8214(5) 0.3527(5)
H53 H 0.2408 0.7550 0.3311
H54 H 0.2031 0.8562 0.3476
H55 H 0.2724 0.8132 0.4009
C43 C 0.5604(2) 1.0425(4) 0.2674(3)
C44 C 0.5867(3) 1.0776(4) 0.2135(3)
C45 C 0.5967(3) 1.0575(4) 0.3353(3)
C46 C 0.6536(3) 1.1254(4) 0.2286(3)
H56 H 0.6733 1.1491 0.1929
C47 C 0.6633(3) 1.1064(4) 0.3478(3)
H57 H 0.6894 1.1176 0.3933
C48 C 0.6918(3) 1.1386(4) 0.2959(3)
H58 H 0.7378 1.1700 0.3057
C49 C 0.5438(3) 1.0670(4) 0.1407(3)
H59 H 0.4947 1.0427 0.1418
C50 C 0.5344(4) 1.1673(5) 0.1027(3)
H60 H 0.5127 1.2167 0.1275
H61 H 0.5030 1.1576 0.0573
H62 H 0.5815 1.1918 0.0988
C51 C 0.5767(5) 0.9881(6) 0.1031(3)
H63 H 0.5816 0.9242 0.1280
H64 H 0.6242 1.0109 0.0994
H65 H 0.5454 0.9783 0.0577
C52 C 0.5636(3) 1.0228(5) 0.3931(3)
H66 H 0.5167 0.9892 0.3722
C53 C 0.5484(6) 1.1110(7) 0.4339(6)
H67 H 0.5177 1.1596 0.4038
H68 H 0.5938 1.1434 0.4567
H69 H 0.5237 1.0873 0.4678
C54 C 0.6113(5) 0.9461(8) 0.4387(4)
H70 H 0.5886 0.9254 0.4747
H71 H 0.6583 0.9765 0.4589
H72 H 0.6179 0.8870 0.4119
loop_
_geom_bond_atom_site_label_1
_geom_bond_atom_site_label_2
_geom_bond_site_symmetry_1
_geom_bond_site_symmetry_2
O1 N3 1_555 1_555
N1 C1 1_555 1_555
N2 C1 1_555 1_555
N3 C1 1_555 1_555
C2 N1 1_555 1_555
H1 C2 1_555 1_555
C3 N2 1_555 1_555
H2 C3 1_555 1_555
C4 N1 1_555 1_555
C5 C4 1_555 1_555
C6 C4 1_555 1_555
C7 C5 1_555 1_555
H3 C7 1_555 1_555
C8 C6 1_555 1_555
H4 C8 1_555 1_555
C9 C7 1_555 1_555
H5 C9 1_555 1_555
C10 C5 1_555 1_555
H6 C10 1_555 1_555
C11 C10 1_555 1_555
H7 C11 1_555 1_555
H8 C11 1_555 1_555
H9 C11 1_555 1_555
C12 C10 1_555 1_555
H10 C12 1_555 1_555
H11 C12 1_555 1_555
H12 C12 1_555 1_555
C13 C6 1_555 1_555
H13 C13 1_555 1_555
C14 C13 1_555 1_555
H14 C14 1_555 1_555
H15 C14 1_555 1_555
H16 C14 1_555 1_555
C15 C13 1_555 1_555
H17 C15 1_555 1_555
H18 C15 1_555 1_555
H19 C15 1_555 1_555
C16 N2 1_555 1_555
C17 C16 1_555 1_555
C18 C16 1_555 1_555
C19 C17 1_555 1_555
H20 C19 1_555 1_555
C20 C18 1_555 1_555
H21 C20 1_555 1_555
C21 C19 1_555 1_555
H22 C21 1_555 1_555
C22 C17 1_555 1_555
H23 C22 1_555 1_555
C23 C22 1_555 1_555
H24 C23 1_555 1_555
H25 C23 1_555 1_555
H26 C23 1_555 1_555
C24 C22 1_555 1_555
H27 C24 1_555 1_555
H28 C24 1_555 1_555
H29 C24 1_555 1_555
C25 C18 1_555 1_555
H30 C25 1_555 1_555
C26 C25 1_555 1_555
H31 C26 1_555 1_555
H32 C26 1_555 1_555
H33 C26 1_555 1_555
C27 C25 1_555 1_555
H34 C27 1_555 1_555
H35 C27 1_555 1_555
H36 C27 1_555 1_555
O2 N6 1_555 1_555
N4 C28 1_555 1_555
N5 C28 1_555 1_555
N6 C28 1_555 1_555
C29 N4 1_555 1_555
H37 C29 1_555 1_555
C30 N5 1_555 1_555
H38 C30 1_555 1_555
C31 N4 1_555 1_555
C32 C31 1_555 1_555
C33 C31 1_555 1_555
C34 C32 1_555 1_555
H39 C34 1_555 1_555
C35 C33 1_555 1_555
H40 C35 1_555 1_555
C36 C34 1_555 1_555
H41 C36 1_555 1_555
C37 C32 1_555 1_555
H42 C37 1_555 1_555
C38 C37 1_555 1_555
H43 C38 1_555 1_555
H44 C38 1_555 1_555
H45 C38 1_555 1_555
C39 C37 1_555 1_555
H46 C39 1_555 1_555
H47 C39 1_555 1_555
H48 C39 1_555 1_555
C40 C33 1_555 1_555
H49 C40 1_555 1_555
C41 C40 1_555 1_555
H50 C41 1_555 1_555
H51 C41 1_555 1_555
H52 C41 1_555 1_555
C42 C40 1_555 1_555
H53 C42 1_555 1_555
H54 C42 1_555 1_555
H55 C42 1_555 1_555
C43 N5 1_555 1_555
C44 C43 1_555 1_555
C45 C43 1_555 1_555
C46 C44 1_555 1_555
H56 C46 1_555 1_555
C47 C45 1_555 1_555
H57 C47 1_555 1_555
C48 C46 1_555 1_555
H58 C48 1_555 1_555
C49 C44 1_555 1_555
H59 C49 1_555 1_555
C50 C49 1_555 1_555
H60 C50 1_555 1_555
H61 C50 1_555 1_555
H62 C50 1_555 1_555
C51 C49 1_555 1_555
H63 C51 1_555 1_555
H64 C51 1_555 1_555
H65 C51 1_555 1_555
C52 C45 1_555 1_555
H66 C52 1_555 1_555
C53 C52 1_555 1_555
H67 C53 1_555 1_555
H68 C53 1_555 1_555
H69 C53 1_555 1_555
C54 C52 1_555 1_555
H70 C54 1_555 1_555
H71 C54 1_555 1_555
H72 C54 1_555 1_555
C2 C3 1_555 1_555
C8 C9 1_555 1_555
C20 C21 1_555 1_555
C29 C30 1_555 1_555
C35 C36 1_555 1_555
C47 C48 1_555 1_555

#END
