
#######################################################################
#
#                 Cambridge Crystallographic Data Centre
#                                CCDC 
#
#######################################################################
#
# If this CIF has been generated from an entry in the Cambridge 
# Structural Database, then it will include bibliographic, chemical, 
# crystal, experimental, refinement or atomic coordinate data resulting 
# from the CCDC's data processing and validation procedures.
#
#######################################################################

data_VUDDUV
_chemical_formula_moiety         'C38 H52 N2 O2'
_chemical_name_systematic        
2,2'-(1,3-Phenylenebis(methylenenitrilomethylylidene))bis(4,6-di-t-butylphenol)
_symmetry_cell_setting           triclinic
_symmetry_space_group_name_H-M   'P -1'
_symmetry_Int_Tables_number      2
_space_group_name_Hall           '-P 1'
loop_
_symmetry_equiv_pos_site_id
_symmetry_equiv_pos_as_xyz
1 x,y,z
2 -x,-y,-z
_cell_length_a                   10.233(2)
_cell_length_b                   10.713(2)
_cell_length_c                   15.727(3)
_cell_angle_alpha                89.57(3)
_cell_angle_beta                 86.41(3)
_cell_angle_gamma                77.79(3)
_cell_volume                     1681.75
_exptl_crystal_colour            colorless
_exptl_crystal_description       plate
_cell_formula_units_Z            2
loop_
_atom_site_label
_atom_site_type_symbol
_atom_site_fract_x
_atom_site_fract_y
_atom_site_fract_z
N1 N 0.23335(8) 0.56594(9) 0.52294(6)
N2 N -0.08541(8) 0.89716(9) 0.38158(6)
O1 O 0.35988(7) 0.71629(7) 0.44076(5)
H1 H 0.3090 0.6921 0.4785
O2 O 0.00450(8) 0.71124(7) 0.27730(5)
H2 H -0.0359 0.7502 0.3206
C1 C 0.42565(9) 0.61450(10) 0.39357(6)
C2 C 0.51658(9) 0.63206(10) 0.32519(6)
C3 C 0.53794(10) 0.76527(10) 0.30141(7)
C4 C 0.40429(11) 0.84985(11) 0.27703(7)
H3 H 0.3725 0.8125 0.2276
H4 H 0.4177 0.9357 0.2628
H5 H 0.3376 0.8551 0.3251
C5 C 0.63936(12) 0.76259(12) 0.22478(8)
H6 H 0.7261 0.7101 0.2384
H7 H 0.6496 0.8498 0.2118
H8 H 0.6071 0.7262 0.1752
C6 C 0.59173(12) 0.82598(12) 0.37650(8)
H9 H 0.5287 0.8301 0.4265
H10 H 0.6018 0.9124 0.3612
H11 H 0.6790 0.7741 0.3897
C7 C 0.58128(9) 0.52335(10) 0.27917(6)
H12 H 0.6418 0.5339 0.2327
C8 C 0.56291(9) 0.39939(10) 0.29693(6)
C9 C 0.63401(10) 0.28726(10) 0.23928(7)
C10 C 0.56962(13) 0.30184(14) 0.15258(8)
H13 H 0.4749 0.2976 0.1609
H14 H 0.6161 0.2328 0.1142
H15 H 0.5769 0.3844 0.1276
C11 C 0.78315(11) 0.28700(12) 0.22335(9)
H16 H 0.7935 0.3678 0.1970
H17 H 0.8252 0.2159 0.1852
H18 H 0.8262 0.2771 0.2776
C12 C 0.62163(14) 0.15841(12) 0.27685(9)
H19 H 0.6594 0.1490 0.3329
H20 H 0.6706 0.0898 0.2389
H21 H 0.5270 0.1535 0.2829
C13 C 0.47222(9) 0.38593(10) 0.36379(6)
H22 H 0.4571 0.3034 0.3775
C14 C 0.40229(9) 0.49195(10) 0.41172(6)
C15 C 0.29982(10) 0.47320(10) 0.47653(6)
H23 H 0.2819 0.3903 0.4845
C16 C 0.12867(10) 0.54169(11) 0.58405(7)
H24 H 0.1652 0.5265 0.6409
H25 H 0.0995 0.4637 0.5668
C17 C 0.00903(10) 0.65282(11) 0.58962(6)
C18 C -0.08253(10) 0.66211(12) 0.66024(7)
H26 H -0.0676 0.6009 0.7045
C19 C -0.19530(11) 0.76077(13) 0.66582(7)
H27 H -0.2574 0.7664 0.7139
C20 C -0.21810(10) 0.85134(11) 0.60171(7)
H28 H -0.2959 0.9180 0.6059
C21 C -0.12703(10) 0.84457(10) 0.53127(6)
C22 C -0.01391(10) 0.74440(10) 0.52581(6)
H29 H 0.0482 0.7388 0.4778
C23 C -0.15011(10) 0.94611(11) 0.46331(7)
H30 H -0.2475 0.9756 0.4575
H31 H -0.1141 1.0202 0.4806
C24 C -0.03263(10) 0.96983(10) 0.33102(6)
H32 H -0.0370 1.0559 0.3474
C25 C 0.03391(9) 0.92381(10) 0.24909(6)
C26 C 0.08398(10) 1.00972(10) 0.19510(6)
H33 H 0.0719 1.0964 0.2124
C27 C 0.15055(10) 0.97152(10) 0.11723(6)
C28 C 0.20876(11) 1.06406(11) 0.05900(7)
C29 C 0.1323(2) 1.20080(14) 0.07325(10)
H34 H 0.0384 1.2074 0.0609
H35 H 0.1720 1.2577 0.0354
H36 H 0.1372 1.2256 0.1326
C30 C 0.20239(19) 1.03374(14) -0.03458(8)
H37 H 0.2618 0.9511 -0.0485
H38 H 0.2310 1.1004 -0.0695
H39 H 0.1103 1.0302 -0.0462
C31 C 0.35332(19) 1.0569(3) 0.07932(16)
H40 H 0.3564 1.0814 0.1389
H41 H 0.3921 1.1152 0.0421
H42 H 0.4047 0.9694 0.0700
C32 C 0.16851(10) 0.84155(10) 0.09580(6)
H43 H 0.2153 0.8134 0.0430
C33 C 0.12216(9) 0.75130(10) 0.14697(6)
C34 C 0.14899(10) 0.60957(10) 0.12196(7)
C35 C 0.01592(11) 0.56386(11) 0.11912(7)
H44 H -0.0310 0.5735 0.1757
H45 H 0.0347 0.4738 0.1018
H46 H -0.0404 0.6152 0.0780
C36 C 0.22274(13) 0.58382(11) 0.03387(8)
H47 H 0.1679 0.6319 -0.0092
H48 H 0.2390 0.4923 0.0208
H49 H 0.3085 0.6108 0.0337
C37 C 0.23839(11) 0.53134(11) 0.18717(8)
H50 H 0.3256 0.5558 0.1845
H51 H 0.2511 0.4401 0.1740
H52 H 0.1954 0.5483 0.2446
C38 C 0.05200(9) 0.79450(10) 0.22512(6)
loop_
_geom_bond_atom_site_label_1
_geom_bond_atom_site_label_2
_geom_bond_site_symmetry_1
_geom_bond_site_symmetry_2
N1 C15 1_555 1_555
N2 C23 1_555 1_555
O1 H1 1_555 1_555
O2 H2 1_555 1_555
C1 O1 1_555 1_555
C2 C1 1_555 1_555
C3 C2 1_555 1_555
C4 C3 1_555 1_555
H3 C4 1_555 1_555
H4 C4 1_555 1_555
H5 C4 1_555 1_555
C5 C3 1_555 1_555
H6 C5 1_555 1_555
H7 C5 1_555 1_555
H8 C5 1_555 1_555
C6 C3 1_555 1_555
H9 C6 1_555 1_555
H10 C6 1_555 1_555
H11 C6 1_555 1_555
C7 C2 1_555 1_555
H12 C7 1_555 1_555
C8 C7 1_555 1_555
C9 C8 1_555 1_555
C10 C9 1_555 1_555
H13 C10 1_555 1_555
H14 C10 1_555 1_555
H15 C10 1_555 1_555
C11 C9 1_555 1_555
H16 C11 1_555 1_555
H17 C11 1_555 1_555
H18 C11 1_555 1_555
C12 C9 1_555 1_555
H19 C12 1_555 1_555
H20 C12 1_555 1_555
H21 C12 1_555 1_555
C13 C8 1_555 1_555
H22 C13 1_555 1_555
C14 C1 1_555 1_555
C15 C14 1_555 1_555
H23 C15 1_555 1_555
C16 N1 1_555 1_555
H24 C16 1_555 1_555
H25 C16 1_555 1_555
C17 C16 1_555 1_555
C18 C17 1_555 1_555
H26 C18 1_555 1_555
C19 C18 1_555 1_555
H27 C19 1_555 1_555
C20 C19 1_555 1_555
H28 C20 1_555 1_555
C21 C20 1_555 1_555
C22 C17 1_555 1_555
H29 C22 1_555 1_555
C23 C21 1_555 1_555
H30 C23 1_555 1_555
H31 C23 1_555 1_555
C24 N2 1_555 1_555
H32 C24 1_555 1_555
C25 C24 1_555 1_555
C26 C25 1_555 1_555
H33 C26 1_555 1_555
C27 C26 1_555 1_555
C28 C27 1_555 1_555
C29 C28 1_555 1_555
H34 C29 1_555 1_555
H35 C29 1_555 1_555
H36 C29 1_555 1_555
C30 C28 1_555 1_555
H37 C30 1_555 1_555
H38 C30 1_555 1_555
H39 C30 1_555 1_555
C31 C28 1_555 1_555
H40 C31 1_555 1_555
H41 C31 1_555 1_555
H42 C31 1_555 1_555
C32 C27 1_555 1_555
H43 C32 1_555 1_555
C33 C32 1_555 1_555
C34 C33 1_555 1_555
C35 C34 1_555 1_555
H44 C35 1_555 1_555
H45 C35 1_555 1_555
H46 C35 1_555 1_555
C36 C34 1_555 1_555
H47 C36 1_555 1_555
H48 C36 1_555 1_555
H49 C36 1_555 1_555
C37 C34 1_555 1_555
H50 C37 1_555 1_555
H51 C37 1_555 1_555
H52 C37 1_555 1_555
C38 O2 1_555 1_555
C13 C14 1_555 1_555
C21 C22 1_555 1_555
C25 C38 1_555 1_555
C33 C38 1_555 1_555

#END
