
#######################################################################
#
#                 Cambridge Crystallographic Data Centre
#                                CCDC 
#
#######################################################################
#
# If this CIF has been generated from an entry in the Cambridge 
# Structural Database, then it will include bibliographic, chemical, 
# crystal, experimental, refinement or atomic coordinate data resulting 
# from the CCDC's data processing and validation procedures.
#
#######################################################################

data_VUDKUC
_chemical_name_common            
'1-(t-Butyl(dimethyl)silyl)-2-methyl-1,2-azaborine N-methylmaleimide adduct'
_chemical_formula_moiety         'C16 H27 B1 N2 O2 Si1'
_chemical_name_systematic        
8-(t-Butyl(dimethyl)silyl)-4,9-dimethyl-4,8-diaza-9-boratricyclo[5.2.2.0^2,6^]undec-10-ene-3,5-dione
_symmetry_cell_setting           orthorhombic
_symmetry_space_group_name_H-M   'P b c a'
_symmetry_Int_Tables_number      61
_space_group_name_Hall           '-P 2ac 2ab'
loop_
_symmetry_equiv_pos_site_id
_symmetry_equiv_pos_as_xyz
1 x,y,z
2 1/2-x,-y,1/2+z
3 -x,1/2+y,1/2-z
4 1/2+x,1/2-y,-z
5 -x,-y,-z
6 1/2+x,y,1/2-z
7 x,1/2-y,1/2+z
8 1/2-x,1/2+y,z
_cell_length_a                   7.3939(12)
_cell_length_b                   20.007(3)
_cell_length_c                   24.883(4)
_cell_angle_alpha                90
_cell_angle_beta                 90
_cell_angle_gamma                90
_cell_volume                     3680.94
_exptl_crystal_colour            colorless
_exptl_crystal_description       plate
_cell_formula_units_Z            8
_chemical_properties_physical    'Air-sensitive, Moisture-sensitive'
loop_
_atom_site_label
_atom_site_type_symbol
_atom_site_fract_x
_atom_site_fract_y
_atom_site_fract_z
Si1 Si 0.52388(5) 0.59011(2) 0.61416(2)
O1 O 0.41664(12) 0.77193(4) 0.77015(3)
O2 O 0.09793(13) 0.89527(4) 0.64746(4)
N1 N 0.46660(14) 0.67589(5) 0.60794(4)
N2 N 0.26265(14) 0.84640(5) 0.71560(4)
B1 B 0.37767(19) 0.71247(6) 0.56661(5)
C1 C 0.50632(16) 0.71934(5) 0.65614(4)
H1 H 0.5805 0.6946 0.6832
C2 C 0.3286(2) 0.68723(7) 0.50829(5)
H2 H 0.3947 0.6458 0.5007
H3 H 0.3623 0.7214 0.4819
H4 H 0.1982 0.6788 0.5061
C3 C 0.33007(17) 0.78800(5) 0.58522(4)
H5 H 0.2672 0.8143 0.5566
C4 C 0.50899(17) 0.81842(6) 0.60181(5)
H6 H 0.5526 0.8593 0.5874
C5 C 0.60099(17) 0.78308(6) 0.63844(5)
H7 H 0.7152 0.7966 0.6521
C6 C 0.31885(15) 0.73898(5) 0.67983(4)
H8 H 0.2492 0.6981 0.6902
C7 C 0.21332(16) 0.78012(5) 0.63776(4)
H9 H 0.0956 0.7579 0.6293
C8 C 0.18021(16) 0.84720(6) 0.66504(5)
C9 C 0.25511(18) 0.90303(6) 0.75295(5)
H10 H 0.1343 0.9056 0.7690
H11 H 0.2807 0.9445 0.7334
H12 H 0.3454 0.8968 0.7814
C10 C 0.34065(15) 0.78519(5) 0.72782(4)
C11 C 0.4694(2) 0.56293(6) 0.68482(5)
H13 H 0.5487 0.5864 0.7101
H14 H 0.4881 0.5146 0.6882
H15 H 0.3429 0.5737 0.6929
C12 C 0.38645(18) 0.53739(6) 0.56744(5)
H16 H 0.2591 0.5506 0.5698
H17 H 0.3987 0.4903 0.5775
H18 H 0.4296 0.5437 0.5305
C13 C 0.77456(17) 0.57759(6) 0.60016(5)
C14 C 0.8922(2) 0.61627(8) 0.64055(7)
H19 H 0.8681 0.5999 0.6770
H20 H 0.8633 0.6640 0.6385
H21 H 1.0202 0.6095 0.6319
C15 C 0.8203(2) 0.50240(7) 0.60333(7)
H22 H 0.9490 0.4958 0.5955
H23 H 0.7475 0.4779 0.5770
H24 H 0.7934 0.4858 0.6395
C16 C 0.8184(2) 0.60288(8) 0.54286(6)
H25 H 0.7904 0.6506 0.5403
H26 H 0.7455 0.5782 0.5166
H27 H 0.9471 0.5958 0.5353
loop_
_geom_bond_atom_site_label_1
_geom_bond_atom_site_label_2
_geom_bond_site_symmetry_1
_geom_bond_site_symmetry_2
Si1 N1 1_555 1_555
O1 C10 1_555 1_555
O2 C8 1_555 1_555
N1 B1 1_555 1_555
N2 C8 1_555 1_555
B1 C2 1_555 1_555
C1 N1 1_555 1_555
H1 C1 1_555 1_555
C2 H2 1_555 1_555
H3 C2 1_555 1_555
H4 C2 1_555 1_555
C3 B1 1_555 1_555
H5 C3 1_555 1_555
C4 C3 1_555 1_555
H6 C4 1_555 1_555
C5 C1 1_555 1_555
H7 C5 1_555 1_555
C6 C1 1_555 1_555
H8 C6 1_555 1_555
C7 C3 1_555 1_555
H9 C7 1_555 1_555
C8 C7 1_555 1_555
C9 N2 1_555 1_555
H10 C9 1_555 1_555
H11 C9 1_555 1_555
H12 C9 1_555 1_555
C10 N2 1_555 1_555
C11 Si1 1_555 1_555
H13 C11 1_555 1_555
H14 C11 1_555 1_555
H15 C11 1_555 1_555
C12 Si1 1_555 1_555
H16 C12 1_555 1_555
H17 C12 1_555 1_555
H18 C12 1_555 1_555
C13 Si1 1_555 1_555
C14 C13 1_555 1_555
H19 C14 1_555 1_555
H20 C14 1_555 1_555
H21 C14 1_555 1_555
C15 C13 1_555 1_555
H22 C15 1_555 1_555
H23 C15 1_555 1_555
H24 C15 1_555 1_555
C16 C13 1_555 1_555
H25 C16 1_555 1_555
H26 C16 1_555 1_555
H27 C16 1_555 1_555
C4 C5 1_555 1_555
C6 C7 1_555 1_555
C6 C10 1_555 1_555

#END
