
#######################################################################
#
#                 Cambridge Crystallographic Data Centre
#                                CCDC 
#
#######################################################################
#
# If this CIF has been generated from an entry in the Cambridge 
# Structural Database, then it will include bibliographic, chemical, 
# crystal, experimental, refinement or atomic coordinate data resulting 
# from the CCDC's data processing and validation procedures.
#
#######################################################################

data_VUDLAJ
_chemical_name_common            
'1H-2-Pinacolate-1,2-azaborine N-methylmaleimide adduct'
_chemical_formula_moiety         'C15 H23 B1 N2 O4'
_chemical_name_systematic        
2-Dihydro-3-pinacolate-7-8-10-methylpyrolidene-9-11-dione-2-aza-3-borabicyclo[2.2.2]oct-5-ene
_symmetry_cell_setting           monoclinic
_symmetry_space_group_name_H-M   'P 21/c'
_symmetry_Int_Tables_number      14
_space_group_name_Hall           '-P 2ybc'
loop_
_symmetry_equiv_pos_site_id
_symmetry_equiv_pos_as_xyz
1 x,y,z
2 -x,1/2+y,1/2-z
3 -x,-y,-z
4 x,1/2-y,1/2+z
_cell_length_a                   11.1662(11)
_cell_length_b                   11.0374(11)
_cell_length_c                   25.964(3)
_cell_angle_alpha                90
_cell_angle_beta                 91.244(2)
_cell_angle_gamma                90
_cell_volume                     3199.2
_exptl_crystal_colour            white
_exptl_crystal_description       plate
_cell_formula_units_Z            8
_chemical_properties_physical    'Air-sensitive, Moisture-sensitive'
loop_
_atom_site_label
_atom_site_type_symbol
_atom_site_fract_x
_atom_site_fract_y
_atom_site_fract_z
O1 O 0.40085(9) 0.81033(9) 0.70399(4)
O2 O 0.25747(9) 0.63260(9) 0.55699(4)
O3 O 0.62820(8) 0.37194(8) 0.60140(3)
O4 O 0.50862(9) 0.24297(8) 0.65015(4)
N1 N 0.56977(10) 0.44696(10) 0.68908(4)
H1 H 0.5785(14) 0.3963(14) 0.7163(6)
H2 H 0.6412(15) 0.4833(14) 0.6838(6)
N2 N 0.31518(10) 0.74391(10) 0.62774(4)
B1 B 0.52717(13) 0.36838(13) 0.63666(5)
C1 C 0.48125(12) 0.54408(12) 0.70354(5)
H3 H 0.5047 0.5838 0.7369
C2 C 0.40440(12) 0.43808(11) 0.61851(5)
H4 H 0.3676 0.3996 0.5871
C3 C 0.32170(12) 0.43208(12) 0.66311(5)
H5 H 0.2466 0.3919 0.6607
C4 C 0.35957(12) 0.48627(12) 0.70623(5)
H6 H 0.3132 0.4883 0.7365
C5 C 0.48213(11) 0.63496(11) 0.65845(5)
H7 H 0.5653 0.6657 0.6533
C6 C 0.43462(12) 0.57320(12) 0.60879(5)
H8 H 0.4962 0.5792 0.5815
C7 C 0.32592(12) 0.64808(12) 0.59320(5)
C8 C 0.22182(13) 0.83585(13) 0.62211(6)
H9 H 0.1439 0.7999 0.6298
H10 H 0.2203 0.8667 0.5867
H11 H 0.2386 0.9026 0.6461
C9 C 0.39799(12) 0.73981(12) 0.66793(5)
C10 C 0.64615(12) 0.24846(12) 0.58387(5)
C11 C 0.60805(13) 0.17437(12) 0.63172(5)
C12 C 0.70690(14) 0.17227(14) 0.67350(6)
H12 H 0.7421 0.2533 0.6770
H13 H 0.7691 0.1144 0.6639
H14 H 0.6728 0.1478 0.7064
C13 C 0.56573(15) 0.04551(13) 0.62030(7)
H15 H 0.5468 0.0047 0.6526
H16 H 0.6292 0.0009 0.6030
H17 H 0.4940 0.0482 0.5979
C14 C 0.77584(13) 0.23182(13) 0.56879(6)
H18 H 0.7915 0.2798 0.5379
H19 H 0.7908 0.1460 0.5617
H20 H 0.8288 0.2589 0.5971
C15 C 0.56382(13) 0.22614(13) 0.53698(5)
H21 H 0.4801 0.2282 0.5476
H22 H 0.5816 0.1466 0.5222
H23 H 0.5770 0.2893 0.5112
O5 O 0.94338(9) 0.61869(9) 0.42732(4)
O6 O 0.85473(12) 0.97032(9) 0.50921(4)
O7 O 0.76692(8) 0.61770(8) 0.66885(3)
O8 O 0.96166(8) 0.67042(8) 0.64587(3)
N3 N 0.83871(11) 0.53080(10) 0.58698(4)
H24 H 0.9074(15) 0.4896(14) 0.5905(6)
H25 H 0.7785(14) 0.4799(14) 0.5960(6)
N4 N 0.90037(12) 0.80761(11) 0.45860(4)
B2 B 0.84210(13) 0.65023(13) 0.62506(6)
C16 C 0.82335(12) 0.56470(12) 0.53110(5)
H26 H 0.8269 0.4917 0.5084
C17 C 0.80113(12) 0.76144(12) 0.58645(5)
H27 H 0.7876 0.8382 0.6059
C18 C 0.69283(12) 0.72627(12) 0.55478(5)
H28 H 0.6204 0.7714 0.5554
C19 C 0.70448(12) 0.62776(12) 0.52565(5)
H29 H 0.6423 0.5995 0.5031
C20 C 0.92645(12) 0.65360(11) 0.52003(5)
H30 H 1.0052 0.6174 0.5307
C21 C 0.90633(12) 0.77425(12) 0.54849(5)
H31 H 0.9810 0.7971 0.5681
C22 C 0.88307(14) 0.86534(13) 0.50575(6)
C23 C 0.88990(18) 0.86905(15) 0.40909(6)
H32 H 0.9282 0.8200 0.3826
H33 H 0.9294 0.9482 0.4114
H34 H 0.8051 0.8803 0.3999
C24 C 0.92600(12) 0.68612(12) 0.46343(5)
C25 C 0.83447(12) 0.64944(13) 0.71503(5)
C26 C 0.96486(12) 0.62722(13) 0.69809(5)
C27 C 0.99677(14) 0.49279(14) 0.69841(6)
H35 H 0.9299 0.4461 0.6835
H36 H 1.0125 0.4662 0.7339
H37 H 1.0684 0.4797 0.6780
C28 C 1.05936(13) 0.69831(16) 0.72840(6)
H38 H 1.1392 0.6746 0.7171
H39 H 1.0522 0.6809 0.7652
H40 H 1.0476 0.7852 0.7224
C29 C 0.79588(14) 0.57036(16) 0.75985(5)
H41 H 0.7143 0.5922 0.7695
H42 H 0.8507 0.5830 0.7894
H43 H 0.7979 0.4850 0.7495
C30 C 0.80879(13) 0.78172(15) 0.72709(6)
H44 H 0.8429 0.8332 0.7004
H45 H 0.8449 0.8027 0.7607
H46 H 0.7220 0.7945 0.7280
loop_
_geom_bond_atom_site_label_1
_geom_bond_atom_site_label_2
_geom_bond_site_symmetry_1
_geom_bond_site_symmetry_2
O1 C9 1_555 1_555
O2 C7 1_555 1_555
O3 B1 1_555 1_555
O4 B1 1_555 1_555
N1 H1 1_555 1_555
H2 N1 1_555 1_555
N2 C7 1_555 1_555
B1 N1 1_555 1_555
C1 N1 1_555 1_555
H3 C1 1_555 1_555
C2 B1 1_555 1_555
H4 C2 1_555 1_555
C3 C2 1_555 1_555
H5 C3 1_555 1_555
C4 C1 1_555 1_555
H6 C4 1_555 1_555
C5 C1 1_555 1_555
H7 C5 1_555 1_555
C6 C2 1_555 1_555
H8 C6 1_555 1_555
C7 C6 1_555 1_555
C8 N2 1_555 1_555
H9 C8 1_555 1_555
H10 C8 1_555 1_555
H11 C8 1_555 1_555
C9 N2 1_555 1_555
C10 O3 1_555 1_555
C11 O4 1_555 1_555
C12 C11 1_555 1_555
H12 C12 1_555 1_555
H13 C12 1_555 1_555
H14 C12 1_555 1_555
C13 C11 1_555 1_555
H15 C13 1_555 1_555
H16 C13 1_555 1_555
H17 C13 1_555 1_555
C14 C10 1_555 1_555
H18 C14 1_555 1_555
H19 C14 1_555 1_555
H20 C14 1_555 1_555
C15 C10 1_555 1_555
H21 C15 1_555 1_555
H22 C15 1_555 1_555
H23 C15 1_555 1_555
O5 C24 1_555 1_555
O6 C22 1_555 1_555
O7 B2 1_555 1_555
O8 B2 1_555 1_555
N3 H24 1_555 1_555
H25 N3 1_555 1_555
N4 C22 1_555 1_555
B2 N3 1_555 1_555
C16 N3 1_555 1_555
H26 C16 1_555 1_555
C17 B2 1_555 1_555
H27 C17 1_555 1_555
C18 C17 1_555 1_555
H28 C18 1_555 1_555
C19 C16 1_555 1_555
H29 C19 1_555 1_555
C20 C16 1_555 1_555
H30 C20 1_555 1_555
C21 C17 1_555 1_555
H31 C21 1_555 1_555
C22 C21 1_555 1_555
C23 N4 1_555 1_555
H32 C23 1_555 1_555
H33 C23 1_555 1_555
H34 C23 1_555 1_555
C24 N4 1_555 1_555
C25 O7 1_555 1_555
C26 O8 1_555 1_555
C27 C26 1_555 1_555
H35 C27 1_555 1_555
H36 C27 1_555 1_555
H37 C27 1_555 1_555
C28 C26 1_555 1_555
H38 C28 1_555 1_555
H39 C28 1_555 1_555
H40 C28 1_555 1_555
C29 C25 1_555 1_555
H41 C29 1_555 1_555
H42 C29 1_555 1_555
H43 C29 1_555 1_555
C30 C25 1_555 1_555
H44 C30 1_555 1_555
H45 C30 1_555 1_555
H46 C30 1_555 1_555
C3 C4 1_555 1_555
C5 C6 1_555 1_555
C5 C9 1_555 1_555
C10 C11 1_555 1_555
C18 C19 1_555 1_555
C20 C21 1_555 1_555
C20 C24 1_555 1_555
C25 C26 1_555 1_555

#END
