
#######################################################################
#
#                 Cambridge Crystallographic Data Centre
#                                CCDC 
#
#######################################################################
#
# If this CIF has been generated from an entry in the Cambridge 
# Structural Database, then it will include bibliographic, chemical, 
# crystal, experimental, refinement or atomic coordinate data resulting 
# from the CCDC's data processing and validation procedures.
#
#######################################################################

data_VUDNEO
_chemical_formula_moiety         'C18 H21 N1 O3'
_chemical_name_systematic        
2-Methyl-N-(2,3,4-trimethoxy-6-methylbenzylidene)aniline
_chemical_properties_biological  'antibacterial activity'
_symmetry_cell_setting           monoclinic
_symmetry_space_group_name_H-M   'P 21/n'
_symmetry_Int_Tables_number      14
_space_group_name_Hall           '-P 2yn'
loop_
_symmetry_equiv_pos_site_id
_symmetry_equiv_pos_as_xyz
1 x,y,z
2 1/2-x,1/2+y,1/2-z
3 -x,-y,-z
4 1/2+x,1/2-y,1/2+z
_cell_length_a                   7.2804(5)
_cell_length_b                   8.5909(9)
_cell_length_c                   26.117(3)
_cell_angle_alpha                90
_cell_angle_beta                 92.056(2)
_cell_angle_gamma                90
_cell_volume                     1632.44
_exptl_crystal_colour            'straw yellow'
_exptl_crystal_description       block
_cell_formula_units_Z            4
_exptl_crystal_recrystallization_method ethanol
loop_
_atom_site_label
_atom_site_type_symbol
_atom_site_fract_x
_atom_site_fract_y
_atom_site_fract_z
N1 N 0.5081(3) 0.6918(3) 1.41512(8)
O1 O 0.2298(2) 0.7606(2) 1.54141(7)
O2 O 0.3722(2) 0.8474(2) 1.63419(7)
O3 O 0.7322(2) 0.9306(2) 1.64521(7)
C1 C 0.4303(3) 0.7413(3) 1.45432(10)
H1 H 0.3029 0.7504 1.4522
C2 C 0.5218(3) 0.7854(3) 1.50271(9)
C3 C 0.4155(3) 0.7928(3) 1.54629(9)
C4 C 0.4869(3) 0.8362(3) 1.59359(9)
C5 C 0.6718(3) 0.8800(3) 1.59815(9)
C6 C 0.7790(3) 0.8707(3) 1.55561(9)
H2 H 0.9030 0.8959 1.5592
C7 C 0.7095(3) 0.8255(3) 1.50803(9)
C8 C 0.1833(4) 0.6045(4) 1.54992(14)
H3 H 0.2415 0.5397 1.5253
H4 H 0.0524 0.5922 1.5464
H5 H 0.2243 0.5746 1.5839
C9 C 0.4069(4) 0.7385(4) 1.67449(11)
H6 H 0.3803 0.6352 1.6623
H7 H 0.3303 0.7621 1.7026
H8 H 0.5337 0.7446 1.6857
C10 C 0.9086(4) 1.0029(4) 1.64893(11)
H9 H 1.0019 0.9267 1.6429
H10 H 0.9279 1.0463 1.6826
H11 H 0.9147 1.0842 1.6238
C11 C 0.8353(3) 0.8282(3) 1.46385(9)
H12 H 0.9550 0.8628 1.4755
H13 H 0.7872 0.8982 1.4380
H14 H 0.8442 0.7255 1.4497
C12 C 0.3986(4) 0.6459(3) 1.37180(10)
C13 C 0.4556(4) 0.6893(4) 1.32341(11)
C14 C 0.3484(6) 0.6430(4) 1.28131(13)
H15 H 0.3828 0.6731 1.2488
C15 C 0.1944(6) 0.5549(5) 1.28582(16)
H16 H 0.1250 0.5263 1.2567
C16 C 0.1420(5) 0.5085(5) 1.33329(16)
H17 H 0.0384 0.4465 1.3365
C17 C 0.2437(4) 0.5542(4) 1.37646(12)
H18 H 0.2080 0.5233 1.4087
C18 C 0.6275(5) 0.7811(4) 1.31737(13)
H19 H 0.7296 0.7259 1.3330
H20 H 0.6154 0.8806 1.3337
H21 H 0.6480 0.7959 1.2816
loop_
_geom_bond_atom_site_label_1
_geom_bond_atom_site_label_2
_geom_bond_site_symmetry_1
_geom_bond_site_symmetry_2
N1 C1 1_555 1_555
O1 C3 1_555 1_555
O2 C4 1_555 1_555
O3 C5 1_555 1_555
C1 H1 1_555 1_555
C2 C1 1_555 1_555
C3 C2 1_555 1_555
C4 C3 1_555 1_555
C5 C4 1_555 1_555
C6 C5 1_555 1_555
H2 C6 1_555 1_555
C7 C2 1_555 1_555
C8 O1 1_555 1_555
H3 C8 1_555 1_555
H4 C8 1_555 1_555
H5 C8 1_555 1_555
C9 O2 1_555 1_555
H6 C9 1_555 1_555
H7 C9 1_555 1_555
H8 C9 1_555 1_555
C10 O3 1_555 1_555
H9 C10 1_555 1_555
H10 C10 1_555 1_555
H11 C10 1_555 1_555
C11 C7 1_555 1_555
H12 C11 1_555 1_555
H13 C11 1_555 1_555
H14 C11 1_555 1_555
C12 N1 1_555 1_555
C13 C12 1_555 1_555
C14 C13 1_555 1_555
H15 C14 1_555 1_555
C15 C14 1_555 1_555
H16 C15 1_555 1_555
C16 C15 1_555 1_555
H17 C16 1_555 1_555
C17 C12 1_555 1_555
H18 C17 1_555 1_555
C18 C13 1_555 1_555
H19 C18 1_555 1_555
H20 C18 1_555 1_555
H21 C18 1_555 1_555
C6 C7 1_555 1_555
C16 C17 1_555 1_555

#END
