
#######################################################################
#
#                 Cambridge Crystallographic Data Centre
#                                CCDC 
#
#######################################################################
#
# If this CIF has been generated from an entry in the Cambridge 
# Structural Database, then it will include bibliographic, chemical, 
# crystal, experimental, refinement or atomic coordinate data resulting 
# from the CCDC's data processing and validation procedures.
#
#######################################################################

data_VUDRUI
_chemical_formula_moiety         'C19 H24 N1 1+,C18 H1 B1 F15 1-,C6 D6'
_chemical_name_systematic        
'trans-2,6-Dimethyl-2,6-diphenylpiperidinium hydrido[tris(pentafluorophenyl)]borate perdeuterobenzene solvate'
_symmetry_cell_setting           monoclinic
_symmetry_space_group_name_H-M   'P 21/c'
_symmetry_Int_Tables_number      14
_space_group_name_Hall           '-P 2ybc'
loop_
_symmetry_equiv_pos_site_id
_symmetry_equiv_pos_as_xyz
1 x,y,z
2 -x,1/2+y,1/2-z
3 -x,-y,-z
4 x,1/2-y,1/2+z
_cell_length_a                   16.612(1)
_cell_length_b                   9.962(1)
_cell_length_c                   22.626(2)
_cell_angle_alpha                90
_cell_angle_beta                 94.55(1)
_cell_angle_gamma                90
_cell_volume                     3732.55
_exptl_crystal_colour            colorless
_exptl_crystal_description       blocks
_cell_formula_units_Z            4
_exptl_crystal_recrystallization_method perdeuterobenzene
loop_
_atom_site_label
_atom_site_type_symbol
_atom_site_fract_x
_atom_site_fract_y
_atom_site_fract_z
N1 N 0.27098(9) 0.72755(15) 0.23010(6)
H1 H 0.2736(11) 0.6810(18) 0.2665(8)
H2 H 0.2302(12) 0.7875(19) 0.2316(8)
C1 C 0.24216(11) 0.63455(17) 0.17814(7)
C2 C 0.24378(12) 0.71911(19) 0.12206(8)
H3 H 0.2321 0.6601 0.0872
H4 H 0.2000 0.7867 0.1218
C3 C 0.32320(13) 0.79163(19) 0.11522(8)
H5 H 0.3189 0.8453 0.0783
H6 H 0.3670 0.7251 0.1124
C4 C 0.34334(12) 0.88370(18) 0.16834(8)
H7 H 0.3010 0.9535 0.1692
H8 H 0.3952 0.9295 0.1633
C5 C 0.34966(10) 0.80867(17) 0.22751(7)
C6 C 0.42118(11) 0.71256(18) 0.23232(9)
H9 H 0.4231 0.6656 0.2705
H10 H 0.4713 0.7633 0.2296
H11 H 0.4152 0.6470 0.2000
C7 C 0.35138(11) 0.90701(17) 0.27968(7)
C8 C 0.41927(12) 0.92161(19) 0.31923(8)
H12 H 0.4658 0.8683 0.3146
C9 C 0.41982(14) 1.0133(2) 0.36546(9)
H13 H 0.4669 1.0232 0.3918
C10 C 0.35302(14) 1.0895(2) 0.37343(9)
H14 H 0.3533 1.1510 0.4055
C11 C 0.28533(13) 1.0762(2) 0.33447(9)
H15 H 0.2387 1.1285 0.3399
C12 C 0.28494(12) 0.98730(18) 0.28763(8)
H16 H 0.2385 0.9811 0.2605
C13 C 0.15516(11) 0.59721(19) 0.18830(8)
H17 H 0.1218 0.6785 0.1869
H18 H 0.1536 0.5544 0.2272
H19 H 0.1342 0.5348 0.1573
C14 C 0.29341(11) 0.50737(17) 0.18043(7)
C15 C 0.32220(11) 0.45357(18) 0.12963(8)
H20 H 0.3128 0.4997 0.0930
C16 C 0.36441(12) 0.3335(2) 0.13157(9)
H21 H 0.3831 0.2976 0.0962
C17 C 0.37941(12) 0.2662(2) 0.18425(10)
H22 H 0.4087 0.1842 0.1855
C18 C 0.35165(12) 0.31835(19) 0.23556(9)
H23 H 0.3626 0.2729 0.2722
C19 C 0.30791(11) 0.43685(18) 0.23340(8)
H24 H 0.2875 0.4705 0.2685
B1 B 0.23767(12) 0.6159(2) 0.39079(9)
H25 H 0.2450(11) 0.6152(17) 0.3405(8)
C20 C 0.21460(10) 0.46203(17) 0.40926(7)
C21 C 0.15439(11) 0.39472(18) 0.37529(7)
F1 F 0.12220(7) 0.45198(11) 0.32460(4)
C22 C 0.12355(11) 0.27099(19) 0.38936(8)
F2 F 0.06348(7) 0.21365(12) 0.35478(5)
C23 C 0.15543(12) 0.20544(18) 0.43908(8)
F3 F 0.12917(8) 0.08269(10) 0.45241(5)
C24 C 0.21633(12) 0.26558(18) 0.47396(8)
F4 F 0.24847(8) 0.20181(11) 0.52249(5)
C25 C 0.24348(11) 0.39164(18) 0.45939(8)
F5 F 0.30098(7) 0.44527(11) 0.49791(5)
C26 C 0.15937(10) 0.70801(17) 0.40294(7)
C27 C 0.11350(10) 0.77856(17) 0.35976(7)
F6 F 0.13606(6) 0.78199(11) 0.30318(4)
C28 C 0.04398(11) 0.84769(17) 0.36914(8)
F7 F 0.00341(6) 0.91527(10) 0.32477(5)
C29 C 0.01605(11) 0.84806(17) 0.42457(8)
F8 F -0.05121(7) 0.91551(11) 0.43486(5)
C30 C 0.05872(11) 0.77924(18) 0.46947(7)
F9 F 0.03227(7) 0.77875(11) 0.52422(5)
C31 C 0.12790(11) 0.71242(17) 0.45790(7)
F10 F 0.16747(6) 0.64675(10) 0.50406(4)
C32 C 0.32436(11) 0.66599(18) 0.42212(7)
C33 C 0.39337(11) 0.59440(18) 0.41211(8)
F11 F 0.38721(6) 0.48518(11) 0.37603(5)
C34 C 0.46950(11) 0.6227(2) 0.43741(8)
F12 F 0.53339(7) 0.54574(12) 0.42617(5)
C35 C 0.48003(11) 0.7313(2) 0.47485(8)
F13 F 0.55362(7) 0.76061(13) 0.50093(5)
C36 C 0.41473(11) 0.80869(19) 0.48489(8)
F14 F 0.42448(7) 0.91713(12) 0.52058(5)
C37 C 0.33932(11) 0.77569(18) 0.45904(8)
F15 F 0.27878(6) 0.85834(10) 0.47245(5)
C38 C 0.08382(13) 0.5177(2) 0.62836(9)
D1 D 0.06617(13) 0.5893(2) 0.60276(9)
C39 C 0.06233(12) 0.5148(2) 0.68576(9)
D2 D 0.03064(12) 0.5851(2) 0.70025(9)
C40 C 0.08698(13) 0.4095(2) 0.72208(9)
D3 D 0.07155(13) 0.4069(2) 0.76160(9)
C41 C 0.13355(13) 0.3083(2) 0.70190(10)
D4 D 0.14993(13) 0.2357(2) 0.72729(10)
C42 C 0.15644(13) 0.3121(2) 0.64512(10)
D5 D 0.18965(13) 0.2430(2) 0.63130(10)
C43 C 0.13121(15) 0.4162(2) 0.60800(10)
D6 D 0.14640(15) 0.4182(2) 0.56841(10)
loop_
_geom_bond_atom_site_label_1
_geom_bond_atom_site_label_2
_geom_bond_site_symmetry_1
_geom_bond_site_symmetry_2
N1 H1 1_555 1_555
H2 N1 1_555 1_555
C1 N1 1_555 1_555
C2 C1 1_555 1_555
H3 C2 1_555 1_555
H4 C2 1_555 1_555
C3 C2 1_555 1_555
H5 C3 1_555 1_555
H6 C3 1_555 1_555
C4 C3 1_555 1_555
H7 C4 1_555 1_555
H8 C4 1_555 1_555
C5 N1 1_555 1_555
C6 C5 1_555 1_555
H9 C6 1_555 1_555
H10 C6 1_555 1_555
H11 C6 1_555 1_555
C7 C5 1_555 1_555
C8 C7 1_555 1_555
H12 C8 1_555 1_555
C9 C8 1_555 1_555
H13 C9 1_555 1_555
C10 C9 1_555 1_555
H14 C10 1_555 1_555
C11 C10 1_555 1_555
H15 C11 1_555 1_555
C12 C7 1_555 1_555
H16 C12 1_555 1_555
C13 C1 1_555 1_555
H17 C13 1_555 1_555
H18 C13 1_555 1_555
H19 C13 1_555 1_555
C14 C1 1_555 1_555
C15 C14 1_555 1_555
H20 C15 1_555 1_555
C16 C15 1_555 1_555
H21 C16 1_555 1_555
C17 C16 1_555 1_555
H22 C17 1_555 1_555
C18 C17 1_555 1_555
H23 C18 1_555 1_555
C19 C14 1_555 1_555
H24 C19 1_555 1_555
B1 H25 1_555 1_555
C20 B1 1_555 1_555
C21 C20 1_555 1_555
F1 C21 1_555 1_555
C22 C21 1_555 1_555
F2 C22 1_555 1_555
C23 C22 1_555 1_555
F3 C23 1_555 1_555
C24 C23 1_555 1_555
F4 C24 1_555 1_555
C25 C20 1_555 1_555
F5 C25 1_555 1_555
C26 B1 1_555 1_555
C27 C26 1_555 1_555
F6 C27 1_555 1_555
C28 C27 1_555 1_555
F7 C28 1_555 1_555
C29 C28 1_555 1_555
F8 C29 1_555 1_555
C30 C29 1_555 1_555
F9 C30 1_555 1_555
C31 C26 1_555 1_555
F10 C31 1_555 1_555
C32 B1 1_555 1_555
C33 C32 1_555 1_555
F11 C33 1_555 1_555
C34 C33 1_555 1_555
F12 C34 1_555 1_555
C35 C34 1_555 1_555
F13 C35 1_555 1_555
C36 C35 1_555 1_555
F14 C36 1_555 1_555
C37 C32 1_555 1_555
F15 C37 1_555 1_555
C38 D1 1_555 1_555
C39 C38 1_555 1_555
D2 C39 1_555 1_555
C40 C39 1_555 1_555
D3 C40 1_555 1_555
C41 C40 1_555 1_555
D4 C41 1_555 1_555
C42 C41 1_555 1_555
D5 C42 1_555 1_555
C43 C38 1_555 1_555
D6 C43 1_555 1_555
C4 C5 1_555 1_555
C11 C12 1_555 1_555
C18 C19 1_555 1_555
C24 C25 1_555 1_555
C30 C31 1_555 1_555
C36 C37 1_555 1_555
C42 C43 1_555 1_555

#END
