
#######################################################################
#
#                 Cambridge Crystallographic Data Centre
#                                CCDC 
#
#######################################################################
#
# If this CIF has been generated from an entry in the Cambridge 
# Structural Database, then it will include bibliographic, chemical, 
# crystal, experimental, refinement or atomic coordinate data resulting 
# from the CCDC's data processing and validation procedures.
#
#######################################################################

data_VUDWOI
_chemical_formula_moiety         'C34 H20 N2 O2 S2'
_chemical_name_systematic        
3,3'-bis(1,3-benzothiazol-2-yl)-1,1'-binaphthalene-2,2'-diol
_symmetry_cell_setting           orthorhombic
_symmetry_space_group_name_H-M   'P 21 21 21'
_symmetry_Int_Tables_number      19
_space_group_name_Hall           'P 2ac 2ab'
loop_
_symmetry_equiv_pos_site_id
_symmetry_equiv_pos_as_xyz
1 x,y,z
2 1/2-x,-y,1/2+z
3 1/2+x,1/2-y,-z
4 -x,1/2+y,1/2-z
_cell_length_a                   6.8722(6)
_cell_length_b                   11.2171(11)
_cell_length_c                   33.051(3)
_cell_angle_alpha                90
_cell_angle_beta                 90
_cell_angle_gamma                90
_cell_volume                     2547.77
_exptl_crystal_colour            'yellow red'
_exptl_crystal_description       block
_cell_formula_units_Z            4
loop_
_atom_site_label
_atom_site_type_symbol
_atom_site_fract_x
_atom_site_fract_y
_atom_site_fract_z
S1 S 0.1777(3) -0.28623(17) -0.54449(6)
S2 S -0.6175(3) -0.9405(2) -0.75093(6)
O1 O 0.0630(7) -0.6004(4) -0.63112(13)
H1 H 0.1580 -0.5569 -0.6283
O2 O -0.5238(8) -0.6578(5) -0.65185(15)
H2 H -0.5951 -0.6573 -0.6717
N1 N 0.2725(9) -0.4271(5) -0.60292(16)
N2 N -0.7340(9) -0.7618(5) -0.70788(18)
C1 C -0.2228(10) -0.6573(6) -0.59673(19)
C2 C -0.0629(10) -0.5827(6) -0.59991(19)
C3 C -0.0338(10) -0.4859(6) -0.5719(2)
C4 C -0.1671(10) -0.4687(5) -0.54180(18)
H3 H -0.1488 -0.4060 -0.5238
C5 C -0.3299(10) -0.5419(6) -0.53722(19)
C6 C -0.4649(11) -0.5256(6) -0.5059(2)
H4 H -0.4483 -0.4620 -0.4882
C7 C -0.6188(12) -0.5995(7) -0.5006(2)
H5 H -0.7068 -0.5863 -0.4797
C8 C -0.6438(11) -0.6956(6) -0.52680(19)
H6 H -0.7483 -0.7472 -0.5231
C9 C -0.5170(10) -0.7149(6) -0.5578(2)
H7 H -0.5374 -0.7792 -0.5750
C10 C -0.3540(10) -0.6390(6) -0.56438(19)
C11 C 0.1404(11) -0.4093(6) -0.57605(19)
C12 C 0.3943(11) -0.2571(6) -0.5700(2)
C13 C 0.5285(12) -0.1673(6) -0.5641(2)
H8 H 0.5118 -0.1111 -0.5438
C14 C 0.6878(12) -0.1632(7) -0.5893(2)
H9 H 0.7805 -0.1035 -0.5860
C15 C 0.7106(13) -0.2477(7) -0.6196(2)
H10 H 0.8187 -0.2427 -0.6364
C16 C 0.5803(11) -0.3380(7) -0.6257(2)
H11 H 0.5987 -0.3943 -0.6460
C17 C 0.4206(11) -0.3424(6) -0.6004(2)
C18 C -0.2468(11) -0.7540(6) -0.62732(19)
C19 C -0.1112(11) -0.8496(6) -0.62973(19)
C20 C 0.0496(11) -0.8615(6) -0.6034(2)
H12 H 0.0674 -0.8059 -0.5829
C21 C 0.1794(12) -0.9530(6) -0.6075(2)
H13 H 0.2814 -0.9598 -0.5891
C22 C 0.1620(12) -1.0357(7) -0.6383(2)
H14 H 0.2545 -1.0955 -0.6414
C23 C 0.0080(13) -1.0285(7) -0.6640(2)
H15 H -0.0048 -1.0844 -0.6846
C24 C -0.1317(11) -0.9383(6) -0.6600(2)
C25 C -0.2932(11) -0.9321(6) -0.68616(19)
H16 H -0.3090 -0.9907 -0.7058
C26 C -0.4265(11) -0.8433(6) -0.6836(2)
C27 C -0.3990(11) -0.7508(6) -0.6544(2)
C28 C -0.5953(12) -0.8375(7) -0.7107(2)
C29 C -0.8396(12) -0.8749(7) -0.7635(2)
C30 C -0.9692(14) -0.9060(8) -0.7944(2)
H17 H -0.9417 -0.9670 -0.8126
C31 C -1.1381(14) -0.8424(8) -0.7965(3)
H18 H -1.2280 -0.8621 -0.8165
C32 C -1.1812(14) -0.7507(8) -0.7705(3)
H19 H -1.2979 -0.7094 -0.7731
C33 C -1.0480(13) -0.7194(7) -0.7399(2)
H20 H -1.0754 -0.6574 -0.7221
C34 C -0.8772(12) -0.7819(7) -0.7369(2)
loop_
_geom_bond_atom_site_label_1
_geom_bond_atom_site_label_2
_geom_bond_site_symmetry_1
_geom_bond_site_symmetry_2
S1 C11 1_555 1_555
S2 C28 1_555 1_555
O1 H1 1_555 1_555
O2 H2 1_555 1_555
N1 C11 1_555 1_555
N2 C28 1_555 1_555
C1 C2 1_555 1_555
C2 O1 1_555 1_555
C3 C2 1_555 1_555
C4 C3 1_555 1_555
H3 C4 1_555 1_555
C5 C4 1_555 1_555
C6 C5 1_555 1_555
H4 C6 1_555 1_555
C7 C6 1_555 1_555
H5 C7 1_555 1_555
C8 C7 1_555 1_555
H6 C8 1_555 1_555
C9 C8 1_555 1_555
H7 C9 1_555 1_555
C10 C1 1_555 1_555
C11 C3 1_555 1_555
C12 S1 1_555 1_555
C13 C12 1_555 1_555
H8 C13 1_555 1_555
C14 C13 1_555 1_555
H9 C14 1_555 1_555
C15 C14 1_555 1_555
H10 C15 1_555 1_555
C16 C15 1_555 1_555
H11 C16 1_555 1_555
C17 N1 1_555 1_555
C18 C1 1_555 1_555
C19 C18 1_555 1_555
C20 C19 1_555 1_555
H12 C20 1_555 1_555
C21 C20 1_555 1_555
H13 C21 1_555 1_555
C22 C21 1_555 1_555
H14 C22 1_555 1_555
C23 C22 1_555 1_555
H15 C23 1_555 1_555
C24 C19 1_555 1_555
C25 C24 1_555 1_555
H16 C25 1_555 1_555
C26 C25 1_555 1_555
C27 O2 1_555 1_555
C28 C26 1_555 1_555
C29 S2 1_555 1_555
C30 C29 1_555 1_555
H17 C30 1_555 1_555
C31 C30 1_555 1_555
H18 C31 1_555 1_555
C32 C31 1_555 1_555
H19 C32 1_555 1_555
C33 C32 1_555 1_555
H20 C33 1_555 1_555
C34 N2 1_555 1_555
C5 C10 1_555 1_555
C9 C10 1_555 1_555
C12 C17 1_555 1_555
C16 C17 1_555 1_555
C18 C27 1_555 1_555
C23 C24 1_555 1_555
C26 C27 1_555 1_555
C29 C34 1_555 1_555
C33 C34 1_555 1_555

#END
