
#######################################################################
#
#                 Cambridge Crystallographic Data Centre
#                                CCDC 
#
#######################################################################
#
# If this CIF has been generated from an entry in the Cambridge 
# Structural Database, then it will include bibliographic, chemical, 
# crystal, experimental, refinement or atomic coordinate data resulting 
# from the CCDC's data processing and validation procedures.
#
#######################################################################

data_VUDZAX
_chemical_formula_moiety         'C20 H18 O4'
_chemical_name_systematic        
6,9,10-trimethoxy-2-methylphenanthro[9,10-b]furan
_symmetry_cell_setting           monoclinic
_symmetry_space_group_name_H-M   'P 21/c'
_symmetry_Int_Tables_number      14
_space_group_name_Hall           '-P 2ybc'
loop_
_symmetry_equiv_pos_site_id
_symmetry_equiv_pos_as_xyz
1 x,y,z
2 -x,1/2+y,1/2-z
3 -x,-y,-z
4 x,1/2-y,1/2+z
_cell_length_a                   7.7621(4)
_cell_length_b                   8.1857(5)
_cell_length_c                   24.7632(13)
_cell_angle_alpha                90
_cell_angle_beta                 96.549(2)
_cell_angle_gamma                90
_cell_volume                     1563.14
_exptl_crystal_colour            'pale yellow'
_cell_formula_units_Z            4
loop_
_atom_site_label
_atom_site_type_symbol
_atom_site_fract_x
_atom_site_fract_y
_atom_site_fract_z
O1 O 0.12560(13) 0.14297(13) -0.02774(4)
O2 O 0.47414(14) 0.54727(14) 0.29809(4)
O3 O -0.28950(13) 0.51815(12) 0.07101(4)
O4 O 0.40430(12) 0.11752(13) 0.03770(4)
C1 C -0.02979(19) 0.14693(19) -0.06489(6)
H1 H -0.1261 0.1025 -0.0471
H2 H -0.0138 0.0810 -0.0970
H3 H -0.0558 0.2600 -0.0760
C2 C 0.12320(19) 0.22402(17) 0.02028(6)
C3 C -0.01373(19) 0.31232(17) 0.03505(6)
H4 H -0.1170 0.3221 0.0107
C4 C -0.00150(18) 0.38891(17) 0.08652(6)
C5 C 0.15040(18) 0.37613(17) 0.12350(6)
C6 C 0.16339(18) 0.46103(18) 0.17592(6)
C7 C 0.31651(19) 0.45475(18) 0.21294(6)
H5 H 0.4121 0.3910 0.2044
C8 C 0.32823(19) 0.54019(19) 0.26120(6)
C9 C 0.6233(2) 0.4572(2) 0.28660(7)
H6 H 0.5961 0.3403 0.2854
H7 H 0.7191 0.4778 0.3151
H8 H 0.6571 0.4918 0.2514
C10 C -0.13719(18) 0.48659(18) 0.10343(6)
C11 C -0.38157(19) 0.62425(18) 0.10098(6)
C12 C -0.29148(19) 0.65689(19) 0.14948(6)
H9 H -0.3271 0.7260 0.1770
C13 C -0.13100(19) 0.56747(18) 0.15187(6)
C14 C 0.02170(19) 0.55669(18) 0.19002(6)
C15 C 0.28961(18) 0.28236(17) 0.10702(6)
H10 H 0.3929 0.2701 0.1312
C16 C 0.27764(18) 0.20927(17) 0.05686(6)
C17 C 0.56817(19) 0.10721(19) 0.07075(6)
H11 H 0.6138 0.2175 0.0784
H12 H 0.6499 0.0450 0.0514
H13 H 0.5528 0.0522 0.1050
C18 C 0.1870(2) 0.6324(2) 0.27540(6)
H14 H 0.1951 0.6884 0.3092
C19 C 0.0385(2) 0.64067(19) 0.24035(6)
H15 H -0.0559 0.7042 0.2499
C20 C -0.5503(2) 0.6794(2) 0.07348(7)
H16 H -0.6125 0.7407 0.0992
H17 H -0.6193 0.5843 0.0602
H18 H -0.5312 0.7499 0.0427
loop_
_geom_bond_atom_site_label_1
_geom_bond_atom_site_label_2
_geom_bond_site_symmetry_1
_geom_bond_site_symmetry_2
O1 C1 1_555 1_555
O2 C8 1_555 1_555
O3 C10 1_555 1_555
O4 C16 1_555 1_555
C1 H1 1_555 1_555
H2 C1 1_555 1_555
H3 C1 1_555 1_555
C2 O1 1_555 1_555
C3 C2 1_555 1_555
H4 C3 1_555 1_555
C4 C3 1_555 1_555
C5 C4 1_555 1_555
C6 C5 1_555 1_555
C7 C6 1_555 1_555
H5 C7 1_555 1_555
C8 C7 1_555 1_555
C9 O2 1_555 1_555
H6 C9 1_555 1_555
H7 C9 1_555 1_555
H8 C9 1_555 1_555
C10 C4 1_555 1_555
C11 O3 1_555 1_555
C12 C11 1_555 1_555
H9 C12 1_555 1_555
C13 C10 1_555 1_555
C14 C6 1_555 1_555
C15 C5 1_555 1_555
H10 C15 1_555 1_555
C16 C2 1_555 1_555
C17 O4 1_555 1_555
H11 C17 1_555 1_555
H12 C17 1_555 1_555
H13 C17 1_555 1_555
C18 C8 1_555 1_555
H14 C18 1_555 1_555
C19 C14 1_555 1_555
H15 C19 1_555 1_555
C20 C11 1_555 1_555
H16 C20 1_555 1_555
H17 C20 1_555 1_555
H18 C20 1_555 1_555
C12 C13 1_555 1_555
C13 C14 1_555 1_555
C15 C16 1_555 1_555
C18 C19 1_555 1_555

#END
