
#######################################################################
#
#                 Cambridge Crystallographic Data Centre
#                                CCDC 
#
#######################################################################
#
# If this CIF has been generated from an entry in the Cambridge 
# Structural Database, then it will include bibliographic, chemical, 
# crystal, experimental, refinement or atomic coordinate data resulting 
# from the CCDC's data processing and validation procedures.
#
#######################################################################

data_VUFGOU
_chemical_formula_moiety         'C28 H36 B2 N4 O2 S4 Sr1'
_chemical_name_systematic        
bis(Dihydridobis(2-thiopyridone)borate-S,S')-bis(tetrahydrofuran)-strontium
_symmetry_cell_setting           monoclinic
_symmetry_space_group_name_H-M   'P 21/c'
_symmetry_Int_Tables_number      14
_space_group_name_Hall           '-P 2ybc'
loop_
_symmetry_equiv_pos_site_id
_symmetry_equiv_pos_as_xyz
1 x,y,z
2 -x,1/2+y,1/2-z
3 -x,-y,-z
4 x,1/2-y,1/2+z
_cell_length_a                   11.0091(12)
_cell_length_b                   11.7200(9)
_cell_length_c                   14.443(4)
_cell_angle_alpha                90
_cell_angle_beta                 119.400(16)
_cell_angle_gamma                90
_cell_volume                     1623.53
_exptl_crystal_colour            yellow
_exptl_crystal_description       block
_cell_formula_units_Z            2
loop_
_atom_site_label
_atom_site_type_symbol
_atom_site_fract_x
_atom_site_fract_y
_atom_site_fract_z
Sr1 Sr 0.5000 0.0000 0.0000
S1 S 0.21217(7) -0.10118(6) -0.08868(6)
S2 S 0.48996(7) 0.07570(6) -0.20140(5)
O1 O 0.54998(18) -0.19865(16) -0.04555(15)
N1 N 0.0627(2) 0.07310(18) -0.21726(16)
N2 N 0.2195(2) 0.00795(17) -0.29398(15)
B1 B 0.1912(3) 0.1063(2) -0.2315(2)
H1 H 0.2730 0.1171 -0.1624
H2 H 0.1722 0.1773 -0.2706
C1 C 0.0689(2) -0.0144(2) -0.15203(19)
C2 C -0.0486(3) -0.0331(3) -0.1386(2)
H3 H -0.0476 -0.0933 -0.0964
C3 C -0.1634(3) 0.0358(3) -0.1865(3)
H4 H -0.2392 0.0232 -0.1761
C4 C -0.1657(3) 0.1246(3) -0.2509(3)
H5 H -0.2428 0.1725 -0.2838
C5 C -0.0538(3) 0.1405(2) -0.2651(2)
H6 H -0.0563 0.1995 -0.3091
C6 C 0.1110(3) -0.0572(2) -0.3641(2)
H7 H 0.0223 -0.0408 -0.3749
C7 C 0.1260(3) -0.1452(3) -0.4191(2)
H8 H 0.0490 -0.1867 -0.4678
C8 C 0.2591(3) -0.1715(3) -0.4006(2)
H9 H 0.2732 -0.2334 -0.4345
C9 C 0.3686(3) -0.1057(3) -0.3323(2)
H10 H 0.4576 -0.1232 -0.3203
C10 C 0.3505(3) -0.0113(2) -0.27922(19)
C11 C 0.5286(4) -0.3010(3) 0.0002(4)
H11 H 0.5337 -0.2830 0.0676
H12 H 0.4368 -0.3318 -0.0469
C12 C 0.6300(5) -0.3818(4) 0.0160(4)
H13 H 0.5907 -0.4410 -0.0377
H14 H 0.6664 -0.4169 0.0854
C13 C 0.7444(3) -0.3196(3) 0.0080(3)
H15 H 0.7838 -0.3666 -0.0259
H16 H 0.8181 -0.2964 0.0776
C14 C 0.6690(3) -0.2171(3) -0.0599(3)
H17 H 0.7293 -0.1506 -0.0372
H18 H 0.6395 -0.2320 -0.1340
S1B S 0.78783(7) 0.10118(6) 0.08868(6)
S2B S 0.51004(7) -0.07570(6) 0.20140(5)
O1B O 0.45002(18) 0.19865(16) 0.04555(15)
N1B N 0.9373(2) -0.07310(18) 0.21726(16)
N2B N 0.7805(2) -0.00795(17) 0.29398(15)
B1B B 0.8088(3) -0.1063(2) 0.2315(2)
H1B H 0.7270 -0.1171 0.1624
H2B H 0.8278 -0.1773 0.2706
C1B C 0.9311(2) 0.0144(2) 0.15203(19)
C2B C 1.0486(3) 0.0331(3) 0.1386(2)
H3B H 1.0476 0.0933 0.0964
C3B C 1.1634(3) -0.0358(3) 0.1865(3)
H4B H 1.2392 -0.0232 0.1761
C4B C 1.1657(3) -0.1246(3) 0.2509(3)
H5B H 1.2428 -0.1725 0.2838
C5B C 1.0538(3) -0.1405(2) 0.2651(2)
H6B H 1.0563 -0.1995 0.3091
C6B C 0.8890(3) 0.0572(2) 0.3641(2)
H7B H 0.9777 0.0408 0.3749
C7B C 0.8740(3) 0.1452(3) 0.4191(2)
H8B H 0.9510 0.1867 0.4678
C8B C 0.7409(3) 0.1715(3) 0.4006(2)
H9B H 0.7268 0.2334 0.4345
C9B C 0.6314(3) 0.1057(3) 0.3323(2)
H10B H 0.5424 0.1232 0.3203
C10B C 0.6495(3) 0.0113(2) 0.27922(19)
C11B C 0.4714(4) 0.3010(3) -0.0002(4)
H11B H 0.4663 0.2830 -0.0676
H12B H 0.5632 0.3318 0.0469
C12B C 0.3700(5) 0.3818(4) -0.0160(4)
H13B H 0.4093 0.4410 0.0377
H14B H 0.3336 0.4169 -0.0854
C13B C 0.2556(3) 0.3196(3) -0.0080(3)
H15B H 0.2162 0.3666 0.0259
H16B H 0.1819 0.2964 -0.0776
C14B C 0.3310(3) 0.2171(3) 0.0599(3)
H17B H 0.2707 0.1506 0.0372
H18B H 0.3605 0.2320 0.1340
loop_
_geom_bond_atom_site_label_1
_geom_bond_atom_site_label_2
_geom_bond_site_symmetry_1
_geom_bond_site_symmetry_2
Sr1 S1 1_555 1_555
S1 C1 1_555 1_555
S2 Sr1 1_555 1_555
O1 Sr1 1_555 1_555
N1 B1 1_555 1_555
N2 B1 1_555 1_555
B1 H1 1_555 1_555
H2 B1 1_555 1_555
C1 N1 1_555 1_555
C2 C1 1_555 1_555
H3 C2 1_555 1_555
C3 C2 1_555 1_555
H4 C3 1_555 1_555
C4 C3 1_555 1_555
H5 C4 1_555 1_555
C5 N1 1_555 1_555
H6 C5 1_555 1_555
C6 N2 1_555 1_555
H7 C6 1_555 1_555
C7 C6 1_555 1_555
H8 C7 1_555 1_555
C8 C7 1_555 1_555
H9 C8 1_555 1_555
C9 C8 1_555 1_555
H10 C9 1_555 1_555
C10 S2 1_555 1_555
C11 O1 1_555 1_555
H11 C11 1_555 1_555
H12 C11 1_555 1_555
C12 C11 1_555 1_555
H13 C12 1_555 1_555
H14 C12 1_555 1_555
C13 C12 1_555 1_555
H15 C13 1_555 1_555
H16 C13 1_555 1_555
C14 O1 1_555 1_555
H17 C14 1_555 1_555
H18 C14 1_555 1_555
S1B Sr1 1_555 1_555
S2B Sr1 1_555 1_555
O1B Sr1 1_555 1_555
N1B B1B 1_555 1_555
N2B B1B 1_555 1_555
B1B H1B 1_555 1_555
H2B B1B 1_555 1_555
C1B S1B 1_555 1_555
C2B C1B 1_555 1_555
H3B C2B 1_555 1_555
C3B C2B 1_555 1_555
H4B C3B 1_555 1_555
C4B C3B 1_555 1_555
H5B C4B 1_555 1_555
C5B N1B 1_555 1_555
H6B C5B 1_555 1_555
C6B N2B 1_555 1_555
H7B C6B 1_555 1_555
C7B C6B 1_555 1_555
H8B C7B 1_555 1_555
C8B C7B 1_555 1_555
H9B C8B 1_555 1_555
C9B C8B 1_555 1_555
H10B C9B 1_555 1_555
C10B S2B 1_555 1_555
C11B O1B 1_555 1_555
H11B C11B 1_555 1_555
H12B C11B 1_555 1_555
C12B C11B 1_555 1_555
H13B C12B 1_555 1_555
H14B C12B 1_555 1_555
C13B C12B 1_555 1_555
H15B C13B 1_555 1_555
H16B C13B 1_555 1_555
C14B O1B 1_555 1_555
H17B C14B 1_555 1_555
H18B C14B 1_555 1_555
N2 C10 1_555 1_555
C4 C5 1_555 1_555
C9 C10 1_555 1_555
C13 C14 1_555 1_555
N1B C1B 1_555 1_555
N2B C10B 1_555 1_555
C4B C5B 1_555 1_555
C9B C10B 1_555 1_555
C13B C14B 1_555 1_555

#END
