
#######################################################################
#
#                 Cambridge Crystallographic Data Centre
#                                CCDC 
#
#######################################################################
#
# If this CIF has been generated from an entry in the Cambridge 
# Structural Database, then it will include bibliographic, chemical, 
# crystal, experimental, refinement or atomic coordinate data resulting 
# from the CCDC's data processing and validation procedures.
#
#######################################################################

data_VUFJIR
_chemical_formula_moiety         'C20 H20 N4 O4'
_chemical_name_systematic        
1-(2,4-dinitrophenyl)-2-(2-phenyl-2-(prop-1-en-1-yl)cyclopentylidene)hydrazine
_symmetry_cell_setting           triclinic
_symmetry_space_group_name_H-M   'P 1'
_symmetry_Int_Tables_number      1
_space_group_name_Hall           'P 1'
loop_
_symmetry_equiv_pos_site_id
_symmetry_equiv_pos_as_xyz
1 x,y,z
_cell_length_a                   7.9557(2)
_cell_length_b                   14.9518(3)
_cell_length_c                   16.2534(4)
_cell_angle_alpha                79.1280(10)
_cell_angle_beta                 79.6620(10)
_cell_angle_gamma                82.8190(10)
_cell_volume                     1859.52
_exptl_crystal_colour            orange
_exptl_crystal_description       block
_cell_formula_units_Z            4
loop_
_atom_site_label
_atom_site_type_symbol
_atom_site_fract_x
_atom_site_fract_y
_atom_site_fract_z
O1 O 0.7312(2) 0.64113(11) 0.60382(11)
O2 O 0.6040(2) 0.66791(12) 0.49351(12)
O3 O 0.5782(3) 0.44333(14) 0.32903(12)
O4 O 0.7436(3) 0.31672(17) 0.34495(14)
N1 N 0.9243(2) 0.40667(13) 0.71711(11)
N2 N 0.8541(2) 0.47542(13) 0.65986(12)
H1 H 0.8367 0.5320 0.6698
N3 N 0.6854(2) 0.61570(13) 0.54322(13)
N4 N 0.6802(3) 0.38918(16) 0.36681(13)
C1 C 0.9518(3) 0.43235(15) 0.78398(14)
C2 C 1.0223(3) 0.36431(16) 0.85518(13)
C3 C 0.9558(3) 0.41512(19) 0.93040(15)
H2 H 0.8350 0.4042 0.9538
H3 H 1.0263 0.3946 0.9761
C4 C 0.9711(4) 0.5162(2) 0.89375(17)
H4 H 1.0907 0.5314 0.8878
H5 H 0.8951 0.5557 0.9301
C5 C 0.9144(3) 0.52721(17) 0.80702(16)
H6 H 0.7906 0.5479 0.8105
H7 H 0.9806 0.5718 0.7647
C6 C 0.9634(3) 0.26999(16) 0.86577(14)
H8 H 0.9778 0.2431 0.8162
C7 C 0.8933(3) 0.22112(19) 0.93791(16)
H9 H 0.8768 0.2473 0.9880
C8 C 0.8388(4) 0.1273(2) 0.9451(2)
H10 H 0.8578 0.1101 0.8886
H11 H 0.7167 0.1270 0.9691
H12 H 0.9063 0.0835 0.9821
C9 C 1.2198(3) 0.35257(15) 0.83287(14)
C10 C 1.2943(3) 0.32986(15) 0.75423(14)
H13 H 1.2233 0.3288 0.7133
C11 C 1.4683(3) 0.30893(16) 0.73461(14)
H14 H 1.5162 0.2941 0.6804
C12 C 1.5739(3) 0.30938(18) 0.79325(17)
H15 H 1.6939 0.2936 0.7802
C13 C 1.5032(3) 0.3329(2) 0.87099(17)
H16 H 1.5756 0.3346 0.9112
C14 C 1.3277(3) 0.35419(19) 0.89117(16)
H17 H 1.2806 0.3700 0.9451
C15 C 0.8125(3) 0.45574(15) 0.58902(13)
C16 C 0.7302(3) 0.52201(15) 0.53042(14)
C17 C 0.6869(3) 0.50019(16) 0.45791(14)
H18 H 0.6306 0.5452 0.4199
C18 C 0.7273(3) 0.41223(16) 0.44231(14)
C19 C 0.8110(3) 0.34497(16) 0.49708(15)
H19 H 0.8397 0.2850 0.4842
C20 C 0.8514(3) 0.36570(16) 0.56927(14)
H20 H 0.9063 0.3194 0.6068
O5 O 0.8479(2) 0.82847(11) 0.46808(10)
O6 O 0.7812(2) 0.84184(13) 0.34311(10)
O7 O 0.2088(2) 0.92887(13) 0.28825(10)
O8 O 0.0279(2) 0.99429(12) 0.37984(11)
N5 N 0.5543(2) 0.86753(12) 0.67954(11)
N6 N 0.6160(2) 0.85908(12) 0.59600(11)
H21 H 0.7246 0.8404 0.5806
N7 N 0.7411(2) 0.84740(12) 0.41872(11)
N8 N 0.1651(3) 0.95061(13) 0.35843(11)
C21 C 0.6641(3) 0.84214(14) 0.72985(13)
C22 C 0.6159(3) 0.84881(16) 0.82393(13)
C23 C 0.7925(3) 0.86496(18) 0.84269(15)
H22 H 0.8175 0.9293 0.8218
H23 H 0.7968 0.8501 0.9043
C24 C 0.9195(3) 0.79952(19) 0.79412(16)
H24 H 1.0370 0.8190 0.7834
H25 H 0.9210 0.7362 0.8261
C25 C 0.8503(3) 0.80627(16) 0.71058(14)
H26 H 0.9133 0.8488 0.6646
H27 H 0.8611 0.7455 0.6933
C26 C 0.4732(3) 0.92408(16) 0.83856(14)
H28 H 0.3675 0.9183 0.8214
C27 C 0.4799(3) 0.99677(16) 0.87257(14)
H29 H 0.5832 1.0022 0.8922
C28 C 0.3379(4) 1.07121(18) 0.88263(17)
H30 H 0.3786 1.1299 0.8534
H31 H 0.3008 1.0736 0.9431
H32 H 0.2411 1.0589 0.8580
C29 C 0.5580(3) 0.75616(16) 0.87275(14)
C30 C 0.4977(3) 0.69453(17) 0.83319(15)
H33 H 0.4924 0.7096 0.7742
C31 C 0.4450(3) 0.61109(19) 0.87831(16)
H34 H 0.4066 0.5695 0.8498
C32 C 0.4485(3) 0.58898(18) 0.96410(17)
H35 H 0.4118 0.5324 0.9951
C33 C 0.5059(4) 0.6498(2) 1.00471(16)
H36 H 0.5079 0.6350 1.0640
C34 C 0.5609(3) 0.73261(17) 0.95955(15)
H37 H 0.6007 0.7735 0.9883
C35 C 0.5088(3) 0.87965(14) 0.53832(13)
C36 C 0.5649(3) 0.87561(14) 0.45064(13)
C37 C 0.4527(3) 0.89815(14) 0.39181(13)
H38 H 0.4920 0.8952 0.3336
C38 C 0.2837(3) 0.92476(14) 0.41978(14)
C39 C 0.2223(3) 0.92925(14) 0.50512(13)
H39 H 0.1048 0.9478 0.5228
C40 C 0.3324(3) 0.90685(15) 0.56308(13)
H40 H 0.2899 0.9095 0.6211
O9 O 0.2518(2) 0.36337(11) 0.42389(11)
O10 O 0.3653(3) 0.33798(12) 0.53807(13)
O11 O 0.3941(3) 0.56756(14) 0.69445(13)
O12 O 0.2359(3) 0.69642(15) 0.67528(13)
N9 N 0.0146(2) 0.58814(13) 0.31938(11)
N10 N 0.1143(2) 0.52583(13) 0.36930(11)
H41 H 0.1540 0.4727 0.3543
N11 N 0.2889(2) 0.38928(13) 0.48592(12)
N12 N 0.2935(3) 0.62137(15) 0.65654(13)
C41 C 0.0094(3) 0.56688(15) 0.24778(13)
C42 C -0.1046(3) 0.62581(16) 0.18717(14)
C43 C -0.1361(4) 0.55338(18) 0.13800(16)
H42 H -0.2273 0.5156 0.1708
H43 H -0.1700 0.5823 0.0827
C44 C 0.0342(4) 0.49605(18) 0.12564(16)
H44 H 0.1165 0.5279 0.0798
H45 H 0.0196 0.4361 0.1117
C45 C 0.0955(4) 0.48416(17) 0.21220(16)
H46 H 0.0591 0.4272 0.2494
H47 H 0.2220 0.4829 0.2050
C46 C -0.2636(3) 0.67115(17) 0.23730(15)
H48 H -0.2439 0.7115 0.2726
C47 C -0.4228(3) 0.6601(2) 0.23649(16)
H49 H -0.4458 0.6205 0.2013
C48 C -0.5710(3) 0.7059(2) 0.28776(18)
H50 H -0.6254 0.7567 0.2509
H51 H -0.5307 0.7295 0.3323
H52 H -0.6547 0.6618 0.3138
C49 C -0.0028(3) 0.70241(15) 0.13141(13)
C50 C 0.0658(3) 0.76131(15) 0.17125(13)
H53 H 0.0541 0.7509 0.2314
C51 C 0.1507(3) 0.83479(16) 0.12434(14)
H54 H 0.1956 0.8745 0.1525
C52 C 0.1701(3) 0.85023(16) 0.03648(15)
H55 H 0.2286 0.9002 0.0042
C53 C 0.1034(3) 0.79222(17) -0.00370(14)
H56 H 0.1162 0.8025 -0.0639
C54 C 0.0182(3) 0.71927(16) 0.04325(14)
H57 H -0.0268 0.6800 0.0147
C55 C 0.1504(3) 0.54660(15) 0.44078(13)
C56 C 0.2401(3) 0.48310(14) 0.49794(13)
C57 C 0.2863(3) 0.50780(16) 0.56856(13)
H58 H 0.3485 0.4648 0.6056
C58 C 0.2403(3) 0.59542(16) 0.58382(14)
C59 C 0.1461(3) 0.65946(15) 0.53132(14)
H59 H 0.1124 0.7191 0.5443
C60 C 0.1025(3) 0.63575(15) 0.46109(13)
H60 H 0.0391 0.6796 0.4253
O13 O 0.1032(2) 0.17880(12) 0.54377(11)
O14 O 0.1657(2) 0.16694(14) 0.66931(11)
O15 O 0.7426(2) 0.10138(14) 0.72452(11)
O16 O 0.9174(2) 0.02022(12) 0.64242(11)
N13 N 0.4032(2) 0.13528(12) 0.33469(12)
N14 N 0.3389(3) 0.14523(12) 0.41758(12)
H61 H 0.2300 0.1638 0.4319
N15 N 0.2080(3) 0.16094(13) 0.59461(12)
N16 N 0.7828(3) 0.06910(14) 0.65885(12)
C61 C 0.2989(3) 0.16318(14) 0.28196(14)
C62 C 0.3485(3) 0.15777(15) 0.18790(14)
C63 C 0.1698(3) 0.15798(16) 0.16328(16)
H62 H 0.1728 0.1784 0.1015
H63 H 0.1288 0.0963 0.1794
C64 C 0.0546(3) 0.22583(17) 0.21352(17)
H64 H -0.0678 0.2154 0.2195
H65 H 0.0702 0.2897 0.1856
C65 C 0.1158(3) 0.20537(16) 0.30003(16)
H66 H 0.1114 0.2623 0.3235
H67 H 0.0439 0.1622 0.3409
C66 C 0.4277(3) 0.24527(15) 0.14124(14)
H68 H 0.4296 0.2589 0.0816
C67 C 0.4935(3) 0.30369(15) 0.17494(14)
H69 H 0.4855 0.2940 0.2349
C68 C 0.5799(3) 0.38431(17) 0.12432(16)
H70 H 0.5701 0.3891 0.0644
H71 H 0.7014 0.3765 0.1305
H72 H 0.5250 0.4401 0.1449
C69 C 0.4764(3) 0.07660(14) 0.16671(13)
C70 C 0.6385(3) 0.06474(16) 0.19099(14)
H73 H 0.6692 0.1073 0.2211
C71 C 0.7553(3) -0.00815(17) 0.17178(15)
H74 H 0.8643 -0.0158 0.1896
C72 C 0.7137(3) -0.06992(16) 0.12661(16)
H75 H 0.7932 -0.1202 0.1138
C73 C 0.5557(3) -0.05758(16) 0.10056(16)
H76 H 0.5273 -0.0991 0.0687
C74 C 0.4372(3) 0.01497(15) 0.12033(14)
H77 H 0.3287 0.0224 0.1020
C75 C 0.4441(3) 0.12635(14) 0.47652(14)
C76 C 0.3862(3) 0.13308(14) 0.56334(14)
C77 C 0.4966(3) 0.11530(15) 0.62276(14)
H78 H 0.4554 0.1211 0.6803
C78 C 0.6669(3) 0.08909(15) 0.59686(14)
C79 C 0.7295(3) 0.07957(15) 0.51262(15)
H79 H 0.8469 0.0598 0.4963
C80 C 0.6212(3) 0.09873(15) 0.45393(14)
H80 H 0.6654 0.0934 0.3966
loop_
_geom_bond_atom_site_label_1
_geom_bond_atom_site_label_2
_geom_bond_site_symmetry_1
_geom_bond_site_symmetry_2
O1 N3 1_555 1_555
O2 N3 1_555 1_555
O3 N4 1_555 1_555
O4 N4 1_555 1_555
N1 N2 1_555 1_555
N2 H1 1_555 1_555
N3 C16 1_555 1_555
N4 C18 1_555 1_555
C1 N1 1_555 1_555
C2 C1 1_555 1_555
C3 C2 1_555 1_555
H2 C3 1_555 1_555
H3 C3 1_555 1_555
C4 C3 1_555 1_555
H4 C4 1_555 1_555
H5 C4 1_555 1_555
C5 C1 1_555 1_555
H6 C5 1_555 1_555
H7 C5 1_555 1_555
C6 C2 1_555 1_555
H8 C6 1_555 1_555
C7 C6 1_555 1_555
H9 C7 1_555 1_555
C8 C7 1_555 1_555
H10 C8 1_555 1_555
H11 C8 1_555 1_555
H12 C8 1_555 1_555
C9 C2 1_555 1_555
C10 C9 1_555 1_555
H13 C10 1_555 1_555
C11 C10 1_555 1_555
H14 C11 1_555 1_555
C12 C11 1_555 1_555
H15 C12 1_555 1_555
C13 C12 1_555 1_555
H16 C13 1_555 1_555
C14 C9 1_555 1_555
H17 C14 1_555 1_555
C15 N2 1_555 1_555
C16 C15 1_555 1_555
C17 C16 1_555 1_555
H18 C17 1_555 1_555
C18 C17 1_555 1_555
C19 C18 1_555 1_555
H19 C19 1_555 1_555
C20 C15 1_555 1_555
H20 C20 1_555 1_555
O5 N7 1_555 1_555
O6 N7 1_555 1_555
O7 N8 1_555 1_555
O8 N8 1_555 1_555
N5 N6 1_555 1_555
N6 H21 1_555 1_555
N7 C36 1_555 1_555
N8 C38 1_555 1_555
C21 N5 1_555 1_555
C22 C21 1_555 1_555
C23 C22 1_555 1_555
H22 C23 1_555 1_555
H23 C23 1_555 1_555
C24 C23 1_555 1_555
H24 C24 1_555 1_555
H25 C24 1_555 1_555
C25 C21 1_555 1_555
H26 C25 1_555 1_555
H27 C25 1_555 1_555
C26 C22 1_555 1_555
H28 C26 1_555 1_555
C27 C26 1_555 1_555
H29 C27 1_555 1_555
C28 C27 1_555 1_555
H30 C28 1_555 1_555
H31 C28 1_555 1_555
H32 C28 1_555 1_555
C29 C22 1_555 1_555
C30 C29 1_555 1_555
H33 C30 1_555 1_555
C31 C30 1_555 1_555
H34 C31 1_555 1_555
C32 C31 1_555 1_555
H35 C32 1_555 1_555
C33 C32 1_555 1_555
H36 C33 1_555 1_555
C34 C29 1_555 1_555
H37 C34 1_555 1_555
C35 N6 1_555 1_555
C36 C35 1_555 1_555
C37 C36 1_555 1_555
H38 C37 1_555 1_555
C38 C37 1_555 1_555
C39 C38 1_555 1_555
H39 C39 1_555 1_555
C40 C35 1_555 1_555
H40 C40 1_555 1_555
O9 N11 1_555 1_555
O10 N11 1_555 1_555
O11 N12 1_555 1_555
O12 N12 1_555 1_555
N9 N10 1_555 1_555
N10 H41 1_555 1_555
N11 C56 1_555 1_555
N12 C58 1_555 1_555
C41 N9 1_555 1_555
C42 C41 1_555 1_555
C43 C42 1_555 1_555
H42 C43 1_555 1_555
H43 C43 1_555 1_555
C44 C43 1_555 1_555
H44 C44 1_555 1_555
H45 C44 1_555 1_555
C45 C41 1_555 1_555
H46 C45 1_555 1_555
H47 C45 1_555 1_555
C46 C42 1_555 1_555
H48 C46 1_555 1_555
C47 C46 1_555 1_555
H49 C47 1_555 1_555
C48 C47 1_555 1_555
H50 C48 1_555 1_555
H51 C48 1_555 1_555
H52 C48 1_555 1_555
C49 C42 1_555 1_555
C50 C49 1_555 1_555
H53 C50 1_555 1_555
C51 C50 1_555 1_555
H54 C51 1_555 1_555
C52 C51 1_555 1_555
H55 C52 1_555 1_555
C53 C52 1_555 1_555
H56 C53 1_555 1_555
C54 C49 1_555 1_555
H57 C54 1_555 1_555
C55 N10 1_555 1_555
C56 C55 1_555 1_555
C57 C56 1_555 1_555
H58 C57 1_555 1_555
C58 C57 1_555 1_555
C59 C58 1_555 1_555
H59 C59 1_555 1_555
C60 C55 1_555 1_555
H60 C60 1_555 1_555
O13 N15 1_555 1_555
O14 N15 1_555 1_555
O15 N16 1_555 1_555
O16 N16 1_555 1_555
N13 N14 1_555 1_555
N14 H61 1_555 1_555
N15 C76 1_555 1_555
N16 C78 1_555 1_555
C61 N13 1_555 1_555
C62 C61 1_555 1_555
C63 C62 1_555 1_555
H62 C63 1_555 1_555
H63 C63 1_555 1_555
C64 C63 1_555 1_555
H64 C64 1_555 1_555
H65 C64 1_555 1_555
C65 C61 1_555 1_555
H66 C65 1_555 1_555
H67 C65 1_555 1_555
C66 C62 1_555 1_555
H68 C66 1_555 1_555
C67 C66 1_555 1_555
H69 C67 1_555 1_555
C68 C67 1_555 1_555
H70 C68 1_555 1_555
H71 C68 1_555 1_555
H72 C68 1_555 1_555
C69 C62 1_555 1_555
C70 C69 1_555 1_555
H73 C70 1_555 1_555
C71 C70 1_555 1_555
H74 C71 1_555 1_555
C72 C71 1_555 1_555
H75 C72 1_555 1_555
C73 C72 1_555 1_555
H76 C73 1_555 1_555
C74 C69 1_555 1_555
H77 C74 1_555 1_555
C75 N14 1_555 1_555
C76 C75 1_555 1_555
C77 C76 1_555 1_555
H78 C77 1_555 1_555
C78 C77 1_555 1_555
C79 C78 1_555 1_555
H79 C79 1_555 1_555
C80 C75 1_555 1_555
H80 C80 1_555 1_555
C4 C5 1_555 1_555
C13 C14 1_555 1_555
C19 C20 1_555 1_555
C24 C25 1_555 1_555
C33 C34 1_555 1_555
C39 C40 1_555 1_555
C44 C45 1_555 1_555
C53 C54 1_555 1_555
C59 C60 1_555 1_555
C64 C65 1_555 1_555
C73 C74 1_555 1_555
C79 C80 1_555 1_555

#END
