
#######################################################################
#
#                 Cambridge Crystallographic Data Centre
#                                CCDC 
#
#######################################################################
#
# If this CIF has been generated from an entry in the Cambridge 
# Structural Database, then it will include bibliographic, chemical, 
# crystal, experimental, refinement or atomic coordinate data resulting 
# from the CCDC's data processing and validation procedures.
#
#######################################################################

data_VUFVOJ
_chemical_formula_moiety         'C26 H16 Br3 N2'
_chemical_name_systematic        
2-Bromo-N,N'-bis(4-bromophenyl)anthracene-9,10-diamine
_symmetry_cell_setting           monoclinic
_symmetry_space_group_name_H-M   'P 21/n'
_symmetry_Int_Tables_number      14
_space_group_name_Hall           '-P 2yn'
loop_
_symmetry_equiv_pos_site_id
_symmetry_equiv_pos_as_xyz
1 x,y,z
2 1/2-x,1/2+y,1/2-z
3 -x,-y,-z
4 1/2+x,1/2-y,1/2+z
_cell_length_a                   9.590(2)
_cell_length_b                   4.976(4)
_cell_length_c                   23.747(11)
_cell_angle_alpha                90
_cell_angle_beta                 90.63(3)
_cell_angle_gamma                90
_cell_volume                     1133.13
_exptl_crystal_colour            yellow
_exptl_crystal_description       Plate
_cell_formula_units_Z            2
loop_
_atom_site_label
_atom_site_type_symbol
_atom_site_fract_x
_atom_site_fract_y
_atom_site_fract_z
C1 C 0.5606(11) 0.613(3) 0.1921(5)
C2 C 0.5844(12) 0.469(2) 0.1455(6)
H1 H 0.5206 0.3389 0.1339
C3 C 0.7049(11) 0.514(3) 0.1142(5)
H2 H 0.7224 0.4079 0.0828
C4 C 0.7974(11) 0.711(3) 0.1294(5)
C5 C 0.7713(13) 0.859(2) 0.1769(5)
H3 H 0.8338 0.9905 0.1889
C6 C 0.6478(12) 0.809(3) 0.2071(5)
H4 H 0.6271 0.9148 0.2382
C7 C 0.7295(15) 0.959(4) -0.0549(6)
C8 C 0.7683(15) 0.866(3) -0.1100(6)
H5 H 0.7315 0.9307 -0.1438
C9 C 0.8717(15) 0.662(3) -0.1050(7)
H6 H 0.9011 0.5792 -0.138
C10 C 1.0667(15) 0.426(4) 0.0536(6)
C11 C 0.9571(16) 0.625(4) 0.0486(7)
C12 C 0.8947(14) 0.692(3) -0.0015(7)
C13 C 0.7827(15) 0.905(3) -0.0045(6)
H7 H 0.7526 0.9946 0.0275
Br1 Br 0.39592(13) 0.5553(4) 0.23270(6)
Br2 Br 0.5991(3) 1.1742(8) -0.05543(16)
N1 N 0.9199(11) 0.750(3) 0.1004(4)
H8 H 0.9793 0.8603 0.1149
C1B C 1.4394(11) 0.387(3) -0.1921(5)
C2B C 1.4156(12) 0.531(2) -0.1455(6)
H1B H 1.4794 0.6611 -0.1339
C3B C 1.2951(11) 0.486(3) -0.1142(5)
H2B H 1.2776 0.5921 -0.0828
C4B C 1.2026(11) 0.289(3) -0.1294(5)
C5B C 1.2287(13) 0.141(2) -0.1769(5)
H3B H 1.1662 0.0095 -0.1889
C6B C 1.3522(12) 0.191(3) -0.2071(5)
H4B H 1.3729 0.0852 -0.2382
C7B C 1.2705(15) 0.041(4) 0.0549(6)
C8B C 1.2317(15) 0.134(3) 0.1100(6)
H5B H 1.2685 0.0693 0.1438
C9B C 1.1283(15) 0.338(3) 0.1050(7)
H6B H 1.0989 0.4208 0.138
C10B C 0.9333(15) 0.574(4) -0.0536(6)
C11B C 1.0429(16) 0.375(4) -0.0486(7)
C12B C 1.1053(14) 0.308(3) 0.0015(7)
C13B C 1.2173(15) 0.095(3) 0.0045(6)
H7B H 1.2474 0.0054 -0.0275
Br1B Br 1.60408(13) 0.4447(4) -0.23270(6)
Br2B Br 1.4009(3) -0.1742(8) 0.05543(16)
N1B N 1.0801(11) 0.250(3) -0.1004(4)
H8B H 1.0207 0.1397 -0.1149
loop_
_geom_bond_atom_site_label_1
_geom_bond_atom_site_label_2
_geom_bond_site_symmetry_1
_geom_bond_site_symmetry_2
C1 C2 1_555 1_555
C2 H1 1_555 1_555
C3 C2 1_555 1_555
H2 C3 1_555 1_555
C4 C3 1_555 1_555
C5 C4 1_555 1_555
H3 C5 1_555 1_555
C6 C1 1_555 1_555
H4 C6 1_555 1_555
C7 C8 1_555 1_555
C8 H5 1_555 1_555
C9 C8 1_555 1_555
H6 C9 1_555 1_555
C10 C11 1_555 1_555
C11 C12 1_555 1_555
C12 C13 1_555 1_555
C13 C7 1_555 1_555
H7 C13 1_555 1_555
Br1 C1 1_555 1_555
Br2 C7 1_555 1_555
N1 C4 1_555 1_555
H8 N1 1_555 1_555
C1B C2B 1_555 1_555
C2B H1B 1_555 1_555
C3B C2B 1_555 1_555
H2B C3B 1_555 1_555
C4B C3B 1_555 1_555
C5B C4B 1_555 1_555
H3B C5B 1_555 1_555
C6B C1B 1_555 1_555
H4B C6B 1_555 1_555
C7B C8B 1_555 1_555
C8B H5B 1_555 1_555
C9B C10 1_555 1_555
H6B C9B 1_555 1_555
C10B C9 1_555 1_555
C11B C10B 1_555 1_555
C12B C10 1_555 1_555
C13B C7B 1_555 1_555
H7B C13B 1_555 1_555
Br1B C1B 1_555 1_555
Br2B C7B 1_555 1_555
N1B C4B 1_555 1_555
H8B N1B 1_555 1_555
C5 C6 1_555 1_555
C11 N1 1_555 1_555
C12 C10B 1_555 1_555
C5B C6B 1_555 1_555
C8B C9B 1_555 1_555
C11B C12B 1_555 1_555
C11B N1B 1_555 1_555
C12B C13B 1_555 1_555

#END
