
#######################################################################
#
#                 Cambridge Crystallographic Data Centre
#                                CCDC 
#
#######################################################################
#
# If this CIF has been generated from an entry in the Cambridge 
# Structural Database, then it will include bibliographic, chemical, 
# crystal, experimental, refinement or atomic coordinate data resulting 
# from the CCDC's data processing and validation procedures.
#
#######################################################################

data_VUGLEP
_chemical_formula_moiety         'C13 H15 Cl1 N2'
_chemical_name_systematic        N-Butyl-7-chloroquinolin-4-amine
_symmetry_cell_setting           orthorhombic
_symmetry_space_group_name_H-M   'P b c a'
_symmetry_Int_Tables_number      61
_space_group_name_Hall           '-P 2ac 2ab'
loop_
_symmetry_equiv_pos_site_id
_symmetry_equiv_pos_as_xyz
1 x,y,z
2 1/2+x,1/2-y,-z
3 -x,1/2+y,1/2-z
4 1/2-x,-y,1/2+z
5 -x,-y,-z
6 1/2-x,1/2+y,z
7 x,1/2-y,1/2+z
8 1/2+x,y,1/2-z
_cell_length_a                   9.3167(3)
_cell_length_b                   20.4346(11)
_cell_length_c                   25.3335(15)
_cell_angle_alpha                90
_cell_angle_beta                 90
_cell_angle_gamma                90
_cell_volume                     4823.07
_exptl_crystal_colour            colorless
_exptl_crystal_description       block
_cell_formula_units_Z            16
loop_
_atom_site_label
_atom_site_type_symbol
_atom_site_fract_x
_atom_site_fract_y
_atom_site_fract_z
Cl1 Cl 0.98938(7) -0.18702(3) 0.77435(3)
N1 N 0.6452(2) -0.03163(10) 0.86693(8)
N2 N 0.5363(2) 0.06703(11) 0.72614(9)
H1 H 0.5660 0.0505 0.6960
C1 C 0.5576(3) 0.01927(13) 0.86513(10)
H2 H 0.5157 0.0329 0.8975
C2 C 0.5211(2) 0.05460(13) 0.82036(10)
H3 H 0.4598 0.0916 0.8232
C3 C 0.5743(3) 0.03592(12) 0.77137(10)
C4 C 0.6742(2) -0.01822(12) 0.77096(10)
C5 C 0.7443(2) -0.03995(12) 0.72459(10)
H4 H 0.7244 -0.0189 0.6920
C6 C 0.8401(3) -0.09070(12) 0.72587(11)
H5 H 0.8880 -0.1042 0.6946
C7 C 0.8668(2) -0.12240(12) 0.77392(11)
C8 C 0.8011(3) -0.10355(12) 0.81983(11)
H6 H 0.8200 -0.1264 0.8517
C9 C 0.7051(2) -0.04996(12) 0.81956(10)
C10 C 0.4301(3) 0.11959(12) 0.72627(10)
H7 H 0.4723 0.1588 0.7431
H8 H 0.3463 0.1059 0.7476
C11 C 0.3798(3) 0.13720(13) 0.67114(10)
H9 H 0.3381 0.0980 0.6540
H10 H 0.4628 0.1518 0.6498
C12 C 0.2677(3) 0.19149(13) 0.67295(11)
H11 H 0.1903 0.1787 0.6976
H12 H 0.3129 0.2318 0.6869
C13 C 0.2023(3) 0.20610(15) 0.61923(12)
H13 H 0.1310 0.2411 0.6228
H14 H 0.1558 0.1666 0.6055
H15 H 0.2779 0.2200 0.5948
Cl2 Cl 0.48122(7) -0.17364(3) 0.54392(3)
N3 N 0.6538(2) 0.04462(11) 0.61510(9)
N4 N 0.8688(2) 0.09558(10) 0.47411(9)
H16 H 0.8549 0.0736 0.4447
C14 C 0.7231(3) 0.10060(13) 0.60808(11)
H17 H 0.7233 0.1303 0.6369
C15 C 0.7956(3) 0.12029(13) 0.56281(10)
H18 H 0.8435 0.1613 0.5618
C16 C 0.7973(3) 0.07891(13) 0.51872(10)
C17 C 0.7216(2) 0.01780(13) 0.52357(10)
C18 C 0.7104(3) -0.02829(13) 0.48192(11)
H19 H 0.7542 -0.0189 0.4489
C19 C 0.6381(3) -0.08576(13) 0.48816(11)
H20 H 0.6307 -0.1159 0.4597
C20 C 0.5747(3) -0.09995(13) 0.53714(11)
C21 C 0.5822(3) -0.05743(13) 0.57846(11)
H21 H 0.5387 -0.0683 0.6112
C22 C 0.6548(2) 0.00279(12) 0.57247(11)
C23 C 0.9516(3) 0.15597(13) 0.47050(11)
H22 H 1.0192 0.1584 0.5006
H23 H 0.8858 0.1939 0.4728
C24 C 1.0355(3) 0.15952(13) 0.41896(11)
H24 H 1.0932 0.1192 0.4148
H25 H 0.9674 0.1620 0.3890
C25 C 1.1344(3) 0.21879(13) 0.41763(11)
H26 H 1.0761 0.2591 0.4208
H27 H 1.2001 0.2170 0.4483
C26 C 1.2226(3) 0.22211(14) 0.36712(11)
H28 H 1.2839 0.2611 0.3679
H29 H 1.1581 0.2245 0.3366
H30 H 1.2827 0.1829 0.3643
loop_
_geom_bond_atom_site_label_1
_geom_bond_atom_site_label_2
_geom_bond_site_symmetry_1
_geom_bond_site_symmetry_2
Cl1 C7 1_555 1_555
N1 C1 1_555 1_555
N2 H1 1_555 1_555
C1 H2 1_555 1_555
C2 C1 1_555 1_555
H3 C2 1_555 1_555
C3 N2 1_555 1_555
C4 C3 1_555 1_555
C5 C4 1_555 1_555
H4 C5 1_555 1_555
C6 C5 1_555 1_555
H5 C6 1_555 1_555
C7 C6 1_555 1_555
C8 C7 1_555 1_555
H6 C8 1_555 1_555
C9 N1 1_555 1_555
C10 N2 1_555 1_555
H7 C10 1_555 1_555
H8 C10 1_555 1_555
C11 C10 1_555 1_555
H9 C11 1_555 1_555
H10 C11 1_555 1_555
C12 C11 1_555 1_555
H11 C12 1_555 1_555
H12 C12 1_555 1_555
C13 C12 1_555 1_555
H13 C13 1_555 1_555
H14 C13 1_555 1_555
H15 C13 1_555 1_555
Cl2 C20 1_555 1_555
N3 C14 1_555 1_555
N4 H16 1_555 1_555
C14 H17 1_555 1_555
C15 C14 1_555 1_555
H18 C15 1_555 1_555
C16 N4 1_555 1_555
C17 C16 1_555 1_555
C18 C17 1_555 1_555
H19 C18 1_555 1_555
C19 C18 1_555 1_555
H20 C19 1_555 1_555
C20 C19 1_555 1_555
C21 C20 1_555 1_555
H21 C21 1_555 1_555
C22 N3 1_555 1_555
C23 N4 1_555 1_555
H22 C23 1_555 1_555
H23 C23 1_555 1_555
C24 C23 1_555 1_555
H24 C24 1_555 1_555
H25 C24 1_555 1_555
C25 C24 1_555 1_555
H26 C25 1_555 1_555
H27 C25 1_555 1_555
C26 C25 1_555 1_555
H28 C26 1_555 1_555
H29 C26 1_555 1_555
H30 C26 1_555 1_555
C2 C3 1_555 1_555
C4 C9 1_555 1_555
C8 C9 1_555 1_555
C15 C16 1_555 1_555
C17 C22 1_555 1_555
C21 C22 1_555 1_555

#END
