
#######################################################################
#
#                 Cambridge Crystallographic Data Centre
#                                CCDC 
#
#######################################################################
#
# If this CIF has been generated from an entry in the Cambridge 
# Structural Database, then it will include bibliographic, chemical, 
# crystal, experimental, refinement or atomic coordinate data resulting 
# from the CCDC's data processing and validation procedures.
#
#######################################################################

data_VUGLOZ
_chemical_formula_moiety         'C11 H10 Cl1 N5'
_chemical_name_systematic        N-(2-Azidoethyl)-7-chloroquinolin-4-amine
_symmetry_cell_setting           orthorhombic
_symmetry_space_group_name_H-M   'P b c a'
_symmetry_Int_Tables_number      61
_space_group_name_Hall           '-P 2ac 2ab'
loop_
_symmetry_equiv_pos_site_id
_symmetry_equiv_pos_as_xyz
1 x,y,z
2 1/2+x,1/2-y,-z
3 -x,1/2+y,1/2-z
4 1/2-x,-y,1/2+z
5 -x,-y,-z
6 1/2-x,1/2+y,z
7 x,1/2-y,1/2+z
8 1/2+x,y,1/2-z
_cell_length_a                   13.0426(5)
_cell_length_b                   7.8693(2)
_cell_length_c                   22.6276(9)
_cell_angle_alpha                90
_cell_angle_beta                 90
_cell_angle_gamma                90
_cell_volume                     2322.41
_exptl_crystal_colour            colorless
_exptl_crystal_description       plate
_cell_formula_units_Z            8
loop_
_atom_site_label
_atom_site_type_symbol
_atom_site_fract_x
_atom_site_fract_y
_atom_site_fract_z
Cl1 Cl 0.18786(5) 0.15546(8) 0.55167(2)
N1 N 0.04322(14) 0.4454(2) 0.73332(8)
N2 N 0.33271(14) 0.4890(2) 0.81559(8)
H1 H 0.3893 0.4582 0.7973
N3 N 0.38215(17) 0.3364(3) 0.93286(8)
N4 N 0.42405(16) 0.3219(3) 0.98157(9)
N5 N 0.46696(18) 0.2953(3) 1.02406(10)
C1 C 0.05692(17) 0.5176(3) 0.78566(10)
H2 H -0.0024 0.5601 0.8050
C2 C 0.15004(17) 0.5371(3) 0.81489(10)
H3 H 0.1524 0.5929 0.8521
C3 C 0.24005(16) 0.4747(3) 0.78950(9)
C4 C 0.22938(16) 0.3926(3) 0.73261(9)
C5 C 0.31378(16) 0.3258(3) 0.70103(9)
H4 H 0.3802 0.3299 0.7182
C6 C 0.30170(17) 0.2550(3) 0.64600(10)
H5 H 0.3590 0.2116 0.6250
C7 C 0.20268(18) 0.2482(3) 0.62136(9)
C8 C 0.11901(17) 0.3108(3) 0.64994(9)
H6 H 0.0533 0.3053 0.6319
C9 C 0.13036(16) 0.3843(3) 0.70677(9)
C10 C 0.34908(18) 0.5853(3) 0.86968(10)
H7 H 0.3093 0.6923 0.8673
H8 H 0.4225 0.6160 0.8723
C11 C 0.31863(18) 0.4918(3) 0.92580(10)
H9 H 0.3284 0.5672 0.9604
H10 H 0.2453 0.4601 0.9238
loop_
_geom_bond_atom_site_label_1
_geom_bond_atom_site_label_2
_geom_bond_site_symmetry_1
_geom_bond_site_symmetry_2
Cl1 C7 1_555 1_555
N1 C1 1_555 1_555
N2 H1 1_555 1_555
N3 N4 1_555 1_555
N4 N5 1_555 1_555
C1 H2 1_555 1_555
C2 C1 1_555 1_555
H3 C2 1_555 1_555
C3 N2 1_555 1_555
C4 C3 1_555 1_555
C5 C4 1_555 1_555
H4 C5 1_555 1_555
C6 C5 1_555 1_555
H5 C6 1_555 1_555
C7 C6 1_555 1_555
C8 C7 1_555 1_555
H6 C8 1_555 1_555
C9 N1 1_555 1_555
C10 N2 1_555 1_555
H7 C10 1_555 1_555
H8 C10 1_555 1_555
C11 N3 1_555 1_555
H9 C11 1_555 1_555
H10 C11 1_555 1_555
C2 C3 1_555 1_555
C4 C9 1_555 1_555
C8 C9 1_555 1_555
C10 C11 1_555 1_555

#END
