
#######################################################################
#
#                 Cambridge Crystallographic Data Centre
#                                CCDC 
#
#######################################################################
#
# If this CIF has been generated from an entry in the Cambridge 
# Structural Database, then it will include bibliographic, chemical, 
# crystal, experimental, refinement or atomic coordinate data resulting 
# from the CCDC's data processing and validation procedures.
#
#######################################################################

data_VUGLAL
_chemical_formula_moiety         'C12 H13 Cl1 N2'
_chemical_name_systematic        7-Chloro-N-propylquinolin-4-amine
_symmetry_cell_setting           monoclinic
_symmetry_space_group_name_H-M   'P 21/c'
_symmetry_Int_Tables_number      14
_space_group_name_Hall           '-P 2ybc'
loop_
_symmetry_equiv_pos_site_id
_symmetry_equiv_pos_as_xyz
1 x,y,z
2 -x,1/2+y,1/2-z
3 -x,-y,-z
4 x,1/2-y,1/2+z
_cell_length_a                   10.4386(3)
_cell_length_b                   17.9769(5)
_cell_length_c                   13.0512(3)
_cell_angle_alpha                90
_cell_angle_beta                 108.987(2)
_cell_angle_gamma                90
_cell_volume                     2315.86
_exptl_crystal_colour            'light yellow'
_exptl_crystal_description       rod
_cell_formula_units_Z            8
loop_
_atom_site_label
_atom_site_type_symbol
_atom_site_fract_x
_atom_site_fract_y
_atom_site_fract_z
Cl1 Cl 0.92021(7) 0.46245(4) 0.60977(6)
N1 N 0.6077(2) 0.25218(13) 0.42238(15)
N2 N 0.5607(2) 0.17474(11) 0.71318(16)
H1 H 0.5872 0.2016 0.7727
C1 C 0.5346(3) 0.19270(15) 0.42721(19)
H2 H 0.4924 0.1670 0.3612
C2 C 0.5137(2) 0.16440(14) 0.51944(19)
H3 H 0.4587 0.1216 0.5148
C3 C 0.5743(2) 0.19934(13) 0.61914(17)
C4 C 0.6569(2) 0.26374(13) 0.61910(17)
C5 C 0.7278(2) 0.30324(13) 0.71453(18)
H4 H 0.7202 0.2877 0.7819
C6 C 0.8073(2) 0.36364(13) 0.71175(19)
H5 H 0.8544 0.3896 0.7764
C7 C 0.8180(2) 0.38641(13) 0.6117(2)
C8 C 0.7514(2) 0.35017(14) 0.5177(2)
H6 H 0.7597 0.3669 0.4511
C9 C 0.6698(2) 0.28768(13) 0.51911(18)
C10 C 0.4800(2) 0.11040(14) 0.7210(2)
H7 H 0.5136 0.0912 0.7962
H8 H 0.4937 0.0709 0.6728
C11 C 0.3288(3) 0.12589(15) 0.6912(2)
H9 H 0.3134 0.1635 0.7414
H10 H 0.2944 0.1464 0.6168
C12 C 0.2515(3) 0.05510(17) 0.6974(3)
H11 H 0.1544 0.0661 0.6761
H12 H 0.2829 0.0360 0.7718
H13 H 0.2676 0.0177 0.6484
Cl2 Cl 0.76025(7) 0.01571(4) 0.63660(7)
N3 N 1.0547(2) 0.22809(12) 0.84096(15)
N4 N 1.1180(2) 0.31452(12) 0.56132(16)
H14 H 1.0810 0.2949 0.4967
C13 C 1.1331(3) 0.28631(15) 0.84294(19)
H15 H 1.1748 0.3093 0.9113
C14 C 1.1602(2) 0.31701(14) 0.75402(18)
H16 H 1.2191 0.3586 0.7632
C15 C 1.0998(2) 0.28609(13) 0.65108(17)
C16 C 1.0152(2) 0.22172(13) 0.64481(17)
C17 C 0.9495(2) 0.18378(13) 0.54661(18)
H17 H 0.9592 0.2017 0.4811
C18 C 0.8719(3) 0.12146(14) 0.5441(2)
H18 H 0.8289 0.0964 0.4777
C19 C 0.8574(2) 0.09563(13) 0.6412(2)
C20 C 0.9163(2) 0.13082(14) 0.7375(2)
H19 H 0.9035 0.1124 0.8017
C21 C 0.9968(2) 0.19528(13) 0.74170(18)
C22 C 1.2039(3) 0.37756(15) 0.5600(2)
H20 H 1.1980 0.4138 0.6154
H21 H 1.1689 0.4022 0.4885
C23 C 1.3482(3) 0.35800(16) 0.5811(2)
H22 H 1.3554 0.3215 0.5264
H23 H 1.3851 0.3347 0.6535
C24 C 1.4311(3) 0.42739(18) 0.5763(4)
H24 H 1.5263 0.4135 0.5917
H25 H 1.4238 0.4635 0.6303
H26 H 1.3964 0.4495 0.5039
loop_
_geom_bond_atom_site_label_1
_geom_bond_atom_site_label_2
_geom_bond_site_symmetry_1
_geom_bond_site_symmetry_2
Cl1 C7 1_555 1_555
N1 C1 1_555 1_555
N2 H1 1_555 1_555
C1 H2 1_555 1_555
C2 C1 1_555 1_555
H3 C2 1_555 1_555
C3 N2 1_555 1_555
C4 C3 1_555 1_555
C5 C4 1_555 1_555
H4 C5 1_555 1_555
C6 C5 1_555 1_555
H5 C6 1_555 1_555
C7 C6 1_555 1_555
C8 C7 1_555 1_555
H6 C8 1_555 1_555
C9 N1 1_555 1_555
C10 N2 1_555 1_555
H7 C10 1_555 1_555
H8 C10 1_555 1_555
C11 C10 1_555 1_555
H9 C11 1_555 1_555
H10 C11 1_555 1_555
C12 C11 1_555 1_555
H11 C12 1_555 1_555
H12 C12 1_555 1_555
H13 C12 1_555 1_555
Cl2 C19 1_555 1_555
N3 C13 1_555 1_555
N4 H14 1_555 1_555
C13 H15 1_555 1_555
C14 C13 1_555 1_555
H16 C14 1_555 1_555
C15 N4 1_555 1_555
C16 C15 1_555 1_555
C17 C16 1_555 1_555
H17 C17 1_555 1_555
C18 C17 1_555 1_555
H18 C18 1_555 1_555
C19 C18 1_555 1_555
C20 C19 1_555 1_555
H19 C20 1_555 1_555
C21 N3 1_555 1_555
C22 N4 1_555 1_555
H20 C22 1_555 1_555
H21 C22 1_555 1_555
C23 C22 1_555 1_555
H22 C23 1_555 1_555
H23 C23 1_555 1_555
C24 C23 1_555 1_555
H24 C24 1_555 1_555
H25 C24 1_555 1_555
H26 C24 1_555 1_555
C2 C3 1_555 1_555
C4 C9 1_555 1_555
C8 C9 1_555 1_555
C14 C15 1_555 1_555
C16 C21 1_555 1_555
C20 C21 1_555 1_555

#END
