
#######################################################################
#
#                 Cambridge Crystallographic Data Centre
#                                CCDC 
#
#######################################################################
#
# If this CIF has been generated from an entry in the Cambridge 
# Structural Database, then it will include bibliographic, chemical, 
# crystal, experimental, refinement or atomic coordinate data resulting 
# from the CCDC's data processing and validation procedures.
#
#######################################################################

data_VUGLIT
_chemical_formula_moiety         'C11 H10 Cl2 N2'
_chemical_name_systematic        7-Chloro-N-(2-chloroethyl)quinolin-4-amine
_symmetry_cell_setting           monoclinic
_symmetry_space_group_name_H-M   'C c'
_symmetry_Int_Tables_number      9
_space_group_name_Hall           'C -2yc'
loop_
_symmetry_equiv_pos_site_id
_symmetry_equiv_pos_as_xyz
1 x,y,z
2 x,-y,1/2+z
3 1/2+x,1/2+y,z
4 1/2+x,1/2-y,1/2+z
_cell_length_a                   4.6442(12)
_cell_length_b                   17.670(4)
_cell_length_c                   13.313(3)
_cell_angle_alpha                90
_cell_angle_beta                 100.024(2)
_cell_angle_gamma                90
_cell_volume                     1075.83
_exptl_crystal_colour            colorless
_exptl_crystal_description       needle
_cell_formula_units_Z            4
loop_
_atom_site_label
_atom_site_type_symbol
_atom_site_fract_x
_atom_site_fract_y
_atom_site_fract_z
Cl1 Cl -0.03321(12) 0.30872(4) 0.34632(5)
Cl2 Cl 0.56584(13) 0.73633(4) 0.05279(5)
N1 N 0.7012(6) 0.51598(14) 0.46306(18)
N2 N 0.7814(5) 0.57656(13) 0.16188(16)
H1 H 0.7206 0.5450 0.1115
C1 C 0.8708(7) 0.57170(17) 0.4416(2)
H2 H 0.9791 0.5983 0.4978
C2 C 0.9061(6) 0.59516(15) 0.3444(2)
H3 H 1.0317 0.6364 0.3365
C3 C 0.7552(6) 0.55756(15) 0.2588(2)
C4 C 0.5637(6) 0.49765(15) 0.2775(2)
C5 C 0.3887(6) 0.45626(16) 0.1982(2)
H4 H 0.3977 0.4680 0.1292
C6 C 0.2072(6) 0.39983(16) 0.2194(2)
H5 H 0.0912 0.3727 0.1654
C7 C 0.1927(6) 0.38221(16) 0.3206(2)
C8 C 0.3564(6) 0.42090(15) 0.4002(2)
H6 H 0.3431 0.4082 0.4686
C9 C 0.5437(6) 0.47943(15) 0.3799(2)
C10 C 0.9815(6) 0.63476(16) 0.1396(2)
H7 H 1.0169 0.6275 0.0690
H8 H 1.1708 0.6283 0.1861
C11 C 0.8739(6) 0.71497(16) 0.1501(2)
H9 H 1.0342 0.7510 0.1453
H10 H 0.8176 0.7212 0.2180
loop_
_geom_bond_atom_site_label_1
_geom_bond_atom_site_label_2
_geom_bond_site_symmetry_1
_geom_bond_site_symmetry_2
Cl1 C7 1_555 1_555
Cl2 C11 1_555 1_555
N1 C1 1_555 1_555
N2 H1 1_555 1_555
C1 H2 1_555 1_555
C2 C1 1_555 1_555
H3 C2 1_555 1_555
C3 N2 1_555 1_555
C4 C3 1_555 1_555
C5 C4 1_555 1_555
H4 C5 1_555 1_555
C6 C5 1_555 1_555
H5 C6 1_555 1_555
C7 C6 1_555 1_555
C8 C7 1_555 1_555
H6 C8 1_555 1_555
C9 N1 1_555 1_555
C10 N2 1_555 1_555
H7 C10 1_555 1_555
H8 C10 1_555 1_555
C11 C10 1_555 1_555
H9 C11 1_555 1_555
H10 C11 1_555 1_555
C2 C3 1_555 1_555
C4 C9 1_555 1_555
C8 C9 1_555 1_555

#END
