
#######################################################################
#
#                 Cambridge Crystallographic Data Centre
#                                CCDC 
#
#######################################################################
#
# If this CIF has been generated from an entry in the Cambridge 
# Structural Database, then it will include bibliographic, chemical, 
# crystal, experimental, refinement or atomic coordinate data resulting 
# from the CCDC's data processing and validation procedures.
#
#######################################################################

data_VUGMEQ
_chemical_formula_moiety         'C13 H15 Cl1 N2 O1'
_chemical_name_systematic        
(2S)-2-((7-Chloroquinolin-4-yl)amino)butan-1-ol
_symmetry_cell_setting           monoclinic
_symmetry_space_group_name_H-M   'P 21'
_symmetry_Int_Tables_number      4
_space_group_name_Hall           'P 2yb'
loop_
_symmetry_equiv_pos_site_id
_symmetry_equiv_pos_as_xyz
1 x,y,z
2 -x,1/2+y,-z
_cell_length_a                   8.7612(3)
_cell_length_b                   7.0756(1)
_cell_length_c                   9.6622(2)
_cell_angle_alpha                90
_cell_angle_beta                 95.644(1)
_cell_angle_gamma                90
_cell_volume                     596.063
_exptl_crystal_colour            colorless
_exptl_crystal_description       block
_cell_formula_units_Z            2
loop_
_atom_site_label
_atom_site_type_symbol
_atom_site_fract_x
_atom_site_fract_y
_atom_site_fract_z
Cl1 Cl 1.11691(4) 0.29708(6) 0.60467(3)
O1 O 0.53033(12) 0.61227(16) -0.15388(12)
H1 H 0.6242 0.6243 -0.1281
N1 N 1.16399(14) 0.18760(18) 0.09238(13)
N2 N 0.69112(13) 0.2749(2) -0.02025(12)
H2 H 0.6263 0.2487 0.0411
C1 C 1.10172(17) 0.1833(2) -0.03890(16)
H3 H 1.1689 0.1626 -0.1088
C2 C 0.94665(17) 0.2065(2) -0.08257(15)
H4 H 0.9120 0.2007 -0.1788
C3 C 0.84203(17) 0.23842(19) 0.01482(15)
C4 C 0.90394(17) 0.24215(19) 0.15942(15)
C5 C 0.81293(16) 0.2804(2) 0.26961(14)
H5 H 0.7052 0.2951 0.2497
C6 C 0.87729(16) 0.2965(3) 0.40450(14)
H6 H 0.8151 0.3231 0.4773
C7 C 1.03652(17) 0.2731(2) 0.43324(14)
C8 C 1.12892(18) 0.2321(2) 0.33139(16)
H7 H 1.2357 0.2128 0.3542
C9 C 1.06414(17) 0.2184(2) 0.19075(15)
C10 C 0.62126(15) 0.2814(2) -0.16458(14)
H8 H 0.6994 0.3296 -0.2247
C11 C 0.48723(17) 0.4196(2) -0.17326(16)
H9 H 0.4281 0.4062 -0.2655
H10 H 0.4185 0.3847 -0.1020
C12 C 0.57046(18) 0.0832(2) -0.21585(16)
H11 H 0.6519 -0.0084 -0.1841
H12 H 0.4770 0.0476 -0.1721
C13 C 0.5369(2) 0.0665(3) -0.37377(17)
H13 H 0.5053 -0.0631 -0.3981
H14 H 0.6296 0.0978 -0.4182
H15 H 0.4545 0.1542 -0.4062
loop_
_geom_bond_atom_site_label_1
_geom_bond_atom_site_label_2
_geom_bond_site_symmetry_1
_geom_bond_site_symmetry_2
Cl1 C7 1_555 1_555
O1 H1 1_555 1_555
N1 C1 1_555 1_555
N2 H2 1_555 1_555
C1 H3 1_555 1_555
C2 C1 1_555 1_555
H4 C2 1_555 1_555
C3 N2 1_555 1_555
C4 C3 1_555 1_555
C5 C4 1_555 1_555
H5 C5 1_555 1_555
C6 C5 1_555 1_555
H6 C6 1_555 1_555
C7 C6 1_555 1_555
C8 C7 1_555 1_555
H7 C8 1_555 1_555
C9 N1 1_555 1_555
C10 N2 1_555 1_555
H8 C10 1_555 1_555
C11 O1 1_555 1_555
H9 C11 1_555 1_555
H10 C11 1_555 1_555
C12 C10 1_555 1_555
H11 C12 1_555 1_555
H12 C12 1_555 1_555
C13 C12 1_555 1_555
H13 C13 1_555 1_555
H14 C13 1_555 1_555
H15 C13 1_555 1_555
C2 C3 1_555 1_555
C4 C9 1_555 1_555
C8 C9 1_555 1_555
C10 C11 1_555 1_555

#END
