
#######################################################################
#
#                 Cambridge Crystallographic Data Centre
#                                CCDC 
#
#######################################################################
#
# If this CIF has been generated from an entry in the Cambridge 
# Structural Database, then it will include bibliographic, chemical, 
# crystal, experimental, refinement or atomic coordinate data resulting 
# from the CCDC's data processing and validation procedures.
#
#######################################################################

data_VUHHAI
_chemical_formula_moiety         'C24 H38 N4 O8 S2,C1 H1 Cl3'
_chemical_name_systematic        
'Dimethyl 7,18-diisopropyl-5,8,17,20-tetraoxo-12,13-dithia-6,9,16,19-tetraazaspiro[3.16]icosane-10,15-dicarboxylate chloroform solvate'
_symmetry_cell_setting           orthorhombic
_symmetry_space_group_name_H-M   'P 21 21 21'
_symmetry_Int_Tables_number      19
_space_group_name_Hall           'P 2ac 2ab'
loop_
_symmetry_equiv_pos_site_id
_symmetry_equiv_pos_as_xyz
1 x,y,z
2 1/2-x,-y,1/2+z
3 -x,1/2+y,1/2-z
4 1/2+x,1/2-y,-z
_cell_length_a                   15.5178(11)
_cell_length_b                   19.7909(12)
_cell_length_c                   22.0219(16)
_cell_angle_alpha                90
_cell_angle_beta                 90
_cell_angle_gamma                90
_cell_volume                     6763.17
_exptl_crystal_colour            white
_exptl_crystal_description       needle
_chemical_melting_point          '210 deg.C'
_cell_formula_units_Z            8
_exptl_crystal_recrystallization_method chloroform
loop_
_atom_site_label
_atom_site_type_symbol
_atom_site_fract_x
_atom_site_fract_y
_atom_site_fract_z
S1 S 0.63457(13) 0.13514(10) 0.25787(8)
C1 C 0.6487(4) 0.0458(3) 0.2451(3)
H1 H 0.6446 0.0376 0.2018
H2 H 0.7068 0.0339 0.2574
C2 C 0.5871(4) -0.0019(3) 0.2767(3)
H3 H 0.5863 0.0082 0.3203
C3 C 0.4958(4) 0.0055(3) 0.2511(3)
O1 O 0.4741(3) -0.0153(2) 0.2029(2)
O2 O 0.4447(3) 0.0364(3) 0.2893(2)
C4 C 0.3586(6) 0.0441(4) 0.2683(3)
H4 H 0.3296 0.0775 0.2924
H5 H 0.3288 0.0017 0.2716
H6 H 0.3592 0.0583 0.2266
N1 N 0.6151(3) -0.0704(3) 0.2679(2)
H7 H 0.5972 -0.0932 0.2372
C5 C 0.6692(4) -0.0984(3) 0.3078(3)
O3 O 0.6966(3) -0.0688(2) 0.3537(2)
C6 C 0.6950(5) -0.1726(4) 0.2944(3)
H8 H 0.6887 -0.1811 0.2508
C7 C 0.6374(5) -0.2233(4) 0.3296(3)
H9 H 0.6518 -0.2208 0.3729
C8 C 0.5432(6) -0.2087(5) 0.3219(3)
H10 H 0.5102 -0.2474 0.3340
H11 H 0.5315 -0.1985 0.2801
H12 H 0.5275 -0.1707 0.3467
C9 C 0.6533(7) -0.2940(4) 0.3077(3)
H13 H 0.6262 -0.3002 0.2689
H14 H 0.6296 -0.3256 0.3363
H15 H 0.7142 -0.3015 0.3039
N2 N 0.7842(4) -0.1842(3) 0.3115(2)
H16 H 0.7950 -0.2071 0.3439
C10 C 0.8504(5) -0.1602(4) 0.2784(3)
O4 O 0.8366(3) -0.1291(2) 0.23020(18)
C11 C 0.9401(4) -0.1707(4) 0.3024(3)
C12 C 0.9578(5) -0.2422(4) 0.3306(3)
H17 H 0.9959 -0.2415 0.3655
H18 H 0.9061 -0.2682 0.3388
C13 C 1.0022(7) -0.2606(4) 0.2713(4)
H19 H 0.9665 -0.2877 0.2445
H20 H 1.0580 -0.2817 0.2771
C14 C 1.0082(5) -0.1843(4) 0.2515(3)
H21 H 1.0639 -0.1636 0.2587
H22 H 0.9878 -0.1754 0.2106
C15 C 0.9636(4) -0.1096(4) 0.3421(3)
O5 O 0.9734(3) -0.1168(2) 0.39744(18)
N3 N 0.9710(4) -0.0512(3) 0.3135(2)
H23 H 0.9683 -0.0514 0.2745
C16 C 0.9829(4) 0.0117(4) 0.3430(3)
H24 H 0.9854 0.0064 0.3872
C17 C 1.0718(7) 0.0382(5) 0.3162(6)
H25 H 1.0720 0.0451 0.2722
C18 C 1.0918(7) 0.0962(6) 0.3506(4)
H26 H 1.1445 0.1156 0.3359
H27 H 1.0985 0.0839 0.3925
H28 H 1.0460 0.1286 0.3468
C19 C 1.1420(7) -0.0130(6) 0.3400(7)
H29 H 1.1341 -0.0560 0.3206
H30 H 1.1364 -0.0182 0.3832
H31 H 1.1984 0.0041 0.3307
C20 C 0.9151(5) 0.0583(4) 0.3249(3)
O6 O 0.8869(3) 0.0598(2) 0.2719(2)
N4 N 0.8815(4) 0.1006(3) 0.3668(2)
H32 H 0.9064 0.1024 0.4017
C21 C 0.8070(4) 0.1431(4) 0.3576(3)
H33 H 0.8027 0.1528 0.3141
C22 C 0.8212(4) 0.2088(4) 0.3900(3)
O7 O 0.8329(3) 0.2113(2) 0.4439(2)
O8 O 0.8226(4) 0.2605(3) 0.3543(2)
C23 C 0.8354(6) 0.3251(4) 0.3835(3)
H34 H 0.8143 0.3604 0.3576
H35 H 0.8957 0.3318 0.3910
H36 H 0.8046 0.3260 0.4213
C24 C 0.7266(4) 0.1068(4) 0.3763(3)
H37 H 0.7253 0.1048 0.4203
H38 H 0.7301 0.0607 0.3615
S2 S 0.62714(12) 0.14234(10) 0.35069(7)
S3 S 0.86915(12) 0.14610(10) 0.01501(8)
C25 C 0.7651(4) 0.1161(3) -0.0065(3)
H39 H 0.7620 0.1156 -0.0505
H40 H 0.7595 0.0697 0.0073
C26 C 0.6894(4) 0.1555(3) 0.0171(3)
H41 H 0.6988 0.1618 0.0608
C27 C 0.6753(4) 0.2231(3) -0.0091(3)
O9 O 0.7017(3) 0.2407(2) -0.0592(2)
O10 O 0.6299(3) 0.2635(2) 0.02635(18)
C28 C 0.6069(5) 0.3278(4) 0.0032(3)
H42 H 0.5666 0.3490 0.0303
H43 H 0.5808 0.3225 -0.0361
H44 H 0.6575 0.3554 -0.0003
N5 N 0.6101(3) 0.1191(3) 0.0106(2)
H45 H 0.5845 0.1198 -0.0240
C29 C 0.5733(4) 0.0831(3) 0.0569(3)
O11 O 0.6038(3) 0.0839(2) 0.10751(19)
C30 C 0.4916(4) 0.0495(4) 0.0412(3)
H46 H 0.4899 0.0441 -0.0030
C31 C 0.4111(5) 0.0894(4) 0.0601(3)
H47 H 0.4114 0.0913 0.1046
C32 C 0.4130(5) 0.1604(4) 0.0382(3)
H48 H 0.3643 0.1844 0.0543
H49 H 0.4107 0.1609 -0.0053
H50 H 0.4652 0.1817 0.0516
C33 C 0.3291(5) 0.0553(5) 0.0422(4)
H51 H 0.2812 0.0842 0.0514
H52 H 0.3234 0.0136 0.0641
H53 H 0.3300 0.0461 -0.0007
N6 N 0.4902(3) -0.0189(3) 0.0686(2)
H54 H 0.4773 -0.0228 0.1065
C34 C 0.5080(4) -0.0748(4) 0.0372(3)
O12 O 0.5238(3) -0.0755(2) -0.01876(19)
C35 C 0.5095(4) -0.1409(3) 0.0745(3)
C36 C 0.5905(5) -0.1448(3) 0.1093(3)
O13 O 0.5938(3) -0.1549(2) 0.16333(19)
N7 N 0.6618(4) -0.1463(3) 0.0737(2)
H55 H 0.6543 -0.1442 0.0351
C37 C 0.7482(4) -0.1512(3) 0.0952(2)
H56 H 0.7473 -0.1518 0.1397
C38 C 0.7923(4) -0.2165(3) 0.0725(2)
H57 H 0.7993 -0.2136 0.0284
C39 C 0.8814(4) -0.2219(3) 0.1015(2)
H58 H 0.9138 -0.1818 0.0929
H59 H 0.9110 -0.2605 0.0853
H60 H 0.8753 -0.2270 0.1447
C40 C 0.7390(5) -0.2776(4) 0.0870(3)
H61 H 0.6827 -0.2726 0.0695
H62 H 0.7339 -0.2823 0.1302
H63 H 0.7663 -0.3171 0.0705
C41 C 0.7940(4) -0.0887(4) 0.0745(3)
O14 O 0.7853(3) -0.0646(3) 0.02449(19)
N8 N 0.8495(4) -0.0593(3) 0.1158(2)
H64 H 0.8592 -0.0801 0.1494
C42 C 0.8915(4) 0.0038(4) 0.1057(3)
H65 H 0.8975 0.0090 0.0617
C43 C 0.9817(5) 0.0033(4) 0.1319(4)
O15 O 1.0053(3) -0.0355(2) 0.1716(2)
O16 O 1.0331(4) 0.0495(3) 0.1069(2)
C44 C 1.1177(5) 0.0543(5) 0.1299(4)
H66 H 1.1476 0.0903 0.1096
H67 H 1.1476 0.0125 0.1229
H68 H 1.1156 0.0634 0.1727
C45 C 0.8373(5) 0.0636(4) 0.1282(3)
H69 H 0.8369 0.0616 0.1722
H70 H 0.7785 0.0556 0.1150
S4 S 0.86351(13) 0.14752(10) 0.10784(8)
C46 C 0.4217(4) -0.1525(4) 0.1119(3)
H71 H 0.4293 -0.1785 0.1488
H72 H 0.3900 -0.1112 0.1198
C47 C 0.3861(5) -0.1934(4) 0.0591(3)
H73 H 0.3594 -0.2356 0.0711
H74 H 0.3491 -0.1678 0.0321
C48 C 0.4776(5) -0.2009(3) 0.0366(3)
H75 H 0.4832 -0.1936 -0.0068
H76 H 0.5039 -0.2434 0.0482
C49 C 0.4553(5) 0.0559(4) 0.4362(3)
H77 H 0.4639 0.0772 0.3965
Cl1 Cl 0.51703(13) -0.01585(10) 0.44018(8)
Cl2 Cl 0.48775(16) 0.11366(10) 0.49462(9)
Cl3 Cl 0.34503(15) 0.03840(13) 0.44607(13)
C50 C 0.7153(7) 0.3099(5) 0.1587(4)
H78 H 0.6824 0.2706 0.1446
Cl4 Cl 0.6481(2) 0.38501(18) 0.15246(15)
Cl5 Cl 0.8018(2) 0.32097(17) 0.11262(15)
Cl6 Cl 0.7423(3) 0.2984(2) 0.23431(14)
loop_
_geom_bond_atom_site_label_1
_geom_bond_atom_site_label_2
_geom_bond_site_symmetry_1
_geom_bond_site_symmetry_2
S1 C1 1_555 1_555
C1 H1 1_555 1_555
H2 C1 1_555 1_555
C2 C1 1_555 1_555
H3 C2 1_555 1_555
C3 C2 1_555 1_555
O1 C3 1_555 1_555
O2 C3 1_555 1_555
C4 O2 1_555 1_555
H4 C4 1_555 1_555
H5 C4 1_555 1_555
H6 C4 1_555 1_555
N1 C2 1_555 1_555
H7 N1 1_555 1_555
C5 N1 1_555 1_555
O3 C5 1_555 1_555
C6 C5 1_555 1_555
H8 C6 1_555 1_555
C7 C6 1_555 1_555
H9 C7 1_555 1_555
C8 C7 1_555 1_555
H10 C8 1_555 1_555
H11 C8 1_555 1_555
H12 C8 1_555 1_555
C9 C7 1_555 1_555
H13 C9 1_555 1_555
H14 C9 1_555 1_555
H15 C9 1_555 1_555
N2 C6 1_555 1_555
H16 N2 1_555 1_555
C10 N2 1_555 1_555
O4 C10 1_555 1_555
C11 C10 1_555 1_555
C12 C11 1_555 1_555
H17 C12 1_555 1_555
H18 C12 1_555 1_555
C13 C12 1_555 1_555
H19 C13 1_555 1_555
H20 C13 1_555 1_555
C14 C11 1_555 1_555
H21 C14 1_555 1_555
H22 C14 1_555 1_555
C15 C11 1_555 1_555
O5 C15 1_555 1_555
N3 C15 1_555 1_555
H23 N3 1_555 1_555
C16 N3 1_555 1_555
H24 C16 1_555 1_555
C17 C16 1_555 1_555
H25 C17 1_555 1_555
C18 C17 1_555 1_555
H26 C18 1_555 1_555
H27 C18 1_555 1_555
H28 C18 1_555 1_555
C19 C17 1_555 1_555
H29 C19 1_555 1_555
H30 C19 1_555 1_555
H31 C19 1_555 1_555
C20 C16 1_555 1_555
O6 C20 1_555 1_555
N4 C20 1_555 1_555
H32 N4 1_555 1_555
C21 N4 1_555 1_555
H33 C21 1_555 1_555
C22 C21 1_555 1_555
O7 C22 1_555 1_555
O8 C22 1_555 1_555
C23 O8 1_555 1_555
H34 C23 1_555 1_555
H35 C23 1_555 1_555
H36 C23 1_555 1_555
C24 C21 1_555 1_555
H37 C24 1_555 1_555
H38 C24 1_555 1_555
S2 S1 1_555 1_555
S3 C25 1_555 1_555
C25 H39 1_555 1_555
H40 C25 1_555 1_555
C26 C25 1_555 1_555
H41 C26 1_555 1_555
C27 C26 1_555 1_555
O9 C27 1_555 1_555
O10 C27 1_555 1_555
C28 O10 1_555 1_555
H42 C28 1_555 1_555
H43 C28 1_555 1_555
H44 C28 1_555 1_555
N5 C26 1_555 1_555
H45 N5 1_555 1_555
C29 N5 1_555 1_555
O11 C29 1_555 1_555
C30 C29 1_555 1_555
H46 C30 1_555 1_555
C31 C30 1_555 1_555
H47 C31 1_555 1_555
C32 C31 1_555 1_555
H48 C32 1_555 1_555
H49 C32 1_555 1_555
H50 C32 1_555 1_555
C33 C31 1_555 1_555
H51 C33 1_555 1_555
H52 C33 1_555 1_555
H53 C33 1_555 1_555
N6 C30 1_555 1_555
H54 N6 1_555 1_555
C34 N6 1_555 1_555
O12 C34 1_555 1_555
C35 C34 1_555 1_555
C36 C35 1_555 1_555
O13 C36 1_555 1_555
N7 C36 1_555 1_555
H55 N7 1_555 1_555
C37 N7 1_555 1_555
H56 C37 1_555 1_555
C38 C37 1_555 1_555
H57 C38 1_555 1_555
C39 C38 1_555 1_555
H58 C39 1_555 1_555
H59 C39 1_555 1_555
H60 C39 1_555 1_555
C40 C38 1_555 1_555
H61 C40 1_555 1_555
H62 C40 1_555 1_555
H63 C40 1_555 1_555
C41 C37 1_555 1_555
O14 C41 1_555 1_555
N8 C41 1_555 1_555
H64 N8 1_555 1_555
C42 N8 1_555 1_555
H65 C42 1_555 1_555
C43 C42 1_555 1_555
O15 C43 1_555 1_555
O16 C43 1_555 1_555
C44 O16 1_555 1_555
H66 C44 1_555 1_555
H67 C44 1_555 1_555
H68 C44 1_555 1_555
C45 C42 1_555 1_555
H69 C45 1_555 1_555
H70 C45 1_555 1_555
S4 S3 1_555 1_555
C46 C35 1_555 1_555
H71 C46 1_555 1_555
H72 C46 1_555 1_555
C47 C46 1_555 1_555
H73 C47 1_555 1_555
H74 C47 1_555 1_555
C48 C35 1_555 1_555
H75 C48 1_555 1_555
H76 C48 1_555 1_555
C49 H77 1_555 1_555
Cl1 C49 1_555 1_555
Cl2 C49 1_555 1_555
Cl3 C49 1_555 1_555
C50 H78 1_555 1_555
Cl4 C50 1_555 1_555
Cl5 C50 1_555 1_555
Cl6 C50 1_555 1_555
C13 C14 1_555 1_555
C24 S2 1_555 1_555
C45 S4 1_555 1_555
C47 C48 1_555 1_555

#END
