
#######################################################################
#
#                 Cambridge Crystallographic Data Centre
#                                CCDC 
#
#######################################################################
#
# If this CIF has been generated from an entry in the Cambridge 
# Structural Database, then it will include bibliographic, chemical, 
# crystal, experimental, refinement or atomic coordinate data resulting 
# from the CCDC's data processing and validation procedures.
#
#######################################################################

data_VUHHEM
_chemical_formula_moiety         'C24 H38 N4 O8 S2'
_chemical_name_systematic        
'Dimethyl 7,18-diisopropyl-5,8,17,20-tetraoxo-12,13-dithia-6,9,16,19-tetraazaspiro[3.16]icosane-10,15-dicarboxylate'
_symmetry_cell_setting           monoclinic
_symmetry_space_group_name_H-M   'I 2'
_symmetry_Int_Tables_number      5
_space_group_name_Hall           'I 2y'
loop_
_symmetry_equiv_pos_site_id
_symmetry_equiv_pos_as_xyz
1 x,y,z
2 -x,y,-z
3 1/2+x,1/2+y,1/2+z
4 1/2-x,1/2+y,1/2-z
_cell_length_a                   24.866(5)
_cell_length_b                   5.1362(8)
_cell_length_c                   24.893(5)
_cell_angle_alpha                90
_cell_angle_beta                 111.12(2)
_cell_angle_gamma                90
_cell_volume                     2965.7
_exptl_crystal_colour            white
_exptl_crystal_description       needle
_chemical_melting_point          '200 deg.C'
_cell_formula_units_Z            4
loop_
_atom_site_label
_atom_site_type_symbol
_atom_site_fract_x
_atom_site_fract_y
_atom_site_fract_z
S1 S 0.48002(5) 0.2835(3) 0.40379(5)
C1 C 0.54643(18) 0.3999(9) 0.45504(17)
H1 H 0.5383 0.4782 0.4868
H2 H 0.5713 0.2512 0.4703
C2 C 0.57946(17) 0.5952(10) 0.43364(17)
H3 H 0.5547 0.7465 0.4183
C3 C 0.6317(2) 0.6825(12) 0.4877(2)
O1 O 0.67778(17) 0.5939(9) 0.50091(15)
O2 O 0.61637(13) 0.8751(7) 0.51537(13)
C4 C 0.6621(2) 0.9757(11) 0.5663(2)
H4 H 0.6473 1.1152 0.5826
H5 H 0.6932 1.0391 0.5557
H6 H 0.6760 0.8389 0.5942
N1 N 0.60087(16) 0.5022(8) 0.39032(15)
H7 H 0.6021 0.3376 0.3845
C5 C 0.6184(2) 0.6659(12) 0.3600(2)
O3 O 0.61743(15) 0.9021(7) 0.36475(14)
C6 C 0.64810(18) 0.5382(9) 0.32107(17)
H8 H 0.6504 0.3493 0.3271
C7 C 0.7097(2) 0.6514(17) 0.3370(2)
H9 H 0.7086 0.8418 0.3343
C8 C 0.7457(3) 0.5616(18) 0.3991(3)
H10 H 0.7290 0.6306 0.4253
H11 H 0.7845 0.6237 0.4095
H12 H 0.7458 0.3749 0.4008
C9 C 0.7370(3) 0.5391(18) 0.2987(3)
H13 H 0.7766 0.5918 0.3115
H14 H 0.7172 0.5996 0.2601
H15 H 0.7348 0.3526 0.2996
N2 N 0.61359(15) 0.5955(9) 0.26023(14)
H16 H 0.5999 0.7499 0.2514
C10 C 0.6030(2) 0.4236(11) 0.2195(2)
O4 O 0.61198(15) 0.1892(7) 0.22981(13)
C11 C 0.5761(2) 0.5290(9) 0.15790(19)
C12 C 0.51139(18) 0.5717(9) 0.14433(17)
O5 O 0.49324(15) 0.8013(8) 0.14016(14)
N3 N 0.47959(14) 0.3670(7) 0.13931(14)
H17 H 0.4954 0.2155 0.1448
C13 C 0.4160(2) 0.3897(10) 0.12420(18)
H18 H 0.4036 0.5623 0.1076
C14 C 0.3820(2) 0.1861(10) 0.08176(18)
H19 H 0.3906 0.0159 0.1007
C15 C 0.3993(2) 0.1778(12) 0.0285(2)
H20 H 0.3817 0.0300 0.0053
H21 H 0.4405 0.1638 0.0405
H22 H 0.3867 0.3344 0.0065
C16 C 0.3176(2) 0.2403(12) 0.0661(2)
H23 H 0.2956 0.1081 0.0402
H24 H 0.3084 0.4074 0.0478
H25 H 0.3085 0.2392 0.1004
C17 C 0.40684(19) 0.3717(10) 0.18279(18)
O6 O 0.40156(13) 0.1611(7) 0.20265(12)
N4 N 0.40087(14) 0.5918(8) 0.20568(13)
H26 H 0.4049 0.7330 0.1890
C18 C 0.38787(17) 0.6136(10) 0.25735(16)
H27 H 0.3754 0.4414 0.2652
C19 C 0.33957(19) 0.8002(12) 0.2511(2)
O7 O 0.33541(16) 0.9498(7) 0.28807(13)
O8 O 0.29656(14) 0.7779(8) 0.19893(14)
C20 C 0.2479(2) 0.9441(12) 0.1881(2)
H28 H 0.2214 0.9176 0.1494
H29 H 0.2604 1.1223 0.1928
H30 H 0.2291 0.9044 0.2147
C21 C 0.4423(2) 0.6863(10) 0.30930(17)
H31 H 0.4503 0.8704 0.3077
H32 H 0.4750 0.5896 0.3073
C22 C 0.58738(19) 0.3806(9) 0.10750(17)
H33 H 0.6225 0.2784 0.1197
H34 H 0.5547 0.2803 0.0829
C23 C 0.5932(2) 0.6544(11) 0.08354(19)
H35 H 0.6260 0.6712 0.0713
H36 H 0.5581 0.7166 0.0540
C24 C 0.6034(2) 0.7632(11) 0.1419(2)
H37 H 0.5826 0.9237 0.1411
H38 H 0.6439 0.7832 0.1652
S2 S 0.43290(5) 0.6135(3) 0.37784(5)
loop_
_geom_bond_atom_site_label_1
_geom_bond_atom_site_label_2
_geom_bond_site_symmetry_1
_geom_bond_site_symmetry_2
S1 C1 1_555 1_555
C1 H1 1_555 1_555
H2 C1 1_555 1_555
C2 C1 1_555 1_555
H3 C2 1_555 1_555
C3 C2 1_555 1_555
O1 C3 1_555 1_555
O2 C3 1_555 1_555
C4 O2 1_555 1_555
H4 C4 1_555 1_555
H5 C4 1_555 1_555
H6 C4 1_555 1_555
N1 C2 1_555 1_555
H7 N1 1_555 1_555
C5 N1 1_555 1_555
O3 C5 1_555 1_555
C6 C5 1_555 1_555
H8 C6 1_555 1_555
C7 C6 1_555 1_555
H9 C7 1_555 1_555
C8 C7 1_555 1_555
H10 C8 1_555 1_555
H11 C8 1_555 1_555
H12 C8 1_555 1_555
C9 C7 1_555 1_555
H13 C9 1_555 1_555
H14 C9 1_555 1_555
H15 C9 1_555 1_555
N2 C6 1_555 1_555
H16 N2 1_555 1_555
C10 N2 1_555 1_555
O4 C10 1_555 1_555
C11 C10 1_555 1_555
C12 C11 1_555 1_555
O5 C12 1_555 1_555
N3 C12 1_555 1_555
H17 N3 1_555 1_555
C13 N3 1_555 1_555
H18 C13 1_555 1_555
C14 C13 1_555 1_555
H19 C14 1_555 1_555
C15 C14 1_555 1_555
H20 C15 1_555 1_555
H21 C15 1_555 1_555
H22 C15 1_555 1_555
C16 C14 1_555 1_555
H23 C16 1_555 1_555
H24 C16 1_555 1_555
H25 C16 1_555 1_555
C17 C13 1_555 1_555
O6 C17 1_555 1_555
N4 C17 1_555 1_555
H26 N4 1_555 1_555
C18 N4 1_555 1_555
H27 C18 1_555 1_555
C19 C18 1_555 1_555
O7 C19 1_555 1_555
O8 C19 1_555 1_555
C20 O8 1_555 1_555
H28 C20 1_555 1_555
H29 C20 1_555 1_555
H30 C20 1_555 1_555
C21 C18 1_555 1_555
H31 C21 1_555 1_555
H32 C21 1_555 1_555
C22 C11 1_555 1_555
H33 C22 1_555 1_555
H34 C22 1_555 1_555
C23 C22 1_555 1_555
H35 C23 1_555 1_555
H36 C23 1_555 1_555
C24 C11 1_555 1_555
H37 C24 1_555 1_555
H38 C24 1_555 1_555
S2 S1 1_555 1_555
C21 S2 1_555 1_555
C23 C24 1_555 1_555

#END
