
#######################################################################
#
#                 Cambridge Crystallographic Data Centre
#                                CCDC 
#
#######################################################################
#
# If this CIF has been generated from an entry in the Cambridge 
# Structural Database, then it will include bibliographic, chemical, 
# crystal, experimental, refinement or atomic coordinate data resulting 
# from the CCDC's data processing and validation procedures.
#
#######################################################################

data_VUHHEN
_chemical_formula_moiety         'C16 H14 O6'
_chemical_name_systematic        
3,8-Dihydroxy-4,6-dimethoxy-1-methyl-9H-xanthen-9-one
_symmetry_cell_setting           monoclinic
_symmetry_space_group_name_H-M   'P 21/c'
_symmetry_Int_Tables_number      14
_space_group_name_Hall           '-P 2ybc'
loop_
_symmetry_equiv_pos_site_id
_symmetry_equiv_pos_as_xyz
1 x,y,z
2 -x,1/2+y,1/2-z
3 -x,-y,-z
4 x,1/2-y,1/2+z
_cell_length_a                   3.9220(3)
_cell_length_b                   20.3770(18)
_cell_length_c                   17.1870(16)
_cell_angle_alpha                90
_cell_angle_beta                 97.044(2)
_cell_angle_gamma                90
_cell_volume                     1363.19
_cell_formula_units_Z            4
loop_
_atom_site_label
_atom_site_type_symbol
_atom_site_fract_x
_atom_site_fract_y
_atom_site_fract_z
O1 O 0.3126(6) 0.53239(11) 0.31153(14)
O2 O 0.4846(8) 0.68848(13) 0.17043(16)
O3 O 0.4409(7) 0.40639(12) 0.27632(16)
O4 O 0.7066(8) 0.37819(14) 0.13891(17)
H1 H 0.6725 0.3541 0.1754
O5 O 0.2710(8) 0.76470(13) 0.27045(17)
H2 H 0.3221 0.7535 0.2275
O6 O -0.0802(8) 0.66657(14) 0.50005(16)
C1 C 0.4476(9) 0.52158(18) 0.2418(2)
C2 C 0.5111(9) 0.45655(18) 0.2275(2)
C3 C 0.6418(10) 0.44048(18) 0.1572(2)
C4 C 0.6978(10) 0.48991(19) 0.1045(2)
H3 H 0.7765 0.4784 0.0574
C5 C 0.6417(9) 0.55519(18) 0.1190(2)
C6 C 0.5076(8) 0.57259(17) 0.1905(2)
C7 C 0.4384(9) 0.63969(17) 0.2115(2)
C8 C 0.2945(8) 0.64856(17) 0.2862(2)
C9 C 0.2179(9) 0.71117(18) 0.3128(2)
C10 C 0.0884(10) 0.71922(19) 0.3845(2)
H4 H 0.0374 0.7608 0.4023
C11 C 0.0381(10) 0.6638(2) 0.4285(2)
C12 C 0.1111(9) 0.60136(19) 0.4039(2)
H5 H 0.0739 0.5648 0.4341
C13 C 0.6573(12) 0.4028(2) 0.3494(3)
H6 H 0.8931 0.4068 0.3403
H7 H 0.6234 0.3614 0.3741
H8 H 0.6007 0.4378 0.3829
C14 C 0.7167(10) 0.6054(2) 0.0594(2)
H9 H 0.7896 0.5837 0.0147
H10 H 0.8956 0.6342 0.0821
H11 H 0.5130 0.6305 0.0433
C15 C -0.1418(12) 0.7289(2) 0.5319(3)
H12 H 0.0679 0.7537 0.5385
H13 H -0.2242 0.7234 0.5818
H14 H -0.3110 0.7519 0.4970
C16 C 0.2410(9) 0.59483(18) 0.3330(2)
loop_
_geom_bond_atom_site_label_1
_geom_bond_atom_site_label_2
_geom_bond_site_symmetry_1
_geom_bond_site_symmetry_2
O1 C1 1_555 1_555
O2 C7 1_555 1_555
O3 C2 1_555 1_555
O4 H1 1_555 1_555
O5 H2 1_555 1_555
O6 C11 1_555 1_555
C1 C2 1_555 1_555
C2 C3 1_555 1_555
C3 O4 1_555 1_555
C4 C3 1_555 1_555
H3 C4 1_555 1_555
C5 C4 1_555 1_555
C6 C1 1_555 1_555
C7 C6 1_555 1_555
C8 C7 1_555 1_555
C9 O5 1_555 1_555
C10 C9 1_555 1_555
H4 C10 1_555 1_555
C11 C10 1_555 1_555
C12 C11 1_555 1_555
H5 C12 1_555 1_555
C13 O3 1_555 1_555
H6 C13 1_555 1_555
H7 C13 1_555 1_555
H8 C13 1_555 1_555
C14 C5 1_555 1_555
H9 C14 1_555 1_555
H10 C14 1_555 1_555
H11 C14 1_555 1_555
C15 O6 1_555 1_555
H12 C15 1_555 1_555
H13 C15 1_555 1_555
H14 C15 1_555 1_555
C16 O1 1_555 1_555
C5 C6 1_555 1_555
C8 C9 1_555 1_555
C8 C16 1_555 1_555
C12 C16 1_555 1_555

#END
