
#######################################################################
#
#                 Cambridge Crystallographic Data Centre
#                                CCDC 
#
#######################################################################
#
# If this CIF has been generated from an entry in the Cambridge 
# Structural Database, then it will include bibliographic, chemical, 
# crystal, experimental, refinement or atomic coordinate data resulting 
# from the CCDC's data processing and validation procedures.
#
#######################################################################

data_VUHHOX
_chemical_formula_moiety         'C21 H17 N5 O4'
_chemical_name_systematic        
(1S*,3R*)-1-(4-Methoxyphenyl)-3-(4-nitrophenyl)-5-oxodihydro-1H,5H-pyrazolo[1,2-a]pyrazole-2,2(3H)-dicarbonitrile
_symmetry_cell_setting           triclinic
_symmetry_space_group_name_H-M   'P -1'
_symmetry_Int_Tables_number      2
_space_group_name_Hall           '-P 1'
loop_
_symmetry_equiv_pos_site_id
_symmetry_equiv_pos_as_xyz
1 x,y,z
2 -x,-y,-z
_cell_length_a                   10.2504(6)
_cell_length_b                   10.7403(6)
_cell_length_c                   10.9216(7)
_cell_angle_alpha                86.6460(10)
_cell_angle_beta                 67.7200(10)
_cell_angle_gamma                63.2350(10)
_cell_volume                     984.205
_exptl_crystal_colour            colorless
_exptl_crystal_description       block
_cell_formula_units_Z            2
_exptl_crystal_recrystallization_method propan-2-ol
loop_
_atom_site_label
_atom_site_type_symbol
_atom_site_fract_x
_atom_site_fract_y
_atom_site_fract_z
N1 N 0.83233(12) 0.72138(10) 0.16935(10)
O1 O 0.82730(10) 0.58554(9) 0.01849(9)
N2 N 0.90478(12) 0.81169(10) 0.16510(10)
C1 C 1.01704(14) 0.62531(12) 0.27143(12)
C2 C 0.73602(14) 0.63517(13) 0.38420(12)
C3 C 1.21686(14) 0.94295(13) 0.23861(13)
H1 H 1.1778 1.0264 0.2920
C4 C 1.06616(13) 0.70686(12) 0.15298(12)
H2 H 1.1194 0.6439 0.0688
O2 O 1.49063(11) 0.90644(10) 0.15411(11)
C5 C 1.17041(14) 0.76756(12) 0.15800(12)
C6 C 0.87482(14) 0.61474(12) 0.25554(12)
H3 H 0.9165 0.5222 0.2067
C7 C 0.84969(14) 0.68131(13) 0.04352(12)
C8 C 0.90157(15) 0.87737(13) 0.04178(13)
H4 H 0.9947 0.8917 -0.0017
H5 H 0.8072 0.9677 0.0631
C9 C 1.11364(14) 0.89296(13) 0.23621(12)
H6 H 1.0053 0.9442 0.2876
C10 C 0.96553(14) 0.70575(13) 0.40104(12)
C11 C 1.15025(15) 0.48610(13) 0.26032(12)
C12 C 1.37870(15) 0.86697(13) 0.16058(14)
N3 N 1.25543(15) 0.38018(12) 0.25239(12)
C13 C 0.73730(16) 0.51990(14) 0.44962(13)
H7 H 0.8243 0.4314 0.4151
N4 N 0.93037(15) 0.76567(13) 0.50056(12)
N5 N 0.34422(16) 0.68861(16) 0.73761(12)
O3 O 0.34236(15) 0.58491(14) 0.78826(11)
C14 C 0.48190(16) 0.66920(15) 0.61476(13)
C15 C 1.43706(15) 0.74157(15) 0.08127(15)
H8 H 1.5454 0.6906 0.0294
C16 C 0.90021(17) 0.77526(15) -0.04894(13)
H9 H 0.8253 0.8253 -0.0900
H10 H 1.0051 0.7213 -0.1186
C17 C 1.33349(15) 0.69317(14) 0.07989(14)
H11 H 1.3728 0.6098 0.0262
C18 C 0.60892(17) 0.53645(15) 0.56644(13)
H12 H 0.6087 0.4599 0.6109
C19 C 0.60624(16) 0.76724(15) 0.43564(14)
H13 H 0.6056 0.8442 0.3917
C20 C 0.47750(17) 0.78523(16) 0.55210(14)
H14 H 0.3903 0.8736 0.5871
O4 O 0.23753(15) 0.80893(15) 0.78336(13)
C21 C 1.43588(18) 1.03847(16) 0.2245(2)
H15 H 1.3679 1.1117 0.1896
H16 H 1.5252 1.0529 0.2140
H17 H 1.3774 1.0404 0.3175
loop_
_geom_bond_atom_site_label_1
_geom_bond_atom_site_label_2
_geom_bond_site_symmetry_1
_geom_bond_site_symmetry_2
N1 N2 1_555 1_555
O1 C7 1_555 1_555
N2 C4 1_555 1_555
C1 C4 1_555 1_555
C2 C6 1_555 1_555
C3 H1 1_555 1_555
C4 H2 1_555 1_555
O2 C12 1_555 1_555
C5 C4 1_555 1_555
C6 N1 1_555 1_555
H3 C6 1_555 1_555
C7 N1 1_555 1_555
C8 N2 1_555 1_555
H4 C8 1_555 1_555
H5 C8 1_555 1_555
C9 C3 1_555 1_555
H6 C9 1_555 1_555
C10 C1 1_555 1_555
C11 C1 1_555 1_555
C12 C3 1_555 1_555
N3 C11 1_555 1_555
C13 C2 1_555 1_555
H7 C13 1_555 1_555
N4 C10 1_555 1_555
N5 O3 1_555 1_555
C14 N5 1_555 1_555
C15 C12 1_555 1_555
H8 C15 1_555 1_555
C16 C7 1_555 1_555
H9 C16 1_555 1_555
H10 C16 1_555 1_555
C17 C5 1_555 1_555
H11 C17 1_555 1_555
C18 C13 1_555 1_555
H12 C18 1_555 1_555
C19 C2 1_555 1_555
H13 C19 1_555 1_555
C20 C14 1_555 1_555
H14 C20 1_555 1_555
O4 N5 1_555 1_555
C21 O2 1_555 1_555
H15 C21 1_555 1_555
H16 C21 1_555 1_555
H17 C21 1_555 1_555
C1 C6 1_555 1_555
C5 C9 1_555 1_555
C8 C16 1_555 1_555
C14 C18 1_555 1_555
C15 C17 1_555 1_555
C19 C20 1_555 1_555

#END
