
#######################################################################
#
#                 Cambridge Crystallographic Data Centre
#                                CCDC 
#
#######################################################################
#
# If this CIF has been generated from an entry in the Cambridge 
# Structural Database, then it will include bibliographic, chemical, 
# crystal, experimental, refinement or atomic coordinate data resulting 
# from the CCDC's data processing and validation procedures.
#
#######################################################################

data_VUHQEW
_chemical_formula_moiety         'C13 H12 Br1 Cl1 N2 O2 S1'
_chemical_name_systematic        
(S)-5-bromo-2-chloro-N-(1-phenylethyl)pyridine-3-sulfonamide
_symmetry_cell_setting           monoclinic
_symmetry_space_group_name_H-M   'P 21'
_symmetry_Int_Tables_number      4
_space_group_name_Hall           'P 2yb'
loop_
_symmetry_equiv_pos_site_id
_symmetry_equiv_pos_as_xyz
1 x,y,z
2 -x,1/2+y,-z
_cell_length_a                   9.063(3)
_cell_length_b                   7.423(3)
_cell_length_c                   11.614(4)
_cell_angle_alpha                90
_cell_angle_beta                 108.668(8)
_cell_angle_gamma                90
_cell_volume                     740.221
_exptl_crystal_colour            colorless
_cell_formula_units_Z            2
_exptl_crystal_recrystallization_method chloroform
loop_
_atom_site_label
_atom_site_type_symbol
_atom_site_fract_x
_atom_site_fract_y
_atom_site_fract_z
H1 H 1.034(4) 0.881(5) 0.611(3)
C1 C 1.2017(3) 1.0628(5) 0.7920(3)
H2 H 1.2893 1.0149 0.7725
H3 H 1.2372 1.1181 0.8708
H4 H 1.1500 1.1511 0.7323
Br1 Br 0.48052(4) 0.60978(7) 0.85884(3)
S1 S 0.95190(6) 0.63138(8) 0.64831(5)
Cl1 Cl 0.70408(8) 0.85039(11) 0.42278(6)
C2 C 0.7052(3) 0.6292(4) 0.7354(2)
H5 H 0.7714 0.5677 0.8017
C3 C 0.8390(3) 1.0944(3) 0.7419(2)
H6 H 0.8533 1.1285 0.6692
C4 C 0.5554(3) 0.6732(4) 0.7305(2)
C5 C 0.7538(2) 0.6794(3) 0.6385(2)
N1 N 0.5053(2) 0.8129(3) 0.53751(19)
C6 C 0.7970(3) 0.9984(4) 0.9593(3)
H7 H 0.7833 0.9670 1.0328
C7 C 0.6490(3) 0.7724(3) 0.5434(2)
C8 C 0.4591(3) 0.7629(4) 0.6314(3)
H8 H 0.3581 0.7899 0.6294
C9 C 0.7095(3) 1.1555(4) 0.7697(3)
H9 H 0.6371 1.2289 0.7150
C10 C 0.6877(3) 1.1081(5) 0.8775(3)
H10 H 0.6007 1.1489 0.8957
C11 C 1.0885(3) 0.9108(3) 0.7924(2)
N2 N 1.0465(2) 0.8199(3) 0.67239(19)
C12 C 0.9484(3) 0.9815(3) 0.8231(2)
C13 C 0.9260(3) 0.9360(4) 0.9317(2)
H11 H 0.9982 0.8627 0.9869
O1 O 0.9507(2) 0.5674(3) 0.53177(18)
O2 O 1.0135(2) 0.5216(3) 0.75393(19)
H12 H 1.139(3) 0.822(3) 0.858(2)
loop_
_geom_bond_atom_site_label_1
_geom_bond_atom_site_label_2
_geom_bond_site_symmetry_1
_geom_bond_site_symmetry_2
H1 N2 1_555 1_555
C1 H2 1_555 1_555
H3 C1 1_555 1_555
H4 C1 1_555 1_555
Br1 C4 1_555 1_555
S1 C5 1_555 1_555
Cl1 C7 1_555 1_555
C2 H5 1_555 1_555
C3 H6 1_555 1_555
C4 C2 1_555 1_555
C5 C2 1_555 1_555
N1 C7 1_555 1_555
C6 H7 1_555 1_555
C7 C5 1_555 1_555
C8 C4 1_555 1_555
H8 C8 1_555 1_555
C9 C3 1_555 1_555
H9 C9 1_555 1_555
C10 C6 1_555 1_555
H10 C10 1_555 1_555
C11 C1 1_555 1_555
N2 S1 1_555 1_555
C12 C3 1_555 1_555
C13 C6 1_555 1_555
H11 C13 1_555 1_555
O1 S1 1_555 1_555
O2 S1 1_555 1_555
H12 C11 1_555 1_555
N1 C8 1_555 1_555
C9 C10 1_555 1_555
C11 N2 1_555 1_555
C11 C12 1_555 1_555
C12 C13 1_555 1_555

#END
