
#######################################################################
#
#                 Cambridge Crystallographic Data Centre
#                                CCDC 
#
#######################################################################
#
# If this CIF has been generated from an entry in the Cambridge 
# Structural Database, then it will include bibliographic, chemical, 
# crystal, experimental, refinement or atomic coordinate data resulting 
# from the CCDC's data processing and validation procedures.
#
#######################################################################

data_VUHYAA
_chemical_name_common            
'5,11,17,23-Tetra-t-butyl-25,27-bis(2-aminoethoxy)-26,28-(3,6,9-trioxaundecane-1,11-dioxy)-2,8,14,20-tetrathiacalix(4)arene acetone solvate'
_chemical_formula_moiety         'C52 H72 N2 O7 S4'
_chemical_name_systematic        
2,2'-((19,25,31,36-tetra-t-butyl-3,6,9,12,15-pentaoxa-22,28,33,39-tetrathiahexacyclo[15.15.7.1^23,27^.1^34,38^.0^2,29^.0^16,21^]hentetraconta-1,16,18,20,23(41),24,26,29,31,34(40),35,37-dodecaene-40,41-diyl)bis(oxy))diethanamine
_symmetry_cell_setting           orthorhombic
_symmetry_space_group_name_H-M   'P n m n'
_symmetry_Int_Tables_number      58
_space_group_name_Hall           '-P 2n 2n'
loop_
_symmetry_equiv_pos_site_id
_symmetry_equiv_pos_as_xyz
1 x,y,z
2 1/2-x,1/2-y,1/2+z
3 1/2+x,1/2-y,1/2-z
4 -x,y,-z
5 -x,-y,-z
6 1/2+x,1/2+y,1/2-z
7 1/2-x,1/2+y,1/2+z
8 x,-y,z
_cell_length_a                   13.896(6)
_cell_length_b                   15.222(6)
_cell_length_c                   35.009(15)
_cell_angle_alpha                90
_cell_angle_beta                 90
_cell_angle_gamma                90
_cell_volume                     7405.28
_exptl_crystal_colour            colorless
_exptl_crystal_description       prism
_cell_formula_units_Z            4
loop_
_atom_site_label
_atom_site_type_symbol
_atom_site_fract_x
_atom_site_fract_y
_atom_site_fract_z
C1 C 1.0991(8) 0.0000 0.1128(2)
H1 H 1.0584 0.0514 0.1102
C2 C 1.1398(6) 0.0000 0.15040(18)
H2 H 1.1792 -0.0518 0.1543
C3 C 1.0809(4) 0.0000 0.21402(15)
C4 C 1.0895(3) 0.0790(2) 0.23427(11)
C5 C 1.1076(3) 0.0778(2) 0.27260(11)
H3 H 1.1134 0.1310 0.2855
C6 C 1.1179(4) 0.0000 0.29328(14)
C7 C 1.1312(4) 0.0000 0.33704(16)
C8 C 0.8081(6) 0.0000 0.0898(2)
H4 H 0.8481 0.0517 0.0931
C9 C 0.7289(5) 0.0000 0.11901(18)
H5 H 0.6889 0.0517 0.1160
C10 C 0.7081(4) 0.0000 0.18498(16)
C11 C 0.6752(3) 0.0791(2) 0.20020(12)
C12 C 0.6064(3) 0.0773(2) 0.22948(12)
H6 H 0.5847 0.1303 0.2395
C13 C 0.5694(4) 0.0000 0.24406(17)
C14 C 0.4869(5) 0.0000 0.27280(18)
C15 C 0.9544(3) 0.2909(3) 0.08135(12)
C16 C 0.9344(3) 0.2478(2) 0.11987(11)
C17 C 1.0092(3) 0.2276(2) 0.14472(11)
H7 H 1.0722 0.2397 0.1375
C18 C 0.9916(3) 0.1892(2) 0.18056(10)
C19 C 0.8981(3) 0.1703(2) 0.19149(11)
C20 C 0.8227(3) 0.1899(2) 0.16696(12)
C21 C 0.8416(3) 0.2280(2) 0.13147(11)
H8 H 0.7906 0.2404 0.1152
C22 C 0.8678(4) 0.1852(3) 0.25842(13)
H9 H 0.8196 0.2298 0.2533
H10 H 0.9281 0.2142 0.2645
C23 C 0.8373(4) 0.1290(4) 0.29047(13)
H11 H 0.7732 0.1062 0.2857
H12 H 0.8810 0.0797 0.2931
C24 C 0.7674(5) 0.1568(4) 0.35106(16)
H13 H 0.7069 0.1470 0.3380
H14 H 0.7588 0.2067 0.3679
C25 C 0.7888(4) 0.0780(4) 0.37492(16)
H15 H 0.8540 0.0816 0.3846
H16 H 0.7452 0.0762 0.3965
C26 C 1.1936(8) 0.0733(7) 0.3486(2)
H17 H 1.1623 0.1280 0.3429
H18 H 1.2534 0.0700 0.3349
H19 H 1.2059 0.0699 0.3755
C27 C 1.0413(7) 0.0370(11) 0.3548(3)
C28 C 0.4977(9) 0.0753(6) 0.3000(3)
H20 H 0.4957 0.1296 0.2861
H21 H 0.5582 0.0705 0.3131
H22 H 0.4462 0.0740 0.3183
C29 C 0.8728(10) 0.3240(14) 0.0640(4)
H23 H 0.8229 0.2803 0.0644
H24 H 0.8873 0.3392 0.0380
H25 H 0.8515 0.3753 0.0775
C30 C 1.0401(10) 0.3378(11) 0.0797(3)
H26 H 1.0904 0.3043 0.0915
H27 H 1.0326 0.3926 0.0929
H28 H 1.0565 0.3489 0.0535
C31 C 0.9741(19) 0.2222(8) 0.0521(3)
H29 H 1.0280 0.1873 0.0601
H30 H 0.9885 0.2497 0.0281
H31 H 0.9185 0.1853 0.0493
N1 N 1.1681(8) 0.0000 0.0822(2)
H32 H 1.2287 0.0000 0.0872
H33 H 1.1488 0.0000 0.0589
N2 N 0.7648(8) 0.0000 0.0513(2)
H34 H 0.7033 0.0000 0.0487
H35 H 0.8012 0.0000 0.0314
O1 O 1.0599(3) 0.0000 0.17565(11)
O2 O 0.7729(3) 0.0000 0.15479(11)
O3 O 0.8794(2) 0.12970(17) 0.22592(7)
O4 O 0.8374(3) 0.1786(3) 0.32372(9)
O5 O 0.7780(4) 0.0000 0.35274(13)
S1 S 1.09364(9) 0.18274(7) 0.21077(3)
S2 S 0.69926(8) 0.18366(7) 0.18032(4)
H1G H 1.0584 -0.0514 0.1102
H2G H 1.1792 0.0518 0.1543
C4G C 1.0895(3) -0.0790(2) 0.23427(11)
C5G C 1.1076(3) -0.0778(2) 0.27260(11)
H3G H 1.1134 -0.1310 0.2855
H4G H 0.8481 -0.0517 0.0931
H5G H 0.6889 -0.0517 0.1160
C11G C 0.6752(3) -0.0791(2) 0.20020(12)
C12G C 0.6064(3) -0.0773(2) 0.22948(12)
H6G H 0.5847 -0.1303 0.2395
C15G C 0.9544(3) -0.2909(3) 0.08135(12)
C16G C 0.9344(3) -0.2478(2) 0.11987(11)
C17G C 1.0092(3) -0.2276(2) 0.14472(11)
H7G H 1.0722 -0.2397 0.1375
C18G C 0.9916(3) -0.1892(2) 0.18056(10)
C19G C 0.8981(3) -0.1703(2) 0.19149(11)
C20G C 0.8227(3) -0.1899(2) 0.16696(12)
C21G C 0.8416(3) -0.2280(2) 0.13147(11)
H8G H 0.7906 -0.2404 0.1152
C22G C 0.8678(4) -0.1852(3) 0.25842(13)
H9G H 0.8196 -0.2298 0.2533
H10G H 0.9281 -0.2142 0.2645
C23G C 0.8373(4) -0.1290(4) 0.29047(13)
H11G H 0.7732 -0.1062 0.2857
H12G H 0.8810 -0.0797 0.2931
C24G C 0.7674(5) -0.1568(4) 0.35106(16)
H13G H 0.7069 -0.1470 0.3380
H14G H 0.7588 -0.2067 0.3679
C25G C 0.7888(4) -0.0780(4) 0.37492(16)
H15G H 0.8540 -0.0816 0.3846
H16G H 0.7452 -0.0762 0.3965
C26G C 1.1936(8) -0.0733(7) 0.3486(2)
H17G H 1.1623 -0.1280 0.3429
H18G H 1.2534 -0.0700 0.3349
H19G H 1.2059 -0.0699 0.3755
C27G C 1.0413(7) -0.0370(11) 0.3548(3)
C28G C 0.4977(9) -0.0753(6) 0.3000(3)
H20G H 0.4957 -0.1296 0.2861
H21G H 0.5582 -0.0705 0.3131
H22G H 0.4462 -0.0740 0.3183
C29G C 0.8728(10) -0.3240(14) 0.0640(4)
H23G H 0.8229 -0.2803 0.0644
H24G H 0.8873 -0.3392 0.0380
H25G H 0.8515 -0.3753 0.0775
C30G C 1.0401(10) -0.3378(11) 0.0797(3)
H26G H 1.0904 -0.3043 0.0915
H27G H 1.0326 -0.3926 0.0929
H28G H 1.0565 -0.3489 0.0535
C31G C 0.9741(19) -0.2222(8) 0.0521(3)
H29G H 1.0280 -0.1873 0.0601
H30G H 0.9885 -0.2497 0.0281
H31G H 0.9185 -0.1853 0.0493
O3G O 0.8794(2) -0.12970(17) 0.22592(7)
O4G O 0.8374(3) -0.1786(3) 0.32372(9)
S1G S 1.09364(9) -0.18274(7) 0.21077(3)
S2G S 0.69926(8) -0.18366(7) 0.18032(4)
H36? H 1.0584 0.0514 0.1102
H37? H 1.1792 -0.0518 0.1543
H38? H 0.8481 0.0517 0.0931
H39? H 0.6889 0.0517 0.1160
C32? C 0.3974(7) 0.0404(9) 0.2539(3)
loop_
_geom_bond_atom_site_label_1
_geom_bond_atom_site_label_2
_geom_bond_site_symmetry_1
_geom_bond_site_symmetry_2
C1 H1 1_555 1_555
C2 C1 1_555 1_555
H2 C2 1_555 1_555
C3 C4 1_555 1_555
C4 C5 1_555 1_555
C5 H3 1_555 1_555
C6 C5 1_555 1_555
C7 C6 1_555 1_555
C8 H4 1_555 1_555
C9 C8 1_555 1_555
H5 C9 1_555 1_555
C10 C11 1_555 1_555
C11 C12 1_555 1_555
C12 H6 1_555 1_555
C13 C12 1_555 1_555
C14 C13 1_555 1_555
C15 C16 1_555 1_555
C16 C17 1_555 1_555
C17 H7 1_555 1_555
C18 C17 1_555 1_555
C19 C18 1_555 1_555
C20 C19 1_555 1_555
C21 C16 1_555 1_555
H8 C21 1_555 1_555
C22 H9 1_555 1_555
H10 C22 1_555 1_555
C23 C22 1_555 1_555
H11 C23 1_555 1_555
H12 C23 1_555 1_555
C24 H13 1_555 1_555
H14 C24 1_555 1_555
C25 C24 1_555 1_555
H15 C25 1_555 1_555
H16 C25 1_555 1_555
C26 C7 1_555 1_555
H17 C26 1_555 1_555
H18 C26 1_555 1_555
H19 C26 1_555 1_555
C27 C7 1_555 1_555
C28 C14 1_555 1_555
H20 C28 1_555 1_555
H21 C28 1_555 1_555
H22 C28 1_555 1_555
C29 C15 1_555 1_555
H23 C29 1_555 1_555
H24 C29 1_555 1_555
H25 C29 1_555 1_555
C30 C15 1_555 1_555
H26 C30 1_555 1_555
H27 C30 1_555 1_555
H28 C30 1_555 1_555
C31 C15 1_555 1_555
H29 C31 1_555 1_555
H30 C31 1_555 1_555
H31 C31 1_555 1_555
N1 C1 1_555 1_555
H32 N1 1_555 1_555
H33 N1 1_555 1_555
N2 C8 1_555 1_555
H34 N2 1_555 1_555
H35 N2 1_555 1_555
O1 C2 1_555 1_555
O2 C9 1_555 1_555
O3 C19 1_555 1_555
O4 C23 1_555 1_555
O5 C25 1_555 1_555
S1 C4 1_555 1_555
S2 C11 1_555 1_555
H1G C1 1_555 1_555
H2G C2 1_555 1_555
C4G C3 1_555 1_555
C5G C6 1_555 1_555
H3G C5G 1_555 1_555
H4G C8 1_555 1_555
H5G C9 1_555 1_555
C11G C10 1_555 1_555
C12G C13 1_555 1_555
H6G C12G 1_555 1_555
C15G C16G 1_555 1_555
C16G C17G 1_555 1_555
C17G H7G 1_555 1_555
C18G C17G 1_555 1_555
C19G C18G 1_555 1_555
C20G C19G 1_555 1_555
C21G C16G 1_555 1_555
H8G C21G 1_555 1_555
C22G H9G 1_555 1_555
H10G C22G 1_555 1_555
C23G C22G 1_555 1_555
H11G C23G 1_555 1_555
H12G C23G 1_555 1_555
C24G H13G 1_555 1_555
H14G C24G 1_555 1_555
C25G O5 1_555 1_555
H15G C25G 1_555 1_555
H16G C25G 1_555 1_555
C26G C7 1_555 1_555
H17G C26G 1_555 1_555
H18G C26G 1_555 1_555
H19G C26G 1_555 1_555
C27G C7 1_555 1_555
C28G C14 1_555 1_555
H20G C28G 1_555 1_555
H21G C28G 1_555 1_555
H22G C28G 1_555 1_555
C29G C15G 1_555 1_555
H23G C29G 1_555 1_555
H24G C29G 1_555 1_555
H25G C29G 1_555 1_555
C30G C15G 1_555 1_555
H26G C30G 1_555 1_555
H27G C30G 1_555 1_555
H28G C30G 1_555 1_555
C31G C15G 1_555 1_555
H29G C31G 1_555 1_555
H30G C31G 1_555 1_555
H31G C31G 1_555 1_555
O3G C19G 1_555 1_555
O4G C23G 1_555 1_555
S1G C4G 1_555 1_555
S2G C11G 1_555 1_555
C3 O1 1_555 1_555
C10 O2 1_555 1_555
C18 S1 1_555 1_555
C20 C21 1_555 1_555
C20 S2 1_555 1_555
C22 O3 1_555 1_555
C24 O4 1_555 1_555
C27 C27G 1_555 1_555
C4G C5G 1_555 1_555
C11G C12G 1_555 1_555
C18G S1G 1_555 1_555
C20G C21G 1_555 1_555
C20G S2G 1_555 1_555
C22G O3G 1_555 1_555
C24G C25G 1_555 1_555
C24G O4G 1_555 1_555

#END
