
#######################################################################
#
#                 Cambridge Crystallographic Data Centre
#                                CCDC 
#
#######################################################################
#
# If this CIF has been generated from an entry in the Cambridge 
# Structural Database, then it will include bibliographic, chemical, 
# crystal, experimental, refinement or atomic coordinate data resulting 
# from the CCDC's data processing and validation procedures.
#
#######################################################################

data_VUJNUL
_chemical_formula_moiety         'C16 H12 F3 N1 O2'
_chemical_name_systematic        
(Z)-2-nitro-1-(1-phenylprop-1-en-1-yl)-4-(trifluoromethyl)benzene
_symmetry_cell_setting           triclinic
_symmetry_space_group_name_H-M   'P -1'
_symmetry_Int_Tables_number      2
_space_group_name_Hall           '-P 1'
loop_
_symmetry_equiv_pos_site_id
_symmetry_equiv_pos_as_xyz
1 x,y,z
2 -x,-y,-z
_cell_length_a                   8.1909(8)
_cell_length_b                   9.5693(9)
_cell_length_c                   10.5301(8)
_cell_angle_alpha                75.880(7)
_cell_angle_beta                 72.823(8)
_cell_angle_gamma                67.507(9)
_cell_volume                     720.496
_exptl_crystal_colour            yellow
_cell_formula_units_Z            2
loop_
_atom_site_label
_atom_site_type_symbol
_atom_site_fract_x
_atom_site_fract_y
_atom_site_fract_z
C1 C 0.0620(4) 0.6689(4) 0.3435(3)
C2 C 0.2167(5) 0.6183(4) 0.2447(3)
C3 C 0.3745(5) 0.6297(4) 0.2604(4)
H1 H 0.4835 0.5987 0.1941
C4 C 0.3767(5) 0.6845(4) 0.3693(4)
H2 H 0.4868 0.6889 0.3780
C5 C 0.2193(5) 0.7330(4) 0.4656(3)
C6 C 0.0600(5) 0.7252(4) 0.4530(4)
H3 H -0.0492 0.7580 0.5186
C7 C 0.2220(6) 0.7920(5) 0.5834(4)
C8 C 0.2275(5) 0.5580(4) 0.1226(3)
C9 C 0.2237(5) 0.6523(4) 0.0055(4)
H4 H 0.2394 0.6085 -0.0710
C10 C 0.1975(7) 0.8182(4) -0.0174(4)
H5 H 0.1521 0.8565 0.0691
H6 H 0.1095 0.8736 -0.0739
H7 H 0.3135 0.8341 -0.0626
C11 C 0.2597(5) 0.3924(4) 0.1364(4)
C12 C 0.2249(5) 0.3328(5) 0.0417(4)
H8 H 0.1736 0.4000 -0.0299
C13 C 0.2647(6) 0.1777(5) 0.0519(5)
H9 H 0.2415 0.1393 -0.0136
C14 C 0.3376(7) 0.0770(5) 0.1554(5)
H10 H 0.3662 -0.0300 0.1605
C15 C 0.3683(6) 0.1340(5) 0.2514(4)
H11 H 0.4164 0.0660 0.3240
C16 C 0.3292(5) 0.2903(4) 0.2423(4)
H12 H 0.3501 0.3281 0.3093
F1 F 0.0671(5) 0.8709(6) 0.6443(5)
F2 F 0.3203(7) 0.8790(5) 0.5521(3)
F3 F 0.2928(8) 0.6838(4) 0.6717(4)
N1 N -0.1127(4) 0.6650(4) 0.3353(3)
O1 O -0.1202(5) 0.5882(6) 0.2689(4)
O2 O -0.2440(6) 0.7346(10) 0.4024(7)
loop_
_geom_bond_atom_site_label_1
_geom_bond_atom_site_label_2
_geom_bond_site_symmetry_1
_geom_bond_site_symmetry_2
C1 C2 1_555 1_555
C2 C3 1_555 1_555
C3 H1 1_555 1_555
C4 C3 1_555 1_555
H2 C4 1_555 1_555
C5 C4 1_555 1_555
C6 C1 1_555 1_555
H3 C6 1_555 1_555
C7 C5 1_555 1_555
C8 C2 1_555 1_555
C9 C8 1_555 1_555
H4 C9 1_555 1_555
C10 C9 1_555 1_555
H5 C10 1_555 1_555
H6 C10 1_555 1_555
H7 C10 1_555 1_555
C11 C8 1_555 1_555
C12 C11 1_555 1_555
H8 C12 1_555 1_555
C13 C12 1_555 1_555
H9 C13 1_555 1_555
C14 C13 1_555 1_555
H10 C14 1_555 1_555
C15 C14 1_555 1_555
H11 C15 1_555 1_555
C16 C11 1_555 1_555
H12 C16 1_555 1_555
F1 C7 1_555 1_555
F2 C7 1_555 1_555
F3 C7 1_555 1_555
N1 C1 1_555 1_555
O1 N1 1_555 1_555
O2 N1 1_555 1_555
C5 C6 1_555 1_555
C15 C16 1_555 1_555

#END
