
#######################################################################
#
#                 Cambridge Crystallographic Data Centre
#                                CCDC 
#
#######################################################################
#
# If this CIF has been generated from an entry in the Cambridge 
# Structural Database, then it will include bibliographic, chemical, 
# crystal, experimental, refinement or atomic coordinate data resulting 
# from the CCDC's data processing and validation procedures.
#
#######################################################################

data_VUJTUR
_chemical_name_common            
"Benzil dihydrazone-N,N$'!-bis(4-chloro-1-formylbenzene)"
_chemical_formula_moiety         'C28 H20 Cl2 N4'
_chemical_name_systematic        
1,1'-(1,2-Diphenylethane-1,2-diylidene)bis((4-chlorobenzylidene)hydrazine)
_symmetry_cell_setting           triclinic
_symmetry_space_group_name_H-M   'P -1'
_symmetry_Int_Tables_number      2
_space_group_name_Hall           '-P 1'
loop_
_symmetry_equiv_pos_site_id
_symmetry_equiv_pos_as_xyz
1 x,y,z
2 -x,-y,-z
_cell_length_a                   9.661(5)
_cell_length_b                   11.492(6)
_cell_length_c                   13.018(7)
_cell_angle_alpha                111.040(7)
_cell_angle_beta                 109.532(7)
_cell_angle_gamma                93.954(7)
_cell_volume                     1241.64
_exptl_crystal_colour            yellow
_exptl_crystal_description       block
_cell_formula_units_Z            2
loop_
_atom_site_label
_atom_site_type_symbol
_atom_site_fract_x
_atom_site_fract_y
_atom_site_fract_z
C1 C 0.3977(3) 0.5324(3) 0.2655(3)
C2 C 0.4360(4) 0.5111(3) 0.1689(3)
C3 C 0.4965(5) 0.6119(4) 0.1527(3)
C4 C 0.5180(4) 0.7344(3) 0.2321(3)
C5 C 0.4801(3) 0.7565(3) 0.3290(3)
C6 C 0.4206(2) 0.6563(2) 0.3487(2)
C7 C 0.3868(2) 0.6822(2) 0.4556(2)
C8 C 0.2211(3) 0.5467(3) 0.5866(3)
C9 C 0.1943(3) 0.5707(2) 0.6951(2)
C10 C 0.2739(3) 0.6789(3) 0.7981(3)
C11 C 0.2449(3) 0.7056(3) 0.8989(3)
C12 C 0.1313(3) 0.6229(3) 0.8966(3)
C13 C 0.0518(4) 0.5145(3) 0.7972(3)
C14 C 0.0830(3) 0.4876(3) 0.6963(3)
C15 C 0.6769(3) 0.7390(3) 0.6461(2)
C16 C 0.8145(3) 0.7579(3) 0.7349(3)
C17 C 0.8721(3) 0.8713(3) 0.8311(3)
C18 C 0.7947(4) 0.9675(3) 0.8383(3)
C19 C 0.6583(3) 0.9498(3) 0.7502(2)
C20 C 0.5964(2) 0.8344(2) 0.65252(19)
C21 C 0.4506(2) 0.8128(2) 0.55597(19)
C22 C 0.1910(3) 0.9688(3) 0.4592(2)
C23 C 0.0526(3) 0.9583(2) 0.3630(2)
C24 C -0.0154(3) 1.0615(3) 0.3738(3)
C25 C -0.1458(4) 1.0557(4) 0.2843(3)
C26 C -0.2066(3) 0.9459(4) 0.1840(3)
C27 C -0.1423(3) 0.8417(4) 0.1700(3)
C28 C -0.0126(3) 0.8486(3) 0.2605(3)
N1 N 0.3121(2) 0.59119(18) 0.46430(17)
N2 N 0.2974(2) 0.63244(19) 0.57530(18)
N3 N 0.3862(2) 0.90753(18) 0.55885(17)
N4 N 0.2515(2) 0.87315(19) 0.45753(18)
Cl1 Cl 0.08981(13) 0.66030(9) 1.02296(9)
Cl2 Cl -0.36990(9) 0.93629(11) 0.06886(10)
H1 H 0.354(3) 0.465(3) 0.280(3)
H2 H 0.422(3) 0.424(3) 0.121(3)
H3 H 0.528(4) 0.596(4) 0.089(4)
H4 H 0.566(3) 0.810(3) 0.231(3)
H5 H 0.496(3) 0.839(3) 0.388(3)
H6 H 0.177(3) 0.467(2) 0.522(2)
H7 H 0.354(3) 0.735(2) 0.801(2)
H8 H 0.298(3) 0.778(3) 0.974(3)
H9 H -0.034(3) 0.457(3) 0.790(3)
H10 H 0.029(3) 0.413(3) 0.629(2)
H11 H 0.640(2) 0.659(2) 0.583(2)
H12 H 0.866(3) 0.690(3) 0.732(2)
H13 H 0.965(3) 0.882(3) 0.888(3)
H14 H 0.830(3) 1.050(3) 0.906(3)
H15 H 0.604(3) 1.015(3) 0.756(2)
H16 H 0.238(3) 1.050(2) 0.528(2)
H17 H 0.031(3) 1.139(3) 0.443(2)
H18 H -0.184(3) 1.134(3) 0.295(3)
H19 H -0.185(4) 0.761(3) 0.102(3)
H20 H 0.027(3) 0.783(3) 0.250(3)
loop_
_geom_bond_atom_site_label_1
_geom_bond_atom_site_label_2
_geom_bond_site_symmetry_1
_geom_bond_site_symmetry_2
C1 C2 1_555 1_555
C2 C3 1_555 1_555
C3 C4 1_555 1_555
C4 C5 1_555 1_555
C5 C6 1_555 1_555
C6 C1 1_555 1_555
C7 C6 1_555 1_555
C8 C9 1_555 1_555
C9 C10 1_555 1_555
C10 C11 1_555 1_555
C11 C12 1_555 1_555
C12 C13 1_555 1_555
C13 C14 1_555 1_555
C14 C9 1_555 1_555
C15 C16 1_555 1_555
C16 C17 1_555 1_555
C17 C18 1_555 1_555
C18 C19 1_555 1_555
C19 C20 1_555 1_555
C20 C15 1_555 1_555
C21 C7 1_555 1_555
C22 C23 1_555 1_555
C23 C24 1_555 1_555
C24 C25 1_555 1_555
C25 C26 1_555 1_555
C26 C27 1_555 1_555
C27 C28 1_555 1_555
C28 C23 1_555 1_555
N1 C7 1_555 1_555
N2 C8 1_555 1_555
N3 C21 1_555 1_555
N4 C22 1_555 1_555
Cl1 C12 1_555 1_555
Cl2 C26 1_555 1_555
H1 C1 1_555 1_555
H2 C2 1_555 1_555
H3 C3 1_555 1_555
H4 C4 1_555 1_555
H5 C5 1_555 1_555
H6 C8 1_555 1_555
H7 C10 1_555 1_555
H8 C11 1_555 1_555
H9 C13 1_555 1_555
H10 C14 1_555 1_555
H11 C15 1_555 1_555
H12 C16 1_555 1_555
H13 C17 1_555 1_555
H14 C18 1_555 1_555
H15 C19 1_555 1_555
H16 C22 1_555 1_555
H17 C24 1_555 1_555
H18 C25 1_555 1_555
H19 C27 1_555 1_555
H20 C28 1_555 1_555
C20 C21 1_555 1_555
N1 N2 1_555 1_555
N3 N4 1_555 1_555

#END
