
#######################################################################
#
#                 Cambridge Crystallographic Data Centre
#                                CCDC 
#
#######################################################################
#
# If this CIF has been generated from an entry in the Cambridge 
# Structural Database, then it will include bibliographic, chemical, 
# crystal, experimental, refinement or atomic coordinate data resulting 
# from the CCDC's data processing and validation procedures.
#
#######################################################################

data_VUJWUS01
_chemical_formula_moiety         'C25 H22 O1'
_chemical_name_systematic        5,12-Methano-(2.2.2)paracyclophan-25-one
_symmetry_cell_setting           monoclinic
_symmetry_space_group_name_H-M   'P 21/c'
_symmetry_Int_Tables_number      14
_space_group_name_Hall           '-P 2ybc'
loop_
_symmetry_equiv_pos_site_id
_symmetry_equiv_pos_as_xyz
1 x,y,z
2 x,1/2-y,1/2+z
3 -x,-y,-z
4 -x,1/2+y,1/2-z
_cell_length_a                   10.679(5)
_cell_length_b                   26.120(11)
_cell_length_c                   13.050(6)
_cell_angle_alpha                90
_cell_angle_beta                 92.95(4)
_cell_angle_gamma                90
_cell_volume                     3635.28
_exptl_crystal_colour            colorless
_exptl_crystal_description       prisms
_cell_formula_units_Z            8
loop_
_atom_site_label
_atom_site_type_symbol
_atom_site_fract_x
_atom_site_fract_y
_atom_site_fract_z
O1 O 1.02987(18) 0.85002(7) 0.86519(14)
C1 C 0.6355(2) 0.94936(12) 0.6678(2)
H1 H 0.5710 0.9727 0.6889
H2 H 0.6087 0.9148 0.6826
C2 C 0.6501(3) 0.95489(12) 0.5517(2)
H3 H 0.5725 0.9443 0.5159
H4 H 0.6629 0.9908 0.5361
C3 C 0.7566(2) 0.92434(11) 0.51081(18)
C4 C 0.8618(3) 0.94882(11) 0.4795(2)
H5 H 0.8665 0.9843 0.4833
C5 C 0.9612(2) 0.92154(12) 0.4423(2)
H6 H 1.0309 0.9394 0.4217
C6 C 0.9603(3) 0.86908(11) 0.43480(18)
C7 C 0.8534(3) 0.84451(11) 0.4660(2)
H7 H 0.8485 0.8090 0.4625
C8 C 0.7541(3) 0.87192(12) 0.5021(2)
H8 H 0.6833 0.8543 0.5212
C9 C 1.0715(3) 0.84019(12) 0.3971(2)
H9 H 1.1228 0.8636 0.3596
H10 H 1.0415 0.8137 0.3498
C10 C 1.1540(3) 0.81508(11) 0.4843(2)
H11 H 1.1088 0.7866 0.5126
H12 H 1.2297 0.8017 0.4563
C11 C 1.1884(2) 0.85213(11) 0.5677(2)
C12 C 1.2727(2) 0.89124(13) 0.5572(2)
H13 H 1.3215 0.8917 0.5002
C13 C 1.2870(2) 0.92962(13) 0.6285(3)
H14 H 1.3459 0.9552 0.6189
C14 C 1.2152(2) 0.93152(11) 0.7159(2)
C15 C 1.1377(2) 0.89008(10) 0.73186(19)
C16 C 1.1251(2) 0.85130(10) 0.6583(2)
H15 H 1.0723 0.8239 0.6703
C17 C 1.2251(3) 0.97834(13) 0.7820(3)
H16 H 1.2223 1.0079 0.7370
H17 H 1.3073 0.9781 0.8174
C18 C 1.1292(3) 0.98636(12) 0.8614(2)
H18 H 1.1391 1.0206 0.8895
H19 H 1.1454 0.9623 0.9171
C19 C 0.9944(3) 0.97970(11) 0.8196(2)
C20 C 0.9137(3) 1.01946(11) 0.7947(2)
H20 H 0.9385 1.0529 0.8090
C21 C 0.7963(3) 1.01031(11) 0.7487(2)
H21 H 0.7439 1.0378 0.7314
C22 C 0.7554(2) 0.96053(11) 0.72784(18)
C23 C 0.8339(2) 0.92069(10) 0.75699(17)
H22 H 0.8071 0.8871 0.7471
C24 C 0.9524(2) 0.93035(10) 0.80101(17)
C25 C 1.0421(2) 0.88717(10) 0.81085(19)
O2 O 0.51101(17) 0.57287(7) 0.82737(14)
C26 C 0.9094(2) 0.65527(11) 0.6280(2)
H23 H 0.9748 0.6406 0.5882
H24 H 0.9358 0.6524 0.7000
C27 C 0.8932(2) 0.71223(11) 0.5999(2)
H25 H 0.9694 0.7303 0.6213
H26 H 0.8824 0.7152 0.5259
C28 C 0.7835(2) 0.73805(9) 0.6477(2)
C29 C 0.6675(2) 0.74033(10) 0.5965(2)
H27 H 0.6568 0.7257 0.5317
C30 C 0.5667(2) 0.76393(10) 0.6393(2)
H28 H 0.4901 0.7652 0.6020
C31 C 0.5766(2) 0.78557(9) 0.73516(19)
C32 C 0.6925(3) 0.78389(10) 0.7862(2)
H29 H 0.7028 0.7986 0.8510
C33 C 0.7947(3) 0.76067(10) 0.7432(2)
H30 H 0.8720 0.7604 0.7795
C34 C 0.4635(3) 0.80991(10) 0.7817(2)
H31 H 0.4103 0.8250 0.7272
H32 H 0.4919 0.8373 0.8274
C35 C 0.3850(3) 0.77146(10) 0.8420(2)
H33 H 0.4320 0.7616 0.9045
H34 H 0.3083 0.7880 0.8613
C36 C 0.3528(2) 0.72462(10) 0.7804(2)
C37 C 0.2682(2) 0.72618(11) 0.6963(2)
H35 H 0.2175 0.7548 0.6859
C38 C 0.2578(2) 0.68604(11) 0.6278(2)
H36 H 0.2000 0.6884 0.5722
C39 C 0.3307(2) 0.64240(9) 0.63912(19)
C40 C 0.4074(2) 0.63874(9) 0.72918(19)
C41 C 0.4163(2) 0.67933(10) 0.79708(19)
H37 H 0.4674 0.6759 0.8565
C42 C 0.3227(2) 0.60347(10) 0.5536(2)
H38 H 0.3255 0.6219 0.4893
H39 H 0.2410 0.5873 0.5544
C43 C 0.4209(2) 0.56114(11) 0.5530(2)
H40 H 0.4050 0.5368 0.6069
H41 H 0.4128 0.5431 0.4880
C44 C 0.5531(2) 0.58087(9) 0.56855(19)
C45 C 0.6365(3) 0.58670(10) 0.4906(2)
H42 H 0.6144 0.5752 0.4247
C46 C 0.7517(3) 0.60940(10) 0.5108(2)
H43 H 0.8046 0.6141 0.4571
C47 C 0.7912(2) 0.62551(9) 0.6082(2)
C48 C 0.7111(2) 0.61654(9) 0.68647(19)
H44 H 0.7368 0.6249 0.7536
C49 C 0.5947(2) 0.59562(9) 0.66673(18)
C50 C 0.5019(2) 0.59726(9) 0.74853(19)
loop_
_geom_bond_atom_site_label_1
_geom_bond_atom_site_label_2
_geom_bond_site_symmetry_1
_geom_bond_site_symmetry_2
O1 C25 1_555 1_555
C1 H1 1_555 1_555
H2 C1 1_555 1_555
C2 C1 1_555 1_555
H3 C2 1_555 1_555
H4 C2 1_555 1_555
C3 C2 1_555 1_555
C4 C3 1_555 1_555
H5 C4 1_555 1_555
C5 C4 1_555 1_555
H6 C5 1_555 1_555
C6 C5 1_555 1_555
C7 C6 1_555 1_555
H7 C7 1_555 1_555
C8 C3 1_555 1_555
H8 C8 1_555 1_555
C9 C6 1_555 1_555
H9 C9 1_555 1_555
H10 C9 1_555 1_555
C10 C9 1_555 1_555
H11 C10 1_555 1_555
H12 C10 1_555 1_555
C11 C10 1_555 1_555
C12 C11 1_555 1_555
H13 C12 1_555 1_555
C13 C12 1_555 1_555
H14 C13 1_555 1_555
C14 C13 1_555 1_555
C15 C14 1_555 1_555
C16 C11 1_555 1_555
H15 C16 1_555 1_555
C17 C14 1_555 1_555
H16 C17 1_555 1_555
H17 C17 1_555 1_555
C18 C17 1_555 1_555
H18 C18 1_555 1_555
H19 C18 1_555 1_555
C19 C18 1_555 1_555
C20 C19 1_555 1_555
H20 C20 1_555 1_555
C21 C20 1_555 1_555
H21 C21 1_555 1_555
C22 C1 1_555 1_555
C23 C22 1_555 1_555
H22 C23 1_555 1_555
C24 C19 1_555 1_555
C25 C15 1_555 1_555
O2 C50 1_555 1_555
C26 H23 1_555 1_555
H24 C26 1_555 1_555
C27 C26 1_555 1_555
H25 C27 1_555 1_555
H26 C27 1_555 1_555
C28 C27 1_555 1_555
C29 C28 1_555 1_555
H27 C29 1_555 1_555
C30 C29 1_555 1_555
H28 C30 1_555 1_555
C31 C30 1_555 1_555
C32 C31 1_555 1_555
H29 C32 1_555 1_555
C33 C28 1_555 1_555
H30 C33 1_555 1_555
C34 C31 1_555 1_555
H31 C34 1_555 1_555
H32 C34 1_555 1_555
C35 C34 1_555 1_555
H33 C35 1_555 1_555
H34 C35 1_555 1_555
C36 C35 1_555 1_555
C37 C36 1_555 1_555
H35 C37 1_555 1_555
C38 C37 1_555 1_555
H36 C38 1_555 1_555
C39 C38 1_555 1_555
C40 C39 1_555 1_555
C41 C36 1_555 1_555
H37 C41 1_555 1_555
C42 C39 1_555 1_555
H38 C42 1_555 1_555
H39 C42 1_555 1_555
C43 C42 1_555 1_555
H40 C43 1_555 1_555
H41 C43 1_555 1_555
C44 C43 1_555 1_555
C45 C44 1_555 1_555
H42 C45 1_555 1_555
C46 C45 1_555 1_555
H43 C46 1_555 1_555
C47 C26 1_555 1_555
C48 C47 1_555 1_555
H44 C48 1_555 1_555
C49 C44 1_555 1_555
C50 C40 1_555 1_555
C7 C8 1_555 1_555
C15 C16 1_555 1_555
C21 C22 1_555 1_555
C23 C24 1_555 1_555
C24 C25 1_555 1_555
C32 C33 1_555 1_555
C40 C41 1_555 1_555
C46 C47 1_555 1_555
C48 C49 1_555 1_555
C49 C50 1_555 1_555

#END
