
#######################################################################
#
#                 Cambridge Crystallographic Data Centre
#                                CCDC 
#
#######################################################################
#
# If this CIF has been generated from an entry in the Cambridge 
# Structural Database, then it will include bibliographic, chemical, 
# crystal, experimental, refinement or atomic coordinate data resulting 
# from the CCDC's data processing and validation procedures.
#
#######################################################################

data_VUJXAZ
_chemical_formula_moiety         'C25 H24 O1'
_chemical_name_systematic        endo-5,12-Methano(2.2.2)paracyclophan-25-ol
_symmetry_cell_setting           monoclinic
_symmetry_space_group_name_H-M   'C c'
_symmetry_Int_Tables_number      9
_space_group_name_Hall           'C -2yc'
loop_
_symmetry_equiv_pos_site_id
_symmetry_equiv_pos_as_xyz
1 x,y,z
2 1/2+x,1/2+y,z
3 x,-y,1/2+z
4 1/2+x,1/2-y,1/2+z
_cell_length_a                   15.714(2)
_cell_length_b                   31.126(5)
_cell_length_c                   11.476(2)
_cell_angle_alpha                90
_cell_angle_beta                 96.51(2)
_cell_angle_gamma                90
_cell_volume                     5576.88
_exptl_crystal_colour            colorless
_cell_formula_units_Z            12
loop_
_atom_site_label
_atom_site_type_symbol
_atom_site_fract_x
_atom_site_fract_y
_atom_site_fract_z
O1 O 0.5762 0.5991(1) 0.2849
C1 C 0.2028(3) 0.5997(2) 0.1000(5)
C2 C 0.2524(3) 0.6300(2) 0.1889(5)
C3 C 0.3327(3) 0.6481(1) 0.1462(4)
C4 C 0.4130(3) 0.6314(1) 0.1876(4)
C5 C 0.4865(3) 0.6445(1) 0.1422(4)
C6 C 0.4819(3) 0.6748(1) 0.0532(4)
C7 C 0.4025(3) 0.6924(2) 0.0151(5)
C8 C 0.3293(3) 0.6789(2) 0.0607(5)
C9 C 0.5613(3) 0.6884(2) 0.0008(5)
C10 C 0.6137(3) 0.6539(2) -0.0533(5)
C11 C 0.5971(3) 0.6067(2) -0.0312(4)
C12 C 0.5791(3) 0.5906(1) 0.0763(4)
C13 C 0.5569(3) 0.5480(2) 0.0867(4)
C14 C 0.5538(3) 0.5195(1) -0.0065(5)
C15 C 0.5777(3) 0.5348(2) -0.1112(5)
C16 C 0.5981(3) 0.5776(2) -0.1231(5)
C17 C 0.5213(3) 0.4744(1) 0.0050(5)
C18 C 0.4293(3) 0.4690(1) -0.0599(4)
C19 C 0.3675(3) 0.5015(2) -0.0209(4)
C20 C 0.3355(3) 0.4979(2) 0.0857(5)
C21 C 0.2811(3) 0.5286(2) 0.1237(5)
C22 C 0.2578(3) 0.5648(2) 0.0568(5)
C23 C 0.2891(4) 0.5680(2) -0.0496(5)
C24 C 0.3431(4) 0.5374(2) -0.0865(5)
C25 C 0.5711(3) 0.6220(1) 0.1753(4)
H1 H 0.5479 0.6155 0.3268
H2 H 0.1787 0.6165 0.0340
H3 H 0.1564 0.5867 0.1347
H4 H 0.2676 0.6144 0.2605
H5 H 0.2164 0.6536 0.2059
H6 H 0.4173 0.6098 0.2477
H7 H 0.3991 0.7146 -0.0433
H8 H 0.2751 0.6914 0.0320
H9 H 0.5437 0.7087 -0.0601
H10 H 0.5985 0.7022 0.0616
H11 H 0.6055 0.6582 -0.1367
H12 H 0.6726 0.6592 -0.0247
H13 H 0.5426 0.5377 0.1609
H14 H 0.5792 0.5154 -0.1761
H15 H 0.6149 0.5872 -0.1967
H16 H 0.5601 0.4548 -0.0259
H17 H 0.5197 0.4678 0.0864
H18 H 0.4090 0.4405 -0.0467
H19 H 0.4320 0.4724 -0.1426
H20 H 0.3513 0.4733 0.1336
H21 H 0.2592 0.5250 0.1979
H22 H 0.2716 0.5918 -0.0997
H23 H 0.3674 0.5415 -0.1587
H24 H 0.6168 0.6426 0.1778
O2 O 0.7631(2) 0.5856(1) 0.3443(3)
C26 C 0.9838(4) 0.6918(2) 0.6876(5)
C27 C 0.8867(4) 0.6945(2) 0.6483(5)
C28 C 0.8433(3) 0.6520(2) 0.6540(5)
C29 C 0.8196(3) 0.6278(2) 0.5544(4)
C30 C 0.7890(3) 0.5865(2) 0.5595(4)
C31 C 0.7822(3) 0.5665(2) 0.6672(4)
C32 C 0.8042(3) 0.5914(2) 0.7681(5)
C33 C 0.8332(4) 0.6327(2) 0.7613(5)
C34 C 0.7527(4) 0.5211(2) 0.6777(5)
C35 C 0.7867(3) 0.4859(2) 0.6018(5)
C36 C 0.8589(3) 0.4968(2) 0.5293(4)
C37 C 0.8516(3) 0.5314(1) 0.4513(4)
C38 C 0.9193(3) 0.5421(1) 0.3890(4)
C39 C 0.9944(3) 0.5185(2) 0.3995(4)
C40 C 0.9994(3) 0.4834(2) 0.4735(5)
C41 C 0.9335(3) 0.4731(2) 0.5376(5)
C42 C 1.0707(3) 0.5337(2) 0.3415(5)
C43 C 1.1380(3) 0.5558(2) 0.4319(5)
C44 C 1.1015(3) 0.5914(2) 0.4998(5)
C45 C 1.0872(3) 0.6320(2) 0.4531(5)
C46 C 1.0509(4) 0.6638(2) 0.5154(5)
C47 C 1.0278(3) 0.6574(2) 0.6237(5)
C48 C 1.0418(4) 0.6167(2) 0.6716(5)
C49 C 1.0786(3) 0.5845(2) 0.6119(5)
C50 C 0.7729(3) 0.5598(1) 0.4478(4)
H25 H 0.7095 0.5886 0.3492
H26 H 0.9912 0.6852 0.7699
H27 H 1.0102 0.7191 0.6766
H28 H 0.8792 0.7043 0.5685
H29 H 0.8592 0.7146 0.6952
H30 H 0.8261 0.6402 0.4793
H31 H 0.7994 0.5784 0.8429
H32 H 0.8450 0.6492 0.8320
H33 H 0.7681 0.5127 0.7579
H34 H 0.6915 0.5212 0.6607
H35 H 0.7393 0.4763 0.5481
H36 H 0.8066 0.4627 0.6529
H37 H 0.9136 0.5662 0.3363
H38 H 1.0496 0.4656 0.4782
H39 H 0.9391 0.4486 0.5889
H40 H 1.0957 0.5096 0.3061
H41 H 1.0530 0.5542 0.2810
H42 H 1.1850 0.5664 0.3934
H43 H 1.1600 0.5343 0.4873
H44 H 1.1022 0.6375 0.3756
H45 H 1.0425 0.6918 0.4799
H46 H 1.0238 0.6108 0.7472
H47 H 1.0896 0.5568 0.6470
H48 H 0.7233 0.5421 0.4514
O3 O 0.3059(2) 0.7254(1) 0.3492(3)
C51 C 0.4320(3) 0.8536(2) 0.6865(5)
C52 C 0.3407(4) 0.8495(2) 0.6253(5)
C53 C 0.3079(3) 0.8040(2) 0.6348(5)
C54 C 0.3098(3) 0.7754(1) 0.5416(4)
C55 C 0.2930(3) 0.7321(1) 0.5535(4)
C56 C 0.2753(3) 0.7157(2) 0.6623(5)
C57 C 0.2688(3) 0.7452(2) 0.7524(5)
C58 C 0.2846(3) 0.7883(2) 0.7385(5)
C59 C 0.2651(4) 0.6685(2) 0.6874(5)
C60 C 0.3144(4) 0.6351(2) 0.6300(6)
C61 C 0.3939(3) 0.6478(1) 0.5795(5)
C62 C 0.3907(3) 0.6788(1) 0.4912(4)
C63 C 0.4652(3) 0.6919(1) 0.4463(4)
C64 C 0.5445(3) 0.6745(2) 0.4878(5)
C65 C 0.5472(3) 0.6431(2) 0.5736(5)
C66 C 0.4732(3) 0.6306(1) 0.6188(5)
C67 C 0.6244(3) 0.6936(2) 0.4488(2)
C68 C 0.6682(3) 0.7241(2) 0.5427(5)
C69 C 0.6092(3) 0.7587(2) 0.5788(5)
C70 C 0.5861(3) 0.7938(2) 0.5097(5)
C71 C 0.5301(3) 0.8246(2) 0.5453(5)
C72 C 0.4943(3) 0.8209(2) 0.6479(5)
C73 C 0.5171(4) 0.7851(2) 0.7168(4)
C74 C 0.5738(4) 0.7550(2) 0.6828(5)
C75 C 0.3062(3) 0.7017(1) 0.4555(4)
H49 H 0.3128 0.7105 0.2857
H50 H 0.4304 0.8509 0.7695
H51 H 0.4539 0.8816 0.6715
H52 H 0.3403 0.8565 0.5438
H53 H 0.3034 0.8691 0.6593
H54 H 0.3221 0.7863 0.4671
H55 H 0.2524 0.7350 0.8256
H56 H 0.2795 0.8077 0.8023
H57 H 0.2054 0.6622 0.6677
H58 H 0.2800 0.6651 0.7704
H59 H 0.2764 0.6232 0.5667
H60 H 0.3299 0.6132 0.6874
H61 H 0.4614 0.7134 0.3860
H62 H 0.6008 0.6297 0.6004
H63 H 0.4760 0.6094 0.6799
H64 H 0.6625 0.6709 0.4325
H65 H 0.6098 0.7096 0.3778
H66 H 0.7167 0.7374 0.5135
H67 H 0.6888 0.7074 0.6105
H68 H 0.6098 0.7970 0.4366
H69 H 0.5153 0.8492 0.4966
H70 H 0.4927 0.7815 0.7892
H71 H 0.5877 0.7306 0.7323
H72 H 0.2610 0.6808 0.4467
loop_
_geom_bond_atom_site_label_1
_geom_bond_atom_site_label_2
_geom_bond_site_symmetry_1
_geom_bond_site_symmetry_2
O1 C25 1_555 1_555
C1 C2 1_555 1_555
C2 C3 1_555 1_555
C3 C4 1_555 1_555
C4 C5 1_555 1_555
C5 C6 1_555 1_555
C6 C7 1_555 1_555
C7 C8 1_555 1_555
C8 C3 1_555 1_555
C9 C6 1_555 1_555
C10 C9 1_555 1_555
C11 C10 1_555 1_555
C12 C11 1_555 1_555
C13 C12 1_555 1_555
C14 C13 1_555 1_555
C15 C14 1_555 1_555
C16 C11 1_555 1_555
C17 C14 1_555 1_555
C18 C17 1_555 1_555
C19 C18 1_555 1_555
C20 C19 1_555 1_555
C21 C20 1_555 1_555
C22 C1 1_555 1_555
C23 C22 1_555 1_555
C24 C19 1_555 1_555
C25 C5 1_555 1_555
O2 C50 1_555 1_555
C26 C27 1_555 1_555
C27 C28 1_555 1_555
C28 C29 1_555 1_555
C29 C30 1_555 1_555
C30 C31 1_555 1_555
C31 C32 1_555 1_555
C32 C33 1_555 1_555
C33 C28 1_555 1_555
C34 C31 1_555 1_555
C35 C34 1_555 1_555
C36 C35 1_555 1_555
C37 C36 1_555 1_555
C38 C37 1_555 1_555
C39 C38 1_555 1_555
C40 C39 1_555 1_555
C41 C36 1_555 1_555
C42 C39 1_555 1_555
C43 C42 1_555 1_555
C44 C43 1_555 1_555
C45 C44 1_555 1_555
C46 C45 1_555 1_555
C47 C26 1_555 1_555
C48 C47 1_555 1_555
C49 C44 1_555 1_555
C50 C30 1_555 1_555
O3 C75 1_555 1_555
C51 C52 1_555 1_555
C52 C53 1_555 1_555
C53 C54 1_555 1_555
C54 C55 1_555 1_555
C55 C56 1_555 1_555
C56 C57 1_555 1_555
C57 C58 1_555 1_555
C58 C53 1_555 1_555
C59 C56 1_555 1_555
C60 C59 1_555 1_555
C61 C60 1_555 1_555
C62 C61 1_555 1_555
C63 C62 1_555 1_555
C64 C63 1_555 1_555
C65 C64 1_555 1_555
C66 C61 1_555 1_555
C67 C64 1_555 1_555
C68 C67 1_555 1_555
C69 C68 1_555 1_555
C70 C69 1_555 1_555
C71 C70 1_555 1_555
C72 C51 1_555 1_555
C73 C72 1_555 1_555
C74 C69 1_555 1_555
C75 C55 1_555 1_555
H1 O1 1_555 1_555
H2 C1 1_555 1_555
H3 C1 1_555 1_555
H4 C2 1_555 1_555
H5 C2 1_555 1_555
H6 C4 1_555 1_555
H7 C7 1_555 1_555
H8 C8 1_555 1_555
H9 C9 1_555 1_555
H10 C9 1_555 1_555
H11 C10 1_555 1_555
H12 C10 1_555 1_555
H13 C13 1_555 1_555
H14 C15 1_555 1_555
H15 C16 1_555 1_555
H16 C17 1_555 1_555
H17 C17 1_555 1_555
H18 C18 1_555 1_555
H19 C18 1_555 1_555
H20 C20 1_555 1_555
H21 C21 1_555 1_555
H22 C23 1_555 1_555
H23 C24 1_555 1_555
H24 C25 1_555 1_555
H25 O2 1_555 1_555
H26 C26 1_555 1_555
H27 C26 1_555 1_555
H28 C27 1_555 1_555
H29 C27 1_555 1_555
H30 C29 1_555 1_555
H31 C32 1_555 1_555
H32 C33 1_555 1_555
H33 C34 1_555 1_555
H34 C34 1_555 1_555
H35 C35 1_555 1_555
H36 C35 1_555 1_555
H37 C38 1_555 1_555
H38 C40 1_555 1_555
H39 C41 1_555 1_555
H40 C42 1_555 1_555
H41 C42 1_555 1_555
H42 C43 1_555 1_555
H43 C43 1_555 1_555
H44 C45 1_555 1_555
H45 C46 1_555 1_555
H46 C48 1_555 1_555
H47 C49 1_555 1_555
H48 C50 1_555 1_555
H49 O3 1_555 1_555
H50 C51 1_555 1_555
H51 C51 1_555 1_555
H52 C52 1_555 1_555
H53 C52 1_555 1_555
H54 C54 1_555 1_555
H55 C57 1_555 1_555
H56 C58 1_555 1_555
H57 C59 1_555 1_555
H58 C59 1_555 1_555
H59 C60 1_555 1_555
H60 C60 1_555 1_555
H61 C63 1_555 1_555
H62 C65 1_555 1_555
H63 C66 1_555 1_555
H64 C67 1_555 1_555
H65 C67 1_555 1_555
H66 C68 1_555 1_555
H67 C68 1_555 1_555
H68 C70 1_555 1_555
H69 C71 1_555 1_555
H70 C73 1_555 1_555
H71 C74 1_555 1_555
H72 C75 1_555 1_555
C12 C25 1_555 1_555
C15 C16 1_555 1_555
C21 C22 1_555 1_555
C23 C24 1_555 1_555
C37 C50 1_555 1_555
C40 C41 1_555 1_555
C46 C47 1_555 1_555
C48 C49 1_555 1_555
C62 C75 1_555 1_555
C65 C66 1_555 1_555
C71 C72 1_555 1_555
C73 C74 1_555 1_555

#END
