
#######################################################################
#
#                 Cambridge Crystallographic Data Centre
#                                CCDC 
#
#######################################################################
#
# If this CIF has been generated from an entry in the Cambridge 
# Structural Database, then it will include bibliographic, chemical, 
# crystal, experimental, refinement or atomic coordinate data resulting 
# from the CCDC's data processing and validation procedures.
#
#######################################################################

data_VUJZEG
_chemical_formula_moiety         'C18 H15 N7'
_chemical_name_systematic        
9-Ethyl-3,6-bis(1H-1,2,4-triazol-1-yl)-9H-carbazole
_symmetry_cell_setting           monoclinic
_symmetry_space_group_name_H-M   'P 21/c'
_symmetry_Int_Tables_number      14
_space_group_name_Hall           '-P 2ybc'
loop_
_symmetry_equiv_pos_site_id
_symmetry_equiv_pos_as_xyz
1 x,y,z
2 -x,1/2+y,1/2-z
3 -x,-y,-z
4 x,1/2-y,1/2+z
_cell_length_a                   14.822(5)
_cell_length_b                   12.118(5)
_cell_length_c                   8.858(5)
_cell_angle_alpha                90
_cell_angle_beta                 100.005(5)
_cell_angle_gamma                90
_cell_volume                     1566.82
_exptl_crystal_colour            colorless
_exptl_crystal_description       needle
_cell_formula_units_Z            4
loop_
_atom_site_label
_atom_site_type_symbol
_atom_site_fract_x
_atom_site_fract_y
_atom_site_fract_z
C1 C 0.1190(3) 0.8047(3) -0.0348(4)
H1 H 0.0979 0.7358 -0.0713
N1 N 0.2949(2) 0.9071(3) 0.2632(4)
C2 C 0.0799(3) 0.9002(3) -0.0997(5)
N2 N 0.3238(2) 0.4502(4) 0.2924(4)
C3 C 0.2228(3) 0.9197(3) 0.1426(5)
C4 C 0.2494(2) 0.7353(3) 0.1794(4)
C5 C 0.3791(3) 0.7441(4) 0.3899(5)
H2 H 0.4207 0.7851 0.4584
C6 C 0.3823(3) 0.6311(4) 0.3904(5)
H3 H 0.4264 0.5945 0.4601
C7 C 0.1914(3) 0.8150(3) 0.0877(4)
C8 C 0.3192(3) 0.5709(3) 0.2863(4)
N3 N 0.2944(3) 0.2782(4) 0.2584(5)
C9 C -0.0968(4) 0.8241(5) -0.3888(6)
H4 H -0.1372 0.7730 -0.4421
C10 C 0.1107(3) 1.0049(4) -0.0456(5)
H5 H 0.0822 1.0677 -0.0918
C11 C 0.3471(3) 0.9958(3) 0.3501(5)
H6 H 0.3605 0.9756 0.4577
H7 H 0.3104 1.0626 0.3410
N4 N -0.0359(3) 0.7961(3) -0.2705(5)
C12 C 0.2525(3) 0.6213(3) 0.1815(5)
H8 H 0.2107 0.5798 0.1140
N5 N 0.3875(4) 0.4022(4) 0.3936(7)
N6 N -0.0980(3) 0.9312(4) -0.4293(4)
C13 C 0.3665(5) 0.2991(5) 0.3671(9)
H9 H 0.4002 0.2426 0.4213
C14 C -0.0321(3) 0.9712(4) -0.3255(6)
H10 H -0.0143 1.0449 -0.3198
C15 C 0.4350(4) 1.0179(5) 0.2937(6)
H11 H 0.4705 0.9512 0.2990
H12 H 0.4692 1.0735 0.3564
H13 H 0.4218 1.0430 0.1894
C16 C 0.3120(3) 0.7961(3) 0.2842(4)
C17 C 0.2752(4) 0.3771(4) 0.2271(6)
H14 H 0.2241 0.3949 0.1544
N7 N 0.0064(2) 0.8928(3) -0.2286(4)
C18 C 0.1827(3) 1.0158(3) 0.0754(5)
H15 H 0.2038 1.0850 0.1108
loop_
_geom_bond_atom_site_label_1
_geom_bond_atom_site_label_2
_geom_bond_site_symmetry_1
_geom_bond_site_symmetry_2
C1 H1 1_555 1_555
N1 C3 1_555 1_555
C2 C1 1_555 1_555
N2 C8 1_555 1_555
C3 C7 1_555 1_555
C4 C7 1_555 1_555
C5 H2 1_555 1_555
C6 C5 1_555 1_555
H3 C6 1_555 1_555
C7 C1 1_555 1_555
C8 C6 1_555 1_555
N3 C13 1_555 1_555
C9 H4 1_555 1_555
C10 C2 1_555 1_555
H5 C10 1_555 1_555
C11 N1 1_555 1_555
H6 C11 1_555 1_555
H7 C11 1_555 1_555
N4 C9 1_555 1_555
C12 C4 1_555 1_555
H8 C12 1_555 1_555
N5 N2 1_555 1_555
N6 C9 1_555 1_555
C13 N5 1_555 1_555
H9 C13 1_555 1_555
C14 N6 1_555 1_555
H10 C14 1_555 1_555
C15 C11 1_555 1_555
H11 C15 1_555 1_555
H12 C15 1_555 1_555
H13 C15 1_555 1_555
C16 N1 1_555 1_555
C17 N2 1_555 1_555
H14 C17 1_555 1_555
N7 C2 1_555 1_555
C18 C3 1_555 1_555
H15 C18 1_555 1_555
C4 C16 1_555 1_555
C5 C16 1_555 1_555
C8 C12 1_555 1_555
N3 C17 1_555 1_555
C10 C18 1_555 1_555
N4 N7 1_555 1_555
C14 N7 1_555 1_555

#END
