
#######################################################################
#
#                 Cambridge Crystallographic Data Centre
#                                CCDC 
#
#######################################################################
#
# If this CIF has been generated from an entry in the Cambridge 
# Structural Database, then it will include bibliographic, chemical, 
# crystal, experimental, refinement or atomic coordinate data resulting 
# from the CCDC's data processing and validation procedures.
#
#######################################################################

data_VUJZOQ
_chemical_name_common            
"bis(Diaminomethaniminium) 4,4'-diazene-1,2-diyldibenzenesulfonate bis(coumarin 1) clathrate"
_chemical_formula_moiety         
'2(C1 H6 N3 1+),C12 H8 N2 O6 S2 2-,2(C14 H17 N1 O2)'
_chemical_name_systematic        
"bis(Guanidinium) 4,4'-azobenzenedisulfonate bis(7-diethylamino-4-methylcoumarin) clathrate"
_symmetry_cell_setting           monoclinic
_symmetry_space_group_name_H-M   'P 21'
_symmetry_Int_Tables_number      4
_space_group_name_Hall           'P 2yb'
loop_
_symmetry_equiv_pos_site_id
_symmetry_equiv_pos_as_xyz
1 x,y,z
2 -x,1/2+y,-z
_cell_length_a                   7.4073(5)
_cell_length_b                   26.7956(17)
_cell_length_c                   12.3008(7)
_cell_angle_alpha                90
_cell_angle_beta                 106.830(1)
_cell_angle_gamma                90
_cell_volume                     2336.93
_exptl_crystal_colour            red-orange
_exptl_crystal_description       rod
_cell_formula_units_Z            2
loop_
_atom_site_label
_atom_site_type_symbol
_atom_site_fract_x
_atom_site_fract_y
_atom_site_fract_z
C1 C 0.6522(4) 0.74482(11) 0.3251(2)
N1 N 0.4754(3) 0.75428(10) 0.2687(2)
H1 H 0.4490 0.7711 0.2045
H2 H 0.3837 0.7438 0.2951
N2 N 0.6930(3) 0.71906(10) 0.4219(2)
H3 H 0.6017 0.7083 0.4484
H4 H 0.8114 0.7128 0.4593
N3 N 0.7904(3) 0.76044(10) 0.2859(2)
H5 H 0.7646 0.7773 0.2218
H6 H 0.9083 0.7540 0.3239
C2 C 0.6633(4) 0.23437(11) 0.1637(2)
N4 N 0.8408(3) 0.22456(11) 0.2189(2)
H7 H 0.9291 0.2280 0.1847
H8 H 0.8708 0.2146 0.2901
N5 N 0.6178(3) 0.24928(10) 0.0578(2)
H9 H 0.4995 0.2560 0.0214
H10 H 0.7057 0.2526 0.0231
N6 N 0.5325(3) 0.22932(10) 0.2162(2)
H11 H 0.4140 0.2360 0.1801
H12 H 0.5638 0.2193 0.2874
C3 C 0.1167(4) 0.33959(10) 0.0646(2)
C4 C -0.0182(4) 0.35854(11) 0.1111(2)
H13 H -0.1270 0.3395 0.1096
C5 C 0.0068(5) 0.40532(12) 0.1597(3)
H14 H -0.0855 0.4188 0.1912
C6 C 0.1675(5) 0.43266(11) 0.1625(2)
C7 C 0.2979(5) 0.41401(12) 0.1128(3)
H15 H 0.4050 0.4334 0.1125
C8 C 0.2737(4) 0.36695(11) 0.0631(3)
H16 H 0.3634 0.3539 0.0289
C9 C 0.1998(4) 0.63245(10) 0.4278(2)
C10 C 0.0362(6) 0.60667(13) 0.4186(3)
H17 H -0.0597 0.6211 0.4458
C11 C 0.0107(6) 0.55992(13) 0.3701(3)
H18 H -0.1025 0.5420 0.3638
C12 C 0.1511(5) 0.53905(11) 0.3302(3)
C13 C 0.3165(5) 0.56438(14) 0.3419(3)
H19 H 0.4140 0.5497 0.3167
C14 C 0.3412(5) 0.61117(14) 0.3902(3)
H20 H 0.4554 0.6289 0.3978
N7 N 0.2099(4) 0.47990(10) 0.2158(2)
N8 N 0.1058(5) 0.49116(10) 0.2762(2)
S1 S 0.09054(8) 0.27746(2) 0.01192(5)
O1 O -0.1030(2) 0.27162(7) -0.05670(15)
O2 O 0.1343(2) 0.24609(7) 0.11343(16)
O3 O 0.2284(2) 0.27139(7) -0.05018(15)
S2 S 0.22320(9) 0.69473(2) 0.47735(5)
O4 O 0.1798(3) 0.72572(7) 0.37613(16)
O5 O 0.0887(2) 0.70111(8) 0.54155(15)
O6 O 0.4172(2) 0.70060(8) 0.54687(15)
C15 C 0.5398(6) 0.95446(17) 0.4368(4)
H21 H 0.6425 0.9332 0.4365
C16 C 0.4050(7) 0.93855(19) 0.4876(5)
C17 C 0.2533(6) 0.97114(16) 0.4825(4)
H22 H 0.1569 0.9610 0.5146
C18 C 0.2424(4) 1.01673(14) 0.4325(3)
H23 H 0.1387 1.0378 0.4313
C19 C 0.3788(4) 1.03382(12) 0.3826(3)
C20 C 0.5254(4) 1.00057(14) 0.3872(3)
C21 C 0.3772(4) 1.08159(12) 0.3299(3)
C22 C 0.5173(4) 1.09244(14) 0.2843(3)
H24 H 0.5161 1.1238 0.2481
C23 C 0.6680(4) 1.05840(15) 0.2886(3)
C24 C 0.2233(4) 1.11858(13) 0.3271(3)
H25 H 0.2427 1.1487 0.2866
H26 H 0.2262 1.1273 0.4049
H27 H 0.1007 1.1038 0.2878
C25 C 0.2962(10) 0.8779(4) 0.6292(7)
H28 H 0.3668 0.8553 0.6906
H29 H 0.2496 0.9075 0.6612
C26 C 0.1625(15) 0.8548(4) 0.5490(8)
H30 H 0.0845 0.8796 0.4979
H31 H 0.0834 0.8351 0.5845
H32 H 0.2212 0.8326 0.5056
C27 C 0.5441(10) 0.8436(2) 0.4910(5)
H33 H 0.4896 0.8097 0.4893
H34 H 0.5818 0.8508 0.4217
C28 C 0.6665(12) 0.8556(4) 0.5853(6)
H35 H 0.6135 0.8496 0.6485
H36 H 0.6983 0.8911 0.5834
H37 H 0.7805 0.8355 0.5957
N9 N 0.4154(9) 0.8925(2) 0.5356(7)
O7 O 0.6679(3) 1.01358(10) 0.3405(2)
O8 O 0.7990(3) 1.06590(12) 0.2501(3)
C29 C 0.6543(4) 0.50258(12) 0.9653(3)
H38 H 0.5473 0.5014 0.9931
C30 C 0.7596(5) 0.54656(12) 0.9752(3)
C31 C 0.9184(5) 0.54544(13) 0.9338(3)
H39 H 0.9952 0.5744 0.9410
C32 C 0.9641(4) 0.50391(12) 0.8840(3)
H40 H 1.0714 0.5049 0.8564
C33 C 0.8587(4) 0.45967(12) 0.8718(2)
C34 C 0.7049(4) 0.46109(11) 0.9156(2)
C35 C 0.8962(4) 0.41511(12) 0.8185(2)
C36 C 0.7804(4) 0.37528(12) 0.8130(3)
H41 H 0.8020 0.3460 0.7752
C37 C 0.6277(4) 0.37580(11) 0.8619(2)
C38 C 1.0624(5) 0.41194(14) 0.7730(3)
H42 H 1.1788 0.4162 0.8352
H43 H 1.0537 0.4382 0.7163
H44 H 1.0638 0.3793 0.7375
C39 C 0.5801(11) 0.5843(3) 1.1115(8)
H45 H 0.5674 0.5498 1.1372
H46 H 0.6164 0.6078 1.1762
C40 C 0.4470(15) 0.5984(3) 1.0319(6)
H47 H 0.4833 0.6286 0.9985
H48 H 0.3385 0.6057 1.0597
H49 H 0.4132 0.5721 0.9742
C41 C 0.8023(6) 0.63692(14) 1.0178(3)
H50 H 0.7091 0.6638 1.0139
H51 H 0.8442 0.6391 0.9484
C42 C 0.9705(8) 0.64553(17) 1.1205(4)
H52 H 0.9290 0.6458 1.1892
H53 H 1.0290 0.6776 1.1128
H54 H 1.0626 0.6187 1.1259
N10 N 0.7112(6) 0.58929(12) 1.0187(4)
O9 O 0.5929(2) 0.41944(7) 0.91031(17)
O10 O 0.5223(3) 0.34135(8) 0.86513(18)
loop_
_geom_bond_atom_site_label_1
_geom_bond_atom_site_label_2
_geom_bond_site_symmetry_1
_geom_bond_site_symmetry_2
C1 N1 1_555 1_555
N1 H1 1_555 1_555
H2 N1 1_555 1_555
N2 C1 1_555 1_555
H3 N2 1_555 1_555
H4 N2 1_555 1_555
N3 C1 1_555 1_555
H5 N3 1_555 1_555
H6 N3 1_555 1_555
C2 N4 1_555 1_555
N4 H7 1_555 1_555
H8 N4 1_555 1_555
N5 C2 1_555 1_555
H9 N5 1_555 1_555
H10 N5 1_555 1_555
N6 C2 1_555 1_555
H11 N6 1_555 1_555
H12 N6 1_555 1_555
C3 C4 1_555 1_555
C4 H13 1_555 1_555
C5 C4 1_555 1_555
H14 C5 1_555 1_555
C6 C5 1_555 1_555
C7 C6 1_555 1_555
H15 C7 1_555 1_555
C8 C3 1_555 1_555
H16 C8 1_555 1_555
C9 C10 1_555 1_555
C10 H17 1_555 1_555
C11 C10 1_555 1_555
H18 C11 1_555 1_555
C12 C11 1_555 1_555
C13 C12 1_555 1_555
H19 C13 1_555 1_555
C14 C9 1_555 1_555
H20 C14 1_555 1_555
N7 C6 1_555 1_555
N8 C12 1_555 1_555
S1 C3 1_555 1_555
O1 S1 1_555 1_555
O2 S1 1_555 1_555
O3 S1 1_555 1_555
S2 C9 1_555 1_555
O4 S2 1_555 1_555
O5 S2 1_555 1_555
O6 S2 1_555 1_555
C15 H21 1_555 1_555
C16 C15 1_555 1_555
C17 C16 1_555 1_555
H22 C17 1_555 1_555
C18 C17 1_555 1_555
H23 C18 1_555 1_555
C19 C18 1_555 1_555
C20 C15 1_555 1_555
C21 C19 1_555 1_555
C22 C21 1_555 1_555
H24 C22 1_555 1_555
C23 C22 1_555 1_555
C24 C21 1_555 1_555
H25 C24 1_555 1_555
H26 C24 1_555 1_555
H27 C24 1_555 1_555
C25 H28 1_555 1_555
H29 C25 1_555 1_555
C26 C25 1_555 1_555
H30 C26 1_555 1_555
H31 C26 1_555 1_555
H32 C26 1_555 1_555
C27 H33 1_555 1_555
H34 C27 1_555 1_555
C28 C27 1_555 1_555
H35 C28 1_555 1_555
H36 C28 1_555 1_555
H37 C28 1_555 1_555
N9 C16 1_555 1_555
O7 C20 1_555 1_555
O8 C23 1_555 1_555
C29 H38 1_555 1_555
C30 C29 1_555 1_555
C31 C30 1_555 1_555
H39 C31 1_555 1_555
C32 C31 1_555 1_555
H40 C32 1_555 1_555
C33 C32 1_555 1_555
C34 C29 1_555 1_555
C35 C33 1_555 1_555
C36 C35 1_555 1_555
H41 C36 1_555 1_555
C37 C36 1_555 1_555
C38 C35 1_555 1_555
H42 C38 1_555 1_555
H43 C38 1_555 1_555
H44 C38 1_555 1_555
C39 H45 1_555 1_555
H46 C39 1_555 1_555
C40 C39 1_555 1_555
H47 C40 1_555 1_555
H48 C40 1_555 1_555
H49 C40 1_555 1_555
C41 H50 1_555 1_555
H51 C41 1_555 1_555
C42 C41 1_555 1_555
H52 C42 1_555 1_555
H53 C42 1_555 1_555
H54 C42 1_555 1_555
N10 C30 1_555 1_555
O9 C34 1_555 1_555
O10 C37 1_555 1_555
C7 C8 1_555 1_555
C13 C14 1_555 1_555
N7 N8 1_555 1_555
C19 C20 1_555 1_555
C23 O7 1_555 1_555
C25 N9 1_555 1_555
C27 N9 1_555 1_555
C33 C34 1_555 1_555
C37 O9 1_555 1_555
C39 N10 1_555 1_555
C41 N10 1_555 1_555

#END
