
#######################################################################
#
#                 Cambridge Crystallographic Data Centre
#                                CCDC 
#
#######################################################################
#
# If this CIF has been generated from an entry in the Cambridge 
# Structural Database, then it will include bibliographic, chemical, 
# crystal, experimental, refinement or atomic coordinate data resulting 
# from the CCDC's data processing and validation procedures.
#
#######################################################################

data_VUKBUZ
_chemical_name_common            
'bis(Diaminomethaniminium) octane-1,8-disulfonate bis(coumarin 1) clathrate'
_chemical_formula_moiety         
'2(C1 H6 N3 1+),C8 H16 O6 S2 2-,2(C14 H17 N1 O2)'
_chemical_name_systematic        
'bis(Guanidinium) 1,8-octanedisulfonate bis(7-diethylamino-4-methylcoumarin) clathrate'
_symmetry_cell_setting           monoclinic
_symmetry_space_group_name_H-M   'P 21/n'
_symmetry_Int_Tables_number      14
_space_group_name_Hall           '-P 2yn'
loop_
_symmetry_equiv_pos_site_id
_symmetry_equiv_pos_as_xyz
1 x,y,z
2 1/2-x,1/2+y,1/2-z
3 -x,-y,-z
4 1/2+x,1/2-y,1/2+z
_cell_length_a                   7.6955(12)
_cell_length_b                   28.666(5)
_cell_length_c                   10.1866(16)
_cell_angle_alpha                90
_cell_angle_beta                 93.618(2)
_cell_angle_gamma                90
_cell_volume                     2242.68
_exptl_crystal_colour            yellow
_exptl_crystal_description       plate
_cell_formula_units_Z            2
loop_
_atom_site_label
_atom_site_type_symbol
_atom_site_fract_x
_atom_site_fract_y
_atom_site_fract_z
C1 C -0.01364(19) 0.27532(5) 1.06986(15)
N1 N -0.16598(17) 0.26373(5) 1.01092(14)
H1 H -0.2631 0.2738 1.0424
H2 H -0.1700 0.2460 0.9403
N2 N 0.13242(17) 0.26035(5) 1.02155(13)
H3 H 0.2338 0.2682 1.0601
H4 H 0.1279 0.2426 0.9509
N3 N -0.00693(17) 0.30191(5) 1.17575(14)
H5 H -0.1038 0.3120 1.2075
H6 H 0.0944 0.3095 1.2147
C2 C -0.0173(2) 0.12212(5) 0.73118(15)
H7 H -0.1368 0.1130 0.6998
H8 H 0.0637 0.1089 0.6692
C3 C 0.0237(2) 0.10074(5) 0.86620(16)
H9 H 0.1492 0.1047 0.8912
H10 H -0.0427 0.1174 0.9319
C4 C -0.0221(2) 0.04929(6) 0.86804(16)
H11 H 0.0370 0.0333 0.7971
H12 H -0.1492 0.0458 0.8489
C5 C 0.0288(2) 0.02536(6) 0.99818(17)
H13 H -0.0238 0.0426 1.0700
H14 H 0.1569 0.0268 1.0144
S1 S -0.00171(5) 0.183675(13) 0.72749(4)
O1 O 0.16276(13) 0.19657(4) 0.79709(11)
O2 O -0.15137(14) 0.20133(4) 0.79392(11)
O3 O -0.00913(15) 0.19714(4) 0.58935(11)
C2B C 0.0173(2) -0.12212(5) 1.26882(15)
H7B H 0.1368 -0.1130 1.3002
H8B H -0.0637 -0.1089 1.3308
C3B C -0.0237(2) -0.10074(5) 1.13380(16)
H9B H -0.1492 -0.1047 1.1088
H10B H 0.0427 -0.1174 1.0681
C4B C 0.0221(2) -0.04929(6) 1.13196(16)
H11B H -0.0370 -0.0333 1.2029
H12B H 0.1492 -0.0458 1.1511
C5B C -0.0288(2) -0.02536(6) 1.00182(17)
H13B H 0.0238 -0.0426 0.9300
H14B H -0.1569 -0.0268 0.9856
S1B S 0.00171(5) -0.183675(13) 1.27251(4)
O1B O -0.16276(13) -0.19657(4) 1.20291(11)
O2B O 0.15137(14) -0.20133(4) 1.20608(11)
O3B O 0.00913(15) -0.19714(4) 1.41065(11)
C6 C 0.4645(2) 0.06972(6) 0.7249(2)
C7 C 0.3935(2) 0.07516(6) 0.59308(19)
H15 H 0.4043 0.1046 0.5515
C8 C 0.3113(2) 0.04024(6) 0.52442(17)
C9 C 0.2918(2) -0.00411(6) 0.58870(16)
C10 C 0.3611(2) -0.00993(6) 0.71755(17)
C11 C 0.3569(2) -0.05121(6) 0.78571(17)
H16 H 0.4080 -0.0531 0.8729
C12 C 0.2766(2) -0.09087(6) 0.72589(16)
C13 C 0.2027(2) -0.08532(6) 0.59561(16)
H17 H 0.1456 -0.1110 0.5527
C14 C 0.2119(2) -0.04370(6) 0.53055(17)
H18 H 0.1624 -0.0415 0.4429
C15 C 0.2442(2) 0.04657(7) 0.38461(18)
H19 H 0.2685 0.0784 0.3562
H20 H 0.1182 0.0411 0.3773
H21 H 0.3018 0.0243 0.3286
C16 C 0.1805(2) -0.17295(6) 0.72926(18)
H22 H 0.2316 -0.2018 0.7688
H23 H 0.2000 -0.1734 0.6341
C17 C -0.0122(3) -0.17255(7) 0.7467(2)
H24 H -0.0657 -0.2003 0.7051
H25 H -0.0640 -0.1445 0.7057
H26 H -0.0323 -0.1726 0.8408
C18 C 0.3567(2) -0.14010(7) 0.91948(18)
H27 H 0.2934 -0.1645 0.9662
H28 H 0.3526 -0.1109 0.9713
C19 C 0.5445(3) -0.15492(9) 0.9115(2)
H29 H 0.5972 -0.1599 1.0005
H30 H 0.6086 -0.1305 0.8679
H31 H 0.5491 -0.1839 0.8611
N4 N 0.26930(18) -0.13247(5) 0.78995(14)
O4 O 0.44487(16) 0.02661(4) 0.78425(13)
O5 O 0.5432(2) 0.09882(5) 0.79174(16)
loop_
_geom_bond_atom_site_label_1
_geom_bond_atom_site_label_2
_geom_bond_site_symmetry_1
_geom_bond_site_symmetry_2
C1 N1 1_555 1_555
N1 H1 1_555 1_555
H2 N1 1_555 1_555
N2 C1 1_555 1_555
H3 N2 1_555 1_555
H4 N2 1_555 1_555
N3 C1 1_555 1_555
H5 N3 1_555 1_555
H6 N3 1_555 1_555
C2 H7 1_555 1_555
H8 C2 1_555 1_555
C3 C2 1_555 1_555
H9 C3 1_555 1_555
H10 C3 1_555 1_555
C4 C3 1_555 1_555
H11 C4 1_555 1_555
H12 C4 1_555 1_555
C5 C4 1_555 1_555
H13 C5 1_555 1_555
H14 C5 1_555 1_555
S1 C2 1_555 1_555
O1 S1 1_555 1_555
O2 S1 1_555 1_555
O3 S1 1_555 1_555
C6 C7 1_555 1_555
C7 H15 1_555 1_555
C8 C7 1_555 1_555
C9 C8 1_555 1_555
C10 C9 1_555 1_555
C11 C10 1_555 1_555
H16 C11 1_555 1_555
C12 C11 1_555 1_555
C13 C12 1_555 1_555
H17 C13 1_555 1_555
C14 C9 1_555 1_555
H18 C14 1_555 1_555
C15 C8 1_555 1_555
H19 C15 1_555 1_555
H20 C15 1_555 1_555
H21 C15 1_555 1_555
C16 H22 1_555 1_555
H23 C16 1_555 1_555
C17 C16 1_555 1_555
H24 C17 1_555 1_555
H25 C17 1_555 1_555
H26 C17 1_555 1_555
C18 H27 1_555 1_555
H28 C18 1_555 1_555
C19 C18 1_555 1_555
H29 C19 1_555 1_555
H30 C19 1_555 1_555
H31 C19 1_555 1_555
N4 C12 1_555 1_555
O4 C6 1_555 1_555
O5 C6 1_555 1_555
C2B H7B 1_555 1_555
H8B C2B 1_555 1_555
C3B C2B 1_555 1_555
H9B C3B 1_555 1_555
H10B C3B 1_555 1_555
C4B C3B 1_555 1_555
H11B C4B 1_555 1_555
H12B C4B 1_555 1_555
C5B C5 1_555 1_555
H13B C5B 1_555 1_555
H14B C5B 1_555 1_555
S1B C2B 1_555 1_555
O1B S1B 1_555 1_555
O2B S1B 1_555 1_555
O3B S1B 1_555 1_555
C10 O4 1_555 1_555
C13 C14 1_555 1_555
C16 N4 1_555 1_555
C18 N4 1_555 1_555
C4B C5B 1_555 1_555

#END
