
#######################################################################
#
#                 Cambridge Crystallographic Data Centre
#                                CCDC 
#
#######################################################################
#
# If this CIF has been generated from an entry in the Cambridge 
# Structural Database, then it will include bibliographic, chemical, 
# crystal, experimental, refinement or atomic coordinate data resulting 
# from the CCDC's data processing and validation procedures.
#
#######################################################################

data_VUKCAG
_chemical_name_common            
'bis(Diaminomethaniminium) octane-1,8-disulfonate bis(coumarin 102) clathrate'
_chemical_formula_moiety         
'2(C1 H6 N3 1+),C8 H16 O6 S2 2-,2(C16 H17 N1 O2)'
_chemical_name_systematic        
'bis(Guanidinium) 1,8-octanedisulfonate bis(2,3,6,7-tetrahydro-9-methyl-1H,5H-quinolizino(9,1-gh)coumarin) clathrate'
_symmetry_cell_setting           monoclinic
_symmetry_space_group_name_H-M   'P 21'
_symmetry_Int_Tables_number      4
_space_group_name_Hall           'P 2yb'
loop_
_symmetry_equiv_pos_site_id
_symmetry_equiv_pos_as_xyz
1 x,y,z
2 -x,1/2+y,-z
_cell_length_a                   7.3931(2)
_cell_length_b                   26.6667(8)
_cell_length_c                   11.7311(3)
_cell_angle_alpha                90
_cell_angle_beta                 102.382(1)
_cell_angle_gamma                90
_cell_volume                     2258.99
_exptl_crystal_colour            yellow
_exptl_crystal_description       plate
_cell_formula_units_Z            2
loop_
_atom_site_label
_atom_site_type_symbol
_atom_site_fract_x
_atom_site_fract_y
_atom_site_fract_z
S1 S 0.92044(10) 0.08279(3) 0.92445(6)
S2 S 0.37539(9) 0.48223(3) 0.56136(6)
O1 O 0.8799(3) 0.06011(8) 0.80855(18)
O2 O 0.7721(3) 0.07459(8) 0.98713(18)
O3 O 1.1015(3) 0.06756(8) 0.99249(18)
O4 O 0.5387(3) 0.48620(9) 0.51043(17)
O5 O 0.2109(3) 0.50326(8) 0.48611(19)
O6 O 0.4118(3) 0.50275(8) 0.67966(18)
C1 C 0.9347(4) 0.14838(12) 0.9040(3)
H1 H 0.9625 0.1649 0.9814
H2 H 1.0389 0.1554 0.8656
C2 C 0.7591(4) 0.17106(12) 0.8312(3)
H3 H 0.7314 0.1552 0.7530
H4 H 0.6540 0.1643 0.8689
C3 C 0.7806(4) 0.22707(12) 0.8184(3)
H5 H 0.8886 0.2334 0.7830
H6 H 0.8073 0.2425 0.8970
C4 C 0.6119(4) 0.25267(12) 0.7444(3)
H7 H 0.5850 0.2375 0.6656
H8 H 0.5037 0.2466 0.7797
C5 C 0.6371(4) 0.30862(12) 0.7330(3)
H9 H 0.7441 0.3147 0.6965
H10 H 0.6663 0.3237 0.8119
C6 C 0.4671(4) 0.33472(12) 0.6605(3)
H11 H 0.4391 0.3203 0.5809
H12 H 0.3594 0.3284 0.6961
C7 C 0.4958(4) 0.39110(12) 0.6524(3)
H13 H 0.5155 0.4058 0.7316
H14 H 0.6091 0.3972 0.6222
C8 C 0.3340(4) 0.41745(11) 0.5739(3)
H15 H 0.2216 0.4128 0.6059
H16 H 0.3106 0.4020 0.4954
C9 C 1.3593(4) 0.03633(11) 0.7606(3)
N1 N 1.1915(4) 0.02016(10) 0.7126(2)
H17 H 1.1741 0.0011 0.6499
H18 H 1.0970 0.0284 0.7433
N2 N 1.5039(4) 0.02439(10) 0.7159(2)
H19 H 1.4889 0.0054 0.6532
H20 H 1.6149 0.0355 0.7489
N3 N 1.3846(4) 0.06533(10) 0.8564(2)
H21 H 1.2896 0.0734 0.8868
H22 H 1.4962 0.0762 0.8888
C10 C 0.9411(4) 0.52928(12) 0.7144(3)
N4 N 0.9137(4) 0.50909(11) 0.6101(2)
H23 H 0.8022 0.4991 0.5752
H24 H 1.0069 0.5056 0.5750
N5 N 1.1095(3) 0.54569(10) 0.7658(2)
H25 H 1.2019 0.5429 0.7297
H26 H 1.1282 0.5592 0.8357
N6 N 0.8010(4) 0.53462(11) 0.7676(2)
H27 H 0.6894 0.5246 0.7329
H28 H 0.8198 0.5482 0.8375
O7 O 0.8603(3) 0.42620(8) 0.42123(19)
O8 O 0.8419(3) 0.34480(8) 0.44424(18)
N7 N 0.8396(4) 0.16933(10) 0.5176(2)
C11 C 1.0409(5) 0.16889(15) 0.5583(4)
H29 H 1.0906 0.1387 0.5268
H30 H 1.0702 0.1660 0.6445
C12 C 1.1383(7) 0.2141(2) 0.5247(7)
H31 H 1.2650 0.2153 0.5739
H32 H 1.1496 0.2103 0.4426
C13 C 1.0452(4) 0.26170(13) 0.5368(3)
H33 H 1.1049 0.2891 0.5012
H34 H 1.0564 0.2695 0.6205
C14 C 0.8428(4) 0.25811(12) 0.4770(3)
C15 C 0.7512(4) 0.21152(12) 0.4662(3)
C16 C 0.5651(4) 0.20852(12) 0.4025(3)
C17 C 0.4726(5) 0.15785(12) 0.3849(3)
H35 H 0.4996 0.1418 0.3143
H36 H 0.3368 0.1620 0.3731
C18 C 0.5420(5) 0.12474(12) 0.4900(3)
H37 H 0.4850 0.0911 0.4769
H38 H 0.5086 0.1395 0.5602
C19 C 0.7527(5) 0.12068(13) 0.5076(3)
H39 H 0.8020 0.1011 0.5792
H40 H 0.7838 0.1025 0.4408
C20 C 0.4735(4) 0.25151(12) 0.3570(3)
H41 H 0.3480 0.2491 0.3165
C21 C 0.5601(4) 0.29881(12) 0.3687(2)
C22 C 0.7449(4) 0.29981(12) 0.4289(3)
C23 C 0.4721(4) 0.34491(12) 0.3251(2)
C24 C 0.2710(4) 0.34539(13) 0.2637(3)
H42 H 0.2376 0.3789 0.2315
H43 H 0.1941 0.3369 0.3193
H44 H 0.2506 0.3207 0.2002
C25 C 0.5710(4) 0.38771(12) 0.3417(3)
H45 H 0.5118 0.4181 0.3126
C26 C 0.7628(4) 0.38938(12) 0.4018(3)
O9 O 1.0483(3) 0.22813(10) 0.2133(2)
O10 O 0.8344(3) 0.28343(9) 0.13921(19)
N8 N 0.4040(4) 0.40831(10) -0.0405(3)
C27 C 0.5322(5) 0.44753(14) 0.0093(4)
H46 H 0.5161 0.4555 0.0889
H47 H 0.5053 0.4783 -0.0388
C28 C 0.7301(5) 0.43135(14) 0.0144(3)
H48 H 0.7481 0.4249 -0.0655
H49 H 0.8159 0.4585 0.0491
C29 C 0.7728(5) 0.38428(12) 0.0872(3)
H50 H 0.8928 0.3704 0.0776
H51 H 0.7846 0.3928 0.1706
C30 C 0.6242(4) 0.34528(13) 0.0527(3)
C31 C 0.4441(5) 0.35924(12) -0.0089(3)
C32 C 0.2096(5) 0.42366(14) -0.0729(3)
H52 H 0.2013 0.4577 -0.1075
H53 H 0.1567 0.4249 -0.0023
C33 C 0.0998(5) 0.38742(14) -0.1596(3)
H54 H 0.1492 0.3871 -0.2317
H55 H -0.0313 0.3982 -0.1805
C34 C 0.1121(4) 0.33510(13) -0.1069(3)
H56 H 0.0259 0.3328 -0.0532
H57 H 0.0721 0.3103 -0.1701
C35 C 0.3059(4) 0.32188(13) -0.0408(3)
C36 C 0.3464(4) 0.27296(12) -0.0092(3)
H58 H 0.2520 0.2484 -0.0304
C37 C 0.5211(4) 0.25758(12) 0.0530(3)
C38 C 0.6563(4) 0.29517(12) 0.0803(2)
C39 C 0.5701(4) 0.20718(12) 0.0900(3)
C40 C 0.4246(4) 0.16650(12) 0.0658(3)
H59 H 0.4802 0.1344 0.0953
H60 H 0.3754 0.1640 -0.0185
H61 H 0.3239 0.1747 0.1050
C41 C 0.7452(4) 0.19669(13) 0.1463(3)
H62 H 0.7762 0.1633 0.1712
C42 C 0.8867(5) 0.23507(13) 0.1697(3)
C43? C 1.1190(11) 0.2132(4) 0.6011(11)
H63? H 1.2533 0.2112 0.6030
H64? H 1.1051 0.2164 0.6828
loop_
_geom_bond_atom_site_label_1
_geom_bond_atom_site_label_2
_geom_bond_site_symmetry_1
_geom_bond_site_symmetry_2
S1 O1 1_555 1_555
S2 O4 1_555 1_555
O2 S1 1_555 1_555
O3 S1 1_555 1_555
O5 S2 1_555 1_555
O6 S2 1_555 1_555
C1 S1 1_555 1_555
H1 C1 1_555 1_555
H2 C1 1_555 1_555
C2 C1 1_555 1_555
H3 C2 1_555 1_555
H4 C2 1_555 1_555
C3 C2 1_555 1_555
H5 C3 1_555 1_555
H6 C3 1_555 1_555
C4 C3 1_555 1_555
H7 C4 1_555 1_555
H8 C4 1_555 1_555
C5 C4 1_555 1_555
H9 C5 1_555 1_555
H10 C5 1_555 1_555
C6 C5 1_555 1_555
H11 C6 1_555 1_555
H12 C6 1_555 1_555
C7 C6 1_555 1_555
H13 C7 1_555 1_555
H14 C7 1_555 1_555
C8 S2 1_555 1_555
H15 C8 1_555 1_555
H16 C8 1_555 1_555
C9 N1 1_555 1_555
N1 H17 1_555 1_555
H18 N1 1_555 1_555
N2 C9 1_555 1_555
H19 N2 1_555 1_555
H20 N2 1_555 1_555
N3 C9 1_555 1_555
H21 N3 1_555 1_555
H22 N3 1_555 1_555
C10 N4 1_555 1_555
N4 H23 1_555 1_555
H24 N4 1_555 1_555
N5 C10 1_555 1_555
H25 N5 1_555 1_555
H26 N5 1_555 1_555
N6 C10 1_555 1_555
H27 N6 1_555 1_555
H28 N6 1_555 1_555
O7 C26 1_555 1_555
O8 C22 1_555 1_555
N7 C11 1_555 1_555
C11 H29 1_555 1_555
H30 C11 1_555 1_555
C12 C11 1_555 1_555
H31 C12 1_555 1_555
H32 C12 1_555 1_555
C13 C12 1_555 1_555
H33 C13 1_555 1_555
H34 C13 1_555 1_555
C14 C13 1_555 1_555
C15 N7 1_555 1_555
C16 C15 1_555 1_555
C17 C16 1_555 1_555
H35 C17 1_555 1_555
H36 C17 1_555 1_555
C18 C17 1_555 1_555
H37 C18 1_555 1_555
H38 C18 1_555 1_555
C19 N7 1_555 1_555
H39 C19 1_555 1_555
H40 C19 1_555 1_555
C20 C16 1_555 1_555
H41 C20 1_555 1_555
C21 C20 1_555 1_555
C22 C14 1_555 1_555
C23 C21 1_555 1_555
C24 C23 1_555 1_555
H42 C24 1_555 1_555
H43 C24 1_555 1_555
H44 C24 1_555 1_555
C25 C23 1_555 1_555
H45 C25 1_555 1_555
C26 O8 1_555 1_555
O9 C42 1_555 1_555
O10 C38 1_555 1_555
N8 C27 1_555 1_555
C27 H46 1_555 1_555
H47 C27 1_555 1_555
C28 C27 1_555 1_555
H48 C28 1_555 1_555
H49 C28 1_555 1_555
C29 C28 1_555 1_555
H50 C29 1_555 1_555
H51 C29 1_555 1_555
C30 C29 1_555 1_555
C31 N8 1_555 1_555
C32 N8 1_555 1_555
H52 C32 1_555 1_555
H53 C32 1_555 1_555
C33 C32 1_555 1_555
H54 C33 1_555 1_555
H55 C33 1_555 1_555
C34 C33 1_555 1_555
H56 C34 1_555 1_555
H57 C34 1_555 1_555
C35 C31 1_555 1_555
C36 C35 1_555 1_555
H58 C36 1_555 1_555
C37 C36 1_555 1_555
C38 C30 1_555 1_555
C39 C37 1_555 1_555
C40 C39 1_555 1_555
H59 C40 1_555 1_555
H60 C40 1_555 1_555
H61 C40 1_555 1_555
C41 C39 1_555 1_555
H62 C41 1_555 1_555
C42 O10 1_555 1_555
C7 C8 1_555 1_555
C14 C15 1_555 1_555
C18 C19 1_555 1_555
C21 C22 1_555 1_555
C25 C26 1_555 1_555
C30 C31 1_555 1_555
C34 C35 1_555 1_555
C37 C38 1_555 1_555
C41 C42 1_555 1_555

#END
