
#######################################################################
#
#                 Cambridge Crystallographic Data Centre
#                                CCDC 
#
#######################################################################
#
# If this CIF has been generated from an entry in the Cambridge 
# Structural Database, then it will include bibliographic, chemical, 
# crystal, experimental, refinement or atomic coordinate data resulting 
# from the CCDC's data processing and validation procedures.
#
#######################################################################

data_VUKDAH
_chemical_name_common            
"bis(Diaminomethaniminium) 4,4'-ethane-1,2-diyldibenzenesulfonate bis(coumarin 314) clathrate"
_chemical_formula_moiety         
'2(C1 H6 N3 1+),C14 H12 O6 S2 2-,2(C18 H19 N1 O4)'
_chemical_name_systematic        
'bis(Guanidinium) 1,2-bis(4-sulfonatophenyl)ethane bis(ethyl 11-oxo-2,3,6,7-tetrahydro-1H,5H,11H-pyrano[2,3-f]pyrido[3,2,1-ij]quinoline-10-carboxylate) clathrate'
_symmetry_cell_setting           monoclinic
_symmetry_space_group_name_H-M   'P 21/c'
_symmetry_Int_Tables_number      14
_space_group_name_Hall           '-P 2ybc'
loop_
_symmetry_equiv_pos_site_id
_symmetry_equiv_pos_as_xyz
1 x,y,z
2 -x,1/2+y,1/2-z
3 -x,-y,-z
4 x,1/2-y,1/2+z
_cell_length_a                   12.6639(6)
_cell_length_b                   31.3013(15)
_cell_length_c                   13.2474(7)
_cell_angle_alpha                90
_cell_angle_beta                 90.765(3)
_cell_angle_gamma                90
_cell_volume                     5250.76
_exptl_crystal_colour            yellow-green
_exptl_crystal_description       block
_cell_formula_units_Z            4
loop_
_atom_site_label
_atom_site_type_symbol
_atom_site_fract_x
_atom_site_fract_y
_atom_site_fract_z
O1 O 0.6488(2) 0.00169(10) 0.3688(4)
O2 O 0.7638(2) 0.05348(9) 0.3455(2)
O3 O 0.5191(2) 0.14049(8) 0.2793(2)
O4 O 0.6887(2) 0.12498(7) 0.2513(2)
N1 N 0.4182(5) -0.1176(2) 0.4243(12)
C1 C 0.5071(8) -0.1438(4) 0.4610(15)
H1 H 0.4910 -0.1744 0.4496
H2 H 0.5171 -0.1394 0.5345
C2 C 0.6072(9) -0.1322(3) 0.4072(13)
H3 H 0.5987 -0.1383 0.3342
H4 H 0.6663 -0.1498 0.4337
C3 C 0.6325(5) -0.0848(3) 0.4226(12)
H5 H 0.6553 -0.0799 0.4934
H6 H 0.6913 -0.0765 0.3782
C4 C 0.5374(4) -0.05780(18) 0.3988(9)
C5 C 0.4340(4) -0.07548(18) 0.4018(8)
C6 C 0.3447(4) -0.04864(18) 0.3798(8)
C7 C 0.2337(4) -0.06723(18) 0.3812(8)
H7 H 0.2017 -0.0619 0.4479
H8 H 0.1893 -0.0530 0.3291
C8 C 0.2370(5) -0.11489(18) 0.3609(4)
H9 H 0.1657 -0.1273 0.3686
H10 H 0.2602 -0.1202 0.2909
C9 C 0.3124(6) -0.1353(3) 0.4340(10)
H11 H 0.2874 -0.1306 0.5036
H12 H 0.3145 -0.1664 0.4216
C10 C 0.5487(4) -0.01517(18) 0.3741(8)
C11 C 0.4617(3) 0.01184(17) 0.3519(6)
C12 C 0.3601(4) -0.00677(18) 0.3561(7)
H13 H 0.3002 0.0106 0.3418
C13 C 0.4818(3) 0.05416(13) 0.3228(4)
H14 H 0.4238 0.0722 0.3062
C14 C 0.6704(3) 0.04426(12) 0.3432(4)
C15 C 0.5816(3) 0.07036(11) 0.3174(3)
C16 C 0.5938(3) 0.11525(12) 0.2825(3)
C17 C 0.7036(3) 0.16847(10) 0.2124(3)
H15 H 0.6504 0.1749 0.1591
H16 H 0.6963 0.1897 0.2674
C18 C 0.8098(4) 0.16999(13) 0.1712(4)
H17 H 0.8232 0.1985 0.1438
H18 H 0.8160 0.1487 0.1173
H19 H 0.8616 0.1637 0.2249
O5 O 0.8393(2) 0.00603(8) 0.8778(3)
O6 O 0.71291(18) -0.04135(8) 0.85952(19)
O7 O 0.9377(2) -0.13552(7) 0.78260(18)
O8 O 0.76576(19) -0.11923(6) 0.79204(17)
N2 N 1.0888(3) 0.11814(11) 0.9192(4)
C19 C 1.0065(3) 0.14667(12) 0.9569(4)
H20 H 1.0266 0.1767 0.9441
H21 H 0.9996 0.1428 1.0307
C20 C 0.9018(3) 0.13708(12) 0.9051(4)
H22 H 0.9078 0.1421 0.8316
H23 H 0.8467 0.1564 0.9313
C21 C 0.8706(3) 0.09090(12) 0.9241(7)
H24 H 0.8500 0.0874 0.9954
H25 H 0.8091 0.0834 0.8808
C22 C 0.9612(3) 0.06138(13) 0.9015(5)
C23 C 1.0670(3) 0.07641(11) 0.8989(3)
C24 C 1.1510(3) 0.04741(15) 0.8754(7)
C25 C 1.2638(3) 0.06358(14) 0.8739(4)
H26 H 1.2981 0.0581 0.9402
H27 H 1.3037 0.0479 0.8219
C26 C 1.2670(3) 0.11095(13) 0.8513(3)
H28 H 1.3404 0.1216 0.8579
H29 H 1.2421 0.1162 0.7812
C27 C 1.1972(3) 0.13432(15) 0.9243(4)
H30 H 1.2256 0.1307 0.9938
H31 H 1.1974 0.1652 0.9082
C28 C 0.9428(3) 0.01920(13) 0.8771(7)
C29 C 1.0230(3) -0.00974(12) 0.8525(6)
C30 C 1.1280(3) 0.00570(12) 0.8542(4)
H32 H 1.1841 -0.0135 0.8402
C31 C 0.8072(2) -0.03549(9) 0.8543(2)
C32 C 0.8899(2) -0.06497(9) 0.8274(2)
C33 C 0.9933(2) -0.05193(10) 0.8285(3)
H33 H 1.0467 -0.0720 0.8125
C34 C 0.8678(3) -0.11021(9) 0.7985(2)
C35 C 0.7387(3) -0.16305(9) 0.7654(2)
H34 H 0.6682 -0.1701 0.7922
H35 H 0.7907 -0.1828 0.7966
C36 C 0.7377(3) -0.16904(10) 0.6528(2)
H36 H 0.7188 -0.1986 0.6366
H37 H 0.8080 -0.1627 0.6264
H38 H 0.6858 -0.1496 0.6219
S1 S 0.51561(4) 0.300865(16) 0.39757(4)
O9 O 0.56304(12) 0.29578(5) 0.29883(12)
O10 O 0.56996(12) 0.27636(5) 0.47650(11)
O11 O 0.40223(11) 0.29156(5) 0.39490(11)
C37 C 0.52768(15) 0.35510(6) 0.43106(16)
C38 C 0.56614(17) 0.38485(7) 0.36342(17)
H39 H 0.5876 0.3762 0.2981
C39 C 0.57297(18) 0.42749(7) 0.39235(18)
H40 H 0.6005 0.4479 0.3467
C40 C 0.54015(17) 0.44065(7) 0.48708(18)
C41 C 0.49865(18) 0.41028(7) 0.55237(17)
H41 H 0.4735 0.4189 0.6164
C42 C 0.49357(17) 0.36768(7) 0.52509(16)
H42 H 0.4667 0.3471 0.5709
C43 C 0.54793(19) 0.48697(7) 0.5181(2)
H43 H 0.6129 0.4995 0.4896
H44 H 0.5537 0.4887 0.5926
S1B S 0.48439(4) 0.699135(16) 0.60243(4)
O9B O 0.43696(12) 0.70422(5) 0.70117(12)
O10B O 0.43004(12) 0.72364(5) 0.52350(11)
O11B O 0.59777(11) 0.70844(5) 0.60510(11)
C37B C 0.47232(15) 0.64490(6) 0.56894(16)
C38B C 0.43386(17) 0.61515(7) 0.63658(17)
H39B H 0.4124 0.6238 0.7019
C39B C 0.42703(18) 0.57251(7) 0.60765(18)
H40B H 0.3995 0.5521 0.6533
C40B C 0.45985(17) 0.55935(7) 0.51292(18)
C41B C 0.50135(18) 0.58972(7) 0.44763(17)
H41B H 0.5265 0.5811 0.3836
C42B C 0.50643(17) 0.63232(7) 0.47491(16)
H42B H 0.5333 0.6529 0.4291
C43B C 0.45207(19) 0.51303(7) 0.4819(2)
H43B H 0.3871 0.5005 0.5104
H44B H 0.4463 0.5113 0.4074
S2 S 0.01487(4) 0.199591(16) 0.59414(4)
O12 O 0.06356(12) 0.20579(5) 0.69356(12)
O13 O 0.06756(12) 0.22352(5) 0.51494(12)
O14 O -0.09867(11) 0.20848(5) 0.59501(11)
C44 C 0.02885(16) 0.14498(7) 0.56395(16)
C45 C 0.06053(17) 0.11607(7) 0.63724(17)
H45 H 0.0766 0.1254 0.7039
C46 C 0.06848(18) 0.07297(8) 0.61191(19)
H46 H 0.0916 0.0530 0.6615
C47 C 0.04318(17) 0.05883(7) 0.51558(18)
C48 C 0.0083(2) 0.08842(8) 0.44420(18)
H47 H -0.0112 0.0789 0.3784
C49 C 0.00164(19) 0.13150(7) 0.46749(17)
H48 H -0.0213 0.1515 0.4179
C50 C 0.05065(19) 0.01210(7) 0.4890(2)
H49 H 0.1096 -0.0009 0.5279
H50 H 0.0667 0.0093 0.4163
S2B S -0.01487(4) -0.199591(16) 0.40586(4)
O12B O -0.06356(12) -0.20579(5) 0.30644(12)
O13B O -0.06756(12) -0.22352(5) 0.48506(12)
O14B O 0.09867(11) -0.20848(5) 0.40499(11)
C44B C -0.02885(16) -0.14498(7) 0.43605(16)
C45B C -0.06053(17) -0.11607(7) 0.36276(17)
H45B H -0.0766 -0.1254 0.2961
C46B C -0.06848(18) -0.07297(8) 0.38809(19)
H46B H -0.0916 -0.0530 0.3385
C47B C -0.04318(17) -0.05883(7) 0.48442(18)
C48B C -0.0083(2) -0.08842(8) 0.55580(18)
H47B H 0.0112 -0.0789 0.6216
C49B C -0.00164(19) -0.13150(7) 0.53251(17)
H48B H 0.0213 -0.1515 0.5821
C50B C -0.05065(19) -0.01210(7) 0.5110(2)
H49B H -0.1096 0.0009 0.4721
H50B H -0.0667 -0.0093 0.5837
N3 N 0.93722(14) 0.24998(6) 0.34407(14)
H51 H 0.9711 0.2373 0.3942
H52 H 0.9711 0.2569 0.2888
N4 N 0.78373(15) 0.27712(6) 0.27564(14)
H53 H 0.7158 0.2825 0.2803
H54 H 0.8177 0.2840 0.2204
N5 N 0.78414(15) 0.24832(6) 0.43485(15)
H55 H 0.7162 0.2537 0.4396
H56 H 0.8183 0.2361 0.4854
C51 C 0.83491(17) 0.25868(7) 0.35176(16)
N6 N 0.43872(14) 0.25003(6) 0.14472(14)
H57 H 0.4728 0.2562 0.2012
H58 H 0.4725 0.2382 0.0943
N7 N 0.28555(14) 0.27645(6) 0.21160(14)
H59 H 0.2176 0.2819 0.2059
H60 H 0.3198 0.2828 0.2678
N8 N 0.28509(15) 0.24897(6) 0.05074(14)
H61 H 0.2171 0.2544 0.0447
H62 H 0.3191 0.2371 0.0004
C52 C 0.33627(17) 0.25864(7) 0.13558(16)
C53? C 0.512(2) -0.1435(12) 0.458(4)
C54? C 0.612(3) -0.1330(9) 0.401(4)
C55? C 0.6422(18) -0.0861(9) 0.418(4)
C56? C 0.5475(16) -0.0592(7) 0.399(4)
C57? C 0.4422(15) -0.0738(7) 0.401(3)
C58? C 0.3566(16) -0.0452(7) 0.379(3)
C59? C 0.2463(16) -0.0628(6) 0.384(3)
C60? C 0.2387(17) -0.1099(6) 0.3790(16)
C61? C 0.3208(18) -0.1324(9) 0.439(3)
C62? C 0.5601(13) -0.0169(7) 0.372(3)
C63? C 0.4781(14) 0.0119(6) 0.348(3)
C64? C 0.3756(16) -0.0037(7) 0.352(3)
C65? C 0.6937(11) 0.0367(5) 0.3478(18)
C66? C 0.6124(11) 0.0652(4) 0.3259(14)
C67? C 0.5095(12) 0.0545(5) 0.3288(16)
C68? C 0.6371(10) 0.1101(4) 0.2954(10)
C69? C 0.7608(9) 0.1624(3) 0.2588(7)
C70? C 0.7595(10) 0.1678(4) 0.1478(8)
C71? C 0.990(2) 0.1439(12) 0.969(4)
C72? C 0.888(3) 0.1317(11) 0.917(4)
C73? C 0.866(3) 0.0843(11) 0.926(5)
C74? C 0.959(2) 0.0586(9) 0.890(5)
C75? C 1.062(2) 0.0750(9) 0.914(4)
C76? C 1.151(2) 0.0497(12) 0.884(7)
C77? C 1.261(2) 0.0688(11) 0.888(4)
C78? C 1.256(3) 0.1164(12) 0.868(3)
C79? C 1.181(2) 0.1364(12) 0.941(4)
C80? C 0.952(2) 0.0154(10) 0.869(7)
C81? C 1.039(2) -0.0113(10) 0.852(6)
C82? C 1.137(2) 0.0101(11) 0.844(4)
C83? C 0.8331(16) -0.0447(7) 0.842(3)
C84? C 0.9219(16) -0.0706(7) 0.819(3)
C85? C 1.0212(18) -0.0537(8) 0.819(3)
C86? C 0.9103(15) -0.1158(6) 0.782(2)
C87? C 0.7958(14) -0.1693(5) 0.7179(17)
C88? C 0.6846(15) -0.1711(7) 0.6793(18)
H63? H 0.4929 -0.1738 0.4456
H64? H 0.5248 -0.1396 0.5308
H65? H 0.6001 -0.1381 0.3279
H66? H 0.6698 -0.1518 0.4245
H67? H 0.6679 -0.0821 0.4886
H68? H 0.6995 -0.0779 0.3721
H69? H 0.2137 -0.0529 0.4469
H70? H 0.2046 -0.0507 0.3267
H71? H 0.2439 -0.1190 0.3077
H72? H 0.1684 -0.1187 0.4033
H73? H 0.3036 -0.1302 0.5117
H74? H 0.3202 -0.1631 0.4208
H75? H 0.3181 0.0146 0.3355
H76? H 0.4572 0.0758 0.3175
H77? H 0.8316 0.1698 0.2859
H78? H 0.7090 0.1821 0.2890
H79? H 0.7780 0.1973 0.1310
H80? H 0.6889 0.1612 0.1210
H81? H 0.8110 0.1483 0.1178
H82? H 1.0061 0.1743 0.9555
H83? H 0.9835 0.1402 1.0428
H84? H 0.8290 0.1477 0.9476
H85? H 0.8909 0.1396 0.8448
H86? H 0.8516 0.0770 0.9968
H87? H 0.8028 0.0769 0.8846
H88? H 1.2933 0.0637 0.9560
H89? H 1.3063 0.0550 0.8375
H90? H 1.3266 0.1292 0.8762
H91? H 1.2305 0.1215 0.7982
H92? H 1.2093 0.1326 1.0106
H93? H 1.1768 0.1675 0.9273
H94? H 1.1934 -0.0034 0.8097
H95? H 1.0786 -0.0704 0.7957
H96? H 0.8063 -0.1897 0.7741
H97? H 0.8456 -0.1765 0.6634
H98? H 0.6659 -0.2007 0.6636
H99? H 0.6778 -0.1536 0.6182
H100? H 0.6371 -0.1601 0.7310
N9? N 0.4245(17) -0.1155(8) 0.424(4)
N10? N 1.076(2) 0.1176(9) 0.933(4)
O15? O 0.7352(7) 0.1189(2) 0.2872(6)
O16? O 0.8520(18) -0.0017(7) 0.866(3)
O17? O 0.7390(13) -0.0529(6) 0.8455(16)
O18? O 0.9862(14) -0.1390(5) 0.7802(14)
O19? O 0.8134(12) -0.1255(4) 0.7528(13)
O20? O 0.6650(11) -0.0051(4) 0.3757(14)
O21? O 0.7903(8) 0.0418(3) 0.3561(8)
O22? O 0.5636(9) 0.1354(4) 0.2814(8)
loop_
_geom_bond_atom_site_label_1
_geom_bond_atom_site_label_2
_geom_bond_site_symmetry_1
_geom_bond_site_symmetry_2
O1 C10 1_555 1_555
O2 C14 1_555 1_555
O3 C16 1_555 1_555
O4 C16 1_555 1_555
N1 C1 1_555 1_555
C1 H1 1_555 1_555
H2 C1 1_555 1_555
C2 C1 1_555 1_555
H3 C2 1_555 1_555
H4 C2 1_555 1_555
C3 C2 1_555 1_555
H5 C3 1_555 1_555
H6 C3 1_555 1_555
C4 C3 1_555 1_555
C5 N1 1_555 1_555
C6 C5 1_555 1_555
C7 C6 1_555 1_555
H7 C7 1_555 1_555
H8 C7 1_555 1_555
C8 C7 1_555 1_555
H9 C8 1_555 1_555
H10 C8 1_555 1_555
C9 N1 1_555 1_555
H11 C9 1_555 1_555
H12 C9 1_555 1_555
C10 C4 1_555 1_555
C11 C10 1_555 1_555
C12 C6 1_555 1_555
H13 C12 1_555 1_555
C13 C11 1_555 1_555
H14 C13 1_555 1_555
C14 O1 1_555 1_555
C15 C13 1_555 1_555
C16 C15 1_555 1_555
C17 O4 1_555 1_555
H15 C17 1_555 1_555
H16 C17 1_555 1_555
C18 C17 1_555 1_555
H17 C18 1_555 1_555
H18 C18 1_555 1_555
H19 C18 1_555 1_555
O5 C28 1_555 1_555
O6 C31 1_555 1_555
O7 C34 1_555 1_555
O8 C34 1_555 1_555
N2 C19 1_555 1_555
C19 H20 1_555 1_555
H21 C19 1_555 1_555
C20 C19 1_555 1_555
H22 C20 1_555 1_555
H23 C20 1_555 1_555
C21 C20 1_555 1_555
H24 C21 1_555 1_555
H25 C21 1_555 1_555
C22 C21 1_555 1_555
C23 N2 1_555 1_555
C24 C23 1_555 1_555
C25 C24 1_555 1_555
H26 C25 1_555 1_555
H27 C25 1_555 1_555
C26 C25 1_555 1_555
H28 C26 1_555 1_555
H29 C26 1_555 1_555
C27 N2 1_555 1_555
H30 C27 1_555 1_555
H31 C27 1_555 1_555
C28 C22 1_555 1_555
C29 C28 1_555 1_555
C30 C24 1_555 1_555
H32 C30 1_555 1_555
C31 O5 1_555 1_555
C32 C31 1_555 1_555
C33 C29 1_555 1_555
H33 C33 1_555 1_555
C34 C32 1_555 1_555
C35 O8 1_555 1_555
H34 C35 1_555 1_555
H35 C35 1_555 1_555
C36 C35 1_555 1_555
H36 C36 1_555 1_555
H37 C36 1_555 1_555
H38 C36 1_555 1_555
S1 O9 1_555 1_555
O10 S1 1_555 1_555
O11 S1 1_555 1_555
C37 S1 1_555 1_555
C38 C37 1_555 1_555
H39 C38 1_555 1_555
C39 C38 1_555 1_555
H40 C39 1_555 1_555
C40 C39 1_555 1_555
C41 C40 1_555 1_555
H41 C41 1_555 1_555
C42 C37 1_555 1_555
H42 C42 1_555 1_555
C43 C40 1_555 1_555
H43 C43 1_555 1_555
H44 C43 1_555 1_555
S2 O12 1_555 1_555
O13 S2 1_555 1_555
O14 S2 1_555 1_555
C44 S2 1_555 1_555
C45 C44 1_555 1_555
H45 C45 1_555 1_555
C46 C45 1_555 1_555
H46 C46 1_555 1_555
C47 C46 1_555 1_555
C48 C47 1_555 1_555
H47 C48 1_555 1_555
C49 C44 1_555 1_555
H48 C49 1_555 1_555
C50 C47 1_555 1_555
H49 C50 1_555 1_555
H50 C50 1_555 1_555
N3 H51 1_555 1_555
H52 N3 1_555 1_555
N4 H53 1_555 1_555
H54 N4 1_555 1_555
N5 H55 1_555 1_555
H56 N5 1_555 1_555
C51 N3 1_555 1_555
N6 H57 1_555 1_555
H58 N6 1_555 1_555
N7 H59 1_555 1_555
H60 N7 1_555 1_555
N8 H61 1_555 1_555
H62 N8 1_555 1_555
C52 N6 1_555 1_555
S1B O9B 1_555 1_555
O10B S1B 1_555 1_555
O11B S1B 1_555 1_555
C37B S1B 1_555 1_555
C38B C37B 1_555 1_555
H39B C38B 1_555 1_555
C39B C38B 1_555 1_555
H40B C39B 1_555 1_555
C40B C39B 1_555 1_555
C41B C40B 1_555 1_555
H41B C41B 1_555 1_555
C42B C37B 1_555 1_555
H42B C42B 1_555 1_555
C43B C43 1_555 1_555
H43B C43B 1_555 1_555
H44B C43B 1_555 1_555
S2B O12B 1_555 1_555
O13B S2B 1_555 1_555
O14B S2B 1_555 1_555
C44B S2B 1_555 1_555
C45B C44B 1_555 1_555
H45B C45B 1_555 1_555
C46B C45B 1_555 1_555
H46B C46B 1_555 1_555
C47B C46B 1_555 1_555
C48B C47B 1_555 1_555
H47B C48B 1_555 1_555
C49B C44B 1_555 1_555
H48B C49B 1_555 1_555
C50B C50 1_555 1_555
H49B C50B 1_555 1_555
H50B C50B 1_555 1_555
C4 C5 1_555 1_555
C8 C9 1_555 1_555
C11 C12 1_555 1_555
C14 C15 1_555 1_555
C22 C23 1_555 1_555
C26 C27 1_555 1_555
C29 C30 1_555 1_555
C32 C33 1_555 1_555
C41 C42 1_555 1_555
C48 C49 1_555 1_555
N4 C51 1_555 1_555
N5 C51 1_555 1_555
N7 C52 1_555 1_555
N8 C52 1_555 1_555
C40B C43B 1_555 1_555
C41B C42B 1_555 1_555
C47B C50B 1_555 1_555
C48B C49B 1_555 1_555

#END
