
#######################################################################
#
#                 Cambridge Crystallographic Data Centre
#                                CCDC 
#
#######################################################################
#
# If this CIF has been generated from an entry in the Cambridge 
# Structural Database, then it will include bibliographic, chemical, 
# crystal, experimental, refinement or atomic coordinate data resulting 
# from the CCDC's data processing and validation procedures.
#
#######################################################################

data_VUKHUG
_chemical_formula_moiety         'C25 H27 N2 1+,I1 1-'
_chemical_name_systematic        
'2-(2-(4-(dimethylamino)phenyl)vinyl)-1,1,3-trimethyl-1H-benzo[e]indolium iodide'
_symmetry_cell_setting           monoclinic
_symmetry_space_group_name_H-M   'P 21'
_symmetry_Int_Tables_number      4
_space_group_name_Hall           'P 2yb'
loop_
_symmetry_equiv_pos_site_id
_symmetry_equiv_pos_as_xyz
1 x,y,z
2 -x,1/2+y,-z
_cell_length_a                   7.3145(12)
_cell_length_b                   12.6040(14)
_cell_length_c                   12.3506(19)
_cell_angle_alpha                90
_cell_angle_beta                 106.747(16)
_cell_angle_gamma                90
_cell_volume                     1090.33
_cell_formula_units_Z            2
loop_
_atom_site_label
_atom_site_type_symbol
_atom_site_fract_x
_atom_site_fract_y
_atom_site_fract_z
I1 I 0.27981(3) 0.83649(4) 0.12831(2)
C1 C 0.6975(4) 0.8330(6) -0.2174(3)
C2 C 0.7149(7) 0.9170(6) -0.1440(6)
N1 N 0.7328(9) 0.8780(4) -0.0351(6)
C3 C 0.6721(5) 0.8537(4) -0.3337(4)
C4 C 0.7502(9) 0.7158(5) 0.0664(5)
C5 C 0.8364(6) 0.4473(4) 0.3958(4)
C6 C 0.8005(6) 0.4453(3) 0.1943(4)
H1 H 0.7944 0.4064 0.1294
C7 C 0.7102(8) 0.7317(5) -0.1520(6)
C8 C 0.7593(6) 0.6080(3) 0.0798(4)
C9 C 0.7309(10) 0.7721(5) -0.0323(7)
C10 C 0.7480(12) 0.9452(5) 0.0628(8)
H2 H 0.7463 1.0184 0.0409
H3 H 0.8654 0.9302 0.1200
H4 H 0.6423 0.9316 0.0923
C11 C 0.7829(6) 0.5557(3) 0.1865(4)
C12 C 0.8264(6) 0.3926(3) 0.2948(4)
H5 H 0.8377 0.3191 0.2963
C13 C 0.7932(8) 0.6100(4) 0.2872(4)
H6 H 0.7823 0.6835 0.2855
C14 C 0.8188(8) 0.5586(4) 0.3873(4)
H7 H 0.8248 0.5979 0.4519
C15 C 0.8688(13) 0.2831(7) 0.5015(8)
H8 H 0.8890 0.2605 0.5783
H9 H 0.9713 0.2577 0.4743
H10 H 0.7500 0.2549 0.4553
N2 N 0.8630(9) 0.3970(5) 0.4964(5)
C16 C 0.8888(10) 0.4563(6) 0.5987(5)
H11 H 0.9061 0.4082 0.6612
H12 H 0.7783 0.4995 0.5927
H13 H 0.9995 0.5008 0.6109
C17 C 0.6733(6) 0.9639(4) -0.3675(4)
C18 C 0.6995(7) 1.0453(4) -0.2837(5)
H14 H 0.7043 1.1156 -0.3056
C19 C 0.7172(6) 1.0240(3) -0.1752(5)
H15 H 0.7305 1.0781 -0.1223
C20 C 0.6133(9) 0.9116(6) -0.5604(6)
H16 H 0.5923 0.9301 -0.6359
C21 C 0.6106(9) 0.8045(5) -0.5300(5)
H17 H 0.5881 0.7522 -0.5853
C22 C 0.6410(7) 0.7770(4) -0.4195(4)
H18 H 0.6412 0.7056 -0.4005
C23 C 0.6460(7) 0.9873(5) -0.4812(5)
H19 H 0.6506 1.0577 -0.5027
C24 C 0.8882(6) 0.6684(4) -0.1554(4)
H20 H 0.8947 0.6039 -0.1130
H21 H 1.0005 0.7101 -0.1228
H22 H 0.8806 0.6517 -0.2324
C25 C 0.5274(6) 0.6633(4) -0.1925(4)
H23 H 0.5423 0.5998 -0.1478
H24 H 0.5064 0.6447 -0.2705
H25 H 0.4200 0.7029 -0.1843
loop_
_geom_bond_atom_site_label_1
_geom_bond_atom_site_label_2
_geom_bond_site_symmetry_1
_geom_bond_site_symmetry_2
C1 C2 1_555 1_555
C2 N1 1_555 1_555
N1 C9 1_555 1_555
C3 C1 1_555 1_555
C4 C8 1_555 1_555
C5 C12 1_555 1_555
C6 H1 1_555 1_555
C7 C1 1_555 1_555
C8 C11 1_555 1_555
C9 C4 1_555 1_555
C10 N1 1_555 1_555
H2 C10 1_555 1_555
H3 C10 1_555 1_555
H4 C10 1_555 1_555
C11 C6 1_555 1_555
C12 C6 1_555 1_555
H5 C12 1_555 1_555
C13 C11 1_555 1_555
H6 C13 1_555 1_555
C14 C5 1_555 1_555
H7 C14 1_555 1_555
C15 H8 1_555 1_555
H9 C15 1_555 1_555
H10 C15 1_555 1_555
N2 C5 1_555 1_555
C16 N2 1_555 1_555
H11 C16 1_555 1_555
H12 C16 1_555 1_555
H13 C16 1_555 1_555
C17 C3 1_555 1_555
C18 C17 1_555 1_555
H14 C18 1_555 1_555
C19 C2 1_555 1_555
H15 C19 1_555 1_555
C20 H16 1_555 1_555
C21 C20 1_555 1_555
H17 C21 1_555 1_555
C22 C3 1_555 1_555
H18 C22 1_555 1_555
C23 C17 1_555 1_555
H19 C23 1_555 1_555
C24 C7 1_555 1_555
H20 C24 1_555 1_555
H21 C24 1_555 1_555
H22 C24 1_555 1_555
C25 C7 1_555 1_555
H23 C25 1_555 1_555
H24 C25 1_555 1_555
H25 C25 1_555 1_555
C7 C9 1_555 1_555
C13 C14 1_555 1_555
C15 N2 1_555 1_555
C18 C19 1_555 1_555
C20 C23 1_555 1_555
C21 C22 1_555 1_555

#END
