
#######################################################################
#
#                 Cambridge Crystallographic Data Centre
#                                CCDC 
#
#######################################################################
#
# If this CIF has been generated from an entry in the Cambridge 
# Structural Database, then it will include bibliographic, chemical, 
# crystal, experimental, refinement or atomic coordinate data resulting 
# from the CCDC's data processing and validation procedures.
#
#######################################################################

data_VULCIQ
_chemical_formula_moiety         'C41 H27 N3 O2,C1 H1 Cl3'
_chemical_name_systematic        
'3,4-bis(4-(9H-carbazol-9-yl)phenyl)-1-methyl-1H-pyrrole-2,5-dione chloroform solvate'
_symmetry_cell_setting           orthorhombic
_symmetry_space_group_name_H-M   'P b c n'
_symmetry_Int_Tables_number      60
_space_group_name_Hall           '-P 2n 2ab'
loop_
_symmetry_equiv_pos_site_id
_symmetry_equiv_pos_as_xyz
1 x,y,z
2 1/2-x,1/2-y,1/2+z
3 1/2+x,1/2-y,-z
4 -x,y,1/2-z
5 -x,-y,-z
6 1/2+x,1/2+y,1/2-z
7 1/2-x,1/2+y,z
8 x,-y,1/2+z
_cell_length_a                   23.9800(7)
_cell_length_b                   17.7382(6)
_cell_length_c                   8.0277(3)
_cell_angle_alpha                90
_cell_angle_beta                 90
_cell_angle_gamma                90
_cell_volume                     3414.68
_exptl_crystal_colour            red
_exptl_crystal_description       block
_cell_formula_units_Z            4
loop_
_atom_site_label
_atom_site_type_symbol
_atom_site_fract_x
_atom_site_fract_y
_atom_site_fract_z
N1 N 0.5000 -0.3283(2) 0.2500
C2 C 0.5000 -0.4109(3) 0.2500
C3 C 0.45368(14) -0.28459(19) 0.2758(5)
C4 C 0.47232(12) -0.20312(17) 0.2636(4)
C5 C 0.43145(12) -0.14243(17) 0.2880(4)
C6 C 0.37718(13) -0.15139(18) 0.2287(4)
H2 H 0.3677 -0.1947 0.1700
C7 C 0.33721(12) -0.09631(18) 0.2565(4)
H3 H 0.3013 -0.1026 0.2147
C8 C 0.35043(12) -0.03218(17) 0.3459(4)
C9 C 0.40433(12) -0.02181(18) 0.4052(4)
H4 H 0.4136 0.0216 0.4641
C10 C 0.44428(12) -0.07691(18) 0.3756(4)
H5 H 0.4804 -0.0699 0.4152
C11 C 0.25556(11) 0.00593(19) 0.4431(4)
C12 C 0.23400(13) -0.0626(2) 0.4978(4)
H6 H 0.2547 -0.1069 0.4928
C13 C 0.18006(13) -0.0613(2) 0.5600(5)
H7 H 0.1641 -0.1061 0.5968
C14 C 0.14916(13) 0.0047(2) 0.5691(5)
H8 H 0.1131 0.0033 0.6113
C15 C 0.17107(13) 0.0723(2) 0.5168(5)
H9 H 0.1503 0.1164 0.5243
C16 C 0.22498(12) 0.07344(19) 0.4522(4)
C17 C 0.26008(13) 0.13237(18) 0.3851(4)
C18 C 0.25171(15) 0.2089(2) 0.3541(5)
H10 H 0.2186 0.2323 0.3849
C19 C 0.29336(17) 0.2489(2) 0.2772(5)
H11 H 0.2883 0.3000 0.2557
C20 C 0.34299(17) 0.2143(2) 0.2312(5)
H12 H 0.3704 0.2428 0.1789
C21 C 0.35260(14) 0.13909(19) 0.2608(5)
H13 H 0.3858 0.1162 0.2291
C22 C 0.31060(12) 0.09863(17) 0.3401(4)
O1 O 0.40772(11) -0.30822(15) 0.3065(4)
N2 N 0.30834(10) 0.02180(14) 0.3772(3)
C3C C 0.54632(14) -0.28459(19) 0.2242(5)
C4C C 0.52768(12) -0.20312(17) 0.2364(4)
C5C C 0.56855(12) -0.14243(17) 0.2120(4)
C6C C 0.62282(13) -0.15139(18) 0.2713(4)
H2C H 0.6323 -0.1947 0.3300
C7C C 0.66279(12) -0.09631(18) 0.2435(4)
H3C H 0.6987 -0.1026 0.2853
C8C C 0.64957(12) -0.03218(17) 0.1541(4)
C9C C 0.59567(12) -0.02181(18) 0.0948(4)
H4C H 0.5864 0.0216 0.0359
C10C C 0.55572(12) -0.07691(18) 0.1244(4)
H5C H 0.5196 -0.0699 0.0848
C11C C 0.74444(11) 0.00593(19) 0.0569(4)
C12C C 0.76600(13) -0.0626(2) 0.0022(4)
H6C H 0.7453 -0.1069 0.0072
C13C C 0.81994(13) -0.0613(2) -0.0600(5)
H7C H 0.8359 -0.1061 -0.0968
C14C C 0.85084(13) 0.0047(2) -0.0691(5)
H8C H 0.8869 0.0033 -0.1113
C15C C 0.82893(13) 0.0723(2) -0.0168(5)
H9C H 0.8497 0.1164 -0.0243
C16C C 0.77502(12) 0.07344(19) 0.0478(4)
C17C C 0.73992(13) 0.13237(18) 0.1149(4)
C18C C 0.74829(15) 0.2089(2) 0.1459(5)
H10C H 0.7814 0.2323 0.1151
C19C C 0.70664(17) 0.2489(2) 0.2228(5)
H11C H 0.7117 0.3000 0.2443
C20C C 0.65701(17) 0.2143(2) 0.2688(5)
H12C H 0.6296 0.2428 0.3211
C21C C 0.64740(14) 0.13909(19) 0.2392(5)
H13C H 0.6142 0.1162 0.2709
C22C C 0.68940(12) 0.09863(17) 0.1599(4)
O1C O 0.59228(11) -0.30822(15) 0.1935(4)
N2C N 0.69166(10) 0.02180(14) 0.1228(3)
Cl1 Cl 0.44600(10) 0.37142(13) 0.3299(3)
Cl2 Cl 0.5000 0.23340(15) 0.2500
C1 C 0.4834(6) 0.3263(7) 0.2101(18)
H1 H 0.501(5) 0.310(8) 0.122(17)
Cl1C Cl 0.55400(10) 0.37142(13) 0.1701(3)
C1C C 0.5166(6) 0.3263(7) 0.2899(18)
H1C H 0.499(5) 0.310(8) 0.378(17)
H14? H 0.5071 -0.4290 0.3607
H15? H 0.5286 -0.4290 0.1763
H16? H 0.4644 -0.4290 0.2129
loop_
_geom_bond_atom_site_label_1
_geom_bond_atom_site_label_2
_geom_bond_site_symmetry_1
_geom_bond_site_symmetry_2
Cl1 C1 1_555 1_555
Cl2 C1 1_555 1_555
C1 H1 1_555 1_555
N1 C2 1_555 1_555
C3 N1 1_555 1_555
C4 C3 1_555 1_555
C5 C4 1_555 1_555
C6 C5 1_555 1_555
H2 C6 1_555 1_555
C7 C6 1_555 1_555
H3 C7 1_555 1_555
C8 C7 1_555 1_555
C9 C8 1_555 1_555
H4 C9 1_555 1_555
C10 C5 1_555 1_555
H5 C10 1_555 1_555
C11 C12 1_555 1_555
C12 H6 1_555 1_555
C13 C12 1_555 1_555
H7 C13 1_555 1_555
C14 C13 1_555 1_555
H8 C14 1_555 1_555
C15 C14 1_555 1_555
H9 C15 1_555 1_555
C16 C11 1_555 1_555
C17 C16 1_555 1_555
C18 C17 1_555 1_555
H10 C18 1_555 1_555
C19 C18 1_555 1_555
H11 C19 1_555 1_555
C20 C19 1_555 1_555
H12 C20 1_555 1_555
C21 C20 1_555 1_555
H13 C21 1_555 1_555
C22 C17 1_555 1_555
O1 C3 1_555 1_555
N2 C8 1_555 1_555
Cl1C C1 1_555 1_555
C1C Cl1 1_555 1_555
H1C C1C 1_555 1_555
C3C N1 1_555 1_555
C4C C4 1_555 1_555
C5C C4C 1_555 1_555
C6C C5C 1_555 1_555
H2C C6C 1_555 1_555
C7C C6C 1_555 1_555
H3C C7C 1_555 1_555
C8C C7C 1_555 1_555
C9C C8C 1_555 1_555
H4C C9C 1_555 1_555
C10C C5C 1_555 1_555
H5C C10C 1_555 1_555
C11C C12C 1_555 1_555
C12C H6C 1_555 1_555
C13C C12C 1_555 1_555
H7C C13C 1_555 1_555
C14C C13C 1_555 1_555
H8C C14C 1_555 1_555
C15C C14C 1_555 1_555
H9C C15C 1_555 1_555
C16C C11C 1_555 1_555
C17C C16C 1_555 1_555
C18C C17C 1_555 1_555
H10C C18C 1_555 1_555
C19C C18C 1_555 1_555
H11C C19C 1_555 1_555
C20C C19C 1_555 1_555
H12C C20C 1_555 1_555
C21C C20C 1_555 1_555
H13C C21C 1_555 1_555
C22C C17C 1_555 1_555
O1C C3C 1_555 1_555
N2C C8C 1_555 1_555
Cl2 C1C 1_555 1_555
C9 C10 1_555 1_555
C11 N2 1_555 1_555
C15 C16 1_555 1_555
C21 C22 1_555 1_555
C22 N2 1_555 1_555
Cl1C C1C 1_555 1_555
C3C C4C 1_555 1_555
C9C C10C 1_555 1_555
C11C N2C 1_555 1_555
C15C C16C 1_555 1_555
C21C C22C 1_555 1_555
C22C N2C 1_555 1_555

#END
