
#######################################################################
#
#                 Cambridge Crystallographic Data Centre
#                                CCDC 
#
#######################################################################
#
# If this CIF has been generated from an entry in the Cambridge 
# Structural Database, then it will include bibliographic, chemical, 
# crystal, experimental, refinement or atomic coordinate data resulting 
# from the CCDC's data processing and validation procedures.
#
#######################################################################

data_VULDIR
_chemical_name_common            'dimethyl melamine hydrochloride'
_chemical_formula_moiety         'C5 H11 N6 1+,Cl1 1-'
_chemical_name_systematic        
'2-amino-4,6-bis(methylamino)-1,3,5-triazin-1-ium chloride'
_symmetry_cell_setting           orthorhombic
_symmetry_space_group_name_H-M   'P m n a'
_symmetry_Int_Tables_number      53
_space_group_name_Hall           '-P 2ac 2'
loop_
_symmetry_equiv_pos_site_id
_symmetry_equiv_pos_as_xyz
1 x,y,z
2 x,-y,-z
3 1/2-x,-y,1/2+z
4 1/2-x,y,1/2-z
5 -x,-y,-z
6 -x,y,z
7 1/2+x,y,1/2-z
8 1/2+x,-y,1/2+z
_cell_length_a                   6.4782(13)
_cell_length_b                   9.5193(19)
_cell_length_c                   14.311(3)
_cell_angle_alpha                90
_cell_angle_beta                 90
_cell_angle_gamma                90
_cell_volume                     882.53
_exptl_crystal_colour            colorless
_exptl_crystal_description       prism
_cell_formula_units_Z            4
loop_
_atom_site_label
_atom_site_type_symbol
_atom_site_fract_x
_atom_site_fract_y
_atom_site_fract_z
Cl1 Cl 0.5000 0.08473(6) 0.64066(5)
N1 N 0.5000 0.5259(2) 0.63597(13)
N2 N 0.5000 0.6151(2) 0.79459(13)
N3 N 0.5000 0.7684(2) 0.66576(13)
H1 H 0.5000 0.868(3) 0.644(2)
N4 N 0.5000 0.3790(2) 0.76188(14)
H2 H 0.5000 0.309(3) 0.721(2)
N5 N 0.5000 0.8572(2) 0.81406(14)
H3 H 0.5000 0.941(3) 0.787(2)
N6 N 0.5000 0.6866(2) 0.51514(15)
H4 H 0.5000 0.625(4) 0.475(2)
H5 H 0.5000 0.783(3) 0.495(2)
C1 C 0.5000 0.6575(2) 0.60566(16)
C2 C 0.5000 0.5099(2) 0.73065(15)
C3 C 0.5000 0.7442(2) 0.75997(15)
C4 C 0.5000 0.3400(3) 0.86011(17)
C5 C 0.5000 0.8523(3) 0.91559(17)
H6? H 0.5669 0.2507 0.8675
H7? H 0.3603 0.3336 0.8821
H8? H 0.5728 0.4099 0.8955
H9? H 0.3674 0.8813 0.9386
H10? H 0.6045 0.9143 0.9393
H11? H 0.5280 0.7582 0.9360
loop_
_geom_bond_atom_site_label_1
_geom_bond_atom_site_label_2
_geom_bond_site_symmetry_1
_geom_bond_site_symmetry_2
N1 C1 1_555 1_555
N2 C2 1_555 1_555
N3 H1 1_555 1_555
N4 H2 1_555 1_555
N5 H3 1_555 1_555
N6 H4 1_555 1_555
H5 N6 1_555 1_555
C1 N3 1_555 1_555
C2 N1 1_555 1_555
C3 N2 1_555 1_555
C4 N4 1_555 1_555
C5 N5 1_555 1_555
N3 C3 1_555 1_555
N4 C2 1_555 1_555
N5 C3 1_555 1_555
N6 C1 1_555 1_555

#END
