
#######################################################################
#
#                 Cambridge Crystallographic Data Centre
#                                CCDC 
#
#######################################################################
#
# If this CIF has been generated from an entry in the Cambridge 
# Structural Database, then it will include bibliographic, chemical, 
# crystal, experimental, refinement or atomic coordinate data resulting 
# from the CCDC's data processing and validation procedures.
#
#######################################################################

data_VULDUC
_chemical_formula_moiety         'C1 H5 N2 O1 1+,C2 H8 N1 O6 P2 1-,H2 O1'
_chemical_name_systematic        
'Uronium (1-ammonioethane-1,1-diyl)bis(hydrogen (phosphonate)) monohydrate'
_symmetry_cell_setting           triclinic
_symmetry_space_group_name_H-M   'P -1'
_symmetry_Int_Tables_number      2
_space_group_name_Hall           '-P 1'
loop_
_symmetry_equiv_pos_site_id
_symmetry_equiv_pos_as_xyz
1 x,y,z
2 -x,-y,-z
_cell_length_a                   5.4959(13)
_cell_length_b                   9.048(2)
_cell_length_c                   12.673(3)
_cell_angle_alpha                83.611(4)
_cell_angle_beta                 82.503(4)
_cell_angle_gamma                77.561(4)
_cell_volume                     607.88
_exptl_crystal_colour            colorless
_exptl_crystal_description       block
_cell_formula_units_Z            2
loop_
_atom_site_label
_atom_site_type_symbol
_atom_site_fract_x
_atom_site_fract_y
_atom_site_fract_z
C1 C 0.3380(10) 0.2422(6) 0.3663(4)
C2 C 0.3339(13) 0.3972(7) 0.3020(5)
H1 H 0.3796 0.4657 0.3450
H2 H 0.1684 0.4380 0.2820
H3 H 0.4510 0.3847 0.2388
H4 H 0.201(14) 0.452(9) 0.542(6)
H5 H 0.131(15) -0.052(9) 0.384(6)
N1 N 0.6001(9) 0.1798(6) 0.3934(4)
H8 H 0.7062 0.1791 0.3340
H9 H 0.6106 0.0855 0.4239
H10 H 0.6389 0.2378 0.4383
O1 O 0.2681(8) 0.3600(5) 0.5562(3)
O2 O 0.1379(8) 0.1137(4) 0.5530(3)
O3 O -0.1189(8) 0.3552(5) 0.4694(3)
O4 O 0.2752(9) -0.0455(5) 0.3525(3)
O5 O 0.0130(8) 0.1709(6) 0.2435(3)
O6 O 0.4894(8) 0.0807(5) 0.1987(3)
P1 P 0.1337(3) 0.26642(16) 0.49371(11)
P2 P 0.2622(3) 0.10839(18) 0.28165(11)
C3 C 0.7210(14) 0.2183(9) 0.9694(6)
N2 N 0.5065(10) 0.2028(8) 1.0169(4)
H11 H 0.3802 0.2152 0.9810
H12 H 0.4887 0.1799 1.0848
N3 N 0.7357(13) 0.2532(9) 0.8662(5)
H13 H 0.6047 0.2646 0.8333
H14 H 0.8763 0.2647 0.8312
O7 O 0.9206(14) 0.2019(10) 1.0215(5)
H15 H 0.8862 0.1719 1.0840
H6 H 0.734(17) 0.734(11) 0.284(9)
H7 H 0.659(18) 0.859(12) 0.219(8)
O8 O 0.7425(11) 0.7689(8) 0.2190(5)
loop_
_geom_bond_atom_site_label_1
_geom_bond_atom_site_label_2
_geom_bond_site_symmetry_1
_geom_bond_site_symmetry_2
C1 C2 1_555 1_555
C2 H1 1_555 1_555
H2 C2 1_555 1_555
H3 C2 1_555 1_555
C3 N2 1_555 1_555
H4 O1 1_555 1_555
H5 O4 1_555 1_555
H6 O8 1_555 1_555
H7 O8 1_555 1_555
N1 C1 1_555 1_555
H8 N1 1_555 1_555
H9 N1 1_555 1_555
H10 N1 1_555 1_555
N2 H11 1_555 1_555
H12 N2 1_555 1_555
N3 C3 1_555 1_555
H13 N3 1_555 1_555
H14 N3 1_555 1_555
O1 P1 1_555 1_555
O2 P1 1_555 1_555
O3 P1 1_555 1_555
O4 P2 1_555 1_555
O5 P2 1_555 1_555
O6 P2 1_555 1_555
O7 C3 1_555 1_555
H15 O7 1_555 1_555
P1 C1 1_555 1_555
P2 C1 1_555 1_555

#END
