
#######################################################################
#
#                 Cambridge Crystallographic Data Centre
#                                CCDC 
#
#######################################################################
#
# If this CIF has been generated from an entry in the Cambridge 
# Structural Database, then it will include bibliographic, chemical, 
# crystal, experimental, refinement or atomic coordinate data resulting 
# from the CCDC's data processing and validation procedures.
#
#######################################################################

data_VULGOZ
_chemical_name_common            
'tetrakis(Diaminomethaniminium) 25,26,27,28-tetrahydroxypentacyclo[19.3.1.1$3,7!.1$9,13!.1$15,19!]octacosa-1(25),3(28),4,6,9(27),10,12,15(26),16,18,21,23-dodecaene-5,11,17,23-tetrasulfonate hydrate'
_chemical_formula_moiety         'C28 H20 O16 S4 4-,4(C1 H6 N3 1+),1.21(H2 O1)'
_chemical_name_systematic        
'tetrakis(Guanidinium) 5,11,17,23-tetrasulfonato-25,26,27,28-tetrahydroxycalix(4)arene hydrate'
_symmetry_cell_setting           triclinic
_symmetry_space_group_name_H-M   'P -1'
_symmetry_Int_Tables_number      2
_space_group_name_Hall           '-P 1'
loop_
_symmetry_equiv_pos_site_id
_symmetry_equiv_pos_as_xyz
1 x,y,z
2 -x,-y,-z
_cell_length_a                   12.3167(5)
_cell_length_b                   13.0801(5)
_cell_length_c                   14.3631(6)
_cell_angle_alpha                90.699(2)
_cell_angle_beta                 92.572(2)
_cell_angle_gamma                93.545(2)
_cell_volume                     2306.93
_exptl_crystal_colour            colorless
_exptl_crystal_description       block
_cell_formula_units_Z            2
loop_
_atom_site_label
_atom_site_type_symbol
_atom_site_fract_x
_atom_site_fract_y
_atom_site_fract_z
S1 S 0.53597(5) 0.26415(5) 0.60661(5)
S2 S 1.03994(5) 0.36133(5) 0.39581(5)
S3 S 1.01070(6) 0.28091(5) -0.08466(5)
S4 S 0.53546(5) 0.37488(5) 0.12001(5)
O1 O 0.58333(17) 0.24617(17) 0.69938(14)
O2 O 0.41678(16) 0.26067(17) 0.60373(16)
O3 O 0.58114(17) 0.35943(16) 0.56723(15)
O4 O 1.10408(16) 0.37009(15) 0.48445(14)
O5 O 0.93836(16) 0.41231(15) 0.40091(15)
O6 O 1.10329(16) 0.39570(15) 0.31738(14)
O7 O 1.09199(17) 0.33523(17) -0.02155(15)
O8 O 0.91745(17) 0.34243(16) -0.10565(15)
O9 O 1.05723(17) 0.24323(16) -0.16917(14)
O10 O 0.59685(17) 0.41987(16) 0.20160(15)
O11 O 0.41959(16) 0.39305(16) 0.12180(15)
O12 O 0.58322(17) 0.40485(16) 0.03250(14)
O13 O 0.68994(16) -0.03848(16) 0.34599(14)
H1 H 0.6480 -0.0470 0.2984
O14 O 0.91823(17) -0.07579(15) 0.32196(14)
H2 H 0.8781 -0.1024 0.3621
O15 O 0.81585(16) -0.04905(15) 0.14258(14)
H3 H 0.8575 -0.0635 0.1878
O16 O 0.59340(17) -0.06617(15) 0.16987(14)
H4 H 0.6551 -0.0800 0.1525
C1 C 0.5746(2) 0.1654(2) 0.53238(19)
C2 C 0.5090(2) 0.1346(2) 0.45501(19)
H5 H 0.4392 0.1610 0.4460
C3 C 0.5446(2) 0.0653(2) 0.39020(19)
C4 C 0.6486(2) 0.0292(2) 0.40534(19)
C5 C 0.7162(2) 0.0601(2) 0.48232(19)
C6 C 0.6779(2) 0.1287(2) 0.54626(19)
H6 H 0.7223 0.1506 0.5994
C7 C 0.8307(2) 0.0235(2) 0.49317(19)
H7 H 0.8279 -0.0517 0.4837
H8 H 0.8603 0.0392 0.5573
C8 C 1.0044(2) 0.2300(2) 0.37622(19)
C9 C 1.0387(2) 0.1804(2) 0.29784(19)
H9 H 1.0830 0.2168 0.2554
C10 C 1.0081(2) 0.0778(2) 0.28147(19)
C11 C 0.9424(2) 0.0244(2) 0.34434(19)
C12 C 0.9060(2) 0.0743(2) 0.42375(19)
C13 C 0.9384(2) 0.1772(2) 0.43843(19)
H10 H 0.9152 0.2121 0.4917
C14 C 1.0412(2) 0.0255(2) 0.19280(19)
H11 H 1.1196 0.0416 0.1841
H12 H 1.0293 -0.0497 0.1985
C15 C 0.9571(2) 0.1764(2) -0.02028(19)
C16 C 0.8496(2) 0.1395(2) -0.03815(19)
H13 H 0.8078 0.1665 -0.0881
C17 C 0.8032(2) 0.0632(2) 0.01686(19)
C18 C 0.8668(2) 0.0247(2) 0.09017(19)
C19 C 0.9752(2) 0.0610(2) 0.10892(19)
C20 C 1.0191(2) 0.1371(2) 0.05266(19)
H14 H 1.0924 0.1628 0.0642
C21 C 0.6833(2) 0.0304(2) 0.00315(19)
H15 H 0.6728 -0.0448 0.0101
H16 H 0.6572 0.0476 -0.0606
C22 C 0.5454(2) 0.2410(2) 0.1284(2)
C23 C 0.6016(2) 0.1879(2) 0.06339(19)
H17 H 0.6297 0.2228 0.0112
C24 C 0.6172(2) 0.0840(2) 0.07428(19)
C25 C 0.5767(2) 0.0351(2) 0.15212(19)
C26 C 0.5170(2) 0.0866(2) 0.21709(19)
C27 C 0.5020(2) 0.1899(2) 0.2042(2)
H18 H 0.4619 0.2261 0.2474
C28 C 0.4746(2) 0.0342(2) 0.30353(19)
H19 H 0.3988 0.0525 0.3122
H20 H 0.4737 -0.0410 0.2945
N1 N 0.1806(2) 0.61636(19) 0.43114(17)
H21 H 0.2521 0.6184 0.4372
H22 H 0.1411 0.5973 0.4782
N2 N 0.0244(2) 0.6407(2) 0.34176(18)
H23 H -0.0160 0.6230 0.3887
H24 H -0.0068 0.6578 0.2883
N3 N 0.1916(2) 0.6705(2) 0.28024(19)
H25 H 0.2632 0.6728 0.2859
H26 H 0.1592 0.6874 0.2273
C29 C 0.1327(2) 0.6417(2) 0.3516(2)
N4 N 0.8319(2) 0.4565(2) 0.21528(19)
H27 H 0.7620 0.4671 0.2136
H28 H 0.8704 0.4626 0.2684
N5 N 0.9853(2) 0.4180(2) 0.13959(19)
H29 H 1.0172 0.4030 0.0880
H30 H 1.0236 0.4241 0.1928
N6 N 0.8217(2) 0.4224(2) 0.05752(18)
H31 H 0.8535 0.4074 0.0058
H32 H 0.7515 0.4314 0.0561
C30 C 0.8795(2) 0.4315(2) 0.1372(2)
N7 N 0.3352(2) 0.4349(2) 0.30294(19)
H33 H 0.3685 0.4420 0.2502
H34 H 0.2642 0.4395 0.3037
N8 N 0.4988(2) 0.4105(2) 0.38068(18)
H35 H 0.5330 0.4174 0.3284
H36 H 0.5357 0.3989 0.4330
N9 N 0.3414(2) 0.4082(2) 0.46085(18)
H37 H 0.2706 0.4135 0.4619
H38 H 0.3792 0.3966 0.5127
C31 C 0.3914(2) 0.4176(2) 0.3806(2)
N10 N 0.6845(2) 0.6473(2) 0.06261(19)
H39 H 0.6445 0.6197 0.0154
H40 H 0.7557 0.6550 0.0593
N11 N 0.5297(2) 0.6656(2) 0.14345(19)
H41 H 0.4898 0.6380 0.0962
H42 H 0.4984 0.6855 0.1939
N12 N 0.6982(2) 0.7200(2) 0.20995(18)
H43 H 0.7693 0.7282 0.2065
H44 H 0.6670 0.7399 0.2604
C32 C 0.6376(2) 0.6773(2) 0.1386(2)
O17 O 0.19293(17) 0.21998(17) 0.59204(17)
H45 H 0.1653 0.2565 0.5526
H46 H 0.2590 0.2270 0.5851
O18 O 0.2284(16) 0.2689(18) 0.1429(13)
H47 H 0.2824 0.3067 0.1281
H48 H 0.2464 0.2141 0.1678
O19 O 0.712(2) 0.315(3) 0.369(2)
H49 H 0.7561 0.3580 0.3444
H50 H 0.7149 0.2604 0.3365
loop_
_geom_bond_atom_site_label_1
_geom_bond_atom_site_label_2
_geom_bond_site_symmetry_1
_geom_bond_site_symmetry_2
S1 O1 1_555 1_555
S2 O4 1_555 1_555
S3 O7 1_555 1_555
S4 O10 1_555 1_555
O2 S1 1_555 1_555
O3 S1 1_555 1_555
O5 S2 1_555 1_555
O6 S2 1_555 1_555
O8 S3 1_555 1_555
O9 S3 1_555 1_555
O11 S4 1_555 1_555
O12 S4 1_555 1_555
O13 H1 1_555 1_555
O14 H2 1_555 1_555
O15 H3 1_555 1_555
O16 H4 1_555 1_555
C1 S1 1_555 1_555
C2 C1 1_555 1_555
H5 C2 1_555 1_555
C3 C2 1_555 1_555
C4 O13 1_555 1_555
C5 C4 1_555 1_555
C6 C1 1_555 1_555
H6 C6 1_555 1_555
C7 C5 1_555 1_555
H7 C7 1_555 1_555
H8 C7 1_555 1_555
C8 S2 1_555 1_555
C9 C8 1_555 1_555
H9 C9 1_555 1_555
C10 C9 1_555 1_555
C11 O14 1_555 1_555
C12 C7 1_555 1_555
C13 C8 1_555 1_555
H10 C13 1_555 1_555
C14 C10 1_555 1_555
H11 C14 1_555 1_555
H12 C14 1_555 1_555
C15 S3 1_555 1_555
C16 C15 1_555 1_555
H13 C16 1_555 1_555
C17 C16 1_555 1_555
C18 O15 1_555 1_555
C19 C14 1_555 1_555
C20 C15 1_555 1_555
H14 C20 1_555 1_555
C21 C17 1_555 1_555
H15 C21 1_555 1_555
H16 C21 1_555 1_555
C22 S4 1_555 1_555
C23 C22 1_555 1_555
H17 C23 1_555 1_555
C24 C21 1_555 1_555
C25 O16 1_555 1_555
C26 C25 1_555 1_555
C27 C22 1_555 1_555
H18 C27 1_555 1_555
C28 C3 1_555 1_555
H19 C28 1_555 1_555
H20 C28 1_555 1_555
N1 H21 1_555 1_555
H22 N1 1_555 1_555
N2 H23 1_555 1_555
H24 N2 1_555 1_555
N3 H25 1_555 1_555
H26 N3 1_555 1_555
C29 N1 1_555 1_555
N4 H27 1_555 1_555
H28 N4 1_555 1_555
N5 H29 1_555 1_555
H30 N5 1_555 1_555
N6 H31 1_555 1_555
H32 N6 1_555 1_555
C30 N4 1_555 1_555
N7 H33 1_555 1_555
H34 N7 1_555 1_555
N8 H35 1_555 1_555
H36 N8 1_555 1_555
N9 H37 1_555 1_555
H38 N9 1_555 1_555
C31 N7 1_555 1_555
N10 H39 1_555 1_555
H40 N10 1_555 1_555
N11 H41 1_555 1_555
H42 N11 1_555 1_555
N12 H43 1_555 1_555
H44 N12 1_555 1_555
C32 N10 1_555 1_555
O17 H45 1_555 1_555
H46 O17 1_555 1_555
O18 H47 1_555 1_555
H48 O18 1_555 1_555
O19 H49 1_555 1_555
H50 O19 1_555 1_555
C3 C4 1_555 1_555
C5 C6 1_555 1_555
C10 C11 1_555 1_555
C11 C12 1_555 1_555
C12 C13 1_555 1_555
C17 C18 1_555 1_555
C18 C19 1_555 1_555
C19 C20 1_555 1_555
C23 C24 1_555 1_555
C24 C25 1_555 1_555
C26 C27 1_555 1_555
C26 C28 1_555 1_555
N2 C29 1_555 1_555
N3 C29 1_555 1_555
N5 C30 1_555 1_555
N6 C30 1_555 1_555
N8 C31 1_555 1_555
N9 C31 1_555 1_555
N11 C32 1_555 1_555
N12 C32 1_555 1_555

#END
