
#######################################################################
#
#                 Cambridge Crystallographic Data Centre
#                                CCDC 
#
#######################################################################
#
# If this CIF has been generated from an entry in the Cambridge 
# Structural Database, then it will include bibliographic, chemical, 
# crystal, experimental, refinement or atomic coordinate data resulting 
# from the CCDC's data processing and validation procedures.
#
#######################################################################

data_VULGUF
_chemical_name_common            
'tetrakis(Diaminomethaniminium) 25,26,27,28-tetrahydroxypentacyclo[19.3.1.1$3,7!.1$9,13!.1$15,19!]octacosa-1(25),3(28),4,6,9(27),10,12,15(26),16,18,21,23-dodecaene-5,11,17,23-tetrasulfonate'
_chemical_formula_moiety         '4(C1 H6 N3 1+),C28 H20 O16 S4 4-'
_chemical_name_systematic        
'tetrakis(Guanidinium) 5,11,17,23-tetrasulfonato-25,26,27,28-tetrahydroxycalix(4)arene'
_symmetry_cell_setting           triclinic
_symmetry_space_group_name_H-M   'P -1'
_symmetry_Int_Tables_number      2
_space_group_name_Hall           '-P 1'
loop_
_symmetry_equiv_pos_site_id
_symmetry_equiv_pos_as_xyz
1 x,y,z
2 -x,-y,-z
_cell_length_a                   12.4998(7)
_cell_length_b                   12.9588(7)
_cell_length_c                   14.1936(8)
_cell_angle_alpha                93.765(3)
_cell_angle_beta                 91.628(3)
_cell_angle_gamma                93.254(3)
_cell_volume                     2289.26
_exptl_crystal_colour            colorless
_exptl_crystal_description       block
_cell_formula_units_Z            2
loop_
_atom_site_label
_atom_site_type_symbol
_atom_site_fract_x
_atom_site_fract_y
_atom_site_fract_z
S1 S -0.04051(4) 0.66011(5) 0.08313(4)
S2 S 0.46230(5) 0.73942(4) -0.12398(4)
S3 S 0.46581(4) 0.61108(4) 0.36064(4)
S4 S -0.01022(5) 0.70681(5) 0.56723(4)
O1 O -0.10460(13) 0.62801(14) 0.16125(12)
O2 O -0.10049(14) 0.65351(15) -0.00627(12)
O3 O 0.05841(13) 0.60638(13) 0.07751(12)
O4 O 0.11700(15) 1.09169(12) 0.18412(12)
H1 H 0.1038 1.1119 0.2462
O5 O 0.41676(14) 0.64351(13) -0.08984(13)
O6 O 0.41439(16) 0.76023(15) -0.21438(12)
O7 O 0.57854(13) 0.74099(14) -0.12373(13)
O8 O 0.33102(14) 1.04287(13) 0.17119(12)
H2 H 0.2757 1.0746 0.1539
O9 O 0.57916(13) 0.59225(14) 0.35910(12)
O10 O 0.40894(13) 0.56784(13) 0.27468(12)
O11 O 0.41546(13) 0.57953(12) 0.44588(11)
O12 O 0.41353(14) 1.06009(12) 0.35386(13)
H3 H 0.4085 1.0775 0.2962
O13 O 0.07633(14) 0.63945(14) 0.58529(13)
O14 O -0.05696(14) 0.74562(14) 0.65449(12)
O15 O -0.09034(14) 0.65867(14) 0.49980(13)
O16 O 0.19004(13) 1.05177(13) 0.37166(12)
H4 H 0.2633 1.0626 0.3756
C1 C -0.00105(16) 0.79208(17) 0.11066(15)
C2 C 0.06507(16) 0.84452(17) 0.05043(15)
H5 H 0.0827 0.8119 -0.0069
C3 C 0.10498(16) 0.94481(16) 0.07481(14)
C4 C 0.07525(17) 0.99282(16) 0.16077(15)
C5 C 0.00758(16) 0.94159(17) 0.22154(15)
C6 C -0.02968(17) 0.84068(17) 0.19474(15)
H6 H -0.0748 0.8052 0.2342
C7 C -0.02184(18) 0.98837(18) 0.31765(15)
H7 H -0.0050 1.0625 0.3213
H8 H -0.0983 0.9768 0.3257
C8 C 0.03902(17) 0.94027(17) 0.39591(15)
C9 C -0.00796(17) 0.85985(17) 0.44302(15)
H9 H -0.0789 0.8373 0.4287
C10 C 0.05004(17) 0.81253(17) 0.51147(15)
C11 C 0.15520(17) 0.84582(17) 0.53314(15)
H10 H 0.1934 0.8138 0.5790
C12 C 0.20499(17) 0.92602(16) 0.48789(14)
C13 C 0.14554(18) 0.97243(16) 0.41921(15)
C14 C 0.32341(17) 0.95631(18) 0.50649(15)
H11 H 0.3353 1.0309 0.5064
H12 H 0.3457 0.9354 0.5681
C15 C 0.38932(16) 0.90434(16) 0.43088(14)
C16 C 0.40345(16) 0.79901(17) 0.43235(15)
H13 H 0.3769 0.7630 0.4820
C17 C 0.45606(16) 0.74685(16) 0.36164(15)
C18 C 0.49717(16) 0.80034(17) 0.28772(15)
H14 H 0.5333 0.7649 0.2404
C19 C 0.48526(16) 0.90516(16) 0.28342(14)
C20 C 0.42995(17) 0.95623(16) 0.35532(15)
C21 C 0.52849(17) 0.95919(17) 0.19923(15)
H15 H 0.5317 1.0335 0.2137
H16 H 0.6008 0.9389 0.1881
C22 C 0.45941(17) 0.93283(16) 0.11015(14)
C23 C 0.49152(17) 0.86376(16) 0.03912(15)
H17 H 0.5574 0.8344 0.0450
C24 C 0.42620(17) 0.83808(16) -0.04070(14)
C25 C 0.32793(17) 0.88160(16) -0.05031(14)
H18 H 0.2846 0.8636 -0.1039
C26 C 0.29348(17) 0.95165(16) 0.01902(15)
C27 C 0.36042(17) 0.97569(16) 0.09912(15)
C28 C 0.18394(18) 0.99679(17) 0.01084(15)
H19 H 0.1908 1.0706 0.0281
H20 H 0.1571 0.9871 -0.0541
C29 C 0.12584(19) 0.56930(19) 0.32984(18)
N1 N 0.02227(16) 0.58278(18) 0.32820(16)
H21 H -0.0111 0.5889 0.3802
H22 H -0.0120 0.5855 0.2751
N2 N 0.17663(19) 0.5580(2) 0.24981(17)
H23 H 0.1420 0.5595 0.1967
H24 H 0.2443 0.5492 0.2508
N3 N 0.17875(17) 0.56514(19) 0.41112(15)
H25 H 0.1456 0.5712 0.4633
H26 H 0.2464 0.5563 0.4120
C30 C 0.36011(18) 0.32030(17) 0.38003(16)
N4 N 0.30278(17) 0.28039(17) 0.30511(15)
H27 H 0.2345 0.2698 0.3084
H28 H 0.3339 0.2650 0.2532
N5 N 0.46522(15) 0.33413(16) 0.37533(15)
H29 H 0.5028 0.3586 0.4243
H30 H 0.4961 0.3187 0.3233
N6 N 0.31257(16) 0.34380(18) 0.45945(15)
H31 H 0.3500 0.3682 0.5085
H32 H 0.2441 0.3347 0.4623
C31 C 0.8629(2) 0.36516(19) 0.16628(17)
N7 N 0.96804(17) 0.36483(19) 0.17513(16)
H33 H 1.0069 0.3727 0.1268
H34 H 0.9979 0.3568 0.2293
N8 N 0.80482(19) 0.3529(2) 0.24119(17)
H35 H 0.7361 0.3529 0.2363
H36 H 0.8356 0.3449 0.2949
N9 N 0.81553(17) 0.37732(18) 0.08451(15)
H37 H 0.8532 0.3853 0.0355
H38 H 0.7468 0.3774 0.0799
C32 C 0.61676(18) 0.59640(17) 0.09470(17)
N10 N 0.67135(16) 0.58539(17) 0.17359(15)
H39 H 0.7402 0.5860 0.1736
H40 H 0.6382 0.5776 0.2252
N11 N 0.51076(15) 0.59471(16) 0.09408(15)
H41 H 0.4773 0.5864 0.1454
H42 H 0.4753 0.6019 0.0423
N12 N 0.66768(17) 0.6084(2) 0.01568(16)
H43 H 0.7365 0.6090 0.0158
H44 H 0.6321 0.6156 -0.0360
loop_
_geom_bond_atom_site_label_1
_geom_bond_atom_site_label_2
_geom_bond_site_symmetry_1
_geom_bond_site_symmetry_2
S1 O1 1_555 1_555
S2 O5 1_555 1_555
S3 O9 1_555 1_555
S4 O13 1_555 1_555
O2 S1 1_555 1_555
O3 S1 1_555 1_555
O4 H1 1_555 1_555
O6 S2 1_555 1_555
O7 S2 1_555 1_555
O8 H2 1_555 1_555
O10 S3 1_555 1_555
O11 S3 1_555 1_555
O12 H3 1_555 1_555
O14 S4 1_555 1_555
O15 S4 1_555 1_555
O16 H4 1_555 1_555
C1 S1 1_555 1_555
C2 C1 1_555 1_555
H5 C2 1_555 1_555
C3 C2 1_555 1_555
C4 O4 1_555 1_555
C5 C4 1_555 1_555
C6 C1 1_555 1_555
H6 C6 1_555 1_555
C7 C5 1_555 1_555
H7 C7 1_555 1_555
H8 C7 1_555 1_555
C8 C7 1_555 1_555
C9 C8 1_555 1_555
H9 C9 1_555 1_555
C10 S4 1_555 1_555
C11 C10 1_555 1_555
H10 C11 1_555 1_555
C12 C11 1_555 1_555
C13 O16 1_555 1_555
C14 C12 1_555 1_555
H11 C14 1_555 1_555
H12 C14 1_555 1_555
C15 C14 1_555 1_555
C16 C15 1_555 1_555
H13 C16 1_555 1_555
C17 S3 1_555 1_555
C18 C17 1_555 1_555
H14 C18 1_555 1_555
C19 C18 1_555 1_555
C20 O12 1_555 1_555
C21 C19 1_555 1_555
H15 C21 1_555 1_555
H16 C21 1_555 1_555
C22 C21 1_555 1_555
C23 C22 1_555 1_555
H17 C23 1_555 1_555
C24 S2 1_555 1_555
C25 C24 1_555 1_555
H18 C25 1_555 1_555
C26 C25 1_555 1_555
C27 O8 1_555 1_555
C28 C3 1_555 1_555
H19 C28 1_555 1_555
H20 C28 1_555 1_555
C29 N1 1_555 1_555
C30 N4 1_555 1_555
C31 N7 1_555 1_555
C32 N10 1_555 1_555
N1 H21 1_555 1_555
H22 N1 1_555 1_555
N2 C29 1_555 1_555
H23 N2 1_555 1_555
H24 N2 1_555 1_555
N3 C29 1_555 1_555
H25 N3 1_555 1_555
H26 N3 1_555 1_555
N4 H27 1_555 1_555
H28 N4 1_555 1_555
N5 C30 1_555 1_555
H29 N5 1_555 1_555
H30 N5 1_555 1_555
N6 C30 1_555 1_555
H31 N6 1_555 1_555
H32 N6 1_555 1_555
N7 H33 1_555 1_555
H34 N7 1_555 1_555
N8 C31 1_555 1_555
H35 N8 1_555 1_555
H36 N8 1_555 1_555
N9 C31 1_555 1_555
H37 N9 1_555 1_555
H38 N9 1_555 1_555
N10 H39 1_555 1_555
H40 N10 1_555 1_555
N11 C32 1_555 1_555
H41 N11 1_555 1_555
H42 N11 1_555 1_555
N12 C32 1_555 1_555
H43 N12 1_555 1_555
H44 N12 1_555 1_555
C3 C4 1_555 1_555
C5 C6 1_555 1_555
C8 C13 1_555 1_555
C9 C10 1_555 1_555
C12 C13 1_555 1_555
C15 C20 1_555 1_555
C16 C17 1_555 1_555
C19 C20 1_555 1_555
C22 C27 1_555 1_555
C23 C24 1_555 1_555
C26 C27 1_555 1_555
C26 C28 1_555 1_555

#END
