
#######################################################################
#
#                 Cambridge Crystallographic Data Centre
#                                CCDC 
#
#######################################################################
#
# If this CIF has been generated from an entry in the Cambridge 
# Structural Database, then it will include bibliographic, chemical, 
# crystal, experimental, refinement or atomic coordinate data resulting 
# from the CCDC's data processing and validation procedures.
#
#######################################################################

data_VULREB
_chemical_formula_moiety         'C35 H27 N3 O3'
_chemical_name_systematic        
(S,R)-(1-Benzoyl-3-(1-(1H-indol-3-yl)-3-phenylprop-2-en-1-yl)-6-methoxy-2-oxo-2,3-dihydro-1H-indol-3-yl)acetonitrile
_symmetry_cell_setting           orthorhombic
_symmetry_space_group_name_H-M   'P 21 21 21'
_symmetry_Int_Tables_number      19
_space_group_name_Hall           'P 2ac 2ab'
loop_
_symmetry_equiv_pos_site_id
_symmetry_equiv_pos_as_xyz
1 x,y,z
2 1/2-x,-y,1/2+z
3 -x,1/2+y,1/2-z
4 1/2+x,1/2-y,-z
_cell_length_a                   7.26770(10)
_cell_length_b                   14.3978(2)
_cell_length_c                   26.9899(4)
_cell_angle_alpha                90
_cell_angle_beta                 90
_cell_angle_gamma                90
_cell_volume                     2824.19
_exptl_crystal_colour            colorless
_exptl_crystal_description       block
_cell_formula_units_Z            4
loop_
_atom_site_label
_atom_site_type_symbol
_atom_site_fract_x
_atom_site_fract_y
_atom_site_fract_z
O1 O 0.0335(3) 0.73284(13) 0.15044(9)
N1 N -0.2062(3) 0.67682(16) 0.19891(9)
N2 N -0.6347(4) 0.68176(17) 0.08611(10)
H1 H -0.7423 0.6575 0.0890
C1 C -0.2200(3) 0.83541(16) 0.17360(10)
C2 C -0.3963(4) 0.77686(16) 0.09857(9)
C3 C -0.1101(3) 0.74465(17) 0.17170(11)
C4 C -0.2771(4) 1.01567(17) 0.08684(10)
H2 H -0.1627 1.0004 0.0737
C5 C 0.0521(4) 0.9448(2) 0.16377(15)
C6 C -0.3623(4) 0.71807(19) 0.22196(11)
C7 C -0.3620(3) 0.94867(16) 0.11140(9)
H3 H -0.4774 0.9604 0.1249
C8 C -0.2774(3) 0.85414(15) 0.11822(9)
H4 H -0.1638 0.8535 0.0986
C9 C -0.5731(4) 0.75738(19) 0.11139(11)
H5 H -0.6421 0.7910 0.1342
C10 C -0.6462(4) 0.8245(2) 0.25878(11)
H6 H -0.7406 0.8605 0.2719
C11 C -0.5146(4) 0.8645(2) 0.22786(10)
H7 H -0.5221 0.9273 0.2201
O2 O -0.7613(4) 0.6825(2) 0.29733(11)
C12 C -0.3732(4) 0.81154(17) 0.20860(9)
C13 C -0.3460(4) 0.70924(18) 0.06223(10)
C14 C -0.3398(5) 1.11092(18) 0.07757(11)
C15 C -0.5057(6) 1.1443(2) 0.09456(16)
H8 H -0.5859 1.1052 0.1115
C16 C -0.1020(4) 0.91592(18) 0.19420(12)
H9 H -0.1815 0.9692 0.1993
H10 H -0.0549 0.8976 0.2264
C17 C -0.4991(5) 0.65048(19) 0.05562(11)
C18 C -0.6352(5) 0.7309(3) 0.26977(12)
C19 C -0.4900(5) 0.6766(3) 0.25240(14)
H11 H -0.4798 0.6143 0.2611
N3 N 0.1730(4) 0.9711(2) 0.13998(16)
C20 C -0.4972(7) 0.5764(3) 0.02229(13)
H12 H -0.5991 0.5380 0.0184
C21 C -0.2254(6) 1.1707(2) 0.05168(14)
H13 H -0.1133 1.1494 0.0396
C22 C -0.9085(6) 0.7316(4) 0.31921(17)
H14 H -0.9802 0.7610 0.2938
H15 H -0.8606 0.7780 0.3413
H16 H -0.9847 0.6892 0.3374
C23 C -0.1866(5) 0.6937(2) 0.03430(12)
H17 H -0.0832 0.7310 0.0381
C24 C -0.1877(7) 0.6208(3) 0.00076(15)
H18 H -0.0845 0.6104 -0.0188
C25 C -0.2776(8) 1.2625(3) 0.04368(18)
H19 H -0.2007 1.3019 0.0259
C26 C -0.3410(8) 0.5625(3) -0.00430(15)
H20 H -0.3356 0.5131 -0.0264
C27 C -0.4367(9) 1.2946(3) 0.0613(2)
H21 H -0.4691 1.3564 0.0566
C28 C -0.5527(8) 1.2357(3) 0.0865(2)
H22 H -0.6646 1.2579 0.0982
O3 O -0.1806(7) 0.5479(3) 0.24602(17)
C29 C -0.1373(7) 0.5891(3) 0.20890(19)
C30 C 0.1458(5) 0.5066(3) 0.18045(11)
H23 H 0.1979 0.5160 0.2115
C31 C 0.2403(4) 0.4561(3) 0.14470(15)
H24 H 0.3558 0.4317 0.1519
C32 C 0.1624(6) 0.4422(3) 0.09826(13)
H25 H 0.2257 0.4084 0.0743
C33 C -0.0101(6) 0.4787(3) 0.08757(11)
H26 H -0.0622 0.4694 0.0565
C34 C -0.1047(5) 0.5292(3) 0.12331(14)
H27 H -0.2201 0.5537 0.1162
C35 C -0.0268(5) 0.5432(2) 0.16975(12)
O4? O -0.3354(13) 0.5278(6) 0.1926(3)
C36? C -0.1987(14) 0.5775(6) 0.1856(4)
C37? C 0.3010(8) 0.5122(6) 0.1758(3)
H28? H 0.4123 0.5220 0.1920
C38? C 0.1420(10) 0.5552(4) 0.1930(2)
H29? H 0.1469 0.5936 0.2207
C39? C -0.0245(8) 0.5406(5) 0.1688(3)
C40? C -0.0319(10) 0.4832(6) 0.1275(3)
H30? H -0.1433 0.4735 0.1113
C41? C 0.1271(13) 0.4402(6) 0.1103(3)
H31? H 0.1221 0.4018 0.0827
C42? C 0.2935(10) 0.4548(7) 0.1345(3)
H32? H 0.3999 0.4261 0.1230
loop_
_geom_bond_atom_site_label_1
_geom_bond_atom_site_label_2
_geom_bond_site_symmetry_1
_geom_bond_site_symmetry_2
O1 C3 1_555 1_555
N1 C3 1_555 1_555
N2 H1 1_555 1_555
C1 C3 1_555 1_555
C2 C8 1_555 1_555
C4 H2 1_555 1_555
C5 C16 1_555 1_555
C6 N1 1_555 1_555
C7 C4 1_555 1_555
H3 C7 1_555 1_555
C8 C1 1_555 1_555
H4 C8 1_555 1_555
C9 N2 1_555 1_555
H5 C9 1_555 1_555
C10 H6 1_555 1_555
C11 C10 1_555 1_555
H7 C11 1_555 1_555
O2 C18 1_555 1_555
C12 C1 1_555 1_555
C13 C2 1_555 1_555
C14 C4 1_555 1_555
C15 C14 1_555 1_555
H8 C15 1_555 1_555
C16 C1 1_555 1_555
H9 C16 1_555 1_555
H10 C16 1_555 1_555
C17 N2 1_555 1_555
C18 C10 1_555 1_555
C19 C6 1_555 1_555
H11 C19 1_555 1_555
N3 C5 1_555 1_555
C20 C17 1_555 1_555
H12 C20 1_555 1_555
C21 C14 1_555 1_555
H13 C21 1_555 1_555
C22 O2 1_555 1_555
H14 C22 1_555 1_555
H15 C22 1_555 1_555
H16 C22 1_555 1_555
C23 C13 1_555 1_555
H17 C23 1_555 1_555
C24 C23 1_555 1_555
H18 C24 1_555 1_555
C25 C21 1_555 1_555
H19 C25 1_555 1_555
C26 C20 1_555 1_555
H20 C26 1_555 1_555
C27 C25 1_555 1_555
H21 C27 1_555 1_555
C28 C15 1_555 1_555
H22 C28 1_555 1_555
O3 C29 1_555 1_555
C29 N1 1_555 1_555
C30 H23 1_555 1_555
C31 C30 1_555 1_555
H24 C31 1_555 1_555
C32 C31 1_555 1_555
H25 C32 1_555 1_555
C33 C32 1_555 1_555
H26 C33 1_555 1_555
C34 C33 1_555 1_555
H27 C34 1_555 1_555
C35 C29 1_555 1_555
C2 C9 1_555 1_555
C6 C12 1_555 1_555
C7 C8 1_555 1_555
C11 C12 1_555 1_555
C13 C17 1_555 1_555
C18 C19 1_555 1_555
C24 C26 1_555 1_555
C27 C28 1_555 1_555
C30 C35 1_555 1_555
C34 C35 1_555 1_555

#END
