
#######################################################################
#
#                 Cambridge Crystallographic Data Centre
#                                CCDC 
#
#######################################################################
#
# If this CIF has been generated from an entry in the Cambridge 
# Structural Database, then it will include bibliographic, chemical, 
# crystal, experimental, refinement or atomic coordinate data resulting 
# from the CCDC's data processing and validation procedures.
#
#######################################################################

data_VULRAX
_chemical_formula_moiety         'C35 H27 N3 O3'
_chemical_name_systematic        
(S,S)-(1-Benzoyl-3-(1-(1H-indol-3-yl)-3-phenylprop-2-en-1-yl)-6-methoxy-2-oxo-2,3-dihydro-1H-indol-3-yl)acetonitrile
_symmetry_cell_setting           monoclinic
_symmetry_space_group_name_H-M   'P 21'
_symmetry_Int_Tables_number      4
_space_group_name_Hall           'P 2yb'
loop_
_symmetry_equiv_pos_site_id
_symmetry_equiv_pos_as_xyz
1 x,y,z
2 -x,1/2+y,-z
_cell_length_a                   8.9959(2)
_cell_length_b                   16.4778(6)
_cell_length_c                   9.5298(3)
_cell_angle_alpha                90
_cell_angle_beta                 91.050(2)
_cell_angle_gamma                90
_cell_volume                     1412.39
_exptl_crystal_description       block
_cell_formula_units_Z            2
loop_
_atom_site_label
_atom_site_type_symbol
_atom_site_fract_x
_atom_site_fract_y
_atom_site_fract_z
O1 O 0.38465(17) 0.61794(12) 0.44688(19)
C1 C 0.8653(3) 0.58190(18) 0.6764(3)
H1 H 0.9160 0.5407 0.6309
N1 N 1.1053(2) 0.55399(17) 0.3152(2)
H2 H 1.1987 0.5562 0.3358
C2 C 0.8870(3) 0.51816(17) 0.2186(2)
O2 O 0.8976(3) 0.71341(16) 0.9862(2)
C3 C 0.8613(2) 0.58059(17) 0.3196(2)
C4 C 0.6428(2) 0.84053(17) 0.2323(3)
C5 C 0.7325(2) 0.60981(16) 0.6215(2)
C6 C 0.7114(2) 0.61734(16) 0.3505(2)
H3 H 0.6430 0.5994 0.2755
C7 C 0.6452(3) 0.75184(18) 0.2482(2)
H4 H 0.5904 0.7227 0.1816
C8 C 0.7150(3) 0.70842(17) 0.3446(2)
H5 H 0.7700 0.7358 0.4134
C9 C 0.6460(2) 0.58507(16) 0.4930(2)
N2 N 0.5165(2) 0.68491(13) 0.6242(2)
C10 C 0.2165(3) 0.82407(19) 0.3622(3)
H6 H 0.2385 0.8355 0.2693
C11 C 0.6551(3) 0.66941(16) 0.6948(2)
C12 C 0.4985(2) 0.62916(16) 0.5141(2)
C13 C 0.8487(3) 0.67651(19) 0.8662(3)
O3 O 0.3955(2) 0.73965(16) 0.80885(19)
C14 C 0.9244(3) 0.6148(2) 0.7995(3)
H7 H 1.0140 0.5956 0.8367
C15 C 0.1512(3) 0.7912(2) 0.6386(3)
H8 H 0.1295 0.7813 0.7321
C16 C 0.7118(3) 0.7043(2) 0.8149(3)
H9 H 0.6605 0.7452 0.8607
C17 C 0.2895(3) 0.76902(16) 0.5857(3)
C18 C 0.7045(3) 0.89294(19) 0.3323(3)
H10 H 0.7443 0.8716 0.4151
C19 C 1.0411(3) 0.50286(18) 0.2186(3)
C20 C 0.3988(3) 0.73169(18) 0.6835(3)
C21 C 0.9977(3) 0.60112(19) 0.3739(3)
H11 H 1.0149 0.6412 0.4409
C22 C 0.3218(3) 0.78725(17) 0.4481(3)
H12 H 0.4148 0.7747 0.4131
C23 C 0.5207(3) 0.46212(17) 0.3812(3)
C24 C 0.6243(3) 0.49284(17) 0.4882(3)
H13 H 0.7204 0.4678 0.4736
H14 H 0.5902 0.4752 0.5792
C25 C 0.5783(3) 0.8753(2) 0.1133(3)
H15 H 0.5339 0.8421 0.0456
C26 C 0.7078(3) 0.9755(2) 0.3114(4)
H16 H 0.7529 1.0091 0.3781
C27 C 0.0783(3) 0.8441(2) 0.4137(4)
H17 H 0.0071 0.8683 0.3555
C28 C 1.0415(4) 0.6930(3) 1.0402(3)
H18 H 1.0612 0.7232 1.1247
H19 H 1.1148 0.7060 0.9719
H20 H 1.0453 0.6360 1.0606
C29 C 0.0476(3) 0.8279(2) 0.5517(3)
H21 H -0.0447 0.8419 0.5868
C30 C 1.1055(3) 0.4468(2) 0.1282(3)
H22 H 1.2073 0.4369 0.1306
C31 C 0.7963(3) 0.4755(2) 0.1243(3)
H23 H 0.6941 0.4841 0.1222
C32 C 0.6442(4) 1.0085(2) 0.1916(4)
H24 H 0.6457 1.0643 0.1775
C33 C 0.5791(4) 0.9587(2) 0.0939(4)
H25 H 0.5350 0.9809 0.0137
N3 N 0.4409(4) 0.4358(2) 0.2999(3)
C34 C 0.8595(4) 0.4206(3) 0.0344(4)
H26 H 0.7992 0.3918 -0.0284
C35 C 1.0128(4) 0.4074(3) 0.0362(4)
H27 H 1.0527 0.3707 -0.0270
loop_
_geom_bond_atom_site_label_1
_geom_bond_atom_site_label_2
_geom_bond_site_symmetry_1
_geom_bond_site_symmetry_2
O1 C12 1_555 1_555
C1 H1 1_555 1_555
N1 H2 1_555 1_555
C2 C3 1_555 1_555
O2 C13 1_555 1_555
C3 C6 1_555 1_555
C4 C7 1_555 1_555
C5 C1 1_555 1_555
C6 H3 1_555 1_555
C7 H4 1_555 1_555
C8 C6 1_555 1_555
H5 C8 1_555 1_555
C9 C5 1_555 1_555
N2 C11 1_555 1_555
C10 H6 1_555 1_555
C11 C5 1_555 1_555
C12 C9 1_555 1_555
C13 C14 1_555 1_555
O3 C20 1_555 1_555
C14 C1 1_555 1_555
H7 C14 1_555 1_555
C15 H8 1_555 1_555
C16 C11 1_555 1_555
H9 C16 1_555 1_555
C17 C15 1_555 1_555
C18 C4 1_555 1_555
H10 C18 1_555 1_555
C19 N1 1_555 1_555
C20 N2 1_555 1_555
C21 N1 1_555 1_555
H11 C21 1_555 1_555
C22 C10 1_555 1_555
H12 C22 1_555 1_555
C23 C24 1_555 1_555
C24 C9 1_555 1_555
H13 C24 1_555 1_555
H14 C24 1_555 1_555
C25 C4 1_555 1_555
H15 C25 1_555 1_555
C26 C18 1_555 1_555
H16 C26 1_555 1_555
C27 C10 1_555 1_555
H17 C27 1_555 1_555
C28 O2 1_555 1_555
H18 C28 1_555 1_555
H19 C28 1_555 1_555
H20 C28 1_555 1_555
C29 C15 1_555 1_555
H21 C29 1_555 1_555
C30 C19 1_555 1_555
H22 C30 1_555 1_555
C31 C2 1_555 1_555
H23 C31 1_555 1_555
C32 C26 1_555 1_555
H24 C32 1_555 1_555
C33 C25 1_555 1_555
H25 C33 1_555 1_555
N3 C23 1_555 1_555
C34 C31 1_555 1_555
H26 C34 1_555 1_555
C35 C30 1_555 1_555
H27 C35 1_555 1_555
C2 C19 1_555 1_555
C3 C21 1_555 1_555
C6 C9 1_555 1_555
C7 C8 1_555 1_555
N2 C12 1_555 1_555
C13 C16 1_555 1_555
C17 C20 1_555 1_555
C17 C22 1_555 1_555
C27 C29 1_555 1_555
C32 C33 1_555 1_555
C34 C35 1_555 1_555

#END
