
#######################################################################
#
#                 Cambridge Crystallographic Data Centre
#                                CCDC 
#
#######################################################################
#
# If this CIF has been generated from an entry in the Cambridge 
# Structural Database, then it will include bibliographic, chemical, 
# crystal, experimental, refinement or atomic coordinate data resulting 
# from the CCDC's data processing and validation procedures.
#
#######################################################################

data_VULTAZ
_chemical_formula_moiety         'C18 H23 N1 O7 S1'
_chemical_name_systematic        
'ethyl 1-(2-(4-(methylsulfonyl)-2-nitrophenyl)ethyl)-2-oxocyclohexanecarboxylate'
_symmetry_cell_setting           monoclinic
_symmetry_space_group_name_H-M   'P 21'
_symmetry_Int_Tables_number      4
_space_group_name_Hall           'P 2yb'
loop_
_symmetry_equiv_pos_site_id
_symmetry_equiv_pos_as_xyz
1 x,y,z
2 -x,1/2+y,-z
_cell_length_a                   9.5125(13)
_cell_length_b                   13.887(2)
_cell_length_c                   14.680(2)
_cell_angle_alpha                90
_cell_angle_beta                 90.249(3)
_cell_angle_gamma                90
_cell_volume                     1939.21
_exptl_crystal_colour            colorless
_exptl_crystal_description       prismatic
_cell_formula_units_Z            4
loop_
_atom_site_label
_atom_site_type_symbol
_atom_site_fract_x
_atom_site_fract_y
_atom_site_fract_z
S1 S 0.38716(9) 0.18023(8) 0.40606(6)
N1 N 0.8371(4) 0.3235(3) 0.2737(3)
O1 O 1.2278(3) 0.0128(2) 0.1795(2)
O2 O 1.0847(3) 0.2397(2) -0.0234(2)
O3 O 1.2194(3) 0.2349(2) 0.10094(18)
O4 O 0.9568(4) 0.3096(3) 0.2519(3)
O5 O 0.7965(5) 0.3990(3) 0.3042(4)
O6 O 0.3766(5) 0.0876(3) 0.4447(3)
O7 O 0.4148(4) 0.2553(4) 0.4669(3)
C1 C 1.2142(4) 0.0394(3) 0.1020(3)
C2 C 1.3183(4) 0.0164(4) 0.0285(3)
H1 H 1.3931 -0.0232 0.0535
H2 H 1.3598 0.0756 0.0061
C3 C 1.2476(6) -0.0370(4) -0.0505(4)
H3 H 1.3149 -0.0468 -0.0991
H4 H 1.2158 -0.0997 -0.0299
C4 C 1.1227(5) 0.0208(4) -0.0863(3)
H5 H 1.1557 0.0811 -0.1119
H6 H 1.0759 -0.0151 -0.1343
C5 C 1.0199(4) 0.0412(3) -0.0103(3)
H7 H 0.9827 -0.0195 0.0118
H8 H 0.9419 0.0781 -0.0348
C6 C 1.0847(3) 0.0969(3) 0.0708(2)
C7 C 0.9795(3) 0.1085(3) 0.1490(2)
H9 H 0.9454 0.0454 0.1666
H10 H 1.0278 0.1361 0.2011
C8 C 0.8539(3) 0.1721(3) 0.1246(2)
H11 H 0.8871 0.2370 0.1130
H12 H 0.8113 0.1483 0.0688
C9 C 0.7432(3) 0.1757(3) 0.1980(2)
C10 C 0.6376(4) 0.1071(3) 0.1968(2)
H13 H 0.6395 0.0597 0.1520
C11 C 0.5304(4) 0.1059(3) 0.2589(3)
H14 H 0.4631 0.0574 0.2574
C12 C 0.5236(3) 0.1782(3) 0.3242(2)
C13 C 0.6238(4) 0.2490(3) 0.3273(2)
H15 H 0.6185 0.2982 0.3702
C14 C 0.7331(3) 0.2460(3) 0.2653(2)
C15 C 0.2360(4) 0.2058(6) 0.3445(3)
H16 H 0.1557 0.2004 0.3835
H17 H 0.2271 0.1611 0.2949
H18 H 0.2415 0.2702 0.3209
C16 C 1.1286(3) 0.1979(3) 0.0416(2)
C17 C 1.2614(5) 0.3345(3) 0.0862(4)
H19 H 1.1855 0.3776 0.1029
H20 H 1.2834 0.3448 0.0225
C18 C 1.3873(7) 0.3539(4) 0.1436(4)
H21 H 1.3620 0.3501 0.2067
H22 H 1.4225 0.4171 0.1304
H23 H 1.4586 0.3070 0.1307
S2 S 0.37616(9) 0.68327(8) 0.09502(6)
N2 N 0.8315(4) 0.8269(3) 0.2200(3)
O8 O 1.0857(4) 0.7341(3) 0.5245(2)
O9 O 1.2141(3) 0.7346(2) 0.3980(2)
O10 O 0.9514(3) 0.8132(3) 0.2440(3)
O11 O 0.7934(4) 0.9007(3) 0.1841(4)
O12 O 0.4161(4) 0.7451(3) 0.0227(2)
O13 O 0.3427(4) 0.5868(3) 0.0735(3)
O14 O 1.2176(6) 0.5179(5) 0.3115(4)
H24 H 0.975(6) 0.481(3) 0.482(3)
H25 H 0.946(6) 0.581(5) 0.528(4)
C19 C 1.0155(4) 0.5400(4) 0.5048(3)
C20 C 1.1218(5) 0.5138(4) 0.5796(3)
H26 H 1.1593 0.5721 0.6069
H27 H 1.0757 0.4768 0.6269
C21 C 1.2405(6) 0.4552(5) 0.5385(4)
H28 H 1.2038 0.3945 0.5160
H29 H 1.3102 0.4412 0.5851
C22 C 1.3095(5) 0.5101(4) 0.4605(4)
H30 H 1.3535 0.5679 0.4842
H31 H 1.3822 0.4704 0.4336
C23 C 1.2027(4) 0.5373(3) 0.3880(3)
C24 C 1.0776(3) 0.5963(3) 0.4248(2)
C25 C 0.9697(3) 0.6116(3) 0.3482(2)
H32 H 0.9298 0.5497 0.3314
H33 H 1.0177 0.6370 0.2952
C26 C 0.8494(3) 0.6805(3) 0.3738(2)
H34 H 0.8087 0.6602 0.4311
H35 H 0.8869 0.7449 0.3820
C27 C 0.7361(3) 0.6828(3) 0.3015(2)
C28 C 0.6301(4) 0.6147(3) 0.3046(2)
H36 H 0.6325 0.5684 0.3504
C29 C 0.5216(3) 0.6127(3) 0.2427(2)
H37 H 0.4533 0.5650 0.2458
C30 C 0.5151(3) 0.6824(3) 0.1761(2)
C31 C 0.6163(3) 0.7529(3) 0.1706(2)
H38 H 0.6109 0.8007 0.1264
C32 C 0.7263(3) 0.7511(3) 0.2325(2)
C33 C 0.2352(4) 0.7369(5) 0.1517(3)
H39 H 0.1530 0.7347 0.1135
H40 H 0.2578 0.8027 0.1653
H41 H 0.2173 0.7027 0.2073
C34 C 1.1260(3) 0.6954(3) 0.4569(2)
C35 C 1.2618(6) 0.8326(4) 0.4173(4)
H42 H 1.1884 0.8782 0.4016
H43 H 1.2826 0.8392 0.4818
C36 C 1.3876(7) 0.8528(4) 0.3642(4)
H44 H 1.4563 0.8034 0.3751
H45 H 1.4255 0.9141 0.3820
H46 H 1.3638 0.8542 0.3006
O15? O 0.9031(8) 0.5221(8) 0.5119(7)
H47? H 1.163(6) 0.481(3) 0.361(4)
H48? H 1.245(17) 0.565(13) 0.334(7)
loop_
_geom_bond_atom_site_label_1
_geom_bond_atom_site_label_2
_geom_bond_site_symmetry_1
_geom_bond_site_symmetry_2
S1 O6 1_555 1_555
N1 O4 1_555 1_555
O1 C1 1_555 1_555
O2 C16 1_555 1_555
O3 C16 1_555 1_555
O5 N1 1_555 1_555
O7 S1 1_555 1_555
C1 C2 1_555 1_555
C2 H1 1_555 1_555
H2 C2 1_555 1_555
C3 C2 1_555 1_555
H3 C3 1_555 1_555
H4 C3 1_555 1_555
C4 C3 1_555 1_555
H5 C4 1_555 1_555
H6 C4 1_555 1_555
C5 C4 1_555 1_555
H7 C5 1_555 1_555
H8 C5 1_555 1_555
C6 C1 1_555 1_555
C7 C6 1_555 1_555
H9 C7 1_555 1_555
H10 C7 1_555 1_555
C8 C7 1_555 1_555
H11 C8 1_555 1_555
H12 C8 1_555 1_555
C9 C8 1_555 1_555
C10 C9 1_555 1_555
H13 C10 1_555 1_555
C11 C10 1_555 1_555
H14 C11 1_555 1_555
C12 S1 1_555 1_555
C13 C12 1_555 1_555
H15 C13 1_555 1_555
C14 N1 1_555 1_555
C15 S1 1_555 1_555
H16 C15 1_555 1_555
H17 C15 1_555 1_555
H18 C15 1_555 1_555
C16 C6 1_555 1_555
C17 O3 1_555 1_555
H19 C17 1_555 1_555
H20 C17 1_555 1_555
C18 C17 1_555 1_555
H21 C18 1_555 1_555
H22 C18 1_555 1_555
H23 C18 1_555 1_555
S2 O12 1_555 1_555
N2 O10 1_555 1_555
O8 C34 1_555 1_555
O9 C34 1_555 1_555
O11 N2 1_555 1_555
O13 S2 1_555 1_555
O14 C23 1_555 1_555
H24 C19 1_555 1_555
H25 C19 1_555 1_555
C19 C20 1_555 1_555
C20 H26 1_555 1_555
H27 C20 1_555 1_555
C21 C20 1_555 1_555
H28 C21 1_555 1_555
H29 C21 1_555 1_555
C22 C21 1_555 1_555
H30 C22 1_555 1_555
H31 C22 1_555 1_555
C23 C22 1_555 1_555
C24 C19 1_555 1_555
C25 C24 1_555 1_555
H32 C25 1_555 1_555
H33 C25 1_555 1_555
C26 C25 1_555 1_555
H34 C26 1_555 1_555
H35 C26 1_555 1_555
C27 C26 1_555 1_555
C28 C27 1_555 1_555
H36 C28 1_555 1_555
C29 C28 1_555 1_555
H37 C29 1_555 1_555
C30 S2 1_555 1_555
C31 C30 1_555 1_555
H38 C31 1_555 1_555
C32 N2 1_555 1_555
C33 S2 1_555 1_555
H39 C33 1_555 1_555
H40 C33 1_555 1_555
H41 C33 1_555 1_555
C34 C24 1_555 1_555
C35 O9 1_555 1_555
H42 C35 1_555 1_555
H43 C35 1_555 1_555
C36 C35 1_555 1_555
H44 C36 1_555 1_555
H45 C36 1_555 1_555
H46 C36 1_555 1_555
C5 C6 1_555 1_555
C9 C14 1_555 1_555
C11 C12 1_555 1_555
C13 C14 1_555 1_555
C23 C24 1_555 1_555
C27 C32 1_555 1_555
C29 C30 1_555 1_555
C31 C32 1_555 1_555

#END
