
#######################################################################
#
#                 Cambridge Crystallographic Data Centre
#                                CCDC 
#
#######################################################################
#
# If this CIF has been generated from an entry in the Cambridge 
# Structural Database, then it will include bibliographic, chemical, 
# crystal, experimental, refinement or atomic coordinate data resulting 
# from the CCDC's data processing and validation procedures.
#
#######################################################################

data_VULVIJ
_chemical_formula_moiety         'C26 H18 Cl1 N1 O4,C3 H6 O1'
_chemical_name_systematic        
'N-(3-benzyl-5-hydroxy-2-oxo-2,3-dihydronaphtho[1,2-b]furan-3-yl)-3-chlorobenzamide acetone solvate'
_symmetry_cell_setting           orthorhombic
_symmetry_space_group_name_H-M   'P 21 21 21'
_symmetry_Int_Tables_number      19
_space_group_name_Hall           'P 2ac 2ab'
loop_
_symmetry_equiv_pos_site_id
_symmetry_equiv_pos_as_xyz
1 x,y,z
2 1/2+x,1/2-y,-z
3 -x,1/2+y,1/2-z
4 1/2-x,-y,1/2+z
_cell_length_a                   6.6033(11)
_cell_length_b                   13.917(2)
_cell_length_c                   27.990(5)
_cell_angle_alpha                90
_cell_angle_beta                 90
_cell_angle_gamma                90
_cell_volume                     2572.23
_exptl_crystal_colour            yellow
_exptl_crystal_description       block
_cell_formula_units_Z            4
loop_
_atom_site_label
_atom_site_type_symbol
_atom_site_fract_x
_atom_site_fract_y
_atom_site_fract_z
Cl1 Cl -0.3650(3) 0.57437(15) 0.34883(5)
O1 O 0.7305(3) 0.71680(12) 0.12681(7)
H1 H 0.7982 0.6748 0.1397
O2 O -0.1638(3) 0.43641(13) 0.09484(6)
O3 O -0.0525(3) 0.57373(12) 0.17721(6)
N1 N 0.1585(3) 0.44851(14) 0.17017(6)
H2 H 0.2186 0.4010 0.1838
C1 C 0.2337(4) 0.70755(16) 0.06778(8)
C2 C 0.1113(4) 0.76826(17) 0.03969(8)
H3 H -0.0155 0.7474 0.0297
C3 C 0.1777(5) 0.85734(18) 0.02714(9)
H4 H 0.0966 0.8967 0.0083
C4 C 0.3666(5) 0.88975(18) 0.04234(9)
H5 H 0.4104 0.9507 0.0335
C5 C 0.4875(5) 0.83361(16) 0.06993(9)
H6 H 0.6122 0.8570 0.0801
C6 C 0.4263(4) 0.74005(16) 0.08338(8)
C7 C 0.5500(4) 0.67883(16) 0.11197(8)
C8 C 0.4885(4) 0.58832(15) 0.12450(8)
H7 H 0.5702 0.5490 0.1432
C9 C 0.3004(4) 0.55679(15) 0.10853(7)
C10 C 0.1801(4) 0.61340(15) 0.08134(7)
O4 O -0.0086(2) 0.57149(11) 0.07079(5)
C11 C -0.0175(4) 0.48662(17) 0.09540(8)
C12 C 0.1872(4) 0.46546(16) 0.11902(8)
C13 C 0.0397(4) 0.50636(17) 0.19590(8)
C14 C 0.0141(5) 0.48602(17) 0.24813(9)
C15 C 0.1378(7) 0.4270(3) 0.27333(10)
H8 H 0.2468 0.3971 0.2584
C16 C 0.1001(8) 0.4113(3) 0.32213(12)
H9 H 0.1849 0.3707 0.3393
C17 C -0.0566(7) 0.4541(3) 0.34444(11)
H10 H -0.0836 0.4418 0.3765
C18 C -0.1725(6) 0.5147(2) 0.31940(11)
C19 C -0.1411(5) 0.5316(2) 0.27134(10)
H11 H -0.2250 0.5737 0.2548
C20 C 0.2779(4) 0.37349(16) 0.09611(8)
H12 H 0.4148 0.3648 0.1079
H13 H 0.1987 0.3185 0.1063
C21 C 0.2829(4) 0.37576(15) 0.04189(8)
C22 C 0.1207(5) 0.34095(18) 0.01526(11)
H14 H 0.0080 0.3159 0.0308
C23 C 0.1254(6) 0.3433(2) -0.03409(12)
H15 H 0.0160 0.3204 -0.0516
C24 C 0.2900(6) 0.3791(2) -0.05683(10)
H16 H 0.2920 0.3816 -0.0900
C25 C 0.4524(6) 0.4116(2) -0.03160(10)
H17 H 0.5662 0.4343 -0.0476
C26 C 0.4485(4) 0.41073(18) 0.01783(9)
H18 H 0.5589 0.4340 0.0349
O5 O 0.4878(5) 0.3202(2) 0.20605(10)
C27 C 0.6226(6) 0.2722(3) 0.22030(12)
C28 C 0.6256(9) 0.2358(4) 0.26939(15)
H19 H 0.5612 0.2815 0.2902
H20 H 0.7632 0.2264 0.2794
H21 H 0.5542 0.1758 0.2708
C29 C 0.7917(7) 0.2451(3) 0.18855(15)
H22 H 0.7889 0.1770 0.1831
H23 H 0.9178 0.2625 0.2033
H24 H 0.7784 0.2782 0.1586
loop_
_geom_bond_atom_site_label_1
_geom_bond_atom_site_label_2
_geom_bond_site_symmetry_1
_geom_bond_site_symmetry_2
Cl1 C18 1_555 1_555
O1 H1 1_555 1_555
O2 C11 1_555 1_555
O3 C13 1_555 1_555
N1 H2 1_555 1_555
C1 C2 1_555 1_555
C2 H3 1_555 1_555
C3 C2 1_555 1_555
H4 C3 1_555 1_555
C4 C3 1_555 1_555
H5 C4 1_555 1_555
C5 C4 1_555 1_555
H6 C5 1_555 1_555
C6 C1 1_555 1_555
C7 O1 1_555 1_555
C8 C7 1_555 1_555
H7 C8 1_555 1_555
C9 C8 1_555 1_555
C10 C1 1_555 1_555
O4 C10 1_555 1_555
C11 O4 1_555 1_555
C12 N1 1_555 1_555
C13 N1 1_555 1_555
C14 C13 1_555 1_555
C15 C14 1_555 1_555
H8 C15 1_555 1_555
C16 C15 1_555 1_555
H9 C16 1_555 1_555
C17 C16 1_555 1_555
H10 C17 1_555 1_555
C18 C17 1_555 1_555
C19 C14 1_555 1_555
H11 C19 1_555 1_555
C20 C12 1_555 1_555
H12 C20 1_555 1_555
H13 C20 1_555 1_555
C21 C20 1_555 1_555
C22 C21 1_555 1_555
H14 C22 1_555 1_555
C23 C22 1_555 1_555
H15 C23 1_555 1_555
C24 C23 1_555 1_555
H16 C24 1_555 1_555
C25 C24 1_555 1_555
H17 C25 1_555 1_555
C26 C21 1_555 1_555
H18 C26 1_555 1_555
O5 C27 1_555 1_555
C27 C28 1_555 1_555
C28 H19 1_555 1_555
H20 C28 1_555 1_555
H21 C28 1_555 1_555
C29 C27 1_555 1_555
H22 C29 1_555 1_555
H23 C29 1_555 1_555
H24 C29 1_555 1_555
C5 C6 1_555 1_555
C6 C7 1_555 1_555
C9 C10 1_555 1_555
C9 C12 1_555 1_555
C11 C12 1_555 1_555
C18 C19 1_555 1_555
C25 C26 1_555 1_555

#END
