
#######################################################################
#
#                 Cambridge Crystallographic Data Centre
#                                CCDC 
#
#######################################################################
#
# If this CIF has been generated from an entry in the Cambridge 
# Structural Database, then it will include bibliographic, chemical, 
# crystal, experimental, refinement or atomic coordinate data resulting 
# from the CCDC's data processing and validation procedures.
#
#######################################################################

data_VULXUX
_chemical_name_common            
2,8-dibutyl-11,23-dichloro-14,20-dimethyl-2,8,14,20-tetraazacalix(2)pyrimidine(2)triazine
_chemical_formula_moiety         'C24 H28 Cl2 N14'
_chemical_name_systematic        
2,8-dibutyl-11,23-dichloro-14,20-dimethyl-2,4,6,8,10,12,14,16,18,20,22,24,25,27-tetradecaazapentacyclo[19.3.1.1^3,7^.1^9,13^.1^15,19^]octacosa-1(25),3(28),4,6,9(27),10,12,15(26),16,18,21,23-dodecaene
_symmetry_cell_setting           triclinic
_symmetry_space_group_name_H-M   'P -1'
_symmetry_Int_Tables_number      2
_space_group_name_Hall           '-P 1'
loop_
_symmetry_equiv_pos_site_id
_symmetry_equiv_pos_as_xyz
1 x,y,z
2 -x,-y,-z
_cell_length_a                   9.804(2)
_cell_length_b                   10.657(2)
_cell_length_c                   13.375(3)
_cell_angle_alpha                90.59(3)
_cell_angle_beta                 102.17(3)
_cell_angle_gamma                96.63(3)
_cell_volume                     1356.03
_exptl_crystal_colour            colorless
_exptl_crystal_description       block
_cell_formula_units_Z            2
loop_
_atom_site_label
_atom_site_type_symbol
_atom_site_fract_x
_atom_site_fract_y
_atom_site_fract_z
Cl1 Cl 0.25942(4) 0.29467(4) 0.70843(3)
Cl2 Cl 0.62072(5) 0.47710(4) -0.13220(3)
N1 N 0.86995(14) 0.35302(13) 0.53400(10)
N2 N 0.95901(14) 0.36006(13) 0.38073(10)
N3 N 0.64739(13) 0.40561(12) 0.53816(10)
N4 N 0.45968(14) 0.35333(12) 0.61255(10)
N5 N 0.29730(14) 0.17235(13) 0.54998(10)
N6 N 0.48856(13) 0.23304(12) 0.46719(10)
N7 N 0.33048(14) 0.05307(12) 0.41388(10)
N8 N 0.40098(16) -0.08725(13) 0.30741(11)
N9 N 0.43966(16) -0.03359(14) 0.14224(11)
N10 N 0.41838(14) 0.16683(13) 0.07813(10)
N11 N 0.51338(14) 0.31856(13) -0.01664(10)
N12 N 0.72682(14) 0.44565(13) 0.05896(10)
N13 N 0.62118(14) 0.29354(12) 0.15951(10)
N14 N 0.83174(14) 0.41990(13) 0.22684(10)
C1 C 0.96819(16) 0.34274(15) 0.48045(12)
H1 H 1.0553 0.3204 0.5176
C2 C 0.74595(15) 0.37848(14) 0.47848(12)
C3 C 0.71896(16) 0.39094(15) 0.37392(12)
H2 H 0.6284 0.4027 0.3356
C4 C 0.83362(16) 0.38507(14) 0.32798(11)
C5 C 0.70115(17) 0.49788(17) 0.62373(13)
H3 H 0.6259 0.5099 0.6595
H4 H 0.7342 0.5787 0.5974
H5 H 0.7793 0.4666 0.6713
C6 C 0.52767(15) 0.32746(14) 0.53799(11)
C7 C 0.34913(16) 0.27073(15) 0.61172(11)
C8 C 0.37392(16) 0.15751(14) 0.47777(11)
C9 C 0.21908(18) -0.04505(16) 0.43326(13)
H6 H 0.1951 -0.0249 0.4994
H7 H 0.2553 -0.1282 0.4383
C10 C 0.0880(3) -0.0529(3) 0.3491(3)
H8 H 0.0198 -0.1236 0.3622
H9 H 0.1128 -0.0719 0.2830
C11 C 0.0188(3) 0.0677(3) 0.3408(3)
H10 H 0.0065 0.0933 0.4094
H11 H 0.0819 0.1357 0.3181
C12 C -0.1219(10) 0.0553(16) 0.2676(11)
H12 H -0.1610 0.1360 0.2659
H13 H -0.1859 -0.0105 0.2903
H14 H -0.1104 0.0323 0.1990
C13 C 0.38419(16) 0.03290(15) 0.32574(12)
C14 C 0.4301(2) -0.11319(16) 0.21710(13)
H15 H 0.4457 -0.1978 0.2048
C15 C 0.42449(16) 0.08631(15) 0.16310(12)
C16 C 0.40170(16) 0.12669(15) 0.25611(12)
H16 H 0.3982 0.2133 0.2717
C17 C 0.31330(17) 0.12328(16) -0.01653(12)
H17 H 0.2789 0.0331 -0.0108
H18 H 0.3597 0.1298 -0.0756
C18 C 0.18867(19) 0.19891(18) -0.03670(14)
H19 H 0.2240 0.2895 -0.0386
H20 H 0.1298 0.1729 -0.1050
C19 C 0.0977(2) 0.1835(2) 0.04169(18)
H21 H 0.1498 0.2258 0.1071
H22 H 0.0771 0.0925 0.0539
C20 C -0.0413(3) 0.2398(3) 0.0070(2)
H23 H -0.0968 0.2282 0.0598
H24 H -0.0943 0.1969 -0.0570
H25 H -0.0214 0.3302 -0.0041
C21 C 0.52041(16) 0.26270(15) 0.07492(12)
C22 C 0.61973(17) 0.40552(15) -0.01567(12)
C23 C 0.72067(16) 0.38517(15) 0.14673(11)
C24 C 0.95814(19) 0.4973(2) 0.20859(14)
H26 H 0.9309 0.5549 0.1532
H27 H 1.0223 0.4420 0.1893
H28 H 1.0053 0.5465 0.2711
C25? C 0.0662(5) -0.0021(5) 0.3993(4)
H29? H -0.0037 -0.0687 0.4161
H30? H 0.0619 0.0759 0.4388
C26? C 0.0273(6) 0.0225(7) 0.2859(5)
H31? H 0.0940 0.0932 0.2708
H32? H 0.0403 -0.0534 0.2473
C27? C -0.1195(17) 0.054(3) 0.2465(16)
H33? H -0.1345 0.0660 0.1726
H34? H -0.1326 0.1317 0.2811
H35? H -0.1872 -0.0155 0.2600
loop_
_geom_bond_atom_site_label_1
_geom_bond_atom_site_label_2
_geom_bond_site_symmetry_1
_geom_bond_site_symmetry_2
Cl1 C7 1_555 1_555
Cl2 C22 1_555 1_555
N1 C1 1_555 1_555
N2 C1 1_555 1_555
N3 C2 1_555 1_555
N4 C6 1_555 1_555
N5 C7 1_555 1_555
N6 C6 1_555 1_555
N7 C8 1_555 1_555
N8 C13 1_555 1_555
N9 C14 1_555 1_555
N10 C15 1_555 1_555
N11 C21 1_555 1_555
N12 C22 1_555 1_555
N13 C21 1_555 1_555
N14 C4 1_555 1_555
C1 H1 1_555 1_555
C2 N1 1_555 1_555
C3 C2 1_555 1_555
H2 C3 1_555 1_555
C4 N2 1_555 1_555
C5 N3 1_555 1_555
H3 C5 1_555 1_555
H4 C5 1_555 1_555
H5 C5 1_555 1_555
C6 N3 1_555 1_555
C7 N4 1_555 1_555
C8 N5 1_555 1_555
C9 N7 1_555 1_555
H6 C9 1_555 1_555
H7 C9 1_555 1_555
C10 C9 1_555 1_555
H8 C10 1_555 1_555
H9 C10 1_555 1_555
C11 C10 1_555 1_555
H10 C11 1_555 1_555
H11 C11 1_555 1_555
C12 C11 1_555 1_555
H12 C12 1_555 1_555
H13 C12 1_555 1_555
H14 C12 1_555 1_555
C13 N7 1_555 1_555
C14 N8 1_555 1_555
H15 C14 1_555 1_555
C15 N9 1_555 1_555
C16 C13 1_555 1_555
H16 C16 1_555 1_555
C17 N10 1_555 1_555
H17 C17 1_555 1_555
H18 C17 1_555 1_555
C18 C17 1_555 1_555
H19 C18 1_555 1_555
H20 C18 1_555 1_555
C19 C18 1_555 1_555
H21 C19 1_555 1_555
H22 C19 1_555 1_555
C20 C19 1_555 1_555
H23 C20 1_555 1_555
H24 C20 1_555 1_555
H25 C20 1_555 1_555
C21 N10 1_555 1_555
C22 N11 1_555 1_555
C23 N12 1_555 1_555
C24 N14 1_555 1_555
H26 C24 1_555 1_555
H27 C24 1_555 1_555
H28 C24 1_555 1_555
N6 C8 1_555 1_555
N13 C23 1_555 1_555
N14 C23 1_555 1_555
C3 C4 1_555 1_555
C15 C16 1_555 1_555

#END
