
#######################################################################
#
#                 Cambridge Crystallographic Data Centre
#                                CCDC 
#
#######################################################################
#
# If this CIF has been generated from an entry in the Cambridge 
# Structural Database, then it will include bibliographic, chemical, 
# crystal, experimental, refinement or atomic coordinate data resulting 
# from the CCDC's data processing and validation procedures.
#
#######################################################################

data_VULYOS
_chemical_formula_moiety         
'4(C66 H51 N15 O12),12(K1 1+),12(C12 H24 O6),4(O4 P1 3-),C1 H1 Cl1 F2'
_chemical_name_systematic        
'tetrakis(1,3,5-tris(4-(3-(2-(3-(4-Nitrophenyl)ureido)phenyl)ureido)phenyl)benzene) dodeca-potassium dodecakis(18-crown-6) tetrakis(phosphate) chlorodifluoromethane solvate'
_symmetry_cell_setting           monoclinic
_symmetry_space_group_name_H-M   'C c'
_symmetry_Int_Tables_number      9
_space_group_name_Hall           'C -2yc'
loop_
_symmetry_equiv_pos_site_id
_symmetry_equiv_pos_as_xyz
1 x,y,z
2 x,-y,1/2+z
3 1/2+x,1/2+y,z
4 1/2+x,1/2-y,1/2+z
_cell_length_a                   47.4661(7)
_cell_length_b                   23.9842(4)
_cell_length_c                   47.9162(8)
_cell_angle_alpha                90
_cell_angle_beta                 101.6550(10)
_cell_angle_gamma                90
_cell_volume                     53424.8
_exptl_crystal_colour            yellow
_exptl_crystal_description       block
_cell_formula_units_Z            4
loop_
_atom_site_label
_atom_site_type_symbol
_atom_site_fract_x
_atom_site_fract_y
_atom_site_fract_z
C1 C 0.1708(2) 0.1412(4) 0.3511(2)
H1 H 0.1722 0.1358 0.3705
C2 C 0.1840(2) 0.1875(4) 0.34143(19)
C3 C 0.1830(2) 0.1941(4) 0.3128(2)
H2 H 0.1920 0.2246 0.3063
C4 C 0.1688(2) 0.1561(4) 0.2938(2)
C5 C 0.1545(2) 0.1102(5) 0.3023(2)
H3 H 0.1446 0.0852 0.2890
C6 C 0.1554(2) 0.1030(4) 0.33170(19)
C7 C 0.1397(2) 0.0536(4) 0.3410(2)
C8 C 0.1354(2) 0.0040(4) 0.3247(2)
H4 H 0.1429 0.0012 0.3082
C9 C 0.1204(2) -0.0393(4) 0.3326(2)
H5 H 0.1184 -0.0719 0.3220
C10 C 0.1078(2) -0.0354(4) 0.3571(2)
C11 C 0.1124(2) 0.0125(4) 0.3730(2)
H6 H 0.1048 0.0151 0.3894
C12 C 0.1277(2) 0.0565(4) 0.3657(2)
H7 H 0.1302 0.0884 0.3770
C13 C 0.0880(3) -0.0938(5) 0.3883(3)
C14 C 0.0645(2) -0.1663(4) 0.4149(2)
C15 C 0.0674(3) -0.1389(6) 0.4417(3)
H8 H 0.0759 -0.1038 0.4442
C16 C 0.0577(3) -0.1639(7) 0.4643(4)
H9 H 0.0580 -0.1438 0.4810
C17 C 0.0480(3) -0.2159(6) 0.4624(3)
H10 H 0.0433 -0.2334 0.4781
C18 C 0.0449(2) -0.2448(5) 0.4358(2)
H11 H 0.0372 -0.2807 0.4343
C19 C 0.0527(2) -0.2216(5) 0.4129(2)
C20 C 0.0552(2) -0.3094(5) 0.3864(2)
C21 C 0.0596(2) -0.3813(4) 0.3515(2)
C22 C 0.0632(3) -0.3908(5) 0.3254(3)
H12 H 0.0602 -0.3622 0.3120
C23 C 0.0718(4) -0.4458(7) 0.3173(4)
H13 H 0.0800 -0.4496 0.3013
C24 C 0.0683(3) -0.4875(6) 0.3314(3)
C25 C 0.0673(3) -0.4804(7) 0.3589(4)
H14 H 0.0692 -0.5116 0.3706
C26 C 0.0638(4) -0.4292(7) 0.3707(4)
H15 H 0.0641 -0.4253 0.3900
C27 C 0.1981(2) 0.2296(4) 0.3622(2)
C28 C 0.2115(3) 0.2144(6) 0.3901(3)
H16 H 0.2122 0.1771 0.3955
C29 C 0.2235(2) 0.2544(5) 0.4095(2)
H17 H 0.2320 0.2434 0.4279
C30 C 0.2137(2) 0.3223(5) 0.3739(2)
H18 H 0.2146 0.3586 0.3673
C31 C 0.2234(2) 0.3108(4) 0.4025(2)
C32 C 0.2032(2) 0.2819(4) 0.3557(2)
H19 H 0.1989 0.2913 0.3365
C33 C 0.2452(2) 0.4013(4) 0.4194(2)
C34 C 0.2658(2) 0.4847(4) 0.4466(2)
C35 C 0.2594(3) 0.5243(5) 0.4258(3)
H20 H 0.2459 0.5148 0.4096
C36 C 0.2713(3) 0.5774(6) 0.4266(3)
H21 H 0.2662 0.6036 0.4122
C37 C 0.2911(3) 0.5869(6) 0.4506(3)
H22 H 0.2996 0.6220 0.4525
C38 C 0.3002(2) 0.5492(4) 0.4731(2)
H23 H 0.3142 0.5584 0.4890
C39 C 0.2865(2) 0.4960(4) 0.4700(2)
C40 C 0.3192(2) 0.4490(4) 0.50981(19)
C41 C 0.3431(2) 0.3941(4) 0.5504(2)
C42 C 0.3386(2) 0.3606(4) 0.5727(2)
H24 H 0.3198 0.3509 0.5736
C43 C 0.3606(2) 0.3412(5) 0.5934(2)
H25 H 0.3569 0.3214 0.6089
C44 C 0.3895(2) 0.3519(5) 0.5906(2)
C45 C 0.3935(2) 0.3846(4) 0.5687(2)
H26 H 0.4123 0.3933 0.5673
C46 C 0.3726(2) 0.4042(5) 0.5498(2)
H27 H 0.3770 0.4258 0.5352
C47 C 0.1663(2) 0.1648(4) 0.2621(2)
C48 C 0.1647(2) 0.2183(4) 0.2498(2)
H28 H 0.1659 0.2498 0.2614
C49 C 0.1615(2) 0.2241(5) 0.2206(2)
H29 H 0.1598 0.2598 0.2127
C50 C 0.1607(2) 0.1783(4) 0.2024(2)
C51 C 0.1623(2) 0.1262(5) 0.2150(2)
H30 H 0.1624 0.0947 0.2037
C52 C 0.1639(2) 0.1198(5) 0.2447(2)
H31 H 0.1633 0.0842 0.2524
C53 C 0.1474(2) 0.1545(4) 0.1526(2)
C54 C 0.1401(3) 0.1495(5) 0.1001(3)
C55 C 0.1167(3) 0.1113(6) 0.0970(3)
H32 H 0.1106 0.0992 0.1132
C56 C 0.1021(6) 0.0907(10) 0.0696(5)
H33 H 0.0852 0.0699 0.0672
C57 C 0.1153(4) 0.1043(8) 0.0472(4)
H34 H 0.1078 0.0901 0.0292
C58 C 0.1397(3) 0.1388(7) 0.0509(3)
H35 H 0.1478 0.1475 0.0353
C59 C 0.1519(3) 0.1597(5) 0.0775(3)
C60 C 0.1959(3) 0.1940(6) 0.0653(3)
C61 C 0.2396(3) 0.2436(6) 0.0582(3)
C62 C 0.2582(3) 0.2838(6) 0.0682(3)
H36 H 0.2582 0.2985 0.0861
C63 C 0.2773(4) 0.3041(7) 0.0531(3)
H37 H 0.2878 0.3360 0.0594
C64 C 0.2812(3) 0.2787(6) 0.0293(3)
C65 C 0.2637(4) 0.2396(7) 0.0174(4)
H38 H 0.2653 0.2238 0.0001
C66 C 0.2414(4) 0.2216(7) 0.0327(4)
H39 H 0.2282 0.1944 0.0247
N1 N 0.08959(18) -0.0809(3) 0.36211(18)
H40 H 0.0798 -0.0994 0.3480
N2 N 0.07010(19) -0.1408(4) 0.39045(19)
H41 H 0.0617 -0.1554 0.3745
N3 N 0.05065(17) -0.2522(3) 0.38798(18)
H42 H 0.0462 -0.2343 0.3722
N4 N 0.05492(17) -0.3275(3) 0.35941(17)
H43 H 0.0515 -0.3030 0.3461
N5 N 0.0729(4) -0.5418(8) 0.3173(5)
N6 N 0.23408(17) 0.3487(3) 0.42415(17)
H44 H 0.2338 0.3393 0.4414
N7 N 0.25274(16) 0.4307(3) 0.44477(16)
H45 H 0.2494 0.4157 0.4601
N8 N 0.29323(16) 0.4567(3) 0.49252(15)
H46 H 0.2794 0.4357 0.4955
N9 N 0.31994(18) 0.4097(3) 0.52970(16)
H47 H 0.3041 0.3922 0.5296
N10 N 0.4123(2) 0.3282(4) 0.6120(2)
N11 N 0.16042(18) 0.1888(3) 0.17364(17)
H48 H 0.1689 0.2183 0.1692
N12 N 0.15221(19) 0.1715(4) 0.12738(19)
H49 H 0.1640 0.1989 0.1277
N13 N 0.1757(2) 0.1965(4) 0.0800(2)
H50 H 0.1769 0.2228 0.0924
N14 N 0.2190(2) 0.2303(5) 0.0743(2)
H51 H 0.2206 0.2456 0.0908
N15 N 0.3032(3) 0.2978(7) 0.0147(3)
O1 O 0.10219(17) -0.0741(3) 0.41138(16)
O2 O 0.06024(16) -0.3388(3) 0.40718(16)
O3 O 0.0757(4) -0.5784(7) 0.3373(4)
O4 O 0.0699(4) -0.5519(8) 0.2952(4)
O5 O 0.24866(16) 0.4173(3) 0.39643(16)
O6 O 0.34055(16) 0.4801(3) 0.50862(15)
O7 O 0.4367(2) 0.3333(4) 0.6068(2)
O8 O 0.4068(2) 0.3086(4) 0.6337(2)
O9 O 0.13419(19) 0.1130(4) 0.15572(18)
O10 O 0.1965(2) 0.1592(5) 0.0452(2)
O11 O 0.3047(3) 0.2736(5) -0.0082(3)
O12 O 0.3150(3) 0.3382(6) 0.0220(3)
C67 C 0.1419(8) -0.6221(17) 0.2888(8)
C68 C 0.1568(10) -0.577(2) 0.2967(11)
C69 C 0.1693(10) -0.526(2) 0.3456(11)
C70 C 0.1796(8) -0.5042(15) 0.3654(8)
C71 C 0.1763(7) -0.5507(13) 0.4048(7)
C72 C 0.1687(3) -0.5777(6) 0.4274(3)
C73 C 0.1571(6) -0.6678(13) 0.4325(6)
C74 C 0.1482(5) -0.7239(9) 0.4155(5)
C75 C 0.1199(6) -0.7719(11) 0.3802(5)
C76 C 0.0945(6) -0.7624(13) 0.3507(6)
C77 C 0.1120(4) -0.7479(8) 0.3151(4)
C78 C 0.1174(4) -0.7009(8) 0.2921(4)
O13 O 0.1618(4) -0.6305(8) 0.4143(4)
O14 O 0.1230(3) -0.7222(6) 0.3947(3)
O15 O 0.0998(3) -0.7220(6) 0.3342(3)
O16 O 0.1358(4) -0.6609(8) 0.3079(4)
O17 O 0.1670(8) -0.5546(17) 0.3253(10)
O18 O 0.1607(6) -0.5316(12) 0.3888(6)
K1 K 0.1220(2) -0.6228(4) 0.36360(18)
K2 K 0.1425(3) -0.6430(5) 0.3575(2)
C79 C 0.7441(2) 0.4451(4) 0.2458(2)
H52 H 0.7633 0.4505 0.2449
C80 C 0.7246(2) 0.4818(5) 0.2321(2)
C81 C 0.6957(2) 0.4727(5) 0.2334(2)
H53 H 0.6820 0.4975 0.2239
C82 C 0.6867(2) 0.4303(4) 0.2477(2)
C83 C 0.7088(2) 0.3942(4) 0.2628(2)
H54 H 0.7038 0.3659 0.2741
C84 C 0.7374(2) 0.4005(4) 0.2609(2)
C85 C 0.7596(2) 0.3652(4) 0.2790(2)
C86 C 0.7555(2) 0.3372(4) 0.3024(2)
H55 H 0.7373 0.3384 0.3070
C87 C 0.7768(2) 0.3072(5) 0.3198(2)
H56 H 0.7725 0.2873 0.3350
C88 C 0.8046(2) 0.3061(4) 0.3148(2)
C89 C 0.8091(2) 0.3310(4) 0.2903(2)
H57 H 0.8270 0.3278 0.2853
C90 C 0.7874(2) 0.3609(4) 0.2729(2)
H58 H 0.7913 0.3786 0.2569
C91 C 0.8256(2) 0.2340(4) 0.3485(2)
C92 C 0.8561(3) 0.1678(5) 0.3805(3)
C93 C 0.8339(4) 0.1288(7) 0.3831(3)
H59 H 0.8150 0.1353 0.3738
C94 C 0.8409(4) 0.0798(7) 0.4000(4)
H60 H 0.8262 0.0557 0.4024
C95 C 0.8688(4) 0.0672(8) 0.4128(4)
H61 H 0.8734 0.0334 0.4221
C96 C 0.8906(5) 0.1083(8) 0.4113(4)
H62 H 0.9093 0.1026 0.4212
C97 C 0.8838(3) 0.1570(6) 0.3951(3)
C98 C 0.9244(3) 0.2115(5) 0.4183(3)
C99 C 0.9633(3) 0.2787(5) 0.4337(3)
C100 C 0.9795(5) 0.2520(10) 0.4625(5)
H63 H 0.9758 0.2153 0.4669
C101 C 0.9982(4) 0.2817(9) 0.4802(5)
H64 H 1.0060 0.2684 0.4983
C102 C 1.0046(4) 0.3246(9) 0.4729(4)
C103 C 0.9934(4) 0.3544(7) 0.4504(3)
H65 H 0.9986 0.3916 0.4489
C104 C 0.9739(3) 0.3291(5) 0.4292(3)
H66 H 0.9681 0.3467 0.4116
C105 C 0.6564(2) 0.4232(4) 0.2511(2)
C106 C 0.6459(2) 0.3738(4) 0.2605(2)
H67 H 0.6579 0.3429 0.2644
C107 C 0.6179(2) 0.3705(5) 0.2638(2)
H68 H 0.6111 0.3365 0.2690
C108 C 0.5994(2) 0.4152(4) 0.2597(2)
C109 C 0.6082(3) 0.4648(5) 0.2486(2)
H69 H 0.5957 0.4948 0.2443
C110 C 0.6368(2) 0.4679(5) 0.2442(2)
H70 H 0.6429 0.5003 0.2366
C111 C 0.5481(2) 0.4371(4) 0.2529(2)
C112 C 0.4945(3) 0.4315(5) 0.2495(3)
C113 C 0.4857(3) 0.4533(6) 0.2210(3)
H71 H 0.4994 0.4573 0.2097
C114 C 0.4584(4) 0.4680(7) 0.2103(4)
H72 H 0.4532 0.4818 0.1918
C115 C 0.4376(4) 0.4621(8) 0.2274(4)
H73 H 0.4188 0.4741 0.2206
C116 C 0.4452(4) 0.4380(7) 0.2547(4)
H74 H 0.4313 0.4322 0.2655
C117 C 0.4749(3) 0.4224(5) 0.2658(3)
C118 C 0.4690(3) 0.4000(5) 0.3135(3)
C119 C 0.4690(3) 0.3554(5) 0.3612(3)
C120 C 0.4869(3) 0.3358(5) 0.3865(3)
H75 H 0.5067 0.3339 0.3876
C121 C 0.4758(3) 0.3197(6) 0.4093(3)
H76 H 0.4875 0.3042 0.4254
C122 C 0.4460(3) 0.3274(5) 0.4077(3)
C123 C 0.4289(3) 0.3448(5) 0.3845(3)
H77 H 0.4094 0.3480 0.3847
C124 C 0.4380(3) 0.3591(5) 0.3592(3)
H78 H 0.4253 0.3700 0.3427
C125 C 0.7327(3) 0.5324(5) 0.2167(3)
C126 C 0.7132(4) 0.5555(7) 0.1933(3)
H79 H 0.6958 0.5385 0.1854
C127 C 0.7219(4) 0.6058(7) 0.1830(3)
H80 H 0.7089 0.6235 0.1685
C128 C 0.7479(3) 0.6311(6) 0.1924(3)
C129 C 0.7665(3) 0.6100(6) 0.2140(3)
H81 H 0.7838 0.6278 0.2212
C130 C 0.7588(3) 0.5575(6) 0.2262(3)
H82 H 0.7720 0.5407 0.2408
C131 C 0.7810(4) 0.6938(7) 0.1714(3)
C132 C 0.8025(4) 0.7611(7) 0.1442(3)
C133 C 0.8276(5) 0.7267(9) 0.1420(5)
C134 C 0.8536(4) 0.7574(7) 0.1385(4)
H83 H 0.8718 0.7413 0.1434
C135 C 0.8500(4) 0.8099(7) 0.1280(3)
H84 H 0.8656 0.8269 0.1224
C136 C 0.8232(3) 0.8414(6) 0.1249(3)
H85 H 0.8204 0.8751 0.1151
C137 C 0.8019(3) 0.8170(5) 0.1378(3)
C138 C 0.7772(2) 0.9019(4) 0.1476(2)
C139 C 0.7463(2) 0.9732(4) 0.16215(19)
C140 C 0.7178(2) 0.9940(4) 0.1554(2)
H86 H 0.7035 0.9731 0.1439
C141 C 0.7111(2) 1.0452(4) 0.1659(2)
H87 H 0.6923 1.0584 0.1620
C142 C 0.7328(2) 1.0758(4) 0.1820(2)
C143 C 0.7605(3) 1.0554(5) 0.1890(3)
H88 H 0.7745 1.0768 0.2007
C144 C 0.7683(2) 1.0043(4) 0.1793(2)
H89 H 0.7871 0.9913 0.1840
N16 N 0.8272(2) 0.2799(4) 0.33202(18)
H90 H 0.8440 0.2936 0.3325
N17 N 0.8508(2) 0.2137(4) 0.36320(19)
H91 H 0.8658 0.2325 0.3615
N18 N 0.9056(2) 0.1960(4) 0.3945(2)
H92 H 0.9070 0.2106 0.3785
N19 N 0.9441(2) 0.2530(4) 0.4136(2)
H93 H 0.9436 0.2626 0.3962
N20 N 1.0263(5) 0.3491(11) 0.5014(5)
N21 N 0.57112(17) 0.4089(3) 0.26533(17)
H94 H 0.5689 0.3846 0.2779
N22 N 0.52305(19) 0.4138(4) 0.25923(18)
H95 H 0.5254 0.3853 0.2704
N23 N 0.4823(2) 0.3955(4) 0.2920(2)
H96 H 0.4970 0.3737 0.2944
N24 N 0.4811(2) 0.3681(4) 0.3378(2)
H97 H 0.4981 0.3549 0.3382
N25 N 0.4362(2) 0.3114(4) 0.4338(2)
N26 N 0.7532(3) 0.6816(5) 0.1784(2)
H98 H 0.7396 0.7055 0.1739
N27 N 0.7791(3) 0.7370(5) 0.1564(3)
H99 H 0.7628 0.7540 0.1530
N28 N 0.7763(2) 0.8475(4) 0.13866(19)
H100 H 0.7599 0.8314 0.1335
N29 N 0.75028(18) 0.9210(3) 0.15142(17)
H101 H 0.7357 0.8992 0.1469
N30 N 0.7266(2) 1.1322(4) 0.1920(2)
O19 O 0.80230(17) 0.2129(3) 0.35106(16)
O20 O 0.9246(2) 0.1937(4) 0.4429(2)
O21 O 1.0316(4) 0.3899(9) 0.4970(4)
O22 O 1.0324(4) 0.3263(8) 0.5227(5)
O23 O 0.54628(16) 0.4773(3) 0.23708(16)
O24 O 0.4471(2) 0.4302(4) 0.3141(2)
O25 O 0.4093(2) 0.3147(4) 0.4316(2)
O26 O 0.4525(2) 0.2994(4) 0.4556(2)
O27 O 0.8020(3) 0.6683(5) 0.1843(3)
O28 O 0.79988(17) 0.9298(3) 0.15250(16)
O29 O 0.7468(2) 1.1613(4) 0.2031(2)
O30 O 0.7022(2) 1.1479(4) 0.1881(2)
C145 C 0.3106(2) 0.1263(4) 0.3554(2)
H102 H 0.3229 0.1061 0.3693
C146 C 0.3082(2) 0.1116(4) 0.3275(2)
C147 C 0.2911(2) 0.1456(4) 0.3066(2)
H103 H 0.2908 0.1384 0.2875
C148 C 0.2746(2) 0.1892(4) 0.3136(2)
C149 C 0.2759(2) 0.2009(4) 0.3422(2)
H104 H 0.2642 0.2286 0.3473
C150 C 0.2950(2) 0.1709(4) 0.36388(19)
C151 C 0.2978(2) 0.1858(4) 0.39365(19)
C152 C 0.2884(2) 0.2387(4) 0.4022(2)
H105 H 0.2812 0.2650 0.3883
C153 C 0.2898(2) 0.2514(4) 0.4301(2)
H106 H 0.2836 0.2865 0.4346
C154 C 0.3001(2) 0.2146(4) 0.4526(2)
C155 C 0.3100(2) 0.1626(4) 0.4448(2)
H107 H 0.3178 0.1369 0.4588
C156 C 0.3082(2) 0.1496(4) 0.4164(2)
H108 H 0.3144 0.1144 0.4121
C157 C 0.3156(2) 0.2095(4) 0.5046(2)
C158 C 0.3258(2) 0.2228(4) 0.5563(2)
C159 C 0.3533(3) 0.2036(5) 0.5629(3)
H109 H 0.3642 0.2010 0.5488
C160 C 0.3650(3) 0.1880(6) 0.5907(3)
H110 H 0.3830 0.1712 0.5948
C161 C 0.3516(3) 0.1960(6) 0.6107(3)
H111 H 0.3610 0.1893 0.6293
C162 C 0.3223(3) 0.2153(5) 0.6057(3)
H112 H 0.3123 0.2180 0.6205
C163 C 0.3095(2) 0.2296(4) 0.5785(2)
C164 C 0.2604(2) 0.2439(4) 0.5869(2)
C165 C 0.2138(2) 0.2811(4) 0.5911(2)
C166 C 0.1908(2) 0.3112(4) 0.5774(2)
H113 H 0.1911 0.3238 0.5591
C167 C 0.1668(3) 0.3242(5) 0.5888(3)
H114 H 0.1515 0.3448 0.5785
C168 C 0.1668(3) 0.3051(5) 0.6161(3)
C169 C 0.1896(3) 0.2735(5) 0.6306(3)
H115 H 0.1894 0.2599 0.6487
C170 C 0.2122(3) 0.2627(5) 0.6181(3)
H116 H 0.2274 0.2418 0.6281
C171 C 0.3530(2) 0.0537(4) 0.3311(2)
H117 H 0.3625 0.0774 0.3453
C172 C 0.3243(2) 0.0645(4) 0.3180(2)
C173 C 0.3681(2) 0.0056(4) 0.3224(2)
H118 H 0.3869 -0.0027 0.3314
C174 C 0.3531(2) -0.0278(4) 0.3000(2)
C175 C 0.3251(2) -0.0147(4) 0.2888(2)
H119 H 0.3152 -0.0363 0.2738
C176 C 0.3109(2) 0.0277(4) 0.2983(2)
H120 H 0.2914 0.0319 0.2910
C177 C 0.3654(2) -0.0939(4) 0.2661(2)
C178 C 0.3863(2) -0.1629(4) 0.2381(2)
C179 C 0.3825(2) -0.1357(5) 0.2138(2)
H121 H 0.3765 -0.0988 0.2132
C180 C 0.3873(2) -0.1609(5) 0.1889(3)
H122 H 0.3844 -0.1409 0.1719
C181 C 0.3965(3) -0.2152(5) 0.1896(3)
H123 H 0.3995 -0.2321 0.1729
C182 C 0.4010(2) -0.2438(4) 0.2136(2)
H124 H 0.4083 -0.2798 0.2137
C183 C 0.3949(2) -0.2217(4) 0.2391(2)
C184 C 0.3929(2) -0.3071(4) 0.2658(2)
C185 C 0.3916(2) -0.3833(5) 0.3015(2)
C186 C 0.3868(3) -0.3922(6) 0.3278(3)
H125 H 0.3839 -0.3616 0.3388
C187 C 0.3862(3) -0.4434(6) 0.3391(3)
H126 H 0.3850 -0.4488 0.3580
C188 C 0.3906(3) -0.4816(6) 0.2945(3)
H127 H 0.3907 -0.5130 0.2831
C189 C 0.3938(2) -0.4287(5) 0.2832(2)
H128 H 0.3971 -0.4237 0.2649
C190 C 0.3875(3) -0.4871(5) 0.3212(3)
C191 C 0.2563(2) 0.2222(4) 0.2904(2)
C192 C 0.2462(3) 0.2011(5) 0.2641(3)
H129 H 0.2491 0.1635 0.2609
C193 C 0.2318(3) 0.2333(5) 0.2419(3)
H130 H 0.2257 0.2167 0.2241
C194 C 0.2262(3) 0.2900(5) 0.2450(2)
C195 C 0.2349(2) 0.3115(5) 0.2732(2)
H131 H 0.2297 0.3477 0.2772
C196 C 0.2511(2) 0.2790(5) 0.2952(2)
H132 H 0.2584 0.2949 0.3128
C197 C 0.1958(3) 0.3676(6) 0.2237(3)
C198 C 0.1703(2) 0.4412(4) 0.1942(2)
C199 C 0.1743(3) 0.4825(5) 0.2142(3)
H133 H 0.1870 0.4768 0.2315
C200 C 0.1592(3) 0.5350(6) 0.2090(3)
H134 H 0.1619 0.5627 0.2229
C201 C 0.1416(3) 0.5432(6) 0.1842(3)
H135 H 0.1319 0.5769 0.1808
C202 C 0.1374(3) 0.5022(5) 0.1629(3)
H136 H 0.1244 0.5087 0.1459
C203 C 0.1524(2) 0.4515(5) 0.1670(2)
C204 C 0.1242(3) 0.3969(5) 0.1269(3)
C205 C 0.1049(3) 0.3287(5) 0.0891(3)
C206 C 0.1092(3) 0.2757(6) 0.0820(3)
H137 H 0.1262 0.2571 0.0895
C207 C 0.0866(4) 0.2489(8) 0.0622(4)
H138 H 0.0897 0.2134 0.0556
C208 C 0.0609(3) 0.2741(6) 0.0531(3)
C209 C 0.0789(4) 0.3546(7) 0.0801(4)
H139 H 0.0756 0.3901 0.0864
C210 C 0.0577(4) 0.3265(7) 0.0611(4)
H140 H 0.0406 0.3450 0.0538
N31 N 0.29835(16) 0.2294(3) 0.47984(15)
H141 H 0.2853 0.2532 0.4817
N32 N 0.31230(18) 0.2377(3) 0.52806(17)
H142 H 0.3013 0.2665 0.5258
N33 N 0.28149(18) 0.2523(3) 0.57169(18)
H143 H 0.2774 0.2730 0.5568
N34 N 0.23530(17) 0.2712(3) 0.57660(17)
H144 H 0.2328 0.2834 0.5594
N35 N 0.1435(2) 0.3203(4) 0.6294(2)
N36 N 0.36798(17) -0.0751(3) 0.29337(17)
H145 H 0.3790 -0.0928 0.3069
N37 N 0.38187(18) -0.1410(3) 0.26398(18)
H146 H 0.3898 -0.1577 0.2795
N38 N 0.39892(16) -0.2503(3) 0.26450(16)
H147 H 0.4053 -0.2326 0.2801
N39 N 0.39552(17) -0.3266(3) 0.29328(17)
H148 H 0.4000 -0.3027 0.3068
N40 N 0.3838(2) -0.5473(5) 0.3326(3)
N41 N 0.2127(2) 0.3209(4) 0.2222(2)
H149 H 0.2148 0.3105 0.2056
N42 N 0.18630(18) 0.3910(3) 0.19797(18)
H150 H 0.1901 0.3747 0.1832
N43 N 0.14979(19) 0.4093(4) 0.14627(18)
H151 H 0.1648 0.3900 0.1454
N44 N 0.1263(2) 0.3537(4) 0.10978(19)
H152 H 0.1431 0.3392 0.1117
N45 N 0.0380(3) 0.2385(6) 0.0333(3)
O31 O 0.33192(15) 0.1707(3) 0.50483(15)
O32 O 0.26498(19) 0.2141(4) 0.60896(18)
O33 O 0.1255(3) 0.3522(5) 0.6189(2)
O34 O 0.1416(2) 0.2956(4) 0.6516(2)
O35 O 0.35004(17) -0.0715(3) 0.24600(16)
O36 O 0.38576(16) -0.3374(3) 0.24455(15)
O37 O 0.3802(3) -0.5797(5) 0.3148(3)
O38 O 0.3876(3) -0.5506(5) 0.3584(3)
O39 O 0.19038(19) 0.3830(4) 0.24606(19)
O40 O 0.10261(18) 0.4245(3) 0.12792(17)
O41 O 0.0179(4) 0.2686(7) 0.0277(3)
O42 O 0.0417(3) 0.1906(5) 0.0309(2)
C211 C 0.3279(4) 0.3735(7) 0.3599(4)
C212 C 0.3295(4) 0.3181(8) 0.3427(4)
C213 C 0.3581(4) 0.2406(7) 0.3383(4)
C214 C 0.3845(3) 0.2083(6) 0.3538(3)
C215 C 0.4011(3) 0.1513(5) 0.3937(3)
C216 C 0.3945(3) 0.1316(5) 0.4203(3)
C217 C 0.3907(3) 0.1661(6) 0.4647(3)
C218 C 0.3936(3) 0.2181(5) 0.4847(3)
C219 C 0.3740(3) 0.3080(6) 0.4879(3)
C220 C 0.3477(3) 0.3444(5) 0.4745(3)
C221 C 0.3267(3) 0.3972(6) 0.4344(3)
C222 C 0.3299(3) 0.4100(6) 0.4065(3)
O43 O 0.37001(17) 0.2550(3) 0.47166(16)
O44 O 0.34892(18) 0.3569(3) 0.44641(17)
O45 O 0.32760(19) 0.3591(4) 0.38870(19)
O46 O 0.3547(2) 0.2868(4) 0.3556(2)
O47 O 0.37845(18) 0.1849(3) 0.37889(17)
O48 O 0.39487(17) 0.1800(3) 0.43853(17)
C223 C 0.6836(3) 0.2027(5) 0.2521(2)
C224 C 0.7066(3) 0.1942(6) 0.2792(3)
C225 C 0.7552(3) 0.1687(6) 0.2923(3)
C226 C 0.7823(3) 0.1483(6) 0.2803(3)
C227 C 0.8139(3) 0.1805(6) 0.2507(3)
C228 C 0.8228(3) 0.2315(5) 0.2383(3)
C229 C 0.8091(3) 0.3021(5) 0.2037(3)
C230 C 0.7859(3) 0.3198(6) 0.1796(3)
C231 C 0.7380(3) 0.3553(6) 0.1708(3)
C232 C 0.7119(3) 0.3620(5) 0.1831(3)
C233 C 0.6757(3) 0.3103(6) 0.1980(3)
C234 C 0.6696(3) 0.2596(5) 0.2130(3)
O49 O 0.69054(16) 0.2519(3) 0.23852(15)
O50 O 0.73310(16) 0.1803(3) 0.26876(15)
O51 O 0.80147(16) 0.2530(3) 0.21664(16)
O52 O 0.76181(16) 0.3366(3) 0.19191(16)
O53 O 0.70322(17) 0.3092(3) 0.19104(16)
O54 O 0.79067(16) 0.1949(3) 0.26512(15)
K3 K 0.81820(5) 1.01745(10) 0.12853(5)
K4 K 0.35745(5) 0.26507(10) 0.41360(5)
K5 K 0.52361(6) 0.57891(10) 0.22551(5)
K6 K 0.74766(5) 0.25869(9) 0.23234(5)
K7 K 0.91839(13) 0.2621(2) 0.49246(13)
C235 C 0.2084(2) 0.9853(4) 0.3982(2)
H153 H 0.1893 0.9915 0.3995
C236 C 0.2300(2) 1.0231(4) 0.4114(2)
C237 C 0.2570(2) 1.0167(4) 0.4059(2)
H154 H 0.2706 1.0441 0.4125
C238 C 0.2653(2) 0.9726(4) 0.3914(2)
C239 C 0.2435(2) 0.9319(5) 0.3800(2)
H155 H 0.2485 0.9009 0.3704
C240 C 0.2153(2) 0.9383(4) 0.3831(2)
C241 C 0.1938(2) 0.8975(4) 0.3702(2)
C242 C 0.1954(3) 0.8723(5) 0.3448(3)
H156 H 0.2109 0.8807 0.3364
C243 C 0.1746(3) 0.8345(5) 0.3311(3)
H157 H 0.1767 0.8177 0.3142
C244 C 0.1501(2) 0.8482(4) 0.3684(2)
H158 H 0.1348 0.8391 0.3770
C245 C 0.1518(2) 0.8224(4) 0.3423(2)
C246 C 0.16970(19) 0.8856(4) 0.38122(19)
H159 H 0.1670 0.9036 0.3977
C247 C 0.1329(2) 0.7426(4) 0.3129(2)
C248 C 0.1071(2) 0.6684(4) 0.2841(2)
C249 C 0.1282(2) 0.6302(4) 0.2863(2)
H160 H 0.1445 0.6349 0.3005
C250 C 0.1267(3) 0.5845(5) 0.2686(2)
H161 H 0.1411 0.5575 0.2716
C251 C 0.1034(3) 0.5802(5) 0.2463(3)
H162 H 0.1026 0.5516 0.2331
C252 C 0.0815(3) 0.6177(5) 0.2436(3)
H163 H 0.0656 0.6130 0.2290
C253 C 0.0820(2) 0.6620(5) 0.2617(2)
C254 C 0.0394(3) 0.7140(6) 0.2356(3)
C255 C -0.0027(3) 0.7759(6) 0.2191(3)
C256 C -0.0019(5) 0.7737(9) 0.1906(5)
H164 H 0.0141 0.7586 0.1850
C257 C -0.0261(5) 0.7948(9) 0.1685(5)
H165 H -0.0272 0.7912 0.1490
C258 C -0.0454(4) 0.8190(8) 0.1800(4)
C259 C -0.0474(4) 0.8257(8) 0.2064(4)
H166 H -0.0621 0.8462 0.2118
C260 C -0.0248(4) 0.7984(7) 0.2272(4)
H167 H -0.0262 0.7970 0.2462
C261 C 0.2215(2) 1.0728(4) 0.4274(2)
C262 C 0.1860(2) 1.1271(4) 0.4439(2)
H168 H 0.1667 1.1317 0.4443
C263 C 0.1942(2) 1.0843(4) 0.4283(2)
H169 H 0.1799 1.0621 0.4177
C264 C 0.2060(2) 1.1632(4) 0.4588(2)
C265 C 0.2339(3) 1.1477(5) 0.4602(2)
H170 H 0.2482 1.1676 0.4722
C266 C 0.2423(3) 1.1030(5) 0.4442(3)
H171 H 0.2617 1.0948 0.4452
C267 C 0.1742(2) 1.2179(4) 0.4817(2)
C268 C 0.1504(2) 1.2849(5) 0.5084(2)
C269 C 0.1297(2) 1.2507(5) 0.5150(2)
H172 H 0.1312 1.2123 0.5131
C270 C 0.1056(3) 1.2736(5) 0.5250(3)
H173 H 0.0913 1.2500 0.5288
C271 C 0.1034(3) 1.3279(6) 0.5287(3)
H174 H 0.0878 1.3423 0.5354
C272 C 0.1251(2) 1.3644(4) 0.5225(2)
H175 H 0.1237 1.4027 0.5251
C273 C 0.14778(19) 1.3431(4) 0.51298(19)
C274 C 0.1691(2) 1.4330(4) 0.5013(2)
C275 C 0.1988(2) 1.5099(4) 0.4916(2)
C276 C 0.1761(2) 1.5464(4) 0.4778(2)
H176 H 0.1571 1.5346 0.4738
C277 C 0.1836(3) 1.5999(6) 0.4705(3)
H177 H 0.1691 1.6237 0.4617
C278 C 0.2111(3) 1.6191(5) 0.4755(2)
C279 C 0.2335(3) 1.5820(5) 0.4865(3)
H178 H 0.2525 1.5927 0.4878
C280 C 0.2270(2) 1.5295(4) 0.4953(2)
H179 H 0.2420 1.5064 0.5040
C281 C 0.2959(2) 0.9642(4) 0.3874(2)
C282 C 0.3176(2) 0.9865(4) 0.4055(2)
H180 H 0.3137 1.0095 0.4199
C283 C 0.3467(3) 0.9769(5) 0.4041(2)
H181 H 0.3615 0.9923 0.4175
C284 C 0.3524(2) 0.9435(4) 0.3819(2)
C285 C 0.3293(2) 0.9240(4) 0.3607(2)
H182 H 0.3326 0.9042 0.3450
C286 C 0.3018(2) 0.9350(4) 0.3640(2)
H183 H 0.2865 0.9226 0.3501
C287 C 0.4048(2) 0.9598(4) 0.3886(2)
C288 C 0.4582(2) 0.9547(5) 0.3928(2)
C289 C 0.4646(3) 0.9880(5) 0.4160(2)
H184 H 0.4500 0.9972 0.4256
C290 C 0.4931(3) 1.0097(6) 0.4266(3)
H185 H 0.4974 1.0357 0.4412
C291 C 0.5133(3) 0.9882(5) 0.4127(3)
H186 H 0.5321 1.0008 0.4185
C292 C 0.5080(3) 0.9482(5) 0.3903(3)
H187 H 0.5230 0.9329 0.3829
C293 C 0.4798(3) 0.9333(5) 0.3800(3)
C294 C 0.4867(3) 0.8914(6) 0.3360(3)
C295 C 0.4890(4) 0.8301(7) 0.2944(4)
C296 C 0.4697(5) 0.8104(8) 0.2709(4)
H188 H 0.4500 0.8112 0.2704
C297 C 0.4805(5) 0.7888(9) 0.2475(5)
H189 H 0.4686 0.7803 0.2301
C298 C 0.5119(4) 0.7812(8) 0.2528(4)
C299 C 0.5271(5) 0.8118(8) 0.2718(4)
H190 H 0.5446 0.8242 0.2683
C300 C 0.5194(4) 0.8290(8) 0.2981(4)
H191 H 0.5323 0.8379 0.3149
N46 N 0.12875(18) 0.7880(3) 0.32892(16)
H192 H 0.1116 0.7959 0.3309
N47 N 0.10837(18) 0.7140(3) 0.30117(17)
H193 H 0.0925 0.7259 0.3050
N48 N 0.05948(19) 0.7006(4) 0.2601(2)
H194 H 0.0580 0.7174 0.2756
N49 N 0.0196(2) 0.7557(4) 0.2394(2)
H195 H 0.0216 0.7700 0.2562
N50 N -0.0732(5) 0.8512(9) 0.1560(5)
N51 N 0.19988(16) 1.2078(3) 0.47412(15)
H196 H 0.2134 1.2317 0.4794
N52 N 0.17510(17) 1.2646(3) 0.49982(16)
H197 H 0.1913 1.2812 0.5058
N53 N 0.17103(18) 1.3777(3) 0.50877(16)
H198 H 0.1878 1.3625 0.5111
N54 N 0.19446(16) 1.4563(3) 0.49878(15)
H199 H 0.2093 1.4350 0.5020
N55 N 0.2187(3) 1.6753(5) 0.4669(3)
N56 N 0.38018(17) 0.9280(3) 0.37844(17)
H200 H 0.3820 0.8974 0.3696
N57 N 0.42884(18) 0.9354(3) 0.38273(17)
H201 H 0.4265 0.9060 0.3722
N58 N 0.4723(2) 0.8961(4) 0.35723(19)
H202 H 0.4576 0.8749 0.3568
N59 N 0.4749(3) 0.8529(5) 0.3157(3)
H203 H 0.4577 0.8416 0.3158
N60 N 0.5223(6) 0.7639(9) 0.2254(5)
O55 O 0.15745(17) 0.7271(3) 0.30949(17)
O56 O 0.0389(2) 0.6887(4) 0.2130(2)
O57 O -0.0698(4) 0.8305(8) 0.1334(5)
O58 O -0.0872(5) 0.8755(10) 0.1682(5)
O59 O 0.15265(18) 1.1881(3) 0.47522(17)
O60 O 0.14620(15) 1.4592(3) 0.49813(14)
O61 O 0.1974(2) 1.7073(5) 0.4618(2)
O62 O 0.2427(3) 1.6862(5) 0.4652(2)
O63 O 0.40396(17) 1.0059(3) 0.39955(16)
O64 O 0.5088(3) 0.9194(5) 0.3329(3)
O65 O 0.5041(4) 0.7495(7) 0.2042(4)
O66 O 0.5486(3) 0.7719(5) 0.2280(3)
K8 K 0.12713(6) 1.54641(12) 0.52384(6)
C301 C 0.0748(4) 1.4676(7) 0.5535(4)
C302 C 0.1026(3) 1.4686(6) 0.5807(3)
C303 C 0.1507(3) 1.4785(6) 0.5915(3)
C304 C 0.1787(3) 1.4772(7) 0.5766(3)
C305 C 0.1878(3) 1.5751(6) 0.5783(3)
C306 C 0.1889(3) 1.6267(7) 0.5597(3)
C307 C 0.1559(4) 1.6842(8) 0.5293(4)
C308 C 0.1239(3) 1.6908(6) 0.5105(3)
C309 C 0.0968(5) 1.6449(9) 0.4718(5)
C310 C 0.0704(6) 1.6288(11) 0.4793(6)
C311 C 0.0515(6) 1.5693(11) 0.5015(5)
C312 C 0.0487(4) 1.5169(7) 0.5172(3)
O67 O 0.0739(2) 1.5152(4) 0.5401(2)
O68 O 0.1270(2) 1.4748(4) 0.5691(2)
O69 O 0.1786(2) 1.5297(4) 0.56024(19)
O70 O 0.1590(2) 1.6361(4) 0.5442(2)
O71 O 0.1197(2) 1.6421(4) 0.4914(2)
O72 O 0.0720(3) 1.5735(6) 0.4893(3)
K9 K 0.53976(12) 0.8437(2) 0.18452(12)
K10 K 0.19837(7) 0.78120(13) 0.41888(7)
K11 K 1.52866(11) 0.3649(2) 0.89612(11)
K12 K 1.51958(13) 0.3994(3) 0.90443(13)
K13 K 0.75275(13) 0.4864(3) 0.08000(13)
K14 K 0.92696(14) 0.3686(3) 0.77276(13)
O73 O 0.17355(15) 0.2787(3) 0.12040(14)
O74 O 0.22677(16) 0.2837(3) 0.12496(16)
O75 O 0.20575(14) 0.2615(3) 0.16810(14)
O76 O 0.20131(15) 0.3574(3) 0.14664(14)
P1 P 0.20226(6) 0.29487(11) 0.14055(6)
O77 O 0.24366(12) 0.3955(2) 0.49633(12)
O78 O 0.24603(13) 0.2960(2) 0.48070(12)
O79 O 0.27674(13) 0.3289(2) 0.52746(12)
O80 O 0.22371(13) 0.3195(2) 0.52253(12)
P2 P 0.24772(5) 0.33469(9) 0.50658(5)
O81 O 0.91969(13) 0.6849(3) 0.81175(13)
O82 O 0.93031(14) 0.6773(3) 0.86552(13)
O83 O 0.87996(14) 0.6556(3) 0.83674(13)
O84 O 0.89910(14) 0.7554(3) 0.84071(13)
P3 P 0.90702(6) 0.69309(10) 0.83839(5)
O85 O 0.52494(15) 0.3180(3) 0.28819(15)
O86 O 0.55635(14) 0.2444(3) 0.31505(14)
O87 O 0.57404(13) 0.3434(2) 0.31585(13)
O88 O 0.53411(14) 0.3174(3) 0.34113(13)
P4 P 0.54767(5) 0.30605(10) 0.31522(5)
F1 F 0.7334(3) 0.4293(7) 0.8362(4)
C313 C 0.7287(9) 0.4483(17) 0.8078(6)
H204 H 0.7081 0.4568 0.8043
Cl1 Cl 0.7437(11) 0.5131(18) 0.8217(11)
F2 F 0.7299(17) 0.413(3) 0.7849(13)
C314? C 0.4777(3) 0.5992(6) 0.2764(3)
C315? C 0.5057(5) 0.6144(8) 0.2801(4)
C316? C 0.5529(5) 0.6285(10) 0.3017(5)
C317? C 0.5757(5) 0.6066(10) 0.2877(5)
C318? C 0.5875(3) 0.6507(6) 0.2199(3)
C319? C 0.5704(5) 0.6035(10) 0.1807(5)
C320? C 0.5575(8) 0.5770(15) 0.1608(8)
C321? C 0.5153(6) 0.5958(11) 0.1620(5)
C322? C 0.4840(6) 0.5731(12) 0.1529(6)
C323? C 0.4525(4) 0.6379(7) 0.2001(4)
C324? C 0.4649(5) 0.6169(9) 0.2248(5)
O89? O 0.4690(4) 0.6241(9) 0.2462(5)
O90? O 0.5250(4) 0.5984(6) 0.2820(3)
O91? O 0.5734(4) 0.6407(8) 0.2588(4)
O92? O 0.5731(3) 0.6010(6) 0.2101(3)
O93? O 0.5332(6) 0.5634(11) 0.1696(6)
O94? O 0.4710(4) 0.5939(8) 0.1806(4)
C325? C 0.4534(8) 0.8491(15) 0.1472(8)
C326? C 0.4651(7) 0.7815(14) 0.1505(7)
C327? C 0.5030(5) 0.7302(9) 0.1387(4)
C328? C 0.5332(4) 0.7415(7) 0.1289(4)
C329? C 0.5804(3) 0.7627(6) 0.1440(3)
C330? C 0.6016(4) 0.7801(7) 0.1722(4)
C331? C 0.6121(4) 0.8515(7) 0.2039(4)
C332? C 0.6025(4) 0.9107(8) 0.2139(4)
C333? C 0.5646(5) 0.9553(10) 0.2300(5)
C334? C 0.5363(7) 0.9322(13) 0.2375(7)
O95? O 0.4723(5) 0.8636(9) 0.1771(5)
O96? O 0.4948(3) 0.7838(6) 0.1448(3)
O97? O 0.5531(2) 0.7553(4) 0.1508(2)
O98? O 0.5927(2) 0.8339(4) 0.1796(2)
O99? O 0.5759(3) 0.9047(6) 0.2218(3)
O100? O 0.5154(5) 0.9303(9) 0.2131(5)
C335? C 1.5765(6) 0.3772(13) 0.9470(6)
C336? C 1.4741(9) 0.4728(18) 0.8613(9)
C337? C 1.4642(5) 0.4241(11) 0.8522(5)
C338? C 1.4613(5) 0.3316(9) 0.8526(4)
C339? C 1.4800(5) 0.2863(9) 0.8531(4)
C340? C 1.5193(5) 0.2432(10) 0.8867(5)
C341? C 1.5467(6) 0.2466(13) 0.9141(6)
C342? C 1.5765(11) 0.269(2) 0.9478(11)
O101? O 1.4778(3) 0.3829(6) 0.8536(3)
O102? O 1.5816(7) 0.3324(17) 0.9481(7)
O103? O 1.5536(4) 0.2948(8) 0.9186(4)
O104? O 1.5009(3) 0.2771(6) 0.8791(3)
C343? C 1.5838(9) 0.4545(17) 0.9507(9)
C344? C 1.5366(7) 0.5019(13) 0.9261(6)
C345? C 1.5216(7) 0.5070(13) 0.8914(7)
O105? O 1.5572(4) 0.4619(8) 0.9189(4)
O106? O 0.9764(3) 0.3784(6) 0.9615(3)
C346? C 0.9785(4) 0.3307(9) 0.9473(5)
C347? C 0.9714(5) 0.3786(10) 0.9895(5)
C348? C 0.9824(6) 0.3372(12) 0.9174(7)
C349? C 0.9653(6) 0.4414(11) 1.0019(5)
C350? C 0.9764(7) 0.2858(14) 0.8311(7)
C351? C 0.9743(6) 0.2701(10) 0.8067(6)
C352? C 0.9274(6) 0.2263(11) 0.7925(5)
C353? C 0.9055(7) 0.2232(13) 0.7726(7)
C354? C 0.8568(8) 0.2770(16) 0.7553(8)
C355? C 0.8433(7) 0.3250(14) 0.7579(7)
O107? O 0.8660(4) 0.3700(8) 0.7459(4)
O108? O 0.9695(5) 0.3557(10) 0.8260(5)
O109? O 0.9453(4) 0.2662(7) 0.7887(3)
O110? O 0.8895(4) 0.2786(7) 0.7760(4)
C356? C 0.9203(8) 0.5014(16) 0.7454(8)
C357? C 0.9375(8) 0.5167(15) 0.7781(8)
C358? C 0.9641(6) 0.4592(12) 0.8264(7)
O111? O 0.9528(5) 0.4658(9) 0.8008(5)
C359? C 0.9656(12) 0.206(2) 0.5573(11)
O112? O 0.9514(6) 0.2588(11) 0.5484(5)
O113? O 0.9550(9) 0.3867(16) 0.5165(9)
C360? C 0.8987(6) 0.3721(12) 0.4487(6)
O114? O 0.8764(6) 0.3207(13) 0.4444(6)
C361? C 0.8504(12) 0.257(3) 0.4437(12)
C362? C 0.8543(6) 0.2127(12) 0.4515(6)
C363? C 0.8754(5) 0.1501(10) 0.4891(5)
C364? C 0.8845(11) 0.132(2) 0.5192(11)
O115? O 0.8677(4) 0.2042(9) 0.4836(5)
O116? O 0.9153(6) 0.1677(12) 0.5287(6)
C365? C 0.7366(5) 0.5987(10) 0.1226(5)
C366? C 0.7049(6) 0.5605(13) 0.1135(6)
C367? C 0.6833(6) 0.4817(11) 0.1039(5)
C368? C 0.6901(5) 0.4290(11) 0.0921(6)
C369? C 0.7142(5) 0.3648(9) 0.0589(5)
C370? C 0.7282(7) 0.3616(12) 0.0384(6)
C371? C 0.7724(6) 0.4023(11) 0.0281(6)
C372? C 0.8044(6) 0.4151(12) 0.0482(6)
C373? C 0.8242(9) 0.4916(16) 0.0639(8)
C374? C 0.7888(6) 0.6231(11) 0.0842(6)
C375? C 0.7781(7) 0.6255(12) 0.1088(6)
O117? O 0.7522(4) 0.5971(8) 0.1011(4)
O118? O 0.7114(4) 0.5118(9) 0.1092(4)
O119? O 0.7047(5) 0.4196(9) 0.0709(5)
O120? O 0.7523(6) 0.3865(10) 0.0506(5)
O121? O 0.7988(5) 0.4737(10) 0.0521(5)
O122? O 0.8017(6) 0.5652(12) 0.0820(6)
C376? C 0.8455(3) 0.9458(6) 0.0709(3)
C377? C 0.8550(4) 0.9676(8) 0.0979(4)
C378? C 0.8952(5) 0.9908(9) 0.1359(5)
C379? C 0.8809(5) 1.0301(9) 0.1474(5)
C380? C 0.8666(6) 1.0815(12) 0.1884(6)
O123? O 0.8753(6) 0.9721(10) 0.1095(5)
O124? O 0.8731(4) 1.0394(8) 0.1700(4)
C381? C 0.8080(4) 1.1587(7) 0.1546(4)
C382? C 0.7629(7) 1.1183(12) 0.1205(6)
C383? C 0.7564(3) 1.0968(6) 0.0914(3)
C384? C 0.7694(4) 0.9976(8) 0.0916(4)
C385? C 0.7676(3) 0.9493(6) 0.0718(3)
O125? O 0.8306(3) 1.1127(6) 0.1655(3)
O126? O 0.7896(3) 1.1204(6) 0.1240(3)
O127? O 0.7630(3) 1.0404(6) 0.0889(3)
O128? O 0.6265(3) 0.3975(6) 0.1333(3)
C386? C 0.6383(6) 0.4726(11) 0.1679(5)
C387? C 0.6216(6) 0.3182(12) 0.1005(6)
C388? C 0.6129(8) 0.3428(16) 0.1285(8)
C389? C 0.6161(9) 0.4562(16) 0.1498(8)
K15? K 0.53115(13) 0.8547(2) 0.17149(13)
O129? O 0.5484(3) 0.9317(5) 0.1459(3)
H205? H 0.8324 0.7041 0.1591
H206? H 0.8221 0.7016 0.1260
C390? C 0.1417(5) 0.7688(11) 0.4332(6)
C391? C 0.1498(7) 0.8133(13) 0.4584(6)
C392? C 0.1928(8) 0.8723(14) 0.4777(7)
C393? C 0.2181(5) 0.8977(10) 0.4681(5)
C394? C 0.2575(5) 0.8756(9) 0.4514(4)
C395? C 0.2733(4) 0.8266(8) 0.4382(4)
C396? C 0.2663(5) 0.7602(9) 0.4025(5)
C397? C 0.2481(5) 0.7307(9) 0.3807(5)
C398? C 0.2055(5) 0.6778(9) 0.3648(4)
C399? C 0.1780(5) 0.6560(10) 0.3737(5)
C400? C 0.1401(6) 0.6750(11) 0.3946(5)
C401? C 0.1310(7) 0.7156(14) 0.4102(7)
O130? O 0.1733(5) 0.8527(9) 0.4583(4)
O131? O 0.2321(4) 0.8502(7) 0.4577(4)
O132? O 0.2567(3) 0.8025(5) 0.4163(2)
O133? O 0.2266(3) 0.7090(5) 0.3888(3)
O134? O 0.1673(5) 0.6940(10) 0.3825(5)
C402? C 0.9499(9) 0.4008(17) 0.8460(9)
O135? O 0.7996(6) 0.4799(12) 0.1876(6)
loop_
_geom_bond_atom_site_label_1
_geom_bond_atom_site_label_2
_geom_bond_site_symmetry_1
_geom_bond_site_symmetry_2
C1 H1 1_555 1_555
C2 C1 1_555 1_555
C3 C2 1_555 1_555
H2 C3 1_555 1_555
C4 C3 1_555 1_555
C5 C4 1_555 1_555
H3 C5 1_555 1_555
C6 C1 1_555 1_555
C7 C6 1_555 1_555
C8 C7 1_555 1_555
H4 C8 1_555 1_555
C9 C8 1_555 1_555
H5 C9 1_555 1_555
C10 C9 1_555 1_555
C11 C10 1_555 1_555
H6 C11 1_555 1_555
C12 C7 1_555 1_555
H7 C12 1_555 1_555
C13 N1 1_555 1_555
C14 C15 1_555 1_555
C15 H8 1_555 1_555
C16 C15 1_555 1_555
H9 C16 1_555 1_555
C17 C16 1_555 1_555
H10 C17 1_555 1_555
C18 C17 1_555 1_555
H11 C18 1_555 1_555
C19 C14 1_555 1_555
C20 N3 1_555 1_555
C21 C22 1_555 1_555
C22 H12 1_555 1_555
C23 C22 1_555 1_555
H13 C23 1_555 1_555
C24 C23 1_555 1_555
C25 C24 1_555 1_555
H14 C25 1_555 1_555
C26 C21 1_555 1_555
H15 C26 1_555 1_555
C27 C2 1_555 1_555
C28 C27 1_555 1_555
H16 C28 1_555 1_555
C29 C28 1_555 1_555
H17 C29 1_555 1_555
C30 H18 1_555 1_555
C31 C29 1_555 1_555
C32 C27 1_555 1_555
H19 C32 1_555 1_555
C33 N6 1_555 1_555
C34 C35 1_555 1_555
C35 H20 1_555 1_555
C36 C35 1_555 1_555
H21 C36 1_555 1_555
C37 C36 1_555 1_555
H22 C37 1_555 1_555
C38 C37 1_555 1_555
H23 C38 1_555 1_555
C39 C34 1_555 1_555
C40 N8 1_555 1_555
C41 C42 1_555 1_555
C42 H24 1_555 1_555
C43 C42 1_555 1_555
H25 C43 1_555 1_555
C44 C43 1_555 1_555
C45 C44 1_555 1_555
H26 C45 1_555 1_555
C46 C41 1_555 1_555
H27 C46 1_555 1_555
C47 C4 1_555 1_555
C48 C47 1_555 1_555
H28 C48 1_555 1_555
C49 C48 1_555 1_555
H29 C49 1_555 1_555
C50 C49 1_555 1_555
C51 C50 1_555 1_555
H30 C51 1_555 1_555
C52 C47 1_555 1_555
H31 C52 1_555 1_555
C53 N11 1_555 1_555
C54 C55 1_555 1_555
C55 H32 1_555 1_555
C56 C55 1_555 1_555
H33 C56 1_555 1_555
C57 C56 1_555 1_555
H34 C57 1_555 1_555
C58 C57 1_555 1_555
H35 C58 1_555 1_555
C59 C54 1_555 1_555
C60 N13 1_555 1_555
C61 C62 1_555 1_555
C62 H36 1_555 1_555
C63 C62 1_555 1_555
H37 C63 1_555 1_555
C64 C63 1_555 1_555
C65 C64 1_555 1_555
H38 C65 1_555 1_555
C66 C61 1_555 1_555
H39 C66 1_555 1_555
N1 C10 1_555 1_555
H40 N1 1_555 1_555
N2 C13 1_555 1_555
H41 N2 1_555 1_555
N3 C19 1_555 1_555
H42 N3 1_555 1_555
N4 C20 1_555 1_555
H43 N4 1_555 1_555
N5 C24 1_555 1_555
N6 C31 1_555 1_555
H44 N6 1_555 1_555
N7 C33 1_555 1_555
H45 N7 1_555 1_555
N8 C39 1_555 1_555
H46 N8 1_555 1_555
N9 C40 1_555 1_555
H47 N9 1_555 1_555
N10 C44 1_555 1_555
N11 C50 1_555 1_555
H48 N11 1_555 1_555
N12 C53 1_555 1_555
H49 N12 1_555 1_555
N13 C59 1_555 1_555
H50 N13 1_555 1_555
N14 C60 1_555 1_555
H51 N14 1_555 1_555
N15 C64 1_555 1_555
O1 C13 1_555 1_555
O2 C20 1_555 1_555
O3 N5 1_555 1_555
O4 N5 1_555 1_555
O5 C33 1_555 1_555
O6 C40 1_555 1_555
O7 N10 1_555 1_555
O8 N10 1_555 1_555
O9 C53 1_555 1_555
O10 C60 1_555 1_555
O11 N15 1_555 1_555
O12 N15 1_555 1_555
C67 C68 1_555 1_555
C68 O17 1_555 1_555
C69 C70 1_555 1_555
C70 O18 1_555 1_555
C71 C72 1_555 1_555
C72 O13 1_555 1_555
C73 C74 1_555 1_555
C74 O14 1_555 1_555
C75 C76 1_555 1_555
C76 O15 1_555 1_555
C77 C78 1_555 1_555
C78 O16 1_555 1_555
O13 C73 1_555 1_555
O14 C75 1_555 1_555
O15 C77 1_555 1_555
O16 C67 1_555 1_555
O17 C69 1_555 1_555
O18 C71 1_555 1_555
C79 H52 1_555 1_555
C80 C79 1_555 1_555
C81 C80 1_555 1_555
H53 C81 1_555 1_555
C82 C81 1_555 1_555
C83 C82 1_555 1_555
H54 C83 1_555 1_555
C84 C79 1_555 1_555
C85 C84 1_555 1_555
C86 C85 1_555 1_555
H55 C86 1_555 1_555
C87 C86 1_555 1_555
H56 C87 1_555 1_555
C88 C87 1_555 1_555
C89 C88 1_555 1_555
H57 C89 1_555 1_555
C90 C85 1_555 1_555
H58 C90 1_555 1_555
C91 N16 1_555 1_555
C92 C93 1_555 1_555
C93 H59 1_555 1_555
C94 C93 1_555 1_555
H60 C94 1_555 1_555
C95 C94 1_555 1_555
H61 C95 1_555 1_555
C96 C95 1_555 1_555
H62 C96 1_555 1_555
C97 C92 1_555 1_555
C98 N18 1_555 1_555
C99 C100 1_555 1_555
C100 H63 1_555 1_555
C101 C100 1_555 1_555
H64 C101 1_555 1_555
C102 C101 1_555 1_555
C103 C102 1_555 1_555
H65 C103 1_555 1_555
C104 C99 1_555 1_555
H66 C104 1_555 1_555
C105 C82 1_555 1_555
C106 C105 1_555 1_555
H67 C106 1_555 1_555
C107 C106 1_555 1_555
H68 C107 1_555 1_555
C108 C107 1_555 1_555
C109 C108 1_555 1_555
H69 C109 1_555 1_555
C110 C105 1_555 1_555
H70 C110 1_555 1_555
C111 N21 1_555 1_555
C112 C113 1_555 1_555
C113 H71 1_555 1_555
C114 C113 1_555 1_555
H72 C114 1_555 1_555
C115 C114 1_555 1_555
H73 C115 1_555 1_555
C116 C115 1_555 1_555
H74 C116 1_555 1_555
C117 C112 1_555 1_555
C118 N23 1_555 1_555
C119 C120 1_555 1_555
C120 H75 1_555 1_555
C121 C120 1_555 1_555
H76 C121 1_555 1_555
C122 C121 1_555 1_555
C123 C122 1_555 1_555
H77 C123 1_555 1_555
C124 C119 1_555 1_555
H78 C124 1_555 1_555
C125 C80 1_555 1_555
C126 C125 1_555 1_555
H79 C126 1_555 1_555
C127 C126 1_555 1_555
H80 C127 1_555 1_555
C128 C127 1_555 1_555
C129 C128 1_555 1_555
H81 C129 1_555 1_555
C130 C125 1_555 1_555
H82 C130 1_555 1_555
C131 N26 1_555 1_555
C132 C133 1_555 1_555
C133 C134 1_555 1_555
C134 H83 1_555 1_555
C135 C134 1_555 1_555
H84 C135 1_555 1_555
C136 C135 1_555 1_555
H85 C136 1_555 1_555
C137 C132 1_555 1_555
C138 N28 1_555 1_555
C139 C140 1_555 1_555
C140 H86 1_555 1_555
C141 C140 1_555 1_555
H87 C141 1_555 1_555
C142 C141 1_555 1_555
C143 C142 1_555 1_555
H88 C143 1_555 1_555
C144 C139 1_555 1_555
H89 C144 1_555 1_555
N16 C88 1_555 1_555
H90 N16 1_555 1_555
N17 C91 1_555 1_555
H91 N17 1_555 1_555
N18 C97 1_555 1_555
H92 N18 1_555 1_555
N19 C98 1_555 1_555
H93 N19 1_555 1_555
N20 C102 1_555 1_555
N21 C108 1_555 1_555
H94 N21 1_555 1_555
N22 C111 1_555 1_555
H95 N22 1_555 1_555
N23 C117 1_555 1_555
H96 N23 1_555 1_555
N24 C118 1_555 1_555
H97 N24 1_555 1_555
N25 C122 1_555 1_555
N26 C128 1_555 1_555
H98 N26 1_555 1_555
N27 C131 1_555 1_555
H99 N27 1_555 1_555
N28 C137 1_555 1_555
H100 N28 1_555 1_555
N29 C138 1_555 1_555
H101 N29 1_555 1_555
N30 C142 1_555 1_555
O19 C91 1_555 1_555
O20 C98 1_555 1_555
O21 N20 1_555 1_555
O22 N20 1_555 1_555
O23 C111 1_555 1_555
O24 C118 1_555 1_555
O25 N25 1_555 1_555
O26 N25 1_555 1_555
O27 C131 1_555 1_555
O28 C138 1_555 1_555
O29 N30 1_555 1_555
O30 N30 1_555 1_555
C145 H102 1_555 1_555
C146 C145 1_555 1_555
C147 C146 1_555 1_555
H103 C147 1_555 1_555
C148 C147 1_555 1_555
C149 C148 1_555 1_555
H104 C149 1_555 1_555
C150 C145 1_555 1_555
C151 C150 1_555 1_555
C152 C151 1_555 1_555
H105 C152 1_555 1_555
C153 C152 1_555 1_555
H106 C153 1_555 1_555
C154 C153 1_555 1_555
C155 C154 1_555 1_555
H107 C155 1_555 1_555
C156 C151 1_555 1_555
H108 C156 1_555 1_555
C157 N31 1_555 1_555
C158 C159 1_555 1_555
C159 H109 1_555 1_555
C160 C159 1_555 1_555
H110 C160 1_555 1_555
C161 C160 1_555 1_555
H111 C161 1_555 1_555
C162 C161 1_555 1_555
H112 C162 1_555 1_555
C163 C158 1_555 1_555
C164 N33 1_555 1_555
C165 C166 1_555 1_555
C166 H113 1_555 1_555
C167 C166 1_555 1_555
H114 C167 1_555 1_555
C168 C167 1_555 1_555
C169 C168 1_555 1_555
H115 C169 1_555 1_555
C170 C165 1_555 1_555
H116 C170 1_555 1_555
C171 H117 1_555 1_555
C172 C146 1_555 1_555
C173 C171 1_555 1_555
H118 C173 1_555 1_555
C174 C173 1_555 1_555
C175 C174 1_555 1_555
H119 C175 1_555 1_555
C176 C172 1_555 1_555
H120 C176 1_555 1_555
C177 N36 1_555 1_555
C178 C179 1_555 1_555
C179 H121 1_555 1_555
C180 C179 1_555 1_555
H122 C180 1_555 1_555
C181 C180 1_555 1_555
H123 C181 1_555 1_555
C182 C181 1_555 1_555
H124 C182 1_555 1_555
C183 C178 1_555 1_555
C184 N38 1_555 1_555
C185 C186 1_555 1_555
C186 H125 1_555 1_555
C187 C186 1_555 1_555
H126 C187 1_555 1_555
C188 H127 1_555 1_555
C189 C185 1_555 1_555
H128 C189 1_555 1_555
C190 C187 1_555 1_555
C191 C148 1_555 1_555
C192 C191 1_555 1_555
H129 C192 1_555 1_555
C193 C192 1_555 1_555
H130 C193 1_555 1_555
C194 C193 1_555 1_555
C195 C194 1_555 1_555
H131 C195 1_555 1_555
C196 C191 1_555 1_555
H132 C196 1_555 1_555
C197 N41 1_555 1_555
C198 C199 1_555 1_555
C199 H133 1_555 1_555
C200 C199 1_555 1_555
H134 C200 1_555 1_555
C201 C200 1_555 1_555
H135 C201 1_555 1_555
C202 C201 1_555 1_555
H136 C202 1_555 1_555
C203 C198 1_555 1_555
C204 N43 1_555 1_555
C205 C206 1_555 1_555
C206 H137 1_555 1_555
C207 C206 1_555 1_555
H138 C207 1_555 1_555
C208 C207 1_555 1_555
C209 C205 1_555 1_555
H139 C209 1_555 1_555
C210 C208 1_555 1_555
H140 C210 1_555 1_555
N31 C154 1_555 1_555
H141 N31 1_555 1_555
N32 C157 1_555 1_555
H142 N32 1_555 1_555
N33 C163 1_555 1_555
H143 N33 1_555 1_555
N34 C164 1_555 1_555
H144 N34 1_555 1_555
N35 C168 1_555 1_555
N36 C174 1_555 1_555
H145 N36 1_555 1_555
N37 C177 1_555 1_555
H146 N37 1_555 1_555
N38 C183 1_555 1_555
H147 N38 1_555 1_555
N39 C184 1_555 1_555
H148 N39 1_555 1_555
N40 C190 1_555 1_555
N41 C194 1_555 1_555
H149 N41 1_555 1_555
N42 C197 1_555 1_555
H150 N42 1_555 1_555
N43 C203 1_555 1_555
H151 N43 1_555 1_555
N44 C204 1_555 1_555
H152 N44 1_555 1_555
N45 C208 1_555 1_555
O31 C157 1_555 1_555
O32 C164 1_555 1_555
O33 N35 1_555 1_555
O34 N35 1_555 1_555
O35 C177 1_555 1_555
O36 C184 1_555 1_555
O37 N40 1_555 1_555
O38 N40 1_555 1_555
O39 C197 1_555 1_555
O40 C204 1_555 1_555
O41 N45 1_555 1_555
O42 N45 1_555 1_555
C211 C212 1_555 1_555
C212 O46 1_555 1_555
C213 C214 1_555 1_555
C214 O47 1_555 1_555
C215 C216 1_555 1_555
C216 O48 1_555 1_555
C217 C218 1_555 1_555
C218 O43 1_555 1_555
C219 C220 1_555 1_555
C220 O44 1_555 1_555
C221 C222 1_555 1_555
C222 O45 1_555 1_555
O43 C219 1_555 1_555
O44 C221 1_555 1_555
O45 C211 1_555 1_555
O46 C213 1_555 1_555
O47 C215 1_555 1_555
O48 C217 1_555 1_555
C223 C224 1_555 1_555
C224 O50 1_555 1_555
C225 C226 1_555 1_555
C226 O54 1_555 1_555
C227 C228 1_555 1_555
C228 O51 1_555 1_555
C229 C230 1_555 1_555
C230 O52 1_555 1_555
C231 C232 1_555 1_555
C232 O53 1_555 1_555
C233 C234 1_555 1_555
C234 O49 1_555 1_555
O49 C223 1_555 1_555
O50 C225 1_555 1_555
O51 C229 1_555 1_555
O52 C231 1_555 1_555
O53 C233 1_555 1_555
O54 C227 1_555 1_555
C235 H153 1_555 1_555
C236 C235 1_555 1_555
C237 C236 1_555 1_555
H154 C237 1_555 1_555
C238 C237 1_555 1_555
C239 C238 1_555 1_555
H155 C239 1_555 1_555
C240 C235 1_555 1_555
C241 C240 1_555 1_555
C242 C241 1_555 1_555
H156 C242 1_555 1_555
C243 C242 1_555 1_555
H157 C243 1_555 1_555
C244 H158 1_555 1_555
C245 C243 1_555 1_555
C246 C241 1_555 1_555
H159 C246 1_555 1_555
C247 N46 1_555 1_555
C248 C249 1_555 1_555
C249 H160 1_555 1_555
C250 C249 1_555 1_555
H161 C250 1_555 1_555
C251 C250 1_555 1_555
H162 C251 1_555 1_555
C252 C251 1_555 1_555
H163 C252 1_555 1_555
C253 C248 1_555 1_555
C254 N48 1_555 1_555
C255 C256 1_555 1_555
C256 H164 1_555 1_555
C257 C256 1_555 1_555
H165 C257 1_555 1_555
C258 C257 1_555 1_555
C259 C258 1_555 1_555
H166 C259 1_555 1_555
C260 C255 1_555 1_555
H167 C260 1_555 1_555
C261 C236 1_555 1_555
C262 H168 1_555 1_555
C263 C261 1_555 1_555
H169 C263 1_555 1_555
C264 C262 1_555 1_555
C265 C264 1_555 1_555
H170 C265 1_555 1_555
C266 C261 1_555 1_555
H171 C266 1_555 1_555
C267 N51 1_555 1_555
C268 C269 1_555 1_555
C269 H172 1_555 1_555
C270 C269 1_555 1_555
H173 C270 1_555 1_555
C271 C270 1_555 1_555
H174 C271 1_555 1_555
C272 C271 1_555 1_555
H175 C272 1_555 1_555
C273 C268 1_555 1_555
C274 N53 1_555 1_555
C275 C276 1_555 1_555
C276 H176 1_555 1_555
C277 C276 1_555 1_555
H177 C277 1_555 1_555
C278 C277 1_555 1_555
C279 C278 1_555 1_555
H178 C279 1_555 1_555
C280 C275 1_555 1_555
H179 C280 1_555 1_555
C281 C238 1_555 1_555
C282 C281 1_555 1_555
H180 C282 1_555 1_555
C283 C282 1_555 1_555
H181 C283 1_555 1_555
C284 C283 1_555 1_555
C285 C284 1_555 1_555
H182 C285 1_555 1_555
C286 C281 1_555 1_555
H183 C286 1_555 1_555
C287 N56 1_555 1_555
C288 C289 1_555 1_555
C289 H184 1_555 1_555
C290 C289 1_555 1_555
H185 C290 1_555 1_555
C291 C290 1_555 1_555
H186 C291 1_555 1_555
C292 C291 1_555 1_555
H187 C292 1_555 1_555
C293 C288 1_555 1_555
C294 N58 1_555 1_555
C295 C296 1_555 1_555
C296 H188 1_555 1_555
C297 C296 1_555 1_555
H189 C297 1_555 1_555
C298 C297 1_555 1_555
C299 C298 1_555 1_555
H190 C299 1_555 1_555
C300 C295 1_555 1_555
H191 C300 1_555 1_555
N46 C245 1_555 1_555
H192 N46 1_555 1_555
N47 C247 1_555 1_555
H193 N47 1_555 1_555
N48 C253 1_555 1_555
H194 N48 1_555 1_555
N49 C254 1_555 1_555
H195 N49 1_555 1_555
N50 C258 1_555 1_555
N51 C264 1_555 1_555
H196 N51 1_555 1_555
N52 C267 1_555 1_555
H197 N52 1_555 1_555
N53 C273 1_555 1_555
H198 N53 1_555 1_555
N54 C274 1_555 1_555
H199 N54 1_555 1_555
N55 C278 1_555 1_555
N56 C284 1_555 1_555
H200 N56 1_555 1_555
N57 C287 1_555 1_555
H201 N57 1_555 1_555
N58 C293 1_555 1_555
H202 N58 1_555 1_555
N59 C294 1_555 1_555
H203 N59 1_555 1_555
N60 C298 1_555 1_555
O55 C247 1_555 1_555
O56 C254 1_555 1_555
O57 N50 1_555 1_555
O58 N50 1_555 1_555
O59 C267 1_555 1_555
O60 C274 1_555 1_555
O61 N55 1_555 1_555
O62 N55 1_555 1_555
O63 C287 1_555 1_555
O64 C294 1_555 1_555
O65 N60 1_555 1_555
O66 N60 1_555 1_555
C301 C302 1_555 1_555
C302 O68 1_555 1_555
C303 C304 1_555 1_555
C304 O69 1_555 1_555
C305 C306 1_555 1_555
C306 O70 1_555 1_555
C307 C308 1_555 1_555
C308 O71 1_555 1_555
C309 C310 1_555 1_555
C310 O72 1_555 1_555
C311 C312 1_555 1_555
C312 O67 1_555 1_555
O67 C301 1_555 1_555
O68 C303 1_555 1_555
O69 C305 1_555 1_555
O70 C307 1_555 1_555
O71 C309 1_555 1_555
O72 C311 1_555 1_555
O73 P1 1_555 1_555
O74 P1 1_555 1_555
O75 P1 1_555 1_555
O76 P1 1_555 1_555
O77 P2 1_555 1_555
O78 P2 1_555 1_555
O79 P2 1_555 1_555
O80 P2 1_555 1_555
O81 P3 1_555 1_555
O82 P3 1_555 1_555
O83 P3 1_555 1_555
O84 P3 1_555 1_555
O85 P4 1_555 1_555
O86 P4 1_555 1_555
O87 P4 1_555 1_555
O88 P4 1_555 1_555
F1 C313 1_555 1_555
C313 H204 1_555 1_555
Cl1 C313 1_555 1_555
F2 C313 1_555 1_555
C5 C6 1_555 1_555
C11 C12 1_555 1_555
C14 N2 1_555 1_555
C18 C19 1_555 1_555
C21 N4 1_555 1_555
C25 C26 1_555 1_555
C30 C31 1_555 1_555
C30 C32 1_555 1_555
C34 N7 1_555 1_555
C38 C39 1_555 1_555
C41 N9 1_555 1_555
C45 C46 1_555 1_555
C51 C52 1_555 1_555
C54 N12 1_555 1_555
C58 C59 1_555 1_555
C61 N14 1_555 1_555
C65 C66 1_555 1_555
C83 C84 1_555 1_555
C89 C90 1_555 1_555
C92 N17 1_555 1_555
C96 C97 1_555 1_555
C99 N19 1_555 1_555
C103 C104 1_555 1_555
C109 C110 1_555 1_555
C112 N22 1_555 1_555
C116 C117 1_555 1_555
C119 N24 1_555 1_555
C123 C124 1_555 1_555
C129 C130 1_555 1_555
C132 N27 1_555 1_555
C136 C137 1_555 1_555
C139 N29 1_555 1_555
C143 C144 1_555 1_555
C149 C150 1_555 1_555
C155 C156 1_555 1_555
C158 N32 1_555 1_555
C162 C163 1_555 1_555
C165 N34 1_555 1_555
C169 C170 1_555 1_555
C171 C172 1_555 1_555
C175 C176 1_555 1_555
C178 N37 1_555 1_555
C182 C183 1_555 1_555
C185 N39 1_555 1_555
C188 C189 1_555 1_555
C188 C190 1_555 1_555
C195 C196 1_555 1_555
C198 N42 1_555 1_555
C202 C203 1_555 1_555
C205 N44 1_555 1_555
C209 C210 1_555 1_555
C239 C240 1_555 1_555
C244 C245 1_555 1_555
C244 C246 1_555 1_555
C248 N47 1_555 1_555
C252 C253 1_555 1_555
C255 N49 1_555 1_555
C259 C260 1_555 1_555
C262 C263 1_555 1_555
C265 C266 1_555 1_555
C268 N52 1_555 1_555
C272 C273 1_555 1_555
C275 N54 1_555 1_555
C279 C280 1_555 1_555
C285 C286 1_555 1_555
C288 N57 1_555 1_555
C292 C293 1_555 1_555
C295 N59 1_555 1_555
C299 C300 1_555 1_555

#END
