
#######################################################################
#
#                 Cambridge Crystallographic Data Centre
#                                CCDC 
#
#######################################################################
#
# If this CIF has been generated from an entry in the Cambridge 
# Structural Database, then it will include bibliographic, chemical, 
# crystal, experimental, refinement or atomic coordinate data resulting 
# from the CCDC's data processing and validation procedures.
#
#######################################################################

data_VULYUY
_chemical_formula_moiety         
'4(C66 H51 N15 O12),12(K1 1+),12(C12 H24 O6),4(O4 P1 3-),C2 H3 F3,C2 H3 N1'
_chemical_name_systematic        
'tetrakis(1,3,5-tris(4-(3-(2-(3-(4-Nitrophenyl)ureido)phenyl)ureido)phenyl)benzene) dodeca-potassium dodecakis(18-crown-6) tetrakis(phosphate) acetonitrile 1,1,1-trifluoroethane solvate'
_symmetry_cell_setting           monoclinic
_symmetry_space_group_name_H-M   'C c'
_symmetry_Int_Tables_number      9
_space_group_name_Hall           'C -2yc'
loop_
_symmetry_equiv_pos_site_id
_symmetry_equiv_pos_as_xyz
1 x,y,z
2 x,-y,1/2+z
3 1/2+x,1/2+y,z
4 1/2+x,1/2-y,1/2+z
_cell_length_a                   47.4914(7)
_cell_length_b                   23.9662(4)
_cell_length_c                   47.9409(8)
_cell_angle_alpha                90
_cell_angle_beta                 101.7420(10)
_cell_angle_gamma                90
_cell_volume                     53423.9
_exptl_crystal_colour            yellow
_exptl_crystal_description       block
_cell_formula_units_Z            4
loop_
_atom_site_label
_atom_site_type_symbol
_atom_site_fract_x
_atom_site_fract_y
_atom_site_fract_z
C1 C 0.11684(19) 0.3973(4) 0.75582(19)
C2 C 0.13080(18) 0.3590(4) 0.77529(19)
H1 H 0.1311 0.3635 0.7946
C3 C 0.14454(19) 0.3132(4) 0.76563(18)
C4 C 0.1435(2) 0.3057(4) 0.7369(2)
H2 H 0.1522 0.2749 0.7305
C5 C 0.1293(2) 0.3444(4) 0.7182(2)
C6 C 0.1161(2) 0.3894(4) 0.7263(2)
H3 H 0.1068 0.4149 0.7129
C7 C 0.1251(2) 0.3805(5) 0.6691(2)
H4 H 0.1252 0.4162 0.6767
C8 C 0.1270(2) 0.3362(4) 0.6861(2)
C9 C 0.1255(2) 0.2821(4) 0.6743(2)
H5 H 0.1266 0.2508 0.6859
C10 C 0.1223(2) 0.2762(5) 0.6448(2)
H6 H 0.1206 0.2406 0.6369
C11 C 0.12178(19) 0.3229(4) 0.62694(19)
C12 C 0.1230(2) 0.3732(5) 0.6389(2)
H7 H 0.1225 0.4047 0.6274
C13 C 0.1078(2) 0.3448(4) 0.5765(2)
C14 C 0.09944(19) 0.3499(4) 0.52408(15)
C15 C 0.11142(17) 0.3379(4) 0.50062(19)
C16 C 0.0994(2) 0.3601(4) 0.47411(16)
H8 H 0.1074 0.3521 0.4584
C17 C 0.0753(2) 0.3944(5) 0.47106(18)
H9 H 0.0673 0.4093 0.4533
C18 C 0.0634(2) 0.4065(4) 0.4945(2)
H10 H 0.0473 0.4294 0.4925
C19 C 0.0754(2) 0.3842(4) 0.52103(19)
H11 H 0.0674 0.3923 0.5367
C20 C 0.1549(4) 0.3069(7) 0.4879(4)
C21 C 0.19946(18) 0.2556(4) 0.48193(19)
C22 C 0.2184(2) 0.2133(4) 0.49328(16)
H12 H 0.2169 0.1966 0.5104
C23 C 0.23948(18) 0.1958(4) 0.47898(19)
H13 H 0.2521 0.1675 0.4866
C24 C 0.24172(18) 0.2207(4) 0.45333(19)
C25 C 0.2228(2) 0.2630(4) 0.44198(17)
H14 H 0.2243 0.2797 0.4248
C26 C 0.2017(2) 0.2805(4) 0.4563(2)
H15 H 0.1891 0.3088 0.4487
C27 C 0.1585(2) 0.2706(4) 0.7865(2)
C28 C 0.1717(3) 0.2842(5) 0.8145(3)
H16 H 0.1715 0.3214 0.8200
C29 C 0.1844(2) 0.2476(5) 0.8337(2)
H17 H 0.1937 0.2595 0.8517
C30 C 0.18360(19) 0.1887(4) 0.82648(18)
C31 C 0.1744(2) 0.1777(5) 0.7984(2)
H18 H 0.1759 0.1415 0.7919
C32 C 0.1632(2) 0.2179(4) 0.7795(2)
H19 H 0.1584 0.2081 0.7604
C33 C 0.2053(2) 0.0987(4) 0.8440(2)
C34 C 0.22603(19) 0.0144(4) 0.87037(18)
C35 C 0.2196(3) -0.0236(5) 0.8499(3)
H20 H 0.2070 -0.0133 0.8332
C36 C 0.2306(3) -0.0781(6) 0.8516(3)
H21 H 0.2245 -0.1052 0.8378
C37 C 0.2510(3) -0.0874(6) 0.8755(3)
H22 H 0.2598 -0.1222 0.8773
C38 C 0.2600(2) -0.0494(4) 0.8976(2)
H23 H 0.2740 -0.0588 0.9134
C39 C 0.2469(2) 0.0037(4) 0.89489(19)
C40 C 0.28020(18) 0.0503(4) 0.93466(18)
C41 C 0.30391(19) 0.1062(4) 0.97484(19)
C42 C 0.3326(2) 0.0947(5) 0.9734(2)
H24 H 0.3367 0.0729 0.9586
C43 C 0.3541(2) 0.1150(5) 0.9932(2)
H25 H 0.3730 0.1070 0.9920
C44 C 0.3491(2) 0.1471(5) 1.0151(2)
C45 C 0.3210(2) 0.1591(5) 1.0176(2)
H26 H 0.3173 0.1800 1.0328
C46 C 0.2990(2) 0.1390(4) 0.9969(2)
H27 H 0.2802 0.1480 0.9978
C47 C 0.10035(19) 0.4463(4) 0.76520(19)
C48 C 0.08838(19) 0.4434(4) 0.78959(19)
H28 H 0.0907 0.4114 0.8007
C49 C 0.0731(2) 0.4883(4) 0.7971(2)
H29 H 0.0660 0.4859 0.8138
C50 C 0.0678(2) 0.5363(4) 0.7811(2)
C51 C 0.0810(2) 0.5384(4) 0.7558(2)
H30 H 0.0788 0.5702 0.7444
C52 C 0.0963(2) 0.4951(4) 0.7489(2)
H31 H 0.1043 0.4977 0.7328
C53 C 0.0484(2) 0.5946(5) 0.8121(2)
C54 C 0.0238(2) 0.6653(5) 0.8383(2)
C55 C 0.0273(3) 0.6372(7) 0.8640(3)
H32 H 0.0350 0.6014 0.8658
C56 C 0.0187(4) 0.6650(7) 0.8881(4)
H33 H 0.0200 0.6454 0.9051
C57 C 0.0092(3) 0.7156(6) 0.8867(3)
H34 H 0.0055 0.7332 0.9028
C58 C 0.0047(2) 0.7437(5) 0.8605(2)
H35 H -0.0040 0.7787 0.8590
C59 C 0.0130(2) 0.7205(5) 0.8363(2)
C60 C 0.0157(2) 0.8090(5) 0.8099(2)
C61 C 0.01994(17) 0.8825(3) 0.77624(15)
C62 C 0.0215(2) 0.9278(4) 0.79457(14)
H36 H 0.0183 0.9228 0.8129
C63 C 0.0276(2) 0.9807(3) 0.7855(2)
H37 H 0.0287 1.0110 0.7977
C64 C 0.0323(2) 0.9881(3) 0.7580(2)
C65 C 0.0308(2) 0.9428(4) 0.73967(16)
H38 H 0.0339 0.9478 0.7213
C66 C 0.02461(19) 0.8900(3) 0.74879(14)
H39 H 0.0236 0.8597 0.7365
N1 N 0.12177(17) 0.3117(3) 0.59831(17)
H40 H 0.1309 0.2827 0.5942
N2 N 0.11275(19) 0.3271(4) 0.55123(18)
H41 H 0.1247 0.3001 0.5514
N3 N 0.1360(2) 0.3032(4) 0.5046(2)
H42 H 0.1387 0.2791 0.5182
N4 N 0.1781(2) 0.2682(4) 0.4981(2)
H43 H 0.1791 0.2524 0.5144
N5 N 0.2619(3) 0.2017(7) 0.4379(3)
N6 N 0.19421(16) 0.1511(3) 0.84804(17)
H44 H 0.1939 0.1609 0.8652
N7 N 0.21315(15) 0.0695(3) 0.86871(16)
H45 H 0.2103 0.0846 0.8842
N8 N 0.25352(15) 0.0428(3) 0.91681(15)
H46 H 0.2398 0.0643 0.9195
N9 N 0.28040(17) 0.0906(3) 0.95392(16)
H47 H 0.2646 0.1086 0.9533
N10 N 0.3725(2) 0.1714(4) 1.0367(2)
N11 N 0.05037(18) 0.5809(3) 0.78600(18)
H48 H 0.0409 0.5996 0.7718
N12 N 0.03089(19) 0.6410(4) 0.81378(19)
H49 H 0.0235 0.6567 0.7978
N13 N 0.01110(18) 0.7519(4) 0.81170(18)
H50 H 0.0066 0.7342 0.7958
N14 N 0.01547(17) 0.8268(4) 0.78303(17)
H51 H 0.0125 0.8027 0.7695
N15 N 0.0356(4) 1.0439(9) 0.7445(5)
O1 O 0.09508(19) 0.3876(4) 0.58009(18)
O2 O 0.1563(2) 0.3403(4) 0.4692(2)
O3 O 0.2654(3) 0.2273(6) 0.4171(3)
O4 O 0.2748(3) 0.1613(5) 0.4463(2)
O5 O 0.20917(15) 0.0825(3) 0.82071(15)
O6 O 0.30097(15) 0.0198(3) 0.93283(14)
O7 O 0.3978(2) 0.1668(4) 1.0311(2)
O8 O 0.3674(2) 0.1919(4) 1.0580(2)
O9 O 0.06304(16) 0.5747(3) 0.83526(16)
O10 O 0.02080(17) 0.8384(3) 0.83069(17)
O11 O 0.0311(4) 1.0491(7) 0.7214(4)
O12 O 0.0393(4) 1.0790(8) 0.7647(4)
K1 K 0.08214(10) 0.12248(19) 0.78795(10)
K2 K 0.10384(11) 0.1444(2) 0.78232(11)
C67 C 0.0421(5) 0.0848(11) 0.8833(6)
C68 C 0.0484(5) 0.0752(11) 0.8562(6)
N16 N 0.0486(5) 0.0918(9) 0.8318(5)
C69 C 1.1757(2) 0.5612(4) 0.8074(2)
C70 C 1.2038(2) 0.5693(5) 0.8044(2)
H52 H 1.2086 0.6007 0.7950
C71 C 1.2262(2) 0.5282(4) 0.8162(2)
C72 C 1.2185(2) 0.4836(4) 0.8306(2)
H53 H 1.2322 0.4565 0.8373
C73 C 1.1901(2) 0.4770(4) 0.8358(2)
C74 C 1.1689(2) 0.5158(4) 0.8227(2)
H54 H 1.1500 0.5107 0.8245
C75 C 1.1541(2) 0.6016(4) 0.79408(19)
C76 C 1.1555(3) 0.6259(5) 0.7682(2)
H55 H 1.1703 0.6154 0.7592
C77 C 1.1356(3) 0.6657(5) 0.7549(3)
H56 H 1.1384 0.6837 0.7384
C78 C 1.11197(19) 0.6777(4) 0.76640(19)
C79 C 1.11048(19) 0.6518(4) 0.79218(19)
H57 H 1.0952 0.6607 0.8008
C80 C 1.13033(17) 0.6140(3) 0.80533(18)
H58 H 1.1278 0.5965 0.8220
C81 C 1.0935(2) 0.7568(4) 0.73695(19)
C82 C 1.0674(2) 0.8320(4) 0.7075(2)
C83 C 1.0896(2) 0.8702(5) 0.7103(2)
H59 H 1.1058 0.8658 0.7247
C84 C 1.0877(2) 0.9142(5) 0.6920(2)
H60 H 1.1026 0.9401 0.6941
C85 C 1.0643(2) 0.9200(5) 0.6710(2)
H61 H 1.0631 0.9498 0.6584
C86 C 1.0424(2) 0.8826(5) 0.6681(2)
H62 H 1.0265 0.8875 0.6534
C87 C 1.0427(2) 0.8385(4) 0.6857(2)
C88 C 0.9997(3) 0.7848(6) 0.6594(3)
C89 C 0.9590(2) 0.7249(5) 0.6421(2)
C90 C 0.9593(2) 0.7286(5) 0.6133(3)
H63 H 0.9748 0.7452 0.6073
C91 C 0.9365(3) 0.7073(6) 0.59323(18)
H64 H 0.9367 0.7098 0.5739
C92 C 0.9134(2) 0.6825(5) 0.6021(2)
C93 C 0.9131(2) 0.6788(5) 0.6310(3)
H65 H 0.8976 0.6621 0.6369
C94 C 0.9359(2) 0.7000(5) 0.65098(19)
H66 H 0.9357 0.6976 0.6703
C95 C 1.18183(19) 0.4282(4) 0.85172(19)
C96 C 1.2024(2) 0.3954(5) 0.8680(2)
H67 H 1.2218 0.4024 0.8686
C97 C 1.1942(3) 0.3518(5) 0.8834(2)
H68 H 1.2087 0.3312 0.8949
C98 C 1.1668(2) 0.3370(4) 0.88307(19)
C99 C 1.1467(2) 0.3731(4) 0.8676(2)
H69 H 1.1274 0.3683 0.8680
C100 C 1.1548(2) 0.4162(4) 0.8516(2)
H70 H 1.1405 0.4375 0.8404
C101 C 1.1352(2) 0.2819(4) 0.9059(2)
C102 C 1.1111(2) 0.2153(4) 0.9327(2)
C103 C 1.0906(2) 0.2501(5) 0.9394(2)
H71 H 1.0925 0.2886 0.9379
C104 C 1.0662(3) 0.2274(5) 0.9484(2)
H72 H 1.0513 0.2504 0.9514
C105 C 1.0651(2) 0.1707(4) 0.9528(2)
H73 H 1.0498 0.1557 0.9598
C106 C 1.08599(19) 0.1365(4) 0.94695(18)
H74 H 1.0846 0.0982 0.9496
C107 C 1.10875(17) 0.1572(3) 0.93744(17)
C108 C 1.12976(19) 0.0667(4) 0.92534(18)
C109 C 1.1593(2) -0.0106(4) 0.9155(2)
C110 C 1.1874(2) -0.0288(4) 0.9192(2)
H75 H 1.2023 -0.0051 0.9273
C111 C 1.1933(3) -0.0824(5) 0.9111(3)
H76 H 1.2123 -0.0935 0.9130
C112 C 1.1715(2) -0.1197(5) 0.9002(2)
C113 C 1.1436(3) -0.0998(5) 0.8946(3)
H77 H 1.1288 -0.1229 0.8854
C114 C 1.1372(2) -0.0458(5) 0.9023(2)
H78 H 1.1182 -0.0333 0.8986
C115 C 1.2562(2) 0.5348(5) 0.8111(2)
C116 C 1.2627(2) 0.5660(4) 0.78800(19)
H79 H 1.2475 0.5794 0.7742
C117 C 1.2896(2) 0.5769(4) 0.7852(2)
H80 H 1.2930 0.5974 0.7697
C118 C 1.3126(2) 0.5568(4) 0.8060(2)
C119 C 1.3073(2) 0.5245(4) 0.8284(2)
H81 H 1.3224 0.5102 0.8421
C120 C 1.2782(2) 0.5138(4) 0.8301(2)
H82 H 1.2743 0.4916 0.8448
C121 C 1.3651(2) 0.5400(4) 0.8129(2)
C122 C 1.4181(2) 0.5470(5) 0.8176(2)
C123 C 1.4251(3) 0.5113(5) 0.8407(2)
H83 H 1.4104 0.4995 0.8496
C124 C 1.4529(3) 0.4921(6) 0.8514(3)
H84 H 1.4572 0.4675 0.8667
C125 C 1.4737(3) 0.5128(5) 0.8373(3)
H85 H 1.4925 0.5001 0.8431
C126 C 1.4680(3) 0.5516(6) 0.8149(3)
H86 H 1.4829 0.5663 0.8073
C127 C 1.4399(2) 0.5676(5) 0.8042(2)
C128 C 1.4483(3) 0.6130(6) 0.7630(3)
C129 C 1.4490(3) 0.6718(5) 0.7208(2)
C130 C 1.4304(2) 0.6892(6) 0.6961(3)
H87 H 1.4106 0.6879 0.6949
C131 C 1.4414(3) 0.7086(6) 0.6732(2)
H88 H 1.4289 0.7203 0.6566
C132 C 1.4709(3) 0.7106(6) 0.6749(2)
C133 C 1.4895(2) 0.6932(5) 0.6997(3)
H89 H 1.5093 0.6945 0.7009
C134 C 1.4785(2) 0.6737(5) 0.7226(2)
H90 H 1.4910 0.6621 0.7392
N17 N 1.08944(16) 0.7133(3) 0.75311(15)
H91 H 1.0723 0.7067 0.7555
N18 N 1.06891(18) 0.7845(3) 0.72521(17)
H92 H 1.0531 0.7721 0.7289
N19 N 1.0202(2) 0.7992(4) 0.6836(2)
H93 H 1.0188 0.7821 0.6991
N20 N 0.9797(2) 0.7448(4) 0.6631(2)
H94 H 0.9805 0.7320 0.6800
N21 N 0.8877(5) 0.6506(9) 0.5798(5)
N22 N 1.16051(14) 0.2916(3) 0.89804(14)
H95 H 1.1738 0.2671 0.9029
N23 N 1.13543(16) 0.2355(3) 0.92358(15)
H96 H 1.1515 0.2183 0.9292
N24 N 1.13166(15) 0.1223(3) 0.93267(14)
H97 H 1.1483 0.1376 0.9346
N25 N 1.15510(15) 0.0438(3) 0.92288(15)
H98 H 1.1700 0.0652 0.9262
N26 N 1.1792(3) -0.1741(6) 0.8909(3)
N27 N 1.34051(17) 0.5723(3) 0.80256(16)
H99 H 1.3425 0.6029 0.7938
N28 N 1.38940(17) 0.5651(3) 0.80730(16)
H100 H 1.3870 0.5944 0.7967
N29 N 1.4329(2) 0.6055(4) 0.78204(18)
H101 H 1.4175 0.6250 0.7809
N30 N 1.4342(3) 0.6443(5) 0.7400(3)
H102 H 1.4158 0.6473 0.7373
N31 N 1.4841(6) 0.7500(11) 0.6534(6)
O13 O 1.11788(16) 0.7724(3) 0.73296(16)
O14 O 0.9993(2) 0.8108(5) 0.6369(2)
O15 O 0.8909(4) 0.6670(9) 0.5566(5)
O16 O 0.8709(5) 0.6290(10) 0.5936(5)
O17 O 1.11341(17) 0.3116(3) 0.89868(17)
O18 O 1.10677(14) 0.0417(3) 0.92222(13)
O19 O 1.1578(3) -0.2083(5) 0.8852(2)
O20 O 1.2025(2) -0.1862(4) 0.8890(2)
O21 O 1.36402(16) 0.4947(3) 0.82397(16)
O22 O 1.4691(3) 0.5824(5) 0.7583(2)
O23 O 1.5093(3) 0.7276(5) 0.6534(2)
O24 O 1.4658(4) 0.7496(7) 0.6300(4)
K3 K 1.08699(6) -0.04603(11) 0.94762(6)
C135 C 1.1166(4) -0.1849(8) 0.9520(4)
C136 C 1.0841(3) -0.1912(7) 0.9355(3)
C137 C 1.0556(5) -0.1453(9) 0.8953(4)
C138 C 1.0306(5) -0.1300(10) 0.9012(5)
C139 C 1.0116(5) -0.0700(9) 0.9241(5)
C140 C 1.0107(3) -0.0166(7) 0.9417(3)
C141 C 1.0356(3) 0.0321(6) 0.9780(3)
C142 C 1.0625(3) 0.0324(6) 1.0047(3)
C143 C 1.1127(3) 0.0222(5) 1.0156(3)
C144 C 1.1394(3) 0.0215(6) 0.9998(3)
C145 C 1.1466(3) -0.0756(5) 1.0018(3)
C146 C 1.1482(3) -0.1273(6) 0.9825(3)
O25 O 1.1190(2) -0.1363(4) 0.96781(19)
O26 O 1.0803(2) -0.1413(4) 0.9153(2)
O27 O 1.0329(3) -0.0726(6) 0.9134(3)
O28 O 1.0340(2) -0.0158(4) 0.9639(2)
O29 O 1.08752(18) 0.0247(4) 0.99294(18)
O30 O 1.13918(17) -0.0301(3) 0.98474(16)
C147 C 1.1128(5) 0.6772(9) 0.8904(5)
C148 C 1.1057(6) 0.7162(11) 0.8649(6)
C149 C 1.0956(7) 0.7930(16) 0.8310(8)
C150 C 1.1007(5) 0.8266(10) 0.8173(5)
C151 C 1.1389(5) 0.8421(10) 0.7994(5)
C152 C 1.1673(6) 0.8205(11) 0.7881(6)
C153 C 1.2073(5) 0.7729(9) 0.8043(5)
C154 C 1.2281(4) 0.7378(9) 0.8279(4)
C155 C 1.2334(4) 0.6725(8) 0.8619(4)
C156 C 1.2161(4) 0.6203(7) 0.8757(4)
C157 C 1.1801(5) 0.5991(10) 0.8938(5)
C158 C 1.1532(6) 0.6294(12) 0.9034(6)
O31 O 1.1333(4) 0.6484(7) 0.8817(4)
O32 O 1.0924(5) 0.7503(12) 0.8466(6)
O33 O 1.1252(5) 0.8021(9) 0.8081(5)
O34 O 1.1866(3) 0.7927(5) 0.8130(3)
O35 O 1.2168(2) 0.6965(5) 0.8406(2)
O36 O 1.1937(3) 0.6462(7) 0.8828(3)
K4 K 1.15975(9) 0.71293(18) 0.84645(9)
K5 K 1.50068(11) 0.6575(2) 0.60950(11)
K6 K 1.15654(13) 0.7289(2) 0.83819(12)
C159 C 1.1685(2) 0.6043(4) 0.6864(2)
H103 H 1.1631 0.6324 0.6976
C160 C 1.1466(2) 0.5689(4) 0.6711(2)
C161 C 1.1553(2) 0.5253(5) 0.6566(2)
H104 H 1.1419 0.5005 0.6465
C162 C 1.1854(3) 0.5182(5) 0.6570(3)
C163 C 1.2044(2) 0.5525(4) 0.6699(2)
H105 H 1.2236 0.5465 0.6689
C164 C 1.1977(2) 0.5988(4) 0.6854(2)
C165 C 1.2200(2) 0.6342(4) 0.7025(2)
C166 C 1.2475(2) 0.6385(4) 0.6966(2)
H106 H 1.2513 0.6208 0.6805
C167 C 1.2693(2) 0.6682(4) 0.71390(19)
H107 H 1.2871 0.6712 0.7089
C168 C 1.2646(2) 0.6941(4) 0.7390(2)
C169 C 1.2371(2) 0.6927(4) 0.7443(2)
H108 H 1.2330 0.7122 0.7598
C170 C 1.2154(2) 0.6623(4) 0.7266(2)
H109 H 1.1972 0.6608 0.7310
C171 C 1.2857(2) 0.7661(4) 0.7727(2)
C172 C 1.3160(3) 0.8315(5) 0.8038(2)
C173 C 1.3443(3) 0.8434(6) 0.8200(3)
C174 C 1.3494(4) 0.8916(8) 0.8337(4)
H110 H 1.3686 0.9006 0.8410
C175 C 1.3280(4) 0.9314(7) 0.8383(4)
H111 H 1.3326 0.9623 0.8501
C176 C 1.3003(3) 0.9205(7) 0.8240(3)
H112 H 1.2858 0.9458 0.8253
C177 C 1.2935(4) 0.8706(7) 0.8073(3)
H113 H 1.2745 0.8633 0.7986
C178 C 1.3838(3) 0.7879(6) 0.8420(3)
C179 C 1.4246(2) 0.7243(4) 0.8586(2)
C180 C 1.4337(2) 0.6706(4) 0.85392(18)
H114 H 1.4260 0.6522 0.8370
C181 C 1.4543(2) 0.6444(4) 0.8745(2)
H115 H 1.4604 0.6085 0.8713
C182 C 1.4658(2) 0.6719(5) 0.8998(2)
C183 C 1.4567(3) 0.7256(5) 0.9045(2)
H116 H 1.4644 0.7440 0.9214
C184 C 1.4361(3) 0.7518(4) 0.8839(3)
H117 H 1.4300 0.7877 0.8870
C185 C 1.1929(3) 0.4665(6) 0.6407(3)
C186 C 1.2186(3) 0.4421(6) 0.6507(3)
H118 H 1.2317 0.4580 0.6657
C187 C 1.2255(4) 0.3902(7) 0.6376(3)
H119 H 1.2430 0.3729 0.6446
C188 C 1.2089(3) 0.3690(6) 0.6176(3)
C189 C 1.1807(4) 0.3949(8) 0.6039(4)
H120 H 1.1686 0.3789 0.5883
C190 C 1.1736(4) 0.4455(7) 0.6164(3)
H121 H 1.1567 0.4644 0.6088
C191 C 1.2413(4) 0.3052(8) 0.5959(4)
C192 C 1.2635(4) 0.2389(7) 0.5687(3)
C193 C 1.2869(5) 0.2707(11) 0.5666(5)
H122 H 1.2864 0.3093 0.5684
C194 C 1.3125(4) 0.2432(8) 0.5614(4)
H123 H 1.3304 0.2603 0.5657
C195 C 1.3090(4) 0.1912(9) 0.5499(4)
H124 H 1.3234 0.1763 0.5416
C196 C 1.2845(3) 0.1594(6) 0.5503(3)
H125 H 1.2829 0.1230 0.5435
C197 C 1.2625(3) 0.1841(5) 0.5612(3)
C198 C 1.2376(2) 0.0984(4) 0.5717(2)
C199 C 1.2068(2) 0.0256(4) 0.58559(19)
C200 C 1.2282(2) -0.0052(4) 0.6029(2)
H126 H 1.2469 0.0084 0.6076
C201 C 1.2212(3) -0.0567(5) 0.6133(3)
H127 H 1.2353 -0.0777 0.6251
C202 C 1.1942(2) -0.0759(4) 0.6062(2)
C203 C 1.1718(2) -0.0470(4) 0.5893(2)
H128 H 1.1533 -0.0618 0.5849
C204 C 1.1781(2) 0.0056(4) 0.5792(2)
H129 H 1.1636 0.0272 0.5685
C205 C 1.1165(2) 0.5757(4) 0.6753(2)
C206 C 1.0970(2) 0.5308(5) 0.6681(2)
H130 H 1.1031 0.4983 0.6604
C207 C 1.0685(2) 0.5346(5) 0.6723(2)
H131 H 1.0559 0.5048 0.6680
C208 C 1.0598(2) 0.5844(4) 0.68321(19)
C209 C 1.0780(2) 0.6300(5) 0.6879(2)
H132 H 1.0714 0.6636 0.6938
C210 C 1.1064(2) 0.6262(4) 0.6839(2)
H133 H 1.1184 0.6572 0.6870
C211 C 1.0084(2) 0.5635(5) 0.6768(2)
C212 C 0.9546(3) 0.5689(5) 0.6727(3)
C213 C 0.9465(3) 0.5464(6) 0.6454(3)
H134 H 0.9606 0.5416 0.6347
C214 C 0.9184(4) 0.5308(7) 0.6333(4)
H135 H 0.9137 0.5163 0.6150
C215 C 0.8974(5) 0.5378(9) 0.6502(5)
H136 H 0.8785 0.5270 0.6431
C216 C 0.9053(3) 0.5622(6) 0.6791(3)
H137 H 0.8919 0.5666 0.6906
C217 C 0.9341(3) 0.5783(6) 0.6883(3)
C218 C 0.9290(3) 0.6013(5) 0.7368(3)
C219 C 0.9288(3) 0.6472(6) 0.7846(3)
C220 C 0.9479(3) 0.6654(6) 0.8105(3)
H138 H 0.9677 0.6665 0.8118
C221 C 0.9359(3) 0.6810(6) 0.8327(3)
H139 H 0.9473 0.6972 0.8488
C222 C 0.9065(3) 0.6730(5) 0.8317(3)
C223 C 0.8899(3) 0.6562(5) 0.8081(3)
H140 H 0.8703 0.6539 0.8079
C224 C 0.8984(3) 0.6419(5) 0.7838(3)
H141 H 0.8856 0.6296 0.7677
N32 N 1.28726(18) 0.7194(3) 0.75602(17)
H142 H 1.3040 0.7053 0.7565
N33 N 1.3111(2) 0.7851(4) 0.78755(18)
H143 H 1.3260 0.7654 0.7865
N34 N 1.3655(2) 0.8048(4) 0.8190(2)
H144 H 1.3669 0.7911 0.8027
N35 N 1.4042(2) 0.7468(4) 0.8375(2)
H145 H 1.4035 0.7354 0.8204
N36 N 1.4861(4) 0.6515(10) 0.9237(5)
N37 N 1.2137(3) 0.3191(5) 0.6029(3)
H146 H 1.1997 0.2963 0.5979
N38 N 1.2401(3) 0.2625(6) 0.5798(3)
H147 H 1.2237 0.2461 0.5752
N39 N 1.23627(19) 0.1528(4) 0.56262(18)
H148 H 1.2198 0.1688 0.5577
N40 N 1.21089(17) 0.0793(3) 0.57558(16)
H149 H 1.1964 0.1014 0.5717
N41 N 1.1877(2) -0.1328(4) 0.6154(2)
N42 N 1.03173(17) 0.5915(3) 0.68928(17)
H150 H 1.0298 0.6157 0.7020
N43 N 0.98289(19) 0.5854(4) 0.68259(18)
H151 H 0.9851 0.6134 0.6940
N44 N 0.9422(2) 0.6051(4) 0.7164(2)
H152 H 0.9574 0.6255 0.7193
N45 N 0.9405(2) 0.6338(4) 0.7610(2)
H153 H 0.9573 0.6474 0.7613
N46 N 0.8964(2) 0.6891(5) 0.8566(2)
O37 O 1.26196(17) 0.7852(3) 0.77508(16)
O38 O 1.3847(2) 0.8085(5) 0.8664(2)
O39 O 1.4925(4) 0.6780(7) 0.9472(4)
O40 O 1.4939(4) 0.6102(8) 0.9198(4)
O41 O 1.2622(3) 0.3320(6) 0.6081(3)
O42 O 1.26033(16) 0.0704(3) 0.57674(15)
O43 O 1.2079(2) -0.1610(4) 0.6271(2)
O44 O 1.1633(2) -0.1488(4) 0.61218(19)
O45 O 1.00595(16) 0.5217(3) 0.66068(16)
O46 O 0.9073(2) 0.5704(4) 0.7377(2)
O47 O 0.9126(2) 0.7002(4) 0.8787(2)
O48 O 0.86956(19) 0.6859(4) 0.85518(19)
C225 C 0.7514(2) 0.8542(4) 0.7307(2)
H154 H 0.7514 0.8610 0.7116
C226 C 0.7351(2) 0.8120(4) 0.7377(2)
C227 C 0.7368(2) 0.7986(4) 0.7664(2)
H155 H 0.7256 0.7697 0.7712
C228 C 0.75579(19) 0.8292(4) 0.78860(18)
C229 C 0.7709(2) 0.8745(4) 0.7796(2)
H156 H 0.7832 0.8956 0.7932
C230 C 0.7682(2) 0.8879(4) 0.7517(2)
C231 C 0.7848(2) 0.9358(4) 0.74206(19)
C232 C 0.8134(2) 0.9475(4) 0.7556(2)
H157 H 0.8227 0.9247 0.7704
C233 C 0.8284(2) 0.9939(4) 0.7471(2)
H158 H 0.8473 1.0020 0.7560
C234 C 0.81346(19) 1.0271(4) 0.72447(19)
C235 C 0.7856(2) 1.0152(5) 0.7124(2)
H159 H 0.7759 1.0365 0.6972
C236 C 0.7719(2) 0.9722(4) 0.7225(2)
H160 H 0.7523 0.9678 0.7153
C237 C 0.8261(2) 1.0938(4) 0.6907(2)
C238 C 0.8471(2) 1.1636(4) 0.6624(2)
C239 C 0.8440(2) 1.1361(5) 0.6382(2)
H161 H 0.8386 1.0987 0.6378
C240 C 0.8483(2) 1.1608(5) 0.6133(2)
H162 H 0.8455 1.1406 0.5964
C241 C 0.8569(2) 1.2157(5) 0.6138(2)
H163 H 0.8597 1.2329 0.5972
C242 C 0.8612(2) 1.2446(4) 0.6387(2)
H164 H 0.8681 1.2809 0.6391
C243 C 0.8556(2) 1.2217(4) 0.6634(2)
C244 C 0.85316(19) 1.3080(4) 0.68982(18)
C245 C 0.8516(2) 1.3834(5) 0.7251(2)
C246 C 0.8473(3) 1.3928(6) 0.7519(3)
H165 H 0.8461 1.3624 0.7637
C247 C 0.8449(3) 1.4444(6) 0.7621(3)
H166 H 0.8414 1.4496 0.7803
C248 C 0.8477(3) 1.4884(6) 0.7455(3)
C249 C 0.8514(3) 1.4822(5) 0.7194(3)
H167 H 0.8523 1.5136 0.7081
C250 C 0.8543(2) 1.4280(5) 0.7080(2)
H168 H 0.8577 1.4232 0.6898
C251 C 0.75817(18) 0.8149(4) 0.81776(17)
C252 C 0.7493(2) 0.7618(4) 0.8263(2)
H169 H 0.7430 0.7348 0.8125
C253 C 0.74977(19) 0.7492(4) 0.85433(19)
H170 H 0.7429 0.7146 0.8586
C254 C 0.75999(18) 0.7853(4) 0.87648(18)
C255 C 0.7707(2) 0.8377(4) 0.8690(2)
H171 H 0.7789 0.8627 0.8831
C256 C 0.76875(19) 0.8513(4) 0.84050(19)
H172 H 0.7748 0.8866 0.8362
C257 C 0.77546(19) 0.7916(4) 0.92861(19)
C258 C 0.7865(2) 0.7761(4) 0.9805(2)
C259 C 0.8146(3) 0.7955(5) 0.9871(3)
H173 H 0.8257 0.7977 0.9733
C260 C 0.8254(3) 0.8115(6) 1.0146(3)
H174 H 0.8435 0.8280 1.0186
C261 C 0.8120(3) 0.8050(6) 1.0350(3)
H175 H 0.8211 0.8142 1.0535
C262 C 0.7834(3) 0.7838(5) 1.0298(3)
H176 H 0.7740 0.7790 1.0448
C263 C 0.7700(2) 0.7707(4) 1.0029(2)
C264 C 0.7214(2) 0.7566(4) 1.0112(2)
C265 C 0.6741(2) 0.7195(4) 1.0152(2)
C266 C 0.6509(2) 0.6897(4) 1.0016(2)
H177 H 0.6510 0.6776 0.9831
C267 C 0.6274(2) 0.6760(5) 1.0129(2)
H178 H 0.6120 0.6556 1.0027
C268 C 0.6280(2) 0.6945(4) 1.0402(2)
C269 C 0.6509(2) 0.7260(5) 1.0554(2)
H179 H 0.6508 0.7384 1.0737
C270 C 0.6735(3) 0.7383(5) 1.0424(2)
H180 H 0.6887 0.7596 1.0522
C271 C 0.7169(2) 0.7775(4) 0.7142(2)
C272 C 0.7063(3) 0.7992(5) 0.6883(3)
H181 H 0.7081 0.8374 0.6855
C273 C 0.6927(3) 0.7656(5) 0.6650(3)
H182 H 0.6875 0.7812 0.6469
C274 C 0.6872(2) 0.7104(5) 0.6690(2)
C275 C 0.6955(2) 0.6875(5) 0.6968(2)
H183 H 0.6907 0.6511 0.7005
C276 C 0.7117(2) 0.7220(5) 0.7190(2)
H184 H 0.7188 0.7067 0.7369
C277 C 0.6570(3) 0.6308(6) 0.6468(3)
C278 C 0.6319(2) 0.5563(4) 0.6184(2)
C279 C 0.6362(3) 0.5148(5) 0.6382(3)
H185 H 0.6496 0.5199 0.6551
C280 C 0.6209(3) 0.4648(5) 0.6338(3)
H186 H 0.6233 0.4379 0.6480
C281 C 0.6026(3) 0.4558(6) 0.6085(3)
H187 H 0.5927 0.4222 0.6051
C282 C 0.5989(3) 0.4965(5) 0.5881(3)
H188 H 0.5862 0.4896 0.5709
C283 C 0.6131(2) 0.5483(4) 0.5914(2)
C284 C 0.5847(3) 0.6022(5) 0.5508(2)
C285 C 0.5647(3) 0.6708(6) 0.5138(3)
C286 C 0.5688(3) 0.7238(6) 0.5054(3)
H189 H 0.5862 0.7420 0.5120
C287 C 0.5460(3) 0.7506(7) 0.4865(3)
H190 H 0.5485 0.7867 0.4804
C288 C 0.5207(3) 0.7242(6) 0.4773(3)
C289 C 0.5178(4) 0.6714(7) 0.4862(4)
H191 H 0.5007 0.6529 0.4786
C290 C 0.5382(3) 0.6426(7) 0.5057(3)
H192 H 0.5347 0.6077 0.5128
N47 N 0.82839(16) 1.0760(3) 0.71727(16)
H193 H 0.8392 1.0943 0.7308
N48 N 0.84264(17) 1.1411(3) 0.68863(17)
H194 H 0.8507 1.1576 0.7041
N49 N 0.85940(15) 1.2509(3) 0.68888(15)
H195 H 0.8658 1.2335 0.7046
N50 N 0.85568(17) 1.3274(3) 0.71756(17)
H196 H 0.8600 1.3035 0.7311
N51 N 0.8456(3) 1.5477(5) 0.7575(3)
N52 N 0.75855(15) 0.7709(3) 0.90385(15)
H197 H 0.7458 0.7466 0.9058
N53 N 0.77275(17) 0.7625(3) 0.95207(16)
H198 H 0.7619 0.7334 0.9496
N54 N 0.74225(17) 0.7488(3) 0.99545(18)
H199 H 0.7379 0.7293 0.9801
N55 N 0.69620(16) 0.7288(3) 1.00079(16)
H200 H 0.6939 0.7161 0.9837
N56 N 0.6043(2) 0.6818(4) 1.0536(2)
N57 N 0.67392(19) 0.6787(4) 0.64669(19)
H201 H 0.6762 0.6895 0.6302
N58 N 0.64788(18) 0.6080(3) 0.62189(18)
H202 H 0.6515 0.6244 0.6070
N59 N 0.61003(18) 0.5896(4) 0.57057(17)
H203 H 0.6250 0.6092 0.5697
N60 N 0.5861(2) 0.6460(4) 0.53415(19)
H204 H 0.6027 0.6614 0.5363
N61 N 0.4983(3) 0.7600(6) 0.4574(3)
O49 O 0.81111(17) 1.0710(3) 0.67020(16)
O50 O 0.84645(15) 1.3376(3) 0.66888(15)
O51 O 0.8405(3) 1.5802(5) 0.7396(3)
O52 O 0.8478(3) 1.5512(5) 0.7825(3)
O53 O 0.79252(15) 0.8298(3) 0.92915(14)
O54 O 0.72449(17) 0.7876(3) 1.03253(17)
O55 O 0.6023(2) 0.7050(4) 1.0761(2)
O56 O 0.5865(2) 0.6471(5) 1.0428(2)
O57 O 0.65140(17) 0.6157(3) 0.67038(17)
O58 O 0.56256(18) 0.5745(4) 0.55270(18)
O59 O 0.5023(2) 0.8081(5) 0.4547(2)
O60 O 0.4788(4) 0.7309(8) 0.4518(4)
C291 C 0.9499(4) 0.4335(7) 0.5759(4)
C292 C 0.9311(6) 0.3996(12) 0.5856(7)
C293 C 0.9129(3) 0.3620(7) 0.6241(3)
C294 C 0.9117(6) 0.3900(12) 0.6487(7)
C295 C 0.9374(3) 0.4028(6) 0.6998(3)
C296 C 0.9607(7) 0.3789(12) 0.7145(6)
C297 C 1.0109(5) 0.3696(9) 0.7264(5)
C298 C 1.0377(5) 0.3901(9) 0.7133(5)
C299 C 1.0584(7) 0.3719(13) 0.6708(7)
C300 C 1.0487(3) 0.3485(6) 0.6436(3)
C301 C 1.0315(5) 0.3971(11) 0.6034(6)
C302 C 1.0098(6) 0.4338(11) 0.5862(6)
O61 O 0.9810(4) 0.4116(7) 0.5893(4)
O62 O 0.9318(5) 0.4043(10) 0.6082(6)
O63 O 0.9321(4) 0.3787(7) 0.6699(4)
O64 O 0.9829(3) 0.3993(5) 0.7063(3)
O65 O 1.0315(3) 0.3628(5) 0.6837(3)
O66 O 1.0340(3) 0.3981(5) 0.6330(3)
C303 C 1.1670(3) 0.8056(6) 0.7031(3)
C304 C 1.1440(2) 0.7975(5) 0.6765(2)
C305 C 1.1301(3) 0.7428(5) 0.6372(3)
C306 C 1.1364(3) 0.6892(5) 0.6221(3)
C307 C 1.1716(3) 0.6380(5) 0.6074(3)
C308 C 1.1990(3) 0.6433(5) 0.5950(3)
C309 C 1.2460(3) 0.6782(5) 0.6034(3)
C310 C 1.2693(3) 0.6973(5) 0.6269(3)
C311 C 1.2843(3) 0.7690(5) 0.6624(2)
C312 C 1.2745(3) 0.8196(6) 0.6746(3)
C313 C 1.2426(3) 0.8523(6) 0.7041(3)
C314 C 1.2156(3) 0.8326(6) 0.7155(3)
O67 O 1.19357(16) 0.8198(3) 0.69279(15)
O68 O 1.15124(15) 0.7478(3) 0.66250(14)
O69 O 1.16443(16) 0.6910(3) 0.61493(16)
O70 O 1.22203(16) 0.6631(3) 0.61636(16)
O71 O 1.26200(15) 0.7470(3) 0.64117(14)
O72 O 1.25100(16) 0.8048(3) 0.68926(15)
C315 C 0.8084(3) 0.6561(5) 0.8990(3)
C316 C 0.8333(3) 0.6927(6) 0.9132(3)
C317 C 0.8538(3) 0.7814(5) 0.9087(3)
C318 C 0.8507(3) 0.8330(5) 0.8890(3)
C319 C 0.8553(3) 0.8703(6) 0.8452(3)
C320 C 0.8625(3) 0.8478(5) 0.8186(3)
C321 C 0.8450(3) 0.7926(6) 0.7778(3)
C322 C 0.8176(4) 0.7610(8) 0.7622(4)
C323 C 0.7889(4) 0.6848(8) 0.7674(4)
C324 C 0.7890(4) 0.6269(7) 0.7856(4)
C325 C 0.7890(3) 0.5912(6) 0.8296(3)
C326 C 0.7875(4) 0.6020(7) 0.8605(3)
O73 O 0.80943(19) 0.6428(4) 0.87112(19)
O74 O 0.83079(16) 0.7445(3) 0.89652(16)
O75 O 0.85530(17) 0.8192(3) 0.86323(17)
O76 O 0.83911(17) 0.8155(3) 0.80343(17)
O77 O 0.8152(2) 0.7139(4) 0.7799(2)
O78 O 0.7880(2) 0.6404(4) 0.8132(2)
K7 K 0.98422(5) 0.42033(10) 0.65034(5)
K8 K 1.27970(12) -0.0135(2) 0.55574(9)
K9 K 1.20651(8) 0.73730(16) 0.65295(7)
K10 K 0.81797(5) 0.73501(10) 0.83810(5)
K11 K 1.37856(11) 0.7389(2) 0.91636(11)
K12 K 1.27742(12) -0.0216(2) 0.54947(10)
K13 K 1.20987(8) 0.74514(16) 0.66042(7)
K14 K 0.98879(11) 0.3655(2) 0.82050(11)
K15 K 0.98057(11) 0.3999(2) 0.82905(11)
K16 K 0.38669(14) 0.6315(3) 0.19734(14)
K17 K 0.21729(14) 0.4890(2) 0.00601(13)
O79 O 0.20404(12) 0.1047(2) 0.92072(11)
O80 O 0.23729(11) 0.1714(2) 0.95158(11)
O81 O 0.20676(12) 0.2041(2) 0.90505(12)
O82 O 0.18416(12) 0.1803(2) 0.94680(12)
P1 P 0.20813(4) 0.16531(9) 0.93069(4)
O83 O 0.03445(13) 0.6565(2) 0.73956(12)
O84 O -0.00538(13) 0.6826(3) 0.76484(13)
O85 O -0.01423(15) 0.6819(3) 0.71173(15)
O86 O 0.01725(13) 0.7562(3) 0.73907(13)
P2 P 0.00796(5) 0.69408(10) 0.73909(5)
O87 O 0.34041(13) 0.6560(3) 0.76094(13)
O88 O 0.39055(13) 0.6773(3) 0.78951(13)
O89 O 0.37988(13) 0.6847(3) 0.73613(13)
O90 O 0.35946(14) 0.7546(3) 0.76489(13)
P3 P 0.36724(5) 0.69381(10) 0.76284(5)
O91 O 0.16215(14) 0.1424(3) 0.57095(14)
O92 O 0.18651(16) 0.2153(3) 0.54859(15)
O93 O 0.16635(14) 0.2381(3) 0.59221(13)
O94 O 0.13342(14) 0.2201(3) 0.54451(13)
P4 P 0.16222(6) 0.20437(11) 0.56446(5)
F1 F 1.1932(3) 0.4312(6) 0.7604(3)
C327 C 1.1864(4) 0.4645(8) 0.7362(4)
F2 F 1.1990(8) 0.5161(8) 0.7445(7)
F3 F 1.1569(5) 0.4748(16) 0.7329(7)
C328 C 1.1944(8) 0.4414(13) 0.7113(4)
H205 H 1.1804 0.4142 0.7029
H206 H 1.2129 0.4239 0.7166
H207 H 1.1952 0.4706 0.6978
C329? C 0.3021(10) 0.679(2) 0.1814(11)
C330? C 0.3188(9) 0.7426(18) 0.1796(9)
C331? C 0.3657(7) 0.7776(13) 0.1960(7)
C332? C 0.3881(7) 0.7721(13) 0.2186(7)
O95? O 0.3517(5) 0.7187(9) 0.2003(5)
O96? O 0.4087(4) 0.7323(8) 0.2138(4)
C333? C 0.4384(7) 0.7178(15) 0.2496(7)
O97? O 0.4335(5) 0.6494(11) 0.2490(6)
C334? C 0.4261(9) 0.5394(16) 0.2535(10)
C335? C 0.4038(8) 0.4769(16) 0.2100(9)
C336? C 0.3883(8) 0.4893(15) 0.1792(8)
O98? O 0.4117(6) 0.5359(11) 0.2251(6)
C337? C 0.3279(10) 0.5569(18) 0.1571(9)
O99? O 0.3271(4) 0.6266(9) 0.1690(4)
O100? O 0.3562(9) 0.5338(17) 0.1731(9)
C338? C 0.1978(6) 0.5976(11) 0.0464(6)
C339? C 0.2453(10) 0.620(2) -0.0021(10)
C340? C 0.2392(10) 0.624(2) 0.0312(11)
O101? O 0.2132(5) 0.5940(8) 0.0251(4)
O102? O 0.2639(5) 0.5656(10) 0.0108(5)
C341? C 0.1624(6) 0.5621(13) 0.0379(6)
C342? C 0.1404(7) 0.4845(15) 0.0285(7)
C343? C 0.1458(6) 0.4241(13) 0.0164(7)
C344? C 0.1778(5) 0.3665(10) -0.0180(5)
C345? C 0.1886(7) 0.3542(13) -0.0439(7)
C346? C 0.2316(6) 0.4003(12) -0.0474(6)
C347? C 0.2621(6) 0.4110(13) -0.0282(6)
C348? C 0.2835(12) 0.489(2) -0.0039(12)
O103? O 0.1723(3) 0.5149(7) 0.0336(3)
O104? O 0.1637(5) 0.4179(10) -0.0061(5)
O105? O 0.2119(5) 0.3850(8) -0.0250(4)
O106? O 0.2574(5) 0.4713(10) -0.0253(5)
K18? K 0.1989(2) 0.4810(4) -0.00343(19)
C349? C 0.1044(8) 0.1268(15) 0.7091(8)
C350? C 0.1195(8) 0.0887(16) 0.7229(8)
C351? C 0.1295(6) 0.0418(11) 0.8224(6)
C352? C 0.1287(3) 0.0772(6) 0.8515(3)
C353? C 0.1173(6) 0.1692(11) 0.8563(6)
C354? C 0.1088(4) 0.2244(8) 0.8400(4)
C355? C 0.0806(7) 0.2669(13) 0.7996(7)
C356? C 0.0542(6) 0.2622(12) 0.7732(6)
C357? C 0.0723(6) 0.2388(11) 0.7370(6)
C358? C 0.0776(4) 0.1985(8) 0.7154(4)
O107? O 0.0603(3) 0.2206(6) 0.7574(3)
O108? O 0.0959(4) 0.1641(8) 0.7303(4)
O109? O 0.1216(3) 0.1300(7) 0.8385(3)
O110? O 0.0825(3) 0.2228(6) 0.8184(3)
C359? C 0.1250(6) 0.0461(12) 0.7569(6)
C360? C 0.1380(5) 0.0074(11) 0.7870(5)
C361? C 0.0967(6) 0.5297(12) 0.5917(6)
C362? C 0.0765(9) 0.5595(18) 0.5772(9)
C363? C 0.0718(7) 0.6606(14) 0.5522(7)
C364? C 0.0805(6) 0.6808(12) 0.5260(6)
O111? O 0.0864(3) 0.6059(6) 0.5574(3)
C365? C 0.0515(7) 0.7685(13) 0.6158(7)
C366? C 0.0461(6) 0.7057(12) 0.6236(6)
C367? C 0.0118(9) 0.6230(17) 0.6112(9)
C368? C -0.0052(13) 0.605(2) 0.5832(14)
O112? O 0.0261(5) 0.6793(9) 0.6033(5)
C369? C 1.0044(9) 0.2425(18) 0.8357(9)
C370? C 0.9780(5) 0.2474(10) 0.8088(5)
C371? C 0.9400(4) 0.2806(8) 0.7763(4)
C372? C 0.9220(5) 0.3278(9) 0.7761(4)
C373? C 0.9260(5) 0.4216(10) 0.7775(4)
C374? C 0.9257(9) 0.4791(18) 0.7824(9)
O113? O 0.9386(3) 0.3820(6) 0.7781(3)
O114? O 0.9600(4) 0.2820(7) 0.8038(4)
O115? O 1.0150(4) 0.2875(9) 0.8422(4)
C375? C 1.0429(8) 0.3056(17) 0.8729(8)
O116? O 1.0377(5) 0.3661(10) 0.8693(5)
C376? C 0.9833(7) 0.5100(13) 0.8138(7)
C377? C 0.9954(7) 0.5043(13) 0.8511(7)
O117? O 1.0188(4) 0.4636(9) 0.8445(4)
C378? C 0.9445(5) 0.8423(11) 0.8421(6)
C379? C 0.9388(5) 0.8333(9) 0.8707(5)
C380? C 0.9284(8) 0.8903(17) 0.9141(9)
C381? C 0.9254(5) 0.9392(11) 0.9264(5)
O118? O 0.9371(3) 0.8815(7) 0.8860(3)
C382? C 1.2266(3) 0.0501(6) 0.4959(3)
C383? C 1.2158(4) -0.0156(8) 0.4895(4)
C384? C 1.2165(3) -0.0956(5) 0.5151(3)
C385? C 1.2225(7) -0.1104(13) 0.5411(7)
C386? C 1.2641(4) -0.1576(8) 0.5781(4)
C387? C 1.2853(8) -0.1570(15) 0.5845(7)
C388? C 1.3541(4) 0.0092(8) 0.5627(4)
C389? C 1.3343(4) 0.0070(7) 0.5396(3)
C390? C 1.3053(3) 0.0550(6) 0.4956(3)
C391? C 1.2684(4) 0.0380(8) 0.4845(4)
O119? O 1.3184(3) 0.0361(7) 0.5231(3)
O120? O 1.3371(4) -0.0353(9) 0.5845(4)
O121? O 1.2944(3) -0.1094(7) 0.5900(3)
O122? O 1.2516(3) -0.1206(5) 0.5496(3)
O123? O 1.2246(3) -0.0344(5) 0.5139(3)
O124? O 1.2553(3) 0.0540(6) 0.5025(3)
C392? C 1.5280(5) 0.5463(10) 0.6550(5)
C393? C 1.5012(6) 0.5629(11) 0.6687(6)
C394? C 1.4418(7) 0.5717(13) 0.6343(7)
C395? C 1.4256(7) 0.7247(12) 0.5766(7)
C396? C 1.4637(4) 0.7700(8) 0.5625(4)
C397? C 1.4927(4) 0.7591(7) 0.5534(4)
C398? C 1.5417(3) 0.7386(6) 0.5684(3)
C399? C 1.5623(3) 0.7193(7) 0.5958(3)
C400? C 1.5739(4) 0.6488(7) 0.6275(4)
C401? C 1.5651(4) 0.5891(7) 0.6368(4)
O125? O 1.5377(3) 0.5970(6) 0.6456(3)
O126? O 1.4803(4) 0.5750(7) 0.6431(4)
O127? O 1.4554(3) 0.7153(5) 0.5702(3)
O128? O 1.5142(2) 0.7456(4) 0.5754(2)
O129? O 1.5538(2) 0.6665(4) 0.6040(2)
C402? C 1.4169(9) 0.7990(19) 0.9740(9)
O130? O 1.4111(5) 0.7375(10) 0.9703(5)
C403? C 1.4454(7) 0.6512(14) 0.6217(8)
C404? C 1.4126(6) 0.6503(11) 0.5694(6)
O131? O 1.4296(5) 0.6367(10) 0.5988(6)
C405? C 1.4079(8) 0.5930(16) 0.9340(8)
C406? C 1.3990(6) 0.5837(12) 0.9030(7)
C407? C 1.3589(8) 0.6333(14) 0.8683(7)
C408? C 1.3297(8) 0.6344(16) 0.8718(8)
O132? O 1.4181(6) 0.6479(11) 0.9480(6)
O133? O 1.3732(4) 0.6188(9) 0.8998(4)
O134? O 1.3374(5) 0.6860(11) 0.8704(5)
C409? C 1.3100(10) 0.751(2) 0.8637(11)
C410? C 1.3133(5) 0.7890(11) 0.8757(6)
C411? C 1.3356(5) 0.8497(10) 0.9139(5)
C412? C 1.3457(7) 0.8625(14) 0.9445(7)
O135? O 1.3740(5) 0.8300(9) 0.9520(5)
O136? O 1.3294(5) 0.7957(10) 0.9078(5)
O137? O 1.5084(3) 0.5695(5) 0.5721(3)
K19? K 1.49268(13) 0.6457(3) 0.59690(13)
loop_
_geom_bond_atom_site_label_1
_geom_bond_atom_site_label_2
_geom_bond_site_symmetry_1
_geom_bond_site_symmetry_2
C1 C2 1_555 1_555
C2 H1 1_555 1_555
C3 C2 1_555 1_555
C4 C3 1_555 1_555
H2 C4 1_555 1_555
C5 C4 1_555 1_555
C6 C1 1_555 1_555
H3 C6 1_555 1_555
C7 H4 1_555 1_555
C8 C5 1_555 1_555
C9 C8 1_555 1_555
H5 C9 1_555 1_555
C10 C9 1_555 1_555
H6 C10 1_555 1_555
C11 C10 1_555 1_555
C12 C7 1_555 1_555
H7 C12 1_555 1_555
C13 N1 1_555 1_555
C14 C15 1_555 1_555
C15 C16 1_555 1_555
C16 H8 1_555 1_555
C17 C16 1_555 1_555
H9 C17 1_555 1_555
C18 C17 1_555 1_555
H10 C18 1_555 1_555
C19 C14 1_555 1_555
H11 C19 1_555 1_555
C20 N3 1_555 1_555
C21 C22 1_555 1_555
C22 H12 1_555 1_555
C23 C22 1_555 1_555
H13 C23 1_555 1_555
C24 C23 1_555 1_555
C25 C24 1_555 1_555
H14 C25 1_555 1_555
C26 C21 1_555 1_555
H15 C26 1_555 1_555
C27 C3 1_555 1_555
C28 C27 1_555 1_555
H16 C28 1_555 1_555
C29 C28 1_555 1_555
H17 C29 1_555 1_555
C30 C29 1_555 1_555
C31 C30 1_555 1_555
H18 C31 1_555 1_555
C32 C27 1_555 1_555
H19 C32 1_555 1_555
C33 N6 1_555 1_555
C34 C35 1_555 1_555
C35 H20 1_555 1_555
C36 C35 1_555 1_555
H21 C36 1_555 1_555
C37 C36 1_555 1_555
H22 C37 1_555 1_555
C38 C37 1_555 1_555
H23 C38 1_555 1_555
C39 C34 1_555 1_555
C40 N8 1_555 1_555
C41 C42 1_555 1_555
C42 H24 1_555 1_555
C43 C42 1_555 1_555
H25 C43 1_555 1_555
C44 C43 1_555 1_555
C45 C44 1_555 1_555
H26 C45 1_555 1_555
C46 C41 1_555 1_555
H27 C46 1_555 1_555
C47 C1 1_555 1_555
C48 C47 1_555 1_555
H28 C48 1_555 1_555
C49 C48 1_555 1_555
H29 C49 1_555 1_555
C50 C49 1_555 1_555
C51 C50 1_555 1_555
H30 C51 1_555 1_555
C52 C47 1_555 1_555
H31 C52 1_555 1_555
C53 N11 1_555 1_555
C54 C55 1_555 1_555
C55 H32 1_555 1_555
C56 C55 1_555 1_555
H33 C56 1_555 1_555
C57 C56 1_555 1_555
H34 C57 1_555 1_555
C58 C57 1_555 1_555
H35 C58 1_555 1_555
C59 C54 1_555 1_555
C60 N13 1_555 1_555
C61 C62 1_555 1_555
C62 H36 1_555 1_555
C63 C62 1_555 1_555
H37 C63 1_555 1_555
C64 C63 1_555 1_555
C65 C64 1_555 1_555
H38 C65 1_555 1_555
C66 C61 1_555 1_555
H39 C66 1_555 1_555
N1 C11 1_555 1_555
H40 N1 1_555 1_555
N2 C13 1_555 1_555
H41 N2 1_555 1_555
N3 C15 1_555 1_555
H42 N3 1_555 1_555
N4 C20 1_555 1_555
H43 N4 1_555 1_555
N5 C24 1_555 1_555
N6 C30 1_555 1_555
H44 N6 1_555 1_555
N7 C33 1_555 1_555
H45 N7 1_555 1_555
N8 C39 1_555 1_555
H46 N8 1_555 1_555
N9 C40 1_555 1_555
H47 N9 1_555 1_555
N10 C44 1_555 1_555
N11 C50 1_555 1_555
H48 N11 1_555 1_555
N12 C53 1_555 1_555
H49 N12 1_555 1_555
N13 C59 1_555 1_555
H50 N13 1_555 1_555
N14 C60 1_555 1_555
H51 N14 1_555 1_555
N15 C64 1_555 1_555
O1 C13 1_555 1_555
O2 C20 1_555 1_555
O3 N5 1_555 1_555
O4 N5 1_555 1_555
O5 C33 1_555 1_555
O6 C40 1_555 1_555
O7 N10 1_555 1_555
O8 N10 1_555 1_555
O9 C53 1_555 1_555
O10 C60 1_555 1_555
O11 N15 1_555 1_555
O12 N15 1_555 1_555
C67 C68 1_555 1_555
C68 N16 1_555 1_555
C69 C70 1_555 1_555
C70 H52 1_555 1_555
C71 C70 1_555 1_555
C72 C71 1_555 1_555
H53 C72 1_555 1_555
C73 C72 1_555 1_555
C74 C69 1_555 1_555
H54 C74 1_555 1_555
C75 C69 1_555 1_555
C76 C75 1_555 1_555
H55 C76 1_555 1_555
C77 C76 1_555 1_555
H56 C77 1_555 1_555
C78 C77 1_555 1_555
C79 C78 1_555 1_555
H57 C79 1_555 1_555
C80 C75 1_555 1_555
H58 C80 1_555 1_555
C81 N17 1_555 1_555
C82 C83 1_555 1_555
C83 H59 1_555 1_555
C84 C83 1_555 1_555
H60 C84 1_555 1_555
C85 C84 1_555 1_555
H61 C85 1_555 1_555
C86 C85 1_555 1_555
H62 C86 1_555 1_555
C87 C82 1_555 1_555
C88 N19 1_555 1_555
C89 C90 1_555 1_555
C90 H63 1_555 1_555
C91 C90 1_555 1_555
H64 C91 1_555 1_555
C92 C91 1_555 1_555
C93 C92 1_555 1_555
H65 C93 1_555 1_555
C94 C89 1_555 1_555
H66 C94 1_555 1_555
C95 C73 1_555 1_555
C96 C95 1_555 1_555
H67 C96 1_555 1_555
C97 C96 1_555 1_555
H68 C97 1_555 1_555
C98 C97 1_555 1_555
C99 C98 1_555 1_555
H69 C99 1_555 1_555
C100 C95 1_555 1_555
H70 C100 1_555 1_555
C101 N22 1_555 1_555
C102 C103 1_555 1_555
C103 H71 1_555 1_555
C104 C103 1_555 1_555
H72 C104 1_555 1_555
C105 C104 1_555 1_555
H73 C105 1_555 1_555
C106 C105 1_555 1_555
H74 C106 1_555 1_555
C107 C102 1_555 1_555
C108 N24 1_555 1_555
C109 C110 1_555 1_555
C110 H75 1_555 1_555
C111 C110 1_555 1_555
H76 C111 1_555 1_555
C112 C111 1_555 1_555
C113 C112 1_555 1_555
H77 C113 1_555 1_555
C114 C109 1_555 1_555
H78 C114 1_555 1_555
C115 C71 1_555 1_555
C116 C115 1_555 1_555
H79 C116 1_555 1_555
C117 C116 1_555 1_555
H80 C117 1_555 1_555
C118 C117 1_555 1_555
C119 C118 1_555 1_555
H81 C119 1_555 1_555
C120 C115 1_555 1_555
H82 C120 1_555 1_555
C121 N27 1_555 1_555
C122 C123 1_555 1_555
C123 H83 1_555 1_555
C124 C123 1_555 1_555
H84 C124 1_555 1_555
C125 C124 1_555 1_555
H85 C125 1_555 1_555
C126 C125 1_555 1_555
H86 C126 1_555 1_555
C127 C122 1_555 1_555
C128 N29 1_555 1_555
C129 C130 1_555 1_555
C130 H87 1_555 1_555
C131 C130 1_555 1_555
H88 C131 1_555 1_555
C132 C131 1_555 1_555
C133 C132 1_555 1_555
H89 C133 1_555 1_555
C134 C129 1_555 1_555
H90 C134 1_555 1_555
N17 C78 1_555 1_555
H91 N17 1_555 1_555
N18 C81 1_555 1_555
H92 N18 1_555 1_555
N19 C87 1_555 1_555
H93 N19 1_555 1_555
N20 C88 1_555 1_555
H94 N20 1_555 1_555
N21 C92 1_555 1_555
N22 C98 1_555 1_555
H95 N22 1_555 1_555
N23 C101 1_555 1_555
H96 N23 1_555 1_555
N24 C107 1_555 1_555
H97 N24 1_555 1_555
N25 C108 1_555 1_555
H98 N25 1_555 1_555
N26 C112 1_555 1_555
N27 C118 1_555 1_555
H99 N27 1_555 1_555
N28 C121 1_555 1_555
H100 N28 1_555 1_555
N29 C127 1_555 1_555
H101 N29 1_555 1_555
N30 C128 1_555 1_555
H102 N30 1_555 1_555
N31 C132 1_555 1_555
O13 C81 1_555 1_555
O14 C88 1_555 1_555
O15 N21 1_555 1_555
O16 N21 1_555 1_555
O17 C101 1_555 1_555
O18 C108 1_555 1_555
O19 N26 1_555 1_555
O20 N26 1_555 1_555
O21 C121 1_555 1_555
O22 C128 1_555 1_555
O23 N31 1_555 1_555
O24 N31 1_555 1_555
C135 C136 1_555 1_555
C136 O26 1_555 1_555
C137 C138 1_555 1_555
C138 O27 1_555 1_555
C139 C140 1_555 1_555
C140 O28 1_555 1_555
C141 C142 1_555 1_555
C142 O29 1_555 1_555
C143 C144 1_555 1_555
C144 O30 1_555 1_555
C145 C146 1_555 1_555
C146 O25 1_555 1_555
O25 C135 1_555 1_555
O26 C137 1_555 1_555
O27 C139 1_555 1_555
O28 C141 1_555 1_555
O29 C143 1_555 1_555
O30 C145 1_555 1_555
C147 C148 1_555 1_555
C148 O32 1_555 1_555
C149 C150 1_555 1_555
C150 O33 1_555 1_555
C151 C152 1_555 1_555
C152 O34 1_555 1_555
C153 C154 1_555 1_555
C154 O35 1_555 1_555
C155 C156 1_555 1_555
C156 O36 1_555 1_555
C157 C158 1_555 1_555
C158 O31 1_555 1_555
O31 C147 1_555 1_555
O32 C149 1_555 1_555
O33 C151 1_555 1_555
O34 C153 1_555 1_555
O35 C155 1_555 1_555
O36 C157 1_555 1_555
C159 H103 1_555 1_555
C160 C159 1_555 1_555
C161 C160 1_555 1_555
H104 C161 1_555 1_555
C162 C161 1_555 1_555
C163 C162 1_555 1_555
H105 C163 1_555 1_555
C164 C159 1_555 1_555
C165 C164 1_555 1_555
C166 C165 1_555 1_555
H106 C166 1_555 1_555
C167 C166 1_555 1_555
H107 C167 1_555 1_555
C168 C167 1_555 1_555
C169 C168 1_555 1_555
H108 C169 1_555 1_555
C170 C165 1_555 1_555
H109 C170 1_555 1_555
C171 N32 1_555 1_555
C172 C173 1_555 1_555
C173 C174 1_555 1_555
C174 H110 1_555 1_555
C175 C174 1_555 1_555
H111 C175 1_555 1_555
C176 C175 1_555 1_555
H112 C176 1_555 1_555
C177 C172 1_555 1_555
H113 C177 1_555 1_555
C178 N34 1_555 1_555
C179 C180 1_555 1_555
C180 H114 1_555 1_555
C181 C180 1_555 1_555
H115 C181 1_555 1_555
C182 C181 1_555 1_555
C183 C182 1_555 1_555
H116 C183 1_555 1_555
C184 C179 1_555 1_555
H117 C184 1_555 1_555
C185 C162 1_555 1_555
C186 C185 1_555 1_555
H118 C186 1_555 1_555
C187 C186 1_555 1_555
H119 C187 1_555 1_555
C188 C187 1_555 1_555
C189 C188 1_555 1_555
H120 C189 1_555 1_555
C190 C185 1_555 1_555
H121 C190 1_555 1_555
C191 N37 1_555 1_555
C192 C193 1_555 1_555
C193 H122 1_555 1_555
C194 C193 1_555 1_555
H123 C194 1_555 1_555
C195 C194 1_555 1_555
H124 C195 1_555 1_555
C196 C195 1_555 1_555
H125 C196 1_555 1_555
C197 C192 1_555 1_555
C198 N39 1_555 1_555
C199 C200 1_555 1_555
C200 H126 1_555 1_555
C201 C200 1_555 1_555
H127 C201 1_555 1_555
C202 C201 1_555 1_555
C203 C202 1_555 1_555
H128 C203 1_555 1_555
C204 C199 1_555 1_555
H129 C204 1_555 1_555
C205 C160 1_555 1_555
C206 C205 1_555 1_555
H130 C206 1_555 1_555
C207 C206 1_555 1_555
H131 C207 1_555 1_555
C208 C207 1_555 1_555
C209 C208 1_555 1_555
H132 C209 1_555 1_555
C210 C205 1_555 1_555
H133 C210 1_555 1_555
C211 N42 1_555 1_555
C212 C213 1_555 1_555
C213 H134 1_555 1_555
C214 C213 1_555 1_555
H135 C214 1_555 1_555
C215 C214 1_555 1_555
H136 C215 1_555 1_555
C216 C215 1_555 1_555
H137 C216 1_555 1_555
C217 C212 1_555 1_555
C218 N44 1_555 1_555
C219 C220 1_555 1_555
C220 H138 1_555 1_555
C221 C220 1_555 1_555
H139 C221 1_555 1_555
C222 C221 1_555 1_555
C223 C222 1_555 1_555
H140 C223 1_555 1_555
C224 C219 1_555 1_555
H141 C224 1_555 1_555
N32 C168 1_555 1_555
H142 N32 1_555 1_555
N33 C171 1_555 1_555
H143 N33 1_555 1_555
N34 C173 1_555 1_555
H144 N34 1_555 1_555
N35 C178 1_555 1_555
H145 N35 1_555 1_555
N36 C182 1_555 1_555
N37 C188 1_555 1_555
H146 N37 1_555 1_555
N38 C191 1_555 1_555
H147 N38 1_555 1_555
N39 C197 1_555 1_555
H148 N39 1_555 1_555
N40 C198 1_555 1_555
H149 N40 1_555 1_555
N41 C202 1_555 1_555
N42 C208 1_555 1_555
H150 N42 1_555 1_555
N43 C211 1_555 1_555
H151 N43 1_555 1_555
N44 C217 1_555 1_555
H152 N44 1_555 1_555
N45 C218 1_555 1_555
H153 N45 1_555 1_555
N46 C222 1_555 1_555
O37 C171 1_555 1_555
O38 C178 1_555 1_555
O39 N36 1_555 1_555
O40 N36 1_555 1_555
O41 C191 1_555 1_555
O42 C198 1_555 1_555
O43 N41 1_555 1_555
O44 N41 1_555 1_555
O45 C211 1_555 1_555
O46 C218 1_555 1_555
O47 N46 1_555 1_555
O48 N46 1_555 1_555
C225 H154 1_555 1_555
C226 C225 1_555 1_555
C227 C226 1_555 1_555
H155 C227 1_555 1_555
C228 C227 1_555 1_555
C229 C228 1_555 1_555
H156 C229 1_555 1_555
C230 C225 1_555 1_555
C231 C230 1_555 1_555
C232 C231 1_555 1_555
H157 C232 1_555 1_555
C233 C232 1_555 1_555
H158 C233 1_555 1_555
C234 C233 1_555 1_555
C235 C234 1_555 1_555
H159 C235 1_555 1_555
C236 C231 1_555 1_555
H160 C236 1_555 1_555
C237 N47 1_555 1_555
C238 C239 1_555 1_555
C239 H161 1_555 1_555
C240 C239 1_555 1_555
H162 C240 1_555 1_555
C241 C240 1_555 1_555
H163 C241 1_555 1_555
C242 C241 1_555 1_555
H164 C242 1_555 1_555
C243 C238 1_555 1_555
C244 N49 1_555 1_555
C245 C246 1_555 1_555
C246 H165 1_555 1_555
C247 C246 1_555 1_555
H166 C247 1_555 1_555
C248 C247 1_555 1_555
C249 C248 1_555 1_555
H167 C249 1_555 1_555
C250 C245 1_555 1_555
H168 C250 1_555 1_555
C251 C228 1_555 1_555
C252 C251 1_555 1_555
H169 C252 1_555 1_555
C253 C252 1_555 1_555
H170 C253 1_555 1_555
C254 C253 1_555 1_555
C255 C254 1_555 1_555
H171 C255 1_555 1_555
C256 C251 1_555 1_555
H172 C256 1_555 1_555
C257 N52 1_555 1_555
C258 C259 1_555 1_555
C259 H173 1_555 1_555
C260 C259 1_555 1_555
H174 C260 1_555 1_555
C261 C260 1_555 1_555
H175 C261 1_555 1_555
C262 C261 1_555 1_555
H176 C262 1_555 1_555
C263 C258 1_555 1_555
C264 N54 1_555 1_555
C265 C266 1_555 1_555
C266 H177 1_555 1_555
C267 C266 1_555 1_555
H178 C267 1_555 1_555
C268 C267 1_555 1_555
C269 C268 1_555 1_555
H179 C269 1_555 1_555
C270 C265 1_555 1_555
H180 C270 1_555 1_555
C271 C226 1_555 1_555
C272 C271 1_555 1_555
H181 C272 1_555 1_555
C273 C272 1_555 1_555
H182 C273 1_555 1_555
C274 C273 1_555 1_555
C275 C274 1_555 1_555
H183 C275 1_555 1_555
C276 C271 1_555 1_555
H184 C276 1_555 1_555
C277 N57 1_555 1_555
C278 C279 1_555 1_555
C279 H185 1_555 1_555
C280 C279 1_555 1_555
H186 C280 1_555 1_555
C281 C280 1_555 1_555
H187 C281 1_555 1_555
C282 C281 1_555 1_555
H188 C282 1_555 1_555
C283 C278 1_555 1_555
C284 N59 1_555 1_555
C285 C286 1_555 1_555
C286 H189 1_555 1_555
C287 C286 1_555 1_555
H190 C287 1_555 1_555
C288 C287 1_555 1_555
C289 C288 1_555 1_555
H191 C289 1_555 1_555
C290 C285 1_555 1_555
H192 C290 1_555 1_555
N47 C234 1_555 1_555
H193 N47 1_555 1_555
N48 C237 1_555 1_555
H194 N48 1_555 1_555
N49 C243 1_555 1_555
H195 N49 1_555 1_555
N50 C244 1_555 1_555
H196 N50 1_555 1_555
N51 C248 1_555 1_555
N52 C254 1_555 1_555
H197 N52 1_555 1_555
N53 C257 1_555 1_555
H198 N53 1_555 1_555
N54 C263 1_555 1_555
H199 N54 1_555 1_555
N55 C264 1_555 1_555
H200 N55 1_555 1_555
N56 C268 1_555 1_555
N57 C274 1_555 1_555
H201 N57 1_555 1_555
N58 C277 1_555 1_555
H202 N58 1_555 1_555
N59 C283 1_555 1_555
H203 N59 1_555 1_555
N60 C284 1_555 1_555
H204 N60 1_555 1_555
N61 C288 1_555 1_555
O49 C237 1_555 1_555
O50 C244 1_555 1_555
O51 N51 1_555 1_555
O52 N51 1_555 1_555
O53 C257 1_555 1_555
O54 C264 1_555 1_555
O55 N56 1_555 1_555
O56 N56 1_555 1_555
O57 C277 1_555 1_555
O58 C284 1_555 1_555
O59 N61 1_555 1_555
O60 N61 1_555 1_555
C291 C292 1_555 1_555
C292 O62 1_555 1_555
C293 C294 1_555 1_555
C294 O63 1_555 1_555
C295 C296 1_555 1_555
C296 O64 1_555 1_555
C297 C298 1_555 1_555
C298 O65 1_555 1_555
C299 C300 1_555 1_555
C300 O66 1_555 1_555
C301 C302 1_555 1_555
C302 O61 1_555 1_555
O61 C291 1_555 1_555
O62 C293 1_555 1_555
O63 C295 1_555 1_555
O64 C297 1_555 1_555
O65 C299 1_555 1_555
O66 C301 1_555 1_555
C303 C304 1_555 1_555
C304 O68 1_555 1_555
C305 C306 1_555 1_555
C306 O69 1_555 1_555
C307 C308 1_555 1_555
C308 O70 1_555 1_555
C309 C310 1_555 1_555
C310 O71 1_555 1_555
C311 C312 1_555 1_555
C312 O72 1_555 1_555
C313 C314 1_555 1_555
C314 O67 1_555 1_555
O67 C303 1_555 1_555
O68 C305 1_555 1_555
O69 C307 1_555 1_555
O70 C309 1_555 1_555
O71 C311 1_555 1_555
O72 C313 1_555 1_555
C315 C316 1_555 1_555
C316 O74 1_555 1_555
C317 C318 1_555 1_555
C318 O75 1_555 1_555
C319 C320 1_555 1_555
C320 O76 1_555 1_555
C321 C322 1_555 1_555
C322 O77 1_555 1_555
C323 C324 1_555 1_555
C324 O78 1_555 1_555
C325 C326 1_555 1_555
C326 O73 1_555 1_555
O73 C315 1_555 1_555
O74 C317 1_555 1_555
O75 C319 1_555 1_555
O76 C321 1_555 1_555
O77 C323 1_555 1_555
O78 C325 1_555 1_555
O79 P1 1_555 1_555
O80 P1 1_555 1_555
O81 P1 1_555 1_555
O82 P1 1_555 1_555
O83 P2 1_555 1_555
O84 P2 1_555 1_555
O85 P2 1_555 1_555
O86 P2 1_555 1_555
O87 P3 1_555 1_555
O88 P3 1_555 1_555
O89 P3 1_555 1_555
O90 P3 1_555 1_555
O91 P4 1_555 1_555
O92 P4 1_555 1_555
O93 P4 1_555 1_555
O94 P4 1_555 1_555
F1 C327 1_555 1_555
C327 F2 1_555 1_555
F3 C327 1_555 1_555
C328 C327 1_555 1_555
H205 C328 1_555 1_555
H206 C328 1_555 1_555
H207 C328 1_555 1_555
C5 C6 1_555 1_555
C7 C8 1_555 1_555
C11 C12 1_555 1_555
C14 N2 1_555 1_555
C18 C19 1_555 1_555
C21 N4 1_555 1_555
C25 C26 1_555 1_555
C31 C32 1_555 1_555
C34 N7 1_555 1_555
C38 C39 1_555 1_555
C41 N9 1_555 1_555
C45 C46 1_555 1_555
C51 C52 1_555 1_555
C54 N12 1_555 1_555
C58 C59 1_555 1_555
C61 N14 1_555 1_555
C65 C66 1_555 1_555
C73 C74 1_555 1_555
C79 C80 1_555 1_555
C82 N18 1_555 1_555
C86 C87 1_555 1_555
C89 N20 1_555 1_555
C93 C94 1_555 1_555
C99 C100 1_555 1_555
C102 N23 1_555 1_555
C106 C107 1_555 1_555
C109 N25 1_555 1_555
C113 C114 1_555 1_555
C119 C120 1_555 1_555
C122 N28 1_555 1_555
C126 C127 1_555 1_555
C129 N30 1_555 1_555
C133 C134 1_555 1_555
C163 C164 1_555 1_555
C169 C170 1_555 1_555
C172 N33 1_555 1_555
C176 C177 1_555 1_555
C179 N35 1_555 1_555
C183 C184 1_555 1_555
C189 C190 1_555 1_555
C192 N38 1_555 1_555
C196 C197 1_555 1_555
C199 N40 1_555 1_555
C203 C204 1_555 1_555
C209 C210 1_555 1_555
C212 N43 1_555 1_555
C216 C217 1_555 1_555
C219 N45 1_555 1_555
C223 C224 1_555 1_555
C229 C230 1_555 1_555
C235 C236 1_555 1_555
C238 N48 1_555 1_555
C242 C243 1_555 1_555
C245 N50 1_555 1_555
C249 C250 1_555 1_555
C255 C256 1_555 1_555
C258 N53 1_555 1_555
C262 C263 1_555 1_555
C265 N55 1_555 1_555
C269 C270 1_555 1_555
C275 C276 1_555 1_555
C278 N58 1_555 1_555
C282 C283 1_555 1_555
C285 N60 1_555 1_555
C289 C290 1_555 1_555

#END
