
#######################################################################
#
#                 Cambridge Crystallographic Data Centre
#                                CCDC 
#
#######################################################################
#
# If this CIF has been generated from an entry in the Cambridge 
# Structural Database, then it will include bibliographic, chemical, 
# crystal, experimental, refinement or atomic coordinate data resulting 
# from the CCDC's data processing and validation procedures.
#
#######################################################################

data_VULYEI
_chemical_formula_moiety         
'4(C66 H51 N15 O12),12(K1 1+),12(C12 H24 O6),4(O4 P1 3-),C1 Cl3 F1'
_chemical_name_systematic        
'tetrakis(1,3,5-tris(4-(3-(2-(3-(4-Nitrophenyl)ureido)phenyl)ureido)phenyl)benzene) dodeca-potassium dodecakis(18-crown-6) tetrakis(phosphate) trichlorofluoromethane solvate'
_symmetry_cell_setting           monoclinic
_symmetry_space_group_name_H-M   'C c'
_symmetry_Int_Tables_number      9
_space_group_name_Hall           'C -2yc'
loop_
_symmetry_equiv_pos_site_id
_symmetry_equiv_pos_as_xyz
1 x,y,z
2 x,-y,1/2+z
3 1/2+x,1/2+y,z
4 1/2+x,1/2-y,1/2+z
_cell_length_a                   47.7650(11)
_cell_length_b                   24.0770(6)
_cell_length_c                   47.6894(11)
_cell_angle_alpha                90
_cell_angle_beta                 101.7770(10)
_cell_angle_gamma                90
_cell_volume                     53690.1
_exptl_crystal_colour            yellow
_exptl_crystal_description       block
_cell_formula_units_Z            4
loop_
_atom_site_label
_atom_site_type_symbol
_atom_site_fract_x
_atom_site_fract_y
_atom_site_fract_z
C1 C 0.4416(2) 0.1935(4) 0.0844(2)
H1 H 0.4514 0.2228 0.0781
C2 C 0.4251(2) 0.1577(4) 0.0639(2)
C3 C 0.4118(2) 0.1140(4) 0.0731(2)
H2 H 0.4018 0.0895 0.0597
C4 C 0.4126(2) 0.1038(4) 0.10309(19)
C5 C 0.42881(19) 0.1401(4) 0.12234(19)
H3 H 0.4302 0.1342 0.1418
C6 C 0.44352(18) 0.1863(3) 0.11315(18)
C7 C 0.4233(2) 0.1655(4) 0.0334(2)
C8 C 0.4214(3) 0.1239(5) 0.0150(3)
H4 H 0.4213 0.0881 0.0223
C9 C 0.4197(2) 0.1296(5) -0.0147(2)
H5 H 0.4174 0.0984 -0.0264
C10 C 0.42151(19) 0.1802(4) -0.02600(18)
C11 C 0.4265(2) 0.2234(5) -0.0075(2)
H6 H 0.4287 0.2588 -0.0146
C12 C 0.4283(2) 0.2166(4) 0.0216(2)
H7 H 0.4331 0.2469 0.0337
C13 C 0.4087(2) 0.1586(4) -0.0776(2)
C14 C 0.3997(2) 0.1602(5) -0.1309(2)
C15 C 0.3757(3) 0.1238(5) -0.1354(3)
H8 H 0.3692 0.1112 -0.1194
C16 C 0.3620(4) 0.1066(6) -0.1614(3)
H9 H 0.3449 0.0871 -0.1639
C17 C 0.3749(3) 0.1193(6) -0.1851(3)
H10 H 0.3681 0.1032 -0.2029
C18 C 0.3974(3) 0.1554(6) -0.1812(3)
H11 H 0.4033 0.1693 -0.1972
C19 C 0.4121(2) 0.1727(4) -0.1537(2)
C20 C 0.4549(3) 0.2058(6) -0.1662(3)
C21 C 0.4994(3) 0.2517(5) -0.1704(2)
C22 C 0.5024(3) 0.2312(5) -0.1950(3)
H12 H 0.4894 0.2050 -0.2041
C23 C 0.5260(4) 0.2489(7) -0.2083(4)
H13 H 0.5292 0.2293 -0.2242
C24 C 0.5415(3) 0.2879(5) -0.1997(3)
C25 C 0.5407(4) 0.3153(6) -0.1724(3)
H14 H 0.5544 0.3408 -0.1639
C26 C 0.5163(3) 0.2991(5) -0.1593(3)
H15 H 0.5120 0.3194 -0.1441
C27 C 0.39744(18) 0.0556(3) 0.11193(17)
C28 C 0.39240(19) 0.0096(3) 0.09487(18)
H16 H 0.3984 0.0084 0.0775
C29 C 0.37759(18) -0.0373(3) 0.10428(17)
H17 H 0.3754 -0.0700 0.0937
C30 C 0.3667(2) -0.0334(4) 0.12923(19)
C31 C 0.37138(19) 0.0128(3) 0.14591(18)
H18 H 0.3644 0.0149 0.1627
C32 C 0.38678(17) 0.0574(3) 0.13770(17)
H19 H 0.3901 0.0887 0.1493
C33 C 0.3482(2) -0.0959(4) 0.1635(2)
C34 C 0.3242(2) -0.1682(4) 0.1874(2)
C35 C 0.3270(3) -0.1404(5) 0.2135(2)
H20 H 0.3332 -0.1037 0.2148
C36 C 0.3207(3) -0.1659(5) 0.2379(3)
H21 H 0.3238 -0.1477 0.2554
C37 C 0.3098(3) -0.2180(5) 0.2350(3)
H22 H 0.3043 -0.2348 0.2507
C38 C 0.3064(2) -0.2484(4) 0.2081(2)
H23 H 0.2994 -0.2845 0.2067
C39 C 0.3139(2) -0.2226(4) 0.18458(19)
C40 C 0.3171(2) -0.3088(4) 0.1576(2)
C41 C 0.32127(16) -0.3817(2) 0.12312(14)
C42 C 0.3223(2) -0.4276(3) 0.14100(13)
H24 H 0.3200 -0.4230 0.1598
C43 C 0.3267(2) -0.4803(3) 0.13085(18)
H25 H 0.3274 -0.5110 0.1428
C44 C 0.3301(2) -0.4872(2) 0.10281(19)
C45 C 0.3291(2) -0.4413(3) 0.08492(14)
H26 H 0.3314 -0.4459 0.0662
C46 C 0.32471(19) -0.3886(3) 0.09507(14)
H27 H 0.3240 -0.3579 0.0831
C47 C 0.45918(19) 0.2279(4) 0.13409(18)
C48 C 0.4619(2) 0.2785(4) 0.1278(2)
H28 H 0.4553 0.2887 0.1088
C49 C 0.4735(2) 0.3194(4) 0.1463(2)
H29 H 0.4741 0.3559 0.1401
C50 C 0.48442(19) 0.3050(4) 0.17472(18)
C51 C 0.4852(2) 0.2494(4) 0.1812(2)
H30 H 0.4943 0.2378 0.1994
C52 C 0.4729(2) 0.2112(4) 0.1618(2)
H31 H 0.4734 0.1738 0.1667
C53 C 0.50635(19) 0.3952(4) 0.19149(18)
C54 C 0.5277(2) 0.4770(4) 0.21749(19)
C55 C 0.5206(3) 0.5159(5) 0.1960(3)
H32 H 0.5076 0.5056 0.1796
C56 C 0.5318(2) 0.5700(5) 0.1972(2)
H33 H 0.5259 0.5971 0.1834
C57 C 0.5534(3) 0.5781(5) 0.2221(2)
H34 H 0.5635 0.6112 0.2229
C58 C 0.5609(2) 0.5446(4) 0.24429(19)
H35 H 0.5738 0.5562 0.2606
C59 C 0.54878(19) 0.4900(4) 0.24280(18)
C60 C 0.58055(18) 0.4443(3) 0.28245(17)
C61 C 0.6052(2) 0.3865(4) 0.32301(19)
C62 C 0.6330(2) 0.4013(4) 0.3214(2)
H36 H 0.6365 0.4243 0.3068
C63 C 0.6550(2) 0.3816(4) 0.3417(2)
H37 H 0.6738 0.3905 0.3410
C64 C 0.6491(2) 0.3478(4) 0.3635(2)
C65 C 0.6225(2) 0.3328(5) 0.3647(2)
H38 H 0.6191 0.3089 0.3789
C66 C 0.5998(2) 0.3539(4) 0.34419(19)
H39 H 0.5811 0.3453 0.3452
N1 N 0.42220(16) 0.1922(3) -0.05541(15)
H40 H 0.4313 0.2211 -0.0593
N2 N 0.41230(19) 0.1806(4) -0.10287(17)
H41 H 0.4231 0.2093 -0.1020
N3 N 0.4358(2) 0.2054(4) -0.1489(2)
H42 H 0.4388 0.2267 -0.1342
N4 N 0.4793(2) 0.2413(4) -0.1554(2)
H43 H 0.4807 0.2562 -0.1388
N5 N 0.5625(3) 0.3099(5) -0.2130(3)
N6 N 0.34880(17) -0.0789(3) 0.13533(16)
H44 H 0.3382 -0.0960 0.1212
N7 N 0.33089(16) -0.1409(3) 0.16259(16)
H45 H 0.3234 -0.1542 0.1460
N8 N 0.31163(16) -0.2522(3) 0.15978(15)
H46 H 0.3063 -0.2343 0.1440
N9 N 0.31666(16) -0.3255(3) 0.13003(16)
H47 H 0.3135 -0.3012 0.1165
N10 N 0.3300(3) -0.5412(6) 0.0884(3)
N11 N 0.49601(16) 0.3421(3) 0.19692(16)
H48 H 0.4968 0.3322 0.2144
N12 N 0.51427(16) 0.4240(3) 0.21705(16)
H49 H 0.5111 0.4099 0.2327
N13 N 0.55414(15) 0.4514(3) 0.26500(14)
H50 H 0.5402 0.4311 0.2679
N14 N 0.58047(16) 0.4037(3) 0.30220(15)
H51 H 0.5645 0.3871 0.3023
N15 N 0.6731(3) 0.3238(5) 0.3840(2)
O1 O 0.39526(16) 0.1181(3) -0.07511(15)
O2 O 0.4553(2) 0.1746(4) -0.1860(2)
O3 O 0.5773(2) 0.3480(4) -0.2052(2)
O4 O 0.5670(3) 0.2834(5) -0.2342(3)
O5 O 0.36160(15) -0.0731(3) 0.18445(15)
O6 O 0.32163(16) -0.3387(3) 0.17792(15)
O7 O 0.3366(4) -0.5802(7) 0.1120(4)
O8 O 0.3486(3) -0.5511(6) 0.0790(3)
O9 O 0.51074(15) 0.4102(3) 0.16827(15)
O10 O 0.60142(13) 0.4748(3) 0.28078(13)
O11 O 0.6983(2) 0.3319(4) 0.3803(2)
O12 O 0.6683(2) 0.3046(4) 0.4056(2)
K1 K 0.38356(10) -0.62103(18) 0.13342(9)
C67 C 0.55746(18) 0.1732(3) 0.13462(18)
C68 C 0.5721(2) 0.1277(4) 0.1270(2)
H52 H 0.5831 0.1055 0.1411
C69 C 0.5705(2) 0.1150(4) 0.0976(2)
C70 C 0.55319(19) 0.1499(4) 0.0773(2)
H53 H 0.5518 0.1424 0.0580
C71 C 0.5389(2) 0.1926(4) 0.0846(2)
C72 C 0.5389(2) 0.2033(4) 0.1133(2)
H54 H 0.5267 0.2299 0.1183
C73 C 0.52042(19) 0.2276(4) 0.06249(19)
C74 C 0.5121(2) 0.2823(4) 0.0679(2)
H55 H 0.5171 0.2966 0.0864
C75 C 0.4968(2) 0.3151(4) 0.0461(2)
H56 H 0.4913 0.3504 0.0509
C76 C 0.4891(2) 0.2985(4) 0.0179(2)
C77 C 0.4958(2) 0.2432(5) 0.0118(2)
H57 H 0.4898 0.2288 -0.0065
C78 C 0.5116(3) 0.2104(5) 0.0338(2)
H58 H 0.5166 0.1748 0.0291
C79 C 0.4592(2) 0.3761(4) -0.00392(19)
C80 C 0.4344(2) 0.4511(4) -0.03285(19)
C81 C 0.4384(2) 0.4931(4) -0.0133(2)
H59 H 0.4520 0.4890 0.0036
C82 C 0.4224(2) 0.5429(4) -0.0181(2)
H60 H 0.4239 0.5694 -0.0037
C83 C 0.4047(2) 0.5514(5) -0.0441(2)
H61 H 0.3950 0.5851 -0.0475
C84 C 0.4006(2) 0.5128(4) -0.0652(2)
H62 H 0.3883 0.5199 -0.0827
C85 C 0.4155(2) 0.4600(4) -0.06035(19)
C86 C 0.3869(2) 0.4058(4) -0.0998(2)
C87 C 0.36639(15) 0.3405(3) -0.13797(15)
C88 C 0.33969(17) 0.3651(3) -0.14653(18)
H63 H 0.3365 0.4007 -0.1403
C89 C 0.31778(14) 0.3366(3) -0.16445(18)
H64 H 0.2999 0.3531 -0.1702
C90 C 0.32258(15) 0.2834(3) -0.17382(16)
C91 C 0.34928(17) 0.2588(2) -0.16526(17)
H65 H 0.3525 0.2232 -0.1715
C92 C 0.37118(13) 0.2873(3) -0.14734(16)
H66 H 0.3890 0.2709 -0.1416
C93 C 0.55897(18) 0.1852(3) 0.16553(18)
C94 C 0.55085(18) 0.2382(4) 0.17355(18)
H67 H 0.5450 0.2654 0.1598
C95 C 0.55177(19) 0.2493(4) 0.20264(18)
H68 H 0.5460 0.2841 0.2077
C96 C 0.56066(18) 0.2117(3) 0.22341(18)
C97 C 0.56828(19) 0.1577(4) 0.21566(19)
H69 H 0.5733 0.1301 0.2294
C98 C 0.5680(2) 0.1471(4) 0.18662(19)
H70 H 0.5741 0.1126 0.1816
C99 C 0.57534(18) 0.2040(3) 0.27614(17)
C100 C 0.5850(2) 0.2166(4) 0.3286(2)
C101 C 0.6127(3) 0.1961(5) 0.3347(2)
H71 H 0.6228 0.1914 0.3201
C102 C 0.6257(3) 0.1822(5) 0.3635(3)
H72 H 0.6443 0.1685 0.3672
C103 C 0.6115(3) 0.1883(5) 0.3864(3)
H73 H 0.6202 0.1795 0.4051
C104 C 0.5825(3) 0.2093(5) 0.3787(3)
H74 H 0.5722 0.2127 0.3932
C105 C 0.5690(2) 0.2247(4) 0.3510(2)
C106 C 0.5208(2) 0.2405(4) 0.3603(2)
C107 C 0.47384(19) 0.2755(4) 0.36391(18)
C108 C 0.4740(2) 0.2592(4) 0.3917(2)
H75 H 0.4895 0.2392 0.4017
C109 C 0.4507(3) 0.2724(5) 0.4055(3)
H76 H 0.4509 0.2623 0.4243
C110 C 0.4276(2) 0.3012(4) 0.3889(2)
C111 C 0.4280(2) 0.3185(4) 0.3617(2)
H77 H 0.4132 0.3404 0.3518
C112 C 0.4494(2) 0.3042(4) 0.3497(2)
H78 H 0.4482 0.3137 0.3306
C113 C 0.58636(19) 0.0678(4) 0.08920(19)
C114 C 0.5761(3) 0.0387(5) 0.0650(3)
H79 H 0.5582 0.0485 0.0544
C115 C 0.5907(3) -0.0056(6) 0.0546(3)
H80 H 0.5835 -0.0210 0.0367
C116 C 0.61467(18) -0.0249(3) 0.07091(17)
C117 C 0.6280(3) 0.0033(5) 0.0968(2)
H81 H 0.6456 -0.0079 0.1074
C118 C 0.6135(2) 0.0477(4) 0.1051(2)
H82 H 0.6216 0.0659 0.1219
C119 C 0.62851(19) -0.0914(4) 0.03778(18)
C120 C 0.65011(18) -0.1619(3) 0.01059(17)
C121 C 0.6483(2) -0.1320(4) -0.01412(19)
H83 H 0.6440 -0.0943 -0.0145
C122 C 0.6531(2) -0.1591(5) -0.0392(2)
H84 H 0.6507 -0.1393 -0.0562
C123 C 0.6609(2) -0.2113(4) -0.0388(2)
H85 H 0.6643 -0.2278 -0.0554
C124 C 0.6639(2) -0.2422(4) -0.01343(19)
H86 H 0.6702 -0.2789 -0.0132
C125 C 0.6579(2) -0.2194(4) 0.01115(19)
C126 C 0.65481(19) -0.3041(4) 0.03819(19)
C127 C 0.6523(2) -0.3793(4) 0.0730(2)
C128 C 0.6477(3) -0.3884(5) 0.0996(3)
H87 H 0.6452 -0.3578 0.1107
C129 C 0.6463(3) -0.4425(6) 0.1116(3)
H88 H 0.6436 -0.4489 0.1301
C130 C 0.6495(3) -0.4858(5) 0.0917(3)
C131 C 0.6528(3) -0.4804(6) 0.0674(3)
H89 H 0.6537 -0.5115 0.0561
C132 C 0.6554(3) -0.4230(5) 0.0556(3)
H90 H 0.6589 -0.4177 0.0373
N16 N 0.47536(16) 0.3289(3) -0.00501(16)
H91 H 0.4769 0.3175 -0.0217
N17 N 0.44890(16) 0.3991(3) -0.02957(16)
H92 H 0.4512 0.3818 -0.0447
N18 N 0.41238(17) 0.4180(3) -0.08153(16)
H93 H 0.4272 0.3990 -0.0831
N19 N 0.3888(2) 0.3636(4) -0.11768(18)
H94 H 0.4055 0.3492 -0.1166
N20 N 0.3004(3) 0.2516(5) -0.1930(3)
N21 N 0.55933(15) 0.2250(3) 0.25128(14)
H95 H 0.5468 0.2496 0.2533
N22 N 0.57180(17) 0.2309(3) 0.30099(16)
H96 H 0.5604 0.2589 0.2990
N23 N 0.54182(16) 0.2467(3) 0.34446(15)
H97 H 0.5375 0.2662 0.3290
N24 N 0.49688(16) 0.2676(3) 0.34982(16)
H98 H 0.4952 0.2816 0.3330
N25 N 0.4039(2) 0.3144(4) 0.40235(19)
N26 N 0.62955(16) -0.0731(3) 0.06463(15)
H99 H 0.6397 -0.0913 0.0786
N27 N 0.64519(16) -0.1365(3) 0.03629(16)
H100 H 0.6536 -0.1512 0.0523
N28 N 0.66051(14) -0.2487(3) 0.03727(14)
H101 H 0.6659 -0.2310 0.0531
N29 N 0.65658(16) -0.3245(3) 0.06561(16)
H102 H 0.6607 -0.3010 0.0794
N30 N 0.6467(2) -0.5435(5) 0.1055(2)
O13 O 0.45398(16) 0.3927(3) 0.01992(16)
O14 O 0.36524(17) 0.4321(3) -0.09842(16)
O15 O 0.3031(2) 0.2048(4) -0.1965(2)
O16 O 0.2799(5) 0.2799(8) -0.2002(4)
O17 O 0.59125(16) 0.1640(3) 0.27618(15)
O18 O 0.52458(16) 0.2085(3) 0.38135(15)
O19 O 0.40209(19) 0.2935(3) 0.42583(18)
O20 O 0.3865(2) 0.3452(4) 0.3911(2)
O21 O 0.61457(16) -0.0683(3) 0.01553(15)
O22 O 0.64781(14) -0.3343(3) 0.01675(14)
O23 O 0.6425(2) -0.5768(4) 0.0881(2)
O24 O 0.6509(2) -0.5481(4) 0.1310(2)
K2 K 0.61909(5) 0.26224(10) 0.18687(5)
C133 C 0.9987(2) 0.4092(4) 0.03413(19)
C134 C 1.0062(2) 0.4548(4) 0.0186(2)
H103 H 1.0253 0.4611 0.0180
C135 C 0.9855(2) 0.4899(5) 0.0042(2)
C136 C 0.9567(2) 0.4795(4) 0.0049(2)
H104 H 0.9426 0.5013 -0.0064
C137 C 0.9482(2) 0.4376(4) 0.02182(19)
C138 C 0.9695(2) 0.4056(4) 0.0354(2)
H105 H 0.9646 0.3778 0.0470
C139 C 0.9181(2) 0.4315(4) 0.0239(2)
C140 C 0.8973(2) 0.4706(4) 0.0141(2)
H106 H 0.9023 0.5011 0.0042
C141 C 0.8694(2) 0.4673(4) 0.0180(2)
H107 H 0.8563 0.4955 0.0115
C142 C 0.86123(19) 0.4209(4) 0.03177(18)
C143 C 0.8810(2) 0.3800(4) 0.0409(2)
H108 H 0.8760 0.3491 0.0505
C144 C 0.9077(2) 0.3853(4) 0.0359(2)
H109 H 0.9201 0.3555 0.0408
C145 C 0.8099(2) 0.4396(4) 0.0250(2)
C146 C 0.7571(3) 0.4345(5) 0.0210(3)
C147 C 0.7494(3) 0.4594(5) -0.0067(3)
H110 H 0.7635 0.4674 -0.0170
C148 C 0.7213(4) 0.4717(7) -0.0184(4)
H111 H 0.7162 0.4867 -0.0367
C149 C 0.7004(5) 0.4614(9) -0.0023(5)
H112 H 0.6813 0.4686 -0.0106
C150 C 0.7074(4) 0.4393(7) 0.0273(4)
H113 H 0.6935 0.4342 0.0381
C151 C 0.7358(3) 0.4267(6) 0.0380(3)
C152 C 0.7297(3) 0.3963(5) 0.0852(2)
C153 C 0.7298(2) 0.3516(5) 0.1317(2)
C154 C 0.7001(2) 0.3544(4) 0.1310(2)
H114 H 0.6872 0.3650 0.1145
C155 C 0.6908(2) 0.3406(4) 0.1561(2)
H115 H 0.6715 0.3442 0.1566
C156 C 0.7089(3) 0.3225(5) 0.1793(3)
C157 C 0.7367(3) 0.3142(6) 0.1787(3)
H116 H 0.7483 0.2974 0.1944
C158 C 0.7482(3) 0.3288(5) 0.1568(3)
H117 H 0.7676 0.3245 0.1576
C159 C 0.9928(2) 0.5379(3) -0.01330(19)
C160 C 0.97310(17) 0.5624(4) -0.0353(2)
H118 H 0.9552 0.5463 -0.0415
C161 C 0.9801(2) 0.6110(4) -0.04800(19)
H119 H 0.9669 0.6274 -0.0627
C162 C 1.0068(2) 0.6351(3) -0.0388(2)
C163 C 1.02657(19) 0.6106(4) -0.0168(2)
H120 H 1.0445 0.6267 -0.0106
C164 C 1.01958(18) 0.5620(4) -0.00406(19)
H121 H 1.0328 0.5456 0.0106
C165 C 1.0417(4) 0.6981(7) -0.0591(4)
C166 C 1.0606(2) 0.7623(4) -0.0895(2)
C167 C 1.0809(3) 0.7281(3) -0.0978(3)
H122 H 1.0797 0.6898 -0.0960
C168 C 1.1031(2) 0.7512(4) -0.1087(3)
H123 H 1.1167 0.7283 -0.1143
C169 C 1.10500(19) 0.8085(5) -0.1114(2)
H124 H 1.1199 0.8239 -0.1188
C170 C 1.0847(2) 0.8427(3) -0.1032(2)
H125 H 1.0859 0.8810 -0.1050
C171 C 1.06247(17) 0.8196(3) -0.09225(19)
C172 C 1.0392(2) 0.9046(4) -0.0788(2)
C173 C 1.00968(18) 0.9775(3) -0.06500(18)
C174 C 1.0309(2) 1.0076(4) -0.0482(2)
H126 H 1.0495 0.9939 -0.0435
C175 C 1.0240(3) 1.0616(5) -0.0376(2)
H127 H 1.0380 1.0830 -0.0260
C176 C 0.9974(2) 1.0790(4) -0.0449(2)
C177 C 0.9748(2) 1.0506(4) -0.0620(2)
H128 H 0.9566 1.0660 -0.0666
C178 C 0.98034(19) 0.9999(4) -0.07154(18)
H129 H 0.9656 0.9790 -0.0823
C179 C 1.02163(19) 0.3743(4) 0.05182(18)
C180 C 1.0159(3) 0.3401(5) 0.0725(2)
H130 H 0.9972 0.3362 0.0748
C181 C 1.0376(3) 0.3107(5) 0.0903(3)
H131 H 1.0335 0.2899 0.1054
C182 C 1.06530(18) 0.3122(3) 0.08596(17)
C183 C 1.0704(3) 0.3424(5) 0.0635(2)
H132 H 1.0887 0.3426 0.0597
C184 C 1.0501(3) 0.3714(5) 0.0471(2)
H133 H 1.0545 0.3908 0.0317
C185 C 1.0862(2) 0.2382(4) 0.1208(2)
C186 C 1.1161(2) 0.1708(4) 0.1511(2)
C187 C 1.0931(4) 0.1289(6) 0.1501(3)
H134 H 1.0750 0.1327 0.1385
C188 C 1.1013(4) 0.0810(7) 0.1688(3)
H135 H 1.0870 0.0558 0.1704
C189 C 1.1269(4) 0.0706(7) 0.1836(3)
H136 H 1.1310 0.0381 0.1942
C190 C 1.1492(3) 0.1135(6) 0.1826(3)
H137 H 1.1677 0.1078 0.1931
C191 C 1.1437(2) 0.1575(5) 0.1680(2)
C192 C 1.1841(3) 0.2158(5) 0.1899(3)
C193 C 1.2250(3) 0.2780(5) 0.2055(3)
C194 C 1.2396(4) 0.2433(8) 0.2301(4)
H138 H 1.2345 0.2062 0.2314
C195 C 1.2611(4) 0.2674(8) 0.2513(4)
H139 H 1.2706 0.2473 0.2670
C196 C 1.2668(3) 0.3188(6) 0.2476(3)
C197 C 1.2558(4) 0.3496(7) 0.2230(3)
H140 H 1.2620 0.3856 0.2207
C198 C 1.2356(3) 0.3248(5) 0.2025(3)
H141 H 1.2293 0.3436 0.1854
N31 N 0.83332(16) 0.4131(3) 0.03752(16)
H142 H 0.8316 0.3889 0.0503
N32 N 0.78515(18) 0.4170(3) 0.03132(18)
H143 H 0.7874 0.3891 0.0429
N33 N 0.7439(2) 0.3960(4) 0.0633(2)
H144 H 0.7589 0.3755 0.0651
N34 N 0.7412(2) 0.3619(4) 0.1080(2)
H145 H 0.7570 0.3453 0.1072
N35 N 0.6979(2) 0.3069(4) 0.2046(2)
N36 N 1.0146(2) 0.6845(4) -0.0505(2)
H146 H 1.0019 0.7104 -0.0530
N37 N 1.0380(3) 0.7374(5) -0.0789(3)
H147 H 1.0208 0.7485 -0.0858
N38 N 1.03834(19) 0.8510(3) -0.08759(17)
H148 H 1.0220 0.8345 -0.0906
N39 N 1.01297(16) 0.9250(3) -0.07521(15)
H149 H 0.9982 0.9040 -0.0795
N40 N 0.9904(2) 1.1350(4) -0.03472(18)
N41 N 1.08887(17) 0.2832(3) 0.10359(16)
H150 H 1.1059 0.2948 0.1034
N42 N 1.11196(18) 0.2178(3) 0.13456(17)
H151 H 1.1270 0.2361 0.1328
N43 N 1.16586(19) 0.1993(4) 0.16590(19)
H152 H 1.1671 0.2130 0.1495
N44 N 1.20472(19) 0.2539(4) 0.18670(19)
H153 H 1.2042 0.2638 0.1693
N45 N 1.2892(4) 0.3544(8) 0.2712(4)
O25 O 0.80864(16) 0.4836(3) 0.00942(15)
O26 O 0.70828(19) 0.4274(3) 0.08713(18)
O27 O 0.7143(3) 0.2937(5) 0.2270(2)
O28 O 0.67154(18) 0.3108(3) 0.20356(17)
O29 O 1.0614(3) 0.6661(6) -0.0547(3)
O30 O 1.06123(15) 0.9338(3) -0.07495(14)
O31 O 1.0107(2) 1.1654(4) -0.02426(19)
O32 O 0.96588(18) 1.1517(3) -0.03912(17)
O33 O 1.06265(17) 0.2186(3) 0.12344(16)
O34 O 1.1877(2) 0.1906(4) 0.2148(2)
O35 O 1.2954(4) 0.3186(7) 0.2925(4)
O36 O 1.2971(4) 0.3932(7) 0.2638(3)
K3 K 0.78374(5) 0.58255(9) -0.00289(5)
C199 C 0.7321(6) 0.5948(11) -0.0660(7)
C200 C 0.7492(4) 0.5657(8) -0.0790(4)
C201 C 0.8042(8) 0.5594(14) -0.0639(7)
C202 C 0.8314(5) 0.6082(9) -0.0530(5)
C203 C 0.8469(3) 0.6562(6) -0.0117(3)
C204 C 0.8548(7) 0.6361(12) 0.0175(7)
C205 C 0.8363(4) 0.6099(7) 0.0584(4)
C206 C 0.8142(7) 0.6261(12) 0.0748(6)
C207 C 0.7625(8) 0.6250(13) 0.0624(7)
C208 C 0.7377(3) 0.5985(6) 0.0454(3)
C209 C 0.7059(6) 0.6050(11) -0.0030(6)
C210 C 0.7146(3) 0.6402(6) -0.0278(3)
O37 O 0.7325(4) 0.5910(7) -0.0414(4)
O38 O 0.7800(4) 0.5933(6) -0.0648(3)
O39 O 0.8326(2) 0.6072(4) -0.0212(2)
O40 O 0.8277(3) 0.6445(6) 0.0311(3)
O41 O 0.7826(3) 0.6016(5) 0.0538(3)
O42 O 0.7336(5) 0.6177(8) 0.0155(4)
C211 C 0.6089(3) 0.3394(5) 0.2475(3)
C212 C 0.6348(3) 0.3033(5) 0.2620(2)
C213 C 0.6518(3) 0.2126(6) 0.2584(3)
C214 C 0.6490(3) 0.1620(6) 0.2390(3)
C215 C 0.6531(3) 0.1270(6) 0.1943(3)
C216 C 0.6620(3) 0.1448(5) 0.1696(3)
C217 C 0.6458(4) 0.2037(7) 0.1268(3)
C218 C 0.6210(3) 0.2364(6) 0.1119(3)
C219 C 0.5946(4) 0.3178(8) 0.1131(4)
C220 C 0.5941(4) 0.3736(7) 0.1337(4)
C221 C 0.5920(3) 0.4082(6) 0.1786(3)
C222 C 0.5904(3) 0.3936(6) 0.2093(3)
O43 O 0.61135(18) 0.3536(3) 0.21984(17)
O44 O 0.63018(17) 0.2512(3) 0.24570(16)
O45 O 0.65421(18) 0.1750(3) 0.21207(17)
O46 O 0.6397(2) 0.1817(4) 0.15341(19)
O47 O 0.6181(2) 0.2821(4) 0.1287(2)
O48 O 0.5906(2) 0.3604(4) 0.1604(2)
C223 C 1.0166(3) 1.0202(6) -0.1619(3)
C224 C 1.0262(3) 0.9570(5) -0.1566(3)
C225 C 1.0681(3) 0.9698(6) -0.1665(3)
C226 C 1.1049(3) 0.9480(6) -0.1574(3)
C227 C 1.1406(4) 0.9630(7) -0.1196(4)
C228 C 1.1519(6) 0.9847(11) -0.0851(6)
C229 C 1.1385(5) 1.0470(9) -0.0550(5)
C230 C 1.1287(4) 1.0728(8) -0.0379(4)
C231 C 1.0924(5) 1.1551(9) -0.0628(4)
C232 C 1.0669(3) 1.1634(6) -0.0727(3)
C233 C 1.0264(4) 1.1299(6) -0.1075(3)
C234 C 1.0182(2) 1.1010(5) -0.1352(2)
O49 O 1.0254(2) 1.0473(4) -0.1350(2)
O50 O 1.0549(2) 0.9540(4) -0.1481(2)
O51 O 1.1128(3) 0.9767(5) -0.1301(3)
O52 O 1.1378(3) 1.0250(6) -0.0787(3)
O53 O 1.0988(3) 1.1077(6) -0.0581(3)
O54 O 1.0549(2) 1.1313(4) -0.0986(2)
K4 K 1.07851(5) 1.02277(9) -0.09879(5)
K5 K 1.18119(13) 0.2533(2) 0.26731(12)
C235 C 0.9468(3) 1.2072(6) 0.0248(3)
C236 C 0.9686(4) 1.1942(7) 0.0513(4)
C237 C 1.0179(4) 1.1680(7) 0.0637(4)
C238 C 1.0443(4) 1.1514(7) 0.0507(4)
C239 C 1.0771(3) 1.1866(5) 0.0240(3)
C240 C 1.0858(3) 1.2372(5) 0.0122(3)
C241 C 1.0709(3) 1.3101(5) -0.0238(3)
C242 C 1.0462(4) 1.3297(6) -0.0464(3)
C243 C 0.9999(3) 1.3576(6) -0.0557(3)
C244 C 0.9726(3) 1.3666(5) -0.0422(3)
C245 C 0.9376(3) 1.3112(6) -0.0274(3)
C246 C 0.9323(3) 1.2641(6) -0.0124(3)
O55 O 0.95328(18) 1.2523(3) 0.01230(17)
O56 O 0.99640(19) 1.1801(3) 0.04061(19)
O57 O 1.05403(16) 1.1991(3) 0.03874(15)
O58 O 1.06371(17) 1.2601(3) -0.00946(16)
O59 O 1.02267(18) 1.3398(3) -0.03398(17)
O60 O 0.96605(18) 1.3112(3) -0.03483(17)
K6 K 1.01155(9) 1.25599(15) 0.00942(8)
K7 K 1.00842(9) 1.26861(16) 0.00277(8)
C247 C 0.5189(2) 1.0071(4) 0.1831(2)
H154 H 0.5325 1.0334 0.1910
C248 C 0.5278(2) 0.9612(4) 0.1686(2)
C249 C 0.5073(2) 0.9224(4) 0.1571(2)
H155 H 0.5128 0.8910 0.1482
C250 C 0.47824(19) 0.9291(4) 0.15851(18)
C251 C 0.47079(19) 0.9767(4) 0.17328(18)
H156 H 0.4518 0.9828 0.1745
C252 C 0.4920(2) 1.0145(4) 0.18597(19)
C253 C 0.48285(19) 1.0641(4) 0.20125(19)
C254 C 0.4567(2) 1.0786(4) 0.1995(2)
H157 H 0.4426 1.0566 0.1886
C255 C 0.4478(2) 1.1264(4) 0.21327(19)
H158 H 0.4286 1.1359 0.2107
C256 C 0.4677(2) 1.1565(4) 0.22973(19)
C257 C 0.4961(2) 1.1426(4) 0.2321(2)
H159 H 0.5103 1.1649 0.2427
C258 C 0.5033(3) 1.0962(5) 0.2187(2)
H160 H 0.5225 1.0860 0.2214
C259 C 0.4358(2) 1.2147(4) 0.25223(19)
C260 C 0.41199(19) 1.2808(4) 0.27864(18)
C261 C 0.3905(2) 1.2467(4) 0.2841(2)
H161 H 0.3916 1.2086 0.2814
C262 C 0.3673(2) 1.2689(5) 0.2936(2)
H162 H 0.3527 1.2456 0.2967
C263 C 0.3657(2) 1.3242(4) 0.29857(18)
H163 H 0.3499 1.3388 0.3046
C264 C 0.3879(2) 1.3593(4) 0.2945(2)
H164 H 0.3870 1.3969 0.2987
C265 C 0.41050(17) 1.3396(3) 0.28464(17)
C266 C 0.43056(17) 1.4277(3) 0.27298(16)
C267 C 0.46095(19) 1.5068(3) 0.26280(18)
C268 C 0.4388(2) 1.5415(4) 0.24892(19)
H165 H 0.4199 1.5297 0.2453
C269 C 0.4459(2) 1.5921(5) 0.2411(2)
H166 H 0.4316 1.6159 0.2320
C270 C 0.4734(2) 1.6097(4) 0.2461(2)
C271 C 0.4948(2) 1.5773(4) 0.2578(2)
H167 H 0.5136 1.5894 0.2596
C272 C 0.48932(19) 1.5258(4) 0.26737(18)
H168 H 0.5042 1.5035 0.2768
C273 C 0.4567(2) 0.8894(4) 0.14432(19)
C274 C 0.43000(19) 0.8831(4) 0.15225(19)
H169 H 0.4264 0.9032 0.1678
C275 C 0.4097(2) 0.8493(4) 0.13815(19)
H170 H 0.3926 0.8452 0.1444
C276 C 0.41406(18) 0.8191(3) 0.11335(17)
C277 C 0.4401(2) 0.8230(4) 0.1072(2)
H171 H 0.4444 0.8010 0.0927
C278 C 0.4604(2) 0.8577(4) 0.1213(2)
H172 H 0.4776 0.8603 0.1152
C279 C 0.39455(19) 0.7414(4) 0.08322(18)
C280 C 0.36676(13) 0.6695(2) 0.05352(12)
C281 C 0.38843(12) 0.6301(3) 0.05679(13)
H173 H 0.4043 0.6334 0.0716
C282 C 0.38635(14) 0.5857(3) 0.03786(16)
H174 H 0.4008 0.5593 0.0400
C283 C 0.36259(17) 0.5807(3) 0.01566(15)
H175 H 0.3612 0.5510 0.0030
C284 C 0.34092(13) 0.6202(3) 0.01239(13)
H176 H 0.3250 0.6168 -0.0025
C285 C 0.34301(12) 0.6646(2) 0.03132(14)
C286 C 0.3008(3) 0.7154(5) 0.0062(3)
C287 C 0.2588(2) 0.7767(5) -0.0104(2)
C288 C 0.2586(3) 0.7716(5) -0.0395(3)
H177 H 0.2733 0.7525 -0.0455
C289 C 0.2367(3) 0.7952(6) -0.0596(2)
H178 H 0.2366 0.7919 -0.0790
C290 C 0.2148(3) 0.8239(6) -0.0506(3)
C291 C 0.2149(2) 0.8289(5) -0.0215(3)
H179 H 0.2003 0.8481 -0.0155
C292 C 0.2369(3) 0.8053(5) -0.0014(2)
H180 H 0.2370 0.8087 0.0180
C293 C 0.5586(2) 0.9545(4) 0.1652(2)
C294 C 0.5804(2) 0.9812(4) 0.1814(2)
H181 H 0.5763 1.0065 0.1948
C295 C 0.6085(2) 0.9738(4) 0.1796(2)
H182 H 0.6227 0.9944 0.1913
C296 C 0.6156(2) 0.9363(4) 0.1607(2)
C297 C 0.5925(5) 0.9100(9) 0.1431(5)
H183 H 0.5968 0.8841 0.1302
C298 C 0.5644(4) 0.9183(7) 0.1430(3)
H184 H 0.5499 0.9019 0.1295
C299 C 0.6673(2) 0.9557(4) 0.1658(2)
C300 C 0.7196(2) 0.9508(4) 0.1685(2)
C301 C 0.7265(3) 0.9876(5) 0.1906(3)
H185 H 0.7122 0.9989 0.2000
C302 C 0.7540(3) 1.0091(6) 0.1998(3)
H186 H 0.7578 1.0368 0.2136
C303 C 0.7752(3) 0.9876(5) 0.1875(3)
H187 H 0.7941 0.9980 0.1943
C304 C 0.7684(3) 0.9502(5) 0.1650(2)
H188 H 0.7830 0.9363 0.1568
C305 C 0.7408(2) 0.9327(5) 0.1542(2)
C306 C 0.7475(3) 0.8936(6) 0.1098(3)
C307 C 0.7506(3) 0.8258(5) 0.0702(2)
C308 C 0.73155(19) 0.8105(5) 0.0453(3)
H189 H 0.7121 0.8086 0.0452
C309 C 0.7416(2) 0.7980(5) 0.0207(2)
H190 H 0.7288 0.7877 0.0040
C310 C 0.7707(3) 0.8008(5) 0.0209(2)
C311 C 0.78976(19) 0.8161(5) 0.0457(3)
H191 H 0.8092 0.8180 0.0459
C312 C 0.7797(2) 0.8286(5) 0.0704(2)
H192 H 0.7925 0.8389 0.0870
N46 N 0.46045(14) 1.2055(3) 0.24408(13)
H193 H 0.4732 1.2312 0.2477
N47 N 0.43594(14) 1.2608(3) 0.26915(13)
H194 H 0.4518 1.2785 0.2743
N48 N 0.43354(14) 1.3739(3) 0.28069(13)
H195 H 0.4504 1.3595 0.2834
N49 N 0.45704(15) 1.4491(3) 0.27046(14)
H196 H 0.4716 1.4273 0.2735
N50 N 0.4797(2) 1.6670(4) 0.23578(19)
N51 N 0.39076(15) 0.7861(3) 0.09964(14)
H197 H 0.3738 0.7943 0.1017
N52 N 0.36887(17) 0.7156(3) 0.07074(15)
H198 H 0.3533 0.7295 0.0741
N53 N 0.3205(2) 0.7015(4) 0.0290(2)
H199 H 0.3192 0.7181 0.0446
N54 N 0.2809(2) 0.7576(4) 0.0100(2)
H200 H 0.2831 0.7725 0.0267
N55 N 0.1908(5) 0.8515(9) -0.0728(5)
N56 N 0.64287(17) 0.9227(3) 0.15640(16)
H201 H 0.6448 0.8923 0.1475
N57 N 0.69110(17) 0.9340(3) 0.15835(16)
H202 H 0.6884 0.9071 0.1462
N58 N 0.73261(18) 0.8975(3) 0.13078(17)
H203 H 0.7175 0.8775 0.1297
N59 N 0.7349(3) 0.8535(4) 0.0885(2)
H204 H 0.7170 0.8459 0.0866
N60 N 0.7812(4) 0.7756(7) -0.0023(4)
O61 O 0.41451(15) 1.1842(3) 0.24410(15)
O62 O 0.40841(13) 1.4550(2) 0.26908(12)
O63 O 0.5048(2) 1.6795(4) 0.23733(18)
O64 O 0.4599(2) 1.6998(4) 0.2312(2)
O65 O 0.41787(16) 0.7244(3) 0.08002(15)
O66 O 0.2986(2) 0.6913(4) -0.0180(2)
O67 O 0.1950(5) 0.8563(10) -0.0958(6)
O68 O 0.1704(5) 0.8656(9) -0.0589(5)
O69 O 0.66562(17) 0.9996(3) 0.17700(16)
O70 O 0.7694(3) 0.9211(5) 0.1079(3)
O71 O 0.8093(3) 0.7796(5) 0.0010(3)
O72 O 0.7667(4) 0.7537(7) -0.0222(4)
K8 K 0.38803(5) 1.54054(10) 0.29419(5)
K9 K 0.46179(8) 0.78244(15) 0.19182(8)
K10 K 0.45784(10) 0.76677(18) 0.18411(9)
K11 K 0.80303(11) 0.8385(2) -0.04556(11)
C313 C 0.3124(3) 1.5172(5) 0.2883(3)
C314 C 0.3123(4) 1.5662(7) 0.2724(4)
C315 C 0.3340(5) 1.6355(8) 0.2516(4)
C316 C 0.3593(4) 1.6490(7) 0.2413(4)
C317 C 0.3882(3) 1.6847(6) 0.2805(3)
C318 C 0.4171(4) 1.6785(7) 0.2979(3)
C319 C 0.4488(3) 1.6207(5) 0.3312(3)
C320 C 0.4492(2) 1.5697(5) 0.3493(2)
C321 C 0.4397(3) 1.4724(5) 0.3489(2)
C322 C 0.4124(3) 1.4722(5) 0.3632(3)
C323 C 0.3643(3) 1.4649(5) 0.3514(2)
C324 C 0.3376(3) 1.4650(5) 0.3257(2)
O73 O 0.33567(19) 1.5130(3) 0.31030(18)
O74 O 0.3342(3) 1.5744(5) 0.2605(3)
O75 O 0.38233(18) 1.6380(3) 0.26200(17)
O76 O 0.42115(19) 1.6306(3) 0.31458(18)
O77 O 0.44037(16) 1.5218(3) 0.33244(15)
O78 O 0.38866(16) 1.4692(3) 0.34036(15)
C325 C 0.4923(3) 0.0386(5) 0.0924(3)
Cl1 Cl 0.48675(8) 0.07755(14) 0.06087(7)
Cl2 Cl 0.49751(8) 0.08446(14) 0.12144(7)
F1 F 0.52124(13) -0.0004(2) 0.09473(12)
Cl3 Cl 0.46293(4) -0.00223(8) 0.09310(4)
K12 K 0.78840(10) 0.63297(19) 0.16858(9)
K13 K 0.99809(10) 0.51767(18) 0.34480(10)
K14 K 0.6940(3) 0.1297(6) 0.0244(3)
O79 O 0.48478(11) 0.3154(2) 0.29514(11)
O80 O 0.50743(11) 0.2919(2) 0.25307(11)
O81 O 0.53799(12) 0.3237(2) 0.29998(11)
O82 O 0.50519(11) 0.3909(2) 0.26887(11)
P1 P 0.50896(4) 0.32970(8) 0.27924(4)
O83 O 0.43467(15) 0.2884(3) -0.10717(14)
O84 O 0.46704(13) 0.2681(2) -0.05959(13)
O85 O 0.46365(14) 0.3649(3) -0.07970(13)
O86 O 0.48813(15) 0.2893(3) -0.10245(14)
P2 P 0.46312(5) 0.30191(10) -0.08697(5)
O87 O 0.64151(13) 0.8462(2) 0.10935(12)
O88 O 0.65947(12) 0.7471(2) 0.11280(12)
O89 O 0.69022(13) 0.8239(2) 0.13734(12)
O90 O 0.68089(13) 0.8175(2) 0.08453(12)
P3 P 0.66750(5) 0.80907(9) 0.11114(5)
O91 O 0.31858(13) -0.2545(2) 0.08593(12)
O92 O 0.28742(13) -0.1800(2) 0.05946(12)
O93 O 0.29631(12) -0.1836(2) 0.11321(12)
O94 O 0.33618(12) -0.1555(2) 0.08849(12)
P4 P 0.30956(5) -0.19232(9) 0.08678(4)
K15? K 0.40057(19) -0.6435(3) 0.12879(18)
C326? C 0.4300(3) -0.5808(5) 0.1989(3)
C327? C 0.4410(7) -0.5525(11) 0.1796(6)
C328? C 0.4389(7) -0.5147(12) 0.1368(7)
O95? O 0.4211(4) -0.5312(7) 0.1573(4)
C329? C 0.4066(6) -0.6199(11) 0.0620(6)
C330? C 0.3800(4) -0.7001(7) 0.0621(4)
C331? C 0.3723(4) -0.7475(8) 0.0840(4)
C332? C 0.3550(5) -0.7611(9) 0.1191(5)
C333? C 0.3767(5) -0.7682(8) 0.1488(4)
C334? C 0.4100(3) -0.7263(6) 0.1865(3)
C335? C 0.4172(4) -0.6745(7) 0.2013(4)
O96? O 0.3981(3) -0.6611(5) 0.0780(3)
O97? O 0.3577(3) -0.7185(5) 0.1028(3)
O98? O 0.3842(2) -0.7194(4) 0.1653(2)
O99? O 0.4239(3) -0.6322(5) 0.1848(2)
O100? O 0.4226(6) -0.5740(11) 0.0823(6)
C336? C 0.7275(6) 0.8500(10) -0.0619(6)
C337? C 0.7300(4) 0.7775(8) -0.0755(4)
C338? C 0.7652(5) 0.7269(9) -0.0904(4)
C339? C 0.7934(4) 0.7364(7) -0.1027(3)
C340? C 0.8425(3) 0.7603(6) -0.0874(3)
C341? C 0.8622(4) 0.7823(7) -0.0601(4)
C342? C 0.8771(3) 0.8534(6) -0.0279(3)
C343? C 0.8675(6) 0.9073(10) -0.0170(5)
C344? C 0.8287(5) 0.9437(9) 0.0002(5)
C345? C 0.7960(7) 0.9463(12) 0.0059(7)
C346? C 0.7512(11) 0.9241(17) -0.0099(10)
C347? C 0.7307(8) 0.9064(16) -0.0387(8)
O101? O 0.7451(4) 0.8507(7) -0.0386(4)
O102? O 0.7565(3) 0.7833(6) -0.0853(3)
O103? O 0.8155(2) 0.7531(4) -0.0783(2)
O104? O 0.8559(2) 0.8298(4) -0.0521(2)
O105? O 0.8422(4) 0.9019(7) -0.0092(3)
O106? O 0.7831(5) 0.9265(9) -0.0153(5)
C348? C 0.4167(8) 0.8212(13) 0.2407(8)
C349? C 0.3995(7) 0.8080(13) 0.2156(7)
C350? C 0.3874(6) 0.7382(11) 0.1814(6)
C351? C 0.3983(5) 0.6857(8) 0.1681(4)
C352? C 0.4365(5) 0.6571(9) 0.1479(4)
C353? C 0.4655(5) 0.6719(9) 0.1346(5)
C354? C 0.5107(4) 0.7186(7) 0.1533(4)
C355? C 0.5299(4) 0.7389(7) 0.1779(3)
C356? C 0.5351(5) 0.8139(9) 0.2139(5)
C357? C 0.5182(4) 0.8581(8) 0.2251(4)
C358? C 0.4806(6) 0.8883(10) 0.2443(5)
O107? O 0.4053(4) 0.7620(7) 0.2011(3)
O108? O 0.4371(4) 0.8487(6) 0.2292(3)
O109? O 0.4959(3) 0.8393(5) 0.2330(3)
O110? O 0.5183(2) 0.7890(4) 0.18796(19)
O111? O 0.4869(2) 0.6997(4) 0.1592(2)
O112? O 0.4245(3) 0.7043(6) 0.1574(3)
C359? C 0.8457(7) 0.6907(14) 0.2190(7)
C360? C 0.8392(6) 0.6419(12) 0.2148(5)
C361? C 0.8548(7) 0.5967(13) 0.2197(6)
C362? C 0.8387(6) 0.5444(11) 0.2230(5)
C363? C 0.7960(6) 0.4982(11) 0.1987(5)
O113? O 0.8287(5) 0.6031(9) 0.2228(4)
O114? O 0.8170(4) 0.5347(7) 0.1907(4)
C364? C 0.7300(8) 0.5195(15) 0.1397(8)
C365? C 0.7242(5) 0.5765(10) 0.1261(5)
C366? C 0.7236(4) 0.6776(8) 0.1238(4)
C367? C 0.7413(5) 0.7256(9) 0.1217(5)
C368? C 0.7798(8) 0.7594(15) 0.1523(8)
C369? C 0.7986(6) 0.7815(11) 0.1836(6)
O115? O 0.7636(4) 0.5340(6) 0.1569(3)
O116? O 0.7396(3) 0.6233(5) 0.1254(3)
O117? O 0.7611(3) 0.7166(5) 0.1527(3)
O118? O 0.8142(4) 0.7241(7) 0.1864(4)
C370? C 1.0580(7) 0.5839(11) 0.3194(6)
C371? C 1.0512(10) 0.5143(19) 0.3265(9)
O119? O 1.0402(6) 0.4655(12) 0.3204(6)
O120? O 1.0271(7) 0.5817(11) 0.2998(6)
C372? C 1.2218(10) 0.1796(18) 0.3175(9)
O121? O 1.2178(5) 0.2420(10) 0.3193(5)
C373? C 1.1472(7) 0.1357(12) 0.2981(6)
O122? O 1.1725(7) 0.1599(12) 0.3027(6)
C374? C 1.2012(9) 0.4109(17) 0.2596(9)
C375? C 1.1636(10) 0.3766(16) 0.2217(9)
C376? C 1.1446(9) 0.3488(17) 0.2275(8)
C377? C 1.1127(9) 0.2540(17) 0.2191(8)
C378? C 1.1158(5) 0.2078(10) 0.2300(5)
C379? C 1.1343(5) 0.1379(11) 0.2567(5)
O123? O 1.1758(6) 0.3734(10) 0.2495(6)
O124? O 1.1364(7) 0.3002(16) 0.2235(7)
O125? O 1.1308(4) 0.1956(8) 0.2581(4)
C380? C 0.9382(7) 0.5310(13) 0.3816(7)
C381? C 0.9438(8) 0.6305(15) 0.3520(8)
C382? C 0.9532(7) 0.6362(12) 0.3299(7)
C383? C 0.9897(6) 0.6461(10) 0.3052(5)
O126? O 0.9783(4) 0.6285(6) 0.3303(3)
O127? O 0.9464(5) 0.5720(11) 0.3588(5)
K16? K 0.79582(14) 0.8520(3) -0.05618(13)
K17? K 0.78028(11) 0.6026(2) 0.17803(10)
C384? C 0.7360(17) 0.137(3) -0.0324(16)
C385? C 0.7411(17) 0.079(3) -0.0073(16)
C386? C 0.6854(9) 0.1649(15) -0.0718(9)
O128? O 0.6803(14) 0.158(2) -0.0414(14)
O129? O 0.7573(6) 0.1207(11) 0.0285(6)
C387? C 0.716(2) 0.115(4) -0.025(2)
C388? C 0.7559(6) 0.1611(10) 0.0609(5)
O130? O 0.7291(4) 0.1911(7) 0.0638(4)
O131? O 0.9109(2) 0.4818(4) 0.2301(2)
O132? O 0.6277(6) 0.1318(11) 0.0141(6)
O133? O 0.2288(12) 0.353(2) 0.3058(11)
C389? C 0.3945(5) 0.0195(9) 0.4338(5)
C390? C 0.3827(5) 0.0791(10) 0.4323(5)
O134? O 0.3853(3) 0.1043(5) 0.4073(3)
C391? C 0.3738(5) 0.1644(9) 0.4052(5)
C392? C 0.3760(5) 0.1801(9) 0.3775(5)
O135? O 0.9728(5) 0.4575(8) 0.3840(4)
loop_
_geom_bond_atom_site_label_1
_geom_bond_atom_site_label_2
_geom_bond_site_symmetry_1
_geom_bond_site_symmetry_2
C1 H1 1_555 1_555
C2 C1 1_555 1_555
C3 C2 1_555 1_555
H2 C3 1_555 1_555
C4 C3 1_555 1_555
C5 C4 1_555 1_555
H3 C5 1_555 1_555
C6 C1 1_555 1_555
C7 C2 1_555 1_555
C8 C7 1_555 1_555
H4 C8 1_555 1_555
C9 C8 1_555 1_555
H5 C9 1_555 1_555
C10 C9 1_555 1_555
C11 C10 1_555 1_555
H6 C11 1_555 1_555
C12 C7 1_555 1_555
H7 C12 1_555 1_555
C13 N1 1_555 1_555
C14 C15 1_555 1_555
C15 H8 1_555 1_555
C16 C15 1_555 1_555
H9 C16 1_555 1_555
C17 C16 1_555 1_555
H10 C17 1_555 1_555
C18 C17 1_555 1_555
H11 C18 1_555 1_555
C19 C14 1_555 1_555
C20 N3 1_555 1_555
C21 C22 1_555 1_555
C22 H12 1_555 1_555
C23 C22 1_555 1_555
H13 C23 1_555 1_555
C24 C23 1_555 1_555
C25 C24 1_555 1_555
H14 C25 1_555 1_555
C26 C21 1_555 1_555
H15 C26 1_555 1_555
C27 C4 1_555 1_555
C28 C27 1_555 1_555
H16 C28 1_555 1_555
C29 C28 1_555 1_555
H17 C29 1_555 1_555
C30 C29 1_555 1_555
C31 C30 1_555 1_555
H18 C31 1_555 1_555
C32 C27 1_555 1_555
H19 C32 1_555 1_555
C33 N6 1_555 1_555
C34 C35 1_555 1_555
C35 H20 1_555 1_555
C36 C35 1_555 1_555
H21 C36 1_555 1_555
C37 C36 1_555 1_555
H22 C37 1_555 1_555
C38 C37 1_555 1_555
H23 C38 1_555 1_555
C39 C34 1_555 1_555
C40 N8 1_555 1_555
C41 C42 1_555 1_555
C42 H24 1_555 1_555
C43 C42 1_555 1_555
H25 C43 1_555 1_555
C44 C43 1_555 1_555
C45 C44 1_555 1_555
H26 C45 1_555 1_555
C46 C41 1_555 1_555
H27 C46 1_555 1_555
C47 C6 1_555 1_555
C48 C47 1_555 1_555
H28 C48 1_555 1_555
C49 C48 1_555 1_555
H29 C49 1_555 1_555
C50 C49 1_555 1_555
C51 C50 1_555 1_555
H30 C51 1_555 1_555
C52 C47 1_555 1_555
H31 C52 1_555 1_555
C53 N11 1_555 1_555
C54 C55 1_555 1_555
C55 H32 1_555 1_555
C56 C55 1_555 1_555
H33 C56 1_555 1_555
C57 C56 1_555 1_555
H34 C57 1_555 1_555
C58 C57 1_555 1_555
H35 C58 1_555 1_555
C59 C54 1_555 1_555
C60 N13 1_555 1_555
C61 C62 1_555 1_555
C62 H36 1_555 1_555
C63 C62 1_555 1_555
H37 C63 1_555 1_555
C64 C63 1_555 1_555
C65 C64 1_555 1_555
H38 C65 1_555 1_555
C66 C61 1_555 1_555
H39 C66 1_555 1_555
N1 C10 1_555 1_555
H40 N1 1_555 1_555
N2 C13 1_555 1_555
H41 N2 1_555 1_555
N3 C19 1_555 1_555
H42 N3 1_555 1_555
N4 C20 1_555 1_555
H43 N4 1_555 1_555
N5 C24 1_555 1_555
N6 C30 1_555 1_555
H44 N6 1_555 1_555
N7 C33 1_555 1_555
H45 N7 1_555 1_555
N8 C39 1_555 1_555
H46 N8 1_555 1_555
N9 C40 1_555 1_555
H47 N9 1_555 1_555
N10 C44 1_555 1_555
N11 C50 1_555 1_555
H48 N11 1_555 1_555
N12 C53 1_555 1_555
H49 N12 1_555 1_555
N13 C59 1_555 1_555
H50 N13 1_555 1_555
N14 C60 1_555 1_555
H51 N14 1_555 1_555
N15 C64 1_555 1_555
O1 C13 1_555 1_555
O2 C20 1_555 1_555
O3 N5 1_555 1_555
O4 N5 1_555 1_555
O5 C33 1_555 1_555
O6 C40 1_555 1_555
O7 N10 1_555 1_555
O8 N10 1_555 1_555
O9 C53 1_555 1_555
O10 C60 1_555 1_555
O11 N15 1_555 1_555
O12 N15 1_555 1_555
C67 C68 1_555 1_555
C68 H52 1_555 1_555
C69 C68 1_555 1_555
C70 C69 1_555 1_555
H53 C70 1_555 1_555
C71 C70 1_555 1_555
C72 C67 1_555 1_555
H54 C72 1_555 1_555
C73 C71 1_555 1_555
C74 C73 1_555 1_555
H55 C74 1_555 1_555
C75 C74 1_555 1_555
H56 C75 1_555 1_555
C76 C75 1_555 1_555
C77 C76 1_555 1_555
H57 C77 1_555 1_555
C78 C73 1_555 1_555
H58 C78 1_555 1_555
C79 N16 1_555 1_555
C80 C81 1_555 1_555
C81 H59 1_555 1_555
C82 C81 1_555 1_555
H60 C82 1_555 1_555
C83 C82 1_555 1_555
H61 C83 1_555 1_555
C84 C83 1_555 1_555
H62 C84 1_555 1_555
C85 C80 1_555 1_555
C86 N18 1_555 1_555
C87 C88 1_555 1_555
C88 H63 1_555 1_555
C89 C88 1_555 1_555
H64 C89 1_555 1_555
C90 C89 1_555 1_555
C91 C90 1_555 1_555
H65 C91 1_555 1_555
C92 C87 1_555 1_555
H66 C92 1_555 1_555
C93 C67 1_555 1_555
C94 C93 1_555 1_555
H67 C94 1_555 1_555
C95 C94 1_555 1_555
H68 C95 1_555 1_555
C96 C95 1_555 1_555
C97 C96 1_555 1_555
H69 C97 1_555 1_555
C98 C93 1_555 1_555
H70 C98 1_555 1_555
C99 N21 1_555 1_555
C100 C101 1_555 1_555
C101 H71 1_555 1_555
C102 C101 1_555 1_555
H72 C102 1_555 1_555
C103 C102 1_555 1_555
H73 C103 1_555 1_555
C104 C103 1_555 1_555
H74 C104 1_555 1_555
C105 C100 1_555 1_555
C106 N23 1_555 1_555
C107 C108 1_555 1_555
C108 H75 1_555 1_555
C109 C108 1_555 1_555
H76 C109 1_555 1_555
C110 C109 1_555 1_555
C111 C110 1_555 1_555
H77 C111 1_555 1_555
C112 C107 1_555 1_555
H78 C112 1_555 1_555
C113 C69 1_555 1_555
C114 C113 1_555 1_555
H79 C114 1_555 1_555
C115 C114 1_555 1_555
H80 C115 1_555 1_555
C116 C115 1_555 1_555
C117 C116 1_555 1_555
H81 C117 1_555 1_555
C118 C113 1_555 1_555
H82 C118 1_555 1_555
C119 N26 1_555 1_555
C120 C121 1_555 1_555
C121 H83 1_555 1_555
C122 C121 1_555 1_555
H84 C122 1_555 1_555
C123 C122 1_555 1_555
H85 C123 1_555 1_555
C124 C123 1_555 1_555
H86 C124 1_555 1_555
C125 C120 1_555 1_555
C126 N28 1_555 1_555
C127 C128 1_555 1_555
C128 H87 1_555 1_555
C129 C128 1_555 1_555
H88 C129 1_555 1_555
C130 C129 1_555 1_555
C131 C130 1_555 1_555
H89 C131 1_555 1_555
C132 C127 1_555 1_555
H90 C132 1_555 1_555
N16 C76 1_555 1_555
H91 N16 1_555 1_555
N17 C79 1_555 1_555
H92 N17 1_555 1_555
N18 C85 1_555 1_555
H93 N18 1_555 1_555
N19 C86 1_555 1_555
H94 N19 1_555 1_555
N20 C90 1_555 1_555
N21 C96 1_555 1_555
H95 N21 1_555 1_555
N22 C99 1_555 1_555
H96 N22 1_555 1_555
N23 C105 1_555 1_555
H97 N23 1_555 1_555
N24 C106 1_555 1_555
H98 N24 1_555 1_555
N25 C110 1_555 1_555
N26 C116 1_555 1_555
H99 N26 1_555 1_555
N27 C119 1_555 1_555
H100 N27 1_555 1_555
N28 C125 1_555 1_555
H101 N28 1_555 1_555
N29 C126 1_555 1_555
H102 N29 1_555 1_555
N30 C130 1_555 1_555
O13 C79 1_555 1_555
O14 C86 1_555 1_555
O15 N20 1_555 1_555
O16 N20 1_555 1_555
O17 C99 1_555 1_555
O18 C106 1_555 1_555
O19 N25 1_555 1_555
O20 N25 1_555 1_555
O21 C119 1_555 1_555
O22 C126 1_555 1_555
O23 N30 1_555 1_555
O24 N30 1_555 1_555
C133 C134 1_555 1_555
C134 H103 1_555 1_555
C135 C134 1_555 1_555
C136 C135 1_555 1_555
H104 C136 1_555 1_555
C137 C136 1_555 1_555
C138 C133 1_555 1_555
H105 C138 1_555 1_555
C139 C137 1_555 1_555
C140 C139 1_555 1_555
H106 C140 1_555 1_555
C141 C140 1_555 1_555
H107 C141 1_555 1_555
C142 C141 1_555 1_555
C143 C142 1_555 1_555
H108 C143 1_555 1_555
C144 C139 1_555 1_555
H109 C144 1_555 1_555
C145 N31 1_555 1_555
C146 C147 1_555 1_555
C147 H110 1_555 1_555
C148 C147 1_555 1_555
H111 C148 1_555 1_555
C149 C148 1_555 1_555
H112 C149 1_555 1_555
C150 C149 1_555 1_555
H113 C150 1_555 1_555
C151 C146 1_555 1_555
C152 N33 1_555 1_555
C153 C154 1_555 1_555
C154 H114 1_555 1_555
C155 C154 1_555 1_555
H115 C155 1_555 1_555
C156 C155 1_555 1_555
C157 C156 1_555 1_555
H116 C157 1_555 1_555
C158 C153 1_555 1_555
H117 C158 1_555 1_555
C159 C135 1_555 1_555
C160 C159 1_555 1_555
H118 C160 1_555 1_555
C161 C160 1_555 1_555
H119 C161 1_555 1_555
C162 C161 1_555 1_555
C163 C162 1_555 1_555
H120 C163 1_555 1_555
C164 C159 1_555 1_555
H121 C164 1_555 1_555
C165 N36 1_555 1_555
C166 C167 1_555 1_555
C167 H122 1_555 1_555
C168 C167 1_555 1_555
H123 C168 1_555 1_555
C169 C168 1_555 1_555
H124 C169 1_555 1_555
C170 C169 1_555 1_555
H125 C170 1_555 1_555
C171 C166 1_555 1_555
C172 N38 1_555 1_555
C173 C174 1_555 1_555
C174 H126 1_555 1_555
C175 C174 1_555 1_555
H127 C175 1_555 1_555
C176 C175 1_555 1_555
C177 C176 1_555 1_555
H128 C177 1_555 1_555
C178 C173 1_555 1_555
H129 C178 1_555 1_555
C179 C133 1_555 1_555
C180 C179 1_555 1_555
H130 C180 1_555 1_555
C181 C180 1_555 1_555
H131 C181 1_555 1_555
C182 C181 1_555 1_555
C183 C182 1_555 1_555
H132 C183 1_555 1_555
C184 C179 1_555 1_555
H133 C184 1_555 1_555
C185 N41 1_555 1_555
C186 C187 1_555 1_555
C187 H134 1_555 1_555
C188 C187 1_555 1_555
H135 C188 1_555 1_555
C189 C188 1_555 1_555
H136 C189 1_555 1_555
C190 C189 1_555 1_555
H137 C190 1_555 1_555
C191 C186 1_555 1_555
C192 N43 1_555 1_555
C193 C194 1_555 1_555
C194 H138 1_555 1_555
C195 C194 1_555 1_555
H139 C195 1_555 1_555
C196 C195 1_555 1_555
C197 C196 1_555 1_555
H140 C197 1_555 1_555
C198 C193 1_555 1_555
H141 C198 1_555 1_555
N31 C142 1_555 1_555
H142 N31 1_555 1_555
N32 C145 1_555 1_555
H143 N32 1_555 1_555
N33 C151 1_555 1_555
H144 N33 1_555 1_555
N34 C152 1_555 1_555
H145 N34 1_555 1_555
N35 C156 1_555 1_555
N36 C162 1_555 1_555
H146 N36 1_555 1_555
N37 C165 1_555 1_555
H147 N37 1_555 1_555
N38 C171 1_555 1_555
H148 N38 1_555 1_555
N39 C172 1_555 1_555
H149 N39 1_555 1_555
N40 C176 1_555 1_555
N41 C182 1_555 1_555
H150 N41 1_555 1_555
N42 C185 1_555 1_555
H151 N42 1_555 1_555
N43 C191 1_555 1_555
H152 N43 1_555 1_555
N44 C192 1_555 1_555
H153 N44 1_555 1_555
N45 C196 1_555 1_555
O25 C145 1_555 1_555
O26 C152 1_555 1_555
O27 N35 1_555 1_555
O28 N35 1_555 1_555
O29 C165 1_555 1_555
O30 C172 1_555 1_555
O31 N40 1_555 1_555
O32 N40 1_555 1_555
O33 C185 1_555 1_555
O34 C192 1_555 1_555
O35 N45 1_555 1_555
O36 N45 1_555 1_555
C199 C200 1_555 1_555
C200 O38 1_555 1_555
C201 C202 1_555 1_555
C202 O39 1_555 1_555
C203 C204 1_555 1_555
C204 O40 1_555 1_555
C205 C206 1_555 1_555
C206 O41 1_555 1_555
C207 C208 1_555 1_555
C208 O42 1_555 1_555
C209 C210 1_555 1_555
C210 O37 1_555 1_555
O37 C199 1_555 1_555
O38 C201 1_555 1_555
O39 C203 1_555 1_555
O40 C205 1_555 1_555
O41 C207 1_555 1_555
O42 C209 1_555 1_555
C211 C212 1_555 1_555
C212 O44 1_555 1_555
C213 C214 1_555 1_555
C214 O45 1_555 1_555
C215 C216 1_555 1_555
C216 O46 1_555 1_555
C217 C218 1_555 1_555
C218 O47 1_555 1_555
C219 C220 1_555 1_555
C220 O48 1_555 1_555
C221 C222 1_555 1_555
C222 O43 1_555 1_555
O43 C211 1_555 1_555
O44 C213 1_555 1_555
O45 C215 1_555 1_555
O46 C217 1_555 1_555
O47 C219 1_555 1_555
O48 C221 1_555 1_555
C223 C224 1_555 1_555
C224 O50 1_555 1_555
C225 C226 1_555 1_555
C226 O51 1_555 1_555
C227 C228 1_555 1_555
C228 O52 1_555 1_555
C229 C230 1_555 1_555
C230 O53 1_555 1_555
C231 C232 1_555 1_555
C232 O54 1_555 1_555
C233 C234 1_555 1_555
C234 O49 1_555 1_555
O49 C223 1_555 1_555
O50 C225 1_555 1_555
O51 C227 1_555 1_555
O52 C229 1_555 1_555
O53 C231 1_555 1_555
O54 C233 1_555 1_555
C235 C236 1_555 1_555
C236 O56 1_555 1_555
C237 C238 1_555 1_555
C238 O57 1_555 1_555
C239 C240 1_555 1_555
C240 O58 1_555 1_555
C241 C242 1_555 1_555
C242 O59 1_555 1_555
C243 C244 1_555 1_555
C244 O60 1_555 1_555
C245 C246 1_555 1_555
C246 O55 1_555 1_555
O55 C235 1_555 1_555
O56 C237 1_555 1_555
O57 C239 1_555 1_555
O58 C241 1_555 1_555
O59 C243 1_555 1_555
O60 C245 1_555 1_555
C247 H154 1_555 1_555
C248 C247 1_555 1_555
C249 C248 1_555 1_555
H155 C249 1_555 1_555
C250 C249 1_555 1_555
C251 C250 1_555 1_555
H156 C251 1_555 1_555
C252 C247 1_555 1_555
C253 C252 1_555 1_555
C254 C253 1_555 1_555
H157 C254 1_555 1_555
C255 C254 1_555 1_555
H158 C255 1_555 1_555
C256 C255 1_555 1_555
C257 C256 1_555 1_555
H159 C257 1_555 1_555
C258 C253 1_555 1_555
H160 C258 1_555 1_555
C259 N46 1_555 1_555
C260 C261 1_555 1_555
C261 H161 1_555 1_555
C262 C261 1_555 1_555
H162 C262 1_555 1_555
C263 C262 1_555 1_555
H163 C263 1_555 1_555
C264 C263 1_555 1_555
H164 C264 1_555 1_555
C265 C260 1_555 1_555
C266 N48 1_555 1_555
C267 C268 1_555 1_555
C268 H165 1_555 1_555
C269 C268 1_555 1_555
H166 C269 1_555 1_555
C270 C269 1_555 1_555
C271 C270 1_555 1_555
H167 C271 1_555 1_555
C272 C267 1_555 1_555
H168 C272 1_555 1_555
C273 C250 1_555 1_555
C274 C273 1_555 1_555
H169 C274 1_555 1_555
C275 C274 1_555 1_555
H170 C275 1_555 1_555
C276 C275 1_555 1_555
C277 C276 1_555 1_555
H171 C277 1_555 1_555
C278 C273 1_555 1_555
H172 C278 1_555 1_555
C279 N51 1_555 1_555
C280 C281 1_555 1_555
C281 H173 1_555 1_555
C282 C281 1_555 1_555
H174 C282 1_555 1_555
C283 C282 1_555 1_555
H175 C283 1_555 1_555
C284 C283 1_555 1_555
H176 C284 1_555 1_555
C285 C280 1_555 1_555
C286 N53 1_555 1_555
C287 C288 1_555 1_555
C288 H177 1_555 1_555
C289 C288 1_555 1_555
H178 C289 1_555 1_555
C290 C289 1_555 1_555
C291 C290 1_555 1_555
H179 C291 1_555 1_555
C292 C287 1_555 1_555
H180 C292 1_555 1_555
C293 C248 1_555 1_555
C294 C293 1_555 1_555
H181 C294 1_555 1_555
C295 C294 1_555 1_555
H182 C295 1_555 1_555
C296 C295 1_555 1_555
C297 C296 1_555 1_555
H183 C297 1_555 1_555
C298 C293 1_555 1_555
H184 C298 1_555 1_555
C299 N56 1_555 1_555
C300 C301 1_555 1_555
C301 H185 1_555 1_555
C302 C301 1_555 1_555
H186 C302 1_555 1_555
C303 C302 1_555 1_555
H187 C303 1_555 1_555
C304 C303 1_555 1_555
H188 C304 1_555 1_555
C305 C300 1_555 1_555
C306 N58 1_555 1_555
C307 C308 1_555 1_555
C308 H189 1_555 1_555
C309 C308 1_555 1_555
H190 C309 1_555 1_555
C310 C309 1_555 1_555
C311 C310 1_555 1_555
H191 C311 1_555 1_555
C312 C307 1_555 1_555
H192 C312 1_555 1_555
N46 C256 1_555 1_555
H193 N46 1_555 1_555
N47 C259 1_555 1_555
H194 N47 1_555 1_555
N48 C265 1_555 1_555
H195 N48 1_555 1_555
N49 C266 1_555 1_555
H196 N49 1_555 1_555
N50 C270 1_555 1_555
N51 C276 1_555 1_555
H197 N51 1_555 1_555
N52 C279 1_555 1_555
H198 N52 1_555 1_555
N53 C285 1_555 1_555
H199 N53 1_555 1_555
N54 C286 1_555 1_555
H200 N54 1_555 1_555
N55 C290 1_555 1_555
N56 C296 1_555 1_555
H201 N56 1_555 1_555
N57 C299 1_555 1_555
H202 N57 1_555 1_555
N58 C305 1_555 1_555
H203 N58 1_555 1_555
N59 C306 1_555 1_555
H204 N59 1_555 1_555
N60 C310 1_555 1_555
O61 C259 1_555 1_555
O62 C266 1_555 1_555
O63 N50 1_555 1_555
O64 N50 1_555 1_555
O65 C279 1_555 1_555
O66 C286 1_555 1_555
O67 N55 1_555 1_555
O68 N55 1_555 1_555
O69 C299 1_555 1_555
O70 C306 1_555 1_555
O71 N60 1_555 1_555
O72 N60 1_555 1_555
C313 C314 1_555 1_555
C314 O74 1_555 1_555
C315 C316 1_555 1_555
C316 O75 1_555 1_555
C317 C318 1_555 1_555
C318 O76 1_555 1_555
C319 C320 1_555 1_555
C320 O77 1_555 1_555
C321 C322 1_555 1_555
C322 O78 1_555 1_555
C323 C324 1_555 1_555
C324 O73 1_555 1_555
O73 C313 1_555 1_555
O74 C315 1_555 1_555
O75 C317 1_555 1_555
O76 C319 1_555 1_555
O77 C321 1_555 1_555
O78 C323 1_555 1_555
C325 Cl1 1_555 1_555
Cl2 C325 1_555 1_555
F1 C325 1_555 1_555
Cl3 C325 1_555 1_555
O79 P1 1_555 1_555
O80 P1 1_555 1_555
O81 P1 1_555 1_555
O82 P1 1_555 1_555
O83 P2 1_555 1_555
O84 P2 1_555 1_555
O85 P2 1_555 1_555
O86 P2 1_555 1_555
O87 P3 1_555 1_555
O88 P3 1_555 1_555
O89 P3 1_555 1_555
O90 P3 1_555 1_555
O91 P4 1_555 1_555
O92 P4 1_555 1_555
O93 P4 1_555 1_555
O94 P4 1_555 1_555
C5 C6 1_555 1_555
C11 C12 1_555 1_555
C14 N2 1_555 1_555
C18 C19 1_555 1_555
C21 N4 1_555 1_555
C25 C26 1_555 1_555
C31 C32 1_555 1_555
C34 N7 1_555 1_555
C38 C39 1_555 1_555
C41 N9 1_555 1_555
C45 C46 1_555 1_555
C51 C52 1_555 1_555
C54 N12 1_555 1_555
C58 C59 1_555 1_555
C61 N14 1_555 1_555
C65 C66 1_555 1_555
C71 C72 1_555 1_555
C77 C78 1_555 1_555
C80 N17 1_555 1_555
C84 C85 1_555 1_555
C87 N19 1_555 1_555
C91 C92 1_555 1_555
C97 C98 1_555 1_555
C100 N22 1_555 1_555
C104 C105 1_555 1_555
C107 N24 1_555 1_555
C111 C112 1_555 1_555
C117 C118 1_555 1_555
C120 N27 1_555 1_555
C124 C125 1_555 1_555
C127 N29 1_555 1_555
C131 C132 1_555 1_555
C137 C138 1_555 1_555
C143 C144 1_555 1_555
C146 N32 1_555 1_555
C150 C151 1_555 1_555
C153 N34 1_555 1_555
C157 C158 1_555 1_555
C163 C164 1_555 1_555
C166 N37 1_555 1_555
C170 C171 1_555 1_555
C173 N39 1_555 1_555
C177 C178 1_555 1_555
C183 C184 1_555 1_555
C186 N42 1_555 1_555
C190 C191 1_555 1_555
C193 N44 1_555 1_555
C197 C198 1_555 1_555
C251 C252 1_555 1_555
C257 C258 1_555 1_555
C260 N47 1_555 1_555
C264 C265 1_555 1_555
C267 N49 1_555 1_555
C271 C272 1_555 1_555
C277 C278 1_555 1_555
C280 N52 1_555 1_555
C284 C285 1_555 1_555
C287 N54 1_555 1_555
C291 C292 1_555 1_555
C297 C298 1_555 1_555
C300 N57 1_555 1_555
C304 C305 1_555 1_555
C307 N59 1_555 1_555
C311 C312 1_555 1_555

#END
