
#######################################################################
#
#                 Cambridge Crystallographic Data Centre
#                                CCDC 
#
#######################################################################
#
# If this CIF has been generated from an entry in the Cambridge 
# Structural Database, then it will include bibliographic, chemical, 
# crystal, experimental, refinement or atomic coordinate data resulting 
# from the CCDC's data processing and validation procedures.
#
#######################################################################

data_VULYIM
_chemical_formula_moiety         
'4(C66 H51 N15 O12),12(K1 1+),12(C12 H24 O6),4(O4 P1 3-),C1 Cl2 F2'
_chemical_name_systematic        
'tetrakis(1,3,5-tris(4-(3-(2-(3-(4-Nitrophenyl)ureido)phenyl)ureido)phenyl)benzene) dodeca-potassium dodecakis(18-crown-6) tetrakis(phosphate) dichlorodifluoromethane solvate'
_symmetry_cell_setting           monoclinic
_symmetry_space_group_name_H-M   'C c'
_symmetry_Int_Tables_number      9
_space_group_name_Hall           'C -2yc'
loop_
_symmetry_equiv_pos_site_id
_symmetry_equiv_pos_as_xyz
1 x,y,z
2 x,-y,1/2+z
3 1/2+x,1/2+y,z
4 1/2+x,1/2-y,1/2+z
_cell_length_a                   47.7299(12)
_cell_length_b                   24.0127(6)
_cell_length_c                   47.8610(13)
_cell_angle_alpha                90
_cell_angle_beta                 101.692(2)
_cell_angle_gamma                90
_cell_volume                     53716.5
_exptl_crystal_colour            yellow
_exptl_crystal_description       block
_cell_formula_units_Z            4
loop_
_atom_site_label
_atom_site_type_symbol
_atom_site_fract_x
_atom_site_fract_y
_atom_site_fract_z
C1 C 0.4307(3) 1.0231(5) 0.4241(3)
H1 H 0.4169 0.9982 0.4148
C2 C 0.4599(3) 1.0158(5) 0.4225(3)
C3 C 0.4799(3) 1.0492(6) 0.4369(3)
H2 H 0.4990 1.0418 0.4368
C4 C 0.4731(3) 1.0954(5) 0.4524(3)
C5 C 0.4431(3) 1.1005(5) 0.4534(3)
H3 H 0.4377 1.1289 0.4645
C6 C 0.4226(2) 1.0670(5) 0.4394(3)
C7 C 0.3918(3) 1.0727(5) 0.4427(3)
C8 C 0.3819(3) 1.1221(5) 0.4530(3)
H4 H 0.3942 1.1521 0.4581
C9 C 0.3537(3) 1.1257(7) 0.4557(3)
H5 H 0.3473 1.1591 0.4619
C10 C 0.3353(2) 1.0841(4) 0.4498(2)
C11 C 0.3728(3) 1.0308(5) 0.4348(3)
H6 H 0.3790 0.9984 0.4273
C12 C 0.3437(3) 1.0344(6) 0.4375(3)
H7 H 0.3308 1.0057 0.4315
C13 C 0.2844(3) 1.0622(5) 0.4432(3)
C14 C 0.2315(3) 1.0680(6) 0.4397(3)
C15 C 0.2220(4) 1.0480(7) 0.4117(4)
H8 H 0.2356 1.0451 0.4003
C16 C 0.1947(4) 1.0325(7) 0.3998(4)
H9 H 0.1897 1.0204 0.3810
C17 C 0.1751(4) 1.0358(8) 0.4166(4)
H10 H 0.1574 1.0185 0.4110
C18 C 0.1814(4) 1.0650(7) 0.4427(4)
H11 H 0.1664 1.0764 0.4512
C19 C 0.2103(3) 1.0775(6) 0.4564(3)
C20 C 0.2049(4) 1.1029(7) 0.5033(4)
C21 C 0.2043(3) 1.1469(5) 0.5501(3)
C22 C 0.1727(3) 1.1432(5) 0.5491(3)
H12 H 0.1601 1.1315 0.5328
C23 C 0.1641(3) 1.1570(5) 0.5719(3)
H13 H 0.1445 1.1548 0.5714
C24 C 0.1801(3) 1.1735(7) 0.5955(4)
C25 C 0.2107(3) 1.1826(6) 0.5986(4)
H14 H 0.2220 1.1984 0.6147
C26 C 0.2215(3) 1.1653(6) 0.5747(3)
H15 H 0.2411 1.1665 0.5758
C27 C 0.4677(3) 0.9662(4) 0.4068(3)
C28 C 0.44841(19) 0.9410(5) 0.3848(3)
H16 H 0.4306 0.9571 0.3780
C29 C 0.4558(2) 0.8918(5) 0.3727(2)
H17 H 0.4429 0.8750 0.3580
C30 C 0.4824(2) 0.8678(4) 0.3828(2)
C31 C 0.50167(19) 0.8929(5) 0.4048(2)
H18 H 0.5195 0.8769 0.4116
C32 C 0.4943(2) 0.9421(5) 0.4169(2)
H19 H 0.5072 0.9590 0.4316
C33 C 0.5170(5) 0.8039(10) 0.3621(5)
C34 C 0.5343(5) 0.7375(9) 0.3301(5)
C35 C 0.5608(5) 0.7714(11) 0.3329(5)
H20 H 0.5607 0.8092 0.3373
C36 C 0.5882(5) 0.7425(9) 0.3285(5)
H21 H 0.6054 0.7613 0.3295
C37 C 0.5850(5) 0.6830(10) 0.3224(5)
H22 H 0.6013 0.6618 0.3224
C38 C 0.5579(3) 0.6564(7) 0.3166(3)
H23 H 0.5544 0.6239 0.3059
C39 C 0.5370(3) 0.6825(7) 0.3280(3)
C40 C 0.5123(3) 0.5971(5) 0.3383(3)
C41 C 0.4820(2) 0.5248(4) 0.3521(2)
C42 C 0.4542(3) 0.5029(5) 0.3475(3)
H24 H 0.4395 0.5255 0.3378
C43 C 0.4466(3) 0.4519(5) 0.3558(3)
H25 H 0.4280 0.4383 0.3511
C44 C 0.4690(3) 0.4220(6) 0.3720(3)
C45 C 0.4957(3) 0.4408(5) 0.3802(3)
H26 H 0.5094 0.4196 0.3922
C46 C 0.5030(3) 0.4955(5) 0.3701(3)
H27 H 0.5214 0.5099 0.3757
C47 C 0.4955(3) 1.1316(5) 0.4713(3)
C48 C 0.5227(2) 1.1353(5) 0.4642(3)
H28 H 0.5265 1.1172 0.4482
C49 C 0.5440(3) 1.1667(5) 0.4817(3)
H29 H 0.5618 1.1703 0.4769
C50 C 0.5390(3) 1.1917(5) 0.5055(3)
C51 C 0.5122(3) 1.1934(5) 0.5115(3)
H30 H 0.5083 1.2135 0.5269
C52 C 0.4901(3) 1.1623(5) 0.4926(3)
H31 H 0.4715 1.1641 0.4955
C53 C 0.5608(3) 1.2663(5) 0.5387(3)
C54 C 0.5909(3) 1.3313(6) 0.5707(3)
C55 C 0.5689(4) 1.3717(8) 0.5715(4)
H32 H 0.5503 1.3648 0.5617
C56 C 0.5753(5) 1.4239(9) 0.5875(5)
H33 H 0.5605 1.4487 0.5882
C57 C 0.6243(5) 1.3899(8) 0.6013(5)
H34 H 0.6427 1.3942 0.6120
C58 C 0.6028(4) 1.4375(9) 0.6016(4)
H35 H 0.6077 1.4718 0.6103
C59 C 0.6181(4) 1.3436(7) 0.5867(4)
C60 C 0.6575(4) 1.2880(8) 0.6084(5)
C61 C 0.6985(2) 1.2258(5) 0.6242(3)
C62 C 0.7075(2) 1.1719(5) 0.6201(2)
H36 H 0.6994 1.1526 0.6036
C63 C 0.7284(2) 1.1469(4) 0.6407(3)
H37 H 0.7345 1.1109 0.6379
C64 C 0.7405(2) 1.1759(6) 0.6653(2)
C65 C 0.7315(3) 1.2298(5) 0.6695(2)
H38 H 0.7395 1.2491 0.6860
C66 C 0.7105(3) 1.2548(4) 0.6489(3)
H39 H 0.7045 1.2908 0.6517
N1 N 0.3077(2) 1.0904(4) 0.4553(2)
H40 H 0.3057 1.1150 0.4678
N2 N 0.2588(2) 1.0854(4) 0.4495(2)
H41 H 0.2609 1.1136 0.4607
N3 N 0.2180(2) 1.1040(5) 0.4821(3)
H42 H 0.2333 1.1237 0.4845
N4 N 0.2162(3) 1.1338(5) 0.5269(3)
H43 H 0.2330 1.1469 0.5274
N5 N 0.1711(3) 1.1930(5) 0.6222(3)
N6 N 0.4878(3) 0.8165(6) 0.3678(3)
H44 H 0.4740 0.7935 0.3621
N7 N 0.5152(4) 0.7589(7) 0.3462(4)
H45 H 0.4999 0.7395 0.3456
N8 N 0.5110(2) 0.6502(4) 0.3290(2)
H46 H 0.4946 0.6656 0.3234
N9 N 0.4859(2) 0.5773(4) 0.3425(2)
H47 H 0.4714 0.5992 0.3389
N10 N 0.4621(3) 0.3653(5) 0.3831(3)
N11 N 0.5621(2) 1.2196(4) 0.5216(2)
H48 H 0.5788 1.2071 0.5209
N12 N 0.5855(2) 1.2857(5) 0.5532(2)
H49 H 0.6004 1.2669 0.5514
N13 N 0.6406(2) 1.3031(4) 0.5849(3)
H50 H 0.6426 1.2898 0.5687
N14 N 0.6780(2) 1.2462(5) 0.6040(3)
H51 H 0.6767 1.2337 0.5869
N15 N 0.7616(5) 1.1485(11) 0.6955(6)
O1 O 0.28262(19) 1.0214(4) 0.4288(2)
O2 O 0.1827(2) 1.0714(4) 0.5049(2)
O3 O 0.1871(3) 1.2048(5) 0.6451(3)
O4 O 0.1448(2) 1.1869(4) 0.6214(2)
O5 O 0.5372(4) 0.8328(7) 0.3750(4)
O6 O 0.5356(2) 0.5685(4) 0.3436(2)
O7 O 0.4831(2) 0.3381(4) 0.3941(2)
O8 O 0.4389(2) 0.3486(4) 0.3789(2)
O9 O 0.53695(19) 1.2850(4) 0.5415(2)
O10 O 0.6592(3) 1.3061(6) 0.6325(3)
O11 O 0.7698(4) 1.1141(8) 0.6828(4)
O12 O 0.7708(4) 1.1854(8) 0.7128(4)
K1 K 0.55319(6) 0.48044(12) 0.31935(6)
K2 K 0.65234(14) 1.2422(3) 0.68373(15)
K3 K 0.25890(6) 0.92042(12) 0.41678(7)
C67 C 0.0682(5) 1.1840(9) 0.5335(5)
C68 C 0.0633(4) 1.1255(8) 0.5506(4)
C69 C 0.0657(4) 1.0905(7) 0.5964(4)
C70 C 0.0618(4) 1.1080(7) 0.6250(4)
C71 C 0.0816(3) 1.1573(6) 0.6650(3)
C72 C 0.1078(3) 1.1919(7) 0.6793(3)
C73 C 0.1276(3) 1.2838(6) 0.6770(3)
C74 C 0.1225(4) 1.3398(8) 0.6580(4)
C75 C 0.1283(3) 1.3730(6) 0.6122(3)
C76 C 0.1370(3) 1.3502(6) 0.5859(3)
C77 C 0.1189(4) 1.2961(8) 0.5441(4)
C78 C 0.0923(4) 1.2632(8) 0.5288(4)
O13 O 0.1129(2) 1.3172(4) 0.5699(2)
O14 O 0.1282(2) 1.3210(4) 0.6308(2)
O15 O 0.10393(18) 1.2478(4) 0.66337(19)
O16 O 0.0835(2) 1.1447(4) 0.6377(2)
O17 O 0.0638(2) 1.1392(4) 0.5799(2)
O18 O 0.0899(2) 1.2155(5) 0.5469(2)
K4 K 0.09243(6) 1.23636(12) 0.60486(6)
C79 C 0.4121(3) 0.1893(6) 0.3901(3)
C80 C 0.4064(3) 0.2397(7) 0.4046(4)
C81 C 0.4204(3) 0.2968(6) 0.4431(3)
C82 C 0.4430(4) 0.3065(7) 0.4709(4)
C83 C 0.4919(4) 0.3327(7) 0.4827(4)
C84 C 0.5180(3) 0.3543(7) 0.4708(4)
C85 C 0.5514(4) 0.3151(7) 0.4424(4)
C86 C 0.5598(3) 0.2652(6) 0.4300(3)
C87 C 0.5451(3) 0.1947(6) 0.3950(3)
C88 C 0.5228(4) 0.1775(7) 0.3732(4)
C89 C 0.4759(4) 0.1456(7) 0.3620(4)
C90 C 0.4479(3) 0.1343(7) 0.3758(3)
O19 O 0.42724(19) 0.2476(4) 0.4299(2)
O20 O 0.46979(19) 0.3188(4) 0.46008(19)
O21 O 0.52680(19) 0.3048(4) 0.4564(2)
O22 O 0.53751(18) 0.2440(4) 0.40860(19)
O23 O 0.4980(2) 0.1621(4) 0.3835(2)
O24 O 0.4408(2) 0.1896(4) 0.3830(2)
K5 K 0.48396(6) 0.24088(11) 0.42422(6)
C91 C -0.0503(2) 1.2207(5) 0.7828(2)
C92 C -0.0526(3) 1.2387(6) 0.8098(3)
H52 H -0.0375 1.2602 0.8196
C93 C -0.0743(3) 1.2285(5) 0.8236(3)
H53 H -0.0742 1.2408 0.8421
C94 C -0.0970(3) 1.1976(6) 0.8075(3)
C95 C -0.0970(3) 1.1783(5) 0.7796(3)
H54 H -0.1120 1.1563 0.7700
C96 C -0.0747(3) 1.1924(5) 0.7671(3)
H55 H -0.0755 1.1835 0.7480
C97 C 0.0125(2) 1.2998(5) 0.5334(2)
H56 H 0.0017 1.2711 0.5388
C98 C 0.0303(3) 1.3300(5) 0.5544(3)
C99 C 0.0456(2) 1.3753(5) 0.5462(3)
H57 H 0.0569 1.3974 0.5600
C100 C 0.0436(3) 1.3867(5) 0.5179(3)
C101 C 0.0265(2) 1.3534(5) 0.4964(3)
H58 H 0.0266 1.3606 0.4773
C102 C 0.0102(3) 1.3115(6) 0.5031(3)
C103 C -0.0075(3) 1.2777(5) 0.4817(3)
C104 C -0.0174(3) 1.2958(6) 0.4542(3)
H59 H -0.0132 1.3324 0.4503
C105 C -0.0329(3) 1.2650(5) 0.4316(3)
H60 H -0.0399 1.2814 0.4139
C106 C -0.0377(3) 1.2098(6) 0.4361(3)
C107 C -0.0304(3) 1.1866(5) 0.4647(3)
H61 H -0.0358 1.1507 0.4686
C108 C -0.0140(3) 1.2225(6) 0.4872(3)
H62 H -0.0078 1.2080 0.5054
C109 C -0.0663(3) 1.1279(7) 0.4145(4)
C110 C -0.0929(3) 1.0531(5) 0.3861(3)
C111 C -0.0893(3) 1.0132(6) 0.4054(3)
H63 H -0.0767 1.0189 0.4228
C112 C -0.1037(3) 0.9637(6) 0.4006(3)
H64 H -0.1011 0.9364 0.4146
C113 C -0.1214(3) 0.9546(7) 0.3756(3)
H65 H -0.1306 0.9204 0.3725
C114 C -0.1265(3) 0.9939(6) 0.3541(3)
H66 H -0.1396 0.9869 0.3373
C115 C -0.1114(3) 1.0455(5) 0.3581(3)
C116 C -0.1387(3) 1.0975(6) 0.3184(3)
C117 C -0.1594(3) 1.1663(5) 0.2805(3)
C118 C -0.1848(4) 1.1403(8) 0.2718(4)
H67 H -0.1881 1.1048 0.2783
C119 C -0.2060(4) 1.1694(8) 0.2525(4)
H68 H -0.2230 1.1511 0.2448
C120 C -0.2026(4) 1.2227(7) 0.2448(4)
C121 C -0.1554(4) 1.2191(7) 0.2724(4)
H69 H -0.1389 1.2391 0.2797
C122 C -0.1778(3) 1.2416(7) 0.2525(4)
H70 H -0.1739 1.2746 0.2438
C123 C 0.0330(2) 1.3158(5) 0.5842(3)
C124 C 0.0231(3) 1.2643(5) 0.5930(3)
H71 H 0.0146 1.2385 0.5794
C125 C 0.0260(3) 1.2525(5) 0.6210(3)
H72 H 0.0218 1.2162 0.6256
C126 C 0.0339(3) 1.2862(5) 0.6419(3)
C127 C 0.0439(3) 1.3400(5) 0.6354(3)
H73 H 0.0512 1.3655 0.6497
C128 C 0.0419(2) 1.3527(5) 0.6053(3)
H74 H 0.0472 1.3881 0.6004
C129 C 0.0501(2) 1.2926(5) 0.6950(3)
C130 C 0.0612(3) 1.2802(6) 0.7463(3)
C131 C 0.0883(3) 1.2989(6) 0.7537(3)
H75 H 0.0992 1.3026 0.7397
C132 C 0.1002(4) 1.3125(6) 0.7812(4)
H76 H 0.1187 1.3264 0.7855
C133 C 0.0862(4) 1.3064(7) 0.8013(4)
H77 H 0.0951 1.3161 0.8198
C134 C 0.0581(3) 1.2857(6) 0.7967(3)
H78 H 0.0493 1.2803 0.8121
C135 C 0.0435(3) 1.2733(6) 0.7693(3)
C136 C -0.0042(3) 1.2555(6) 0.7781(3)
C137 C 0.0600(3) 1.4353(5) 0.5079(3)
C138 C 0.0873(2) 1.4476(5) 0.5222(3)
H79 H 0.0960 1.4262 0.5378
C139 C 0.0882(2) 1.5259(5) 0.4905(2)
C140 C 0.1029(3) 1.4962(6) 0.5125(3)
H80 H 0.1216 1.5050 0.5211
C141 C 0.0631(3) 1.5136(6) 0.4768(3)
H81 H 0.0552 1.5336 0.4605
C142 C 0.0460(3) 1.4667(6) 0.4867(3)
H82 H 0.0269 1.4604 0.4785
C143 C 0.1017(3) 1.5928(5) 0.4557(3)
C144 C 0.1234(3) 1.6628(5) 0.4286(3)
C145 C 0.1197(3) 1.6351(6) 0.4053(3)
H83 H 0.1136 1.5982 0.4047
C146 C 0.1249(3) 1.6611(6) 0.3809(3)
H84 H 0.1224 1.6411 0.3639
C147 C 0.1330(3) 1.7121(5) 0.3813(3)
H85 H 0.1356 1.7287 0.3644
C148 C 0.1378(3) 1.7411(6) 0.4048(3)
H86 H 0.1460 1.7762 0.4049
C149 C 0.1305(3) 1.7200(6) 0.4302(3)
C150 C 0.1285(3) 1.8085(5) 0.4564(3)
C151 C 0.1272(3) 1.8839(6) 0.4935(3)
C152 C 0.1229(3) 1.8913(7) 0.5186(4)
H87 H 0.1211 1.8603 0.5297
C153 C 0.1209(3) 1.9444(7) 0.5302(4)
H88 H 0.1183 1.9506 0.5487
C154 C 0.1232(3) 1.9871(7) 0.5109(4)
C155 C 0.1275(3) 1.9831(7) 0.4841(4)
H89 H 0.1286 2.0142 0.4728
C156 C 0.1304(3) 1.9259(6) 0.4738(3)
H90 H 0.1341 1.9182 0.4559
N16 N -0.0517(2) 1.1774(4) 0.4133(2)
H91 H -0.0513 1.1896 0.3965
N17 N -0.0773(2) 1.1061(4) 0.3892(2)
H92 H -0.0752 1.1237 0.3741
N18 N -0.1139(2) 1.0868(4) 0.3373(2)
H93 H -0.0990 1.1064 0.3364
N19 N -0.1377(2) 1.1426(4) 0.3021(2)
H94 H -0.1216 1.1598 0.3052
N20 N -0.2261(3) 1.2574(7) 0.2255(3)
N21 N 0.03280(19) 1.2737(4) 0.67092(19)
H95 H 0.0195 1.2512 0.6733
N22 N 0.0472(2) 1.2678(5) 0.7188(2)
H96 H 0.0353 1.2406 0.7171
N23 N 0.0171(2) 1.2495(4) 0.7626(2)
H97 H 0.0134 1.2291 0.7475
N24 N -0.0290(2) 1.2294(4) 0.7679(2)
H98 H -0.0318 1.2171 0.7507
N25 N -0.1194(3) 1.1813(5) 0.8217(3)
N26 N 0.1035(2) 1.5754(4) 0.4837(2)
H99 H 0.1139 1.5940 0.4973
N27 N 0.1181(2) 1.6418(4) 0.4552(2)
H100 H 0.1249 1.6590 0.4709
N28 N 0.1350(2) 1.7501(4) 0.4559(2)
H101 H 0.1418 1.7332 0.4716
N29 N 0.1315(2) 1.8267(4) 0.4847(2)
H102 H 0.1363 1.8023 0.4980
N30 N 0.1188(3) 2.0495(6) 0.5226(3)
O25 O -0.0731(2) 1.1119(4) 0.4378(2)
O26 O -0.16070(19) 1.0731(4) 0.31921(19)
O27 O -0.2228(3) 1.3036(6) 0.2221(3)
O28 O -0.2460(4) 1.2291(7) 0.2184(4)
O29 O 0.0660(2) 1.3326(4) 0.6952(2)
O30 O -0.0003(2) 1.2868(4) 0.7998(2)
O31 O -0.1226(2) 1.2068(5) 0.8435(3)
O32 O -0.1379(3) 1.1502(5) 0.8097(3)
O33 O 0.0869(2) 1.5701(4) 0.4351(2)
O34 O 0.1215(2) 1.8364(4) 0.4351(2)
O35 O 0.1247(3) 2.0517(6) 0.5484(4)
O36 O 0.1157(3) 2.0752(6) 0.5036(3)
C157 C 0.4799(3) 1.0730(6) 0.5723(3)
C158 C 0.5008(3) 1.0323(5) 0.5837(3)
C159 C 0.4931(3) 0.9868(6) 0.5994(3)
C160 C 0.4647(3) 0.9825(6) 0.6029(3)
C161 C 0.4434(3) 1.0182(5) 0.5898(3)
C162 C 0.4498(2) 1.0656(5) 0.5746(3)
C163 C 0.4296(3) 1.1059(5) 0.5616(3)
C164 C 0.4044(2) 1.1163(5) 0.5711(3)
H103 H 0.4013 1.0977 0.5873
C165 C 0.3843(3) 1.1527(5) 0.5577(3)
H104 H 0.3684 1.1601 0.5656
C166 C 0.4112(3) 1.1697(6) 0.5230(3)
H105 H 0.4139 1.1884 0.5067
C167 C 0.3869(3) 1.1791(5) 0.5324(3)
C168 C 0.4321(3) 1.1338(6) 0.5363(3)
H106 H 0.4482 1.1278 0.5285
C169 C 0.3673(3) 1.2583(5) 0.5020(3)
C170 C 0.3418(2) 1.3320(5) 0.4734(2)
C171 C 0.3632(3) 1.3717(5) 0.4766(3)
H107 H 0.3789 1.3681 0.4915
C172 C 0.3618(3) 1.4171(6) 0.4581(3)
H108 H 0.3764 1.4435 0.4604
C173 C 0.3397(3) 1.4212(6) 0.4378(3)
H109 H 0.3388 1.4512 0.4254
C174 C 0.3168(3) 1.3827(6) 0.4333(3)
H110 H 0.3013 1.3886 0.4184
C175 C 0.3169(3) 1.3360(5) 0.4509(3)
C176 C 0.2749(4) 1.2865(7) 0.4268(4)
C177 C 0.2340(2) 1.2242(5) 0.4089(3)
C178 C 0.2108(3) 1.1988(5) 0.4172(2)
H111 H 0.2103 1.1957 0.4365
C179 C 0.1884(2) 1.1780(5) 0.3968(4)
H112 H 0.1729 1.1610 0.4023
C180 C 0.1891(3) 1.1826(6) 0.3680(3)
C181 C 0.2122(3) 1.2080(6) 0.3596(2)
H113 H 0.2127 1.2111 0.3404
C182 C 0.2347(3) 1.2289(5) 0.3801(3)
H114 H 0.2502 1.2459 0.3745
C183 C 0.7142(3) 1.0660(6) 0.5722(3)
C184 C 0.7419(3) 1.0522(6) 0.5819(3)
H115 H 0.7565 1.0677 0.5742
C185 C 0.7479(4) 1.0102(7) 0.6059(4)
H116 H 0.7662 0.9955 0.6116
C186 C 0.7265(3) 0.9937(6) 0.6193(3)
H117 H 0.7305 0.9717 0.6355
C187 C 0.6979(3) 1.0114(6) 0.6075(3)
H118 H 0.6830 0.9969 0.6151
C188 C 0.6917(3) 1.0482(6) 0.5859(3)
C189 C 0.5302(3) 1.0390(5) 0.5791(3)
C190 C 0.5369(3) 1.0683(6) 0.5552(3)
H119 H 0.5220 1.0791 0.5405
C191 C 0.5644(3) 1.0811(6) 0.5532(3)
H120 H 0.5680 1.1023 0.5381
C192 C 0.5875(3) 1.0614(5) 0.5748(3)
C193 C 0.5824(3) 1.0258(5) 0.5967(3)
H121 H 0.5972 1.0091 0.6096
C194 C 0.5522(3) 1.0168(5) 0.5982(3)
H122 H 0.5481 0.9949 0.6129
C195 C 0.6395(3) 1.0441(5) 0.5817(3)
C196 C 0.7197(4) 1.1066(7) 0.5285(4)
C197 C 0.7238(3) 1.1691(5) 0.4876(3)
C198 C 0.7056(2) 1.1885(6) 0.4631(3)
H123 H 0.6859 1.1876 0.4618
C199 C 0.7168(3) 1.2091(6) 0.4405(3)
H124 H 0.7046 1.2221 0.4242
C200 C 0.7462(3) 1.2103(6) 0.4425(3)
C201 C 0.7645(2) 1.1909(6) 0.4670(3)
H125 H 0.7842 1.1917 0.4683
C202 C 0.7532(3) 1.1703(5) 0.4895(2)
H126 H 0.7654 1.1573 0.5059
C203 C 0.4567(2) 0.9311(5) 0.6180(2)
C204 C 0.4780(4) 0.9002(7) 0.6354(4)
H127 H 0.4973 0.9095 0.6377
C205 C 0.4689(3) 0.8536(6) 0.6497(3)
H128 H 0.4829 0.8312 0.6605
C206 C 0.4415(2) 0.8397(5) 0.6486(3)
C207 C 0.4211(3) 0.8734(6) 0.6341(3)
H129 H 0.4018 0.8673 0.6339
C208 C 0.4306(3) 0.9202(5) 0.6186(3)
H130 H 0.4166 0.9437 0.6085
C209 C 0.4097(3) 0.7851(5) 0.6722(3)
C210 C 0.3849(3) 0.7166(5) 0.6973(3)
C211 C 0.3657(2) 0.7514(5) 0.7055(2)
H131 H 0.3678 0.7898 0.7048
C212 C 0.3416(3) 0.7260(6) 0.7155(3)
H132 H 0.3267 0.7486 0.7186
C213 C 0.3404(3) 0.6747(5) 0.7201(3)
H133 H 0.3256 0.6605 0.7279
C214 C 0.3602(3) 0.6402(6) 0.7137(3)
H134 H 0.3582 0.6021 0.7162
C215 C 0.3841(2) 0.6598(4) 0.7032(2)
C216 C 0.4045(2) 0.5706(4) 0.6920(2)
C217 C 0.4342(2) 0.4921(5) 0.6818(3)
C218 C 0.4626(3) 0.4707(5) 0.6858(3)
H135 H 0.4779 0.4919 0.6953
C219 C 0.4671(3) 0.4207(6) 0.6761(3)
H136 H 0.4859 0.4095 0.6767
C220 C 0.4459(3) 0.3854(5) 0.6654(3)
C221 C 0.4186(3) 0.4027(6) 0.6616(3)
H137 H 0.4037 0.3783 0.6548
C222 C 0.4130(3) 0.4563(5) 0.6679(3)
H138 H 0.3944 0.4695 0.6628
N31 N 0.3644(2) 1.2138(4) 0.51921(19)
H139 H 0.3476 1.2065 0.5221
N32 N 0.3433(2) 1.2850(4) 0.4906(2)
H140 H 0.3275 1.2722 0.4940
N33 N 0.2943(2) 1.3011(4) 0.4501(2)
H141 H 0.2922 1.2870 0.4661
N34 N 0.2550(2) 1.2439(4) 0.4300(2)
H142 H 0.2563 1.2295 0.4467
N35 N 0.1612(4) 1.1497(8) 0.3457(5)
N36 N 0.61525(18) 1.0755(4) 0.57103(19)
H143 H 0.6172 1.1052 0.5616
N37 N 0.6639(2) 1.0665(4) 0.5753(2)
H144 H 0.6619 1.0943 0.5637
N38 N 0.7066(2) 1.1039(4) 0.5498(2)
H145 H 0.6927 1.1264 0.5501
N39 N 0.7083(3) 1.1454(6) 0.5071(3)
H146 H 0.6907 1.1554 0.5057
N40 N 0.7588(7) 1.2316(12) 0.4169(6)
N41 N 0.43532(19) 0.7941(4) 0.66414(19)
H147 H 0.4486 0.7697 0.6691
N42 N 0.41040(19) 0.7373(4) 0.68977(19)
H148 H 0.4264 0.7206 0.6960
N43 N 0.4068(2) 0.6245(4) 0.6997(2)
H149 H 0.4236 0.6389 0.7026
N44 N 0.4305(2) 0.5481(4) 0.6894(2)
H150 H 0.4452 0.5694 0.6926
N45 N 0.4530(3) 0.3315(6) 0.6559(3)
O37 O 0.39234(18) 1.2739(4) 0.49846(19)
O38 O 0.2731(3) 1.3124(5) 0.4028(3)
O39 O 0.1445(5) 1.1313(9) 0.3609(5)
O40 O 0.1674(5) 1.1657(10) 0.3241(6)
O41 O 0.63809(19) 0.9979(4) 0.5929(2)
O42 O 0.7425(3) 1.0815(6) 0.5269(3)
O43 O 0.7838(3) 1.2213(5) 0.4205(3)
O44 O 0.7433(4) 1.2547(9) 0.3989(5)
O45 O 0.3879(2) 0.8139(4) 0.6650(2)
O46 O 0.38163(17) 0.5441(3) 0.68827(17)
O47 O 0.4774(3) 0.3172(5) 0.6561(3)
O48 O 0.4322(2) 0.2968(5) 0.6507(2)
C223 C 0.3607(4) 0.3095(8) 0.7017(4)
C224 C 0.3907(4) 0.3164(8) 0.7176(4)
C225 C 0.4229(3) 0.3734(6) 0.7502(3)
C226 C 0.4235(3) 0.4245(7) 0.7687(3)
C227 C 0.4145(3) 0.5242(6) 0.7663(3)
C228 C 0.3872(3) 0.5238(6) 0.7827(3)
C229 C 0.3384(3) 0.5317(6) 0.7715(3)
C230 C 0.3118(4) 0.5356(7) 0.7448(4)
C231 C 0.2866(3) 0.4896(7) 0.7071(4)
C232 C 0.2858(4) 0.4338(8) 0.6919(5)
C233 C 0.3064(5) 0.3706(10) 0.6680(5)
C234 C 0.3334(5) 0.3571(8) 0.6612(5)
O49 O 0.3945(2) 0.3655(4) 0.7337(2)
O50 O 0.41462(19) 0.4705(4) 0.7512(2)
O51 O 0.36328(19) 0.5269(4) 0.75960(19)
O52 O 0.3109(2) 0.4861(4) 0.7297(2)
O53 O 0.3077(3) 0.4279(7) 0.6791(3)
O54 O 0.3554(2) 0.3595(4) 0.6812(2)
K6 K 0.43264(7) 1.22296(15) 0.60784(8)
K7 K 0.36202(6) 0.45584(13) 0.71386(7)
K8 K 0.76979(14) 1.1512(3) 0.36430(14)
C235 C 0.5775(3) 0.6101(5) 0.7418(3)
C236 C 0.5743(3) 0.6405(5) 0.7630(3)
H151 H 0.5557 0.6493 0.7646
C237 C 0.5957(3) 0.6605(5) 0.7833(3)
H152 H 0.5917 0.6818 0.7982
C238 C 0.6235(3) 0.6492(5) 0.7816(3)
C239 C 0.6273(3) 0.6183(6) 0.7601(3)
H153 H 0.6461 0.6120 0.7583
C240 C 0.6068(3) 0.5953(5) 0.7407(3)
H154 H 0.6109 0.5709 0.7270
C241 C 0.4750(3) 0.7517(6) 0.2495(3)
C242 C 0.4934(3) 0.7127(6) 0.2607(3)
H155 H 0.4928 0.6986 0.2786
C243 C 0.5136(4) 0.6926(7) 0.2460(4)
H156 H 0.5257 0.6634 0.2533
C244 C 0.5154(3) 0.7174(7) 0.2200(4)
C245 C 0.4986(4) 0.7571(7) 0.2085(4)
H157 H 0.5009 0.7750 0.1919
C246 C 0.4752(4) 0.7722(8) 0.2236(4)
H158 H 0.4607 0.7961 0.2150
C247 C 0.2938(2) 1.3834(5) 0.5421(3)
C248 C 0.2962(4) 1.4302(9) 0.5612(5)
H159 H 0.2954 1.4255 0.5803
C249 C 0.2998(4) 1.4813(8) 0.5504(4)
H160 H 0.3002 1.5125 0.5620
C250 C 0.3026(3) 1.4880(7) 0.5221(4)
C251 C 0.3071(4) 1.4434(8) 0.5087(5)
H161 H 0.3161 1.4473 0.4933
C252 C 0.2998(3) 1.3913(6) 0.5154(3)
H162 H 0.2988 1.3621 0.5025
C253 C 0.4173(3) 0.8076(6) 0.5035(3)
H163 H 0.4275 0.7789 0.4972
C254 C 0.4177(3) 0.8140(5) 0.5317(3)
C255 C 0.4039(3) 0.8604(5) 0.5409(3)
H164 H 0.4048 0.8659 0.5603
C256 C 0.3894(3) 0.8972(5) 0.5216(3)
C257 C 0.3889(3) 0.8916(6) 0.4927(3)
H165 H 0.3805 0.9184 0.4797
C258 C 0.4014(3) 0.8443(5) 0.4842(3)
C259 C 0.4002(2) 0.8372(5) 0.4521(3)
C260 C 0.3971(3) 0.8799(6) 0.4348(3)
H166 H 0.3959 0.9155 0.4421
C261 C 0.3954(3) 0.8727(6) 0.4054(3)
H167 H 0.3937 0.9039 0.3937
C262 C 0.3996(3) 0.7772(7) 0.4125(3)
H168 H 0.4012 0.7415 0.4055
C263 C 0.3962(2) 0.8219(5) 0.3937(2)
C264 C 0.4006(3) 0.7839(6) 0.4405(3)
H169 H 0.4016 0.7528 0.4523
C265 C 0.3821(3) 0.8432(5) 0.3415(3)
C266 C 0.3741(3) 0.8437(6) 0.2898(3)
C267 C 0.3494(4) 0.8804(8) 0.2877(4)
H170 H 0.3425 0.8917 0.3036
C268 C 0.3359(6) 0.8985(10) 0.2581(6)
H171 H 0.3183 0.9167 0.2549
C269 C 0.3489(5) 0.8887(9) 0.2364(5)
H172 H 0.3414 0.9043 0.2187
C270 C 0.3743(4) 0.8549(8) 0.2396(4)
H173 H 0.3822 0.8475 0.2238
C271 C 0.3875(4) 0.8322(7) 0.2673(4)
C272 C 0.4308(4) 0.8027(8) 0.2556(4)
C273 C 0.4322(3) 0.7714(5) 0.5533(3)
C274 C 0.4376(3) 0.7227(5) 0.5473(3)
H174 H 0.4335 0.7140 0.5280
C275 C 0.4482(3) 0.6820(6) 0.5643(3)
H175 H 0.4486 0.6460 0.5572
C276 C 0.4591(3) 0.6928(5) 0.5931(3)
C277 C 0.4590(3) 0.7489(5) 0.5997(3)
H176 H 0.4673 0.7610 0.6180
C278 C 0.4468(4) 0.7868(8) 0.5794(4)
H177 H 0.4487 0.8246 0.5837
C279 C 0.4799(3) 0.6029(5) 0.6098(3)
C280 C 0.5010(3) 0.5193(5) 0.6376(3)
C281 C 0.4941(3) 0.4798(7) 0.6156(4)
H178 H 0.4814 0.4905 0.5991
C282 C 0.5051(4) 0.4238(8) 0.6168(4)
H179 H 0.4990 0.3962 0.6032
C283 C 0.5257(3) 0.4174(6) 0.6406(3)
H180 H 0.5357 0.3839 0.6416
C284 C 0.5344(3) 0.4521(5) 0.6637(3)
H181 H 0.5474 0.4407 0.6798
C285 C 0.5219(3) 0.5079(5) 0.6615(3)
C286 C 0.5538(3) 0.5526(5) 0.7009(3)
C287 C 0.3733(2) 0.9476(5) 0.5307(3)
C288 C 0.3619(2) 0.9458(5) 0.5564(3)
H182 H 0.3638 0.9132 0.5671
C289 C 0.3486(3) 0.9892(5) 0.5654(3)
H183 H 0.3438 0.9890 0.5833
C290 C 0.3419(3) 1.0359(5) 0.5469(3)
C291 C 0.3535(2) 1.0402(5) 0.5221(3)
H184 H 0.3504 1.0720 0.5108
C292 C 0.3694(3) 0.9967(5) 0.5148(3)
H185 H 0.3777 1.0000 0.4989
C293 C 0.3235(3) 1.0954(6) 0.5804(4)
C294 C 0.2984(3) 1.1679(6) 0.6058(3)
C295 C 0.3026(4) 1.1404(7) 0.6331(4)
H186 H 0.3107 1.1050 0.6350
C296 C 0.2946(3) 1.1663(7) 0.6574(4)
H187 H 0.2975 1.1495 0.6752
C297 C 0.2825(4) 1.2166(7) 0.6523(4)
H188 H 0.2755 1.2332 0.6670
C298 C 0.2793(3) 1.2474(6) 0.6258(3)
H189 H 0.2717 1.2832 0.6243
C299 C 0.2877(3) 1.2228(5) 0.6030(3)
C300 C 0.2899(3) 1.3120(6) 0.5764(3)
N46 N 0.39633(19) 0.8100(4) 0.3648(2)
H190 H 0.4055 0.7811 0.3610
N47 N 0.3875(2) 0.8246(4) 0.3170(2)
H191 H 0.4002 0.7989 0.3178
N48 N 0.4109(2) 0.8006(4) 0.2706(2)
H192 H 0.4131 0.7764 0.2841
N49 N 0.4524(3) 0.7638(5) 0.2645(3)
H193 H 0.4523 0.7458 0.2800
N50 N 0.5403(5) 0.7019(10) 0.2037(6)
N51 N 0.4698(2) 0.6553(4) 0.6160(2)
H194 H 0.4700 0.6648 0.6333
N52 N 0.4869(2) 0.5735(4) 0.6349(2)
H195 H 0.4827 0.5879 0.6500
N53 N 0.5278(2) 0.5462(4) 0.6832(2)
H196 H 0.5141 0.5677 0.6858
N54 N 0.5540(2) 0.5923(4) 0.7200(2)
H197 H 0.5380 0.6095 0.7193
N55 N 0.6469(3) 0.6733(6) 0.8031(3)
N56 N 0.3244(2) 1.0827(4) 0.5523(2)
H198 H 0.3150 1.1021 0.5384
N57 N 0.3052(2) 1.1425(4) 0.5811(2)
H199 H 0.2976 1.1570 0.5649
N58 N 0.2856(2) 1.2522(4) 0.5790(2)
H200 H 0.2813 1.2338 0.5633
N59 N 0.2904(2) 1.3275(4) 0.5491(2)
H201 H 0.2886 1.3025 0.5360
N60 N 0.3065(4) 1.5428(8) 0.5090(5)
O55 O 0.3694(2) 0.8848(4) 0.3456(2)
O56 O 0.4314(3) 0.8350(5) 0.2355(3)
O57 O 0.5391(3) 0.7182(6) 0.1815(4)
O58 O 0.5500(3) 0.6589(6) 0.2125(3)
O59 O 0.48377(18) 0.5869(4) 0.5864(2)
O60 O 0.57481(18) 0.5219(3) 0.69911(18)
O61 O 0.6716(3) 0.6658(5) 0.7979(3)
O62 O 0.6424(2) 0.6932(4) 0.8246(2)
O63 O 0.3372(2) 1.0756(4) 0.6026(2)
O64 O 0.29516(18) 1.3386(4) 0.5976(2)
O65 O 0.3134(4) 1.5508(8) 0.4909(5)
O66 O 0.3106(3) 1.5798(7) 0.5306(4)
K9 K 0.35657(12) 1.6233(2) 0.55456(12)
K10 K 0.37596(19) 1.6442(4) 0.54881(19)
C301 C 0.4666(5) 0.9584(9) 0.5114(5)
Cl1 Cl 0.4616(2) 0.9295(5) 0.4809(3)
Cl2 Cl 0.4401(2) 1.0015(5) 0.5080(2)
F1 F 0.4704(2) 0.9214(4) 0.5335(2)
F2 F 0.4891(3) 0.9972(7) 0.5094(3)
O67 O 0.51184(15) 0.6745(3) 0.71899(15)
O68 O 0.48152(15) 0.7072(3) 0.67150(15)
O69 O 0.45884(14) 0.6838(3) 0.71323(15)
O70 O 0.47906(14) 0.6079(3) 0.68751(15)
P1 P 0.48287(6) 0.66786(12) 0.69742(6)
O71 O 0.65467(15) 1.1846(3) 0.50223(16)
O72 O 0.63394(16) 1.2553(3) 0.53126(17)
O73 O 0.66484(15) 1.1767(3) 0.55666(16)
O74 O 0.61568(15) 1.1550(3) 0.52791(15)
P2 P 0.64179(7) 1.19282(13) 0.52967(7)
O75 O 0.46157(18) 0.7153(3) 0.31589(18)
O76 O 0.43751(16) 0.6406(3) 0.33823(16)
O77 O 0.44112(16) 0.7375(3) 0.35957(17)
O78 O 0.40869(17) 0.7172(3) 0.31133(17)
P3 P 0.43750(7) 0.70249(14) 0.33174(7)
P4 P 0.28356(6) 1.19398(13) 0.50570(7)
O79 O 0.30982(15) 1.1569(3) 0.50586(16)
O80 O 0.26193(16) 1.1820(3) 0.47820(16)
O81 O 0.27009(15) 1.1835(3) 0.53175(16)
O82 O 0.29213(16) 1.2561(3) 0.50501(17)
C302? C 0.8365(4) 1.2189(7) 0.3618(4)
C303? C 0.8188(4) 1.2394(8) 0.3355(4)
C304? C 0.7679(4) 1.2648(8) 0.3193(5)
C305? C 0.7381(5) 1.2751(10) 0.3303(5)
C306? C 0.7052(5) 1.2239(9) 0.3456(5)
C307? C 0.6930(6) 1.1594(11) 0.3454(6)
C308? C 0.7052(8) 1.1091(16) 0.3667(9)
C309? C 0.7178(7) 1.0851(13) 0.4045(7)
C310? C 0.7686(7) 1.0662(12) 0.4240(7)
C311? C 0.8008(6) 1.0496(11) 0.4179(6)
C312? C 0.8411(5) 1.0910(10) 0.4048(5)
C313? C 0.8492(4) 1.1476(7) 0.3936(4)
O83? O 0.7313(3) 1.2194(6) 0.3363(3)
O84? O 0.7887(3) 1.2476(5) 0.3406(3)
O85? O 0.8299(2) 1.1683(5) 0.3697(3)
O86? O 0.8154(4) 1.0977(7) 0.4127(4)
O87? O 0.7518(5) 1.0690(8) 0.4017(5)
O88? O 0.7151(5) 1.1509(10) 0.3794(5)
K11? K 1.26346(12) 0.8675(3) 0.58692(13)
K12? K 1.25534(15) 0.8999(3) 0.59551(15)
C314? C 1.2886(4) 0.7700(7) 0.6045(4)
O89? O 1.0312(9) 0.5353(17) 0.2418(9)
O90? O 0.9925(5) 0.3971(10) 0.2884(5)
K13? K 0.98346(16) 0.5144(3) 0.26948(17)
O91? O 0.8607(3) 0.6055(7) 0.3250(4)
O92? O 0.9449(4) 0.4725(8) 0.3013(4)
C315? C 0.9168(7) 0.5210(14) 0.2954(7)
C316? C 0.9214(6) 0.5782(12) 0.2811(6)
O93? O 0.9595(5) 0.6345(9) 0.2372(5)
C317? C 0.9908(7) 0.6049(13) 0.2356(7)
C318? C 1.1987(5) 0.8274(10) 0.5446(5)
C319? C 1.2138(5) 0.7816(9) 0.5427(5)
C320? C 1.2557(6) 0.7389(12) 0.5732(6)
O94? O 1.2346(3) 0.7788(6) 0.5681(3)
O95? O 1.2132(2) 0.8838(5) 0.5438(3)
C321? C 1.2698(6) 1.0032(11) 0.6126(6)
C322? C 1.2586(6) 1.0138(11) 0.5793(6)
O96? O 1.2310(5) 0.9715(9) 0.5755(5)
O97? O 1.2926(4) 0.9656(8) 0.6106(4)
C323? C 1.3245(7) 0.9172(13) 0.6358(7)
C324? C 1.3187(6) 0.7967(12) 0.6348(6)
O98? O 1.3104(4) 0.8559(9) 0.6349(4)
C325? C 0.2094(7) 0.7262(12) 1.0067(7)
C326? C 0.1648(6) 0.7715(10) 0.9831(5)
C327? C 0.1425(6) 0.7806(11) 0.9657(6)
O99? O 0.1849(4) 0.7327(8) 0.9817(4)
O100? O 0.1176(8) 0.7252(15) 0.9681(8)
K14? K 0.16405(19) 0.6297(4) 0.9627(2)
O101? O 0.1906(7) 0.5340(13) 0.9983(7)
O102? O 0.1062(4) 0.6235(8) 0.9336(4)
C328? C 0.5575(7) 0.3371(14) 0.3500(7)
C329? C 0.5360(5) 0.3404(9) 0.3438(5)
C330? C 0.4970(5) 0.3824(9) 0.3084(5)
C331? C 0.4910(3) 0.4019(6) 0.2817(3)
C332? C 0.4913(4) 0.4825(9) 0.2557(5)
C333? C 0.5017(4) 0.5476(7) 0.2617(4)
C334? C 0.5451(5) 0.5325(10) 0.2518(5)
C335? C 0.5802(4) 0.5556(7) 0.2614(4)
C336? C 0.6155(8) 0.5326(13) 0.3012(8)
C337? C 0.6292(5) 0.5140(10) 0.3289(6)
C338? C 0.6084(4) 0.4619(9) 0.3612(5)
C339? C 0.6053(6) 0.4225(12) 0.3779(6)
O103? O 0.5714(4) 0.3891(9) 0.3590(4)
O104? O 0.5260(3) 0.3767(6) 0.3169(3)
O105? O 0.4993(3) 0.4609(5) 0.2804(3)
O106? O 0.5336(4) 0.5501(8) 0.2694(4)
O107? O 0.5910(4) 0.5314(7) 0.2892(4)
O108? O 0.6165(5) 0.4707(9) 0.3403(5)
C340? C 0.2866(6) 0.8764(13) 0.4934(7)
C341? C 0.2870(4) 0.8292(8) 0.4751(4)
O109? O 0.2528(3) 0.8957(6) 0.4732(3)
O110? O 0.3059(4) 0.8495(8) 0.4475(5)
C342? C 0.1886(4) 0.8619(8) 0.3901(4)
C343? C 0.2057(4) 0.8755(9) 0.4411(5)
C344? C 0.2129(4) 0.9010(7) 0.4664(4)
C345? C 0.3213(4) 0.8466(7) 0.4094(4)
C346? C 0.3064(5) 0.9002(10) 0.3685(6)
C347? C 0.2549(5) 0.9126(9) 0.3546(5)
C348? C 0.2250(5) 0.9353(9) 0.3419(5)
C349? C 0.2801(8) 0.9337(14) 0.3538(7)
C350? C 0.2027(9) 0.9022(17) 0.3539(8)
O111? O 0.2072(4) 0.8997(8) 0.3742(4)
O112? O 0.2026(4) 0.8840(8) 0.4197(4)
O113? O 0.3074(2) 0.8948(4) 0.3987(2)
O114? O 0.6909(6) 1.2464(12) 0.7424(7)
C351? C 0.6047(6) 1.3547(12) 0.6737(6)
C352? C 0.6179(10) 1.3563(17) 0.6995(10)
O115? O 0.6019(4) 1.2963(8) 0.6713(4)
O116? O 0.6480(5) 1.3397(8) 0.7184(5)
C353? C 0.4485(6) 1.1144(11) 0.6630(6)
O117? O 0.4711(4) 1.1540(7) 0.6477(4)
C354? C 0.3684(5) 1.2975(12) 0.5953(6)
C355? C 0.3763(6) 1.3316(11) 0.5832(6)
C356? C 0.4149(5) 1.3528(10) 0.5619(5)
C357? C 0.4428(5) 1.3278(9) 0.5536(5)
C358? C 0.4842(4) 1.2756(8) 0.5694(4)
C359? C 0.5035(5) 1.2514(10) 0.5946(5)
C360? C 0.5045(6) 1.1770(11) 0.6286(6)
C361? C 0.3840(5) 1.1809(9) 0.6530(5)
C362? C 0.3748(6) 1.2166(14) 0.6317(7)
O118? O 0.4095(5) 1.1505(9) 0.6509(5)
O119? O 0.3709(5) 1.2584(12) 0.6118(6)
O120? O 0.4027(4) 1.3100(8) 0.5722(4)
O121? O 0.4626(3) 1.2965(5) 0.5777(3)
O122? O 0.4924(3) 1.2028(5) 0.6065(3)
C363? C 0.3515(5) 1.7667(10) 0.5662(5)
C364? C 0.3858(4) 1.7353(8) 0.6025(4)
C365? C 0.3912(5) 1.6739(11) 0.6204(6)
C366? C 0.4046(3) 1.5850(7) 0.6203(4)
C367? C 0.4124(5) 1.5572(11) 0.5971(6)
O123? O 0.3963(4) 1.6318(8) 0.6068(4)
O124? O 0.3946(5) 1.5320(9) 0.5806(5)
O125? O 0.3575(3) 1.7234(5) 0.5841(3)
C368? C 0.4108(7) 1.5137(14) 0.5487(8)
C369? C 0.3842(15) 1.561(3) 0.4988(16)
C370? C 0.3935(10) 1.603(2) 0.4855(10)
C371? C 0.3732(9) 1.6243(17) 0.4747(9)
C372? C 0.3522(4) 1.7035(9) 0.4812(5)
C373? C 0.3470(5) 1.7465(10) 0.5037(5)
O126? O 0.3996(7) 1.5519(14) 0.5190(7)
O127? O 0.3700(4) 1.6625(8) 0.4980(4)
O128? O 0.3337(3) 1.7240(6) 0.5248(3)
C374? C 0.6127(10) 1.1494(19) 0.6413(10)
C375? C 0.6375(7) 1.1277(12) 0.6337(7)
C376? C 0.6786(12) 1.089(2) 0.6762(11)
O129? O 0.6068(7) 1.1970(13) 0.6356(7)
O130? O 0.6498(5) 1.1184(8) 0.6668(5)
K15? K 0.77700(15) 1.1583(3) 0.37766(15)
loop_
_geom_bond_atom_site_label_1
_geom_bond_atom_site_label_2
_geom_bond_site_symmetry_1
_geom_bond_site_symmetry_2
C1 H1 1_555 1_555
C2 C1 1_555 1_555
C3 C2 1_555 1_555
H2 C3 1_555 1_555
C4 C3 1_555 1_555
C5 C4 1_555 1_555
H3 C5 1_555 1_555
C6 C1 1_555 1_555
C7 C6 1_555 1_555
C8 C7 1_555 1_555
H4 C8 1_555 1_555
C9 C8 1_555 1_555
H5 C9 1_555 1_555
C10 C9 1_555 1_555
C11 C7 1_555 1_555
H6 C11 1_555 1_555
C12 C10 1_555 1_555
H7 C12 1_555 1_555
C13 N1 1_555 1_555
C14 C15 1_555 1_555
C15 H8 1_555 1_555
C16 C15 1_555 1_555
H9 C16 1_555 1_555
C17 C16 1_555 1_555
H10 C17 1_555 1_555
C18 C17 1_555 1_555
H11 C18 1_555 1_555
C19 C14 1_555 1_555
C20 N3 1_555 1_555
C21 C22 1_555 1_555
C22 H12 1_555 1_555
C23 C22 1_555 1_555
H13 C23 1_555 1_555
C24 C23 1_555 1_555
C25 C24 1_555 1_555
H14 C25 1_555 1_555
C26 C21 1_555 1_555
H15 C26 1_555 1_555
C27 C2 1_555 1_555
C28 C27 1_555 1_555
H16 C28 1_555 1_555
C29 C28 1_555 1_555
H17 C29 1_555 1_555
C30 C29 1_555 1_555
C31 C30 1_555 1_555
H18 C31 1_555 1_555
C32 C27 1_555 1_555
H19 C32 1_555 1_555
C33 N6 1_555 1_555
C34 C35 1_555 1_555
C35 H20 1_555 1_555
C36 C35 1_555 1_555
H21 C36 1_555 1_555
C37 C36 1_555 1_555
H22 C37 1_555 1_555
C38 C37 1_555 1_555
H23 C38 1_555 1_555
C39 C34 1_555 1_555
C40 N8 1_555 1_555
C41 C42 1_555 1_555
C42 H24 1_555 1_555
C43 C42 1_555 1_555
H25 C43 1_555 1_555
C44 C43 1_555 1_555
C45 C44 1_555 1_555
H26 C45 1_555 1_555
C46 C41 1_555 1_555
H27 C46 1_555 1_555
C47 C4 1_555 1_555
C48 C47 1_555 1_555
H28 C48 1_555 1_555
C49 C48 1_555 1_555
H29 C49 1_555 1_555
C50 C49 1_555 1_555
C51 C50 1_555 1_555
H30 C51 1_555 1_555
C52 C47 1_555 1_555
H31 C52 1_555 1_555
C53 N11 1_555 1_555
C54 C55 1_555 1_555
C55 H32 1_555 1_555
C56 C55 1_555 1_555
H33 C56 1_555 1_555
C57 H34 1_555 1_555
C58 C56 1_555 1_555
H35 C58 1_555 1_555
C59 C54 1_555 1_555
C60 N13 1_555 1_555
C61 C62 1_555 1_555
C62 H36 1_555 1_555
C63 C62 1_555 1_555
H37 C63 1_555 1_555
C64 C63 1_555 1_555
C65 C64 1_555 1_555
H38 C65 1_555 1_555
C66 C61 1_555 1_555
H39 C66 1_555 1_555
N1 C10 1_555 1_555
H40 N1 1_555 1_555
N2 C13 1_555 1_555
H41 N2 1_555 1_555
N3 C19 1_555 1_555
H42 N3 1_555 1_555
N4 C20 1_555 1_555
H43 N4 1_555 1_555
N5 C24 1_555 1_555
N6 C30 1_555 1_555
H44 N6 1_555 1_555
N7 C33 1_555 1_555
H45 N7 1_555 1_555
N8 C39 1_555 1_555
H46 N8 1_555 1_555
N9 C40 1_555 1_555
H47 N9 1_555 1_555
N10 C44 1_555 1_555
N11 C50 1_555 1_555
H48 N11 1_555 1_555
N12 C53 1_555 1_555
H49 N12 1_555 1_555
N13 C59 1_555 1_555
H50 N13 1_555 1_555
N14 C60 1_555 1_555
H51 N14 1_555 1_555
N15 C64 1_555 1_555
O1 C13 1_555 1_555
O2 C20 1_555 1_555
O3 N5 1_555 1_555
O4 N5 1_555 1_555
O5 C33 1_555 1_555
O6 C40 1_555 1_555
O7 N10 1_555 1_555
O8 N10 1_555 1_555
O9 C53 1_555 1_555
O10 C60 1_555 1_555
O11 N15 1_555 1_555
O12 N15 1_555 1_555
C67 C68 1_555 1_555
C68 O17 1_555 1_555
C69 C70 1_555 1_555
C70 O16 1_555 1_555
C71 C72 1_555 1_555
C72 O15 1_555 1_555
C73 C74 1_555 1_555
C74 O14 1_555 1_555
C75 C76 1_555 1_555
C76 O13 1_555 1_555
C77 C78 1_555 1_555
C78 O18 1_555 1_555
O13 C77 1_555 1_555
O14 C75 1_555 1_555
O15 C73 1_555 1_555
O16 C71 1_555 1_555
O17 C69 1_555 1_555
O18 C67 1_555 1_555
C79 C80 1_555 1_555
C80 O19 1_555 1_555
C81 C82 1_555 1_555
C82 O20 1_555 1_555
C83 C84 1_555 1_555
C84 O21 1_555 1_555
C85 C86 1_555 1_555
C86 O22 1_555 1_555
C87 C88 1_555 1_555
C88 O23 1_555 1_555
C89 C90 1_555 1_555
C90 O24 1_555 1_555
O19 C81 1_555 1_555
O20 C83 1_555 1_555
O21 C85 1_555 1_555
O22 C87 1_555 1_555
O23 C89 1_555 1_555
O24 C79 1_555 1_555
C91 C92 1_555 1_555
C92 H52 1_555 1_555
C93 C92 1_555 1_555
H53 C93 1_555 1_555
C94 C93 1_555 1_555
C95 C94 1_555 1_555
H54 C95 1_555 1_555
C96 C91 1_555 1_555
H55 C96 1_555 1_555
C97 H56 1_555 1_555
C98 C97 1_555 1_555
C99 C98 1_555 1_555
H57 C99 1_555 1_555
C100 C99 1_555 1_555
C101 C100 1_555 1_555
H58 C101 1_555 1_555
C102 C97 1_555 1_555
C103 C102 1_555 1_555
C104 C103 1_555 1_555
H59 C104 1_555 1_555
C105 C104 1_555 1_555
H60 C105 1_555 1_555
C106 C105 1_555 1_555
C107 C106 1_555 1_555
H61 C107 1_555 1_555
C108 C103 1_555 1_555
H62 C108 1_555 1_555
C109 N16 1_555 1_555
C110 C111 1_555 1_555
C111 H63 1_555 1_555
C112 C111 1_555 1_555
H64 C112 1_555 1_555
C113 C112 1_555 1_555
H65 C113 1_555 1_555
C114 C113 1_555 1_555
H66 C114 1_555 1_555
C115 C110 1_555 1_555
C116 N18 1_555 1_555
C117 C118 1_555 1_555
C118 H67 1_555 1_555
C119 C118 1_555 1_555
H68 C119 1_555 1_555
C120 C119 1_555 1_555
C121 C117 1_555 1_555
H69 C121 1_555 1_555
C122 C120 1_555 1_555
H70 C122 1_555 1_555
C123 C98 1_555 1_555
C124 C123 1_555 1_555
H71 C124 1_555 1_555
C125 C124 1_555 1_555
H72 C125 1_555 1_555
C126 C125 1_555 1_555
C127 C126 1_555 1_555
H73 C127 1_555 1_555
C128 C123 1_555 1_555
H74 C128 1_555 1_555
C129 N21 1_555 1_555
C130 C131 1_555 1_555
C131 H75 1_555 1_555
C132 C131 1_555 1_555
H76 C132 1_555 1_555
C133 C132 1_555 1_555
H77 C133 1_555 1_555
C134 C133 1_555 1_555
H78 C134 1_555 1_555
C135 C130 1_555 1_555
C136 N23 1_555 1_555
C137 C100 1_555 1_555
C138 C137 1_555 1_555
H79 C138 1_555 1_555
C139 C140 1_555 1_555
C140 C138 1_555 1_555
H80 C140 1_555 1_555
C141 C139 1_555 1_555
H81 C141 1_555 1_555
C142 C137 1_555 1_555
H82 C142 1_555 1_555
C143 N26 1_555 1_555
C144 C145 1_555 1_555
C145 H83 1_555 1_555
C146 C145 1_555 1_555
H84 C146 1_555 1_555
C147 C146 1_555 1_555
H85 C147 1_555 1_555
C148 C147 1_555 1_555
H86 C148 1_555 1_555
C149 C144 1_555 1_555
C150 N28 1_555 1_555
C151 C152 1_555 1_555
C152 H87 1_555 1_555
C153 C152 1_555 1_555
H88 C153 1_555 1_555
C154 C153 1_555 1_555
C155 C154 1_555 1_555
H89 C155 1_555 1_555
C156 C151 1_555 1_555
H90 C156 1_555 1_555
N16 C106 1_555 1_555
H91 N16 1_555 1_555
N17 C109 1_555 1_555
H92 N17 1_555 1_555
N18 C115 1_555 1_555
H93 N18 1_555 1_555
N19 C116 1_555 1_555
H94 N19 1_555 1_555
N20 C120 1_555 1_555
N21 C126 1_555 1_555
H95 N21 1_555 1_555
N22 C129 1_555 1_555
H96 N22 1_555 1_555
N23 C135 1_555 1_555
H97 N23 1_555 1_555
N24 C91 1_555 1_555
H98 N24 1_555 1_555
N25 C94 1_555 1_555
N26 C139 1_555 1_555
H99 N26 1_555 1_555
N27 C143 1_555 1_555
H100 N27 1_555 1_555
N28 C149 1_555 1_555
H101 N28 1_555 1_555
N29 C150 1_555 1_555
H102 N29 1_555 1_555
N30 C154 1_555 1_555
O25 C109 1_555 1_555
O26 C116 1_555 1_555
O27 N20 1_555 1_555
O28 N20 1_555 1_555
O29 C129 1_555 1_555
O30 C136 1_555 1_555
O31 N25 1_555 1_555
O32 N25 1_555 1_555
O33 C143 1_555 1_555
O34 C150 1_555 1_555
O35 N30 1_555 1_555
O36 N30 1_555 1_555
C157 C158 1_555 1_555
C158 C159 1_555 1_555
C159 C160 1_555 1_555
C160 C161 1_555 1_555
C161 C162 1_555 1_555
C162 C157 1_555 1_555
C163 C162 1_555 1_555
C164 C163 1_555 1_555
H103 C164 1_555 1_555
C165 C164 1_555 1_555
H104 C165 1_555 1_555
C166 H105 1_555 1_555
C167 C165 1_555 1_555
C168 C163 1_555 1_555
H106 C168 1_555 1_555
C169 N31 1_555 1_555
C170 C171 1_555 1_555
C171 H107 1_555 1_555
C172 C171 1_555 1_555
H108 C172 1_555 1_555
C173 C172 1_555 1_555
H109 C173 1_555 1_555
C174 C173 1_555 1_555
H110 C174 1_555 1_555
C175 C170 1_555 1_555
C176 N33 1_555 1_555
C177 C178 1_555 1_555
C178 H111 1_555 1_555
C179 C178 1_555 1_555
H112 C179 1_555 1_555
C180 C179 1_555 1_555
C181 C180 1_555 1_555
H113 C181 1_555 1_555
C182 C177 1_555 1_555
H114 C182 1_555 1_555
C183 C184 1_555 1_555
C184 H115 1_555 1_555
C185 C184 1_555 1_555
H116 C185 1_555 1_555
C186 C185 1_555 1_555
H117 C186 1_555 1_555
C187 C186 1_555 1_555
H118 C187 1_555 1_555
C188 C183 1_555 1_555
C189 C158 1_555 1_555
C190 C189 1_555 1_555
H119 C190 1_555 1_555
C191 C190 1_555 1_555
H120 C191 1_555 1_555
C192 C191 1_555 1_555
C193 C192 1_555 1_555
H121 C193 1_555 1_555
C194 C189 1_555 1_555
H122 C194 1_555 1_555
C195 N36 1_555 1_555
C196 N38 1_555 1_555
C197 C198 1_555 1_555
C198 H123 1_555 1_555
C199 C198 1_555 1_555
H124 C199 1_555 1_555
C200 C199 1_555 1_555
C201 C200 1_555 1_555
H125 C201 1_555 1_555
C202 C197 1_555 1_555
H126 C202 1_555 1_555
C203 C160 1_555 1_555
C204 C203 1_555 1_555
H127 C204 1_555 1_555
C205 C204 1_555 1_555
H128 C205 1_555 1_555
C206 C205 1_555 1_555
C207 C206 1_555 1_555
H129 C207 1_555 1_555
C208 C203 1_555 1_555
H130 C208 1_555 1_555
C209 N41 1_555 1_555
C210 C211 1_555 1_555
C211 H131 1_555 1_555
C212 C211 1_555 1_555
H132 C212 1_555 1_555
C213 C212 1_555 1_555
H133 C213 1_555 1_555
C214 C213 1_555 1_555
H134 C214 1_555 1_555
C215 C210 1_555 1_555
C216 N43 1_555 1_555
C217 C218 1_555 1_555
C218 H135 1_555 1_555
C219 C218 1_555 1_555
H136 C219 1_555 1_555
C220 C219 1_555 1_555
C221 C220 1_555 1_555
H137 C221 1_555 1_555
C222 C217 1_555 1_555
H138 C222 1_555 1_555
N31 C167 1_555 1_555
H139 N31 1_555 1_555
N32 C169 1_555 1_555
H140 N32 1_555 1_555
N33 C175 1_555 1_555
H141 N33 1_555 1_555
N34 C176 1_555 1_555
H142 N34 1_555 1_555
N35 C180 1_555 1_555
N36 C192 1_555 1_555
H143 N36 1_555 1_555
N37 C188 1_555 1_555
H144 N37 1_555 1_555
N38 C183 1_555 1_555
H145 N38 1_555 1_555
N39 C196 1_555 1_555
H146 N39 1_555 1_555
N40 C200 1_555 1_555
N41 C206 1_555 1_555
H147 N41 1_555 1_555
N42 C209 1_555 1_555
H148 N42 1_555 1_555
N43 C215 1_555 1_555
H149 N43 1_555 1_555
N44 C216 1_555 1_555
H150 N44 1_555 1_555
N45 C220 1_555 1_555
O37 C169 1_555 1_555
O38 C176 1_555 1_555
O39 N35 1_555 1_555
O40 N35 1_555 1_555
O41 C195 1_555 1_555
O42 C196 1_555 1_555
O43 N40 1_555 1_555
O44 N40 1_555 1_555
O45 C209 1_555 1_555
O46 C216 1_555 1_555
O47 N45 1_555 1_555
O48 N45 1_555 1_555
C223 C224 1_555 1_555
C224 O49 1_555 1_555
C225 C226 1_555 1_555
C226 O50 1_555 1_555
C227 C228 1_555 1_555
C228 O51 1_555 1_555
C229 C230 1_555 1_555
C230 O52 1_555 1_555
C231 C232 1_555 1_555
C232 O53 1_555 1_555
C233 C234 1_555 1_555
C234 O54 1_555 1_555
O49 C225 1_555 1_555
O50 C227 1_555 1_555
O51 C229 1_555 1_555
O52 C231 1_555 1_555
O53 C233 1_555 1_555
O54 C223 1_555 1_555
C235 C236 1_555 1_555
C236 H151 1_555 1_555
C237 C236 1_555 1_555
H152 C237 1_555 1_555
C238 C237 1_555 1_555
C239 C238 1_555 1_555
H153 C239 1_555 1_555
C240 C235 1_555 1_555
H154 C240 1_555 1_555
C241 C242 1_555 1_555
C242 H155 1_555 1_555
C243 C242 1_555 1_555
H156 C243 1_555 1_555
C244 C243 1_555 1_555
C245 C244 1_555 1_555
H157 C245 1_555 1_555
C246 C241 1_555 1_555
H158 C246 1_555 1_555
C247 C248 1_555 1_555
C248 H159 1_555 1_555
C249 C248 1_555 1_555
H160 C249 1_555 1_555
C250 C249 1_555 1_555
C251 C250 1_555 1_555
H161 C251 1_555 1_555
C252 C247 1_555 1_555
H162 C252 1_555 1_555
C253 H163 1_555 1_555
C254 C253 1_555 1_555
C255 C254 1_555 1_555
H164 C255 1_555 1_555
C256 C255 1_555 1_555
C257 C256 1_555 1_555
H165 C257 1_555 1_555
C258 C253 1_555 1_555
C259 C258 1_555 1_555
C260 C259 1_555 1_555
H166 C260 1_555 1_555
C261 C260 1_555 1_555
H167 C261 1_555 1_555
C262 H168 1_555 1_555
C263 C261 1_555 1_555
C264 C259 1_555 1_555
H169 C264 1_555 1_555
C265 N46 1_555 1_555
C266 C267 1_555 1_555
C267 H170 1_555 1_555
C268 C267 1_555 1_555
H171 C268 1_555 1_555
C269 C268 1_555 1_555
H172 C269 1_555 1_555
C270 C269 1_555 1_555
H173 C270 1_555 1_555
C271 C266 1_555 1_555
C272 N48 1_555 1_555
C273 C254 1_555 1_555
C274 C273 1_555 1_555
H174 C274 1_555 1_555
C275 C274 1_555 1_555
H175 C275 1_555 1_555
C276 C275 1_555 1_555
C277 C276 1_555 1_555
H176 C277 1_555 1_555
C278 C273 1_555 1_555
H177 C278 1_555 1_555
C279 N51 1_555 1_555
C280 C281 1_555 1_555
C281 H178 1_555 1_555
C282 C281 1_555 1_555
H179 C282 1_555 1_555
C283 C282 1_555 1_555
H180 C283 1_555 1_555
C284 C283 1_555 1_555
H181 C284 1_555 1_555
C285 C280 1_555 1_555
C286 N53 1_555 1_555
C287 C256 1_555 1_555
C288 C287 1_555 1_555
H182 C288 1_555 1_555
C289 C288 1_555 1_555
H183 C289 1_555 1_555
C290 C289 1_555 1_555
C291 C290 1_555 1_555
H184 C291 1_555 1_555
C292 C287 1_555 1_555
H185 C292 1_555 1_555
C293 N56 1_555 1_555
C294 C295 1_555 1_555
C295 H186 1_555 1_555
C296 C295 1_555 1_555
H187 C296 1_555 1_555
C297 C296 1_555 1_555
H188 C297 1_555 1_555
C298 C297 1_555 1_555
H189 C298 1_555 1_555
C299 C294 1_555 1_555
C300 N58 1_555 1_555
N46 C263 1_555 1_555
H190 N46 1_555 1_555
N47 C265 1_555 1_555
H191 N47 1_555 1_555
N48 C271 1_555 1_555
H192 N48 1_555 1_555
N49 C241 1_555 1_555
H193 N49 1_555 1_555
N50 C244 1_555 1_555
N51 C276 1_555 1_555
H194 N51 1_555 1_555
N52 C279 1_555 1_555
H195 N52 1_555 1_555
N53 C285 1_555 1_555
H196 N53 1_555 1_555
N54 C235 1_555 1_555
H197 N54 1_555 1_555
N55 C238 1_555 1_555
N56 C290 1_555 1_555
H198 N56 1_555 1_555
N57 C293 1_555 1_555
H199 N57 1_555 1_555
N58 C299 1_555 1_555
H200 N58 1_555 1_555
N59 C247 1_555 1_555
H201 N59 1_555 1_555
N60 C250 1_555 1_555
O55 C265 1_555 1_555
O56 C272 1_555 1_555
O57 N50 1_555 1_555
O58 N50 1_555 1_555
O59 C279 1_555 1_555
O60 C286 1_555 1_555
O61 N55 1_555 1_555
O62 N55 1_555 1_555
O63 C293 1_555 1_555
O64 C300 1_555 1_555
O65 N60 1_555 1_555
O66 N60 1_555 1_555
C301 Cl1 1_555 1_555
Cl2 C301 1_555 1_555
F1 C301 1_555 1_555
F2 C301 1_555 1_555
O67 P1 1_555 1_555
O68 P1 1_555 1_555
O69 P1 1_555 1_555
O70 P1 1_555 1_555
O71 P2 1_555 1_555
O72 P2 1_555 1_555
O73 P2 1_555 1_555
O74 P2 1_555 1_555
O75 P3 1_555 1_555
O76 P3 1_555 1_555
O77 P3 1_555 1_555
O78 P3 1_555 1_555
P4 O79 1_555 1_555
O80 P4 1_555 1_555
O81 P4 1_555 1_555
O82 P4 1_555 1_555
C5 C6 1_555 1_555
C11 C12 1_555 1_555
C14 N2 1_555 1_555
C18 C19 1_555 1_555
C21 N4 1_555 1_555
C25 C26 1_555 1_555
C31 C32 1_555 1_555
C34 N7 1_555 1_555
C38 C39 1_555 1_555
C41 N9 1_555 1_555
C45 C46 1_555 1_555
C51 C52 1_555 1_555
C54 N12 1_555 1_555
C57 C58 1_555 1_555
C57 C59 1_555 1_555
C61 N14 1_555 1_555
C65 C66 1_555 1_555
C95 C96 1_555 1_555
C101 C102 1_555 1_555
C107 C108 1_555 1_555
C110 N17 1_555 1_555
C114 C115 1_555 1_555
C117 N19 1_555 1_555
C121 C122 1_555 1_555
C127 C128 1_555 1_555
C130 N22 1_555 1_555
C134 C135 1_555 1_555
C136 N24 1_555 1_555
C141 C142 1_555 1_555
C144 N27 1_555 1_555
C148 C149 1_555 1_555
C151 N29 1_555 1_555
C155 C156 1_555 1_555
C166 C167 1_555 1_555
C166 C168 1_555 1_555
C170 N32 1_555 1_555
C174 C175 1_555 1_555
C177 N34 1_555 1_555
C181 C182 1_555 1_555
C187 C188 1_555 1_555
C193 C194 1_555 1_555
C195 N37 1_555 1_555
C197 N39 1_555 1_555
C201 C202 1_555 1_555
C207 C208 1_555 1_555
C210 N42 1_555 1_555
C214 C215 1_555 1_555
C217 N44 1_555 1_555
C221 C222 1_555 1_555
C239 C240 1_555 1_555
C245 C246 1_555 1_555
C251 C252 1_555 1_555
C257 C258 1_555 1_555
C262 C263 1_555 1_555
C262 C264 1_555 1_555
C266 N47 1_555 1_555
C270 C271 1_555 1_555
C272 N49 1_555 1_555
C277 C278 1_555 1_555
C280 N52 1_555 1_555
C284 C285 1_555 1_555
C286 N54 1_555 1_555
C291 C292 1_555 1_555
C294 N57 1_555 1_555
C298 C299 1_555 1_555
C300 N59 1_555 1_555

#END
