
#######################################################################
#
#                 Cambridge Crystallographic Data Centre
#                                CCDC 
#
#######################################################################
#
# If this CIF has been generated from an entry in the Cambridge 
# Structural Database, then it will include bibliographic, chemical, 
# crystal, experimental, refinement or atomic coordinate data resulting 
# from the CCDC's data processing and validation procedures.
#
#######################################################################

data_VULYAE
_chemical_formula_moiety         
'4(C66 H51 N15 O12),12(K1 1+),12(C12 H24 O6),4(O4 P1 3-),C2 H3 N1'
_chemical_name_systematic        
'tetrakis(1,3,5-tris(4-(3-(2-(3-(4-Nitrophenyl)ureido)phenyl)ureido)phenyl)benzene) dodeca-potassium dodecakis(18-crown-6) tetrakis(phosphate) acetonitrile solvate'
_symmetry_cell_setting           monoclinic
_symmetry_space_group_name_H-M   'C c'
_symmetry_Int_Tables_number      9
_space_group_name_Hall           'C -2yc'
loop_
_symmetry_equiv_pos_site_id
_symmetry_equiv_pos_as_xyz
1 x,y,z
2 x,-y,1/2+z
3 1/2+x,1/2+y,z
4 1/2+x,1/2-y,1/2+z
_cell_length_a                   47.4893(7)
_cell_length_b                   23.9961(4)
_cell_length_c                   47.9281(8)
_cell_angle_alpha                90
_cell_angle_beta                 101.7290(10)
_cell_angle_gamma                90
_cell_volume                     53476.5
_exptl_crystal_colour            yellow
_exptl_crystal_description       block
_cell_formula_units_Z            4
loop_
_atom_site_label
_atom_site_type_symbol
_atom_site_fract_x
_atom_site_fract_y
_atom_site_fract_z
C1 C 0.2005(2) 1.9655(4) 1.2049(2)
C2 C 0.21964(18) 1.9398(4) 1.2269(2)
H1 H 0.2374 1.9559 1.2340
C3 C 0.2122(2) 1.8898(4) 1.2382(2)
H2 H 0.2250 1.8726 1.2529
C4 C 0.1856(2) 1.8657(4) 1.2275(2)
C5 C 0.16641(18) 1.8915(4) 1.2055(2)
H3 H 0.1486 1.8753 1.1983
C6 C 0.17388(19) 1.9414(4) 1.1942(2)
H4 H 0.1611 1.9586 1.1794
C7 C 0.1882(2) 2.0519(4) 1.1762(2)
H5 H 0.1690 2.0466 1.1771
C8 C 0.2094(3) 2.0151(5) 1.1902(3)
C9 C 0.2385(2) 2.0244(5) 1.1893(2)
H6 H 0.2525 2.0000 1.1988
C10 C 0.2467(2) 2.0687(4) 1.1747(2)
C11 C 0.2247(2) 2.1053(4) 1.1596(2)
H7 H 0.2297 2.1347 1.1489
C12 C 0.1965(2) 2.0969(4) 1.1610(2)
C13 C 0.1738(2) 2.1325(4) 1.1435(2)
C14 C 0.1777(2) 2.1596(4) 1.1187(2)
H8 H 0.1957 2.1577 1.1139
C15 C 0.1560(2) 2.1892(5) 1.1009(2)
H9 H 0.1595 2.2080 1.0851
C16 C 0.1293(2) 2.1899(4) 1.1074(2)
C17 C 0.1240(2) 2.1666(4) 1.1324(2)
H10 H 0.1062 2.1704 1.1375
C18 C 0.1465(2) 2.1370(5) 1.1497(2)
H11 H 0.1430 2.1196 1.1660
C19 C 0.1080(2) 2.2629(4) 1.0724(2)
C20 C 0.0780(3) 2.3305(5) 1.0415(3)
C21 C 0.1001(3) 2.3699(7) 1.0395(3)
H12 H 0.1188 2.3646 1.0496
C22 C 0.0927(4) 2.4183(7) 1.0213(4)
H13 H 0.1072 2.4424 1.0186
C23 C 0.0643(4) 2.4299(8) 1.0077(4)
H14 H 0.0595 2.4624 0.9972
C24 C 0.0436(4) 2.3903(7) 1.0107(4)
H15 H 0.0247 2.3968 1.0015
C25 C 0.0497(3) 2.3418(6) 1.0266(3)
C26 C 0.0086(3) 2.2857(6) 1.0035(3)
C27 C -0.0307(3) 2.2232(6) 0.9882(3)
C28 C -0.0461(6) 2.2527(13) 0.9669(6)
H16 H -0.0456 2.2914 0.9670
C29 C -0.0647(6) 2.2204(12) 0.9423(7)
H17 H -0.0690 2.2349 0.9239
C30 C -0.0739(4) 2.1740(9) 0.9479(5)
C31 C -0.0604(4) 2.1451(8) 0.9718(4)
H18 H -0.0650 2.1079 0.9739
C32 C -0.0409(3) 2.1695(6) 0.9920(3)
H19 H -0.0338 2.1505 1.0089
C33 C 0.1512(4) 1.8041(9) 1.2466(4)
C34 C 0.1292(4) 1.7380(8) 1.2740(4)
C35 C 0.1034(5) 1.7672(12) 1.2719(6)
H20 H 0.1011 1.8029 1.2642
C36 C 0.0804(4) 1.7397(9) 1.2820(4)
H21 H 0.0629 1.7576 1.2810
C37 C 0.0845(5) 1.6874(9) 1.2932(5)
H22 H 0.0692 1.6699 1.2990
C38 C 0.1099(3) 1.6597(7) 1.2962(3)
H23 H 0.1124 1.6252 1.3053
C39 C 0.1316(3) 1.6832(6) 1.2857(3)
C40 C 0.1560(2) 1.5980(4) 1.2732(2)
C41 C 0.1859(2) 1.5259(4) 1.2595(2)
C42 C 0.1641(2) 1.4951(4) 1.2421(2)
H24 H 0.1454 1.5087 1.2371
C43 C 0.1714(3) 1.4437(5) 1.2324(3)
H25 H 0.1572 1.4225 1.2210
C44 C 0.1997(2) 1.4223(5) 1.2392(2)
C45 C 0.2214(2) 1.4534(5) 1.2558(2)
H26 H 0.2401 1.4400 1.2598
C46 C 0.2151(2) 1.5040(4) 1.2663(2)
H27 H 0.2295 1.5245 1.2778
C47 C 0.2772(2) 2.0744(5) 1.1712(2)
C48 C 0.2876(2) 2.1240(5) 1.1625(2)
H28 H 0.2757 2.1552 1.1603
C49 C 0.3153(3) 2.1288(6) 1.1569(3)
H29 H 0.3212 2.1618 1.1497
C50 C 0.3339(2) 2.0836(4) 1.1624(2)
C51 C 0.3247(2) 2.0330(5) 1.1733(2)
H30 H 0.3369 2.0026 1.1776
C52 C 0.2961(2) 2.0313(5) 1.1772(2)
H31 H 0.2897 1.9986 1.1843
C53 C 0.3853(2) 2.0614(5) 1.1684(2)
C54 C 0.4389(3) 2.0669(5) 1.1732(3)
C55 C 0.4470(3) 2.0430(6) 1.2002(3)
H32 H 0.4333 2.0369 1.2112
C56 C 0.4755(4) 2.0282(8) 1.2106(4)
H33 H 0.4808 2.0120 1.2285
C57 C 0.4958(5) 2.0375(11) 1.1944(5)
H34 H 0.5144 2.0242 1.2011
C58 C 0.4899(5) 2.0664(9) 1.1681(5)
H35 H 0.5042 2.0780 1.1588
C59 C 0.4595(3) 2.0764(5) 1.1569(3)
C60 C 0.4634(3) 2.0987(5) 1.1060(3)
C61 C 0.4638(3) 2.1451(5) 1.0607(3)
C62 C 0.4941(2) 2.1414(5) 1.0622(2)
H36 H 0.5064 2.1291 1.0787
C63 C 0.5050(3) 2.1570(6) 1.0379(3)
H37 H 0.5246 2.1546 1.0382
C64 C 0.4868(3) 2.1752(6) 1.0145(3)
C65 C 0.4561(3) 2.1800(7) 1.0128(3)
H38 H 0.4439 2.1918 0.9961
C66 C 0.4455(3) 2.1666(6) 1.0365(3)
H39 H 0.4261 2.1718 1.0365
N1 N 0.10545(19) 2.2180(4) 1.08956(18)
H40 H 0.0884 2.2058 1.0896
N2 N 0.0823(2) 2.2830(4) 1.0583(2)
H41 H 0.0672 2.2644 1.0600
N3 N 0.0283(2) 2.3013(4) 1.0274(2)
H42 H 0.0276 2.2858 1.0434
N4 N -0.0100(2) 2.2457(5) 1.0095(2)
H43 H -0.0087 2.2345 1.0267
N5 N -0.0937(4) 2.1473(9) 0.9232(4)
N6 N 0.1783(3) 1.8162(7) 1.2412(3)
H44 H 0.1917 1.7920 1.2464
N7 N 0.1518(3) 1.7600(6) 1.2622(3)
H45 H 0.1678 1.7420 1.2659
N8 N 0.15722(19) 1.6504(4) 1.28279(18)
H46 H 0.1738 1.6658 1.2875
N9 N 0.18193(16) 1.5774(3) 1.26991(16)
H47 H 0.1968 1.5985 1.2747
N10 N 0.2050(2) 1.3685(5) 1.2299(2)
N11 N 0.36172(18) 2.0901(4) 1.15655(18)
H48 H 0.3637 2.1149 1.1442
N12 N 0.41018(19) 2.0850(4) 1.16302(19)
H49 H 0.4080 2.1140 1.1522
N13 N 0.4510(2) 2.1037(5) 1.1296(2)
H50 H 0.4365 2.1258 1.1278
N14 N 0.4519(2) 2.1322(5) 1.0844(2)
H51 H 0.4356 2.1474 1.0851
N15 N 0.4961(2) 2.1871(4) 0.9880(2)
O1 O 0.13160(18) 2.2820(4) 1.07024(18)
O2 O 0.0070(3) 2.3058(5) 0.9794(3)
O3 O -0.1005(5) 2.1755(9) 0.9015(5)
O4 O -0.1018(5) 2.1042(11) 0.9284(5)
O5 O 0.1294(3) 1.8319(6) 1.2347(3)
O6 O 0.13323(15) 1.5686(3) 1.26867(15)
O7 O 0.1846(2) 1.3394(5) 1.2186(2)
O8 O 0.2301(2) 1.3518(4) 1.2337(2)
O9 O 0.38731(17) 2.0202(3) 1.18560(17)
O10 O 0.4857(2) 2.0705(4) 1.1069(2)
O11 O 0.5233(2) 2.1849(4) 0.9909(2)
O12 O 0.4807(3) 2.1988(5) 0.9668(3)
C67 C 0.8282(3) 2.1728(6) 1.3330(3)
C68 C 0.8242(4) 2.2232(7) 1.3405(4)
H52 H 0.8070 2.2412 1.3333
C69 C 0.8460(5) 2.2506(10) 1.3594(5)
H53 H 0.8429 2.2860 1.3661
C70 C 0.8714(4) 2.2248(7) 1.3677(4)
C71 C 0.8759(5) 2.1783(10) 1.3607(5)
H54 H 0.8934 2.1624 1.3691
C72 C 0.8563(4) 2.1447(9) 1.3403(4)
H55 H 0.8607 2.1107 1.3330
C73 C 0.6219(2) 2.3726(4) 1.0658(2)
H56 H 0.6095 2.3926 1.0518
C74 C 0.62466(19) 2.3872(4) 1.09449(19)
C75 C 0.64214(19) 2.3539(4) 1.11539(19)
H57 H 0.6429 2.3623 1.1345
C76 C 0.6583(2) 2.3092(4) 1.1088(2)
C77 C 0.65636(19) 2.2981(4) 1.07931(19)
H58 H 0.6679 2.2702 1.0741
C78 C 0.63787(18) 2.3274(4) 1.05792(18)
C79 C 0.63485(16) 2.3125(3) 1.02796(16)
C80 C 0.64330(19) 2.2587(4) 1.0190(2)
H59 H 0.6495 2.2313 1.0326
C81 C 0.6424(2) 2.2472(4) 0.99094(19)
H60 H 0.6485 2.2123 0.9862
C82 C 0.63281(18) 2.2845(4) 0.96931(18)
C83 C 0.62306(19) 2.3366(4) 0.97677(19)
H61 H 0.6156 2.3623 0.9627
C84 C 0.62455(18) 2.3498(4) 1.00538(18)
H62 H 0.6184 2.3849 1.0098
C85 C 0.61712(19) 2.2900(4) 0.91752(19)
C86 C 0.60723(19) 2.2755(4) 0.86554(19)
C87 C 0.5788(3) 2.2941(5) 0.8593(3)
H63 H 0.5684 2.2964 0.8737
C88 C 0.5660(3) 2.3091(6) 0.8315(3)
H64 H 0.5473 2.3230 0.8275
C89 C 0.5808(3) 2.3035(7) 0.8103(3)
H65 H 0.5720 2.3120 0.7917
C90 C 0.6095(3) 2.2850(5) 0.8162(3)
H66 H 0.6198 2.2833 0.8017
C91 C 0.6226(2) 2.2690(4) 0.8440(2)
C92 C 0.67108(19) 2.2564(4) 0.83460(19)
C93 C 0.7191(2) 2.2192(4) 0.8306(2)
C94 C 0.7186(3) 2.2373(5) 0.8029(3)
H67 H 0.7029 2.2566 0.7927
C95 C 0.7419(2) 2.2258(5) 0.7911(2)
H68 H 0.7422 2.2393 0.7729
C96 C 0.7653(2) 2.1943(4) 0.8055(2)
C97 C 0.7652(3) 2.1758(5) 0.8328(3)
H69 H 0.7805 2.1549 0.8428
C98 C 0.7428(2) 2.1886(4) 0.8449(2)
H70 H 0.7430 2.1765 0.8633
C99 C 0.6083(2) 2.4353(4) 1.1032(2)
C100 C 0.5801(2) 2.4458(4) 1.0904(2)
H71 H 0.5708 2.4226 1.0759
C101 C 0.5649(2) 2.4924(4) 1.09934(19)
H72 H 0.5459 2.4997 1.0907
C102 C 0.57951(19) 2.5265(4) 1.12153(18)
C103 C 0.6082(2) 2.5141(5) 1.1329(2)
H73 H 0.6183 2.5366 1.1473
C104 C 0.6218(2) 2.4707(5) 1.1238(2)
H74 H 0.6411 2.4647 1.1318
C105 C 0.5673(2) 2.5920(4) 1.1556(2)
C106 C 0.54637(19) 2.6632(4) 1.18287(19)
C107 C 0.5497(2) 2.6339(5) 1.2080(2)
H75 H 0.5545 2.5963 1.2083
C108 C 0.5460(2) 2.6599(5) 1.2326(2)
H76 H 0.5504 2.6407 1.2498
C109 C 0.5357(2) 2.7142(5) 1.2323(2)
H77 H 0.5312 2.7301 1.2486
C110 C 0.5323(2) 2.7445(4) 1.2066(2)
H78 H 0.5260 2.7813 1.2060
C111 C 0.5383(2) 2.7199(4) 1.18241(19)
C112 C 0.54071(17) 2.8064(3) 1.15602(17)
C113 C 0.5421(2) 2.8813(4) 1.1205(2)
C114 C 0.5477(3) 2.8908(6) 1.0937(3)
H79 H 0.5504 2.8601 1.0827
C115 C 0.5495(3) 2.9415(6) 1.0827(3)
H80 H 0.5527 2.9459 1.0644
C116 C 0.5463(3) 2.9885(6) 1.0998(3)
C117 C 0.5424(3) 2.9794(6) 1.1267(3)
H81 H 0.5416 3.0102 1.1383
C118 C 0.5395(2) 2.9267(5) 1.1381(2)
H82 H 0.5360 2.9221 1.1564
C119 C 0.6763(2) 2.2765(4) 1.1311(2)
C120 C 0.6866(2) 2.2978(5) 1.1589(2)
H83 H 0.6838 2.3353 1.1624
C121 C 0.7006(2) 2.2652(5) 1.1804(3)
H84 H 0.7071 2.2809 1.1983
C122 C 0.7056(2) 2.2084(5) 1.1764(2)
C123 C 0.6970(2) 2.1869(4) 1.1491(2)
H85 H 0.7018 2.1506 1.1451
C124 C 0.6810(2) 2.2202(4) 1.1274(2)
H86 H 0.6733 2.2038 1.1099
C125 C 0.7369(3) 2.1307(6) 1.1979(3)
C126 C 0.7624(2) 2.0571(4) 1.2278(2)
C127 C 0.7581(3) 2.0138(5) 1.2078(3)
H87 H 0.7447 2.0196 1.1910
C128 C 0.7717(3) 1.9650(6) 1.2110(3)
H88 H 0.7688 1.9385 1.1966
C129 C 0.7908(3) 1.9550(6) 1.2376(3)
H89 H 0.8006 1.9213 1.2408
C130 C 0.7946(3) 1.9939(6) 1.2577(3)
H90 H 0.8071 1.9865 1.2749
C131 C 0.7803(2) 2.0461(5) 1.2541(2)
C132 C 0.8094(3) 2.1030(5) 1.2939(3)
N16 N 0.63391(15) 2.2690(3) 0.94188(15)
H91 H 0.6462 2.2438 0.9399
N17 N 0.62112(17) 2.2611(3) 0.89381(17)
H92 H 0.6326 2.2329 0.8962
N18 N 0.65002(17) 2.2471(3) 0.85005(17)
H93 H 0.6544 2.2259 0.8648
N19 N 0.69669(16) 2.2278(3) 0.84483(17)
H94 H 0.6989 2.2141 0.8617
N20 N 0.7884(2) 2.1843(5) 0.7922(2)
N21 N 0.56525(17) 2.5741(3) 1.12864(17)
H95 H 0.5547 2.5928 1.1151
N22 N 0.55072(18) 2.6390(4) 1.15732(18)
H96 H 0.5425 2.6545 1.1416
N23 N 0.53433(15) 2.7504(3) 1.15662(15)
H97 H 0.5278 2.7334 1.1408
N24 N 0.53795(16) 2.8253(3) 1.12793(16)
H98 H 0.5335 2.8013 1.1144
N25 N 0.5492(3) 3.0439(5) 1.0889(3)
N26 N 0.71943(18) 2.1784(4) 1.19953(19)
H99 H 0.7175 2.1892 1.2161
N27 N 0.74619(18) 2.1074(4) 1.22393(18)
H100 H 0.7421 2.1235 1.2386
N28 N 0.78355(19) 2.0889(4) 1.27554(19)
H101 H 0.7684 2.1072 1.2772
N29 N 0.8063(2) 2.1467(5) 1.3120(2)
H102 H 0.7892 2.1598 1.3105
N30 N 0.8951(4) 2.2676(8) 1.3902(4)
O13 O 0.60032(14) 2.3288(3) 0.91702(14)
O14 O 0.6679(2) 2.2876(4) 0.8132(2)
O15 O 0.7907(2) 2.2088(5) 0.7702(2)
O16 O 0.8070(3) 2.1498(6) 0.8034(3)
O17 O 0.74258(18) 2.1155(4) 1.17539(18)
O18 O 0.8310(2) 2.0765(4) 1.2935(2)
O19 O 0.9150(5) 2.2349(11) 1.3946(6)
O20 O 0.8911(4) 2.3100(8) 1.3914(4)
O21 O 0.58269(17) 2.5701(4) 1.17599(18)
O22 O 0.54742(15) 2.8359(3) 1.17692(15)
O23 O 0.5522(3) 3.0817(6) 1.1055(3)
O24 O 0.5455(3) 3.0483(5) 1.0634(3)
C133 C 0.7236(2) 1.5143(4) 1.0224(2)
H103 H 0.7423 1.5098 1.0197
C134 C 0.7171(2) 1.5601(4) 1.0387(2)
C135 C 0.6883(2) 1.5662(5) 1.0408(2)
H104 H 0.6831 1.5976 1.0499
C136 C 0.6671(2) 1.5278(4) 1.0300(2)
C137 C 0.6755(2) 1.4808(4) 1.0156(2)
H105 H 0.6622 1.4528 1.0095
C138 C 0.7026(2) 1.4755(4) 1.0104(2)
C139 C 0.71099(19) 1.4257(4) 0.99436(19)
C140 C 0.6899(2) 1.3972(4) 0.9766(2)
H106 H 0.6707 1.4074 0.9744
C141 C 0.6982(2) 1.3518(5) 0.9618(2)
H107 H 0.6837 1.3310 0.9503
C142 C 0.72618(18) 1.3359(4) 0.96300(18)
C143 C 0.7464(2) 1.3702(5) 0.9794(2)
H108 H 0.7659 1.3627 0.9807
C144 C 0.7385(2) 1.4153(4) 0.9941(2)
H109 H 0.7527 1.4388 1.0039
C145 C 0.75792(18) 1.2808(4) 0.93919(18)
C146 C 0.78176(18) 1.2144(4) 0.91276(18)
C147 C 0.78387(17) 1.1566(3) 0.90865(17)
C148 C 0.8027(2) 1.2500(5) 0.9059(2)
H110 H 0.8007 1.2884 0.9071
C149 C 0.8264(2) 1.2275(5) 0.8973(2)
H111 H 0.8408 1.2511 0.8938
C150 C 0.80661(18) 1.1349(4) 0.89811(18)
H112 H 0.8071 1.0971 0.8940
C151 C 0.8291(3) 1.1702(5) 0.8936(2)
H113 H 0.8453 1.1556 0.8882
C152 C 0.76325(17) 1.0671(3) 0.92041(17)
C153 C 0.73351(19) 0.9880(4) 0.93025(19)
C154 C 0.7555(2) 0.9532(4) 0.9438(2)
H114 H 0.7744 0.9659 0.9484
C155 C 0.7486(3) 0.8987(6) 0.9504(3)
H115 H 0.7633 0.8745 0.9586
C156 C 0.7206(3) 0.8801(5) 0.9452(3)
C157 C 0.6988(2) 0.9164(5) 0.9331(2)
H116 H 0.6797 0.9046 0.9297
C158 C 0.7052(2) 0.9697(4) 0.9262(2)
H117 H 0.6904 0.9941 0.9186
C159 C 0.7388(2) 1.6009(4) 1.0513(2)
C160 C 0.76245(18) 1.6129(4) 1.03986(18)
H118 H 0.7643 1.5962 1.0228
C161 C 0.78352(19) 1.6494(4) 1.05319(19)
H119 H 0.7994 1.6567 1.0453
C162 C 0.7807(2) 1.6757(4) 1.0792(2)
C163 C 0.7577(3) 1.6647(6) 1.0900(3)
H120 H 0.7550 1.6837 1.1062
C164 C 0.7374(3) 1.6244(6) 1.0772(3)
H121 H 0.7228 1.6137 1.0865
C165 C 0.7997(2) 1.7559(4) 1.10863(19)
C166 C 0.8261(2) 1.8280(4) 1.1382(2)
C167 C 0.8039(3) 1.8661(5) 1.1356(3)
H122 H 0.7876 1.8610 1.1213
C168 C 0.8051(2) 1.9116(5) 1.1535(2)
H123 H 0.7902 1.9376 1.1505
C169 C 0.8280(2) 1.9183(5) 1.1756(3)
H124 H 0.8282 1.9472 1.1886
C170 C 0.8513(2) 1.8810(5) 1.1786(2)
H125 H 0.8673 1.8858 1.1933
C171 C 0.8505(2) 1.8377(5) 1.1599(2)
C172 C 0.8934(3) 1.7853(6) 1.1869(3)
C173 C 0.9356(3) 1.7228(7) 1.2031(3)
C174 C 0.9571(4) 1.7005(8) 1.1944(4)
H126 H 0.9572 1.7008 1.1750
C175 C 0.9814(5) 1.6747(9) 1.2143(5)
H127 H 0.9964 1.6566 1.2083
C176 C 0.9799(5) 1.6797(10) 1.2424(5)
C177 C 0.9574(7) 1.7121(15) 1.2552(8)
H128 H 0.9582 1.7185 1.2745
C178 C 0.9353(6) 1.7302(12) 1.2328(6)
H129 H 0.9196 1.7482 1.2375
C179 C 0.6370(2) 1.5345(4) 1.0350(2)
C180 C 0.61481(19) 1.5130(4) 1.0154(2)
H130 H 0.6188 1.4923 1.0002
C181 C 0.5857(2) 1.5217(4) 1.0176(2)
H131 H 0.5705 1.5063 1.0045
C182 C 0.58069(19) 1.5547(4) 1.04065(19)
C183 C 0.6032(2) 1.5746(4) 1.0604(2)
H132 H 0.5998 1.5952 1.0759
C184 C 0.6312(2) 1.5640(4) 1.0576(2)
H133 H 0.6463 1.5774 1.0713
C185 C 0.5284(2) 1.5371(4) 1.0338(2)
C186 C 0.4757(2) 1.5440(4) 1.0288(2)
C187 C 0.4680(3) 1.5082(5) 1.0057(3)
H134 H 0.4826 1.4948 0.9971
C188 C 0.4405(3) 1.4914(6) 0.9947(3)
H135 H 0.4361 1.4677 0.9791
C189 C 0.4194(3) 1.5122(5) 1.0086(3)
H136 H 0.4005 1.5009 1.0020
C190 C 0.4248(3) 1.5479(5) 1.0311(3)
H137 H 0.4100 1.5605 1.0396
C191 C 0.4545(2) 1.5661(5) 1.0417(2)
C192 C 0.4447(3) 1.6110(7) 1.0836(3)
C193 C 0.4416(4) 1.6798(8) 1.1222(4)
C194 C 0.4578(6) 1.7130(11) 1.1442(6)
H138 H 0.4776 1.7154 1.1456
C195 C 0.4460(4) 1.7409(9) 1.1629(4)
H139 H 0.4568 1.7664 1.1753
C196 C 0.4176(4) 1.7315(8) 1.1637(4)
C197 C 0.4032(5) 1.6976(10) 1.1448(5)
H140 H 0.3857 1.6842 1.1478
C198 C 0.4121(4) 1.6804(9) 1.1208(4)
H141 H 0.3992 1.6696 1.1044
N31 N 0.73213(14) 1.2899(3) 0.94747(14)
H142 H 0.7188 1.2654 0.9427
N32 N 0.75759(15) 1.2347(3) 0.92227(15)
H143 H 0.7416 1.2172 0.9171
N33 N 0.76110(15) 1.1213(3) 0.91291(14)
H144 H 0.7443 1.1359 0.9105
N34 N 0.73761(15) 1.0433(3) 0.92270(14)
H145 H 0.7226 1.0643 0.9192
N35 N 0.7139(3) 0.8252(5) 0.9540(3)
N36 N 0.80407(17) 1.7113(3) 1.09268(17)
H146 H 0.8212 1.7039 1.0906
N37 N 0.82469(19) 1.7825(4) 1.12062(19)
H147 H 0.8405 1.7698 1.1170
N38 N 0.87367(19) 1.7967(4) 1.1626(2)
H148 H 0.8750 1.7782 1.1475
N39 N 0.9127(2) 1.7443(5) 1.1830(2)
H149 H 0.9103 1.7304 1.1662
N40 N 1.0062(6) 1.6528(13) 1.2634(7)
N41 N 0.55247(16) 1.5700(3) 1.04334(16)
H150 H 0.5502 1.6013 1.0513
N42 N 0.50388(16) 1.5638(3) 1.03814(16)
H151 H 0.5060 1.5949 1.0473
N43 N 0.45999(19) 1.6032(4) 1.06428(19)
H152 H 0.4752 1.6233 1.0657
N44 N 0.4565(3) 1.6488(6) 1.1043(3)
H153 H 0.4747 1.6544 1.1066
N45 N 0.4071(4) 1.7550(8) 1.1874(4)
O25 O 0.77925(17) 1.3123(3) 0.94615(17)
O26 O 0.78640(15) 1.0399(3) 0.92332(15)
O27 O 0.6899(2) 0.8121(5) 0.9552(2)
O28 O 0.7345(3) 0.7909(6) 0.9607(3)
O29 O 0.77523(17) 1.7706(4) 1.11225(18)
O30 O 0.8945(2) 1.8103(5) 1.2091(2)
O31 O 1.0043(5) 1.6694(11) 1.2899(6)
O32 O 1.0210(5) 1.6281(10) 1.2529(5)
O33 O 0.52870(15) 1.4927(3) 1.02252(16)
O34 O 0.4246(3) 1.5784(6) 1.0885(3)
O35 O 0.4204(4) 1.7913(7) 1.2026(4)
O36 O 0.3842(3) 1.7275(6) 1.1927(3)
C199 C 0.6031(4) 2.1816(8) 1.0791(4)
C200 C 0.6027(4) 2.1267(8) 1.0603(4)
C201 C 0.6036(4) 2.0891(7) 1.0142(4)
C202 C 0.6050(3) 2.1023(7) 0.9851(3)
C203 C 0.5838(3) 2.1541(6) 0.9460(3)
C204 C 0.5591(3) 2.1939(6) 0.9332(3)
C205 C 0.5390(3) 2.2794(6) 0.9371(3)
C206 C 0.5431(3) 2.3327(6) 0.9563(3)
C207 C 0.5384(3) 2.3680(6) 0.9994(3)
C208 C 0.5320(3) 2.3476(5) 1.0285(3)
C209 C 0.5484(4) 2.2954(8) 1.0671(4)
C210 C 0.5752(3) 2.2571(7) 1.0824(3)
O37 O 0.55394(18) 2.3136(4) 1.04222(18)
O38 O 0.5777(2) 2.2130(5) 1.0651(2)
O39 O 0.6051(2) 2.1399(4) 1.0324(2)
O40 O 0.5832(2) 2.1429(4) 0.9750(2)
O41 O 0.56235(16) 2.2433(3) 0.94942(16)
O42 O 0.53811(17) 2.3192(3) 0.98249(17)
C211 C 0.2633(2) 2.2408(5) 1.2096(2)
C212 C 0.2570(3) 2.1880(6) 1.2230(3)
C213 C 0.2221(3) 2.1378(5) 1.2389(3)
C214 C 0.1954(3) 2.1418(5) 1.2507(3)
C215 C 0.1480(3) 2.1785(6) 1.2415(3)
C216 C 0.1239(2) 2.1970(5) 1.2184(2)
C217 C 0.1089(3) 2.2674(5) 1.1833(3)
C218 C 0.1200(3) 2.3185(6) 1.1715(3)
C219 C 0.1516(3) 2.3491(6) 1.1419(3)
C220 C 0.1764(3) 2.3306(6) 1.1293(3)
C221 C 0.2256(3) 2.3036(5) 1.1429(3)
C222 C 0.2491(2) 2.2965(5) 1.1684(2)
O43 O 0.24245(15) 2.2462(3) 1.18337(15)
O44 O 0.22967(17) 2.1911(3) 1.23016(17)
O45 O 0.17205(17) 2.1628(3) 1.22945(17)
O46 O 0.13192(15) 2.2468(3) 1.20502(15)
O47 O 0.14215(15) 2.3035(3) 1.15670(15)
O48 O 0.19997(17) 2.3178(3) 1.15297(17)
C223 C 0.7916(4) 1.8165(9) 1.0238(4)
C224 C 0.8108(6) 1.7589(13) 1.0070(7)
C225 C 0.7874(14) 1.700(3) 0.9769(16)
C226 C 0.7792(6) 1.6743(12) 0.9542(6)
C227 C 0.7403(7) 1.6191(14) 0.9414(7)
C228 C 0.7130(5) 1.6008(10) 0.9506(5)
C229 C 0.6748(4) 1.6216(8) 0.9703(4)
C230 C 0.6590(5) 1.6710(10) 0.9810(5)
C231 C 0.6646(5) 1.7370(9) 1.0164(5)
C232 C 0.6853(6) 1.7685(11) 1.0405(6)
C233 C 0.7269(6) 1.8169(13) 1.0574(7)
C234 C 0.7530(6) 1.8314(13) 1.0462(6)
O49 O 0.7882(5) 1.7362(10) 0.9898(5)
O50 O 0.7581(4) 1.6429(9) 0.9629(4)
O51 O 0.6995(3) 1.6439(7) 0.9612(3)
O52 O 0.6772(3) 1.6967(5) 1.0049(3)
O53 O 0.7079(3) 1.7894(6) 1.0324(3)
O54 O 0.7674(4) 1.7955(9) 1.0350(4)
C235 C 0.4882(5) 1.8880(10) 1.1921(5)
C236 C 0.4801(3) 1.8620(7) 1.2221(3)
C237 C 0.4642(9) 1.895(2) 1.2585(10)
C238 C 0.4438(4) 1.9325(7) 1.2704(4)
C239 C 0.3903(11) 1.936(2) 1.2583(11)
C240 C 0.3654(6) 1.8905(12) 1.2489(6)
C241 C 0.3453(3) 1.8484(6) 1.2026(3)
C242 C 0.3345(9) 1.8736(19) 1.1697(10)
C243 C 0.3566(5) 1.8905(10) 1.1335(5)
C244 C 0.3820(5) 1.8746(10) 1.1198(5)
C245 C 0.4296(6) 1.8827(13) 1.1310(6)
C246 C 0.4552(3) 1.8999(6) 1.1461(3)
O55 O 0.4640(4) 1.9067(8) 1.2325(4)
O56 O 0.4152(4) 1.9045(8) 1.2553(4)
O57 O 0.3601(3) 1.8948(6) 1.2135(3)
O58 O 0.3621(3) 1.8662(6) 1.1611(3)
O59 O 0.4097(4) 1.8969(7) 1.1379(4)
O60 O 0.4626(4) 1.8801(8) 1.1747(4)
C247 C 0.8624(8) 0.8653(17) 0.9431(9)
C248 C 0.8377(5) 0.8479(10) 0.9523(5)
C249 C 0.8069(4) 0.8108(8) 0.9108(4)
C250 C 0.7781(4) 0.8125(8) 0.8932(4)
C251 C 0.7451(3) 0.8693(7) 0.8623(3)
C252 C 0.7453(3) 0.9241(7) 0.8437(3)
C253 C 0.7540(3) 1.0220(6) 0.8450(3)
C254 C 0.7816(3) 1.0227(6) 0.8314(3)
C255 C 0.8311(3) 1.0303(6) 0.8419(3)
C256 C 0.8576(3) 1.0313(6) 0.8668(3)
C257 C 0.8828(4) 0.9811(8) 0.9041(4)
C258 C 0.8832(5) 0.9287(11) 0.9213(6)
O61 O 0.8604(4) 0.9245(7) 0.9315(4)
O62 O 0.8125(2) 0.8555(5) 0.9301(2)
O63 O 0.7740(2) 0.8628(4) 0.8776(2)
O64 O 0.75382(18) 0.9710(4) 0.86122(19)
O65 O 0.80535(19) 1.0252(4) 0.85281(19)
O66 O 0.85925(19) 0.9817(4) 0.8825(2)
K1 K 0.57507(5) 2.23400(10) 1.00810(5)
K2 K 0.39297(10) 1.65527(19) 1.23706(11)
K3 K 0.18530(4) 2.23951(8) 1.19001(4)
K4 K 0.11476(5) 1.48208(9) 1.29321(4)
K5 K 0.73393(7) 1.71468(14) 1.00173(7)
K6 K 0.40920(5) 1.91902(10) 1.19591(5)
K7 K 0.80633(6) 0.95346(11) 0.89912(6)
K8 K 0.01421(14) 2.2372(3) 0.92979(14)
C259 C 0.76203(18) 0.3578(4) 0.07071(18)
H154 H 0.7614 0.3624 0.0513
C260 C 0.74854(17) 0.3125(3) 0.08032(17)
C261 C 0.7492(2) 0.3052(4) 0.1093(2)
H155 H 0.7401 0.2747 0.1156
C262 C 0.7630(2) 0.3428(4) 0.1279(2)
C263 C 0.7767(2) 0.3876(4) 0.1190(2)
H156 H 0.7864 0.4126 0.1324
C264 C 0.77650(17) 0.3961(3) 0.09016(17)
C265 C 0.79649(19) 0.4931(4) 0.09695(19)
H157 H 0.7883 0.4961 0.1130
C266 C 0.8128(2) 0.5377(4) 0.0894(2)
H158 H 0.8153 0.5699 0.1005
C267 C 0.8251(2) 0.5339(4) 0.0655(2)
C268 C 0.82119(19) 0.4869(4) 0.0491(2)
H159 H 0.8293 0.4844 0.0331
C269 C 0.80433(19) 0.4406(4) 0.05665(19)
H160 H 0.8015 0.4086 0.0455
C270 C 0.79256(18) 0.4453(4) 0.08094(18)
C271 C 0.8451(2) 0.5929(5) 0.0336(2)
C272 C 0.8689(3) 0.6645(5) 0.0074(3)
C273 C 0.8671(4) 0.6337(8) -0.0173(4)
H161 H 0.8623 0.5960 -0.0179
C274 C 0.8732(4) 0.6639(9) -0.0438(5)
H162 H 0.8688 0.6479 -0.0619
C275 C 0.8844(3) 0.7103(6) -0.0399(3)
H163 H 0.8914 0.7258 -0.0550
C276 C 0.8876(2) 0.7417(5) -0.0152(2)
H164 H 0.8952 0.7775 -0.0147
C277 C 0.8793(2) 0.7196(5) 0.0093(2)
C278 C 0.8766(2) 0.8060(4) 0.0349(2)
C279 C 0.87292(18) 0.8812(3) 0.07003(15)
C280 C 0.86800(19) 0.8883(3) 0.09743(15)
H165 H 0.8673 0.8574 0.1090
C281 C 0.8641(2) 0.9414(4) 0.10750(16)
H166 H 0.8608 0.9462 0.1258
C282 C 0.8651(3) 0.9876(3) 0.0902(2)
C283 C 0.8700(3) 0.9805(3) 0.0628(2)
H167 H 0.8707 1.0113 0.0512
C284 C 0.8739(2) 0.9273(4) 0.05270(15)
H168 H 0.8772 0.9226 0.0344
C285 C 0.73338(19) 0.2699(4) 0.05924(19)
C286 C 0.7214(3) 0.2851(5) 0.0314(3)
H169 H 0.7214 0.3223 0.0260
C287 C 0.7094(2) 0.2452(4) 0.0117(2)
H170 H 0.7013 0.2559 -0.0069
C288 C 0.70927(18) 0.1875(4) 0.01941(18)
C289 C 0.7190(2) 0.1754(5) 0.0471(2)
H171 H 0.7180 0.1387 0.0531
C290 C 0.7303(2) 0.2149(4) 0.0670(2)
H172 H 0.7359 0.2046 0.0860
C291 C 0.68686(19) 0.0974(4) 0.00221(18)
C292 C 0.66696(19) 0.0135(4) -0.02497(18)
C293 C 0.6754(2) -0.0259(5) -0.0040(2)
H173 H 0.6898 -0.0176 0.0117
C294 C 0.6627(3) -0.0765(6) -0.0064(3)
H174 H 0.6683 -0.1031 0.0077
C295 C 0.6418(2) -0.0887(5) -0.0295(2)
H175 H 0.6329 -0.1234 -0.0308
C296 C 0.6332(2) -0.0486(4) -0.0520(2)
H176 H 0.6195 -0.0574 -0.0682
C297 C 0.64553(18) 0.0021(3) -0.04884(17)
C298 C 0.61334(17) 0.0484(3) -0.08858(17)
C299 C 0.58913(19) 0.1069(4) -0.12889(19)
C300 C 0.5938(2) 0.1393(4) -0.1512(2)
H177 H 0.6126 0.1483 -0.1523
C301 C 0.5719(2) 0.1587(4) -0.1717(2)
H178 H 0.5757 0.1789 -0.1871
C302 C 0.5439(2) 0.1481(5) -0.1694(2)
C303 C 0.5383(3) 0.1158(5) -0.1480(3)
H179 H 0.5194 0.1080 -0.1468
C304 C 0.5608(2) 0.0945(5) -0.1281(2)
H180 H 0.5568 0.0713 -0.1138
C305 C 0.7659(2) 0.3333(4) 0.1594(2)
C306 C 0.7675(2) 0.3790(5) 0.1771(2)
H181 H 0.7666 0.4147 0.1694
C307 C 0.7703(2) 0.3721(4) 0.2068(2)
H182 H 0.7709 0.4033 0.2184
C308 C 0.77211(19) 0.3202(4) 0.21863(19)
C309 C 0.7707(2) 0.2737(5) 0.2011(2)
H183 H 0.7718 0.2380 0.2089
C310 C 0.7676(2) 0.2809(4) 0.1716(2)
H184 H 0.7666 0.2497 0.1600
C311 C 0.78592(19) 0.3428(4) 0.26936(19)
C312 C 0.7942(3) 0.3514(6) 0.3215(3)
C313 C 0.8191(4) 0.3805(8) 0.3255(4)
H185 H 0.8278 0.3853 0.3100
C314 C 0.8327(6) 0.4041(13) 0.3515(6)
H186 H 0.8500 0.4233 0.3542
C315 C 0.8170(5) 0.3953(12) 0.3731(6)
H187 H 0.8233 0.4134 0.3905
C316 C 0.7921(5) 0.3606(10) 0.3703(5)
H188 H 0.7840 0.3526 0.3860
C317 C 0.7806(3) 0.3395(7) 0.3443(3)
C318 C 0.7364(4) 0.3067(8) 0.3568(4)
C319 C 0.6941(3) 0.2566(6) 0.3630(3)
C320 C 0.6914(4) 0.2793(9) 0.3882(4)
H189 H 0.7047 0.3057 0.3966
C321 C 0.6693(4) 0.2644(8) 0.4018(4)
H190 H 0.6668 0.2833 0.4181
C322 C 0.6512(3) 0.2218(6) 0.3912(3)
C323 C 0.6552(4) 0.1969(8) 0.3675(4)
H191 H 0.6439 0.1660 0.3609
C324 C 0.6741(4) 0.2138(8) 0.3528(4)
H192 H 0.6743 0.1974 0.3353
N46 N 0.84293(18) 0.5790(4) 0.05961(18)
H193 H 0.8526 0.5977 0.0737
N47 N 0.86253(19) 0.6394(4) 0.03255(19)
H194 H 0.8702 0.6545 0.0486
N48 N 0.88165(18) 0.7498(4) 0.03490(18)
H195 H 0.8864 0.7325 0.0509
N49 N 0.87717(18) 0.8259(4) 0.06298(18)
H196 H 0.8804 0.8021 0.0766
N50 N 0.8667(3) 1.0403(7) 0.1065(4)
N51 N 0.69799(17) 0.1502(3) -0.00239(17)
H197 H 0.6978 0.1601 -0.0197
N52 N 0.68028(16) 0.0685(3) -0.02240(16)
H198 H 0.6842 0.0835 -0.0375
N53 N 0.63941(15) 0.0429(3) -0.07061(14)
H199 H 0.6529 0.0655 -0.0726
N54 N 0.61254(15) 0.0901(3) -0.10852(14)
H200 H 0.6284 0.1077 -0.1083
N55 N 0.5203(2) 0.1710(5) -0.1904(2)
N56 N 0.77226(17) 0.3102(3) 0.24779(17)
H201 H 0.7631 0.2815 0.2521
N57 N 0.7815(2) 0.3268(4) 0.2943(2)
H202 H 0.7700 0.2992 0.2945
N58 N 0.7563(2) 0.3055(5) 0.3412(2)
H203 H 0.7540 0.2813 0.3276
N59 N 0.7160(3) 0.2675(6) 0.3488(3)
H204 H 0.7166 0.2482 0.3338
N60 N 0.6302(3) 0.1998(7) 0.4068(3)
O67 O 0.83112(18) 0.5717(4) 0.01035(18)
O68 O 0.87156(19) 0.8360(4) 0.01388(19)
O69 O 0.8664(4) 1.0483(8) 0.1286(4)
O70 O 0.8622(3) 1.0790(7) 0.0871(3)
O71 O 0.68380(15) 0.0802(3) 0.02522(15)
O72 O 0.59156(14) 0.0196(3) -0.08727(14)
O73 O 0.5262(2) 0.1918(4) -0.2120(2)
O74 O 0.4957(3) 0.1693(5) -0.1852(3)
O75 O 0.79921(18) 0.3835(4) 0.26558(18)
O76 O 0.7360(3) 0.3415(6) 0.3763(3)
O77 O 0.6182(3) 0.1600(6) 0.3995(3)
O78 O 0.6279(4) 0.2252(8) 0.4286(4)
K9 K 0.81122(9) 0.11962(17) 0.05795(9)
K10 K 0.78836(11) 0.1434(2) 0.06424(11)
C325 C 0.7009(5) 0.4336(11) 0.1134(6)
C326 C 0.7000(4) 0.4288(8) 0.0855(4)
H205 H 0.7139 0.4534 0.0801
H206 H 0.6811 0.4385 0.0752
H207 H 0.7043 0.3911 0.0812
N61 N 0.7050(5) 0.4423(11) 0.1368(6)
K11 K 0.67626(12) 0.4897(2) 0.84120(12)
K12 K 0.90469(9) 1.36425(19) 1.02606(9)
K13 K 0.5066(2) 0.3702(4) 0.1485(2)
O79 O 0.89877(15) 0.6813(3) 0.08045(15)
O80 O 0.90787(14) 0.6809(3) 0.13491(14)
O81 O 0.85870(14) 0.6549(3) 0.10621(14)
O82 O 0.87594(14) 0.7545(3) 0.10691(14)
P1 P 0.88513(5) 0.69258(9) 0.10704(5)
O83 O 0.18873(11) 0.3966(2) 0.42516(11)
O84 O 0.20874(12) 0.3212(2) 0.39887(12)
O85 O 0.18588(12) 0.2970(2) 0.44075(12)
O86 O 0.15524(12) 0.3305(2) 0.39403(12)
P2 P 0.18464(4) 0.33547(8) 0.41543(4)
O87 O 0.73176(15) 0.8606(3) 0.77504(15)
O88 O 0.72738(14) 0.7645(3) 0.75343(14)
O89 O 0.70641(19) 0.7840(4) 0.79627(19)
O90 O 0.75960(16) 0.7807(3) 0.80097(16)
P3 P 0.73119(6) 0.79640(11) 0.78167(6)
O91 O 0.53419(14) 0.7536(3) 0.08077(14)
O92 O 0.50283(13) 0.6752(3) 0.05667(13)
O93 O 0.51337(13) 0.6835(3) 0.11007(13)
O94 O 0.55297(13) 0.6546(3) 0.08498(13)
P4 P 0.52599(5) 0.69159(9) 0.08347(5)
K14? K 0.69525(18) 0.4785(4) 0.84997(18)
C327? C 0.8409(8) 1.3069(17) 0.9817(8)
C328? C 0.8566(6) 1.3589(12) 0.9776(6)
O95? O 0.8776(4) 1.4611(8) 1.0034(4)
C329? C 0.8971(7) 1.4941(15) 0.9889(7)
C330? C 0.9120(7) 1.5101(15) 1.0367(7)
O96? O 0.9299(5) 1.4648(11) 1.0403(5)
C331? C 0.9629(10) 1.476(2) 1.0626(11)
C332? C 0.8964(8) 1.2094(16) 1.0149(8)
C333? C 0.9151(7) 1.2440(15) 1.0354(7)
O97? O 0.9332(4) 1.2806(8) 1.0423(4)
C334? C 0.9524(4) 1.2784(9) 1.0698(4)
C335? C 0.9713(4) 1.3258(8) 1.0702(4)
O98? O 0.9537(3) 1.3780(6) 1.0687(3)
C336? C 0.9694(6) 1.4215(14) 1.0694(7)
C337? C 0.7764(14) 0.101(3) 0.1206(14)
C338? C 0.8025(12) 0.112(2) 0.1322(12)
C339? C 0.8133(5) 0.1981(9) 0.1304(5)
C340? C 0.8215(6) 0.2461(12) 0.1076(6)
C341? C 0.8368(6) 0.2607(13) 0.0703(7)
C342? C 0.8170(10) 0.250(2) 0.0497(12)
C343? C 0.7828(6) 0.2264(12) 0.0068(6)
O99? O 0.8335(4) 0.2178(8) 0.0862(4)
O100? O 0.7958(6) 0.1619(12) 0.1149(6)
O101? O 0.8090(4) 0.2189(7) 0.0277(4)
C344? C 0.7763(6) 0.1727(12) -0.0110(6)
C345? C 0.7645(3) 0.0781(7) -0.0058(3)
C346? C 0.7562(10) 0.0485(19) 0.0124(10)
O102? O 0.7748(8) 0.0238(16) 0.0287(8)
O103? O 0.7709(5) 0.1310(10) 0.0100(5)
C347? C 0.7494(12) 0.001(3) 0.0547(13)
C348? C 0.7650(9) 0.033(2) 0.0828(10)
C349? C 0.4906(12) 0.527(3) 0.1346(13)
C350? C 0.5089(11) 0.506(2) 0.1677(11)
C351? C 0.5587(11) 0.461(2) 0.1876(12)
C352? C 0.5859(18) 0.427(4) 0.177(2)
C353? C 0.5810(8) 0.3311(17) 0.1641(9)
C354? C 0.5707(8) 0.2735(16) 0.1648(8)
C355? C 0.5287(10) 0.221(2) 0.1453(10)
C356? C 0.5031(8) 0.2286(15) 0.1280(8)
C357? C 0.471(3) 0.451(5) 0.091(3)
O104? O 0.4777(7) 0.4721(14) 0.1219(7)
O105? O 0.5334(8) 0.4708(16) 0.1673(8)
O106? O 0.5644(5) 0.3729(11) 0.1777(6)
O107? O 0.5433(6) 0.2836(12) 0.1465(6)
O108? O 0.4843(5) 0.2659(10) 0.1349(5)
C358? C 0.6399(7) 0.6235(15) 0.8374(8)
C359? C 0.6527(6) 0.6274(12) 0.8099(6)
C360? C 0.6965(5) 0.5980(10) 0.7985(5)
C361? C 0.7267(7) 0.5673(15) 0.8099(7)
C362? C 0.7482(8) 0.4821(16) 0.8186(8)
C363? C 0.7481(9) 0.426(2) 0.8355(10)
C364? C 0.7190(6) 0.3631(12) 0.8658(6)
C365? C 0.7017(8) 0.3654(17) 0.8864(9)
C366? C 0.6582(8) 0.4064(18) 0.8933(9)
C367? C 0.6283(9) 0.413(2) 0.8727(10)
O109? O 0.7207(4) 0.5110(8) 0.8111(4)
O110? O 0.7251(5) 0.4216(10) 0.8521(5)
O111? O 0.6779(4) 0.3896(8) 0.8696(4)
O112? O 0.6332(5) 0.4714(12) 0.8714(6)
O113? O 0.6298(6) 0.5645(12) 0.8340(6)
O114? O 0.6800(4) 0.5986(9) 0.8180(4)
C368? C 0.4663(9) 0.4258(19) 0.9220(9)
C369? C 0.4605(7) 0.3838(15) 0.9339(8)
C370? C 0.4524(5) 0.3270(11) 0.9762(6)
C371? C 0.4513(9) 0.3426(19) 1.0022(10)
O115? O 0.4568(3) 0.3826(7) 0.9597(3)
C372? C 0.4500(9) 1.5667(19) 1.2116(10)
O116? O 0.4501(4) 1.6527(9) 1.2245(4)
O117? O 0.4108(4) 1.5767(8) 1.1990(4)
C373? C 0.4642(6) 1.7208(12) 1.2662(6)
C374? C 0.4285(4) 1.7682(9) 1.2818(4)
C375? C 0.4012(4) 1.7611(8) 1.2926(4)
C376? C 0.3523(3) 1.7370(6) 1.2768(3)
C377? C 0.3307(3) 1.7161(7) 1.2504(3)
C378? C 0.3193(4) 1.6453(7) 1.2182(4)
C379? C 0.3300(4) 1.5893(8) 1.2097(4)
C380? C 0.3652(7) 1.5465(15) 1.1912(8)
C381? C 0.3848(8) 1.5670(17) 1.1746(9)
O118? O 0.4372(3) 1.7159(6) 1.2725(3)
O119? O 0.3787(2) 1.7441(4) 1.2696(2)
O120? O 0.3393(2) 1.6649(4) 1.2417(2)
O121? O 0.3563(3) 1.5948(6) 1.2008(3)
O122? O -0.0216(9) 2.1382(18) 0.9016(10)
O123? O 0.0181(8) 2.1185(16) 0.9452(8)
C382? C -0.0038(7) 2.0855(15) 0.9413(7)
C383? C 0.0462(9) 2.3504(18) 0.8983(9)
C384? C 0.0587(6) 2.3480(13) 0.9322(6)
C385? C 0.0823(8) 2.2930(18) 0.9702(9)
C386? C 0.068(2) 2.251(5) 0.973(3)
C387? C 0.0338(9) 2.1285(18) 0.9742(9)
O124? O 0.0644(5) 2.2952(10) 0.9377(5)
O125? O 0.0541(10) 2.183(2) 0.9685(11)
O126? O 0.0190(9) 2.3293(18) 0.8904(9)
O127? O 0.8783(5) 1.2855(11) 1.0036(6)
C388? C 0.1138(8) 1.3394(14) 1.2659(7)
O128? O 0.0982(5) 1.3926(10) 1.2560(5)
O129? O 0.0609(5) 1.4622(10) 1.2495(5)
C389? C 0.1302(4) 1.3427(8) 1.2671(4)
C390? C 0.1713(7) 1.3853(14) 1.3009(7)
C391? C 0.1768(3) 1.4044(6) 1.3296(3)
C392? C 0.1771(4) 1.4907(8) 1.3564(4)
C393? C 0.1663(3) 1.5482(6) 1.3490(3)
C394? C 0.1247(8) 1.5392(18) 1.3637(9)
C395? C 0.0873(3) 1.5527(6) 1.3487(3)
C396? C 0.0545(6) 1.5405(11) 1.3148(6)
C397? C 0.0401(5) 1.5067(9) 1.2821(5)
O130? O 0.1415(3) 1.3759(6) 1.2941(3)
O131? O 0.1686(3) 1.4616(6) 1.3300(3)
O132? O 0.1385(3) 1.5534(7) 1.3408(3)
O133? O 0.0785(3) 1.5279(7) 1.3234(3)
C398? C 0.4588(9) 0.2831(18) 0.0950(9)
O134? O 0.441(2) 0.352(5) 0.136(3)
K15? K 0.91213(10) 1.3954(2) 1.01730(10)
K16? K 0.40087(13) 1.6451(2) 1.24961(14)
loop_
_geom_bond_atom_site_label_1
_geom_bond_atom_site_label_2
_geom_bond_site_symmetry_1
_geom_bond_site_symmetry_2
C1 C2 1_555 1_555
C2 H1 1_555 1_555
C3 C2 1_555 1_555
H2 C3 1_555 1_555
C4 C3 1_555 1_555
C5 C4 1_555 1_555
H3 C5 1_555 1_555
C6 C1 1_555 1_555
H4 C6 1_555 1_555
C7 H5 1_555 1_555
C8 C1 1_555 1_555
C9 C8 1_555 1_555
H6 C9 1_555 1_555
C10 C9 1_555 1_555
C11 C10 1_555 1_555
H7 C11 1_555 1_555
C12 C7 1_555 1_555
C13 C12 1_555 1_555
C14 C13 1_555 1_555
H8 C14 1_555 1_555
C15 C14 1_555 1_555
H9 C15 1_555 1_555
C16 C15 1_555 1_555
C17 C16 1_555 1_555
H10 C17 1_555 1_555
C18 C13 1_555 1_555
H11 C18 1_555 1_555
C19 N1 1_555 1_555
C20 C21 1_555 1_555
C21 H12 1_555 1_555
C22 C21 1_555 1_555
H13 C22 1_555 1_555
C23 C22 1_555 1_555
H14 C23 1_555 1_555
C24 C23 1_555 1_555
H15 C24 1_555 1_555
C25 C20 1_555 1_555
C26 N3 1_555 1_555
C27 C28 1_555 1_555
C28 H16 1_555 1_555
C29 C28 1_555 1_555
H17 C29 1_555 1_555
C30 C29 1_555 1_555
C31 C30 1_555 1_555
H18 C31 1_555 1_555
C32 C27 1_555 1_555
H19 C32 1_555 1_555
C33 N6 1_555 1_555
C34 C35 1_555 1_555
C35 H20 1_555 1_555
C36 C35 1_555 1_555
H21 C36 1_555 1_555
C37 C36 1_555 1_555
H22 C37 1_555 1_555
C38 C37 1_555 1_555
H23 C38 1_555 1_555
C39 C34 1_555 1_555
C40 N8 1_555 1_555
C41 C42 1_555 1_555
C42 H24 1_555 1_555
C43 C42 1_555 1_555
H25 C43 1_555 1_555
C44 C43 1_555 1_555
C45 C44 1_555 1_555
H26 C45 1_555 1_555
C46 C41 1_555 1_555
H27 C46 1_555 1_555
C47 C10 1_555 1_555
C48 C47 1_555 1_555
H28 C48 1_555 1_555
C49 C48 1_555 1_555
H29 C49 1_555 1_555
C50 C49 1_555 1_555
C51 C50 1_555 1_555
H30 C51 1_555 1_555
C52 C47 1_555 1_555
H31 C52 1_555 1_555
C53 N11 1_555 1_555
C54 C55 1_555 1_555
C55 H32 1_555 1_555
C56 C55 1_555 1_555
H33 C56 1_555 1_555
C57 C56 1_555 1_555
H34 C57 1_555 1_555
C58 C57 1_555 1_555
H35 C58 1_555 1_555
C59 C54 1_555 1_555
C60 N13 1_555 1_555
C61 C62 1_555 1_555
C62 H36 1_555 1_555
C63 C62 1_555 1_555
H37 C63 1_555 1_555
C64 C63 1_555 1_555
C65 C64 1_555 1_555
H38 C65 1_555 1_555
C66 C61 1_555 1_555
H39 C66 1_555 1_555
N1 C16 1_555 1_555
H40 N1 1_555 1_555
N2 C19 1_555 1_555
H41 N2 1_555 1_555
N3 C25 1_555 1_555
H42 N3 1_555 1_555
N4 C26 1_555 1_555
H43 N4 1_555 1_555
N5 C30 1_555 1_555
N6 C4 1_555 1_555
H44 N6 1_555 1_555
N7 C33 1_555 1_555
H45 N7 1_555 1_555
N8 C39 1_555 1_555
H46 N8 1_555 1_555
N9 C40 1_555 1_555
H47 N9 1_555 1_555
N10 C44 1_555 1_555
N11 C50 1_555 1_555
H48 N11 1_555 1_555
N12 C53 1_555 1_555
H49 N12 1_555 1_555
N13 C59 1_555 1_555
H50 N13 1_555 1_555
N14 C60 1_555 1_555
H51 N14 1_555 1_555
N15 C64 1_555 1_555
O1 C19 1_555 1_555
O2 C26 1_555 1_555
O3 N5 1_555 1_555
O4 N5 1_555 1_555
O5 C33 1_555 1_555
O6 C40 1_555 1_555
O7 N10 1_555 1_555
O8 N10 1_555 1_555
O9 C53 1_555 1_555
O10 C60 1_555 1_555
O11 N15 1_555 1_555
O12 N15 1_555 1_555
C67 C68 1_555 1_555
C68 H52 1_555 1_555
C69 C68 1_555 1_555
H53 C69 1_555 1_555
C70 C69 1_555 1_555
C71 C70 1_555 1_555
H54 C71 1_555 1_555
C72 C67 1_555 1_555
H55 C72 1_555 1_555
C73 H56 1_555 1_555
C74 C73 1_555 1_555
C75 C74 1_555 1_555
H57 C75 1_555 1_555
C76 C75 1_555 1_555
C77 C76 1_555 1_555
H58 C77 1_555 1_555
C78 C73 1_555 1_555
C79 C78 1_555 1_555
C80 C79 1_555 1_555
H59 C80 1_555 1_555
C81 C80 1_555 1_555
H60 C81 1_555 1_555
C82 C81 1_555 1_555
C83 C82 1_555 1_555
H61 C83 1_555 1_555
C84 C79 1_555 1_555
H62 C84 1_555 1_555
C85 N16 1_555 1_555
C86 C87 1_555 1_555
C87 H63 1_555 1_555
C88 C87 1_555 1_555
H64 C88 1_555 1_555
C89 C88 1_555 1_555
H65 C89 1_555 1_555
C90 C89 1_555 1_555
H66 C90 1_555 1_555
C91 C86 1_555 1_555
C92 N18 1_555 1_555
C93 C94 1_555 1_555
C94 H67 1_555 1_555
C95 C94 1_555 1_555
H68 C95 1_555 1_555
C96 C95 1_555 1_555
C97 C96 1_555 1_555
H69 C97 1_555 1_555
C98 C93 1_555 1_555
H70 C98 1_555 1_555
C99 C74 1_555 1_555
C100 C99 1_555 1_555
H71 C100 1_555 1_555
C101 C100 1_555 1_555
H72 C101 1_555 1_555
C102 C101 1_555 1_555
C103 C102 1_555 1_555
H73 C103 1_555 1_555
C104 C99 1_555 1_555
H74 C104 1_555 1_555
C105 N21 1_555 1_555
C106 C107 1_555 1_555
C107 H75 1_555 1_555
C108 C107 1_555 1_555
H76 C108 1_555 1_555
C109 C108 1_555 1_555
H77 C109 1_555 1_555
C110 C109 1_555 1_555
H78 C110 1_555 1_555
C111 C106 1_555 1_555
C112 N23 1_555 1_555
C113 C114 1_555 1_555
C114 H79 1_555 1_555
C115 C114 1_555 1_555
H80 C115 1_555 1_555
C116 C115 1_555 1_555
C117 C116 1_555 1_555
H81 C117 1_555 1_555
C118 C113 1_555 1_555
H82 C118 1_555 1_555
C119 C76 1_555 1_555
C120 C119 1_555 1_555
H83 C120 1_555 1_555
C121 C120 1_555 1_555
H84 C121 1_555 1_555
C122 C121 1_555 1_555
C123 C122 1_555 1_555
H85 C123 1_555 1_555
C124 C119 1_555 1_555
H86 C124 1_555 1_555
C125 N26 1_555 1_555
C126 C127 1_555 1_555
C127 H87 1_555 1_555
C128 C127 1_555 1_555
H88 C128 1_555 1_555
C129 C128 1_555 1_555
H89 C129 1_555 1_555
C130 C129 1_555 1_555
H90 C130 1_555 1_555
C131 C126 1_555 1_555
C132 N28 1_555 1_555
N16 C82 1_555 1_555
H91 N16 1_555 1_555
N17 C85 1_555 1_555
H92 N17 1_555 1_555
N18 C91 1_555 1_555
H93 N18 1_555 1_555
N19 C92 1_555 1_555
H94 N19 1_555 1_555
N20 C96 1_555 1_555
N21 C102 1_555 1_555
H95 N21 1_555 1_555
N22 C105 1_555 1_555
H96 N22 1_555 1_555
N23 C111 1_555 1_555
H97 N23 1_555 1_555
N24 C112 1_555 1_555
H98 N24 1_555 1_555
N25 C116 1_555 1_555
N26 C122 1_555 1_555
H99 N26 1_555 1_555
N27 C125 1_555 1_555
H100 N27 1_555 1_555
N28 C131 1_555 1_555
H101 N28 1_555 1_555
N29 C67 1_555 1_555
H102 N29 1_555 1_555
N30 C70 1_555 1_555
O13 C85 1_555 1_555
O14 C92 1_555 1_555
O15 N20 1_555 1_555
O16 N20 1_555 1_555
O17 C125 1_555 1_555
O18 C132 1_555 1_555
O19 N30 1_555 1_555
O20 N30 1_555 1_555
O21 C105 1_555 1_555
O22 C112 1_555 1_555
O23 N25 1_555 1_555
O24 N25 1_555 1_555
C133 H103 1_555 1_555
C134 C133 1_555 1_555
C135 C134 1_555 1_555
H104 C135 1_555 1_555
C136 C135 1_555 1_555
C137 C136 1_555 1_555
H105 C137 1_555 1_555
C138 C133 1_555 1_555
C139 C138 1_555 1_555
C140 C139 1_555 1_555
H106 C140 1_555 1_555
C141 C140 1_555 1_555
H107 C141 1_555 1_555
C142 C141 1_555 1_555
C143 C142 1_555 1_555
H108 C143 1_555 1_555
C144 C139 1_555 1_555
H109 C144 1_555 1_555
C145 N31 1_555 1_555
C146 C147 1_555 1_555
C147 C150 1_555 1_555
C148 C146 1_555 1_555
H110 C148 1_555 1_555
C149 C148 1_555 1_555
H111 C149 1_555 1_555
C150 H112 1_555 1_555
C151 C149 1_555 1_555
H113 C151 1_555 1_555
C152 N33 1_555 1_555
C153 C154 1_555 1_555
C154 H114 1_555 1_555
C155 C154 1_555 1_555
H115 C155 1_555 1_555
C156 C155 1_555 1_555
C157 C156 1_555 1_555
H116 C157 1_555 1_555
C158 C153 1_555 1_555
H117 C158 1_555 1_555
C159 C134 1_555 1_555
C160 C159 1_555 1_555
H118 C160 1_555 1_555
C161 C160 1_555 1_555
H119 C161 1_555 1_555
C162 C161 1_555 1_555
C163 C162 1_555 1_555
H120 C163 1_555 1_555
C164 C159 1_555 1_555
H121 C164 1_555 1_555
C165 N36 1_555 1_555
C166 C167 1_555 1_555
C167 H122 1_555 1_555
C168 C167 1_555 1_555
H123 C168 1_555 1_555
C169 C168 1_555 1_555
H124 C169 1_555 1_555
C170 C169 1_555 1_555
H125 C170 1_555 1_555
C171 C166 1_555 1_555
C172 N38 1_555 1_555
C173 C174 1_555 1_555
C174 H126 1_555 1_555
C175 C174 1_555 1_555
H127 C175 1_555 1_555
C176 C175 1_555 1_555
C177 C176 1_555 1_555
H128 C177 1_555 1_555
C178 C173 1_555 1_555
H129 C178 1_555 1_555
C179 C136 1_555 1_555
C180 C179 1_555 1_555
H130 C180 1_555 1_555
C181 C180 1_555 1_555
H131 C181 1_555 1_555
C182 C181 1_555 1_555
C183 C182 1_555 1_555
H132 C183 1_555 1_555
C184 C179 1_555 1_555
H133 C184 1_555 1_555
C185 N41 1_555 1_555
C186 C187 1_555 1_555
C187 H134 1_555 1_555
C188 C187 1_555 1_555
H135 C188 1_555 1_555
C189 C188 1_555 1_555
H136 C189 1_555 1_555
C190 C189 1_555 1_555
H137 C190 1_555 1_555
C191 C186 1_555 1_555
C192 N43 1_555 1_555
C193 C194 1_555 1_555
C194 H138 1_555 1_555
C195 C194 1_555 1_555
H139 C195 1_555 1_555
C196 C195 1_555 1_555
C197 C196 1_555 1_555
H140 C197 1_555 1_555
C198 C193 1_555 1_555
H141 C198 1_555 1_555
N31 C142 1_555 1_555
H142 N31 1_555 1_555
N32 C145 1_555 1_555
H143 N32 1_555 1_555
N33 C147 1_555 1_555
H144 N33 1_555 1_555
N34 C152 1_555 1_555
H145 N34 1_555 1_555
N35 C156 1_555 1_555
N36 C162 1_555 1_555
H146 N36 1_555 1_555
N37 C165 1_555 1_555
H147 N37 1_555 1_555
N38 C171 1_555 1_555
H148 N38 1_555 1_555
N39 C172 1_555 1_555
H149 N39 1_555 1_555
N40 C176 1_555 1_555
N41 C182 1_555 1_555
H150 N41 1_555 1_555
N42 C185 1_555 1_555
H151 N42 1_555 1_555
N43 C191 1_555 1_555
H152 N43 1_555 1_555
N44 C192 1_555 1_555
H153 N44 1_555 1_555
N45 C196 1_555 1_555
O25 C145 1_555 1_555
O26 C152 1_555 1_555
O27 N35 1_555 1_555
O28 N35 1_555 1_555
O29 C165 1_555 1_555
O30 C172 1_555 1_555
O31 N40 1_555 1_555
O32 N40 1_555 1_555
O33 C185 1_555 1_555
O34 C192 1_555 1_555
O35 N45 1_555 1_555
O36 N45 1_555 1_555
C199 C200 1_555 1_555
C200 O39 1_555 1_555
C201 C202 1_555 1_555
C202 O40 1_555 1_555
C203 C204 1_555 1_555
C204 O41 1_555 1_555
C205 C206 1_555 1_555
C206 O42 1_555 1_555
C207 C208 1_555 1_555
C208 O37 1_555 1_555
C209 C210 1_555 1_555
C210 O38 1_555 1_555
O37 C209 1_555 1_555
O38 C199 1_555 1_555
O39 C201 1_555 1_555
O40 C203 1_555 1_555
O41 C205 1_555 1_555
O42 C207 1_555 1_555
C211 C212 1_555 1_555
C212 O44 1_555 1_555
C213 C214 1_555 1_555
C214 O45 1_555 1_555
C215 C216 1_555 1_555
C216 O46 1_555 1_555
C217 C218 1_555 1_555
C218 O47 1_555 1_555
C219 C220 1_555 1_555
C220 O48 1_555 1_555
C221 C222 1_555 1_555
C222 O43 1_555 1_555
O43 C211 1_555 1_555
O44 C213 1_555 1_555
O45 C215 1_555 1_555
O46 C217 1_555 1_555
O47 C219 1_555 1_555
O48 C221 1_555 1_555
C223 C224 1_555 1_555
C224 O49 1_555 1_555
C225 C226 1_555 1_555
C226 O50 1_555 1_555
C227 C228 1_555 1_555
C228 O51 1_555 1_555
C229 C230 1_555 1_555
C230 O52 1_555 1_555
C231 C232 1_555 1_555
C232 O53 1_555 1_555
C233 C234 1_555 1_555
C234 O54 1_555 1_555
O49 C225 1_555 1_555
O50 C227 1_555 1_555
O51 C229 1_555 1_555
O52 C231 1_555 1_555
O53 C233 1_555 1_555
O54 C223 1_555 1_555
C235 C236 1_555 1_555
C236 O55 1_555 1_555
C237 C238 1_555 1_555
C238 O56 1_555 1_555
C239 C240 1_555 1_555
C240 O57 1_555 1_555
C241 C242 1_555 1_555
C242 O58 1_555 1_555
C243 C244 1_555 1_555
C244 O59 1_555 1_555
C245 C246 1_555 1_555
C246 O60 1_555 1_555
O55 C237 1_555 1_555
O56 C239 1_555 1_555
O57 C241 1_555 1_555
O58 C243 1_555 1_555
O59 C245 1_555 1_555
O60 C235 1_555 1_555
C247 C248 1_555 1_555
C248 O62 1_555 1_555
C249 C250 1_555 1_555
C250 O63 1_555 1_555
C251 C252 1_555 1_555
C252 O64 1_555 1_555
C253 C254 1_555 1_555
C254 O65 1_555 1_555
C255 C256 1_555 1_555
C256 O66 1_555 1_555
C257 C258 1_555 1_555
C258 O61 1_555 1_555
O61 C247 1_555 1_555
O62 C249 1_555 1_555
O63 C251 1_555 1_555
O64 C253 1_555 1_555
O65 C255 1_555 1_555
O66 C257 1_555 1_555
C259 H154 1_555 1_555
C260 C259 1_555 1_555
C261 C260 1_555 1_555
H155 C261 1_555 1_555
C262 C261 1_555 1_555
C263 C262 1_555 1_555
H156 C263 1_555 1_555
C264 C259 1_555 1_555
C265 H157 1_555 1_555
C266 C265 1_555 1_555
H158 C266 1_555 1_555
C267 C266 1_555 1_555
C268 C267 1_555 1_555
H159 C268 1_555 1_555
C269 C268 1_555 1_555
H160 C269 1_555 1_555
C270 C264 1_555 1_555
C271 N46 1_555 1_555
C272 C273 1_555 1_555
C273 H161 1_555 1_555
C274 C273 1_555 1_555
H162 C274 1_555 1_555
C275 C274 1_555 1_555
H163 C275 1_555 1_555
C276 C275 1_555 1_555
H164 C276 1_555 1_555
C277 C272 1_555 1_555
C278 N48 1_555 1_555
C279 C280 1_555 1_555
C280 H165 1_555 1_555
C281 C280 1_555 1_555
H166 C281 1_555 1_555
C282 C281 1_555 1_555
C283 C282 1_555 1_555
H167 C283 1_555 1_555
C284 C279 1_555 1_555
H168 C284 1_555 1_555
C285 C260 1_555 1_555
C286 C285 1_555 1_555
H169 C286 1_555 1_555
C287 C286 1_555 1_555
H170 C287 1_555 1_555
C288 C287 1_555 1_555
C289 C288 1_555 1_555
H171 C289 1_555 1_555
C290 C285 1_555 1_555
H172 C290 1_555 1_555
C291 N51 1_555 1_555
C292 C293 1_555 1_555
C293 H173 1_555 1_555
C294 C293 1_555 1_555
H174 C294 1_555 1_555
C295 C294 1_555 1_555
H175 C295 1_555 1_555
C296 C295 1_555 1_555
H176 C296 1_555 1_555
C297 C292 1_555 1_555
C298 N53 1_555 1_555
C299 C300 1_555 1_555
C300 H177 1_555 1_555
C301 C300 1_555 1_555
H178 C301 1_555 1_555
C302 C301 1_555 1_555
C303 C302 1_555 1_555
H179 C303 1_555 1_555
C304 C299 1_555 1_555
H180 C304 1_555 1_555
C305 C262 1_555 1_555
C306 C305 1_555 1_555
H181 C306 1_555 1_555
C307 C306 1_555 1_555
H182 C307 1_555 1_555
C308 C307 1_555 1_555
C309 C308 1_555 1_555
H183 C309 1_555 1_555
C310 C305 1_555 1_555
H184 C310 1_555 1_555
C311 N56 1_555 1_555
C312 C313 1_555 1_555
C313 H185 1_555 1_555
C314 C313 1_555 1_555
H186 C314 1_555 1_555
C315 C314 1_555 1_555
H187 C315 1_555 1_555
C316 C315 1_555 1_555
H188 C316 1_555 1_555
C317 C312 1_555 1_555
C318 N58 1_555 1_555
C319 C320 1_555 1_555
C320 H189 1_555 1_555
C321 C320 1_555 1_555
H190 C321 1_555 1_555
C322 C321 1_555 1_555
C323 C322 1_555 1_555
H191 C323 1_555 1_555
C324 C319 1_555 1_555
H192 C324 1_555 1_555
N46 C267 1_555 1_555
H193 N46 1_555 1_555
N47 C271 1_555 1_555
H194 N47 1_555 1_555
N48 C277 1_555 1_555
H195 N48 1_555 1_555
N49 C278 1_555 1_555
H196 N49 1_555 1_555
N50 C282 1_555 1_555
N51 C288 1_555 1_555
H197 N51 1_555 1_555
N52 C291 1_555 1_555
H198 N52 1_555 1_555
N53 C297 1_555 1_555
H199 N53 1_555 1_555
N54 C298 1_555 1_555
H200 N54 1_555 1_555
N55 C302 1_555 1_555
N56 C308 1_555 1_555
H201 N56 1_555 1_555
N57 C311 1_555 1_555
H202 N57 1_555 1_555
N58 C317 1_555 1_555
H203 N58 1_555 1_555
N59 C318 1_555 1_555
H204 N59 1_555 1_555
N60 C322 1_555 1_555
O67 C271 1_555 1_555
O68 C278 1_555 1_555
O69 N50 1_555 1_555
O70 N50 1_555 1_555
O71 C291 1_555 1_555
O72 C298 1_555 1_555
O73 N55 1_555 1_555
O74 N55 1_555 1_555
O75 C311 1_555 1_555
O76 C318 1_555 1_555
O77 N60 1_555 1_555
O78 N60 1_555 1_555
C325 C326 1_555 1_555
C326 H205 1_555 1_555
H206 C326 1_555 1_555
H207 C326 1_555 1_555
N61 C325 1_555 1_555
O79 P1 1_555 1_555
O80 P1 1_555 1_555
O81 P1 1_555 1_555
O82 P1 1_555 1_555
O83 P2 1_555 1_555
O84 P2 1_555 1_555
O85 P2 1_555 1_555
O86 P2 1_555 1_555
O87 P3 1_555 1_555
O88 P3 1_555 1_555
O89 P3 1_555 1_555
O90 P3 1_555 1_555
O91 P4 1_555 1_555
O92 P4 1_555 1_555
O93 P4 1_555 1_555
O94 P4 1_555 1_555
C5 C6 1_555 1_555
C7 C8 1_555 1_555
C11 C12 1_555 1_555
C17 C18 1_555 1_555
C20 N2 1_555 1_555
C24 C25 1_555 1_555
C27 N4 1_555 1_555
C31 C32 1_555 1_555
C34 N7 1_555 1_555
C38 C39 1_555 1_555
C41 N9 1_555 1_555
C45 C46 1_555 1_555
C51 C52 1_555 1_555
C54 N12 1_555 1_555
C58 C59 1_555 1_555
C61 N14 1_555 1_555
C65 C66 1_555 1_555
C71 C72 1_555 1_555
C77 C78 1_555 1_555
C83 C84 1_555 1_555
C86 N17 1_555 1_555
C90 C91 1_555 1_555
C93 N19 1_555 1_555
C97 C98 1_555 1_555
C103 C104 1_555 1_555
C106 N22 1_555 1_555
C110 C111 1_555 1_555
C113 N24 1_555 1_555
C117 C118 1_555 1_555
C123 C124 1_555 1_555
C126 N27 1_555 1_555
C130 C131 1_555 1_555
C132 N29 1_555 1_555
C137 C138 1_555 1_555
C143 C144 1_555 1_555
C146 N32 1_555 1_555
C150 C151 1_555 1_555
C153 N34 1_555 1_555
C157 C158 1_555 1_555
C163 C164 1_555 1_555
C166 N37 1_555 1_555
C170 C171 1_555 1_555
C173 N39 1_555 1_555
C177 C178 1_555 1_555
C183 C184 1_555 1_555
C186 N42 1_555 1_555
C190 C191 1_555 1_555
C193 N44 1_555 1_555
C197 C198 1_555 1_555
C263 C264 1_555 1_555
C265 C270 1_555 1_555
C269 C270 1_555 1_555
C272 N47 1_555 1_555
C276 C277 1_555 1_555
C279 N49 1_555 1_555
C283 C284 1_555 1_555
C289 C290 1_555 1_555
C292 N52 1_555 1_555
C296 C297 1_555 1_555
C299 N54 1_555 1_555
C303 C304 1_555 1_555
C309 C310 1_555 1_555
C312 N57 1_555 1_555
C316 C317 1_555 1_555
C319 N59 1_555 1_555
C323 C324 1_555 1_555

#END
