
#######################################################################
#
#                 Cambridge Crystallographic Data Centre
#                                CCDC 
#
#######################################################################
#
# If this CIF has been generated from an entry in the Cambridge 
# Structural Database, then it will include bibliographic, chemical, 
# crystal, experimental, refinement or atomic coordinate data resulting 
# from the CCDC's data processing and validation procedures.
#
#######################################################################

data_VULZIM
_chemical_formula_moiety         'C26 H25 N1 O4'
_chemical_name_systematic        
'1-(4-Methoxybenzyl)-2-oxo-3,5-diphenylpyrrolidin-3-yl acetate'
_symmetry_cell_setting           monoclinic
_symmetry_space_group_name_H-M   'P 21'
_symmetry_Int_Tables_number      4
_space_group_name_Hall           'P 2yb'
loop_
_symmetry_equiv_pos_site_id
_symmetry_equiv_pos_as_xyz
1 x,y,z
2 -x,1/2+y,-z
_cell_length_a                   7.1582(14)
_cell_length_b                   12.936(3)
_cell_length_c                   11.286(2)
_cell_angle_alpha                90
_cell_angle_beta                 91.01(3)
_cell_angle_gamma                90
_cell_volume                     1044.9
_exptl_crystal_colour            colorless
_exptl_crystal_description       block
_cell_formula_units_Z            2
loop_
_atom_site_label
_atom_site_type_symbol
_atom_site_fract_x
_atom_site_fract_y
_atom_site_fract_z
O1 O 0.2137(2) 0.26647(12) 0.96409(14)
O2 O 0.3035(3) 0.20202(15) 0.78840(16)
O3 O 0.5308(2) 0.39283(15) 0.88912(14)
O4 O 0.6629(3) 0.25848(15) 0.26586(16)
N1 N 0.3184(3) 0.44610(16) 0.74594(17)
C1 C 0.1261(3) 0.42224(18) 0.70657(19)
H1 H 0.1307 0.3673 0.6444
C2 C 0.0363(3) 0.37599(19) 0.81886(19)
H2 H -0.0655 0.4212 0.8467
H3 H -0.0159 0.3066 0.8016
C3 C 0.1942(3) 0.36867(18) 0.9137(2)
C4 C 0.3722(3) 0.40091(18) 0.8492(2)
C5 C 0.0225(3) 0.51481(19) 0.65591(19)
C6 C -0.0193(3) 0.6007(2) 0.7242(2)
H4 H 0.0221 0.6037 0.8045
C7 C -0.1205(4) 0.6817(2) 0.6763(3)
H5 H -0.1494 0.7397 0.7242
C8 C -0.1804(4) 0.6792(2) 0.5590(2)
H6 H -0.2502 0.7352 0.5265
C9 C -0.1386(3) 0.5953(2) 0.4899(2)
H7 H -0.1791 0.5933 0.4093
C10 C -0.0372(3) 0.5136(2) 0.5376(2)
H8 H -0.0081 0.4560 0.4891
C11 C 0.1660(3) 0.43829(18) 1.02076(19)
C12 C 0.2370(3) 0.5381(2) 1.0227(2)
H9 H 0.3028 0.5634 0.9563
C13 C 0.2131(3) 0.6014(2) 1.1207(2)
H10 H 0.2638 0.6693 1.1214
C14 C 0.1155(4) 0.5658(2) 1.2175(2)
H11 H 0.1009 0.6086 1.2851
C15 C 0.0395(4) 0.4678(2) 1.2149(2)
H12 H -0.0305 0.4438 1.2801
C16 C 0.0650(3) 0.4040(2) 1.1174(2)
H13 H 0.0130 0.3365 1.1168
C17 C 0.2730(3) 0.1897(2) 0.8917(2)
C18 C 0.2907(4) 0.0915(2) 0.9605(3)
H14 H 0.3336 0.0362 0.9083
H15 H 0.1689 0.0729 0.9926
H16 H 0.3812 0.1010 1.0257
C19 C 0.4526(3) 0.4934(2) 0.6663(2)
H17 H 0.5696 0.5076 0.7114
H18 H 0.4018 0.5604 0.6383
C20 C 0.4983(3) 0.42810(18) 0.5598(2)
C21 C 0.4451(3) 0.4599(2) 0.4472(2)
H19 H 0.3717 0.5207 0.4385
C22 C 0.4957(3) 0.4055(2) 0.3463(2)
H20 H 0.4570 0.4287 0.2699
C23 C 0.6033(3) 0.31704(19) 0.3591(2)
C24 C 0.6577(3) 0.2834(2) 0.4716(2)
H21 H 0.7318 0.2229 0.4803
C25 C 0.6043(3) 0.3377(2) 0.5702(2)
H22 H 0.6400 0.3133 0.6467
C26 C 0.6005(4) 0.2891(2) 0.1506(2)
H23 H 0.6522 0.2421 0.0915
H24 H 0.6425 0.3597 0.1347
H25 H 0.4637 0.2864 0.1462
loop_
_geom_bond_atom_site_label_1
_geom_bond_atom_site_label_2
_geom_bond_site_symmetry_1
_geom_bond_site_symmetry_2
O1 C3 1_555 1_555
O2 C17 1_555 1_555
O3 C4 1_555 1_555
O4 C23 1_555 1_555
N1 C1 1_555 1_555
C1 H1 1_555 1_555
C2 C1 1_555 1_555
H2 C2 1_555 1_555
H3 C2 1_555 1_555
C3 C2 1_555 1_555
C4 N1 1_555 1_555
C5 C1 1_555 1_555
C6 C5 1_555 1_555
H4 C6 1_555 1_555
C7 C6 1_555 1_555
H5 C7 1_555 1_555
C8 C7 1_555 1_555
H6 C8 1_555 1_555
C9 C8 1_555 1_555
H7 C9 1_555 1_555
C10 C5 1_555 1_555
H8 C10 1_555 1_555
C11 C3 1_555 1_555
C12 C11 1_555 1_555
H9 C12 1_555 1_555
C13 C12 1_555 1_555
H10 C13 1_555 1_555
C14 C13 1_555 1_555
H11 C14 1_555 1_555
C15 C14 1_555 1_555
H12 C15 1_555 1_555
C16 C11 1_555 1_555
H13 C16 1_555 1_555
C17 O1 1_555 1_555
C18 C17 1_555 1_555
H14 C18 1_555 1_555
H15 C18 1_555 1_555
H16 C18 1_555 1_555
C19 N1 1_555 1_555
H17 C19 1_555 1_555
H18 C19 1_555 1_555
C20 C19 1_555 1_555
C21 C20 1_555 1_555
H19 C21 1_555 1_555
C22 C21 1_555 1_555
H20 C22 1_555 1_555
C23 C22 1_555 1_555
C24 C23 1_555 1_555
H21 C24 1_555 1_555
C25 C20 1_555 1_555
H22 C25 1_555 1_555
C26 O4 1_555 1_555
H23 C26 1_555 1_555
H24 C26 1_555 1_555
H25 C26 1_555 1_555
C3 C4 1_555 1_555
C9 C10 1_555 1_555
C15 C16 1_555 1_555
C24 C25 1_555 1_555

#END
