
#######################################################################
#
#                 Cambridge Crystallographic Data Centre
#                                CCDC 
#
#######################################################################
#
# If this CIF has been generated from an entry in the Cambridge 
# Structural Database, then it will include bibliographic, chemical, 
# crystal, experimental, refinement or atomic coordinate data resulting 
# from the CCDC's data processing and validation procedures.
#
#######################################################################

data_VULZEI
_chemical_formula_moiety         'C24 H20 Br1 N1 O2'
_chemical_name_systematic        
1-Benzyl-5-(4-bromophenyl)-3-methoxy-3-phenyl-1,3-dihydro-2H-pyrrol-2-one
_symmetry_cell_setting           monoclinic
_symmetry_space_group_name_H-M   'P 21'
_symmetry_Int_Tables_number      4
_space_group_name_Hall           'P 2yb'
loop_
_symmetry_equiv_pos_site_id
_symmetry_equiv_pos_as_xyz
1 x,y,z
2 -x,1/2+y,-z
_cell_length_a                   8.4421(17)
_cell_length_b                   10.189(2)
_cell_length_c                   12.446(3)
_cell_angle_alpha                90
_cell_angle_beta                 104.63(3)
_cell_angle_gamma                90
_cell_volume                     1035.85
_exptl_crystal_colour            colorless
_exptl_crystal_description       block
_cell_formula_units_Z            2
loop_
_atom_site_label
_atom_site_type_symbol
_atom_site_fract_x
_atom_site_fract_y
_atom_site_fract_z
Br1 Br -0.13236(4) 1.44731(5) -0.59616(3)
O1 O -0.1843(3) 1.2507(2) 0.12907(19)
O2 O -0.0672(2) 1.5255(2) 0.16338(17)
N1 N -0.1782(3) 1.3017(3) -0.05191(19)
C1 C -0.1588(4) 1.5333(4) -0.2756(3)
H1 H -0.1764 1.6089 -0.2355
C2 C -0.1627(4) 1.5432(4) -0.3878(4)
H2 H -0.1821 1.6256 -0.4245
C3 C -0.1385(3) 1.4335(5) -0.4447(2)
C4 C -0.1109(4) 1.3128(4) -0.3947(3)
H3 H -0.0959 1.2376 -0.4362
C5 C -0.1052(4) 1.3020(4) -0.2812(3)
H4 H -0.0850 1.2193 -0.2449
C6 C -0.1291(3) 1.4127(3) -0.2225(2)
C7 C -0.1122(3) 1.4085(3) -0.1006(2)
C8 C -0.1353(3) 1.3175(3) 0.0620(3)
C9 C -0.0177(3) 1.4376(4) 0.0894(2)
C10 C -0.0258(3) 1.4895(3) -0.0255(2)
H5 H 0.0237 1.5684 -0.0413
C11 C -0.3129(4) 1.2171(3) -0.1090(3)
H6 H -0.3513 1.1651 -0.0533
H7 H -0.2725 1.1549 -0.1572
C12 C -0.4547(3) 1.2938(3) -0.1789(3)
C13 C -0.5191(4) 1.2605(4) -0.2894(3)
H8 H -0.4752 1.1887 -0.3211
C14 C -0.6492(4) 1.3337(5) -0.3539(3)
H9 H -0.6935 1.3109 -0.4296
C15 C -0.7134(4) 1.4376(6) -0.3094(3)
H10 H -0.8006 1.4871 -0.3545
C16 C -0.6518(4) 1.4707(5) -0.1989(3)
H11 H -0.6964 1.5422 -0.1672
C17 C -0.5229(4) 1.3972(3) -0.1352(3)
H12 H -0.4806 1.4190 -0.0591
C18 C -0.2332(4) 1.5680(3) 0.1278(3)
H13 H -0.2573 1.6281 0.1831
H14 H -0.3060 1.4917 0.1195
H15 H -0.2504 1.6133 0.0563
C19 C 0.1531(3) 1.3894(3) 0.1471(2)
C20 C 0.2164(4) 1.4036(3) 0.2606(2)
H16 H 0.1522 1.4436 0.3041
C21 C 0.3731(4) 1.3598(4) 0.3109(3)
H17 H 0.4161 1.3719 0.3885
C22 C 0.4672(4) 1.2990(4) 0.2498(3)
H18 H 0.5743 1.2688 0.2848
C23 C 0.4044(4) 1.2828(4) 0.1382(3)
H19 H 0.4680 1.2401 0.0955
C24 C 0.2490(4) 1.3281(3) 0.0865(3)
H20 H 0.2077 1.3171 0.0087
loop_
_geom_bond_atom_site_label_1
_geom_bond_atom_site_label_2
_geom_bond_site_symmetry_1
_geom_bond_site_symmetry_2
Br1 C3 1_555 1_555
O1 C8 1_555 1_555
O2 C9 1_555 1_555
N1 C7 1_555 1_555
C1 H1 1_555 1_555
C2 C1 1_555 1_555
H2 C2 1_555 1_555
C3 C2 1_555 1_555
C4 C3 1_555 1_555
H3 C4 1_555 1_555
C5 C4 1_555 1_555
H4 C5 1_555 1_555
C6 C1 1_555 1_555
C7 C6 1_555 1_555
C8 N1 1_555 1_555
C9 C8 1_555 1_555
C10 C7 1_555 1_555
H5 C10 1_555 1_555
C11 N1 1_555 1_555
H6 C11 1_555 1_555
H7 C11 1_555 1_555
C12 C11 1_555 1_555
C13 C12 1_555 1_555
H8 C13 1_555 1_555
C14 C13 1_555 1_555
H9 C14 1_555 1_555
C15 C14 1_555 1_555
H10 C15 1_555 1_555
C16 C15 1_555 1_555
H11 C16 1_555 1_555
C17 C12 1_555 1_555
H12 C17 1_555 1_555
C18 O2 1_555 1_555
H13 C18 1_555 1_555
H14 C18 1_555 1_555
H15 C18 1_555 1_555
C19 C9 1_555 1_555
C20 C19 1_555 1_555
H16 C20 1_555 1_555
C21 C20 1_555 1_555
H17 C21 1_555 1_555
C22 C21 1_555 1_555
H18 C22 1_555 1_555
C23 C22 1_555 1_555
H19 C23 1_555 1_555
C24 C19 1_555 1_555
H20 C24 1_555 1_555
C5 C6 1_555 1_555
C9 C10 1_555 1_555
C16 C17 1_555 1_555
C23 C24 1_555 1_555

#END
