
#######################################################################
#
#                 Cambridge Crystallographic Data Centre
#                                CCDC 
#
#######################################################################
#
# If this CIF has been generated from an entry in the Cambridge 
# Structural Database, then it will include bibliographic, chemical, 
# crystal, experimental, refinement or atomic coordinate data resulting 
# from the CCDC's data processing and validation procedures.
#
#######################################################################

data_VULZEJ
_chemical_formula_moiety         
'4(C66 H51 N15 O12),12(K1 1+),12(C12 H24 O6),4(O4 P1 3-),C1 H1 Cl3'
_chemical_name_systematic        
'tetrakis(1,3,5-tris(4-(3-(2-(3-(4-Nitrophenyl)ureido)phenyl)ureido)phenyl)benzene) dodeca-potassium dodecakis(18-crown-6) tetrakis(phosphate) chloroform solvate'
_symmetry_cell_setting           monoclinic
_symmetry_space_group_name_H-M   'C c'
_symmetry_Int_Tables_number      9
_space_group_name_Hall           'C -2yc'
loop_
_symmetry_equiv_pos_site_id
_symmetry_equiv_pos_as_xyz
1 x,y,z
2 x,-y,1/2+z
3 1/2+x,1/2+y,z
4 1/2+x,1/2-y,1/2+z
_cell_length_a                   47.4818(10)
_cell_length_b                   24.0773(6)
_cell_length_c                   47.7548(11)
_cell_angle_alpha                90
_cell_angle_beta                 101.5630(10)
_cell_angle_gamma                90
_cell_volume                     53486.9
_exptl_crystal_colour            yellow
_exptl_crystal_description       block
_cell_formula_units_Z            4
loop_
_atom_site_label
_atom_site_type_symbol
_atom_site_fract_x
_atom_site_fract_y
_atom_site_fract_z
C1 C 0.2144(3) -0.7018(7) 1.1798(3)
C2 C 0.2439(3) -0.7011(8) 1.1812(3)
H1 H 0.2563 -0.7160 1.1970
C3 C 0.2549(2) -0.6783(8) 1.1589(4)
H2 H 0.2746 -0.6779 1.1597
C4 C 0.2364(3) -0.6561(6) 1.1353(3)
C5 C 0.2069(3) -0.6567(6) 1.1339(3)
H3 H 0.1945 -0.6418 1.1182
C6 C 0.1959(2) -0.6795(7) 1.1562(3)
H4 H 0.1761 -0.6799 1.1554
C7 C 0.7243(4) -0.7181(8) 1.2120(4)
C8 C 0.7463(8) -0.6947(16) 1.2044(9)
H5 H 0.7485 -0.6953 1.1855
C9 C 0.7678(7) -0.6668(14) 1.2272(7)
H6 H 0.7809 -0.6423 1.2217
C10 C 0.7690(5) -0.6750(11) 1.2540(6)
C11 C 0.7468(9) -0.7048(17) 1.2606(9)
H7 H 0.7478 -0.7148 1.2796
C12 C 0.7225(14) -0.721(2) 1.2403(13)
H8 H 0.7058 -0.7339 1.2458
C13 C 0.4638(4) -0.4925(8) 1.0180(4)
H9 H 0.4508 -0.4640 1.0120
C14 C 0.4533(4) -0.5365(8) 1.0303(4)
C15 C 0.4771(4) -0.5756(7) 1.0431(4)
H10 H 0.4724 -0.6065 1.0529
C16 C 0.5060(3) -0.5684(7) 1.0411(3)
C17 C 0.5133(4) -0.5208(7) 1.0262(4)
H11 H 0.5323 -0.5141 1.0250
C18 C 0.4913(4) -0.4840(7) 1.0134(4)
C19 C 0.5005(3) -0.4340(6) 0.9973(3)
C20 C 0.5278(3) -0.4193(5) 0.9994(3)
H12 H 0.5423 -0.4414 1.0098
C21 C 0.5348(4) -0.3721(7) 0.9864(3)
H13 H 0.5539 -0.3608 0.9907
C22 C 0.5164(3) -0.3408(5) 0.9680(3)
C23 C 0.4878(4) -0.3567(7) 0.9674(3)
H14 H 0.4732 -0.3370 0.9556
C24 C 0.4801(5) -0.3992(9) 0.9831(4)
H15 H 0.4609 -0.4043 0.9840
C25 C 0.5477(3) -0.2818(6) 0.9457(3)
C26 C 0.5719(3) -0.2169(6) 0.9209(3)
C27 C 0.5934(3) -0.2546(6) 0.9141(3)
H16 H 0.5918 -0.2929 0.9159
C28 C 0.6172(3) -0.2304(7) 0.9046(3)
H17 H 0.6318 -0.2532 0.9007
C29 C 0.6192(3) -0.1720(5) 0.9009(2)
H18 H 0.6351 -0.1568 0.8951
C30 C 0.5970(2) -0.1372(5) 0.9062(2)
H19 H 0.5979 -0.0992 0.9028
C31 C 0.5736(2) -0.1590(4) 0.9166(2)
C32 C 0.55286(19) -0.0695(4) 0.92787(19)
C33 C 0.5225(2) 0.0063(5) 0.9386(2)
C34 C 0.5427(3) 0.0393(5) 0.9522(2)
H20 H 0.5614 0.0261 0.9567
C35 C 0.5374(4) 0.0914(7) 0.9600(4)
H21 H 0.5523 0.1141 0.9690
C36 C 0.5088(3) 0.1108(7) 0.9543(3)
C37 C 0.4869(3) 0.0798(6) 0.9423(3)
H22 H 0.4681 0.0927 0.9399
C38 C 0.4933(2) 0.0240(5) 0.9331(2)
H23 H 0.4787 0.0008 0.9239
C39 C 0.3149(4) -0.5407(8) 1.0361(4)
C40 C 0.2639(3) -0.5422(6) 1.0355(3)
C41 C 0.2548(4) -0.5074(8) 1.0125(4)
H24 H 0.2687 -0.4962 1.0025
C42 C 0.2296(4) -0.4887(9) 1.0033(4)
H25 H 0.2258 -0.4615 0.9892
C43 C 0.2076(4) -0.5125(7) 1.0161(4)
H26 H 0.1885 -0.5039 1.0084
C44 C 0.2136(4) -0.5488(7) 1.0402(3)
H27 H 0.1992 -0.5604 1.0494
C45 C 0.2432(3) -0.5670(7) 1.0497(3)
C46 C 0.2362(5) -0.6046(9) 1.0902(4)
C47 C 0.5269(3) -0.6067(6) 1.0551(3)
C48 C 0.5521(2) -0.6161(5) 1.0460(2)
H28 H 0.5548 -0.5985 1.0294
C49 C 0.5735(3) -0.6505(5) 1.0602(3)
H29 H 0.5899 -0.6575 1.0530
C50 C 0.5696(2) -0.6753(4) 1.0869(2)
C51 C 0.5461(3) -0.6706(6) 1.0962(3)
H30 H 0.5428 -0.6887 1.1124
C52 C 0.5243(4) -0.6331(8) 1.0782(4)
H31 H 0.5070 -0.6281 1.0843
C53 C 0.5905(3) -0.7524(7) 1.1190(3)
C54 C 0.6161(2) -0.8264(4) 1.1465(2)
C55 C 0.5943(3) -0.8650(6) 1.1445(3)
H32 H 0.5780 -0.8605 1.1302
C56 C 0.5955(4) -0.9086(7) 1.1621(4)
H33 H 0.5811 -0.9354 1.1592
C57 C 0.6177(3) -0.9124(6) 1.1837(3)
H34 H 0.6172 -0.9401 1.1971
C58 C 0.6399(6) -0.8807(12) 1.1875(6)
H35 H 0.6554 -0.8884 1.2022
C59 C 0.6410(3) -0.8316(6) 1.1685(3)
C60 C 0.6838(4) -0.7797(9) 1.1932(5)
N1 N 0.5224(2) -0.2927(4) 0.9535(2)
H36 H 0.5090 -0.2684 0.9493
N2 N 0.5481(2) -0.2375(4) 0.93036(19)
H37 H 0.5323 -0.2193 0.9256
N3 N 0.55120(19) -0.1249(4) 0.92039(18)
H38 H 0.5344 -0.1400 0.9178
N4 N 0.52663(18) -0.0482(4) 0.92990(17)
H39 H 0.5118 -0.0694 0.9256
N5 N 0.5038(3) 0.1647(6) 0.9658(3)
N6 N 0.3410(2) -0.5712(4) 1.0473(2)
H40 H 0.3395 -0.6014 1.0565
N7 N 0.2927(2) -0.5650(5) 1.0446(2)
H41 H 0.2954 -0.5940 1.0553
N8 N 0.2512(2) -0.6007(4) 1.0719(2)
H42 H 0.2667 -0.6198 1.0735
N9 N 0.2488(3) -0.6414(5) 1.1156(3)
H43 H 0.2661 -0.6531 1.1165
N10 N 0.2053(6) -0.7168(11) 1.2087(6)
N11 N 0.5940(2) -0.7099(4) 1.10150(19)
H44 H 0.6110 -0.7027 1.0987
N12 N 0.6142(2) -0.7801(4) 1.1288(2)
H45 H 0.6297 -0.7688 1.1240
N13 N 0.6635(3) -0.7937(5) 1.1704(3)
H46 H 0.6645 -0.7769 1.1548
N14 N 0.7044(3) -0.7411(6) 1.1899(3)
H47 H 0.7049 -0.7306 1.1728
N15 N 0.7912(5) -0.6429(14) 1.2763(7)
O1 O 0.5679(2) -0.3155(5) 0.9537(2)
O2 O 0.57530(17) -0.0438(4) 0.93176(17)
O3 O 0.5235(3) 0.2010(6) 0.9702(3)
O4 O 0.4790(3) 0.1804(5) 0.9639(3)
O5 O 0.3180(3) -0.4958(5) 1.0249(3)
O6 O 0.2166(4) -0.5725(7) 1.0969(3)
O7 O 0.1764(4) -0.7182(7) 1.2057(4)
O8 O 0.2189(7) -0.7486(14) 1.2255(7)
O9 O 0.5646(2) -0.7694(4) 1.1211(2)
O10 O 0.6834(4) -0.8037(7) 1.2182(4)
O11 O 0.8043(8) -0.6135(15) 1.2631(8)
O12 O 0.7975(10) -0.6839(18) 1.2904(10)
C61 C 0.42545(11) -0.5341(3) 1.04050(15)
C62 C 0.40316(14) -0.5124(3) 1.02006(13)
H48 H 0.4072 -0.4910 1.0052
C63 C 0.37478(12) -0.5229(3) 1.02185(15)
H49 H 0.3599 -0.5084 1.0082
C64 C 0.36869(11) -0.5550(4) 1.04408(17)
C65 C 0.39098(15) -0.5767(3) 1.06452(14)
H50 H 0.3869 -0.5982 1.0794
C66 C 0.41936(13) -0.5663(3) 1.06273(13)
H51 H 0.4343 -0.5808 1.0764
K1 K 0.18574(17) -0.6450(3) 1.25168(17)
K2 K 0.59419(7) 0.04310(14) 0.90558(7)
K3 K 0.52229(8) -0.72044(16) 1.00966(8)
C67 C 0.3784(3) 0.8857(6) -0.1238(3)
C68 C 0.3842(3) 0.8540(6) -0.1426(3)
H52 H 0.4033 0.8458 -0.1428
C69 C 0.3615(4) 0.8298(9) -0.1643(5)
H53 H 0.3655 0.8076 -0.1789
C70 C 0.3329(3) 0.8418(6) -0.1618(3)
C71 C 0.3277(5) 0.8771(9) -0.1420(4)
H54 H 0.3087 0.8834 -0.1404
C72 C 0.3497(3) 0.9049(6) -0.1233(3)
H55 H 0.3461 0.9336 -0.1114
C73 C 0.5835(3) 0.6598(6) 0.3304(2)
C74 C 0.6061(3) 0.6220(7) 0.3338(3)
H56 H 0.6142 0.6127 0.3183
C75 C 0.6164(3) 0.5980(7) 0.3603(4)
H57 H 0.6315 0.5726 0.3626
C76 C 0.6042(4) 0.6118(7) 0.3835(3)
H58 H 0.6111 0.5957 0.4013
C77 C 0.5817(3) 0.6496(7) 0.3802(2)
H59 H 0.5735 0.6589 0.3957
C78 C 0.5713(3) 0.6736(5) 0.3536(3)
C79 C 0.5700(4) 0.6145(7) 0.1270(4)
H60 H 0.5812 0.5917 0.1407
C80 C 0.5686(2) 0.6043(5) 0.0977(2)
C81 C 0.5524(2) 0.6406(5) 0.0775(2)
H61 H 0.5511 0.6345 0.0580
C82 C 0.5386(2) 0.6856(5) 0.0868(2)
C83 C 0.5397(3) 0.6974(6) 0.1161(3)
H62 H 0.5311 0.7287 0.1220
C84 C 0.5548(3) 0.6586(6) 0.1357(3)
C85 C 0.5567(3) 0.6679(5) 0.16704(16)
C86 C 0.5599(3) 0.6228(3) 0.1856(2)
H63 H 0.5603 0.5870 0.1785
C87 C 0.5626(3) 0.6314(3) 0.2148(2)
H64 H 0.5647 0.6012 0.2272
C88 C 0.5620(2) 0.6850(4) 0.22544(16)
C89 C 0.5588(3) 0.7301(3) 0.2069(2)
H65 H 0.5584 0.7660 0.2140
C90 C 0.5562(3) 0.7216(4) 0.17770(19)
H66 H 0.5540 0.7517 0.1653
C91 C 0.5718(4) 0.6579(8) 0.2766(4)
C92 C 0.5233(5) 0.7004(11) 0.3653(6)
C93 C 0.4810(4) 0.7538(7) 0.3682(4)
C94 C 0.4789(5) 0.7327(10) 0.3945(5)
H67 H 0.4916 0.7051 0.4028
C95 C 0.4578(5) 0.7522(10) 0.4090(5)
H68 H 0.4572 0.7374 0.4269
C96 C 0.4393(4) 0.7897(7) 0.3985(4)
C97 C 0.4373(5) 0.8147(10) 0.3707(5)
H69 H 0.4232 0.8397 0.3621
C98 C 0.4621(3) 0.7933(7) 0.3577(3)
H70 H 0.4644 0.8096 0.3407
C99 C 0.5850(2) 0.5575(5) 0.0888(2)
C100 C 0.5876(3) 0.5074(5) 0.1053(3)
H71 H 0.5792 0.5042 0.1213
C101 C 0.6036(2) 0.4618(5) 0.0964(2)
H72 H 0.6056 0.4284 0.1064
C102 C 0.6154(2) 0.4685(5) 0.0733(2)
C103 C 0.61127(19) 0.5138(4) 0.05530(19)
H73 H 0.6185 0.5149 0.0386
C104 C 0.5953(2) 0.5592(5) 0.0637(2)
H74 H 0.5918 0.5903 0.0520
C105 C 0.6345(3) 0.4081(6) 0.0400(3)
C106 C 0.6581(3) 0.3344(6) 0.0152(3)
C107 C 0.6533(3) 0.3616(7) -0.0132(3)
H75 H 0.6467 0.3980 -0.0144
C108 C 0.6579(5) 0.3372(9) -0.0378(5)
H76 H 0.6516 0.3540 -0.0555
C109 C 0.6732(4) 0.2833(7) -0.0355(4)
H77 H 0.6810 0.2681 -0.0502
C110 C 0.6747(4) 0.2562(8) -0.0072(4)
H78 H 0.6803 0.2191 -0.0055
C111 C 0.6687(3) 0.2803(5) 0.0158(3)
C112 C 0.6657(2) 0.1939(5) 0.0423(2)
C113 C 0.6614(2) 0.1204(5) 0.0783(2)
C114 C 0.6576(3) 0.1129(6) 0.1041(3)
H79 H 0.6579 0.1437 0.1158
C115 C 0.6529(4) 0.0573(8) 0.1157(5)
H80 H 0.6515 0.0517 0.1347
C116 C 0.6509(3) 0.0160(7) 0.0968(3)
C117 C 0.6564(4) 0.0195(8) 0.0696(4)
H81 H 0.6578 -0.0120 0.0587
C118 C 0.6597(4) 0.0751(8) 0.0587(4)
H82 H 0.6608 0.0810 0.0397
C119 C 0.5243(3) 0.7292(5) 0.0660(3)
C120 C 0.5189(2) 0.7807(5) 0.0722(3)
H83 H 0.5222 0.7908 0.0914
C121 C 0.5087(3) 0.8202(6) 0.0526(3)
H84 H 0.5083 0.8569 0.0586
C122 C 0.4988(3) 0.8080(5) 0.0238(3)
C123 C 0.4982(3) 0.7505(6) 0.0185(3)
H85 H 0.4895 0.7380 0.0004
C124 C 0.5095(3) 0.7130(7) 0.0380(3)
H86 H 0.5078 0.6754 0.0334
C125 C 0.4757(3) 0.8950(5) 0.0082(3)
C126 C 0.4543(3) 0.9811(6) -0.0193(3)
C127 C 0.4611(4) 1.0149(7) 0.0027(4)
H87 H 0.4731 1.0023 0.0193
C128 C 0.4499(3) 1.0726(6) 0.0017(3)
H88 H 0.4568 1.1004 0.0147
C129 C 0.4287(4) 1.0782(7) -0.0209(4)
H89 H 0.4166 1.1084 -0.0204
C130 C 0.4222(3) 1.0452(6) -0.0450(3)
H90 H 0.4102 1.0571 -0.0617
C131 C 0.4353(3) 0.9909(6) -0.0423(3)
C132 C 0.4025(2) 0.9447(5) -0.0825(2)
N16 N 0.5612(3) 0.6961(6) 0.2552(3)
H91 H 0.5540 0.7269 0.2597
N17 N 0.5700(3) 0.6768(6) 0.3011(3)
H92 H 0.5587 0.7049 0.3005
N18 N 0.5456(3) 0.7023(6) 0.3481(3)
H93 H 0.5424 0.7231 0.3332
N19 N 0.5022(3) 0.7381(7) 0.3548(3)
H94 H 0.5025 0.7528 0.3384
N20 N 0.4170(4) 0.8108(9) 0.4118(4)
N21 N 0.6330(2) 0.4223(4) 0.0664(2)
H95 H 0.6429 0.4035 0.0803
N22 N 0.65264(18) 0.3591(4) 0.03866(18)
H96 H 0.6606 0.3446 0.0548
N23 N 0.6707(2) 0.2505(4) 0.0412(2)
H97 H 0.6754 0.2683 0.0571
N24 N 0.6650(2) 0.1774(4) 0.0703(2)
H98 H 0.6667 0.2024 0.0833
N25 N 0.6523(5) -0.0380(10) 0.1131(5)
N26 N 0.4876(2) 0.8433(4) 0.0027(2)
H99 H 0.4876 0.8341 -0.0147
N27 N 0.4674(2) 0.9253(5) -0.0172(2)
H100 H 0.4703 0.9103 -0.0327
N28 N 0.4284(2) 0.9525(4) -0.0643(2)
H101 H 0.4421 0.9309 -0.0668
N29 N 0.4023(2) 0.9022(5) -0.1006(2)
H102 H 0.4177 0.8826 -0.0985
N30 N 0.3098(4) 0.8199(8) -0.1821(4)
O13 O 0.5877(3) 0.6188(6) 0.2748(3)
O14 O 0.5220(3) 0.6661(7) 0.3819(3)
O15 O 0.4049(4) 0.8497(8) 0.4036(4)
O16 O 0.4154(4) 0.7847(8) 0.4338(4)
O17 O 0.61998(19) 0.4293(4) 0.01752(19)
O18 O 0.65965(19) 0.1633(4) 0.02199(19)
O19 O 0.6476(4) -0.0783(8) 0.0906(4)
O20 O 0.6565(4) -0.0462(7) 0.1361(4)
O21 O 0.4717(2) 0.9116(4) 0.0302(2)
O22 O 0.38033(19) 0.9740(4) -0.08156(19)
O23 O 0.3146(3) 0.7964(7) -0.2053(3)
O24 O 0.2849(3) 0.8288(6) -0.1783(3)
K4 K 0.5808(3) -0.1442(5) 0.0715(3)
K5 K 0.60073(10) -0.1186(2) 0.06470(10)
C133 C 1.0675(3) -0.0687(5) 0.1784(3)
C134 C 1.0766(3) -0.1161(6) 0.1663(3)
H103 H 1.0634 -0.1440 0.1598
C135 C 1.1053(3) -0.1231(6) 0.1638(3)
H104 H 1.1118 -0.1574 0.1587
C136 C 1.1235(3) -0.0793(5) 0.1689(3)
C137 C 1.1157(2) -0.0289(5) 0.1801(2)
H105 H 1.1279 0.0015 0.1837
C138 C 1.0863(3) -0.0288(6) 0.1855(3)
H106 H 1.0807 0.0021 0.1948
C139 C 0.9751(3) 0.4804(5) 0.2672(3)
C140 C 1.0055(4) 0.5025(8) 0.2733(4)
H107 H 1.0205 0.4815 0.2837
C141 C 1.0105(3) 0.5526(6) 0.2635(3)
H108 H 1.0292 0.5661 0.2664
C142 C 0.9885(5) 0.5844(9) 0.2493(5)
C143 C 0.9624(4) 0.5629(8) 0.2399(4)
H109 H 0.9490 0.5844 0.2277
C144 C 0.9539(5) 0.5082(9) 0.2476(5)
H110 H 0.9359 0.4929 0.2402
C145 C 0.9200(3) 0.2680(5) 0.2822(3)
C146 C 0.8960(4) 0.2356(5) 0.2831(4)
H111 H 0.8955 0.1986 0.2773
C147 C 0.8727(3) 0.2583(7) 0.2926(4)
H112 H 0.8566 0.2366 0.2932
C148 C 0.8734(2) 0.3135(7) 0.3012(3)
H113 H 0.8578 0.3287 0.3076
C149 C 0.8974(3) 0.3460(4) 0.3004(3)
H114 H 0.8979 0.3829 0.3061
C150 C 0.9207(2) 0.3232(5) 0.2908(2)
C151 C 0.7586(3) -0.2187(5) -0.0051(3)
C152 C 0.7497(4) -0.2423(5) -0.0320(3)
H115 H 0.7573 -0.2761 -0.0362
C153 C 0.7294(4) -0.2154(7) -0.0525(3)
H116 H 0.7234 -0.2312 -0.0705
C154 C 0.7179(3) -0.1649(7) -0.0462(3)
C155 C 0.7268(3) -0.1412(5) -0.0193(3)
H117 H 0.7192 -0.1074 -0.0151
C156 C 0.7471(3) -0.1681(5) 0.0012(2)
H118 H 0.7531 -0.1523 0.0192
C157 C 1.2286(2) -0.0622(6) 0.1780(3)
C158 C 1.2366(3) -0.0377(7) 0.2048(3)
H119 H 1.2232 -0.0338 0.2164
C159 C 1.2646(4) -0.0188(7) 0.2141(3)
H120 H 1.2699 -0.0023 0.2320
C160 C 1.2846(3) -0.0245(8) 0.1967(4)
H121 H 1.3033 -0.0119 0.2029
C161 C 1.2766(3) -0.0491(7) 0.1699(3)
H122 H 1.2900 -0.0530 0.1582
C162 C 1.2486(3) -0.0680(6) 0.1606(2)
C163 C 0.9989(3) -0.0063(7) 0.1972(3)
C164 C 0.9787(3) -0.0459(6) 0.1829(3)
H123 H 0.9595 -0.0415 0.1840
C165 C 0.9856(3) -0.0883(7) 0.1683(3)
C166 C 1.0360(3) -0.0616(6) 0.1818(3)
C167 C 1.0144(3) -0.0979(7) 0.1661(3)
H124 H 1.0193 -0.1266 0.1549
C168 C 1.0286(3) -0.0201(7) 0.1974(3)
H125 H 1.0431 0.0006 0.2089
C169 C 0.9918(3) 0.0441(5) 0.2143(3)
C170 C 0.9659(3) 0.0709(6) 0.2039(3)
H126 H 0.9534 0.0570 0.1880
C171 C 0.9588(2) 0.1187(5) 0.2173(3)
H127 H 0.9415 0.1367 0.2103
C172 C 0.9776(3) 0.1396(5) 0.2410(3)
C173 C 1.0035(3) 0.1127(7) 0.2514(3)
H128 H 1.0161 0.1267 0.2673
C174 C 1.0106(3) 0.0650(6) 0.2380(3)
H129 H 1.0280 0.0470 0.2450
C175 C 0.9421(4) 0.2041(8) 0.2545(4)
C176 C 0.9450(3) 0.4066(5) 0.2805(3)
C177 C 0.9635(3) -0.1241(5) 0.1501(3)
C178 C 0.9670(3) -0.1563(5) 0.1259(3)
H130 H 0.9853 -0.1570 0.1218
C179 C 0.9474(4) -0.1848(7) 0.1091(4)
H131 H 0.9523 -0.2033 0.0936
C180 C 0.9181(2) -0.1887(5) 0.1134(2)
C181 C 0.9149(3) -0.1587(6) 0.1396(3)
H132 H 0.8972 -0.1605 0.1451
C182 C 0.9355(3) -0.1298(6) 0.1557(3)
H133 H 0.9314 -0.1120 0.1717
C183 C 0.8976(3) -0.2578(6) 0.0808(3)
C184 C 0.8677(3) -0.3267(6) 0.0463(3)
C185 C 0.8888(4) -0.3633(8) 0.0474(4)
H134 H 0.9068 -0.3567 0.0588
C186 C 0.8829(4) -0.4170(8) 0.0295(4)
H135 H 0.8973 -0.4424 0.0281
C187 C 0.8563(5) -0.4240(10) 0.0164(5)
H136 H 0.8512 -0.4569 0.0066
C188 C 0.8350(4) -0.3836(8) 0.0167(4)
H137 H 0.8166 -0.3887 0.0060
C189 C 0.8419(4) -0.3362(8) 0.0331(4)
C190 C 0.7987(3) -0.2787(6) 0.0102(3)
C191 C 1.1748(2) -0.0562(5) 0.1745(2)
C192 C 1.2536(3) -0.1004(6) 0.1125(3)
C193 C 1.2540(2) -0.1499(5) 0.06730(19)
C194 C 1.2832(2) -0.1454(5) 0.06727(19)
H138 H 1.2958 -0.1332 0.0836
C195 C 1.29346(18) -0.1590(5) 0.0429(2)
H139 H 1.3130 -0.1559 0.0429
C196 C 1.2746(2) -0.1771(6) 0.01849(19)
C197 C 1.2454(2) -0.1817(6) 0.0185(2)
H140 H 1.2327 -0.1938 0.0022
C198 C 1.23510(17) -0.1681(5) 0.0429(2)
H141 H 1.2156 -0.1711 0.0429
N31 N 0.9709(3) 0.1879(5) 0.2512(3)
H142 H 0.9845 0.2116 0.2561
N32 N 0.9435(4) 0.2447(7) 0.2725(4)
H143 H 0.9602 0.2587 0.2790
N33 N 0.9461(2) 0.3551(4) 0.2885(2)
H144 H 0.9626 0.3391 0.2926
N34 N 0.9709(3) 0.4259(5) 0.2762(3)
H145 H 0.9854 0.4037 0.2792
N35 N 0.9962(4) 0.6371(8) 0.2377(4)
N36 N 1.15101(19) -0.0849(4) 0.1633(2)
H146 H 1.1530 -0.1100 0.1511
N37 N 1.1998(3) -0.0814(6) 0.1685(3)
H147 H 1.1975 -0.1111 0.1583
N38 N 1.2413(3) -0.1019(5) 0.1346(3)
H148 H 1.2274 -0.1251 0.1338
N39 N 1.2431(3) -0.1371(6) 0.0929(3)
H149 H 1.2283 -0.1554 0.0954
N40 N 1.2846(4) -0.1891(7) -0.0063(4)
N41 N 0.8960(2) -0.2140(5) 0.0981(2)
H150 H 0.8791 -0.2019 0.0990
N42 N 0.8728(3) -0.2817(5) 0.0669(2)
H151 H 0.8575 -0.2677 0.0710
N43 N 0.8179(3) -0.2982(5) 0.0342(3)
H152 H 0.8156 -0.2872 0.0507
N44 N 0.7815(3) -0.2402(6) 0.0149(3)
H153 H 0.7843 -0.2264 0.0318
N45 N 0.6939(4) -0.1410(9) -0.0671(4)
O25 O 0.9206(3) 0.1743(5) 0.2467(3)
O26 O 0.92159(19) 0.4363(4) 0.27581(18)
O27 O 0.9752(3) 0.6698(6) 0.2276(3)
O28 O 1.0211(3) 0.6558(6) 0.2413(3)
O29 O 1.1769(2) -0.0165(4) 0.1918(2)
O30 O 1.2769(2) -0.0708(5) 0.1114(2)
O31 O 1.3127(3) -0.1888(6) -0.0028(3)
O32 O 1.2689(4) -0.2005(7) -0.0280(4)
O33 O 0.9216(2) -0.2773(5) 0.0779(2)
O34 O 0.7977(3) -0.3012(5) -0.0138(3)
O35 O 0.6929(5) -0.1531(9) -0.0915(5)
O36 O 0.6896(6) -0.1017(12) -0.0637(5)
K6 K 1.19923(7) 0.08435(15) 0.20381(7)
K7 K 0.8002(3) -0.2377(5) -0.0663(3)
C199 C 1.4456(3) -0.2982(6) 0.0870(3)
H154 H 1.4587 -0.2743 0.0814
C200 C 1.4461(4) -0.3048(7) 0.1164(4)
C201 C 1.4314(3) -0.3484(5) 0.1241(3)
H155 H 1.4332 -0.3564 0.1434
C202 C 1.4131(3) -0.3831(7) 0.1035(3)
C203 C 1.4119(3) -0.3713(5) 0.0744(3)
H156 H 1.4013 -0.3944 0.0606
C204 C 1.4261(3) -0.3262(5) 0.0660(2)
C205 C 1.4248(3) -0.3148(6) 0.0359(3)
C206 C 1.4140(3) -0.3405(5) -0.0149(3)
H157 H 1.4078 -0.3674 -0.0288
C207 C 1.4160(3) -0.3507(7) 0.0146(3)
H158 H 1.4105 -0.3858 0.0196
C208 C 1.4224(2) -0.2848(5) -0.0220(2)
C209 C 1.4305(3) -0.2489(7) -0.0020(3)
H159 H 1.4352 -0.2133 -0.0070
C210 C 1.4324(3) -0.2611(6) 0.0260(3)
H160 H 1.4389 -0.2337 0.0395
C211 C 1.4083(3) -0.2965(6) -0.0746(3)
C212 C 1.4005(2) -0.2872(5) -0.12726(17)
C213 C 1.3730(2) -0.3096(6) -0.1331(2)
H161 H 1.3631 -0.3150 -0.1183
C214 C 1.36018(19) -0.3240(6) -0.1609(3)
H162 H 1.3418 -0.3390 -0.1648
C215 C 1.3749(2) -0.3159(5) -0.18295(19)
H163 H 1.3664 -0.3255 -0.2016
C216 C 1.4025(2) -0.2935(5) -0.17715(18)
H164 H 1.4123 -0.2881 -0.1919
C217 C 1.41525(18) -0.2792(5) -0.1493(2)
C218 C 1.4649(3) -0.2634(5) -0.1583(3)
C219 C 1.5113(3) -0.2229(5) -0.1624(3)
C220 C 1.5113(5) -0.2404(9) -0.1900(5)
H165 H 1.4954 -0.2592 -0.2003
C221 C 1.5344(3) -0.2304(6) -0.2021(3)
H166 H 1.5351 -0.2462 -0.2197
C222 C 1.5568(4) -0.1971(7) -0.1887(4)
C223 C 1.5565(3) -0.1790(7) -0.1608(3)
H167 H 1.5719 -0.1592 -0.1504
C224 C 1.5338(3) -0.1907(6) -0.1496(3)
H168 H 1.5332 -0.1759 -0.1317
C225 C 1.4655(2) -0.2705(3) 0.13929(17)
C226 C 1.4712(2) -0.2156(3) 0.13330(14)
H169 H 1.4650 -0.2017 0.1149
C227 C 1.48603(19) -0.1816(3) 0.15478(17)
H170 H 1.4898 -0.1448 0.1508
C228 C 1.49524(19) -0.2024(3) 0.18223(15)
C229 C 1.4896(2) -0.2573(4) 0.18821(15)
H171 H 1.4957 -0.2713 0.2066
C230 C 1.4747(2) -0.2914(3) 0.1667(2)
H172 H 1.4709 -0.3281 0.1707
C231 C 1.5246(3) -0.1234(6) 0.2045(3)
C232 C 1.5501(3) -0.0470(6) 0.2334(3)
C233 C 1.5467(3) -0.0094(6) 0.2148(3)
H173 H 1.5336 -0.0157 0.1977
C234 C 1.5616(4) 0.0422(8) 0.2183(4)
H174 H 1.5590 0.0690 0.2040
C235 C 1.5815(3) 0.0503(6) 0.2461(3)
H175 H 1.5926 0.0822 0.2498
C236 C 1.5828(4) 0.0123(7) 0.2650(4)
H176 H 1.5937 0.0216 0.2828
C237 C 1.5699(3) -0.0447(6) 0.2634(3)
C238 C 1.5960(3) -0.0970(6) 0.3037(3)
C239 C 1.6172(3) -0.1606(6) 0.3394(3)
C240 C 1.6444(3) -0.1378(5) 0.3485(3)
H177 H 1.6485 -0.1026 0.3423
C241 C 1.6655(2) -0.1676(7) 0.3668(3)
H178 H 1.6837 -0.1524 0.3729
C242 C 1.6594(3) -0.2202(7) 0.3761(3)
C243 C 1.6322(4) -0.2429(6) 0.3670(4)
H179 H 1.6281 -0.2781 0.3732
C244 C 1.6111(3) -0.2131(6) 0.3486(4)
H180 H 1.5929 -0.2284 0.3425
C245 C 1.3964(2) -0.4320(4) 0.1123(2)
C246 C 1.3692(2) -0.4478(4) 0.0979(2)
H181 H 1.3597 -0.4271 0.0825
C247 C 1.35613(17) -0.4947(4) 0.1067(2)
H182 H 1.3379 -0.5052 0.0971
C248 C 1.3703(2) -0.5257(4) 0.1298(2)
C249 C 1.3976(2) -0.5099(5) 0.1441(2)
H183 H 1.4071 -0.5307 0.1596
C250 C 1.4106(2) -0.4631(5) 0.1354(3)
H184 H 1.4288 -0.4525 0.1450
C251 C 1.3577(2) -0.5916(5) 0.1629(2)
C252 C 1.3367(2) -0.6602(4) 0.1916(2)
C253 C 1.3382(2) -0.6346(5) 0.2145(2)
H185 H 1.3435 -0.5974 0.2148
C254 C 1.3325(3) -0.6580(6) 0.2402(3)
H186 H 1.3329 -0.6365 0.2564
C255 C 1.3266(3) -0.7105(5) 0.2399(3)
H187 H 1.3260 -0.7279 0.2572
C256 C 1.3214(2) -0.7414(5) 0.2154(2)
H188 H 1.3141 -0.7773 0.2154
C257 C 1.3274(2) -0.7173(5) 0.1897(2)
C258 C 1.3307(2) -0.8035(5) 0.1623(2)
C259 C 1.3319(3) -0.8779(6) 0.1273(3)
C260 C 1.3293(3) -0.9232(6) 0.1452(3)
H189 H 1.3258 -0.9189 0.1636
C261 C 1.3325(3) -0.9777(6) 0.1325(3)
H190 H 1.3326 -1.0096 0.1435
C262 C 1.3352(3) -0.9819(6) 0.1063(3)
C263 C 1.3356(4) -0.9389(8) 0.0883(4)
H191 H 1.3364 -0.9454 0.0693
C264 C 1.3349(3) -0.8859(7) 0.0981(3)
H192 H 1.3363 -0.8557 0.0863
N46 N 1.42506(19) -0.2723(4) -0.05005(19)
H193 H 1.4378 -0.2482 -0.0523
N47 N 1.4135(2) -0.2705(5) -0.0997(2)
H194 H 1.4252 -0.2429 -0.0979
N48 N 1.4445(2) -0.2559(5) -0.1428(3)
H195 H 1.4489 -0.2356 -0.1277
N49 N 1.4882(2) -0.2332(4) -0.1483(2)
H196 H 1.4894 -0.2185 -0.1316
N50 N 1.5813(4) -0.1830(7) -0.2017(4)
N51 N 1.5080(2) -0.1704(4) 0.2061(2)
H197 H 1.5054 -0.1806 0.2227
N52 N 1.5346(2) -0.0990(5) 0.2298(2)
H198 H 1.5315 -0.1155 0.2449
N53 N 1.5720(3) -0.0811(5) 0.2810(2)
H199 H 1.5568 -0.1010 0.2801
N54 N 1.5935(3) -0.1365(6) 0.3188(3)
H200 H 1.5767 -0.1511 0.3173
N55 N 1.6817(4) -0.2622(8) 0.3964(4)
N56 N 1.35466(19) -0.5730(4) 0.13650(19)
H201 H 1.3430 -0.5896 0.1230
N57 N 1.3417(2) -0.6373(4) 0.1652(2)
H202 H 1.3339 -0.6539 0.1496
N58 N 1.32339(18) -0.7468(4) 0.16385(18)
H203 H 1.3162 -0.7296 0.1483
N59 N 1.3273(2) -0.8240(4) 0.1350(2)
H204 H 1.3217 -0.8009 0.1213
N60 N 1.3363(3) -1.0412(5) 0.0944(3)
O37 O 1.3926(2) -0.3342(5) -0.0734(2)
O38 O 1.4617(3) -0.2966(6) -0.1794(3)
O39 O 1.5821(3) -0.2072(6) -0.2253(3)
O40 O 1.5980(3) -0.1484(6) -0.1913(3)
O41 O 1.5300(2) -0.1079(5) 0.1805(2)
O42 O 1.6187(3) -0.0688(7) 0.3000(3)
O43 O 1.7042(8) -0.2252(15) 0.3951(7)
O44 O 1.6799(4) -0.3055(9) 0.3988(4)
O45 O 1.37241(19) -0.5671(4) 0.18461(19)
O46 O 1.33750(18) -0.8343(4) 0.18281(18)
O47 O 1.3408(2) -1.0755(5) 0.1092(2)
O48 O 1.3309(3) -1.0456(7) 0.0679(3)
C265 C 0.8988(4) -0.2609(7) 0.1916(3)
C266 C 0.9093(4) -0.3105(8) 0.1799(4)
C267 C 0.9393(4) -0.3382(8) 0.1502(4)
C268 C 0.9690(5) -0.3291(10) 0.1385(5)
C269 C 1.0155(5) -0.2987(10) 0.1517(5)
C270 C 1.0395(3) -0.2842(7) 0.1785(3)
C271 C 1.0541(4) -0.2318(9) 0.2161(4)
C272 C 1.0467(5) -0.1790(11) 0.2301(5)
C273 C 1.0100(4) -0.1309(8) 0.2467(4)
C274 C 0.9805(4) -0.1388(8) 0.2573(4)
O49 O 0.92131(19) -0.2395(4) 0.21266(19)
O50 O 0.9314(2) -0.2967(4) 0.1637(2)
O51 O 0.9892(2) -0.3149(5) 0.1611(2)
O52 O 1.0325(2) -0.2394(4) 0.1911(2)
O53 O 1.0185(3) -0.1832(5) 0.2374(3)
O54 O 0.9616(2) -0.1552(4) 0.2387(2)
C275 C 0.9358(3) -0.1745(7) 0.2510(3)
C276 C 0.9128(4) -0.1883(8) 0.2274(4)
C277 C 1.3507(7) -0.2038(14) -0.0644(7)
C278 C 1.3742(4) -0.1580(7) -0.0471(4)
C279 C 1.3931(7) -0.1039(13) -0.0088(7)
C280 C 1.3892(4) -0.0882(9) 0.0210(4)
C281 C 1.3911(6) -0.1282(11) 0.0671(6)
C282 C 1.3882(6) -0.1827(12) 0.0917(6)
C283 C 1.3618(7) -0.2610(13) 0.0892(7)
C284 C 1.3333(7) -0.2937(13) 0.0715(7)
C285 C 1.3191(5) -0.3459(10) 0.0309(5)
C286 C 1.3298(6) -0.3732(12) 0.0072(6)
O55 O 1.3919(3) -0.1386(7) 0.0385(3)
O56 O 1.3669(4) -0.2169(8) 0.0713(4)
O57 O 1.3453(5) -0.3146(10) 0.0470(5)
O58 O 1.3294(3) -0.3199(6) -0.0117(3)
O59 O 1.3531(3) -0.2488(6) -0.0459(3)
O60 O 1.3723(3) -0.1428(6) -0.0195(3)
C287 C 1.3308(6) -0.2884(12) -0.0597(6)
C288 C 1.3347(6) -0.3347(13) -0.0397(6)
K8 K 0.97305(9) -0.2433(2) 0.19349(9)
K9 K 0.90492(7) 0.52464(14) 0.29960(7)
K10 K 1.36409(10) -0.2360(2) 0.01375(10)
K11 K 0.4840(4) 0.4883(7) 0.3514(3)
K12 K 0.2925(3) 0.3725(6) 0.6713(3)
K13 K 0.19701(11) 0.1364(2) 0.03195(11)
P1 P 0.67521(5) 0.30973(11) 0.11375(5)
O61 O 0.68784(14) 0.3189(3) 0.08667(14)
O62 O 0.64847(13) 0.3482(3) 0.11264(13)
O63 O 0.66516(14) 0.2462(3) 0.11451(13)
O64 O 0.69826(15) 0.3217(3) 0.14146(15)
O65 O 0.29371(15) 0.3266(3) 0.06384(15)
O66 O 0.30408(16) 0.3199(3) 0.11712(16)
O67 O 0.34251(13) 0.3480(3) 0.09154(13)
O68 O 0.32431(14) 0.2497(3) 0.08792(14)
P2 P 0.31643(6) 0.31159(11) 0.09024(5)
Cl1 Cl 1.0170(5) 1.0063(10) 0.6111(5)
Cl2 Cl 0.9879(6) 0.9248(10) 0.5754(5)
C289 C 0.9909(8) 0.9562(13) 0.6079(5)
H205 H 0.9730 0.9771 0.6063
Cl3 Cl 0.9955(4) 0.9236(8) 0.6417(4)
P3 P 0.51975(7) 0.80305(15) 0.28743(7)
O69 O 0.51588(17) 0.7691(4) 0.25984(17)
O70 O 0.4942(2) 0.7912(4) 0.3030(2)
O71 O 0.5484(2) 0.7875(4) 0.3078(2)
O72 O 0.51996(18) 0.8605(4) 0.28156(17)
O73 O 0.44576(15) 0.8247(3) 0.90003(15)
O74 O 0.49986(15) 0.8165(3) 0.90539(15)
O75 O 0.47756(14) 0.8929(3) 0.92979(14)
O76 O 0.47660(14) 0.7936(3) 0.94668(14)
P4 P 0.47471(6) 0.83145(12) 0.92096(6)
C290? C 1.2136(5) 0.1199(9) 0.1513(5)
O77? O 1.2516(7) 0.1295(13) 0.1852(6)
O78? O 1.1940(8) 0.0991(14) 0.1437(7)
C291? C 1.2464(4) 0.0994(8) 0.1551(4)
C292? C 0.2605(5) 0.1810(10) 0.0753(5)
C293? C 0.2413(7) 0.2261(14) 0.0769(7)
O79? O 0.2231(3) 0.2296(7) 0.0504(3)
O80? O 0.2451(3) 0.1268(6) 0.0762(3)
C294? C 0.2468(11) 0.030(2) 0.0807(10)
C295? C 0.2570(6) 0.0818(13) 0.0757(6)
C296? C 0.1511(6) 0.1272(12) -0.0147(6)
C297? C 0.1456(7) 0.0598(14) -0.0198(7)
C298? C 0.1850(6) 0.0107(11) -0.0027(6)
C299? C 0.1961(11) 0.000(2) 0.0323(10)
O81? O 0.1406(10) 0.172(2) -0.0165(9)
O82? O 0.1628(8) 0.0385(15) 0.0100(8)
O83? O 0.2233(7) 0.0393(13) 0.0451(6)
C300? C 0.1581(13) 0.245(3) -0.0191(14)
O84? O 0.1657(6) 0.2192(12) 0.0130(6)
C301? C 0.158(2) 0.325(4) -0.013(2)
K14? K 0.20268(17) 0.1045(4) 0.02274(17)
C302? C 0.5844(10) -0.117(2) 0.1398(10)
C303? C 0.5528(6) -0.0821(12) 0.0004(6)
C304? C 0.5664(6) -0.1746(11) -0.0021(6)
C305? C 0.5723(5) -0.2218(10) 0.0116(5)
C306? C 0.6037(8) -0.2494(15) 0.0558(8)
C307? C 0.6269(9) -0.2656(17) 0.0797(9)
C308? C 0.6094(10) -0.245(2) 0.1175(10)
O85? O 0.5853(7) -0.1590(14) 0.1221(7)
O86? O 0.5975(4) -0.2215(8) 0.0349(4)
O87? O 0.6223(6) -0.2158(11) 0.0961(6)
C309? C 0.6027(7) -0.2003(13) 0.1321(6)
O88? O 0.5599(7) -0.0294(12) 0.0419(7)
C310? C 0.5442(11) -0.046(2) 0.0146(11)
O89? O 0.5611(5) -0.1342(11) 0.0168(5)
O90? O 0.3962(4) 0.8859(8) 0.1399(4)
O91? O 0.5205(16) 0.392(3) 0.3714(14)
C311? C 0.5242(17) 0.382(3) 0.3906(15)
C312? C 0.564(3) 0.455(6) 0.404(3)
C313? C 0.4221(11) 0.560(2) 0.3713(10)
O92? O 0.4718(10) 0.4003(18) 0.3787(9)
O93? O 0.459(2) 0.605(4) 0.369(2)
C314? C 0.486(3) 0.351(5) 0.410(3)
O94? O 0.5561(10) -0.056(2) 0.1064(10)
C315? C 0.1865(12) -0.754(2) 1.3027(12)
C316? C 0.1401(6) -0.7362(11) 1.2861(6)
C317? C 0.1181(7) -0.7095(14) 1.2561(7)
C318? C 0.1079(8) -0.6396(15) 1.2263(8)
C319? C 0.1183(5) -0.5813(10) 1.2163(5)
C320? C 0.1599(9) -0.5403(19) 1.2055(9)
C321? C 0.1907(5) -0.5413(10) 1.1958(5)
C322? C 0.2199(16) -0.771(3) 1.2949(14)
O95? O 0.1694(6) -0.7367(10) 1.2786(6)
O96? O 0.1292(4) -0.6599(9) 1.2513(4)
O97? O 0.1477(7) -0.5886(13) 1.2104(6)
O98? O 0.2109(6) -0.5647(12) 1.2223(6)
C323? C 0.2559(10) -0.7228(19) 1.2777(10)
O99? O 0.2272(6) -0.7138(11) 1.2876(5)
O100? O 0.2505(8) -0.6355(17) 1.2533(8)
C324? C 0.2613(8) -0.5835(17) 1.2435(8)
C325? C 0.2784(18) -0.630(3) 1.3143(16)
C326? C 0.4444(9) -0.7104(18) 0.9824(9)
C327? C 0.4578(6) -0.7580(11) 1.0267(6)
C328? C 0.4738(5) -0.7818(9) 1.0497(5)
C329? C 0.5189(5) -0.8149(10) 1.0645(5)
C330? C 0.5462(4) -0.8300(8) 1.0532(4)
C331? C 0.5845(6) -0.8148(12) 1.0324(6)
O101? O 0.4852(6) -0.6562(12) 0.9673(6)
O102? O 0.4646(4) -0.7096(8) 1.0142(4)
O103? O 0.4990(3) -0.7975(6) 1.0414(3)
O104? O 0.5570(3) -0.7919(7) 1.0413(3)
C332? C 0.4523(11) -0.651(2) 0.9746(11)
C333? C 0.5915(7) -0.7558(15) 1.0104(7)
O105? O 0.5818(7) -0.7170(14) 0.9909(7)
C334? C 0.5704(7) -0.6662(14) 0.9628(7)
C335? C 0.5093(10) -0.629(2) 0.9440(9)
C336? C 0.4972(14) -0.596(3) 0.9403(13)
C337? C 0.6700(4) 0.0172(7) 0.9117(4)
C338? C 0.6471(4) -0.0328(7) 0.8756(4)
C339? C 0.6208(4) -0.0350(8) 0.8492(4)
C340? C 0.5729(4) -0.0261(8) 0.8377(4)
C341? C 0.5443(6) -0.0255(11) 0.8519(5)
C342? C 0.5348(4) 0.0678(8) 0.8518(4)
C343? C 0.5299(5) 0.1232(10) 0.8704(5)
C344? C 0.5657(4) 0.1723(8) 0.9021(4)
C345? C 0.5949(7) 0.1928(14) 0.9201(7)
C346? C 0.6240(7) 0.1449(13) 0.9543(6)
C347? C 0.6498(9) 0.1363(16) 0.9517(8)
O106? O 0.5425(3) 0.0241(5) 0.8682(3)
O107? O 0.5629(2) 0.1305(5) 0.8861(2)
O108? O 0.6008(3) 0.1372(6) 0.9399(3)
O109? O 0.6467(3) 0.0137(6) 0.8889(3)
O110? O 0.5957(3) -0.0309(6) 0.8605(3)
C348? C 0.8703(6) 0.4845(11) 0.3312(6)
O111? O 0.8454(7) 0.4901(13) 0.3134(7)
C349? C 0.8784(4) 0.4496(9) 0.3579(4)
C350? C 0.9158(5) 0.4655(11) 0.3664(5)
C351? C 0.9621(7) 0.6248(13) 0.3074(7)
C352? C 0.9085(7) 0.6682(13) 0.2737(6)
C353? C 0.9318(13) 0.662(2) 0.2794(12)
O112? O 0.9312(5) 0.6321(9) 0.3010(5)
C354? C 0.9649(3) 0.6030(6) 0.3371(3)
O113? O 0.9579(4) 0.5457(8) 0.3370(4)
O114? O 0.8886(4) 0.6091(9) 0.2637(4)
O115? O 0.8116(11) -0.1180(19) -0.0512(10)
C355? C 0.8317(11) -0.131(2) -0.0239(10)
C356? C 0.8595(10) -0.151(2) -0.0209(9)
C357? C 0.8471(7) -0.3596(13) -0.0596(6)
C358? C 0.8722(17) -0.254(3) -0.0230(16)
C359? C 0.8704(15) -0.299(3) -0.0294(15)
O116? O 0.8500(7) -0.1957(14) -0.0198(6)
O117? O 0.8501(7) -0.2954(13) -0.0604(7)
C360? C 0.7851(15) -0.078(3) -0.0452(14)
O118? O 0.3675(17) 0.356(3) 0.6737(16)
C361? C 0.3157(17) 0.229(3) 0.6657(16)
C362? C 0.2910(15) 0.230(3) 0.6429(14)
C363? C 0.2490(8) 0.2702(16) 0.6242(8)
O119? O 0.2743(9) 0.2726(16) 0.6442(8)
O120? O 0.2510(17) 0.353(3) 0.6209(16)
C364? C 0.221(3) 0.332(5) 0.636(3)
C365? C 1.2671(6) 0.1535(11) 0.2269(6)
C366? C 1.2497(12) 0.115(2) 0.2619(12)
C367? C 1.2384(4) 0.0682(9) 0.2750(4)
O121? O 1.2488(5) 0.0909(10) 0.2460(5)
C368? C 1.1736(12) 0.089(2) 0.2750(12)
C369? C 1.1499(10) 0.1043(19) 0.1422(10)
C370? C 1.1224(12) 0.128(2) 0.1806(12)
O122? O 1.1945(8) 0.0824(15) 0.2614(8)
C371? C 1.1347(11) 0.155(2) 0.2123(10)
C372? C 1.1515(8) 0.1025(16) 0.2525(8)
O123? O 1.1483(4) 0.1085(8) 0.2217(4)
O124? O 1.1511(7) 0.1482(13) 0.1722(6)
C373? C 0.8534(6) 0.5768(11) 0.2411(6)
C374? C 0.8256(10) 0.5730(19) 0.2748(9)
O125? O 0.8474(7) 0.5365(15) 0.2707(7)
C375? C 0.9542(5) 0.4569(10) 0.3556(5)
C376? C 0.5401(12) 0.985(2) 0.0725(12)
C377? C 0.777(2) -0.062(4) -0.0875(19)
O126? O 0.8184(17) -0.322(3) -0.0846(16)
O127? O 0.6474(4) 0.0623(9) 0.9447(4)
K15? K 0.97688(9) -0.2234(2) 0.20032(9)
loop_
_geom_bond_atom_site_label_1
_geom_bond_atom_site_label_2
_geom_bond_site_symmetry_1
_geom_bond_site_symmetry_2
C1 C2 1_555 1_555
C2 H1 1_555 1_555
C3 C2 1_555 1_555
H2 C3 1_555 1_555
C4 C3 1_555 1_555
C5 C4 1_555 1_555
H3 C5 1_555 1_555
C6 C1 1_555 1_555
H4 C6 1_555 1_555
C7 C8 1_555 1_555
C8 H5 1_555 1_555
C9 C8 1_555 1_555
H6 C9 1_555 1_555
C10 C9 1_555 1_555
C11 C10 1_555 1_555
H7 C11 1_555 1_555
C12 C7 1_555 1_555
H8 C12 1_555 1_555
C13 H9 1_555 1_555
C14 C13 1_555 1_555
C15 C14 1_555 1_555
H10 C15 1_555 1_555
C16 C15 1_555 1_555
C17 C16 1_555 1_555
H11 C17 1_555 1_555
C18 C13 1_555 1_555
C19 C18 1_555 1_555
C20 C19 1_555 1_555
H12 C20 1_555 1_555
C21 C20 1_555 1_555
H13 C21 1_555 1_555
C22 C21 1_555 1_555
C23 C22 1_555 1_555
H14 C23 1_555 1_555
C24 C19 1_555 1_555
H15 C24 1_555 1_555
C25 N1 1_555 1_555
C26 C27 1_555 1_555
C27 H16 1_555 1_555
C28 C27 1_555 1_555
H17 C28 1_555 1_555
C29 C28 1_555 1_555
H18 C29 1_555 1_555
C30 C29 1_555 1_555
H19 C30 1_555 1_555
C31 C26 1_555 1_555
C32 N3 1_555 1_555
C33 C34 1_555 1_555
C34 H20 1_555 1_555
C35 C34 1_555 1_555
H21 C35 1_555 1_555
C36 C35 1_555 1_555
C37 C36 1_555 1_555
H22 C37 1_555 1_555
C38 C33 1_555 1_555
H23 C38 1_555 1_555
C39 N6 1_555 1_555
C40 C41 1_555 1_555
C41 H24 1_555 1_555
C42 C41 1_555 1_555
H25 C42 1_555 1_555
C43 C42 1_555 1_555
H26 C43 1_555 1_555
C44 C43 1_555 1_555
H27 C44 1_555 1_555
C45 C40 1_555 1_555
C46 N8 1_555 1_555
C47 C16 1_555 1_555
C48 C47 1_555 1_555
H28 C48 1_555 1_555
C49 C48 1_555 1_555
H29 C49 1_555 1_555
C50 C49 1_555 1_555
C51 C50 1_555 1_555
H30 C51 1_555 1_555
C52 C47 1_555 1_555
H31 C52 1_555 1_555
C53 N11 1_555 1_555
C54 C55 1_555 1_555
C55 H32 1_555 1_555
C56 C55 1_555 1_555
H33 C56 1_555 1_555
C57 C56 1_555 1_555
H34 C57 1_555 1_555
C58 C57 1_555 1_555
H35 C58 1_555 1_555
C59 C54 1_555 1_555
C60 N13 1_555 1_555
N1 C22 1_555 1_555
H36 N1 1_555 1_555
N2 C25 1_555 1_555
H37 N2 1_555 1_555
N3 C31 1_555 1_555
H38 N3 1_555 1_555
N4 C32 1_555 1_555
H39 N4 1_555 1_555
N5 C36 1_555 1_555
N6 H40 1_555 1_555
N7 C39 1_555 1_555
H41 N7 1_555 1_555
N8 C45 1_555 1_555
H42 N8 1_555 1_555
N9 C4 1_555 1_555
H43 N9 1_555 1_555
N10 C1 1_555 1_555
N11 C50 1_555 1_555
H44 N11 1_555 1_555
N12 C53 1_555 1_555
H45 N12 1_555 1_555
N13 C59 1_555 1_555
H46 N13 1_555 1_555
N14 C7 1_555 1_555
H47 N14 1_555 1_555
N15 C10 1_555 1_555
O1 C25 1_555 1_555
O2 C32 1_555 1_555
O3 N5 1_555 1_555
O4 N5 1_555 1_555
O5 C39 1_555 1_555
O6 C46 1_555 1_555
O7 N10 1_555 1_555
O8 N10 1_555 1_555
O9 C53 1_555 1_555
O10 C60 1_555 1_555
O11 N15 1_555 1_555
O12 N15 1_555 1_555
C61 C14 1_555 1_555
C62 C61 1_555 1_555
H48 C62 1_555 1_555
C63 C62 1_555 1_555
H49 C63 1_555 1_555
C64 N6 1_555 1_555
C65 C64 1_555 1_555
H50 C65 1_555 1_555
C66 C61 1_555 1_555
H51 C66 1_555 1_555
C67 C68 1_555 1_555
C68 H52 1_555 1_555
C69 C68 1_555 1_555
H53 C69 1_555 1_555
C70 C69 1_555 1_555
C71 C70 1_555 1_555
H54 C71 1_555 1_555
C72 C67 1_555 1_555
H55 C72 1_555 1_555
C73 C74 1_555 1_555
C74 H56 1_555 1_555
C75 C74 1_555 1_555
H57 C75 1_555 1_555
C76 C75 1_555 1_555
H58 C76 1_555 1_555
C77 C76 1_555 1_555
H59 C77 1_555 1_555
C78 C73 1_555 1_555
C79 H60 1_555 1_555
C80 C79 1_555 1_555
C81 C80 1_555 1_555
H61 C81 1_555 1_555
C82 C81 1_555 1_555
C83 C82 1_555 1_555
H62 C83 1_555 1_555
C84 C79 1_555 1_555
C85 C84 1_555 1_555
C86 C85 1_555 1_555
H63 C86 1_555 1_555
C87 C86 1_555 1_555
H64 C87 1_555 1_555
C88 C87 1_555 1_555
C89 C88 1_555 1_555
H65 C89 1_555 1_555
C90 C85 1_555 1_555
H66 C90 1_555 1_555
C91 N16 1_555 1_555
C92 N18 1_555 1_555
C93 C94 1_555 1_555
C94 H67 1_555 1_555
C95 C94 1_555 1_555
H68 C95 1_555 1_555
C96 C95 1_555 1_555
C97 C96 1_555 1_555
H69 C97 1_555 1_555
C98 C93 1_555 1_555
H70 C98 1_555 1_555
C99 C80 1_555 1_555
C100 C99 1_555 1_555
H71 C100 1_555 1_555
C101 C100 1_555 1_555
H72 C101 1_555 1_555
C102 C101 1_555 1_555
C103 C102 1_555 1_555
H73 C103 1_555 1_555
C104 C99 1_555 1_555
H74 C104 1_555 1_555
C105 N21 1_555 1_555
C106 C107 1_555 1_555
C107 H75 1_555 1_555
C108 C107 1_555 1_555
H76 C108 1_555 1_555
C109 C108 1_555 1_555
H77 C109 1_555 1_555
C110 C109 1_555 1_555
H78 C110 1_555 1_555
C111 C106 1_555 1_555
C112 N23 1_555 1_555
C113 C114 1_555 1_555
C114 H79 1_555 1_555
C115 C114 1_555 1_555
H80 C115 1_555 1_555
C116 C115 1_555 1_555
C117 C116 1_555 1_555
H81 C117 1_555 1_555
C118 C113 1_555 1_555
H82 C118 1_555 1_555
C119 C82 1_555 1_555
C120 C119 1_555 1_555
H83 C120 1_555 1_555
C121 C120 1_555 1_555
H84 C121 1_555 1_555
C122 C121 1_555 1_555
C123 C122 1_555 1_555
H85 C123 1_555 1_555
C124 C119 1_555 1_555
H86 C124 1_555 1_555
C125 N26 1_555 1_555
C126 C127 1_555 1_555
C127 H87 1_555 1_555
C128 C127 1_555 1_555
H88 C128 1_555 1_555
C129 C128 1_555 1_555
H89 C129 1_555 1_555
C130 C129 1_555 1_555
H90 C130 1_555 1_555
C131 C126 1_555 1_555
C132 N28 1_555 1_555
N16 C88 1_555 1_555
H91 N16 1_555 1_555
N17 C73 1_555 1_555
H92 N17 1_555 1_555
N18 C78 1_555 1_555
H93 N18 1_555 1_555
N19 C92 1_555 1_555
H94 N19 1_555 1_555
N20 C96 1_555 1_555
N21 C102 1_555 1_555
H95 N21 1_555 1_555
N22 C105 1_555 1_555
H96 N22 1_555 1_555
N23 C111 1_555 1_555
H97 N23 1_555 1_555
N24 C112 1_555 1_555
H98 N24 1_555 1_555
N25 C116 1_555 1_555
N26 C122 1_555 1_555
H99 N26 1_555 1_555
N27 C125 1_555 1_555
H100 N27 1_555 1_555
N28 C131 1_555 1_555
H101 N28 1_555 1_555
N29 C67 1_555 1_555
H102 N29 1_555 1_555
N30 C70 1_555 1_555
O13 C91 1_555 1_555
O14 C92 1_555 1_555
O15 N20 1_555 1_555
O16 N20 1_555 1_555
O17 C105 1_555 1_555
O18 C112 1_555 1_555
O19 N25 1_555 1_555
O20 N25 1_555 1_555
O21 C125 1_555 1_555
O22 C132 1_555 1_555
O23 N30 1_555 1_555
O24 N30 1_555 1_555
C133 C134 1_555 1_555
C134 H103 1_555 1_555
C135 C134 1_555 1_555
H104 C135 1_555 1_555
C136 C135 1_555 1_555
C137 C136 1_555 1_555
H105 C137 1_555 1_555
C138 C133 1_555 1_555
H106 C138 1_555 1_555
C139 C140 1_555 1_555
C140 H107 1_555 1_555
C141 C140 1_555 1_555
H108 C141 1_555 1_555
C142 C141 1_555 1_555
C143 C142 1_555 1_555
H109 C143 1_555 1_555
C144 C139 1_555 1_555
H110 C144 1_555 1_555
C145 C146 1_555 1_555
C146 H111 1_555 1_555
C147 C146 1_555 1_555
H112 C147 1_555 1_555
C148 C147 1_555 1_555
H113 C148 1_555 1_555
C149 C148 1_555 1_555
H114 C149 1_555 1_555
C150 C145 1_555 1_555
C151 C152 1_555 1_555
C152 H115 1_555 1_555
C153 C152 1_555 1_555
H116 C153 1_555 1_555
C154 C153 1_555 1_555
C155 C154 1_555 1_555
H117 C155 1_555 1_555
C156 C151 1_555 1_555
H118 C156 1_555 1_555
C157 C158 1_555 1_555
C158 H119 1_555 1_555
C159 C158 1_555 1_555
H120 C159 1_555 1_555
C160 C159 1_555 1_555
H121 C160 1_555 1_555
C161 C160 1_555 1_555
H122 C161 1_555 1_555
C162 C157 1_555 1_555
C163 C164 1_555 1_555
C164 H123 1_555 1_555
C165 C164 1_555 1_555
C166 C133 1_555 1_555
C167 C165 1_555 1_555
H124 C167 1_555 1_555
C168 C163 1_555 1_555
H125 C168 1_555 1_555
C169 C163 1_555 1_555
C170 C169 1_555 1_555
H126 C170 1_555 1_555
C171 C170 1_555 1_555
H127 C171 1_555 1_555
C172 C171 1_555 1_555
C173 C172 1_555 1_555
H128 C173 1_555 1_555
C174 C169 1_555 1_555
H129 C174 1_555 1_555
C175 N31 1_555 1_555
C176 N33 1_555 1_555
C177 C165 1_555 1_555
C178 C177 1_555 1_555
H130 C178 1_555 1_555
C179 C178 1_555 1_555
H131 C179 1_555 1_555
C180 C179 1_555 1_555
C181 C180 1_555 1_555
H132 C181 1_555 1_555
C182 C177 1_555 1_555
H133 C182 1_555 1_555
C183 N41 1_555 1_555
C184 C185 1_555 1_555
C185 H134 1_555 1_555
C186 C185 1_555 1_555
H135 C186 1_555 1_555
C187 C186 1_555 1_555
H136 C187 1_555 1_555
C188 C187 1_555 1_555
H137 C188 1_555 1_555
C189 C184 1_555 1_555
C190 N43 1_555 1_555
C191 N36 1_555 1_555
C192 N38 1_555 1_555
C193 C194 1_555 1_555
C194 H138 1_555 1_555
C195 C194 1_555 1_555
H139 C195 1_555 1_555
C196 C195 1_555 1_555
C197 C196 1_555 1_555
H140 C197 1_555 1_555
C198 C193 1_555 1_555
H141 C198 1_555 1_555
N31 C172 1_555 1_555
H142 N31 1_555 1_555
N32 C145 1_555 1_555
H143 N32 1_555 1_555
N33 C150 1_555 1_555
H144 N33 1_555 1_555
N34 C139 1_555 1_555
H145 N34 1_555 1_555
N35 C142 1_555 1_555
N36 C136 1_555 1_555
H146 N36 1_555 1_555
N37 C157 1_555 1_555
H147 N37 1_555 1_555
N38 C162 1_555 1_555
H148 N38 1_555 1_555
N39 C192 1_555 1_555
H149 N39 1_555 1_555
N40 C196 1_555 1_555
N41 C180 1_555 1_555
H150 N41 1_555 1_555
N42 C183 1_555 1_555
H151 N42 1_555 1_555
N43 C189 1_555 1_555
H152 N43 1_555 1_555
N44 C151 1_555 1_555
H153 N44 1_555 1_555
N45 C154 1_555 1_555
O25 C175 1_555 1_555
O26 C176 1_555 1_555
O27 N35 1_555 1_555
O28 N35 1_555 1_555
O29 C191 1_555 1_555
O30 C192 1_555 1_555
O31 N40 1_555 1_555
O32 N40 1_555 1_555
O33 C183 1_555 1_555
O34 C190 1_555 1_555
O35 N45 1_555 1_555
O36 N45 1_555 1_555
C199 H154 1_555 1_555
C200 C199 1_555 1_555
C201 C200 1_555 1_555
H155 C201 1_555 1_555
C202 C201 1_555 1_555
C203 C202 1_555 1_555
H156 C203 1_555 1_555
C204 C199 1_555 1_555
C205 C204 1_555 1_555
C206 H157 1_555 1_555
C207 C205 1_555 1_555
H158 C207 1_555 1_555
C208 C206 1_555 1_555
C209 C208 1_555 1_555
H159 C209 1_555 1_555
C210 C205 1_555 1_555
H160 C210 1_555 1_555
C211 N46 1_555 1_555
C212 C213 1_555 1_555
C213 H161 1_555 1_555
C214 C213 1_555 1_555
H162 C214 1_555 1_555
C215 C214 1_555 1_555
H163 C215 1_555 1_555
C216 C215 1_555 1_555
H164 C216 1_555 1_555
C217 C212 1_555 1_555
C218 N48 1_555 1_555
C219 C220 1_555 1_555
C220 H165 1_555 1_555
C221 C220 1_555 1_555
H166 C221 1_555 1_555
C222 C221 1_555 1_555
C223 C222 1_555 1_555
H167 C223 1_555 1_555
C224 C219 1_555 1_555
H168 C224 1_555 1_555
C225 C200 1_555 1_555
C226 C225 1_555 1_555
H169 C226 1_555 1_555
C227 C226 1_555 1_555
H170 C227 1_555 1_555
C228 C227 1_555 1_555
C229 C228 1_555 1_555
H171 C229 1_555 1_555
C230 C225 1_555 1_555
H172 C230 1_555 1_555
C231 N51 1_555 1_555
C232 C233 1_555 1_555
C233 H173 1_555 1_555
C234 C233 1_555 1_555
H174 C234 1_555 1_555
C235 C234 1_555 1_555
H175 C235 1_555 1_555
C236 C235 1_555 1_555
H176 C236 1_555 1_555
C237 C232 1_555 1_555
C238 N53 1_555 1_555
C239 C240 1_555 1_555
C240 H177 1_555 1_555
C241 C240 1_555 1_555
H178 C241 1_555 1_555
C242 C241 1_555 1_555
C243 C242 1_555 1_555
H179 C243 1_555 1_555
C244 C239 1_555 1_555
H180 C244 1_555 1_555
C245 C202 1_555 1_555
C246 C245 1_555 1_555
H181 C246 1_555 1_555
C247 C246 1_555 1_555
H182 C247 1_555 1_555
C248 C247 1_555 1_555
C249 C248 1_555 1_555
H183 C249 1_555 1_555
C250 C245 1_555 1_555
H184 C250 1_555 1_555
C251 N56 1_555 1_555
C252 C253 1_555 1_555
C253 H185 1_555 1_555
C254 C253 1_555 1_555
H186 C254 1_555 1_555
C255 C254 1_555 1_555
H187 C255 1_555 1_555
C256 C255 1_555 1_555
H188 C256 1_555 1_555
C257 C252 1_555 1_555
C258 N58 1_555 1_555
C259 C260 1_555 1_555
C260 H189 1_555 1_555
C261 C260 1_555 1_555
H190 C261 1_555 1_555
C262 C261 1_555 1_555
C263 C262 1_555 1_555
H191 C263 1_555 1_555
C264 C259 1_555 1_555
H192 C264 1_555 1_555
N46 C208 1_555 1_555
H193 N46 1_555 1_555
N47 C211 1_555 1_555
H194 N47 1_555 1_555
N48 C217 1_555 1_555
H195 N48 1_555 1_555
N49 C218 1_555 1_555
H196 N49 1_555 1_555
N50 C222 1_555 1_555
N51 C228 1_555 1_555
H197 N51 1_555 1_555
N52 C231 1_555 1_555
H198 N52 1_555 1_555
N53 C237 1_555 1_555
H199 N53 1_555 1_555
N54 C238 1_555 1_555
H200 N54 1_555 1_555
N55 C242 1_555 1_555
N56 C248 1_555 1_555
H201 N56 1_555 1_555
N57 C251 1_555 1_555
H202 N57 1_555 1_555
N58 C257 1_555 1_555
H203 N58 1_555 1_555
N59 C258 1_555 1_555
H204 N59 1_555 1_555
N60 C262 1_555 1_555
O37 C211 1_555 1_555
O38 C218 1_555 1_555
O39 N50 1_555 1_555
O40 N50 1_555 1_555
O41 C231 1_555 1_555
O42 C238 1_555 1_555
O43 N55 1_555 1_555
O44 N55 1_555 1_555
O45 C251 1_555 1_555
O46 C258 1_555 1_555
O47 N60 1_555 1_555
O48 N60 1_555 1_555
C265 C266 1_555 1_555
C266 O50 1_555 1_555
C267 C268 1_555 1_555
C268 O51 1_555 1_555
C269 C270 1_555 1_555
C270 O52 1_555 1_555
C271 C272 1_555 1_555
C272 O53 1_555 1_555
C273 C274 1_555 1_555
C274 O54 1_555 1_555
O49 C265 1_555 1_555
O50 C267 1_555 1_555
O51 C269 1_555 1_555
O52 C271 1_555 1_555
O53 C273 1_555 1_555
O54 C275 1_555 1_555
C275 C276 1_555 1_555
C276 O49 1_555 1_555
C277 C278 1_555 1_555
C278 O60 1_555 1_555
C279 C280 1_555 1_555
C280 O55 1_555 1_555
C281 C282 1_555 1_555
C282 O56 1_555 1_555
C283 C284 1_555 1_555
C284 O57 1_555 1_555
C285 C286 1_555 1_555
C286 O58 1_555 1_555
O55 C281 1_555 1_555
O56 C283 1_555 1_555
O57 C285 1_555 1_555
O58 C288 1_555 1_555
O59 C277 1_555 1_555
O60 C279 1_555 1_555
C287 O59 1_555 1_555
C288 C287 1_555 1_555
P1 O61 1_555 1_555
O62 P1 1_555 1_555
O63 P1 1_555 1_555
O64 P1 1_555 1_555
O65 P2 1_555 1_555
O66 P2 1_555 1_555
O67 P2 1_555 1_555
O68 P2 1_555 1_555
Cl1 C289 1_555 1_555
Cl2 C289 1_555 1_555
C289 H205 1_555 1_555
Cl3 C289 1_555 1_555
P3 O69 1_555 1_555
O70 P3 1_555 1_555
O71 P3 1_555 1_555
O72 P3 1_555 1_555
O73 P4 1_555 1_555
O74 P4 1_555 1_555
O75 P4 1_555 1_555
O76 P4 1_555 1_555
C5 C6 1_555 1_555
C11 C12 1_555 1_555
C17 C18 1_555 1_555
C23 C24 1_555 1_555
C26 N2 1_555 1_555
C30 C31 1_555 1_555
C33 N4 1_555 1_555
C37 C38 1_555 1_555
C40 N7 1_555 1_555
C44 C45 1_555 1_555
C46 N9 1_555 1_555
C51 C52 1_555 1_555
C54 N12 1_555 1_555
C58 C59 1_555 1_555
C60 N14 1_555 1_555
C63 C64 1_555 1_555
C65 C66 1_555 1_555
C71 C72 1_555 1_555
C77 C78 1_555 1_555
C83 C84 1_555 1_555
C89 C90 1_555 1_555
C91 N17 1_555 1_555
C93 N19 1_555 1_555
C97 C98 1_555 1_555
C103 C104 1_555 1_555
C106 N22 1_555 1_555
C110 C111 1_555 1_555
C113 N24 1_555 1_555
C117 C118 1_555 1_555
C123 C124 1_555 1_555
C126 N27 1_555 1_555
C130 C131 1_555 1_555
C132 N29 1_555 1_555
C137 C138 1_555 1_555
C143 C144 1_555 1_555
C149 C150 1_555 1_555
C155 C156 1_555 1_555
C161 C162 1_555 1_555
C166 C167 1_555 1_555
C166 C168 1_555 1_555
C173 C174 1_555 1_555
C175 N32 1_555 1_555
C176 N34 1_555 1_555
C181 C182 1_555 1_555
C184 N42 1_555 1_555
C188 C189 1_555 1_555
C190 N44 1_555 1_555
C191 N37 1_555 1_555
C193 N39 1_555 1_555
C197 C198 1_555 1_555
C203 C204 1_555 1_555
C206 C207 1_555 1_555
C209 C210 1_555 1_555
C212 N47 1_555 1_555
C216 C217 1_555 1_555
C219 N49 1_555 1_555
C223 C224 1_555 1_555
C229 C230 1_555 1_555
C232 N52 1_555 1_555
C236 C237 1_555 1_555
C239 N54 1_555 1_555
C243 C244 1_555 1_555
C249 C250 1_555 1_555
C252 N57 1_555 1_555
C256 C257 1_555 1_555
C259 N59 1_555 1_555
C263 C264 1_555 1_555

#END
