
#######################################################################
#
#                 Cambridge Crystallographic Data Centre
#                                CCDC 
#
#######################################################################
#
# If this CIF has been generated from an entry in the Cambridge 
# Structural Database, then it will include bibliographic, chemical, 
# crystal, experimental, refinement or atomic coordinate data resulting 
# from the CCDC's data processing and validation procedures.
#
#######################################################################

data_VUMJIX
_chemical_formula_moiety         'C18 H17 N1 O7,H2 O1'
_chemical_name_systematic        
'3-(4,5-Dimethoxy-2-nitrophenyl)-2-(4-methoxyphenyl)acrylic acid monohydrate'
_symmetry_cell_setting           monoclinic
_symmetry_space_group_name_H-M   'C 2/c'
_symmetry_Int_Tables_number      15
_space_group_name_Hall           '-C 2yn'
loop_
_symmetry_equiv_pos_site_id
_symmetry_equiv_pos_as_xyz
1 x,y,z
2 -x,y,1/2-z
3 1/2+x,1/2+y,z
4 1/2-x,1/2+y,1/2-z
5 -x,-y,-z
6 x,-y,1/2+z
7 1/2-x,1/2-y,-z
8 1/2+x,1/2-y,1/2+z
_cell_length_a                   20.252(2)
_cell_length_b                   9.682(1)
_cell_length_c                   20.927(2)
_cell_angle_alpha                90
_cell_angle_beta                 118.314(2)
_cell_angle_gamma                90
_cell_volume                     3612.44
_cell_formula_units_Z            8
loop_
_atom_site_label
_atom_site_type_symbol
_atom_site_fract_x
_atom_site_fract_y
_atom_site_fract_z
O1 O 0.39337(6) 0.23098(10) 0.66224(5)
O2 O 0.33720(6) 0.31103(10) 0.52920(5)
O3 O 0.32877(9) 0.82234(12) 0.53600(7)
O4 O 0.33859(7) 0.87415(11) 0.63909(6)
O5 O 0.49000(7) 0.89593(12) 0.85615(6)
H1 H 0.5069 0.9542 0.8884
O6 O 0.45613(7) 0.79539(11) 0.93140(6)
O7 O 0.29511(6) 0.20617(10) 0.86498(6)
N1 N 0.34149(7) 0.79075(12) 0.59716(7)
C1 C 0.38900(7) 0.56735(13) 0.83654(6)
C2 C 0.39160(7) 0.60761(13) 0.69229(7)
C3 C 0.43306(8) 0.47733(15) 0.89208(7)
H2 H 0.4832 0.4987 0.9222
C4 C 0.40327(7) 0.46551(14) 0.70603(7)
H3 H 0.4249 0.4351 0.7539
C5 C 0.40393(8) 0.35637(15) 0.90370(7)
H4 H 0.4345 0.2968 0.9409
C6 C 0.38412(7) 0.36944(13) 0.65176(7)
C7 C 0.32920(8) 0.32444(13) 0.85963(7)
C8 C 0.35350(7) 0.41321(13) 0.57903(7)
C9 C 0.28357(7) 0.41647(14) 0.80624(7)
H5 H 0.2328 0.3974 0.7780
C10 C 0.34167(7) 0.55181(14) 0.56368(7)
H6 H 0.3215 0.5823 0.5159
C11 C 0.31331(7) 0.53626(14) 0.79486(7)
H7 H 0.2822 0.5972 0.7587
C12 C 0.35990(7) 0.64627(13) 0.61953(7)
C13 C 0.41891(7) 0.70635(13) 0.75299(7)
H8 H 0.4362 0.7907 0.7456
C14 C 0.42171(7) 0.68833(13) 0.81783(7)
C15 C 0.45745(8) 0.79722(14) 0.87423(7)
C16 C 0.40242(12) 0.17666(17) 0.72929(9)
H9 H 0.4493 0.2076 0.7682
H10 H 0.4019 0.0776 0.7274
H11 H 0.3621 0.2083 0.7374
C17 C 0.30191(10) 0.34997(17) 0.45434(7)
H12 H 0.2558 0.3972 0.4422
H13 H 0.2916 0.2688 0.4248
H14 H 0.3346 0.4100 0.4458
C18 C 0.34138(11) 0.09081(16) 0.90007(10)
H15 H 0.3732 0.0719 0.8787
H16 H 0.3105 0.0117 0.8945
H17 H 0.3717 0.1107 0.9508
O8 O 0.54837(8) 1.10051(13) 0.94458(7)
H18 H 0.5468(13) 1.126(2) 0.9826(14)
H19 H 0.5806(15) 1.145(3) 0.9408(13)
loop_
_geom_bond_atom_site_label_1
_geom_bond_atom_site_label_2
_geom_bond_site_symmetry_1
_geom_bond_site_symmetry_2
O1 C6 1_555 1_555
O2 C8 1_555 1_555
O3 N1 1_555 1_555
O4 N1 1_555 1_555
O5 H1 1_555 1_555
O6 C15 1_555 1_555
O7 C7 1_555 1_555
O8 H18 1_555 1_555
N1 C12 1_555 1_555
C1 C3 1_555 1_555
C2 C4 1_555 1_555
C3 H2 1_555 1_555
C4 H3 1_555 1_555
C5 C3 1_555 1_555
H4 C5 1_555 1_555
C6 C4 1_555 1_555
C7 C5 1_555 1_555
C8 C6 1_555 1_555
C9 C7 1_555 1_555
H5 C9 1_555 1_555
C10 C8 1_555 1_555
H6 C10 1_555 1_555
C11 C1 1_555 1_555
H7 C11 1_555 1_555
C12 C2 1_555 1_555
C13 C2 1_555 1_555
H8 C13 1_555 1_555
C14 C1 1_555 1_555
C15 O5 1_555 1_555
C16 O1 1_555 1_555
H9 C16 1_555 1_555
H10 C16 1_555 1_555
H11 C16 1_555 1_555
C17 O2 1_555 1_555
H12 C17 1_555 1_555
H13 C17 1_555 1_555
H14 C17 1_555 1_555
C18 O7 1_555 1_555
H15 C18 1_555 1_555
H16 C18 1_555 1_555
H17 C18 1_555 1_555
H19 O8 1_555 1_555
C9 C11 1_555 1_555
C10 C12 1_555 1_555
C13 C14 1_555 1_555
C14 C15 1_555 1_555

#END
