
#######################################################################
#
#                 Cambridge Crystallographic Data Centre
#                                CCDC 
#
#######################################################################
#
# If this CIF has been generated from an entry in the Cambridge 
# Structural Database, then it will include bibliographic, chemical, 
# crystal, experimental, refinement or atomic coordinate data resulting 
# from the CCDC's data processing and validation procedures.
#
#######################################################################

data_VUMLUM
_chemical_formula_moiety         
'C66 H51 N15 O12,1.75(C12 H24 O6),1.5(C3 H6 O1),O4 P1 3-,3(K1 1+),3.5(H2 O1),2(C4 H10 O1)'
_chemical_name_systematic        
'tri-potassium phosphate 1,3,5-tris(4-([(2-([2-(4-nitrophenyl)-1-oxohydraziniumyl]amino)phenyl)carbamoyl]amino)phenyl)benzene 18-crown-6 diethyl ether acetone solvate hydrate'
_symmetry_cell_setting           monoclinic
_symmetry_space_group_name_H-M   'C c'
_symmetry_Int_Tables_number      9
_space_group_name_Hall           'C -2yc'
loop_
_symmetry_equiv_pos_site_id
_symmetry_equiv_pos_as_xyz
1 x,y,z
2 x,-y,1/2+z
3 1/2+x,1/2+y,z
4 1/2+x,1/2-y,1/2+z
_cell_length_a                   47.6153(10)
_cell_length_b                   23.9623(5)
_cell_length_c                   47.8717(10)
_cell_angle_alpha                90
_cell_angle_beta                 101.4990(10)
_cell_angle_gamma                90
_cell_volume                     53523.9
_exptl_crystal_colour            yellow
_exptl_crystal_description       block
_cell_formula_units_Z            16
loop_
_atom_site_label
_atom_site_type_symbol
_atom_site_fract_x
_atom_site_fract_y
_atom_site_fract_z
C1 C 0.91518(19) 0.4286(4) 0.30761(18)
H1 H 0.9099 0.3973 0.3168
C2 C 0.89414(18) 0.4686(3) 0.29679(17)
C3 C 0.90189(18) 0.5151(3) 0.28292(17)
H2 H 0.8884 0.5429 0.2769
C4 C 0.93004(17) 0.5209(3) 0.27773(16)
C5 C 0.95032(19) 0.4817(3) 0.28949(17)
H3 H 0.9691 0.4864 0.2873
C6 C 0.94338(18) 0.4342(3) 0.30498(17)
C7 C 0.86401(18) 0.4627(3) 0.30194(17)
C8 C 0.8417(2) 0.4835(4) 0.28286(19)
H4 H 0.8455 0.5036 0.2674
C9 C 0.8132(2) 0.4760(4) 0.2855(2)
H5 H 0.7983 0.4928 0.2728
C10 C 0.80796(18) 0.4424(3) 0.30777(17)
C11 C 0.83058(18) 0.4215(3) 0.32769(17)
H6 H 0.8272 0.4001 0.3429
C12 C 0.85807(18) 0.4327(3) 0.32472(17)
H7 H 0.8732 0.4197 0.3385
C13 C 0.75585(18) 0.4602(3) 0.30147(17)
C14 C 0.7035(2) 0.4536(4) 0.29602(18)
C15 C 0.6961(2) 0.4886(4) 0.2726(2)
H8 H 0.7106 0.5017 0.2637
C16 C 0.6683(2) 0.5045(4) 0.2619(2)
H9 H 0.6637 0.5268 0.2457
C17 C 0.6478(2) 0.4866(4) 0.27585(19)
H10 H 0.6292 0.4993 0.2694
C18 C 0.6527(2) 0.4500(4) 0.2996(2)
H11 H 0.6380 0.4378 0.3083
C19 C 0.6815(2) 0.4333(4) 0.3090(2)
C20 C 0.6747(2) 0.3948(4) 0.3550(2)
C21 C 0.6739(2) 0.3389(4) 0.3974(2)
C22 C 0.6433(3) 0.3374(5) 0.3957(3)
H12 H 0.6308 0.3487 0.3792
C23 C 0.6335(3) 0.3198(5) 0.4179(2)
H13 H 0.6147 0.3282 0.4191
C24 C 0.6498(3) 0.2902(5) 0.4389(3)
C25 C 0.6805(3) 0.2911(5) 0.4414(3)
H14 H 0.6926 0.2772 0.4575
C26 C 0.6908(3) 0.3121(5) 0.4202(2)
H15 H 0.7104 0.3088 0.4206
C27 C 0.93807(17) 0.5694(3) 0.26148(16)
C28 C 0.91713(19) 0.6011(3) 0.24406(17)
H16 H 0.8979 0.5917 0.2424
C29 C 0.92453(18) 0.6459(3) 0.22945(17)
H17 H 0.9102 0.6668 0.2181
C30 C 0.95348(16) 0.6613(3) 0.23102(15)
C31 C 0.97366(19) 0.6264(3) 0.24651(17)
H18 H 0.9930 0.6326 0.2467
C32 C 0.96565(19) 0.5822(3) 0.26179(17)
H19 H 0.9799 0.5605 0.2727
C33 C 0.98469(17) 0.7170(3) 0.20730(16)
C34 C 1.00910(16) 0.7852(3) 0.18120(15)
C35 C 1.02962(18) 0.7500(3) 0.17498(17)
H20 H 1.0279 0.7117 0.1772
C36 C 1.0530(2) 0.7720(4) 0.16537(18)
H21 H 1.0673 0.7482 0.1617
C37 C 1.0552(2) 0.8282(4) 0.16132(18)
H22 H 1.0710 0.8429 0.1550
C38 C 1.03376(17) 0.8628(3) 0.16668(16)
H23 H 1.0349 0.9010 0.1635
C39 C 1.01073(15) 0.8421(3) 0.17662(14)
C40 C 0.98989(15) 0.9325(3) 0.18791(14)
C41 C 0.96040(16) 1.0102(3) 0.19818(15)
C42 C 0.98208(19) 1.0473(3) 0.21089(17)
H24 H 1.0011 1.0357 0.2149
C43 C 0.9749(2) 1.1024(4) 0.2175(2)
H25 H 0.9893 1.1277 0.2249
C44 C 0.9473(2) 1.1182(4) 0.21316(19)
C45 C 0.9252(2) 1.0816(4) 0.20133(18)
H26 H 0.9062 1.0930 0.1984
C46 C 0.93189(18) 1.0301(3) 0.19424(17)
H27 H 0.9171 1.0062 0.1863
C47 C 0.96490(18) 0.3936(3) 0.31784(17)
C48 C 0.9625(2) 0.3644(4) 0.3420(2)
H28 H 0.9459 0.3687 0.3491
C49 C 0.9831(2) 0.3296(4) 0.3561(2)
H29 H 0.9804 0.3119 0.3727
C50 C 1.00727(17) 0.3204(3) 0.34660(16)
C51 C 1.01058(16) 0.3477(3) 0.32132(15)
H30 H 1.0265 0.3403 0.3134
C52 C 0.99066(16) 0.3846(3) 0.30862(15)
H31 H 0.9942 0.4049 0.2931
C53 C 1.02595(17) 0.2404(3) 0.37627(16)
C54 C 1.05307(18) 0.1684(3) 0.40630(17)
C55 C 1.0318(2) 0.1293(4) 0.40388(19)
H32 H 1.0157 0.1328 0.3894
C56 C 1.0336(2) 0.0846(4) 0.42242(19)
H33 H 1.0193 0.0577 0.4201
C57 C 1.0573(2) 0.0805(4) 0.4447(2)
H34 H 1.0581 0.0523 0.4582
C58 C 1.0793(2) 0.1177(4) 0.44686(19)
H35 H 1.0955 0.1133 0.4612
C59 C 1.07800(18) 0.1606(3) 0.42854(17)
C60 C 1.1199(2) 0.2142(4) 0.4544(2)
C61 C 1.16042(16) 0.2768(3) 0.47134(16)
C62 C 1.18313(19) 0.3029(4) 0.46234(14)
H36 H 1.1832 0.3056 0.4430
C63 C 1.20570(17) 0.3248(4) 0.4823(2)
H37 H 1.2209 0.3423 0.4762
C64 C 1.2055(2) 0.3207(4) 0.51119(19)
C65 C 1.1828(2) 0.2947(5) 0.52020(13)
H38 H 1.1827 0.2919 0.5396
C66 C 1.16026(19) 0.2727(4) 0.50028(18)
H39 H 1.1451 0.2553 0.5063
N1 N 0.77985(14) 0.4280(3) 0.31146(13)
H40 H 0.7777 0.3977 0.3204
N2 N 0.73162(15) 0.4341(3) 0.30639(14)
H41 H 0.7337 0.4040 0.3164
N3 N 0.68836(17) 0.3958(3) 0.33248(16)
H42 H 0.7020 0.3723 0.3325
N4 N 0.6859(2) 0.3576(3) 0.37507(18)
H43 H 0.7024 0.3440 0.3740
N5 N 0.6395(3) 0.2698(5) 0.4651(2)
N6 N 0.95951(13) 0.7068(2) 0.21580(12)
H44 H 0.9461 0.7312 0.2112
N7 N 0.98426(13) 0.7636(2) 0.19031(12)
H45 H 0.9682 0.7807 0.1849
N8 N 0.98832(13) 0.8776(2) 0.18129(12)
H46 H 0.9717 0.8624 0.1797
N9 N 0.96466(13) 0.9559(2) 0.19086(12)
H47 H 0.9498 0.9346 0.1878
N10 N 0.9402(2) 1.1733(4) 0.22164(18)
N11 N 1.03026(14) 0.2852(2) 0.36025(13)
H48 H 1.0474 0.2927 0.3582
N12 N 1.05137(14) 0.2142(3) 0.38832(13)
H49 H 1.0670 0.2271 0.3845
N13 N 1.10008(15) 0.2015(3) 0.43018(15)
H50 H 1.1010 0.2195 0.4149
N14 N 1.13892(18) 0.2547(3) 0.45022(18)
H51 H 1.1375 0.2675 0.4332
N15 N 1.2304(4) 0.3491(8) 0.5344(4)
O1 O 0.75600(14) 0.5047(3) 0.28947(13)
O2 O 0.65301(18) 0.4215(3) 0.35639(16)
O3 O 0.6536(3) 0.2464(5) 0.4834(3)
O4 O 0.6134(2) 0.2779(4) 0.46328(19)
O5 O 1.00614(14) 0.6867(3) 0.21401(13)
O6 O 1.01298(12) 0.9587(2) 0.19178(11)
O7 O 0.9593(2) 1.2082(4) 0.22758(18)
O8 O 0.91536(18) 1.1868(3) 0.22287(16)
O9 O 1.00265(13) 0.2236(2) 0.37979(12)
O10 O 1.12118(19) 0.1902(3) 0.47736(18)
O11 O 1.2280(4) 0.3441(7) 0.5562(4)
O12 O 1.2461(4) 0.3745(7) 0.5215(3)
K1 K 1.03263(4) 1.04511(8) 0.16567(4)
K2 K 0.95943(9) 0.28524(15) 0.26820(8)
K3 K 0.96139(11) 0.27449(18) 0.27454(9)
C67 C 1.1088(3) 1.0136(5) 0.1742(3)
C68 C 1.1097(3) 1.0661(5) 0.1892(3)
C69 C 1.0873(3) 1.1312(6) 0.2137(3)
C70 C 1.0603(3) 1.1401(6) 0.2219(3)
C71 C 1.0348(2) 1.1880(4) 0.1795(2)
C72 C 1.0033(3) 1.1856(5) 0.1620(3)
C73 C 0.9726(3) 1.1274(5) 0.1307(2)
C74 C 0.9722(2) 1.0766(4) 0.1110(2)
C75 C 0.9801(2) 0.9785(4) 0.1128(2)
C76 C 1.0071(2) 0.9763(4) 0.0983(2)
C77 C 1.0577(2) 0.9675(4) 0.1087(2)
C78 C 1.0833(2) 0.9650(5) 0.1335(2)
O13 O 1.08498(15) 1.0152(3) 0.14999(14)
O14 O 1.0858(2) 1.0752(4) 0.19973(18)
O15 O 1.03682(17) 1.1409(3) 0.19905(15)
O16 O 1.00094(15) 1.1372(3) 0.14568(14)
O17 O 0.98043(14) 1.0291(2) 0.12844(13)
O18 O 1.03169(14) 0.9750(3) 0.12032(13)
C79 C 0.7043(5) 0.3436(8) 0.5406(4)
C80 C 0.6929(5) 0.2814(9) 0.5407(5)
C81 C 0.6569(4) 0.2276(7) 0.5525(4)
C82 C 0.6274(3) 0.2376(6) 0.5626(3)
C83 C 0.5779(3) 0.2612(5) 0.5460(3)
C84 C 0.5592(3) 0.2829(6) 0.5196(3)
C85 C 0.5490(3) 0.3521(6) 0.4865(3)
C86 C 0.5584(4) 0.4105(6) 0.4759(3)
C87 C 0.5963(4) 0.4551(8) 0.4622(4)
C88 C 0.6299(6) 0.4453(10) 0.4598(5)
C89 C 0.6768(4) 0.4276(7) 0.4773(4)
C90 C 0.6983(6) 0.4100(11) 0.5060(5)
O19 O 0.60659(17) 0.2528(3) 0.53921(16)
O20 O 0.6656(3) 0.2855(5) 0.5488(2)
O21 O 0.6858(3) 0.3596(6) 0.5124(3)
O22 O 0.6447(3) 0.4329(5) 0.4824(3)
O23 O 0.5856(2) 0.4059(4) 0.4700(2)
O24 O 0.56665(18) 0.3325(3) 0.51020(17)
K4 K 0.62036(13) 0.3426(2) 0.50821(12)
C91 C 1.0312(4) 0.2187(7) 0.2839(3)
C92 C 1.0191(4) 0.1781(6) 0.2953(3)
C93 C 0.9761(4) 0.1550(7) 0.3157(3)
C94 C 0.9513(3) 0.1773(6) 0.3250(3)
C95 C 0.9093(4) 0.2280(7) 0.3099(3)
C96 C 0.8903(3) 0.2552(6) 0.2840(3)
C97 C 0.8862(3) 0.3237(6) 0.2494(3)
C98 C 0.9009(3) 0.3746(5) 0.2369(3)
C99 C 0.9403(4) 0.3910(7) 0.2186(3)
C100 C 0.9671(4) 0.3645(7) 0.2090(4)
C101 C 1.0098(3) 0.3181(6) 0.2245(3)
C102 C 1.0267(4) 0.2882(6) 0.2506(3)
O25 O 0.93260(18) 0.2052(3) 0.30118(17)
O26 O 0.9921(2) 0.1972(4) 0.30486(19)
O27 O 1.0155(2) 0.2483(4) 0.2631(2)
O28 O 0.9853(2) 0.3442(4) 0.2326(2)
O29 O 0.9255(2) 0.3475(4) 0.2297(2)
O30 O 0.90296(18) 0.2998(3) 0.27266(17)
K5 K 0.62736(10) 0.35313(18) 0.51833(9)
O31 O 0.6114(2) 0.4299(4) 0.5449(2)
C103 C 0.88366(19) 0.3078(4) 0.87634(18)
C104 C 0.86815(18) 0.3527(3) 0.88266(17)
H52 H 0.8695 0.3619 0.9018
C105 C 0.85047(18) 0.3854(3) 0.86229(17)
C106 C 0.84754(18) 0.3721(3) 0.83427(17)
H53 H 0.8353 0.3928 0.8205
C107 C 0.86372(17) 0.3252(3) 0.82576(16)
C108 C 0.88164(17) 0.2969(3) 0.84670(16)
H54 H 0.8932 0.2691 0.8414
C109 C 0.9022(2) 0.2751(4) 0.89815(19)
C110 C 0.9134(2) 0.2982(4) 0.92478(19)
H55 H 0.9107 0.3360 0.9278
C111 C 0.9283(2) 0.2661(4) 0.9468(2)
H56 H 0.9350 0.2826 0.9644
C112 C 0.9336(2) 0.2100(4) 0.94308(19)
C113 C 0.9247(2) 0.1876(4) 0.91603(19)
H57 H 0.9294 0.1509 0.9125
C114 C 0.9089(2) 0.2191(4) 0.8941(2)
H58 H 0.9027 0.2028 0.8764
C115 C 0.9641(2) 0.1327(4) 0.96507(19)
C116 C 0.98951(18) 0.0576(3) 0.99520(17)
C117 C 0.9863(2) 0.0166(4) 0.9755(2)
H59 H 0.9738 0.0227 0.9581
C118 C 1.0010(3) -0.0357(5) 0.9799(2)
H60 H 0.9988 -0.0628 0.9658
C119 C 1.0182(2) -0.0437(5) 1.0056(2)
H61 H 1.0285 -0.0768 1.0090
C120 C 1.0209(2) -0.0047(4) 1.0265(2)
H62 H 1.0321 -0.0127 1.0442
C121 C 1.00711(19) 0.0478(4) 1.02222(18)
C122 C 1.0352(2) 0.1031(4) 1.06284(19)
C123 C 1.0547(2) 0.1678(4) 1.0994(2)
C124 C 1.0504(3) 0.2231(4) 1.1086(2)
H63 H 1.0328 0.2406 1.1026
C125 C 1.0720(3) 0.2501(5) 1.1263(3)
H64 H 1.0692 0.2864 1.1320
C126 C 1.0978(3) 0.2244(5) 1.1359(2)
C127 C 1.1007(3) 0.1752(6) 1.1285(3)
H65 H 1.1180 0.1580 1.1364
C128 C 1.0806(3) 0.1421(6) 1.1091(3)
H66 H 1.0846 0.1063 1.1035
C129 C 0.83470(17) 0.4331(3) 0.87151(16)
C130 C 0.8479(2) 0.4677(4) 0.8916(2)
H67 H 0.8670 0.4615 0.8998
C131 C 0.8338(2) 0.5129(4) 0.9008(2)
H68 H 0.8436 0.5352 0.9154
C132 C 0.80594(17) 0.5257(3) 0.88893(16)
C133 C 0.79234(18) 0.4937(3) 0.86692(16)
H69 H 0.7738 0.5028 0.8576
C134 C 0.80648(19) 0.4458(3) 0.85794(18)
H70 H 0.7970 0.4233 0.8432
C135 C 0.79428(19) 0.5920(3) 0.92349(18)
C136 C 0.77328(19) 0.6610(3) 0.95149(18)
C137 C 0.7763(2) 0.6326(4) 0.9758(2)
H71 H 0.7822 0.5956 0.9765
C138 C 0.7708(2) 0.6581(4) 1.0005(2)
H72 H 0.7731 0.6370 1.0171
C139 C 0.7626(2) 0.7094(4) 1.0014(2)
H73 H 0.7593 0.7249 1.0183
C140 C 0.75874(19) 0.7413(3) 0.97603(17)
H74 H 0.7521 0.7778 0.9761
C141 C 0.76472(18) 0.7191(3) 0.95123(17)
C142 C 0.76695(16) 0.8063(3) 0.92510(15)
C143 C 0.7682(2) 0.8809(4) 0.89038(19)
C144 C 0.7659(2) 0.9251(4) 0.9084(2)
H75 H 0.7625 0.9199 0.9267
C145 C 0.7693(2) 0.9807(4) 0.8965(2)
H76 H 0.7694 1.0117 0.9082
C146 C 0.7723(2) 0.9887(4) 0.8700(2)
C147 C 0.7746(2) 0.9463(5) 0.8527(2)
H77 H 0.7778 0.9522 0.8344
C148 C 0.7721(2) 0.8923(4) 0.8633(2)
H78 H 0.7732 0.8623 0.8511
C149 C 0.86131(16) 0.3120(3) 0.79494(15)
C150 C 0.85184(16) 0.3502(3) 0.77348(16)
H79 H 0.8461 0.3855 0.7782
C151 C 0.85064(17) 0.3372(3) 0.74481(16)
H80 H 0.8439 0.3636 0.7308
C152 C 0.85935(16) 0.2851(3) 0.73696(15)
C153 C 0.86835(17) 0.2476(3) 0.75821(16)
H81 H 0.8739 0.2123 0.7534
C154 C 0.86952(17) 0.2600(3) 0.78649(17)
H82 H 0.8759 0.2330 0.8002
C155 C 0.84392(17) 0.2910(3) 0.68475(16)
C156 C 0.83441(19) 0.2777(3) 0.63281(18)
C157 C 0.8064(2) 0.2990(4) 0.6271(2)
H83 H 0.7959 0.3040 0.6413
C158 C 0.7951(3) 0.3125(5) 0.5982(2)
H84 H 0.7769 0.3283 0.5935
C159 C 0.8086(3) 0.3038(5) 0.5789(3)
H85 H 0.7990 0.3099 0.5602
C160 C 0.8369(2) 0.2857(4) 0.5831(2)
H86 H 0.8462 0.2825 0.5679
C161 C 0.8508(2) 0.2724(4) 0.61068(19)
C162 C 0.89946(18) 0.2566(3) 0.60224(17)
C163 C 0.94579(19) 0.2203(3) 0.59789(18)
C164 C 0.9467(2) 0.2384(4) 0.5705(2)
H87 H 0.9315 0.2593 0.5606
C165 C 0.9694(2) 0.2263(4) 0.5574(2)
H88 H 0.9692 0.2381 0.5389
C166 C 0.9927(2) 0.1960(4) 0.57268(19)
C167 C 0.9921(2) 0.1780(4) 0.60048(19)
H89 H 1.0073 0.1573 0.6107
C168 C 0.96994(19) 0.1905(3) 0.61197(19)
H90 H 0.9703 0.1789 0.6306
N16 N 0.94725(16) 0.1784(3) 0.96642(15)
H91 H 0.9448 0.1885 0.9830
N17 N 0.97426(16) 0.1084(3) 0.99149(15)
H92 H 0.9710 0.1252 1.0064
N18 N 1.00989(16) 0.0902(3) 1.04338(15)
H93 H 0.9949 0.1095 1.0443
N19 N 1.03227(19) 0.1460(3) 1.07992(17)
H94 H 1.0156 0.1606 1.0787
N20 N 1.1214(2) 0.2596(5) 1.1548(2)
N21 N 0.79189(15) 0.5747(3) 0.89664(14)
H95 H 0.7814 0.5937 0.8833
N22 N 0.77832(14) 0.6389(3) 0.92595(14)
H96 H 0.7708 0.6560 0.9105
N23 N 0.76138(13) 0.7482(2) 0.92612(13)
H97 H 0.7557 0.7305 0.9104
N24 N 0.76407(15) 0.8255(3) 0.89762(14)
H98 H 0.7594 0.8018 0.8840
N25 N 0.7753(2) 1.0482(4) 0.8585(2)
N26 N 0.86088(13) 0.2709(2) 0.70940(12)
H99 H 0.8738 0.2470 0.7074
N27 N 0.84815(15) 0.2643(3) 0.66085(14)
H100 H 0.8602 0.2371 0.6630
N28 N 0.87819(15) 0.2491(3) 0.61725(15)
H101 H 0.8820 0.2281 0.6321
N29 N 0.92457(14) 0.2292(3) 0.61255(14)
H102 H 0.9271 0.2167 0.6297
N30 N 1.01587(17) 0.1828(3) 0.55948(16)
O32 O 0.97030(15) 0.1162(3) 0.94306(14)
O33 O 1.05723(16) 0.0761(3) 1.06201(15)
O34 O 1.1422(3) 0.2319(6) 1.1614(3)
O35 O 1.1176(2) 0.3056(4) 1.15807(19)
O36 O 0.80922(15) 0.5688(3) 0.94399(14)
O37 O 0.77374(12) 0.8352(2) 0.94659(12)
O38 O 0.7709(2) 1.0523(4) 0.83351(19)
O39 O 0.7785(2) 1.0811(4) 0.87679(19)
O40 O 0.82752(13) 0.3302(2) 0.68462(12)
O41 O 0.89637(14) 0.2874(3) 0.58084(13)
O42 O 1.0349(2) 0.1501(4) 0.5705(2)
O43 O 1.01768(17) 0.2056(3) 0.53703(16)
K6 K 0.80152(4) 0.23460(7) 0.77612(4)
C169 C 0.41448(18) 0.0513(3) 0.94257(16)
H103 H 0.3952 0.0443 0.9423
C170 C 0.4355(2) 0.0150(4) 0.95699(19)
C171 C 0.4636(2) 0.0255(4) 0.95555(18)
H104 H 0.4774 0.0010 0.9651
C172 C 0.47256(18) 0.0679(3) 0.94155(17)
C173 C 0.45127(18) 0.1057(3) 0.92742(17)
H105 H 0.4567 0.1357 0.9173
C174 C 0.42257(17) 0.0987(3) 0.92843(17)
C175 C 0.4260(2) -0.0359(4) 0.9699(2)
C176 C 0.4456(3) -0.0586(6) 0.9905(3)
H106 H 0.4633 -0.0421 0.9970
C177 C 0.4370(3) -0.1140(5) 1.0029(2)
H107 H 0.4505 -0.1332 1.0162
C178 C 0.4102(3) -0.1354(5) 0.9948(3)
C179 C 0.3918(3) -0.1108(5) 0.9740(3)
H108 H 0.3739 -0.1262 0.9669
C180 C 0.4007(2) -0.0594(4) 0.9631(2)
H109 H 0.3871 -0.0408 0.9497
C181 C 0.3778(3) -0.1988(5) 1.0136(3)
C182 C 0.3555(3) -0.2632(5) 1.0417(3)
C183 C 0.3312(4) -0.2332(7) 1.0407(3)
H110 H 0.3302 -0.1967 1.0339
C184 C 0.3067(3) -0.2575(6) 1.0501(3)
H111 H 0.2893 -0.2384 1.0480
C185 C 0.3102(4) -0.3127(7) 1.0630(4)
H112 H 0.2950 -0.3295 1.0693
C186 C 0.3370(3) -0.3411(5) 1.0660(2)
H113 H 0.3403 -0.3748 1.0757
C187 C 0.3585(3) -0.3159(5) 1.0535(2)
C188 C 0.38197(17) -0.4024(3) 1.04148(16)
C189 C 0.41259(17) -0.4744(3) 1.02705(16)
C190 C 0.3919(2) -0.5052(4) 1.01026(18)
H114 H 0.3732 -0.4920 1.0054
C191 C 0.3991(2) -0.5561(4) 1.00056(19)
H115 H 0.3848 -0.5769 0.9890
C192 C 0.42624(19) -0.5776(3) 1.00717(18)
C193 C 0.44825(18) -0.5460(3) 1.02263(17)
H116 H 0.4670 -0.5589 1.0260
C194 C 0.44158(18) -0.4940(3) 1.03306(17)
H117 H 0.4560 -0.4723 1.0439
C195 C 0.50301(18) 0.0766(3) 0.93822(17)
C196 C 0.5228(2) 0.0335(4) 0.94529(19)
H118 H 0.5168 0.0005 0.9525
C197 C 0.55076(19) 0.0375(4) 0.94211(18)
H119 H 0.5636 0.0087 0.9481
C198 C 0.55940(17) 0.0845(3) 0.92999(16)
C199 C 0.5409(2) 0.1289(4) 0.9228(2)
H120 H 0.5468 0.1607 0.9145
C200 C 0.5143(2) 0.1256(4) 0.9281(2)
H121 H 0.5027 0.1571 0.9250
C201 C 0.61126(19) 0.0627(3) 0.93629(18)
C202 C 0.6646(2) 0.0678(4) 0.93987(19)
C203 C 0.6725(3) 0.0443(5) 0.9676(3)
H122 H 0.6586 0.0389 0.9785
C204 C 0.7003(3) 0.0296(5) 0.9783(3)
H123 H 0.7054 0.0148 0.9966
C205 C 0.7203(4) 0.0369(6) 0.9619(3)
H124 H 0.7393 0.0282 0.9697
C206 C 0.7134(3) 0.0574(5) 0.9334(3)
H125 H 0.7269 0.0591 0.9217
C207 C 0.6835(2) 0.0758(4) 0.9237(2)
C208 C 0.6906(2) 0.1008(4) 0.87574(19)
C209 C 0.6900(2) 0.1477(4) 0.8286(2)
C210 C 0.7205(2) 0.1415(4) 0.8302(2)
H126 H 0.7327 0.1290 0.8467
C211 C 0.7309(2) 0.1551(4) 0.8054(2)
H127 H 0.7502 0.1500 0.8050
C212 C 0.7125(2) 0.1762(4) 0.7818(2)
C213 C 0.6831(3) 0.1826(5) 0.7800(2)
H128 H 0.6711 0.1963 0.7636
C214 C 0.6725(3) 0.1668(4) 0.8047(2)
H129 H 0.6530 0.1698 0.8044
C215 C 0.40001(17) 0.1340(3) 0.91092(16)
C216 C 0.40400(18) 0.1627(3) 0.88687(17)
H130 H 0.4221 0.1618 0.8822
C217 C 0.38287(19) 0.1922(3) 0.86965(18)
H131 H 0.3869 0.2113 0.8540
C218 C 0.35533(18) 0.1940(3) 0.87535(17)
C219 C 0.35061(18) 0.1675(3) 0.89913(17)
H132 H 0.3325 0.1692 0.9036
C220 C 0.37186(18) 0.1382(3) 0.91677(17)
H133 H 0.3678 0.1208 0.9329
C221 C 0.33406(17) 0.2665(3) 0.84070(16)
C222 C 0.3040(2) 0.3352(4) 0.8107(2)
C223 C 0.3250(3) 0.3748(5) 0.8099(3)
H134 H 0.3431 0.3704 0.8213
C224 C 0.3191(3) 0.4219(5) 0.7918(2)
H135 H 0.3340 0.4450 0.7890
C225 C 0.2913(3) 0.4337(6) 0.7782(3)
H136 H 0.2867 0.4666 0.7679
C226 C 0.2700(3) 0.3933(5) 0.7807(2)
H137 H 0.2513 0.3999 0.7711
C227 C 0.2752(2) 0.3461(4) 0.7959(2)
C228 C 0.2353(2) 0.2891(4) 0.7725(2)
C229 C 0.1952(3) 0.2262(5) 0.7571(2)
C230 C 0.1805(4) 0.2634(7) 0.7359(3)
H138 H 0.1832 0.3019 0.7362
C231 C 0.1615(3) 0.2346(6) 0.7143(3)
H139 H 0.1539 0.2539 0.6977
C232 C 0.1542(3) 0.1841(5) 0.7162(3)
C233 C 0.1664(3) 0.1476(5) 0.7385(3)
H140 H 0.1618 0.1099 0.7385
C234 C 0.1856(2) 0.1725(4) 0.7602(2)
H141 H 0.1923 0.1531 0.7770
N31 N 0.4043(2) -0.1831(4) 1.0080(2)
H142 H 0.4184 -0.2058 1.0134
N32 N 0.3788(2) -0.2390(4) 1.0313(2)
H143 H 0.3955 -0.2531 1.0377
N33 N 0.38313(16) -0.3476(3) 1.05092(14)
H144 H 0.3996 -0.3319 1.0555
N34 N 0.40854(14) -0.4217(2) 1.03720(12)
H145 H 0.4230 -0.3997 1.0411
N35 N 0.43238(19) -0.6316(3) 0.99695(17)
N36 N 0.58784(15) 0.0922(3) 0.92446(14)
H146 H 0.5900 0.1178 0.9125
N37 N 0.63571(15) 0.0858(3) 0.92983(15)
H147 H 0.6333 0.1141 0.9185
N38 N 0.67700(18) 0.1027(3) 0.89700(16)
H148 H 0.6619 0.1234 0.8943
N39 N 0.67798(17) 0.1346(3) 0.85166(15)
H149 H 0.6612 0.1480 0.8517
N40 N 0.7226(2) 0.1907(4) 0.75617(19)
N41 N 0.33242(15) 0.2203(3) 0.85810(14)
H150 H 0.3156 0.2070 0.8581
N42 N 0.30863(16) 0.2855(3) 0.82696(15)
H151 H 0.2938 0.2658 0.8281
N43 N 0.25402(18) 0.3058(3) 0.79670(17)
H152 H 0.2528 0.2910 0.8128
N44 N 0.21676(18) 0.2485(3) 0.77813(17)
H153 H 0.2186 0.2363 0.7953
N45 N 0.1336(3) 0.1561(6) 0.6913(3)
O44 O 0.3557(2) -0.1710(4) 1.0028(2)
O45 O 0.36021(14) -0.4315(2) 1.03742(13)
O46 O 0.41318(19) -0.6618(4) 0.98551(18)
O47 O 0.45720(18) -0.6475(3) 1.00058(16)
O48 O 0.61178(14) 0.0211(3) 0.95221(13)
O49 O 0.71150(16) 0.0714(3) 0.87467(15)
O50 O 0.7060(2) 0.2059(4) 0.7347(2)
O51 O 0.74911(16) 0.1865(3) 0.75708(14)
O52 O 0.35772(14) 0.2860(3) 0.83872(13)
O53 O 0.2340(2) 0.3128(4) 0.74948(18)
O54 O 0.1247(3) 0.1852(6) 0.6695(3)
O55 O 0.1288(3) 0.1104(5) 0.6930(2)
K7 K 0.63636(4) -0.07760(7) 0.96469(4)
K8 K 0.41278(8) 0.23745(14) 0.95917(6)
K9 K 0.41026(10) 0.24391(17) 0.95394(8)
C235 C 0.4477(2) 0.1367(4) 1.00641(19)
C236 C 0.4213(2) 0.1425(4) 1.0183(2)
C237 C 0.3740(2) 0.1778(4) 1.0088(2)
C238 C 0.3504(2) 0.1964(4) 0.9860(2)
C239 C 0.3356(2) 0.2685(4) 0.9516(2)
C240 C 0.3468(2) 0.3199(4) 0.9390(2)
C241 C 0.3772(2) 0.3516(4) 0.9091(2)
C242 C 0.4035(2) 0.3333(4) 0.8972(2)
C243 C 0.4520(2) 0.3059(4) 0.9104(2)
C244 C 0.4754(2) 0.2965(4) 0.93597(18)
C245 C 0.4895(2) 0.2406(4) 0.97556(19)
C246 C 0.4832(2) 0.1868(4) 0.9906(2)
O56 O 0.46877(13) 0.2476(2) 0.95010(12)
O57 O 0.45557(13) 0.1908(2) 0.99777(12)
O58 O 0.39786(13) 0.1631(2) 0.99649(12)
O59 O 0.35844(13) 0.2462(2) 0.97283(12)
O60 O 0.36816(13) 0.3051(2) 0.92433(13)
O61 O 0.42568(14) 0.3200(2) 0.92001(13)
C247 C 0.6964(3) -0.1300(6) 0.9378(3)
C248 C 0.6812(2) -0.0995(4) 0.9133(2)
C249 C 0.6412(3) -0.1616(6) 0.9034(3)
C250 C 0.6091(3) -0.1735(5) 0.9061(3)
C251 C 0.5792(3) -0.1714(5) 0.9391(3)
C252 C 0.5748(3) -0.1558(5) 0.9717(3)
C253 C 0.5861(5) -0.1039(9) 1.0075(5)
C254 C 0.5943(7) -0.0740(13) 1.0217(6)
C255 C 0.6422(7) -0.0847(13) 1.0369(6)
C256 C 0.6731(3) -0.0661(5) 1.0393(3)
C257 C 0.6959(8) -0.1190(14) 1.0193(8)
C258 C 0.7068(3) -0.1390(5) 0.9882(3)
O62 O 0.6473(2) -0.1076(4) 0.91118(19)
O63 O 0.60796(19) -0.1646(3) 0.93648(17)
O64 O 0.5866(2) -0.1046(4) 0.9792(2)
O65 O 0.6257(4) -0.0568(7) 1.0206(4)
O66 O 0.6823(4) -0.0924(7) 1.0128(4)
O67 O 0.6913(3) -0.1155(5) 0.9604(3)
K10 K 0.23999(13) 0.2361(2) 0.69619(12)
K11 K 0.24520(16) 0.2651(3) 0.70386(15)
K12 K 0.34146(9) -0.51598(16) 1.05911(7)
K13 K 0.34205(12) -0.5233(2) 1.06435(10)
O68 O 0.2076(8) 0.1389(14) 0.6705(8)
C259 C 0.8290(3) 0.1274(5) 0.8291(3)
C260 C 0.8289(3) 0.1816(6) 0.8475(3)
C261 C 0.8014(3) 0.2592(5) 0.8513(3)
C262 C 0.7748(3) 0.2912(5) 0.8357(3)
C263 C 0.7579(2) 0.3476(4) 0.7967(2)
C264 C 0.7652(2) 0.3700(4) 0.7685(2)
C265 C 0.7718(2) 0.3372(4) 0.7238(2)
C266 C 0.7673(2) 0.2845(4) 0.7055(2)
C267 C 0.7868(2) 0.1943(4) 0.7017(2)
C268 C 0.8113(2) 0.1559(4) 0.7144(2)
C269 C 0.8315(2) 0.1039(5) 0.7533(2)
C270 C 0.8295(3) 0.0897(5) 0.7845(2)
O69 O 0.81030(14) 0.1436(3) 0.74261(13)
O70 O 0.83111(15) 0.1395(3) 0.80074(14)
O71 O 0.80374(17) 0.2123(3) 0.83428(15)
O72 O 0.78083(15) 0.3139(3) 0.81096(14)
O73 O 0.76564(14) 0.3207(3) 0.75101(13)
O74 O 0.78960(13) 0.2452(2) 0.71723(12)
C271 C 0.5074(2) 0.8892(4) 0.88754(19)
H154 H 0.5179 0.9139 0.9005
C272 C 0.49363(19) 0.8446(4) 0.89724(18)
C273 C 0.47731(17) 0.8074(3) 0.87764(16)
H155 H 0.4675 0.7779 0.8839
C274 C 0.47622(16) 0.8157(3) 0.84861(16)
C275 C 0.49022(17) 0.8604(3) 0.83974(17)
H156 H 0.4892 0.8655 0.8203
C276 C 0.50554(17) 0.8974(3) 0.85817(16)
C277 C 0.4958(2) 0.8357(4) 0.92793(19)
C278 C 0.49599(18) 0.7825(3) 0.94045(18)
H157 H 0.4950 0.7509 0.9290
C279 C 0.49762(19) 0.7763(4) 0.96903(18)
H158 H 0.4971 0.7406 0.9766
C280 C 0.49997(17) 0.8218(3) 0.98714(16)
C281 C 0.4997(2) 0.8730(4) 0.9758(2)
H159 H 0.5007 0.9041 0.9876
C282 C 0.4979(2) 0.8805(4) 0.9461(2)
H160 H 0.4982 0.9164 0.9388
C283 C 0.51290(17) 0.8444(3) 1.03816(16)
C284 C 0.5194(3) 0.8505(5) 1.0910(2)
C285 C 0.5443(3) 0.8842(5) 1.0943(3)
H161 H 0.5531 0.8916 1.0790
C286 C 0.5557(4) 0.9065(6) 1.1222(3)
H162 H 0.5717 0.9296 1.1253
C287 C 0.5423(4) 0.8928(7) 1.1437(4)
H163 H 0.5494 0.9082 1.1615
C288 C 0.5180(3) 0.8562(6) 1.1412(3)
H164 H 0.5102 0.8456 1.1567
C289 C 0.5070(2) 0.8379(4) 1.1133(2)
C290 C 0.4598(3) 0.8064(5) 1.1233(2)
C291 C 0.41893(15) 0.7539(3) 1.13064(16)
C292 C 0.41580(16) 0.7800(3) 1.15577(16)
H165 H 0.4278 0.8095 1.1630
C293 C 0.39477(18) 0.7621(3) 1.17010(14)
H166 H 0.3927 0.7795 1.1869
C294 C 0.37688(15) 0.7180(3) 1.15929(16)
C295 C 0.38001(16) 0.6919(3) 1.13416(16)
H167 H 0.3680 0.6624 1.1269
C296 C 0.40104(17) 0.7099(3) 1.11983(14)
H168 H 0.4031 0.6924 1.1030
C297 C 0.46030(17) 0.7735(3) 0.82760(16)
C298 C 0.45793(17) 0.7205(3) 0.83490(17)
H169 H 0.4644 0.7105 0.8539
C299 C 0.44645(19) 0.6796(4) 0.81590(18)
H170 H 0.4458 0.6430 0.8222
C300 C 0.43572(17) 0.6924(3) 0.78706(16)
C301 C 0.43575(18) 0.7515(3) 0.78072(18)
H171 H 0.4276 0.7632 0.7624
C302 C 0.44687(19) 0.7898(4) 0.79989(17)
H172 H 0.4458 0.8274 0.7950
C303 C 0.41446(16) 0.6032(3) 0.77041(15)
C304 C 0.39422(18) 0.5180(3) 0.74441(17)
C305 C 0.4022(2) 0.4789(4) 0.7654(2)
H173 H 0.4163 0.4876 0.7811
C306 C 0.3896(2) 0.4272(4) 0.7636(2)
H174 H 0.3948 0.4013 0.7781
C307 C 0.3696(2) 0.4147(4) 0.7403(2)
H175 H 0.3615 0.3792 0.7390
C308 C 0.3604(2) 0.4525(4) 0.71778(19)
H176 H 0.3463 0.4426 0.7021
C309 C 0.37314(16) 0.5061(3) 0.71985(15)
C310 C 0.34075(15) 0.5510(3) 0.68002(15)
C311 C 0.31725(16) 0.6075(3) 0.63999(15)
C312 C 0.28812(19) 0.5945(3) 0.64021(18)
H177 H 0.2841 0.5706 0.6542
C313 C 0.2662(2) 0.6157(4) 0.62087(19)
H178 H 0.2474 0.6078 0.6223
C314 C 0.2715(2) 0.6485(4) 0.59943(19)
C315 C 0.29929(19) 0.6611(4) 0.59636(19)
H179 H 0.3028 0.6818 0.5810
C316 C 0.32149(18) 0.6410(3) 0.61737(16)
H180 H 0.3402 0.6504 0.6163
C317 C 0.52135(17) 0.9463(3) 0.84821(16)
C318 C 0.53251(17) 0.9439(3) 0.82382(16)
H181 H 0.5298 0.9116 0.8128
C319 C 0.54794(16) 0.9889(3) 0.81493(16)
H182 H 0.5546 0.9870 0.7980
C320 C 0.55283(18) 1.0362(3) 0.83226(17)
C321 C 0.54178(18) 1.0391(3) 0.85693(17)
H183 H 0.5451 1.0708 0.8683
C322 C 0.52633(18) 0.9968(3) 0.86468(18)
H184 H 0.5187 1.0004 0.8810
C323 C 0.57170(18) 1.0957(3) 0.79948(17)
C324 C 0.59551(19) 1.1673(3) 0.77321(18)
C325 C 0.5914(2) 1.1426(4) 0.7469(2)
H185 H 0.5833 1.1072 0.7446
C326 C 0.5990(3) 1.1688(5) 0.7231(3)
H186 H 0.5956 1.1515 0.7054
C327 C 0.6112(2) 1.2190(4) 0.7267(2)
H187 H 0.6178 1.2355 0.7116
C328 C 0.61425(19) 1.2469(4) 0.75226(18)
H188 H 0.6218 1.2828 0.7536
C329 C 0.60652(19) 1.2233(3) 0.77629(18)
C330 C 0.60401(16) 1.3100(3) 0.80327(16)
C331 C 0.60143(14) 1.38314(19) 0.83876(12)
C332 C 0.59704(16) 1.3902(2) 0.86639(12)
H189 H 0.5965 1.3593 0.8780
C333 C 0.59342(17) 1.4434(3) 0.87664(11)
H190 H 0.5905 1.4481 0.8951
C334 C 0.59419(17) 1.4896(2) 0.85926(14)
C335 C 0.59858(17) 1.4826(2) 0.83163(13)
H191 H 0.5991 1.5135 0.8200
C336 C 0.60220(16) 1.4294(2) 0.82138(10)
H192 H 0.6051 1.4247 0.8029
N46 N 0.49983(14) 0.8109(3) 1.01635(13)
H193 H 0.4910 0.7816 1.0205
N47 N 0.50782(16) 0.8270(3) 1.06312(15)
H194 H 0.4965 0.7989 1.0627
N48 N 0.48286(18) 0.8011(3) 1.10943(17)
H195 H 0.4825 0.7738 1.0977
N49 N 0.4391(2) 0.7684(4) 1.1154(2)
H196 H 0.4385 0.7518 1.0994
N50 N 0.3573(2) 0.6985(4) 1.1746(2)
N51 N 0.42530(13) 0.6550(2) 0.76630(13)
H197 H 0.4255 0.6646 0.7490
N52 N 0.40689(14) 0.5718(3) 0.74522(13)
H198 H 0.4101 0.5858 0.7296
N53 N 0.36700(13) 0.5451(2) 0.69784(12)
H199 H 0.3806 0.5670 0.6953
N54 N 0.34071(14) 0.5917(2) 0.65983(13)
H200 H 0.3566 0.6085 0.6596
N55 N 0.24783(18) 0.6721(3) 0.57759(17)
N56 N 0.56992(15) 1.0804(3) 0.82591(14)
H201 H 0.5798 1.0988 0.8399
N57 N 0.58978(15) 1.1437(3) 0.79849(15)
H202 H 0.5976 1.1589 0.8144
N58 N 0.60874(13) 1.2530(2) 0.80177(13)
H203 H 0.6133 1.2348 0.8175
N59 N 0.60496(14) 1.3286(3) 0.83053(14)
H204 H 0.6081 1.3039 0.8438
N60 N 0.59302(18) 1.5443(3) 0.87279(17)
O75 O 0.52628(14) 0.8865(3) 1.03517(13)
O76 O 0.4611(2) 0.8405(4) 1.14404(19)
O77 O 0.3521(2) 0.7244(4) 1.1955(2)
O78 O 0.3433(2) 0.6566(4) 1.1671(2)
O79 O 0.40955(13) 0.5880(2) 0.79348(13)
O80 O 0.31992(13) 0.5210(2) 0.68154(12)
O81 O 0.22316(19) 0.6636(3) 0.58288(17)
O82 O 0.25310(17) 0.6943(3) 0.55675(16)
O83 O 0.55821(14) 1.0743(2) 0.77758(13)
O84 O 0.59923(14) 1.3401(2) 0.78269(13)
O85 O 0.59304(19) 1.5502(3) 0.89620(18)
O86 O 0.58907(17) 1.5816(3) 0.85508(16)
K14 K 0.53976(6) 1.62223(10) 0.82471(5)
K15 K 0.51840(15) 1.6443(3) 0.83207(14)
C337 C 0.6977(3) 0.8287(6) 0.8390(3)
C338 C 0.6800(3) 0.7772(5) 0.8397(3)
C339 C 0.6418(5) 0.7262(8) 0.8136(4)
C340 C 0.6228(3) 0.7170(6) 0.7856(3)
C341 C 0.5890(4) 0.7597(8) 0.7525(4)
C342 C 0.5704(4) 0.8144(8) 0.7467(4)
C343 C 0.5685(4) 0.9072(7) 0.7449(3)
C344 C 0.5854(4) 0.9593(7) 0.7414(3)
C345 C 0.6249(4) 1.0084(7) 0.7706(3)
C346 C 0.6394(3) 1.0172(6) 0.8022(3)
C347 C 0.6794(4) 0.9739(6) 0.8337(3)
C348 C 0.6974(3) 0.9254(6) 0.8385(3)
O87 O 0.68111(17) 0.8764(3) 0.83772(15)
O88 O 0.65965(19) 0.7741(3) 0.81394(18)
O89 O 0.6068(2) 0.7679(4) 0.7788(2)
O90 O 0.5858(2) 0.8616(4) 0.7468(2)
O91 O 0.6054(2) 0.9638(4) 0.7707(2)
O92 O 0.6597(2) 0.9695(4) 0.8065(2)
K16 K 0.63931(16) 0.8970(3) 0.78650(14)
K17 K 0.63206(7) 0.86723(13) 0.79445(7)
O93 O 0.6093(2) 0.9049(4) 0.84222(19)
K18 K 0.23208(11) 0.8674(2) 0.91772(10)
O94 O 0.22691(16) 0.7970(3) 0.95758(15)
K19 K 0.40278(10) 0.99140(17) 0.60799(9)
K20 K 0.42122(14) 0.9784(2) 0.61637(12)
C349 C 0.5218(4) 0.0272(8) 0.0242(4)
C350 C 0.5462(11) 0.0603(19) 0.0346(9)
C351 C 0.5480(6) 0.1547(11) 0.0650(6)
C352 C 0.5377(4) 0.1796(8) 0.0884(4)
O95 O 0.5325(3) 0.1058(5) 0.0556(2)
C353 C 0.6730(5) 0.6604(9) 0.2683(5)
C354 C 0.6822(4) 0.6669(7) 0.2432(4)
C355 C 0.6882(5) 0.6112(9) 0.1987(5)
C356 C 0.6971(5) 0.5576(9) 0.1903(4)
O96 O 0.6832(3) 0.6200(5) 0.2273(2)
C357 C 0.9284(3) 0.5209(6) 0.3675(4)
C358 C 0.9569(3) 0.4976(7) 0.3746(4)
H205 H 0.9666 0.5123 0.3926
H206 H 0.9673 0.5072 0.3601
H207 H 0.9556 0.4577 0.3759
C359 C 0.9229(4) 0.5727(6) 0.3517(3)
H208 H 0.9117 0.5652 0.3331
H209 H 0.9408 0.5894 0.3498
H210 H 0.9127 0.5978 0.3616
O97 O 0.9097(3) 0.4762(6) 0.3725(3)
O98 O 0.62462(12) 0.1825(2) 0.84780(11)
O99 O 0.63412(12) 0.1814(2) 0.90095(11)
O100 O 0.58501(11) 0.1572(2) 0.87291(10)
O101 O 0.60257(11) 0.2565(2) 0.87457(11)
P1 P 0.61129(4) 0.19423(7) 0.87399(4)
O102 O 0.48603(12) 0.7195(2) 0.06908(12)
O103 O 0.45799(13) 0.6411(2) 0.04217(12)
O104 O 0.43224(14) 0.7163(2) 0.06371(13)
O105 O 0.45427(12) 0.7386(2) 0.02126(11)
P2 P 0.45736(5) 0.70406(8) 0.04868(4)
O106 O 0.41565(10) 0.60578(18) 0.69276(10)
O107 O 0.41335(10) 0.70585(18) 0.70824(10)
O108 O 0.43637(10) 0.68121(18) 0.66667(9)
O109 O 0.38274(10) 0.67271(18) 0.66198(9)
P3 P 0.41202(4) 0.66681(7) 0.68298(3)
O110 O 0.27991(11) 0.1562(2) 0.85321(11)
O111 O 0.24087(12) 0.1841(2) 0.87877(11)
O112 O 0.26119(12) 0.2554(2) 0.85006(11)
O113 O 0.23010(12) 0.1776(2) 0.82486(11)
P4 P 0.25324(4) 0.19303(7) 0.85167(4)
O114 O 0.2029(7) 0.8841(13) 0.8431(7)
C360? C 0.2373(9) 0.3032(16) 0.6328(8)
C361? C 0.2522(13) 0.350(2) 0.6406(13)
C362? C 0.2720(8) 0.3674(14) 0.6699(7)
C363? C 0.2842(4) 0.3530(7) 0.6993(3)
C364? C 0.3056(6) 0.3007(12) 0.7370(6)
C365? C 0.3027(8) 0.2524(15) 0.7449(7)
O115? O 0.2900(4) 0.2967(7) 0.7065(4)
O116? O 0.2436(5) 0.3403(9) 0.6623(5)
C366? C 0.5214(4) 1.6187(9) 0.8827(4)
C367? C 0.5170(6) 1.5718(11) 0.8941(5)
C368? C 0.5248(6) 1.4791(10) 0.8326(5)
C369? C 0.4900(6) 1.4957(11) 0.8156(6)
C370? C 0.4800(4) 1.5491(6) 0.7800(3)
C371? C 0.4906(3) 1.5869(5) 0.7597(2)
C372? C 0.5051(4) 1.6811(7) 0.7576(3)
C373? C 0.5097(4) 1.7302(7) 0.7760(3)
C374? C 0.5410(5) 1.7737(8) 0.8141(4)
C375? C 0.5655(5) 1.7627(8) 0.8382(4)
C376? C 0.5455(5) 1.7365(9) 0.8769(5)
C377? C 0.5405(5) 1.6996(9) 0.8965(4)
O117? O 0.5244(3) 1.6621(7) 0.8832(3)
O118? O 0.5610(2) 1.7198(4) 0.8575(2)
O119? O 0.5368(2) 1.7265(4) 0.79746(19)
O120? O 0.49920(19) 1.6386(3) 0.77579(18)
O121? O 0.5045(3) 1.5322(5) 0.7957(3)
C378? C 0.5802(3) 1.5894(6) 0.7343(3)
C379? C 0.5612(4) 1.5119(6) 0.7535(3)
C380? C 0.5715(3) 1.5704(5) 0.7604(3)
O122? O 0.5718(2) 1.5961(4) 0.78253(19)
C381? C 0.3114(5) 0.8266(8) 0.9322(4)
C382? C 0.2980(5) 0.7686(10) 0.9350(5)
C383? C 0.2564(4) 0.7179(7) 0.9144(4)
C384? C 0.2313(5) 0.7276(9) 0.9030(4)
C385? C 0.1803(7) 0.7860(13) 0.8552(7)
C386? C 0.2367(6) 1.0037(11) 0.9462(6)
C387? C 0.2798(5) 0.9571(9) 0.9574(5)
C388? C 0.3057(5) 0.9219(9) 0.9519(5)
C389? C 0.1869(6) 0.7703(10) 0.8836(6)
O123? O 0.2896(3) 0.8721(5) 0.9455(2)
O124? O 0.2690(3) 0.7771(5) 0.9141(2)
O125? O 0.2138(4) 0.7638(7) 0.9020(3)
O126? O 0.2613(4) 0.9658(6) 0.9315(3)
C390? C 0.1916(6) 0.9524(10) 0.8598(6)
C391? C 0.2173(5) 1.0176(9) 0.9064(5)
O127? O 0.2077(5) 0.9615(10) 0.8835(5)
C392? C 0.4805(5) 0.9751(9) 0.5822(4)
C393? C 0.4730(4) 0.9255(7) 0.5980(4)
C394? C 0.4465(4) 0.8662(6) 0.6299(3)
C395? C 0.4327(6) 0.8558(11) 0.6526(6)
C396? C 0.3874(4) 0.8977(7) 0.6588(4)
C397? C 0.3577(5) 0.9196(9) 0.6424(5)
C398? C 0.3338(9) 1.0013(15) 0.6190(8)
C399? C 0.3657(7) 1.1090(12) 0.6061(6)
C400? C 0.3804(6) 1.1311(10) 0.5798(5)
C401? C 0.4239(4) 1.0991(7) 0.5661(3)
C402? C 0.4525(4) 1.0684(8) 0.5759(4)
O128? O 0.4484(2) 1.0161(5) 0.5792(2)
O129? O 0.4570(3) 0.9211(6) 0.6188(3)
O130? O 0.4063(3) 0.8890(5) 0.6380(3)
O131? O 0.3627(4) 0.9750(7) 0.6382(3)
O132? O 0.4086(3) 1.1004(5) 0.5868(3)
C403? C 0.2742(4) 0.1742(7) 0.7380(4)
C404? C 0.2575(7) 0.1264(12) 0.7416(6)
C405? C 0.2287(9) 0.0860(16) 0.7082(8)
O133? O 0.2452(4) 0.1213(8) 0.7118(4)
C406? C 0.4040(2) -0.5982(4) 1.0986(2)
C407? C 0.3937(4) -0.6228(7) 1.0690(4)
C408? C 0.3520(3) -0.6578(5) 1.0337(3)
C409? C 0.3248(4) -0.6109(7) 1.0227(4)
C410? C 0.2937(4) -0.5719(8) 1.0003(4)
C411? C 0.2772(4) -0.5496(8) 1.0198(4)
C412? C 0.2649(4) -0.4857(8) 1.0536(4)
C413? C 0.2778(4) -0.4627(7) 1.0797(3)
C414? C 0.3156(3) -0.4459(5) 1.1183(2)
C415? C 0.3505(3) -0.4648(5) 1.1289(3)
C416? C 0.3930(3) -0.4536(5) 1.1179(2)
C417? C 0.4032(3) -0.5152(5) 1.1236(3)
O134? O 0.3643(2) -0.4470(4) 1.10986(19)
O135? O 0.39548(18) -0.5401(3) 1.09793(16)
O136? O 0.3660(2) -0.6255(4) 1.06124(19)
O137? O 0.2801(3) -0.5234(5) 1.0422(3)
O138? O 0.3044(3) -0.4687(4) 1.0903(2)
loop_
_geom_bond_atom_site_label_1
_geom_bond_atom_site_label_2
_geom_bond_site_symmetry_1
_geom_bond_site_symmetry_2
C1 H1 1_555 1_555
C2 C1 1_555 1_555
C3 C2 1_555 1_555
H2 C3 1_555 1_555
C4 C3 1_555 1_555
C5 C4 1_555 1_555
H3 C5 1_555 1_555
C6 C1 1_555 1_555
C7 C2 1_555 1_555
C8 C7 1_555 1_555
H4 C8 1_555 1_555
C9 C8 1_555 1_555
H5 C9 1_555 1_555
C10 C9 1_555 1_555
C11 C10 1_555 1_555
H6 C11 1_555 1_555
C12 C7 1_555 1_555
H7 C12 1_555 1_555
C13 N1 1_555 1_555
C14 C15 1_555 1_555
C15 H8 1_555 1_555
C16 C15 1_555 1_555
H9 C16 1_555 1_555
C17 C16 1_555 1_555
H10 C17 1_555 1_555
C18 C17 1_555 1_555
H11 C18 1_555 1_555
C19 C14 1_555 1_555
C20 N3 1_555 1_555
C21 C22 1_555 1_555
C22 H12 1_555 1_555
C23 C22 1_555 1_555
H13 C23 1_555 1_555
C24 C23 1_555 1_555
C25 C24 1_555 1_555
H14 C25 1_555 1_555
C26 C21 1_555 1_555
H15 C26 1_555 1_555
C27 C4 1_555 1_555
C28 C27 1_555 1_555
H16 C28 1_555 1_555
C29 C28 1_555 1_555
H17 C29 1_555 1_555
C30 C29 1_555 1_555
C31 C30 1_555 1_555
H18 C31 1_555 1_555
C32 C27 1_555 1_555
H19 C32 1_555 1_555
C33 N6 1_555 1_555
C34 C35 1_555 1_555
C35 H20 1_555 1_555
C36 C35 1_555 1_555
H21 C36 1_555 1_555
C37 C36 1_555 1_555
H22 C37 1_555 1_555
C38 C37 1_555 1_555
H23 C38 1_555 1_555
C39 C34 1_555 1_555
C40 N8 1_555 1_555
C41 C42 1_555 1_555
C42 H24 1_555 1_555
C43 C42 1_555 1_555
H25 C43 1_555 1_555
C44 C43 1_555 1_555
C45 C44 1_555 1_555
H26 C45 1_555 1_555
C46 C41 1_555 1_555
H27 C46 1_555 1_555
C47 C6 1_555 1_555
C48 C47 1_555 1_555
H28 C48 1_555 1_555
C49 C48 1_555 1_555
H29 C49 1_555 1_555
C50 C49 1_555 1_555
C51 C50 1_555 1_555
H30 C51 1_555 1_555
C52 C47 1_555 1_555
H31 C52 1_555 1_555
C53 N11 1_555 1_555
C54 C55 1_555 1_555
C55 H32 1_555 1_555
C56 C55 1_555 1_555
H33 C56 1_555 1_555
C57 C56 1_555 1_555
H34 C57 1_555 1_555
C58 C57 1_555 1_555
H35 C58 1_555 1_555
C59 C54 1_555 1_555
C60 N13 1_555 1_555
C61 C62 1_555 1_555
C62 H36 1_555 1_555
C63 C62 1_555 1_555
H37 C63 1_555 1_555
C64 C63 1_555 1_555
C65 C64 1_555 1_555
H38 C65 1_555 1_555
C66 C61 1_555 1_555
H39 C66 1_555 1_555
N1 C10 1_555 1_555
H40 N1 1_555 1_555
N2 C13 1_555 1_555
H41 N2 1_555 1_555
N3 C19 1_555 1_555
H42 N3 1_555 1_555
N4 C20 1_555 1_555
H43 N4 1_555 1_555
N5 C24 1_555 1_555
N6 C30 1_555 1_555
H44 N6 1_555 1_555
N7 C33 1_555 1_555
H45 N7 1_555 1_555
N8 C39 1_555 1_555
H46 N8 1_555 1_555
N9 C40 1_555 1_555
H47 N9 1_555 1_555
N10 C44 1_555 1_555
N11 C50 1_555 1_555
H48 N11 1_555 1_555
N12 C53 1_555 1_555
H49 N12 1_555 1_555
N13 C59 1_555 1_555
H50 N13 1_555 1_555
N14 C60 1_555 1_555
H51 N14 1_555 1_555
N15 C64 1_555 1_555
O1 C13 1_555 1_555
O2 C20 1_555 1_555
O3 N5 1_555 1_555
O4 N5 1_555 1_555
O5 C33 1_555 1_555
O6 C40 1_555 1_555
O7 N10 1_555 1_555
O8 N10 1_555 1_555
O9 C53 1_555 1_555
O10 C60 1_555 1_555
O11 N15 1_555 1_555
O12 N15 1_555 1_555
C67 C68 1_555 1_555
C68 O14 1_555 1_555
C69 C70 1_555 1_555
C70 O15 1_555 1_555
C71 C72 1_555 1_555
C72 O16 1_555 1_555
C73 C74 1_555 1_555
C74 O17 1_555 1_555
C75 C76 1_555 1_555
C76 O18 1_555 1_555
C77 C78 1_555 1_555
C78 O13 1_555 1_555
O13 C67 1_555 1_555
O14 C69 1_555 1_555
O15 C71 1_555 1_555
O16 C73 1_555 1_555
O17 C75 1_555 1_555
O18 C77 1_555 1_555
C79 C80 1_555 1_555
C80 O20 1_555 1_555
C81 C82 1_555 1_555
C82 O19 1_555 1_555
C83 C84 1_555 1_555
C84 O24 1_555 1_555
C85 C86 1_555 1_555
C86 O23 1_555 1_555
C87 C88 1_555 1_555
C88 O22 1_555 1_555
C89 C90 1_555 1_555
C90 O21 1_555 1_555
O19 C83 1_555 1_555
O20 C81 1_555 1_555
O21 C79 1_555 1_555
O22 C89 1_555 1_555
O23 C87 1_555 1_555
O24 C85 1_555 1_555
C91 C92 1_555 1_555
C92 O26 1_555 1_555
C93 C94 1_555 1_555
C94 O25 1_555 1_555
C95 C96 1_555 1_555
C96 O30 1_555 1_555
C97 C98 1_555 1_555
C98 O29 1_555 1_555
C99 C100 1_555 1_555
C100 O28 1_555 1_555
C101 C102 1_555 1_555
C102 O27 1_555 1_555
O25 C95 1_555 1_555
O26 C93 1_555 1_555
O27 C91 1_555 1_555
O28 C101 1_555 1_555
O29 C99 1_555 1_555
O30 C97 1_555 1_555
C103 C104 1_555 1_555
C104 H52 1_555 1_555
C105 C104 1_555 1_555
C106 C105 1_555 1_555
H53 C106 1_555 1_555
C107 C106 1_555 1_555
C108 C103 1_555 1_555
H54 C108 1_555 1_555
C109 C103 1_555 1_555
C110 C109 1_555 1_555
H55 C110 1_555 1_555
C111 C110 1_555 1_555
H56 C111 1_555 1_555
C112 C111 1_555 1_555
C113 C112 1_555 1_555
H57 C113 1_555 1_555
C114 C109 1_555 1_555
H58 C114 1_555 1_555
C115 N16 1_555 1_555
C116 C117 1_555 1_555
C117 H59 1_555 1_555
C118 C117 1_555 1_555
H60 C118 1_555 1_555
C119 C118 1_555 1_555
H61 C119 1_555 1_555
C120 C119 1_555 1_555
H62 C120 1_555 1_555
C121 C116 1_555 1_555
C122 N18 1_555 1_555
C123 C124 1_555 1_555
C124 H63 1_555 1_555
C125 C124 1_555 1_555
H64 C125 1_555 1_555
C126 C125 1_555 1_555
C127 C126 1_555 1_555
H65 C127 1_555 1_555
C128 C123 1_555 1_555
H66 C128 1_555 1_555
C129 C105 1_555 1_555
C130 C129 1_555 1_555
H67 C130 1_555 1_555
C131 C130 1_555 1_555
H68 C131 1_555 1_555
C132 C131 1_555 1_555
C133 C132 1_555 1_555
H69 C133 1_555 1_555
C134 C129 1_555 1_555
H70 C134 1_555 1_555
C135 N21 1_555 1_555
C136 C137 1_555 1_555
C137 H71 1_555 1_555
C138 C137 1_555 1_555
H72 C138 1_555 1_555
C139 C138 1_555 1_555
H73 C139 1_555 1_555
C140 C139 1_555 1_555
H74 C140 1_555 1_555
C141 C136 1_555 1_555
C142 N23 1_555 1_555
C143 C144 1_555 1_555
C144 H75 1_555 1_555
C145 C144 1_555 1_555
H76 C145 1_555 1_555
C146 C145 1_555 1_555
C147 C146 1_555 1_555
H77 C147 1_555 1_555
C148 C143 1_555 1_555
H78 C148 1_555 1_555
C149 C107 1_555 1_555
C150 C149 1_555 1_555
H79 C150 1_555 1_555
C151 C150 1_555 1_555
H80 C151 1_555 1_555
C152 C151 1_555 1_555
C153 C152 1_555 1_555
H81 C153 1_555 1_555
C154 C149 1_555 1_555
H82 C154 1_555 1_555
C155 N26 1_555 1_555
C156 C157 1_555 1_555
C157 H83 1_555 1_555
C158 C157 1_555 1_555
H84 C158 1_555 1_555
C159 C158 1_555 1_555
H85 C159 1_555 1_555
C160 C159 1_555 1_555
H86 C160 1_555 1_555
C161 C156 1_555 1_555
C162 N28 1_555 1_555
C163 C164 1_555 1_555
C164 H87 1_555 1_555
C165 C164 1_555 1_555
H88 C165 1_555 1_555
C166 C165 1_555 1_555
C167 C166 1_555 1_555
H89 C167 1_555 1_555
C168 C163 1_555 1_555
H90 C168 1_555 1_555
N16 C112 1_555 1_555
H91 N16 1_555 1_555
N17 C115 1_555 1_555
H92 N17 1_555 1_555
N18 C121 1_555 1_555
H93 N18 1_555 1_555
N19 C122 1_555 1_555
H94 N19 1_555 1_555
N20 C126 1_555 1_555
N21 C132 1_555 1_555
H95 N21 1_555 1_555
N22 C135 1_555 1_555
H96 N22 1_555 1_555
N23 C141 1_555 1_555
H97 N23 1_555 1_555
N24 C142 1_555 1_555
H98 N24 1_555 1_555
N25 C146 1_555 1_555
N26 C152 1_555 1_555
H99 N26 1_555 1_555
N27 C155 1_555 1_555
H100 N27 1_555 1_555
N28 C161 1_555 1_555
H101 N28 1_555 1_555
N29 C162 1_555 1_555
H102 N29 1_555 1_555
N30 C166 1_555 1_555
O32 C115 1_555 1_555
O33 C122 1_555 1_555
O34 N20 1_555 1_555
O35 N20 1_555 1_555
O36 C135 1_555 1_555
O37 C142 1_555 1_555
O38 N25 1_555 1_555
O39 N25 1_555 1_555
O40 C155 1_555 1_555
O41 C162 1_555 1_555
O42 N30 1_555 1_555
O43 N30 1_555 1_555
C169 H103 1_555 1_555
C170 C169 1_555 1_555
C171 C170 1_555 1_555
H104 C171 1_555 1_555
C172 C171 1_555 1_555
C173 C172 1_555 1_555
H105 C173 1_555 1_555
C174 C169 1_555 1_555
C175 C170 1_555 1_555
C176 C175 1_555 1_555
H106 C176 1_555 1_555
C177 C176 1_555 1_555
H107 C177 1_555 1_555
C178 C177 1_555 1_555
C179 C178 1_555 1_555
H108 C179 1_555 1_555
C180 C175 1_555 1_555
H109 C180 1_555 1_555
C181 N31 1_555 1_555
C182 C183 1_555 1_555
C183 H110 1_555 1_555
C184 C183 1_555 1_555
H111 C184 1_555 1_555
C185 C184 1_555 1_555
H112 C185 1_555 1_555
C186 C185 1_555 1_555
H113 C186 1_555 1_555
C187 C182 1_555 1_555
C188 N33 1_555 1_555
C189 C190 1_555 1_555
C190 H114 1_555 1_555
C191 C190 1_555 1_555
H115 C191 1_555 1_555
C192 C191 1_555 1_555
C193 C192 1_555 1_555
H116 C193 1_555 1_555
C194 C189 1_555 1_555
H117 C194 1_555 1_555
C195 C172 1_555 1_555
C196 C195 1_555 1_555
H118 C196 1_555 1_555
C197 C196 1_555 1_555
H119 C197 1_555 1_555
C198 C197 1_555 1_555
C199 C198 1_555 1_555
H120 C199 1_555 1_555
C200 C195 1_555 1_555
H121 C200 1_555 1_555
C201 N36 1_555 1_555
C202 C203 1_555 1_555
C203 H122 1_555 1_555
C204 C203 1_555 1_555
H123 C204 1_555 1_555
C205 C204 1_555 1_555
H124 C205 1_555 1_555
C206 C205 1_555 1_555
H125 C206 1_555 1_555
C207 C202 1_555 1_555
C208 N38 1_555 1_555
C209 C210 1_555 1_555
C210 H126 1_555 1_555
C211 C210 1_555 1_555
H127 C211 1_555 1_555
C212 C211 1_555 1_555
C213 C212 1_555 1_555
H128 C213 1_555 1_555
C214 C209 1_555 1_555
H129 C214 1_555 1_555
C215 C174 1_555 1_555
C216 C215 1_555 1_555
H130 C216 1_555 1_555
C217 C216 1_555 1_555
H131 C217 1_555 1_555
C218 C217 1_555 1_555
C219 C218 1_555 1_555
H132 C219 1_555 1_555
C220 C215 1_555 1_555
H133 C220 1_555 1_555
C221 N41 1_555 1_555
C222 C223 1_555 1_555
C223 H134 1_555 1_555
C224 C223 1_555 1_555
H135 C224 1_555 1_555
C225 C224 1_555 1_555
H136 C225 1_555 1_555
C226 C225 1_555 1_555
H137 C226 1_555 1_555
C227 C222 1_555 1_555
C228 N43 1_555 1_555
C229 C230 1_555 1_555
C230 H138 1_555 1_555
C231 C230 1_555 1_555
H139 C231 1_555 1_555
C232 C231 1_555 1_555
C233 C232 1_555 1_555
H140 C233 1_555 1_555
C234 C229 1_555 1_555
H141 C234 1_555 1_555
N31 C178 1_555 1_555
H142 N31 1_555 1_555
N32 C181 1_555 1_555
H143 N32 1_555 1_555
N33 C187 1_555 1_555
H144 N33 1_555 1_555
N34 C188 1_555 1_555
H145 N34 1_555 1_555
N35 C192 1_555 1_555
N36 C198 1_555 1_555
H146 N36 1_555 1_555
N37 C201 1_555 1_555
H147 N37 1_555 1_555
N38 C207 1_555 1_555
H148 N38 1_555 1_555
N39 C208 1_555 1_555
H149 N39 1_555 1_555
N40 C212 1_555 1_555
N41 C218 1_555 1_555
H150 N41 1_555 1_555
N42 C221 1_555 1_555
H151 N42 1_555 1_555
N43 C227 1_555 1_555
H152 N43 1_555 1_555
N44 C228 1_555 1_555
H153 N44 1_555 1_555
N45 C232 1_555 1_555
O44 C181 1_555 1_555
O45 C188 1_555 1_555
O46 N35 1_555 1_555
O47 N35 1_555 1_555
O48 C201 1_555 1_555
O49 C208 1_555 1_555
O50 N40 1_555 1_555
O51 N40 1_555 1_555
O52 C221 1_555 1_555
O53 C228 1_555 1_555
O54 N45 1_555 1_555
O55 N45 1_555 1_555
C235 C236 1_555 1_555
C236 O58 1_555 1_555
C237 C238 1_555 1_555
C238 O59 1_555 1_555
C239 C240 1_555 1_555
C240 O60 1_555 1_555
C241 C242 1_555 1_555
C242 O61 1_555 1_555
C243 C244 1_555 1_555
C244 O56 1_555 1_555
C245 C246 1_555 1_555
C246 O57 1_555 1_555
O56 C245 1_555 1_555
O57 C235 1_555 1_555
O58 C237 1_555 1_555
O59 C239 1_555 1_555
O60 C241 1_555 1_555
O61 C243 1_555 1_555
C247 C248 1_555 1_555
C248 O62 1_555 1_555
C249 C250 1_555 1_555
C250 O63 1_555 1_555
C251 C252 1_555 1_555
C252 O64 1_555 1_555
C253 C254 1_555 1_555
C254 O65 1_555 1_555
C255 C256 1_555 1_555
C256 O66 1_555 1_555
C257 C258 1_555 1_555
C258 O67 1_555 1_555
O62 C249 1_555 1_555
O63 C251 1_555 1_555
O64 C253 1_555 1_555
O65 C255 1_555 1_555
O66 C257 1_555 1_555
O67 C247 1_555 1_555
C259 C260 1_555 1_555
C260 O71 1_555 1_555
C261 C262 1_555 1_555
C262 O72 1_555 1_555
C263 C264 1_555 1_555
C264 O73 1_555 1_555
C265 C266 1_555 1_555
C266 O74 1_555 1_555
C267 C268 1_555 1_555
C268 O69 1_555 1_555
C269 C270 1_555 1_555
C270 O70 1_555 1_555
O69 C269 1_555 1_555
O70 C259 1_555 1_555
O71 C261 1_555 1_555
O72 C263 1_555 1_555
O73 C265 1_555 1_555
O74 C267 1_555 1_555
C271 H154 1_555 1_555
C272 C271 1_555 1_555
C273 C272 1_555 1_555
H155 C273 1_555 1_555
C274 C273 1_555 1_555
C275 C274 1_555 1_555
H156 C275 1_555 1_555
C276 C271 1_555 1_555
C277 C272 1_555 1_555
C278 C277 1_555 1_555
H157 C278 1_555 1_555
C279 C278 1_555 1_555
H158 C279 1_555 1_555
C280 C279 1_555 1_555
C281 C280 1_555 1_555
H159 C281 1_555 1_555
C282 C277 1_555 1_555
H160 C282 1_555 1_555
C283 N46 1_555 1_555
C284 C285 1_555 1_555
C285 H161 1_555 1_555
C286 C285 1_555 1_555
H162 C286 1_555 1_555
C287 C286 1_555 1_555
H163 C287 1_555 1_555
C288 C287 1_555 1_555
H164 C288 1_555 1_555
C289 C284 1_555 1_555
C290 N48 1_555 1_555
C291 C292 1_555 1_555
C292 H165 1_555 1_555
C293 C292 1_555 1_555
H166 C293 1_555 1_555
C294 C293 1_555 1_555
C295 C294 1_555 1_555
H167 C295 1_555 1_555
C296 C291 1_555 1_555
H168 C296 1_555 1_555
C297 C274 1_555 1_555
C298 C297 1_555 1_555
H169 C298 1_555 1_555
C299 C298 1_555 1_555
H170 C299 1_555 1_555
C300 C299 1_555 1_555
C301 C300 1_555 1_555
H171 C301 1_555 1_555
C302 C297 1_555 1_555
H172 C302 1_555 1_555
C303 N51 1_555 1_555
C304 C305 1_555 1_555
C305 H173 1_555 1_555
C306 C305 1_555 1_555
H174 C306 1_555 1_555
C307 C306 1_555 1_555
H175 C307 1_555 1_555
C308 C307 1_555 1_555
H176 C308 1_555 1_555
C309 C304 1_555 1_555
C310 N53 1_555 1_555
C311 C312 1_555 1_555
C312 H177 1_555 1_555
C313 C312 1_555 1_555
H178 C313 1_555 1_555
C314 C313 1_555 1_555
C315 C314 1_555 1_555
H179 C315 1_555 1_555
C316 C311 1_555 1_555
H180 C316 1_555 1_555
C317 C276 1_555 1_555
C318 C317 1_555 1_555
H181 C318 1_555 1_555
C319 C318 1_555 1_555
H182 C319 1_555 1_555
C320 C319 1_555 1_555
C321 C320 1_555 1_555
H183 C321 1_555 1_555
C322 C317 1_555 1_555
H184 C322 1_555 1_555
C323 N56 1_555 1_555
C324 C325 1_555 1_555
C325 H185 1_555 1_555
C326 C325 1_555 1_555
H186 C326 1_555 1_555
C327 C326 1_555 1_555
H187 C327 1_555 1_555
C328 C327 1_555 1_555
H188 C328 1_555 1_555
C329 C324 1_555 1_555
C330 N58 1_555 1_555
C331 C332 1_555 1_555
C332 H189 1_555 1_555
C333 C332 1_555 1_555
H190 C333 1_555 1_555
C334 C333 1_555 1_555
C335 C334 1_555 1_555
H191 C335 1_555 1_555
C336 C331 1_555 1_555
H192 C336 1_555 1_555
N46 C280 1_555 1_555
H193 N46 1_555 1_555
N47 C283 1_555 1_555
H194 N47 1_555 1_555
N48 C289 1_555 1_555
H195 N48 1_555 1_555
N49 C290 1_555 1_555
H196 N49 1_555 1_555
N50 C294 1_555 1_555
N51 C300 1_555 1_555
H197 N51 1_555 1_555
N52 C303 1_555 1_555
H198 N52 1_555 1_555
N53 C309 1_555 1_555
H199 N53 1_555 1_555
N54 C310 1_555 1_555
H200 N54 1_555 1_555
N55 C314 1_555 1_555
N56 C320 1_555 1_555
H201 N56 1_555 1_555
N57 C323 1_555 1_555
H202 N57 1_555 1_555
N58 C329 1_555 1_555
H203 N58 1_555 1_555
N59 C330 1_555 1_555
H204 N59 1_555 1_555
N60 C334 1_555 1_555
O75 C283 1_555 1_555
O76 C290 1_555 1_555
O77 N50 1_555 1_555
O78 N50 1_555 1_555
O79 C303 1_555 1_555
O80 C310 1_555 1_555
O81 N55 1_555 1_555
O82 N55 1_555 1_555
O83 C323 1_555 1_555
O84 C330 1_555 1_555
O85 N60 1_555 1_555
O86 N60 1_555 1_555
C337 C338 1_555 1_555
C338 O88 1_555 1_555
C339 C340 1_555 1_555
C340 O89 1_555 1_555
C341 C342 1_555 1_555
C342 O90 1_555 1_555
C343 C344 1_555 1_555
C344 O91 1_555 1_555
C345 C346 1_555 1_555
C346 O92 1_555 1_555
C347 C348 1_555 1_555
C348 O87 1_555 1_555
O87 C337 1_555 1_555
O88 C339 1_555 1_555
O89 C341 1_555 1_555
O90 C343 1_555 1_555
O91 C345 1_555 1_555
O92 C347 1_555 1_555
C349 C350 1_555 1_555
C350 O95 1_555 1_555
C351 C352 1_555 1_555
O95 C351 1_555 1_555
C353 C354 1_555 1_555
C354 O96 1_555 1_555
C355 C356 1_555 1_555
O96 C355 1_555 1_555
C357 C358 1_555 1_555
C358 H205 1_555 1_555
H206 C358 1_555 1_555
H207 C358 1_555 1_555
C359 C357 1_555 1_555
H208 C359 1_555 1_555
H209 C359 1_555 1_555
H210 C359 1_555 1_555
O97 C357 1_555 1_555
O98 P1 1_555 1_555
O99 P1 1_555 1_555
O100 P1 1_555 1_555
O101 P1 1_555 1_555
O102 P2 1_555 1_555
O103 P2 1_555 1_555
O104 P2 1_555 1_555
O105 P2 1_555 1_555
O106 P3 1_555 1_555
O107 P3 1_555 1_555
O108 P3 1_555 1_555
O109 P3 1_555 1_555
O110 P4 1_555 1_555
O111 P4 1_555 1_555
O112 P4 1_555 1_555
O113 P4 1_555 1_555
C5 C6 1_555 1_555
C11 C12 1_555 1_555
C14 N2 1_555 1_555
C18 C19 1_555 1_555
C21 N4 1_555 1_555
C25 C26 1_555 1_555
C31 C32 1_555 1_555
C34 N7 1_555 1_555
C38 C39 1_555 1_555
C41 N9 1_555 1_555
C45 C46 1_555 1_555
C51 C52 1_555 1_555
C54 N12 1_555 1_555
C58 C59 1_555 1_555
C61 N14 1_555 1_555
C65 C66 1_555 1_555
C107 C108 1_555 1_555
C113 C114 1_555 1_555
C116 N17 1_555 1_555
C120 C121 1_555 1_555
C123 N19 1_555 1_555
C127 C128 1_555 1_555
C133 C134 1_555 1_555
C136 N22 1_555 1_555
C140 C141 1_555 1_555
C143 N24 1_555 1_555
C147 C148 1_555 1_555
C153 C154 1_555 1_555
C156 N27 1_555 1_555
C160 C161 1_555 1_555
C163 N29 1_555 1_555
C167 C168 1_555 1_555
C173 C174 1_555 1_555
C179 C180 1_555 1_555
C182 N32 1_555 1_555
C186 C187 1_555 1_555
C189 N34 1_555 1_555
C193 C194 1_555 1_555
C199 C200 1_555 1_555
C202 N37 1_555 1_555
C206 C207 1_555 1_555
C209 N39 1_555 1_555
C213 C214 1_555 1_555
C219 C220 1_555 1_555
C222 N42 1_555 1_555
C226 C227 1_555 1_555
C229 N44 1_555 1_555
C233 C234 1_555 1_555
C275 C276 1_555 1_555
C281 C282 1_555 1_555
C284 N47 1_555 1_555
C288 C289 1_555 1_555
C291 N49 1_555 1_555
C295 C296 1_555 1_555
C301 C302 1_555 1_555
C304 N52 1_555 1_555
C308 C309 1_555 1_555
C311 N54 1_555 1_555
C315 C316 1_555 1_555
C321 C322 1_555 1_555
C324 N57 1_555 1_555
C328 C329 1_555 1_555
C331 N59 1_555 1_555
C335 C336 1_555 1_555

#END
