
#######################################################################
#
#                 Cambridge Crystallographic Data Centre
#                                CCDC 
#
#######################################################################
#
# If this CIF has been generated from an entry in the Cambridge 
# Structural Database, then it will include bibliographic, chemical, 
# crystal, experimental, refinement or atomic coordinate data resulting 
# from the CCDC's data processing and validation procedures.
#
#######################################################################

data_VUMMEX
_chemical_formula_moiety         'C22 H28 N16,C1 H2 Cl2'
_chemical_name_systematic        
'2,8,14,20-Tetraethyl-2,4,6,8,10,12,14,16,18,20,22,24,25,27-tetradeca-azapentacyclo[19.3.1.1^3,7^.1^9,13^.1^15,19^]octacosa-1(25),3(28),4,6,9(27),10,12,15(26),16,18,21,23-dodecaene-11,23-diamine dichloromethane solvate'
_symmetry_cell_setting           monoclinic
_symmetry_space_group_name_H-M   'C 2/c'
_symmetry_Int_Tables_number      15
_space_group_name_Hall           '-C 2yn'
loop_
_symmetry_equiv_pos_site_id
_symmetry_equiv_pos_as_xyz
1 x,y,z
2 -x,y,1/2-z
3 1/2+x,1/2+y,z
4 1/2-x,1/2+y,1/2-z
5 -x,-y,-z
6 x,-y,1/2+z
7 1/2-x,1/2-y,-z
8 1/2+x,1/2-y,1/2+z
_cell_length_a                   20.747(4)
_cell_length_b                   7.3036(15)
_cell_length_c                   20.235(4)
_cell_angle_alpha                90
_cell_angle_beta                 111.05(3)
_cell_angle_gamma                90
_cell_volume                     2861.55
_exptl_crystal_colour            colorless
_exptl_crystal_description       block
_cell_formula_units_Z            4
loop_
_atom_site_label
_atom_site_type_symbol
_atom_site_fract_x
_atom_site_fract_y
_atom_site_fract_z
N1 N 0.21816(10) 0.1834(3) 0.07364(10)
H1 H 0.1940 0.1184 0.0931
H2 H 0.2048 0.1911 0.0272
N2 N 0.29354(10) 0.2548(3) 0.18473(10)
N3 N 0.38764(10) 0.4585(3) 0.19569(10)
N4 N 0.31007(10) 0.3690(3) 0.08154(10)
N5 N 0.39745(10) 0.5735(3) 0.09092(10)
N6 N 0.60262(11) 0.5530(3) 0.11358(11)
N7 N 0.48791(11) 0.6691(3) 0.05953(11)
N8 N 0.63325(10) 0.3416(3) 0.20574(10)
C1 C 0.27494(11) 0.2701(3) 0.11431(12)
C2 C 0.34930(12) 0.3505(3) 0.22237(12)
C3 C 0.36412(11) 0.4589(3) 0.12526(12)
C4 C 0.46723(11) 0.5648(3) 0.10316(12)
C5 C 0.51382(12) 0.4517(3) 0.15463(12)
H3 H 0.4995 0.3782 0.1856
C6 C 0.58123(12) 0.4530(3) 0.15794(12)
C7 C 0.55412(13) 0.6549(4) 0.06753(14)
H4 H 0.5686 0.7268 0.0363
C8 C 0.67212(14) 0.2176(4) 0.17529(14)
H5 H 0.6456 0.2046 0.1240
H6 H 0.6744 0.0952 0.1970
C9 C 0.74436(16) 0.2759(5) 0.18466(19)
H7 H 0.7652 0.1852 0.1627
H8 H 0.7720 0.2852 0.2353
H9 H 0.7430 0.3952 0.1621
C10 C 0.35306(12) 0.6916(4) 0.03261(13)
H10 H 0.3045 0.6500 0.0184
H11 H 0.3674 0.6786 -0.0088
C11 C 0.35741(16) 0.8918(4) 0.05402(19)
H12 H 0.3275 0.9648 0.0141
H13 H 0.4052 0.9343 0.0673
H14 H 0.3423 0.9057 0.0944
N1A N 0.78184(10) 0.1834(3) 0.42636(10)
H1A H 0.8060 0.1184 0.4069
H2A H 0.7952 0.1911 0.4728
N2A N 0.70646(10) 0.2548(3) 0.31527(10)
N3A N 0.61236(10) 0.4585(3) 0.30431(10)
N4A N 0.68993(10) 0.3690(3) 0.41846(10)
N5A N 0.60255(10) 0.5735(3) 0.40908(10)
N6A N 0.39738(11) 0.5530(3) 0.38642(11)
N7A N 0.51209(11) 0.6691(3) 0.44047(11)
N8A N 0.36675(10) 0.3416(3) 0.29426(10)
C1A C 0.72506(11) 0.2701(3) 0.38569(12)
C2A C 0.65070(12) 0.3505(3) 0.27763(12)
C3A C 0.63588(11) 0.4589(3) 0.37474(12)
C4A C 0.53277(11) 0.5648(3) 0.39684(12)
C5A C 0.48618(12) 0.4517(3) 0.34537(12)
H3A H 0.5005 0.3782 0.3144
C6A C 0.41877(12) 0.4530(3) 0.34206(12)
C7A C 0.44588(13) 0.6549(4) 0.43247(14)
H4A H 0.4314 0.7268 0.4637
C8A C 0.32788(14) 0.2176(4) 0.32471(14)
H5A H 0.3544 0.2046 0.3760
H6A H 0.3256 0.0952 0.3030
C9A C 0.25564(16) 0.2759(5) 0.31534(19)
H7A H 0.2348 0.1852 0.3373
H8A H 0.2280 0.2852 0.2647
H9A H 0.2570 0.3952 0.3379
C10A C 0.64694(12) 0.6916(4) 0.46739(13)
H10A H 0.6955 0.6500 0.4816
H11A H 0.6326 0.6786 0.5088
C11A C 0.64259(16) 0.8918(4) 0.44598(19)
H12A H 0.6725 0.9648 0.4859
H13A H 0.5948 0.9343 0.4327
H14A H 0.6577 0.9057 0.4056
Cl1 Cl 0.04612(8) 0.46473(18) 0.21064(8)
C12 C 0.0000 0.3355(6) 0.2500
H15 H 0.0316 0.2580 0.2852
Cl1A Cl -0.04612(8) 0.46473(18) 0.28936(8)
H15A H -0.0316 0.2580 0.2148
loop_
_geom_bond_atom_site_label_1
_geom_bond_atom_site_label_2
_geom_bond_site_symmetry_1
_geom_bond_site_symmetry_2
N1 H1 1_555 1_555
H2 N1 1_555 1_555
N2 C1 1_555 1_555
N3 C2 1_555 1_555
N4 C1 1_555 1_555
N5 C3 1_555 1_555
N6 C6 1_555 1_555
N7 C4 1_555 1_555
N8 C6 1_555 1_555
C1 N1 1_555 1_555
C2 N2 1_555 1_555
C3 N3 1_555 1_555
C4 N5 1_555 1_555
C5 C4 1_555 1_555
H3 C5 1_555 1_555
C6 C5 1_555 1_555
C7 N6 1_555 1_555
H4 C7 1_555 1_555
C8 N8 1_555 1_555
H5 C8 1_555 1_555
H6 C8 1_555 1_555
C9 C8 1_555 1_555
H7 C9 1_555 1_555
H8 C9 1_555 1_555
H9 C9 1_555 1_555
C10 N5 1_555 1_555
H10 C10 1_555 1_555
H11 C10 1_555 1_555
C11 C10 1_555 1_555
H12 C11 1_555 1_555
H13 C11 1_555 1_555
H14 C11 1_555 1_555
Cl1 C12 1_555 1_555
C12 H15 1_555 1_555
N1A H1A 1_555 1_555
H2A N1A 1_555 1_555
N2A C1A 1_555 1_555
N3A C2A 1_555 1_555
N4A C1A 1_555 1_555
N5A C3A 1_555 1_555
N6A C6A 1_555 1_555
N7A C4A 1_555 1_555
N8A C2 1_555 1_555
C1A N1A 1_555 1_555
C2A N8 1_555 1_555
C3A N3A 1_555 1_555
C4A N5A 1_555 1_555
C5A C4A 1_555 1_555
H3A C5A 1_555 1_555
C6A N8A 1_555 1_555
C7A N6A 1_555 1_555
H4A C7A 1_555 1_555
C8A N8A 1_555 1_555
H5A C8A 1_555 1_555
H6A C8A 1_555 1_555
C9A C8A 1_555 1_555
H7A C9A 1_555 1_555
H8A C9A 1_555 1_555
H9A C9A 1_555 1_555
C10A N5A 1_555 1_555
H10A C10A 1_555 1_555
H11A C10A 1_555 1_555
C11A C10A 1_555 1_555
H12A C11A 1_555 1_555
H13A C11A 1_555 1_555
H14A C11A 1_555 1_555
Cl1A C12 1_555 1_555
H15A C12 1_555 1_555
N4 C3 1_555 1_555
N7 C7 1_555 1_555
N2A C2A 1_555 1_555
N4A C3A 1_555 1_555
N7A C7A 1_555 1_555
C5A C6A 1_555 1_555

#END
