
#######################################################################
#
#                 Cambridge Crystallographic Data Centre
#                                CCDC 
#
#######################################################################
#
# If this CIF has been generated from an entry in the Cambridge 
# Structural Database, then it will include bibliographic, chemical, 
# crystal, experimental, refinement or atomic coordinate data resulting 
# from the CCDC's data processing and validation procedures.
#
#######################################################################

data_VUMMIB
_chemical_formula_moiety         'C22 H28 N16,C1 H4 O1'
_chemical_name_systematic        
'2,8,14,20-Tetraethyl-2,4,6,8,10,12,14,16,18,20,22,24,25,27-tetradeca-azapentacyclo[19.3.1.1^3,7^.1^9,13^.1^15,19^]octacosa-1(25),3(28),4,6,9(27),10,12,15(26),16,18,21,23-dodecaene-11,23-diamine methanol solvate'
_symmetry_cell_setting           triclinic
_symmetry_space_group_name_H-M   'P -1'
_symmetry_Int_Tables_number      2
_space_group_name_Hall           '-P 1'
loop_
_symmetry_equiv_pos_site_id
_symmetry_equiv_pos_as_xyz
1 x,y,z
2 -x,-y,-z
_cell_length_a                   10.899(4)
_cell_length_b                   11.461(4)
_cell_length_c                   12.045(4)
_cell_angle_alpha                110.717(3)
_cell_angle_beta                 97.594(3)
_cell_angle_gamma                99.275(3)
_cell_volume                     1359.42
_exptl_crystal_colour            colorless
_exptl_crystal_description       plate
_cell_formula_units_Z            2
loop_
_atom_site_label
_atom_site_type_symbol
_atom_site_fract_x
_atom_site_fract_y
_atom_site_fract_z
O1 O 0.37689(15) 0.54715(16) 0.25807(15)
H1 H 0.3979 0.4901 0.2027
C1 C 0.4865(3) 0.6331(3) 0.3375(3)
H2 H 0.4678 0.7175 0.3752
H3 H 0.5540 0.6398 0.2923
H4 H 0.5144 0.6021 0.4006
N1 N 0.34925(19) -0.11850(18) 0.60721(18)
N2 N 0.20257(19) -0.11928(18) 0.43920(18)
N3 N 0.32426(18) 0.07911(18) 0.59182(17)
N4 N 0.2208(2) -0.30487(18) 0.46393(19)
H5 H 0.1616 -0.3464 0.3978
H6 H 0.2549 -0.3471 0.5035
N5 N 0.19508(19) 0.07210(18) 0.41979(17)
N6 N 0.2601(2) 0.26248(19) 0.39251(18)
N7 N 0.22872(19) 0.46210(18) 0.52633(18)
N8 N 0.12452(19) 0.47512(18) 0.68456(18)
N9 N -0.03653(18) 0.42582(18) 0.77908(17)
N10 N 0.00316(17) 0.33773(18) 0.93019(17)
N11 N 0.16832(18) 0.38877(18) 0.83068(17)
N12 N -0.19442(18) 0.36652(19) 0.86905(18)
H7 H -0.2228 0.3342 0.9195
H8 H -0.2463 0.3917 0.8244
N13 N 0.20549(17) 0.31621(18) 0.98577(17)
N14 N 0.42751(19) 0.3664(2) 1.05058(18)
N15 N 0.55835(19) 0.2473(2) 0.93216(18)
N16 N 0.47124(18) 0.07473(19) 0.74985(18)
C2 C 0.3747(2) 0.0079(2) 0.6445(2)
C3 C 0.2588(2) -0.1779(2) 0.5042(2)
C4 C 0.2413(2) 0.0082(2) 0.4871(2)
C5 C 0.1150(2) 0.0029(2) 0.2979(2)
H9 H 0.1220 -0.0876 0.2680
H10 H 0.1456 0.0410 0.2418
C6 C -0.0219(3) 0.0085(3) 0.2986(3)
H11 H -0.0717 -0.0324 0.2154
H12 H -0.0284 0.0981 0.3330
H13 H -0.0547 -0.0365 0.3480
C7 C 0.2132(2) 0.2076(2) 0.4645(2)
C8 C 0.2662(2) 0.3870(2) 0.4296(2)
H14 H 0.3017 0.4284 0.3816
C9 C 0.1788(2) 0.4035(2) 0.5944(2)
C10 C 0.1729(2) 0.2733(2) 0.5666(2)
H15 H 0.1422 0.2322 0.6167
C11 C 0.0914(2) 0.5951(2) 0.6854(2)
H16 H 0.0053 0.5965 0.7029
H17 H 0.0897 0.5981 0.6041
C12 C 0.1843(3) 0.7110(3) 0.7782(3)
H18 H 0.1605 0.7885 0.7741
H19 H 0.2698 0.7095 0.7618
H20 H 0.1830 0.7107 0.8593
C13 C 0.0827(2) 0.4265(2) 0.7694(2)
C14 C -0.0735(2) 0.3773(2) 0.8604(2)
C15 C 0.1221(2) 0.3474(2) 0.9122(2)
C16 C 0.1678(2) 0.2904(2) 1.0901(2)
H21 H 0.1183 0.3527 1.1296
H22 H 0.2452 0.3032 1.1501
C17 C 0.0894(3) 0.1563(2) 1.0535(3)
H23 H 0.0669 0.1442 1.1254
H24 H 0.1387 0.0941 1.0160
H25 H 0.0118 0.1436 0.9953
C18 C 0.3260(2) 0.2974(2) 0.9606(2)
C19 C 0.5377(2) 0.3380(2) 1.0281(2)
H26 H 0.6108 0.3892 1.0884
C20 C 0.4549(2) 0.1784(2) 0.8443(2)
C21 C 0.3360(2) 0.2062(2) 0.8548(2)
H27 H 0.2642 0.1629 0.7904
C22 C 0.5817(2) 0.0181(3) 0.7644(2)
H28 H 0.6599 0.0871 0.7957
H29 H 0.5879 -0.0420 0.6839
C23 C 0.5753(3) -0.0524(3) 0.8493(3)
H30 H 0.6469 -0.0943 0.8491
H31 H 0.4953 -0.1171 0.8221
H32 H 0.5794 0.0085 0.9316
loop_
_geom_bond_atom_site_label_1
_geom_bond_atom_site_label_2
_geom_bond_site_symmetry_1
_geom_bond_site_symmetry_2
O1 H1 1_555 1_555
C1 O1 1_555 1_555
H2 C1 1_555 1_555
H3 C1 1_555 1_555
H4 C1 1_555 1_555
N1 C2 1_555 1_555
N2 C3 1_555 1_555
N3 C2 1_555 1_555
N4 H5 1_555 1_555
H6 N4 1_555 1_555
N5 C4 1_555 1_555
N6 C7 1_555 1_555
N7 C8 1_555 1_555
N8 C9 1_555 1_555
N9 C13 1_555 1_555
N10 C14 1_555 1_555
N11 C13 1_555 1_555
N12 H7 1_555 1_555
H8 N12 1_555 1_555
N13 C15 1_555 1_555
N14 C18 1_555 1_555
N15 C19 1_555 1_555
N16 C2 1_555 1_555
C3 N1 1_555 1_555
C4 N2 1_555 1_555
C5 N5 1_555 1_555
H9 C5 1_555 1_555
H10 C5 1_555 1_555
C6 C5 1_555 1_555
H11 C6 1_555 1_555
H12 C6 1_555 1_555
H13 C6 1_555 1_555
C7 N5 1_555 1_555
C8 N6 1_555 1_555
H14 C8 1_555 1_555
C9 N7 1_555 1_555
C10 C7 1_555 1_555
H15 C10 1_555 1_555
C11 N8 1_555 1_555
H16 C11 1_555 1_555
H17 C11 1_555 1_555
C12 C11 1_555 1_555
H18 C12 1_555 1_555
H19 C12 1_555 1_555
H20 C12 1_555 1_555
C13 N8 1_555 1_555
C14 N9 1_555 1_555
C15 N10 1_555 1_555
C16 N13 1_555 1_555
H21 C16 1_555 1_555
H22 C16 1_555 1_555
C17 C16 1_555 1_555
H23 C17 1_555 1_555
H24 C17 1_555 1_555
H25 C17 1_555 1_555
C18 N13 1_555 1_555
C19 N14 1_555 1_555
H26 C19 1_555 1_555
C20 N15 1_555 1_555
C21 C18 1_555 1_555
H27 C21 1_555 1_555
C22 N16 1_555 1_555
H28 C22 1_555 1_555
H29 C22 1_555 1_555
C23 C22 1_555 1_555
H30 C23 1_555 1_555
H31 C23 1_555 1_555
H32 C23 1_555 1_555
N3 C4 1_555 1_555
N4 C3 1_555 1_555
N11 C15 1_555 1_555
N12 C14 1_555 1_555
N16 C20 1_555 1_555
C9 C10 1_555 1_555
C20 C21 1_555 1_555

#END
