
#######################################################################
#
#                 Cambridge Crystallographic Data Centre
#                                CCDC 
#
#######################################################################
#
# If this CIF has been generated from an entry in the Cambridge 
# Structural Database, then it will include bibliographic, chemical, 
# crystal, experimental, refinement or atomic coordinate data resulting 
# from the CCDC's data processing and validation procedures.
#
#######################################################################

data_VUMMOH
_chemical_formula_moiety         'C22 H28 N16'
_chemical_name_systematic        
2,8,14,20-Tetraethyl-2,4,6,8,10,12,14,16,18,20,22,24,25,27-tetradeca-azapentacyclo[19.3.1.1^3,7^.1^9,13^.1^15,19^]octacosa-1(25),3(28),4,6,9(27),10,12,15(26),16,18,21,23-dodecaene-11,23-diamine
_symmetry_cell_setting           orthorhombic
_symmetry_space_group_name_H-M   'P n a 21'
_symmetry_Int_Tables_number      33
_space_group_name_Hall           'P 2c -2n'
loop_
_symmetry_equiv_pos_site_id
_symmetry_equiv_pos_as_xyz
1 x,y,z
2 -x,-y,1/2+z
3 1/2+x,1/2-y,z
4 1/2-x,1/2+y,1/2+z
_cell_length_a                   10.9765(2)
_cell_length_b                   11.9962(2)
_cell_length_c                   19.1835(3)
_cell_angle_alpha                90
_cell_angle_beta                 90
_cell_angle_gamma                90
_cell_volume                     2526.01
_exptl_crystal_colour            colorless
_exptl_crystal_description       plate
_cell_formula_units_Z            4
loop_
_atom_site_label
_atom_site_type_symbol
_atom_site_fract_x
_atom_site_fract_y
_atom_site_fract_z
N1 N 0.2434(2) 1.4516(2) 0.34057(14)
N2 N -0.0517(2) 1.0772(2) 0.19637(13)
N3 N 0.3429(3) 0.6667(2) 0.18647(15)
H1 H 0.3472 0.6695 0.1407
H2 H 0.3737 0.6095 0.2091
N4 N 0.2369(3) 1.0824(2) 0.53510(14)
N5 N 0.4165(2) 1.5438(2) 0.37137(15)
H3 H 0.4862 1.5485 0.3939
H4 H 0.3915 1.5997 0.3454
N6 N -0.0800(2) 1.2524(2) 0.25246(14)
N7 N 0.2456(3) 0.8329(2) 0.18234(13)
N8 N 0.3907(2) 1.3693(2) 0.41676(15)
N9 N 0.3528(2) 1.1940(2) 0.46177(14)
N10 N 0.0777(2) 1.3493(2) 0.30461(13)
N11 N 0.2157(2) 1.2645(2) 0.38007(13)
N12 N 0.1710(3) 0.8994(2) 0.50101(14)
N13 N 0.1404(2) 0.9983(2) 0.18193(13)
N14 N 0.2105(2) 0.8241(2) 0.39378(13)
N15 N 0.2841(3) 0.7427(2) 0.29164(13)
N16 N 0.1812(2) 0.9186(2) 0.28899(13)
C1 C 0.1475(7) 1.1054(4) 0.0707(3)
H5 H 0.0806 1.1542 0.0853
H6 H 0.1456 1.0965 0.0200
H7 H 0.2254 1.1385 0.0846
C2 C 0.0546(4) 1.4941(3) 0.2121(2)
H8 H 0.1424 1.5089 0.2116
H9 H 0.0103 1.5625 0.2005
H10 H 0.0354 1.4362 0.1778
C3 C 0.0364(3) 0.7008(3) 0.4210(2)
H11 H -0.0020 0.7587 0.4496
H12 H 0.0152 0.6272 0.4396
H13 H 0.0072 0.7069 0.3729
C4 C 0.1839(3) 0.9842(3) 0.54564(17)
H14 H 0.1509 0.9727 0.5909
C5 C 0.1334(3) 0.9926(3) 0.10510(17)
H15 H 0.0539 0.9603 0.0915
H16 H 0.1981 0.9422 0.0878
C6 C 0.2692(3) 1.0191(3) 0.41916(17)
H17 H 0.2969 1.0336 0.3731
C7 C 0.1727(3) 0.7154(3) 0.42251(17)
H18 H 0.2018 0.7092 0.4712
H19 H 0.2112 0.6550 0.3951
C8 C 0.5343(3) 1.1139(3) 0.52022(19)
H20 H 0.4883 1.0481 0.5352
H21 H 0.5985 1.1300 0.5543
H22 H 0.5712 1.0995 0.4746
C9 C 0.1157(3) 1.1637(2) 0.25556(16)
H23 H 0.1978 1.1610 0.2711
C10 C 0.2806(3) 1.0967(3) 0.47061(17)
C11 C 0.4494(3) 1.2128(3) 0.51493(19)
H24 H 0.4109 1.2262 0.5609
H25 H 0.4968 1.2800 0.5023
C12 C 0.0170(3) 1.4549(3) 0.28406(18)
H26 H 0.0374 1.5134 0.3185
H27 H -0.0723 1.4439 0.2849
C13 C 0.0371(3) 1.2524(3) 0.27321(14)
C14 C 0.3181(3) 1.2793(3) 0.41783(16)
C15 C 0.2151(3) 0.9168(3) 0.43666(15)
C16 C 0.3489(3) 1.4520(3) 0.37668(16)
C17 C 0.1925(3) 0.9140(3) 0.21905(17)
C18 C 0.2283(3) 0.8295(3) 0.32068(16)
C19 C 0.2897(3) 0.7493(3) 0.22153(17)
C20 C 0.1859(3) 1.3544(3) 0.34359(15)
C21 C -0.1169(3) 1.1643(3) 0.21692(17)
H28 H -0.2006 1.1632 0.2045
C22 C 0.0657(3) 1.0811(3) 0.21431(15)
C23? C 0.2318(18) 1.0736(16) 0.0802(10)
H29? H 0.2280 1.1421 0.1079
H30? H 0.2182 1.0915 0.0310
H31? H 0.3121 1.0391 0.0858
loop_
_geom_bond_atom_site_label_1
_geom_bond_atom_site_label_2
_geom_bond_site_symmetry_1
_geom_bond_site_symmetry_2
N1 C16 1_555 1_555
N2 C21 1_555 1_555
N3 H1 1_555 1_555
H2 N3 1_555 1_555
N4 C4 1_555 1_555
N5 H3 1_555 1_555
H4 N5 1_555 1_555
N6 C13 1_555 1_555
N7 C17 1_555 1_555
N8 C14 1_555 1_555
N9 C10 1_555 1_555
N10 C12 1_555 1_555
N11 C14 1_555 1_555
N12 C4 1_555 1_555
N13 C5 1_555 1_555
N14 C7 1_555 1_555
N15 C18 1_555 1_555
N16 C17 1_555 1_555
C1 H5 1_555 1_555
H6 C1 1_555 1_555
H7 C1 1_555 1_555
C2 H8 1_555 1_555
H9 C2 1_555 1_555
H10 C2 1_555 1_555
C3 H11 1_555 1_555
H12 C3 1_555 1_555
H13 C3 1_555 1_555
C4 H14 1_555 1_555
C5 C1 1_555 1_555
H15 C5 1_555 1_555
H16 C5 1_555 1_555
C6 H17 1_555 1_555
C7 C3 1_555 1_555
H18 C7 1_555 1_555
H19 C7 1_555 1_555
C8 H20 1_555 1_555
H21 C8 1_555 1_555
H22 C8 1_555 1_555
C9 H23 1_555 1_555
C10 N4 1_555 1_555
C11 N9 1_555 1_555
H24 C11 1_555 1_555
H25 C11 1_555 1_555
C12 C2 1_555 1_555
H26 C12 1_555 1_555
H27 C12 1_555 1_555
C13 N10 1_555 1_555
C14 N9 1_555 1_555
C15 N12 1_555 1_555
C16 N5 1_555 1_555
C17 N13 1_555 1_555
C18 N14 1_555 1_555
C19 N3 1_555 1_555
C20 N1 1_555 1_555
C21 N6 1_555 1_555
H28 C21 1_555 1_555
C22 N2 1_555 1_555
N7 C19 1_555 1_555
N8 C16 1_555 1_555
N10 C20 1_555 1_555
N11 C20 1_555 1_555
N13 C22 1_555 1_555
N14 C15 1_555 1_555
N15 C19 1_555 1_555
N16 C18 1_555 1_555
C6 C10 1_555 1_555
C6 C15 1_555 1_555
C8 C11 1_555 1_555
C9 C13 1_555 1_555
C9 C22 1_555 1_555

#END
