
#######################################################################
#
#                 Cambridge Crystallographic Data Centre
#                                CCDC 
#
#######################################################################
#
# If this CIF has been generated from an entry in the Cambridge 
# Structural Database, then it will include bibliographic, chemical, 
# crystal, experimental, refinement or atomic coordinate data resulting 
# from the CCDC's data processing and validation procedures.
#
#######################################################################

data_VUMTAY
_chemical_formula_moiety         'C13 H19 N1 O6 S1'
_chemical_name_systematic        
(6R,7R,8S,8aS)-6,7,8-Trihydroxyperhydro(1,3)thiazolo(3,2-a)pyridine
_symmetry_cell_setting           trigonal
_symmetry_space_group_name_H-M   'P 31 2 1'
_symmetry_Int_Tables_number      152
_space_group_name_Hall           'P 31 2"'
loop_
_symmetry_equiv_pos_site_id
_symmetry_equiv_pos_as_xyz
1 x,y,z
2 -y,x-y,1/3+z
3 -x+y,-x,2/3+z
4 y,x,-z
5 x-y,-y,2/3-z
6 -x,-x+y,1/3-z
_cell_length_a                   8.484(4)
_cell_length_b                   8.484(4)
_cell_length_c                   37.287(9)
_cell_angle_alpha                90
_cell_angle_beta                 90
_cell_angle_gamma                120
_cell_volume                     2324.29
_chemical_melting_point          107-108deg.C
_cell_formula_units_Z            6
loop_
_atom_site_label
_atom_site_type_symbol
_atom_site_fract_x
_atom_site_fract_y
_atom_site_fract_z
S1 S 0.4763(3) 0.4152(3) 0.0502(1)
C1 C 0.6927(11) 0.5933(12) 0.0673(3)
C2 C 0.6789(11) 0.7662(12) 0.0732(3)
N1 N 0.4857(8) 0.7083(8) 0.0777(2)
C3 C 0.4271(11) 0.6365(10) 0.1153(2)
C4 C 0.2235(10) 0.5622(9) 0.1199(2)
C5 C 0.1179(9) 0.4143(9) 0.0917(2)
C6 C 0.1825(9) 0.4853(9) 0.0539(2)
C7 C 0.3881(10) 0.5785(9) 0.0502(2)
O1 O 0.1800(7) 0.7086(7) 0.1120(1)
C8 C 0.1938(9) 0.8132(10) 0.1397(2)
O2 O 0.2408(9) 0.7972(9) 0.1687(2)
C9 C 0.1497(11) 0.9544(11) 0.1284(2)
O3 O -0.0733(7) 0.3543(7) 0.0931(2)
C10 C -0.1786(10) 0.2100(9) 0.1135(2)
O4 O -0.1197(9) 0.1348(10) 0.1313(2)
C11 C -0.3765(12) 0.1570(12) 0.1104(4)
O5 O 0.0986(7) 0.3383(8) 0.0298(2)
C12 C 0.0128(11) 0.3579(12) 0.0016(2)
O6 O -0.0047(17) 0.4844(15) -0.0038(3)
C13 C -0.0679(12) 0.1863(14) -0.0221(3)
H1 H 0.791 0.620 0.049
H2 H 0.722 0.554 0.090
H3 H 0.730 0.849 0.052
H4 H 0.748 0.831 0.095
H5 H 0.455 0.537 0.120
H6 H 0.495 0.737 0.133
H7 H 0.190 0.515 0.145
H8 H 0.140 0.311 0.097
H9 H 0.148 0.580 0.048
H10 H 0.410 0.641 0.027
H11 H 0.161 1.032 0.150
H12 H 0.022 0.894 0.119
H13 H 0.236 1.032 0.109
H14 H -0.451 0.048 0.126
H15 H -0.418 0.127 0.085
H16 H -0.392 0.260 0.119
H17 H -0.131 0.201 -0.043
H18 H -0.157 0.080 -0.007
H19 H 0.032 0.165 -0.030
loop_
_geom_bond_atom_site_label_1
_geom_bond_atom_site_label_2
_geom_bond_site_symmetry_1
_geom_bond_site_symmetry_2
S1 C1 1_555 1_555
C1 C2 1_555 1_555
C2 N1 1_555 1_555
N1 C3 1_555 1_555
C3 C4 1_555 1_555
C4 C5 1_555 1_555
C5 C6 1_555 1_555
C6 C7 1_555 1_555
C7 S1 1_555 1_555
O1 C4 1_555 1_555
C8 O1 1_555 1_555
O2 C8 1_555 1_555
C9 C8 1_555 1_555
O3 C5 1_555 1_555
C10 O3 1_555 1_555
O4 C10 1_555 1_555
C11 C10 1_555 1_555
O5 C6 1_555 1_555
C12 O5 1_555 1_555
O6 C12 1_555 1_555
C13 C12 1_555 1_555
H1 C1 1_555 1_555
H2 C1 1_555 1_555
H3 C2 1_555 1_555
H4 C2 1_555 1_555
H5 C3 1_555 1_555
H6 C3 1_555 1_555
H7 C4 1_555 1_555
H8 C5 1_555 1_555
H9 C6 1_555 1_555
H10 C7 1_555 1_555
H11 C9 1_555 1_555
H12 C9 1_555 1_555
H13 C9 1_555 1_555
H14 C11 1_555 1_555
H15 C11 1_555 1_555
H16 C11 1_555 1_555
H17 C13 1_555 1_555
H18 C13 1_555 1_555
H19 C13 1_555 1_555
N1 C7 1_555 1_555

#END
