
#######################################################################
#
#                 Cambridge Crystallographic Data Centre
#                                CCDC 
#
#######################################################################
#
# If this CIF has been generated from an entry in the Cambridge 
# Structural Database, then it will include bibliographic, chemical, 
# crystal, experimental, refinement or atomic coordinate data resulting 
# from the CCDC's data processing and validation procedures.
#
#######################################################################

data_VUNQAX
_chemical_formula_moiety         'C56 H50 N4 O2'
_chemical_name_systematic        
5,12-bis(6-(9H-carbazol-9-yl)hexyl)-5,12-dihydroquino[2,3-b]acridine-7,14-dione
_symmetry_cell_setting           monoclinic
_symmetry_space_group_name_H-M   'P 21/c'
_symmetry_Int_Tables_number      14
_space_group_name_Hall           '-P 2ybc'
loop_
_symmetry_equiv_pos_site_id
_symmetry_equiv_pos_as_xyz
1 x,y,z
2 -x,1/2+y,1/2-z
3 -x,-y,-z
4 x,1/2-y,1/2+z
_cell_length_a                   13.926(3)
_cell_length_b                   9.1267(18)
_cell_length_c                   16.325(3)
_cell_angle_alpha                90
_cell_angle_beta                 95.47(3)
_cell_angle_gamma                90
_cell_volume                     2065.43
_exptl_crystal_colour            red
_exptl_crystal_description       block
_cell_formula_units_Z            2
loop_
_atom_site_label
_atom_site_type_symbol
_atom_site_fract_x
_atom_site_fract_y
_atom_site_fract_z
C1 C 0.3980(5) 0.3721(7) -0.0286(4)
C2 C 0.3445(5) 0.5004(8) -0.0170(4)
H1 H 0.3085 0.5076 0.0280
C3 C 0.3450(5) 0.6135(8) -0.0709(4)
H2 H 0.3095 0.6974 -0.0623
C4 C 0.3978(5) 0.6055(8) -0.1385(4)
H3 H 0.3990 0.6843 -0.1745
C5 C 0.4477(4) 0.4808(8) -0.1517(4)
H4 H 0.4813 0.4738 -0.1981
C6 C 0.4496(5) 0.3638(7) -0.0972(4)
C7 C 0.5047(5) 0.2337(7) -0.1130(4)
C8 C 0.5013(4) 0.1146(7) -0.0547(4)
C9 C 0.5513(4) -0.0124(7) -0.0672(4)
H5 H 0.5866 -0.0185 -0.1127
C10 C 0.4490(4) 0.1307(7) 0.0149(4)
C11 C 0.3589(4) 0.2756(7) 0.1067(4)
H6 H 0.3556 0.3791 0.1198
H7 H 0.4015 0.2294 0.1496
C12 C 0.2588(4) 0.2097(8) 0.1074(4)
H8 H 0.2106 0.2805 0.0866
H9 H 0.2530 0.1241 0.0720
C13 C 0.2424(5) 0.1673(8) 0.1928(4)
H10 H 0.2476 0.2548 0.2267
H11 H 0.2939 0.1017 0.2134
C14 C 0.1463(5) 0.0935(8) 0.2043(4)
H12 H 0.0951 0.1660 0.2005
H13 H 0.1315 0.0215 0.1612
C15 C 0.1522(5) 0.0203(8) 0.2864(4)
H14 H 0.1635 0.0952 0.3284
H15 H 0.2080 -0.0438 0.2908
C16 C 0.0657(5) -0.0681(8) 0.3053(5)
H16 H 0.0529 -0.1420 0.2630
H17 H 0.0808 -0.1185 0.3573
C17 C -0.1012(5) 0.0098(7) 0.2561(4)
C18 C -0.1160(7) -0.0642(8) 0.1815(5)
H18 H -0.0664 -0.1163 0.1606
C19 C -0.2071(8) -0.0576(8) 0.1394(5)
H19 H -0.2191 -0.1062 0.0894
C20 C -0.2801(6) 0.0200(10) 0.1706(6)
H20 H -0.3408 0.0215 0.1414
C21 C -0.2662(6) 0.0940(8) 0.2423(6)
H21 H -0.3165 0.1467 0.2619
C22 C -0.1771(5) 0.0907(7) 0.2860(4)
C23 C -0.1364(5) 0.1540(7) 0.3612(4)
C24 C -0.1730(6) 0.2480(8) 0.4193(5)
H22 H -0.2367 0.2799 0.4130
C25 C -0.1113(9) 0.2904(9) 0.4851(5)
H23 H -0.1332 0.3539 0.5238
C26 C -0.0166(8) 0.2409(10) 0.4958(5)
H24 H 0.0236 0.2717 0.5413
C27 C 0.0180(6) 0.1484(9) 0.4409(5)
H25 H 0.0811 0.1138 0.4486
C28 C -0.0413(6) 0.1075(8) 0.3744(4)
N1 N -0.0212(4) 0.0194(6) 0.3103(3)
N2 N 0.4008(4) 0.2598(5) 0.0282(3)
O1 O 0.5515(4) 0.2234(5) -0.1736(3)
C1B C 0.6020(5) -0.3721(7) 0.0286(4)
C2B C 0.6555(5) -0.5004(8) 0.0170(4)
H1B H 0.6915 -0.5076 -0.0280
C3B C 0.6550(5) -0.6135(8) 0.0709(4)
H2B H 0.6905 -0.6974 0.0623
C4B C 0.6022(5) -0.6055(8) 0.1385(4)
H3B H 0.6010 -0.6843 0.1745
C5B C 0.5523(4) -0.4808(8) 0.1517(4)
H4B H 0.5187 -0.4738 0.1981
C6B C 0.5504(5) -0.3638(7) 0.0972(4)
C7B C 0.4953(5) -0.2337(7) 0.1130(4)
C8B C 0.4987(4) -0.1146(7) 0.0547(4)
C9B C 0.4487(4) 0.0124(7) 0.0672(4)
H5B H 0.4134 0.0185 0.1127
C10B C 0.5510(4) -0.1307(7) -0.0149(4)
C11B C 0.6411(4) -0.2756(7) -0.1067(4)
H6B H 0.6444 -0.3791 -0.1198
H7B H 0.5985 -0.2294 -0.1496
C12B C 0.7412(4) -0.2097(8) -0.1074(4)
H8B H 0.7894 -0.2805 -0.0866
H9B H 0.7470 -0.1241 -0.0720
C13B C 0.7576(5) -0.1673(8) -0.1928(4)
H10B H 0.7524 -0.2548 -0.2267
H11B H 0.7061 -0.1017 -0.2134
C14B C 0.8537(5) -0.0935(8) -0.2043(4)
H12B H 0.9049 -0.1660 -0.2005
H13B H 0.8685 -0.0215 -0.1612
C15B C 0.8478(5) -0.0203(8) -0.2864(4)
H14B H 0.8365 -0.0952 -0.3284
H15B H 0.7920 0.0438 -0.2908
C16B C 0.9343(5) 0.0681(8) -0.3053(5)
H16B H 0.9471 0.1420 -0.2630
H17B H 0.9192 0.1185 -0.3573
C17B C 1.1012(5) -0.0098(7) -0.2561(4)
C18B C 1.1160(7) 0.0642(8) -0.1815(5)
H18B H 1.0664 0.1163 -0.1606
C19B C 1.2071(8) 0.0576(8) -0.1394(5)
H19B H 1.2191 0.1062 -0.0894
C20B C 1.2801(6) -0.0200(10) -0.1706(6)
H20B H 1.3408 -0.0215 -0.1414
C21B C 1.2662(6) -0.0940(8) -0.2423(6)
H21B H 1.3165 -0.1467 -0.2619
C22B C 1.1771(5) -0.0907(7) -0.2860(4)
C23B C 1.1364(5) -0.1540(7) -0.3612(4)
C24B C 1.1730(6) -0.2480(8) -0.4193(5)
H22B H 1.2367 -0.2799 -0.4130
C25B C 1.1113(9) -0.2904(9) -0.4851(5)
H23B H 1.1332 -0.3539 -0.5238
C26B C 1.0166(8) -0.2409(10) -0.4958(5)
H24B H 0.9764 -0.2717 -0.5413
C27B C 0.9820(6) -0.1484(9) -0.4409(5)
H25B H 0.9189 -0.1138 -0.4486
C28B C 1.0413(6) -0.1075(8) -0.3744(4)
N1B N 1.0212(4) -0.0194(6) -0.3103(3)
N2B N 0.5992(4) -0.2598(5) -0.0282(3)
O1B O 0.4485(4) -0.2234(5) 0.1736(3)
loop_
_geom_bond_atom_site_label_1
_geom_bond_atom_site_label_2
_geom_bond_site_symmetry_1
_geom_bond_site_symmetry_2
C1 C2 1_555 1_555
C2 H1 1_555 1_555
C3 C2 1_555 1_555
H2 C3 1_555 1_555
C4 C3 1_555 1_555
H3 C4 1_555 1_555
C5 C4 1_555 1_555
H4 C5 1_555 1_555
C6 C1 1_555 1_555
C7 C6 1_555 1_555
C8 C7 1_555 1_555
C9 C8 1_555 1_555
H5 C9 1_555 1_555
C10 C8 1_555 1_555
C11 H6 1_555 1_555
H7 C11 1_555 1_555
C12 C11 1_555 1_555
H8 C12 1_555 1_555
H9 C12 1_555 1_555
C13 C12 1_555 1_555
H10 C13 1_555 1_555
H11 C13 1_555 1_555
C14 C13 1_555 1_555
H12 C14 1_555 1_555
H13 C14 1_555 1_555
C15 C14 1_555 1_555
H14 C15 1_555 1_555
H15 C15 1_555 1_555
C16 C15 1_555 1_555
H16 C16 1_555 1_555
H17 C16 1_555 1_555
C17 C18 1_555 1_555
C18 H18 1_555 1_555
C19 C18 1_555 1_555
H19 C19 1_555 1_555
C20 C19 1_555 1_555
H20 C20 1_555 1_555
C21 C20 1_555 1_555
H21 C21 1_555 1_555
C22 C17 1_555 1_555
C23 C22 1_555 1_555
C24 C23 1_555 1_555
H22 C24 1_555 1_555
C25 C24 1_555 1_555
H23 C25 1_555 1_555
C26 C25 1_555 1_555
H24 C26 1_555 1_555
C27 C26 1_555 1_555
H25 C27 1_555 1_555
C28 C23 1_555 1_555
N1 C16 1_555 1_555
N2 C1 1_555 1_555
O1 C7 1_555 1_555
C1B C2B 1_555 1_555
C2B H1B 1_555 1_555
C3B C2B 1_555 1_555
H2B C3B 1_555 1_555
C4B C3B 1_555 1_555
H3B C4B 1_555 1_555
C5B C4B 1_555 1_555
H4B C5B 1_555 1_555
C6B C1B 1_555 1_555
C7B C6B 1_555 1_555
C8B C7B 1_555 1_555
C9B C10 1_555 1_555
H5B C9B 1_555 1_555
C10B C9 1_555 1_555
C11B H6B 1_555 1_555
H7B C11B 1_555 1_555
C12B C11B 1_555 1_555
H8B C12B 1_555 1_555
H9B C12B 1_555 1_555
C13B C12B 1_555 1_555
H10B C13B 1_555 1_555
H11B C13B 1_555 1_555
C14B C13B 1_555 1_555
H12B C14B 1_555 1_555
H13B C14B 1_555 1_555
C15B C14B 1_555 1_555
H14B C15B 1_555 1_555
H15B C15B 1_555 1_555
C16B C15B 1_555 1_555
H16B C16B 1_555 1_555
H17B C16B 1_555 1_555
C17B C18B 1_555 1_555
C18B H18B 1_555 1_555
C19B C18B 1_555 1_555
H19B C19B 1_555 1_555
C20B C19B 1_555 1_555
H20B C20B 1_555 1_555
C21B C20B 1_555 1_555
H21B C21B 1_555 1_555
C22B C17B 1_555 1_555
C23B C22B 1_555 1_555
C24B C23B 1_555 1_555
H22B C24B 1_555 1_555
C25B C24B 1_555 1_555
H23B C25B 1_555 1_555
C26B C25B 1_555 1_555
H24B C26B 1_555 1_555
C27B C26B 1_555 1_555
H25B C27B 1_555 1_555
C28B C23B 1_555 1_555
N1B C16B 1_555 1_555
N2B C1B 1_555 1_555
O1B C7B 1_555 1_555
C5 C6 1_555 1_555
C10 N2 1_555 1_555
C11 N2 1_555 1_555
C17 N1 1_555 1_555
C21 C22 1_555 1_555
C27 C28 1_555 1_555
C28 N1 1_555 1_555
C5B C6B 1_555 1_555
C8B C9B 1_555 1_555
C8B C10B 1_555 1_555
C10B N2B 1_555 1_555
C11B N2B 1_555 1_555
C17B N1B 1_555 1_555
C21B C22B 1_555 1_555
C27B C28B 1_555 1_555
C28B N1B 1_555 1_555

#END
