
#######################################################################
#
#                 Cambridge Crystallographic Data Centre
#                                CCDC 
#
#######################################################################
#
# If this CIF has been generated from an entry in the Cambridge 
# Structural Database, then it will include bibliographic, chemical, 
# crystal, experimental, refinement or atomic coordinate data resulting 
# from the CCDC's data processing and validation procedures.
#
#######################################################################

data_VUNSAZ02
_chemical_formula_moiety         'C2 H6 N5 1+,H2 O4 P1 1-'
_chemical_name_systematic        
'3,5-diamino-4H-1,2,4-triazol-1-ium dihydrogen phosphate'
_symmetry_cell_setting           orthorhombic
_symmetry_space_group_name_H-M   'F d d 2'
_symmetry_Int_Tables_number      43
_space_group_name_Hall           'F 2 -2d'
loop_
_symmetry_equiv_pos_site_id
_symmetry_equiv_pos_as_xyz
1 x,y,z
2 -x,-y,z
3 1/4+x,1/4-y,1/4+z
4 1/4-x,1/4+y,1/4+z
5 x,1/2+y,1/2+z
6 -x,1/2-y,1/2+z
7 1/4+x,3/4-y,3/4+z
8 1/4-x,3/4+y,3/4+z
9 1/2+x,y,1/2+z
10 1/2-x,-y,1/2+z
11 3/4+x,1/4-y,3/4+z
12 3/4-x,1/4+y,3/4+z
13 1/2+x,1/2+y,z
14 1/2-x,1/2-y,z
15 3/4+x,3/4-y,1/4+z
16 3/4-x,3/4+y,1/4+z
_cell_length_a                   37.1049(10)
_cell_length_b                   13.3329(3)
_cell_length_c                   6.07102(16)
_cell_angle_alpha                90
_cell_angle_beta                 90
_cell_angle_gamma                90
_cell_volume                     3003.43
_cell_formula_units_Z            16
loop_
_atom_site_label
_atom_site_type_symbol
_atom_site_fract_x
_atom_site_fract_y
_atom_site_fract_z
P1 P 0.72915(2) 0.60809(5) 0.25640(11)
O1 O 0.70385(5) 0.69534(13) 0.2958(4)
O2 O 0.71729(5) 0.51053(15) 0.3569(3)
O3 O 0.73293(5) 0.60109(15) 0.0015(4)
H1 H 0.7479 0.5583 -0.0298
O4 O 0.76779(5) 0.62929(16) 0.3520(4)
H2 H 0.7755 0.6822 0.3014
N1 N 0.66190(6) 0.45644(18) 0.9991(5)
H3 H 0.6851 0.4559 0.9987
H4 H 0.6504 0.4516 1.1215
N2 N 0.60766(6) 0.46508(17) 0.7921(4)
H5 H 0.5923 0.4603 0.8977
N3 N 0.62920(6) 0.47932(18) 0.4519(4)
N4 N 0.65694(6) 0.47283(19) 0.6094(4)
H6 H 0.6795 0.4740 0.5780
N5 N 0.56565(6) 0.48099(19) 0.4990(5)
H7 H 0.5614 0.4889 0.3608
H8 H 0.5480 0.4771 0.5907
C1 C 0.64401(7) 0.46469(19) 0.8115(5)
C2 C 0.59991(7) 0.4746(2) 0.5719(5)
loop_
_geom_bond_atom_site_label_1
_geom_bond_atom_site_label_2
_geom_bond_site_symmetry_1
_geom_bond_site_symmetry_2
P1 O1 1_555 1_555
O2 P1 1_555 1_555
O3 P1 1_555 1_555
H1 O3 1_555 1_555
O4 P1 1_555 1_555
H2 O4 1_555 1_555
N1 H3 1_555 1_555
H4 N1 1_555 1_555
N2 H5 1_555 1_555
N3 N4 1_555 1_555
N4 H6 1_555 1_555
N5 H7 1_555 1_555
H8 N5 1_555 1_555
C1 N1 1_555 1_555
C2 N2 1_555 1_555
N2 C1 1_555 1_555
N3 C2 1_555 1_555
N4 C1 1_555 1_555
N5 C2 1_555 1_555

#END
