
#######################################################################
#
#                 Cambridge Crystallographic Data Centre
#                                CCDC 
#
#######################################################################
#
# If this CIF has been generated from an entry in the Cambridge 
# Structural Database, then it will include bibliographic, chemical, 
# crystal, experimental, refinement or atomic coordinate data resulting 
# from the CCDC's data processing and validation procedures.
#
#######################################################################

data_VUNTEF
_chemical_formula_moiety         'C15 H17 N3 O4'
_chemical_name_systematic        
'diethyl 1-(4-methylphenyl)-1H-1,2,3-triazole-4,5-dicarboxylate'
_symmetry_cell_setting           triclinic
_symmetry_space_group_name_H-M   'P -1'
_symmetry_Int_Tables_number      2
_space_group_name_Hall           '-P 1'
loop_
_symmetry_equiv_pos_site_id
_symmetry_equiv_pos_as_xyz
1 x,y,z
2 -x,-y,-z
_cell_length_a                   9.0281(7)
_cell_length_b                   11.3963(10)
_cell_length_c                   16.9166(14)
_cell_angle_alpha                109.458(7)
_cell_angle_beta                 90.630(7)
_cell_angle_gamma                102.206(7)
_cell_volume                     1597.72
_cell_formula_units_Z            4
loop_
_atom_site_label
_atom_site_type_symbol
_atom_site_fract_x
_atom_site_fract_y
_atom_site_fract_z
C1 C 0.2929(4) 0.3272(3) 0.9949(2)
C2 C 0.1460(4) 0.2812(3) 0.9595(2)
H1 H 0.1238 0.2197 0.9059
C3 C 0.0311(4) 0.3271(4) 1.0041(3)
H2 H -0.0686 0.2972 0.9797
C4 C 0.0614(5) 0.4168(4) 1.0846(2)
C5 C 0.2103(5) 0.4579(3) 1.1187(2)
H3 H 0.2325 0.5166 1.1732
C6 C 0.3267(4) 0.4156(3) 1.0754(2)
H4 H 0.4265 0.4457 1.0996
C7 C -0.0657(6) 0.4659(5) 1.1329(3)
H5 H -0.0856 0.4295 1.1765
H6 H -0.1559 0.4421 1.0953
H7 H -0.0363 0.5573 1.1577
C8 C 0.4417(4) 0.2576(3) 0.8681(2)
C9 C 0.3430(4) 0.2801(4) 0.8059(2)
C10 C 0.5789(4) 0.2236(3) 0.8620(2)
C11 C 0.6722(5) 0.1947(4) 0.7894(3)
C12 C 0.6716(7) 0.1690(5) 0.6428(3)
H8 H 0.6301 0.2089 0.6079
H9 H 0.7796 0.2076 0.6553
C13 C 0.6518(9) 0.0394(6) 0.5982(4)
H10 H 0.6892 -0.0012 0.6331
H11 H 0.7069 0.0279 0.5490
H12 H 0.5456 0.0020 0.5816
C14 C 0.1491(6) 0.1845(5) 0.6942(3)
H13 H 0.0560 0.2021 0.7185
H14 H 0.1974 0.2567 0.6780
C15 C 0.1143(10) 0.0810(6) 0.6258(4)
H15 H 0.2051 0.0661 0.5991
H16 H 0.0445 0.0932 0.5875
H17 H 0.0678 0.0087 0.6412
N1 N 0.4159(3) 0.2819(3) 0.94989(17)
N2 N 0.5324(3) 0.2632(3) 0.9927(2)
N3 N 0.6304(4) 0.2280(3) 0.9392(2)
O1 O 0.5976(3) 0.1942(3) 0.72189(18)
O2 O 0.7978(4) 0.1795(3) 0.7931(2)
O3 O 0.2510(3) 0.1734(2) 0.75853(16)
O4 O 0.3501(3) 0.3835(3) 0.80121(17)
C16 C 0.1153(4) 0.3305(3) 0.4983(2)
C17 C 0.2388(4) 0.2847(3) 0.4644(2)
H18 H 0.2270 0.2213 0.4117
C18 C 0.3790(4) 0.3334(4) 0.5090(3)
H19 H 0.4623 0.3033 0.4856
C19 C 0.3991(4) 0.4270(4) 0.5885(3)
C20 C 0.2727(5) 0.4685(3) 0.6209(2)
H20 H 0.2833 0.5294 0.6746
C21 C 0.1318(4) 0.4235(3) 0.5772(2)
H21 H 0.0489 0.4548 0.6001
C22 C 0.5532(5) 0.4788(4) 0.6371(3)
H22 H 0.5721 0.5703 0.6607
H23 H 0.6298 0.4547 0.6001
H24 H 0.5558 0.4443 0.6816
C23 C -0.0782(4) 0.2534(3) 0.3710(2)
C24 C 0.0309(4) 0.2764(3) 0.3086(2)
C25 C -0.2336(4) 0.2167(3) 0.3662(2)
C26 C -0.3458(5) 0.1794(4) 0.2935(3)
C27 C 0.1704(6) 0.1800(5) 0.1978(3)
H25 H 0.1541 0.2467 0.1773
H26 H 0.2741 0.2044 0.2232
C28 C 0.1513(8) 0.0675(6) 0.1313(3)
H27 H 0.1516 -0.0012 0.1520
H28 H 0.2330 0.0736 0.0959
H29 H 0.0561 0.0516 0.0993
C29 C -0.3708(6) 0.1428(6) 0.1472(3)
H30 H -0.4688 0.0905 0.1506
H31 H -0.3880 0.2180 0.1371
C30 C -0.2965(7) 0.0727(5) 0.0804(3)
H32 H -0.2009 0.1257 0.0765
H33 H -0.3591 0.0462 0.0286
H34 H -0.2790 -0.0011 0.0910
N4 N -0.0333(3) 0.2821(2) 0.45342(16)
N5 N -0.1561(4) 0.2621(3) 0.49694(19)
N6 N -0.2765(4) 0.2234(3) 0.4438(2)
O5 O -0.4795(4) 0.1564(4) 0.2964(2)
O6 O -0.2766(3) 0.1809(3) 0.22595(17)
O7 O 0.0764(3) 0.3787(2) 0.30317(16)
O8 O 0.0646(3) 0.1694(2) 0.26213(16)
loop_
_geom_bond_atom_site_label_1
_geom_bond_atom_site_label_2
_geom_bond_site_symmetry_1
_geom_bond_site_symmetry_2
C1 C2 1_555 1_555
C2 H1 1_555 1_555
C3 C2 1_555 1_555
H2 C3 1_555 1_555
C4 C3 1_555 1_555
C5 C4 1_555 1_555
H3 C5 1_555 1_555
C6 C1 1_555 1_555
H4 C6 1_555 1_555
C7 C4 1_555 1_555
H5 C7 1_555 1_555
H6 C7 1_555 1_555
H7 C7 1_555 1_555
C8 C9 1_555 1_555
C9 O3 1_555 1_555
C10 C8 1_555 1_555
C11 C10 1_555 1_555
C12 H8 1_555 1_555
H9 C12 1_555 1_555
C13 C12 1_555 1_555
H10 C13 1_555 1_555
H11 C13 1_555 1_555
H12 C13 1_555 1_555
C14 H13 1_555 1_555
H14 C14 1_555 1_555
C15 C14 1_555 1_555
H15 C15 1_555 1_555
H16 C15 1_555 1_555
H17 C15 1_555 1_555
N1 C1 1_555 1_555
N2 N1 1_555 1_555
N3 C10 1_555 1_555
O1 C11 1_555 1_555
O2 C11 1_555 1_555
O3 C14 1_555 1_555
O4 C9 1_555 1_555
C16 C17 1_555 1_555
C17 H18 1_555 1_555
C18 C17 1_555 1_555
H19 C18 1_555 1_555
C19 C18 1_555 1_555
C20 C19 1_555 1_555
H20 C20 1_555 1_555
C21 C16 1_555 1_555
H21 C21 1_555 1_555
C22 C19 1_555 1_555
H22 C22 1_555 1_555
H23 C22 1_555 1_555
H24 C22 1_555 1_555
C23 C24 1_555 1_555
C24 O7 1_555 1_555
C25 C23 1_555 1_555
C26 C25 1_555 1_555
C27 H25 1_555 1_555
H26 C27 1_555 1_555
C28 C27 1_555 1_555
H27 C28 1_555 1_555
H28 C28 1_555 1_555
H29 C28 1_555 1_555
C29 H30 1_555 1_555
H31 C29 1_555 1_555
C30 C29 1_555 1_555
H32 C30 1_555 1_555
H33 C30 1_555 1_555
H34 C30 1_555 1_555
N4 C16 1_555 1_555
N5 N4 1_555 1_555
N6 C25 1_555 1_555
O5 C26 1_555 1_555
O6 C26 1_555 1_555
O8 C24 1_555 1_555
C5 C6 1_555 1_555
C8 N1 1_555 1_555
C12 O1 1_555 1_555
N2 N3 1_555 1_555
C20 C21 1_555 1_555
C23 N4 1_555 1_555
C27 O8 1_555 1_555
C29 O6 1_555 1_555
N5 N6 1_555 1_555

#END
