
#######################################################################
#
#                 Cambridge Crystallographic Data Centre
#                                CCDC 
#
#######################################################################
#
# If this CIF has been generated from an entry in the Cambridge 
# Structural Database, then it will include bibliographic, chemical, 
# crystal, experimental, refinement or atomic coordinate data resulting 
# from the CCDC's data processing and validation procedures.
#
#######################################################################

data_VUPCAM
_chemical_formula_moiety         'C15 H14 Cl2 N2 O3'
_chemical_name_systematic        
5-t-butyl-3-(2,4-dichloro-5-(prop-2-yn-1-yloxy)phenyl)-1,3,4-oxadiazol-2(3H)-one
_symmetry_cell_setting           monoclinic
_symmetry_space_group_name_H-M   'P 21/c'
_symmetry_Int_Tables_number      14
_space_group_name_Hall           '-P 2ybc'
loop_
_symmetry_equiv_pos_site_id
_symmetry_equiv_pos_as_xyz
1 x,y,z
2 -x,1/2+y,1/2-z
3 -x,-y,-z
4 x,1/2-y,1/2+z
_cell_length_a                   12.9132(6)
_cell_length_b                   15.3893(7)
_cell_length_c                   8.4792(4)
_cell_angle_alpha                90
_cell_angle_beta                 107.5590(10)
_cell_angle_gamma                90
_cell_volume                     1606.52
_exptl_crystal_colour            colorless
_exptl_crystal_description       block
_cell_formula_units_Z            4
loop_
_atom_site_label
_atom_site_type_symbol
_atom_site_fract_x
_atom_site_fract_y
_atom_site_fract_z
Cl1 Cl 0.51241(4) 0.84758(3) 0.07299(7)
Cl2 Cl 0.42630(4) 1.13566(3) 0.36463(6)
O1 O 0.34909(9) 0.76748(7) 0.18615(15)
O2 O 0.15195(11) 1.12537(8) 0.23434(14)
O3 O 0.13661(9) 1.11525(7) 0.49542(13)
N1 N 0.24959(11) 1.02745(8) 0.43361(16)
N2 N 0.25036(11) 1.00602(8) 0.59469(15)
C1 C 0.07451(17) 0.77324(15) 0.0073(3)
H1 H 0.0087 0.7937 -0.0683
C2 C 0.15618(15) 0.74788(11) 0.1011(2)
C3 C 0.26062(15) 0.71962(10) 0.2137(2)
H2 H 0.2606 0.7281 0.3295
H3 H 0.2707 0.6569 0.1971
C4 C 0.35972(12) 0.85268(9) 0.23138(19)
C5 C 0.44020(13) 0.89889(10) 0.1882(2)
C6 C 0.46160(13) 0.98461(10) 0.2306(2)
H4 H 0.5184 1.0142 0.2031
C7 C 0.39940(13) 1.02756(10) 0.3143(2)
C8 C 0.31715(12) 0.98351(10) 0.35432(18)
C9 C 0.29737(12) 0.89626(10) 0.31370(18)
H5 H 0.2411 0.8665 0.3423
C10 C 0.17873(14) 1.09254(10) 0.3692(2)
C11 C 0.18252(13) 1.05977(10) 0.62444(19)
C12 C 0.14869(13) 1.06873(10) 0.7774(2)
C13 C 0.18132(16) 1.15945(12) 0.8505(2)
H6 H 0.2602 1.1664 0.8776
H7 H 0.1597 1.1663 0.9511
H8 H 0.1449 1.2036 0.7695
C14 C 0.2053(2) 0.99878(14) 0.8999(2)
H9 H 0.1804 0.9414 0.8539
H10 H 0.1880 1.0067 1.0039
H11 H 0.2840 1.0032 0.9209
C15 C 0.02549(16) 1.05801(14) 0.7315(3)
H12 H -0.0100 1.1030 0.6516
H13 H 0.0025 1.0636 0.8311
H14 H 0.0049 1.0005 0.6822
loop_
_geom_bond_atom_site_label_1
_geom_bond_atom_site_label_2
_geom_bond_site_symmetry_1
_geom_bond_site_symmetry_2
Cl1 C5 1_555 1_555
Cl2 C7 1_555 1_555
O1 C3 1_555 1_555
O2 C10 1_555 1_555
O3 C10 1_555 1_555
N1 N2 1_555 1_555
N2 C11 1_555 1_555
C1 H1 1_555 1_555
C2 C1 1_555 1_555
C3 C2 1_555 1_555
H2 C3 1_555 1_555
H3 C3 1_555 1_555
C4 O1 1_555 1_555
C5 C4 1_555 1_555
C6 C5 1_555 1_555
H4 C6 1_555 1_555
C7 C6 1_555 1_555
C8 N1 1_555 1_555
C9 C4 1_555 1_555
H5 C9 1_555 1_555
C10 N1 1_555 1_555
C11 O3 1_555 1_555
C12 C11 1_555 1_555
C13 C12 1_555 1_555
H6 C13 1_555 1_555
H7 C13 1_555 1_555
H8 C13 1_555 1_555
C14 C12 1_555 1_555
H9 C14 1_555 1_555
H10 C14 1_555 1_555
H11 C14 1_555 1_555
C15 C12 1_555 1_555
H12 C15 1_555 1_555
H13 C15 1_555 1_555
H14 C15 1_555 1_555
C7 C8 1_555 1_555
C8 C9 1_555 1_555

#END
