
#######################################################################
#
#                 Cambridge Crystallographic Data Centre
#                                CCDC 
#
#######################################################################
#
# If this CIF has been generated from an entry in the Cambridge 
# Structural Database, then it will include bibliographic, chemical, 
# crystal, experimental, refinement or atomic coordinate data resulting 
# from the CCDC's data processing and validation procedures.
#
#######################################################################

data_VUPMEZ
_chemical_formula_moiety         'C22 H31 Cl1 N4 O1 S1'
_chemical_name_systematic        
3-((4-Chlorophenyl)imino)-4-thia-1,2,9-triazaspiro[4.15]icos-1-en-10-one
_symmetry_cell_setting           monoclinic
_symmetry_space_group_name_H-M   'P 21/c'
_symmetry_Int_Tables_number      14
_space_group_name_Hall           '-P 2ybc'
loop_
_symmetry_equiv_pos_site_id
_symmetry_equiv_pos_as_xyz
1 x,y,z
2 -x,1/2+y,1/2-z
3 -x,-y,-z
4 x,1/2-y,1/2+z
_cell_length_a                   22.589(6)
_cell_length_b                   10.433(3)
_cell_length_c                   10.063(3)
_cell_angle_alpha                90
_cell_angle_beta                 99.343(5)
_cell_angle_gamma                90
_cell_volume                     2340.1
_exptl_crystal_colour            yellow
_exptl_crystal_description       plate
_cell_formula_units_Z            4
loop_
_atom_site_label
_atom_site_type_symbol
_atom_site_fract_x
_atom_site_fract_y
_atom_site_fract_z
C1 C -0.0025(4) 0.6483(7) 0.1055(8)
C2 C 0.0533(4) 0.6978(8) 0.1244(10)
H1 H 0.0649 0.7535 0.0612
C3 C -0.0173(4) 0.5636(9) 0.2081(11)
H2 H -0.0554 0.5275 0.1984
C4 C 0.0925(4) 0.6655(9) 0.2366(11)
H3 H 0.1307 0.7011 0.2485
C5 C 0.0211(6) 0.5370(10) 0.3121(10)
H4 H 0.0100 0.4835 0.3778
C6 C 0.0790(4) 0.5864(9) 0.3295(8)
C7 C 0.1602(4) 0.4831(8) 0.4469(6)
N1 N 0.2391(4) 0.3701(9) 0.5670(6)
C8 C 0.2347(3) 0.3062(8) 0.4363(7)
C9 C 0.2952(3) 0.2958(7) 0.3908(7)
H5 H 0.3209 0.2403 0.4525
H6 H 0.2899 0.2561 0.3024
C10 C 0.3256(4) 0.4220(7) 0.3840(9)
H7 H 0.3394 0.4514 0.4752
H8 H 0.2962 0.4833 0.3415
C11 C 0.3781(4) 0.4221(7) 0.3087(8)
H9 H 0.3633 0.4144 0.2130
H10 H 0.3990 0.5034 0.3236
C12 C 0.4409(3) 0.2452(7) 0.2654(8)
C13 C 0.4832(3) 0.1392(8) 0.3248(8)
H11 H 0.4907 0.1471 0.4221
H12 H 0.5213 0.1485 0.2928
C14 C 0.4568(4) 0.0050(9) 0.2854(9)
H13 H 0.4489 -0.0019 0.1880
H14 H 0.4863 -0.0597 0.3192
C15 C 0.3997(4) -0.0214(8) 0.3398(9)
H15 H 0.4056 0.0052 0.4334
H16 H 0.3684 0.0324 0.2914
C16 C 0.3773(6) -0.1567(8) 0.3327(11)
H17 H 0.4020 -0.2056 0.4028
H18 H 0.3833 -0.1925 0.2470
C17 C 0.3130(6) -0.1762(10) 0.3472(13)
H19 H 0.2874 -0.1220 0.2838
H20 H 0.3016 -0.2648 0.3279
C18 C 0.3054(6) -0.1434(14) 0.4874(18)
H21 H 0.3237 -0.0603 0.5092
H22 H 0.3277 -0.2055 0.5475
C19 C 0.2413(6) -0.1387(14) 0.5184(13)
H23 H 0.2266 -0.2261 0.5172
H24 H 0.2435 -0.1074 0.6098
C20 C 0.1951(7) -0.0601(11) 0.4297(14)
H25 H 0.1606 -0.0571 0.4760
H26 H 0.1830 -0.1114 0.3495
C21 C 0.2024(6) 0.0755(12) 0.3796(14)
H27 H 0.2341 0.0749 0.3251
H28 H 0.1656 0.0994 0.3211
C22 C 0.2164(6) 0.1760(11) 0.4835(16)
H29 H 0.2486 0.1448 0.5515
H30 H 0.1815 0.1877 0.5269
Cl1 Cl -0.05382(11) 0.6882(3) -0.0344(2)
N2 N 0.1190(4) 0.5626(8) 0.4501(7)
N3 N 0.2015(5) 0.4509(11) 0.5738(6)
N4 N 0.4203(3) 0.3184(6) 0.3499(6)
O1 O 0.4274(2) 0.2560(5) 0.1411(5)
S1 S 0.17783(9) 0.3876(2) 0.32036(17)
H31 H 0.426(2) 0.301(5) 0.4334(17)
loop_
_geom_bond_atom_site_label_1
_geom_bond_atom_site_label_2
_geom_bond_site_symmetry_1
_geom_bond_site_symmetry_2
C1 C2 1_555 1_555
C2 H1 1_555 1_555
C3 C1 1_555 1_555
H2 C3 1_555 1_555
C4 C2 1_555 1_555
H3 C4 1_555 1_555
C5 C3 1_555 1_555
H4 C5 1_555 1_555
C6 C4 1_555 1_555
C7 N2 1_555 1_555
N1 C8 1_555 1_555
C8 C9 1_555 1_555
C9 H5 1_555 1_555
H6 C9 1_555 1_555
C10 C9 1_555 1_555
H7 C10 1_555 1_555
H8 C10 1_555 1_555
C11 C10 1_555 1_555
H9 C11 1_555 1_555
H10 C11 1_555 1_555
C12 C13 1_555 1_555
C13 H11 1_555 1_555
H12 C13 1_555 1_555
C14 C13 1_555 1_555
H13 C14 1_555 1_555
H14 C14 1_555 1_555
C15 C14 1_555 1_555
H15 C15 1_555 1_555
H16 C15 1_555 1_555
C16 C15 1_555 1_555
H17 C16 1_555 1_555
H18 C16 1_555 1_555
C17 C16 1_555 1_555
H19 C17 1_555 1_555
H20 C17 1_555 1_555
C18 C17 1_555 1_555
H21 C18 1_555 1_555
H22 C18 1_555 1_555
C19 C18 1_555 1_555
H23 C19 1_555 1_555
H24 C19 1_555 1_555
C20 C19 1_555 1_555
H25 C20 1_555 1_555
H26 C20 1_555 1_555
C21 C20 1_555 1_555
H27 C21 1_555 1_555
H28 C21 1_555 1_555
C22 C8 1_555 1_555
H29 C22 1_555 1_555
H30 C22 1_555 1_555
Cl1 C1 1_555 1_555
N2 C6 1_555 1_555
N3 C7 1_555 1_555
N4 C11 1_555 1_555
O1 C12 1_555 1_555
S1 C7 1_555 1_555
H31 N4 1_555 1_555
C5 C6 1_555 1_555
N1 N3 1_555 1_555
C8 S1 1_555 1_555
C12 N4 1_555 1_555
C21 C22 1_555 1_555

#END
