
#######################################################################
#
#                 Cambridge Crystallographic Data Centre
#                                CCDC 
#
#######################################################################
#
# If this CIF has been generated from an entry in the Cambridge 
# Structural Database, then it will include bibliographic, chemical, 
# crystal, experimental, refinement or atomic coordinate data resulting 
# from the CCDC's data processing and validation procedures.
#
#######################################################################

data_VUPPED
_chemical_formula_moiety         'C16 H18 N2 O5'
_chemical_name_systematic        
1-(6a-allyl-6-phenyltetrahydro-1H,3H-furo[3,4-c][1,2]oxazol-1-yl)-2-nitroethanone
_symmetry_cell_setting           orthorhombic
_symmetry_space_group_name_H-M   'P 21 21 21'
_symmetry_Int_Tables_number      19
_space_group_name_Hall           'P 2ac 2ab'
loop_
_symmetry_equiv_pos_site_id
_symmetry_equiv_pos_as_xyz
1 x,y,z
2 1/2-x,-y,1/2+z
3 -x,1/2+y,1/2-z
4 1/2+x,1/2-y,-z
_cell_length_a                   7.4808(9)
_cell_length_b                   12.361(2)
_cell_length_c                   16.548(3)
_cell_angle_alpha                90
_cell_angle_beta                 90
_cell_angle_gamma                90
_cell_volume                     1530.2
_exptl_crystal_colour            colorless
_exptl_crystal_description       needle
_cell_formula_units_Z            4
loop_
_atom_site_label
_atom_site_type_symbol
_atom_site_fract_x
_atom_site_fract_y
_atom_site_fract_z
O1 O 0.2381(3) 0.34446(16) 0.84668(13)
O2 O 0.6532(3) 0.36470(17) 0.98541(12)
O3 O 0.4210(3) 0.56929(16) 0.74673(13)
O4 O 0.0621(3) 0.6480(2) 0.67413(16)
O5 O 0.1726(4) 0.5211(2) 0.59863(14)
N1 N 0.3699(3) 0.41920(19) 0.82060(15)
N2 N 0.1191(3) 0.5563(2) 0.66341(17)
C1 C 0.1322(4) 0.4840(3) 0.73486(18)
H1 H 0.1072 0.4082 0.7192
H2 H 0.0452 0.5061 0.7768
C2 C 0.3233(4) 0.4948(2) 0.76668(17)
C3 C 0.3323(4) 0.2419(2) 0.84647(18)
H3 H 0.3394 0.2117 0.7911
H4 H 0.2723 0.1888 0.8821
C4 C 0.5176(4) 0.2698(2) 0.87834(18)
H5 H 0.6105 0.2214 0.8543
C5 C 0.5353(5) 0.2747(3) 0.97066(18)
H6 H 0.4175 0.2869 0.9963
H7 H 0.5870 0.2068 0.9920
C6 C 0.5884(4) 0.4481(2) 0.93387(18)
H8 H 0.4733 0.4758 0.9566
C7 C 0.5475(4) 0.3893(2) 0.85230(18)
C8 C 0.6953(4) 0.4023(2) 0.78854(17)
H9 H 0.7090 0.4802 0.7761
H10 H 0.8096 0.3767 0.8119
C9 C 0.6619(4) 0.3424(3) 0.71104(17)
H11 H 0.6459 0.2662 0.7137
C10 C 0.6535(4) 0.3892(3) 0.63966(18)
H12 H 0.6690 0.4653 0.6351
H13 H 0.6320 0.3470 0.5927
C11 C 0.7187(4) 0.5400(2) 0.93022(17)
C12 C 0.9031(4) 0.5240(3) 0.93859(18)
H14 H 0.9485 0.4536 0.9489
C13 C 1.0190(4) 0.6103(3) 0.9318(2)
H15 H 1.1439 0.5988 0.9377
C14 C 0.9557(5) 0.7137(3) 0.9166(2)
H16 H 1.0366 0.7725 0.9116
C15 C 0.7730(5) 0.7304(3) 0.9088(2)
H17 H 0.7282 0.8010 0.8988
C16 C 0.6564(5) 0.6442(2) 0.91552(18)
H18 H 0.5316 0.6563 0.9100
loop_
_geom_bond_atom_site_label_1
_geom_bond_atom_site_label_2
_geom_bond_site_symmetry_1
_geom_bond_site_symmetry_2
O1 N1 1_555 1_555
O2 C5 1_555 1_555
O3 C2 1_555 1_555
O4 N2 1_555 1_555
O5 N2 1_555 1_555
N1 C2 1_555 1_555
N2 C1 1_555 1_555
C1 H1 1_555 1_555
H2 C1 1_555 1_555
C2 C1 1_555 1_555
C3 O1 1_555 1_555
H3 C3 1_555 1_555
H4 C3 1_555 1_555
C4 C3 1_555 1_555
H5 C4 1_555 1_555
C5 C4 1_555 1_555
H6 C5 1_555 1_555
H7 C5 1_555 1_555
C6 O2 1_555 1_555
H8 C6 1_555 1_555
C7 N1 1_555 1_555
C8 C7 1_555 1_555
H9 C8 1_555 1_555
H10 C8 1_555 1_555
C9 C8 1_555 1_555
H11 C9 1_555 1_555
C10 C9 1_555 1_555
H12 C10 1_555 1_555
H13 C10 1_555 1_555
C11 C6 1_555 1_555
C12 C11 1_555 1_555
H14 C12 1_555 1_555
C13 C12 1_555 1_555
H15 C13 1_555 1_555
C14 C13 1_555 1_555
H16 C14 1_555 1_555
C15 C14 1_555 1_555
H17 C15 1_555 1_555
C16 C11 1_555 1_555
H18 C16 1_555 1_555
C4 C7 1_555 1_555
C6 C7 1_555 1_555
C15 C16 1_555 1_555

#END
