
#######################################################################
#
#                 Cambridge Crystallographic Data Centre
#                                CCDC 
#
#######################################################################
#
# If this CIF has been generated from an entry in the Cambridge 
# Structural Database, then it will include bibliographic, chemical, 
# crystal, experimental, refinement or atomic coordinate data resulting 
# from the CCDC's data processing and validation procedures.
#
#######################################################################

data_VUPQUT
_chemical_formula_moiety         'C1 H4 O1,C1 H1 Cl3'
_chemical_name_systematic        'chloroform methanol'
_symmetry_cell_setting           orthorhombic
_symmetry_space_group_name_H-M   'P c a 21'
_symmetry_Int_Tables_number      29
_space_group_name_Hall           'P 2c -2ac'
loop_
_symmetry_equiv_pos_site_id
_symmetry_equiv_pos_as_xyz
1 x,y,z
2 -x,-y,1/2+z
3 1/2+x,-y,z
4 1/2-x,y,1/2+z
_cell_length_a                   18.210(4)
_cell_length_b                   7.692(2)
_cell_length_c                   4.6608(7)
_cell_angle_alpha                90
_cell_angle_beta                 90
_cell_angle_gamma                90
_cell_volume                     652.844
_exptl_crystal_colour            colorless
_exptl_crystal_description       cylinder
_chemical_melting_point          '188 K'
_cell_formula_units_Z            4
loop_
_atom_site_label
_atom_site_type_symbol
_atom_site_fract_x
_atom_site_fract_y
_atom_site_fract_z
Cl1 Cl 0.43442(8) 0.07249(18) 0.3231(5)
Cl2 Cl 0.32118(6) 0.33263(17) 0.3228(5)
Cl3 Cl 0.45110(8) 0.37637(19) 0.6777(5)
C1 C 0.3886(3) 0.2277(6) 0.5324(14)
H5 H 0.366(2) 0.168(5) 0.665(13)
O1 O 0.2103(2) 0.9197(4) 0.3010(11)
C2 C 0.1669(3) 0.7667(6) 0.3193(17)
H1 H 0.1979 0.6647 0.2848
H2 H 0.1278 0.7712 0.1749
H3 H 0.1450 0.7587 0.5110
H4 H 0.225(3) 0.935(5) 0.448(14)
loop_
_geom_bond_atom_site_label_1
_geom_bond_atom_site_label_2
_geom_bond_site_symmetry_1
_geom_bond_site_symmetry_2
Cl1 C1 1_555 1_555
Cl2 C1 1_555 1_555
Cl3 C1 1_555 1_555
O1 C2 1_555 1_555
C1 H5 1_555 1_555
C2 H1 1_555 1_555
H2 C2 1_555 1_555
H3 C2 1_555 1_555
H4 O1 1_555 1_555

#END
