
#######################################################################
#
#                 Cambridge Crystallographic Data Centre
#                                CCDC 
#
#######################################################################
#
# If this CIF has been generated from an entry in the Cambridge 
# Structural Database, then it will include bibliographic, chemical, 
# crystal, experimental, refinement or atomic coordinate data resulting 
# from the CCDC's data processing and validation procedures.
#
#######################################################################

data_VUPREE
_chemical_name_common            'PDB Chemical Component code: CYH'
_chemical_formula_moiety         'C6 H10 O1,C1 H1 Cl3'
_chemical_name_systematic        'cyclohexanone chloroform'
_symmetry_cell_setting           triclinic
_symmetry_space_group_name_H-M   'P -1'
_symmetry_Int_Tables_number      2
_space_group_name_Hall           '-P 1'
loop_
_symmetry_equiv_pos_site_id
_symmetry_equiv_pos_as_xyz
1 x,y,z
2 -x,-y,-z
_cell_length_a                   6.0440(12)
_cell_length_b                   9.0987(18)
_cell_length_c                   9.5963(19)
_cell_angle_alpha                98.82(3)
_cell_angle_beta                 100.43(3)
_cell_angle_gamma                97.22(3)
_cell_volume                     506.436
_exptl_crystal_colour            colorless
_exptl_crystal_description       cylinder
_chemical_melting_point          '208 K'
_cell_formula_units_Z            2
loop_
_atom_site_label
_atom_site_type_symbol
_atom_site_fract_x
_atom_site_fract_y
_atom_site_fract_z
Cl1 Cl 0.30269(7) 0.80497(5) 0.78546(4)
Cl2 Cl 0.62134(10) 0.64402(5) 0.66096(5)
Cl3 Cl 0.77774(7) 0.93482(5) 0.84440(4)
C1 C 0.5510(3) 0.82272(15) 0.71553(14)
H1 H 0.528(3) 0.8689(18) 0.6385(18)
O1 O 0.4077(3) 0.12943(16) 0.60199(13)
C2 C 0.2714(3) 0.18011(16) 0.66664(15)
C3 C 0.0385(3) 0.19789(17) 0.59204(16)
C4 C -0.0253(3) 0.3501(2) 0.64509(18)
C5 C 0.0079(4) 0.3810(2) 0.80885(19)
C6 C 0.2521(3) 0.37650(19) 0.87780(17)
C7 C 0.3229(3) 0.2259(2) 0.82809(15)
H2 H -0.064(3) 0.124(2) 0.6101(19)
H3 H 0.032(3) 0.180(2) 0.490(2)
H4 H 0.079(4) 0.429(2) 0.612(2)
H5 H -0.188(4) 0.352(2) 0.603(2)
H6 H -0.086(4) 0.306(2) 0.834(2)
H7 H -0.027(4) 0.477(3) 0.841(2)
H8 H 0.349(4) 0.462(2) 0.854(2)
H9 H 0.276(4) 0.394(2) 0.981(2)
H10 H 0.233(4) 0.148(2) 0.868(2)
H11 H 0.485(4) 0.225(2) 0.860(2)
loop_
_geom_bond_atom_site_label_1
_geom_bond_atom_site_label_2
_geom_bond_site_symmetry_1
_geom_bond_site_symmetry_2
Cl1 C1 1_555 1_555
Cl2 C1 1_555 1_555
Cl3 C1 1_555 1_555
C1 H1 1_555 1_555
O1 C2 1_555 1_555
C2 C3 1_555 1_555
C3 C4 1_555 1_555
C4 C5 1_555 1_555
C5 C6 1_555 1_555
C6 C7 1_555 1_555
C7 C2 1_555 1_555
H2 C3 1_555 1_555
H3 C3 1_555 1_555
H4 C4 1_555 1_555
H5 C4 1_555 1_555
H6 C5 1_555 1_555
H7 C5 1_555 1_555
H8 C6 1_555 1_555
H9 C6 1_555 1_555
H10 C7 1_555 1_555
H11 C7 1_555 1_555

#END
