
#######################################################################
#
#                 Cambridge Crystallographic Data Centre
#                                CCDC 
#
#######################################################################
#
# If this CIF has been generated from an entry in the Cambridge 
# Structural Database, then it will include bibliographic, chemical, 
# crystal, experimental, refinement or atomic coordinate data resulting 
# from the CCDC's data processing and validation procedures.
#
#######################################################################

data_VUPTAC03
_chemical_formula_moiety         'C2 H5 N5'
_chemical_name_systematic        4H-1,2,4-triazole-3,4-diamine
_symmetry_cell_setting           monoclinic
_symmetry_space_group_name_H-M   'P 21/c'
_symmetry_Int_Tables_number      14
_space_group_name_Hall           '-P 2ybc'
loop_
_symmetry_equiv_pos_site_id
_symmetry_equiv_pos_as_xyz
1 x,y,z
2 -x,1/2+y,1/2-z
3 -x,-y,-z
4 x,1/2-y,1/2+z
_cell_length_a                   6.1839(6)
_cell_length_b                   5.9920(5)
_cell_length_c                   12.7231(11)
_cell_angle_alpha                90
_cell_angle_beta                 115.912(2)
_cell_angle_gamma                90
_cell_volume                     424.045
_cell_formula_units_Z            4
loop_
_atom_site_label
_atom_site_type_symbol
_atom_site_fract_x
_atom_site_fract_y
_atom_site_fract_z
N1 N 1.0433(6) 1.1674(6) 0.1491(3)
N2 N 1.2327(6) 1.0117(6) 0.1886(3)
N3 N 0.8898(6) 0.8359(5) 0.0958(3)
N4 N 0.7146(6) 0.6698(6) 0.0492(3)
H1 H 0.7091 0.5909 0.1073
H2 H 0.7518 0.5803 0.0038
N5 N 1.2458(6) 0.6155(6) 0.1645(3)
H3 H 1.1667 0.5100 0.1827
H4 H 1.3952 0.6255 0.2208
C1 C 1.1332(8) 0.8135(6) 0.1543(4)
C2 C 0.8456(8) 1.0564(7) 0.0953(4)
H5 H 0.6933 1.1202 0.0609
loop_
_geom_bond_atom_site_label_1
_geom_bond_atom_site_label_2
_geom_bond_site_symmetry_1
_geom_bond_site_symmetry_2
N1 N2 1_555 1_555
N2 C1 1_555 1_555
N3 N4 1_555 1_555
N4 H1 1_555 1_555
H2 N4 1_555 1_555
N5 H3 1_555 1_555
H4 N5 1_555 1_555
C1 N3 1_555 1_555
C2 N1 1_555 1_555
H5 C2 1_555 1_555
N3 C2 1_555 1_555
N5 C1 1_555 1_555

#END
