
#######################################################################
#
#                 Cambridge Crystallographic Data Centre
#                                CCDC 
#
#######################################################################
#
# If this CIF has been generated from an entry in the Cambridge 
# Structural Database, then it will include bibliographic, chemical, 
# crystal, experimental, refinement or atomic coordinate data resulting 
# from the CCDC's data processing and validation procedures.
#
#######################################################################

data_VUPXIP
_chemical_formula_moiety         'C21 H27 Cl1 O2'
_chemical_name_systematic        
6-chloro-2-isopropylidene-4-methyl-4-(4-methylpent-3-en-1-yl)-2,3,3a,4-tetrahydro-1H,7H-benzo[b]cyclopenta[c]furan-7-one
_chemical_properties_biological  'antibacterial activity'
_symmetry_cell_setting           triclinic
_symmetry_space_group_name_H-M   'P -1'
_symmetry_Int_Tables_number      2
_space_group_name_Hall           '-P 1'
loop_
_symmetry_equiv_pos_site_id
_symmetry_equiv_pos_as_xyz
1 x,y,z
2 -x,-y,-z
_cell_length_a                   9.418(2)
_cell_length_b                   10.301(3)
_cell_length_c                   10.919(3)
_cell_angle_alpha                75.398(15)
_cell_angle_beta                 77.071(16)
_cell_angle_gamma                72.538(15)
_cell_volume                     965.184
_exptl_crystal_colour            colorless
_exptl_crystal_description       plate
_cell_formula_units_Z            2
_exptl_crystal_recrystallization_method 'petroleum ether/ethyl acetate'
loop_
_atom_site_label
_atom_site_type_symbol
_atom_site_fract_x
_atom_site_fract_y
_atom_site_fract_z
Cl1 Cl 0.27040(6) 0.30348(6) 0.88915(6)
O1 O 0.57924(15) 0.33933(16) 0.89396(14)
O2 O 0.23308(17) 0.07341(18) 1.11327(17)
C1 C 0.7458(2) 0.3101(2) 0.8922(2)
C2 C 0.7800(2) 0.1921(2) 1.01075(19)
H1 H 0.8290 0.1013 0.9831
C3 C 0.6215(2) 0.1908(2) 1.0899(2)
C4 C 0.5217(2) 0.2512(2) 0.99098(19)
C5 C 0.3900(2) 0.2209(2) 1.0002(2)
C6 C 0.3529(2) 0.1044(2) 1.0985(2)
C7 C 0.4719(2) 0.0199(2) 1.1753(2)
H2 H 0.4579 -0.0640 1.2311
C8 C 0.5983(2) 0.0563(2) 1.1696(2)
H3 H 0.6741 -0.0043 1.2170
C9 C 0.5974(2) 0.2953(3) 1.1800(2)
H4 H 0.5486 0.3909 1.1388
H5 H 0.5336 0.2687 1.2624
C10 C 0.7540(2) 0.2863(2) 1.2009(2)
C11 C 0.8697(2) 0.2130(3) 1.1028(2)
H6 H 0.9287 0.1224 1.1452
H7 H 0.9400 0.2702 1.0556
C12 C 0.7830(3) 0.3357(3) 1.2917(2)
C13 C 0.9410(3) 0.3273(3) 1.3059(3)
H8 H 0.9600 0.2755 1.3917
H9 H 0.9527 0.4213 1.2941
H10 H 1.0131 0.2798 1.2413
C14 C 0.6596(3) 0.4058(3) 1.3862(2)
H11 H 0.5615 0.4194 1.3615
H12 H 0.6741 0.4961 1.3863
H13 H 0.6630 0.3475 1.4721
C15 C 0.7749(3) 0.4469(2) 0.8925(2)
H14 H 0.7389 0.5165 0.8189
H15 H 0.8833 0.4345 0.8868
H16 H 0.7213 0.4783 0.9720
C16 C 0.8185(2) 0.2593(2) 0.7672(2)
H17 H 0.7837 0.3330 0.6943
H18 H 0.7849 0.1771 0.7669
C17 C 0.9916(2) 0.2205(3) 0.7482(2)
H19 H 1.0268 0.3063 0.7171
H20 H 1.0254 0.1742 0.8317
C18 C 1.0610(3) 0.1259(3) 0.6543(2)
H21 H 1.0169 0.0514 0.6644
C19 C 1.1760(3) 0.1323(3) 0.5590(2)
C20 C 1.2339(4) 0.0221(4) 0.4789(3)
H22 H 1.3384 -0.0270 0.4894
H23 H 1.2297 0.0655 0.3885
H24 H 1.1712 -0.0440 0.5066
C21 C 1.2576(4) 0.2437(4) 0.5244(3)
H25 H 1.1967 0.3225 0.5639
H26 H 1.2750 0.2743 0.4310
H27 H 1.3546 0.2074 0.5556
loop_
_geom_bond_atom_site_label_1
_geom_bond_atom_site_label_2
_geom_bond_site_symmetry_1
_geom_bond_site_symmetry_2
Cl1 C5 1_555 1_555
O1 C1 1_555 1_555
O2 C6 1_555 1_555
C1 C2 1_555 1_555
C2 H1 1_555 1_555
C3 C2 1_555 1_555
C4 O1 1_555 1_555
C5 C4 1_555 1_555
C6 C5 1_555 1_555
C7 C6 1_555 1_555
H2 C7 1_555 1_555
C8 C3 1_555 1_555
H3 C8 1_555 1_555
C9 C3 1_555 1_555
H4 C9 1_555 1_555
H5 C9 1_555 1_555
C10 C9 1_555 1_555
C11 C2 1_555 1_555
H6 C11 1_555 1_555
H7 C11 1_555 1_555
C12 C10 1_555 1_555
C13 C12 1_555 1_555
H8 C13 1_555 1_555
H9 C13 1_555 1_555
H10 C13 1_555 1_555
C14 C12 1_555 1_555
H11 C14 1_555 1_555
H12 C14 1_555 1_555
H13 C14 1_555 1_555
C15 C1 1_555 1_555
H14 C15 1_555 1_555
H15 C15 1_555 1_555
H16 C15 1_555 1_555
C16 C1 1_555 1_555
H17 C16 1_555 1_555
H18 C16 1_555 1_555
C17 C16 1_555 1_555
H19 C17 1_555 1_555
H20 C17 1_555 1_555
C18 C17 1_555 1_555
H21 C18 1_555 1_555
C19 C18 1_555 1_555
C20 C19 1_555 1_555
H22 C20 1_555 1_555
H23 C20 1_555 1_555
H24 C20 1_555 1_555
C21 C19 1_555 1_555
H25 C21 1_555 1_555
H26 C21 1_555 1_555
H27 C21 1_555 1_555
C3 C4 1_555 1_555
C7 C8 1_555 1_555
C10 C11 1_555 1_555

#END
