
#######################################################################
#
#                 Cambridge Crystallographic Data Centre
#                                CCDC 
#
#######################################################################
#
# If this CIF has been generated from an entry in the Cambridge 
# Structural Database, then it will include bibliographic, chemical, 
# crystal, experimental, refinement or atomic coordinate data resulting 
# from the CCDC's data processing and validation procedures.
#
#######################################################################

data_VUPYUA
_chemical_formula_moiety         'C17 H15 N2 P1 S5'
_chemical_name_systematic        
3,7-bis(Benzylthio)-1-thioxobicyclo(3.3.0)-4,6-dithia-2,8-diaza-1-phosphaocta-2,7-diene
_symmetry_cell_setting           monoclinic
_symmetry_space_group_name_H-M   'P 21/c'
_symmetry_Int_Tables_number      14
_space_group_name_Hall           '-P 2ybc'
loop_
_symmetry_equiv_pos_site_id
_symmetry_equiv_pos_as_xyz
1 x,y,z
2 -x,1/2+y,1/2-z
3 -x,-y,-z
4 x,1/2-y,1/2+z
_cell_length_a                   18.167(7)
_cell_length_b                   9.896(4)
_cell_length_c                   11.073(5)
_cell_angle_alpha                90
_cell_angle_beta                 92.58(3)
_cell_angle_gamma                90
_cell_volume                     1988.69
_chemical_melting_point          140deg.C
_cell_formula_units_Z            4
loop_
_atom_site_label
_atom_site_type_symbol
_atom_site_fract_x
_atom_site_fract_y
_atom_site_fract_z
S1 S 0.52571(8) 0.0556(2) 1.3481(1)
S2 S 0.64748(9) 0.3365(2) 1.1306(2)
S3 S 0.7765(1) 0.3425(2) 1.2944(2)
S4 S 0.58498(9) 0.1108(2) 0.9700(1)
S5 S 0.62526(9) -0.1699(2) 0.9354(1)
P1 P 0.59992(8) 0.0806(1) 1.2331(1)
N1 N 0.6807(2) 0.1393(4) 1.2892(4)
N2 N 0.6211(2) -0.0575(4) 1.1554(3)
C1 C 0.6998(3) 0.2515(6) 1.2474(5)
C2 C 0.5809(3) 0.2056(5) 1.1102(4)
C3 C 0.8127(4) 0.2346(7) 1.4165(7)
C4 C 0.6135(3) -0.0437(5) 1.0392(4)
C5 C 0.6501(3) -0.3137(6) 1.0319(5)
C6 C 0.8615(3) 0.3164(6) 1.5014(6)
C7 C 0.9316(4) 0.2828(9) 1.5198(9)
C8 C 0.9787(5) 0.353(1) 1.599(1)
C9 C 0.9519(6) 0.456(1) 1.6603(9)
C10 C 0.8817(6) 0.4902(8) 1.6448(8)
C11 C 0.8342(4) 0.4218(8) 1.5659(7)
C12 C 0.7297(3) -0.3308(5) 1.0570(5)
C13 C 0.7606(4) -0.3181(7) 1.1736(5)
C14 C 0.8324(4) -0.3385(8) 1.2009(6)
C15 C 0.8793(4) -0.3725(7) 1.1133(7)
C16 C 0.8508(4) -0.3896(8) 0.9967(7)
C17 C 0.7771(4) -0.3712(7) 0.9701(5)
loop_
_geom_bond_atom_site_label_1
_geom_bond_atom_site_label_2
_geom_bond_site_symmetry_1
_geom_bond_site_symmetry_2
S1 P1 1_555 1_555
S2 C1 1_555 1_555
S3 C1 1_555 1_555
S4 C2 1_555 1_555
S5 C4 1_555 1_555
P1 N1 1_555 1_555
N1 C1 1_555 1_555
N2 P1 1_555 1_555
C2 S2 1_555 1_555
C3 S3 1_555 1_555
C4 S4 1_555 1_555
C5 S5 1_555 1_555
C6 C3 1_555 1_555
C7 C6 1_555 1_555
C8 C7 1_555 1_555
C9 C8 1_555 1_555
C10 C9 1_555 1_555
C11 C6 1_555 1_555
C12 C5 1_555 1_555
C13 C12 1_555 1_555
C14 C13 1_555 1_555
C15 C14 1_555 1_555
C16 C15 1_555 1_555
C17 C12 1_555 1_555
P1 C2 1_555 1_555
N2 C4 1_555 1_555
C10 C11 1_555 1_555
C16 C17 1_555 1_555

#END
