
#######################################################################
#
#                 Cambridge Crystallographic Data Centre
#                                CCDC 
#
#######################################################################
#
# If this CIF has been generated from an entry in the Cambridge 
# Structural Database, then it will include bibliographic, chemical, 
# crystal, experimental, refinement or atomic coordinate data resulting 
# from the CCDC's data processing and validation procedures.
#
#######################################################################

data_VUPYIO
_chemical_formula_moiety         'C15 H14 N1 O1 P1 S3'
_chemical_name_systematic        
2-Benzylthio-4,5-dihydro-4-phenoxy-4-thioxo-1,3,4-thiazaphosphole
_symmetry_cell_setting           monoclinic
_symmetry_space_group_name_H-M   'P 21/c'
_symmetry_Int_Tables_number      14
_space_group_name_Hall           '-P 2ybc'
loop_
_symmetry_equiv_pos_site_id
_symmetry_equiv_pos_as_xyz
1 x,y,z
2 -x,1/2+y,1/2-z
3 -x,-y,-z
4 x,1/2-y,1/2+z
_cell_length_a                   9.668(6)
_cell_length_b                   19.029(16)
_cell_length_c                   9.618(7)
_cell_angle_alpha                90
_cell_angle_beta                 114.17(5)
_cell_angle_gamma                90
_cell_volume                     1614.33
_chemical_melting_point          106.5-107deg.C
_cell_formula_units_Z            4
loop_
_atom_site_label
_atom_site_type_symbol
_atom_site_fract_x
_atom_site_fract_y
_atom_site_fract_z
S1 S 0.46361(9) 0.17753(6) 0.6774(1)
S2 S 0.0929(1) 0.33287(6) 0.4080(1)
S3 S -0.1478(1) 0.26161(8) 0.4561(2)
P1 P 0.28909(8) 0.21287(5) 0.5081(1)
O1 O 0.2626(2) 0.1824(1) 0.3429(3)
N1 N 0.1234(3) 0.2015(2) 0.5211(4)
C1 C 0.0362(3) 0.2544(3) 0.4719(4)
C2 C 0.2858(4) 0.3057(2) 0.4695(5)
C3 C -0.1894(4) 0.1728(4) 0.4945(5)
C4 C 0.2545(3) 0.1102(2) 0.3101(4)
C5 C 0.1149(3) 0.0779(2) 0.2469(4)
C6 C 0.1065(4) 0.0091(3) 0.2024(5)
C7 C 0.2361(4) -0.0288(2) 0.2233(5)
C8 C 0.3756(4) 0.0057(3) 0.2892(5)
C9 C 0.3845(3) 0.0738(2) 0.3308(5)
C10 C -0.2246(3) 0.1194(3) 0.3676(4)
C11 C -0.2998(4) 0.1381(3) 0.2149(5)
C12 C -0.3367(4) 0.0854(3) 0.1026(5)
C13 C -0.3016(4) 0.0177(3) 0.1384(5)
C14 C -0.2272(5) -0.0010(3) 0.2909(6)
C15 C -0.1879(4) 0.0506(3) 0.4028(5)
loop_
_geom_bond_atom_site_label_1
_geom_bond_atom_site_label_2
_geom_bond_site_symmetry_1
_geom_bond_site_symmetry_2
S1 P1 1_555 1_555
S2 C1 1_555 1_555
S3 C1 1_555 1_555
P1 O1 1_555 1_555
O1 C4 1_555 1_555
N1 P1 1_555 1_555
C1 N1 1_555 1_555
C2 S2 1_555 1_555
C3 S3 1_555 1_555
C4 C5 1_555 1_555
C5 C6 1_555 1_555
C6 C7 1_555 1_555
C7 C8 1_555 1_555
C8 C9 1_555 1_555
C9 C4 1_555 1_555
C10 C3 1_555 1_555
C11 C10 1_555 1_555
C12 C11 1_555 1_555
C13 C12 1_555 1_555
C14 C13 1_555 1_555
C15 C10 1_555 1_555
P1 C2 1_555 1_555
C14 C15 1_555 1_555

#END
