
#######################################################################
#
#                 Cambridge Crystallographic Data Centre
#                                CCDC 
#
#######################################################################
#
# If this CIF has been generated from an entry in the Cambridge 
# Structural Database, then it will include bibliographic, chemical, 
# crystal, experimental, refinement or atomic coordinate data resulting 
# from the CCDC's data processing and validation procedures.
#
#######################################################################

data_VUQDIV
_chemical_formula_moiety         'C14 H10 Br1 Cl1 N2 O3,C1 H4 O1'
_chemical_name_systematic        
"N'-(3-Bromo-5-chloro-2-hydroxybenzylidene)-3-hydroxybenzohydrazide methanol solvate"
_symmetry_cell_setting           monoclinic
_symmetry_space_group_name_H-M   'C 2/c'
_symmetry_Int_Tables_number      15
_space_group_name_Hall           '-C 2yn'
loop_
_symmetry_equiv_pos_site_id
_symmetry_equiv_pos_as_xyz
1 x,y,z
2 -x,y,1/2-z
3 1/2+x,1/2+y,z
4 1/2-x,1/2+y,1/2-z
5 -x,-y,-z
6 x,-y,1/2+z
7 1/2-x,1/2-y,-z
8 1/2+x,1/2-y,1/2+z
_cell_length_a                   23.993(2)
_cell_length_b                   6.935(1)
_cell_length_c                   19.817(2)
_cell_angle_alpha                90
_cell_angle_beta                 93.963(2)
_cell_angle_gamma                90
_cell_volume                     3289.5
_exptl_crystal_colour            colorless
_exptl_crystal_description       block
_cell_formula_units_Z            8
loop_
_atom_site_label
_atom_site_type_symbol
_atom_site_fract_x
_atom_site_fract_y
_atom_site_fract_z
Br1 Br 0.02522(2) 0.64916(9) 0.16664(3)
Cl1 Cl 0.15581(5) 0.66001(16) -0.05025(5)
O1 O 0.13720(12) 0.6526(5) 0.24333(13)
H1 H 0.1679 0.6474 0.2641
O2 O 0.24040(12) 0.6939(4) 0.38706(13)
O3 O 0.36788(13) 0.6802(5) 0.59671(14)
H2 H 0.3360 0.7163 0.6025
N1 N 0.24477(13) 0.6585(4) 0.25703(16)
N2 N 0.29301(14) 0.6560(5) 0.29847(16)
C1 C 0.19642(15) 0.6565(5) 0.14918(18)
C2 C 0.14368(17) 0.6538(5) 0.17608(19)
C3 C 0.09591(16) 0.6533(5) 0.1319(2)
C4 C 0.09998(17) 0.6547(5) 0.06247(19)
H4 H 0.0679 0.6530 0.0333
C5 C 0.15161(17) 0.6586(5) 0.03721(19)
C6 C 0.19956(16) 0.6574(5) 0.07953(18)
H5 H 0.2343 0.6572 0.0613
C7 C 0.24752(16) 0.6558(5) 0.1931(2)
H6 H 0.2821 0.6533 0.1745
C8 C 0.28674(17) 0.6715(5) 0.3655(2)
C9 C 0.33849(15) 0.6635(5) 0.41280(19)
C10 C 0.32965(17) 0.6702(5) 0.4810(2)
H7 H 0.2934 0.6750 0.4949
C11 C 0.37496(18) 0.6696(6) 0.5289(2)
C12 C 0.42802(19) 0.6565(6) 0.5081(2)
H8 H 0.4583 0.6533 0.5399
C13 C 0.43676(18) 0.6483(6) 0.4400(2)
H9 H 0.4730 0.6404 0.4262
C14 C 0.39167(17) 0.6516(5) 0.3920(2)
H10 H 0.3976 0.6458 0.3462
H14 H 0.3260(8) 0.640(5) 0.2809(16)
O4 O 0.38564(17) 0.5893(7) 0.2175(2)
H3 H 0.3757 0.5104 0.1883
C15 C 0.4295(3) 0.6874(9) 0.1980(3)
H11 H 0.4252 0.8215 0.2084
H12 H 0.4319 0.6721 0.1501
H13 H 0.4630 0.6391 0.2214
loop_
_geom_bond_atom_site_label_1
_geom_bond_atom_site_label_2
_geom_bond_site_symmetry_1
_geom_bond_site_symmetry_2
Br1 C3 1_555 1_555
Cl1 C5 1_555 1_555
O1 H1 1_555 1_555
O2 C8 1_555 1_555
O3 H2 1_555 1_555
O4 H3 1_555 1_555
N1 N2 1_555 1_555
N2 C8 1_555 1_555
C1 C2 1_555 1_555
C2 O1 1_555 1_555
C3 C2 1_555 1_555
C4 C3 1_555 1_555
H4 C4 1_555 1_555
C5 C4 1_555 1_555
C6 C1 1_555 1_555
H5 C6 1_555 1_555
C7 N1 1_555 1_555
H6 C7 1_555 1_555
C8 C9 1_555 1_555
C9 C10 1_555 1_555
C10 H7 1_555 1_555
C11 O3 1_555 1_555
C12 C11 1_555 1_555
H8 C12 1_555 1_555
C13 C12 1_555 1_555
H9 C13 1_555 1_555
C14 C9 1_555 1_555
H10 C14 1_555 1_555
C15 O4 1_555 1_555
H11 C15 1_555 1_555
H12 C15 1_555 1_555
H13 C15 1_555 1_555
H14 N2 1_555 1_555
C1 C7 1_555 1_555
C5 C6 1_555 1_555
C10 C11 1_555 1_555
C13 C14 1_555 1_555

#END
