
#######################################################################
#
#                 Cambridge Crystallographic Data Centre
#                                CCDC 
#
#######################################################################
#
# If this CIF has been generated from an entry in the Cambridge 
# Structural Database, then it will include bibliographic, chemical, 
# crystal, experimental, refinement or atomic coordinate data resulting 
# from the CCDC's data processing and validation procedures.
#
#######################################################################

data_VUQFEU
_chemical_formula_moiety         'C20 H20 N2 O3'
_chemical_name_systematic        'iso--cyclopiazonic acid'
_symmetry_cell_setting           orthorhombic
_symmetry_space_group_name_H-M   'P 21 21 21'
_symmetry_Int_Tables_number      19
_space_group_name_Hall           'P 2ac 2ab'
loop_
_symmetry_equiv_pos_site_id
_symmetry_equiv_pos_as_xyz
1 x,y,z
2 1/2+x,1/2-y,-z
3 -x,1/2+y,1/2-z
4 1/2-x,-y,1/2+z
_cell_length_a                   5.9609(14)
_cell_length_b                   16.168(4)
_cell_length_c                   17.328(4)
_cell_angle_alpha                90
_cell_angle_beta                 90
_cell_angle_gamma                90
_cell_volume                     1670
_exptl_crystal_colour            brown
_exptl_crystal_description       prism
_cell_formula_units_Z            4
loop_
_atom_site_label
_atom_site_type_symbol
_atom_site_fract_x
_atom_site_fract_y
_atom_site_fract_z
O1 O 1.1021(6) 0.75042(18) 0.46056(16)
H1 H 1.0545 0.7019 0.4549
O2 O 0.6377(7) 0.88823(17) 0.30629(17)
O3 O 0.8601(6) 0.63000(17) 0.40861(15)
N1 N 0.5604(7) 0.67339(19) 0.33351(18)
N2 N 0.8895(7) 0.7612(2) 0.08106(19)
H2 H 1.0085 0.7852 0.0610
C1 C 1.0536(10) 0.8901(3) 0.4236(3)
H3 H 1.2125 0.8941 0.4096
H4 H 1.0325 0.9099 0.4765
H5 H 0.9643 0.9240 0.3882
C2 C 0.9794(9) 0.8018(3) 0.4180(2)
C3 C 0.8061(8) 0.7730(3) 0.3742(2)
C4 C 0.7450(8) 0.6842(2) 0.3748(2)
C5 C 0.4800(8) 0.5997(2) 0.2891(2)
C6 C 0.3230(8) 0.6417(2) 0.2282(2)
H6 H 0.1729 0.6465 0.2536
C7 C 0.2824(8) 0.5934(2) 0.1524(2)
H7 H 0.2673 0.5338 0.1647
H8 H 0.1391 0.6120 0.1294
C8 C 0.4676(8) 0.6043(2) 0.0938(2)
C9 C 0.5138(8) 0.5535(2) 0.0313(2)
H9 H 0.4227 0.5064 0.0219
C10 C 0.6951(9) 0.5712(2) -0.0187(2)
H10 H 0.7210 0.5348 -0.0608
C11 C 0.6462(8) 0.8154(2) 0.3257(2)
C12 C 0.4696(8) 0.7517(2) 0.3030(2)
H11 H 0.3276 0.7648 0.3312
C13 C 0.6827(7) 0.5532(2) 0.2542(2)
H12 H 0.7708 0.5280 0.2957
H13 H 0.7769 0.5923 0.2255
H14 H 0.6289 0.5100 0.2191
C14 C 0.8366(9) 0.6380(3) -0.0101(2)
H15 H 0.9588 0.6480 -0.0441
C15 C 0.7872(8) 0.6907(2) 0.0527(2)
C16 C 0.7751(8) 0.7881(2) 0.1461(2)
H16 H 0.8110 0.8360 0.1753
C17 C 0.6037(8) 0.7352(2) 0.1617(2)
C18 C 0.6072(8) 0.6737(2) 0.1023(2)
C19 C 0.4114(8) 0.7329(2) 0.2186(2)
H17 H 0.2872 0.7699 0.2008
C20 C 0.3460(9) 0.5407(2) 0.3403(2)
H18 H 0.2197 0.5705 0.3635
H19 H 0.4433 0.5191 0.3812
H20 H 0.2891 0.4948 0.3090
loop_
_geom_bond_atom_site_label_1
_geom_bond_atom_site_label_2
_geom_bond_site_symmetry_1
_geom_bond_site_symmetry_2
O1 H1 1_555 1_555
O2 C11 1_555 1_555
O3 C4 1_555 1_555
N1 C4 1_555 1_555
N2 H2 1_555 1_555
C1 H3 1_555 1_555
H4 C1 1_555 1_555
H5 C1 1_555 1_555
C2 O1 1_555 1_555
C3 C2 1_555 1_555
C4 C3 1_555 1_555
C5 N1 1_555 1_555
C6 C5 1_555 1_555
H6 C6 1_555 1_555
C7 C6 1_555 1_555
H7 C7 1_555 1_555
H8 C7 1_555 1_555
C8 C7 1_555 1_555
C9 C8 1_555 1_555
H9 C9 1_555 1_555
C10 C9 1_555 1_555
H10 C10 1_555 1_555
C11 C3 1_555 1_555
C12 N1 1_555 1_555
H11 C12 1_555 1_555
C13 C5 1_555 1_555
H12 C13 1_555 1_555
H13 C13 1_555 1_555
H14 C13 1_555 1_555
C14 C10 1_555 1_555
H15 C14 1_555 1_555
C15 N2 1_555 1_555
C16 N2 1_555 1_555
H16 C16 1_555 1_555
C17 C16 1_555 1_555
C18 C8 1_555 1_555
C19 C6 1_555 1_555
H17 C19 1_555 1_555
C20 C5 1_555 1_555
H18 C20 1_555 1_555
H19 C20 1_555 1_555
H20 C20 1_555 1_555
C1 C2 1_555 1_555
C11 C12 1_555 1_555
C12 C19 1_555 1_555
C14 C15 1_555 1_555
C15 C18 1_555 1_555
C17 C18 1_555 1_555
C17 C19 1_555 1_555

#END
