
#######################################################################
#
#                 Cambridge Crystallographic Data Centre
#                                CCDC 
#
#######################################################################
#
# If this CIF has been generated from an entry in the Cambridge 
# Structural Database, then it will include bibliographic, chemical, 
# crystal, experimental, refinement or atomic coordinate data resulting 
# from the CCDC's data processing and validation procedures.
#
#######################################################################

data_VUQGIY
_chemical_formula_moiety         'C7 H3 F2 N2 S2'
_chemical_name_systematic        
'4-(3,4-Difluorophenyl)-1,2,3,5-dithiadiazolyl radical'
_symmetry_cell_setting           monoclinic
_symmetry_space_group_name_H-M   'P 21/n'
_symmetry_Int_Tables_number      14
_space_group_name_Hall           '-P 2yn'
loop_
_symmetry_equiv_pos_site_id
_symmetry_equiv_pos_as_xyz
1 x,y,z
2 1/2-x,1/2+y,1/2-z
3 -x,-y,-z
4 1/2+x,1/2-y,1/2+z
_cell_length_a                   7.543(2)
_cell_length_b                   11.193(2)
_cell_length_c                   18.688(4)
_cell_angle_alpha                90
_cell_angle_beta                 93.87(3)
_cell_angle_gamma                90
_cell_volume                     1574.21
_exptl_crystal_colour            red
_exptl_crystal_description       block
_cell_formula_units_Z            8
loop_
_atom_site_label
_atom_site_type_symbol
_atom_site_fract_x
_atom_site_fract_y
_atom_site_fract_z
S1 S 0.28648(17) 0.09230(11) 0.37560(7)
S2 S 0.29780(17) 0.27167(11) 0.34488(7)
N1 N 0.2011(5) 0.1207(4) 0.4516(2)
N2 N 0.2187(5) 0.3218(4) 0.4181(2)
C1 C 0.1763(6) 0.2372(4) 0.4641(3)
C2 C 0.1025(6) 0.2736(4) 0.5319(3)
C3 C 0.0309(6) 0.1888(4) 0.5765(3)
H1 H 0.0241 0.1070 0.5630
C4 C -0.0291(6) 0.2265(5) 0.6399(3)
F1 F -0.0987(4) 0.1472(3) 0.68514(16)
C5 C -0.0216(6) 0.3451(5) 0.6599(3)
F2 F -0.0803(4) 0.3762(3) 0.72459(16)
C6 C 0.0464(6) 0.4296(5) 0.6171(3)
H2 H 0.0512 0.5112 0.6311
C7 C 0.1083(6) 0.3935(4) 0.5524(3)
H3 H 0.1553 0.4512 0.5216
S3 S 0.66741(17) 0.10397(11) 0.44497(7)
S4 S 0.69278(16) 0.28285(11) 0.41445(7)
N3 N 0.5964(5) 0.1356(4) 0.5232(2)
N4 N 0.6275(5) 0.3362(4) 0.4892(2)
C8 C 0.5874(6) 0.2533(4) 0.5366(3)
C9 C 0.5291(6) 0.2915(4) 0.6068(3)
C10 C 0.4637(6) 0.2074(4) 0.6535(3)
H4 H 0.4595 0.1253 0.6407
C11 C 0.4061(6) 0.2435(5) 0.7173(3)
F3 F 0.3390(4) 0.1631(3) 0.76279(16)
C12 C 0.4124(6) 0.3618(5) 0.7376(3)
F4 F 0.3520(4) 0.3938(3) 0.80086(16)
C13 C 0.4787(6) 0.4462(5) 0.6933(3)
H5 H 0.4851 0.5276 0.7076
C14 C 0.5364(6) 0.4117(4) 0.6275(3)
H6 H 0.5810 0.4698 0.5964
loop_
_geom_bond_atom_site_label_1
_geom_bond_atom_site_label_2
_geom_bond_site_symmetry_1
_geom_bond_site_symmetry_2
S1 S2 1_555 1_555
S2 N2 1_555 1_555
N1 S1 1_555 1_555
N2 C1 1_555 1_555
C1 N1 1_555 1_555
C2 C1 1_555 1_555
C3 C2 1_555 1_555
H1 C3 1_555 1_555
C4 C3 1_555 1_555
F1 C4 1_555 1_555
C5 C4 1_555 1_555
F2 C5 1_555 1_555
C6 C5 1_555 1_555
H2 C6 1_555 1_555
C7 C2 1_555 1_555
H3 C7 1_555 1_555
S3 S4 1_555 1_555
S4 N4 1_555 1_555
N3 S3 1_555 1_555
N4 C8 1_555 1_555
C8 N3 1_555 1_555
C9 C8 1_555 1_555
C10 C9 1_555 1_555
H4 C10 1_555 1_555
C11 C10 1_555 1_555
F3 C11 1_555 1_555
C12 C11 1_555 1_555
F4 C12 1_555 1_555
C13 C12 1_555 1_555
H5 C13 1_555 1_555
C14 C9 1_555 1_555
H6 C14 1_555 1_555
C6 C7 1_555 1_555
C13 C14 1_555 1_555

#END
