
#######################################################################
#
#                 Cambridge Crystallographic Data Centre
#                                CCDC 
#
#######################################################################
#
# If this CIF has been generated from an entry in the Cambridge 
# Structural Database, then it will include bibliographic, chemical, 
# crystal, experimental, refinement or atomic coordinate data resulting 
# from the CCDC's data processing and validation procedures.
#
#######################################################################

data_VUQGOE
_chemical_formula_moiety         'C7 H3 F2 N2 S2'
_chemical_name_systematic        
'4-(3,5-Difluorophenyl)-1,2,3,5-dithiadiazolyl radical'
_symmetry_cell_setting           triclinic
_symmetry_space_group_name_H-M   'P -1'
_symmetry_Int_Tables_number      2
_space_group_name_Hall           '-P 1'
loop_
_symmetry_equiv_pos_site_id
_symmetry_equiv_pos_as_xyz
1 x,y,z
2 -x,-y,-z
_cell_length_a                   7.058(3)
_cell_length_b                   15.045(5)
_cell_length_c                   16.258(6)
_cell_angle_alpha                66.79(3)
_cell_angle_beta                 84.17(3)
_cell_angle_gamma                80.40(3)
_cell_volume                     1563.23
_exptl_crystal_colour            red
_exptl_crystal_description       block
_cell_formula_units_Z            8
loop_
_atom_site_label
_atom_site_type_symbol
_atom_site_fract_x
_atom_site_fract_y
_atom_site_fract_z
S1 S 0.2839(3) 0.49913(12) 0.23442(12)
S2 S 0.3043(3) 0.53777(12) 0.09571(12)
N1 N 0.3434(8) 0.3829(4) 0.2576(3)
N2 N 0.3706(8) 0.4265(4) 0.1021(4)
C1 C 0.3832(9) 0.3596(4) 0.1862(4)
C2 C 0.4471(9) 0.2563(4) 0.2010(4)
C3 C 0.4385(9) 0.1847(4) 0.2874(4)
H1 H 0.3874 0.2015 0.3365
C4 C 0.5057(9) 0.0890(5) 0.2999(4)
F1 F 0.5006(6) 0.0202(3) 0.3833(3)
C5 C 0.5812(9) 0.0609(5) 0.2316(5)
H2 H 0.6260 -0.0056 0.2418
C6 C 0.5894(9) 0.1332(5) 0.1476(5)
F2 F 0.6685(7) 0.1076(3) 0.0789(3)
C7 C 0.5232(9) 0.2301(5) 0.1301(4)
H3 H 0.5294 0.2781 0.0709
S3 S 0.7170(3) 0.51696(12) 0.23426(12)
S4 S 0.7340(3) 0.56180(12) 0.09453(12)
N3 N 0.7976(8) 0.4029(4) 0.2527(4)
N4 N 0.8170(8) 0.4534(4) 0.0969(4)
C8 C 0.8402(9) 0.3846(5) 0.1794(4)
C9 C 0.9235(8) 0.2846(4) 0.1883(4)
C10 C 0.9214(9) 0.2078(5) 0.2726(4)
H4 H 0.8690 0.2193 0.3243
C11 C 0.9970(10) 0.1153(5) 0.2785(4)
F3 F 0.9944(7) 0.0410(3) 0.3598(3)
C12 C 1.0748(9) 0.0940(5) 0.2073(5)
H5 H 1.1259 0.0292 0.2135
C13 C 1.0753(9) 0.1708(5) 0.1262(4)
F4 F 1.1553(6) 0.1522(3) 0.0533(3)
C14 C 1.0013(9) 0.2656(5) 0.1142(4)
H6 H 1.0036 0.3167 0.0565
S5 S -0.0809(3) 0.88682(12) 0.11100(11)
S6 S -0.0055(3) 0.73882(13) 0.13258(12)
N5 N -0.0815(8) 0.8677(4) 0.2170(3)
N6 N 0.0070(8) 0.7027(4) 0.2401(4)
C15 C -0.0387(8) 0.7745(4) 0.2709(4)
C16 C -0.0381(9) 0.7494(5) 0.3683(4)
C17 C -0.1093(9) 0.8196(5) 0.4029(4)
H7 H -0.1581 0.8838 0.3643
C18 C -0.1087(9) 0.7955(5) 0.4937(4)
F5 F -0.1790(6) 0.8629(3) 0.5270(3)
C19 C -0.0425(9) 0.7034(5) 0.5525(4)
H8 H -0.0458 0.6870 0.6153
C20 C 0.0291(10) 0.6360(5) 0.5152(5)
F6 F 0.0979(6) 0.5441(3) 0.5723(3)
C21 C 0.0333(9) 0.6548(5) 0.4262(4)
H9 H 0.0828 0.6055 0.4040
S7 S 0.3583(3) 0.91035(12) 0.09295(11)
S8 S 0.4391(3) 0.76577(13) 0.10475(12)
N7 N 0.3722(8) 0.8837(4) 0.1997(4)
N8 N 0.4677(8) 0.7232(4) 0.2119(4)
C22 C 0.4310(9) 0.7895(5) 0.2483(4)
C23 C 0.4472(9) 0.7594(4) 0.3462(4)
C24 C 0.3757(9) 0.8234(5) 0.3873(4)
H10 H 0.3189 0.8879 0.3530
C25 C 0.3874(9) 0.7930(5) 0.4777(5)
F7 F 0.3116(6) 0.8549(3) 0.5181(3)
C26 C 0.4691(9) 0.7006(5) 0.5308(4)
H11 H 0.4762 0.6804 0.5938
C27 C 0.5397(9) 0.6395(5) 0.4875(4)
F8 F 0.6219(6) 0.5475(3) 0.5385(3)
C28 C 0.5323(9) 0.6652(5) 0.3969(4)
H12 H 0.5834 0.6203 0.3697
loop_
_geom_bond_atom_site_label_1
_geom_bond_atom_site_label_2
_geom_bond_site_symmetry_1
_geom_bond_site_symmetry_2
S1 S2 1_555 1_555
S2 N2 1_555 1_555
N1 S1 1_555 1_555
N2 C1 1_555 1_555
C1 N1 1_555 1_555
C2 C1 1_555 1_555
C3 C2 1_555 1_555
H1 C3 1_555 1_555
C4 C3 1_555 1_555
F1 C4 1_555 1_555
C5 C4 1_555 1_555
H2 C5 1_555 1_555
C6 C5 1_555 1_555
F2 C6 1_555 1_555
C7 C2 1_555 1_555
H3 C7 1_555 1_555
S3 S4 1_555 1_555
S4 N4 1_555 1_555
N3 S3 1_555 1_555
N4 C8 1_555 1_555
C8 N3 1_555 1_555
C9 C8 1_555 1_555
C10 C9 1_555 1_555
H4 C10 1_555 1_555
C11 C10 1_555 1_555
F3 C11 1_555 1_555
C12 C11 1_555 1_555
H5 C12 1_555 1_555
C13 C12 1_555 1_555
F4 C13 1_555 1_555
C14 C9 1_555 1_555
H6 C14 1_555 1_555
S5 S6 1_555 1_555
S6 N6 1_555 1_555
N5 S5 1_555 1_555
N6 C15 1_555 1_555
C15 N5 1_555 1_555
C16 C15 1_555 1_555
C17 C16 1_555 1_555
H7 C17 1_555 1_555
C18 C17 1_555 1_555
F5 C18 1_555 1_555
C19 C18 1_555 1_555
H8 C19 1_555 1_555
C20 C19 1_555 1_555
F6 C20 1_555 1_555
C21 C16 1_555 1_555
H9 C21 1_555 1_555
S7 S8 1_555 1_555
S8 N8 1_555 1_555
N7 S7 1_555 1_555
N8 C22 1_555 1_555
C22 N7 1_555 1_555
C23 C22 1_555 1_555
C24 C23 1_555 1_555
H10 C24 1_555 1_555
C25 C24 1_555 1_555
F7 C25 1_555 1_555
C26 C25 1_555 1_555
H11 C26 1_555 1_555
C27 C26 1_555 1_555
F8 C27 1_555 1_555
C28 C23 1_555 1_555
H12 C28 1_555 1_555
C6 C7 1_555 1_555
C13 C14 1_555 1_555
C20 C21 1_555 1_555
C27 C28 1_555 1_555

#END
