
#######################################################################
#
#                 Cambridge Crystallographic Data Centre
#                                CCDC 
#
#######################################################################
#
# If this CIF has been generated from an entry in the Cambridge 
# Structural Database, then it will include bibliographic, chemical, 
# crystal, experimental, refinement or atomic coordinate data resulting 
# from the CCDC's data processing and validation procedures.
#
#######################################################################

data_VUQKUP
_chemical_formula_moiety         'C17 H24 O4'
_chemical_name_systematic        
3-hydroxy-8a-methyl-5-methylene-3-(2-oxopropyl)decahydronaphtho[2,3-b]furan-2(3H)-one
_symmetry_cell_setting           orthorhombic
_symmetry_space_group_name_H-M   'P 21 21 21'
_symmetry_Int_Tables_number      19
_space_group_name_Hall           'P 2ac 2ab'
loop_
_symmetry_equiv_pos_site_id
_symmetry_equiv_pos_as_xyz
1 x,y,z
2 1/2+x,1/2-y,-z
3 -x,1/2+y,1/2-z
4 1/2-x,-y,1/2+z
_cell_length_a                   6.38940(10)
_cell_length_b                   11.8924(2)
_cell_length_c                   19.9718(4)
_cell_angle_alpha                90
_cell_angle_beta                 90
_cell_angle_gamma                90
_cell_volume                     1517.56
_exptl_crystal_colour            colorless
_exptl_crystal_description       block
_cell_formula_units_Z            4
loop_
_atom_site_label
_atom_site_type_symbol
_atom_site_fract_x
_atom_site_fract_y
_atom_site_fract_z
O1 O 1.1168(2) 0.84951(11) 0.94067(7)
O2 O 1.2346(2) 1.02593(13) 0.93665(8)
O3 O 0.8330(3) 0.98320(12) 1.02803(6)
H1 H 0.8713 1.0427 1.0448
O4 O 0.9355(3) 1.20230(12) 1.02129(7)
C1 C 0.8194(4) 0.57529(16) 0.80797(11)
H2 H 0.9328 0.5232 0.8170
H3 H 0.6966 0.5487 0.8317
C2 C 0.7741(4) 0.57500(18) 0.73355(11)
H4 H 0.7276 0.5007 0.7201
H5 H 0.9015 0.5921 0.7092
C3 C 0.6062(4) 0.66118(19) 0.71565(11)
H6 H 0.5971 0.6675 0.6673
H7 H 0.4718 0.6349 0.7320
C4 C 0.6509(3) 0.77603(17) 0.74507(9)
C5 C 0.6969(3) 0.77387(15) 0.81968(9)
H8 H 0.5724 0.7425 0.8414
C6 C 0.7328(3) 0.88974(14) 0.85090(8)
H9 H 0.6160 0.9384 0.8398
H10 H 0.8584 0.9226 0.8319
C7 C 0.7556(3) 0.88382(14) 0.92733(8)
H11 H 0.6193 0.8709 0.9484
C8 C 0.9120(3) 0.79404(15) 0.94904(9)
H12 H 0.8907 0.7784 0.9967
C9 C 0.9046(4) 0.68371(16) 0.91105(10)
H13 H 0.7892 0.6395 0.9285
H14 H 1.0325 0.6427 0.9204
C10 C 0.8795(3) 0.69224(15) 0.83508(9)
C11 C 0.8599(3) 0.98826(14) 0.95675(8)
C12 C 1.0918(3) 0.96184(16) 0.94329(9)
C13 C 0.7905(3) 1.10092(14) 0.92918(9)
H15 H 0.8250 1.1035 0.8819
H16 H 0.6394 1.1057 0.9329
C14 C 1.0851(3) 0.73102(19) 0.80253(11)
H17 H 1.1276 0.8013 0.8218
H18 H 1.0644 0.7403 0.7552
H19 H 1.1917 0.6756 0.8102
C15 C 0.6506(4) 0.8672(2) 0.70800(10)
H20 H 0.6223 0.8623 0.6624
H21 H 0.6785 0.9368 0.7273
C16 C 0.8849(3) 1.20305(16) 0.96267(10)
C17 C 0.9071(4) 1.30628(18) 0.92070(12)
H22 H 0.9296 1.3702 0.9491
H23 H 0.7818 1.3173 0.8950
H24 H 1.0241 1.2977 0.8910
loop_
_geom_bond_atom_site_label_1
_geom_bond_atom_site_label_2
_geom_bond_site_symmetry_1
_geom_bond_site_symmetry_2
O1 C8 1_555 1_555
O2 C12 1_555 1_555
O3 H1 1_555 1_555
O4 C16 1_555 1_555
C1 H2 1_555 1_555
H3 C1 1_555 1_555
C2 C1 1_555 1_555
H4 C2 1_555 1_555
H5 C2 1_555 1_555
C3 C2 1_555 1_555
H6 C3 1_555 1_555
H7 C3 1_555 1_555
C4 C3 1_555 1_555
C5 C4 1_555 1_555
H8 C5 1_555 1_555
C6 C5 1_555 1_555
H9 C6 1_555 1_555
H10 C6 1_555 1_555
C7 C6 1_555 1_555
H11 C7 1_555 1_555
C8 C7 1_555 1_555
H12 C8 1_555 1_555
C9 C8 1_555 1_555
H13 C9 1_555 1_555
H14 C9 1_555 1_555
C10 C1 1_555 1_555
C11 O3 1_555 1_555
C12 O1 1_555 1_555
C13 C11 1_555 1_555
H15 C13 1_555 1_555
H16 C13 1_555 1_555
C14 C10 1_555 1_555
H17 C14 1_555 1_555
H18 C14 1_555 1_555
H19 C14 1_555 1_555
C15 C4 1_555 1_555
H20 C15 1_555 1_555
H21 C15 1_555 1_555
C16 C13 1_555 1_555
C17 C16 1_555 1_555
H22 C17 1_555 1_555
H23 C17 1_555 1_555
H24 C17 1_555 1_555
C5 C10 1_555 1_555
C7 C11 1_555 1_555
C9 C10 1_555 1_555
C11 C12 1_555 1_555

#END
