
#######################################################################
#
#                 Cambridge Crystallographic Data Centre
#                                CCDC 
#
#######################################################################
#
# If this CIF has been generated from an entry in the Cambridge 
# Structural Database, then it will include bibliographic, chemical, 
# crystal, experimental, refinement or atomic coordinate data resulting 
# from the CCDC's data processing and validation procedures.
#
#######################################################################

data_VUQMOK
_chemical_formula_moiety         
'C38 H34 N10 4+,3(F6 P1 1-),C8 H5 O4 1-,4(H2 O1)'
_chemical_name_systematic        
'cyclo-[bis((2,6-bis(1H-imidazol-1-yl)pyridine)-(1,4-dimethylenebenzene))] terephthalate tris(hexafluorophosphate) tetrahydrate'
_symmetry_cell_setting           triclinic
_symmetry_space_group_name_H-M   'P -1'
_symmetry_Int_Tables_number      2
_space_group_name_Hall           '-P 1'
loop_
_symmetry_equiv_pos_site_id
_symmetry_equiv_pos_as_xyz
1 x,y,z
2 -x,-y,-z
_cell_length_a                   9.6484(19)
_cell_length_b                   10.886(2)
_cell_length_c                   12.208(2)
_cell_angle_alpha                107.06(3)
_cell_angle_beta                 92.25(3)
_cell_angle_gamma                93.86(3)
_cell_volume                     1220.69
_exptl_crystal_colour            colorless
_exptl_crystal_description       prisms
_cell_formula_units_Z            1
loop_
_atom_site_label
_atom_site_type_symbol
_atom_site_fract_x
_atom_site_fract_y
_atom_site_fract_z
P1 P 0.23110(7) 0.90782(6) 0.01270(5)
F1 F 0.22259(18) 0.77331(15) 0.04100(13)
F2 F 0.17403(17) 0.97708(15) 0.12543(12)
F3 F 0.2367(2) 1.04013(16) -0.01515(15)
F4 F 0.28523(18) 0.83693(17) -0.10127(13)
F5 F 0.38606(18) 0.9370(2) 0.06182(15)
F6 F 0.07472(16) 0.87276(16) -0.03651(13)
P2 P 0.5000 0.0000 0.5000
F7 F 0.64989(14) 0.01286(16) 0.56010(13)
F8 F 0.48398(17) 0.14831(14) 0.55649(15)
F9 F 0.42884(15) -0.03788(15) 0.59512(12)
F7A F 0.35011(14) -0.01286(16) 0.43990(13)
F8A F 0.51602(17) -0.14831(14) 0.44351(15)
F9A F 0.57116(15) 0.03788(15) 0.40488(12)
O1 O 1.0602(2) 0.5413(2) 0.26638(18)
O2 O 1.0299(2) 0.4066(2) 0.04897(18)
N1 N 0.8138(2) 0.83955(18) 0.27050(15)
N2 N 0.94723(19) 0.83465(17) 0.40436(14)
N3 N 0.87887(18) 0.80331(16) 0.56115(14)
N4 N 0.78827(19) 0.76796(17) 0.70998(14)
N5 N 0.6578(2) 0.72194(18) 0.82485(14)
C1 C 0.8157(2) 0.8176(2) 0.36424(18)
H1 H 0.7377 0.7931 0.4005
C2 C 0.9490(3) 0.8702(2) 0.24924(19)
H2 H 0.9762 0.8904 0.1822
C3 C 1.0323(3) 0.8679(2) 0.33206(19)
H3 H 1.1306 0.8853 0.3404
C4 C 0.9862(2) 0.8191(2) 0.50549(18)
C5 C 1.1241(2) 0.8214(2) 0.5383(2)
H4 H 1.1962 0.8322 0.4903
C6 C 1.1498(2) 0.8079(2) 0.6384(2)
H5 H 1.2427 0.8099 0.6680
C7 C 1.0413(2) 0.7909(2) 0.6994(2)
H6 H 1.0570 0.7812 0.7736
C8 C 0.9083(2) 0.7875(2) 0.65507(17)
C9 C 0.7865(2) 0.7264(2) 0.79613(18)
H7 H 0.8644 0.7027 0.8332
C10 C 0.5731(2) 0.7631(2) 0.75727(19)
H8 H 0.4757 0.7700 0.7612
C11 C 0.6539(2) 0.7915(2) 0.68512(19)
H9 H 0.6253 0.8238 0.6242
C12 C 0.6131(3) 0.6788(2) 0.91577(18)
H10 H 0.6954 0.6771 0.9662
H11 H 0.5524 0.7417 0.9615
C13 C 0.5347(2) 0.5466(2) 0.88017(17)
C14 C 0.6054(2) 0.4361(2) 0.84844(19)
H12 H 0.7039 0.4432 0.8462
C15 C 0.3911(3) 0.5349(2) 0.88291(19)
H13 H 0.3417 0.6101 0.9041
C16 C 0.5335(3) 0.3156(2) 0.81997(19)
H14 H 0.5829 0.2405 0.7976
C17 C 0.3898(2) 0.3036(2) 0.82382(17)
C18 C 0.3189(3) 0.4140(2) 0.85485(19)
H15 H 0.2204 0.4069 0.8569
C19 C 0.6867(3) 0.8290(2) 0.20163(19)
H16 H 0.7083 0.8458 0.1285
H17 H 0.6259 0.8950 0.2426
N1A N 0.1862(2) 0.16045(18) 0.72950(15)
N2A N 0.05277(19) 0.16535(17) 0.59564(14)
N3A N 0.12113(18) 0.19669(16) 0.43885(14)
N4A N 0.21173(19) 0.23204(17) 0.29002(14)
N5A N 0.3422(2) 0.27806(18) 0.17515(14)
C1A C 0.1843(2) 0.1824(2) 0.63576(18)
H1A H 0.2623 0.2069 0.5995
C2A C 0.0510(3) 0.1298(2) 0.75076(19)
H2A H 0.0238 0.1096 0.8178
C3A C -0.0323(3) 0.1321(2) 0.66794(19)
H3A H -0.1306 0.1147 0.6596
C4A C 0.0138(2) 0.1809(2) 0.49451(18)
C5A C -0.1241(2) 0.1786(2) 0.4617(2)
H4A H -0.1962 0.1678 0.5097
C6A C -0.1498(2) 0.1921(2) 0.3616(2)
H5A H -0.2427 0.1901 0.3320
C7A C -0.0413(2) 0.2091(2) 0.3006(2)
H6A H -0.0570 0.2188 0.2264
C8A C 0.0917(2) 0.2125(2) 0.34493(17)
C9A C 0.2135(2) 0.2736(2) 0.20387(18)
H7A H 0.1356 0.2973 0.1668
C10A C 0.4269(2) 0.2369(2) 0.24273(19)
H8A H 0.5243 0.2300 0.2388
C11A C 0.3461(2) 0.2085(2) 0.31488(19)
H9A H 0.3747 0.1762 0.3758
C12A C 0.3869(3) 0.3212(2) 0.08423(18)
H10A H 0.3046 0.3229 0.0338
H11A H 0.4476 0.2583 0.0385
C13A C 0.4653(2) 0.4534(2) 0.11983(17)
C14A C 0.3946(2) 0.5639(2) 0.15156(19)
H12A H 0.2961 0.5568 0.1538
C15A C 0.6089(3) 0.4651(2) 0.11709(19)
H13A H 0.6583 0.3899 0.0959
C16A C 0.4665(3) 0.6844(2) 0.18003(19)
H14A H 0.4171 0.7595 0.2024
C17A C 0.6102(2) 0.6964(2) 0.17618(17)
C18A C 0.6811(3) 0.5860(2) 0.14515(19)
H15A H 0.7796 0.5931 0.1431
C19A C 0.3133(3) 0.1710(2) 0.79837(19)
H16A H 0.2917 0.1542 0.8715
H17A H 0.3741 0.1050 0.7574
O3 O 0.12348(18) 0.50678(17) 0.47841(18)
O4 O 0.17800(19) 0.4611(2) 0.62884(17)
C20 C 0.3605(2) 0.4954(2) 0.52259(18)
C21 C 0.4588(2) 0.4550(2) 0.58319(18)
H18 H 0.4311 0.4224 0.6438
C22 C 0.4024(2) 0.5407(2) 0.43953(18)
H19 H 0.3368 0.5705 0.3952
C23 C 0.2107(2) 0.4873(2) 0.5478(2)
O3A O 0.87652(18) 0.49322(17) 0.52159(18)
O4A O 0.82200(19) 0.5389(2) 0.37116(17)
C20A C 0.6395(2) 0.5046(2) 0.47741(18)
C21A C 0.5412(2) 0.5450(2) 0.41681(18)
H18A H 0.5689 0.5776 0.3562
C22A C 0.5976(2) 0.4593(2) 0.56047(18)
H19A H 0.6632 0.4295 0.6048
C23A C 0.7893(2) 0.5127(2) 0.4522(2)
H20? H 0.036(6) 0.503(7) 0.495(6)
loop_
_geom_bond_atom_site_label_1
_geom_bond_atom_site_label_2
_geom_bond_site_symmetry_1
_geom_bond_site_symmetry_2
P1 F1 1_555 1_555
F2 P1 1_555 1_555
F3 P1 1_555 1_555
F4 P1 1_555 1_555
F5 P1 1_555 1_555
F6 P1 1_555 1_555
P2 F7 1_555 1_555
F8 P2 1_555 1_555
F9 P2 1_555 1_555
N1 C1 1_555 1_555
N2 C1 1_555 1_555
N3 C4 1_555 1_555
N4 C8 1_555 1_555
N5 C9 1_555 1_555
C1 H1 1_555 1_555
C2 N1 1_555 1_555
H2 C2 1_555 1_555
C3 N2 1_555 1_555
H3 C3 1_555 1_555
C4 N2 1_555 1_555
C5 C4 1_555 1_555
H4 C5 1_555 1_555
C6 C5 1_555 1_555
H5 C6 1_555 1_555
C7 C6 1_555 1_555
H6 C7 1_555 1_555
C8 N3 1_555 1_555
C9 N4 1_555 1_555
H7 C9 1_555 1_555
C10 N5 1_555 1_555
H8 C10 1_555 1_555
C11 N4 1_555 1_555
H9 C11 1_555 1_555
C12 N5 1_555 1_555
H10 C12 1_555 1_555
H11 C12 1_555 1_555
C13 C12 1_555 1_555
C14 C13 1_555 1_555
H12 C14 1_555 1_555
C15 C13 1_555 1_555
H13 C15 1_555 1_555
C16 C14 1_555 1_555
H14 C16 1_555 1_555
C17 C16 1_555 1_555
C18 C15 1_555 1_555
H15 C18 1_555 1_555
C19 N1 1_555 1_555
H16 C19 1_555 1_555
H17 C19 1_555 1_555
O3 C23 1_555 1_555
O4 C23 1_555 1_555
C20 C21 1_555 1_555
C21 H18 1_555 1_555
C22 C20 1_555 1_555
H19 C22 1_555 1_555
C23 C20 1_555 1_555
F7A P2 1_555 1_555
F8A P2 1_555 1_555
F9A P2 1_555 1_555
N1A C1A 1_555 1_555
N2A C1A 1_555 1_555
N3A C4A 1_555 1_555
N4A C8A 1_555 1_555
N5A C9A 1_555 1_555
C1A H1A 1_555 1_555
C2A N1A 1_555 1_555
H2A C2A 1_555 1_555
C3A N2A 1_555 1_555
H3A C3A 1_555 1_555
C4A N2A 1_555 1_555
C5A C4A 1_555 1_555
H4A C5A 1_555 1_555
C6A C5A 1_555 1_555
H5A C6A 1_555 1_555
C7A C6A 1_555 1_555
H6A C7A 1_555 1_555
C8A N3A 1_555 1_555
C9A N4A 1_555 1_555
H7A C9A 1_555 1_555
C10A N5A 1_555 1_555
H8A C10A 1_555 1_555
C11A N4A 1_555 1_555
H9A C11A 1_555 1_555
C12A N5A 1_555 1_555
H10A C12A 1_555 1_555
H11A C12A 1_555 1_555
C13A C12A 1_555 1_555
C14A C13A 1_555 1_555
H12A C14A 1_555 1_555
C15A C13A 1_555 1_555
H13A C15A 1_555 1_555
C16A C14A 1_555 1_555
H14A C16A 1_555 1_555
C17A C19 1_555 1_555
C18A C15A 1_555 1_555
H15A C18A 1_555 1_555
C19A C17 1_555 1_555
H16A C19A 1_555 1_555
H17A C19A 1_555 1_555
O3A C23A 1_555 1_555
O4A C23A 1_555 1_555
C20A C21A 1_555 1_555
C21A C22 1_555 1_555
H18A C21A 1_555 1_555
C22A C21 1_555 1_555
H19A C22A 1_555 1_555
C23A C20A 1_555 1_555
C2 C3 1_555 1_555
C7 C8 1_555 1_555
C10 C11 1_555 1_555
C17 C18 1_555 1_555
N1A C19A 1_555 1_555
C2A C3A 1_555 1_555
C7A C8A 1_555 1_555
C10A C11A 1_555 1_555
C16A C17A 1_555 1_555
C17A C18A 1_555 1_555
C20A C22A 1_555 1_555

#END
