
#######################################################################
#
#                 Cambridge Crystallographic Data Centre
#                                CCDC 
#
#######################################################################
#
# If this CIF has been generated from an entry in the Cambridge 
# Structural Database, then it will include bibliographic, chemical, 
# crystal, experimental, refinement or atomic coordinate data resulting 
# from the CCDC's data processing and validation procedures.
#
#######################################################################

data_VUQMUQ
_chemical_formula_moiety         'C38 H34 N10 4+,C2 H3 N1,4(F6 P1 1-)'
_chemical_name_systematic        
'cyclo-[bis((2,6-bis(1H-imidazol-1-yl)pyridine)-(1,4-dimethylenebenzene))] tetrakis(hexafluorophosphate) acetonitrile solvate'
_symmetry_cell_setting           triclinic
_symmetry_space_group_name_H-M   'P -1'
_symmetry_Int_Tables_number      2
_space_group_name_Hall           '-P 1'
loop_
_symmetry_equiv_pos_site_id
_symmetry_equiv_pos_as_xyz
1 x,y,z
2 -x,-y,-z
_cell_length_a                   12.2809(7)
_cell_length_b                   14.7942(9)
_cell_length_c                   15.6032(10)
_cell_angle_alpha                64.702(2)
_cell_angle_beta                 86.784(2)
_cell_angle_gamma                77.402(2)
_cell_volume                     2499.09
_exptl_crystal_colour            colorless
_exptl_crystal_description       needles
_cell_formula_units_Z            2
loop_
_atom_site_label
_atom_site_type_symbol
_atom_site_fract_x
_atom_site_fract_y
_atom_site_fract_z
P1 P 0.50061(13) 0.69083(12) 0.63915(10)
F1 F 0.5211(3) 0.5833(3) 0.6354(3)
F2 F 0.4083(3) 0.7299(3) 0.5559(3)
F3 F 0.4827(4) 0.8002(3) 0.6357(3)
F4 F 0.5932(4) 0.6538(3) 0.7182(3)
F5 F 0.4116(4) 0.6570(4) 0.7132(3)
F6 F 0.5897(3) 0.7241(4) 0.5599(3)
P2 P 0.16654(12) 0.25661(11) 0.70202(11)
F7 F 0.0587(3) 0.3060(3) 0.6295(3)
F8 F 0.1680(3) 0.3645(3) 0.6984(3)
F9 F 0.2744(3) 0.2078(3) 0.7716(2)
F10 F 0.1665(3) 0.1488(3) 0.7054(3)
F11 F 0.2447(3) 0.2776(3) 0.6143(2)
F12 F 0.0874(3) 0.2390(4) 0.7862(3)
P3 P 0.85279(12) 1.05351(12) 0.70840(11)
F13 F 0.7443(3) 1.0406(3) 0.7699(2)
F14 F 0.8418(3) 1.1640(3) 0.7038(3)
F15 F 0.9607(3) 1.0677(3) 0.6464(3)
F16 F 0.8624(3) 0.9432(3) 0.7135(4)
F17 F 0.7747(3) 1.1029(3) 0.6153(2)
F18 F 0.9285(3) 1.0072(3) 0.8018(3)
P4 P 0.23332(14) 0.37520(13) 0.98791(11)
F19 F 0.1913(4) 0.4102(4) 0.8836(3)
F20 F 0.3316(5) 0.4287(5) 0.9427(5)
F21 F 0.2764(5) 0.3450(4) 1.0899(3)
F22 F 0.1347(5) 0.3298(5) 1.0250(5)
F23 F 0.3100(4) 0.2785(4) 0.9910(4)
F24 F 0.1681(6) 0.4784(4) 0.9810(4)
N1 N 0.7366(3) 0.8258(3) 0.6407(3)
N2 N 0.6083(3) 0.9567(3) 0.6543(3)
N3 N 0.5166(3) 0.9526(3) 0.7772(3)
N4 N 0.1167(3) 0.7314(3) 0.7482(3)
N5 N 0.1578(3) 0.6887(3) 0.6326(3)
N6 N 0.2783(3) 0.5431(3) 0.6337(3)
N7 N 0.4059(3) 0.3989(3) 0.6478(3)
N8 N 0.5058(3) 0.2873(3) 0.7729(3)
N9 N 0.9057(3) 0.5311(3) 0.7541(3)
N10 N 0.8556(3) 0.6824(3) 0.6384(3)
C1 C 0.8059(4) 0.7885(4) 0.5895(4)
C2 C 0.8277(4) 0.8438(4) 0.4959(4)
H1 H 0.8777 0.8137 0.4628
C3 C 0.7729(4) 0.9451(4) 0.4530(4)
H2 H 0.7865 0.9859 0.3897
C4 C 0.6976(4) 0.9871(4) 0.5029(4)
H3 H 0.6579 1.0556 0.4749
C5 C 0.6842(4) 0.9225(4) 0.5963(4)
C6 C 0.5974(4) 0.9000(4) 0.7466(3)
H4 H 0.6399 0.8342 0.7833
C7 C 0.4730(4) 1.0450(4) 0.7035(4)
H5 H 0.4139 1.0961 0.7062
C8 C 0.5305(4) 1.0486(4) 0.6274(4)
H6 H 0.5202 1.1034 0.5667
C9 C 0.4734(5) 0.9110(5) 0.8739(4)
H7 H 0.4471 0.9663 0.8939
H8 H 0.5330 0.8603 0.9190
C10 C 0.3792(5) 0.8622(4) 0.8728(4)
C11 C 0.3995(5) 0.7612(4) 0.8856(4)
H9 H 0.4731 0.7222 0.8990
C12 C 0.3155(5) 0.7168(4) 0.8791(4)
H10 H 0.3318 0.6482 0.8880
C13 C 0.2063(5) 0.7728(4) 0.8595(4)
C14 C 0.1844(5) 0.8734(4) 0.8489(4)
H11 H 0.1108 0.9121 0.8367
C15 C 0.2698(5) 0.9161(4) 0.8560(4)
H12 H 0.2535 0.9840 0.8493
C16 C 0.1127(5) 0.7274(5) 0.8451(4)
H13 H 0.1214 0.6562 0.8925
H14 H 0.0404 0.7662 0.8530
C17 C 0.1632(4) 0.6532(4) 0.7280(4)
H15 H 0.1940 0.5860 0.7719
C18 C 0.0823(4) 0.8170(4) 0.6651(4)
H16 H 0.0462 0.8822 0.6600
C19 C 0.1089(5) 0.7915(4) 0.5931(4)
H17 H 0.0967 0.8352 0.5281
C20 C 0.2035(4) 0.6287(4) 0.5819(4)
C21 C 0.1723(4) 0.6588(4) 0.4887(4)
H18 H 0.1186 0.7189 0.4554
C22 C 0.2241(5) 0.5963(4) 0.4460(4)
H19 H 0.2057 0.6140 0.3824
C23 C 0.3023(4) 0.5082(4) 0.4965(4)
H20 H 0.3383 0.4648 0.4689
C24 C 0.3252(4) 0.4871(4) 0.5895(4)
C25 C 0.4214(4) 0.3675(4) 0.7404(4)
H21 H 0.3790 0.3976 0.7772
C26 C 0.5475(5) 0.2671(4) 0.6975(4)
H22 H 0.6083 0.2148 0.7000
C27 C 0.4854(4) 0.3360(4) 0.6199(5)
H23 H 0.4941 0.3406 0.5580
C28 C 0.5580(5) 0.2395(4) 0.8691(4)
H24 H 0.5870 0.1662 0.8881
H25 H 0.5022 0.2473 0.9143
C29 C 0.6508(4) 0.2892(4) 0.8705(4)
C30 C 0.6290(5) 0.3853(4) 0.8703(4)
H26 H 0.5550 0.4174 0.8739
C31 C 0.7135(5) 0.4342(4) 0.8650(4)
H27 H 0.6972 0.4997 0.8642
C32 C 0.8217(5) 0.3880(4) 0.8607(4)
C33 C 0.8457(4) 0.2904(4) 0.8650(4)
H28 H 0.9202 0.2575 0.8644
C34 C 0.7603(5) 0.2411(4) 0.8702(4)
H29 H 0.7770 0.1745 0.8734
C35 C 0.9144(5) 0.4443(4) 0.8501(4)
H30 H 0.9091 0.4704 0.8987
H31 H 0.9870 0.3971 0.8593
C36 C 0.8561(4) 0.6274(4) 0.7326(4)
H32 H 0.8260 0.6533 0.7764
C37 C 0.9048(4) 0.6157(4) 0.5995(4)
H33 H 0.9146 0.6328 0.5347
C38 C 0.9363(4) 0.5221(5) 0.6712(4)
H34 H 0.9724 0.4619 0.6659
N11 N 0.6510(7) 0.9752(5) 0.9835(5)
C39 C 0.7394(8) 0.9441(6) 0.9923(5)
C40 C 0.8577(8) 0.9006(8) 1.0029(7)
H35 H 0.8705 0.8276 1.0431
H36 H 0.8948 0.9329 1.0317
H37 H 0.8874 0.9118 0.9411
loop_
_geom_bond_atom_site_label_1
_geom_bond_atom_site_label_2
_geom_bond_site_symmetry_1
_geom_bond_site_symmetry_2
P1 F1 1_555 1_555
F2 P1 1_555 1_555
F3 P1 1_555 1_555
F4 P1 1_555 1_555
F5 P1 1_555 1_555
F6 P1 1_555 1_555
P2 F7 1_555 1_555
F8 P2 1_555 1_555
F9 P2 1_555 1_555
F10 P2 1_555 1_555
F11 P2 1_555 1_555
F12 P2 1_555 1_555
P3 F13 1_555 1_555
F14 P3 1_555 1_555
F15 P3 1_555 1_555
F16 P3 1_555 1_555
F17 P3 1_555 1_555
F18 P3 1_555 1_555
P4 F19 1_555 1_555
F20 P4 1_555 1_555
F21 P4 1_555 1_555
F22 P4 1_555 1_555
F23 P4 1_555 1_555
F24 P4 1_555 1_555
N1 C1 1_555 1_555
N2 C5 1_555 1_555
N3 C6 1_555 1_555
N4 C16 1_555 1_555
N5 C17 1_555 1_555
N6 C20 1_555 1_555
N7 C24 1_555 1_555
N8 C25 1_555 1_555
N9 C35 1_555 1_555
N10 C1 1_555 1_555
C1 C2 1_555 1_555
C2 H1 1_555 1_555
C3 C2 1_555 1_555
H2 C3 1_555 1_555
C4 C3 1_555 1_555
H3 C4 1_555 1_555
C5 N1 1_555 1_555
C6 N2 1_555 1_555
H4 C6 1_555 1_555
C7 N3 1_555 1_555
H5 C7 1_555 1_555
C8 N2 1_555 1_555
H6 C8 1_555 1_555
C9 N3 1_555 1_555
H7 C9 1_555 1_555
H8 C9 1_555 1_555
C10 C9 1_555 1_555
C11 C10 1_555 1_555
H9 C11 1_555 1_555
C12 C11 1_555 1_555
H10 C12 1_555 1_555
C13 C12 1_555 1_555
C14 C13 1_555 1_555
H11 C14 1_555 1_555
C15 C10 1_555 1_555
H12 C15 1_555 1_555
C16 C13 1_555 1_555
H13 C16 1_555 1_555
H14 C16 1_555 1_555
C17 N4 1_555 1_555
H15 C17 1_555 1_555
C18 N4 1_555 1_555
H16 C18 1_555 1_555
C19 N5 1_555 1_555
H17 C19 1_555 1_555
C20 N5 1_555 1_555
C21 C20 1_555 1_555
H18 C21 1_555 1_555
C22 C21 1_555 1_555
H19 C22 1_555 1_555
C23 C22 1_555 1_555
H20 C23 1_555 1_555
C24 N6 1_555 1_555
C25 N7 1_555 1_555
H21 C25 1_555 1_555
C26 N8 1_555 1_555
H22 C26 1_555 1_555
C27 N7 1_555 1_555
H23 C27 1_555 1_555
C28 N8 1_555 1_555
H24 C28 1_555 1_555
H25 C28 1_555 1_555
C29 C28 1_555 1_555
C30 C29 1_555 1_555
H26 C30 1_555 1_555
C31 C30 1_555 1_555
H27 C31 1_555 1_555
C32 C31 1_555 1_555
C33 C32 1_555 1_555
H28 C33 1_555 1_555
C34 C29 1_555 1_555
H29 C34 1_555 1_555
C35 C32 1_555 1_555
H30 C35 1_555 1_555
H31 C35 1_555 1_555
C36 N9 1_555 1_555
H32 C36 1_555 1_555
C37 N10 1_555 1_555
H33 C37 1_555 1_555
C38 N9 1_555 1_555
H34 C38 1_555 1_555
N11 C39 1_555 1_555
C39 C40 1_555 1_555
C40 H35 1_555 1_555
H36 C40 1_555 1_555
H37 C40 1_555 1_555
N10 C36 1_555 1_555
C4 C5 1_555 1_555
C7 C8 1_555 1_555
C14 C15 1_555 1_555
C18 C19 1_555 1_555
C23 C24 1_555 1_555
C26 C27 1_555 1_555
C33 C34 1_555 1_555
C37 C38 1_555 1_555

#END
