
#######################################################################
#
#                 Cambridge Crystallographic Data Centre
#                                CCDC 
#
#######################################################################
#
# If this CIF has been generated from an entry in the Cambridge 
# Structural Database, then it will include bibliographic, chemical, 
# crystal, experimental, refinement or atomic coordinate data resulting 
# from the CCDC's data processing and validation procedures.
#
#######################################################################

data_VUQQIJ
_chemical_formula_moiety         'C38 H34 N10 4+,2(C9 H4 O6 2-),12(H2 O1)'
_chemical_name_systematic        
'6,12,25,31,42,47-hexaaza-3,15,22,34-tetraazonianonacyclo[34.2.2.2^17,20^.1^3,6^.1^7,11^.1^12,15^.1^22,25^.1^26,30^.1^31,34^]octatetraconta-1(38),3(48),4,7(47),8,10,13,15(46),17,19,22(43),23,26(42),27,29,32,34(41),36,39,44-icosaene bis(5-carboxyisophthalate) dodecahydrate'
_symmetry_cell_setting           triclinic
_symmetry_space_group_name_H-M   'P -1'
_symmetry_Int_Tables_number      2
_space_group_name_Hall           '-P 1'
loop_
_symmetry_equiv_pos_site_id
_symmetry_equiv_pos_as_xyz
1 x,y,z
2 -x,-y,-z
_cell_length_a                   7.1764(14)
_cell_length_b                   13.154(3)
_cell_length_c                   15.913(3)
_cell_angle_alpha                85.06(3)
_cell_angle_beta                 88.03(3)
_cell_angle_gamma                76.70(3)
_cell_volume                     1456.28
_exptl_crystal_colour            colorless
_exptl_crystal_description       prism
_cell_formula_units_Z            1
loop_
_atom_site_label
_atom_site_type_symbol
_atom_site_fract_x
_atom_site_fract_y
_atom_site_fract_z
N1 N 0.0479(10) 0.8538(5) 0.1944(4)
N2 N 0.1265(9) 0.7045(5) 0.1364(4)
N3 N 0.0965(9) 0.5420(5) 0.1950(4)
N4 N 0.0609(9) 0.3863(4) 0.2638(4)
N5 N -0.0067(9) 0.2658(4) 0.3521(4)
C1 C -0.0297(15) 0.9356(6) 0.2521(5)
H1 H -0.1644 0.9631 0.2403
H2 H 0.0347 0.9926 0.2401
C2 C 0.0532(13) 0.7507(6) 0.2069(5)
H3 H 0.0133 0.7169 0.2556
C3 C 0.1172(13) 0.8740(6) 0.1135(5)
H4 H 0.1279 0.9391 0.0887
C4 C 0.1664(12) 0.7815(6) 0.0773(5)
H5 H 0.2172 0.7714 0.0233
C5 C 0.1466(11) 0.5962(5) 0.1267(5)
C6 C 0.2161(12) 0.5553(6) 0.0513(5)
H6 H 0.2447 0.5973 0.0049
C7 C 0.2405(13) 0.4468(6) 0.0493(5)
H7 H 0.2925 0.4142 0.0015
C8 C 0.1873(12) 0.3879(6) 0.1187(5)
H8 H 0.1983 0.3161 0.1177
C9 C 0.1162(10) 0.4402(6) 0.1904(4)
C10 C 0.0653(11) 0.2830(6) 0.2756(5)
H9 H 0.1104 0.2331 0.2373
C11 C -0.0128(11) 0.4326(6) 0.3372(5)
H10 H -0.0288 0.5028 0.3468
C12 C -0.0559(11) 0.3585(6) 0.3906(4)
H11 H -0.1095 0.3673 0.4443
C13 C -0.0432(13) 0.1628(6) 0.3861(5)
H12 H 0.0468 0.1072 0.3601
H13 H -0.1712 0.1594 0.3709
C14 C -0.0241(11) 0.1447(5) 0.4824(4)
C15 C -0.1816(13) 0.1684(7) 0.5336(5)
H14 H -0.2999 0.1994 0.5100
C16 C -0.1686(14) 0.1473(7) 0.6199(6)
H15 H -0.2769 0.1644 0.6543
C17 C 0.0098(14) 0.0998(6) 0.6553(5)
C18 C 0.1700(12) 0.0774(6) 0.6047(5)
H16 H 0.2890 0.0471 0.6280
C19 C 0.1521(13) 0.1012(6) 0.5166(5)
H17 H 0.2600 0.0872 0.4816
N1A N -0.0479(10) 0.1462(5) 0.8056(4)
N2A N -0.1265(9) 0.2955(5) 0.8636(4)
N3A N -0.0965(9) 0.4580(5) 0.8050(4)
N4A N -0.0609(9) 0.6137(4) 0.7362(4)
N5A N 0.0067(9) 0.7342(4) 0.6479(4)
C1A C 0.0297(15) 0.0644(6) 0.7479(5)
H1A H 0.1644 0.0369 0.7597
H2A H -0.0347 0.0074 0.7599
C2A C -0.0532(13) 0.2493(6) 0.7931(5)
H3A H -0.0133 0.2831 0.7444
C3A C -0.1172(13) 0.1260(6) 0.8865(5)
H4A H -0.1279 0.0609 0.9113
C4A C -0.1664(12) 0.2185(6) 0.9227(5)
H5A H -0.2172 0.2286 0.9767
C5A C -0.1466(11) 0.4038(5) 0.8733(5)
C6A C -0.2161(12) 0.4447(6) 0.9487(5)
H6A H -0.2447 0.4027 0.9951
C7A C -0.2405(13) 0.5532(6) 0.9507(5)
H7A H -0.2925 0.5858 0.9985
C8A C -0.1873(12) 0.6121(6) 0.8813(5)
H8A H -0.1983 0.6839 0.8823
C9A C -0.1162(10) 0.5598(6) 0.8096(4)
C10A C -0.0653(11) 0.7170(6) 0.7244(5)
H9A H -0.1104 0.7669 0.7627
C11A C 0.0128(11) 0.5674(6) 0.6628(5)
H10A H 0.0288 0.4972 0.6532
C12A C 0.0559(11) 0.6415(6) 0.6094(4)
H11A H 0.1095 0.6327 0.5557
C13A C 0.0432(13) 0.8372(6) 0.6139(5)
H12A H -0.0468 0.8928 0.6399
H13A H 0.1712 0.8406 0.6291
C14A C 0.0241(11) 0.8553(5) 0.5176(4)
C15A C 0.1816(13) 0.8316(7) 0.4664(5)
H14A H 0.2999 0.8006 0.4900
C16A C 0.1686(14) 0.8527(7) 0.3801(6)
H15A H 0.2769 0.8356 0.3457
C17A C -0.0098(14) 0.9002(6) 0.3447(5)
C18A C -0.1700(12) 0.9226(6) 0.3953(5)
H16A H -0.2890 0.9529 0.3720
C19A C -0.1521(13) 0.8988(6) 0.4834(5)
H17A H -0.2600 0.9128 0.5184
O1 O 0.6422(10) 0.1936(4) 0.2135(4)
O2 O 0.7496(10) 0.2896(4) 0.1084(4)
O3 O 0.6298(10) 0.6761(4) 0.1204(4)
O4 O 0.5987(11) 0.7356(4) 0.2492(4)
H18 H 0.6178 0.7890 0.2232
O5 O 0.2766(10) 0.5289(5) 0.4674(4)
O6 O 0.3817(9) 0.3537(4) 0.4709(3)
C20 C 0.6693(12) 0.2786(6) 0.1796(5)
C21 C 0.6029(13) 0.6654(6) 0.1976(6)
C22 C 0.3601(12) 0.4526(7) 0.4356(5)
C23 C 0.6005(11) 0.3743(6) 0.2282(4)
C24 C 0.6244(11) 0.4721(6) 0.1927(5)
H19 H 0.6779 0.4776 0.1389
C25 C 0.5687(11) 0.5608(5) 0.2372(5)
C26 C 0.4803(12) 0.5546(6) 0.3151(5)
H20 H 0.4365 0.6145 0.3437
C27 C 0.4570(11) 0.4575(6) 0.3506(5)
C28 C 0.5177(11) 0.3676(6) 0.3079(5)
H21 H 0.5030 0.3032 0.3327
O7 O 0.0971(10) 0.1352(5) 0.1195(4)
O8 O 0.6670(10) 0.8524(5) 0.0263(4)
O9 O 0.8023(10) 0.6781(5) 0.3875(4)
O10 O 0.6277(11) 0.0551(5) 0.0884(5)
O11 O 0.4104(10) 0.1037(5) 0.3273(4)
O12 O 0.4477(11) 0.9416(5) 0.2228(5)
H22? H 0.6838 0.1467 0.1824
H23? H 0.6459 0.7352 0.1071
H24? H 0.2331 0.5118 0.5134
H25? H 0.7801 0.2327 0.0881
H26? H 0.3270 0.3546 0.5170
loop_
_geom_bond_atom_site_label_1
_geom_bond_atom_site_label_2
_geom_bond_site_symmetry_1
_geom_bond_site_symmetry_2
N1 C1 1_555 1_555
N2 C2 1_555 1_555
N3 C5 1_555 1_555
N4 C9 1_555 1_555
N5 C10 1_555 1_555
C1 H1 1_555 1_555
H2 C1 1_555 1_555
C2 N1 1_555 1_555
H3 C2 1_555 1_555
C3 N1 1_555 1_555
H4 C3 1_555 1_555
C4 N2 1_555 1_555
H5 C4 1_555 1_555
C5 N2 1_555 1_555
C6 C5 1_555 1_555
H6 C6 1_555 1_555
C7 C6 1_555 1_555
H7 C7 1_555 1_555
C8 C7 1_555 1_555
H8 C8 1_555 1_555
C9 N3 1_555 1_555
C10 N4 1_555 1_555
H9 C10 1_555 1_555
C11 N4 1_555 1_555
H10 C11 1_555 1_555
C12 N5 1_555 1_555
H11 C12 1_555 1_555
C13 N5 1_555 1_555
H12 C13 1_555 1_555
H13 C13 1_555 1_555
C14 C13 1_555 1_555
C15 C14 1_555 1_555
H14 C15 1_555 1_555
C16 C15 1_555 1_555
H15 C16 1_555 1_555
C17 C16 1_555 1_555
C18 C17 1_555 1_555
H16 C18 1_555 1_555
C19 C14 1_555 1_555
H17 C19 1_555 1_555
O1 C20 1_555 1_555
O2 C20 1_555 1_555
O3 C21 1_555 1_555
O4 H18 1_555 1_555
O5 C22 1_555 1_555
O6 C22 1_555 1_555
C20 C23 1_555 1_555
C21 O4 1_555 1_555
C22 C27 1_555 1_555
C23 C24 1_555 1_555
C24 H19 1_555 1_555
C25 C21 1_555 1_555
C26 C25 1_555 1_555
H20 C26 1_555 1_555
C27 C26 1_555 1_555
C28 C23 1_555 1_555
H21 C28 1_555 1_555
N1A C1A 1_555 1_555
N2A C2A 1_555 1_555
N3A C5A 1_555 1_555
N4A C9A 1_555 1_555
N5A C10A 1_555 1_555
C1A C17 1_555 1_555
H1A C1A 1_555 1_555
H2A C1A 1_555 1_555
C2A N1A 1_555 1_555
H3A C2A 1_555 1_555
C3A N1A 1_555 1_555
H4A C3A 1_555 1_555
C4A N2A 1_555 1_555
H5A C4A 1_555 1_555
C5A N2A 1_555 1_555
C6A C5A 1_555 1_555
H6A C6A 1_555 1_555
C7A C6A 1_555 1_555
H7A C7A 1_555 1_555
C8A C7A 1_555 1_555
H8A C8A 1_555 1_555
C9A N3A 1_555 1_555
C10A N4A 1_555 1_555
H9A C10A 1_555 1_555
C11A N4A 1_555 1_555
H10A C11A 1_555 1_555
C12A N5A 1_555 1_555
H11A C12A 1_555 1_555
C13A N5A 1_555 1_555
H12A C13A 1_555 1_555
H13A C13A 1_555 1_555
C14A C13A 1_555 1_555
C15A C14A 1_555 1_555
H14A C15A 1_555 1_555
C16A C15A 1_555 1_555
H15A C16A 1_555 1_555
C17A C1 1_555 1_555
C18A C17A 1_555 1_555
H16A C18A 1_555 1_555
C19A C14A 1_555 1_555
H17A C19A 1_555 1_555
C3 C4 1_555 1_555
C8 C9 1_555 1_555
C11 C12 1_555 1_555
C18 C19 1_555 1_555
C24 C25 1_555 1_555
C27 C28 1_555 1_555
C3A C4A 1_555 1_555
C8A C9A 1_555 1_555
C11A C12A 1_555 1_555
C16A C17A 1_555 1_555
C18A C19A 1_555 1_555

#END
