
#######################################################################
#
#                 Cambridge Crystallographic Data Centre
#                                CCDC 
#
#######################################################################
#
# If this CIF has been generated from an entry in the Cambridge 
# Structural Database, then it will include bibliographic, chemical, 
# crystal, experimental, refinement or atomic coordinate data resulting 
# from the CCDC's data processing and validation procedures.
#
#######################################################################

data_VUQQEF
_chemical_formula_moiety         'C38 H34 N10 4+,4(C9 H5 O6 1-),12(H2 O1)'
_chemical_name_systematic        
'6,12,25,31,42,47-hexaaza-3,15,22,34-tetraazonianonacyclo[34.2.2.2^17,20^.1^3,6^.1^7,11^.1^12,15^.1^22,25^.1^26,30^.1^31,34^]octatetraconta-1(38),3(48),4,7(47),8,10,13,15(46),17,19,22(43),23,26(42),27,29,32,34(41),36,39,44-icosaene tetrakis(3,5-dicarboxybenzoate) dodecahydrate'
_symmetry_cell_setting           triclinic
_symmetry_space_group_name_H-M   'P -1'
_symmetry_Int_Tables_number      2
_space_group_name_Hall           '-P 1'
loop_
_symmetry_equiv_pos_site_id
_symmetry_equiv_pos_as_xyz
1 x,y,z
2 -x,-y,-z
_cell_length_a                   6.9811(8)
_cell_length_b                   16.0997(15)
_cell_length_c                   17.3430(16)
_cell_angle_alpha                105.313(3)
_cell_angle_beta                 93.975(4)
_cell_angle_gamma                102.060(4)
_cell_volume                     1822.46
_exptl_crystal_colour            colorless
_exptl_crystal_description       block
_cell_formula_units_Z            1
loop_
_atom_site_label
_atom_site_type_symbol
_atom_site_fract_x
_atom_site_fract_y
_atom_site_fract_z
N1 N 1.0313(5) 0.12557(19) 0.24958(18)
N2 N 0.9779(5) 0.2535(2) 0.25333(18)
N3 N 0.9040(4) 0.30646(18) 0.14630(17)
N4 N 0.8336(4) 0.34608(18) 0.03125(17)
N5 N 0.7869(5) 0.26305(19) -0.09119(18)
C1 C 1.0406(6) 0.0313(2) 0.2193(2)
H1 H 1.1212 0.0163 0.2590
H2 H 1.1017 0.0226 0.1701
C2 C 0.9797(5) 0.1739(2) 0.2046(2)
H3 H 0.9498 0.1559 0.1487
C3 C 1.0608(6) 0.1743(3) 0.3292(2)
H4 H 1.0969 0.1555 0.3732
C4 C 1.0281(7) 0.2541(3) 0.3318(2)
H5 H 1.0375 0.3010 0.3779
C5 C 0.9381(6) 0.3250(2) 0.2255(2)
C6 C 0.9416(7) 0.4059(3) 0.2789(2)
H6 H 0.9623 0.4153 0.3344
C7 C 0.9128(7) 0.4726(3) 0.2460(2)
H7 H 0.9165 0.5286 0.2797
C8 C 0.8787(6) 0.4566(2) 0.1635(2)
H8 H 0.8600 0.5005 0.1401
C9 C 0.8738(5) 0.3718(2) 0.1177(2)
C10 C 0.8310(5) 0.2649(2) -0.0157(2)
H9 H 0.8560 0.2180 0.0021
C11 C 0.7874(6) 0.3965(2) -0.0178(2)
H10 H 0.7777 0.4552 -0.0011
C12 C 0.7593(6) 0.3445(2) -0.0941(2)
H11 H 0.7273 0.3604 -0.1403
C13 C 0.7602(6) 0.1827(2) -0.1603(2)
H12 H 0.8487 0.1470 -0.1490
H13 H 0.7938 0.2000 -0.2081
C14 C 0.5504(6) 0.1287(2) -0.1758(2)
C15 C 0.4219(6) 0.1262(2) -0.2415(2)
H14 H 0.4656 0.1583 -0.2770
C16 C 0.2302(6) 0.0766(2) -0.2548(2)
H15 H 0.1453 0.0755 -0.2990
C17 C 0.1631(6) 0.0282(2) -0.2028(2)
C18 C 0.2918(6) 0.0321(2) -0.1362(2)
H16 H 0.2476 0.0010 -0.1002
C19 C 0.4820(6) 0.0811(2) -0.1233(2)
H17 H 0.5666 0.0825 -0.0789
N1A N -0.0313(5) -0.12557(19) -0.24958(18)
N2A N 0.0221(5) -0.2535(2) -0.25333(18)
N3A N 0.0960(4) -0.30646(18) -0.14630(17)
N4A N 0.1664(4) -0.34608(18) -0.03125(17)
N5A N 0.2131(5) -0.26305(19) 0.09119(18)
C1A C -0.0406(6) -0.0313(2) -0.2193(2)
H1A H -0.1212 -0.0163 -0.2590
H2A H -0.1017 -0.0226 -0.1701
C2A C 0.0203(5) -0.1739(2) -0.2046(2)
H3A H 0.0502 -0.1559 -0.1487
C3A C -0.0608(6) -0.1743(3) -0.3292(2)
H4A H -0.0969 -0.1555 -0.3732
C4A C -0.0281(7) -0.2541(3) -0.3318(2)
H5A H -0.0375 -0.3010 -0.3779
C5A C 0.0619(6) -0.3250(2) -0.2255(2)
C6A C 0.0584(7) -0.4059(3) -0.2789(2)
H6A H 0.0377 -0.4153 -0.3344
C7A C 0.0872(7) -0.4726(3) -0.2460(2)
H7A H 0.0835 -0.5286 -0.2797
C8A C 0.1213(6) -0.4566(2) -0.1635(2)
H8A H 0.1400 -0.5005 -0.1401
C9A C 0.1262(5) -0.3718(2) -0.1177(2)
C10A C 0.1690(5) -0.2649(2) 0.0157(2)
H9A H 0.1440 -0.2180 -0.0021
C11A C 0.2126(6) -0.3965(2) 0.0178(2)
H10A H 0.2223 -0.4552 0.0011
C12A C 0.2407(6) -0.3445(2) 0.0941(2)
H11A H 0.2727 -0.3604 0.1403
C13A C 0.2398(6) -0.1827(2) 0.1603(2)
H12A H 0.1513 -0.1470 0.1490
H13A H 0.2062 -0.2000 0.2081
C14A C 0.4496(6) -0.1287(2) 0.1758(2)
C15A C 0.5781(6) -0.1262(2) 0.2415(2)
H14A H 0.5344 -0.1583 0.2770
C16A C 0.7698(6) -0.0766(2) 0.2548(2)
H15A H 0.8547 -0.0755 0.2990
C17A C 0.8369(6) -0.0282(2) 0.2028(2)
C18A C 0.7082(6) -0.0321(2) 0.1362(2)
H16A H 0.7524 -0.0010 0.1002
C19A C 0.5180(6) -0.0811(2) 0.1233(2)
H17A H 0.4334 -0.0825 0.0789
O1 O 0.4100(5) 0.54421(18) 0.22515(17)
H18 H 0.4162 0.5827 0.2677
O2 O 0.4399(6) 0.4621(2) 0.30751(17)
O3 O 0.5159(4) 0.14727(18) 0.16799(16)
O4 O 0.2715(4) 0.08357(16) 0.06655(16)
O5 O 0.2601(4) 0.27381(16) -0.11809(15)
H19 H 0.2354 0.2848 -0.1607
O6 O 0.2676(5) 0.41614(18) -0.06638(16)
C20 C 0.3971(6) 0.3938(2) 0.1663(2)
C21 C 0.4129(5) 0.3116(2) 0.1739(2)
H20 H 0.4446 0.3051 0.2247
C22 C 0.3813(5) 0.2391(2) 0.1059(2)
C23 C 0.3344(5) 0.2494(2) 0.0303(2)
H21 H 0.3082 0.2006 -0.0151
C24 C 0.3264(5) 0.3325(2) 0.0224(2)
C25 C 0.3571(5) 0.4043(2) 0.0905(2)
H22 H 0.3508 0.4598 0.0854
C26 C 0.4187(6) 0.4702(3) 0.2402(2)
C27 C 0.3911(6) 0.1486(2) 0.1143(2)
C28 C 0.2823(5) 0.3454(2) -0.0583(2)
O7 O 0.9127(4) 0.09368(17) 0.00043(17)
O8 O 0.8189(6) 0.7063(3) 0.25896(19)
O9 O 0.2129(6) 0.2442(2) 0.5551(3)
O10 O 0.2258(9) 0.5312(4) 0.4456(3)
O11 O 0.0704(8) 0.3791(3) 0.5184(3)
O12 O 0.4965(18) 0.3950(4) 0.4298(3)
O13 O 0.5597(4) 0.09654(18) 0.29371(15)
H23 H 0.5459 0.1104 0.2518
O14 O 0.5394(6) 0.2345(2) 0.34978(18)
O15 O 0.5708(6) 0.3316(2) 0.64765(18)
O16 O 0.8064(6) 0.2985(2) 0.71557(17)
H24 H 0.9161 0.2928 0.7045
O17 O 0.8242(5) -0.02934(19) 0.59023(17)
O18 O 0.7703(5) -0.07881(18) 0.45607(16)
C29 C 0.6347(6) 0.1528(2) 0.4350(2)
C30 C 0.6420(6) 0.2206(3) 0.5042(2)
H25 H 0.6080 0.2723 0.5001
C31 C 0.6990(6) 0.2129(3) 0.5796(2)
C32 C 0.7516(6) 0.1359(3) 0.5851(2)
H26 H 0.7953 0.1311 0.6352
C33 C 0.7397(6) 0.0660(3) 0.5164(2)
C34 C 0.6823(6) 0.0748(3) 0.4411(2)
H27 H 0.6758 0.0286 0.3948
C35 C 0.5736(6) 0.1656(3) 0.3553(2)
C36 C 0.6966(7) 0.2865(3) 0.6534(2)
C37 C 0.7834(6) -0.0181(3) 0.5256(2)
loop_
_geom_bond_atom_site_label_1
_geom_bond_atom_site_label_2
_geom_bond_site_symmetry_1
_geom_bond_site_symmetry_2
N1 C1 1_555 1_555
N2 C2 1_555 1_555
N3 C5 1_555 1_555
N4 C9 1_555 1_555
N5 C10 1_555 1_555
C1 H1 1_555 1_555
H2 C1 1_555 1_555
C2 N1 1_555 1_555
H3 C2 1_555 1_555
C3 N1 1_555 1_555
H4 C3 1_555 1_555
C4 N2 1_555 1_555
H5 C4 1_555 1_555
C5 N2 1_555 1_555
C6 C5 1_555 1_555
H6 C6 1_555 1_555
C7 C6 1_555 1_555
H7 C7 1_555 1_555
C8 C7 1_555 1_555
H8 C8 1_555 1_555
C9 N3 1_555 1_555
C10 N4 1_555 1_555
H9 C10 1_555 1_555
C11 N4 1_555 1_555
H10 C11 1_555 1_555
C12 N5 1_555 1_555
H11 C12 1_555 1_555
C13 N5 1_555 1_555
H12 C13 1_555 1_555
H13 C13 1_555 1_555
C14 C13 1_555 1_555
C15 C14 1_555 1_555
H14 C15 1_555 1_555
C16 C15 1_555 1_555
H15 C16 1_555 1_555
C17 C16 1_555 1_555
C18 C17 1_555 1_555
H16 C18 1_555 1_555
C19 C14 1_555 1_555
H17 C19 1_555 1_555
O1 H18 1_555 1_555
O2 C26 1_555 1_555
O3 C27 1_555 1_555
O4 C27 1_555 1_555
O5 H19 1_555 1_555
O6 C28 1_555 1_555
C20 C21 1_555 1_555
C21 H20 1_555 1_555
C22 C21 1_555 1_555
C23 C22 1_555 1_555
H21 C23 1_555 1_555
C24 C23 1_555 1_555
C25 C20 1_555 1_555
H22 C25 1_555 1_555
C26 O1 1_555 1_555
C27 C22 1_555 1_555
C28 O5 1_555 1_555
O13 H23 1_555 1_555
O14 C35 1_555 1_555
O15 C36 1_555 1_555
O16 H24 1_555 1_555
O17 C37 1_555 1_555
O18 C37 1_555 1_555
C29 C30 1_555 1_555
C30 H25 1_555 1_555
C31 C30 1_555 1_555
C32 C31 1_555 1_555
H26 C32 1_555 1_555
C33 C32 1_555 1_555
C34 C29 1_555 1_555
H27 C34 1_555 1_555
C35 O13 1_555 1_555
C36 O16 1_555 1_555
C37 C33 1_555 1_555
N1A C1A 1_555 1_555
N2A C2A 1_555 1_555
N3A C5A 1_555 1_555
N4A C9A 1_555 1_555
N5A C10A 1_555 1_555
C1A C17 1_555 1_555
H1A C1A 1_555 1_555
H2A C1A 1_555 1_555
C2A N1A 1_555 1_555
H3A C2A 1_555 1_555
C3A N1A 1_555 1_555
H4A C3A 1_555 1_555
C4A N2A 1_555 1_555
H5A C4A 1_555 1_555
C5A N2A 1_555 1_555
C6A C5A 1_555 1_555
H6A C6A 1_555 1_555
C7A C6A 1_555 1_555
H7A C7A 1_555 1_555
C8A C7A 1_555 1_555
H8A C8A 1_555 1_555
C9A N3A 1_555 1_555
C10A N4A 1_555 1_555
H9A C10A 1_555 1_555
C11A N4A 1_555 1_555
H10A C11A 1_555 1_555
C12A N5A 1_555 1_555
H11A C12A 1_555 1_555
C13A N5A 1_555 1_555
H12A C13A 1_555 1_555
H13A C13A 1_555 1_555
C14A C13A 1_555 1_555
C15A C14A 1_555 1_555
H14A C15A 1_555 1_555
C16A C15A 1_555 1_555
H15A C16A 1_555 1_555
C17A C1 1_555 1_555
C18A C17A 1_555 1_555
H16A C18A 1_555 1_555
C19A C14A 1_555 1_555
H17A C19A 1_555 1_555
C3 C4 1_555 1_555
C8 C9 1_555 1_555
C11 C12 1_555 1_555
C18 C19 1_555 1_555
C20 C26 1_555 1_555
C24 C25 1_555 1_555
C24 C28 1_555 1_555
C29 C35 1_555 1_555
C31 C36 1_555 1_555
C33 C34 1_555 1_555
C3A C4A 1_555 1_555
C8A C9A 1_555 1_555
C11A C12A 1_555 1_555
C16A C17A 1_555 1_555
C18A C19A 1_555 1_555

#END
