
#######################################################################
#
#                 Cambridge Crystallographic Data Centre
#                                CCDC 
#
#######################################################################
#
# If this CIF has been generated from an entry in the Cambridge 
# Structural Database, then it will include bibliographic, chemical, 
# crystal, experimental, refinement or atomic coordinate data resulting 
# from the CCDC's data processing and validation procedures.
#
#######################################################################

data_VUQVIO
_chemical_formula_moiety         'C28 H27 N1 O2'
_chemical_name_systematic        
N-(4-methoxyphenyl)-3,3-dimethyl-9-phenyl-2,3,4,9-tetrahydro-1H-xanthen-1-imine
_symmetry_cell_setting           orthorhombic
_symmetry_space_group_name_H-M   'P 21 21 21'
_symmetry_Int_Tables_number      19
_space_group_name_Hall           'P 2ac 2ab'
loop_
_symmetry_equiv_pos_site_id
_symmetry_equiv_pos_as_xyz
1 x,y,z
2 1/2+x,1/2-y,-z
3 -x,1/2+y,1/2-z
4 1/2-x,-y,1/2+z
_cell_length_a                   9.9358(2)
_cell_length_b                   14.1582(3)
_cell_length_c                   15.9640(3)
_cell_angle_alpha                90
_cell_angle_beta                 90
_cell_angle_gamma                90
_cell_volume                     2245.7
_exptl_crystal_colour            colorless
_exptl_crystal_description       block
_cell_formula_units_Z            4
loop_
_atom_site_label
_atom_site_type_symbol
_atom_site_fract_x
_atom_site_fract_y
_atom_site_fract_z
O1 O 0.18716(16) 0.72313(11) 0.51977(9)
O2 O 0.78054(16) 0.49961(13) 0.99201(9)
N1 N 0.50004(17) 0.56708(12) 0.69540(10)
C1 C 0.3460(2) 0.64110(13) 0.60583(12)
C2 C 0.4109(2) 0.63194(14) 0.68741(12)
C3 C 0.3750(2) 0.70413(15) 0.75386(13)
H1 H 0.4353 0.7594 0.7477
H2 H 0.3919 0.6762 0.8097
C4 C 0.2292(2) 0.73816(14) 0.75028(13)
C5 C 0.1335(3) 0.65809(19) 0.77352(17)
H3 H 0.1463 0.6052 0.7347
H4 H 0.0404 0.6805 0.7700
H5 H 0.1524 0.6371 0.8308
C6 C 0.2111(3) 0.82045(17) 0.81137(15)
H6 H 0.2299 0.7989 0.8685
H7 H 0.1184 0.8438 0.8081
H8 H 0.2734 0.8714 0.7966
C7 C 0.1996(2) 0.77272(15) 0.66072(13)
H9 H 0.1011 0.7804 0.6539
H10 H 0.2417 0.8354 0.6526
C8 C 0.2504(2) 0.70673(15) 0.59487(12)
C9 C 0.2426(2) 0.68286(14) 0.44827(13)
C10 C 0.1938(2) 0.71612(15) 0.37266(14)
H11 H 0.1254 0.7630 0.3716
C11 C 0.2453(3) 0.68063(15) 0.29874(13)
H12 H 0.2120 0.7026 0.2465
C12 C 0.3458(2) 0.61268(15) 0.30124(13)
H13 H 0.3822 0.5884 0.2506
C13 C 0.3929(2) 0.58041(15) 0.37751(13)
H14 H 0.4619 0.5340 0.3785
C14 C 0.3418(2) 0.61411(13) 0.45279(12)
C15 C 0.3871(2) 0.57452(14) 0.53641(12)
H15 H 0.4876 0.5702 0.5360
C16 C 0.3304(2) 0.47522(14) 0.54742(11)
C17 C 0.4134(3) 0.39631(16) 0.54628(14)
H16 H 0.5083 0.4039 0.5430
C18 C 0.3578(3) 0.30599(17) 0.54993(17)
H17 H 0.4150 0.2523 0.5489
C19 C 0.2204(3) 0.29414(17) 0.55500(15)
H18 H 0.1831 0.2324 0.5565
C20 C 0.1372(3) 0.37189(18) 0.55789(16)
H19 H 0.0425 0.3640 0.5621
C21 C 0.1927(2) 0.46182(16) 0.55459(14)
H20 H 0.1351 0.5153 0.5573
C22 C 0.5668(2) 0.55183(14) 0.77277(12)
C23 C 0.5058(2) 0.50135(16) 0.83633(13)
H21 H 0.4159 0.4798 0.8295
C24 C 0.5749(2) 0.48154(17) 0.91060(13)
H22 H 0.5324 0.4462 0.9537
C25 C 0.7046(2) 0.51335(15) 0.92120(12)
C26 C 0.7674(2) 0.56254(14) 0.85696(13)
H23 H 0.8575 0.5836 0.8638
C27 C 0.6996(2) 0.58108(14) 0.78314(12)
H24 H 0.7439 0.6140 0.7392
C28 C 0.7166(3) 0.4560(2) 1.06106(14)
H25 H 0.6890 0.3919 1.0456
H26 H 0.6372 0.4929 1.0771
H27 H 0.7794 0.4531 1.1084
loop_
_geom_bond_atom_site_label_1
_geom_bond_atom_site_label_2
_geom_bond_site_symmetry_1
_geom_bond_site_symmetry_2
O1 C8 1_555 1_555
O2 C25 1_555 1_555
N1 C2 1_555 1_555
C1 C2 1_555 1_555
C2 C3 1_555 1_555
C3 H1 1_555 1_555
H2 C3 1_555 1_555
C4 C3 1_555 1_555
C5 C4 1_555 1_555
H3 C5 1_555 1_555
H4 C5 1_555 1_555
H5 C5 1_555 1_555
C6 C4 1_555 1_555
H6 C6 1_555 1_555
H7 C6 1_555 1_555
H8 C6 1_555 1_555
C7 C4 1_555 1_555
H9 C7 1_555 1_555
H10 C7 1_555 1_555
C8 C1 1_555 1_555
C9 O1 1_555 1_555
C10 C9 1_555 1_555
H11 C10 1_555 1_555
C11 C10 1_555 1_555
H12 C11 1_555 1_555
C12 C11 1_555 1_555
H13 C12 1_555 1_555
C13 C12 1_555 1_555
H14 C13 1_555 1_555
C14 C9 1_555 1_555
C15 C1 1_555 1_555
H15 C15 1_555 1_555
C16 C15 1_555 1_555
C17 C16 1_555 1_555
H16 C17 1_555 1_555
C18 C17 1_555 1_555
H17 C18 1_555 1_555
C19 C18 1_555 1_555
H18 C19 1_555 1_555
C20 C19 1_555 1_555
H19 C20 1_555 1_555
C21 C16 1_555 1_555
H20 C21 1_555 1_555
C22 N1 1_555 1_555
C23 C22 1_555 1_555
H21 C23 1_555 1_555
C24 C23 1_555 1_555
H22 C24 1_555 1_555
C25 C24 1_555 1_555
C26 C25 1_555 1_555
H23 C26 1_555 1_555
C27 C22 1_555 1_555
H24 C27 1_555 1_555
C28 O2 1_555 1_555
H25 C28 1_555 1_555
H26 C28 1_555 1_555
H27 C28 1_555 1_555
C7 C8 1_555 1_555
C13 C14 1_555 1_555
C14 C15 1_555 1_555
C20 C21 1_555 1_555
C26 C27 1_555 1_555

#END
