
#######################################################################
#
#                 Cambridge Crystallographic Data Centre
#                                CCDC 
#
#######################################################################
#
# If this CIF has been generated from an entry in the Cambridge 
# Structural Database, then it will include bibliographic, chemical, 
# crystal, experimental, refinement or atomic coordinate data resulting 
# from the CCDC's data processing and validation procedures.
#
#######################################################################

data_VUQYEN
_chemical_formula_moiety         'C24 H22 N4 O5 S1'
_chemical_name_systematic        
3'-(4-methoxyphenyl)-1,1'',3''-trimethyl-5'-thioxo-2''H-dispiro[indole-3,2'-pyrrolidine-4',5''-pyrimidine]-2,2'',4'',6''(1H,1''H,3''H)-tetrone
_symmetry_cell_setting           monoclinic
_symmetry_space_group_name_H-M   'P 21/c'
_symmetry_Int_Tables_number      14
_space_group_name_Hall           '-P 2ybc'
loop_
_symmetry_equiv_pos_site_id
_symmetry_equiv_pos_as_xyz
1 x,y,z
2 -x,1/2+y,1/2-z
3 -x,-y,-z
4 x,1/2-y,1/2+z
_cell_length_a                   16.284(3)
_cell_length_b                   7.5128(15)
_cell_length_c                   19.090(4)
_cell_angle_alpha                90
_cell_angle_beta                 108.77(3)
_cell_angle_gamma                90
_cell_volume                     2211.24
_exptl_crystal_colour            colorless
_exptl_crystal_description       Prism
_cell_formula_units_Z            4
loop_
_atom_site_label
_atom_site_type_symbol
_atom_site_fract_x
_atom_site_fract_y
_atom_site_fract_z
S1 S 0.15142(3) 0.23320(6) 0.48001(2)
O1 O 0.03057(8) -0.00223(16) 0.21580(7)
O2 O 0.19277(8) -0.18438(17) 0.38930(7)
O3 O 0.43511(11) -0.0234(2) 0.57054(8)
O4 O 0.31932(8) 0.38198(16) 0.39317(7)
O5 O 0.47257(8) 0.04961(19) 0.16300(7)
N1 N 0.03529(9) 0.24676(19) 0.14706(8)
H1 H 0.0636(9) 0.338(2) 0.3299(11)
N2 N 0.10999(9) 0.27027(18) 0.33351(8)
N3 N 0.31028(10) -0.1012(2) 0.48264(8)
N4 N 0.38029(9) 0.1725(2) 0.47791(8)
C1 C 0.05967(10) 0.1434(2) 0.20790(9)
C2 C 0.13515(10) 0.2371(2) 0.26782(9)
C3 C 0.14551(10) 0.4062(2) 0.22863(9)
C4 C 0.20130(11) 0.5472(2) 0.24941(10)
H2 H 0.2428 0.5519 0.2975
C5 C 0.19621(13) 0.6842(2) 0.19852(10)
H3 H 0.2363 0.7801 0.2115
C6 C 0.13373(13) 0.6816(2) 0.12977(10)
H4 H 0.1305 0.7772 0.0964
C7 C 0.07566(12) 0.5422(2) 0.10857(10)
H5 H 0.0319 0.5408 0.0615
C8 C 0.08367(10) 0.4050(2) 0.15851(9)
C9 C -0.02758(11) 0.1975(3) 0.07702(10)
H6 H 0.0018 0.1817 0.0400
H7 H -0.0713 0.2915 0.0608
H8 H -0.0558 0.0858 0.0828
C10 C 0.21061(10) 0.1009(2) 0.29778(8)
H9 H 0.1822 -0.0184 0.2860
C11 C 0.28201(10) 0.0974(2) 0.26382(8)
C12 C 0.26791(10) 0.1422(2) 0.18999(9)
H10 H 0.2128 0.1868 0.1613
C13 C 0.33163(11) 0.1236(2) 0.15763(9)
H11 H 0.3204 0.1558 0.1073
C14 C 0.41242(10) 0.0577(2) 0.19877(9)
C15 C 0.42776(10) 0.0072(2) 0.27152(9)
H12 H 0.4823 -0.0410 0.2997
C16 C 0.36279(10) 0.0276(2) 0.30269(9)
H13 H 0.3737 -0.0075 0.3527
C17 C 0.55972(12) 0.0116(3) 0.20665(12)
H14 H 0.5782 0.0955 0.2481
H15 H 0.5976 0.0234 0.1761
H16 H 0.5633 -0.1101 0.2258
C18 C 0.23812(10) 0.1150(2) 0.38344(8)
C19 C 0.31523(11) 0.2348(2) 0.41766(9)
C20 C 0.37813(13) 0.0145(3) 0.51460(10)
C21 C 0.24469(11) -0.0699(2) 0.41744(9)
C22 C 0.45623(12) 0.2880(3) 0.50626(12)
H17 H 0.4806 0.3134 0.4666
H18 H 0.5000 0.2281 0.5471
H19 H 0.4390 0.3997 0.5241
C23 C 0.30789(16) -0.2702(3) 0.52106(12)
H20 H 0.2572 -0.2715 0.5381
H21 H 0.3608 -0.2819 0.5637
H22 H 0.3041 -0.3698 0.4870
C24 C 0.16131(10) 0.2101(2) 0.39720(9)
loop_
_geom_bond_atom_site_label_1
_geom_bond_atom_site_label_2
_geom_bond_site_symmetry_1
_geom_bond_site_symmetry_2
S1 C24 1_555 1_555
O1 C1 1_555 1_555
O2 C21 1_555 1_555
O3 C20 1_555 1_555
O4 C19 1_555 1_555
O5 C14 1_555 1_555
N1 C1 1_555 1_555
H1 N2 1_555 1_555
N2 C2 1_555 1_555
N3 C20 1_555 1_555
N4 C19 1_555 1_555
C1 C2 1_555 1_555
C2 C3 1_555 1_555
C3 C4 1_555 1_555
C4 H2 1_555 1_555
C5 C4 1_555 1_555
H3 C5 1_555 1_555
C6 C5 1_555 1_555
H4 C6 1_555 1_555
C7 C6 1_555 1_555
H5 C7 1_555 1_555
C8 N1 1_555 1_555
C9 N1 1_555 1_555
H6 C9 1_555 1_555
H7 C9 1_555 1_555
H8 C9 1_555 1_555
C10 C2 1_555 1_555
H9 C10 1_555 1_555
C11 C10 1_555 1_555
C12 C11 1_555 1_555
H10 C12 1_555 1_555
C13 C12 1_555 1_555
H11 C13 1_555 1_555
C14 C13 1_555 1_555
C15 C14 1_555 1_555
H12 C15 1_555 1_555
C16 C11 1_555 1_555
H13 C16 1_555 1_555
C17 O5 1_555 1_555
H14 C17 1_555 1_555
H15 C17 1_555 1_555
H16 C17 1_555 1_555
C18 C10 1_555 1_555
C19 C18 1_555 1_555
C20 N4 1_555 1_555
C21 N3 1_555 1_555
C22 N4 1_555 1_555
H17 C22 1_555 1_555
H18 C22 1_555 1_555
H19 C22 1_555 1_555
C23 N3 1_555 1_555
H20 C23 1_555 1_555
H21 C23 1_555 1_555
H22 C23 1_555 1_555
C24 N2 1_555 1_555
C3 C8 1_555 1_555
C7 C8 1_555 1_555
C15 C16 1_555 1_555
C18 C21 1_555 1_555
C18 C24 1_555 1_555

#END
