
#######################################################################
#
#                 Cambridge Crystallographic Data Centre
#                                CCDC 
#
#######################################################################
#
# If this CIF has been generated from an entry in the Cambridge 
# Structural Database, then it will include bibliographic, chemical, 
# crystal, experimental, refinement or atomic coordinate data resulting 
# from the CCDC's data processing and validation procedures.
#
#######################################################################

data_VUQYAJ
_chemical_formula_moiety         'C46 H38 N8 O8 S2,2(C4 H8 O2)'
_chemical_name_systematic        
"5',5''-disulfanediylbis(1,1'',3''-trimethyl-3'-phenyl-2''H-dispiro[indole-3,2'-pyrrole-4',5''-pyrimidine]-2,2'',4'',6''(1H,1''H,3''H)-tetrone) 1,4-dioxane unknown solvate"
_symmetry_cell_setting           triclinic
_symmetry_space_group_name_H-M   'P -1'
_symmetry_Int_Tables_number      2
_space_group_name_Hall           '-P 1'
loop_
_symmetry_equiv_pos_site_id
_symmetry_equiv_pos_as_xyz
1 x,y,z
2 -x,-y,-z
_cell_length_a                   13.239(3)
_cell_length_b                   15.838(3)
_cell_length_c                   17.467(3)
_cell_angle_alpha                90.1020(10)
_cell_angle_beta                 106.346(4)
_cell_angle_gamma                112.778(6)
_cell_volume                     3214.86
_exptl_crystal_colour            colorless
_exptl_crystal_description       Prism
_cell_formula_units_Z            2
loop_
_atom_site_label
_atom_site_type_symbol
_atom_site_fract_x
_atom_site_fract_y
_atom_site_fract_z
S1 S 0.33038(6) 0.72356(4) 0.26091(4)
S2 S 0.19847(6) 0.75472(4) 0.19565(4)
O1 O 0.29695(16) 0.39378(13) 0.27790(11)
O2 O 0.11611(18) 0.53541(14) 0.13774(12)
O3 O -0.2033(2) 0.5147(2) 0.1972(2)
O4 O 0.14237(19) 0.65266(14) 0.38876(13)
O5 O -0.04505(17) 0.73815(14) 0.20789(13)
O6 O -0.10836(18) 0.97777(15) 0.09403(13)
O7 O 0.25054(17) 0.98379(14) 0.16977(13)
O8 O 0.1515(2) 0.84871(16) 0.46508(13)
N1 N 0.34558(18) 0.39417(15) 0.41512(14)
N2 N 0.32927(17) 0.58457(14) 0.33790(12)
N3 N -0.0459(2) 0.52161(18) 0.16642(18)
N4 N -0.0327(2) 0.58252(18) 0.29485(19)
N5 N -0.0794(2) 0.85808(16) 0.15204(13)
N6 N 0.07380(19) 0.98518(15) 0.13067(14)
N7 N 0.2654(2) 0.86628(16) 0.33272(14)
N8 N 0.3180(2) 0.98066(19) 0.51051(15)
C1 C 0.2608(2) 0.49649(17) 0.36271(15)
C2 C 0.2929(2) 0.50522(17) 0.45354(15)
C3 C 0.2857(3) 0.56383(19) 0.50880(17)
H1 H 0.2523 0.6065 0.4911
C4 C 0.3282(3) 0.5594(2) 0.59081(18)
H2 H 0.3223 0.5984 0.6292
C5 C 0.3789(3) 0.4984(2) 0.61642(19)
H3 H 0.4071 0.4959 0.6724
C6 C 0.3891(2) 0.4410(2) 0.56187(18)
H4 H 0.4258 0.4004 0.5795
C7 C 0.3440(2) 0.44476(18) 0.48045(16)
C8 C 0.3031(2) 0.42239(17) 0.34404(17)
C9 C 0.3953(3) 0.3254(2) 0.4239(2)
H5 H 0.3948 0.3038 0.3711
H6 H 0.3498 0.2730 0.4468
H7 H 0.4747 0.3532 0.4598
C10 C 0.1347(2) 0.46816(17) 0.30590(16)
H8 H 0.1298 0.4315 0.2574
C11 C 0.0308(2) 0.40868(17) 0.33103(17)
C12 C 0.0209(3) 0.4123(2) 0.4076(2)
H9 H 0.0827 0.4552 0.4498
C13 C -0.0788(3) 0.3537(3) 0.4232(3)
H10 H -0.0837 0.3559 0.4764
C14 C -0.1693(3) 0.2933(2) 0.3637(3)
H11 H -0.2368 0.2535 0.3752
C15 C -0.1632(3) 0.2899(2) 0.2870(2)
H12 H -0.2271 0.2490 0.2448
C16 C -0.0622(2) 0.34685(19) 0.27091(19)
H13 H -0.0575 0.3430 0.2178
C17 C 0.1338(2) 0.56285(17) 0.27637(16)
C18 C 0.0705(2) 0.54157(18) 0.18713(18)
C19 C -0.1012(3) 0.5363(2) 0.2177(3)
C20 C 0.0837(3) 0.6054(2) 0.32472(19)
C21 C 0.2630(2) 0.61773(16) 0.29498(15)
C22 C -0.1190(3) 0.4785(3) 0.0843(3)
H14 H -0.1664 0.4135 0.0853
H15 H -0.0703 0.4826 0.0501
H16 H -0.1690 0.5106 0.0626
C23 C -0.0857(4) 0.6126(3) 0.3468(3)
H17 H -0.1016 0.5690 0.3860
H18 H -0.1578 0.6148 0.3138
H19 H -0.0330 0.6742 0.3752
C24 C 0.1974(2) 0.83908(18) 0.26179(16)
C25 C 0.1137(2) 0.88495(18) 0.23049(16)
C26 C 0.1539(2) 0.95343(18) 0.17364(17)
C27 C -0.0422(2) 0.94406(19) 0.12469(16)
C28 C -0.0083(2) 0.81923(19) 0.19521(16)
C29 C -0.2054(3) 0.8038(2) 0.1262(2)
H20 H -0.2220 0.7405 0.1389
H21 H -0.2366 0.8029 0.0681
H22 H -0.2409 0.8321 0.1545
C30 C 0.1135(3) 1.0679(2) 0.0906(2)
H23 H 0.1597 1.1221 0.1311
H24 H 0.0469 1.0761 0.0552
H25 H 0.1604 1.0606 0.0587
C31 C 0.1243(2) 0.93237(18) 0.31429(15)
H26 H 0.0662 0.8842 0.3346
C32 C 0.0951(3) 1.01621(19) 0.31502(16)
C33 C -0.0029(3) 1.0053(2) 0.33584(18)
H27 H -0.0476 0.9475 0.3493
C34 C -0.0355(3) 1.0784(3) 0.3371(2)
H28 H -0.1027 1.0702 0.3512
C35 C 0.0271(3) 1.1611(2) 0.3184(2)
H29 H 0.0048 1.2111 0.3207
C36 C 0.1218(3) 1.1730(2) 0.29644(19)
H30 H 0.1639 1.2307 0.2815
C37 C 0.1575(2) 1.1014(2) 0.29563(17)
H31 H 0.2252 1.1109 0.2817
C38 C 0.2436(2) 0.93938(19) 0.37002(16)
C39 C 0.3504(3) 1.0285(2) 0.39201(18)
C40 C 0.4145(3) 1.0848(2) 0.3491(2)
H32 H 0.3906 1.0711 0.2923
C41 C 0.5125(3) 1.1606(2) 0.3862(3)
H33 H 0.5541 1.2009 0.3551
C42 C 0.5523(3) 1.1789(2) 0.4722(3)
H34 H 0.6213 1.2309 0.4984
C43 C 0.4924(3) 1.1229(3) 0.5159(2)
H35 H 0.5188 1.1347 0.5730
C44 C 0.3915(3) 1.0475(2) 0.47695(18)
C45 C 0.2282(3) 0.9134(2) 0.45316(16)
C46 C 0.3330(4) 0.9773(3) 0.59549(18)
H36 H 0.4079 0.9758 0.6222
H37 H 0.2717 0.9218 0.6033
H38 H 0.3294 1.0322 0.6186
O9 O 0.03178(18) 0.80041(14) 1.03231(12)
O10 O 0.0020(2) 0.69478(16) 0.89014(14)
C47 C -0.0420(3) 0.7048(2) 1.01257(19)
H39 H -0.1065 0.6916 1.0352
H40 H 0.0016 0.6681 1.0378
C48 C -0.0895(3) 0.6752(2) 0.9242(2)
H41 H -0.1384 0.6081 0.9137
H42 H -0.1379 0.7082 0.8989
C49 C 0.0742(3) 0.7916(2) 0.9074(2)
H43 H 0.0293 0.8271 0.8818
H44 H 0.1387 0.8052 0.8847
C50 C 0.1213(3) 0.8208(2) 0.99678(18)
H45 H 0.1709 0.7887 1.0217
H46 H 0.1692 0.8880 1.0074
O11 O 0.68919(18) 0.80766(16) 0.42816(13)
O12 O 0.86521(19) 0.79599(15) 0.37297(14)
C51 C 0.6762(3) 0.7936(3) 0.3447(2)
H47 H 0.6998 0.8540 0.3238
H48 H 0.5942 0.7566 0.3150
C52 C 0.7471(3) 0.7447(2) 0.3302(2)
H49 H 0.7205 0.6827 0.3480
H50 H 0.7372 0.7368 0.2720
C53 C 0.8787(3) 0.8086(3) 0.4560(2)
H51 H 0.9608 0.8451 0.4857
H52 H 0.8549 0.7478 0.4761
C54 C 0.8077(3) 0.8577(2) 0.4717(2)
H53 H 0.8170 0.8641 0.5299
H54 H 0.8351 0.9204 0.4552
loop_
_geom_bond_atom_site_label_1
_geom_bond_atom_site_label_2
_geom_bond_site_symmetry_1
_geom_bond_site_symmetry_2
S1 S2 1_555 1_555
S2 C24 1_555 1_555
O1 C8 1_555 1_555
O2 C18 1_555 1_555
O3 C19 1_555 1_555
O4 C20 1_555 1_555
O5 C28 1_555 1_555
O6 C27 1_555 1_555
O7 C26 1_555 1_555
O8 C45 1_555 1_555
N1 C7 1_555 1_555
N2 C1 1_555 1_555
N3 C18 1_555 1_555
N4 C19 1_555 1_555
N5 C27 1_555 1_555
N6 C26 1_555 1_555
N7 C24 1_555 1_555
N8 C44 1_555 1_555
C1 C2 1_555 1_555
C2 C3 1_555 1_555
C3 H1 1_555 1_555
C4 C3 1_555 1_555
H2 C4 1_555 1_555
C5 C4 1_555 1_555
H3 C5 1_555 1_555
C6 C5 1_555 1_555
H4 C6 1_555 1_555
C7 C2 1_555 1_555
C8 N1 1_555 1_555
C9 N1 1_555 1_555
H5 C9 1_555 1_555
H6 C9 1_555 1_555
H7 C9 1_555 1_555
C10 C1 1_555 1_555
H8 C10 1_555 1_555
C11 C10 1_555 1_555
C12 C11 1_555 1_555
H9 C12 1_555 1_555
C13 C12 1_555 1_555
H10 C13 1_555 1_555
C14 C13 1_555 1_555
H11 C14 1_555 1_555
C15 C14 1_555 1_555
H12 C15 1_555 1_555
C16 C11 1_555 1_555
H13 C16 1_555 1_555
C17 C10 1_555 1_555
C18 C17 1_555 1_555
C19 N3 1_555 1_555
C20 N4 1_555 1_555
C21 S1 1_555 1_555
C22 N3 1_555 1_555
H14 C22 1_555 1_555
H15 C22 1_555 1_555
H16 C22 1_555 1_555
C23 N4 1_555 1_555
H17 C23 1_555 1_555
H18 C23 1_555 1_555
H19 C23 1_555 1_555
C24 C25 1_555 1_555
C25 C26 1_555 1_555
C27 N6 1_555 1_555
C28 N5 1_555 1_555
C29 N5 1_555 1_555
H20 C29 1_555 1_555
H21 C29 1_555 1_555
H22 C29 1_555 1_555
C30 N6 1_555 1_555
H23 C30 1_555 1_555
H24 C30 1_555 1_555
H25 C30 1_555 1_555
C31 C25 1_555 1_555
H26 C31 1_555 1_555
C32 C31 1_555 1_555
C33 C32 1_555 1_555
H27 C33 1_555 1_555
C34 C33 1_555 1_555
H28 C34 1_555 1_555
C35 C34 1_555 1_555
H29 C35 1_555 1_555
C36 C35 1_555 1_555
H30 C36 1_555 1_555
C37 C32 1_555 1_555
H31 C37 1_555 1_555
C38 N7 1_555 1_555
C39 C38 1_555 1_555
C40 C39 1_555 1_555
H32 C40 1_555 1_555
C41 C40 1_555 1_555
H33 C41 1_555 1_555
C42 C41 1_555 1_555
H34 C42 1_555 1_555
C43 C42 1_555 1_555
H35 C43 1_555 1_555
C44 C39 1_555 1_555
C45 N8 1_555 1_555
C46 N8 1_555 1_555
H36 C46 1_555 1_555
H37 C46 1_555 1_555
H38 C46 1_555 1_555
O9 C47 1_555 1_555
O10 C48 1_555 1_555
C47 H39 1_555 1_555
H40 C47 1_555 1_555
C48 C47 1_555 1_555
H41 C48 1_555 1_555
H42 C48 1_555 1_555
C49 O10 1_555 1_555
H43 C49 1_555 1_555
H44 C49 1_555 1_555
C50 O9 1_555 1_555
H45 C50 1_555 1_555
H46 C50 1_555 1_555
O11 C51 1_555 1_555
O12 C52 1_555 1_555
C51 H47 1_555 1_555
H48 C51 1_555 1_555
C52 C51 1_555 1_555
H49 C52 1_555 1_555
H50 C52 1_555 1_555
C53 O12 1_555 1_555
H51 C53 1_555 1_555
H52 C53 1_555 1_555
C54 O11 1_555 1_555
H53 C54 1_555 1_555
H54 C54 1_555 1_555
N2 C21 1_555 1_555
C1 C8 1_555 1_555
C6 C7 1_555 1_555
C15 C16 1_555 1_555
C17 C20 1_555 1_555
C17 C21 1_555 1_555
C25 C28 1_555 1_555
C31 C38 1_555 1_555
C36 C37 1_555 1_555
C38 C45 1_555 1_555
C43 C44 1_555 1_555
C49 C50 1_555 1_555
C53 C54 1_555 1_555

#END
