
#######################################################################
#
#                 Cambridge Crystallographic Data Centre
#                                CCDC 
#
#######################################################################
#
# If this CIF has been generated from an entry in the Cambridge 
# Structural Database, then it will include bibliographic, chemical, 
# crystal, experimental, refinement or atomic coordinate data resulting 
# from the CCDC's data processing and validation procedures.
#
#######################################################################

data_VUQYUD
_chemical_formula_moiety         'C29 H31 N3 O2'
_chemical_name_systematic        
2-(4-isopropyl-5,5-dimethyl-4,5-dihydro-1,3-oxazol-2-yl)-N-(2-(4-phenyl-4,5-dihydro-1,3-oxazol-2-yl)phenyl)aniline
_symmetry_cell_setting           triclinic
_symmetry_space_group_name_H-M   'P 1'
_symmetry_Int_Tables_number      1
_space_group_name_Hall           'P 1'
loop_
_symmetry_equiv_pos_site_id
_symmetry_equiv_pos_as_xyz
1 x,y,z
_cell_length_a                   9.86627(6)
_cell_length_b                   10.19647(8)
_cell_length_c                   13.1369(1)
_cell_angle_alpha                112.4411(8)
_cell_angle_beta                 90.0964(6)
_cell_angle_gamma                91.9641(6)
_cell_volume                     1220.63
_exptl_crystal_colour            colorless
_exptl_crystal_description       prism
_cell_formula_units_Z            2
loop_
_atom_site_label
_atom_site_type_symbol
_atom_site_fract_x
_atom_site_fract_y
_atom_site_fract_z
C1 C 0.07631(12) 0.83135(12) 0.77774(9)
O1 O 0.14284(9) 0.93385(9) 0.75211(7)
C2 C 0.24977(13) 0.86032(13) 0.67514(10)
C3 C 0.19397(16) 0.83842(16) 0.56138(11)
H1 H 0.1121 0.7763 0.5455
H2 H 0.2624 0.7945 0.5059
H3 H 0.1715 0.9304 0.5595
C4 C 0.37708(15) 0.95590(15) 0.70551(13)
H4 H 0.3617 1.0421 0.6916
H5 H 0.4526 0.9056 0.6608
H6 H 0.3991 0.9817 0.7837
C5 C 0.26108(12) 0.72218(12) 0.69817(9)
H7 H 0.3370 0.7375 0.7525
N1 N 0.13322(10) 0.71289(10) 0.75294(8)
C6 C 0.28316(13) 0.58239(13) 0.60059(10)
H8 H 0.2087 0.5673 0.5450
C7 C 0.27561(15) 0.45941(14) 0.64061(12)
H9 H 0.2952 0.3706 0.5794
H10 H 0.1844 0.4518 0.6678
H11 H 0.3424 0.4772 0.7002
C8 C 0.41893(14) 0.58432(15) 0.54522(11)
H12 H 0.4926 0.6056 0.5999
H13 H 0.4194 0.6573 0.5137
H14 H 0.4318 0.4913 0.4866
C9 C -0.05837(12) 0.86687(12) 0.82560(9)
C10 C -0.09792(13) 1.00762(12) 0.86217(10)
H15 H -0.0337 1.0795 0.8628
C11 C -0.22807(14) 1.04461(13) 0.89747(11)
H16 H -0.2530 1.1409 0.9230
C12 C -0.32221(14) 0.93849(14) 0.89506(10)
H17 H -0.4128 0.9623 0.9168
C13 C -0.28528(13) 0.79868(13) 0.86143(10)
H18 H -0.3508 0.7280 0.8610
C14 C -0.15302(12) 0.75971(12) 0.82809(9)
N2 N -0.10827(11) 0.62449(10) 0.80396(9)
H19 H -0.022(2) 0.6160(19) 0.8104(14)
C15 C -0.17954(12) 0.49531(12) 0.76292(9)
C16 C -0.30294(13) 0.47632(13) 0.70534(10)
H20 H -0.3422 0.5554 0.6968
C17 C -0.36870(13) 0.34380(14) 0.66062(10)
H21 H -0.4530 0.3334 0.6228
C18 C -0.31238(13) 0.22610(13) 0.67063(10)
H22 H -0.3585 0.1358 0.6411
C19 C -0.18821(13) 0.24212(12) 0.72416(9)
H23 H -0.1479 0.1612 0.7287
C20 C -0.12098(12) 0.37512(12) 0.77173(9)
C21 C 0.00756(12) 0.38662(11) 0.83208(9)
O2 O 0.07261(9) 0.26147(8) 0.80502(7)
C22 C 0.19820(13) 0.29741(12) 0.86886(10)
H24 H 0.2770 0.2919 0.8210
H25 H 0.2111 0.2330 0.9082
C23 C 0.18034(12) 0.45182(12) 0.95115(9)
H26 H 0.2615 0.5123 0.9493
N3 N 0.06026(10) 0.49669(10) 0.90722(8)
C24 C 0.15695(12) 0.46334(11) 1.06845(9)
C25 C 0.03374(13) 0.41717(13) 1.09789(10)
H27 H -0.0378 0.3817 1.0449
C26 C 0.01515(14) 0.42290(13) 1.20441(11)
H28 H -0.0689 0.3912 1.2238
C27 C 0.11903(15) 0.47474(14) 1.28243(10)
H29 H 0.1062 0.4788 1.3552
C28 C 0.24148(15) 0.52053(13) 1.25378(10)
H30 H 0.3128 0.5557 1.3070
C29 C 0.26058(13) 0.51528(12) 1.14729(10)
H31 H 0.3448 0.5473 1.1283
C30 C 0.48876(11) 0.20569(11) 0.12492(9)
O3 O 0.40893(9) 0.10686(8) 0.04514(6)
C31 C 0.34169(13) 0.02032(12) 0.10033(9)
C32 C 0.33319(16) -0.13213(14) 0.01760(11)
H32 H 0.2820 -0.1913 0.0491
H33 H 0.4249 -0.1674 0.0001
H34 H 0.2872 -0.1361 -0.0498
C33 C 0.20287(13) 0.08110(15) 0.13243(11)
H35 H 0.1519 0.0732 0.0661
H36 H 0.2133 0.1812 0.1818
H37 H 0.1537 0.0281 0.1702
C34 C 0.44070(12) 0.04844(12) 0.19888(9)
H38 H 0.5109 -0.0253 0.1742
N4 N 0.50838(10) 0.18643(10) 0.21388(8)
C35 C 0.38113(14) 0.04600(13) 0.30555(10)
H39 H 0.3044 0.1122 0.3279
C36 C 0.48927(17) 0.09487(17) 0.39695(11)
H40 H 0.5655 0.0312 0.3753
H41 H 0.4503 0.0929 0.4650
H42 H 0.5214 0.1918 0.4092
C37 C 0.32770(16) -0.10369(15) 0.28873(12)
H43 H 0.2541 -0.1325 0.2335
H44 H 0.2935 -0.1042 0.3586
H45 H 0.4013 -0.1702 0.2633
C38 C 0.54656(12) 0.32206(12) 0.09721(9)
C39 C 0.52515(12) 0.31866(12) -0.00932(9)
H46 H 0.4725 0.2421 -0.0606
C40 C 0.57826(13) 0.42319(13) -0.04191(10)
H47 H 0.5613 0.4198 -0.1141
C41 C 0.65734(13) 0.53395(13) 0.03325(10)
H48 H 0.6954 0.6061 0.0117
C42 C 0.68102(13) 0.53992(12) 0.13871(10)
H49 H 0.7361 0.6158 0.1882
C43 C 0.62544(12) 0.43613(12) 0.17430(9)
N5 N 0.65159(10) 0.44039(10) 0.27942(8)
H50 H 0.6409(15) 0.3615(16) 0.2903(12)
C44 C 0.69697(12) 0.56011(12) 0.36974(9)
C45 C 0.65264(13) 0.69553(12) 0.38551(10)
H51 H 0.5928 0.7063 0.3328
C46 C 0.69434(14) 0.81388(13) 0.47642(10)
H52 H 0.6635 0.9046 0.4848
C47 C 0.78094(15) 0.80124(13) 0.55552(10)
H53 H 0.8087 0.8825 0.6182
C48 C 0.82589(13) 0.66894(13) 0.54171(9)
H54 H 0.8859 0.6600 0.5951
C49 C 0.78472(12) 0.54735(12) 0.45043(9)
C50 C 0.83325(12) 0.40968(12) 0.44373(9)
O4 O 0.94905(9) 0.41596(9) 0.50362(7)
C51 C 0.98393(14) 0.26915(13) 0.47417(10)
H55 H 1.0072 0.2502 0.5405
H56 H 1.0616 0.2451 0.4235
C52 C 0.85427(13) 0.18411(12) 0.41700(9)
H57 H 0.8022 0.1578 0.4721
N6 N 0.77688(10) 0.28836(10) 0.39054(8)
C53 C 0.88101(12) 0.04969(12) 0.31925(9)
C54 C 0.84761(13) 0.03427(13) 0.21252(10)
H58 H 0.8044 0.1085 0.1997
C55 C 0.87734(14) -0.08978(14) 0.12424(11)
H59 H 0.8547 -0.0993 0.0514
C56 C 0.93953(14) -0.19951(13) 0.14149(11)
H60 H 0.9601 -0.2836 0.0808
C57 C 0.97144(14) -0.18535(13) 0.24812(12)
H61 H 1.0132 -0.2605 0.2608
C58 C 0.94245(14) -0.06128(14) 0.33669(11)
H62 H 0.9647 -0.0522 0.4095
loop_
_geom_bond_atom_site_label_1
_geom_bond_atom_site_label_2
_geom_bond_site_symmetry_1
_geom_bond_site_symmetry_2
C1 O1 1_555 1_555
O1 C2 1_555 1_555
C2 C3 1_555 1_555
C3 H1 1_555 1_555
H2 C3 1_555 1_555
H3 C3 1_555 1_555
C4 C2 1_555 1_555
H4 C4 1_555 1_555
H5 C4 1_555 1_555
H6 C4 1_555 1_555
C5 C2 1_555 1_555
H7 C5 1_555 1_555
N1 C1 1_555 1_555
C6 C5 1_555 1_555
H8 C6 1_555 1_555
C7 C6 1_555 1_555
H9 C7 1_555 1_555
H10 C7 1_555 1_555
H11 C7 1_555 1_555
C8 C6 1_555 1_555
H12 C8 1_555 1_555
H13 C8 1_555 1_555
H14 C8 1_555 1_555
C9 C1 1_555 1_555
C10 C9 1_555 1_555
H15 C10 1_555 1_555
C11 C10 1_555 1_555
H16 C11 1_555 1_555
C12 C11 1_555 1_555
H17 C12 1_555 1_555
C13 C12 1_555 1_555
H18 C13 1_555 1_555
C14 C9 1_555 1_555
N2 C14 1_555 1_555
H19 N2 1_555 1_555
C15 N2 1_555 1_555
C16 C15 1_555 1_555
H20 C16 1_555 1_555
C17 C16 1_555 1_555
H21 C17 1_555 1_555
C18 C17 1_555 1_555
H22 C18 1_555 1_555
C19 C18 1_555 1_555
H23 C19 1_555 1_555
C20 C15 1_555 1_555
C21 C20 1_555 1_555
O2 C21 1_555 1_555
C22 O2 1_555 1_555
H24 C22 1_555 1_555
H25 C22 1_555 1_555
C23 C22 1_555 1_555
H26 C23 1_555 1_555
N3 C21 1_555 1_555
C24 C23 1_555 1_555
C25 C24 1_555 1_555
H27 C25 1_555 1_555
C26 C25 1_555 1_555
H28 C26 1_555 1_555
C27 C26 1_555 1_555
H29 C27 1_555 1_555
C28 C27 1_555 1_555
H30 C28 1_555 1_555
C29 C24 1_555 1_555
H31 C29 1_555 1_555
C30 O3 1_555 1_555
O3 C31 1_555 1_555
C31 C32 1_555 1_555
C32 H32 1_555 1_555
H33 C32 1_555 1_555
H34 C32 1_555 1_555
C33 C31 1_555 1_555
H35 C33 1_555 1_555
H36 C33 1_555 1_555
H37 C33 1_555 1_555
C34 C31 1_555 1_555
H38 C34 1_555 1_555
N4 C30 1_555 1_555
C35 C34 1_555 1_555
H39 C35 1_555 1_555
C36 C35 1_555 1_555
H40 C36 1_555 1_555
H41 C36 1_555 1_555
H42 C36 1_555 1_555
C37 C35 1_555 1_555
H43 C37 1_555 1_555
H44 C37 1_555 1_555
H45 C37 1_555 1_555
C38 C30 1_555 1_555
C39 C38 1_555 1_555
H46 C39 1_555 1_555
C40 C39 1_555 1_555
H47 C40 1_555 1_555
C41 C40 1_555 1_555
H48 C41 1_555 1_555
C42 C41 1_555 1_555
H49 C42 1_555 1_555
C43 C38 1_555 1_555
N5 C43 1_555 1_555
H50 N5 1_555 1_555
C44 N5 1_555 1_555
C45 C44 1_555 1_555
H51 C45 1_555 1_555
C46 C45 1_555 1_555
H52 C46 1_555 1_555
C47 C46 1_555 1_555
H53 C47 1_555 1_555
C48 C47 1_555 1_555
H54 C48 1_555 1_555
C49 C44 1_555 1_555
C50 C49 1_555 1_555
O4 C50 1_555 1_555
C51 O4 1_555 1_555
H55 C51 1_555 1_555
H56 C51 1_555 1_555
C52 C51 1_555 1_555
H57 C52 1_555 1_555
N6 C50 1_555 1_555
C53 C52 1_555 1_555
C54 C53 1_555 1_555
H58 C54 1_555 1_555
C55 C54 1_555 1_555
H59 C55 1_555 1_555
C56 C55 1_555 1_555
H60 C56 1_555 1_555
C57 C56 1_555 1_555
H61 C57 1_555 1_555
C58 C53 1_555 1_555
H62 C58 1_555 1_555
C5 N1 1_555 1_555
C13 C14 1_555 1_555
C19 C20 1_555 1_555
C23 N3 1_555 1_555
C28 C29 1_555 1_555
C34 N4 1_555 1_555
C42 C43 1_555 1_555
C48 C49 1_555 1_555
C52 N6 1_555 1_555
C57 C58 1_555 1_555

#END
