
#######################################################################
#
#                 Cambridge Crystallographic Data Centre
#                                CCDC 
#
#######################################################################
#
# If this CIF has been generated from an entry in the Cambridge 
# Structural Database, then it will include bibliographic, chemical, 
# crystal, experimental, refinement or atomic coordinate data resulting 
# from the CCDC's data processing and validation procedures.
#
#######################################################################

data_VURBUF
_chemical_name_common            
"5,5':11,1'17,17':23,23'-tetrakis(m-xylylenedioxy)-bis(2,8,14,20-tetrakis(phenylethyl)-6,10:12,16:18,22:24,4-O,O'-tetrakis(methylene)calix[4]resorcinarene) dimethylacetamide clathrate dimethylacetamide solvate"
_chemical_formula_moiety         'C160 H136 O24,18(C4 H9 N1 O1)'
_chemical_name_systematic        
'octakis(2-Phenylethyl)-(epoxymethano-benzenomethanoxy)-dimethano-dimetheno-(methynoxymethano-benzenomethanoxymethyno)-bis(1,3)benzodioxocino-dibenzo-bis(1,3)benzodioxocino-1,3,6,11,14,16,19,24-octaoxacyclohexacosino-bis(1,3)benzodioxocin dimethylacetamide clathrate dimethylacetamide solvate'
_symmetry_cell_setting           orthorhombic
_symmetry_space_group_name_H-M   'P c a n'
_symmetry_Int_Tables_number      60
_space_group_name_Hall           '-P 2n 2c'
loop_
_symmetry_equiv_pos_site_id
_symmetry_equiv_pos_as_xyz
1 x,y,z
2 -x,y,1/2+z
3 1/2+x,1/2-y,z
4 1/2-x,1/2-y,1/2+z
5 -x,-y,-z
6 x,-y,1/2-z
7 1/2-x,1/2+y,-z
8 1/2+x,1/2+y,1/2-z
_cell_length_a                   18.226(7)
_cell_length_b                   24.486(9)
_cell_length_c                   49.822(15)
_cell_angle_alpha                90
_cell_angle_beta                 90
_cell_angle_gamma                90
_cell_volume                     22234.7
_exptl_crystal_colour            colorless
_cell_formula_units_Z            4
_chemical_properties_physical    air-sensitive
loop_
_atom_site_label
_atom_site_type_symbol
_atom_site_fract_x
_atom_site_fract_y
_atom_site_fract_z
O1 O 0.586(3) 0.148(2) 0.267(1)
C1 C 0.626(5) 0.205(4) 0.265(2)
C2 C 0.708(2) 0.188(2) 0.267(1)
C3 C 0.746(2) 0.203(2) 0.290(1)
C4 C 0.820(2) 0.192(2) 0.293(1)
C5 C 0.857(2) 0.166(2) 0.272(1)
C6 C 0.820(2) 0.150(2) 0.249(1)
C7 C 0.745(2) 0.161(2) 0.246(1)
C8 C 0.692(4) 0.143(3) 0.217(1)
O2 O 0.646(3) 0.098(2) 0.221(1)
C9 C 0.616(3) 0.095(2) 0.198(1)
C10 C 0.640(3) 0.044(2) 0.189(1)
C11 C 0.610(3) 0.022(2) 0.166(1)
C12 C 0.556(3) 0.051(2) 0.151(1)
C13 C 0.533(3) 0.101(2) 0.160(1)
C14 C 0.563(3) 0.124(2) 0.184(1)
O3 O 0.549(3) 0.170(2) 0.193(1)
C15 C 0.483(5) 0.174(3) 0.210(2)
O4 O 0.427(3) 0.188(2) 0.195(1)
C16 C 0.481(4) 0.139(3) 0.147(2)
C17 C 0.481(4) 0.124(3) 0.118(2)
C18 C 0.422(4) 0.161(3) 0.105(2)
C19 C 0.388(3) 0.150(2) 0.185(1)
C20 C 0.407(3) 0.124(2) 0.161(1)
C21 C 0.364(3) 0.082(2) 0.151(1)
C22 C 0.302(3) 0.065(2) 0.166(1)
C23 C 0.283(3) 0.091(2) 0.190(1)
C24 C 0.327(3) 0.134(2) 0.199(1)
C25 C 0.428(5) 0.154(3) 0.070(1)
C26 C 0.475(5) 0.169(3) 0.049(1)
C27 C 0.457(5) 0.155(3) 0.023(1)
C28 C 0.392(5) 0.127(3) 0.017(1)
C29 C 0.345(5) 0.112(3) 0.038(1)
C30 C 0.363(5) 0.126(3) 0.065(1)
O5 O 0.311(3) 0.150(2) 0.224(1)
C31 C 0.269(4) 0.201(3) 0.223(2)
C32 C 0.182(2) 0.193(2) 0.221(1)
C33 C 0.145(2) 0.206(2) 0.198(1)
C34 C 0.070(2) 0.196(2) 0.195(1)
C35 C 0.032(2) 0.172(2) 0.217(1)
C36 C 0.069(2) 0.159(2) 0.240(1)
C37 C 0.144(2) 0.169(2) 0.243(1)
C38 C 0.175(4) 0.154(3) 0.275(1)
C39 C 0.267(6) 0.039(5) 0.158(2)
C40 C 0.248(4) 0.016(3) 0.118(2)
C41 C 0.181(6) -0.024(5) 0.109(2)
C42 C 0.165(3) -0.040(4) 0.079(1)
C43 C 0.167(3) 0.007(4) 0.063(1)
C44 C 0.165(3) 0.002(4) 0.035(1)
C45 C 0.161(3) -0.049(4) 0.023(1)
C46 C 0.160(3) -0.096(4) 0.039(1)
C47 C 0.162(3) -0.092(4) 0.067(1)
O6 O 0.209(3) 0.078(2) 0.197(1)
C48 C 0.203(4) 0.033(3) 0.214(1)
O7 O 0.179(3) -0.016(2) 0.203(1)
C49 C 0.242(3) -0.051(3) 0.191(1)
C50 C 0.275(3) -0.038(3) 0.167(1)
C51 C 0.327(3) -0.074(3) 0.155(1)
C52 C 0.345(3) -0.122(3) 0.168(1)
C53 C 0.311(3) -0.135(3) 0.193(1)
C54 C 0.260(3) -0.100(3) 0.204(1)
O8 O 0.225(3) 0.110(2) 0.271(1)
O9 O 0.330(3) -0.182(20) 0.208(1)
C55 C 0.396(5) -0.181(3) 0.223(2)
O10 O 0.461(3) -0.200(2) 0.209(1)
C56 C 0.408(4) -0.150(3) 0.155(1)
C57 C 0.407(5) -0.154(3) 0.123(2)
C58 C 0.326(5) -0.191(4) 0.109(2)
C59 C 0.321(4) -0.246(2) 0.115(1)
C60 C 0.275(4) -0.265(2) 0.136(1)
C61 C 0.271(4) -0.320(2) 0.142(1)
C62 C 0.313(4) -0.358(2) 0.127(1)
C63 C 0.359(4) -0.339(2) 0.106(1)
C64 C 0.363(4) -0.284(2) 0.100(1)
C65 C 0.501(3) -0.156(2) 0.193(1)
C66 C 0.480(3) -0.138(2) 0.168(1)
C67 C 0.523(3) -0.100(2) 0.154(1)
C68 C 0.587(3) -0.080(2) 0.166(1)
C69 C 0.608(3) -0.099(2) 0.191(1)
C70 C 0.565(3) 0.137(2) 0.295(1)
O11 O 0.675(3) -0.087(2) 0.201(1)
C71 C 0.653(6) -0.043(5) 0.218(2)
O12 O 0.692(3) 0.011(2) 0.201(1)
C72 C 0.634(5) -0.033(4) 0.154(2)
C73 C 0.627(4) -0.047(3) 0.117(3)
C74 C 0.693(5) 0.003(4) 0.110(2)
C75 C 0.672(4) 0.000(3) 0.076(1)
C76 C 0.627(4) 0.035(3) 0.062(1)
C77 C 0.625(4) 0.033(3) 0.034(1)
C78 C 0.668(4) -0.005(3) 0.021(1)
C79 C 0.713(4) -0.040(3) 0.035(1)
C80 C 0.715(4) -0.038(3) 0.063(1)
C54E C 0.260(3) 0.100(3) 0.296(1)
C49E C 0.242(3) 0.051(3) 0.309(1)
O7E O 0.179(3) 0.016(2) 0.297(1)
C48E C 0.203(4) -0.033(3) 0.286(1)
O6E O 0.209(3) -0.078(2) 0.303(1)
C23E C 0.283(3) -0.091(2) 0.310(1)
C22E C 0.302(3) -0.065(2) 0.334(1)
C21E C 0.364(3) -0.082(2) 0.349(1)
C20E C 0.407(3) -0.124(2) 0.339(1)
C16E C 0.481(4) -0.139(3) 0.353(2)
C13E C 0.533(3) -0.101(2) 0.340(1)
C12E C 0.556(3) -0.051(2) 0.349(1)
C11E C 0.610(3) -0.022(2) 0.334(1)
C10E C 0.640(3) -0.044(2) 0.311(1)
C9E C 0.616(3) -0.095(2) 0.302(1)
C8E C 0.692(4) -0.143(3) 0.283(1)
C7E C 0.745(2) -0.161(2) 0.254(1)
C2E C 0.708(2) -0.188(2) 0.233(1)
C1E C 0.626(5) -0.205(4) 0.235(2)
O1E O 0.586(3) -0.148(2) 0.233(1)
C70E C 0.565(3) -0.137(2) 0.205(1)
O8E O 0.225(3) -0.110(2) 0.229(1)
C38E C 0.175(4) -0.154(3) 0.225(1)
C37E C 0.144(2) -0.169(2) 0.257(1)
C32E C 0.182(2) -0.193(2) 0.279(1)
C31E C 0.269(4) -0.201(3) 0.277(2)
O5E O 0.311(3) -0.150(2) 0.276(1)
C24E C 0.327(3) -0.134(2) 0.301(1)
C19E C 0.388(3) -0.150(2) 0.315(1)
O4E O 0.427(3) -0.188(2) 0.305(1)
C15E C 0.483(5) -0.174(3) 0.290(2)
O3E O 0.549(3) -0.170(2) 0.307(1)
C14E C 0.563(3) -0.124(2) 0.316(1)
O2E O 0.646(3) -0.098(2) 0.279(1)
C39E C 0.267(6) -0.039(5) 0.342(2)
C40E C 0.248(4) -0.016(3) 0.382(2)
C41E C 0.181(6) 0.024(5) 0.391(2)
C42E C 0.165(3) 0.040(4) 0.421(1)
C43E C 0.167(3) -0.007(4) 0.437(1)
C44E C 0.165(3) -0.002(4) 0.465(1)
C45E C 0.161(3) 0.049(4) 0.477(1)
C46E C 0.160(3) 0.096(4) 0.461(1)
C47E C 0.162(3) 0.092(4) 0.433(1)
C50E C 0.275(3) 0.038(3) 0.333(1)
C51E C 0.327(3) 0.074(3) 0.345(1)
C52E C 0.345(3) 0.122(3) 0.332(1)
C53E C 0.311(3) 0.135(3) 0.307(1)
O9E O 0.330(3) 0.182(20) 0.292(1)
C55E C 0.396(5) 0.181(3) 0.277(2)
O10E O 0.461(3) 0.200(2) 0.291(1)
C65E C 0.501(3) 0.156(2) 0.307(1)
C66E C 0.480(3) 0.138(2) 0.332(1)
C56E C 0.408(4) 0.150(3) 0.345(1)
C57E C 0.407(5) 0.154(3) 0.377(2)
C58E C 0.326(5) 0.191(4) 0.391(2)
C59E C 0.321(4) 0.246(2) 0.385(1)
C60E C 0.275(4) 0.265(2) 0.364(1)
C61E C 0.271(4) 0.320(2) 0.358(1)
C62E C 0.313(4) 0.358(2) 0.373(1)
C63E C 0.359(4) 0.339(2) 0.394(1)
C64E C 0.363(4) 0.284(2) 0.400(1)
C67E C 0.523(3) 0.100(2) 0.346(1)
C68E C 0.587(3) 0.080(2) 0.334(1)
C69E C 0.608(3) 0.099(2) 0.309(1)
O11E O 0.675(3) 0.087(2) 0.299(1)
C71E C 0.653(6) 0.043(5) 0.282(2)
O12E O 0.692(3) -0.011(2) 0.299(1)
C72E C 0.634(5) 0.033(4) 0.346(2)
C73E C 0.627(4) 0.047(3) 0.383(3)
C74E C 0.693(5) -0.003(4) 0.390(2)
C75E C 0.672(4) 0.000(3) 0.424(1)
C76E C 0.627(4) -0.035(3) 0.438(1)
C77E C 0.625(4) -0.033(3) 0.466(1)
C78E C 0.668(4) 0.005(3) 0.479(1)
C79E C 0.713(4) 0.040(3) 0.465(1)
C80E C 0.715(4) 0.038(3) 0.437(1)
C33E C 0.145(2) -0.206(2) 0.302(1)
C34E C 0.070(2) -0.196(2) 0.305(1)
C35E C 0.032(2) -0.172(2) 0.283(1)
C36E C 0.069(2) -0.159(2) 0.260(1)
C3E C 0.746(2) -0.203(2) 0.210(1)
C4E C 0.820(2) -0.192(2) 0.207(1)
C5E C 0.857(2) -0.166(2) 0.228(1)
C6E C 0.820(2) -0.150(2) 0.251(1)
C17E C 0.481(4) -0.124(3) 0.382(2)
C18E C 0.422(4) -0.161(3) 0.395(2)
C25E C 0.428(5) -0.154(3) 0.430(1)
C26E C 0.475(5) -0.169(3) 0.451(1)
C27E C 0.457(5) -0.155(3) 0.477(1)
C28E C 0.392(5) -0.127(3) 0.483(1)
C29E C 0.345(5) -0.112(3) 0.462(1)
C30E C 0.363(5) -0.126(3) 0.435(1)
loop_
_geom_bond_atom_site_label_1
_geom_bond_atom_site_label_2
_geom_bond_site_symmetry_1
_geom_bond_site_symmetry_2
O1 C1 1_555 1_555
C1 C2 1_555 1_555
C2 C3 1_555 1_555
C3 C4 1_555 1_555
C4 C5 1_555 1_555
C5 C6 1_555 1_555
C6 C7 1_555 1_555
C7 C2 1_555 1_555
C8 C7 1_555 1_555
O2 C8 1_555 1_555
C9 O2 1_555 1_555
C10 C9 1_555 1_555
C11 C10 1_555 1_555
C12 C11 1_555 1_555
C13 C12 1_555 1_555
C14 C9 1_555 1_555
O3 C14 1_555 1_555
C15 O3 1_555 1_555
O4 C15 1_555 1_555
C16 C13 1_555 1_555
C17 C16 1_555 1_555
C18 C17 1_555 1_555
C19 O4 1_555 1_555
C20 C16 1_555 1_555
C21 C20 1_555 1_555
C22 C21 1_555 1_555
C23 C22 1_555 1_555
C24 C19 1_555 1_555
C25 C18 1_555 1_555
C26 C25 1_555 1_555
C27 C26 1_555 1_555
C28 C27 1_555 1_555
C29 C28 1_555 1_555
C30 C25 1_555 1_555
O5 C24 1_555 1_555
C31 O5 1_555 1_555
C32 C31 1_555 1_555
C33 C32 1_555 1_555
C34 C33 1_555 1_555
C35 C34 1_555 1_555
C36 C35 1_555 1_555
C37 C32 1_555 1_555
C38 C37 1_555 1_555
C39 C22 1_555 1_555
C40 C39 1_555 1_555
C41 C40 1_555 1_555
C42 C41 1_555 1_555
C43 C42 1_555 1_555
C44 C43 1_555 1_555
C45 C44 1_555 1_555
C46 C45 1_555 1_555
C47 C42 1_555 1_555
O6 C23 1_555 1_555
C48 O6 1_555 1_555
O7 C48 1_555 1_555
C49 O7 1_555 1_555
C50 C39 1_555 1_555
C51 C50 1_555 1_555
C52 C51 1_555 1_555
C53 C52 1_555 1_555
C54 C49 1_555 1_555
O8 C38 1_555 1_555
O9 C53 1_555 1_555
C55 O9 1_555 1_555
O10 C55 1_555 1_555
C56 C52 1_555 1_555
C57 C56 1_555 1_555
C58 C57 1_555 1_555
C59 C58 1_555 1_555
C60 C59 1_555 1_555
C61 C60 1_555 1_555
C62 C61 1_555 1_555
C63 C62 1_555 1_555
C64 C59 1_555 1_555
C65 O10 1_555 1_555
C66 C56 1_555 1_555
C67 C66 1_555 1_555
C68 C67 1_555 1_555
C69 C68 1_555 1_555
C70 O1 1_555 1_555
O11 C69 1_555 1_555
C71 O11 1_555 1_555
O12 C10 1_555 1_555
C72 C11 1_555 1_555
C73 C72 1_555 1_555
C74 C73 1_555 1_555
C75 C74 1_555 1_555
C76 C75 1_555 1_555
C77 C76 1_555 1_555
C78 C77 1_555 1_555
C79 C78 1_555 1_555
C80 C75 1_555 1_555
C54E O8 1_555 1_555
C49E C54E 1_555 1_555
O7E C49E 1_555 1_555
C48E O7E 1_555 1_555
O6E C48E 1_555 1_555
C23E O6E 1_555 1_555
C22E C23E 1_555 1_555
C21E C22E 1_555 1_555
C20E C21E 1_555 1_555
C16E C20E 1_555 1_555
C13E C16E 1_555 1_555
C12E C13E 1_555 1_555
C11E C12E 1_555 1_555
C10E C11E 1_555 1_555
C9E C10E 1_555 1_555
C8E C7E 1_555 1_555
C7E C2E 1_555 1_555
C2E C1E 1_555 1_555
C1E O1E 1_555 1_555
O1E C70E 1_555 1_555
C70E C65 1_555 1_555
O8E C54 1_555 1_555
C38E O8E 1_555 1_555
C37E C38E 1_555 1_555
C32E C37E 1_555 1_555
C31E C32E 1_555 1_555
O5E C31E 1_555 1_555
C24E C23E 1_555 1_555
C19E C20E 1_555 1_555
O4E C19E 1_555 1_555
C15E O4E 1_555 1_555
O3E C15E 1_555 1_555
C14E C13E 1_555 1_555
O2E C9E 1_555 1_555
C39E C22E 1_555 1_555
C40E C39E 1_555 1_555
C41E C40E 1_555 1_555
C42E C41E 1_555 1_555
C43E C42E 1_555 1_555
C44E C43E 1_555 1_555
C45E C44E 1_555 1_555
C46E C45E 1_555 1_555
C47E C42E 1_555 1_555
C50E C49E 1_555 1_555
C51E C50E 1_555 1_555
C52E C51E 1_555 1_555
C53E C54E 1_555 1_555
O9E C53E 1_555 1_555
C55E O9E 1_555 1_555
O10E C55E 1_555 1_555
C65E C70 1_555 1_555
C66E C65E 1_555 1_555
C56E C52E 1_555 1_555
C57E C56E 1_555 1_555
C58E C57E 1_555 1_555
C59E C58E 1_555 1_555
C60E C59E 1_555 1_555
C61E C60E 1_555 1_555
C62E C61E 1_555 1_555
C63E C62E 1_555 1_555
C64E C59E 1_555 1_555
C67E C66E 1_555 1_555
C68E C67E 1_555 1_555
C69E C70 1_555 1_555
O11E C69E 1_555 1_555
C71E O11E 1_555 1_555
O12E C10E 1_555 1_555
C72E C11E 1_555 1_555
C73E C72E 1_555 1_555
C74E C73E 1_555 1_555
C75E C74E 1_555 1_555
C76E C75E 1_555 1_555
C77E C76E 1_555 1_555
C78E C77E 1_555 1_555
C79E C78E 1_555 1_555
C80E C75E 1_555 1_555
C33E C32E 1_555 1_555
C34E C33E 1_555 1_555
C35E C34E 1_555 1_555
C36E C37E 1_555 1_555
C3E C2E 1_555 1_555
C4E C3E 1_555 1_555
C5E C4E 1_555 1_555
C6E C7E 1_555 1_555
C17E C16E 1_555 1_555
C18E C17E 1_555 1_555
C25E C18E 1_555 1_555
C26E C25E 1_555 1_555
C27E C26E 1_555 1_555
C28E C27E 1_555 1_555
C29E C28E 1_555 1_555
C30E C25E 1_555 1_555
C13 C14 1_555 1_555
C19 C20 1_555 1_555
C23 C24 1_555 1_555
C29 C30 1_555 1_555
C36 C37 1_555 1_555
C46 C47 1_555 1_555
C49 C50 1_555 1_555
C53 C54 1_555 1_555
C63 C64 1_555 1_555
C65 C66 1_555 1_555
C68 C72 1_555 1_555
C69 C70E 1_555 1_555
C71 O12 1_555 1_555
C79 C80 1_555 1_555
C9E C14E 1_555 1_555
C8E O2E 1_555 1_555
O5E C24E 1_555 1_555
C24E C19E 1_555 1_555
O3E C14E 1_555 1_555
C39E C50E 1_555 1_555
C46E C47E 1_555 1_555
C52E C53E 1_555 1_555
O10E C65E 1_555 1_555
C66E C56E 1_555 1_555
C63E C64E 1_555 1_555
C68E C69E 1_555 1_555
C68E C72E 1_555 1_555
C71E O12E 1_555 1_555
C79E C80E 1_555 1_555
C35E C36E 1_555 1_555
C5E C6E 1_555 1_555
C29E C30E 1_555 1_555

#END
