
#######################################################################
#
#                 Cambridge Crystallographic Data Centre
#                                CCDC 
#
#######################################################################
#
# If this CIF has been generated from an entry in the Cambridge 
# Structural Database, then it will include bibliographic, chemical, 
# crystal, experimental, refinement or atomic coordinate data resulting 
# from the CCDC's data processing and validation procedures.
#
#######################################################################

data_VURCES
_chemical_formula_moiety         'C32 H35 N1 O9,C1 H1 Cl3'
_chemical_name_systematic        
'9-butyl-9-(4,5-dimethoxy-2-pentanoylphenyl)-6,7-dimethoxy-4-nitro-2H-fluorene-2,3(9H)-dione chloroform solvate'
_symmetry_cell_setting           triclinic
_symmetry_space_group_name_H-M   'P -1'
_symmetry_Int_Tables_number      2
_space_group_name_Hall           '-P 1'
loop_
_symmetry_equiv_pos_site_id
_symmetry_equiv_pos_as_xyz
1 x,y,z
2 -x,-y,-z
_cell_length_a                   9.9084(6)
_cell_length_b                   10.3825(7)
_cell_length_c                   17.9777(11)
_cell_angle_alpha                106.4183(16)
_cell_angle_beta                 96.8036(16)
_cell_angle_gamma                102.9450(16)
_cell_volume                     1695.94
_exptl_crystal_colour            red
_exptl_crystal_description       plate
_cell_formula_units_Z            2
loop_
_atom_site_label
_atom_site_type_symbol
_atom_site_fract_x
_atom_site_fract_y
_atom_site_fract_z
C1 C 0.4856(3) 0.5647(3) 0.41675(15)
O1 O 0.4083(2) 0.44812(18) 0.39878(12)
C2 C 0.2172(3) 0.6237(2) 0.34414(15)
C3 C 0.6354(3) 0.5900(3) 0.4048(2)
H1 H 0.6980 0.6472 0.4561
H2 H 0.6468 0.6456 0.3682
C4 C 0.6854(3) 0.4604(3) 0.37219(19)
H3 H 0.7898 0.4883 0.3805
H4 H 0.6582 0.3961 0.4027
C5 C 0.6275(4) 0.3837(4) 0.2862(2)
H5 H 0.6519 0.4486 0.2557
H6 H 0.5232 0.3525 0.2780
C6 C 0.6829(5) 0.2578(4) 0.2545(3)
H7 H 0.6316 0.2047 0.2005
H8 H 0.6690 0.1984 0.2882
H9 H 0.7837 0.2892 0.2543
C7 C 0.0997(3) 0.6873(3) 0.31665(16)
H10 H 0.0367 0.6949 0.3556
H11 H 0.1448 0.7829 0.3173
C8 C 0.0097(3) 0.6057(3) 0.23473(17)
H12 H 0.0723 0.5949 0.1957
H13 H -0.0393 0.5112 0.2344
C9 C -0.0990(4) 0.6747(4) 0.2096(2)
H14 H -0.0512 0.7716 0.2136
H15 H -0.1667 0.6786 0.2460
C10 C -0.1789(5) 0.5966(5) 0.1255(2)
H16 H -0.2445 0.6470 0.1103
H17 H -0.2320 0.5028 0.1222
H18 H -0.1118 0.5897 0.0896
C11 C 0.4360(3) 0.6909(2) 0.45399(15)
C12 C 0.3114(3) 0.7165(2) 0.42385(14)
C13 C 0.2738(3) 0.8323(3) 0.46849(15)
H19 H 0.1909 0.8522 0.4479
C14 C 0.3521(3) 0.9186(2) 0.54099(15)
C15 C 0.4760(3) 0.8923(3) 0.57073(15)
C16 C 0.5173(3) 0.7812(3) 0.52670(16)
H20 H 0.6034 0.7654 0.5463
O2 O 0.3178(2) 1.03032(18) 0.58768(11)
C17 C 0.1863(3) 1.0526(3) 0.56152(19)
H21 H 0.1689 1.1290 0.6024
H22 H 0.1104 0.9673 0.5515
H23 H 0.1889 1.0767 0.5127
O3 O 0.5482(2) 0.98051(19) 0.64354(11)
C18 C 0.6664(4) 0.9471(3) 0.6781(2)
H24 H 0.7050 1.0136 0.7314
H25 H 0.7389 0.9520 0.6456
H26 H 0.6371 0.8525 0.6814
C19 C 0.2555(3) 0.4468(2) 0.23427(14)
C20 C 0.2971(3) 0.5886(2) 0.27770(14)
C21 C 0.3950(3) 0.6839(3) 0.25692(15)
H27 H 0.4257 0.7792 0.2886
C22 C 0.4469(3) 0.6369(3) 0.18898(15)
C23 C 0.4004(3) 0.4935(3) 0.14219(15)
C24 C 0.3080(3) 0.3995(3) 0.16474(15)
H28 H 0.2794 0.3036 0.1341
O4 O 0.5422(2) 0.71707(18) 0.16186(11)
C25 C 0.5982(4) 0.8618(3) 0.20630(19)
H29 H 0.6720 0.9045 0.1821
H30 H 0.6385 0.8715 0.2607
H31 H 0.5225 0.9085 0.2066
O5 O 0.4577(2) 0.46201(19) 0.07685(11)
C26 C 0.4257(4) 0.3183(3) 0.03086(18)
H32 H 0.4732 0.3092 -0.0144
H33 H 0.3235 0.2811 0.0119
H34 H 0.4586 0.2660 0.0635
C27 C 0.1637(3) 0.3727(3) 0.27436(15)
C28 C 0.1467(3) 0.4787(3) 0.34542(15)
C29 C 0.0801(3) 0.4499(3) 0.40139(16)
H35 H 0.0678 0.5232 0.4434
C30 C 0.0266(3) 0.3064(3) 0.39752(18)
O6 O -0.0138(3) 0.2715(2) 0.45189(14)
C31 C 0.0274(3) 0.1914(3) 0.32115(18)
O7 O -0.0203(3) 0.0699(2) 0.31558(15)
C32 C 0.0947(3) 0.2370(3) 0.26162(16)
N1 N 0.0923(3) 0.1241(2) 0.19060(15)
O8 O -0.0209(3) 0.0438(2) 0.15573(15)
O9 O 0.2054(3) 0.1139(2) 0.17095(13)
C33 C 0.1602(4) -0.1654(4) 0.0236(2)
H36 H 0.1254 -0.0897 0.0570
Cl1 Cl 0.01722(17) -0.27994(14) -0.04899(8)
Cl2 Cl 0.29425(19) -0.0877(2) -0.01664(11)
Cl3 Cl 0.2220(2) -0.25246(19) 0.08421(10)
C34? C 0.151(4) -0.165(4) 0.010(2)
H37? H 0.0677 -0.1487 0.0336
Cl4? Cl 0.107(5) -0.301(4) -0.080(2)
Cl5? Cl 0.275(3) -0.206(3) 0.0696(14)
Cl6? Cl 0.240(4) -0.025(3) -0.0170(19)
loop_
_geom_bond_atom_site_label_1
_geom_bond_atom_site_label_2
_geom_bond_site_symmetry_1
_geom_bond_site_symmetry_2
C1 O1 1_555 1_555
C2 C7 1_555 1_555
C3 C1 1_555 1_555
H1 C3 1_555 1_555
H2 C3 1_555 1_555
C4 C3 1_555 1_555
H3 C4 1_555 1_555
H4 C4 1_555 1_555
C5 C4 1_555 1_555
H5 C5 1_555 1_555
H6 C5 1_555 1_555
C6 C5 1_555 1_555
H7 C6 1_555 1_555
H8 C6 1_555 1_555
H9 C6 1_555 1_555
C7 H10 1_555 1_555
H11 C7 1_555 1_555
C8 C7 1_555 1_555
H12 C8 1_555 1_555
H13 C8 1_555 1_555
C9 C8 1_555 1_555
H14 C9 1_555 1_555
H15 C9 1_555 1_555
C10 C9 1_555 1_555
H16 C10 1_555 1_555
H17 C10 1_555 1_555
H18 C10 1_555 1_555
C11 C1 1_555 1_555
C12 C2 1_555 1_555
C13 C12 1_555 1_555
H19 C13 1_555 1_555
C14 C13 1_555 1_555
C15 C14 1_555 1_555
C16 C11 1_555 1_555
H20 C16 1_555 1_555
O2 C14 1_555 1_555
C17 O2 1_555 1_555
H21 C17 1_555 1_555
H22 C17 1_555 1_555
H23 C17 1_555 1_555
O3 C15 1_555 1_555
C18 O3 1_555 1_555
H24 C18 1_555 1_555
H25 C18 1_555 1_555
H26 C18 1_555 1_555
C19 C20 1_555 1_555
C20 C2 1_555 1_555
C21 C20 1_555 1_555
H27 C21 1_555 1_555
C22 C21 1_555 1_555
C23 C22 1_555 1_555
C24 C19 1_555 1_555
H28 C24 1_555 1_555
O4 C22 1_555 1_555
C25 O4 1_555 1_555
H29 C25 1_555 1_555
H30 C25 1_555 1_555
H31 C25 1_555 1_555
O5 C23 1_555 1_555
C26 O5 1_555 1_555
H32 C26 1_555 1_555
H33 C26 1_555 1_555
H34 C26 1_555 1_555
C27 C19 1_555 1_555
C28 C2 1_555 1_555
C29 C28 1_555 1_555
H35 C29 1_555 1_555
C30 C29 1_555 1_555
O6 C30 1_555 1_555
C31 C30 1_555 1_555
O7 C31 1_555 1_555
C32 C27 1_555 1_555
N1 C32 1_555 1_555
O8 N1 1_555 1_555
O9 N1 1_555 1_555
C33 H36 1_555 1_555
Cl1 C33 1_555 1_555
Cl2 C33 1_555 1_555
Cl3 C33 1_555 1_555
C11 C12 1_555 1_555
C15 C16 1_555 1_555
C23 C24 1_555 1_555
C27 C28 1_555 1_555
C31 C32 1_555 1_555

#END
