
#######################################################################
#
#                 Cambridge Crystallographic Data Centre
#                                CCDC 
#
#######################################################################
#
# If this CIF has been generated from an entry in the Cambridge 
# Structural Database, then it will include bibliographic, chemical, 
# crystal, experimental, refinement or atomic coordinate data resulting 
# from the CCDC's data processing and validation procedures.
#
#######################################################################

data_VURCOC
_chemical_formula_moiety         'C28 H36 Si3'
_chemical_name_systematic        
1,3,4-triphenyl-2,5-bis(trimethylsilyl)-2,5-dihydro-1H-silole
_symmetry_cell_setting           triclinic
_symmetry_space_group_name_H-M   'P -1'
_symmetry_Int_Tables_number      2
_space_group_name_Hall           '-P 1'
loop_
_symmetry_equiv_pos_site_id
_symmetry_equiv_pos_as_xyz
1 x,y,z
2 -x,-y,-z
_cell_length_a                   9.6233(7)
_cell_length_b                   10.8425(5)
_cell_length_c                   14.8348(11)
_cell_angle_alpha                70.176(5)
_cell_angle_beta                 72.274(6)
_cell_angle_gamma                76.538(5)
_cell_volume                     1372.44
_exptl_crystal_colour            'whiteish colorless'
_cell_formula_units_Z            2
_exptl_crystal_recrystallization_method 
'Re-crystallisation from solvent: hexane'
loop_
_atom_site_label
_atom_site_type_symbol
_atom_site_fract_x
_atom_site_fract_y
_atom_site_fract_z
Si1 Si 0.86615(7) -0.00274(6) 0.75885(5)
H1 H 0.9310 -0.0294 0.7013
Si2 Si 0.71535(8) 0.18787(7) 0.59010(5)
Si3 Si 1.18007(7) 0.01226(7) 0.77513(5)
C1 C 0.7629(3) -0.1412(2) 0.84440(18)
C2 C 0.7434(2) 0.3997(2) 0.70537(16)
C3 C 0.8126(2) 0.2580(2) 0.73406(15)
C4 C 0.7444(2) 0.1568(2) 0.71618(16)
H2 H 0.6474 0.1506 0.7630
C5 C 0.9225(2) 0.2140(2) 0.78055(16)
C6 C 0.9753(2) 0.0648(2) 0.81303(17)
H3 H 0.9430 0.0327 0.8853
C7 C 0.9933(3) 0.3000(2) 0.80862(18)
C8 C 0.5990(3) 0.4363(2) 0.75334(19)
H4 H 0.5475 0.3722 0.8032
C9 C 0.8144(3) 0.4977(2) 0.62989(19)
H5 H 0.9104 0.4762 0.5951
C10 C 1.0871(3) 0.3860(3) 0.7393(2)
H6 H 1.1029 0.3956 0.6724
C11 C 0.6036(3) 0.6614(2) 0.6542(2)
H7 H 0.5576 0.7486 0.6374
C12 C 0.9728(3) 0.2886(3) 0.9078(2)
H8 H 0.9100 0.2318 0.9557
C13 C 0.7445(3) 0.6272(3) 0.6053(2)
H9 H 0.7946 0.6917 0.5546
C14 C 0.5301(3) 0.5658(3) 0.7287(2)
H10 H 0.4338 0.5882 0.7627
C15 C 1.2839(3) 0.0536(3) 0.8461(2)
H11 H 1.2778 0.1480 0.8291
H12 H 1.3854 0.0148 0.8302
H13 H 1.2421 0.0192 0.9157
C16 C 0.6504(3) -0.1222(2) 0.9248(2)
H14 H 0.6297 -0.0404 0.9372
C17 C 1.1582(4) 0.4582(3) 0.7692(2)
H15 H 1.2213 0.5152 0.7220
C18 C 0.5984(4) -0.3424(3) 0.9706(3)
H16 H 0.5434 -0.4092 1.0127
C19 C 0.6675(3) 0.0300(3) 0.5899(2)
H17 H 0.7531 -0.0366 0.5904
H18 H 0.6345 0.0451 0.5316
H19 H 0.5905 0.0005 0.6475
C20 C 1.2160(3) -0.1716(3) 0.7989(2)
H20 H 1.1663 -0.2132 0.8657
H21 H 1.3201 -0.2014 0.7893
H22 H 1.1800 -0.1947 0.7540
C21 C 0.7914(4) -0.2650(3) 0.8286(2)
H23 H 0.8658 -0.2813 0.7750
C22 C 1.0445(4) 0.3607(3) 0.9365(2)
H24 H 1.0305 0.3511 1.0032
C23 C 1.1360(4) 0.4460(3) 0.8667(3)
H25 H 1.1828 0.4954 0.8859
C24 C 1.2441(3) 0.0943(3) 0.6407(2)
H26 H 1.1837 0.0789 0.6058
H27 H 1.3448 0.0586 0.6173
H28 H 1.2368 0.1879 0.6296
C25 C 0.7086(4) -0.3653(3) 0.8928(3)
H29 H 0.7292 -0.4481 0.8821
C26 C 0.5612(4) 0.3237(3) 0.5652(2)
H30 H 0.4748 0.3058 0.6183
H31 H 0.5412 0.3295 0.5043
H32 H 0.5881 0.4061 0.5603
C27 C 0.5679(4) -0.2208(3) 0.9873(2)
H33 H 0.4922 -0.2049 1.0403
C28 C 0.8877(4) 0.2278(3) 0.4930(2)
H34 H 0.9116 0.3091 0.4928
H35 H 0.8735 0.2375 0.4295
H36 H 0.9670 0.1575 0.5065
loop_
_geom_bond_atom_site_label_1
_geom_bond_atom_site_label_2
_geom_bond_site_symmetry_1
_geom_bond_site_symmetry_2
Si1 H1 1_555 1_555
Si2 C4 1_555 1_555
Si3 C6 1_555 1_555
C1 Si1 1_555 1_555
C2 C3 1_555 1_555
C3 C4 1_555 1_555
C4 Si1 1_555 1_555
H2 C4 1_555 1_555
C5 C3 1_555 1_555
C6 Si1 1_555 1_555
H3 C6 1_555 1_555
C7 C5 1_555 1_555
C8 C2 1_555 1_555
H4 C8 1_555 1_555
C9 C2 1_555 1_555
H5 C9 1_555 1_555
C10 C7 1_555 1_555
H6 C10 1_555 1_555
C11 H7 1_555 1_555
C12 C7 1_555 1_555
H8 C12 1_555 1_555
C13 C9 1_555 1_555
H9 C13 1_555 1_555
C14 C8 1_555 1_555
H10 C14 1_555 1_555
C15 Si3 1_555 1_555
H11 C15 1_555 1_555
H12 C15 1_555 1_555
H13 C15 1_555 1_555
C16 C1 1_555 1_555
H14 C16 1_555 1_555
C17 C10 1_555 1_555
H15 C17 1_555 1_555
C18 H16 1_555 1_555
C19 Si2 1_555 1_555
H17 C19 1_555 1_555
H18 C19 1_555 1_555
H19 C19 1_555 1_555
C20 Si3 1_555 1_555
H20 C20 1_555 1_555
H21 C20 1_555 1_555
H22 C20 1_555 1_555
C21 C1 1_555 1_555
H23 C21 1_555 1_555
C22 C12 1_555 1_555
H24 C22 1_555 1_555
C23 C17 1_555 1_555
H25 C23 1_555 1_555
C24 Si3 1_555 1_555
H26 C24 1_555 1_555
H27 C24 1_555 1_555
H28 C24 1_555 1_555
C25 C18 1_555 1_555
H29 C25 1_555 1_555
C26 Si2 1_555 1_555
H30 C26 1_555 1_555
H31 C26 1_555 1_555
H32 C26 1_555 1_555
C27 C16 1_555 1_555
H33 C27 1_555 1_555
C28 Si2 1_555 1_555
H34 C28 1_555 1_555
H35 C28 1_555 1_555
H36 C28 1_555 1_555
C5 C6 1_555 1_555
C11 C13 1_555 1_555
C11 C14 1_555 1_555
C18 C27 1_555 1_555
C21 C25 1_555 1_555
C22 C23 1_555 1_555

#END
