
#######################################################################
#
#                 Cambridge Crystallographic Data Centre
#                                CCDC 
#
#######################################################################
#
# If this CIF has been generated from an entry in the Cambridge 
# Structural Database, then it will include bibliographic, chemical, 
# crystal, experimental, refinement or atomic coordinate data resulting 
# from the CCDC's data processing and validation procedures.
#
#######################################################################

data_VURCIW
_chemical_formula_moiety         'C36 H43 N1 O9,0.5(C1 H1 Cl3)'
_chemical_name_systematic        
'9-(2-heptanoyl-4,5-dimethoxyphenyl)-9-hexyl-6,7-dimethoxy-4-nitro-2H-fluorene-2,3(9H)-dione chloroform solvate'
_symmetry_cell_setting           orthorhombic
_symmetry_space_group_name_H-M   'P c a 21'
_symmetry_Int_Tables_number      29
_space_group_name_Hall           'P 2c -2ac'
loop_
_symmetry_equiv_pos_site_id
_symmetry_equiv_pos_as_xyz
1 x,y,z
2 -x,-y,1/2+z
3 1/2+x,-y,z
4 1/2-x,y,1/2+z
_cell_length_a                   9.7517(11)
_cell_length_b                   22.499(3)
_cell_length_c                   32.974(4)
_cell_angle_alpha                90
_cell_angle_beta                 90
_cell_angle_gamma                90
_cell_volume                     7234.61
_exptl_crystal_colour            red
_exptl_crystal_description       plate
_cell_formula_units_Z            8
loop_
_atom_site_label
_atom_site_type_symbol
_atom_site_fract_x
_atom_site_fract_y
_atom_site_fract_z
C1 C 0.5358(10) 0.6536(4) 0.4069(3)
C2 C 0.6443(11) 0.6155(5) 0.3847(3)
H1 H 0.6610 0.5792 0.4010
H2 H 0.7313 0.6381 0.3839
C3 C 0.6090(12) 0.5961(6) 0.3408(4)
H3 H 0.5226 0.5730 0.3412
H4 H 0.5933 0.6321 0.3241
C4 C 0.7202(12) 0.5588(6) 0.3211(4)
H5 H 0.8070 0.5817 0.3213
H6 H 0.7346 0.5226 0.3376
C5 C 0.6897(14) 0.5403(7) 0.2781(4)
H7 H 0.6051 0.5160 0.2782
H8 H 0.6706 0.5765 0.2620
C6 C 0.7983(18) 0.5065(8) 0.2577(5)
H9 H 0.8814 0.5317 0.2566
H10 H 0.8205 0.4715 0.2746
C7 C 0.769(3) 0.4861(12) 0.2173(6)
H11 H 0.8479 0.4642 0.2067
H12 H 0.6886 0.4599 0.2179
H13 H 0.7497 0.5203 0.1997
C8 C 0.4033(10) 0.6192(4) 0.4075(3)
C9 C 0.3687(10) 0.5741(5) 0.4321(4)
H14 H 0.4326 0.5601 0.4517
C10 C 0.2347(11) 0.5467(5) 0.4291(4)
O1 O 0.1908(9) 0.5100(4) 0.4525(3)
C11 C 0.1385(11) 0.5684(5) 0.3949(4)
O2 O 0.0255(9) 0.5454(4) 0.3911(3)
C12 C 0.1887(11) 0.6163(5) 0.3698(3)
C13 C 0.3090(10) 0.6430(5) 0.3764(3)
C14 C 0.4953(10) 0.7062(4) 0.3803(3)
C15 C 0.5695(11) 0.7580(5) 0.3754(4)
H15 H 0.6508 0.7652 0.3905
C16 C 0.5200(13) 0.7994(5) 0.3474(4)
C17 C 0.3986(12) 0.7891(5) 0.3255(4)
C18 C 0.3242(12) 0.7378(5) 0.3315(4)
H16 H 0.2418 0.7308 0.3169
C19 C 0.3721(11) 0.6963(5) 0.3595(3)
O3 O 0.5797(10) 0.8527(4) 0.3403(3)
C20 C 0.7047(17) 0.8669(7) 0.3620(6)
H17 H 0.7364 0.9066 0.3540
H18 H 0.6869 0.8663 0.3912
H19 H 0.7754 0.8375 0.3554
O4 O 0.3697(10) 0.8332(4) 0.2980(3)
C21 C 0.2517(19) 0.8227(7) 0.2723(6)
H20 H 0.2396 0.8564 0.2538
H21 H 0.2659 0.7863 0.2565
H22 H 0.1696 0.8183 0.2892
C22 C 0.5871(10) 0.6727(4) 0.4489(3)
C23 C 0.6974(10) 0.6416(5) 0.4670(3)
H23 H 0.7392 0.6100 0.4524
C24 C 0.7460(11) 0.6553(5) 0.5049(3)
C25 C 0.6860(10) 0.7019(5) 0.5276(3)
C26 C 0.5805(11) 0.7337(5) 0.5094(3)
H24 H 0.5426 0.7669 0.5233
C27 C 0.5281(10) 0.7186(5) 0.4710(3)
O5 O 0.8516(8) 0.6273(4) 0.5241(3)
C28 C 0.9173(15) 0.5810(6) 0.5016(5)
H25 H 0.9913 0.5638 0.5179
H26 H 0.8501 0.5501 0.4950
H27 H 0.9554 0.5975 0.4765
O6 O 0.7351(8) 0.7122(4) 0.5649(2)
C29 C 0.6625(14) 0.7545(6) 0.5890(4)
H28 H 0.7074 0.7584 0.6155
H29 H 0.6626 0.7931 0.5752
H30 H 0.5678 0.7411 0.5928
C30 C 0.4032(11) 0.7521(5) 0.4580(4)
O7 O 0.3013(7) 0.7260(4) 0.4464(3)
C31 C 0.4084(12) 0.8182(5) 0.4597(4)
H31 H 0.4956 0.8319 0.4474
H32 H 0.4077 0.8310 0.4884
C32 C 0.2880(14) 0.8480(6) 0.4374(7)
H33 H 0.2805 0.8307 0.4098
H34 H 0.2019 0.8389 0.4520
C33 C 0.303(2) 0.9138(7) 0.4338(8)
H35 H 0.3980 0.9243 0.4265
H36 H 0.2799 0.9331 0.4599
C34 C 0.199(4) 0.935(2) 0.3994(14)
H37 H 0.2204 0.9767 0.3911
H38 H 0.2063 0.9094 0.3752
C35 C 0.052(4) 0.932(3) 0.418(2)
H39 H 0.0157 0.8912 0.4133
H40 H 0.0601 0.9370 0.4479
C36 C -0.043(6) 0.973(4) 0.403(3)
H41 H -0.1313 0.9674 0.4167
H42 H -0.0095 1.0135 0.4086
H43 H -0.0539 0.9676 0.3739
N1 N 0.096(2) 0.6337(9) 0.3371(5)
O8 O 0.134(3) 0.627(2) 0.3023(4)
O9 O -0.011(3) 0.6574(19) 0.3470(7)
C40 C 0.0615(10) 0.8474(4) 0.5912(3)
C41 C -0.0444(10) 0.8858(5) 0.6147(3)
H53 H -0.0643 0.9217 0.5983
H54 H -0.1307 0.8629 0.6170
C42 C -0.0024(12) 0.9059(5) 0.6573(3)
H55 H 0.0184 0.8704 0.6739
H56 H 0.0826 0.9298 0.6553
C43 C -0.1116(12) 0.9424(6) 0.6787(4)
H57 H -0.1366 0.9764 0.6611
H58 H -0.1945 0.9175 0.6821
C44 C -0.0693(15) 0.9657(9) 0.7194(5)
H59 H -0.0291 0.9326 0.7352
H60 H 0.0034 0.9958 0.7154
C45 C -0.181(2) 0.9928(11) 0.7437(6)
H61 H -0.2144 1.0287 0.7294
H62 H -0.2585 0.9644 0.7450
C46 C -0.144(3) 1.0092(13) 0.7842(7)
H63 H -0.2234 1.0267 0.7980
H64 H -0.1135 0.9739 0.7990
H65 H -0.0692 1.0384 0.7833
C47 C 0.1951(10) 0.8812(5) 0.5892(3)
C48 C 0.2257(11) 0.9266(5) 0.5639(4)
H66 H 0.1590 0.9411 0.5454
C49 C 0.3629(11) 0.9532(5) 0.5654(4)
O12 O 0.4010(9) 0.9905(4) 0.5414(3)
C50 C 0.4577(11) 0.9336(5) 0.6000(4)
O13 O 0.5692(9) 0.9600(5) 0.6031(3)
C51 C 0.4110(10) 0.8876(5) 0.6263(3)
N3 N 0.5023(10) 0.8682(5) 0.6588(3)
O14 O 0.6165(9) 0.8511(5) 0.6497(3)
O15 O 0.4639(10) 0.8741(6) 0.6935(3)
C52 C 0.2892(10) 0.8592(5) 0.6199(3)
C53 C 0.1036(10) 0.7959(4) 0.6184(3)
C54 C 0.0342(11) 0.7428(4) 0.6237(4)
H67 H -0.0512 0.7357 0.6107
C55 C 0.0955(12) 0.6993(5) 0.6492(4)
C56 C 0.2208(12) 0.7113(5) 0.6690(4)
C57 C 0.2881(12) 0.7632(5) 0.6625(4)
H68 H 0.3730 0.7707 0.6757
C58 C 0.2321(10) 0.8051(5) 0.6365(3)
O16 O 0.0414(10) 0.6459(4) 0.6565(3)
C59 C -0.0864(15) 0.6308(7) 0.6379(5)
H69 H -0.1131 0.5906 0.6460
H70 H -0.1570 0.6591 0.6466
H71 H -0.0766 0.6325 0.6083
O17 O 0.2671(10) 0.6663(4) 0.6932(3)
C60 C 0.4079(16) 0.6726(8) 0.7094(6)
H72 H 0.4300 0.6380 0.7263
H73 H 0.4731 0.6751 0.6869
H74 H 0.4137 0.7088 0.7259
C61 C 0.0103(10) 0.8280(4) 0.5489(3)
C62 C -0.1028(11) 0.8578(5) 0.5310(3)
H75 H -0.1465 0.8888 0.5456
C63 C -0.1508(11) 0.8432(5) 0.4934(3)
C64 C -0.0902(11) 0.7954(5) 0.4715(3)
C65 C 0.0152(10) 0.7647(5) 0.4894(3)
H76 H 0.0535 0.7316 0.4756
C66 C 0.0687(10) 0.7808(4) 0.5278(3)
O18 O -0.2579(8) 0.8709(4) 0.4742(3)
C67 C -0.3237(15) 0.9175(6) 0.4952(5)
H77 H -0.3980 0.9336 0.4784
H78 H -0.3617 0.9023 0.5207
H79 H -0.2573 0.9490 0.5011
O19 O -0.1387(8) 0.7852(4) 0.4333(2)
C68 C -0.0677(13) 0.7433(6) 0.4092(4)
H80 H -0.1125 0.7401 0.3826
H81 H 0.0274 0.7563 0.4055
H82 H -0.0689 0.7045 0.4226
C69 C 0.1925(11) 0.7478(4) 0.5408(3)
O20 O 0.2955(7) 0.7734(3) 0.5514(3)
C70 C 0.1897(12) 0.6805(5) 0.5388(4)
H83 H 0.1914 0.6683 0.5099
H84 H 0.1023 0.6663 0.5506
C71 C 0.3093(15) 0.6501(6) 0.5610(5)
H85 H 0.3963 0.6612 0.5475
H86 H 0.3129 0.6650 0.5892
C72 C 0.298(5) 0.5832(8) 0.562(2)
H87 H 0.2644 0.5686 0.5352
H88 H 0.2310 0.5709 0.5828
C73 C 0.444(5) 0.5557(16) 0.5713(12)
H89 H 0.4420 0.5121 0.5673
H90 H 0.5137 0.5729 0.5530
C74 C 0.478(5) 0.5710(19) 0.6166(13)
H91 H 0.5117 0.6124 0.6176
H92 H 0.3909 0.5698 0.6322
C75 C 0.573(7) 0.535(3) 0.6367(19)
H93 H 0.5852 0.5491 0.6646
H94 H 0.5401 0.4938 0.6372
H95 H 0.6614 0.5366 0.6225
C80 C 0.8252(18) 0.7546(10) 0.7563(6)
H107 H 0.8708 0.7861 0.7729
Cl1 Cl 0.7528(9) 0.7885(4) 0.7135(3)
Cl2 Cl 0.6941(7) 0.7233(4) 0.7853(2)
Cl3 Cl 0.9489(8) 0.7031(4) 0.7420(2)
N2? N 0.101(4) 0.6324(14) 0.3354(9)
O10? O 0.085(5) 0.597(2) 0.3073(12)
O11? O 0.045(6) 0.6811(15) 0.3349(16)
H44? H 0.3640 0.9235 0.4108
H45? H 0.3440 0.9299 0.4589
C37? C 0.156(5) 0.943(2) 0.4266(17)
H46? H 0.0929 0.9308 0.4485
H47? H 0.1648 0.9871 0.4279
C38? C 0.094(4) 0.925(2) 0.3850(15)
H48? H 0.1713 0.9191 0.3659
H49? H 0.0478 0.8866 0.3884
C39? C 0.000(5) 0.965(2) 0.366(2)
H50? H -0.0305 0.9481 0.3404
H51? H -0.0793 0.9705 0.3841
H52? H 0.0447 1.0032 0.3615
H96? H 0.3965 0.6599 0.5472
H97? H 0.3145 0.6652 0.5891
C76? C 0.290(5) 0.5831(9) 0.562(2)
H98? H 0.3154 0.5663 0.5349
H99? H 0.1930 0.5735 0.5671
C77? C 0.384(3) 0.5550(18) 0.5956(14)
H100? H 0.3624 0.5736 0.6222
H101? H 0.3652 0.5119 0.5978
C78? C 0.539(3) 0.566(2) 0.585(2)
H102? H 0.5496 0.5615 0.5549
H103? H 0.5628 0.6072 0.5918
C79? C 0.632(5) 0.527(4) 0.604(3)
H104? H 0.7254 0.5367 0.5955
H105? H 0.6238 0.5317 0.6335
H106? H 0.6106 0.4859 0.5966
C81? C 0.781(5) 0.741(2) 0.7584(17)
H108? H 0.8260 0.7133 0.7779
Cl4? Cl 0.891(3) 0.7978(16) 0.7430(10)
Cl5? Cl 0.640(4) 0.777(2) 0.7795(14)
Cl6? Cl 0.734(5) 0.706(2) 0.7133(18)
loop_
_geom_bond_atom_site_label_1
_geom_bond_atom_site_label_2
_geom_bond_site_symmetry_1
_geom_bond_site_symmetry_2
C1 C2 1_555 1_555
C2 H1 1_555 1_555
H2 C2 1_555 1_555
C3 C2 1_555 1_555
H3 C3 1_555 1_555
H4 C3 1_555 1_555
C4 C3 1_555 1_555
H5 C4 1_555 1_555
H6 C4 1_555 1_555
C5 C4 1_555 1_555
H7 C5 1_555 1_555
H8 C5 1_555 1_555
C6 C5 1_555 1_555
H9 C6 1_555 1_555
H10 C6 1_555 1_555
C7 C6 1_555 1_555
H11 C7 1_555 1_555
H12 C7 1_555 1_555
H13 C7 1_555 1_555
C8 C1 1_555 1_555
C9 C8 1_555 1_555
H14 C9 1_555 1_555
C10 C9 1_555 1_555
O1 C10 1_555 1_555
C11 C10 1_555 1_555
O2 C11 1_555 1_555
C12 C11 1_555 1_555
C13 C8 1_555 1_555
C14 C1 1_555 1_555
C15 C14 1_555 1_555
H15 C15 1_555 1_555
C16 C15 1_555 1_555
C17 C16 1_555 1_555
C18 C17 1_555 1_555
H16 C18 1_555 1_555
C19 C13 1_555 1_555
O3 C16 1_555 1_555
C20 O3 1_555 1_555
H17 C20 1_555 1_555
H18 C20 1_555 1_555
H19 C20 1_555 1_555
O4 C17 1_555 1_555
C21 O4 1_555 1_555
H20 C21 1_555 1_555
H21 C21 1_555 1_555
H22 C21 1_555 1_555
C22 C1 1_555 1_555
C23 C22 1_555 1_555
H23 C23 1_555 1_555
C24 C23 1_555 1_555
C25 C24 1_555 1_555
C26 C25 1_555 1_555
H24 C26 1_555 1_555
C27 C22 1_555 1_555
O5 C24 1_555 1_555
C28 O5 1_555 1_555
H25 C28 1_555 1_555
H26 C28 1_555 1_555
H27 C28 1_555 1_555
O6 C25 1_555 1_555
C29 O6 1_555 1_555
H28 C29 1_555 1_555
H29 C29 1_555 1_555
H30 C29 1_555 1_555
C30 C27 1_555 1_555
O7 C30 1_555 1_555
C31 C30 1_555 1_555
H31 C31 1_555 1_555
H32 C31 1_555 1_555
C32 C31 1_555 1_555
H33 C32 1_555 1_555
H34 C32 1_555 1_555
C33 C32 1_555 1_555
H35 C33 1_555 1_555
H36 C33 1_555 1_555
C34 C33 1_555 1_555
H37 C34 1_555 1_555
H38 C34 1_555 1_555
C35 C34 1_555 1_555
H39 C35 1_555 1_555
H40 C35 1_555 1_555
C36 C35 1_555 1_555
H41 C36 1_555 1_555
H42 C36 1_555 1_555
H43 C36 1_555 1_555
N1 C12 1_555 1_555
O8 N1 1_555 1_555
O9 N1 1_555 1_555
C40 C41 1_555 1_555
C41 H53 1_555 1_555
H54 C41 1_555 1_555
C42 C41 1_555 1_555
H55 C42 1_555 1_555
H56 C42 1_555 1_555
C43 C42 1_555 1_555
H57 C43 1_555 1_555
H58 C43 1_555 1_555
C44 C43 1_555 1_555
H59 C44 1_555 1_555
H60 C44 1_555 1_555
C45 C44 1_555 1_555
H61 C45 1_555 1_555
H62 C45 1_555 1_555
C46 C45 1_555 1_555
H63 C46 1_555 1_555
H64 C46 1_555 1_555
H65 C46 1_555 1_555
C47 C40 1_555 1_555
C48 C47 1_555 1_555
H66 C48 1_555 1_555
C49 C48 1_555 1_555
O12 C49 1_555 1_555
C50 C49 1_555 1_555
O13 C50 1_555 1_555
C51 C50 1_555 1_555
N3 C51 1_555 1_555
O14 N3 1_555 1_555
O15 N3 1_555 1_555
C52 C47 1_555 1_555
C53 C40 1_555 1_555
C54 C53 1_555 1_555
H67 C54 1_555 1_555
C55 C54 1_555 1_555
C56 C55 1_555 1_555
C57 C56 1_555 1_555
H68 C57 1_555 1_555
C58 C52 1_555 1_555
O16 C55 1_555 1_555
C59 O16 1_555 1_555
H69 C59 1_555 1_555
H70 C59 1_555 1_555
H71 C59 1_555 1_555
O17 C56 1_555 1_555
C60 O17 1_555 1_555
H72 C60 1_555 1_555
H73 C60 1_555 1_555
H74 C60 1_555 1_555
C61 C40 1_555 1_555
C62 C61 1_555 1_555
H75 C62 1_555 1_555
C63 C62 1_555 1_555
C64 C63 1_555 1_555
C65 C64 1_555 1_555
H76 C65 1_555 1_555
C66 C61 1_555 1_555
O18 C63 1_555 1_555
C67 O18 1_555 1_555
H77 C67 1_555 1_555
H78 C67 1_555 1_555
H79 C67 1_555 1_555
O19 C64 1_555 1_555
C68 O19 1_555 1_555
H80 C68 1_555 1_555
H81 C68 1_555 1_555
H82 C68 1_555 1_555
C69 C66 1_555 1_555
O20 C69 1_555 1_555
C70 C69 1_555 1_555
H83 C70 1_555 1_555
H84 C70 1_555 1_555
C71 C70 1_555 1_555
H85 C71 1_555 1_555
H86 C71 1_555 1_555
C72 C71 1_555 1_555
H87 C72 1_555 1_555
H88 C72 1_555 1_555
C73 C72 1_555 1_555
H89 C73 1_555 1_555
H90 C73 1_555 1_555
C74 C73 1_555 1_555
H91 C74 1_555 1_555
H92 C74 1_555 1_555
C75 C74 1_555 1_555
H93 C75 1_555 1_555
H94 C75 1_555 1_555
H95 C75 1_555 1_555
C80 H107 1_555 1_555
Cl1 C80 1_555 1_555
Cl2 C80 1_555 1_555
Cl3 C80 1_555 1_555
C12 C13 1_555 1_555
C14 C19 1_555 1_555
C18 C19 1_555 1_555
C26 C27 1_555 1_555
C51 C52 1_555 1_555
C53 C58 1_555 1_555
C57 C58 1_555 1_555
C65 C66 1_555 1_555

#END
