
#######################################################################
#
#                 Cambridge Crystallographic Data Centre
#                                CCDC 
#
#######################################################################
#
# If this CIF has been generated from an entry in the Cambridge 
# Structural Database, then it will include bibliographic, chemical, 
# crystal, experimental, refinement or atomic coordinate data resulting 
# from the CCDC's data processing and validation procedures.
#
#######################################################################

data_VURJID
_chemical_formula_moiety         'C27 H29 N3 O7'
_chemical_name_systematic        
"1-t-Butyl 3'-methyl 5-methoxy-2,5'-dioxo-1'-phenyl-3',5',6',7'-tetrahydro-1'H-spiro(indoline-3,2'-pyrazolo(1,2-a)pyrazole)-1,3'-dicarboxylate"
_symmetry_cell_setting           orthorhombic
_symmetry_space_group_name_H-M   'P 21 21 21'
_symmetry_Int_Tables_number      19
_space_group_name_Hall           'P 2ac 2ab'
loop_
_symmetry_equiv_pos_site_id
_symmetry_equiv_pos_as_xyz
1 x,y,z
2 1/2-x,-y,1/2+z
3 1/2+x,1/2-y,-z
4 -x,1/2+y,1/2-z
_cell_length_a                   9.5880(3)
_cell_length_b                   12.7740(3)
_cell_length_c                   21.6395(7)
_cell_angle_alpha                90
_cell_angle_beta                 90
_cell_angle_gamma                90
_cell_volume                     2650.34
_exptl_crystal_colour            colorless
_cell_formula_units_Z            4
loop_
_atom_site_label
_atom_site_type_symbol
_atom_site_fract_x
_atom_site_fract_y
_atom_site_fract_z
O1 O -0.6453(3) -0.25397(15) -0.45645(11)
O2 O -0.9578(2) -0.58717(15) -0.39592(10)
O3 O -0.6308(3) -0.45622(17) -0.47209(10)
N1 N -0.7141(2) -0.36886(16) -0.38513(10)
N2 N -0.6334(3) -0.73147(17) -0.39383(13)
O4 O -0.9158(2) -0.74900(19) -0.36083(14)
O5 O -0.8672(4) -0.5630(2) -0.16738(11)
N3 N -0.5392(2) -0.69555(16) -0.34643(12)
O6 O -0.7165(4) -0.19517(17) -0.36383(13)
O7 O -0.6172(4) -0.8006(3) -0.49084(16)
C1 C -0.6650(3) -0.54970(18) -0.37629(11)
C2 C -0.7605(3) -0.4027(2) -0.32537(12)
C3 C -0.7334(3) -0.50927(19) -0.31877(12)
C4 C -0.7311(3) -0.64755(19) -0.40720(13)
H1 H -0.7336 -0.6364 -0.4520
C5 C -0.8290(3) -0.3485(2) -0.27984(14)
H2 H -0.8498 -0.2779 -0.2849
C6 C -0.8666(3) -0.4008(3) -0.22624(15)
H3 H -0.9129 -0.3647 -0.1951
C7 C -0.6669(3) -0.45445(19) -0.41928(12)
C8 C -0.3075(4) -0.3601(3) -0.30245(19)
H4 H -0.2766 -0.2952 -0.3162
C9 C -0.4296(3) -0.5214(2) -0.32151(13)
C10 C -0.8364(3) -0.5057(3) -0.21845(14)
C11 C -0.8780(3) -0.6698(2) -0.38493(14)
C12 C -0.6931(3) -0.2628(2) -0.39957(15)
C13 C -0.5119(3) -0.58722(18) -0.36634(13)
H5 H -0.4636 -0.5883 -0.4062
C14 C -0.3805(3) -0.4248(2) -0.34175(15)
H6 H -0.3972 -0.4038 -0.3822
C15 C -0.4023(4) -0.5520(3) -0.26166(16)
H7 H -0.4344 -0.6163 -0.2473
C16 C -0.7690(3) -0.5606(2) -0.26544(13)
H8 H -0.7485 -0.6313 -0.2607
C17 C -0.3270(5) -0.4867(3) -0.22297(19)
H9 H -0.3078 -0.5080 -0.1828
C18 C -0.5651(4) -0.7816(3) -0.4409(2)
C19 C -0.4210(3) -0.7689(2) -0.3520(2)
H10 H -0.4331 -0.8278 -0.3242
H11 H -0.3340 -0.7340 -0.3420
C20 C -1.0968(4) -0.5915(4) -0.3709(2)
H12 H -1.1470 -0.6480 -0.3898
H13 H -1.1439 -0.5267 -0.3792
H14 H -1.0921 -0.6026 -0.3271
C21 C -0.2804(4) -0.3913(3) -0.2430(2)
H15 H -0.2307 -0.3479 -0.2164
C22 C -0.5963(5) -0.1523(3) -0.4808(2)
C23 C -0.4202(4) -0.8058(3) -0.4188(3)
H16 H -0.3511 -0.7681 -0.4428
H17 H -0.4010 -0.8802 -0.4214
C24 C -0.9437(6) -0.5136(4) -0.11969(18)
H18 H -1.0342 -0.4944 -0.1349
H19 H -0.8950 -0.4520 -0.1063
H20 H -0.9539 -0.5610 -0.0855
C25 C -0.7132(7) -0.0738(3) -0.4801(2)
H21 H -0.7919 -0.1015 -0.5021
H22 H -0.6828 -0.0102 -0.4996
H23 H -0.7396 -0.0594 -0.4382
C26 C -0.5562(6) -0.1827(4) -0.5463(2)
H24 H -0.4897 -0.2388 -0.5451
H25 H -0.5157 -0.1234 -0.5669
H26 H -0.6379 -0.2050 -0.5684
C27 C -0.4719(6) -0.1174(5) -0.4437(3)
H27 H -0.5005 -0.1024 -0.4021
H28 H -0.4328 -0.0556 -0.4620
H29 H -0.4032 -0.1720 -0.4433
H30? H -0.5819 -0.6982 -0.3053
loop_
_geom_bond_atom_site_label_1
_geom_bond_atom_site_label_2
_geom_bond_site_symmetry_1
_geom_bond_site_symmetry_2
O1 C12 1_555 1_555
O2 C11 1_555 1_555
O3 C7 1_555 1_555
N1 C2 1_555 1_555
N2 N3 1_555 1_555
O4 C11 1_555 1_555
O5 C10 1_555 1_555
N3 C13 1_555 1_555
O6 C12 1_555 1_555
O7 C18 1_555 1_555
C1 C3 1_555 1_555
C2 C3 1_555 1_555
C3 C16 1_555 1_555
C4 N2 1_555 1_555
H1 C4 1_555 1_555
C5 C2 1_555 1_555
H2 C5 1_555 1_555
C6 C5 1_555 1_555
H3 C6 1_555 1_555
C7 N1 1_555 1_555
C8 H4 1_555 1_555
C9 C13 1_555 1_555
C10 C6 1_555 1_555
C11 C4 1_555 1_555
C12 N1 1_555 1_555
C13 C1 1_555 1_555
H5 C13 1_555 1_555
C14 C8 1_555 1_555
H6 C14 1_555 1_555
C15 C9 1_555 1_555
H7 C15 1_555 1_555
C16 C10 1_555 1_555
H8 C16 1_555 1_555
C17 C15 1_555 1_555
H9 C17 1_555 1_555
C18 N2 1_555 1_555
C19 N3 1_555 1_555
H10 C19 1_555 1_555
H11 C19 1_555 1_555
C20 O2 1_555 1_555
H12 C20 1_555 1_555
H13 C20 1_555 1_555
H14 C20 1_555 1_555
C21 C8 1_555 1_555
H15 C21 1_555 1_555
C22 O1 1_555 1_555
C23 C18 1_555 1_555
H16 C23 1_555 1_555
H17 C23 1_555 1_555
C24 O5 1_555 1_555
H18 C24 1_555 1_555
H19 C24 1_555 1_555
H20 C24 1_555 1_555
C25 C22 1_555 1_555
H21 C25 1_555 1_555
H22 C25 1_555 1_555
H23 C25 1_555 1_555
C26 C22 1_555 1_555
H24 C26 1_555 1_555
H25 C26 1_555 1_555
H26 C26 1_555 1_555
C27 C22 1_555 1_555
H27 C27 1_555 1_555
H28 C27 1_555 1_555
H29 C27 1_555 1_555
C1 C4 1_555 1_555
C1 C7 1_555 1_555
C9 C14 1_555 1_555
C17 C21 1_555 1_555
C19 C23 1_555 1_555

#END
