
#######################################################################
#
#                 Cambridge Crystallographic Data Centre
#                                CCDC 
#
#######################################################################
#
# If this CIF has been generated from an entry in the Cambridge 
# Structural Database, then it will include bibliographic, chemical, 
# crystal, experimental, refinement or atomic coordinate data resulting 
# from the CCDC's data processing and validation procedures.
#
#######################################################################

data_VURMOK
_chemical_formula_moiety         'C36 H58 N8 4+,4(C1 F3 O3 S1 1-)'
_chemical_name_systematic        
'(4,11,17,29-Tetra-azonia-1,14,24,36-tetrazapentacyclo(12.12.12.2^6,9^.2^19,22^.2^31,34^)tetratetra onta-6,8,19,21,31,33,39,41,43-nonene) tetrakis(trifluoromethylsulfonate)'
_symmetry_cell_setting           monoclinic
_symmetry_space_group_name_H-M   'A 2/a'
_symmetry_Int_Tables_number      15
_space_group_name_Hall           '-A 2yn'
loop_
_symmetry_equiv_pos_site_id
_symmetry_equiv_pos_as_xyz
1 x,y,z
2 x,1/2+y,1/2+z
3 1/2-x,y,-z
4 1/2-x,1/2+y,1/2-z
5 -x,-y,-z
6 -x,1/2-y,1/2-z
7 1/2+x,-y,z
8 1/2+x,1/2-y,1/2+z
_cell_length_a                   18.185(16)
_cell_length_b                   11.928(10)
_cell_length_c                   25.634(17)
_cell_angle_alpha                90
_cell_angle_beta                 106.8(1)
_cell_angle_gamma                90
_cell_volume                     5322.97
_cell_formula_units_Z            4
loop_
_atom_site_label
_atom_site_type_symbol
_atom_site_fract_x
_atom_site_fract_y
_atom_site_fract_z
S1 S 0.2485(4) 0.5672(4) 0.6445(3)
O1 O 0.2545(7) 0.4695(8) 0.6156(4)
O2 O 0.3090(11) 0.5846(14) 0.6909(8)
O3 O 0.1718(17) 0.5803(23) 0.6468(12)
C1 C 0.2509(25) 0.6777(36) 0.6022(18)
F1 F 0.2036(15) 0.6763(24) 0.5546(11)
F2 F 0.2540(13) 0.7797(19) 0.6222(9)
F3 F 0.3193(13) 0.6827(19) 0.5934(8)
S2 S 0.4643(4) 0.5139(5) 0.1493(2)
O4 O 0.4787(12) 0.4364(16) 0.1135(8)
O5 O 0.3909(11) 0.5651(14) 0.1322(7)
O6 O 0.5245(15) 0.5862(19) 0.1677(10)
C2 C 0.4572(22) 0.4178(34) 0.2036(16)
F4 F 0.5269(12) 0.3790(15) 0.2277(8)
F5 F 0.3920(15) 0.3689(22) 0.1974(10)
F6 F 0.4437(11) 0.4913(16) 0.2424(7)
N1 N 0.2594(10) 0.2080(12) 0.3108(6)
C3 C 0.3064(14) 0.3016(20) 0.2948(10)
C4 C 0.3896(16) 0.3191(24) 0.3343(11)
N2 N 0.3807(9) 0.3267(10) 0.3899(5)
C5 C 0.4586(14) 0.3708(20) 0.4270(9)
C6 C 0.4549(10) 0.3654(12) 0.4870(6)
C7 C 0.4978(10) 0.3022(13) 0.5281(7)
C8 C 0.4967(14) 0.3091(17) 0.5796(9)
C9 C 0.4430(13) 0.3611(16) 0.5901(8)
C10 C 0.3897(16) 0.4246(22) 0.5493(11)
C11 C 0.3921(15) 0.4321(19) 0.4961(10)
C12 C 0.4355(13) 0.3564(17) 0.6458(9)
N3 N 0.3669(11) 0.2957(15) 0.6521(7)
C13 C 0.3645(15) 0.2918(21) 0.7135(10)
C14 C 0.1791(13) 0.1914(17) 0.2784(9)
C15 C 0.3034(13) 0.0932(17) 0.3144(9)
C16 C 0.3099(16) 0.0354(19) 0.3682(10)
N4 N 0.3739(9) 0.0969(11) 0.4110(6)
C17 C 0.3891(15) 0.0515(21) 0.4712(10)
C18 C 0.3195(10) 0.0429(12) 0.4849(7)
C19 C 0.2821(9) -0.0512(11) 0.4898(6)
C20 C 0.2859(8) 0.1486(9) 0.4945(5)
H1 H 0.3094(14) 0.2867(20) 0.2591(10)
H2 H 0.2796(14) 0.3700(20) 0.2948(10)
H3 H 0.4120(16) 0.3856(24) 0.3253(11)
H4 H 0.4207(16) 0.2565(24) 0.3318(11)
H5 H 0.3411 0.3788 0.3906
H6 H 0.4984(14) 0.3224(20) 0.4235(9)
H7 H 0.4682(14) 0.4447(20) 0.4168(9)
H8 H 0.5329(10) 0.2509(13) 0.5198(7)
H9 H 0.5350(14) 0.2725(17) 0.6077(9)
H10 H 0.3518(16) 0.4664(22) 0.5597(11)
H11 H 0.3561(15) 0.4736(19) 0.4687(10)
H12 H 0.4802(13) 0.3203(17) 0.6682(9)
H13 H 0.4335(13) 0.4311(17) 0.6582(9)
H14 H 0.3220(11) 0.3326(15) 0.6307(7)
H15 H 0.3681(11) 0.2213(15) 0.6391(7)
H16 H 0.3405(15) 0.3578(21) 0.7214(10)
H17 H 0.4154(15) 0.2872(21) 0.7373(10)
H18 H 0.1763(13) 0.1852(17) 0.2409(9)
H19 H 0.1586(13) 0.1256(17) 0.2897(9)
H20 H 0.3535(13) 0.1074(17) 0.3115(9)
H21 H 0.2764(13) 0.0460(17) 0.2854(9)
H22 H 0.3227(16) -0.0415(19) 0.3667(10)
H23 H 0.2628(16) 0.0416(19) 0.3770(10)
H24 H 0.4199 0.0909 0.4005
H25 H 0.4243(15) 0.0991(21) 0.4961(10)
H26 H 0.4101(15) -0.0218(21) 0.4730(10)
H27 H 0.3123(8) 0.2173(9) 0.4943(5)
H28 H 0.2985(9) -0.1205(11) 0.4787(6)
C14B C 0.3209(13) 0.1914(17) 0.7216(9)
C13B C 0.1355(15) 0.2918(21) 0.2865(10)
C19B C 0.2179(9) -0.0512(11) 0.5102(6)
C20B C 0.2141(8) 0.1486(9) 0.5055(5)
N1B N 0.2406(10) 0.2080(12) 0.6892(6)
H18B H 0.3237(13) 0.1852(17) 0.7591(9)
H19B H 0.3414(13) 0.1256(17) 0.7103(9)
N3B N 0.1331(11) 0.2957(15) 0.3479(7)
H16B H 0.1595(15) 0.3578(21) 0.2786(10)
H17B H 0.0846(15) 0.2872(21) 0.2627(10)
C18B C 0.1805(10) 0.0429(12) 0.5151(7)
H28B H 0.2015(9) -0.1205(11) 0.5213(6)
H27B H 0.1877(8) 0.2173(9) 0.5057(5)
C3B C 0.1936(14) 0.3016(20) 0.7052(10)
C15B C 0.1966(13) 0.0932(17) 0.6856(9)
C12B C 0.0645(13) 0.3564(17) 0.3542(9)
H14B H 0.1780(11) 0.3326(15) 0.3693(7)
H15B H 0.1319(11) 0.2213(15) 0.3609(7)
C17B C 0.1109(15) 0.0515(21) 0.5288(10)
C4B C 0.1104(16) 0.3191(24) 0.6657(11)
H1B H 0.1906(14) 0.2867(20) 0.7409(10)
H2B H 0.2204(14) 0.3700(20) 0.7052(10)
C16B C 0.1901(16) 0.0354(19) 0.6318(10)
H20B H 0.1465(13) 0.1074(17) 0.6885(9)
H21B H 0.2236(13) 0.0460(17) 0.7146(9)
C9B C 0.0570(13) 0.3611(16) 0.4099(8)
H12B H 0.0198(13) 0.3203(17) 0.3318(9)
H13B H 0.0665(13) 0.4311(17) 0.3418(9)
N4B N 0.1261(9) 0.0969(11) 0.5890(6)
H25B H 0.0757(15) 0.0991(21) 0.5039(10)
H26B H 0.0899(15) -0.0218(21) 0.5270(10)
N2B N 0.1193(9) 0.3267(10) 0.6101(5)
H3B H 0.0880(16) 0.3856(24) 0.6747(11)
H4B H 0.0793(16) 0.2565(24) 0.6682(11)
H22B H 0.1773(16) -0.0415(19) 0.6333(10)
H23B H 0.2372(16) 0.0416(19) 0.6230(10)
C8B C 0.0033(14) 0.3091(17) 0.4204(9)
C10B C 0.1103(16) 0.4246(22) 0.4507(11)
H24B H 0.0801 0.0909 0.5995
C5B C 0.0414(14) 0.3708(20) 0.5730(9)
H5B H 0.1589 0.3788 0.6094
C7B C 0.0022(10) 0.3022(13) 0.4719(7)
H9B H -0.0350(14) 0.2725(17) 0.3923(9)
C11B C 0.1079(15) 0.4321(19) 0.5039(10)
H10B H 0.1482(16) 0.4664(22) 0.4403(11)
C6B C 0.0451(10) 0.3654(12) 0.5130(6)
H6B H 0.0016(14) 0.3224(20) 0.5765(9)
H7B H 0.0318(14) 0.4447(20) 0.5832(9)
H8B H -0.0329(10) 0.2509(13) 0.4802(7)
H11B H 0.1439(15) 0.4736(19) 0.5313(10)
loop_
_geom_bond_atom_site_label_1
_geom_bond_atom_site_label_2
_geom_bond_site_symmetry_1
_geom_bond_site_symmetry_2
S1 O1 1_555 1_555
O2 S1 1_555 1_555
O3 S1 1_555 1_555
C1 S1 1_555 1_555
F1 C1 1_555 1_555
F2 C1 1_555 1_555
F3 C1 1_555 1_555
S2 O4 1_555 1_555
O5 S2 1_555 1_555
O6 S2 1_555 1_555
C2 S2 1_555 1_555
F4 C2 1_555 1_555
F5 C2 1_555 1_555
F6 C2 1_555 1_555
N1 C3 1_555 1_555
C3 C4 1_555 1_555
C4 N2 1_555 1_555
N2 C5 1_555 1_555
C5 C6 1_555 1_555
C6 C7 1_555 1_555
C7 C8 1_555 1_555
C8 C9 1_555 1_555
C9 C10 1_555 1_555
C10 C11 1_555 1_555
C11 C6 1_555 1_555
C12 C9 1_555 1_555
N3 C12 1_555 1_555
C13 N3 1_555 1_555
C14 N1 1_555 1_555
C15 N1 1_555 1_555
C16 C15 1_555 1_555
N4 C16 1_555 1_555
C17 N4 1_555 1_555
C18 C17 1_555 1_555
C19 C18 1_555 1_555
C20 C18 1_555 1_555
H1 C3 1_555 1_555
H2 C3 1_555 1_555
H3 C4 1_555 1_555
H4 C4 1_555 1_555
H5 N2 1_555 1_555
H6 C5 1_555 1_555
H7 C5 1_555 1_555
H8 C7 1_555 1_555
H9 C8 1_555 1_555
H10 C10 1_555 1_555
H11 C11 1_555 1_555
H12 C12 1_555 1_555
H13 C12 1_555 1_555
H14 N3 1_555 1_555
H15 N3 1_555 1_555
H16 C13 1_555 1_555
H17 C13 1_555 1_555
H18 C14 1_555 1_555
H19 C14 1_555 1_555
H20 C15 1_555 1_555
H21 C15 1_555 1_555
H22 C16 1_555 1_555
H23 C16 1_555 1_555
H24 N4 1_555 1_555
H25 C17 1_555 1_555
H26 C17 1_555 1_555
H27 C20 1_555 1_555
H28 C19 1_555 1_555
C14B C13 1_555 1_555
C13B C14 1_555 1_555
C19B C19 1_555 1_555
C20B C20 1_555 1_555
N1B C14B 1_555 1_555
H18B C14B 1_555 1_555
H19B C14B 1_555 1_555
N3B C13B 1_555 1_555
H16B C13B 1_555 1_555
H17B C13B 1_555 1_555
C18B C19B 1_555 1_555
H28B C19B 1_555 1_555
H27B C20B 1_555 1_555
C3B N1B 1_555 1_555
C15B N1B 1_555 1_555
C12B N3B 1_555 1_555
H14B N3B 1_555 1_555
H15B N3B 1_555 1_555
C17B C18B 1_555 1_555
C4B C3B 1_555 1_555
H1B C3B 1_555 1_555
H2B C3B 1_555 1_555
C16B C15B 1_555 1_555
H20B C15B 1_555 1_555
H21B C15B 1_555 1_555
C9B C12B 1_555 1_555
H12B C12B 1_555 1_555
H13B C12B 1_555 1_555
N4B C17B 1_555 1_555
H25B C17B 1_555 1_555
H26B C17B 1_555 1_555
N2B C4B 1_555 1_555
H3B C4B 1_555 1_555
H4B C4B 1_555 1_555
H22B C16B 1_555 1_555
H23B C16B 1_555 1_555
C8B C9B 1_555 1_555
C10B C9B 1_555 1_555
H24B N4B 1_555 1_555
C5B N2B 1_555 1_555
H5B N2B 1_555 1_555
C7B C8B 1_555 1_555
H9B C8B 1_555 1_555
C11B C10B 1_555 1_555
H10B C10B 1_555 1_555
C6B C5B 1_555 1_555
H6B C5B 1_555 1_555
H7B C5B 1_555 1_555
H8B C7B 1_555 1_555
H11B C11B 1_555 1_555
C20B C18B 1_555 1_555
C16B N4B 1_555 1_555
C7B C6B 1_555 1_555
C11B C6B 1_555 1_555

#END
