
#######################################################################
#
#                 Cambridge Crystallographic Data Centre
#                                CCDC 
#
#######################################################################
#
# If this CIF has been generated from an entry in the Cambridge 
# Structural Database, then it will include bibliographic, chemical, 
# crystal, experimental, refinement or atomic coordinate data resulting 
# from the CCDC's data processing and validation procedures.
#
#######################################################################

data_VURMEB
_chemical_formula_moiety         'C16 H27 N3'
_chemical_name_systematic        
1,1'-(1H-Pyrrole-2,5-diylbis(methylene))dipiperidine
_symmetry_cell_setting           monoclinic
_symmetry_space_group_name_H-M   'P 21/c'
_symmetry_Int_Tables_number      14
_space_group_name_Hall           '-P 2ybc'
loop_
_symmetry_equiv_pos_site_id
_symmetry_equiv_pos_as_xyz
1 x,y,z
2 -x,1/2+y,1/2-z
3 -x,-y,-z
4 x,1/2-y,1/2+z
_cell_length_a                   9.966(4)
_cell_length_b                   19.529(8)
_cell_length_c                   9.091(4)
_cell_angle_alpha                90
_cell_angle_beta                 116.775(6)
_cell_angle_gamma                90
_cell_volume                     1579.64
_exptl_crystal_colour            colorless
_exptl_crystal_description       block
_cell_formula_units_Z            4
loop_
_atom_site_label
_atom_site_type_symbol
_atom_site_fract_x
_atom_site_fract_y
_atom_site_fract_z
N1 N 0.5085(5) 0.6931(2) 0.9467(5)
H1 H 0.5601 0.7034 1.0490
N2 N 0.3154(5) 0.6065(2) 1.0803(5)
N3 N 0.7372(5) 0.7849(2) 0.8246(5)
C1 C 0.3629(6) 0.6730(3) 0.8750(7)
C2 C 0.3224(7) 0.6611(3) 0.7122(7)
H2 H 0.2288 0.6464 0.6333
C3 C 0.4484(7) 0.6753(3) 0.6858(6)
H3 H 0.4530 0.6720 0.5862
C4 C 0.5607(6) 0.6945(3) 0.8312(6)
C5 C 0.7195(6) 0.7158(3) 0.8748(7)
H4 H 0.7788 0.7122 0.9933
H5 H 0.7607 0.6836 0.8247
C6 C 0.2717(7) 0.6654(3) 0.9668(8)
H6 H 0.2814 0.7069 1.0295
H7 H 0.1668 0.6606 0.8880
C7 C 0.2826(8) 0.5424(3) 0.9879(8)
H8 H 0.3333 0.5420 0.9184
H9 H 0.1754 0.5390 0.9173
C8 C 0.3341(9) 0.4814(3) 1.1036(9)
H10 H 0.3094 0.4394 1.0399
H11 H 0.4423 0.4832 1.1693
C9 C 0.2593(9) 0.4815(4) 1.2155(9)
H12 H 0.1522 0.4739 1.1512
H13 H 0.3000 0.4448 1.2954
C10 C 0.2860(9) 0.5493(4) 1.3034(8)
H14 H 0.3918 0.5537 1.3795
H15 H 0.2295 0.5509 1.3667
C11 C 0.2389(8) 0.6089(3) 1.1829(8)
H16 H 0.1311 0.6072 1.1138
H17 H 0.2622 0.6517 1.2435
C12 C 0.8960(6) 0.7954(3) 0.8690(7)
H18 H 0.9278 0.7615 0.8131
H19 H 0.9549 0.7886 0.9867
C13 C 0.9266(7) 0.8660(4) 0.8240(8)
H20 H 0.8767 0.8713 0.7052
H21 H 1.0337 0.8717 0.8616
C14 C 0.8706(8) 0.9205(4) 0.9017(8)
H22 H 0.9305 0.9198 1.0204
H23 H 0.8810 0.9653 0.8620
C15 C 0.7093(8) 0.9077(3) 0.8590(7)
H24 H 0.6483 0.9146 0.7417
H25 H 0.6769 0.9404 0.9168
C16 C 0.6851(7) 0.8363(3) 0.9041(7)
H26 H 0.7388 0.8308 1.0227
H27 H 0.5789 0.8294 0.8710
loop_
_geom_bond_atom_site_label_1
_geom_bond_atom_site_label_2
_geom_bond_site_symmetry_1
_geom_bond_site_symmetry_2
N1 H1 1_555 1_555
N2 C6 1_555 1_555
N3 C5 1_555 1_555
C1 N1 1_555 1_555
C2 C1 1_555 1_555
H2 C2 1_555 1_555
C3 C2 1_555 1_555
H3 C3 1_555 1_555
C4 N1 1_555 1_555
C5 C4 1_555 1_555
H4 C5 1_555 1_555
H5 C5 1_555 1_555
C6 C1 1_555 1_555
H6 C6 1_555 1_555
H7 C6 1_555 1_555
C7 N2 1_555 1_555
H8 C7 1_555 1_555
H9 C7 1_555 1_555
C8 C7 1_555 1_555
H10 C8 1_555 1_555
H11 C8 1_555 1_555
C9 C8 1_555 1_555
H12 C9 1_555 1_555
H13 C9 1_555 1_555
C10 C9 1_555 1_555
H14 C10 1_555 1_555
H15 C10 1_555 1_555
C11 N2 1_555 1_555
H16 C11 1_555 1_555
H17 C11 1_555 1_555
C12 N3 1_555 1_555
H18 C12 1_555 1_555
H19 C12 1_555 1_555
C13 C12 1_555 1_555
H20 C13 1_555 1_555
H21 C13 1_555 1_555
C14 C13 1_555 1_555
H22 C14 1_555 1_555
H23 C14 1_555 1_555
C15 C14 1_555 1_555
H24 C15 1_555 1_555
H25 C15 1_555 1_555
C16 N3 1_555 1_555
H26 C16 1_555 1_555
H27 C16 1_555 1_555
C3 C4 1_555 1_555
C10 C11 1_555 1_555
C15 C16 1_555 1_555

#END
