
#######################################################################
#
#                 Cambridge Crystallographic Data Centre
#                                CCDC 
#
#######################################################################
#
# If this CIF has been generated from an entry in the Cambridge 
# Structural Database, then it will include bibliographic, chemical, 
# crystal, experimental, refinement or atomic coordinate data resulting 
# from the CCDC's data processing and validation procedures.
#
#######################################################################

data_VURTAD
_chemical_formula_moiety         'C18 H30 N2 O5'
_chemical_name_systematic        
"(3aR(3a\a,6a\a,2'S*))-1-((1,1-Dimethylethoxy)carbonyl)octahydro-\a-(2-methylpropyl)-6-oxopyrrolo(3,4-b)pyrrole-5-acetic acid methyl ester"
_symmetry_cell_setting           orthorhombic
_symmetry_space_group_name_H-M   'P n a b'
_symmetry_Int_Tables_number      60
_space_group_name_Hall           '-P 2bc 2n'
loop_
_symmetry_equiv_pos_site_id
_symmetry_equiv_pos_as_xyz
1 x,y,z
2 1/2-x,1/2+y,1/2+z
3 1/2+x,-y,z
4 -x,1/2-y,1/2+z
5 -x,-y,-z
6 1/2+x,1/2-y,1/2-z
7 1/2-x,y,-z
8 x,1/2+y,1/2-z
_cell_length_a                   12.305(2)
_cell_length_b                   16.932(4)
_cell_length_c                   19.315(3)
_cell_angle_alpha                90
_cell_angle_beta                 90
_cell_angle_gamma                90
_cell_volume                     4024.25
_exptl_crystal_colour            white
_cell_formula_units_Z            8
loop_
_atom_site_label
_atom_site_type_symbol
_atom_site_fract_x
_atom_site_fract_y
_atom_site_fract_z
N1 N 0.1620(6) 0.9440(4) 0.2934(4)
C1 C 0.0893(9) 0.9957(5) 0.3207(5)
O1 O 0.0102(5) 1.0250(4) 0.2904(4)
C2 C 0.1219(7) 1.0116(5) 0.3941(5)
N2 N 0.1277(6) 1.0956(4) 0.4131(4)
C3 C 0.0419(7) 1.1294(5) 0.4461(5)
O2 O -0.0417(5) 1.0988(3) 0.4617(4)
C4 C 0.2330(7) 1.1303(6) 0.3992(6)
C5 C 0.3065(8) 1.0616(6) 0.3830(7)
C6 C 0.2408(7) 0.9856(5) 0.3967(5)
C7 C 0.2494(8) 0.9239(5) 0.3398(5)
C8 C 0.1479(7) 0.9106(5) 0.2252(5)
C9 C 0.1194(11) 0.8210(6) 0.2331(6)
O3 O 0.1896(7) 0.7733(4) 0.2441(6)
O4 O 0.0192(6) 0.8060(4) 0.2280(5)
C10 C -0.0145(11) 0.7247(6) 0.2372(8)
C11 C 0.2415(8) 0.9233(5) 0.1765(5)
C12 C 0.2754(9) 1.0087(6) 0.1628(6)
C13 C 0.3757(10) 1.0124(8) 0.1209(8)
C14 C 0.1842(11) 1.0579(8) 0.1376(9)
O5 O 0.0698(5) 1.2059(4) 0.4619(4)
C15 C -0.0096(9) 1.2565(5) 0.4981(6)
C16 C 0.0558(12) 1.3336(7) 0.5021(10)
C17 C -0.1074(9) 1.2676(7) 0.4573(7)
C18 C -0.0298(14) 1.2243(7) 0.5687(6)
H1 H 0.0699 0.9862 0.4237
H2 H 0.2298 1.1656 0.3604
H3 H 0.2597 1.1586 0.4390
H4 H 0.3288 1.0634 0.3354
H5 H 0.3694 1.0630 0.4123
H6 H 0.2669 0.9632 0.4392
H7 H 0.2398 0.8717 0.3583
H8 H 0.3183 0.9270 0.3167
H9 H 0.0891 0.9383 0.2033
H10 H -0.0912 0.7187 0.2300
H11 H 0.0049 0.7032 0.2815
H12 H 0.0242 0.6971 0.2015
H13 H 0.3032 0.8965 0.1957
H14 H 0.2228 0.9000 0.1328
H15 H 0.2932 1.0320 0.2066
H16 H 0.4117 1.0617 0.1122
H17 H 0.3341 0.9975 0.0809
H18 H 0.4288 0.9723 0.1305
H19 H 0.1088 1.0708 0.1433
H20 H 0.1947 1.0321 0.0938
H21 H 0.2268 1.1053 0.1391
H22 H 0.0110 1.3668 0.5305
H23 H 0.0648 1.3574 0.4574
H24 H 0.1255 1.3272 0.5237
H25 H -0.1485 1.3077 0.4807
H26 H -0.1497 1.2200 0.4548
H27 H -0.0900 1.2851 0.4114
H28 H -0.0660 1.2583 0.6010
H29 H 0.0389 1.2081 0.5876
H30 H -0.0739 1.1785 0.5601
loop_
_geom_bond_atom_site_label_1
_geom_bond_atom_site_label_2
_geom_bond_site_symmetry_1
_geom_bond_site_symmetry_2
N1 C1 1_555 1_555
C1 O1 1_555 1_555
C2 C1 1_555 1_555
N2 C2 1_555 1_555
C3 N2 1_555 1_555
O2 C3 1_555 1_555
C4 N2 1_555 1_555
C5 C4 1_555 1_555
C6 C2 1_555 1_555
C7 N1 1_555 1_555
C8 N1 1_555 1_555
C9 C8 1_555 1_555
O3 C9 1_555 1_555
O4 C9 1_555 1_555
C10 O4 1_555 1_555
C11 C8 1_555 1_555
C12 C11 1_555 1_555
C13 C12 1_555 1_555
C14 C12 1_555 1_555
O5 C3 1_555 1_555
C15 O5 1_555 1_555
C16 C15 1_555 1_555
C17 C15 1_555 1_555
C18 C15 1_555 1_555
H1 C2 1_555 1_555
H2 C4 1_555 1_555
H3 C4 1_555 1_555
H4 C5 1_555 1_555
H5 C5 1_555 1_555
H6 C6 1_555 1_555
H7 C7 1_555 1_555
H8 C7 1_555 1_555
H9 C8 1_555 1_555
H10 C10 1_555 1_555
H11 C10 1_555 1_555
H12 C10 1_555 1_555
H13 C11 1_555 1_555
H14 C11 1_555 1_555
H15 C12 1_555 1_555
H16 C13 1_555 1_555
H17 C13 1_555 1_555
H18 C13 1_555 1_555
H19 C14 1_555 1_555
H20 C14 1_555 1_555
H21 C14 1_555 1_555
H22 C16 1_555 1_555
H23 C16 1_555 1_555
H24 C16 1_555 1_555
H25 C17 1_555 1_555
H26 C17 1_555 1_555
H27 C17 1_555 1_555
H28 C18 1_555 1_555
H29 C18 1_555 1_555
H30 C18 1_555 1_555
C5 C6 1_555 1_555
C6 C7 1_555 1_555

#END
