
#######################################################################
#
#                 Cambridge Crystallographic Data Centre
#                                CCDC 
#
#######################################################################
#
# If this CIF has been generated from an entry in the Cambridge 
# Structural Database, then it will include bibliographic, chemical, 
# crystal, experimental, refinement or atomic coordinate data resulting 
# from the CCDC's data processing and validation procedures.
#
#######################################################################

data_VURXOX
_chemical_formula_moiety         'C18 H19 N1 O4'
_chemical_name_systematic        
'(E)-Dimethyl 4-(but-1-en-1-yl)-5-phenyl-1H-pyrrole-2,3-dicarboxylate'
_symmetry_cell_setting           triclinic
_symmetry_space_group_name_H-M   'P -1'
_symmetry_Int_Tables_number      2
_space_group_name_Hall           '-P 1'
loop_
_symmetry_equiv_pos_site_id
_symmetry_equiv_pos_as_xyz
1 x,y,z
2 -x,-y,-z
_cell_length_a                   7.7634(11)
_cell_length_b                   12.5816(16)
_cell_length_c                   17.744(2)
_cell_angle_alpha                74.284(3)
_cell_angle_beta                 88.867(3)
_cell_angle_gamma                82.156(3)
_cell_volume                     1652.49
_exptl_crystal_colour            colorless
_exptl_crystal_description       prismatic
_cell_formula_units_Z            4
loop_
_atom_site_label
_atom_site_type_symbol
_atom_site_fract_x
_atom_site_fract_y
_atom_site_fract_z
N1 N 0.2385(2) 0.39590(14) 0.21335(10)
O1 O 0.2214(2) 0.51593(12) 0.32639(8)
O2 O 0.2234(2) 0.67231(12) 0.23075(9)
O3 O 0.3704(2) 0.71232(13) 0.06891(9)
O4 O 0.10557(19) 0.70995(12) 0.02637(9)
C1 C 0.2357(3) 0.50841(16) 0.19578(11)
C2 C 0.2383(2) 0.54820(16) 0.11518(11)
C3 C 0.2405(2) 0.45666(16) 0.08338(11)
C4 C 0.2445(2) 0.36229(16) 0.14663(11)
C5 C 0.2611(3) 0.24501(16) 0.14705(11)
C6 C 0.3566(3) 0.20820(18) 0.08931(13)
H1 H 0.4091 0.2587 0.0506
C7 C 0.3740(3) 0.09807(19) 0.08909(14)
H2 H 0.4383 0.0747 0.0503
C8 C 0.2973(3) 0.02228(19) 0.14565(14)
H3 H 0.3088 -0.0521 0.1451
C9 C 0.2029(3) 0.05724(18) 0.20334(14)
H4 H 0.1508 0.0062 0.2418
C10 C 0.1857(3) 0.16674(16) 0.20416(12)
H5 H 0.1224 0.1891 0.2436
C11 C 0.2292(3) 0.45930(17) 0.00050(11)
H6 H 0.1635 0.4095 -0.0117
C12 C 0.3016(3) 0.52412(18) -0.05782(12)
H7 H 0.3748 0.5701 -0.0458
C13 C 0.2769(3) 0.5308(2) -0.14247(12)
H8 H 0.3823 0.4964 -0.1614
H9 H 0.1834 0.4894 -0.1479
C14 C 0.2352(4) 0.6474(3) -0.19063(16)
H10 H 0.1414 0.6849 -0.1674
H11 H 0.2014 0.6480 -0.2425
H12 H 0.3357 0.6849 -0.1932
C15 C 0.2265(3) 0.56355(16) 0.25786(11)
C16 C 0.2207(4) 0.73420(19) 0.28767(16)
H13 H 0.1121 0.7316 0.3145
H14 H 0.2335 0.8103 0.2619
H15 H 0.3147 0.7023 0.3247
C17 C 0.2477(3) 0.66517(16) 0.06984(11)
C18 C 0.1151(4) 0.8171(2) -0.02729(16)
H16 H 0.1398 0.8683 0.0012
H17 H 0.0060 0.8441 -0.0550
H18 H 0.2058 0.8106 -0.0640
H19 H 0.242(2) 0.3527(16) 0.2596(12)
N2 N 0.2545(2) 0.36656(14) 0.48820(10)
O5 O 0.2389(3) 0.24295(12) 0.37604(8)
O6 O 0.2106(3) 0.09422(12) 0.47540(9)
O7 O 0.0820(2) 0.07713(12) 0.65649(9)
O8 O 0.3668(2) 0.03220(12) 0.64725(10)
C19 C 0.2459(3) 0.25562(16) 0.50611(11)
C20 C 0.2460(3) 0.21596(15) 0.58658(11)
C21 C 0.2551(3) 0.30664(16) 0.61806(11)
C22 C 0.2611(3) 0.39979(16) 0.55436(11)
C23 C 0.2726(3) 0.51518(16) 0.55334(11)
C24 C 0.3640(3) 0.53840(18) 0.61196(13)
H20 H 0.4171 0.4801 0.6523
C25 C 0.3771(3) 0.64651(19) 0.61107(14)
H21 H 0.4387 0.6610 0.6508
C26 C 0.2995(3) 0.73324(19) 0.55172(15)
H22 H 0.3084 0.8064 0.5511
C27 C 0.2086(3) 0.71127(18) 0.49333(14)
H23 H 0.1565 0.7699 0.4529
C28 C 0.1940(3) 0.60324(17) 0.49420(13)
H24 H 0.1308 0.5893 0.4547
C29 C 0.2436(3) 0.30436(17) 0.70077(12)
H25 H 0.1879 0.3678 0.7128
C30 C 0.3058(3) 0.21976(19) 0.75973(12)
H26 H 0.3742 0.1606 0.7471
C31 C 0.2778(4) 0.2094(2) 0.84449(13)
H27 H 0.2071 0.2762 0.8506
H28 H 0.3890 0.2026 0.8705
C32 C 0.1897(5) 0.1100(3) 0.88227(16)
H29 H 0.0752 0.1198 0.8598
H30 H 0.1811 0.1024 0.9375
H31 H 0.2561 0.0443 0.8738
C33 C 0.2323(3) 0.19990(17) 0.44508(12)
C34 C 0.1880(5) 0.0310(2) 0.42115(16)
H32 H 0.1028 0.0725 0.3820
H33 H 0.1496 -0.0383 0.4485
H34 H 0.2967 0.0164 0.3966
C35 C 0.2189(3) 0.10222(16) 0.63291(11)
C36 C 0.3529(4) -0.0780(2) 0.69609(18)
H35 H 0.3177 -0.0738 0.7475
H36 H 0.4636 -0.1237 0.6996
H37 H 0.2680 -0.1100 0.6738
H38 H 0.257(3) 0.4109(18) 0.4408(13)
loop_
_geom_bond_atom_site_label_1
_geom_bond_atom_site_label_2
_geom_bond_site_symmetry_1
_geom_bond_site_symmetry_2
N1 C1 1_555 1_555
O1 C15 1_555 1_555
O2 C15 1_555 1_555
O3 C17 1_555 1_555
O4 C17 1_555 1_555
C1 C2 1_555 1_555
C2 C3 1_555 1_555
C3 C4 1_555 1_555
C4 N1 1_555 1_555
C5 C4 1_555 1_555
C6 C5 1_555 1_555
H1 C6 1_555 1_555
C7 C6 1_555 1_555
H2 C7 1_555 1_555
C8 C7 1_555 1_555
H3 C8 1_555 1_555
C9 C8 1_555 1_555
H4 C9 1_555 1_555
C10 C5 1_555 1_555
H5 C10 1_555 1_555
C11 C3 1_555 1_555
H6 C11 1_555 1_555
C12 C11 1_555 1_555
H7 C12 1_555 1_555
C13 C12 1_555 1_555
H8 C13 1_555 1_555
H9 C13 1_555 1_555
C14 C13 1_555 1_555
H10 C14 1_555 1_555
H11 C14 1_555 1_555
H12 C14 1_555 1_555
C15 C1 1_555 1_555
C16 O2 1_555 1_555
H13 C16 1_555 1_555
H14 C16 1_555 1_555
H15 C16 1_555 1_555
C17 C2 1_555 1_555
C18 O4 1_555 1_555
H16 C18 1_555 1_555
H17 C18 1_555 1_555
H18 C18 1_555 1_555
H19 N1 1_555 1_555
N2 C19 1_555 1_555
O5 C33 1_555 1_555
O6 C33 1_555 1_555
O7 C35 1_555 1_555
O8 C35 1_555 1_555
C19 C20 1_555 1_555
C20 C21 1_555 1_555
C21 C22 1_555 1_555
C22 N2 1_555 1_555
C23 C22 1_555 1_555
C24 C23 1_555 1_555
H20 C24 1_555 1_555
C25 C24 1_555 1_555
H21 C25 1_555 1_555
C26 C25 1_555 1_555
H22 C26 1_555 1_555
C27 C26 1_555 1_555
H23 C27 1_555 1_555
C28 C23 1_555 1_555
H24 C28 1_555 1_555
C29 C21 1_555 1_555
H25 C29 1_555 1_555
C30 C29 1_555 1_555
H26 C30 1_555 1_555
C31 C30 1_555 1_555
H27 C31 1_555 1_555
H28 C31 1_555 1_555
C32 C31 1_555 1_555
H29 C32 1_555 1_555
H30 C32 1_555 1_555
H31 C32 1_555 1_555
C33 C19 1_555 1_555
C34 O6 1_555 1_555
H32 C34 1_555 1_555
H33 C34 1_555 1_555
H34 C34 1_555 1_555
C35 C20 1_555 1_555
C36 O8 1_555 1_555
H35 C36 1_555 1_555
H36 C36 1_555 1_555
H37 C36 1_555 1_555
H38 N2 1_555 1_555
C9 C10 1_555 1_555
C27 C28 1_555 1_555

#END
