
#######################################################################
#
#                 Cambridge Crystallographic Data Centre
#                                CCDC 
#
#######################################################################
#
# If this CIF has been generated from an entry in the Cambridge 
# Structural Database, then it will include bibliographic, chemical, 
# crystal, experimental, refinement or atomic coordinate data resulting 
# from the CCDC's data processing and validation procedures.
#
#######################################################################

data_VURXIR
_chemical_formula_moiety         'C27 H22 F3 N1 O4 S1'
_chemical_name_systematic        
'Methyl 5-phenyl-4-(phenyl(p-tosyl)methyl)-2-(trifluoromethyl)-1H-pyrrole-3-carboxylate'
_symmetry_cell_setting           orthorhombic
_symmetry_space_group_name_H-M   'P 21 21 21'
_symmetry_Int_Tables_number      19
_space_group_name_Hall           'P 2ac 2ab'
loop_
_symmetry_equiv_pos_site_id
_symmetry_equiv_pos_as_xyz
1 x,y,z
2 1/2-x,-y,1/2+z
3 -x,1/2+y,1/2-z
4 1/2+x,1/2-y,-z
_cell_length_a                   8.8259(13)
_cell_length_b                   14.640(2)
_cell_length_c                   19.755(3)
_cell_angle_alpha                90
_cell_angle_beta                 90
_cell_angle_gamma                90
_cell_volume                     2552.57
_exptl_crystal_colour            colorless
_exptl_crystal_description       bulk
_cell_formula_units_Z            4
loop_
_atom_site_label
_atom_site_type_symbol
_atom_site_fract_x
_atom_site_fract_y
_atom_site_fract_z
S1 S 0.82404(7) 0.54194(4) 0.23947(3)
N1 N 1.0850(2) 0.30408(13) 0.33013(9)
H1 H 1.1134 0.2488 0.3226
C1 C 1.0347(3) 0.45107(16) 0.31457(11)
F1 F 1.0799(2) 0.30660(12) 0.50411(7)
F2 F 1.0894(2) 0.19354(12) 0.43551(8)
C2 C 1.0049(3) 0.54307(16) 0.28374(11)
H2 H 0.9912 0.5848 0.3220
O1 O 0.8188(2) 0.46680(12) 0.19306(8)
F3 F 0.87640(19) 0.25000(12) 0.46466(8)
O2 O 0.7995(2) 0.63290(12) 0.21439(9)
O3 O 0.8635(2) 0.44639(13) 0.48234(8)
C3 C 1.0291(3) 0.33516(16) 0.39011(10)
O4 O 0.9741(3) 0.56989(13) 0.43794(9)
C4 C 0.9448(3) 0.48987(18) 0.43573(11)
C5 C 0.6413(3) 0.43526(18) 0.31823(15)
H3 H 0.6738 0.3859 0.2923
C6 C 1.1317(3) 0.58430(16) 0.24132(13)
C7 C 1.0897(3) 0.37275(16) 0.28366(11)
C8 C 0.9972(2) 0.42646(16) 0.38274(11)
C9 C 1.1543(3) 0.35439(16) 0.21557(12)
C10 C 1.0174(3) 0.27165(18) 0.44841(11)
C11 C 0.8141(4) 0.4981(3) 0.54077(14)
H4 H 0.7565 0.4593 0.5703
H5 H 0.7522 0.5483 0.5262
H6 H 0.9010 0.5211 0.5646
C12 C 0.4890(3) 0.4943(2) 0.40997(15)
C13 C 0.6934(3) 0.52233(16) 0.30500(12)
C14 C 1.0675(4) 0.3176(2) 0.16441(13)
H7 H 0.9662 0.3035 0.1719
C15 C 1.2381(3) 0.63718(19) 0.27391(15)
H8 H 1.2275 0.6490 0.3199
C16 C 1.2722(4) 0.6039(2) 0.13852(16)
H9 H 1.2835 0.5925 0.0925
C17 C 0.6463(3) 0.59504(18) 0.34432(15)
H10 H 0.6823 0.6536 0.3357
C18 C 0.5390(4) 0.4228(2) 0.37131(16)
H11 H 0.5038 0.3643 0.3807
C19 C 1.1497(3) 0.56876(18) 0.17251(13)
H12 H 1.0782 0.5342 0.1492
C20 C 1.2857(8) 0.3241(3) 0.0912(2)
H13 H 1.3298 0.3159 0.0489
C21 C 1.3602(4) 0.6730(2) 0.2392(2)
H14 H 1.4308 0.7090 0.2618
C22 C 1.3775(4) 0.6556(2) 0.17170(19)
H15 H 1.4606 0.6788 0.1484
C23 C 1.3060(4) 0.3729(2) 0.20413(17)
H16 H 1.3653 0.3962 0.2390
C24 C 0.5459(3) 0.5800(2) 0.39622(15)
H17 H 0.5154 0.6291 0.4229
C25 C 0.3779(4) 0.4790(3) 0.46666(18)
H18 H 0.3515 0.4155 0.4687
H19 H 0.2883 0.5146 0.4586
H20 H 0.4229 0.4972 0.5088
C26 C 1.1337(7) 0.3015(3) 0.10061(17)
H21 H 1.0772 0.2763 0.0655
C27 C 1.3693(6) 0.3575(3) 0.1424(2)
H22 H 1.4714 0.3702 0.1356
H23? H 0.7369 0.4666 0.1734
H24? H 0.7189 0.6348 0.1938
loop_
_geom_bond_atom_site_label_1
_geom_bond_atom_site_label_2
_geom_bond_site_symmetry_1
_geom_bond_site_symmetry_2
S1 C2 1_555 1_555
N1 H1 1_555 1_555
C1 C2 1_555 1_555
F1 C10 1_555 1_555
F2 C10 1_555 1_555
C2 H2 1_555 1_555
O1 S1 1_555 1_555
F3 C10 1_555 1_555
O2 S1 1_555 1_555
O3 C4 1_555 1_555
C3 N1 1_555 1_555
O4 C4 1_555 1_555
C4 C8 1_555 1_555
C5 H3 1_555 1_555
C6 C2 1_555 1_555
C7 N1 1_555 1_555
C8 C1 1_555 1_555
C9 C7 1_555 1_555
C10 C3 1_555 1_555
C11 O3 1_555 1_555
H4 C11 1_555 1_555
H5 C11 1_555 1_555
H6 C11 1_555 1_555
C12 C18 1_555 1_555
C13 S1 1_555 1_555
C14 C9 1_555 1_555
H7 C14 1_555 1_555
C15 C6 1_555 1_555
H8 C15 1_555 1_555
C16 H9 1_555 1_555
C17 C13 1_555 1_555
H10 C17 1_555 1_555
C18 C5 1_555 1_555
H11 C18 1_555 1_555
C19 C6 1_555 1_555
H12 C19 1_555 1_555
C20 H13 1_555 1_555
C21 C15 1_555 1_555
H14 C21 1_555 1_555
C22 C16 1_555 1_555
H15 C22 1_555 1_555
C23 C9 1_555 1_555
H16 C23 1_555 1_555
C24 C12 1_555 1_555
H17 C24 1_555 1_555
C25 C12 1_555 1_555
H18 C25 1_555 1_555
H19 C25 1_555 1_555
H20 C25 1_555 1_555
C26 C14 1_555 1_555
H21 C26 1_555 1_555
C27 C20 1_555 1_555
H22 C27 1_555 1_555
C1 C7 1_555 1_555
C3 C8 1_555 1_555
C5 C13 1_555 1_555
C16 C19 1_555 1_555
C17 C24 1_555 1_555
C20 C26 1_555 1_555
C21 C22 1_555 1_555
C23 C27 1_555 1_555

#END
