
#######################################################################
#
#                 Cambridge Crystallographic Data Centre
#                                CCDC 
#
#######################################################################
#
# If this CIF has been generated from an entry in the Cambridge 
# Structural Database, then it will include bibliographic, chemical, 
# crystal, experimental, refinement or atomic coordinate data resulting 
# from the CCDC's data processing and validation procedures.
#
#######################################################################

data_VURZIS
_chemical_formula_moiety         'C17 H12 Cl1 F1 O5'
_chemical_name_systematic        
'Ethyl 4-(2-chloro-4-fluorophenyl)-6-hydroxy-3-oxo-1,3-dihydro-2-benzofuran-5-carboxylate'
_symmetry_cell_setting           monoclinic
_symmetry_space_group_name_H-M   'P 21/c'
_symmetry_Int_Tables_number      14
_space_group_name_Hall           '-P 2ybc'
loop_
_symmetry_equiv_pos_site_id
_symmetry_equiv_pos_as_xyz
1 x,y,z
2 -x,1/2+y,1/2-z
3 -x,-y,-z
4 x,1/2-y,1/2+z
_cell_length_a                   7.693(1)
_cell_length_b                   15.767(1)
_cell_length_c                   12.986(1)
_cell_angle_alpha                90
_cell_angle_beta                 97.23(1)
_cell_angle_gamma                90
_cell_volume                     1562.62
_exptl_crystal_colour            colorless
_exptl_crystal_description       block
_cell_formula_units_Z            4
loop_
_atom_site_label
_atom_site_type_symbol
_atom_site_fract_x
_atom_site_fract_y
_atom_site_fract_z
Cl1 Cl 0.18099(12) 0.73954(7) 0.24581(7)
O1 O 0.2680(3) 0.55824(13) 0.59031(14)
H1 H 0.1797 0.5421 0.5535
O2 O 0.8669(2) 0.74491(15) 0.46501(15)
O3 O 0.7729(3) 0.74503(17) 0.29572(16)
O4 O 0.0656(3) 0.5348(2) 0.41527(18)
O5 O 0.2016(2) 0.51885(14) 0.27820(14)
F1 F 0.4242(4) 0.63324(16) -0.07017(13)
C1 C 0.3799(3) 0.59256(16) 0.53063(18)
C2 C 0.5301(3) 0.62862(16) 0.58297(17)
H2 H 0.5519 0.6269 0.6550
C3 C 0.6445(3) 0.66657(16) 0.52565(17)
C4 C 0.6154(3) 0.66965(15) 0.41801(16)
C5 C 0.4702(3) 0.63092(14) 0.36294(16)
C6 C 0.3504(3) 0.59138(15) 0.42051(17)
C7 C 0.8122(3) 0.7124(2) 0.5592(2)
H3 H 0.7937 0.7582 0.6064
H4 H 0.8995 0.6739 0.5935
C8 C 0.7531(3) 0.7215(2) 0.3810(2)
C9 C 0.4522(3) 0.63218(15) 0.24702(17)
C10 C 0.3290(3) 0.68036(17) 0.18697(19)
C11 C 0.3172(4) 0.68088(19) 0.0786(2)
H5 H 0.2330 0.7130 0.0384
C12 C 0.4334(5) 0.6328(2) 0.0348(2)
C13 C 0.5580(5) 0.5845(2) 0.0899(2)
H6 H 0.6360 0.5526 0.0567
C14 C 0.5662(3) 0.5841(2) 0.19711(19)
H7 H 0.6499 0.5508 0.2361
C15 C 0.1912(3) 0.54680(18) 0.37145(19)
C16 C 0.0498(5) 0.4765(4) 0.2234(3)
H8 H 0.0243 0.4259 0.2614
H9 H -0.0510 0.5138 0.2203
C17 C 0.0765(8) 0.4547(4) 0.1264(4)
H10 H -0.0282 0.4297 0.0911
H11 H 0.1708 0.4146 0.1294
H12 H 0.1061 0.5044 0.0895
loop_
_geom_bond_atom_site_label_1
_geom_bond_atom_site_label_2
_geom_bond_site_symmetry_1
_geom_bond_site_symmetry_2
Cl1 C10 1_555 1_555
O1 H1 1_555 1_555
O2 C7 1_555 1_555
O3 C8 1_555 1_555
O4 C15 1_555 1_555
O5 C15 1_555 1_555
F1 C12 1_555 1_555
C1 O1 1_555 1_555
C2 C1 1_555 1_555
H2 C2 1_555 1_555
C3 C2 1_555 1_555
C4 C3 1_555 1_555
C5 C4 1_555 1_555
C6 C1 1_555 1_555
C7 C3 1_555 1_555
H3 C7 1_555 1_555
H4 C7 1_555 1_555
C8 O2 1_555 1_555
C9 C5 1_555 1_555
C10 C9 1_555 1_555
C11 C10 1_555 1_555
H5 C11 1_555 1_555
C12 C11 1_555 1_555
C13 C12 1_555 1_555
H6 C13 1_555 1_555
C14 C9 1_555 1_555
H7 C14 1_555 1_555
C15 C6 1_555 1_555
C16 O5 1_555 1_555
H8 C16 1_555 1_555
H9 C16 1_555 1_555
C17 C16 1_555 1_555
H10 C17 1_555 1_555
H11 C17 1_555 1_555
H12 C17 1_555 1_555
C4 C8 1_555 1_555
C5 C6 1_555 1_555
C13 C14 1_555 1_555

#END
