
#######################################################################
#
#                 Cambridge Crystallographic Data Centre
#                                CCDC 
#
#######################################################################
#
# If this CIF has been generated from an entry in the Cambridge 
# Structural Database, then it will include bibliographic, chemical, 
# crystal, experimental, refinement or atomic coordinate data resulting 
# from the CCDC's data processing and validation procedures.
#
#######################################################################

data_VUSJOI
_chemical_formula_moiety         'C30 H38 B2 O4'
_chemical_name_systematic        
bis((\m~2~-Benzoato-O,O')-(9-borabicyclo(3.3.1)nona-9,9-diyl))
_symmetry_cell_setting           triclinic
_symmetry_space_group_name_H-M   'P -1'
_symmetry_Int_Tables_number      2
_space_group_name_Hall           '-P 1'
loop_
_symmetry_equiv_pos_site_id
_symmetry_equiv_pos_as_xyz
1 x,y,z
2 -x,-y,-z
_cell_length_a                   6.505(2)
_cell_length_b                   9.196(3)
_cell_length_c                   11.823(5)
_cell_angle_alpha                111.02(3)
_cell_angle_beta                 102.33(3)
_cell_angle_gamma                90.60(3)
_cell_volume                     642.013
_cell_formula_units_Z            1
loop_
_atom_site_label
_atom_site_type_symbol
_atom_site_fract_x
_atom_site_fract_y
_atom_site_fract_z
B1 B 0.29422(30) -0.14002(22) 0.90712(17)
O1 O 0.32297(17) 0.00824(13) 0.87530(10)
O2 O 0.33065(17) -0.08880(13) 1.05103(10)
C1 C 0.49429(26) 0.06955(18) 0.87010(15)
C2 C 0.30045(16) 0.11611(16) 0.68359(11)
C3 C 0.29650(16) 0.16739(16) 0.58556(11)
C4 C 0.48378(16) 0.22485(16) 0.57022(11)
C5 C 0.67502(16) 0.23101(16) 0.65291(11)
C6 C 0.67897(16) 0.17973(16) 0.75094(11)
C7 C 0.49169(16) 0.12227(16) 0.76628(11)
H1 H 0.17157(16) 0.07657(16) 0.69414(11)
H2 H 0.16489(16) 0.16315(16) 0.52865(11)
H3 H 0.48106(16) 0.26014(16) 0.50276(11)
H4 H 0.80390(16) 0.27055(16) 0.64236(11)
H5 H 0.81058(16) 0.18397(16) 0.80785(11)
C8 C 0.05578(25) -0.21299(20) 0.84667(16)
H6 H -0.03381(25) -0.13443(20) 0.88033(16)
C9 C 0.01329(29) -0.25642(25) 0.70478(18)
H7 H 0.01053(29) -0.16238(25) 0.68700(18)
H8 H -0.12455(29) -0.31255(25) 0.66852(18)
C10 C 0.17188(31) -0.35639(26) 0.64092(18)
H9 H 0.15662(31) -0.35386(26) 0.55909(18)
H10 H 0.13809(31) -0.46273(26) 0.63115(18)
C11 C 0.40382(29) -0.30997(23) 0.71132(17)
H11 H 0.45210(29) -0.22149(23) 0.69574(17)
H12 H 0.48581(29) -0.39410(23) 0.67734(17)
C12 C 0.44669(25) -0.26793(19) 0.85293(15)
H13 H 0.58991(25) -0.22234(19) 0.89002(15)
C13 C 0.01909(27) -0.35314(22) 0.88348(19)
H14 H -0.12063(27) -0.40297(22) 0.84041(19)
H15 H 0.02480(27) -0.31522(22) 0.97117(19)
C14 C 0.17861(29) -0.47500(22) 0.85760(21)
H16 H 0.14101(29) -0.53764(22) 0.77019(21)
H17 H 0.16682(29) -0.54287(22) 0.90196(21)
C15 C 0.40948(26) -0.40803(20) 0.88969(17)
H18 H 0.46169(26) -0.37731(20) 0.97807(17)
H19 H 0.49111(26) -0.48908(20) 0.85000(17)
O2A O 0.66935(17) 0.08880(13) 0.94897(10)
B1A B 0.70578(30) 0.14002(22) 1.09288(17)
O1A O 0.67703(17) -0.00824(13) 1.12470(10)
C1A C 0.50571(26) -0.06955(18) 1.12990(15)
C7A C 0.50831(16) -0.12227(16) 1.23372(11)
C2A C 0.69955(16) -0.11611(16) 1.31641(11)
C3A C 0.70350(16) -0.16739(16) 1.41444(11)
C4A C 0.51622(16) -0.22485(16) 1.42978(11)
C5A C 0.32498(16) -0.23101(16) 1.34709(11)
C6A C 0.32103(16) -0.17973(16) 1.24906(11)
H5A H 0.18942(16) -0.18397(16) 1.19215(11)
H4A H 0.19610(16) -0.27055(16) 1.35764(11)
H3A H 0.51894(16) -0.26014(16) 1.49724(11)
H2A H 0.83511(16) -0.16315(16) 1.47135(11)
H1A H 0.82843(16) -0.07657(16) 1.30586(11)
C8A C 0.94422(25) 0.21299(20) 1.15333(16)
H6A H 1.03381(25) 0.13443(20) 1.11967(16)
C9A C 0.98671(29) 0.25642(25) 1.29522(18)
H7A H 0.98947(29) 0.16238(25) 1.31300(18)
H8A H 1.12455(29) 0.31255(25) 1.33148(18)
C10A C 0.82812(31) 0.35639(26) 1.35908(18)
H9A H 0.84338(31) 0.35386(26) 1.44091(18)
H10A H 0.86191(31) 0.46273(26) 1.36885(18)
C11A C 0.59618(29) 0.30997(23) 1.28868(17)
H11A H 0.54790(29) 0.22149(23) 1.30426(17)
H12A H 0.51419(29) 0.39410(23) 1.32266(17)
C12A C 0.55331(25) 0.26793(19) 1.14707(15)
H13A H 0.41009(25) 0.22234(19) 1.10998(15)
C15A C 0.59052(26) 0.40803(20) 1.11031(17)
C14A C 0.82139(29) 0.47500(22) 1.14240(21)
C13A C 0.98091(27) 0.35314(22) 1.11652(19)
H14A H 1.12063(27) 0.40297(22) 1.15959(19)
H15A H 0.97520(27) 0.31522(22) 1.02883(19)
H16A H 0.85899(29) 0.53764(22) 1.22981(21)
H17A H 0.83318(29) 0.54287(22) 1.09804(21)
H18A H 0.53831(26) 0.37731(20) 1.02193(17)
H19A H 0.50889(26) 0.48908(20) 1.15000(17)
loop_
_geom_bond_atom_site_label_1
_geom_bond_atom_site_label_2
_geom_bond_site_symmetry_1
_geom_bond_site_symmetry_2
B1 O1 1_555 1_555
O1 C1 1_555 1_555
O2 B1 1_555 1_555
C1 C7 1_555 1_555
C2 C3 1_555 1_555
C3 C4 1_555 1_555
C4 C5 1_555 1_555
C5 C6 1_555 1_555
C6 C7 1_555 1_555
C7 C2 1_555 1_555
H1 C2 1_555 1_555
H2 C3 1_555 1_555
H3 C4 1_555 1_555
H4 C5 1_555 1_555
H5 C6 1_555 1_555
C8 B1 1_555 1_555
H6 C8 1_555 1_555
C9 C8 1_555 1_555
H7 C9 1_555 1_555
H8 C9 1_555 1_555
C10 C9 1_555 1_555
H9 C10 1_555 1_555
H10 C10 1_555 1_555
C11 C10 1_555 1_555
H11 C11 1_555 1_555
H12 C11 1_555 1_555
C12 B1 1_555 1_555
H13 C12 1_555 1_555
C13 C8 1_555 1_555
H14 C13 1_555 1_555
H15 C13 1_555 1_555
C14 C13 1_555 1_555
H16 C14 1_555 1_555
H17 C14 1_555 1_555
C15 C12 1_555 1_555
H18 C15 1_555 1_555
H19 C15 1_555 1_555
O2A C1 1_555 1_555
B1A O2A 1_555 1_555
O1A B1A 1_555 1_555
C1A O2 1_555 1_555
C7A C1A 1_555 1_555
C2A C7A 1_555 1_555
C3A C2A 1_555 1_555
C4A C3A 1_555 1_555
C5A C4A 1_555 1_555
C6A C7A 1_555 1_555
H5A C6A 1_555 1_555
H4A C5A 1_555 1_555
H3A C4A 1_555 1_555
H2A C3A 1_555 1_555
H1A C2A 1_555 1_555
C8A B1A 1_555 1_555
H6A C8A 1_555 1_555
C9A C8A 1_555 1_555
H7A C9A 1_555 1_555
H8A C9A 1_555 1_555
C10A C9A 1_555 1_555
H9A C10A 1_555 1_555
H10A C10A 1_555 1_555
C11A C10A 1_555 1_555
H11A C11A 1_555 1_555
H12A C11A 1_555 1_555
C12A B1A 1_555 1_555
H13A C12A 1_555 1_555
C15A C12A 1_555 1_555
C14A C15A 1_555 1_555
C13A C8A 1_555 1_555
H14A C13A 1_555 1_555
H15A C13A 1_555 1_555
H16A C14A 1_555 1_555
H17A C14A 1_555 1_555
H18A C15A 1_555 1_555
H19A C15A 1_555 1_555
C11 C12 1_555 1_555
C14 C15 1_555 1_555
O1A C1A 1_555 1_555
C5A C6A 1_555 1_555
C11A C12A 1_555 1_555
C14A C13A 1_555 1_555

#END
