
#######################################################################
#
#                 Cambridge Crystallographic Data Centre
#                                CCDC 
#
#######################################################################
#
# If this CIF has been generated from an entry in the Cambridge 
# Structural Database, then it will include bibliographic, chemical, 
# crystal, experimental, refinement or atomic coordinate data resulting 
# from the CCDC's data processing and validation procedures.
#
#######################################################################

data_VUSMEB
_chemical_formula_moiety         'C22 H31 N1 O4 S1'
_chemical_name_systematic        
'N-((1-Methylene-7a-methyl-5-oxo-4,6,7-trihydro-5H-indan-4-yl))carbonyl-camphor sultam'
_symmetry_cell_setting           orthorhombic
_symmetry_space_group_name_H-M   'P 21 21 21'
_symmetry_Int_Tables_number      19
_space_group_name_Hall           'P 2ac 2ab'
loop_
_symmetry_equiv_pos_site_id
_symmetry_equiv_pos_as_xyz
1 x,y,z
2 1/2+x,1/2-y,-z
3 -x,1/2+y,1/2-z
4 1/2-x,-y,1/2+z
_cell_length_a                   7.447(2)
_cell_length_b                   11.751(3)
_cell_length_c                   23.716(7)
_cell_angle_alpha                90
_cell_angle_beta                 90
_cell_angle_gamma                90
_cell_volume                     2075.38
_exptl_crystal_colour            colorless
_chemical_melting_point          204-206deg.C
_cell_formula_units_Z            4
loop_
_atom_site_label
_atom_site_type_symbol
_atom_site_fract_x
_atom_site_fract_y
_atom_site_fract_z
O1 O 0.6258(16) 0.8287(10) 0.1173(5)
C1 C 0.6773(23) 0.8643(13) 0.0731(6)
C2 C 0.6552(26) 0.8061(14) 0.0177(7)
C3 C 0.5446(22) 0.8846(14) -0.0210(6)
C4 C 0.6290(21) 1.0011(13) -0.0292(6)
C5 C 0.5027(24) 1.0781(15) -0.0624(7)
C6 C 0.8082(24) 1.0016(15) -0.0596(7)
C7 C 0.8741(24) 0.9249(14) -0.0952(7)
C8 C 0.9212(26) 1.1036(17) -0.0389(8)
C9 C 0.8096(24) 1.1562(14) 0.0098(7)
C10 C 0.6766(25) 1.0584(16) 0.0271(7)
C11 C 0.7820(22) 0.9756(13) 0.0668(6)
C12 C 0.8044(20) 1.0254(13) 0.1248(7)
O2 O 0.6842(17) 1.0718(10) 0.1500(5)
N1 N 0.9709(18) 1.0255(12) 0.1494(6)
S1 S 1.1496(6) 0.9503(3) 0.1235(2)
O3 O 1.0964(16) 0.8342(11) 0.1137(5)
O4 O 1.2245(16) 1.0115(9) 0.0766(5)
C13 C 1.2836(22) 0.9624(14) 0.1869(6)
C14 C 1.1930(20) 1.0440(13) 0.2244(6)
C15 C 0.9942(24) 1.0535(17) 0.2093(7)
C16 C 0.9332(22) 1.1722(13) 0.2291(7)
C17 C 1.1016(23) 1.2074(14) 0.2630(7)
C18 C 1.1155(26) 1.1298(15) 0.3139(7)
C19 C 1.1957(20) 1.0142(12) 0.2890(6)
C20 C 1.2575(24) 1.1719(14) 0.2260(7)
C21 C 1.2644(29) 1.2286(16) 0.1670(8)
C22 C 1.4403(24) 1.1869(16) 0.2514(7)
H1 H 0.590 0.735 0.023
H2 H 0.762 0.785 -0.002
H3 H 0.426 0.893 -0.005
H4 H 0.519 0.851 -0.056
H5 H 0.529 1.155 -0.063
H6 H 0.384 1.073 -0.046
H7 H 0.482 1.051 -0.101
H8 H 0.988 0.929 -0.113
H9 H 0.790 0.867 -0.107
H10 H 0.947 1.154 -0.068
H11 H 1.033 1.075 -0.024
H12 H 0.752 1.222 -0.003
H13 H 0.884 1.177 0.040
H14 H 0.575 1.090 0.046
H15 H 0.894 0.966 0.048
H16 H 1.403 0.990 0.177
H17 H 1.295 0.891 0.203
H18 H 0.929 0.999 0.230
H19 H 0.823 1.173 0.251
H20 H 0.918 1.220 0.198
H21 H 1.099 1.287 0.274
H22 H 1.004 1.114 0.332
H23 H 1.192 1.156 0.343
H24 H 1.310 1.001 0.306
H25 H 1.114 0.957 0.298
H26 H 1.347 1.192 0.144
H27 H 1.291 1.306 0.170
H28 H 1.151 1.222 0.150
H29 H 1.533 1.151 0.229
H30 H 1.450 1.155 0.287
H31 H 1.475 1.267 0.255
loop_
_geom_bond_atom_site_label_1
_geom_bond_atom_site_label_2
_geom_bond_site_symmetry_1
_geom_bond_site_symmetry_2
O1 C1 1_555 1_555
C1 C2 1_555 1_555
C2 C3 1_555 1_555
C3 C4 1_555 1_555
C4 C5 1_555 1_555
C5 H5 1_555 1_555
C6 C4 1_555 1_555
C7 C6 1_555 1_555
C8 C6 1_555 1_555
C9 C8 1_555 1_555
C10 C4 1_555 1_555
C11 C1 1_555 1_555
C12 C11 1_555 1_555
O2 C12 1_555 1_555
N1 C12 1_555 1_555
S1 N1 1_555 1_555
O3 S1 1_555 1_555
O4 S1 1_555 1_555
C13 S1 1_555 1_555
C14 C13 1_555 1_555
C15 N1 1_555 1_555
C16 C15 1_555 1_555
C17 C16 1_555 1_555
C18 C17 1_555 1_555
C19 C14 1_555 1_555
C20 C14 1_555 1_555
C21 C20 1_555 1_555
C22 C20 1_555 1_555
H1 C2 1_555 1_555
H2 C2 1_555 1_555
H3 C3 1_555 1_555
H4 C3 1_555 1_555
H6 C5 1_555 1_555
H7 C5 1_555 1_555
H8 C7 1_555 1_555
H9 C7 1_555 1_555
H10 C8 1_555 1_555
H11 C8 1_555 1_555
H12 C9 1_555 1_555
H13 C9 1_555 1_555
H14 C10 1_555 1_555
H15 C11 1_555 1_555
H16 C13 1_555 1_555
H17 C13 1_555 1_555
H18 C15 1_555 1_555
H19 C16 1_555 1_555
H20 C16 1_555 1_555
H21 C17 1_555 1_555
H22 C18 1_555 1_555
H23 C18 1_555 1_555
H24 C19 1_555 1_555
H25 C19 1_555 1_555
H26 C21 1_555 1_555
H27 C21 1_555 1_555
H28 C21 1_555 1_555
H29 C22 1_555 1_555
H30 C22 1_555 1_555
H31 C22 1_555 1_555
C9 C10 1_555 1_555
C10 C11 1_555 1_555
C14 C15 1_555 1_555
C17 C20 1_555 1_555
C18 C19 1_555 1_555

#END
