
#######################################################################
#
#                 Cambridge Crystallographic Data Centre
#                                CCDC 
#
#######################################################################
#
# If this CIF has been generated from an entry in the Cambridge 
# Structural Database, then it will include bibliographic, chemical, 
# crystal, experimental, refinement or atomic coordinate data resulting 
# from the CCDC's data processing and validation procedures.
#
#######################################################################

data_VUSMAY
_chemical_name_common            
'(R)-nipecotic acid ethyl ester (R,R)-tartaric acid'
_chemical_formula_moiety         'C8 H16 N1 O2 1+,C4 H5 O6 1-'
_chemical_name_systematic        
'3-(Ethoxycarbonyl)piperidinium 3-carboxy-2,3-dihydroxypropanoate'
_symmetry_cell_setting           orthorhombic
_symmetry_space_group_name_H-M   'P 21 21 21'
_symmetry_Int_Tables_number      19
_space_group_name_Hall           'P 2ac 2ab'
loop_
_symmetry_equiv_pos_site_id
_symmetry_equiv_pos_as_xyz
1 x,y,z
2 1/2-x,-y,1/2+z
3 1/2+x,1/2-y,-z
4 -x,1/2+y,1/2-z
_cell_length_a                   8.2837(9)
_cell_length_b                   25.437(6)
_cell_length_c                   7.2880(7)
_cell_angle_alpha                90
_cell_angle_beta                 90
_cell_angle_gamma                90
_cell_volume                     1535.67
_exptl_crystal_colour            colorless
_exptl_crystal_description       plate
_cell_formula_units_Z            4
loop_
_atom_site_label
_atom_site_type_symbol
_atom_site_fract_x
_atom_site_fract_y
_atom_site_fract_z
O1 O 0.5278(6) 0.0442(2) 0.1230(13)
O2 O 0.3019(10) 0.0817(4) 0.0627(10)
N1 N 0.4396(4) 0.20408(16) 0.4248(6)
C1 C 0.4262(6) 0.1692(2) 0.2648(7)
C2 C 0.4529(5) 0.1123(2) 0.3163(8)
C3 C 0.3429(7) 0.0963(2) 0.4736(8)
C4 C 0.3585(7) 0.1345(3) 0.6348(8)
C5 C 0.3279(6) 0.1890(2) 0.5795(9)
C6 C 0.4194(8) 0.0785(3) 0.1542(9)
C7 C 0.5053(13) 0.0050(4) -0.029(2)
C8 C 0.6370(18) 0.0046(5) -0.147(2)
H1 H 0.50540 0.17950 0.17350
H2 H 0.31990 0.17310 0.21070
H3 H 0.41720 0.23720 0.38980
H4 H 0.54200 0.20350 0.46590
H5 H 0.56560 0.10750 0.35370
H6 H 0.37090 0.06110 0.51400
H7 H 0.23190 0.09570 0.43130
H8 H 0.28230 0.12460 0.72980
H9 H 0.46630 0.13190 0.68590
H10 H 0.34510 0.21220 0.68320
H11 H 0.21670 0.19260 0.54000
H12 H 0.49110 -0.02980 0.02310
H13 H 0.40850 0.01360 -0.09750
H14 H 0.61910 -0.02080 -0.24280
H15 H 0.73260 -0.00460 -0.08020
H16 H 0.65010 0.03880 -0.20070
O3 O 0.7457(3) 0.20004(12) 0.5791(4)
O4 O 0.8874(5) 0.12526(13) 0.5797(4)
O5 O 0.6989(4) 0.20092(19) 0.9300(5)
O6 O 1.0443(4) 0.21019(15) 0.8657(4)
O7 O 1.0283(4) 0.20715(13) 1.2338(4)
O8 O 0.8933(5) 0.13102(13) 1.2309(4)
C9 C 0.8118(5) 0.16185(16) 0.6564(5)
C10 C 0.8006(5) 0.16012(16) 0.8665(5)
C11 C 0.9703(4) 0.16613(16) 0.9456(5)
C12 C 0.9648(5) 0.17037(16) 1.1535(5)
H17 H 0.702(11) 0.223(3) 0.884(10)
H18 H 1.086(8) 0.233(2) 0.957(10)
H19 H 0.892(14) 0.135(4) 1.363(16)
H20 H 0.75590 0.12610 0.90440
H21 H 1.03310 0.13480 0.91300
loop_
_geom_bond_atom_site_label_1
_geom_bond_atom_site_label_2
_geom_bond_site_symmetry_1
_geom_bond_site_symmetry_2
O1 C6 1_555 1_555
O2 C6 1_555 1_555
N1 C1 1_555 1_555
C1 C2 1_555 1_555
C2 C3 1_555 1_555
C3 C4 1_555 1_555
C4 C5 1_555 1_555
C5 N1 1_555 1_555
C6 C2 1_555 1_555
C7 O1 1_555 1_555
C8 C7 1_555 1_555
O3 C9 1_555 1_555
O4 C9 1_555 1_555
O5 C10 1_555 1_555
O6 C11 1_555 1_555
O7 C12 1_555 1_555
O8 C12 1_555 1_555
C9 C10 1_555 1_555
C10 C11 1_555 1_555
C11 C12 1_555 1_555
H1 C1 1_555 1_555
H2 C1 1_555 1_555
H3 N1 1_555 1_555
H4 N1 1_555 1_555
H5 C2 1_555 1_555
H6 C3 1_555 1_555
H7 C3 1_555 1_555
H8 C4 1_555 1_555
H9 C4 1_555 1_555
H10 C5 1_555 1_555
H11 C5 1_555 1_555
H12 C7 1_555 1_555
H13 C7 1_555 1_555
H14 C8 1_555 1_555
H15 C8 1_555 1_555
H16 C8 1_555 1_555
H17 O5 1_555 1_555
H18 O6 1_555 1_555
H19 O8 1_555 1_555
H20 C10 1_555 1_555
H21 C11 1_555 1_555

#END
