
#######################################################################
#
#                 Cambridge Crystallographic Data Centre
#                                CCDC 
#
#######################################################################
#
# If this CIF has been generated from an entry in the Cambridge 
# Structural Database, then it will include bibliographic, chemical, 
# crystal, experimental, refinement or atomic coordinate data resulting 
# from the CCDC's data processing and validation procedures.
#
#######################################################################

data_VUSNAZ
_chemical_formula_moiety         'C61 H66 N4 Si1'
_chemical_name_systematic        
'5,15-bis(3,5-di-t-butylphenyl)-10-(phenylethynyl)-20-((trimethylsilyl)ethynyl)porphyrin unknown solvate'
_symmetry_cell_setting           triclinic
_symmetry_space_group_name_H-M   'P -1'
_symmetry_Int_Tables_number      2
_space_group_name_Hall           '-P 1'
loop_
_symmetry_equiv_pos_site_id
_symmetry_equiv_pos_as_xyz
1 x,y,z
2 -x,-y,-z
_cell_length_a                   8.9729(10)
_cell_length_b                   19.167(2)
_cell_length_c                   20.763(2)
_cell_angle_alpha                65.932(2)
_cell_angle_beta                 81.356(2)
_cell_angle_gamma                86.051(2)
_cell_volume                     3223.3
_exptl_crystal_colour            purple
_exptl_crystal_description       needle
_cell_formula_units_Z            2
loop_
_atom_site_label
_atom_site_type_symbol
_atom_site_fract_x
_atom_site_fract_y
_atom_site_fract_z
Si1 Si 0.8443(3) 0.54098(15) 0.10946(12)
N1 N 0.8913(5) 0.9591(3) -0.3393(2)
N2 N 0.7379(6) 0.8460(3) -0.3694(3)
H1 H 0.7764 0.8446 -0.3329
N3 N 0.7538(6) 0.7386(3) -0.2250(3)
N4 N 0.8984(5) 0.8533(3) -0.1930(3)
H2 H 0.8580 0.8543 -0.2289
C1 C 0.8926(7) 0.7930(4) -0.1286(3)
C2 C 0.9658(8) 0.8147(4) -0.0850(3)
H3 H 0.9750 0.7848 -0.0369
C3 C 1.0219(8) 0.8863(4) -0.1236(3)
H4 H 1.0793 0.9138 -0.1076
C4 C 0.9769(6) 0.9118(4) -0.1931(3)
C5 C 1.0115(6) 0.9805(4) -0.2497(3)
C6 C 0.9711(6) 1.0028(3) -0.3186(3)
C7 C 1.0019(6) 1.0771(3) -0.3766(3)
H5 H 1.0548 1.1173 -0.3757
C8 C 0.9410(7) 1.0771(3) -0.4307(3)
H6 H 0.9421 1.1177 -0.4757
C9 C 0.8726(7) 1.0034(3) -0.4084(3)
C10 C 0.7948(7) 0.9811(4) -0.4511(3)
C11 C 0.7360(7) 0.9092(4) -0.4327(3)
C12 C 0.6669(7) 0.8860(4) -0.4785(3)
H7 H 0.6509 0.9170 -0.5255
C13 C 0.6288(8) 0.8118(4) -0.4422(3)
H8 H 0.5823 0.7818 -0.4597
C14 C 0.6714(7) 0.7866(4) -0.3723(3)
C15 C 0.6465(7) 0.7140(4) -0.3163(3)
C16 C 0.6819(7) 0.6936(4) -0.2478(3)
C17 C 0.6420(9) 0.6222(4) -0.1886(4)
H9 H 0.5914 0.5814 -0.1897
C18 C 0.6902(8) 0.6248(4) -0.1319(4)
H10 H 0.6800 0.5863 -0.0855
C19 C 0.7609(7) 0.6980(4) -0.1553(3)
C20 C 0.8269(7) 0.7221(4) -0.1091(3)
C21 C 1.1028(7) 1.0365(3) -0.2377(3)
C22 C 1.0359(7) 1.0755(4) -0.1960(3)
H11 H 0.9341 1.0672 -0.1760
C23 C 1.1199(8) 1.1259(4) -0.1843(3)
C24 C 1.2683(7) 1.1384(4) -0.2157(4)
H12 H 1.3245 1.1742 -0.2093
C25 C 1.3368(8) 1.1001(4) -0.2560(4)
C26 C 1.2518(7) 1.0508(4) -0.2678(3)
H13 H 1.2958 1.0261 -0.2970
C27 C 1.0418(8) 1.1693(4) -0.1389(4)
C28 C 0.9061(11) 1.2156(6) -0.1730(5)
H14 H 0.8377 1.1817 -0.1782
H15 H 0.9412 1.2546 -0.2195
H16 H 0.8539 1.2397 -0.1429
C29 C 0.9823(11) 1.1102(5) -0.0652(4)
H17 H 0.9137 1.0761 -0.0700
H18 H 0.9294 1.1360 -0.0368
H19 H 1.0660 1.0808 -0.0421
C30 C 1.1439(12) 1.2225(6) -0.1312(5)
H20 H 1.1825 1.2599 -0.1779
H21 H 1.2273 1.1938 -0.1072
H22 H 1.0886 1.2484 -0.1034
C31 C 1.5047(8) 1.1106(5) -0.2866(5)
C32 C 1.5745(12) 1.1748(7) -0.2790(7)
H23 H 1.5255 1.2225 -0.3057
H24 H 1.6810 1.1773 -0.2971
H25 H 1.5623 1.1663 -0.2291
C33 C 1.5863(10) 1.0395(8) -0.2454(7)
H26 H 1.5467 0.9964 -0.2504
H27 H 1.5722 1.0311 -0.1956
H28 H 1.6929 1.0447 -0.2635
C34 C 1.5308(10) 1.1189(6) -0.3637(5)
H29 H 1.4859 1.0760 -0.3670
H30 H 1.6383 1.1197 -0.3797
H31 H 1.4849 1.1661 -0.3935
C35 C 0.7799(7) 1.0366(4) -0.5216(4)
C36 C 0.7625(8) 1.0806(4) -0.5806(4)
C37 C 0.7408(8) 1.1310(4) -0.6518(3)
C38 C 0.8455(8) 1.1908(4) -0.6919(3)
H32 H 0.9284 1.1973 -0.6721
C39 C 0.8232(11) 1.2389(4) -0.7601(4)
H33 H 0.8909 1.2790 -0.7870
C40 C 0.7046(13) 1.2292(5) -0.7889(4)
H34 H 0.6911 1.2630 -0.8355
C41 C 0.6037(9) 1.1710(6) -0.7517(5)
H35 H 0.5228 1.1650 -0.7728
C42 C 0.6220(8) 1.1207(4) -0.6817(3)
H36 H 0.5539 1.0805 -0.6557
C43 C 0.5743(7) 0.6560(4) -0.3334(3)
C44 C 0.4340(7) 0.6692(4) -0.3547(3)
H37 H 0.3804 0.7133 -0.3550
C45 C 0.3677(8) 0.6198(4) -0.3759(3)
C46 C 0.4491(8) 0.5526(4) -0.3704(3)
H38 H 0.4077 0.5177 -0.3839
C47 C 0.5893(8) 0.5359(4) -0.3456(4)
C48 C 0.6490(8) 0.5896(4) -0.3285(3)
H39 H 0.7444 0.5803 -0.3130
C49 C 0.2140(8) 0.6395(4) -0.4025(4)
C50 C 0.1734(11) 0.5853(5) -0.4347(5)
H40 H 0.0753 0.5994 -0.4508
H41 H 0.1706 0.5333 -0.3990
H42 H 0.2486 0.5891 -0.4748
C51 C 0.2122(9) 0.7221(4) -0.4574(4)
H43 H 0.1141 0.7342 -0.4737
H44 H 0.2890 0.7284 -0.4976
H45 H 0.2324 0.7562 -0.4358
C52 C 0.0931(8) 0.6313(5) -0.3391(5)
H46 H -0.0051 0.6438 -0.3554
H47 H 0.1150 0.6658 -0.3183
H48 H 0.0929 0.5791 -0.3037
C53 C 0.6734(9) 0.4630(5) -0.3425(5)
C54 C 0.733(5) 0.468(2) -0.4118(18)
H49 H 0.7871 0.4208 -0.4078
H50 H 0.8005 0.5106 -0.4354
H51 H 0.6505 0.4744 -0.4394
C55 C 0.569(2) 0.3909(10) -0.2911(13)
H52 H 0.5564 0.3880 -0.2429
H53 H 0.6176 0.3443 -0.2921
H54 H 0.4718 0.3969 -0.3075
C56 C 0.807(2) 0.4443(10) -0.2943(10)
H55 H 0.7804 0.4641 -0.2579
H56 H 0.8991 0.4682 -0.3239
H57 H 0.8220 0.3895 -0.2720
C57 C 0.8325(8) 0.6668(4) -0.0375(4)
C58 C 0.8340(9) 0.6186(4) 0.0230(4)
C59 C 0.8138(16) 0.4514(7) 0.1006(7)
H58 H 0.8184 0.4086 0.1460
H59 H 0.8914 0.4455 0.0652
H60 H 0.7156 0.4531 0.0858
C60 C 0.7017(16) 0.5528(8) 0.1751(6)
H61 H 0.7083 0.5109 0.2209
H62 H 0.6030 0.5531 0.1613
H63 H 0.7169 0.6008 0.1784
C61 C 1.0321(16) 0.5403(9) 0.1332(7)
H64 H 1.0398 0.4991 0.1793
H65 H 1.0495 0.5887 0.1354
H66 H 1.1070 0.5329 0.0977
C62? C 0.808(2) 0.4901(10) -0.4120(9)
C63? C 0.582(2) 0.4074(11) -0.3530(15)
C64? C 0.728(4) 0.4241(18) -0.2746(17)
H67? H 0.8603 0.5336 -0.4139
H68? H 0.7627 0.5044 -0.4554
H69? H 0.8784 0.4483 -0.4075
H70? H 0.5377 0.4329 -0.3966
H71? H 0.5034 0.3871 -0.3130
H72? H 0.6470 0.3659 -0.3563
H73? H 0.7974 0.4569 -0.2685
H74? H 0.7798 0.3773 -0.2728
H75? H 0.6437 0.4119 -0.2367
loop_
_geom_bond_atom_site_label_1
_geom_bond_atom_site_label_2
_geom_bond_site_symmetry_1
_geom_bond_site_symmetry_2
Si1 C58 1_555 1_555
N1 C6 1_555 1_555
N2 H1 1_555 1_555
N3 C16 1_555 1_555
N4 H2 1_555 1_555
C1 N4 1_555 1_555
C2 C1 1_555 1_555
H3 C2 1_555 1_555
C3 C2 1_555 1_555
H4 C3 1_555 1_555
C4 N4 1_555 1_555
C5 C4 1_555 1_555
C6 C5 1_555 1_555
C7 C6 1_555 1_555
H5 C7 1_555 1_555
C8 C7 1_555 1_555
H6 C8 1_555 1_555
C9 N1 1_555 1_555
C10 C9 1_555 1_555
C11 N2 1_555 1_555
C12 C11 1_555 1_555
H7 C12 1_555 1_555
C13 C12 1_555 1_555
H8 C13 1_555 1_555
C14 N2 1_555 1_555
C15 C14 1_555 1_555
C16 C15 1_555 1_555
C17 C16 1_555 1_555
H9 C17 1_555 1_555
C18 C17 1_555 1_555
H10 C18 1_555 1_555
C19 N3 1_555 1_555
C20 C1 1_555 1_555
C21 C5 1_555 1_555
C22 C21 1_555 1_555
H11 C22 1_555 1_555
C23 C22 1_555 1_555
C24 C23 1_555 1_555
H12 C24 1_555 1_555
C25 C24 1_555 1_555
C26 C21 1_555 1_555
H13 C26 1_555 1_555
C27 C23 1_555 1_555
C28 C27 1_555 1_555
H14 C28 1_555 1_555
H15 C28 1_555 1_555
H16 C28 1_555 1_555
C29 C27 1_555 1_555
H17 C29 1_555 1_555
H18 C29 1_555 1_555
H19 C29 1_555 1_555
C30 C27 1_555 1_555
H20 C30 1_555 1_555
H21 C30 1_555 1_555
H22 C30 1_555 1_555
C31 C25 1_555 1_555
C32 C31 1_555 1_555
H23 C32 1_555 1_555
H24 C32 1_555 1_555
H25 C32 1_555 1_555
C33 C31 1_555 1_555
H26 C33 1_555 1_555
H27 C33 1_555 1_555
H28 C33 1_555 1_555
C34 C31 1_555 1_555
H29 C34 1_555 1_555
H30 C34 1_555 1_555
H31 C34 1_555 1_555
C35 C10 1_555 1_555
C36 C35 1_555 1_555
C37 C36 1_555 1_555
C38 C37 1_555 1_555
H32 C38 1_555 1_555
C39 C38 1_555 1_555
H33 C39 1_555 1_555
C40 C39 1_555 1_555
H34 C40 1_555 1_555
C41 C40 1_555 1_555
H35 C41 1_555 1_555
C42 C37 1_555 1_555
H36 C42 1_555 1_555
C43 C15 1_555 1_555
C44 C43 1_555 1_555
H37 C44 1_555 1_555
C45 C44 1_555 1_555
C46 C45 1_555 1_555
H38 C46 1_555 1_555
C47 C46 1_555 1_555
C48 C43 1_555 1_555
H39 C48 1_555 1_555
C49 C45 1_555 1_555
C50 C49 1_555 1_555
H40 C50 1_555 1_555
H41 C50 1_555 1_555
H42 C50 1_555 1_555
C51 C49 1_555 1_555
H43 C51 1_555 1_555
H44 C51 1_555 1_555
H45 C51 1_555 1_555
C52 C49 1_555 1_555
H46 C52 1_555 1_555
H47 C52 1_555 1_555
H48 C52 1_555 1_555
C53 C47 1_555 1_555
C54 C53 1_555 1_555
H49 C54 1_555 1_555
H50 C54 1_555 1_555
H51 C54 1_555 1_555
C55 C53 1_555 1_555
H52 C55 1_555 1_555
H53 C55 1_555 1_555
H54 C55 1_555 1_555
C56 C53 1_555 1_555
H55 C56 1_555 1_555
H56 C56 1_555 1_555
H57 C56 1_555 1_555
C57 C20 1_555 1_555
C58 C57 1_555 1_555
C59 Si1 1_555 1_555
H58 C59 1_555 1_555
H59 C59 1_555 1_555
H60 C59 1_555 1_555
C60 Si1 1_555 1_555
H61 C60 1_555 1_555
H62 C60 1_555 1_555
H63 C60 1_555 1_555
C61 Si1 1_555 1_555
H64 C61 1_555 1_555
H65 C61 1_555 1_555
H66 C61 1_555 1_555
C3 C4 1_555 1_555
C8 C9 1_555 1_555
C10 C11 1_555 1_555
C13 C14 1_555 1_555
C18 C19 1_555 1_555
C19 C20 1_555 1_555
C25 C26 1_555 1_555
C41 C42 1_555 1_555
C47 C48 1_555 1_555

#END
