
#######################################################################
#
#                 Cambridge Crystallographic Data Centre
#                                CCDC 
#
#######################################################################
#
# If this CIF has been generated from an entry in the Cambridge 
# Structural Database, then it will include bibliographic, chemical, 
# crystal, experimental, refinement or atomic coordinate data resulting 
# from the CCDC's data processing and validation procedures.
#
#######################################################################

data_VUSPUU
_chemical_compound_source        'Fungus Emericella nivea'
_chemical_formula_moiety         'C28 H39 N1 O1'
_chemical_name_systematic        Emeniveol
_chemical_properties_biological  'pollen growth inhibitory activity'
_symmetry_cell_setting           orthorhombic
_symmetry_space_group_name_H-M   'P 21 21 21'
_symmetry_Int_Tables_number      19
_space_group_name_Hall           'P 2ac 2ab'
loop_
_symmetry_equiv_pos_site_id
_symmetry_equiv_pos_as_xyz
1 x,y,z
2 1/2+x,1/2-y,-z
3 -x,1/2+y,1/2-z
4 1/2-x,-y,1/2+z
_cell_length_a                   6.612
_cell_length_b                   31.689
_cell_length_c                   11.433
_cell_angle_alpha                90
_cell_angle_beta                 90
_cell_angle_gamma                90
_cell_volume                     2395.53
_exptl_crystal_colour            colorless
_chemical_melting_point          179deg.C
_cell_formula_units_Z            4
loop_
_atom_site_label
_atom_site_type_symbol
_atom_site_fract_x
_atom_site_fract_y
_atom_site_fract_z
O1 O 0.7803(6) 0.0904(1) 0.8099(3)
N1 N 0.1538(7) 0.0960(2) -0.0523(4)
C1 C 0.2960(8) 0.0715(2) 0.0033(4)
C2 C 0.4584(8) 0.0947(2) 0.0353(4)
C3 C 0.4206(8) 0.1370(2) -0.0067(4)
C4 C 0.5296(10) 0.1751(2) -0.0035(5)
C5 C 0.4474(11) 0.2105(2) -0.0527(5)
C6 C 0.2553(13) 0.2090(2) -0.1054(5)
C7 C 0.1453(10) 0.1730(2) -0.1091(5)
C8 C 0.2282(8) 0.1370(2) -0.0596(4)
C9 C 0.6394(8) 0.0808(2) 0.1050(4)
C10 C 0.5919(7) 0.0765(2) 0.2369(4)
C11 C 0.5043(9) 0.1172(2) 0.2861(4)
C12 C 0.4496(8) 0.1130(2) 0.4153(4)
C13 C 0.6308(7) 0.0988(1) 0.4888(4)
C14 C 0.7182(7) 0.0557(1) 0.4428(4)
C15 C 0.7688(7) 0.0623(1) 0.3119(4)
C16 C 0.9089(8) 0.0456(2) 0.5133(4)
C17 C 0.8709(8) 0.0467(2) 0.6460(4)
C18 C 0.7942(8) 0.0902(2) 0.6844(4)
C19 C 0.5991(8) 0.1028(2) 0.6232(4)
C20 C 0.5419(10) 0.1494(2) 0.6549(5)
C21 C 0.6647(12) 0.1854(2) 0.6038(6)
C22 C 0.5631(12) 0.2280(2) 0.6296(6)
C23 C 0.6405(11) 0.2615(2) 0.6740(6)
C24 C 0.8513(13) 0.2645(3) 0.7120(9)
C25 C 0.5290(18) 0.3007(2) 0.7035(8)
C26 C 0.5698(8) 0.0181(1) 0.4503(4)
C27 C 0.9517(8) 0.0562(2) 0.2678(4)
C28 C 0.4220(8) 0.0759(2) 0.6688(5)
H1 H 0.8887 0.0826 0.8435
H2 H 0.0307 0.0885 -0.0788
H3 H 0.2795 0.0419 0.0171
H4 H 0.6575 0.1757 0.0362
H5 H 0.5270 0.2359 -0.0530
H6 H 0.1993 0.2344 -0.1378
H7 H 0.0133 0.1725 -0.1440
H8 H 0.6902 0.0550 0.0728
H9 H 0.7432 0.1019 0.0979
H10 H 0.4878 0.0555 0.2426
H11 H 0.3863 0.1253 0.2426
H12 H 0.6042 0.1388 0.2757
H13 H 0.4105 0.1404 0.4433
H14 H 0.3370 0.0942 0.4254
H15 H 0.7366 0.1185 0.4709
H16 H 1.0108 0.0659 0.4936
H17 H 0.9587 0.0182 0.4920
H18 H 0.7701 0.0262 0.6666
H19 H 0.9932 0.0400 0.6873
H20 H 0.8969 0.1102 0.6631
H21 H 0.5455 0.1525 0.7384
H22 H 0.4046 0.1542 0.6311
H23 H 0.6822 0.1812 0.5212
H24 H 0.7959 0.1858 0.6398
H25 H 0.4225 0.2300 0.6093
H26 H 0.9253 0.2395 0.6922
H27 H 0.9147 0.2886 0.6764
H28 H 0.8502 0.2680 0.7954
H29 H 0.3931 0.2979 0.6751
H30 H 0.5269 0.3044 0.7868
H31 H 0.5913 0.3249 0.6678
H32 H 0.6370 -0.0068 0.4228
H33 H 0.5270 0.0139 0.5297
H34 H 0.4541 0.0237 0.4021
H35 H 1.0598 0.0474 0.3183
H36 H 0.9767 0.0607 0.1860
H37 H 0.3995 0.0796 0.7511
H38 H 0.3007 0.0829 0.6268
H39 H 0.4578 0.0471 0.6533
loop_
_geom_bond_atom_site_label_1
_geom_bond_atom_site_label_2
_geom_bond_site_symmetry_1
_geom_bond_site_symmetry_2
O1 C18 1_555 1_555
N1 C1 1_555 1_555
C1 C2 1_555 1_555
C2 C3 1_555 1_555
C3 C4 1_555 1_555
C4 C5 1_555 1_555
C5 C6 1_555 1_555
C6 C7 1_555 1_555
C7 C8 1_555 1_555
C8 N1 1_555 1_555
C9 C2 1_555 1_555
C10 C9 1_555 1_555
C11 C10 1_555 1_555
C12 C11 1_555 1_555
C13 C12 1_555 1_555
C14 C13 1_555 1_555
C15 C10 1_555 1_555
C16 C14 1_555 1_555
C17 C16 1_555 1_555
C18 C17 1_555 1_555
C19 C13 1_555 1_555
C20 C19 1_555 1_555
C21 C20 1_555 1_555
C22 C21 1_555 1_555
C23 C22 1_555 1_555
C24 C23 1_555 1_555
C25 C23 1_555 1_555
C26 C14 1_555 1_555
C27 C15 1_555 1_555
C28 C19 1_555 1_555
H1 O1 1_555 1_555
H2 N1 1_555 1_555
H3 C1 1_555 1_555
H4 C4 1_555 1_555
H5 C5 1_555 1_555
H6 C6 1_555 1_555
H7 C7 1_555 1_555
H8 C9 1_555 1_555
H9 C9 1_555 1_555
H10 C10 1_555 1_555
H11 C11 1_555 1_555
H12 C11 1_555 1_555
H13 C12 1_555 1_555
H14 C12 1_555 1_555
H15 C13 1_555 1_555
H16 C16 1_555 1_555
H17 C16 1_555 1_555
H18 C17 1_555 1_555
H19 C17 1_555 1_555
H20 C18 1_555 1_555
H21 C20 1_555 1_555
H22 C20 1_555 1_555
H23 C21 1_555 1_555
H24 C21 1_555 1_555
H25 C22 1_555 1_555
H26 C24 1_555 1_555
H27 C24 1_555 1_555
H28 C24 1_555 1_555
H29 C25 1_555 1_555
H30 C25 1_555 1_555
H31 C25 1_555 1_555
H32 C26 1_555 1_555
H33 C26 1_555 1_555
H34 C26 1_555 1_555
H35 C27 1_555 1_555
H36 C27 1_555 1_555
H37 C28 1_555 1_555
H38 C28 1_555 1_555
H39 C28 1_555 1_555
C3 C8 1_555 1_555
C14 C15 1_555 1_555
C18 C19 1_555 1_555

#END
