
#######################################################################
#
#                 Cambridge Crystallographic Data Centre
#                                CCDC 
#
#######################################################################
#
# If this CIF has been generated from an entry in the Cambridge 
# Structural Database, then it will include bibliographic, chemical, 
# crystal, experimental, refinement or atomic coordinate data resulting 
# from the CCDC's data processing and validation procedures.
#
#######################################################################

data_VUSTIO
_chemical_formula_moiety         'C15 H12 Br1 N1 O2'
_chemical_name_systematic        
(5aS,10bR)-7-Bromo-5a,6-dihydrochromeno[2,3-b]indol-10b(11H)-ol
_symmetry_cell_setting           orthorhombic
_symmetry_space_group_name_H-M   'P 21 21 21'
_symmetry_Int_Tables_number      19
_space_group_name_Hall           'P 2ac 2ab'
loop_
_symmetry_equiv_pos_site_id
_symmetry_equiv_pos_as_xyz
1 x,y,z
2 1/2-x,-y,1/2+z
3 -x,1/2+y,1/2-z
4 1/2+x,1/2-y,-z
_cell_length_a                   7.0635(8)
_cell_length_b                   16.0598(18)
_cell_length_c                   23.315(3)
_cell_angle_alpha                90
_cell_angle_beta                 90
_cell_angle_gamma                90
_cell_volume                     2644.82
_exptl_crystal_colour            colorless
_exptl_crystal_description       prismatic
_chemical_melting_point          '129-132 deg.C'
_cell_formula_units_Z            8
loop_
_atom_site_label
_atom_site_type_symbol
_atom_site_fract_x
_atom_site_fract_y
_atom_site_fract_z
Br1 Br 0.44959(11) 0.23759(4) 0.18118(3)
N1 N 0.4244(9) 0.0375(3) 0.1692(2)
O1 O 0.2282(5) -0.0867(2) 0.07756(14)
H1 H 0.1285 -0.0949 0.0604
O2 O 0.3912(5) -0.0898(2) 0.21842(15)
C1 C 0.2741(8) 0.0852(3) 0.1515(2)
C2 C 0.2497(8) 0.1706(3) 0.1527(2)
C3 C 0.0853(9) 0.2056(3) 0.1330(2)
H2 H 0.0698 0.2631 0.1336
C4 C -0.0563(9) 0.1556(4) 0.1125(2)
H3 H -0.1669 0.1797 0.0986
C5 C -0.0381(9) 0.0696(3) 0.1120(2)
H4 H -0.1365 0.0360 0.0990
C6 C 0.1266(7) 0.0352(3) 0.1309(2)
C7 C 0.1886(7) -0.0544(3) 0.1333(2)
C8 C 0.3847(7) -0.0491(3) 0.1641(2)
H5 H 0.4805 -0.0743 0.1391
C9 C 0.0547(9) -0.1106(3) 0.16539(18)
H6 H 0.0923 -0.1682 0.1602
H7 H -0.0724 -0.1041 0.1503
C10 C 0.0565(9) -0.0892(3) 0.2284(2)
C11 C -0.1002(8) -0.0811(3) 0.2626(2)
H8 H -0.2203 -0.0875 0.2469
C12 C -0.0805(10) -0.0634(4) 0.3200(2)
H9 H -0.1871 -0.0578 0.3431
C13 C 0.0973(11) -0.0542(4) 0.3431(2)
H10 H 0.1104 -0.0423 0.3820
C14 C 0.2547(9) -0.0623(4) 0.3098(2)
H11 H 0.3748 -0.0569 0.3257
C15 C 0.2338(8) -0.0785(3) 0.2523(2)
H12 H 0.514(10) 0.057(4) 0.174(2)
Br2 Br 0.44531(12) 1.14559(4) 1.00601(3)
N2 N 0.5200(7) 0.9499(3) 0.99557(19)
O3 O 0.9057(5) 0.84911(19) 1.02681(14)
H13 H 0.9080 0.7983 1.0305
O4 O 0.4717(5) 0.81945(18) 0.95167(12)
C16 C 0.6653(7) 1.0033(3) 0.98161(18)
C17 C 0.6619(8) 1.0896(3) 0.9801(2)
C18 C 0.8215(9) 1.1308(3) 0.9610(2)
H14 H 0.8208 1.1886 0.9592
C19 C 0.9780(9) 1.0891(3) 0.9448(2)
H15 H 1.0826 1.1184 0.9314
C20 C 0.9846(8) 1.0030(3) 0.9480(2)
H16 H 1.0935 0.9741 0.9377
C21 C 0.8271(7) 0.9612(3) 0.96669(18)
C22 C 0.7971(6) 0.8703(3) 0.97766(18)
C23 C 0.5850(7) 0.8654(3) 0.99223(19)
H17 H 0.5711 0.8396 1.0301
C24 C 0.8438(8) 0.8138(3) 0.9278(2)
H18 H 0.9717 0.8249 0.9147
H19 H 0.8373 0.7562 0.9401
C25 C 0.7070(8) 0.8282(3) 0.8798(2)
C26 C 0.7551(9) 0.8348(4) 0.8227(3)
H20 H 0.8817 0.8337 0.8117
C27 C 0.6152(12) 0.8430(4) 0.7818(3)
H21 H 0.6479 0.8477 0.7433
C28 C 0.4298(12) 0.8441(4) 0.7975(3)
H22 H 0.3360 0.8484 0.7696
C29 C 0.3813(8) 0.8390(4) 0.8541(3)
H23 H 0.2548 0.8410 0.8651
C30 C 0.5205(8) 0.8309(3) 0.8946(2)
H24 H 0.432(9) 0.959(3) 1.018(2)
loop_
_geom_bond_atom_site_label_1
_geom_bond_atom_site_label_2
_geom_bond_site_symmetry_1
_geom_bond_site_symmetry_2
Br1 C2 1_555 1_555
N1 C1 1_555 1_555
O1 H1 1_555 1_555
O2 C8 1_555 1_555
C1 C2 1_555 1_555
C2 C3 1_555 1_555
C3 H2 1_555 1_555
C4 C3 1_555 1_555
H3 C4 1_555 1_555
C5 C4 1_555 1_555
H4 C5 1_555 1_555
C6 C1 1_555 1_555
C7 O1 1_555 1_555
C8 N1 1_555 1_555
H5 C8 1_555 1_555
C9 C7 1_555 1_555
H6 C9 1_555 1_555
H7 C9 1_555 1_555
C10 C9 1_555 1_555
C11 C10 1_555 1_555
H8 C11 1_555 1_555
C12 C11 1_555 1_555
H9 C12 1_555 1_555
C13 C12 1_555 1_555
H10 C13 1_555 1_555
C14 C13 1_555 1_555
H11 C14 1_555 1_555
C15 O2 1_555 1_555
H12 N1 1_555 1_555
Br2 C17 1_555 1_555
N2 C16 1_555 1_555
O3 H13 1_555 1_555
O4 C23 1_555 1_555
C16 C17 1_555 1_555
C17 C18 1_555 1_555
C18 H14 1_555 1_555
C19 C18 1_555 1_555
H15 C19 1_555 1_555
C20 C19 1_555 1_555
H16 C20 1_555 1_555
C21 C16 1_555 1_555
C22 O3 1_555 1_555
C23 N2 1_555 1_555
H17 C23 1_555 1_555
C24 C22 1_555 1_555
H18 C24 1_555 1_555
H19 C24 1_555 1_555
C25 C24 1_555 1_555
C26 C25 1_555 1_555
H20 C26 1_555 1_555
C27 C26 1_555 1_555
H21 C27 1_555 1_555
C28 C27 1_555 1_555
H22 C28 1_555 1_555
C29 C28 1_555 1_555
H23 C29 1_555 1_555
C30 O4 1_555 1_555
H24 N2 1_555 1_555
C5 C6 1_555 1_555
C6 C7 1_555 1_555
C7 C8 1_555 1_555
C10 C15 1_555 1_555
C14 C15 1_555 1_555
C20 C21 1_555 1_555
C21 C22 1_555 1_555
C22 C23 1_555 1_555
C25 C30 1_555 1_555
C29 C30 1_555 1_555

#END
