
#######################################################################
#
#                 Cambridge Crystallographic Data Centre
#                                CCDC 
#
#######################################################################
#
# If this CIF has been generated from an entry in the Cambridge 
# Structural Database, then it will include bibliographic, chemical, 
# crystal, experimental, refinement or atomic coordinate data resulting 
# from the CCDC's data processing and validation procedures.
#
#######################################################################

data_VUSTEK
_chemical_formula_moiety         'C24 H25 F3 N2 O3 S1'
_chemical_name_systematic        
N-Methyl-N-(1-(4-methyl-4-(2,2,2-trifluoroethyl)-4,5-dihydrofuran-3-yl)-4-phenyl-5,8-dihydroisoquinolin-3-yl)methanesulfonamide
_symmetry_cell_setting           triclinic
_symmetry_space_group_name_H-M   'P -1'
_symmetry_Int_Tables_number      2
_space_group_name_Hall           '-P 1'
loop_
_symmetry_equiv_pos_site_id
_symmetry_equiv_pos_as_xyz
1 x,y,z
2 -x,-y,-z
_cell_length_a                   10.9310(11)
_cell_length_b                   14.0613(13)
_cell_length_c                   17.2294(13)
_cell_angle_alpha                102.174(7)
_cell_angle_beta                 104.548(8)
_cell_angle_gamma                108.524(9)
_cell_volume                     2305.39
_exptl_crystal_colour            colorless
_exptl_crystal_description       block
_cell_formula_units_Z            4
loop_
_atom_site_label
_atom_site_type_symbol
_atom_site_fract_x
_atom_site_fract_y
_atom_site_fract_z
S1 S 0.4441(2) 0.68195(17) 0.08719(13)
F1 F 0.3095(10) 0.7799(8) -0.2952(5)
F2 F 0.1756(10) 0.6273(6) -0.3646(5)
F3 F 0.1088(16) 0.7450(11) -0.3625(7)
O1 O 0.1830(7) 0.9753(6) -0.1641(4)
O2 O 0.5402(6) 0.7875(4) 0.1330(3)
O3 O 0.4529(6) 0.5983(4) 0.1212(3)
N1 N 0.4010(6) 0.7720(5) -0.0697(4)
N2 N 0.4636(6) 0.6535(4) -0.0055(4)
C1 C 0.4995(7) 0.7401(6) -0.0382(4)
C2 C 0.6367(8) 0.7860(6) -0.0357(4)
C3 C 0.6686(7) 0.8732(6) -0.0663(4)
C4 C 0.5663(7) 0.9076(6) -0.0979(4)
C5 C 0.8124(8) 0.9244(7) -0.0621(6)
H1 H 0.8408 0.8703 -0.0872
H2 H 0.8710 0.9571 -0.0032
C6 C 0.8342(9) 1.0068(7) -0.1061(5)
H3 H 0.9190 1.0360 -0.1122
C7 C 0.7365(9) 1.0391(6) -0.1363(5)
H4 H 0.7557 1.0887 -0.1644
C8 C 0.5990(8) 1.0021(6) -0.1286(5)
H5 H 0.5306 0.9844 -0.1834
H6 H 0.5922 1.0596 -0.0898
C9 C 0.4339(8) 0.8573(6) -0.0993(5)
C10 C 0.3131(8) 0.8809(7) -0.1296(5)
C11 C 0.1616(9) 0.7962(7) -0.1744(5)
C12 C 0.0924(11) 0.8687(9) -0.2065(7)
H7 H 0.0722 0.8534 -0.2670
H8 H 0.0068 0.8555 -0.1954
C13 C 0.0985(10) 0.7643(9) -0.1114(6)
H9 H 0.1216 0.7081 -0.0975
H10 H 0.0004 0.7405 -0.1351
H11 H 0.1329 0.8238 -0.0611
C14 C 0.1468(10) 0.7045(7) -0.2391(6)
H12 H 0.1894 0.6653 -0.2096
H13 H 0.0492 0.6608 -0.2635
C15 C 0.1938(15) 0.7084(15) -0.3074(10)
C16 C 0.3093(9) 0.9754(8) -0.1279(6)
H14 H 0.3880 1.0375 -0.1035
C17 C 0.7418(7) 0.7430(6) -0.0036(5)
C18 C 0.8202(9) 0.7782(8) 0.0808(6)
H15 H 0.8089 0.8289 0.1195
C19 C 0.9172(9) 0.7358(9) 0.1069(6)
H16 H 0.9749 0.7620 0.1631
C20 C 0.9289(10) 0.6553(9) 0.0505(9)
H17 H 0.9903 0.6250 0.0691
C21 C 0.8504(10) 0.6221(9) -0.0313(8)
H18 H 0.8601 0.5704 -0.0699
C22 C 0.7579(8) 0.6626(7) -0.0580(5)
H19 H 0.7026 0.6362 -0.1147
C23 C 0.3757(9) 0.5496(6) -0.0661(5)
H20 H 0.3476 0.5006 -0.0365
H21 H 0.4253 0.5262 -0.0993
H22 H 0.2961 0.5534 -0.1024
C24 C 0.2770(8) 0.6801(7) 0.0702(5)
H23 H 0.2726 0.7410 0.0548
H24 H 0.2557 0.6812 0.1211
H25 H 0.2118 0.6170 0.0255
S2 S 0.7828(2) 1.37356(18) 0.70988(13)
F4 F 0.4250(9) 1.3753(7) 0.2913(7)
F5 F 0.2326(8) 1.2938(6) 0.3083(7)
F6 F 0.3981(9) 1.4046(6) 0.4084(7)
O4 O 0.1941(5) 0.9831(4) 0.3374(3)
O5 O 0.7874(6) 1.2802(5) 0.7282(3)
O6 O 0.8756(6) 1.4743(5) 0.7689(3)
N3 N 0.6230(6) 1.2237(4) 0.5151(3)
N4 N 0.8083(6) 1.3675(4) 0.6189(3)
C25 C 0.7544(7) 1.2643(5) 0.5583(4)
C26 C 0.8458(7) 1.2180(5) 0.5448(4)
C27 C 0.7911(7) 1.1218(5) 0.4836(4)
C28 C 0.8841(8) 1.0655(6) 0.4655(5)
H26 H 0.9677 1.1169 0.4653
H27 H 0.9095 1.0374 0.5112
C29 C 0.8224(10) 0.9787(7) 0.3851(5)
H28 H 0.8798 0.9531 0.3636
C30 C 0.6931(10) 0.9366(8) 0.3431(5)
H29 H 0.6629 0.8826 0.2924
C31 C 0.5882(8) 0.9672(6) 0.3691(4)
H30 H 0.5375 0.9134 0.3892
H31 H 0.5238 0.9699 0.3202
C32 C 0.6496(8) 1.0735(5) 0.4379(4)
C33 C 0.5665(7) 1.1284(5) 0.4559(4)
C34 C 0.4191(8) 1.0906(6) 0.4087(4)
C35 C 0.3462(8) 1.1656(6) 0.3943(5)
C36 C 0.2025(8) 1.0852(7) 0.3338(5)
H32 H 0.1317 1.1015 0.3512
H33 H 0.1900 1.0877 0.2766
C37 C 0.3230(8) 0.9935(7) 0.3760(5)
H34 H 0.3439 0.9350 0.3794
C38 C 0.4205(9) 1.2447(7) 0.3555(6)
H35 H 0.5159 1.2811 0.3920
H36 H 0.4187 1.2054 0.3015
C39 C 0.3625(16) 1.3276(12) 0.3418(12)
C40 C 0.3300(9) 1.2229(8) 0.4766(6)
H37 H 0.2932 1.1721 0.5028
H38 H 0.2687 1.2577 0.4629
H39 H 0.4181 1.2743 0.5149
C41 C 0.9984(7) 1.2739(6) 0.5944(4)
C42 C 1.0818(9) 1.3519(7) 0.5715(5)
H40 H 1.0453 1.3703 0.5249
C43 C 1.2205(8) 1.4022(7) 0.6191(6)
H41 H 1.2776 1.4525 0.6026
C44 C 1.2749(9) 1.3792(8) 0.6896(6)
H42 H 1.3673 1.4156 0.7226
C45 C 1.1925(10) 1.3028(8) 0.7104(5)
H43 H 1.2292 1.2846 0.7571
C46 C 1.0542(8) 1.2509(7) 0.6637(5)
H44 H 0.9988 1.1995 0.6802
C47 C 0.8059(10) 1.4530(6) 0.5847(5)
H45 H 0.7180 1.4317 0.5421
H46 H 0.8765 1.4696 0.5601
H47 H 0.8215 1.5143 0.6292
C48 C 0.6130(8) 1.3673(7) 0.6945(5)
H48 H 0.5982 1.4169 0.6665
H49 H 0.6009 1.3842 0.7483
H50 H 0.5482 1.2972 0.6603
loop_
_geom_bond_atom_site_label_1
_geom_bond_atom_site_label_2
_geom_bond_site_symmetry_1
_geom_bond_site_symmetry_2
S1 O2 1_555 1_555
F1 C15 1_555 1_555
F2 C15 1_555 1_555
F3 C15 1_555 1_555
O1 C12 1_555 1_555
O3 S1 1_555 1_555
N1 C1 1_555 1_555
N2 S1 1_555 1_555
C1 N2 1_555 1_555
C2 C1 1_555 1_555
C3 C2 1_555 1_555
C4 C3 1_555 1_555
C5 C3 1_555 1_555
H1 C5 1_555 1_555
H2 C5 1_555 1_555
C6 C5 1_555 1_555
H3 C6 1_555 1_555
C7 C6 1_555 1_555
H4 C7 1_555 1_555
C8 C4 1_555 1_555
H5 C8 1_555 1_555
H6 C8 1_555 1_555
C9 N1 1_555 1_555
C10 C9 1_555 1_555
C11 C10 1_555 1_555
C12 C11 1_555 1_555
H7 C12 1_555 1_555
H8 C12 1_555 1_555
C13 C11 1_555 1_555
H9 C13 1_555 1_555
H10 C13 1_555 1_555
H11 C13 1_555 1_555
C14 C11 1_555 1_555
H12 C14 1_555 1_555
H13 C14 1_555 1_555
C15 C14 1_555 1_555
C16 O1 1_555 1_555
H14 C16 1_555 1_555
C17 C2 1_555 1_555
C18 C17 1_555 1_555
H15 C18 1_555 1_555
C19 C18 1_555 1_555
H16 C19 1_555 1_555
C20 C19 1_555 1_555
H17 C20 1_555 1_555
C21 C20 1_555 1_555
H18 C21 1_555 1_555
C22 C17 1_555 1_555
H19 C22 1_555 1_555
C23 N2 1_555 1_555
H20 C23 1_555 1_555
H21 C23 1_555 1_555
H22 C23 1_555 1_555
C24 S1 1_555 1_555
H23 C24 1_555 1_555
H24 C24 1_555 1_555
H25 C24 1_555 1_555
S2 O5 1_555 1_555
F4 C39 1_555 1_555
F5 C39 1_555 1_555
F6 C39 1_555 1_555
O4 C36 1_555 1_555
O6 S2 1_555 1_555
N3 C25 1_555 1_555
N4 S2 1_555 1_555
C25 N4 1_555 1_555
C26 C25 1_555 1_555
C27 C26 1_555 1_555
C28 C27 1_555 1_555
H26 C28 1_555 1_555
H27 C28 1_555 1_555
C29 C28 1_555 1_555
H28 C29 1_555 1_555
C30 C29 1_555 1_555
H29 C30 1_555 1_555
C31 C30 1_555 1_555
H30 C31 1_555 1_555
H31 C31 1_555 1_555
C32 C27 1_555 1_555
C33 N3 1_555 1_555
C34 C33 1_555 1_555
C35 C34 1_555 1_555
C36 C35 1_555 1_555
H32 C36 1_555 1_555
H33 C36 1_555 1_555
C37 O4 1_555 1_555
H34 C37 1_555 1_555
C38 C35 1_555 1_555
H35 C38 1_555 1_555
H36 C38 1_555 1_555
C39 C38 1_555 1_555
C40 C35 1_555 1_555
H37 C40 1_555 1_555
H38 C40 1_555 1_555
H39 C40 1_555 1_555
C41 C26 1_555 1_555
C42 C41 1_555 1_555
H40 C42 1_555 1_555
C43 C42 1_555 1_555
H41 C43 1_555 1_555
C44 C43 1_555 1_555
H42 C44 1_555 1_555
C45 C44 1_555 1_555
H43 C45 1_555 1_555
C46 C41 1_555 1_555
H44 C46 1_555 1_555
C47 N4 1_555 1_555
H45 C47 1_555 1_555
H46 C47 1_555 1_555
H47 C47 1_555 1_555
C48 S2 1_555 1_555
H48 C48 1_555 1_555
H49 C48 1_555 1_555
H50 C48 1_555 1_555
C4 C9 1_555 1_555
C7 C8 1_555 1_555
C10 C16 1_555 1_555
C21 C22 1_555 1_555
C31 C32 1_555 1_555
C32 C33 1_555 1_555
C34 C37 1_555 1_555
C45 C46 1_555 1_555

#END
