
#######################################################################
#
#                 Cambridge Crystallographic Data Centre
#                                CCDC 
#
#######################################################################
#
# If this CIF has been generated from an entry in the Cambridge 
# Structural Database, then it will include bibliographic, chemical, 
# crystal, experimental, refinement or atomic coordinate data resulting 
# from the CCDC's data processing and validation procedures.
#
#######################################################################

data_VUSTEJ
_chemical_formula_moiety         'C16 H28 N3 1+,C1 F3 O3 S1 1-'
_chemical_name_systematic        
"N,N'-diisopropyl-N''-(2-isopropylphenyl)guanidinium trifluoromethanesulfonate"
_symmetry_cell_setting           orthorhombic
_symmetry_space_group_name_H-M   'P n a 21'
_symmetry_Int_Tables_number      33
_space_group_name_Hall           'P 2c -2n'
loop_
_symmetry_equiv_pos_site_id
_symmetry_equiv_pos_as_xyz
1 x,y,z
2 -x,-y,1/2+z
3 1/2+x,1/2-y,z
4 1/2-x,1/2+y,1/2+z
_cell_length_a                   16.419(3)
_cell_length_b                   12.458(3)
_cell_length_c                   10.520(2)
_cell_angle_alpha                90
_cell_angle_beta                 90
_cell_angle_gamma                90
_cell_volume                     2151.84
_exptl_crystal_colour            colorless
_exptl_crystal_description       block
_cell_formula_units_Z            4
loop_
_atom_site_label
_atom_site_type_symbol
_atom_site_fract_x
_atom_site_fract_y
_atom_site_fract_z
S1 S 0.12695(3) 0.20439(4) 0.50146(6)
F1 F 0.08073(12) 0.33631(14) 0.32183(17)
F2 F 0.06907(9) 0.40069(11) 0.51011(19)
F3 F 0.18766(10) 0.38692(12) 0.4239(2)
O1 O 0.04446(8) 0.16702(12) 0.51641(17)
O2 O 0.17238(9) 0.14895(13) 0.40420(18)
O3 O 0.16993(10) 0.22249(15) 0.61845(18)
C17 C 0.11595(16) 0.3388(2) 0.4356(3)
N1 N 0.18733(11) 0.93204(15) 0.31185(18)
H1 H 0.1654 0.9944 0.3313
N2 N 0.05904(11) 0.89597(15) 0.22783(19)
H2 H 0.0371 0.8627 0.1624
N3 N 0.16566(11) 0.77782(15) 0.19463(19)
H3 H 0.2184 0.7671 0.2017
C1 C 0.26834(13) 0.90211(17) 0.3495(2)
C2 C 0.28125(14) 0.82765(19) 0.4450(2)
C3 C 0.36266(17) 0.8073(2) 0.4793(3)
H4 H 0.3739 0.7564 0.5442
C4 C 0.42647(16) 0.8595(3) 0.4207(3)
H5 H 0.4808 0.8440 0.4457
C5 C 0.41240(16) 0.9338(3) 0.3264(3)
H6 H 0.4565 0.9696 0.2863
C6 C 0.33265(15) 0.9555(2) 0.2907(3)
H7 H 0.3219 1.0069 0.2261
C7 C 0.13680(13) 0.86838(17) 0.2430(2)
C8 C 0.01898(13) 0.98940(18) 0.2864(2)
H8 H 0.0498 1.0095 0.3649
C9 C 0.02008(18) 1.0842(2) 0.1960(3)
H9 H 0.0765 1.1020 0.1743
H10 H -0.0057 1.1462 0.2369
H11 H -0.0098 1.0657 0.1184
C10 C -0.06713(15) 0.9583(2) 0.3243(3)
H12 H -0.0652 0.8972 0.3828
H13 H -0.0981 0.9385 0.2483
H14 H -0.0936 1.0193 0.3664
C11 C 0.11817(14) 0.69885(17) 0.1207(2)
H15 H 0.0595 0.7058 0.1449
C12 C 0.12614(15) 0.7209(2) -0.0208(2)
H16 H 0.1078 0.7941 -0.0390
H17 H 0.0925 0.6697 -0.0682
H18 H 0.1832 0.7130 -0.0464
C13 C 0.14642(18) 0.5867(2) 0.1541(3)
H19 H 0.1400 0.5748 0.2456
H20 H 0.2039 0.5785 0.1308
H21 H 0.1137 0.5341 0.1073
C14 C 0.21306(17) 0.7704(2) 0.5132(3)
H22 H 0.1612 0.7895 0.4689
C15 C 0.2050(2) 0.8062(4) 0.6502(4)
H23 H 0.1976 0.8842 0.6532
H24 H 0.2544 0.7866 0.6972
H25 H 0.1578 0.7710 0.6890
C16 C 0.2230(2) 0.6471(3) 0.5047(5)
H26 H 0.1778 0.6122 0.5494
H27 H 0.2746 0.6259 0.5440
H28 H 0.2227 0.6251 0.4153
loop_
_geom_bond_atom_site_label_1
_geom_bond_atom_site_label_2
_geom_bond_site_symmetry_1
_geom_bond_site_symmetry_2
S1 O1 1_555 1_555
F1 C17 1_555 1_555
F2 C17 1_555 1_555
F3 C17 1_555 1_555
O2 S1 1_555 1_555
O3 S1 1_555 1_555
N1 H1 1_555 1_555
N2 H2 1_555 1_555
N3 H3 1_555 1_555
C1 N1 1_555 1_555
C2 C1 1_555 1_555
C3 C2 1_555 1_555
H4 C3 1_555 1_555
C4 C3 1_555 1_555
H5 C4 1_555 1_555
C5 C4 1_555 1_555
H6 C5 1_555 1_555
C6 C1 1_555 1_555
H7 C6 1_555 1_555
C7 N1 1_555 1_555
C8 N2 1_555 1_555
H8 C8 1_555 1_555
C9 C8 1_555 1_555
H9 C9 1_555 1_555
H10 C9 1_555 1_555
H11 C9 1_555 1_555
C10 C8 1_555 1_555
H12 C10 1_555 1_555
H13 C10 1_555 1_555
H14 C10 1_555 1_555
C11 N3 1_555 1_555
H15 C11 1_555 1_555
C12 C11 1_555 1_555
H16 C12 1_555 1_555
H17 C12 1_555 1_555
H18 C12 1_555 1_555
C13 C11 1_555 1_555
H19 C13 1_555 1_555
H20 C13 1_555 1_555
H21 C13 1_555 1_555
C14 C2 1_555 1_555
H22 C14 1_555 1_555
C15 C14 1_555 1_555
H23 C15 1_555 1_555
H24 C15 1_555 1_555
H25 C15 1_555 1_555
C16 C14 1_555 1_555
H26 C16 1_555 1_555
H27 C16 1_555 1_555
H28 C16 1_555 1_555
C17 S1 1_555 1_555
N2 C7 1_555 1_555
N3 C7 1_555 1_555
C5 C6 1_555 1_555

#END
