
#######################################################################
#
#                 Cambridge Crystallographic Data Centre
#                                CCDC 
#
#######################################################################
#
# If this CIF has been generated from an entry in the Cambridge 
# Structural Database, then it will include bibliographic, chemical, 
# crystal, experimental, refinement or atomic coordinate data resulting 
# from the CCDC's data processing and validation procedures.
#
#######################################################################

data_VUSWOW
_chemical_formula_moiety         'C43 H53 N2 1+,Br1 1-'
_chemical_name_systematic        
'2-(1,2-bis(4-methylphenyl)ethyl)-1,3-bis(2,6-diisopropylphenyl)imidazolium bromide'
_symmetry_cell_setting           monoclinic
_symmetry_space_group_name_H-M   'P 21/c'
_symmetry_Int_Tables_number      14
_space_group_name_Hall           '-P 2ybc'
loop_
_symmetry_equiv_pos_site_id
_symmetry_equiv_pos_as_xyz
1 x,y,z
2 -x,1/2+y,1/2-z
3 -x,-y,-z
4 x,1/2-y,1/2+z
_cell_length_a                   14.5466(18)
_cell_length_b                   16.0087(16)
_cell_length_c                   20.286(3)
_cell_angle_alpha                90
_cell_angle_beta                 128.613(8)
_cell_angle_gamma                90
_cell_volume                     3691.27
_exptl_crystal_colour            colorless
_exptl_crystal_description       prism
_cell_formula_units_Z            4
loop_
_atom_site_label
_atom_site_type_symbol
_atom_site_fract_x
_atom_site_fract_y
_atom_site_fract_z
N1 N 0.7854(4) 0.26059(19) 0.2685(2)
N2 N 0.8338(4) 0.32110(19) 0.3816(2)
C1 C 0.7513(5) 0.2734(2) 0.3165(3)
C2 C 0.9208(4) 0.3381(2) 0.3748(3)
H1 H 0.9898 0.3703 0.4132
C3 C 0.8911(5) 0.3015(3) 0.3050(3)
H2 H 0.9342 0.3031 0.2842
C4 C 0.7245(4) 0.2099(2) 0.1930(3)
C5 C 0.8548(4) 0.3377(2) 0.4616(3)
C6 C 0.7316(5) 0.1229(2) 0.2026(3)
C7 C 0.9233(4) 0.2797(2) 0.5263(3)
C8 C 0.6703(5) 0.0750(3) 0.1287(3)
H3 H 0.6726 0.0158 0.1321
C9 C 0.9448(4) 0.2960(3) 0.6025(3)
H4 H 0.9888 0.2572 0.6477
C10 C 0.6076(5) 0.1130(3) 0.0525(3)
H5 H 0.5646 0.0794 0.0031
C11 C 0.9026(5) 0.3681(3) 0.6128(3)
H6 H 0.9173 0.3780 0.6648
C12 C 0.6037(5) 0.1985(3) 0.0438(3)
H7 H 0.5593 0.2228 -0.0108
C13 C 0.8396(5) 0.4256(3) 0.5488(3)
H8 H 0.8136 0.4755 0.5579
C14 C 0.6653(5) 0.2496(3) 0.1155(3)
C15 C 0.8132(4) 0.4120(2) 0.4708(3)
C16 C 0.6657(5) 0.3442(3) 0.1075(3)
H9 H 0.6903 0.3696 0.1614
C17 C 0.7409(4) 0.4760(2) 0.4001(3)
H10 H 0.7228 0.4519 0.3476
C18 C 0.5456(5) 0.3791(3) 0.0359(3)
H11 H 0.5218 0.3578 -0.0180
H12 H 0.5495 0.4402 0.0363
H13 H 0.4879 0.3618 0.0433
C19 C 0.8118(5) 0.5570(2) 0.4214(3)
H14 H 0.8319 0.5812 0.4733
H15 H 0.7644 0.5970 0.3750
H16 H 0.8841 0.5444 0.4295
C20 C 0.7576(5) 0.3685(3) 0.0960(3)
H17 H 0.7385 0.3408 0.0457
H18 H 0.8360 0.3509 0.1457
H19 H 0.7568 0.4292 0.0892
C21 C 0.6248(4) 0.4958(3) 0.3822(3)
H20 H 0.5815 0.4438 0.3708
H21 H 0.5777 0.5327 0.3331
H22 H 0.6405 0.5236 0.4314
C22 C 0.8086(4) 0.0809(2) 0.2882(3)
H23 H 0.8197 0.1213 0.3302
C23 C 0.9783(5) 0.2022(2) 0.5189(3)
H24 H 0.9594 0.2037 0.4623
C24 C 0.7531(4) 0.0014(3) 0.2923(3)
H25 H 0.6747 0.0145 0.2745
H26 H 0.8027 -0.0199 0.3503
H27 H 0.7464 -0.0411 0.2547
C25 C 0.9287(5) 0.1213(2) 0.5249(4)
H28 H 0.9636 0.0736 0.5173
H29 H 0.8431 0.1204 0.4807
H30 H 0.9475 0.1177 0.5804
C26 C 0.9302(5) 0.0621(3) 0.3138(3)
H31 H 0.9227 0.0205 0.2753
H32 H 0.9815 0.0403 0.3716
H33 H 0.9641 0.1135 0.3110
C27 C 1.1106(5) 0.2041(3) 0.5853(4)
H34 H 1.1415 0.2554 0.5791
H35 H 1.1448 0.1555 0.5783
H36 H 1.1315 0.2028 0.6415
C28 C 0.6375(5) 0.2394(3) 0.2937(3)
H37 H 0.6411 0.1785 0.2846
C29 C 0.5300(4) 0.2691(3) 0.2088(3)
C30 C 0.4655(5) 0.2140(3) 0.1414(3)
H38 H 0.4924 0.1582 0.1488
C31 C 0.3637(5) 0.2377(3) 0.0639(3)
H39 H 0.3226 0.1980 0.0194
C32 C 0.3207(5) 0.3180(3) 0.0499(3)
C33 C 0.3841(5) 0.3733(3) 0.1180(4)
H40 H 0.3558 0.4288 0.1105
C34 C 0.4857(5) 0.3505(3) 0.1951(3)
H41 H 0.5265 0.3902 0.2396
C35 C 0.2128(5) 0.3449(3) -0.0341(4)
H42 H 0.2059 0.3133 -0.0785
H43 H 0.2180 0.4047 -0.0418
H44 H 0.1436 0.3344 -0.0376
C36 C 0.6252(5) 0.2406(4) 0.3617(4)
H45 H 0.6211 0.2992 0.3753
H46 H 0.6955 0.2145 0.4133
C37 C 0.5137(5) 0.1932(3) 0.3348(3)
C38 C 0.4188(6) 0.2357(3) 0.3168(3)
H47 H 0.4193 0.2950 0.3153
C39 C 0.3245(5) 0.1972(3) 0.3012(3)
H48 H 0.2623 0.2294 0.2916
C40 C 0.3181(5) 0.1104(3) 0.2991(3)
C41 C 0.4113(5) 0.0659(3) 0.3156(3)
H49 H 0.4089 0.0066 0.3150
C42 C 0.5083(5) 0.1059(3) 0.3330(3)
H50 H 0.5715 0.0741 0.3437
C43 C 0.2107(6) 0.0667(3) 0.2775(4)
H51 H 0.1613 0.0482 0.2186
H52 H 0.1661 0.1052 0.2855
H53 H 0.2350 0.0181 0.3145
Br1 Br 0.13439(6) 0.35779(3) 0.31787(4)
loop_
_geom_bond_atom_site_label_1
_geom_bond_atom_site_label_2
_geom_bond_site_symmetry_1
_geom_bond_site_symmetry_2
N1 C1 1_555 1_555
N2 C1 1_555 1_555
C1 C28 1_555 1_555
C2 N2 1_555 1_555
H1 C2 1_555 1_555
C3 N1 1_555 1_555
H2 C3 1_555 1_555
C4 N1 1_555 1_555
C5 N2 1_555 1_555
C6 C4 1_555 1_555
C7 C5 1_555 1_555
C8 C6 1_555 1_555
H3 C8 1_555 1_555
C9 C7 1_555 1_555
H4 C9 1_555 1_555
C10 C8 1_555 1_555
H5 C10 1_555 1_555
C11 C9 1_555 1_555
H6 C11 1_555 1_555
C12 C10 1_555 1_555
H7 C12 1_555 1_555
C13 C11 1_555 1_555
H8 C13 1_555 1_555
C14 C4 1_555 1_555
C15 C5 1_555 1_555
C16 C14 1_555 1_555
H9 C16 1_555 1_555
C17 C15 1_555 1_555
H10 C17 1_555 1_555
C18 C16 1_555 1_555
H11 C18 1_555 1_555
H12 C18 1_555 1_555
H13 C18 1_555 1_555
C19 C17 1_555 1_555
H14 C19 1_555 1_555
H15 C19 1_555 1_555
H16 C19 1_555 1_555
C20 C16 1_555 1_555
H17 C20 1_555 1_555
H18 C20 1_555 1_555
H19 C20 1_555 1_555
C21 C17 1_555 1_555
H20 C21 1_555 1_555
H21 C21 1_555 1_555
H22 C21 1_555 1_555
C22 C6 1_555 1_555
H23 C22 1_555 1_555
C23 C7 1_555 1_555
H24 C23 1_555 1_555
C24 C22 1_555 1_555
H25 C24 1_555 1_555
H26 C24 1_555 1_555
H27 C24 1_555 1_555
C25 C23 1_555 1_555
H28 C25 1_555 1_555
H29 C25 1_555 1_555
H30 C25 1_555 1_555
C26 C22 1_555 1_555
H31 C26 1_555 1_555
H32 C26 1_555 1_555
H33 C26 1_555 1_555
C27 C23 1_555 1_555
H34 C27 1_555 1_555
H35 C27 1_555 1_555
H36 C27 1_555 1_555
C28 H37 1_555 1_555
C29 C28 1_555 1_555
C30 C29 1_555 1_555
H38 C30 1_555 1_555
C31 C30 1_555 1_555
H39 C31 1_555 1_555
C32 C31 1_555 1_555
C33 C32 1_555 1_555
H40 C33 1_555 1_555
C34 C29 1_555 1_555
H41 C34 1_555 1_555
C35 C32 1_555 1_555
H42 C35 1_555 1_555
H43 C35 1_555 1_555
H44 C35 1_555 1_555
C36 C28 1_555 1_555
H45 C36 1_555 1_555
H46 C36 1_555 1_555
C37 C36 1_555 1_555
C38 C37 1_555 1_555
H47 C38 1_555 1_555
C39 C38 1_555 1_555
H48 C39 1_555 1_555
C40 C39 1_555 1_555
C41 C40 1_555 1_555
H49 C41 1_555 1_555
C42 C37 1_555 1_555
H50 C42 1_555 1_555
C43 C40 1_555 1_555
H51 C43 1_555 1_555
H52 C43 1_555 1_555
H53 C43 1_555 1_555
C2 C3 1_555 1_555
C12 C14 1_555 1_555
C13 C15 1_555 1_555
C33 C34 1_555 1_555
C41 C42 1_555 1_555

#END
