
#######################################################################
#
#                 Cambridge Crystallographic Data Centre
#                                CCDC 
#
#######################################################################
#
# If this CIF has been generated from an entry in the Cambridge 
# Structural Database, then it will include bibliographic, chemical, 
# crystal, experimental, refinement or atomic coordinate data resulting 
# from the CCDC's data processing and validation procedures.
#
#######################################################################

data_VUTDUJ
_chemical_formula_moiety         'C3 H2 Br2 N2 O1'
_chemical_name_systematic        2,2-Dibromo-2-cyanoacetamide
_symmetry_cell_setting           monoclinic
_symmetry_space_group_name_H-M   'P 21/n'
_symmetry_Int_Tables_number      14
_space_group_name_Hall           '-P 2yn'
loop_
_symmetry_equiv_pos_site_id
_symmetry_equiv_pos_as_xyz
1 x,y,z
2 1/2-x,1/2+y,1/2-z
3 -x,-y,-z
4 1/2+x,1/2-y,1/2+z
_cell_length_a                   6.223(3)
_cell_length_b                   9.744(4)
_cell_length_c                   11.309(5)
_cell_angle_alpha                90
_cell_angle_beta                 96.84(3)
_cell_angle_gamma                90
_cell_volume                     680.862
_cell_formula_units_Z            4
loop_
_atom_site_label
_atom_site_type_symbol
_atom_site_fract_x
_atom_site_fract_y
_atom_site_fract_z
Br1 Br -0.1103(7) 0.7188(5) 0.2936(4)
Br2 Br 0.2334(8) 0.9262(3) 0.4192(3)
O1 O 0.4775(16) 0.5928(11) 0.3616(9)
C1 C 0.3220(23) 0.6409(14) 0.4016(12)
N1 N 0.3565(23) 0.7955(15) 0.1298(12)
C2 C 0.1941(21) 0.7562(14) 0.3263(14)
C3 C 0.2855(24) 0.7762(15) 0.2153(12)
N2 N 0.2418(20) 0.6051(12) 0.5037(10)
loop_
_geom_bond_atom_site_label_1
_geom_bond_atom_site_label_2
_geom_bond_site_symmetry_1
_geom_bond_site_symmetry_2
Br1 C2 1_555 1_555
Br2 C2 1_555 1_555
O1 C1 1_555 1_555
C1 C2 1_555 1_555
N1 C3 1_555 1_555
C2 C3 1_555 1_555
N2 C1 1_555 1_555

#END
