
#######################################################################
#
#                 Cambridge Crystallographic Data Centre
#                                CCDC 
#
#######################################################################
#
# If this CIF has been generated from an entry in the Cambridge 
# Structural Database, then it will include bibliographic, chemical, 
# crystal, experimental, refinement or atomic coordinate data resulting 
# from the CCDC's data processing and validation procedures.
#
#######################################################################

data_VUTDAQ
_chemical_formula_moiety         'C21 H18 Br1 N1 O3'
_chemical_name_systematic        
1-(4-(6-Bromo-1,3-benzodioxol-5-yl)-3a,4,5,9b-tetrahydro-3H-cyclopenta[c]quinolin-8-yl)ethanone
_symmetry_cell_setting           monoclinic
_symmetry_space_group_name_H-M   'P 21/c'
_symmetry_Int_Tables_number      14
_space_group_name_Hall           '-P 2ybc'
loop_
_symmetry_equiv_pos_site_id
_symmetry_equiv_pos_as_xyz
1 x,y,z
2 -x,1/2+y,1/2-z
3 -x,-y,-z
4 x,1/2-y,1/2+z
_cell_length_a                   10.0852(9)
_cell_length_b                   10.6038(9)
_cell_length_c                   31.868(3)
_cell_angle_alpha                90
_cell_angle_beta                 91.353(5)
_cell_angle_gamma                90
_cell_volume                     3407.06
_exptl_crystal_colour            colorless
_exptl_crystal_description       plate
_cell_formula_units_Z            8
loop_
_atom_site_label
_atom_site_type_symbol
_atom_site_fract_x
_atom_site_fract_y
_atom_site_fract_z
Br1 Br 0.51008(3) -0.15360(3) 0.121262(9)
N1 N 0.7889(2) 0.1855(2) 0.13193(7)
H1 H 0.731(3) 0.242(3) 0.1375(9)
O1 O 0.3253(2) 0.1367(2) -0.00027(7)
O2 O 0.4999(2) 0.2784(2) 0.00191(6)
O3 O 1.2289(2) 0.0636(2) 0.27096(6)
C1 C 0.5152(2) -0.0088(2) 0.08618(8)
C2 C 0.4107(2) 0.0018(3) 0.05680(9)
H2 H 0.3420 -0.0580 0.0550
C3 C 0.4143(2) 0.1039(3) 0.03098(8)
C4 C 0.3692(3) 0.2564(3) -0.01503(9)
H3 H 0.3089 0.3230 -0.0059
H4 H 0.3704 0.2568 -0.0458
C5 C 0.5172(2) 0.1897(3) 0.03287(8)
C6 C 0.6190(2) 0.1800(2) 0.06156(8)
H5 H 0.6876 0.2400 0.0625
C7 C 0.6189(2) 0.0778(2) 0.08979(7)
C8 C 0.7311(2) 0.0627(2) 0.12157(7)
H6 H 0.6953 0.0254 0.1474
C9 C 0.8918(2) 0.1846(2) 0.16192(7)
C10 C 0.9188(2) 0.2912(2) 0.18640(8)
H7 H 0.8685 0.3649 0.1821
C11 C 1.0183(2) 0.2898(2) 0.21677(8)
H8 H 1.0378 0.3636 0.2320
C12 C 1.0902(2) 0.1801(2) 0.22506(7)
C13 C 1.0638(2) 0.0749(2) 0.19988(7)
H9 H 1.1112 0.0001 0.2052
C14 C 0.9704(2) 0.0764(2) 0.16733(7)
C15 C 0.9578(2) -0.0348(2) 0.13765(8)
H10 H 0.9504 -0.1142 0.1538
C16 C 1.0772(2) -0.0406(3) 0.10929(9)
H11 H 1.1629 -0.0636 0.1186
C17 C 1.0469(2) -0.0101(3) 0.07047(9)
H12 H 1.1088 -0.0075 0.0489
C18 C 0.9026(2) 0.0202(3) 0.06424(8)
H13 H 0.8643 -0.0258 0.0402
H14 H 0.8892 0.1109 0.0598
C19 C 0.8412(2) -0.0235(2) 0.10563(8)
H15 H 0.8033 -0.1086 0.1011
C20 C 1.1921(2) 0.1676(3) 0.25942(7)
C21 C 1.2506(3) 0.2834(3) 0.27885(10)
H16 H 1.1807 0.3341 0.2907
H17 H 1.2955 0.3319 0.2576
H18 H 1.3138 0.2596 0.3009
Br2 Br 0.00800(3) 0.61245(3) 0.145561(11)
N2 N 0.2775(2) 0.2714(2) 0.13327(7)
H19 H 0.216(3) 0.214(3) 0.1357(9)
O4 O -0.1760(2) 0.4114(2) 0.00513(8)
O5 O -0.0079(2) 0.2641(2) -0.00074(6)
O6 O 0.7207(2) 0.0681(2) 0.26188(7)
C22 C 0.0133(2) 0.4958(2) 0.10079(9)
C23 C -0.0908(2) 0.5053(3) 0.07084(10)
H20 H -0.1584 0.5657 0.0731
C24 C -0.0881(3) 0.4221(3) 0.03840(9)
C25 C -0.1347(3) 0.3016(4) -0.01711(10)
H21 H -0.1991 0.2334 -0.0136
H22 H -0.1292 0.3204 -0.0471
C26 C 0.0112(3) 0.3332(3) 0.03526(8)
C27 C 0.1120(2) 0.3228(2) 0.06457(8)
H23 H 0.1782 0.2611 0.0619
C28 C 0.1139(2) 0.4070(2) 0.09889(8)
C29 C 0.2250(2) 0.3996(2) 0.13153(8)
H24 H 0.1887 0.4206 0.1593
C30 C 0.3802(2) 0.2492(2) 0.16233(7)
C31 C 0.4020(2) 0.1279(2) 0.17802(8)
H25 H 0.3477 0.0612 0.1685
C32 C 0.5009(2) 0.1047(2) 0.20696(8)
H26 H 0.5154 0.0220 0.2166
C33 C 0.5809(2) 0.2030(2) 0.22238(7)
C34 C 0.5606(2) 0.3230(2) 0.20605(7)
H27 H 0.6136 0.3897 0.2162
C35 C 0.4649(2) 0.3479(2) 0.17530(7)
C36 C 0.4556(2) 0.4764(2) 0.15517(8)
H28 H 0.4505 0.5427 0.1770
C37 C 0.5755(2) 0.4979(2) 0.12816(9)
H29 H 0.6614 0.5126 0.1391
C38 C 0.5462(3) 0.4939(3) 0.08800(10)
H30 H 0.6092 0.5027 0.0669
C39 C 0.4009(2) 0.4735(3) 0.07919(9)
H31 H 0.3841 0.3887 0.0681
H32 H 0.3660 0.5358 0.0591
C40 C 0.3387(2) 0.4906(2) 0.12264(8)
H33 H 0.3042 0.5778 0.1245
C41 C 0.6821(3) 0.1749(3) 0.25556(8)
C42 C 0.7331(3) 0.2810(3) 0.28236(9)
H34 H 0.6623 0.3124 0.2996
H35 H 0.7646 0.3484 0.2646
H36 H 0.8055 0.2509 0.3003
loop_
_geom_bond_atom_site_label_1
_geom_bond_atom_site_label_2
_geom_bond_site_symmetry_1
_geom_bond_site_symmetry_2
Br1 C1 1_555 1_555
N1 H1 1_555 1_555
O1 C3 1_555 1_555
O2 C4 1_555 1_555
O3 C20 1_555 1_555
C1 C2 1_555 1_555
C2 H2 1_555 1_555
C3 C2 1_555 1_555
C4 O1 1_555 1_555
H3 C4 1_555 1_555
H4 C4 1_555 1_555
C5 O2 1_555 1_555
C6 C5 1_555 1_555
H5 C6 1_555 1_555
C7 C1 1_555 1_555
C8 N1 1_555 1_555
H6 C8 1_555 1_555
C9 N1 1_555 1_555
C10 C9 1_555 1_555
H7 C10 1_555 1_555
C11 C10 1_555 1_555
H8 C11 1_555 1_555
C12 C11 1_555 1_555
C13 C12 1_555 1_555
H9 C13 1_555 1_555
C14 C9 1_555 1_555
C15 C14 1_555 1_555
H10 C15 1_555 1_555
C16 C15 1_555 1_555
H11 C16 1_555 1_555
C17 C16 1_555 1_555
H12 C17 1_555 1_555
C18 C17 1_555 1_555
H13 C18 1_555 1_555
H14 C18 1_555 1_555
C19 C8 1_555 1_555
H15 C19 1_555 1_555
C20 C12 1_555 1_555
C21 C20 1_555 1_555
H16 C21 1_555 1_555
H17 C21 1_555 1_555
H18 C21 1_555 1_555
Br2 C22 1_555 1_555
N2 H19 1_555 1_555
O4 C24 1_555 1_555
O5 C25 1_555 1_555
O6 C41 1_555 1_555
C22 C23 1_555 1_555
C23 H20 1_555 1_555
C24 C23 1_555 1_555
C25 O4 1_555 1_555
H21 C25 1_555 1_555
H22 C25 1_555 1_555
C26 O5 1_555 1_555
C27 C26 1_555 1_555
H23 C27 1_555 1_555
C28 C22 1_555 1_555
C29 N2 1_555 1_555
H24 C29 1_555 1_555
C30 N2 1_555 1_555
C31 C30 1_555 1_555
H25 C31 1_555 1_555
C32 C31 1_555 1_555
H26 C32 1_555 1_555
C33 C32 1_555 1_555
C34 C33 1_555 1_555
H27 C34 1_555 1_555
C35 C30 1_555 1_555
C36 C35 1_555 1_555
H28 C36 1_555 1_555
C37 C36 1_555 1_555
H29 C37 1_555 1_555
C38 C37 1_555 1_555
H30 C38 1_555 1_555
C39 C38 1_555 1_555
H31 C39 1_555 1_555
H32 C39 1_555 1_555
C40 C29 1_555 1_555
H33 C40 1_555 1_555
C41 C33 1_555 1_555
C42 C41 1_555 1_555
H34 C42 1_555 1_555
H35 C42 1_555 1_555
H36 C42 1_555 1_555
C3 C5 1_555 1_555
C6 C7 1_555 1_555
C7 C8 1_555 1_555
C13 C14 1_555 1_555
C15 C19 1_555 1_555
C18 C19 1_555 1_555
C24 C26 1_555 1_555
C27 C28 1_555 1_555
C28 C29 1_555 1_555
C34 C35 1_555 1_555
C36 C40 1_555 1_555
C39 C40 1_555 1_555

#END
