
#######################################################################
#
#                 Cambridge Crystallographic Data Centre
#                                CCDC 
#
#######################################################################
#
# If this CIF has been generated from an entry in the Cambridge 
# Structural Database, then it will include bibliographic, chemical, 
# crystal, experimental, refinement or atomic coordinate data resulting 
# from the CCDC's data processing and validation procedures.
#
#######################################################################

data_VUVBEU
_chemical_formula_moiety         'C24 H24 O4 S1'
_chemical_name_systematic        
(Z)-1-(4-Methoxyphenyl)-2-((4-methylphenyl)sulfonyl)-3-phenylbut-2-en-1-ol
_symmetry_cell_setting           monoclinic
_symmetry_space_group_name_H-M   'P 21/c'
_symmetry_Int_Tables_number      14
_space_group_name_Hall           '-P 2ybc'
loop_
_symmetry_equiv_pos_site_id
_symmetry_equiv_pos_as_xyz
1 x,y,z
2 -x,1/2+y,1/2-z
3 -x,-y,-z
4 x,1/2-y,1/2+z
_cell_length_a                   13.5000(11)
_cell_length_b                   14.7630(12)
_cell_length_c                   11.2969(9)
_cell_angle_alpha                90
_cell_angle_beta                 112.3020(10)
_cell_angle_gamma                90
_cell_volume                     2083.06
_chemical_melting_point          136-138deg.C
_cell_formula_units_Z            4
loop_
_atom_site_label
_atom_site_type_symbol
_atom_site_fract_x
_atom_site_fract_y
_atom_site_fract_z
C1 C -0.50296(19) 0.3954(2) 0.3698(3)
H1 H -0.5500 0.3443 0.3405
H2 H -0.5006 0.4281 0.2975
H3 H -0.5289 0.4344 0.4196
O1 O -0.04856(10) 0.17840(9) 0.61390(13)
S1 S -0.06175(3) 0.25342(3) 0.68759(4)
C2 C -0.39163(17) 0.36271(16) 0.4514(2)
O2 O -0.05636(10) 0.23437(9) 0.81517(12)
C3 C -0.36490(16) 0.34164(16) 0.5787(2)
H4 H -0.4161 0.3481 0.6147
O3 O 0.12279(11) 0.31920(11) 0.53777(12)
H5 H 0.0674 0.2992 0.4837
C4 C -0.26376(15) 0.31105(13) 0.65392(19)
H6 H -0.2465 0.2979 0.7399
O4 O 0.53922(12) 0.37810(12) 1.03490(15)
C5 C -0.18892(14) 0.30043(12) 0.59935(17)
C6 C -0.21389(16) 0.32091(15) 0.47213(19)
H7 H -0.1631 0.3135 0.4358
C7 C -0.31481(18) 0.35243(17) 0.3993(2)
H8 H -0.3315 0.3670 0.3138
C8 C 0.03695(13) 0.33497(12) 0.69153(16)
C9 C 0.12883(14) 0.29351(13) 0.66206(17)
H9 H 0.1217 0.2275 0.6630
C10 C 0.23912(14) 0.31831(12) 0.75830(18)
C11 C 0.26341(16) 0.30622(14) 0.88821(19)
H10 H 0.2110 0.2848 0.9158
C12 C 0.36428(16) 0.32553(15) 0.9770(2)
H11 H 0.3793 0.3162 1.0636
C13 C 0.44312(15) 0.35854(14) 0.9387(2)
C14 C 0.42099(16) 0.36948(16) 0.8105(2)
H12 H 0.4738 0.3905 0.7832
C15 C 0.31958(15) 0.34903(15) 0.7214(2)
H13 H 0.3056 0.3562 0.6348
C16 C 0.62421(18) 0.4071(2) 0.9995(3)
H14 H 0.6398 0.3608 0.9495
H15 H 0.6866 0.4185 1.0751
H16 H 0.6037 0.4617 0.9499
C17 C 0.02409(14) 0.42336(12) 0.70976(17)
C18 C 0.09879(16) 0.49438(13) 0.6957(2)
H17 H 0.1475 0.4670 0.6627
H18 H 0.1384 0.5209 0.7777
H19 H 0.0581 0.5405 0.6377
C19 C -0.06407(13) 0.46101(12) 0.74430(17)
C20 C -0.07176(15) 0.44046(13) 0.85956(18)
H20 H -0.0238 0.3998 0.9152
C21 C -0.15056(16) 0.48007(15) 0.8928(2)
H21 H -0.1550 0.4664 0.9710
C22 C -0.22222(17) 0.53954(15) 0.8104(2)
H22 H -0.2757 0.5654 0.8324
C23 C -0.21493(16) 0.56081(14) 0.6958(2)
H23 H -0.2637 0.6009 0.6400
C24 C -0.13561(15) 0.52293(13) 0.6631(2)
H24 H -0.1298 0.5388 0.5863
loop_
_geom_bond_atom_site_label_1
_geom_bond_atom_site_label_2
_geom_bond_site_symmetry_1
_geom_bond_site_symmetry_2
C1 H1 1_555 1_555
H2 C1 1_555 1_555
H3 C1 1_555 1_555
O1 S1 1_555 1_555
S1 O2 1_555 1_555
C2 C1 1_555 1_555
C3 C2 1_555 1_555
H4 C3 1_555 1_555
O3 H5 1_555 1_555
C4 C3 1_555 1_555
H6 C4 1_555 1_555
O4 C13 1_555 1_555
C5 S1 1_555 1_555
C6 C5 1_555 1_555
H7 C6 1_555 1_555
C7 C2 1_555 1_555
H8 C7 1_555 1_555
C8 S1 1_555 1_555
C9 O3 1_555 1_555
H9 C9 1_555 1_555
C10 C9 1_555 1_555
C11 C10 1_555 1_555
H10 C11 1_555 1_555
C12 C11 1_555 1_555
H11 C12 1_555 1_555
C13 C12 1_555 1_555
C14 C13 1_555 1_555
H12 C14 1_555 1_555
C15 C10 1_555 1_555
H13 C15 1_555 1_555
C16 O4 1_555 1_555
H14 C16 1_555 1_555
H15 C16 1_555 1_555
H16 C16 1_555 1_555
C17 C8 1_555 1_555
C18 C17 1_555 1_555
H17 C18 1_555 1_555
H18 C18 1_555 1_555
H19 C18 1_555 1_555
C19 C17 1_555 1_555
C20 C19 1_555 1_555
H20 C20 1_555 1_555
C21 C20 1_555 1_555
H21 C21 1_555 1_555
C22 C21 1_555 1_555
H22 C22 1_555 1_555
C23 C22 1_555 1_555
H23 C23 1_555 1_555
C24 C19 1_555 1_555
H24 C24 1_555 1_555
C4 C5 1_555 1_555
C6 C7 1_555 1_555
C8 C9 1_555 1_555
C14 C15 1_555 1_555
C23 C24 1_555 1_555

#END
