
#######################################################################
#
#                 Cambridge Crystallographic Data Centre
#                                CCDC 
#
#######################################################################
#
# If this CIF has been generated from an entry in the Cambridge 
# Structural Database, then it will include bibliographic, chemical, 
# crystal, experimental, refinement or atomic coordinate data resulting 
# from the CCDC's data processing and validation procedures.
#
#######################################################################

data_VUVQIO
_chemical_formula_moiety         'C23 H17 N1'
_chemical_name_systematic        2,3,5-triphenylpyridine
_symmetry_cell_setting           monoclinic
_symmetry_space_group_name_H-M   'P 21/n'
_symmetry_Int_Tables_number      14
_space_group_name_Hall           '-P 2yn'
loop_
_symmetry_equiv_pos_site_id
_symmetry_equiv_pos_as_xyz
1 x,y,z
2 1/2-x,1/2+y,1/2-z
3 -x,-y,-z
4 1/2+x,1/2-y,1/2+z
_cell_length_a                   5.987(2)
_cell_length_b                   17.808(6)
_cell_length_c                   15.996(6)
_cell_angle_alpha                90
_cell_angle_beta                 91.375(6)
_cell_angle_gamma                90
_cell_volume                     1704.95
_cell_formula_units_Z            4
loop_
_atom_site_label
_atom_site_type_symbol
_atom_site_fract_x
_atom_site_fract_y
_atom_site_fract_z
N1 N 0.0793(5) 0.32197(15) 0.6985(2)
C1 C -0.1954(5) 0.43941(17) 0.6502(2)
H1 H -0.2885 0.4791 0.6345
C2 C -0.3718(6) 0.36046(18) 0.5361(2)
C3 C 0.0900(5) 0.38785(16) 0.7402(2)
C4 C -0.0427(5) 0.44889(16) 0.7162(2)
C5 C -0.2113(5) 0.37173(17) 0.6071(2)
C6 C -0.0652(6) 0.31543(17) 0.6345(2)
H2 H -0.0690 0.2700 0.6058
C7 C -0.5780(6) 0.3966(2) 0.5340(2)
H3 H -0.6165 0.4280 0.5778
C8 C -0.0259(5) 0.52455(16) 0.7565(2)
C9 C 0.2508(5) 0.38825(17) 0.8123(2)
C10 C -0.2037(6) 0.55290(19) 0.8000(2)
H4 H -0.3340 0.5249 0.8045
C11 C -0.7260(7) 0.3861(2) 0.4675(3)
H5 H -0.8634 0.4104 0.4669
C12 C 0.4536(6) 0.3511(2) 0.8074(3)
H6 H 0.4896 0.3267 0.7581
C13 C 0.2039(7) 0.4231(2) 0.8874(2)
H7 H 0.0690 0.4483 0.8927
C14 C 0.1760(8) 0.6383(2) 0.7857(3)
H8 H 0.3036 0.6674 0.7797
C15 C -0.4718(9) 0.3044(3) 0.4025(3)
H9 H -0.4349 0.2738 0.3578
C16 C -0.3212(7) 0.3133(2) 0.4691(3)
H10 H -0.1856 0.2879 0.4691
C17 C -0.1872(8) 0.6232(2) 0.8368(3)
H11 H -0.3075 0.6422 0.8659
C18 C 0.1624(6) 0.56776(19) 0.7485(3)
H12 H 0.2815 0.5498 0.7181
C19 C 0.0029(8) 0.6649(2) 0.8310(3)
H13 H 0.0143 0.7112 0.8577
C20 C -0.6721(9) 0.3399(3) 0.4019(3)
H14 H -0.7728 0.3330 0.3574
C21 C 0.6032(7) 0.3496(2) 0.8746(4)
H15 H 0.7387 0.3245 0.8702
C22 C 0.3533(8) 0.4211(3) 0.9543(3)
H16 H 0.3179 0.4445 1.0042
C23 C 0.5518(9) 0.3851(3) 0.9475(3)
H17 H 0.6530 0.3845 0.9925
loop_
_geom_bond_atom_site_label_1
_geom_bond_atom_site_label_2
_geom_bond_site_symmetry_1
_geom_bond_site_symmetry_2
N1 C3 1_555 1_555
C1 H1 1_555 1_555
C2 C5 1_555 1_555
C3 C4 1_555 1_555
C4 C1 1_555 1_555
C5 C1 1_555 1_555
C6 N1 1_555 1_555
H2 C6 1_555 1_555
C7 C2 1_555 1_555
H3 C7 1_555 1_555
C8 C4 1_555 1_555
C9 C3 1_555 1_555
C10 C8 1_555 1_555
H4 C10 1_555 1_555
C11 C7 1_555 1_555
H5 C11 1_555 1_555
C12 C9 1_555 1_555
H6 C12 1_555 1_555
C13 C9 1_555 1_555
H7 C13 1_555 1_555
C14 H8 1_555 1_555
C15 H9 1_555 1_555
C16 C2 1_555 1_555
H10 C16 1_555 1_555
C17 C10 1_555 1_555
H11 C17 1_555 1_555
C18 C8 1_555 1_555
H12 C18 1_555 1_555
C19 C14 1_555 1_555
H13 C19 1_555 1_555
C20 C11 1_555 1_555
H14 C20 1_555 1_555
C21 C12 1_555 1_555
H15 C21 1_555 1_555
C22 C13 1_555 1_555
H16 C22 1_555 1_555
C23 C21 1_555 1_555
H17 C23 1_555 1_555
C5 C6 1_555 1_555
C14 C18 1_555 1_555
C15 C16 1_555 1_555
C15 C20 1_555 1_555
C17 C19 1_555 1_555
C22 C23 1_555 1_555

#END
