
#######################################################################
#
#                 Cambridge Crystallographic Data Centre
#                                CCDC 
#
#######################################################################
#
# If this CIF has been generated from an entry in the Cambridge 
# Structural Database, then it will include bibliographic, chemical, 
# crystal, experimental, refinement or atomic coordinate data resulting 
# from the CCDC's data processing and validation procedures.
#
#######################################################################

data_VUVROU
_chemical_formula_moiety         'C28 H25 N3 O1 Si1'
_chemical_name_systematic        
2-(1H-Imidazol-1-ylmethyl)-6-(((triphenylsilyl)oxy)methyl)pyridine
_symmetry_cell_setting           monoclinic
_symmetry_space_group_name_H-M   'P 21/c'
_symmetry_Int_Tables_number      14
_space_group_name_Hall           '-P 2ybc'
loop_
_symmetry_equiv_pos_site_id
_symmetry_equiv_pos_as_xyz
1 x,y,z
2 -x,1/2+y,1/2-z
3 -x,-y,-z
4 x,1/2-y,1/2+z
_cell_length_a                   9.9518(11)
_cell_length_b                   23.709(3)
_cell_length_c                   10.7519(12)
_cell_angle_alpha                90
_cell_angle_beta                 113.432(2)
_cell_angle_gamma                90
_cell_volume                     2327.67
_exptl_crystal_colour            colorless
_exptl_crystal_description       plate
_chemical_melting_point          '89 deg.C'
_cell_formula_units_Z            4
loop_
_atom_site_label
_atom_site_type_symbol
_atom_site_fract_x
_atom_site_fract_y
_atom_site_fract_z
Si1 Si 0.47039(5) 0.13546(2) 0.19947(5)
O1 O 0.53796(13) 0.07811(5) 0.16143(12)
N1 N 0.84892(15) -0.01442(6) 0.29870(14)
N2 N 1.19414(16) -0.08112(6) 0.32997(14)
N3 N 1.37771(17) -0.06890(7) 0.26436(15)
C1 C 0.62673(19) 0.03757(7) 0.25600(17)
H1 H 0.5641 0.0075 0.2683
H2 H 0.6803 0.0558 0.3449
C2 C 0.73433(18) 0.01229(7) 0.20509(17)
C3 C 0.71360(19) 0.01617(7) 0.06967(17)
H3 H 0.6324 0.0361 0.0065
C4 C 0.81385(19) -0.00970(7) 0.02908(17)
H4 H 0.8014 -0.0085 -0.0632
C5 C 0.93247(19) -0.03737(7) 0.12419(17)
H5 H 1.0031 -0.0552 0.0985
C6 C 0.94653(18) -0.03862(7) 0.25767(17)
C7 C 1.07472(19) -0.06635(8) 0.36997(17)
H6 H 1.1124 -0.0404 0.4485
H7 H 1.0400 -0.1010 0.3993
C8 C 1.2139(2) -0.13165(8) 0.2766(2)
H8 H 1.1596 -0.1654 0.2684
C9 C 1.3269(2) -0.12334(8) 0.23825(19)
H9 H 1.3657 -0.1514 0.1987
C10 C 1.29438(19) -0.04518(8) 0.31876(17)
H10 H 1.3036 -0.0069 0.3471
C11 C 0.33766(19) 0.11933(7) 0.27834(17)
C12 C 0.18643(19) 0.11680(7) 0.20099(18)
H11 H 0.1497 0.1259 0.1073
C13 C 0.0892(2) 0.10134(8) 0.25823(19)
H12 H -0.0128 0.0997 0.2038
C14 C 0.1415(2) 0.08823(7) 0.39537(19)
H13 H 0.0753 0.0774 0.4348
C15 C 0.2900(2) 0.09102(7) 0.47432(18)
H14 H 0.3258 0.0824 0.5682
C16 C 0.3866(2) 0.10639(7) 0.41671(17)
H15 H 0.4884 0.1082 0.4721
C17 C 0.37206(18) 0.17071(7) 0.03290(17)
C18 C 0.3381(2) 0.14257(8) -0.08993(18)
H16 H 0.3726 0.1052 -0.0900
C19 C 0.2543(2) 0.16861(8) -0.21230(19)
H17 H 0.2317 0.1490 -0.2952
C20 C 0.2037(2) 0.22303(8) -0.21353(19)
H18 H 0.1448 0.2404 -0.2971
C21 C 0.23884(19) 0.25217(8) -0.09304(19)
H19 H 0.2056 0.2898 -0.0937
C22 C 0.32271(19) 0.22612(8) 0.02852(18)
H20 H 0.3472 0.2464 0.1108
C23 C 0.62228(19) 0.17980(8) 0.31894(17)
C24 C 0.7641(2) 0.17615(9) 0.3227(2)
H21 H 0.7853 0.1488 0.2684
C25 C 0.8743(2) 0.21185(10) 0.4046(3)
H22 H 0.9703 0.2086 0.4066
C26 C 0.8453(2) 0.25193(9) 0.4829(2)
H23 H 0.9204 0.2769 0.5369
C27 C 0.7074(2) 0.25588(9) 0.4833(2)
H24 H 0.6878 0.2829 0.5391
C28 C 0.5978(2) 0.22025(8) 0.40192(18)
H25 H 0.5029 0.2234 0.4025
loop_
_geom_bond_atom_site_label_1
_geom_bond_atom_site_label_2
_geom_bond_site_symmetry_1
_geom_bond_site_symmetry_2
Si1 O1 1_555 1_555
O1 C1 1_555 1_555
N1 C2 1_555 1_555
N2 C7 1_555 1_555
N3 C9 1_555 1_555
C1 H1 1_555 1_555
H2 C1 1_555 1_555
C2 C1 1_555 1_555
C3 C2 1_555 1_555
H3 C3 1_555 1_555
C4 C3 1_555 1_555
H4 C4 1_555 1_555
C5 C4 1_555 1_555
H5 C5 1_555 1_555
C6 N1 1_555 1_555
C7 C6 1_555 1_555
H6 C7 1_555 1_555
H7 C7 1_555 1_555
C8 N2 1_555 1_555
H8 C8 1_555 1_555
C9 C8 1_555 1_555
H9 C9 1_555 1_555
C10 N2 1_555 1_555
H10 C10 1_555 1_555
C11 Si1 1_555 1_555
C12 C11 1_555 1_555
H11 C12 1_555 1_555
C13 C12 1_555 1_555
H12 C13 1_555 1_555
C14 C13 1_555 1_555
H13 C14 1_555 1_555
C15 C14 1_555 1_555
H14 C15 1_555 1_555
C16 C11 1_555 1_555
H15 C16 1_555 1_555
C17 Si1 1_555 1_555
C18 C17 1_555 1_555
H16 C18 1_555 1_555
C19 C18 1_555 1_555
H17 C19 1_555 1_555
C20 C19 1_555 1_555
H18 C20 1_555 1_555
C21 C20 1_555 1_555
H19 C21 1_555 1_555
C22 C17 1_555 1_555
H20 C22 1_555 1_555
C23 Si1 1_555 1_555
C24 C23 1_555 1_555
H21 C24 1_555 1_555
C25 C24 1_555 1_555
H22 C25 1_555 1_555
C26 C25 1_555 1_555
H23 C26 1_555 1_555
C27 C26 1_555 1_555
H24 C27 1_555 1_555
C28 C23 1_555 1_555
H25 C28 1_555 1_555
N3 C10 1_555 1_555
C5 C6 1_555 1_555
C15 C16 1_555 1_555
C21 C22 1_555 1_555
C27 C28 1_555 1_555

#END
