
#######################################################################
#
#                 Cambridge Crystallographic Data Centre
#                                CCDC 
#
#######################################################################
#
# If this CIF has been generated from an entry in the Cambridge 
# Structural Database, then it will include bibliographic, chemical, 
# crystal, experimental, refinement or atomic coordinate data resulting 
# from the CCDC's data processing and validation procedures.
#
#######################################################################

data_VUVSUC
_chemical_formula_moiety         'C21 H21 F3 N2 O2 S1'
_chemical_name_systematic        
7-methyl-5-((4-methylphenyl)sulfonyl)-2-phenyl-7-(2,2,2-trifluoroethyl)-1,5-diazaspiro[2.4]hept-1-ene
_symmetry_cell_setting           triclinic
_symmetry_space_group_name_H-M   'P -1'
_symmetry_Int_Tables_number      2
_space_group_name_Hall           '-P 1'
loop_
_symmetry_equiv_pos_site_id
_symmetry_equiv_pos_as_xyz
1 x,y,z
2 -x,-y,-z
_cell_length_a                   10.3873(10)
_cell_length_b                   10.7449(11)
_cell_length_c                   11.3895(15)
_cell_angle_alpha                71.571(10)
_cell_angle_beta                 74.525(10)
_cell_angle_gamma                66.703(9)
_cell_volume                     1092.91
_exptl_crystal_colour            'light colorless'
_exptl_crystal_description       plate
_cell_formula_units_Z            2
loop_
_atom_site_label
_atom_site_type_symbol
_atom_site_fract_x
_atom_site_fract_y
_atom_site_fract_z
S1 S 0.47930(8) 0.20852(8) 1.11586(8)
F1 F 0.8088(3) 0.0014(4) 0.7225(3)
F2 F 0.8843(4) 0.1476(3) 0.5779(2)
C1 C 1.1557(3) 0.3687(3) 0.9036(3)
H1 H 1.1910 0.2859 0.9619
C2 C 1.0506(5) 0.6140(4) 0.7335(4)
H2 H 1.0158 0.6974 0.6756
C3 C 0.7923(3) 0.2180(3) 0.8365(3)
N1 N 0.6006(3) 0.2464(2) 1.0029(2)
O1 O 0.4046(2) 0.1541(2) 1.0673(2)
C4 C 1.2321(4) 0.4556(4) 0.8517(4)
H3 H 1.3199 0.4322 0.8744
C5 C 0.7210(4) 0.3457(3) 0.7370(3)
H4 H 0.6468 0.4135 0.7780
H5 H 0.6813 0.3170 0.6872
H6 H 0.7904 0.3860 0.6840
C6 C 0.7845(5) -0.2578(6) 1.5169(4)
H7 H 0.7253 -0.3122 1.5649
H8 H 0.8059 -0.2188 1.5713
H9 H 0.8712 -0.3164 1.4775
F3 F 1.0294(3) -0.0472(3) 0.6558(2)
C7 C 0.8253(3) 0.2688(3) 0.9323(2)
C8 C 0.9718(4) 0.5279(3) 0.7861(3)
H10 H 0.8826 0.5536 0.7652
O2 O 0.4054(3) 0.3296(2) 1.1650(2)
N2 N 0.9627(3) 0.1848(2) 0.9879(2)
C9 C 1.1804(5) 0.5777(5) 0.7660(4)
H11 H 1.2340 0.6361 0.7298
C10 C 1.0242(3) 0.4038(3) 0.8695(3)
C11 C 0.6723(4) -0.1682(4) 1.3221(4)
H12 H 0.6960 -0.2605 1.3198
C12 C 0.6699(4) -0.0041(6) 1.4188(3)
H13 H 0.6933 0.0165 1.4821
C13 C 0.9095(5) 0.0551(4) 0.6850(4)
C14 C 0.9479(3) 0.3063(3) 0.9202(3)
C15 C 0.7068(4) -0.1404(5) 1.4165(3)
C16 C 0.9255(3) 0.1139(3) 0.7810(3)
H14 H 0.9961 0.1591 0.7432
H15 H 0.9627 0.0368 0.8493
C17 C 0.6906(3) 0.3118(3) 1.0238(3)
H16 H 0.7091 0.2774 1.1094
H17 H 0.6464 0.4125 1.0062
C18 C 0.6854(3) 0.1486(3) 0.9218(3)
H18 H 0.6265 0.1401 0.8734
H19 H 0.7332 0.0569 0.9707
C19 C 0.6032(4) -0.0628(3) 1.2300(3)
H20 H 0.5824 -0.0839 1.1655
C20 C 0.5985(4) 0.1044(4) 1.3290(3)
H21 H 0.5734 0.1964 1.3327
C21 C 0.5652(3) 0.0746(3) 1.2345(3)
loop_
_geom_bond_atom_site_label_1
_geom_bond_atom_site_label_2
_geom_bond_site_symmetry_1
_geom_bond_site_symmetry_2
S1 N1 1_555 1_555
F1 C13 1_555 1_555
F2 C13 1_555 1_555
C1 H1 1_555 1_555
C2 H2 1_555 1_555
C3 C5 1_555 1_555
N1 C17 1_555 1_555
O1 S1 1_555 1_555
C4 C1 1_555 1_555
H3 C4 1_555 1_555
C5 H4 1_555 1_555
H5 C5 1_555 1_555
H6 C5 1_555 1_555
C6 H7 1_555 1_555
H8 C6 1_555 1_555
H9 C6 1_555 1_555
F3 C13 1_555 1_555
C7 C3 1_555 1_555
C8 C2 1_555 1_555
H10 C8 1_555 1_555
O2 S1 1_555 1_555
N2 C7 1_555 1_555
C9 C2 1_555 1_555
H11 C9 1_555 1_555
C10 C1 1_555 1_555
C11 H12 1_555 1_555
C12 H13 1_555 1_555
C13 C16 1_555 1_555
C14 C7 1_555 1_555
C15 C6 1_555 1_555
C16 C3 1_555 1_555
H14 C16 1_555 1_555
H15 C16 1_555 1_555
C17 C7 1_555 1_555
H16 C17 1_555 1_555
H17 C17 1_555 1_555
C18 C3 1_555 1_555
H18 C18 1_555 1_555
H19 C18 1_555 1_555
C19 C11 1_555 1_555
H20 C19 1_555 1_555
C20 C12 1_555 1_555
H21 C20 1_555 1_555
C21 S1 1_555 1_555
N1 C18 1_555 1_555
C4 C9 1_555 1_555
C8 C10 1_555 1_555
N2 C14 1_555 1_555
C10 C14 1_555 1_555
C11 C15 1_555 1_555
C12 C15 1_555 1_555
C19 C21 1_555 1_555
C20 C21 1_555 1_555

#END
