
#######################################################################
#
#                 Cambridge Crystallographic Data Centre
#                                CCDC 
#
#######################################################################
#
# If this CIF has been generated from an entry in the Cambridge 
# Structural Database, then it will include bibliographic, chemical, 
# crystal, experimental, refinement or atomic coordinate data resulting 
# from the CCDC's data processing and validation procedures.
#
#######################################################################

data_VUVWEP
_chemical_formula_moiety         'C31 H27 N1 O2'
_chemical_name_systematic        
(R)-2-(Mesitoylamino)-2'-methoxy-1,1'-binaphthyl
_symmetry_cell_setting           orthorhombic
_symmetry_space_group_name_H-M   'P 21 21 21'
_symmetry_Int_Tables_number      19
_space_group_name_Hall           'P 2ac 2ab'
loop_
_symmetry_equiv_pos_site_id
_symmetry_equiv_pos_as_xyz
1 x,y,z
2 1/2+x,1/2-y,-z
3 -x,1/2+y,1/2-z
4 1/2-x,-y,1/2+z
_cell_length_a                   8.0229(16)
_cell_length_b                   17.250(3)
_cell_length_c                   20.727(4)
_cell_angle_alpha                90
_cell_angle_beta                 90
_cell_angle_gamma                90
_cell_volume                     2868.51
_exptl_crystal_colour            colorless
_exptl_crystal_description       block
_chemical_melting_point          '148-150 deg.C'
_cell_formula_units_Z            4
_exptl_crystal_recrystallization_method toluene
loop_
_atom_site_label
_atom_site_type_symbol
_atom_site_fract_x
_atom_site_fract_y
_atom_site_fract_z
O1 O 0.5098(2) 0.83745(11) 0.11826(8)
O2 O 0.7286(2) 0.58398(10) 0.17475(8)
N1 N 0.8229(3) 0.70084(12) 0.21114(10)
H1 H 0.815(4) 0.7323(16) 0.2468(14)
C1 C 0.8389(3) 0.80849(13) 0.13693(10)
C2 C 0.8762(3) 0.73196(13) 0.15137(11)
C3 C 0.9677(3) 0.68535(14) 0.10731(12)
H2 H 0.9936 0.6332 0.1182
C4 C 1.0186(3) 0.71487(14) 0.04962(11)
H3 H 1.0794 0.6830 0.0206
C5 C 0.9820(3) 0.79249(14) 0.03227(10)
C6 C 0.8923(3) 0.84030(13) 0.07656(11)
C7 C 0.8584(3) 0.91782(14) 0.05867(11)
H4 H 0.7969 0.9500 0.0872
C8 C 0.9123(3) 0.94746(16) 0.00103(12)
H5 H 0.8879 0.9997 -0.0099
C9 C 1.0041(3) 0.90058(16) -0.04234(12)
H6 H 1.0434 0.9217 -0.0819
C10 C 1.0360(3) 0.82489(15) -0.02715(11)
H7 H 1.0954 0.7934 -0.0569
C11 C 0.7421(3) 0.85701(12) 0.18379(10)
C12 C 0.5742(3) 0.87035(14) 0.17311(12)
C13 C 0.4787(3) 0.91593(14) 0.21606(12)
H8 H 0.3634 0.9242 0.2081
C14 C 0.5527(3) 0.94816(15) 0.26915(12)
H9 H 0.4877 0.9788 0.2977
C15 C 0.7239(3) 0.93674(13) 0.28235(11)
C16 C 0.8200(3) 0.89024(13) 0.23921(11)
C17 C 0.9930(3) 0.87940(15) 0.25306(11)
H10 H 1.0589 0.8478 0.2255
C18 C 1.0649(3) 0.91401(17) 0.30561(12)
H11 H 1.1804 0.9066 0.3138
C19 C 0.9703(4) 0.96036(17) 0.34766(12)
H12 H 1.0221 0.9840 0.3839
C20 C 0.8036(3) 0.97155(15) 0.33661(11)
H13 H 0.7405 1.0028 0.3654
C21 C 0.7481(3) 0.63044(14) 0.21898(11)
C22 C 0.6905(3) 0.61334(15) 0.28632(12)
C23 C 0.8028(3) 0.58202(15) 0.33109(12)
C24 C 0.7434(4) 0.56203(18) 0.39194(13)
H14 H 0.8189 0.5412 0.4227
C25 C 0.5782(4) 0.5715(2) 0.40918(14)
C26 C 0.4704(4) 0.6045(2) 0.36419(14)
H15 H 0.3573 0.6127 0.3760
C27 C 0.5218(3) 0.62605(18) 0.30265(13)
C28 C 0.9851(4) 0.57271(18) 0.31477(13)
H16 H 1.0357 0.6239 0.3088
H17 H 0.9962 0.5426 0.2749
H18 H 1.0418 0.5455 0.3500
C29 C 0.5205(5) 0.5474(3) 0.47563(15)
H19 H 0.4416 0.5859 0.4923
H20 H 0.6168 0.5441 0.5046
H21 H 0.4658 0.4967 0.4731
C30 C 0.4030(4) 0.6614(2) 0.25501(16)
H22 H 0.4639 0.6965 0.2263
H23 H 0.3168 0.6904 0.2782
H24 H 0.3506 0.6202 0.2295
C31 C 0.3343(3) 0.84116(19) 0.10726(15)
H25 H 0.2756 0.8161 0.1431
H26 H 0.3072 0.8144 0.0669
H27 H 0.2996 0.8955 0.1042
loop_
_geom_bond_atom_site_label_1
_geom_bond_atom_site_label_2
_geom_bond_site_symmetry_1
_geom_bond_site_symmetry_2
O1 C12 1_555 1_555
O2 C21 1_555 1_555
N1 H1 1_555 1_555
C1 C2 1_555 1_555
C2 N1 1_555 1_555
C3 C2 1_555 1_555
H2 C3 1_555 1_555
C4 C3 1_555 1_555
H3 C4 1_555 1_555
C5 C4 1_555 1_555
C6 C1 1_555 1_555
C7 C6 1_555 1_555
H4 C7 1_555 1_555
C8 C7 1_555 1_555
H5 C8 1_555 1_555
C9 C8 1_555 1_555
H6 C9 1_555 1_555
C10 C5 1_555 1_555
H7 C10 1_555 1_555
C11 C1 1_555 1_555
C12 C11 1_555 1_555
C13 C12 1_555 1_555
H8 C13 1_555 1_555
C14 C13 1_555 1_555
H9 C14 1_555 1_555
C15 C14 1_555 1_555
C16 C11 1_555 1_555
C17 C16 1_555 1_555
H10 C17 1_555 1_555
C18 C17 1_555 1_555
H11 C18 1_555 1_555
C19 C18 1_555 1_555
H12 C19 1_555 1_555
C20 C15 1_555 1_555
H13 C20 1_555 1_555
C21 N1 1_555 1_555
C22 C21 1_555 1_555
C23 C22 1_555 1_555
C24 C23 1_555 1_555
H14 C24 1_555 1_555
C25 C24 1_555 1_555
C26 C25 1_555 1_555
H15 C26 1_555 1_555
C27 C22 1_555 1_555
C28 C23 1_555 1_555
H16 C28 1_555 1_555
H17 C28 1_555 1_555
H18 C28 1_555 1_555
C29 C25 1_555 1_555
H19 C29 1_555 1_555
H20 C29 1_555 1_555
H21 C29 1_555 1_555
C30 C27 1_555 1_555
H22 C30 1_555 1_555
H23 C30 1_555 1_555
H24 C30 1_555 1_555
C31 O1 1_555 1_555
H25 C31 1_555 1_555
H26 C31 1_555 1_555
H27 C31 1_555 1_555
C5 C6 1_555 1_555
C9 C10 1_555 1_555
C15 C16 1_555 1_555
C19 C20 1_555 1_555
C26 C27 1_555 1_555

#END
