
#######################################################################
#
#                 Cambridge Crystallographic Data Centre
#                                CCDC 
#
#######################################################################
#
# If this CIF has been generated from an entry in the Cambridge 
# Structural Database, then it will include bibliographic, chemical, 
# crystal, experimental, refinement or atomic coordinate data resulting 
# from the CCDC's data processing and validation procedures.
#
#######################################################################

data_VUWBOG
_chemical_formula_moiety         'C25 H31 O2 P1'
_chemical_name_systematic        
'2-Isopropyl-5-methylcyclohexyl benzyl(phenylethynyl)phosphinate'
_symmetry_cell_setting           monoclinic
_symmetry_space_group_name_H-M   'P 21'
_symmetry_Int_Tables_number      4
_space_group_name_Hall           'P 2yb'
loop_
_symmetry_equiv_pos_site_id
_symmetry_equiv_pos_as_xyz
1 x,y,z
2 -x,1/2+y,-z
_cell_length_a                   12.5595(12)
_cell_length_b                   5.6421(6)
_cell_length_c                   16.5825(16)
_cell_angle_alpha                90
_cell_angle_beta                 102.499(7)
_cell_angle_gamma                90
_cell_volume                     1147.22
_cell_formula_units_Z            2
loop_
_atom_site_label
_atom_site_type_symbol
_atom_site_fract_x
_atom_site_fract_y
_atom_site_fract_z
P1 P 0.31104(4) 0.67491(11) 0.74646(4)
O1 O 0.43818(11) 0.6542(3) 0.75294(9)
O2 O 0.27099(14) 0.9147(3) 0.75346(12)
C1 C 0.2526(2) 0.5450(5) 0.65162(17)
C2 C 0.2098(2) 0.4669(5) 0.58556(16)
C3 C 0.1552(2) 0.3854(5) 0.50579(15)
C4 C 0.1830(2) 0.1727(7) 0.47318(18)
H1 H 0.2387 0.0789 0.5031
C5 C 0.1265(3) 0.1022(6) 0.3955(2)
H2 H 0.1452 -0.0385 0.3728
C6 C 0.0441(3) 0.2377(7) 0.35230(18)
H3 H 0.0074 0.1897 0.3000
C7 C 0.0151(3) 0.4400(7) 0.38438(18)
H4 H -0.0430 0.5284 0.3550
C8 C 0.0708(2) 0.5169(5) 0.46040(16)
H5 H 0.0513 0.6595 0.4814
C9 C 0.17577(19) 0.4745(5) 0.84033(14)
C10 C 0.1059(2) 0.2897(5) 0.81305(17)
H6 H 0.1295 0.1655 0.7844
C11 C 0.0019(3) 0.2843(7) 0.8271(2)
H7 H -0.0443 0.1587 0.8073
C12 C -0.0328(3) 0.4599(9) 0.8693(3)
H8 H -0.1029 0.4551 0.8792
C13 C 0.0337(3) 0.6445(8) 0.8976(2)
H9 H 0.0092 0.7653 0.9271
C14 C 0.1387(3) 0.6550(7) 0.88275(17)
H10 H 0.1835 0.7837 0.9015
C15 C 0.50429(18) 0.8677(4) 0.74951(14)
H11 H 0.4677 1.0043 0.7680
C16 C 0.28965(19) 0.4734(5) 0.82479(15)
H12 H 0.3064 0.3143 0.8092
H13 H 0.3405 0.5121 0.8760
C17 C 0.5162(2) 0.9109(6) 0.66197(16)
H14 H 0.4447 0.9334 0.6264
H15 H 0.5495 0.7735 0.6423
C18 C 0.5859(2) 1.1276(6) 0.65759(18)
H16 H 0.5496 1.2644 0.6762
C19 C 0.6960(2) 1.0981(7) 0.71603(19)
H17 H 0.7351 0.9690 0.6968
H18 H 0.7383 1.2417 0.7156
C20 C 0.6850(2) 1.0471(6) 0.80351(18)
H19 H 0.6534 1.1843 0.8248
H20 H 0.7570 1.0217 0.8380
C21 C 0.61382(18) 0.8296(5) 0.80932(14)
H21 H 0.6488 0.6925 0.7896
C22 C 0.5965(3) 1.1757(10) 0.5686(2)
H22 H 0.5252 1.1937 0.5338
H23 H 0.6332 1.0451 0.5493
H24 H 0.6377 1.3182 0.5671
C23 C 0.6014(2) 0.7737(5) 0.89719(15)
H25 H 0.5519 0.6379 0.8928
C24 C 0.5499(3) 0.9711(7) 0.93735(17)
H26 H 0.4823 1.0174 0.9016
H27 H 0.5984 1.1046 0.9469
H28 H 0.5362 0.9167 0.9890
C25 C 0.7084(2) 0.6965(8) 0.95345(17)
H29 H 0.6965 0.6632 1.0076
H30 H 0.7612 0.8211 0.9569
H31 H 0.7349 0.5565 0.9313
loop_
_geom_bond_atom_site_label_1
_geom_bond_atom_site_label_2
_geom_bond_site_symmetry_1
_geom_bond_site_symmetry_2
P1 O1 1_555 1_555
O1 C15 1_555 1_555
O2 P1 1_555 1_555
C1 P1 1_555 1_555
C2 C1 1_555 1_555
C3 C2 1_555 1_555
C4 C3 1_555 1_555
H1 C4 1_555 1_555
C5 C4 1_555 1_555
H2 C5 1_555 1_555
C6 C5 1_555 1_555
H3 C6 1_555 1_555
C7 C6 1_555 1_555
H4 C7 1_555 1_555
C8 C3 1_555 1_555
H5 C8 1_555 1_555
C9 C10 1_555 1_555
C10 H6 1_555 1_555
C11 C10 1_555 1_555
H7 C11 1_555 1_555
C12 C11 1_555 1_555
H8 C12 1_555 1_555
C13 C12 1_555 1_555
H9 C13 1_555 1_555
C14 C9 1_555 1_555
H10 C14 1_555 1_555
C15 H11 1_555 1_555
C16 P1 1_555 1_555
H12 C16 1_555 1_555
H13 C16 1_555 1_555
C17 C15 1_555 1_555
H14 C17 1_555 1_555
H15 C17 1_555 1_555
C18 C17 1_555 1_555
H16 C18 1_555 1_555
C19 C18 1_555 1_555
H17 C19 1_555 1_555
H18 C19 1_555 1_555
C20 C19 1_555 1_555
H19 C20 1_555 1_555
H20 C20 1_555 1_555
C21 C15 1_555 1_555
H21 C21 1_555 1_555
C22 C18 1_555 1_555
H22 C22 1_555 1_555
H23 C22 1_555 1_555
H24 C22 1_555 1_555
C23 C21 1_555 1_555
H25 C23 1_555 1_555
C24 C23 1_555 1_555
H26 C24 1_555 1_555
H27 C24 1_555 1_555
H28 C24 1_555 1_555
C25 C23 1_555 1_555
H29 C25 1_555 1_555
H30 C25 1_555 1_555
H31 C25 1_555 1_555
C7 C8 1_555 1_555
C9 C16 1_555 1_555
C13 C14 1_555 1_555
C20 C21 1_555 1_555

#END
