
#######################################################################
#
#                 Cambridge Crystallographic Data Centre
#                                CCDC 
#
#######################################################################
#
# If this CIF has been generated from an entry in the Cambridge 
# Structural Database, then it will include bibliographic, chemical, 
# crystal, experimental, refinement or atomic coordinate data resulting 
# from the CCDC's data processing and validation procedures.
#
#######################################################################

data_VUWJIG
_chemical_compound_source        'Soft coral Lobophytum michaelae'
_chemical_formula_moiety         'C24 H32 O7'
_chemical_name_systematic        Lobomichaolide
_chemical_properties_biological  'cytotoxic activity'
_symmetry_cell_setting           monoclinic
_symmetry_space_group_name_H-M   'P 21'
_symmetry_Int_Tables_number      4
_space_group_name_Hall           'P 2yb'
loop_
_symmetry_equiv_pos_site_id
_symmetry_equiv_pos_as_xyz
1 x,y,z
2 -x,1/2+y,-z
_cell_length_a                   10.975(7)
_cell_length_b                   8.039(3)
_cell_length_c                   13.884(6)
_cell_angle_alpha                90
_cell_angle_beta                 100.86
_cell_angle_gamma                90
_cell_volume                     1203.02
_exptl_crystal_colour            colorless
_chemical_melting_point          180-181deg.C
_cell_formula_units_Z            2
loop_
_atom_site_label
_atom_site_type_symbol
_atom_site_fract_x
_atom_site_fract_y
_atom_site_fract_z
C1 C 0.1894(3) 1.0367(6) 0.9096(3)
C2 C 0.0547(3) 0.9884(5) 0.8648(3)
C3 C -0.0075(3) 1.0940(6) 0.7802(3)
C4 C -0.1307(3) 1.0563(6) 0.7248(3)
C5 C -0.2126(4) 1.1923(6) 0.6724(3)
C6 C -0.1504(4) 1.3578(7) 0.6542(3)
C7 C -0.0510(4) 1.3460(6) 0.5942(3)
C8 C 0.0550(4) 1.4281(6) 0.6063(3)
C9 C 0.1491(4) 1.3933(7) 0.5434(3)
C10 C 0.2710(4) 1.3253(6) 0.6030(3)
C11 C 0.2522(4) 1.1599(6) 0.6507(3)
C12 C 0.3230(3) 1.0995(6) 0.7295(3)
C13 C 0.2914(4) 0.9304(6) 0.7689(3)
C14 C 0.2894(3) 0.9286(6) 0.8775(3)
C15 C 0.1909(3) 1.0338(6) 1.0175(3)
C16 C 0.2834(4) 1.0367(8) 1.0924(3)
C17 C 0.0617(4) 1.0219(8) 1.0315(3)
C18 C -0.2009(4) 0.9054(8) 0.7455(3)
C19 C 0.0903(5) 1.5642(7) 0.6813(3)
C20 C 0.4422(4) 1.1760(7) 0.7798(3)
O1 O 0.3511(3) 1.3008(5) 0.53099(23)
C21 C 0.4549(5) 1.3864(10) 0.5391(4)
O2 O 0.4950(5) 1.4608(10) 0.6105(3)
C22 C 0.5194(5) 1.3684(11) 0.4575(4)
O3 O 0.0215(3) 1.0278(7) 1.10692(20)
O4 O 0.25978(23) 0.7592(4) 0.90343(19)
C23 C 0.3522(4) 0.6620(6) 0.9455(3)
O5 O 0.4578(3) 0.7009(4) 0.96047(24)
C24 C 0.3042(4) 0.4949(7) 0.9708(4)
O6 O -0.01508(23) 1.0059(5) 0.94358(18)
O7 O -0.02009(24) 1.01892 0.68593(18)
H1 H 0.054 0.869 0.841
H2 H 0.018 1.218 0.786
H3 H -0.255 1.149 0.605
H4 H -0.281 1.217 0.710
H5 H -0.219 1.436 0.620
H6 H -0.116 1.407 0.720
H7 H -0.065 1.259 0.538
H8 H 0.115 1.306 0.490
H9 H 0.164 1.498 0.506
H10 H 0.308 1.412 0.657
H11 H 0.178 1.090 0.615
H12 H 0.357 0.848 0.755
H13 H 0.209 0.894 0.731
H14 H 0.374 0.963 0.915
H15 H 0.202 1.157 0.889
H16 H -0.227 0.838 0.684
H17 H -0.147 0.834 0.796
H18 H -0.278 0.937 0.772
H19 H 0.027 1.659 0.669
H20 H 0.093 1.523 0.749
H21 H 0.174 1.614 0.677
H22 H 0.541 1.239 0.453
H23 H 0.462 1.391 0.392
H24 H 0.597 1.428 0.462
H25 H 0.504 1.182 0.736
H26 H 0.428 1.291 0.804
H27 H 0.479 1.107 0.839
H28 H 0.251 0.511 1.019
H29 H 0.262 0.440 0.911
H30 H 0.379 0.421 1.002
H31 H 0.260 1.051 1.159
H32 H 0.377 1.046 1.094
loop_
_geom_bond_atom_site_label_1
_geom_bond_atom_site_label_2
_geom_bond_site_symmetry_1
_geom_bond_site_symmetry_2
C1 C2 1_555 1_555
C2 C3 1_555 1_555
C3 C4 1_555 1_555
C4 C5 1_555 1_555
C5 C6 1_555 1_555
C6 C7 1_555 1_555
C7 C8 1_555 1_555
C8 C9 1_555 1_555
C9 C10 1_555 1_555
C10 C11 1_555 1_555
C11 C12 1_555 1_555
C12 C13 1_555 1_555
C13 C14 1_555 1_555
C14 C1 1_555 1_555
C15 C1 1_555 1_555
C16 C15 1_555 1_555
C17 C15 1_555 1_555
C18 C4 1_555 1_555
C19 C8 1_555 1_555
C20 C12 1_555 1_555
O1 C10 1_555 1_555
C21 O1 1_555 1_555
O2 C21 1_555 1_555
C22 C21 1_555 1_555
O3 C17 1_555 1_555
O4 C14 1_555 1_555
C23 O4 1_555 1_555
O5 C23 1_555 1_555
C24 C23 1_555 1_555
O6 C2 1_555 1_555
O7 C3 1_555 1_555
H1 C2 1_555 1_555
H2 C3 1_555 1_555
H3 C5 1_555 1_555
H4 C5 1_555 1_555
H5 C6 1_555 1_555
H6 C6 1_555 1_555
H7 C7 1_555 1_555
H8 C9 1_555 1_555
H9 C9 1_555 1_555
H10 C10 1_555 1_555
H11 C11 1_555 1_555
H12 C13 1_555 1_555
H13 C13 1_555 1_555
H14 C14 1_555 1_555
H15 C1 1_555 1_555
H16 C18 1_555 1_555
H17 C18 1_555 1_555
H18 C18 1_555 1_555
H19 C19 1_555 1_555
H20 C19 1_555 1_555
H21 C19 1_555 1_555
H22 C22 1_555 1_555
H23 C22 1_555 1_555
H24 C22 1_555 1_555
H25 C20 1_555 1_555
H26 C20 1_555 1_555
H27 C20 1_555 1_555
H28 C24 1_555 1_555
H29 C24 1_555 1_555
H30 C24 1_555 1_555
H31 C16 1_555 1_555
H32 C16 1_555 1_555
C4 O7 1_555 1_555
C17 O6 1_555 1_555

#END
