
#######################################################################
#
#                 Cambridge Crystallographic Data Centre
#                                CCDC 
#
#######################################################################
#
# If this CIF has been generated from an entry in the Cambridge 
# Structural Database, then it will include bibliographic, chemical, 
# crystal, experimental, refinement or atomic coordinate data resulting 
# from the CCDC's data processing and validation procedures.
#
#######################################################################

data_VUWKAB
_chemical_formula_moiety         'C12 H14 Br1 N1 O1 S1'
_chemical_name_systematic        
2-(2-bromophenyl)-1-(morpholin-4-yl)ethanethione
_symmetry_cell_setting           monoclinic
_symmetry_space_group_name_H-M   'P 21/c'
_symmetry_Int_Tables_number      14
_space_group_name_Hall           '-P 2ybc'
loop_
_symmetry_equiv_pos_site_id
_symmetry_equiv_pos_as_xyz
1 x,y,z
2 -x,1/2+y,1/2-z
3 -x,-y,-z
4 x,1/2-y,1/2+z
_cell_length_a                   7.8076(6)
_cell_length_b                   21.6310(10)
_cell_length_c                   8.2965(6)
_cell_angle_alpha                90
_cell_angle_beta                 117.508(9)
_cell_angle_gamma                90
_cell_volume                     1242.76
_exptl_crystal_colour            colorless
_exptl_crystal_description       prism
_chemical_melting_point          '388.15-399.15 K'
_cell_formula_units_Z            4
_exptl_crystal_recrystallization_method 'ethylacetate/ hexane'
loop_
_atom_site_label
_atom_site_type_symbol
_atom_site_fract_x
_atom_site_fract_y
_atom_site_fract_z
Br1 Br 0.94900(3) 0.65219(2) 1.06521(3)
S1 S 0.34247(9) 0.55073(3) 1.19881(8)
O1 O -0.0560(2) 0.58391(7) 0.4987(2)
N1 N 0.2563(3) 0.55924(8) 0.8496(3)
C1 C 0.0638(3) 0.53276(10) 0.7928(3)
H1 H 0.0403 0.5286 0.8973
H2 H 0.0570 0.4919 0.7417
C2 C 0.2899(3) 0.57201(10) 0.6921(3)
H3 H 0.2965 0.5334 0.6359
H4 H 0.4120 0.5934 0.7320
C3 C 0.1285(3) 0.61135(11) 0.5555(3)
H5 H 0.1309 0.6514 0.6088
H6 H 0.1494 0.6178 0.4502
C4 C 0.5643(3) 0.66613(9) 1.0178(3)
C5 C 0.7192(3) 0.69703(10) 1.0150(3)
C6 C 0.4018(3) 0.70141(10) 0.9842(3)
H7 H 0.2957 0.6825 0.9859
C7 C 0.3835(3) 0.56866(9) 1.0228(3)
C8 C 0.7146(4) 0.75975(11) 0.9794(3)
H8 H 0.8206 0.7790 0.9782
C9 C 0.3957(4) 0.76426(11) 0.9483(3)
H9 H 0.2855 0.7869 0.9256
C10 C -0.0887(3) 0.57414(11) 0.6523(3)
H10 H -0.2148 0.5554 0.6124
H11 H -0.0887 0.6137 0.7074
C11 C 0.5513(4) 0.79344(11) 0.9459(3)
H12 H 0.5464 0.8356 0.9219
C12 C 0.5754(3) 0.59732(9) 1.0609(3)
H13 H 0.6264 0.5758 0.9897
H14 H 0.6654 0.5913 1.1882
loop_
_geom_bond_atom_site_label_1
_geom_bond_atom_site_label_2
_geom_bond_site_symmetry_1
_geom_bond_site_symmetry_2
Br1 C5 1_555 1_555
S1 C7 1_555 1_555
O1 C3 1_555 1_555
N1 C1 1_555 1_555
C1 H1 1_555 1_555
H2 C1 1_555 1_555
C2 N1 1_555 1_555
H3 C2 1_555 1_555
H4 C2 1_555 1_555
C3 C2 1_555 1_555
H5 C3 1_555 1_555
H6 C3 1_555 1_555
C4 C5 1_555 1_555
C5 C8 1_555 1_555
C6 C4 1_555 1_555
H7 C6 1_555 1_555
C7 N1 1_555 1_555
C8 H8 1_555 1_555
C9 C6 1_555 1_555
H9 C9 1_555 1_555
C10 O1 1_555 1_555
H10 C10 1_555 1_555
H11 C10 1_555 1_555
C11 C8 1_555 1_555
H12 C11 1_555 1_555
C12 C4 1_555 1_555
H13 C12 1_555 1_555
H14 C12 1_555 1_555
C1 C10 1_555 1_555
C7 C12 1_555 1_555
C9 C11 1_555 1_555

#END
