
#######################################################################
#
#                 Cambridge Crystallographic Data Centre
#                                CCDC 
#
#######################################################################
#
# If this CIF has been generated from an entry in the Cambridge 
# Structural Database, then it will include bibliographic, chemical, 
# crystal, experimental, refinement or atomic coordinate data resulting 
# from the CCDC's data processing and validation procedures.
#
#######################################################################

data_VUWKIJ
_chemical_formula_moiety         'C30 H37 Cl1 O5'
_chemical_name_systematic        
'diethyl 7,9-di-t-butyl-4-(4-chlorophenyl)-8-oxospiro[4.5]deca-2,6,9-triene-1,1-dicarboxylate'
_symmetry_cell_setting           monoclinic
_symmetry_space_group_name_H-M   'P 21/n'
_symmetry_Int_Tables_number      14
_space_group_name_Hall           '-P 2yn'
loop_
_symmetry_equiv_pos_site_id
_symmetry_equiv_pos_as_xyz
1 x,y,z
2 1/2-x,1/2+y,1/2-z
3 -x,-y,-z
4 1/2+x,1/2-y,1/2+z
_cell_length_a                   9.7421(6)
_cell_length_b                   16.0093(9)
_cell_length_c                   19.0370(11)
_cell_angle_alpha                90
_cell_angle_beta                 94.910(2)
_cell_angle_gamma                90
_cell_volume                     2958.2
_exptl_crystal_colour            colorless
_exptl_crystal_description       block
_cell_formula_units_Z            4
_exptl_crystal_recrystallization_method 
'Re-crystallisation from solvent: DCM/n-hexane'
loop_
_atom_site_label
_atom_site_type_symbol
_atom_site_fract_x
_atom_site_fract_y
_atom_site_fract_z
C1 C 0.3332(5) 0.5774(2) 0.4360(3)
H1 H 0.2762 0.5656 0.3935
H2 H 0.2768 0.5973 0.4714
H3 H 0.3801 0.5274 0.4524
C2 C 0.5322(4) 0.6099(2) 0.3683(2)
H4 H 0.5782 0.5607 0.3872
H5 H 0.5993 0.6514 0.3590
H6 H 0.4784 0.5960 0.3253
C3 C 0.4384(3) 0.64376(17) 0.42121(15)
C4 C 0.5280(5) 0.6617(2) 0.4894(2)
H7 H 0.5788 0.6124 0.5039
H8 H 0.4704 0.6778 0.5256
H9 H 0.5910 0.7061 0.4816
C5 C 0.3661(3) 0.72300(14) 0.39314(12)
C6 C 0.3757(3) 0.79444(15) 0.42794(12)
H10 H 0.4304 0.7951 0.4704
C7 C 0.3068(2) 0.87363(14) 0.40512(12)
C8 C 0.2299(2) 0.86636(14) 0.33404(12)
H11 H 0.1876 0.9144 0.3152
C9 C 0.2168(2) 0.79785(15) 0.29559(12)
C10 C 0.2789(3) 0.71893(15) 0.32528(14)
C11 C 0.1407(3) 0.79639(17) 0.22151(14)
C12 C 0.0894(4) 0.8839(2) 0.19995(17)
H12 H 0.0279 0.9037 0.2331
H13 H 0.0415 0.8817 0.1538
H14 H 0.1665 0.9212 0.1995
C13 C 0.2401(4) 0.7664(3) 0.16851(17)
H15 H 0.3173 0.8037 0.1693
H16 H 0.1932 0.7656 0.1220
H17 H 0.2718 0.7112 0.1810
C14 C 0.0159(4) 0.7392(2) 0.2196(2)
H18 H 0.0456 0.6831 0.2301
H19 H -0.0324 0.7410 0.1735
H20 H -0.0442 0.7575 0.2539
C15 C 0.4127(3) 0.94889(15) 0.40285(14)
H21 H 0.4818 0.9430 0.4430
C16 C 0.3232(3) 1.02241(17) 0.41668(15)
H22 H 0.3467 1.0772 0.4069
C17 C 0.2091(3) 1.00187(17) 0.44372(15)
H23 H 0.1409 1.0397 0.4537
C18 C 0.2017(3) 0.90840(16) 0.45676(13)
C19 C 0.2485(3) 0.89658(17) 0.53523(14)
C20 C 0.1680(5) 0.8985(3) 0.64966(19)
H24 H 0.2654 0.9063 0.6632
H25 H 0.1172 0.9424 0.6712
C21 C 0.1256(9) 0.8210(6) 0.6716(3)
H26 H 0.0884 0.7825 0.6386
H27 H 0.1344 0.8073 0.7192
C22 C 0.4860(3) 0.94941(15) 0.33696(14)
C23 C 0.6026(3) 0.9018(2) 0.33264(17)
H28 H 0.6390 0.8729 0.3724
C24 C 0.6669(3) 0.8957(2) 0.2713(2)
H29 H 0.7444 0.8621 0.2693
C25 C 0.6156(4) 0.9394(2) 0.21335(18)
C26 C 0.5022(3) 0.9895(2) 0.21642(18)
H30 H 0.4683 1.0200 0.1771
C27 C 0.4394(3) 0.99439(17) 0.27790(16)
H31 H 0.3632 1.0290 0.2799
C28 C 0.0595(3) 0.87091(19) 0.44052(15)
C29 C -0.0694(4) 0.7458(3) 0.4453(3)
H32 H -0.1358 0.7704 0.4744
H33 H -0.1052 0.7511 0.3964
C30 C -0.0515(6) 0.6616(4) 0.4623(6)
H34 H 0.0212 0.6389 0.4371
H35 H -0.1354 0.6319 0.4495
H36 H -0.0278 0.6561 0.5121
Cl1 Cl 0.69432(13) 0.93106(9) 0.13481(6)
O1 O 0.1414(2) 0.90160(15) 0.57253(11)
O2 O 0.3649(2) 0.88883(16) 0.55938(11)
O3 O -0.0400(2) 0.90749(15) 0.41569(13)
O4 O 0.0611(2) 0.79025(13) 0.45647(12)
O5 O 0.2590(3) 0.65290(13) 0.29470(13)
loop_
_geom_bond_atom_site_label_1
_geom_bond_atom_site_label_2
_geom_bond_site_symmetry_1
_geom_bond_site_symmetry_2
C1 H1 1_555 1_555
H2 C1 1_555 1_555
H3 C1 1_555 1_555
C2 H4 1_555 1_555
H5 C2 1_555 1_555
H6 C2 1_555 1_555
C3 C1 1_555 1_555
C4 C3 1_555 1_555
H7 C4 1_555 1_555
H8 C4 1_555 1_555
H9 C4 1_555 1_555
C5 C3 1_555 1_555
C6 C5 1_555 1_555
H10 C6 1_555 1_555
C7 C6 1_555 1_555
C8 C7 1_555 1_555
H11 C8 1_555 1_555
C9 C8 1_555 1_555
C10 C5 1_555 1_555
C11 C9 1_555 1_555
C12 C11 1_555 1_555
H12 C12 1_555 1_555
H13 C12 1_555 1_555
H14 C12 1_555 1_555
C13 C11 1_555 1_555
H15 C13 1_555 1_555
H16 C13 1_555 1_555
H17 C13 1_555 1_555
C14 C11 1_555 1_555
H18 C14 1_555 1_555
H19 C14 1_555 1_555
H20 C14 1_555 1_555
C15 C7 1_555 1_555
H21 C15 1_555 1_555
C16 C15 1_555 1_555
H22 C16 1_555 1_555
C17 C16 1_555 1_555
H23 C17 1_555 1_555
C18 C7 1_555 1_555
C19 C18 1_555 1_555
C20 H24 1_555 1_555
H25 C20 1_555 1_555
C21 C20 1_555 1_555
H26 C21 1_555 1_555
H27 C21 1_555 1_555
C22 C15 1_555 1_555
C23 C22 1_555 1_555
H28 C23 1_555 1_555
C24 C23 1_555 1_555
H29 C24 1_555 1_555
C25 C24 1_555 1_555
C26 C25 1_555 1_555
H30 C26 1_555 1_555
C27 C22 1_555 1_555
H31 C27 1_555 1_555
C28 C18 1_555 1_555
C29 H32 1_555 1_555
H33 C29 1_555 1_555
C30 C29 1_555 1_555
H34 C30 1_555 1_555
H35 C30 1_555 1_555
H36 C30 1_555 1_555
Cl1 C25 1_555 1_555
O1 C19 1_555 1_555
O2 C19 1_555 1_555
O3 C28 1_555 1_555
O4 C28 1_555 1_555
O5 C10 1_555 1_555
C2 C3 1_555 1_555
C9 C10 1_555 1_555
C17 C18 1_555 1_555
C20 O1 1_555 1_555
C26 C27 1_555 1_555
C29 O4 1_555 1_555

#END
