
#######################################################################
#
#                 Cambridge Crystallographic Data Centre
#                                CCDC 
#
#######################################################################
#
# If this CIF has been generated from an entry in the Cambridge 
# Structural Database, then it will include bibliographic, chemical, 
# crystal, experimental, refinement or atomic coordinate data resulting 
# from the CCDC's data processing and validation procedures.
#
#######################################################################

data_VUWLIJ01
_chemical_formula_moiety         'C9 H12 N1 O1 1+,C6 H2 N3 O7 1-'
_chemical_name_systematic        
'4-formyl-N,N-dimethylanilinium 2,4,6-trinitrophenolate'
_symmetry_cell_setting           monoclinic
_symmetry_space_group_name_H-M   'P 21/c'
_symmetry_Int_Tables_number      14
_space_group_name_Hall           '-P 2ybc'
loop_
_symmetry_equiv_pos_site_id
_symmetry_equiv_pos_as_xyz
1 x,y,z
2 -x,1/2+y,1/2-z
3 -x,-y,-z
4 x,1/2-y,1/2+z
_cell_length_a                   9.821(4)
_cell_length_b                   10.847(5)
_cell_length_c                   15.849(7)
_cell_angle_alpha                90
_cell_angle_beta                 90.1530(10)
_cell_angle_gamma                90
_cell_volume                     1688.36
_exptl_crystal_colour            colorless
_exptl_crystal_description       block
_cell_formula_units_Z            4
loop_
_atom_site_label
_atom_site_type_symbol
_atom_site_fract_x
_atom_site_fract_y
_atom_site_fract_z
N1 N 0.28755(18) 0.66865(16) 0.17596(11)
H1 H 0.3732 0.6839 0.1569
O1 O 0.1560(2) 0.09661(17) 0.26158(12)
C1 C 0.2490(3) 0.1482(2) 0.22644(16)
H2 H 0.3200 0.0998 0.2063
C2 C 0.2575(2) 0.2825(2) 0.21325(14)
C3 C 0.1590(3) 0.3608(2) 0.24517(17)
H3 H 0.0859 0.3280 0.2748
C4 C 0.1671(2) 0.4858(2) 0.23397(18)
H4 H 0.1006 0.5377 0.2559
C5 C 0.2762(2) 0.5334(2) 0.18943(14)
C6 C 0.3752(2) 0.4584(2) 0.15640(15)
H5 H 0.4478 0.4916 0.1265
C7 C 0.3650(2) 0.3324(2) 0.16843(15)
H6 H 0.4312 0.2806 0.1461
C8 C 0.2691(3) 0.7420(2) 0.25528(16)
H7 H 0.1763 0.7355 0.2737
H8 H 0.2906 0.8269 0.2446
H9 H 0.3285 0.7105 0.2984
C9 C 0.1908(3) 0.7105(2) 0.10917(19)
H10 H 0.2130 0.6711 0.0567
H11 H 0.1976 0.7983 0.1027
H12 H 0.0996 0.6891 0.1251
N2 N 0.7715(2) 0.52939(17) 0.06087(13)
N3 N 0.95764(19) 0.89704(19) -0.06959(12)
N4 N 0.5433(2) 0.94014(18) 0.09497(12)
O2 O 0.55894(15) 0.67918(13) 0.13131(10)
O3 O 0.6684(2) 0.46739(16) 0.06414(14)
O4 O 0.88596(19) 0.48561(15) 0.06526(13)
O5 O 1.05646(18) 0.83411(17) -0.09013(12)
O6 O 0.94494(16) 1.00577(15) -0.09043(10)
O7 O 0.56574(18) 1.05136(16) 0.09572(13)
O8 O 0.43457(19) 0.89725(16) 0.11813(14)
C10 C 0.6449(2) 0.72858(19) 0.08345(14)
C11 C 0.7596(2) 0.66285(18) 0.04736(13)
C12 C 0.8601(2) 0.7158(2) -0.00026(13)
H13 H 0.9321 0.6686 -0.0204
C13 C 0.8527(2) 0.84066(19) -0.01786(13)
C14 C 0.7489(2) 0.9121(2) 0.01377(13)
H14 H 0.7463 0.9962 0.0025
C15 C 0.6489(2) 0.85859(19) 0.06207(13)
loop_
_geom_bond_atom_site_label_1
_geom_bond_atom_site_label_2
_geom_bond_site_symmetry_1
_geom_bond_site_symmetry_2
N1 H1 1_555 1_555
O1 C1 1_555 1_555
C1 H2 1_555 1_555
C2 C1 1_555 1_555
C3 C2 1_555 1_555
H3 C3 1_555 1_555
C4 C3 1_555 1_555
H4 C4 1_555 1_555
C5 N1 1_555 1_555
C6 C5 1_555 1_555
H5 C6 1_555 1_555
C7 C2 1_555 1_555
H6 C7 1_555 1_555
C8 N1 1_555 1_555
H7 C8 1_555 1_555
H8 C8 1_555 1_555
H9 C8 1_555 1_555
C9 N1 1_555 1_555
H10 C9 1_555 1_555
H11 C9 1_555 1_555
H12 C9 1_555 1_555
N2 O3 1_555 1_555
N3 O5 1_555 1_555
N4 O7 1_555 1_555
O2 C10 1_555 1_555
O4 N2 1_555 1_555
O6 N3 1_555 1_555
O8 N4 1_555 1_555
C10 C11 1_555 1_555
C11 N2 1_555 1_555
C12 C11 1_555 1_555
H13 C12 1_555 1_555
C13 N3 1_555 1_555
C14 C13 1_555 1_555
H14 C14 1_555 1_555
C15 N4 1_555 1_555
C4 C5 1_555 1_555
C6 C7 1_555 1_555
C10 C15 1_555 1_555
C12 C13 1_555 1_555
C14 C15 1_555 1_555

#END
