
#######################################################################
#
#                 Cambridge Crystallographic Data Centre
#                                CCDC 
#
#######################################################################
#
# If this CIF has been generated from an entry in the Cambridge 
# Structural Database, then it will include bibliographic, chemical, 
# crystal, experimental, refinement or atomic coordinate data resulting 
# from the CCDC's data processing and validation procedures.
#
#######################################################################

data_VUXQAI
_chemical_formula_moiety         'C7 H10 O5'
_chemical_name_systematic        1,2,3,5-Di-O-methylene-\a-D-xylofuranose
_symmetry_cell_setting           orthorhombic
_symmetry_space_group_name_H-M   'C 2 2 21'
_symmetry_Int_Tables_number      20
_space_group_name_Hall           'C 2n 2'
loop_
_symmetry_equiv_pos_site_id
_symmetry_equiv_pos_as_xyz
1 x,y,z
2 -x,-y,1/2+z
3 x,-y,-z
4 -x,y,1/2-z
5 1/2+x,1/2+y,z
6 1/2-x,1/2-y,1/2+z
7 1/2+x,1/2-y,-z
8 1/2-x,1/2+y,1/2-z
_cell_length_a                   8.5509(11)
_cell_length_b                   8.6327(11)
_cell_length_c                   20.057(3)
_cell_angle_alpha                90
_cell_angle_beta                 90
_cell_angle_gamma                90
_cell_volume                     1480.55
_exptl_crystal_colour            colorless
_exptl_crystal_description       needle
_cell_formula_units_Z            8
loop_
_atom_site_label
_atom_site_type_symbol
_atom_site_fract_x
_atom_site_fract_y
_atom_site_fract_z
O1 O 0.35776(16) 0.73794(16) 0.15438(7)
C1 C 0.2196(2) 0.6569(2) 0.17647(10)
H1 H 0.1430 0.7322 0.1957
O2 O 0.23608(16) 0.44818(15) 0.09492(7)
C2 C 0.2642(3) 0.5386(3) 0.22854(11)
H2 H 0.3352 0.5874 0.2614
H3 H 0.1689 0.5051 0.2526
O3 O 0.33921(17) 0.40599(17) 0.20058(7)
C3 C 0.2474(2) 0.3445(2) 0.14901(11)
H4 H 0.1413 0.3217 0.1662
H5 H 0.2941 0.2459 0.1335
O4 O 0.28366(16) 0.95180(15) 0.08815(8)
C4 C 0.1535(2) 0.5865(2) 0.11288(10)
H6 H 0.0381 0.5689 0.1160
O5 O 0.07534(18) 0.81726(16) 0.04937(8)
C5 C 0.1948(2) 0.7043(2) 0.05959(10)
H7 H 0.2246 0.6526 0.0168
C6 C 0.3328(2) 0.7957(2) 0.08923(10)
H8 H 0.4287 0.7817 0.0613
C7 C 0.1181(2) 0.9509(2) 0.08583(11)
H9 H 0.0741 0.9467 0.1314
H10 H 0.0788 1.0454 0.0634
loop_
_geom_bond_atom_site_label_1
_geom_bond_atom_site_label_2
_geom_bond_site_symmetry_1
_geom_bond_site_symmetry_2
O1 C1 1_555 1_555
C1 H1 1_555 1_555
O2 C3 1_555 1_555
C2 C1 1_555 1_555
H2 C2 1_555 1_555
H3 C2 1_555 1_555
O3 C2 1_555 1_555
C3 O3 1_555 1_555
H4 C3 1_555 1_555
H5 C3 1_555 1_555
O4 C6 1_555 1_555
C4 C1 1_555 1_555
H6 C4 1_555 1_555
O5 C5 1_555 1_555
C5 C4 1_555 1_555
H7 C5 1_555 1_555
C6 O1 1_555 1_555
H8 C6 1_555 1_555
C7 O4 1_555 1_555
H9 C7 1_555 1_555
H10 C7 1_555 1_555
O2 C4 1_555 1_555
O5 C7 1_555 1_555
C5 C6 1_555 1_555

#END
