
#######################################################################
#
#                 Cambridge Crystallographic Data Centre
#                                CCDC 
#
#######################################################################
#
# If this CIF has been generated from an entry in the Cambridge 
# Structural Database, then it will include bibliographic, chemical, 
# crystal, experimental, refinement or atomic coordinate data resulting 
# from the CCDC's data processing and validation procedures.
#
#######################################################################

data_VUXZEU02
_chemical_formula_moiety         'C7 H3 F2 N2 S2'
_chemical_name_systematic        
'4-(2,6-Difluorophenyl)-1,2,3,5-dithiadiazolyl radical'
_symmetry_cell_setting           tetragonal
_symmetry_space_group_name_H-M   'I 41/a'
_symmetry_Int_Tables_number      88
_space_group_name_Hall           '-I 4ad'
loop_
_symmetry_equiv_pos_site_id
_symmetry_equiv_pos_as_xyz
1 x,y,z
2 1/2-x,-y,1/2+z
3 3/4-y,1/4+x,1/4+z
4 3/4+y,3/4-x,3/4+z
5 1/2+x,1/2+y,1/2+z
6 -x,1/2-y,z
7 1/4-y,3/4+x,3/4+z
8 1/4+y,1/4-x,1/4+z
9 -x,-y,-z
10 1/2+x,y,1/2-z
11 1/4+y,3/4-x,3/4-z
12 1/4-y,1/4+x,1/4-z
13 1/2-x,1/2-y,1/2-z
14 x,1/2+y,-z
15 3/4+y,1/4-x,1/4-z
16 3/4-y,3/4+x,3/4-z
_cell_length_a                   30.168(1)
_cell_length_b                   30.168(1)
_cell_length_c                   7.1749(2)
_cell_angle_alpha                90
_cell_angle_beta                 90
_cell_angle_gamma                90
_cell_volume                     6529.94
_exptl_crystal_colour            red
_exptl_crystal_description       needle
_cell_formula_units_Z            32
loop_
_atom_site_label
_atom_site_type_symbol
_atom_site_fract_x
_atom_site_fract_y
_atom_site_fract_z
S1 S 0.304428(17) 0.455777(16) 0.37232(7)
S2 S 0.373038(17) 0.456479(17) 0.41423(8)
N1 N 0.30184(5) 0.40221(5) 0.3334(2)
N2 N 0.37855(5) 0.40333(5) 0.3823(2)
C1 C 0.34103(6) 0.38178(6) 0.3430(2)
C2 C 0.34376(6) 0.33311(6) 0.3120(2)
C3 C 0.30962(6) 0.30347(6) 0.3547(3)
F1 F 0.27166(4) 0.31979(4) 0.42826(16)
C4 C 0.31243(7) 0.25848(7) 0.3328(3)
H1 H 0.2881 0.2399 0.3644
C5 C 0.35126(7) 0.24050(7) 0.2638(3)
H2 H 0.3538 0.2093 0.2485
C6 C 0.38625(7) 0.26775(7) 0.2172(3)
H3 H 0.4130 0.2557 0.1688
C7 C 0.38184(6) 0.31272(7) 0.2419(3)
F2 F 0.41659(4) 0.33809(4) 0.19158(19)
S3 S 0.297232(16) 0.446412(16) 0.81789(7)
S4 S 0.366313(18) 0.450782(17) 0.84039(8)
N3 N 0.29687(5) 0.39236(5) 0.7986(2)
N4 N 0.37372(6) 0.39754(5) 0.8352(3)
C8 C 0.33677(6) 0.37366(6) 0.8114(3)
C9 C 0.34105(6) 0.32485(6) 0.7997(2)
C10 C 0.30682(6) 0.29570(6) 0.8466(3)
F3 F 0.26841(4) 0.31275(4) 0.91263(17)
C11 C 0.30978(7) 0.25053(7) 0.8335(3)
H4 H 0.2854 0.2323 0.8667
C12 C 0.34903(8) 0.23199(7) 0.7712(3)
H5 H 0.3517 0.2007 0.7610
C13 C 0.38432(7) 0.25886(7) 0.7236(3)
H6 H 0.4114 0.2463 0.6811
C14 C 0.37984(6) 0.30388(6) 0.7384(3)
F4 F 0.41497(4) 0.32876(4) 0.68682(18)
loop_
_geom_bond_atom_site_label_1
_geom_bond_atom_site_label_2
_geom_bond_site_symmetry_1
_geom_bond_site_symmetry_2
S1 S2 1_555 1_555
S2 N2 1_555 1_555
N1 S1 1_555 1_555
N2 C1 1_555 1_555
C1 N1 1_555 1_555
C2 C1 1_555 1_555
C3 C2 1_555 1_555
F1 C3 1_555 1_555
C4 C3 1_555 1_555
H1 C4 1_555 1_555
C5 C4 1_555 1_555
H2 C5 1_555 1_555
C6 C5 1_555 1_555
H3 C6 1_555 1_555
C7 C2 1_555 1_555
F2 C7 1_555 1_555
S3 S4 1_555 1_555
S4 N4 1_555 1_555
N3 S3 1_555 1_555
N4 C8 1_555 1_555
C8 N3 1_555 1_555
C9 C8 1_555 1_555
C10 C9 1_555 1_555
F3 C10 1_555 1_555
C11 C10 1_555 1_555
H4 C11 1_555 1_555
C12 C11 1_555 1_555
H5 C12 1_555 1_555
C13 C12 1_555 1_555
H6 C13 1_555 1_555
C14 C9 1_555 1_555
F4 C14 1_555 1_555
C6 C7 1_555 1_555
C13 C14 1_555 1_555

#END
