
#######################################################################
#
#                 Cambridge Crystallographic Data Centre
#                                CCDC 
#
#######################################################################
#
# If this CIF has been generated from an entry in the Cambridge 
# Structural Database, then it will include bibliographic, chemical, 
# crystal, experimental, refinement or atomic coordinate data resulting 
# from the CCDC's data processing and validation procedures.
#
#######################################################################

data_VUYMOT
_chemical_formula_moiety         'C20 H12 F4 O4'
_chemical_name_systematic        
5-(3,4-difluorobenzylidene)-7-(3,4-difluorophenyl)-3-hydroxy-3,3a-dihydro-2H-furo[3,2-b]pyran-6(5H)-one
_symmetry_cell_setting           orthorhombic
_symmetry_space_group_name_H-M   'P 21 21 21'
_symmetry_Int_Tables_number      19
_space_group_name_Hall           'P 2ac 2ab'
loop_
_symmetry_equiv_pos_site_id
_symmetry_equiv_pos_as_xyz
1 x,y,z
2 1/2-x,-y,1/2+z
3 1/2+x,1/2-y,-z
4 -x,1/2+y,1/2-z
_cell_length_a                   7.4966(3)
_cell_length_b                   11.4155(4)
_cell_length_c                   19.8229(6)
_cell_angle_alpha                90
_cell_angle_beta                 90
_cell_angle_gamma                90
_cell_volume                     1696.39
_cell_formula_units_Z            4
loop_
_atom_site_label
_atom_site_type_symbol
_atom_site_fract_x
_atom_site_fract_y
_atom_site_fract_z
F1 F 0.2488(3) 0.51361(19) 0.82051(9)
F2 F 0.4151(3) 0.3376(2) 0.88088(9)
F3 F 0.4696(4) 0.3016(2) 0.21604(11)
F4 F 0.3501(3) 0.1045(3) 0.16341(11)
O1 O 0.4140(3) 0.35779(17) 0.45527(9)
O2 O 0.3259(4) 0.14300(18) 0.58240(10)
O3 O 0.3428(3) 0.55618(17) 0.58813(10)
O4 O 0.6146(3) 0.5573(2) 0.48176(11)
C1 C 0.3714(4) 0.2506(2) 0.48231(13)
C2 C 0.3481(4) 0.2393(2) 0.55799(14)
C3 C 0.3436(4) 0.4468(2) 0.56289(14)
C4 C 0.3321(4) 0.4538(2) 0.48789(13)
H1 H 0.2071 0.4600 0.4739
C5 C 0.4288(5) 0.5688(2) 0.47406(14)
H2 H 0.3962 0.6026 0.4303
C6 C 0.3581(6) 0.6401(3) 0.53245(15)
H3 H 0.4399 0.7029 0.5439
H4 H 0.2428 0.6737 0.5216
C7 C 0.3581(4) 0.1566(3) 0.44270(14)
H5 H 0.3409 0.0863 0.4655
C8 C 0.3545(3) 0.3473(2) 0.59852(13)
C9 C 0.3693(3) 0.3429(2) 0.67322(13)
C10 C 0.2978(3) 0.4324(3) 0.71326(14)
H6 H 0.2382 0.4948 0.6932
C11 C 0.3154(4) 0.4281(3) 0.78145(14)
C12 C 0.4019(4) 0.3372(3) 0.81283(14)
C13 C 0.4719(4) 0.2478(3) 0.77554(15)
H7 H 0.5301 0.1859 0.7966
C14 C 0.4551(4) 0.2506(3) 0.70566(14)
H8 H 0.5021 0.1896 0.6801
C15 C 0.3662(4) 0.1463(2) 0.36979(14)
C16 C 0.4255(3) 0.2346(3) 0.32707(14)
H9 H 0.4703 0.3042 0.3447
C17 C 0.4170(4) 0.2180(3) 0.25838(16)
C18 C 0.3557(4) 0.1139(3) 0.23156(16)
C19 C 0.3008(4) 0.0267(3) 0.27118(18)
H10 H 0.2595 -0.0429 0.2525
C20 C 0.3060(4) 0.0412(3) 0.34078(18)
H11 H 0.2689 -0.0197 0.3686
H12 H 0.693(6) 0.515(4) 0.464(3)
loop_
_geom_bond_atom_site_label_1
_geom_bond_atom_site_label_2
_geom_bond_site_symmetry_1
_geom_bond_site_symmetry_2
F1 C11 1_555 1_555
F2 C12 1_555 1_555
F3 C17 1_555 1_555
F4 C18 1_555 1_555
O1 C1 1_555 1_555
O2 C2 1_555 1_555
O3 C3 1_555 1_555
O4 C5 1_555 1_555
C1 C2 1_555 1_555
C2 C8 1_555 1_555
C3 C4 1_555 1_555
C4 O1 1_555 1_555
H1 C4 1_555 1_555
C5 C4 1_555 1_555
H2 C5 1_555 1_555
C6 O3 1_555 1_555
H3 C6 1_555 1_555
H4 C6 1_555 1_555
C7 C1 1_555 1_555
H5 C7 1_555 1_555
C8 C3 1_555 1_555
C9 C8 1_555 1_555
C10 C9 1_555 1_555
H6 C10 1_555 1_555
C11 C10 1_555 1_555
C12 C11 1_555 1_555
C13 C12 1_555 1_555
H7 C13 1_555 1_555
C14 C9 1_555 1_555
H8 C14 1_555 1_555
C15 C7 1_555 1_555
C16 C15 1_555 1_555
H9 C16 1_555 1_555
C17 C16 1_555 1_555
C18 C17 1_555 1_555
C19 C18 1_555 1_555
H10 C19 1_555 1_555
C20 C15 1_555 1_555
H11 C20 1_555 1_555
H12 O4 1_555 1_555
C5 C6 1_555 1_555
C13 C14 1_555 1_555
C19 C20 1_555 1_555

#END
