
#######################################################################
#
#                 Cambridge Crystallographic Data Centre
#                                CCDC 
#
#######################################################################
#
# If this CIF has been generated from an entry in the Cambridge 
# Structural Database, then it will include bibliographic, chemical, 
# crystal, experimental, refinement or atomic coordinate data resulting 
# from the CCDC's data processing and validation procedures.
#
#######################################################################

data_VUYYUL
_chemical_formula_moiety         'C10 H9 N3 O3'
_chemical_name_systematic        
1-((2-hydroxybenzylidene)amino)imidazolidine-2,4-dione
_symmetry_cell_setting           monoclinic
_symmetry_space_group_name_H-M   'P 21/c'
_symmetry_Int_Tables_number      14
_space_group_name_Hall           '-P 2ybc'
loop_
_symmetry_equiv_pos_site_id
_symmetry_equiv_pos_as_xyz
1 x,y,z
2 -x,1/2+y,1/2-z
3 -x,-y,-z
4 x,1/2-y,1/2+z
_cell_length_a                   11.290(2)
_cell_length_b                   7.3388(13)
_cell_length_c                   12.238(2)
_cell_angle_alpha                90
_cell_angle_beta                 101.325(3)
_cell_angle_gamma                90
_cell_volume                     994.237
_exptl_crystal_colour            white
_exptl_crystal_description       block
_cell_formula_units_Z            4
loop_
_atom_site_label
_atom_site_type_symbol
_atom_site_fract_x
_atom_site_fract_y
_atom_site_fract_z
C1 C 0.56408(15) 0.2933(2) 0.52118(14)
C2 C 0.57109(16) 0.3442(3) 0.63233(14)
C3 C 0.67650(19) 0.4185(3) 0.69295(17)
H1 H 0.6804 0.4529 0.7667
C4 C 0.77518(19) 0.4414(3) 0.6445(2)
H2 H 0.8460 0.4897 0.6861
C5 C 0.77054(18) 0.3939(3) 0.5354(2)
H3 H 0.8377 0.4102 0.5030
C6 C 0.66564(16) 0.3219(3) 0.47405(17)
H4 H 0.6623 0.2917 0.3997
C7 C 0.45553(15) 0.2187(2) 0.45303(14)
H5 H 0.4537 0.1935 0.3783
C8 C 0.24447(16) 0.0730(3) 0.30977(15)
H6 H 0.3037 -0.0164 0.2973
H7 H 0.2497 0.1792 0.2638
C9 C 0.11845(17) -0.0062(3) 0.28700(17)
C10 C 0.16088(16) 0.0820(3) 0.47011(16)
H8 H 0.4144(18) 0.278(3) 0.6328(18)
H9 H 0.014(2) -0.023(3) 0.3951(18)
N1 N 0.36193(12) 0.1872(2) 0.49461(11)
N2 N 0.26051(13) 0.1215(2) 0.42669(12)
N3 N 0.07703(14) 0.0109(3) 0.38354(14)
O1 O 0.47629(14) 0.3223(2) 0.68411(11)
O2 O 0.06556(13) -0.0711(3) 0.20077(13)
O3 O 0.14930(12) 0.1049(2) 0.56561(11)
loop_
_geom_bond_atom_site_label_1
_geom_bond_atom_site_label_2
_geom_bond_site_symmetry_1
_geom_bond_site_symmetry_2
C1 C2 1_555 1_555
C2 C3 1_555 1_555
C3 H1 1_555 1_555
C4 C3 1_555 1_555
H2 C4 1_555 1_555
C5 C4 1_555 1_555
H3 C5 1_555 1_555
C6 C1 1_555 1_555
H4 C6 1_555 1_555
C7 C1 1_555 1_555
H5 C7 1_555 1_555
C8 H6 1_555 1_555
H7 C8 1_555 1_555
C9 C8 1_555 1_555
C10 N2 1_555 1_555
H8 O1 1_555 1_555
H9 N3 1_555 1_555
N1 C7 1_555 1_555
N2 C8 1_555 1_555
N3 C9 1_555 1_555
O1 C2 1_555 1_555
O2 C9 1_555 1_555
O3 C10 1_555 1_555
C5 C6 1_555 1_555
C10 N3 1_555 1_555
N1 N2 1_555 1_555

#END
