
#######################################################################
#
#                 Cambridge Crystallographic Data Centre
#                                CCDC 
#
#######################################################################
#
# If this CIF has been generated from an entry in the Cambridge 
# Structural Database, then it will include bibliographic, chemical, 
# crystal, experimental, refinement or atomic coordinate data resulting 
# from the CCDC's data processing and validation procedures.
#
#######################################################################

data_VUZFUS
_chemical_formula_moiety         'C17 H20 N2 O4'
_chemical_name_systematic        
1-(2,5-Dimethoxyphenyl)-3-(2-(4-hydroxyphenyl)ethyl)urea
_symmetry_cell_setting           monoclinic
_symmetry_space_group_name_H-M   'P 21/n'
_symmetry_Int_Tables_number      14
_space_group_name_Hall           '-P 2yn'
loop_
_symmetry_equiv_pos_site_id
_symmetry_equiv_pos_as_xyz
1 x,y,z
2 1/2-x,1/2+y,1/2-z
3 -x,-y,-z
4 1/2+x,1/2-y,1/2+z
_cell_length_a                   10.7275(6)
_cell_length_b                   9.6016(5)
_cell_length_c                   16.9388(10)
_cell_angle_alpha                90
_cell_angle_beta                 107.838(2)
_cell_angle_gamma                90
_cell_volume                     1660.84
_exptl_crystal_colour            colorless
_exptl_crystal_description       needle
_chemical_melting_point          436K
_cell_formula_units_Z            4
loop_
_atom_site_label
_atom_site_type_symbol
_atom_site_fract_x
_atom_site_fract_y
_atom_site_fract_z
C1 C 0.3898(2) 0.5854(2) 0.12845(14)
C2 C 0.5212(2) 0.6136(3) 0.13837(16)
C3 C 0.5565(3) 0.6644(3) 0.0720(2)
H1 H 0.644 0.6835 0.0783
C4 C 0.4643(3) 0.6869(3) -0.00277(19)
H2 H 0.4896 0.7201 -0.0471
C5 C 0.3347(3) 0.6610(3) -0.01298(15)
C6 C 0.2967(2) 0.6085(2) 0.05238(14)
H3 H 0.209 0.589 0.0452
N1 N 0.35963(18) 0.5297(2) 0.19699(12)
H4 H 0.423(3) 0.498(3) 0.2325(16)
C7 C 0.24229(19) 0.5317(2) 0.21258(12)
O1 O 0.14248(14) 0.58188(19) 0.16417(9)
N2 N 0.24242(19) 0.4718(2) 0.28412(11)
H5 H 0.315(3) 0.441(3) 0.3168(16)
C8 C 0.1271(2) 0.4629(3) 0.31035(13)
H6 H 0.1342 0.3814 0.3453
H7 H 0.0514 0.4501 0.2618
C9 C 0.1046(2) 0.5896(3) 0.35756(13)
H8 H 0.0949 0.6706 0.322
H9 H 0.0231 0.5774 0.3703
C10 C 0.21277(19) 0.6172(2) 0.43716(13)
C11 C 0.2326(3) 0.5296(3) 0.50382(15)
H10 H 0.1792 0.4519 0.4992
C12 C 0.3299(3) 0.5540(3) 0.57772(16)
H11 H 0.3413 0.4926 0.6219
C13 C 0.40944(19) 0.6679(2) 0.58626(13)
C14 C 0.3892(2) 0.7585(2) 0.52187(14)
H12 H 0.4404 0.8383 0.5274
C15 C 0.2917(2) 0.7315(2) 0.44770(14)
H13 H 0.2798 0.7935 0.4038
O2 O 0.50449(17) 0.6876(2) 0.66089(11)
H14 H 0.552(3) 0.759(4) 0.658(2)
O3 O 0.60539(16) 0.5880(3) 0.21599(12)
C16 C 0.7414(3) 0.6140(7) 0.2294(2)
H15 H 0.7898 0.5914 0.2857
H16 H 0.7541 0.7105 0.2192
H17 H 0.7719 0.5574 0.1923
O4 O 0.2495(2) 0.6902(3) -0.08960(12)
C17 C 0.1155(4) 0.6852(3) -0.10046(19)
H18 H 0.0681 0.7078 -0.1569
H19 H 0.094 0.7512 -0.064
H20 H 0.0919 0.5933 -0.0879
loop_
_geom_bond_atom_site_label_1
_geom_bond_atom_site_label_2
_geom_bond_site_symmetry_1
_geom_bond_site_symmetry_2
C1 C2 1_555 1_555
C2 C3 1_555 1_555
C3 H1 1_555 1_555
C4 C3 1_555 1_555
H2 C4 1_555 1_555
C5 C4 1_555 1_555
C6 C1 1_555 1_555
H3 C6 1_555 1_555
N1 C1 1_555 1_555
H4 N1 1_555 1_555
C7 N1 1_555 1_555
O1 C7 1_555 1_555
N2 C7 1_555 1_555
H5 N2 1_555 1_555
C8 N2 1_555 1_555
H6 C8 1_555 1_555
H7 C8 1_555 1_555
C9 C8 1_555 1_555
H8 C9 1_555 1_555
H9 C9 1_555 1_555
C10 C9 1_555 1_555
C11 C10 1_555 1_555
H10 C11 1_555 1_555
C12 C11 1_555 1_555
H11 C12 1_555 1_555
C13 C12 1_555 1_555
C14 C13 1_555 1_555
H12 C14 1_555 1_555
C15 C10 1_555 1_555
H13 C15 1_555 1_555
O2 C13 1_555 1_555
H14 O2 1_555 1_555
O3 C2 1_555 1_555
C16 O3 1_555 1_555
H15 C16 1_555 1_555
H16 C16 1_555 1_555
H17 C16 1_555 1_555
O4 C5 1_555 1_555
C17 O4 1_555 1_555
H18 C17 1_555 1_555
H19 C17 1_555 1_555
H20 C17 1_555 1_555
C5 C6 1_555 1_555
C14 C15 1_555 1_555

#END
