
#######################################################################
#
#                 Cambridge Crystallographic Data Centre
#                                CCDC 
#
#######################################################################
#
# If this CIF has been generated from an entry in the Cambridge 
# Structural Database, then it will include bibliographic, chemical, 
# crystal, experimental, refinement or atomic coordinate data resulting 
# from the CCDC's data processing and validation procedures.
#
#######################################################################

data_VUZFOM
_chemical_formula_moiety         'C23 H30 O5,H2 O1'
_chemical_name_systematic        
'12\b,14-Dihydroxy-3-oxo-5\b,20(22)-cardenolide monohydrate'
_symmetry_cell_setting           triclinic
_symmetry_space_group_name_H-M   'P 1'
_symmetry_Int_Tables_number      1
_space_group_name_Hall           'P 1'
loop_
_symmetry_equiv_pos_site_id
_symmetry_equiv_pos_as_xyz
1 x,y,z
_cell_length_a                   7.4017(15)
_cell_length_b                   7.7450(15)
_cell_length_c                   10.215(2)
_cell_angle_alpha                99.51(3)
_cell_angle_beta                 94.70(3)
_cell_angle_gamma                114.97(3)
_cell_volume                     515.966
_exptl_crystal_colour            colorless
_exptl_crystal_description       prism
_cell_formula_units_Z            1
_exptl_crystal_recrystallization_method 'petroleum ether/acetone'
loop_
_atom_site_label
_atom_site_type_symbol
_atom_site_fract_x
_atom_site_fract_y
_atom_site_fract_z
C1 C -0.0073(4) 0.3043(5) 0.5686(3)
H1 H -0.1000 0.3610 0.5551
H2 H -0.0281 0.2103 0.4864
C2 C -0.0581(5) 0.1979(5) 0.6826(3)
H3 H -0.0574 0.2868 0.7618
H4 H -0.1931 0.0907 0.6569
C3 C 0.0884(5) 0.1203(5) 0.7161(3)
C4 C 0.2931(5) 0.2275(5) 0.6930(3)
H5 H 0.3868 0.1813 0.7137
C5 C 0.3553(4) 0.3895(4) 0.6435(3)
C6 C 0.5751(4) 0.5096(5) 0.6423(3)
H6 H 0.6496 0.4382 0.6646
H7 H 0.6252 0.6295 0.7107
C7 C 0.6133(4) 0.5598(5) 0.5056(3)
H8 H 0.5823 0.4415 0.4395
H9 H 0.7552 0.6476 0.5118
C8 C 0.4846(4) 0.6561(4) 0.4589(3)
H10 H 0.5236 0.7780 0.5253
C9 C 0.2593(3) 0.5255(4) 0.4572(3)
H11 H 0.2219 0.4043 0.3906
C10 C 0.2105(4) 0.4666(3) 0.5934(2)
C11 C 0.1312(4) 0.6216(4) 0.4064(3)
H12 H -0.0108 0.5345 0.4005
H13 H 0.1622 0.7411 0.4712
C12 C 0.1679(4) 0.6685(4) 0.2704(3)
H14 H 0.1254 0.5461 0.2038
C13 C 0.3939(4) 0.8041(3) 0.2682(2)
C14 C 0.5248(4) 0.7098(4) 0.3221(3)
C15 C 0.4892(4) 0.5418(4) 0.2060(3)
H15 H 0.3658 0.4274 0.2068
H16 H 0.6013 0.5080 0.2116
C16 C 0.4720(4) 0.6179(4) 0.0779(3)
H17 H 0.3672 0.5153 0.0083
H18 H 0.5991 0.6614 0.0442
C17 C 0.4186(4) 0.7903(4) 0.1164(3)
H19 H 0.2852 0.7522 0.0644
C18 C 0.2350(5) 0.6415(5) 0.7033(3)
H20 H 0.2182 0.6027 0.7878
H21 H 0.1346 0.6836 0.6789
H22 H 0.3674 0.7469 0.7116
C19 C 0.4521(4) 1.0101(4) 0.3480(3)
H23 H 0.5941 1.0896 0.3529
H24 H 0.4220 1.0049 0.4373
H25 H 0.3767 1.0654 0.3039
C20 C 0.5633(4) 0.9736(4) 0.0803(3)
C21 C 0.7889(4) 1.0689(4) 0.1180(4)
H26 H 0.8296 1.1136 0.2150
H27 H 0.8434 0.9787 0.0863
C22 C 0.5139(5) 1.0757(4) 0.0035(3)
H28 H 0.3828 1.0478 -0.0331
C23 C 0.6953(5) 1.2364(4) -0.0143(3)
O1 O 0.0400(5) -0.0230(4) 0.7666(3)
O2 O 0.0392(3) 0.7578(3) 0.2377(2)
H29 H 0.0251 0.7534 0.1566
O3 O 0.7324(2) 0.8562(2) 0.33978(19)
H30 H 0.8017 0.8051 0.3095
O4 O 0.8586(3) 1.2327(3) 0.0526(2)
O5 O 0.7166(4) 1.3617(4) -0.0773(3)
O6 O 0.9639(4) 0.7538(4) 0.9630(3)
H31 H 0.979(7) 0.816(5) 0.899(3)
H32 H 0.901(7) 0.6285(16) 0.937(4)
loop_
_geom_bond_atom_site_label_1
_geom_bond_atom_site_label_2
_geom_bond_site_symmetry_1
_geom_bond_site_symmetry_2
C1 H1 1_555 1_555
H2 C1 1_555 1_555
C2 C1 1_555 1_555
H3 C2 1_555 1_555
H4 C2 1_555 1_555
C3 C2 1_555 1_555
C4 C3 1_555 1_555
H5 C4 1_555 1_555
C5 C4 1_555 1_555
C6 C5 1_555 1_555
H6 C6 1_555 1_555
H7 C6 1_555 1_555
C7 C6 1_555 1_555
H8 C7 1_555 1_555
H9 C7 1_555 1_555
C8 C7 1_555 1_555
H10 C8 1_555 1_555
C9 C8 1_555 1_555
H11 C9 1_555 1_555
C10 C1 1_555 1_555
C11 C9 1_555 1_555
H12 C11 1_555 1_555
H13 C11 1_555 1_555
C12 C11 1_555 1_555
H14 C12 1_555 1_555
C13 C12 1_555 1_555
C14 C8 1_555 1_555
C15 C14 1_555 1_555
H15 C15 1_555 1_555
H16 C15 1_555 1_555
C16 C15 1_555 1_555
H17 C16 1_555 1_555
H18 C16 1_555 1_555
C17 C13 1_555 1_555
H19 C17 1_555 1_555
C18 C10 1_555 1_555
H20 C18 1_555 1_555
H21 C18 1_555 1_555
H22 C18 1_555 1_555
C19 C13 1_555 1_555
H23 C19 1_555 1_555
H24 C19 1_555 1_555
H25 C19 1_555 1_555
C20 C17 1_555 1_555
C21 C20 1_555 1_555
H26 C21 1_555 1_555
H27 C21 1_555 1_555
C22 C20 1_555 1_555
H28 C22 1_555 1_555
C23 C22 1_555 1_555
O1 C3 1_555 1_555
O2 C12 1_555 1_555
H29 O2 1_555 1_555
O3 C14 1_555 1_555
H30 O3 1_555 1_555
O4 C21 1_555 1_555
O5 C23 1_555 1_555
O6 H31 1_555 1_555
H32 O6 1_555 1_555
C5 C10 1_555 1_555
C9 C10 1_555 1_555
C13 C14 1_555 1_555
C16 C17 1_555 1_555
C23 O4 1_555 1_555

#END
