
#######################################################################
#
#                 Cambridge Crystallographic Data Centre
#                                CCDC 
#
#######################################################################
#
# If this CIF has been generated from an entry in the Cambridge 
# Structural Database, then it will include bibliographic, chemical, 
# crystal, experimental, refinement or atomic coordinate data resulting 
# from the CCDC's data processing and validation procedures.
#
#######################################################################

data_VUZJOQ
_chemical_formula_moiety         'C11 H8 Br1 N3 O1'
_chemical_name_systematic        N-(4-Bromophenyl)pyrazine-2-carboxamide
_symmetry_cell_setting           triclinic
_symmetry_space_group_name_H-M   'P -1'
_symmetry_Int_Tables_number      2
_space_group_name_Hall           '-P 1'
loop_
_symmetry_equiv_pos_site_id
_symmetry_equiv_pos_as_xyz
1 x,y,z
2 -x,-y,-z
_cell_length_a                   5.8396(4)
_cell_length_b                   7.3317(7)
_cell_length_c                   13.3362(12)
_cell_angle_alpha                101.670(4)
_cell_angle_beta                 96.728(5)
_cell_angle_gamma                110.524(5)
_cell_volume                     512.554
_exptl_crystal_colour            colorless
_exptl_crystal_description       plate
_cell_formula_units_Z            2
loop_
_atom_site_label
_atom_site_type_symbol
_atom_site_fract_x
_atom_site_fract_y
_atom_site_fract_z
Br1 Br 0.20472(10) 0.24870(9) -0.39064(4)
O1 O 0.8942(7) 0.2880(7) 0.0884(3)
N1 N 0.4828(9) 0.2414(8) 0.0622(4)
H1 H 0.366(9) 0.234(10) 0.099(5)
N2 N 0.9106(9) 0.2715(8) 0.3965(4)
N3 N 0.4723(9) 0.2202(8) 0.2621(4)
C1 C 0.6982(10) 0.2603(8) 0.1192(4)
C2 C 0.4304(10) 0.2444(8) -0.0435(4)
C3 C 0.1796(10) 0.1859(9) -0.0902(5)
H2 H 0.0531 0.1461 -0.0512
C4 C 0.1156(10) 0.1861(9) -0.1937(5)
H3 H -0.0549 0.1452 -0.2257
C5 C 0.2979(11) 0.2453(8) -0.2498(5)
C6 C 0.5492(11) 0.3087(9) -0.2035(5)
H4 H 0.6745 0.3519 -0.2427
C7 C 0.6156(11) 0.3088(9) -0.1011(5)
H5 H 0.7868 0.3525 -0.0694
C8 C 0.6915(11) 0.2522(9) 0.2304(4)
C9 C 0.9064(11) 0.2777(9) 0.2980(5)
H6 H 1.0565 0.3004 0.2724
C10 C 0.6933(11) 0.2377(10) 0.4279(5)
H7 H 0.6870 0.2303 0.4979
C11 C 0.4790(11) 0.2134(10) 0.3620(5)
H8 H 0.3300 0.1909 0.3883
loop_
_geom_bond_atom_site_label_1
_geom_bond_atom_site_label_2
_geom_bond_site_symmetry_1
_geom_bond_site_symmetry_2
Br1 C5 1_555 1_555
O1 C1 1_555 1_555
N1 H1 1_555 1_555
N2 C9 1_555 1_555
N3 C8 1_555 1_555
C1 N1 1_555 1_555
C2 N1 1_555 1_555
C3 C2 1_555 1_555
H2 C3 1_555 1_555
C4 C3 1_555 1_555
H3 C4 1_555 1_555
C5 C4 1_555 1_555
C6 C5 1_555 1_555
H4 C6 1_555 1_555
C7 C2 1_555 1_555
H5 C7 1_555 1_555
C8 C1 1_555 1_555
C9 C8 1_555 1_555
H6 C9 1_555 1_555
C10 N2 1_555 1_555
H7 C10 1_555 1_555
C11 N3 1_555 1_555
H8 C11 1_555 1_555
C6 C7 1_555 1_555
C10 C11 1_555 1_555

#END
