
#######################################################################
#
#                 Cambridge Crystallographic Data Centre
#                                CCDC 
#
#######################################################################
#
# If this CIF has been generated from an entry in the Cambridge 
# Structural Database, then it will include bibliographic, chemical, 
# crystal, experimental, refinement or atomic coordinate data resulting 
# from the CCDC's data processing and validation procedures.
#
#######################################################################

data_VUZKIL01
_chemical_formula_moiety         'C10 H13 N3 O1 S1'
_chemical_name_systematic        
2-[(4-methoxyphenyl)methylidene]-N-methylhydrazine-1-carbothioamide
_symmetry_cell_setting           orthorhombic
_symmetry_space_group_name_H-M   'P b c a'
_symmetry_Int_Tables_number      61
_space_group_name_Hall           '-P 2ac 2ab'
loop_
_symmetry_equiv_pos_site_id
_symmetry_equiv_pos_as_xyz
1 x,y,z
2 1/2+x,1/2-y,-z
3 -x,1/2+y,1/2-z
4 1/2-x,-y,1/2+z
5 -x,-y,-z
6 1/2-x,1/2+y,z
7 x,1/2-y,1/2+z
8 1/2+x,y,1/2-z
_cell_length_a                   13.3144(13)
_cell_length_b                   8.9064(9)
_cell_length_c                   18.6349(18)
_cell_angle_alpha                90
_cell_angle_beta                 90
_cell_angle_gamma                90
_cell_volume                     2209.79
_exptl_crystal_colour            colorless
_exptl_crystal_description       plate
_cell_formula_units_Z            8
loop_
_atom_site_label
_atom_site_type_symbol
_atom_site_fract_x
_atom_site_fract_y
_atom_site_fract_z
C1 C 0.25966(17) 0.8514(3) 0.33606(11)
C2 C 0.13380(13) 0.87093(19) 0.43144(9)
C3 C 0.06422(14) 0.6134(2) 0.56381(10)
C4 C 0.07912(14) 0.46584(19) 0.59622(9)
C5 C 0.03586(14) 0.4395(2) 0.66330(10)
C6 C 0.04829(14) 0.3040(2) 0.69795(10)
C7 C 0.10391(12) 0.18973(19) 0.66604(9)
C8 C 0.16937(15) -0.0590(2) 0.67535(11)
C9 C 0.14741(13) 0.2135(2) 0.59849(9)
C10 C 0.13445(13) 0.3503(2) 0.56436(10)
H1 H 0.0106(16) 0.679(2) 0.5855(10)
H2 H -0.0011(16) 0.511(2) 0.6851(11)
H3 H 0.0175(15) 0.286(2) 0.7450(11)
H4 H 0.1853(14) 0.139(2) 0.5724(10)
H5 H 0.1667(14) 0.365(2) 0.5204(11)
H6 H 0.3005(17) 0.941(3) 0.3479(12)
H7 H 0.2387(18) -0.032(2) 0.6711(11)
H8 H 0.2165(18) 0.891(3) 0.3024(11)
H9 H 0.1426(17) -0.091(2) 0.6242(13)
H10 H 0.2958(19) 0.772(3) 0.3175(13)
H11 H 0.1627(14) -0.140(2) 0.7111(10)
H12 H 0.2217(16) 0.712(2) 0.4135(10)
H13 H 0.0396(16) 0.849(2) 0.5096(10)
N1 N 0.20477(12) 0.79385(18) 0.39769(8)
N2 N 0.08827(11) 0.80468(17) 0.48784(8)
N3 N 0.11323(11) 0.66069(16) 0.50906(8)
O1 O 0.11152(9) 0.06091(13) 0.70474(6)
S1 S 0.09937(3) 1.04711(5) 0.40809(3)
loop_
_geom_bond_atom_site_label_1
_geom_bond_atom_site_label_2
_geom_bond_site_symmetry_1
_geom_bond_site_symmetry_2
C1 H6 1_555 1_555
C2 N1 1_555 1_555
C3 C4 1_555 1_555
C4 C5 1_555 1_555
C5 C6 1_555 1_555
C6 C7 1_555 1_555
C7 C9 1_555 1_555
C8 H7 1_555 1_555
C9 C10 1_555 1_555
C10 C4 1_555 1_555
H1 C3 1_555 1_555
H2 C5 1_555 1_555
H3 C6 1_555 1_555
H4 C9 1_555 1_555
H5 C10 1_555 1_555
H8 C1 1_555 1_555
H9 C8 1_555 1_555
H10 C1 1_555 1_555
H11 C8 1_555 1_555
H12 N1 1_555 1_555
H13 N2 1_555 1_555
N1 C1 1_555 1_555
N2 C2 1_555 1_555
N3 C3 1_555 1_555
O1 C7 1_555 1_555
S1 C2 1_555 1_555
C8 O1 1_555 1_555
N2 N3 1_555 1_555

#END
