
#######################################################################
#
#                 Cambridge Crystallographic Data Centre
#                                CCDC 
#
#######################################################################
#
# If this CIF has been generated from an entry in the Cambridge 
# Structural Database, then it will include bibliographic, chemical, 
# crystal, experimental, refinement or atomic coordinate data resulting 
# from the CCDC's data processing and validation procedures.
#
#######################################################################

data_VUZQIR
_chemical_formula_moiety         'C19 H22 N4 O3 S1'
_chemical_name_systematic        
1-(6,7-Dihydrothieno[3,2-c]pyridin-5(4H)-yl)-2-(4-(4-nitrophenyl)piperazin-1-yl)ethanone
_symmetry_cell_setting           triclinic
_symmetry_space_group_name_H-M   'P -1'
_symmetry_Int_Tables_number      2
_space_group_name_Hall           '-P 1'
loop_
_symmetry_equiv_pos_site_id
_symmetry_equiv_pos_as_xyz
1 x,y,z
2 -x,-y,-z
_cell_length_a                   6.1315(7)
_cell_length_b                   8.8552(10)
_cell_length_c                   17.025(2)
_cell_angle_alpha                84.101(8)
_cell_angle_beta                 83.385(9)
_cell_angle_gamma                74.635(6)
_cell_volume                     882.887
_exptl_crystal_colour            yellow
_exptl_crystal_description       block
_cell_formula_units_Z            2
loop_
_atom_site_label
_atom_site_type_symbol
_atom_site_fract_x
_atom_site_fract_y
_atom_site_fract_z
S1 S 0.30943(5) 0.92591(3) -0.249539(17)
O1 O -0.12392(14) 0.78988(11) 0.05647(6)
O2 O 1.01128(18) 0.15750(13) 0.58507(6)
O3 O 0.7589(2) 0.02733(13) 0.58411(7)
N1 N 0.22099(16) 0.69145(11) -0.00851(6)
N2 N 0.32167(16) 0.71481(11) 0.16167(6)
N3 N 0.44060(16) 0.56269(11) 0.31518(6)
N4 N 0.8425(2) 0.13723(14) 0.55919(7)
C1 C 0.0996(2) 0.85073(14) -0.27522(7)
H1 H 0.0370 0.8743 -0.3249
C2 C 0.0340(2) 0.75339(14) -0.21584(7)
H2 H -0.0804 0.7006 -0.2193
C3 C 0.15476(19) 0.73858(13) -0.14760(7)
C4 C 0.31018(19) 0.82610(13) -0.15692(7)
C5 C 0.45773(19) 0.83687(14) -0.09431(7)
H3 H 0.3991 0.9385 -0.0700
H4 H 0.6148 0.8302 -0.1181
C6 C 0.45572(19) 0.70088(13) -0.03118(7)
H5 H 0.5467 0.6011 -0.0523
H6 H 0.5245 0.7176 0.0160
C7 C 0.1199(2) 0.64098(14) -0.07174(7)
H7 H -0.0446 0.6535 -0.0570
H8 H 0.1916 0.5287 -0.0792
C8 C 0.08392(19) 0.77300(13) 0.04926(7)
C9 C 0.1956(2) 0.83986(14) 0.10806(7)
H9 H 0.3008 0.8981 0.0788
H10 H 0.0775 0.9147 0.1396
C10 C 0.4469(2) 0.78077(14) 0.21157(7)
H11 H 0.3387 0.8607 0.2433
H12 H 0.5515 0.8332 0.1775
C11 C 0.5819(2) 0.65394(14) 0.26673(7)
H13 H 0.7032 0.5820 0.2349
H14 H 0.6556 0.7033 0.3022
C12 C 0.2908(2) 0.51145(14) 0.26835(7)
H15 H 0.1800 0.4685 0.3047
H16 H 0.3824 0.4263 0.2358
C13 C 0.1640(2) 0.64430(14) 0.21457(7)
H17 H 0.0697 0.6039 0.1826
H18 H 0.0615 0.7254 0.2471
C14 C 0.5398(2) 0.45722(13) 0.37518(7)
C15 C 0.7310(2) 0.47506(14) 0.40870(7)
H19 H 0.7935 0.5608 0.3898
C16 C 0.8282(2) 0.37062(15) 0.46814(7)
H20 H 0.9579 0.3837 0.4895
C17 C 0.7371(2) 0.24656(14) 0.49676(7)
C18 C 0.5485(2) 0.22540(14) 0.46630(7)
H21 H 0.4861 0.1404 0.4867
C19 C 0.4521(2) 0.32864(14) 0.40612(7)
H22 H 0.3237 0.3131 0.3849
loop_
_geom_bond_atom_site_label_1
_geom_bond_atom_site_label_2
_geom_bond_site_symmetry_1
_geom_bond_site_symmetry_2
S1 C1 1_555 1_555
O1 C8 1_555 1_555
O2 N4 1_555 1_555
O3 N4 1_555 1_555
N1 C6 1_555 1_555
N2 C9 1_555 1_555
N3 C11 1_555 1_555
N4 C17 1_555 1_555
C1 H1 1_555 1_555
C2 C1 1_555 1_555
H2 C2 1_555 1_555
C3 C2 1_555 1_555
C4 S1 1_555 1_555
C5 C4 1_555 1_555
H3 C5 1_555 1_555
H4 C5 1_555 1_555
C6 C5 1_555 1_555
H5 C6 1_555 1_555
H6 C6 1_555 1_555
C7 N1 1_555 1_555
H7 C7 1_555 1_555
H8 C7 1_555 1_555
C8 N1 1_555 1_555
C9 C8 1_555 1_555
H9 C9 1_555 1_555
H10 C9 1_555 1_555
C10 N2 1_555 1_555
H11 C10 1_555 1_555
H12 C10 1_555 1_555
C11 C10 1_555 1_555
H13 C11 1_555 1_555
H14 C11 1_555 1_555
C12 N3 1_555 1_555
H15 C12 1_555 1_555
H16 C12 1_555 1_555
C13 N2 1_555 1_555
H17 C13 1_555 1_555
H18 C13 1_555 1_555
C14 N3 1_555 1_555
C15 C14 1_555 1_555
H19 C15 1_555 1_555
C16 C15 1_555 1_555
H20 C16 1_555 1_555
C17 C16 1_555 1_555
C18 C17 1_555 1_555
H21 C18 1_555 1_555
C19 C14 1_555 1_555
H22 C19 1_555 1_555
C3 C4 1_555 1_555
C3 C7 1_555 1_555
C12 C13 1_555 1_555
C18 C19 1_555 1_555

#END
