
#######################################################################
#
#                 Cambridge Crystallographic Data Centre
#                                CCDC 
#
#######################################################################
#
# If this CIF has been generated from an entry in the Cambridge 
# Structural Database, then it will include bibliographic, chemical, 
# crystal, experimental, refinement or atomic coordinate data resulting 
# from the CCDC's data processing and validation procedures.
#
#######################################################################

data_VUZQUC
_chemical_formula_moiety         'C22 H25 N1 O8'
_chemical_name_systematic        
(2S,4S)-3,4-Dihydro-2-(dimethoxymethyl)-4-(R-(-)-\a-methoxyphenylacetoxy)-2-methyl-6-nitro-2H-1-benzopyran
_symmetry_cell_setting           orthorhombic
_symmetry_space_group_name_H-M   'P 21 21 21'
_symmetry_Int_Tables_number      19
_space_group_name_Hall           'P 2ac 2ab'
loop_
_symmetry_equiv_pos_site_id
_symmetry_equiv_pos_as_xyz
1 x,y,z
2 1/2-x,-y,1/2+z
3 1/2+x,1/2-y,-z
4 -x,1/2+y,1/2-z
_cell_length_a                   7.0645(8)
_cell_length_b                   12.3414(14)
_cell_length_c                   25.064(5)
_cell_angle_alpha                90
_cell_angle_beta                 90
_cell_angle_gamma                90
_cell_volume                     2185.23
_chemical_melting_point          '111 deg.C'
_cell_formula_units_Z            4
_exptl_crystal_recrystallization_method 'diethyl ether/hexane'
loop_
_atom_site_label
_atom_site_type_symbol
_atom_site_fract_x
_atom_site_fract_y
_atom_site_fract_z
O1 O 0.2162(4) 0.5416(2) 0.0386(1)
C1 C 0.1889(5) 0.5704(2) 0.0946(1)
C2 C 0.1019(5) 0.4782(2) 0.1261(1)
C3 C 0.2034(5) 0.3722(2) 0.1164(1)
C4 C 0.2120(5) 0.2457(2) 0.0367(1)
C5 C 0.2149(5) 0.2317(3) -0.0180(1)
C6 C 0.2232(5) 0.3177(3) -0.0530(1)
C7 C 0.2245(5) 0.4202(3) -0.0324(1)
C8 C 0.2175(5) 0.4372(2) 0.0224(1)
C9 C 0.2125(4) 0.3493(2) 0.0574(1)
C10 C 0.3794(5) 0.6071(3) 0.1163(1)
C11 C 0.0485(5) 0.6644(2) 0.0899(1)
O2 O 0.1310(3) 0.7514(2) 0.0626(1)
C12 C 0.0346(7) 0.7857(3) 0.0161(1)
O3 O 0.0005(4) 0.6956(2) 0.1421(1)
C13 C -0.1483(6) 0.7747(3) 0.1439(2)
O4 O 0.0971(3) 0.2837(2) 0.1405(1)
C14 C 0.1287(5) 0.2639(2) 0.1920(1)
O5 O 0.2386(4) 0.3141(2) 0.2188(1)
C15 C 0.0143(5) 0.1693(2) 0.2129(1)
O6 O -0.1524(3) 0.1593(2) 0.1825(1)
C16 C -0.2908(6) 0.0921(3) 0.2071(2)
C17 C 0.1357(5) 0.0678(2) 0.2116(1)
C18 C 0.1721(6) 0.0154(3) 0.1642(1)
C19 C 0.2841(7) -0.0764(3) 0.1635(2)
C20 C 0.3623(6) -0.1149(3) 0.2099(2)
C21 C 0.3277(7) -0.0637(3) 0.2567(2)
C22 C 0.2162(6) 0.0281(3) 0.2578(1)
N1 N 0.2073(5) 0.1222(3) -0.0395(2)
O7 O 0.1756(4) 0.1115(2) -0.0875(1)
O8 O 0.2315(5) 0.0461(2) -0.0094(1)
loop_
_geom_bond_atom_site_label_1
_geom_bond_atom_site_label_2
_geom_bond_site_symmetry_1
_geom_bond_site_symmetry_2
O1 C1 1_555 1_555
C1 C2 1_555 1_555
C2 C3 1_555 1_555
C3 C9 1_555 1_555
C4 C5 1_555 1_555
C5 C6 1_555 1_555
C6 C7 1_555 1_555
C7 C8 1_555 1_555
C8 O1 1_555 1_555
C9 C4 1_555 1_555
C10 C1 1_555 1_555
C11 C1 1_555 1_555
O2 C11 1_555 1_555
C12 O2 1_555 1_555
O3 C11 1_555 1_555
C13 O3 1_555 1_555
O4 C3 1_555 1_555
C14 O4 1_555 1_555
O5 C14 1_555 1_555
C15 C14 1_555 1_555
O6 C15 1_555 1_555
C16 O6 1_555 1_555
C17 C15 1_555 1_555
C18 C17 1_555 1_555
C19 C18 1_555 1_555
C20 C19 1_555 1_555
C21 C20 1_555 1_555
C22 C17 1_555 1_555
N1 C5 1_555 1_555
O7 N1 1_555 1_555
O8 N1 1_555 1_555
C8 C9 1_555 1_555
C21 C22 1_555 1_555

#END
