
#######################################################################
#
#                 Cambridge Crystallographic Data Centre
#                                CCDC 
#
#######################################################################
#
# If this CIF has been generated from an entry in the Cambridge 
# Structural Database, then it will include bibliographic, chemical, 
# crystal, experimental, refinement or atomic coordinate data resulting 
# from the CCDC's data processing and validation procedures.
#
#######################################################################

data_VUZRAK
_chemical_formula_moiety         'C8 H2 F5 N3 S1'
_chemical_name_systematic        
5-(2,3,4,5,6-Pentafluorophenyl)-1,3,4-thiadiazol-2-amine
_symmetry_cell_setting           monoclinic
_symmetry_space_group_name_H-M   'P 21/c'
_symmetry_Int_Tables_number      14
_space_group_name_Hall           '-P 2ybc'
loop_
_symmetry_equiv_pos_site_id
_symmetry_equiv_pos_as_xyz
1 x,y,z
2 -x,1/2+y,1/2-z
3 -x,-y,-z
4 x,1/2-y,1/2+z
_cell_length_a                   11.897(2)
_cell_length_b                   7.0680(14)
_cell_length_c                   11.553(2)
_cell_angle_alpha                90
_cell_angle_beta                 104.66(3)
_cell_angle_gamma                90
_cell_volume                     939.842
_exptl_crystal_colour            colorless
_exptl_crystal_description       block
_cell_formula_units_Z            4
_exptl_crystal_recrystallization_method acetone
loop_
_atom_site_label
_atom_site_type_symbol
_atom_site_fract_x
_atom_site_fract_y
_atom_site_fract_z
S1 S 0.82940(7) 0.06662(10) 0.05893(6)
F1 F 0.78775(15) -0.3360(2) -0.00245(14)
C1 C 0.9155(2) 0.2602(4) 0.0479(2)
N1 N 0.9659(2) 0.3683(4) 0.1416(2)
H1 H 1.0105 0.4601 0.1330
H2 H 0.9537 0.3459 0.2106
C2 C 0.8165(2) 0.0294(4) -0.0925(2)
F2 F 0.65099(17) -0.6042(2) -0.12921(18)
N2 N 0.9298(2) 0.2855(4) -0.06011(19)
F3 F 0.53266(17) -0.5342(3) -0.35867(18)
N3 N 0.8725(2) 0.1519(3) -0.13946(19)
C3 C 0.7437(2) -0.1198(4) -0.1630(2)
F4 F 0.55308(16) -0.1942(3) -0.45890(14)
C4 C 0.7312(2) -0.2972(4) -0.1154(2)
F5 F 0.68393(17) 0.0780(2) -0.33282(15)
C5 C 0.6609(3) -0.4358(4) -0.1800(3)
C6 C 0.6009(2) -0.4016(4) -0.2954(3)
C7 C 0.6116(2) -0.2282(4) -0.3459(2)
C8 C 0.6812(2) -0.0900(4) -0.2800(2)
loop_
_geom_bond_atom_site_label_1
_geom_bond_atom_site_label_2
_geom_bond_site_symmetry_1
_geom_bond_site_symmetry_2
S1 C1 1_555 1_555
F1 C4 1_555 1_555
C1 N1 1_555 1_555
N1 H1 1_555 1_555
H2 N1 1_555 1_555
C2 S1 1_555 1_555
F2 C5 1_555 1_555
N2 C1 1_555 1_555
F3 C6 1_555 1_555
N3 C2 1_555 1_555
C3 C2 1_555 1_555
F4 C7 1_555 1_555
C4 C3 1_555 1_555
F5 C8 1_555 1_555
C5 C4 1_555 1_555
C6 C5 1_555 1_555
C7 C6 1_555 1_555
C8 C3 1_555 1_555
N2 N3 1_555 1_555
C7 C8 1_555 1_555

#END
