
#######################################################################
#
#                 Cambridge Crystallographic Data Centre
#                                CCDC 
#
#######################################################################
#
# If this CIF has been generated from an entry in the Cambridge 
# Structural Database, then it will include bibliographic, chemical, 
# crystal, experimental, refinement or atomic coordinate data resulting 
# from the CCDC's data processing and validation procedures.
#
#######################################################################

data_VUZVET
_chemical_name_common            
(E)-3-(5-(Diphenylamino)-2-thienyl)-1-(pyridin-2-yl)prop-2-en-1-one
_chemical_formula_moiety         'C24 H18 N2 O1 S1'
_chemical_name_systematic        
(E)-3-(5-(Diphenylamino)thiophen-2-yl)-1-(pyridin-2-yl)prop-2-en-1-one
_symmetry_cell_setting           monoclinic
_symmetry_space_group_name_H-M   'P 21/c'
_symmetry_Int_Tables_number      14
_space_group_name_Hall           '-P 2ybc'
loop_
_symmetry_equiv_pos_site_id
_symmetry_equiv_pos_as_xyz
1 x,y,z
2 -x,1/2+y,1/2-z
3 -x,-y,-z
4 x,1/2-y,1/2+z
_cell_length_a                   10.931(5)
_cell_length_b                   18.464(5)
_cell_length_c                   9.657(5)
_cell_angle_alpha                90
_cell_angle_beta                 90.000(5)
_cell_angle_gamma                90
_cell_volume                     1949.07
_exptl_crystal_colour            red
_exptl_crystal_description       block
_chemical_melting_point          '425 K'
_cell_formula_units_Z            4
_exptl_crystal_recrystallization_method acetonitrile
_exptl_crystal_preparation       Luminescent
loop_
_atom_site_label
_atom_site_type_symbol
_atom_site_fract_x
_atom_site_fract_y
_atom_site_fract_z
C1 C 0.7998(5) 0.1492(4) 0.3994(7)
H1 H 0.8635 0.1773 0.4341
C2 C 0.7869(7) 0.1396(5) 0.2604(7)
H2 H 0.8426 0.1613 0.2005
C3 C 0.6950(8) 0.0993(5) 0.2078(7)
H3 H 0.6890 0.0923 0.1126
C4 C 0.6109(7) 0.0686(4) 0.2944(8)
H4 H 0.5472 0.0411 0.2582
C5 C 0.6204(6) 0.0784(3) 0.4347(6)
H5 H 0.5614 0.0590 0.4935
C6 C 0.7174(5) 0.1170(3) 0.4886(5)
C7 C 0.5796(5) 0.2158(3) 0.6807(6)
H6 H 0.6104 0.2430 0.6075
C8 C 0.4816(5) 0.2409(4) 0.7567(7)
H7 H 0.4456 0.2850 0.7344
C9 C 0.4377(6) 0.2015(4) 0.8637(7)
H8 H 0.3720 0.2190 0.9150
C10 C 0.4891(5) 0.1355(4) 0.8979(6)
H9 H 0.4573 0.1089 0.9714
C11 C 0.5880(5) 0.1084(3) 0.8236(6)
H10 H 0.6236 0.0642 0.8462
C12 C 0.6316(5) 0.1500(3) 0.7141(5)
C13 C 0.8415(5) 0.0987(3) 0.6974(5)
C14 C 0.9226(5) 0.0521(3) 0.6398(5)
H11 H 0.9117 0.0300 0.5541
C15 C 1.0242(5) 0.0410(3) 0.7240(5)
H12 H 1.0887 0.0112 0.6978
C16 C 1.0229(4) 0.0771(3) 0.8487(5)
C17 C 1.1132(5) 0.0737(3) 0.9553(5)
H13 H 1.1818 0.0458 0.9357
C18 C 1.1122(4) 0.1054(3) 1.0793(5)
H14 H 1.0469 0.1350 1.1042
C19 C 1.2125(5) 0.0941(3) 1.1761(5)
C20 C 1.2056(5) 0.1267(3) 1.3196(5)
C21 C 1.2799(5) 0.1029(3) 1.4247(6)
H15 H 1.3360 0.0660 1.4079
C22 C 1.2719(7) 0.1329(3) 1.5537(6)
H16 H 1.3222 0.1172 1.6254
C23 C 1.1881(6) 0.1863(3) 1.5742(7)
H17 H 1.1793 0.2079 1.6607
C24 C 1.1172(5) 0.2077(3) 1.4651(7)
H18 H 1.0621 0.2452 1.4804
N1 N 0.7340(4) 0.1240(2) 0.6355(4)
N2 N 1.1209(4) 0.1785(2) 1.3366(5)
O1 O 1.3056(3) 0.0596(2) 1.1501(4)
S1 S 0.88926(13) 0.12809(8) 0.85761(14)
loop_
_geom_bond_atom_site_label_1
_geom_bond_atom_site_label_2
_geom_bond_site_symmetry_1
_geom_bond_site_symmetry_2
C1 H1 1_555 1_555
C2 C1 1_555 1_555
H2 C2 1_555 1_555
C3 C2 1_555 1_555
H3 C3 1_555 1_555
C4 C3 1_555 1_555
H4 C4 1_555 1_555
C5 C4 1_555 1_555
H5 C5 1_555 1_555
C6 C1 1_555 1_555
C7 H6 1_555 1_555
C8 C7 1_555 1_555
H7 C8 1_555 1_555
C9 C8 1_555 1_555
H8 C9 1_555 1_555
C10 C9 1_555 1_555
H9 C10 1_555 1_555
C11 C10 1_555 1_555
H10 C11 1_555 1_555
C12 C7 1_555 1_555
C13 C14 1_555 1_555
C14 H11 1_555 1_555
C15 C14 1_555 1_555
H12 C15 1_555 1_555
C16 C15 1_555 1_555
C17 C16 1_555 1_555
H13 C17 1_555 1_555
C18 C17 1_555 1_555
H14 C18 1_555 1_555
C19 C18 1_555 1_555
C20 C19 1_555 1_555
C21 C20 1_555 1_555
H15 C21 1_555 1_555
C22 C21 1_555 1_555
H16 C22 1_555 1_555
C23 C22 1_555 1_555
H17 C23 1_555 1_555
C24 C23 1_555 1_555
H18 C24 1_555 1_555
N1 C6 1_555 1_555
N2 C20 1_555 1_555
O1 C19 1_555 1_555
S1 C13 1_555 1_555
C5 C6 1_555 1_555
C11 C12 1_555 1_555
C12 N1 1_555 1_555
C13 N1 1_555 1_555
C16 S1 1_555 1_555
C24 N2 1_555 1_555

#END
