
#######################################################################
#
#                 Cambridge Crystallographic Data Centre
#                                CCDC 
#
#######################################################################
#
# If this CIF has been generated from an entry in the Cambridge 
# Structural Database, then it will include bibliographic, chemical, 
# crystal, experimental, refinement or atomic coordinate data resulting 
# from the CCDC's data processing and validation procedures.
#
#######################################################################

data_VUZVIW
_chemical_formula_moiety         'C29 H21 N3 O2'
_chemical_name_systematic        
5-(Anthracen-9-yl)-3-(4-nitrophenyl)-1-phenyl-4,5-dihydro-1H-pyrazole
_symmetry_cell_setting           orthorhombic
_symmetry_space_group_name_H-M   'P c a 21'
_symmetry_Int_Tables_number      29
_space_group_name_Hall           'P 2c -2ac'
loop_
_symmetry_equiv_pos_site_id
_symmetry_equiv_pos_as_xyz
1 x,y,z
2 -x,-y,1/2+z
3 1/2+x,-y,z
4 1/2-x,y,1/2+z
_cell_length_a                   23.023(5)
_cell_length_b                   10.195(2)
_cell_length_c                   9.2005(18)
_cell_angle_alpha                90
_cell_angle_beta                 90
_cell_angle_gamma                90
_cell_volume                     2159.54
_exptl_crystal_colour            red
_exptl_crystal_description       prism
_cell_formula_units_Z            4
_exptl_crystal_recrystallization_method 'ethanol/ethyl acetate'
loop_
_atom_site_label
_atom_site_type_symbol
_atom_site_fract_x
_atom_site_fract_y
_atom_site_fract_z
N1 N 0.34781(11) 0.8437(3) 0.1581(3)
C1 C 0.33011(15) 0.6798(3) -0.0211(4)
C2 C 0.48920(14) 0.7455(3) 0.3722(4)
C3 C 0.49683(14) 0.8475(3) 0.2692(4)
C4 C 0.53459(15) 0.7161(3) 0.4735(4)
C5 C 0.36872(14) 0.7631(4) 0.0641(4)
C6 C 0.25650(16) 0.5236(3) -0.1831(4)
C7 C 0.59566(15) 0.8817(4) 0.3653(4)
O1 O 0.16551(13) 0.4657(3) -0.2656(4)
C8 C 0.55013(14) 0.9175(3) 0.2655(4)
C9 C 0.44934(13) 0.8788(3) 0.1582(4)
H1 H 0.4619 0.9549 0.1013
N2 N 0.39237(12) 0.9097(3) 0.2234(4)
C10 C 0.42219(16) 1.1131(3) 0.3361(4)
H2 H 0.4595 1.1022 0.2991
C11 C 0.43743(16) 0.6694(3) 0.3833(4)
H3 H 0.4074 0.6842 0.3178
C12 C 0.35497(16) 1.2377(4) 0.4779(5)
H4 H 0.3468 1.3096 0.5367
C13 C 0.65023(17) 0.9509(4) 0.3584(5)
H5 H 0.6801 0.9270 0.4211
C14 C 0.56258(15) 1.0242(3) 0.1698(5)
H6 H 0.5339 1.0515 0.1053
C15 C 0.37940(15) 1.0216(3) 0.3050(4)
C16 C 0.58675(16) 0.7836(4) 0.4662(4)
H7 H 0.6164 0.7624 0.5307
N3 N 0.21739(15) 0.4423(3) -0.2714(4)
C17 C 0.35171(16) 0.5779(4) -0.1053(5)
H8 H 0.3915 0.5628 -0.1076
C18 C 0.43091(17) 0.5761(4) 0.4868(5)
H9 H 0.3967 0.5277 0.4904
C19 C 0.23398(15) 0.6237(4) -0.1030(4)
H10 H 0.1942 0.6399 -0.1041
O2 O 0.23825(14) 0.3550(3) -0.3453(4)
C20 C 0.40961(17) 1.2200(4) 0.4218(5)
H11 H 0.4385 1.2810 0.4419
C21 C 0.65894(18) 1.0493(4) 0.2635(6)
H12 H 0.6946 1.0921 0.2605
C22 C 0.43391(13) 0.7676(4) 0.0517(4)
H13 H 0.4461 0.7885 -0.0466
H14 H 0.4514 0.6852 0.0810
C23 C 0.61422(17) 1.0873(4) 0.1690(5)
H15 H 0.6201 1.1567 0.1051
C24 C 0.47497(19) 0.5511(4) 0.5891(5)
H16 H 0.4693 0.4889 0.6617
C25 C 0.32422(17) 1.0409(4) 0.3603(5)
H17 H 0.2949 0.9812 0.3393
C26 C 0.27035(15) 0.7011(3) -0.0203(4)
H18 H 0.2549 0.7680 0.0365
C27 C 0.52555(19) 0.6179(4) 0.5811(5)
H19 H 0.5550 0.5993 0.6471
C28 C 0.31528(17) 0.4985(4) -0.1856(5)
H20 H 0.3301 0.4294 -0.2403
C29 C 0.31263(17) 1.1481(4) 0.4460(6)
H21 H 0.2754 1.1600 0.4829
loop_
_geom_bond_atom_site_label_1
_geom_bond_atom_site_label_2
_geom_bond_site_symmetry_1
_geom_bond_site_symmetry_2
N1 C5 1_555 1_555
C1 C5 1_555 1_555
C2 C3 1_555 1_555
C3 C8 1_555 1_555
C4 C2 1_555 1_555
C5 C22 1_555 1_555
C6 N3 1_555 1_555
C7 C8 1_555 1_555
O1 N3 1_555 1_555
C8 C14 1_555 1_555
C9 C3 1_555 1_555
H1 C9 1_555 1_555
N2 N1 1_555 1_555
C10 H2 1_555 1_555
C11 C2 1_555 1_555
H3 C11 1_555 1_555
C12 H4 1_555 1_555
C13 C7 1_555 1_555
H5 C13 1_555 1_555
C14 H6 1_555 1_555
C15 N2 1_555 1_555
C16 C4 1_555 1_555
H7 C16 1_555 1_555
N3 O2 1_555 1_555
C17 C1 1_555 1_555
H8 C17 1_555 1_555
C18 C11 1_555 1_555
H9 C18 1_555 1_555
C19 C6 1_555 1_555
H10 C19 1_555 1_555
C20 C10 1_555 1_555
H11 C20 1_555 1_555
C21 C13 1_555 1_555
H12 C21 1_555 1_555
C22 C9 1_555 1_555
H13 C22 1_555 1_555
H14 C22 1_555 1_555
C23 C14 1_555 1_555
H15 C23 1_555 1_555
C24 C18 1_555 1_555
H16 C24 1_555 1_555
C25 C15 1_555 1_555
H17 C25 1_555 1_555
C26 C1 1_555 1_555
H18 C26 1_555 1_555
C27 C4 1_555 1_555
H19 C27 1_555 1_555
C28 C6 1_555 1_555
H20 C28 1_555 1_555
C29 C12 1_555 1_555
H21 C29 1_555 1_555
C7 C16 1_555 1_555
C9 N2 1_555 1_555
C10 C15 1_555 1_555
C12 C20 1_555 1_555
C17 C28 1_555 1_555
C19 C26 1_555 1_555
C21 C23 1_555 1_555
C24 C27 1_555 1_555
C25 C29 1_555 1_555

#END
