
#######################################################################
#
#                 Cambridge Crystallographic Data Centre
#                                CCDC 
#
#######################################################################
#
# If this CIF has been generated from an entry in the Cambridge 
# Structural Database, then it will include bibliographic, chemical, 
# crystal, experimental, refinement or atomic coordinate data resulting 
# from the CCDC's data processing and validation procedures.
#
#######################################################################

data_WABGIS
_chemical_formula_moiety         'C31 H19 N3'
_chemical_name_systematic        2,6-bis(9H-carbazol-9-yl)benzonitrile
_symmetry_cell_setting           monoclinic
_symmetry_space_group_name_H-M   'P 21/c'
_symmetry_Int_Tables_number      14
_space_group_name_Hall           '-P 2ybc'
loop_
_symmetry_equiv_pos_site_id
_symmetry_equiv_pos_as_xyz
1 x,y,z
2 -x,1/2+y,1/2-z
3 -x,-y,-z
4 x,1/2-y,1/2+z
_cell_length_a                   8.4562(16)
_cell_length_b                   7.9666(14)
_cell_length_c                   34.004(6)
_cell_angle_alpha                90
_cell_angle_beta                 94.974(4)
_cell_angle_gamma                90
_cell_volume                     2282.13
_exptl_crystal_colour            yellow
_exptl_crystal_description       plate
_cell_formula_units_Z            4
loop_
_atom_site_label
_atom_site_type_symbol
_atom_site_fract_x
_atom_site_fract_y
_atom_site_fract_z
N1 N 0.2892(4) 1.0845(4) 0.10234(10)
N2 N 0.1068(4) 0.8930(3) 0.17644(8)
C1 C 0.2739(4) 0.9489(4) 0.11150(10)
C2 C 0.2541(4) 0.7793(4) 0.12454(10)
C3 C 0.1717(4) 0.7536(4) 0.15726(10)
C4 C 0.1564(5) 0.5938(4) 0.17205(11)
H1 H 0.1017 0.5757 0.1943
C5 C 0.2235(6) 0.4610(5) 0.15336(13)
H2 H 0.2122 0.3528 0.1630
C6 C 0.3063(5) 0.4853(4) 0.12096(12)
H3 H 0.3517 0.3943 0.1090
C7 C 0.3223(4) 0.6446(4) 0.10618(10)
C8 C -0.0446(5) 0.9583(4) 0.16813(10)
C9 C -0.1642(5) 0.9061(5) 0.14060(11)
H4 H -0.1484 0.8177 0.1235
C10 C -0.3068(6) 0.9887(6) 0.13924(13)
H5 H -0.3897 0.9542 0.1213
C11 C -0.3296(6) 1.1210(6) 0.16388(15)
H6 H -0.4272 1.1753 0.1620
C12 C -0.2115(6) 1.1758(5) 0.19149(13)
H7 H -0.2291 1.2651 0.2082
C13 C -0.0644(5) 1.0935(4) 0.19372(10)
C14 C 0.0813(5) 1.1112(4) 0.21829(11)
C15 C 0.1347(6) 1.2176(5) 0.24857(12)
H8 H 0.0689 1.3020 0.2567
C16 C 0.2842(6) 1.1987(6) 0.26653(13)
H9 H 0.3191 1.2704 0.2870
C17 C 0.3854(5) 1.0746(6) 0.25484(13)
H10 H 0.4870 1.0644 0.2675
C18 C 0.3358(5) 0.9659(5) 0.22447(12)
H11 H 0.4024 0.8823 0.2163
C19 C 0.1853(5) 0.9860(4) 0.20692(10)
N3 N 0.4211(7) 0.6674(8) 0.07692(18)
C20 C 0.3898(7) 0.7310(9) 0.04143(14)
C21 C 0.2484(6) 0.8011(9) 0.02519(17)
H12 H 0.1614 0.8077 0.0401
C22 C 0.2370(7) 0.8613(8) -0.01332(18)
H13 H 0.1424 0.9082 -0.0242
C23 C 0.3670(9) 0.8514(9) -0.03559(13)
H14 H 0.3594 0.8917 -0.0614
C24 C 0.5084(7) 0.7813(9) -0.01934(17)
H15 H 0.5954 0.7747 -0.0342
C25 C 0.5198(6) 0.7211(8) 0.01917(18)
C26 C 0.6438(6) 0.6374(5) 0.04185(13)
C27 C 0.7995(6) 0.5892(7) 0.03772(16)
H16 H 0.8458 0.6136 0.0146
C28 C 0.8859(5) 0.5045(7) 0.0682(2)
H17 H 0.9900 0.4723 0.0654
C29 C 0.8166(6) 0.4680(6) 0.10281(17)
H18 H 0.8744 0.4113 0.1232
C30 C 0.6609(6) 0.5162(6) 0.10693(13)
H19 H 0.6146 0.4917 0.1301
C31 C 0.5745(5) 0.6008(6) 0.07645(14)
N4? N 0.3981(6) 0.6672(11) 0.0711(2)
C32? C 0.3144(13) 0.7522(17) 0.0341(3)
C33? C 0.1583(12) 0.8052(19) 0.0262(3)
H20? H 0.0876 0.7973 0.0456
C34? C 0.1079(11) 0.8702(17) -0.0107(3)
H21? H 0.0035 0.9057 -0.0160
C35? C 0.2136(15) 0.8820(16) -0.0397(2)
H22? H 0.1799 0.9255 -0.0644
C36? C 0.3697(13) 0.8290(18) -0.0318(3)
H23? H 0.4404 0.8369 -0.0512
C37? C 0.4201(10) 0.7640(16) 0.0051(3)
C38? C 0.5707(10) 0.7045(13) 0.0182(3)
C39? C 0.7179(11) 0.6720(12) 0.0045(3)
H24? H 0.7381 0.7042 -0.0208
C40? C 0.8350(9) 0.5914(14) 0.0288(4)
H25? H 0.9335 0.5697 0.0197
C41? C 0.8048(10) 0.5433(13) 0.0668(3)
H26? H 0.8831 0.4894 0.0830
C42? C 0.6575(12) 0.5758(12) 0.0804(3)
H27? H 0.6373 0.5436 0.1058
C43? C 0.5405(9) 0.6564(13) 0.0561(3)
loop_
_geom_bond_atom_site_label_1
_geom_bond_atom_site_label_2
_geom_bond_site_symmetry_1
_geom_bond_site_symmetry_2
N1 C1 1_555 1_555
N2 C3 1_555 1_555
C1 C2 1_555 1_555
C2 C3 1_555 1_555
C3 C4 1_555 1_555
C4 H1 1_555 1_555
C5 C4 1_555 1_555
H2 C5 1_555 1_555
C6 C5 1_555 1_555
H3 C6 1_555 1_555
C7 C2 1_555 1_555
C8 N2 1_555 1_555
C9 C8 1_555 1_555
H4 C9 1_555 1_555
C10 C9 1_555 1_555
H5 C10 1_555 1_555
C11 C10 1_555 1_555
H6 C11 1_555 1_555
C12 C11 1_555 1_555
H7 C12 1_555 1_555
C13 C8 1_555 1_555
C14 C13 1_555 1_555
C15 C14 1_555 1_555
H8 C15 1_555 1_555
C16 C15 1_555 1_555
H9 C16 1_555 1_555
C17 C16 1_555 1_555
H10 C17 1_555 1_555
C18 C17 1_555 1_555
H11 C18 1_555 1_555
C19 N2 1_555 1_555
N3 C7 1_555 1_555
C20 N3 1_555 1_555
C21 C20 1_555 1_555
H12 C21 1_555 1_555
C22 C21 1_555 1_555
H13 C22 1_555 1_555
C23 C22 1_555 1_555
H14 C23 1_555 1_555
C24 C23 1_555 1_555
H15 C24 1_555 1_555
C25 C20 1_555 1_555
C26 C25 1_555 1_555
C27 C26 1_555 1_555
H16 C27 1_555 1_555
C28 C27 1_555 1_555
H17 C28 1_555 1_555
C29 C28 1_555 1_555
H18 C29 1_555 1_555
C30 C29 1_555 1_555
H19 C30 1_555 1_555
C31 N3 1_555 1_555
C6 C7 1_555 1_555
C12 C13 1_555 1_555
C14 C19 1_555 1_555
C18 C19 1_555 1_555
C24 C25 1_555 1_555
C26 C31 1_555 1_555
C30 C31 1_555 1_555

#END
