
#######################################################################
#
#                 Cambridge Crystallographic Data Centre
#                                CCDC 
#
#######################################################################
#
# If this CIF has been generated from an entry in the Cambridge 
# Structural Database, then it will include bibliographic, chemical, 
# crystal, experimental, refinement or atomic coordinate data resulting 
# from the CCDC's data processing and validation procedures.
#
#######################################################################

data_WABKOC
_chemical_name_common            
'cyclo[2](2,6-di(1H-imidazolium-1-yl)pyridine)[2](1,4-dimethylene-benzene) bis(succinate) octahydrate'
_chemical_formula_moiety         'C38 H34 N10 4+,2(C4 H4 O4 2-),8(H2 O1)'
_chemical_name_systematic        
'6,12,25,31,42,47-hexaaza-3,15,22,34-tetraazonianonacyclo[34.2.2.2^17,20^.1^3,6^.1^7,11^.1^12,15^.1^22,25^.1^26,30^.1^31,34^]octatetraconta-1(38),3(48),4,7(47),8,10,13,15(46),17,19,22(43),23,26(42),27,29,32,34(41),36,39,44-icosaene bis(succinate) octahydrate'
_symmetry_cell_setting           triclinic
_symmetry_space_group_name_H-M   'P -1'
_symmetry_Int_Tables_number      2
_space_group_name_Hall           '-P 1'
loop_
_symmetry_equiv_pos_site_id
_symmetry_equiv_pos_as_xyz
1 x,y,z
2 -x,-y,-z
_cell_length_a                   10.178(2)
_cell_length_b                   10.328(2)
_cell_length_c                   11.494(2)
_cell_angle_alpha                105.45(3)
_cell_angle_beta                 93.86(3)
_cell_angle_gamma                96.05(3)
_cell_volume                     1152.33
_cell_formula_units_Z            1
loop_
_atom_site_label
_atom_site_type_symbol
_atom_site_fract_x
_atom_site_fract_y
_atom_site_fract_z
C1 C 0.4172(3) 0.8675(3) 0.3055(3)
H1 H 0.3407 0.8494 0.3474
H2 H 0.4170 0.9574 0.2946
N1 N 0.4047(3) 0.7678(3) 0.1855(2)
C2 C 0.3516(3) 0.6393(3) 0.1610(3)
H3 H 0.3172 0.5969 0.2163
N2 N 0.3561(3) 0.5815(3) 0.0423(2)
C3 C 0.4439(3) 0.7935(3) 0.0800(3)
H4 H 0.4839 0.8758 0.0726
N3 N 0.2720(3) 0.3691(3) 0.0542(2)
C4 C 0.4136(3) 0.6775(3) -0.0103(3)
H5 H 0.4282 0.6644 -0.0913
N4 N 0.1928(3) 0.1632(3) 0.0837(2)
C5 C 0.3026(3) 0.4443(3) -0.0194(3)
N5 N 0.1455(3) 0.1169(3) 0.2493(2)
C6 C 0.2874(3) 0.4001(3) -0.1444(3)
H6 H 0.3106 0.4577 -0.1917
C7 C 0.2363(3) 0.2666(3) -0.1959(3)
H7 H 0.2239 0.2323 -0.2798
C8 C 0.2033(3) 0.1830(3) -0.1232(3)
H8 H 0.1691 0.0924 -0.1561
C9 C 0.2239(3) 0.2409(3) 0.0005(3)
C10 C 0.1732(3) 0.2176(3) 0.2000(3)
H9 H 0.1782 0.3095 0.2391
C11 C 0.1755(3) 0.0234(3) 0.0596(3)
H10 H 0.1829 -0.0387 -0.0141
C12 C 0.1460(3) -0.0056(3) 0.1629(3)
H11 H 0.1291 -0.0915 0.1742
C13 C 0.1135(3) 0.1326(4) 0.3757(3)
H12 H 0.0472 0.0586 0.3773
H13 H 0.0756 0.2165 0.4039
C14 C 0.2337(3) 0.1344(3) 0.4614(3)
C15 C 0.2428(3) 0.0299(3) 0.5148(3)
H14 H 0.1739 -0.0410 0.4991
C16 C 0.3547(3) 0.0300(3) 0.5922(3)
H15 H 0.3600 -0.0408 0.6274
C17 C 0.4575(3) 0.1352(3) 0.6164(3)
C18 C 0.4468(3) 0.2414(3) 0.5642(3)
H16 H 0.5152 0.3128 0.5805
C19 C 0.3359(4) 0.2419(3) 0.4886(3)
H17 H 0.3294 0.3143 0.4557
C1A C 0.5828(3) 0.1325(3) 0.6945(3)
H1A H 0.6593 0.1506 0.6526
H2A H 0.5830 0.0426 0.7054
N1A N 0.5953(3) 0.2322(3) 0.8145(2)
C2A C 0.6484(3) 0.3607(3) 0.8390(3)
H3A H 0.6828 0.4031 0.7837
N2A N 0.6439(3) 0.4185(3) 0.9577(2)
C3A C 0.5561(3) 0.2065(3) 0.9200(3)
H4A H 0.5161 0.1242 0.9274
N3A N 0.7280(3) 0.6309(3) 0.9458(2)
C4A C 0.5864(3) 0.3225(3) 1.0103(3)
H5A H 0.5718 0.3356 1.0913
N4A N 0.8072(3) 0.8368(3) 0.9163(2)
C5A C 0.6974(3) 0.5557(3) 1.0194(3)
N5A N 0.8545(3) 0.8831(3) 0.7507(2)
C6A C 0.7126(3) 0.5999(3) 1.1444(3)
H6A H 0.6894 0.5423 1.1917
C7A C 0.7637(3) 0.7334(3) 1.1959(3)
H7A H 0.7761 0.7677 1.2798
C8A C 0.7967(3) 0.8170(3) 1.1232(3)
H8A H 0.8309 0.9076 1.1561
C9A C 0.7761(3) 0.7591(3) 0.9995(3)
C10A C 0.8268(3) 0.7824(3) 0.8000(3)
H9A H 0.8218 0.6905 0.7609
C11A C 0.8245(3) 0.9766(3) 0.9404(3)
H10A H 0.8171 1.0387 1.0141
C12A C 0.8540(3) 1.0056(3) 0.8371(3)
H11A H 0.8709 1.0915 0.8258
C13A C 0.8865(3) 0.8674(4) 0.6243(3)
H12A H 0.9528 0.9414 0.6227
H13A H 0.9244 0.7835 0.5961
C14A C 0.7663(3) 0.8656(3) 0.5386(3)
C15A C 0.7572(3) 0.9701(3) 0.4852(3)
H14A H 0.8261 1.0410 0.5009
C16A C 0.6453(3) 0.9700(3) 0.4078(3)
H15A H 0.6400 1.0408 0.3726
C17A C 0.5425(3) 0.8648(3) 0.3836(3)
C18A C 0.5532(3) 0.7586(3) 0.4358(3)
H16A H 0.4848 0.6872 0.4195
C19A C 0.6641(4) 0.7581(3) 0.5114(3)
H17A H 0.6706 0.6857 0.5443
O1 O 0.0937(3) 0.7894(3) 0.2998(2)
O2 O 0.0544(3) 0.5996(3) 0.1496(2)
O3 O 0.2888(3) 0.6100(3) 0.5770(2)
O4 O 0.2656(2) 0.5147(2) 0.3767(2)
C20 C 0.0567(3) 0.6658(4) 0.2591(3)
C21 C 0.0097(3) 0.5891(3) 0.3480(3)
H18 H -0.0819 0.6019 0.3606
H19 H 0.0125 0.4931 0.3129
C22 C 0.0932(3) 0.6348(3) 0.4696(3)
H20 H 0.1086 0.7330 0.4939
H21 H 0.0423 0.6070 0.5291
C23 C 0.2261(3) 0.5819(3) 0.4733(3)
O5 O 0.4914(2) 0.3989(3) 0.2879(2)
O6 O 0.0654(3) 0.6623(3) 0.9334(2)
O7 O 0.1993(3) 0.7903(3) 0.7818(2)
O8 O 0.4828(3) -0.1213(3) 0.8233(2)
loop_
_geom_bond_atom_site_label_1
_geom_bond_atom_site_label_2
_geom_bond_site_symmetry_1
_geom_bond_site_symmetry_2
C1 H1 1_555 1_555
H2 C1 1_555 1_555
N1 C1 1_555 1_555
C2 N1 1_555 1_555
H3 C2 1_555 1_555
N2 C2 1_555 1_555
C3 N1 1_555 1_555
H4 C3 1_555 1_555
N3 C5 1_555 1_555
C4 N2 1_555 1_555
H5 C4 1_555 1_555
N4 C9 1_555 1_555
C5 N2 1_555 1_555
N5 C10 1_555 1_555
C6 C5 1_555 1_555
H6 C6 1_555 1_555
C7 C6 1_555 1_555
H7 C7 1_555 1_555
C8 C7 1_555 1_555
H8 C8 1_555 1_555
C9 N3 1_555 1_555
C10 N4 1_555 1_555
H9 C10 1_555 1_555
C11 N4 1_555 1_555
H10 C11 1_555 1_555
C12 N5 1_555 1_555
H11 C12 1_555 1_555
C13 N5 1_555 1_555
H12 C13 1_555 1_555
H13 C13 1_555 1_555
C14 C13 1_555 1_555
C15 C14 1_555 1_555
H14 C15 1_555 1_555
C16 C15 1_555 1_555
H15 C16 1_555 1_555
C17 C16 1_555 1_555
C18 C17 1_555 1_555
H16 C18 1_555 1_555
C19 C14 1_555 1_555
H17 C19 1_555 1_555
O1 C20 1_555 1_555
O2 C20 1_555 1_555
O3 C23 1_555 1_555
O4 C23 1_555 1_555
C20 C21 1_555 1_555
C21 H18 1_555 1_555
H19 C21 1_555 1_555
C22 C21 1_555 1_555
H20 C22 1_555 1_555
H21 C22 1_555 1_555
C23 C22 1_555 1_555
C1A C17 1_555 1_555
H1A C1A 1_555 1_555
H2A C1A 1_555 1_555
N1A C1A 1_555 1_555
C2A N1A 1_555 1_555
H3A C2A 1_555 1_555
N2A C2A 1_555 1_555
C3A N1A 1_555 1_555
H4A C3A 1_555 1_555
N3A C5A 1_555 1_555
C4A N2A 1_555 1_555
H5A C4A 1_555 1_555
N4A C9A 1_555 1_555
C5A N2A 1_555 1_555
N5A C10A 1_555 1_555
C6A C5A 1_555 1_555
H6A C6A 1_555 1_555
C7A C6A 1_555 1_555
H7A C7A 1_555 1_555
C8A C7A 1_555 1_555
H8A C8A 1_555 1_555
C9A N3A 1_555 1_555
C10A N4A 1_555 1_555
H9A C10A 1_555 1_555
C11A N4A 1_555 1_555
H10A C11A 1_555 1_555
C12A N5A 1_555 1_555
H11A C12A 1_555 1_555
C13A N5A 1_555 1_555
H12A C13A 1_555 1_555
H13A C13A 1_555 1_555
C14A C13A 1_555 1_555
C15A C14A 1_555 1_555
H14A C15A 1_555 1_555
C16A C15A 1_555 1_555
H15A C16A 1_555 1_555
C17A C1 1_555 1_555
C18A C17A 1_555 1_555
H16A C18A 1_555 1_555
C19A C14A 1_555 1_555
H17A C19A 1_555 1_555
C3 C4 1_555 1_555
C8 C9 1_555 1_555
C11 C12 1_555 1_555
C18 C19 1_555 1_555
C3A C4A 1_555 1_555
C8A C9A 1_555 1_555
C11A C12A 1_555 1_555
C16A C17A 1_555 1_555
C18A C19A 1_555 1_555

#END
