
#######################################################################
#
#                 Cambridge Crystallographic Data Centre
#                                CCDC 
#
#######################################################################
#
# If this CIF has been generated from an entry in the Cambridge 
# Structural Database, then it will include bibliographic, chemical, 
# crystal, experimental, refinement or atomic coordinate data resulting 
# from the CCDC's data processing and validation procedures.
#
#######################################################################

data_WABLAP
_chemical_formula_moiety         'C23 H29 Br1 O2 S1'
_chemical_name_systematic        
'S-((2-Bromophenyl)(3,5-di-t-butyl-4-hydroxyphenyl)methyl) ethanethioate'
_symmetry_cell_setting           orthorhombic
_symmetry_space_group_name_H-M   'P 21 21 21'
_symmetry_Int_Tables_number      19
_space_group_name_Hall           'P 2ac 2ab'
loop_
_symmetry_equiv_pos_site_id
_symmetry_equiv_pos_as_xyz
1 x,y,z
2 1/2-x,-y,1/2+z
3 -x,1/2+y,1/2-z
4 1/2+x,1/2-y,-z
_cell_length_a                   10.596(2)
_cell_length_b                   13.459(3)
_cell_length_c                   15.706(3)
_cell_angle_alpha                90
_cell_angle_beta                 90
_cell_angle_gamma                90
_cell_volume                     2239.86
_cell_formula_units_Z            4
loop_
_atom_site_label
_atom_site_type_symbol
_atom_site_fract_x
_atom_site_fract_y
_atom_site_fract_z
Br1 Br 0.38610(2) 0.49254(2) 0.109179(16)
S1 S 0.42700(6) 0.80945(5) 0.24684(5)
O1 O 0.99970(14) 0.68568(16) 0.24988(12)
H1 H 1.0360 0.6924 0.2027
O2 O 0.22009(17) 0.74631(16) 0.17314(12)
C1 C 0.8719(2) 0.67670(19) 0.23726(16)
C2 C 0.8182(2) 0.6612(2) 0.15712(16)
C3 C 0.6860(2) 0.6629(2) 0.15304(16)
H2 H 0.6464 0.6562 0.0991
C4 C 0.6109(2) 0.67389(19) 0.22455(15)
C5 C 0.6681(2) 0.6817(2) 0.30362(16)
H3 H 0.6166 0.6852 0.3530
C6 C 0.7989(2) 0.6845(2) 0.31302(16)
C7 C 0.8595(2) 0.6944(2) 0.40122(16)
C8 C 0.9486(3) 0.6071(2) 0.42006(18)
H4 H 0.9006 0.5448 0.4193
H5 H 0.9870 0.6162 0.4763
H6 H 1.0149 0.6045 0.3766
C9 C 0.9331(3) 0.7936(2) 0.40776(17)
H7 H 1.0043 0.7926 0.3679
H8 H 0.9647 0.8020 0.4659
H9 H 0.8768 0.8489 0.3935
C10 C 0.7599(3) 0.6953(2) 0.47252(17)
H10 H 0.7048 0.7532 0.4655
H11 H 0.8022 0.6989 0.5279
H12 H 0.7094 0.6344 0.4695
C11 C 0.8967(2) 0.6437(2) 0.07626(16)
C12 C 0.9626(3) 0.7406(2) 0.04601(18)
H13 H 0.8987 0.7890 0.0285
H14 H 1.0180 0.7256 -0.0023
H15 H 1.0128 0.7682 0.0928
C13 C 0.9949(3) 0.5600(2) 0.08980(17)
H16 H 1.0554 0.5803 0.1337
H17 H 1.0399 0.5476 0.0363
H18 H 0.9518 0.4992 0.1079
C14 C 0.8127(3) 0.6080(3) 0.00203(17)
H19 H 0.7629 0.5505 0.0204
H20 H 0.8660 0.5891 -0.0463
H21 H 0.7558 0.6618 -0.0151
C15 C 0.4676(2) 0.6828(2) 0.21468(16)
H22 H 0.4465 0.6752 0.1530
C16 C 0.3938(2) 0.60516(19) 0.26422(16)
C17 C 0.3667(2) 0.6164(2) 0.35095(16)
H23 H 0.3925 0.6752 0.3795
C18 C 0.3039(2) 0.5443(2) 0.39546(19)
H24 H 0.2896 0.5531 0.4547
C19 C 0.2613(2) 0.4605(2) 0.35651(18)
H25 H 0.2154 0.4124 0.3881
C20 C 0.2852(2) 0.4452(2) 0.27022(18)
H26 H 0.2569 0.3868 0.2422
C21 C 0.3517(2) 0.5180(2) 0.22648(15)
C22 C 0.2693(3) 0.8143(2) 0.21252(18)
C23 C 0.2026(3) 0.9090(2) 0.2360(2)
H27 H 0.2535 0.9660 0.2177
H28 H 0.1907 0.9116 0.2978
H29 H 0.1202 0.9112 0.2077
loop_
_geom_bond_atom_site_label_1
_geom_bond_atom_site_label_2
_geom_bond_site_symmetry_1
_geom_bond_site_symmetry_2
Br1 C21 1_555 1_555
S1 C15 1_555 1_555
O1 H1 1_555 1_555
O2 C22 1_555 1_555
C1 O1 1_555 1_555
C2 C1 1_555 1_555
C3 C2 1_555 1_555
H2 C3 1_555 1_555
C4 C3 1_555 1_555
C5 C4 1_555 1_555
H3 C5 1_555 1_555
C6 C1 1_555 1_555
C7 C6 1_555 1_555
C8 C7 1_555 1_555
H4 C8 1_555 1_555
H5 C8 1_555 1_555
H6 C8 1_555 1_555
C9 C7 1_555 1_555
H7 C9 1_555 1_555
H8 C9 1_555 1_555
H9 C9 1_555 1_555
C10 C7 1_555 1_555
H10 C10 1_555 1_555
H11 C10 1_555 1_555
H12 C10 1_555 1_555
C11 C2 1_555 1_555
C12 C11 1_555 1_555
H13 C12 1_555 1_555
H14 C12 1_555 1_555
H15 C12 1_555 1_555
C13 C11 1_555 1_555
H16 C13 1_555 1_555
H17 C13 1_555 1_555
H18 C13 1_555 1_555
C14 C11 1_555 1_555
H19 C14 1_555 1_555
H20 C14 1_555 1_555
H21 C14 1_555 1_555
C15 C4 1_555 1_555
H22 C15 1_555 1_555
C16 C15 1_555 1_555
C17 C16 1_555 1_555
H23 C17 1_555 1_555
C18 C17 1_555 1_555
H24 C18 1_555 1_555
C19 C18 1_555 1_555
H25 C19 1_555 1_555
C20 C19 1_555 1_555
H26 C20 1_555 1_555
C21 C16 1_555 1_555
C22 S1 1_555 1_555
C23 C22 1_555 1_555
H27 C23 1_555 1_555
H28 C23 1_555 1_555
H29 C23 1_555 1_555
C5 C6 1_555 1_555
C20 C21 1_555 1_555

#END
