
#######################################################################
#
#                 Cambridge Crystallographic Data Centre
#                                CCDC 
#
#######################################################################
#
# If this CIF has been generated from an entry in the Cambridge 
# Structural Database, then it will include bibliographic, chemical, 
# crystal, experimental, refinement or atomic coordinate data resulting 
# from the CCDC's data processing and validation procedures.
#
#######################################################################

data_WABLOD
_chemical_formula_moiety         'C16 H10 Br2 N2 O1'
_chemical_name_systematic        N-(5,7-Dibromoquinolin-8-yl)benzamide
_symmetry_cell_setting           monoclinic
_symmetry_space_group_name_H-M   'P c'
_symmetry_Int_Tables_number      7
_space_group_name_Hall           'P -2yc'
loop_
_symmetry_equiv_pos_site_id
_symmetry_equiv_pos_as_xyz
1 x,y,z
2 x,-y,1/2+z
_cell_length_a                   8.0468(7)
_cell_length_b                   12.1197(10)
_cell_length_c                   7.5388(7)
_cell_angle_alpha                90
_cell_angle_beta                 91.03
_cell_angle_gamma                90
_cell_volume                     735.101
_exptl_crystal_colour            yellow
_exptl_crystal_description       block
_cell_formula_units_Z            2
loop_
_atom_site_label
_atom_site_type_symbol
_atom_site_fract_x
_atom_site_fract_y
_atom_site_fract_z
Br1 Br 0.42308(13) 0.09155(6) 0.75407(13)
Br2 Br -0.02037(11) 0.44445(9) 0.82170(12)
O1 O 0.5081(6) 0.1435(5) 0.3627(8)
N1 N 0.5886(8) 0.4880(6) 0.5536(9)
N2 N 0.6373(8) 0.2667(6) 0.5402(10)
H1 H 0.7313 0.2921 0.5778
C1 C 0.3111(10) 0.4665(7) 0.6823(11)
C2 C 0.1895(9) 0.3920(7) 0.7447(12)
C3 C 0.2210(10) 0.2825(6) 0.7566(11)
H2 H 0.1409 0.2353 0.8014
C4 C 0.3765(11) 0.2391(7) 0.7008(10)
C5 C 0.4902(10) 0.3057(6) 0.6167(10)
C6 C 0.4615(10) 0.4229(6) 0.6161(10)
C7 C 0.5676(13) 0.5934(7) 0.5580(14)
H3 H 0.6521 0.6380 0.5154
C8 C 0.4243(13) 0.6452(7) 0.6234(12)
H4 H 0.4170 0.7218 0.6260
C9 C 0.2964(13) 0.5822(7) 0.6829(13)
H5 H 0.2001 0.6154 0.7235
C10 C 0.6349(9) 0.1898(6) 0.4079(11)
C11 C 0.7969(9) 0.1664(6) 0.3197(12)
C12 C 0.7928(12) 0.1191(8) 0.1539(13)
H6 H 0.6914 0.1033 0.0985
C13 C 0.9406(15) 0.0946(8) 0.0689(14)
H7 H 0.9376 0.0648 -0.0447
C14 C 1.0911(12) 0.1146(9) 0.1526(15)
H8 H 1.1897 0.0966 0.0970
C15 C 1.0948(10) 0.1611(8) 0.3176(16)
H9 H 1.1963 0.1749 0.3742
C16 C 0.9486(10) 0.1877(7) 0.4011(12)
H10 H 0.9524 0.2201 0.5130
loop_
_geom_bond_atom_site_label_1
_geom_bond_atom_site_label_2
_geom_bond_site_symmetry_1
_geom_bond_site_symmetry_2
Br1 C4 1_555 1_555
Br2 C2 1_555 1_555
O1 C10 1_555 1_555
N1 C6 1_555 1_555
N2 H1 1_555 1_555
C1 C2 1_555 1_555
C2 C3 1_555 1_555
C3 H2 1_555 1_555
C4 C3 1_555 1_555
C5 N2 1_555 1_555
C6 C1 1_555 1_555
C7 N1 1_555 1_555
H3 C7 1_555 1_555
C8 C7 1_555 1_555
H4 C8 1_555 1_555
C9 C1 1_555 1_555
H5 C9 1_555 1_555
C10 N2 1_555 1_555
C11 C10 1_555 1_555
C12 C11 1_555 1_555
H6 C12 1_555 1_555
C13 C12 1_555 1_555
H7 C13 1_555 1_555
C14 C13 1_555 1_555
H8 C14 1_555 1_555
C15 C14 1_555 1_555
H9 C15 1_555 1_555
C16 C11 1_555 1_555
H10 C16 1_555 1_555
C4 C5 1_555 1_555
C5 C6 1_555 1_555
C8 C9 1_555 1_555
C15 C16 1_555 1_555

#END
