
#######################################################################
#
#                 Cambridge Crystallographic Data Centre
#                                CCDC 
#
#######################################################################
#
# If this CIF has been generated from an entry in the Cambridge 
# Structural Database, then it will include bibliographic, chemical, 
# crystal, experimental, refinement or atomic coordinate data resulting 
# from the CCDC's data processing and validation procedures.
#
#######################################################################

data_WABSOH01
_chemical_formula_moiety         'C7 H14 Cl1 F1 N2 2+,2(B1 F4 1-)'
_chemical_name_systematic        
'1-(chloromethyl)-4-fluoro-1,4-diazabicyclo[2.2.2]octane-1,4-diium bis(tetrafluoroborate)'
_symmetry_cell_setting           monoclinic
_symmetry_space_group_name_H-M   'P 21/c'
_symmetry_Int_Tables_number      14
_space_group_name_Hall           '-P 2ybc'
loop_
_symmetry_equiv_pos_site_id
_symmetry_equiv_pos_as_xyz
1 x,y,z
2 -x,1/2+y,1/2-z
3 -x,-y,-z
4 x,1/2-y,1/2+z
_cell_length_a                   7.593(16)
_cell_length_b                   13.83(3)
_cell_length_c                   12.64(3)
_cell_angle_alpha                90
_cell_angle_beta                 91.99(5)
_cell_angle_gamma                90
_cell_volume                     1326.54
_exptl_crystal_colour            colorless
_exptl_crystal_description       block
_cell_formula_units_Z            4
loop_
_atom_site_label
_atom_site_type_symbol
_atom_site_fract_x
_atom_site_fract_y
_atom_site_fract_z
B1 B 0.7376(8) 0.2416(5) 0.0388(6)
F1 F 0.7021(6) 0.1451(3) 0.0163(3)
F2 F 0.7411(5) 0.2541(3) 0.1505(3)
F3 F 0.5994(5) 0.2979(3) -0.0079(3)
F4 F 0.8985(4) 0.2719(3) -0.0002(3)
B2 B 0.7902(8) 0.9333(6) 0.8205(6)
F5 F 0.9208(7) 0.9504(4) 0.9015(4)
F6 F 0.7277(7) 1.0236(4) 0.7905(5)
F7 F 0.6668(7) 0.8722(4) 0.8532(4)
F8 F 0.8850(6) 0.8940(3) 0.7340(3)
C1 C 0.0870(9) 0.1666(5) 0.8021(6)
H1 H 0.0625 0.2338 0.7853
H2 H -0.0037 0.1430 0.8477
C2 C 0.4100(7) 0.1888(4) 0.7846(4)
H3 H 0.5221 0.1852 0.8236
H4 H 0.3916 0.2550 0.7616
C3 C 0.4115(8) 0.1206(4) 0.6872(5)
H5 H 0.3978 0.1578 0.6224
H6 H 0.5223 0.0858 0.6860
C4 C 0.0893(8) 0.1040(4) 0.6963(4)
H7 H -0.0088 0.0590 0.6938
H8 H 0.0790 0.1458 0.6348
C5 C 0.2847(7) -0.0114(5) 0.7968(4)
H9 H 0.1845 -0.0541 0.8039
H10 H 0.3898 -0.0509 0.7919
C6 C 0.3024(12) 0.0547(5) 0.8930(5)
H11 H 0.4211 0.0514 0.9237
H12 H 0.2205 0.0353 0.9462
C7 C 0.2574(9) -0.0216(4) 0.6034(5)
H13 H 0.1601 -0.0663 0.6107
H14 H 0.3658 -0.0588 0.6064
Cl1 Cl 0.2365(2) 0.03538(11) 0.48165(10)
F9 F 0.2624(5) 0.2185(3) 0.9422(3)
N1 N 0.2613(6) 0.1574(4) 0.8552(4)
N2 N 0.2595(6) 0.0502(3) 0.6964(3)
loop_
_geom_bond_atom_site_label_1
_geom_bond_atom_site_label_2
_geom_bond_site_symmetry_1
_geom_bond_site_symmetry_2
B1 F1 1_555 1_555
F2 B1 1_555 1_555
F3 B1 1_555 1_555
F4 B1 1_555 1_555
B2 F5 1_555 1_555
F6 B2 1_555 1_555
F7 B2 1_555 1_555
F8 B2 1_555 1_555
C1 H1 1_555 1_555
H2 C1 1_555 1_555
C2 H3 1_555 1_555
H4 C2 1_555 1_555
C3 C2 1_555 1_555
H5 C3 1_555 1_555
H6 C3 1_555 1_555
C4 C1 1_555 1_555
H7 C4 1_555 1_555
H8 C4 1_555 1_555
C5 H9 1_555 1_555
H10 C5 1_555 1_555
C6 C5 1_555 1_555
H11 C6 1_555 1_555
H12 C6 1_555 1_555
C7 H13 1_555 1_555
H14 C7 1_555 1_555
Cl1 C7 1_555 1_555
F9 N1 1_555 1_555
N1 C1 1_555 1_555
N2 C3 1_555 1_555
C2 N1 1_555 1_555
C4 N2 1_555 1_555
C5 N2 1_555 1_555
C6 N1 1_555 1_555
C7 N2 1_555 1_555

#END
