
#######################################################################
#
#                 Cambridge Crystallographic Data Centre
#                                CCDC 
#
#######################################################################
#
# If this CIF has been generated from an entry in the Cambridge 
# Structural Database, then it will include bibliographic, chemical, 
# crystal, experimental, refinement or atomic coordinate data resulting 
# from the CCDC's data processing and validation procedures.
#
#######################################################################

data_WABTIC
_chemical_compound_source        'Fumaria parviflora'
_chemical_name_common            (-)-beta-Hydrastine
_chemical_formula_moiety         'C21 H21 N1 O6'
_chemical_name_systematic        
6,7-Dimethoxy-3-(5,6,7,8-tetrahydro-6-methyl-1,3-dioxolo(4,5-g)-isoquinolin-5-yl)-1(3H)-isobenzofuranone
_chemical_properties_biological  'antiseptic and haemostatic activity'
_symmetry_cell_setting           tetragonal
_symmetry_space_group_name_H-M   'P 43'
_symmetry_Int_Tables_number      78
_space_group_name_Hall           'P 4cw'
loop_
_symmetry_equiv_pos_site_id
_symmetry_equiv_pos_as_xyz
1 x,y,z
2 -y,x,3/4+z
3 -x,-y,1/2+z
4 y,-x,1/4+z
_cell_length_a                   7.542(2)
_cell_length_b                   7.542(2)
_cell_length_c                   33.266(2)
_cell_angle_alpha                90
_cell_angle_beta                 90
_cell_angle_gamma                90
_cell_volume                     1892.23
_chemical_melting_point          404-405K
_cell_formula_units_Z            4
loop_
_atom_site_label
_atom_site_type_symbol
_atom_site_fract_x
_atom_site_fract_y
_atom_site_fract_z
C1 C 0.5493(13) -0.6042(13) -0.1569(3)
O1 O 0.6059(9) -0.4275(9) -0.1617(2)
C2 C 0.5867(11) -0.3535(11) -0.1245(3)
C3 C 0.5189(9) -0.4760(10) -0.0980(3)
O2 O 0.4881(9) -0.6332(7) -0.1179(2)
C4 C 0.4873(9) -0.4421(9) -0.0586(3)
C5 C 0.5339(8) -0.2689(8) -0.0451(2)
C6 C 0.6037(9) -0.1452(9) -0.0716(3)
C7 C 0.6350(11) -0.1893(10) -0.1117(3)
C8 C 0.6516(11) 0.0329(10) -0.0554(3)
C9 C 0.7118(12) 0.0134(12) -0.0144(4)
N1 N 0.5733(7) -0.0605(8) 0.0132(2)
C10 C 0.4869(8) -0.2195(9) -0.0025(2)
C11 C 0.6516(13) -0.0883(13) 0.0526(3)
C12 C 0.2864(8) -0.1986(8) 0.0010(2)
O3 O 0.2426(6) -0.1599(5) 0.0423
C13 C 0.1901(9) 0.0130(8) 0.0472(3)
O4 O 0.1633(8) 0.0727(7) 0.0795(2)
C14 C 0.1740(8) 0.0910(8) 0.0069(2)
C15 C 0.2139(7) -0.0399(8) -0.0216(2)
C16 C 0.1917(8) -0.0089(9) -0.0619(2)
C17 C 0.1305(8) 0.1570(9) -0.0746(2)
C18 C 0.0985(8) 0.2891(8) -0.0459(2)
O5 O 0.0469(7) 0.4573(6) -0.0559(2)
C19 C 0.0255(12) 0.4995(11) -0.0975(3)
C20 C 0.1183(8) 0.2588(8) -0.0054(2)
O6 O 0.1018(7) 0.3893(6) 0.0225(2)
C21 C -0.0662(12) 0.4653(13) 0.0286(3)
H1 H 0.4563 -0.7070 -0.1670
H2 H 0.6674 -0.7059 -0.1591
H3 H 0.4422 -0.5382 -0.0380
H4 H 0.6981 -0.0900 -0.1306
H5 H 0.5647 0.1330 -0.0516
H6 H 0.7799 0.0934 -0.0731
H7 H 0.8515 -0.0553 -0.0151
H8 H 0.7382 0.1323 -0.0018
H9 H 0.4931 -0.3249 0.0165
H10 H 0.5615 -0.1664 0.0726
H11 H 0.7075 0.0541 0.0612
H12 H 0.7774 -0.0614 0.0533
H13 H 0.2202 -0.3315 -0.0033
H14 H 0.2092 -0.1069 -0.0867
H15 H 0.1256 0.1841 -0.1051
H16 H -0.0649 0.4058 -0.1054
H17 H -0.0246 0.6159 -0.1017
H18 H 0.1750 0.4874 -0.1124
H19 H -0.0707 0.5658 0.0495
H20 H -0.1496 0.4891 0.0009
H21 H -0.1164 0.3576 0.0461
loop_
_geom_bond_atom_site_label_1
_geom_bond_atom_site_label_2
_geom_bond_site_symmetry_1
_geom_bond_site_symmetry_2
C1 O1 1_555 1_555
O1 C2 1_555 1_555
C2 C3 1_555 1_555
C3 O2 1_555 1_555
O2 C1 1_555 1_555
C4 C3 1_555 1_555
C5 C4 1_555 1_555
C6 C5 1_555 1_555
C7 C2 1_555 1_555
C8 C6 1_555 1_555
C9 C8 1_555 1_555
N1 C9 1_555 1_555
C10 C5 1_555 1_555
C11 N1 1_555 1_555
C12 C10 1_555 1_555
O3 C12 1_555 1_555
C13 O3 1_555 1_555
O4 C13 1_555 1_555
C14 C13 1_555 1_555
C15 C12 1_555 1_555
C16 C15 1_555 1_555
C17 C16 1_555 1_555
C18 C17 1_555 1_555
O5 C18 1_555 1_555
C19 O5 1_555 1_555
C20 C14 1_555 1_555
O6 C20 1_555 1_555
C21 O6 1_555 1_555
H1 C1 1_555 1_555
H2 C1 1_555 1_555
H3 C4 1_555 1_555
H4 C7 1_555 1_555
H5 C8 1_555 1_555
H6 C8 1_555 1_555
H7 C9 1_555 1_555
H8 C9 1_555 1_555
H9 C10 1_555 1_555
H10 C11 1_555 1_555
H11 C11 1_555 1_555
H12 C11 1_555 1_555
H13 C12 1_555 1_555
H14 C16 1_555 1_555
H15 C17 1_555 1_555
H16 C19 1_555 1_555
H17 C19 1_555 1_555
H18 C19 1_555 1_555
H19 C21 1_555 1_555
H20 C21 1_555 1_555
H21 C21 1_555 1_555
C6 C7 1_555 1_555
N1 C10 1_555 1_555
C14 C15 1_555 1_555
C18 C20 1_555 1_555

#END
