
#######################################################################
#
#                 Cambridge Crystallographic Data Centre
#                                CCDC 
#
#######################################################################
#
# If this CIF has been generated from an entry in the Cambridge 
# Structural Database, then it will include bibliographic, chemical, 
# crystal, experimental, refinement or atomic coordinate data resulting 
# from the CCDC's data processing and validation procedures.
#
#######################################################################

data_WABWOO
_chemical_formula_moiety         'C15 H13 N1 O4 S1'
_chemical_name_systematic        
'5-(2-methoxyphenyl)-3H-1,2,3-benzoxathiazepine 2,2-dioxide'
_symmetry_cell_setting           monoclinic
_symmetry_space_group_name_H-M   'P 21/n'
_symmetry_Int_Tables_number      14
_space_group_name_Hall           '-P 2yn'
loop_
_symmetry_equiv_pos_site_id
_symmetry_equiv_pos_as_xyz
1 x,y,z
2 1/2-x,1/2+y,1/2-z
3 -x,-y,-z
4 1/2+x,1/2-y,1/2+z
_cell_length_a                   11.0912(2)
_cell_length_b                   14.9132(2)
_cell_length_c                   16.7822(3)
_cell_angle_alpha                90
_cell_angle_beta                 91.283(2)
_cell_angle_gamma                90
_cell_volume                     2775.17
_exptl_crystal_description       block
_cell_formula_units_Z            8
loop_
_atom_site_label
_atom_site_type_symbol
_atom_site_fract_x
_atom_site_fract_y
_atom_site_fract_z
S1 S -0.10833(4) 0.24366(3) 0.50306(3)
O1 O -0.05576(10) 0.18409(8) 0.57314(8)
O2 O 0.25713(11) 0.08289(8) 0.61581(8)
O3 O -0.20361(11) 0.29915(10) 0.52833(10)
N1 N 0.00645(12) 0.30906(10) 0.48895(8)
O4 O -0.13216(15) 0.18143(11) 0.44088(10)
C1 C 0.00457(14) 0.22590(10) 0.63835(10)
C2 C 0.18333(13) 0.24578(9) 0.55172(9)
C3 C 0.31004(13) 0.21394(10) 0.54750(9)
C4 C 0.34549(13) 0.13145(10) 0.58043(9)
C5 C 0.12431(13) 0.25005(9) 0.62974(9)
C6 C 0.18576(16) 0.28091(10) 0.69788(9)
H1 H 0.2663 0.2977 0.6947
C7 C 0.39567(14) 0.26421(12) 0.50767(10)
H2 H 0.3734 0.3190 0.4854
C8 C 0.46366(15) 0.10201(13) 0.57369(11)
H3 H 0.4871 0.0474 0.5959
C9 C 0.12548(13) 0.27319(11) 0.48565(9)
H4 H 0.1631 0.2689 0.4368
C10 C -0.05455(17) 0.23194(13) 0.70940(12)
H5 H -0.1352 0.2155 0.7127
C11 C 0.51333(15) 0.23442(15) 0.50046(11)
H6 H 0.5692 0.2686 0.4733
C12 C 0.54655(16) 0.15393(14) 0.53388(12)
H7 H 0.6256 0.1340 0.5297
C13 C 0.12849(19) 0.28681(12) 0.77005(10)
H8 H 0.1708 0.3069 0.8150
C14 C 0.0084(2) 0.26283(14) 0.77554(12)
H9 H -0.0300 0.2676 0.8241
C15 C 0.2882(2) -0.00375(12) 0.64564(14)
H10 H 0.2187 -0.0307 0.6689
H11 H 0.3514 0.0018 0.6854
H12 H 0.3153 -0.0406 0.6027
H13 H -0.008(2) 0.3460(16) 0.4586(14)
S2 S 0.50205(3) 0.50617(3) 0.36911(3)
O5 O 0.45193(10) 0.45028(7) 0.29641(7)
O6 O 0.13383(10) 0.32629(8) 0.26615(8)
O7 O 0.58333(12) 0.57335(10) 0.34456(10)
N2 N 0.38044(13) 0.55638(10) 0.39654(9)
O8 O 0.54598(14) 0.43958(11) 0.42250(9)
C16 C 0.37966(15) 0.49260(10) 0.23689(10)
C17 C 0.08070(13) 0.45758(10) 0.33387(9)
C18 C 0.04434(13) 0.37641(10) 0.29818(9)
C19 C 0.25861(14) 0.50616(9) 0.25198(9)
C20 C 0.20740(13) 0.48987(9) 0.33077(9)
C21 C 0.26662(14) 0.51258(10) 0.39772(9)
H14 H 0.2326 0.4994 0.4465
C22 C -0.07587(15) 0.35065(12) 0.29931(10)
H15 H -0.0998 0.2971 0.2754
C23 C -0.16028(15) 0.40424(14) 0.33584(11)
H16 H -0.2406 0.3864 0.3361
C24 C -0.00605(15) 0.51016(11) 0.36986(10)
H17 H 0.0168 0.5643 0.3932
C25 C 0.1009(2) 0.24157(12) 0.23225(14)
H18 H 0.1713 0.2128 0.2120
H19 H 0.0431 0.2506 0.1896
H20 H 0.0662 0.2044 0.2724
C26 C 0.3559(2) 0.54270(15) 0.10315(12)
H21 H 0.3878 0.5551 0.0536
C27 C 0.18748(17) 0.53915(12) 0.18907(10)
H22 H 0.1057 0.5489 0.1966
C28 C 0.2359(2) 0.55764(14) 0.11591(11)
H23 H 0.1869 0.5804 0.0750
C29 C 0.42979(19) 0.50930(14) 0.16354(12)
H24 H 0.5111 0.4983 0.1551
C30 C -0.12641(16) 0.48364(14) 0.37171(12)
H25 H -0.1831 0.5191 0.3968
H26 H 0.393(2) 0.5869(16) 0.4325(14)
loop_
_geom_bond_atom_site_label_1
_geom_bond_atom_site_label_2
_geom_bond_site_symmetry_1
_geom_bond_site_symmetry_2
S1 O1 1_555 1_555
O1 C1 1_555 1_555
O2 C4 1_555 1_555
O3 S1 1_555 1_555
N1 S1 1_555 1_555
O4 S1 1_555 1_555
C1 C5 1_555 1_555
C2 C3 1_555 1_555
C3 C4 1_555 1_555
C4 C8 1_555 1_555
C5 C2 1_555 1_555
C6 C5 1_555 1_555
H1 C6 1_555 1_555
C7 C3 1_555 1_555
H2 C7 1_555 1_555
C8 H3 1_555 1_555
C9 N1 1_555 1_555
H4 C9 1_555 1_555
C10 C1 1_555 1_555
H5 C10 1_555 1_555
C11 C7 1_555 1_555
H6 C11 1_555 1_555
C12 C8 1_555 1_555
H7 C12 1_555 1_555
C13 C6 1_555 1_555
H8 C13 1_555 1_555
C14 C10 1_555 1_555
H9 C14 1_555 1_555
C15 O2 1_555 1_555
H10 C15 1_555 1_555
H11 C15 1_555 1_555
H12 C15 1_555 1_555
H13 N1 1_555 1_555
S2 O5 1_555 1_555
O5 C16 1_555 1_555
O6 C18 1_555 1_555
O7 S2 1_555 1_555
N2 S2 1_555 1_555
O8 S2 1_555 1_555
C16 C19 1_555 1_555
C17 C18 1_555 1_555
C18 C22 1_555 1_555
C19 C20 1_555 1_555
C20 C17 1_555 1_555
C21 N2 1_555 1_555
H14 C21 1_555 1_555
C22 H15 1_555 1_555
C23 C22 1_555 1_555
H16 C23 1_555 1_555
C24 C17 1_555 1_555
H17 C24 1_555 1_555
C25 O6 1_555 1_555
H18 C25 1_555 1_555
H19 C25 1_555 1_555
H20 C25 1_555 1_555
C26 H21 1_555 1_555
C27 C19 1_555 1_555
H22 C27 1_555 1_555
C28 C26 1_555 1_555
H23 C28 1_555 1_555
C29 C16 1_555 1_555
H24 C29 1_555 1_555
C30 C23 1_555 1_555
H25 C30 1_555 1_555
H26 N2 1_555 1_555
C2 C9 1_555 1_555
C11 C12 1_555 1_555
C13 C14 1_555 1_555
C20 C21 1_555 1_555
C24 C30 1_555 1_555
C26 C29 1_555 1_555
C27 C28 1_555 1_555

#END
