
#######################################################################
#
#                 Cambridge Crystallographic Data Centre
#                                CCDC 
#
#######################################################################
#
# If this CIF has been generated from an entry in the Cambridge 
# Structural Database, then it will include bibliographic, chemical, 
# crystal, experimental, refinement or atomic coordinate data resulting 
# from the CCDC's data processing and validation procedures.
#
#######################################################################

data_WABYOQ
_chemical_formula_moiety         'C30 H22 O3'
_chemical_name_systematic        
2,2,4-triphenyl-3,4-dihydro-2H,5H-pyrano[3,2-c]chromen-5-one
_symmetry_cell_setting           monoclinic
_symmetry_space_group_name_H-M   'P 21/n'
_symmetry_Int_Tables_number      14
_space_group_name_Hall           '-P 2yn'
loop_
_symmetry_equiv_pos_site_id
_symmetry_equiv_pos_as_xyz
1 x,y,z
2 1/2-x,1/2+y,1/2-z
3 -x,-y,-z
4 1/2+x,1/2-y,1/2+z
_cell_length_a                   10.3445(12)
_cell_length_b                   15.0832(18)
_cell_length_c                   14.1880(16)
_cell_angle_alpha                90
_cell_angle_beta                 91.679(2)
_cell_angle_gamma                90
_cell_volume                     2212.78
_exptl_crystal_colour            colorless
_exptl_crystal_description       block
_cell_formula_units_Z            4
loop_
_atom_site_label
_atom_site_type_symbol
_atom_site_fract_x
_atom_site_fract_y
_atom_site_fract_z
O1 O 0.80250(9) 0.12337(6) 0.66304(7)
O2 O 0.46238(10) 0.25858(8) 0.69662(8)
O3 O 0.41618(11) 0.18000(9) 0.82144(8)
C1 C 0.72729(14) -0.02912(10) 0.67433(10)
C2 C 0.68375(18) -0.02512(12) 0.58148(12)
H1 H 0.7124 0.0202 0.5428
C3 C 0.5983(2) -0.08751(14) 0.54550(15)
H2 H 0.5697 -0.0839 0.4829
C4 C 0.55528(19) -0.15486(13) 0.60138(17)
H3 H 0.4964 -0.1962 0.5772
C5 C 0.59962(18) -0.16082(12) 0.69314(15)
H4 H 0.5718 -0.2069 0.7310
C6 C 0.68524(16) -0.09873(10) 0.72951(12)
H5 H 0.7151 -0.1036 0.7917
C7 C 0.96319(15) 0.01597(10) 0.69768(10)
C8 C 1.00006(18) -0.06421(13) 0.66135(14)
H6 H 0.9373 -0.1060 0.6448
C9 C 1.1295(2) -0.08394(15) 0.64883(16)
H7 H 1.1525 -0.1388 0.6246
C10 C 1.22253(19) -0.02374(15) 0.67172(13)
H8 H 1.3091 -0.0367 0.6624
C11 C 1.18784(17) 0.05630(14) 0.70864(14)
H9 H 1.2512 0.0977 0.7250
C12 C 1.05968(16) 0.07592(12) 0.72175(13)
H10 H 1.0376 0.1305 0.7473
C13 C 0.82230(14) 0.03938(10) 0.71449(10)
C14 C 0.79974(15) 0.05947(11) 0.81847(10)
H11 H 0.8589 0.1057 0.8396
H12 H 0.8184 0.0068 0.8556
C15 C 0.66046(14) 0.08921(10) 0.83522(10)
H13 H 0.6043 0.0370 0.8302
C16 C 0.62032(14) 0.15307(10) 0.75830(10)
C17 C 0.69366(13) 0.16853(9) 0.68240(10)
C18 C 0.66087(14) 0.23761(10) 0.61531(10)
C19 C 0.74014(15) 0.26453(10) 0.54242(10)
H14 H 0.8180 0.2354 0.5330
C20 C 0.70351(17) 0.33388(11) 0.48459(11)
H15 H 0.7568 0.3518 0.4365
C21 C 0.58729(17) 0.37707(11) 0.49795(12)
H16 H 0.5632 0.4239 0.4586
C22 C 0.50707(16) 0.35166(11) 0.56853(12)
H17 H 0.4288 0.3805 0.5770
C23 C 0.54520(14) 0.28226(11) 0.62686(10)
C24 C 0.49608(15) 0.19589(11) 0.76347(11)
C25 C 0.65304(14) 0.12558(11) 0.93493(10)
C26 C 0.66940(17) 0.21437(12) 0.95543(12)
H18 H 0.6811 0.2546 0.9067
C27 C 0.66868(19) 0.24443(15) 1.04771(13)
H19 H 0.6793 0.3045 1.0604
C28 C 0.65242(19) 0.18601(17) 1.12015(13)
H20 H 0.6522 0.2062 1.1821
C29 C 0.63654(19) 0.09788(16) 1.10115(13)
H21 H 0.6254 0.0581 1.1503
C30 C 0.63687(16) 0.06719(13) 1.00878(11)
H22 H 0.6261 0.0070 0.9966
loop_
_geom_bond_atom_site_label_1
_geom_bond_atom_site_label_2
_geom_bond_site_symmetry_1
_geom_bond_site_symmetry_2
O1 C13 1_555 1_555
O2 C23 1_555 1_555
O3 C24 1_555 1_555
C1 C2 1_555 1_555
C2 H1 1_555 1_555
C3 C2 1_555 1_555
H2 C3 1_555 1_555
C4 C3 1_555 1_555
H3 C4 1_555 1_555
C5 C4 1_555 1_555
H4 C5 1_555 1_555
C6 C1 1_555 1_555
H5 C6 1_555 1_555
C7 C8 1_555 1_555
C8 H6 1_555 1_555
C9 C8 1_555 1_555
H7 C9 1_555 1_555
C10 C9 1_555 1_555
H8 C10 1_555 1_555
C11 C10 1_555 1_555
H9 C11 1_555 1_555
C12 C7 1_555 1_555
H10 C12 1_555 1_555
C13 C1 1_555 1_555
C14 C13 1_555 1_555
H11 C14 1_555 1_555
H12 C14 1_555 1_555
C15 C14 1_555 1_555
H13 C15 1_555 1_555
C16 C15 1_555 1_555
C17 O1 1_555 1_555
C18 C17 1_555 1_555
C19 C18 1_555 1_555
H14 C19 1_555 1_555
C20 C19 1_555 1_555
H15 C20 1_555 1_555
C21 C20 1_555 1_555
H16 C21 1_555 1_555
C22 C21 1_555 1_555
H17 C22 1_555 1_555
C23 C18 1_555 1_555
C24 O2 1_555 1_555
C25 C15 1_555 1_555
C26 C25 1_555 1_555
H18 C26 1_555 1_555
C27 C26 1_555 1_555
H19 C27 1_555 1_555
C28 C27 1_555 1_555
H20 C28 1_555 1_555
C29 C28 1_555 1_555
H21 C29 1_555 1_555
C30 C25 1_555 1_555
H22 C30 1_555 1_555
C5 C6 1_555 1_555
C7 C13 1_555 1_555
C11 C12 1_555 1_555
C16 C17 1_555 1_555
C16 C24 1_555 1_555
C22 C23 1_555 1_555
C29 C30 1_555 1_555

#END
