
#######################################################################
#
#                 Cambridge Crystallographic Data Centre
#                                CCDC 
#
#######################################################################
#
# If this CIF has been generated from an entry in the Cambridge 
# Structural Database, then it will include bibliographic, chemical, 
# crystal, experimental, refinement or atomic coordinate data resulting 
# from the CCDC's data processing and validation procedures.
#
#######################################################################

data_WABYUW
_chemical_formula_moiety         'C37 H31 N1 O1'
_chemical_name_systematic        
3-(2,2-diphenyl-3,4-dihydro-2H-chromen-4-yl)-1-ethyl-2-phenyl-1H-indole
_symmetry_cell_setting           monoclinic
_symmetry_space_group_name_H-M   'P 21/n'
_symmetry_Int_Tables_number      14
_space_group_name_Hall           '-P 2yn'
loop_
_symmetry_equiv_pos_site_id
_symmetry_equiv_pos_as_xyz
1 x,y,z
2 1/2-x,1/2+y,1/2-z
3 -x,-y,-z
4 1/2+x,1/2-y,1/2+z
_cell_length_a                   12.806(5)
_cell_length_b                   17.461(7)
_cell_length_c                   13.566(5)
_cell_angle_alpha                90
_cell_angle_beta                 114.336(7)
_cell_angle_gamma                90
_cell_volume                     2763.9
_exptl_crystal_colour            yellow
_exptl_crystal_description       block
_cell_formula_units_Z            4
loop_
_atom_site_label
_atom_site_type_symbol
_atom_site_fract_x
_atom_site_fract_y
_atom_site_fract_z
O1 O 0.6279(2) 0.21292(14) 1.15968(15)
N1 N 0.5913(2) 0.23851(15) 0.66438(18)
C1 C 0.6757(3) 0.29663(18) 0.8263(2)
C2 C 0.7455(3) 0.35345(19) 0.8960(2)
H1 H 0.7591 0.3533 0.9688
C3 C 0.7928(3) 0.4085(2) 0.8566(3)
H2 H 0.8372 0.4465 0.9029
C4 C 0.7767(3) 0.4095(2) 0.7484(3)
H3 H 0.8104 0.4478 0.7238
C5 C 0.7110(3) 0.3539(2) 0.6779(3)
H4 H 0.7003 0.3539 0.6058
C6 C 0.6621(3) 0.29881(18) 0.7170(2)
C7 C 0.5589(3) 0.20036(18) 0.7360(2)
C8 C 0.6109(3) 0.23455(18) 0.8367(2)
C9 C 0.4809(3) 0.13425(19) 0.7036(2)
C10 C 0.5115(3) 0.0675(2) 0.6677(3)
H5 H 0.5815 0.0649 0.6623
C11 C 0.4404(4) 0.0050(2) 0.6398(3)
H6 H 0.4620 -0.0394 0.6152
C12 C 0.3374(4) 0.0080(3) 0.6482(3)
H7 H 0.2891 -0.0344 0.6292
C13 C 0.3056(4) 0.0734(3) 0.6846(3)
H8 H 0.2359 0.0754 0.6907
C14 C 0.3773(3) 0.1362(2) 0.7121(3)
H9 H 0.3555 0.1805 0.7367
C15 C 0.5479(3) 0.2261(2) 0.5478(2)
H10 H 0.5292 0.2751 0.5112
H11 H 0.4780 0.1962 0.5241
C16 C 0.5950(3) 0.20881(18) 0.9352(2)
H12 H 0.5395 0.1667 0.9124
C17 C 0.5452(3) 0.27068(19) 0.9814(2)
H13 H 0.4747 0.2898 0.9252
H14 H 0.5988 0.3130 1.0067
C18 C 0.5209(3) 0.23967(19) 1.0747(2)
C19 C 0.7089(3) 0.18095(19) 1.1311(2)
C20 C 0.7022(3) 0.17852(18) 1.0266(2)
C21 C 0.7930(3) 0.14747(19) 1.0115(3)
H15 H 0.7899 0.1455 0.9418
C22 C 0.8894(3) 0.1188(2) 1.0967(3)
H16 H 0.9502 0.0985 1.0847
C23 C 0.8926(4) 0.1213(2) 1.1996(3)
H17 H 0.9561 0.1022 1.2576
C24 C 0.8044(3) 0.1511(2) 1.2169(3)
H18 H 0.8072 0.1518 1.2865
C25 C 0.4780(3) 0.2990(2) 1.1309(2)
C26 C 0.4495(3) 0.2759(3) 1.2143(3)
H19 H 0.4571 0.2246 1.2346
C27 C 0.4101(4) 0.3276(3) 1.2676(3)
H20 H 0.3920 0.3111 1.3238
C28 C 0.3974(4) 0.4027(4) 1.2383(4)
H21 H 0.3714 0.4376 1.2749
C29 C 0.4231(4) 0.4266(3) 1.1552(4)
H22 H 0.4137 0.4779 1.1346
C30 C 0.4631(4) 0.3752(2) 1.1013(3)
H23 H 0.4801 0.3920 1.0446
C31 C 0.4373(3) 0.1731(2) 1.0358(2)
C32 C 0.3288(3) 0.1868(2) 0.9548(3)
H24 H 0.3086 0.2361 0.9274
C33 C 0.2513(4) 0.1279(3) 0.9150(3)
H25 H 0.1794 0.1378 0.8603
C34 C 0.2778(5) 0.0557(3) 0.9538(4)
H26 H 0.2248 0.0164 0.9259
C35 C 0.3838(5) 0.0414(3) 1.0350(4)
H27 H 0.4023 -0.0078 1.0630
C36 C 0.4638(4) 0.1000(2) 1.0756(3)
H28 H 0.5357 0.0896 1.1300
C37 C 0.6324(4) 0.1853(2) 0.5158(3)
H29 H 0.7034 0.2130 0.5427
H30 H 0.6025 0.1822 0.4383
H31 H 0.6453 0.1346 0.5457
loop_
_geom_bond_atom_site_label_1
_geom_bond_atom_site_label_2
_geom_bond_site_symmetry_1
_geom_bond_site_symmetry_2
O1 C18 1_555 1_555
N1 C6 1_555 1_555
C1 C2 1_555 1_555
C2 H1 1_555 1_555
C3 C2 1_555 1_555
H2 C3 1_555 1_555
C4 C3 1_555 1_555
H3 C4 1_555 1_555
C5 C4 1_555 1_555
H4 C5 1_555 1_555
C6 C1 1_555 1_555
C7 N1 1_555 1_555
C8 C1 1_555 1_555
C9 C7 1_555 1_555
C10 C9 1_555 1_555
H5 C10 1_555 1_555
C11 C10 1_555 1_555
H6 C11 1_555 1_555
C12 C11 1_555 1_555
H7 C12 1_555 1_555
C13 C12 1_555 1_555
H8 C13 1_555 1_555
C14 C9 1_555 1_555
H9 C14 1_555 1_555
C15 N1 1_555 1_555
H10 C15 1_555 1_555
H11 C15 1_555 1_555
C16 C8 1_555 1_555
H12 C16 1_555 1_555
C17 C16 1_555 1_555
H13 C17 1_555 1_555
H14 C17 1_555 1_555
C18 C17 1_555 1_555
C19 O1 1_555 1_555
C20 C16 1_555 1_555
C21 C20 1_555 1_555
H15 C21 1_555 1_555
C22 C21 1_555 1_555
H16 C22 1_555 1_555
C23 C22 1_555 1_555
H17 C23 1_555 1_555
C24 C19 1_555 1_555
H18 C24 1_555 1_555
C25 C18 1_555 1_555
C26 C25 1_555 1_555
H19 C26 1_555 1_555
C27 C26 1_555 1_555
H20 C27 1_555 1_555
C28 C27 1_555 1_555
H21 C28 1_555 1_555
C29 C28 1_555 1_555
H22 C29 1_555 1_555
C30 C25 1_555 1_555
H23 C30 1_555 1_555
C31 C18 1_555 1_555
C32 C31 1_555 1_555
H24 C32 1_555 1_555
C33 C32 1_555 1_555
H25 C33 1_555 1_555
C34 C33 1_555 1_555
H26 C34 1_555 1_555
C35 C34 1_555 1_555
H27 C35 1_555 1_555
C36 C31 1_555 1_555
H28 C36 1_555 1_555
C37 C15 1_555 1_555
H29 C37 1_555 1_555
H30 C37 1_555 1_555
H31 C37 1_555 1_555
C5 C6 1_555 1_555
C7 C8 1_555 1_555
C13 C14 1_555 1_555
C19 C20 1_555 1_555
C23 C24 1_555 1_555
C29 C30 1_555 1_555
C35 C36 1_555 1_555

#END
