
#######################################################################
#
#                 Cambridge Crystallographic Data Centre
#                                CCDC 
#
#######################################################################
#
# If this CIF has been generated from an entry in the Cambridge 
# Structural Database, then it will include bibliographic, chemical, 
# crystal, experimental, refinement or atomic coordinate data resulting 
# from the CCDC's data processing and validation procedures.
#
#######################################################################

data_WABZAD
_chemical_formula_moiety         'C30 H27 N1 O6'
_chemical_name_systematic        
6-nitro-2,2-diphenyl-4-(2,4,6-trimethoxyphenyl)chromane
_symmetry_cell_setting           monoclinic
_symmetry_space_group_name_H-M   'P 21/c'
_symmetry_Int_Tables_number      14
_space_group_name_Hall           '-P 2ybc'
loop_
_symmetry_equiv_pos_site_id
_symmetry_equiv_pos_as_xyz
1 x,y,z
2 -x,1/2+y,1/2-z
3 -x,-y,-z
4 x,1/2-y,1/2+z
_cell_length_a                   9.974(6)
_cell_length_b                   17.053(10)
_cell_length_c                   15.319(9)
_cell_angle_alpha                90
_cell_angle_beta                 102.034(10)
_cell_angle_gamma                90
_cell_volume                     2548.3
_exptl_crystal_colour            yellow
_exptl_crystal_description       block
_cell_formula_units_Z            4
loop_
_atom_site_label
_atom_site_type_symbol
_atom_site_fract_x
_atom_site_fract_y
_atom_site_fract_z
O1 O 0.47839(16) 0.21129(8) 0.32213(10)
O2 O 0.7824(3) 0.36611(13) 0.0538(2)
O3 O 0.7914(2) 0.24658(12) 0.01383(14)
O4 O 0.5501(3) -0.04016(11) 0.11202(13)
O5 O 1.0223(3) -0.12267(14) 0.2184(2)
O6 O 0.83760(14) 0.09936(9) 0.33429(10)
N1 N 0.7598(3) 0.29676(14) 0.06238(17)
C1 C 0.6052(2) 0.16973(11) 0.21162(13)
C2 C 0.6751(2) 0.19386(12) 0.14748(14)
H1 H 0.7110 0.1568 0.1141
C3 C 0.6918(3) 0.27251(13) 0.13266(17)
C4 C 0.6445(4) 0.32933(15) 0.1825(2)
H2 H 0.6601 0.3822 0.1733
C5 C 0.5745(3) 0.30642(14) 0.2456(2)
H3 H 0.5412 0.3439 0.2798
C6 C 0.5527(2) 0.22754(12) 0.25921(16)
C7 C 0.5289(2) 0.07458(12) 0.31366(13)
H4 H 0.4930 0.0220 0.3168
H5 H 0.6057 0.0812 0.3636
C8 C 0.4187(2) 0.13375(11) 0.32090(13)
C9 C 0.5788(2) 0.08386(11) 0.22664(13)
H6 H 0.5025 0.0680 0.1786
C10 C 0.6972(2) 0.02955(11) 0.22185(14)
C11 C 0.8256(2) 0.03752(13) 0.27794(15)
C12 C 0.9313(3) -0.01445(15) 0.27581(19)
H7 H 1.0158 -0.0083 0.3145
C13 C 0.9096(4) -0.07486(16) 0.2161(2)
C14 C 0.7869(4) -0.08545(15) 0.1592(2)
H8 H 0.7743 -0.1265 0.1184
C15 C 0.6794(3) -0.03333(13) 0.16323(16)
C16 C 0.5235(6) -0.09647(19) 0.0427(2)
H9 H 0.5856 -0.0887 0.0034
H10 H 0.4309 -0.0907 0.0099
H11 H 0.5358 -0.1482 0.0679
C17 C 1.0138(5) -0.1825(2) 0.1547(3)
H12 H 0.9426 -0.2186 0.1612
H13 H 1.0998 -0.2098 0.1634
H14 H 0.9932 -0.1601 0.0959
C18 C 0.9647(2) 0.11104(17) 0.39457(19)
H15 H 0.9869 0.0653 0.4313
H16 H 0.9579 0.1556 0.4317
H17 H 1.0352 0.1201 0.3616
C19 C 0.3718(2) 0.12686(12) 0.40880(13)
C20 C 0.3685(4) 0.18988(17) 0.46198(19)
H18 H 0.3982 0.2383 0.4453
C21 C 0.3222(5) 0.1838(2) 0.5399(2)
H19 H 0.3216 0.2279 0.5756
C22 C 0.2771(3) 0.11389(18) 0.56559(17)
H20 H 0.2456 0.1100 0.6185
C23 C 0.2786(2) 0.05111(15) 0.51410(16)
H21 H 0.2476 0.0031 0.5310
C24 C 0.3258(2) 0.05680(13) 0.43589(16)
H22 H 0.3265 0.0124 0.4008
C25 C 0.2181(3) 0.1988(2) 0.22036(19)
H23 H 0.2476 0.2460 0.2484
C26 C 0.2932(2) 0.13125(15) 0.24491(14)
C27 C 0.2486(3) 0.0626(2) 0.20249(18)
H24 H 0.2975 0.0165 0.2183
C28 C 0.1283(4) 0.0614(3) 0.1347(2)
H25 H 0.0977 0.0149 0.1056
C29 C 0.0583(4) 0.1291(4) 0.1126(2)
H26 H -0.0202 0.1289 0.0675
C30 C 0.1008(4) 0.1972(4) 0.1553(3)
H27 H 0.0503 0.2429 0.1403
loop_
_geom_bond_atom_site_label_1
_geom_bond_atom_site_label_2
_geom_bond_site_symmetry_1
_geom_bond_site_symmetry_2
O1 C6 1_555 1_555
O2 N1 1_555 1_555
O3 N1 1_555 1_555
O4 C15 1_555 1_555
O5 C13 1_555 1_555
O6 C11 1_555 1_555
N1 C3 1_555 1_555
C1 C2 1_555 1_555
C2 H1 1_555 1_555
C3 C2 1_555 1_555
C4 C3 1_555 1_555
H2 C4 1_555 1_555
C5 C4 1_555 1_555
H3 C5 1_555 1_555
C6 C1 1_555 1_555
C7 H4 1_555 1_555
H5 C7 1_555 1_555
C8 O1 1_555 1_555
C9 C1 1_555 1_555
H6 C9 1_555 1_555
C10 C9 1_555 1_555
C11 C10 1_555 1_555
C12 C11 1_555 1_555
H7 C12 1_555 1_555
C13 C12 1_555 1_555
C14 C13 1_555 1_555
H8 C14 1_555 1_555
C15 C10 1_555 1_555
C16 O4 1_555 1_555
H9 C16 1_555 1_555
H10 C16 1_555 1_555
H11 C16 1_555 1_555
C17 O5 1_555 1_555
H12 C17 1_555 1_555
H13 C17 1_555 1_555
H14 C17 1_555 1_555
C18 O6 1_555 1_555
H15 C18 1_555 1_555
H16 C18 1_555 1_555
H17 C18 1_555 1_555
C19 C8 1_555 1_555
C20 C19 1_555 1_555
H18 C20 1_555 1_555
C21 C20 1_555 1_555
H19 C21 1_555 1_555
C22 C21 1_555 1_555
H20 C22 1_555 1_555
C23 C22 1_555 1_555
H21 C23 1_555 1_555
C24 C19 1_555 1_555
H22 C24 1_555 1_555
C25 H23 1_555 1_555
C26 C8 1_555 1_555
C27 C26 1_555 1_555
H24 C27 1_555 1_555
C28 C27 1_555 1_555
H25 C28 1_555 1_555
C29 C28 1_555 1_555
H26 C29 1_555 1_555
C30 C25 1_555 1_555
H27 C30 1_555 1_555
C5 C6 1_555 1_555
C7 C8 1_555 1_555
C7 C9 1_555 1_555
C14 C15 1_555 1_555
C23 C24 1_555 1_555
C25 C26 1_555 1_555
C29 C30 1_555 1_555

#END
