
#######################################################################
#
#                 Cambridge Crystallographic Data Centre
#                                CCDC 
#
#######################################################################
#
# If this CIF has been generated from an entry in the Cambridge 
# Structural Database, then it will include bibliographic, chemical, 
# crystal, experimental, refinement or atomic coordinate data resulting 
# from the CCDC's data processing and validation procedures.
#
#######################################################################

data_WACCUB
_chemical_formula_moiety         'C21 H18 N2 O2'
_chemical_name_systematic        
5-(allyloxy)-3,6-dibenzylidene-3,6-dihydropyrazin-2(1H)-one
_symmetry_cell_setting           triclinic
_symmetry_space_group_name_H-M   'P -1'
_symmetry_Int_Tables_number      2
_space_group_name_Hall           '-P 1'
loop_
_symmetry_equiv_pos_site_id
_symmetry_equiv_pos_as_xyz
1 x,y,z
2 -x,-y,-z
_cell_length_a                   8.3017(4)
_cell_length_b                   8.8925(6)
_cell_length_c                   12.4581(9)
_cell_angle_alpha                107.794(6)
_cell_angle_beta                 103.281(5)
_cell_angle_gamma                100.004(5)
_cell_volume                     822.222
_exptl_crystal_colour            colorless
_exptl_crystal_description       block
_cell_formula_units_Z            2
loop_
_atom_site_label
_atom_site_type_symbol
_atom_site_fract_x
_atom_site_fract_y
_atom_site_fract_z
C1 C 0.25014(16) 0.57874(15) 0.50515(11)
C2 C 0.41573(15) 0.67786(14) 0.50641(11)
C3 C 0.38458(16) 0.50867(15) 0.31656(11)
C4 C 0.21576(15) 0.40646(15) 0.30160(11)
C5 C 0.12667(16) 0.28247(15) 0.19913(11)
H1 H 0.1753 0.2733 0.1362
C6 C -0.03449(15) 0.15968(14) 0.17079(11)
C7 C -0.08366(16) 0.10284(15) 0.25418(11)
H2 H -0.0128 0.1472 0.3341
C8 C -0.23470(17) -0.01760(16) 0.22185(12)
H3 H -0.2668 -0.0546 0.2797
C9 C -0.33929(17) -0.08453(16) 0.10561(12)
H4 H -0.4437 -0.1658 0.0839
C10 C -0.29030(16) -0.03185(16) 0.02123(12)
H5 H -0.3606 -0.0784 -0.0588
C11 C -0.13959(16) 0.08814(15) 0.05294(11)
H6 H -0.1068 0.1226 -0.0058
C12 C 0.49822(16) 0.81387(15) 0.60327(11)
H7 H 0.4526 0.8244 0.6677
C13 C 0.64613(15) 0.94711(15) 0.62487(11)
C14 C 0.70538(17) 1.07292(16) 0.73612(12)
H8 H 0.6526 1.0654 0.7950
C15 C 0.83930(18) 1.20805(17) 0.76202(12)
H9 H 0.8781 1.2914 0.8383
C16 C 0.91664(16) 1.22208(16) 0.67718(12)
H10 H 1.0080 1.3150 0.6946
C17 C 0.85964(17) 1.09938(16) 0.56676(12)
H11 H 0.9122 1.1089 0.5081
C18 C 0.72708(16) 0.96283(16) 0.54031(11)
H12 H 0.6908 0.8792 0.4642
C19 C 0.60821(16) 0.54898(16) 0.22936(12)
H13 H 0.6869 0.5870 0.3108
H14 H 0.5975 0.6459 0.2078
C20 C 0.67610(16) 0.43850(16) 0.14554(12)
H15 H 0.6838 0.3368 0.1534
C21 C 0.72603(19) 0.4734(2) 0.06124(13)
H16 H 0.7198 0.5742 0.0513
H17 H 0.7684 0.3979 0.0102
N1 N 0.16131(14) 0.45193(12) 0.40226(9)
H18 H 0.056(2) 0.411(2) 0.4000(14)
N2 N 0.47512(13) 0.63297(12) 0.40814(9)
O1 O 0.19187(11) 0.61066(11) 0.58926(8)
O2 O 0.44122(11) 0.45691(11) 0.22242(8)
loop_
_geom_bond_atom_site_label_1
_geom_bond_atom_site_label_2
_geom_bond_site_symmetry_1
_geom_bond_site_symmetry_2
C1 C2 1_555 1_555
C2 C12 1_555 1_555
C3 C4 1_555 1_555
C4 C5 1_555 1_555
C5 H1 1_555 1_555
C6 C5 1_555 1_555
C7 C6 1_555 1_555
H2 C7 1_555 1_555
C8 C7 1_555 1_555
H3 C8 1_555 1_555
C9 C8 1_555 1_555
H4 C9 1_555 1_555
C10 C9 1_555 1_555
H5 C10 1_555 1_555
C11 C6 1_555 1_555
H6 C11 1_555 1_555
C12 H7 1_555 1_555
C13 C12 1_555 1_555
C14 C13 1_555 1_555
H8 C14 1_555 1_555
C15 C14 1_555 1_555
H9 C15 1_555 1_555
C16 C15 1_555 1_555
H10 C16 1_555 1_555
C17 C16 1_555 1_555
H11 C17 1_555 1_555
C18 C13 1_555 1_555
H12 C18 1_555 1_555
C19 H13 1_555 1_555
H14 C19 1_555 1_555
C20 C19 1_555 1_555
H15 C20 1_555 1_555
C21 C20 1_555 1_555
H16 C21 1_555 1_555
H17 C21 1_555 1_555
N1 C1 1_555 1_555
H18 N1 1_555 1_555
N2 C2 1_555 1_555
O1 C1 1_555 1_555
O2 C3 1_555 1_555
C3 N2 1_555 1_555
C4 N1 1_555 1_555
C10 C11 1_555 1_555
C17 C18 1_555 1_555
C19 O2 1_555 1_555

#END
