
#######################################################################
#
#                 Cambridge Crystallographic Data Centre
#                                CCDC 
#
#######################################################################
#
# If this CIF has been generated from an entry in the Cambridge 
# Structural Database, then it will include bibliographic, chemical, 
# crystal, experimental, refinement or atomic coordinate data resulting 
# from the CCDC's data processing and validation procedures.
#
#######################################################################

data_WACHUF
_chemical_formula_moiety         'C25 H23 N2 O4 1+,Br1 1-,H2 O1'
_chemical_name_systematic        
'1,3-bis(4-(Methoxycarbonyl)benzyl)-1H-3,1-benzimidazol-3-ium bromide monohydrate'
_symmetry_cell_setting           monoclinic
_symmetry_space_group_name_H-M   'P 21/c'
_symmetry_Int_Tables_number      14
_space_group_name_Hall           '-P 2ybc'
loop_
_symmetry_equiv_pos_site_id
_symmetry_equiv_pos_as_xyz
1 x,y,z
2 -x,1/2+y,1/2-z
3 -x,-y,-z
4 x,1/2-y,1/2+z
_cell_length_a                   13.604(2)
_cell_length_b                   9.3537(16)
_cell_length_c                   18.962(3)
_cell_angle_alpha                90
_cell_angle_beta                 107.006(3)
_cell_angle_gamma                90
_cell_volume                     2307.37
_exptl_crystal_colour            colorless
_exptl_crystal_description       block
_cell_formula_units_Z            4
_exptl_crystal_recrystallization_method methanol/water
loop_
_atom_site_label
_atom_site_type_symbol
_atom_site_fract_x
_atom_site_fract_y
_atom_site_fract_z
Br1 Br 0.51077(2) 0.40648(3) 0.834559(16)
C1 C 0.6347(2) 0.3275(3) 0.63706(15)
H1 H 0.6346 0.2667 0.6772
C2 C 0.6389(2) 0.5212(3) 0.57082(15)
C3 C 0.63019(19) 0.4021(3) 0.52566(14)
C4 C 0.6237(2) 0.4155(3) 0.45119(15)
H2 H 0.6179 0.3347 0.4198
C5 C 0.6263(2) 0.5528(3) 0.42594(16)
H3 H 0.6223 0.5668 0.3756
C6 C 0.6346(2) 0.6733(3) 0.47144(16)
H4 H 0.6357 0.7658 0.4511
C7 C 0.6410(2) 0.6601(3) 0.54498(16)
H5 H 0.6466 0.7410 0.5762
C8 C 0.6423(2) 0.5565(3) 0.70503(15)
H6 H 0.6190 0.4961 0.7399
H7 H 0.5916 0.6346 0.6886
C9 C 0.7443(2) 0.6214(3) 0.74563(15)
C10 C 0.8378(2) 0.5707(3) 0.74080(15)
H8 H 0.8398 0.4923 0.7094
C11 C 0.9281(2) 0.6342(3) 0.78168(16)
H9 H 0.9919 0.5990 0.7780
C12 C 0.9273(2) 0.7487(3) 0.82806(15)
C13 C 0.8336(2) 0.7982(3) 0.83393(16)
H10 H 0.8317 0.8746 0.8665
C14 C 0.7432(2) 0.7356(3) 0.79225(16)
H11 H 0.6793 0.7713 0.7955
C15 C 1.0268(2) 0.8163(3) 0.86905(16)
C16 C 1.1068(2) 0.9863(4) 0.96014(18)
H12 H 1.1500 0.9130 0.9913
H13 H 1.0889 1.0592 0.9914
H14 H 1.1443 1.0309 0.9290
C17 C 0.6111(2) 0.1329(3) 0.54368(16)
H15 H 0.5744 0.1315 0.4902
H16 H 0.5669 0.0846 0.5696
C18 C 0.7096(2) 0.0511(3) 0.55708(16)
C19 C 0.7559(2) -0.0094(3) 0.62603(16)
H17 H 0.7242 0.0011 0.6643
C20 C 0.8467(2) -0.0841(3) 0.63950(16)
H18 H 0.8774 -0.1250 0.6867
C21 C 0.8938(2) -0.0994(3) 0.58324(17)
C22 C 0.8476(2) -0.0409(3) 0.51461(17)
H19 H 0.8788 -0.0526 0.4762
C23 C 0.7567(2) 0.0343(3) 0.50129(17)
H20 H 0.7260 0.0747 0.4540
C24 C 0.9937(2) -0.1754(3) 0.5955(2)
C25 C 1.1340(2) -0.2807(4) 0.6830(2)
H21 H 1.1294 -0.3672 0.6531
H22 H 1.1572 -0.3061 0.7354
H23 H 1.1832 -0.2141 0.6720
N1 N 0.64248(17) 0.4697(2) 0.64073(12)
N2 N 0.62711(17) 0.2832(2) 0.56895(12)
O1 O 1.10918(15) 0.7850(2) 0.86183(11)
O2 O 1.01338(14) 0.9206(2) 0.91378(11)
O3 O 1.03392(18) -0.1982(3) 0.54791(14)
O4 O 1.03454(16) -0.2138(2) 0.66612(12)
O5 O 0.63208(16) 0.1475(2) 0.77270(11)
H24 H 0.5960 0.2114 0.7851
H25 H 0.5933 0.0829 0.7485
loop_
_geom_bond_atom_site_label_1
_geom_bond_atom_site_label_2
_geom_bond_site_symmetry_1
_geom_bond_site_symmetry_2
C1 H1 1_555 1_555
C2 C3 1_555 1_555
C3 C4 1_555 1_555
C4 H2 1_555 1_555
C5 C4 1_555 1_555
H3 C5 1_555 1_555
C6 C5 1_555 1_555
H4 C6 1_555 1_555
C7 C2 1_555 1_555
H5 C7 1_555 1_555
C8 H6 1_555 1_555
H7 C8 1_555 1_555
C9 C8 1_555 1_555
C10 C9 1_555 1_555
H8 C10 1_555 1_555
C11 C10 1_555 1_555
H9 C11 1_555 1_555
C12 C11 1_555 1_555
C13 C12 1_555 1_555
H10 C13 1_555 1_555
C14 C9 1_555 1_555
H11 C14 1_555 1_555
C15 C12 1_555 1_555
C16 H12 1_555 1_555
H13 C16 1_555 1_555
H14 C16 1_555 1_555
C17 H15 1_555 1_555
H16 C17 1_555 1_555
C18 C17 1_555 1_555
C19 C18 1_555 1_555
H17 C19 1_555 1_555
C20 C19 1_555 1_555
H18 C20 1_555 1_555
C21 C20 1_555 1_555
C22 C21 1_555 1_555
H19 C22 1_555 1_555
C23 C18 1_555 1_555
H20 C23 1_555 1_555
C24 C21 1_555 1_555
C25 H21 1_555 1_555
H22 C25 1_555 1_555
H23 C25 1_555 1_555
N1 C1 1_555 1_555
N2 C1 1_555 1_555
O1 C15 1_555 1_555
O2 C15 1_555 1_555
O3 C24 1_555 1_555
O4 C24 1_555 1_555
O5 H24 1_555 1_555
H25 O5 1_555 1_555
C2 N1 1_555 1_555
C3 N2 1_555 1_555
C6 C7 1_555 1_555
C8 N1 1_555 1_555
C13 C14 1_555 1_555
C16 O2 1_555 1_555
C17 N2 1_555 1_555
C22 C23 1_555 1_555
C25 O4 1_555 1_555

#END
