
#######################################################################
#
#                 Cambridge Crystallographic Data Centre
#                                CCDC 
#
#######################################################################
#
# If this CIF has been generated from an entry in the Cambridge 
# Structural Database, then it will include bibliographic, chemical, 
# crystal, experimental, refinement or atomic coordinate data resulting 
# from the CCDC's data processing and validation procedures.
#
#######################################################################

data_WACJES
_chemical_formula_moiety         'C30 H28 O2'
_chemical_name_systematic        5,7,8-trimethyl-2,2,4-triphenylchroman-6-ol
_symmetry_cell_setting           triclinic
_symmetry_space_group_name_H-M   'P -1'
_symmetry_Int_Tables_number      2
_space_group_name_Hall           '-P 1'
loop_
_symmetry_equiv_pos_site_id
_symmetry_equiv_pos_as_xyz
1 x,y,z
2 -x,-y,-z
_cell_length_a                   10.3584(12)
_cell_length_b                   11.1826(13)
_cell_length_c                   11.2689(13)
_cell_angle_alpha                64.070(2)
_cell_angle_beta                 89.287(2)
_cell_angle_gamma                79.232(2)
_cell_volume                     1149.69
_exptl_crystal_colour            yellow
_exptl_crystal_description       block
_cell_formula_units_Z            2
loop_
_atom_site_label
_atom_site_type_symbol
_atom_site_fract_x
_atom_site_fract_y
_atom_site_fract_z
O1 O 0.27360(11) 0.37331(10) 0.14815(10)
O2 O 0.40991(14) -0.17805(11) 0.46029(13)
H1 H 0.4016 -0.1999 0.5391
C1 C 0.30271(15) 0.23577(15) 0.23529(15)
C2 C 0.34217(16) 0.15119(16) 0.17334(16)
C3 C 0.37610(16) 0.01165(16) 0.25213(17)
C4 C 0.36981(16) -0.03862(15) 0.38883(17)
C5 C 0.32910(15) 0.04455(15) 0.45059(16)
C6 C 0.29221(14) 0.18617(15) 0.37064(15)
C7 C 0.32715(17) -0.01855(17) 0.59921(16)
H2 H 0.2477 -0.0528 0.6241
H3 H 0.3305 0.0487 0.6297
H4 H 0.4020 -0.0917 0.6384
C8 C 0.4247(2) -0.0855(2) 0.1937(2)
H5 H 0.3682 -0.0630 0.1169
H6 H 0.4238 -0.1766 0.2581
H7 H 0.5130 -0.0786 0.1689
C9 C 0.3477(2) 0.21325(19) 0.02515(17)
H8 H 0.4379 0.2023 0.0041
H9 H 0.3083 0.3082 -0.0124
H10 H 0.3004 0.1688 -0.0107
C10 C 0.24549(16) 0.28412(15) 0.43051(15)
H11 H 0.3206 0.2844 0.4824
C11 C 0.19654(17) 0.42988(16) 0.32195(16)
H12 H 0.1061 0.4394 0.2921
H13 H 0.1973 0.4929 0.3596
C12 C 0.27974(16) 0.46773(15) 0.20286(15)
C13 C 0.13372(17) 0.24933(16) 0.52056(16)
C14 C 0.02884(19) 0.2063(2) 0.4873(2)
H14 H 0.0292 0.1921 0.4119
C15 C -0.0765(2) 0.1843(3) 0.5653(3)
H15 H -0.1466 0.1562 0.5411
C16 C -0.0796(3) 0.2029(3) 0.6763(3)
H16 H -0.1510 0.1876 0.7280
C17 C 0.0232(3) 0.2444(2) 0.7117(3)
H17 H 0.0216 0.2574 0.7877
C18 C 0.1306(2) 0.2673(2) 0.6346(2)
H18 H 0.2005 0.2947 0.6599
C19 C 0.42313(16) 0.46294(15) 0.23861(15)
C20 C 0.52661(17) 0.40534(17) 0.18899(17)
H19 H 0.5091 0.3658 0.1351
C21 C 0.65586(19) 0.40581(18) 0.21855(19)
H20 H 0.7243 0.3654 0.1857
C22 C 0.6834(2) 0.4660(2) 0.29653(19)
H21 H 0.7701 0.4664 0.3163
C23 C 0.5812(2) 0.5254(2) 0.34497(18)
H22 H 0.5991 0.5673 0.3966
C24 C 0.45268(18) 0.52313(17) 0.31738(17)
H23 H 0.3847 0.5623 0.3518
C25 C 0.21414(16) 0.60541(15) 0.09076(15)
C26 C 0.2706(2) 0.71862(17) 0.04369(18)
H24 H 0.3524 0.7132 0.0809
C27 C 0.2070(3) 0.8400(2) -0.0582(2)
H25 H 0.2462 0.9154 -0.0884
C28 C 0.0869(3) 0.8497(2) -0.1148(2)
H26 H 0.0447 0.9313 -0.1835
C29 C 0.0292(2) 0.7384(2) -0.0695(2)
H27 H -0.0525 0.7444 -0.1074
C30 C 0.09256(19) 0.61733(19) 0.03233(19)
H28 H 0.0528 0.5423 0.0623
loop_
_geom_bond_atom_site_label_1
_geom_bond_atom_site_label_2
_geom_bond_site_symmetry_1
_geom_bond_site_symmetry_2
O1 C1 1_555 1_555
O2 H1 1_555 1_555
C1 C2 1_555 1_555
C2 C3 1_555 1_555
C3 C4 1_555 1_555
C4 O2 1_555 1_555
C5 C4 1_555 1_555
C6 C1 1_555 1_555
C7 C5 1_555 1_555
H2 C7 1_555 1_555
H3 C7 1_555 1_555
H4 C7 1_555 1_555
C8 C3 1_555 1_555
H5 C8 1_555 1_555
H6 C8 1_555 1_555
H7 C8 1_555 1_555
C9 C2 1_555 1_555
H8 C9 1_555 1_555
H9 C9 1_555 1_555
H10 C9 1_555 1_555
C10 C6 1_555 1_555
H11 C10 1_555 1_555
C11 C10 1_555 1_555
H12 C11 1_555 1_555
H13 C11 1_555 1_555
C12 O1 1_555 1_555
C13 C10 1_555 1_555
C14 C13 1_555 1_555
H14 C14 1_555 1_555
C15 C14 1_555 1_555
H15 C15 1_555 1_555
C16 C15 1_555 1_555
H16 C16 1_555 1_555
C17 C16 1_555 1_555
H17 C17 1_555 1_555
C18 C13 1_555 1_555
H18 C18 1_555 1_555
C19 C12 1_555 1_555
C20 C19 1_555 1_555
H19 C20 1_555 1_555
C21 C20 1_555 1_555
H20 C21 1_555 1_555
C22 C21 1_555 1_555
H21 C22 1_555 1_555
C23 C22 1_555 1_555
H22 C23 1_555 1_555
C24 C19 1_555 1_555
H23 C24 1_555 1_555
C25 C12 1_555 1_555
C26 C25 1_555 1_555
H24 C26 1_555 1_555
C27 C26 1_555 1_555
H25 C27 1_555 1_555
C28 C27 1_555 1_555
H26 C28 1_555 1_555
C29 C28 1_555 1_555
H27 C29 1_555 1_555
C30 C25 1_555 1_555
H28 C30 1_555 1_555
C5 C6 1_555 1_555
C11 C12 1_555 1_555
C17 C18 1_555 1_555
C23 C24 1_555 1_555
C29 C30 1_555 1_555

#END
