
#######################################################################
#
#                 Cambridge Crystallographic Data Centre
#                                CCDC 
#
#######################################################################
#
# If this CIF has been generated from an entry in the Cambridge 
# Structural Database, then it will include bibliographic, chemical, 
# crystal, experimental, refinement or atomic coordinate data resulting 
# from the CCDC's data processing and validation procedures.
#
#######################################################################

data_WACKOA01
_chemical_formula_moiety         'C40 H48 O4,C7 H8'
_chemical_name_systematic        
'5,11,17,23-Tetra-isopropyl-25,26,27,28-tetrahydroxycalix(4)arene toluene clathrate'
_symmetry_cell_setting           tetragonal
_symmetry_space_group_name_H-M   'P 4/n'
_symmetry_Int_Tables_number      85
_space_group_name_Hall           '-P 4a'
loop_
_symmetry_equiv_pos_site_id
_symmetry_equiv_pos_as_xyz
1 x,y,z
2 1/2-y,x,z
3 y,1/2-x,z
4 1/2+x,1/2+y,-z
5 -x,-y,-z
6 1/2+y,-x,-z
7 -y,1/2+x,-z
8 1/2-x,1/2-y,z
_cell_length_a                   12.729(2)
_cell_length_b                   12.729(2)
_cell_length_c                   12.264(3)
_cell_angle_alpha                90
_cell_angle_beta                 90
_cell_angle_gamma                90
_cell_volume                     1987.1
_exptl_crystal_colour            colorless
_exptl_crystal_description       prisms
_cell_formula_units_Z            2
loop_
_atom_site_label
_atom_site_type_symbol
_atom_site_fract_x
_atom_site_fract_y
_atom_site_fract_z
C11 C 0.2500 0.2500 -0.6623(5)
H13 H 0.2051 0.1939 -0.6887
H14 H 0.3210 0.2391 -0.6887
H15 H 0.2239 0.3170 -0.6887
C12 C 0.2500 0.2500 -0.5404(4)
C13 C 0.3295(6) 0.2110(7) -0.4812(6)
H16 H 0.3870 0.1822 -0.5188
C14 C 0.3325(7) 0.2102(8) -0.3717(7)
H17 H 0.3912 0.1823 -0.3354
C15 C 0.2500 0.2500 -0.3125(6)
H18 H 0.2500 0.2500 -0.2358
H14B H 0.2391 0.1790 -0.6887
H13A H 0.3061 0.2051 -0.6887
H13B H 0.1939 0.2949 -0.6887
H14G H 0.1790 0.2609 -0.6887
H13G H 0.2949 0.3061 -0.6887
H14A H 0.2609 0.3210 -0.6887
H15A H 0.1830 0.2239 -0.6887
H15B H 0.3170 0.2761 -0.6887
H15G H 0.2761 0.1830 -0.6887
C13A C 0.2890(7) 0.3295(6) -0.4812(6)
C13B C 0.2110(7) 0.1705(6) -0.4812(6)
C14A C 0.2898(8) 0.3325(7) -0.3717(7)
C13G C 0.1705(6) 0.2890(7) -0.4812(6)
H16B H 0.1822 0.1130 -0.5188
C14B C 0.2102(8) 0.1675(7) -0.3717(7)
C14G C 0.1675(7) 0.2898(8) -0.3717(7)
H17B H 0.1823 0.1088 -0.3354
H16G H 0.1130 0.3178 -0.5188
H17G H 0.1088 0.3177 -0.3354
H17A H 0.3177 0.3912 -0.3354
H16A H 0.3178 0.3870 -0.5188
C1 C 0.16531(15) -0.02021(14) -0.04434(17)
H1 H 0.1425 -0.0923 -0.0596
H2 H 0.1680 -0.0115 0.0350
C2 C 0.08513(13) 0.05567(14) -0.09091(15)
C3 C 0.02671(14) 0.02740(14) -0.18178(16)
H3 H 0.0378 -0.0391 -0.2130
C4 C -0.04757(15) 0.09365(15) -0.22848(16)
C5 C -0.06040(15) 0.19270(15) -0.18176(16)
H4 H -0.1090 0.2394 -0.2130
C6 C 0.27526(13) -0.00419(14) -0.09090(15)
C7 C 0.06697(13) 0.15426(14) -0.04558(15)
O1 O 0.11822(11) 0.18397(11) 0.04956(11)
H5 H 0.1765(14) 0.1559(18) 0.0545(19)
C8 C -0.11286(18) 0.05800(19) -0.32495(19)
H6 H -0.0922 -0.0153 -0.3411
C9 C -0.2296(2) 0.0567(2) -0.2976(2)
H7 H -0.2413 0.0131 -0.2339
H8 H -0.2686 0.0284 -0.3589
H9 H -0.2532 0.1277 -0.2827
C10 C -0.0911(3) 0.1212(4) -0.4254(2)
H10 H -0.1312 0.0929 -0.4859
H11 H -0.0168 0.1179 -0.4423
H12 H -0.1114 0.1937 -0.4130
C6B C -0.00419(14) 0.22474(13) -0.09090(15)
C1B C -0.02021(14) 0.33469(15) -0.04434(17)
H1B H -0.0923 0.3575 -0.0596
H2B H -0.0115 0.3320 0.0350
C2B C 0.05567(14) 0.41487(13) -0.09091(15)
C3B C 0.02740(14) 0.47329(14) -0.18178(16)
H3B H -0.0391 0.4622 -0.2130
C4B C 0.09365(15) 0.54757(15) -0.22848(16)
C5B C 0.19270(15) 0.56040(15) -0.18176(16)
H4B H 0.2394 0.6090 -0.2130
C6G C 0.22474(13) 0.50419(14) -0.09090(15)
C1G C 0.33469(15) 0.52021(14) -0.04434(17)
H1G H 0.3575 0.5923 -0.0596
H2G H 0.3320 0.5115 0.0350
C2G C 0.41487(13) 0.44433(14) -0.09091(15)
C3G C 0.47329(14) 0.47260(14) -0.18178(16)
H3G H 0.4622 0.5391 -0.2130
C4G C 0.54757(15) 0.40635(15) -0.22848(16)
C5G C 0.56040(15) 0.30730(15) -0.18176(16)
H4G H 0.6090 0.2606 -0.2130
C6A C 0.50419(14) 0.27526(13) -0.09090(15)
C1A C 0.52021(14) 0.16531(15) -0.04434(17)
H1A H 0.5923 0.1425 -0.0596
H2A H 0.5115 0.1680 0.0350
C2A C 0.44433(14) 0.08513(13) -0.09091(15)
C3A C 0.47260(14) 0.02671(14) -0.18178(16)
H3A H 0.5391 0.0378 -0.2130
C4A C 0.40635(15) -0.04757(15) -0.22848(16)
C5A C 0.30730(15) -0.06040(15) -0.18176(16)
H4A H 0.2606 -0.1090 -0.2130
C7A C 0.34574(14) 0.06697(13) -0.04558(15)
O1A O 0.31603(11) 0.11822(11) 0.04956(11)
H5A H 0.3441(18) 0.1765(14) 0.0545(19)
C8A C 0.44200(19) -0.11286(18) -0.32495(19)
H6A H 0.5153 -0.0922 -0.3411
C9A C 0.4433(2) -0.2296(2) -0.2976(2)
H7A H 0.4869 -0.2413 -0.2339
H8A H 0.4716 -0.2686 -0.3589
H9A H 0.3723 -0.2532 -0.2827
C10A C 0.3788(4) -0.0911(3) -0.4254(2)
H10A H 0.4071 -0.1312 -0.4859
H11A H 0.3821 -0.0168 -0.4423
H12A H 0.3063 -0.1114 -0.4130
C7G C 0.43303(13) 0.34574(14) -0.04558(15)
O1G O 0.38178(11) 0.31603(11) 0.04956(11)
H5G H 0.3235(14) 0.3441(18) 0.0545(19)
C8G C 0.61286(18) 0.44200(19) -0.32495(19)
H6G H 0.5922 0.5153 -0.3411
C9G C 0.7296(2) 0.4433(2) -0.2976(2)
H7G H 0.7413 0.4869 -0.2339
H8G H 0.7686 0.4716 -0.3589
H9G H 0.7532 0.3723 -0.2827
C10G C 0.5911(3) 0.3788(4) -0.4254(2)
H10G H 0.6312 0.4071 -0.4859
H11G H 0.5168 0.3821 -0.4423
H12G H 0.6114 0.3063 -0.4130
C7B C 0.15426(14) 0.43303(13) -0.04558(15)
O1B O 0.18397(11) 0.38178(11) 0.04956(11)
H5B H 0.1559(18) 0.3235(14) 0.0545(19)
C8B C 0.05800(19) 0.61286(18) -0.32495(19)
H6B H -0.0153 0.5922 -0.3411
C9B C 0.0567(2) 0.7296(2) -0.2976(2)
H7B H 0.0131 0.7413 -0.2339
H8B H 0.0284 0.7686 -0.3589
H9B H 0.1277 0.7532 -0.2827
C10B C 0.1212(4) 0.5911(3) -0.4254(2)
H10B H 0.0929 0.6312 -0.4859
H11B H 0.1179 0.5168 -0.4423
H12B H 0.1937 0.6114 -0.4130
loop_
_geom_bond_atom_site_label_1
_geom_bond_atom_site_label_2
_geom_bond_site_symmetry_1
_geom_bond_site_symmetry_2
C1 H1 1_555 1_555
H2 C1 1_555 1_555
C2 C1 1_555 1_555
C3 C2 1_555 1_555
H3 C3 1_555 1_555
C4 C3 1_555 1_555
C5 C4 1_555 1_555
H4 C5 1_555 1_555
C6 C1 1_555 1_555
C7 C2 1_555 1_555
O1 C7 1_555 1_555
H5 O1 1_555 1_555
C8 C4 1_555 1_555
H6 C8 1_555 1_555
C9 C8 1_555 1_555
H7 C9 1_555 1_555
H8 C9 1_555 1_555
H9 C9 1_555 1_555
C10 C8 1_555 1_555
H10 C10 1_555 1_555
H11 C10 1_555 1_555
H12 C10 1_555 1_555
C11 H13 1_555 1_555
H13 H14B 1_555 1_555
H14 C11 1_555 1_555
H15 C11 1_555 1_555
C12 C11 1_555 1_555
C13 C12 1_555 1_555
H16 C13 1_555 1_555
C14 C13 1_555 1_555
H17 C14 1_555 1_555
C15 C14 1_555 1_555
H18 C15 1_555 1_555
C6B C5 1_555 1_555
C1B C6B 1_555 1_555
H1B C1B 1_555 1_555
H2B C1B 1_555 1_555
C2B C1B 1_555 1_555
C3B C2B 1_555 1_555
H3B C3B 1_555 1_555
C4B C3B 1_555 1_555
C5B C4B 1_555 1_555
H4B C5B 1_555 1_555
C6G C5B 1_555 1_555
C1G C6G 1_555 1_555
H1G C1G 1_555 1_555
H2G C1G 1_555 1_555
C2G C1G 1_555 1_555
C3G C2G 1_555 1_555
H3G C3G 1_555 1_555
C4G C3G 1_555 1_555
C5G C4G 1_555 1_555
H4G C5G 1_555 1_555
C6A C5G 1_555 1_555
C1A C6A 1_555 1_555
H1A C1A 1_555 1_555
H2A C1A 1_555 1_555
C2A C1A 1_555 1_555
C3A C2A 1_555 1_555
H3A C3A 1_555 1_555
C4A C3A 1_555 1_555
C5A C6 1_555 1_555
H4A C5A 1_555 1_555
C7A C6 1_555 1_555
O1A C7A 1_555 1_555
H5A O1A 1_555 1_555
C8A C4A 1_555 1_555
H6A C8A 1_555 1_555
C9A C8A 1_555 1_555
H7A C9A 1_555 1_555
H8A C9A 1_555 1_555
H9A C9A 1_555 1_555
C10A C8A 1_555 1_555
H10A C10A 1_555 1_555
H11A C10A 1_555 1_555
H12A C10A 1_555 1_555
C7G C2G 1_555 1_555
O1G C7G 1_555 1_555
H5G O1G 1_555 1_555
C8G C4G 1_555 1_555
H6G C8G 1_555 1_555
C9G C8G 1_555 1_555
H7G C9G 1_555 1_555
H8G C9G 1_555 1_555
H9G C9G 1_555 1_555
C10G C8G 1_555 1_555
H10G C10G 1_555 1_555
H11G C10G 1_555 1_555
H12G C10G 1_555 1_555
C7B C2B 1_555 1_555
O1B C7B 1_555 1_555
H5B O1B 1_555 1_555
C8B C4B 1_555 1_555
H6B C8B 1_555 1_555
C9B C8B 1_555 1_555
H7B C9B 1_555 1_555
H8B C9B 1_555 1_555
H9B C9B 1_555 1_555
C10B C8B 1_555 1_555
H10B C10B 1_555 1_555
H11B C10B 1_555 1_555
H12B C10B 1_555 1_555
H14B C11 1_555 1_555
H13A C11 1_555 1_555
H13B C11 1_555 1_555
H14G C11 1_555 1_555
H13G C11 1_555 1_555
H14A C11 1_555 1_555
H15A C11 1_555 1_555
H15B C11 1_555 1_555
H15G C11 1_555 1_555
C13A C12 1_555 1_555
C13B C12 1_555 1_555
C14A C14 1_555 1_555
C13G C12 1_555 1_555
H16B C13B 1_555 1_555
C14B C14 1_555 1_555
C14G C15 1_555 1_555
H17B C14B 1_555 1_555
H16G C13G 1_555 1_555
H17G C14G 1_555 1_555
H17A C14A 1_555 1_555
H16A C13A 1_555 1_555
C7 C6B 1_555 1_555
H13 H15A 1_555 1_555
H14 H13A 1_555 1_555
H14 H15B 1_555 1_555
H15 H13B 1_555 1_555
H15 H14A 1_555 1_555
C13 C13A 1_555 1_555
C13 C13B 1_555 1_555
C15 C14B 1_555 1_555
C15 C14A 1_555 1_555
C6G C7B 1_555 1_555
C6A C7G 1_555 1_555
C2A C7A 1_555 1_555
C4A C5A 1_555 1_555
H14B H15G 1_555 1_555
H13A H15G 1_555 1_555
H13B H14G 1_555 1_555
H14G H15A 1_555 1_555
H13G H14A 1_555 1_555
H13G H15B 1_555 1_555
C13A C13G 1_555 1_555
C13A C14A 1_555 1_555
C13B C14B 1_555 1_555
C13B C13G 1_555 1_555
C14A C14G 1_555 1_555
C13G C14G 1_555 1_555
C14B C14G 1_555 1_555

#END
