
#######################################################################
#
#                 Cambridge Crystallographic Data Centre
#                                CCDC 
#
#######################################################################
#
# If this CIF has been generated from an entry in the Cambridge 
# Structural Database, then it will include bibliographic, chemical, 
# crystal, experimental, refinement or atomic coordinate data resulting 
# from the CCDC's data processing and validation procedures.
#
#######################################################################

data_WACKUI01
_chemical_formula_moiety         'C12 H12 N2'
_chemical_name_systematic        N-Benzylpyridin-2-amine
_symmetry_cell_setting           triclinic
_symmetry_space_group_name_H-M   'P -1'
_symmetry_Int_Tables_number      2
_space_group_name_Hall           '-P 1'
loop_
_symmetry_equiv_pos_site_id
_symmetry_equiv_pos_as_xyz
1 x,y,z
2 -x,-y,-z
_cell_length_a                   5.9233(10)
_cell_length_b                   8.0984(15)
_cell_length_c                   10.602(2)
_cell_angle_alpha                94.916(15)
_cell_angle_beta                 91.360(10)
_cell_angle_gamma                94.451(15)
_cell_volume                     504.935
_exptl_crystal_colour            'pale yellow'
_exptl_crystal_description       block
_cell_formula_units_Z            2
loop_
_atom_site_label
_atom_site_type_symbol
_atom_site_fract_x
_atom_site_fract_y
_atom_site_fract_z
C1 C 0.4259(5) 0.1591(3) 0.1743(3)
C2 C 0.3612(5) 0.2317(4) 0.2902(3)
H1 H 0.2384 0.2966 0.2946
C3 C 0.4814(6) 0.2060(4) 0.3978(3)
H2 H 0.4399 0.2533 0.4760
C4 C 0.6631(6) 0.1104(4) 0.3901(3)
H3 H 0.7494 0.0940 0.4617
C5 C 0.7120(5) 0.0399(4) 0.2725(3)
H4 H 0.8323 -0.0274 0.2667
C6 C 0.1290(5) 0.2807(4) 0.0538(3)
H5 H 0.1624 0.3874 0.1022
H6 H -0.0012 0.2245 0.0903
C7 C 0.0728(5) 0.3080(3) -0.0806(3)
C8 C 0.2253(5) 0.3955(4) -0.1514(3)
H7 H 0.3653 0.4367 -0.1155
C9 C 0.1723(6) 0.4224(4) -0.2746(3)
H8 H 0.2763 0.4823 -0.3210
C10 C -0.0325(6) 0.3617(4) -0.3297(3)
H9 H -0.0670 0.3785 -0.4135
C11 C -0.1851(6) 0.2764(4) -0.2600(3)
H10 H -0.3257 0.2362 -0.2958
C12 C -0.1314(5) 0.2501(4) -0.1371(3)
H11 H -0.2367 0.1911 -0.0910
N1 N 0.3211(4) 0.1824(3) 0.0631(2)
H12 H 0.3715 0.1364 -0.0055
N2 N 0.5982(4) 0.0617(3) 0.1662(2)
loop_
_geom_bond_atom_site_label_1
_geom_bond_atom_site_label_2
_geom_bond_site_symmetry_1
_geom_bond_site_symmetry_2
C1 C2 1_555 1_555
C2 H1 1_555 1_555
C3 C2 1_555 1_555
H2 C3 1_555 1_555
C4 C3 1_555 1_555
H3 C4 1_555 1_555
C5 C4 1_555 1_555
H4 C5 1_555 1_555
C6 H5 1_555 1_555
H6 C6 1_555 1_555
C7 C6 1_555 1_555
C8 C7 1_555 1_555
H7 C8 1_555 1_555
C9 C8 1_555 1_555
H8 C9 1_555 1_555
C10 C9 1_555 1_555
H9 C10 1_555 1_555
C11 C10 1_555 1_555
H10 C11 1_555 1_555
C12 C7 1_555 1_555
H11 C12 1_555 1_555
N1 C1 1_555 1_555
H12 N1 1_555 1_555
N2 C1 1_555 1_555
C5 N2 1_555 1_555
C6 N1 1_555 1_555
C11 C12 1_555 1_555

#END
