
#######################################################################
#
#                 Cambridge Crystallographic Data Centre
#                                CCDC 
#
#######################################################################
#
# If this CIF has been generated from an entry in the Cambridge 
# Structural Database, then it will include bibliographic, chemical, 
# crystal, experimental, refinement or atomic coordinate data resulting 
# from the CCDC's data processing and validation procedures.
#
#######################################################################

data_WACKUI
_chemical_formula_moiety         'C12 H12 N2'
_chemical_name_systematic        N-Benzylpyridin-2-amine
_symmetry_cell_setting           triclinic
_symmetry_space_group_name_H-M   'P -1'
_symmetry_Int_Tables_number      2
_space_group_name_Hall           '-P 1'
loop_
_symmetry_equiv_pos_site_id
_symmetry_equiv_pos_as_xyz
1 x,y,z
2 -x,-y,-z
_cell_length_a                   5.9014(16)
_cell_length_b                   8.025(2)
_cell_length_c                   10.561(3)
_cell_angle_alpha                95.471(4)
_cell_angle_beta                 91.244(4)
_cell_angle_gamma                94.779(3)
_cell_volume                     495.925
_exptl_crystal_colour            colorless
_exptl_crystal_description       block
_cell_formula_units_Z            2
loop_
_atom_site_label
_atom_site_type_symbol
_atom_site_fract_x
_atom_site_fract_y
_atom_site_fract_z
C1 C -0.1362(3) 0.24905(19) 0.36541(15)
H1 H -0.2427 0.1909 0.4122
C2 C 0.0725(3) 0.30933(18) 0.42172(14)
C3 C 0.2280(3) 0.39773(19) 0.34991(15)
H2 H 0.3689 0.4396 0.3860
C4 C 0.1748(3) 0.4236(2) 0.22596(16)
H3 H 0.2798 0.4832 0.1793
C5 C -0.0331(3) 0.3616(2) 0.17061(16)
H4 H -0.0680 0.3788 0.0868
C6 C -0.1889(3) 0.2740(2) 0.24050(16)
H5 H -0.3292 0.2317 0.2038
C7 C 0.1283(3) 0.2820(2) 0.55703(15)
H6 H 0.1617 0.3897 0.6065
H7 H -0.0022 0.2242 0.5932
C8 C 0.4265(3) 0.15939(18) 0.67594(14)
C9 C 0.3600(3) 0.23242(19) 0.79450(14)
H8 H 0.2360 0.2968 0.7998
C10 C 0.4814(3) 0.2067(2) 0.90146(15)
H9 H 0.4406 0.2545 0.9805
C11 C 0.6648(3) 0.1099(2) 0.89304(15)
H10 H 0.7507 0.0930 0.9649
C12 C 0.7150(3) 0.03973(19) 0.77449(15)
H11 H 0.8367 -0.0269 0.7683
N1 N 0.6010(2) 0.06064(16) 0.66736(12)
N2 N 0.3221(2) 0.18353(16) 0.56430(12)
H12 H 0.3734 0.1384 0.4947
loop_
_geom_bond_atom_site_label_1
_geom_bond_atom_site_label_2
_geom_bond_site_symmetry_1
_geom_bond_site_symmetry_2
C1 H1 1_555 1_555
C2 C1 1_555 1_555
C3 C2 1_555 1_555
H2 C3 1_555 1_555
C4 C3 1_555 1_555
H3 C4 1_555 1_555
C5 C4 1_555 1_555
H4 C5 1_555 1_555
C6 C1 1_555 1_555
H5 C6 1_555 1_555
C7 C2 1_555 1_555
H6 C7 1_555 1_555
H7 C7 1_555 1_555
C8 C9 1_555 1_555
C9 H8 1_555 1_555
C10 C9 1_555 1_555
H9 C10 1_555 1_555
C11 C10 1_555 1_555
H10 C11 1_555 1_555
C12 C11 1_555 1_555
H11 C12 1_555 1_555
N1 C8 1_555 1_555
N2 C7 1_555 1_555
H12 N2 1_555 1_555
C5 C6 1_555 1_555
C8 N2 1_555 1_555
C12 N1 1_555 1_555

#END
