
#######################################################################
#
#                 Cambridge Crystallographic Data Centre
#                                CCDC 
#
#######################################################################
#
# If this CIF has been generated from an entry in the Cambridge 
# Structural Database, then it will include bibliographic, chemical, 
# crystal, experimental, refinement or atomic coordinate data resulting 
# from the CCDC's data processing and validation procedures.
#
#######################################################################

data_WACMAR
_chemical_formula_moiety         'C58 H70 N8 O2'
_chemical_name_systematic        
2,2'-(Ethane-1,2-diylbis((benzylimino)methylene))bis(6-(2H-benzotriazol-2-yl)-4-(2,4,4-trimethylpentan-2-yl)phenol)
_symmetry_cell_setting           monoclinic
_symmetry_space_group_name_H-M   'P 21/c'
_symmetry_Int_Tables_number      14
_space_group_name_Hall           '-P 2ybc'
loop_
_symmetry_equiv_pos_site_id
_symmetry_equiv_pos_as_xyz
1 x,y,z
2 -x,1/2+y,1/2-z
3 -x,-y,-z
4 x,1/2-y,1/2+z
_cell_length_a                   11.9160(6)
_cell_length_b                   14.7008(9)
_cell_length_c                   14.6318(8)
_cell_angle_alpha                90
_cell_angle_beta                 105.255(3)
_cell_angle_gamma                90
_cell_volume                     2472.81
_cell_formula_units_Z            2
loop_
_atom_site_label
_atom_site_type_symbol
_atom_site_fract_x
_atom_site_fract_y
_atom_site_fract_z
O1 O 0.55768(8) 0.83857(6) -0.06149(7)
H1 H 0.5368 0.8866 -0.0924
N1 N 0.59692(9) 0.58928(7) 0.07348(7)
N2 N 0.25545(9) 0.99367(7) -0.08194(8)
N3 N 0.35675(9) 0.95100(7) -0.06935(7)
N4 N 0.42748(9) 0.98092(7) -0.12046(7)
C1 C 0.48262(10) 0.81959(8) -0.00842(9)
C2 C 0.50410(10) 0.74251(8) 0.04962(9)
C3 C 0.43008(11) 0.72256(8) 0.10632(9)
H2 H 0.4446 0.6696 0.1448
C4 C 0.33528(11) 0.77751(8) 0.10867(9)
C5 C 0.31497(11) 0.85393(8) 0.05069(9)
H3 H 0.2517 0.8930 0.0513
C6 C 0.38587(11) 0.87386(8) -0.00806(8)
C7 C 0.36568(11) 1.04944(8) -0.17219(9)
C8 C 0.25956(11) 1.05766(8) -0.14770(9)
C9 C 0.17651(12) 1.12417(9) -0.19033(10)
H4 H 0.1049 1.1303 -0.1738
C10 C 0.20429(13) 1.17921(9) -0.25651(10)
H5 H 0.1507 1.2248 -0.2865
C11 C 0.31121(13) 1.17016(9) -0.28171(10)
H6 H 0.3265 1.2097 -0.3284
C12 C 0.39272(12) 1.10644(9) -0.24095(9)
H7 H 0.4640 1.1009 -0.2581
C13 C 0.89668(11) 0.55218(9) 0.23367(10)
H8 H 0.9370 0.5389 0.1872
C14 C 0.95869(12) 0.55934(9) 0.32788(11)
H9 H 1.0406 0.5508 0.3455
C15 C 0.90092(12) 0.57898(9) 0.39626(10)
H10 H 0.9428 0.5828 0.4611
C16 C 0.78193(12) 0.59301(9) 0.36974(10)
H11 H 0.7424 0.6078 0.4163
C17 C 0.71970(11) 0.58559(8) 0.27500(9)
H12 H 0.6380 0.5953 0.2574
C18 C 0.77656(11) 0.56404(8) 0.20578(9)
C19 C 0.71141(11) 0.54562(8) 0.10421(9)
H13 H 0.7596 0.5666 0.0626
H14 H 0.7010 0.4791 0.0955
C20 C 0.52539(11) 0.54454(8) -0.01181(9)
H15 H 0.5736 0.5325 -0.0562
H16 H 0.4613 0.5857 -0.0437
C21 C 0.61194(11) 0.68607(8) 0.05462(9)
H17 H 0.6332 0.6918 -0.0061
H18 H 0.6771 0.7107 0.1052
C22 C 0.29872(13) 0.67909(10) 0.24062(10)
H19 H 0.3037 0.6241 0.2040
H20 H 0.2445 0.6687 0.2796
H21 H 0.3758 0.6936 0.2817
C23 C 0.25527(11) 0.75858(8) 0.17287(9)
C24 C 0.25764(13) 0.84275(10) 0.23637(10)
H22 H 0.3370 0.8525 0.2758
H23 H 0.2053 0.8329 0.2771
H24 H 0.2321 0.8964 0.1965
C25 C 0.12671(11) 0.74642(9) 0.11563(9)
H25 H 0.0822 0.7328 0.1624
H26 H 0.0999 0.8068 0.0885
C26 C 0.08627(12) 0.67689(9) 0.03446(10)
C27 C -0.04738(12) 0.67709(10) 0.01062(11)
H27 H -0.0785 0.6341 -0.0410
H28 H -0.0765 0.7383 -0.0090
H29 H -0.0723 0.6590 0.0667
C28 C 0.13000(13) 0.58043(10) 0.06181(12)
H30 H 0.0908 0.5380 0.0119
H31 H 0.1131 0.5635 0.1216
H32 H 0.2141 0.5779 0.0694
C29 C 0.12075(14) 0.70383(12) -0.05578(11)
H33 H 0.2054 0.6995 -0.0444
H34 H 0.0958 0.7664 -0.0731
H35 H 0.0831 0.6627 -0.1075
O1B O 0.44232(8) 0.16143(6) 0.06149(7)
H1B H 0.4632 0.1134 0.0924
N1B N 0.40308(9) 0.41072(7) -0.07348(7)
N2B N 0.74455(9) 0.00633(7) 0.08194(8)
N3B N 0.64325(9) 0.04900(7) 0.06935(7)
N4B N 0.57252(9) 0.01908(7) 0.12046(7)
C1B C 0.51738(10) 0.18041(8) 0.00842(9)
C2B C 0.49590(10) 0.25749(8) -0.04962(9)
C3B C 0.56992(11) 0.27744(8) -0.10632(9)
H2B H 0.5554 0.3304 -0.1448
C4B C 0.66472(11) 0.22249(8) -0.10867(9)
C5B C 0.68503(11) 0.14607(8) -0.05069(9)
H3B H 0.7483 0.1070 -0.0513
C6B C 0.61413(11) 0.12614(8) 0.00806(8)
C7B C 0.63432(11) -0.04944(8) 0.17219(9)
C8B C 0.74044(11) -0.05766(8) 0.14770(9)
C9B C 0.82349(12) -0.12417(9) 0.19033(10)
H4B H 0.8951 -0.1303 0.1738
C10B C 0.79571(13) -0.17921(9) 0.25651(10)
H5B H 0.8493 -0.2248 0.2865
C11B C 0.68879(13) -0.17016(9) 0.28171(10)
H6B H 0.6735 -0.2097 0.3284
C12B C 0.60728(12) -0.10644(9) 0.24095(9)
H7B H 0.5360 -0.1009 0.2581
C13B C 0.10332(11) 0.44782(9) -0.23367(10)
H8B H 0.0630 0.4611 -0.1872
C14B C 0.04131(12) 0.44066(9) -0.32788(11)
H9B H -0.0406 0.4492 -0.3455
C15B C 0.09908(12) 0.42102(9) -0.39626(10)
H10B H 0.0572 0.4172 -0.4611
C16B C 0.21807(12) 0.40699(9) -0.36974(10)
H11B H 0.2576 0.3922 -0.4163
C17B C 0.28030(11) 0.41441(8) -0.27500(9)
H12B H 0.3620 0.4047 -0.2574
C18B C 0.22344(11) 0.43596(8) -0.20578(9)
C19B C 0.28859(11) 0.45438(8) -0.10421(9)
H13B H 0.2404 0.4334 -0.0626
H14B H 0.2990 0.5209 -0.0955
C20B C 0.47461(11) 0.45546(8) 0.01181(9)
H15B H 0.4264 0.4675 0.0562
H16B H 0.5387 0.4143 0.0437
C21B C 0.38806(11) 0.31393(8) -0.05462(9)
H17B H 0.3668 0.3082 0.0061
H18B H 0.3229 0.2893 -0.1052
C22B C 0.70128(13) 0.32091(10) -0.24062(10)
H19B H 0.6963 0.3759 -0.2040
H20B H 0.7555 0.3313 -0.2796
H21B H 0.6242 0.3064 -0.2817
C23B C 0.74473(11) 0.24142(8) -0.17287(9)
C24B C 0.74236(13) 0.15725(10) -0.23637(10)
H22B H 0.6630 0.1475 -0.2758
H23B H 0.7947 0.1671 -0.2771
H24B H 0.7679 0.1036 -0.1965
C25B C 0.87329(11) 0.25358(9) -0.11563(9)
H25B H 0.9178 0.2672 -0.1624
H26B H 0.9001 0.1932 -0.0885
C26B C 0.91373(12) 0.32311(9) -0.03446(10)
C27B C 1.04738(12) 0.32291(10) -0.01062(11)
H27B H 1.0785 0.3659 0.0410
H28B H 1.0765 0.2617 0.0090
H29B H 1.0723 0.3410 -0.0667
C28B C 0.87000(13) 0.41957(10) -0.06181(12)
H30B H 0.9092 0.4620 -0.0119
H31B H 0.8869 0.4365 -0.1216
H32B H 0.7859 0.4221 -0.0694
C29B C 0.87925(14) 0.29617(12) 0.05578(11)
H33B H 0.7946 0.3005 0.0444
H34B H 0.9042 0.2336 0.0731
H35B H 0.9169 0.3373 0.1075
loop_
_geom_bond_atom_site_label_1
_geom_bond_atom_site_label_2
_geom_bond_site_symmetry_1
_geom_bond_site_symmetry_2
O1 H1 1_555 1_555
N1 C19 1_555 1_555
N2 N3 1_555 1_555
N3 N4 1_555 1_555
N4 C7 1_555 1_555
C1 O1 1_555 1_555
C2 C1 1_555 1_555
C3 C2 1_555 1_555
H2 C3 1_555 1_555
C4 C3 1_555 1_555
C5 C4 1_555 1_555
H3 C5 1_555 1_555
C6 N3 1_555 1_555
C7 C8 1_555 1_555
C8 N2 1_555 1_555
C9 C8 1_555 1_555
H4 C9 1_555 1_555
C10 C9 1_555 1_555
H5 C10 1_555 1_555
C11 C10 1_555 1_555
H6 C11 1_555 1_555
C12 C7 1_555 1_555
H7 C12 1_555 1_555
C13 H8 1_555 1_555
C14 C13 1_555 1_555
H9 C14 1_555 1_555
C15 C14 1_555 1_555
H10 C15 1_555 1_555
C16 C15 1_555 1_555
H11 C16 1_555 1_555
C17 C16 1_555 1_555
H12 C17 1_555 1_555
C18 C13 1_555 1_555
C19 C18 1_555 1_555
H13 C19 1_555 1_555
H14 C19 1_555 1_555
C20 N1 1_555 1_555
H15 C20 1_555 1_555
H16 C20 1_555 1_555
C21 N1 1_555 1_555
H17 C21 1_555 1_555
H18 C21 1_555 1_555
C22 H19 1_555 1_555
H20 C22 1_555 1_555
H21 C22 1_555 1_555
C23 C4 1_555 1_555
C24 C23 1_555 1_555
H22 C24 1_555 1_555
H23 C24 1_555 1_555
H24 C24 1_555 1_555
C25 C23 1_555 1_555
H25 C25 1_555 1_555
H26 C25 1_555 1_555
C26 C25 1_555 1_555
C27 C26 1_555 1_555
H27 C27 1_555 1_555
H28 C27 1_555 1_555
H29 C27 1_555 1_555
C28 C26 1_555 1_555
H30 C28 1_555 1_555
H31 C28 1_555 1_555
H32 C28 1_555 1_555
C29 C26 1_555 1_555
H33 C29 1_555 1_555
H34 C29 1_555 1_555
H35 C29 1_555 1_555
O1B H1B 1_555 1_555
N1B C19B 1_555 1_555
N2B N3B 1_555 1_555
N3B N4B 1_555 1_555
N4B C7B 1_555 1_555
C1B O1B 1_555 1_555
C2B C1B 1_555 1_555
C3B C2B 1_555 1_555
H2B C3B 1_555 1_555
C4B C3B 1_555 1_555
C5B C4B 1_555 1_555
H3B C5B 1_555 1_555
C6B N3B 1_555 1_555
C7B C8B 1_555 1_555
C8B N2B 1_555 1_555
C9B C8B 1_555 1_555
H4B C9B 1_555 1_555
C10B C9B 1_555 1_555
H5B C10B 1_555 1_555
C11B C10B 1_555 1_555
H6B C11B 1_555 1_555
C12B C7B 1_555 1_555
H7B C12B 1_555 1_555
C13B H8B 1_555 1_555
C14B C13B 1_555 1_555
H9B C14B 1_555 1_555
C15B C14B 1_555 1_555
H10B C15B 1_555 1_555
C16B C15B 1_555 1_555
H11B C16B 1_555 1_555
C17B C16B 1_555 1_555
H12B C17B 1_555 1_555
C18B C13B 1_555 1_555
C19B C18B 1_555 1_555
H13B C19B 1_555 1_555
H14B C19B 1_555 1_555
C20B C20 1_555 1_555
H15B C20B 1_555 1_555
H16B C20B 1_555 1_555
C21B N1B 1_555 1_555
H17B C21B 1_555 1_555
H18B C21B 1_555 1_555
C22B H19B 1_555 1_555
H20B C22B 1_555 1_555
H21B C22B 1_555 1_555
C23B C4B 1_555 1_555
C24B C23B 1_555 1_555
H22B C24B 1_555 1_555
H23B C24B 1_555 1_555
H24B C24B 1_555 1_555
C25B C23B 1_555 1_555
H25B C25B 1_555 1_555
H26B C25B 1_555 1_555
C26B C25B 1_555 1_555
C27B C26B 1_555 1_555
H27B C27B 1_555 1_555
H28B C27B 1_555 1_555
H29B C27B 1_555 1_555
C28B C26B 1_555 1_555
H30B C28B 1_555 1_555
H31B C28B 1_555 1_555
H32B C28B 1_555 1_555
C29B C26B 1_555 1_555
H33B C29B 1_555 1_555
H34B C29B 1_555 1_555
H35B C29B 1_555 1_555
C1 C6 1_555 1_555
C2 C21 1_555 1_555
C5 C6 1_555 1_555
C11 C12 1_555 1_555
C17 C18 1_555 1_555
C22 C23 1_555 1_555
N1B C20B 1_555 1_555
C1B C6B 1_555 1_555
C2B C21B 1_555 1_555
C5B C6B 1_555 1_555
C11B C12B 1_555 1_555
C17B C18B 1_555 1_555
C22B C23B 1_555 1_555

#END
