
#######################################################################
#
#                 Cambridge Crystallographic Data Centre
#                                CCDC 
#
#######################################################################
#
# If this CIF has been generated from an entry in the Cambridge 
# Structural Database, then it will include bibliographic, chemical, 
# crystal, experimental, refinement or atomic coordinate data resulting 
# from the CCDC's data processing and validation procedures.
#
#######################################################################

data_WACTEB
_chemical_name_common            
'Diethyl 2-((4-bromoanilino)methylidene)propanedioate'
_chemical_formula_moiety         'C14 H16 Br1 N1 O4'
_chemical_name_systematic        
'Diethyl (((4-bromophenyl)amino)methylene)malonate'
_symmetry_cell_setting           monoclinic
_symmetry_space_group_name_H-M   'P 21'
_symmetry_Int_Tables_number      4
_space_group_name_Hall           'P 2yb'
loop_
_symmetry_equiv_pos_site_id
_symmetry_equiv_pos_as_xyz
1 x,y,z
2 -x,1/2+y,-z
_cell_length_a                   9.2440(18)
_cell_length_b                   6.5000(13)
_cell_length_c                   13.448(3)
_cell_angle_alpha                90
_cell_angle_beta                 110.10(3)
_cell_angle_gamma                90
_cell_volume                     758.822
_exptl_crystal_colour            colorless
_exptl_crystal_description       needle
_chemical_melting_point          '367 K'
_cell_formula_units_Z            2
_exptl_crystal_recrystallization_method methanol
loop_
_atom_site_label
_atom_site_type_symbol
_atom_site_fract_x
_atom_site_fract_y
_atom_site_fract_z
Br1 Br 0.96900(11) 0.78434(19) 0.08931(9)
N1 N 0.7057(7) 0.0195(9) 0.2183(5)
H1 H 0.6242 -0.0249 0.1697
C1 C 0.7111(8) 0.2666(15) 0.0881(6)
H2 H 0.6318 0.1944 0.0387
O1 O 0.8800(8) -0.2964(10) 0.4901(5)
O2 O 0.7014(6) -0.5254(9) 0.4487(4)
C2 C 0.7701(9) 0.4458(13) 0.0594(6)
H3 H 0.7280 0.4973 -0.0091
C3 C 0.8892(9) 0.5442(11) 0.1320(8)
O3 O 0.4955(6) -0.2676(8) 0.1562(5)
C4 C 0.9487(9) 0.4794(12) 0.2343(7)
H4 H 1.0276 0.5532 0.2832
O4 O 0.4944(6) -0.5243(8) 0.2634(4)
C5 C 0.8899(8) 0.2992(19) 0.2660(5)
H5 H 0.9301 0.2520 0.3354
C6 C 0.7740(8) 0.1980(10) 0.1930(6)
C7 C 0.7510(8) -0.0856(11) 0.3061(6)
H6 H 0.8348 -0.0334 0.3608
C8 C 0.6869(8) -0.2699(11) 0.3269(6)
C9 C 0.7662(9) -0.3565(13) 0.4292(6)
C10 C 0.7736(9) -0.6258(12) 0.5497(6)
H7 H 0.7952 -0.5273 0.6071
H8 H 0.8694 -0.6907 0.5524
C11 C 0.6597(12) -0.7843(17) 0.5578(9)
H9 H 0.7005 -0.8544 0.6244
H10 H 0.6411 -0.8817 0.5011
H11 H 0.5648 -0.7178 0.5530
C12 C 0.5544(9) -0.3509(12) 0.2415(6)
C13 C 0.3642(9) -0.6084(13) 0.1829(6)
H12 H 0.3922 -0.6543 0.1233
H13 H 0.2832 -0.5063 0.1581
C14 C 0.3121(12) -0.7836(14) 0.2315(8)
H14 H 0.2224 -0.8442 0.1805
H15 H 0.2872 -0.7363 0.2913
H16 H 0.3927 -0.8844 0.2543
loop_
_geom_bond_atom_site_label_1
_geom_bond_atom_site_label_2
_geom_bond_site_symmetry_1
_geom_bond_site_symmetry_2
Br1 C3 1_555 1_555
N1 H1 1_555 1_555
C1 H2 1_555 1_555
O1 C9 1_555 1_555
O2 C9 1_555 1_555
C2 C1 1_555 1_555
H3 C2 1_555 1_555
C3 C2 1_555 1_555
O3 C12 1_555 1_555
C4 C3 1_555 1_555
H4 C4 1_555 1_555
O4 C12 1_555 1_555
C5 C4 1_555 1_555
H5 C5 1_555 1_555
C6 N1 1_555 1_555
C7 N1 1_555 1_555
H6 C7 1_555 1_555
C8 C7 1_555 1_555
C9 C8 1_555 1_555
C10 O2 1_555 1_555
H7 C10 1_555 1_555
H8 C10 1_555 1_555
C11 C10 1_555 1_555
H9 C11 1_555 1_555
H10 C11 1_555 1_555
H11 C11 1_555 1_555
C12 C8 1_555 1_555
C13 O4 1_555 1_555
H12 C13 1_555 1_555
H13 C13 1_555 1_555
C14 C13 1_555 1_555
H14 C14 1_555 1_555
H15 C14 1_555 1_555
H16 C14 1_555 1_555
C1 C6 1_555 1_555
C5 C6 1_555 1_555

#END
