
#######################################################################
#
#                 Cambridge Crystallographic Data Centre
#                                CCDC 
#
#######################################################################
#
# If this CIF has been generated from an entry in the Cambridge 
# Structural Database, then it will include bibliographic, chemical, 
# crystal, experimental, refinement or atomic coordinate data resulting 
# from the CCDC's data processing and validation procedures.
#
#######################################################################

data_WACXIJ
_chemical_formula_moiety         'C18 H23 N5 O2'
_chemical_name_systematic        
3-Benzyl-6-butyl-5-propoxy-3H-1,2,3-triazolo[4,5-d]pyrimidin-7(6H)-one
_symmetry_cell_setting           orthorhombic
_symmetry_space_group_name_H-M   'P b c n'
_symmetry_Int_Tables_number      60
_space_group_name_Hall           '-P 2n 2ab'
loop_
_symmetry_equiv_pos_site_id
_symmetry_equiv_pos_as_xyz
1 x,y,z
2 1/2-x,1/2-y,1/2+z
3 -x,y,1/2-z
4 1/2+x,1/2-y,-z
5 -x,-y,-z
6 1/2+x,1/2+y,1/2-z
7 x,-y,1/2+z
8 1/2-x,1/2+y,z
_cell_length_a                   28.328(6)
_cell_length_b                   14.818(3)
_cell_length_c                   8.7995(16)
_cell_angle_alpha                90
_cell_angle_beta                 90
_cell_angle_gamma                90
_cell_volume                     3693.72
_exptl_crystal_colour            colorless
_exptl_crystal_description       block
_cell_formula_units_Z            8
_exptl_crystal_recrystallization_method dichloromethane/ethanol
loop_
_atom_site_label
_atom_site_type_symbol
_atom_site_fract_x
_atom_site_fract_y
_atom_site_fract_z
C1 C 0.13547(10) 0.44798(18) 0.0088(3)
C2 C 0.11879(15) 0.3707(2) 0.0781(4)
H1 H 0.1388 0.3363 0.1387
C3 C 0.07250(19) 0.3444(3) 0.0577(5)
H2 H 0.0613 0.2929 0.1062
C4 C 0.04300(15) 0.3936(4) -0.0333(6)
H3 H 0.0120 0.3752 -0.0487
C5 C 0.05947(13) 0.4692(3) -0.1007(5)
H4 H 0.0394 0.5033 -0.1616
C6 C 0.10505(11) 0.4963(2) -0.0807(4)
H5 H 0.1157 0.5485 -0.1286
C7 C 0.18567(11) 0.4789(2) 0.0285(4)
H6 H 0.1902 0.5352 -0.0259
H7 H 0.1917 0.4902 0.1354
C8 C 0.25650(9) 0.37249(17) 0.0422(3)
C9 C 0.27483(10) 0.31471(18) -0.0642(3)
C10 C 0.31511(10) 0.26037(18) -0.0287(3)
C11 C 0.30961(10) 0.33995(18) 0.2144(3)
C12 C 0.30873(12) 0.4007(2) 0.4643(3)
H8 H 0.2781 0.3761 0.4915
H9 H 0.3042 0.4616 0.4263
C13 C 0.34015(14) 0.4018(3) 0.5988(4)
H10 H 0.3245 0.4351 0.6792
H11 H 0.3441 0.3402 0.6339
C14 C 0.38675(18) 0.4409(4) 0.5757(6)
H12 H 0.4045 0.4035 0.5076
H13 H 0.4029 0.4449 0.6714
H14 H 0.3836 0.5002 0.5330
C15 C 0.37466(10) 0.2295(2) 0.1713(3)
H15 H 0.3775 0.1745 0.1123
H16 H 0.3705 0.2127 0.2769
C16 C 0.42007(11) 0.2843(3) 0.1552(4)
H17 H 0.4163 0.3403 0.2108
H18 H 0.4455 0.2509 0.2031
C17 C 0.43453(13) 0.3064(3) -0.0027(5)
H19 H 0.4092 0.3391 -0.0525
H20 H 0.4397 0.2509 -0.0586
C18 C 0.47925(15) 0.3631(4) -0.0072(7)
H21 H 0.4741 0.4185 0.0467
H22 H 0.4873 0.3762 -0.1109
H23 H 0.5046 0.3304 0.0396
N1 N 0.21950(8) 0.41208(15) -0.0277(3)
N2 N 0.21576(10) 0.37955(17) -0.1729(3)
N3 N 0.24886(9) 0.32053(17) -0.1946(3)
N4 N 0.33234(8) 0.28021(15) 0.1193(2)
N5 N 0.27266(8) 0.38784(15) 0.1849(3)
O1 O 0.33434(8) 0.20431(16) -0.1081(2)
O2 O 0.33084(7) 0.34506(14) 0.3490(2)
loop_
_geom_bond_atom_site_label_1
_geom_bond_atom_site_label_2
_geom_bond_site_symmetry_1
_geom_bond_site_symmetry_2
C1 C2 1_555 1_555
C2 H1 1_555 1_555
C3 C2 1_555 1_555
H2 C3 1_555 1_555
C4 C3 1_555 1_555
H3 C4 1_555 1_555
C5 C4 1_555 1_555
H4 C5 1_555 1_555
C6 C1 1_555 1_555
H5 C6 1_555 1_555
C7 C1 1_555 1_555
H6 C7 1_555 1_555
H7 C7 1_555 1_555
C8 C9 1_555 1_555
C9 C10 1_555 1_555
C10 N4 1_555 1_555
C11 N4 1_555 1_555
C12 H8 1_555 1_555
H9 C12 1_555 1_555
C13 C12 1_555 1_555
H10 C13 1_555 1_555
H11 C13 1_555 1_555
C14 C13 1_555 1_555
H12 C14 1_555 1_555
H13 C14 1_555 1_555
H14 C14 1_555 1_555
C15 H15 1_555 1_555
H16 C15 1_555 1_555
C16 C15 1_555 1_555
H17 C16 1_555 1_555
H18 C16 1_555 1_555
C17 C16 1_555 1_555
H19 C17 1_555 1_555
H20 C17 1_555 1_555
C18 C17 1_555 1_555
H21 C18 1_555 1_555
H22 C18 1_555 1_555
H23 C18 1_555 1_555
N1 C7 1_555 1_555
N2 N1 1_555 1_555
N3 C9 1_555 1_555
N4 C15 1_555 1_555
N5 C8 1_555 1_555
O1 C10 1_555 1_555
O2 C11 1_555 1_555
C5 C6 1_555 1_555
C8 N1 1_555 1_555
C11 N5 1_555 1_555
C12 O2 1_555 1_555
N2 N3 1_555 1_555

#END
