
#######################################################################
#
#                 Cambridge Crystallographic Data Centre
#                                CCDC 
#
#######################################################################
#
# If this CIF has been generated from an entry in the Cambridge 
# Structural Database, then it will include bibliographic, chemical, 
# crystal, experimental, refinement or atomic coordinate data resulting 
# from the CCDC's data processing and validation procedures.
#
#######################################################################

data_WACZIL
_chemical_name_common            Mefenacet
_chemical_formula_moiety         'C16 H14 N2 O2 S1'
_chemical_name_systematic        
2-(1,3-Benzothiazol-2-yloxy)-N-methyl-N-phenylacetamide
_chemical_properties_biological  
'Mefenacet is a herbicide with low toxicity and high activity'
_symmetry_cell_setting           monoclinic
_symmetry_space_group_name_H-M   'P 21/c'
_symmetry_Int_Tables_number      14
_space_group_name_Hall           '-P 2ybc'
loop_
_symmetry_equiv_pos_site_id
_symmetry_equiv_pos_as_xyz
1 x,y,z
2 -x,1/2+y,1/2-z
3 -x,-y,-z
4 x,1/2-y,1/2+z
_cell_length_a                   11.2708(6)
_cell_length_b                   15.7112(9)
_cell_length_c                   19.9579(8)
_cell_angle_alpha                90
_cell_angle_beta                 122.997(2)
_cell_angle_gamma                90
_cell_volume                     2964.05
_exptl_crystal_colour            colorless
_exptl_crystal_description       block
_cell_formula_units_Z            8
_exptl_crystal_recrystallization_method dichloromethane
loop_
_atom_site_label
_atom_site_type_symbol
_atom_site_fract_x
_atom_site_fract_y
_atom_site_fract_z
S1 S 0.94569(4) 0.65520(3) 0.70419(3)
O1 O 0.71887(12) 0.56299(8) 0.65599(8)
O2 O 0.53812(13) 0.61502(8) 0.50454(8)
N1 N 0.69842(14) 0.70886(9) 0.66837(9)
N2 N 0.34408(15) 0.59934(9) 0.51009(9)
C1 C 0.92417(17) 0.76410(11) 0.71071(10)
C2 C 1.02172(17) 0.82906(12) 0.73152(10)
H1 H 1.1156 0.8173 0.7462
C3 C 0.97758(19) 0.91139(12) 0.73012(11)
H2 H 1.0418 0.9572 0.7434
C4 C 0.84079(19) 0.92827(12) 0.70967(11)
H3 H 0.8133 0.9855 0.7096
C5 C 0.74394(18) 0.86369(11) 0.68950(11)
H4 H 0.6508 0.8760 0.6759
C6 C 0.78526(17) 0.78025(11) 0.68938(10)
C7 C 0.76859(17) 0.64308(11) 0.67289(10)
C8 C 0.57044(18) 0.55577(11) 0.62402(11)
H5 H 0.5481 0.5861 0.6593
H6 H 0.5454 0.4950 0.6223
C9 C 0.48359(18) 0.59301(10) 0.54072(10)
C10 C 0.2484(2) 0.62796(14) 0.42757(11)
H7 H 0.3006 0.6636 0.4118
H8 H 0.1710 0.6610 0.4235
H9 H 0.2095 0.5784 0.3922
C11 C 0.27959(17) 0.56221(11) 0.54862(10)
C12 C 0.2600(2) 0.61034(13) 0.59977(12)
H10 H 0.2915 0.6677 0.6111
C13 C 0.1940(2) 0.57392(16) 0.63416(13)
H11 H 0.1807 0.6063 0.6698
C14 C 0.1474(2) 0.49112(16) 0.61706(14)
H12 H 0.1009 0.4668 0.6404
C15 C 0.1676(2) 0.44331(14) 0.56647(14)
H13 H 0.1361 0.3859 0.5553
C16 C 0.2339(2) 0.47876(12) 0.53191(12)
H14 H 0.2481 0.4460 0.4968
S2 S 0.21697(5) 0.53839(3) 0.15747(3)
O3 O 0.37291(13) 0.62655(7) 0.28811(7)
O4 O 0.30217(13) 0.78901(8) 0.29306(9)
N3 N 0.38648(14) 0.66403(9) 0.17928(8)
N4 N 0.52868(15) 0.83502(9) 0.36531(10)
C17 C 0.23107(18) 0.56733(11) 0.07802(11)
C18 C 0.1640(2) 0.53245(13) 0.00209(13)
H15 H 0.1012 0.4856 -0.0126
C19 C 0.1912(2) 0.56794(16) -0.05143(14)
H16 H 0.1450 0.5458 -0.1041
C20 C 0.2847(3) 0.63537(15) -0.02975(13)
H17 H 0.3015 0.6584 -0.0679
C21 C 0.3540(2) 0.66979(13) 0.04629(12)
H18 H 0.4188 0.7155 0.0610
C22 C 0.32599(18) 0.63536(11) 0.10061(11)
C23 C 0.33790(17) 0.61924(10) 0.21272(10)
C24 C 0.48587(18) 0.68520(11) 0.33700(11)
H19 H 0.5552 0.6842 0.3211
H20 H 0.5352 0.6675 0.3937
C25 C 0.42889(18) 0.77450(11) 0.32799(11)
C26 C 0.4871(2) 0.92358(13) 0.36470(17)
H21 H 0.4925 0.9557 0.3244
H22 H 0.5510 0.9490 0.4174
H23 H 0.3899 0.9252 0.3519
C27 C 0.67722(18) 0.81716(11) 0.40232(11)
C28 C 0.73303(19) 0.81424(12) 0.35549(12)
H24 H 0.6737 0.8235 0.2995
C29 C 0.87550(19) 0.79774(12) 0.39043(12)
H25 H 0.9141 0.7954 0.3584
C30 C 0.9613(2) 0.78468(12) 0.47130(13)
H26 H 1.0592 0.7737 0.4953
C31 C 0.9050(2) 0.78758(14) 0.51738(13)
H27 H 0.9646 0.7783 0.5733
C32 C 0.7627(2) 0.80379(13) 0.48354(12)
H28 H 0.7245 0.8057 0.5158
loop_
_geom_bond_atom_site_label_1
_geom_bond_atom_site_label_2
_geom_bond_site_symmetry_1
_geom_bond_site_symmetry_2
S1 C1 1_555 1_555
S2 C17 1_555 1_555
O1 C7 1_555 1_555
O2 C9 1_555 1_555
O3 C23 1_555 1_555
O4 C25 1_555 1_555
N1 C6 1_555 1_555
N2 C9 1_555 1_555
N3 C22 1_555 1_555
N4 C25 1_555 1_555
C1 C2 1_555 1_555
C2 H1 1_555 1_555
C3 C2 1_555 1_555
H2 C3 1_555 1_555
C4 C3 1_555 1_555
H3 C4 1_555 1_555
C5 C4 1_555 1_555
H4 C5 1_555 1_555
C6 C1 1_555 1_555
C7 S1 1_555 1_555
C8 O1 1_555 1_555
H5 C8 1_555 1_555
H6 C8 1_555 1_555
C9 C8 1_555 1_555
C10 N2 1_555 1_555
H7 C10 1_555 1_555
H8 C10 1_555 1_555
H9 C10 1_555 1_555
C11 N2 1_555 1_555
C12 C11 1_555 1_555
H10 C12 1_555 1_555
C13 C12 1_555 1_555
H11 C13 1_555 1_555
C14 C13 1_555 1_555
H12 C14 1_555 1_555
C15 C14 1_555 1_555
H13 C15 1_555 1_555
C16 C11 1_555 1_555
H14 C16 1_555 1_555
C17 C18 1_555 1_555
C18 H15 1_555 1_555
C19 C18 1_555 1_555
H16 C19 1_555 1_555
C20 C19 1_555 1_555
H17 C20 1_555 1_555
C21 C20 1_555 1_555
H18 C21 1_555 1_555
C22 C17 1_555 1_555
C23 S2 1_555 1_555
C24 O3 1_555 1_555
H19 C24 1_555 1_555
H20 C24 1_555 1_555
C25 C24 1_555 1_555
C26 N4 1_555 1_555
H21 C26 1_555 1_555
H22 C26 1_555 1_555
H23 C26 1_555 1_555
C27 N4 1_555 1_555
C28 C27 1_555 1_555
H24 C28 1_555 1_555
C29 C28 1_555 1_555
H25 C29 1_555 1_555
C30 C29 1_555 1_555
H26 C30 1_555 1_555
C31 C30 1_555 1_555
H27 C31 1_555 1_555
C32 C27 1_555 1_555
H28 C32 1_555 1_555
N1 C7 1_555 1_555
N3 C23 1_555 1_555
C5 C6 1_555 1_555
C15 C16 1_555 1_555
C21 C22 1_555 1_555
C31 C32 1_555 1_555

#END
