
#######################################################################
#
#                 Cambridge Crystallographic Data Centre
#                                CCDC 
#
#######################################################################
#
# If this CIF has been generated from an entry in the Cambridge 
# Structural Database, then it will include bibliographic, chemical, 
# crystal, experimental, refinement or atomic coordinate data resulting 
# from the CCDC's data processing and validation procedures.
#
#######################################################################

data_WADCIP
_chemical_name_common            'Methylene dipyrrolidine-1-carbodithioate'
_chemical_formula_moiety         'C11 H18 N2 S4'
_chemical_name_systematic        
'[(Pyrrolidin-1-yl)carbothioylsulfanyl]methyl pyrrolidine-1-carbodithioate'
_symmetry_cell_setting           orthorhombic
_symmetry_space_group_name_H-M   'P c a 21'
_symmetry_Int_Tables_number      29
_space_group_name_Hall           'P 2c -2ac'
loop_
_symmetry_equiv_pos_site_id
_symmetry_equiv_pos_as_xyz
1 x,y,z
2 -x,-y,1/2+z
3 1/2+x,-y,z
4 1/2-x,y,1/2+z
_cell_length_a                   21.9118(18)
_cell_length_b                   4.5705(4)
_cell_length_c                   14.3452(12)
_cell_angle_alpha                90
_cell_angle_beta                 90
_cell_angle_gamma                90
_cell_volume                     1436.64
_exptl_crystal_colour            'light brown'
_exptl_crystal_description       block
_cell_formula_units_Z            4
_exptl_crystal_recrystallization_method hexane/dichloromethane
loop_
_atom_site_label
_atom_site_type_symbol
_atom_site_fract_x
_atom_site_fract_y
_atom_site_fract_z
S1 S 0.34241(4) 0.48896(18) 0.20742(6)
S2 S 0.24742(5) 0.4861(2) 0.05150(8)
S3 S 0.40977(4) 0.48200(19) 0.02225(7)
S4 S 0.50250(6) 0.4996(2) 0.18040(8)
N1 N 0.23596(13) 0.7324(7) 0.2179(2)
N2 N 0.51532(12) 0.7401(7) 0.0131(2)
C1 C 0.2724(4) 0.593(2) 0.1603(7)
C2 C 0.1742(5) 0.840(3) 0.1934(7)
H1 H 0.1450 0.6753 0.1894
H2 H 0.1749 0.9430 0.1327
C3 C 0.1558(4) 1.0519(19) 0.2724(6)
H3 H 0.1691 1.2541 0.2580
H4 H 0.1111 1.0507 0.2820
C4 C 0.1889(4) 0.935(2) 0.3579(6)
H5 H 0.1669 0.7670 0.3857
H6 H 0.1943 1.0887 0.4057
C5 C 0.2514(4) 0.838(2) 0.3155(7)
H7 H 0.2803 1.0043 0.3132
H8 H 0.2698 0.6784 0.3528
C6 C 0.4816(3) 0.6102(15) 0.0724(6)
C7 C 0.5772(5) 0.855(3) 0.0389(7)
H9 H 0.6075 0.6954 0.0428
H10 H 0.5760 0.9611 0.0990
C8 C 0.5912(4) 1.0600(16) -0.0409(6)
H11 H 0.5747 1.2579 -0.0287
H12 H 0.6358 1.0747 -0.0513
C9 C 0.5603(4) 0.9224(18) -0.1231(5)
H13 H 0.5837 0.7523 -0.1464
H14 H 0.5551 1.0652 -0.1743
C10 C 0.4984(4) 0.827(3) -0.0837(8)
H15 H 0.4687 0.9902 -0.0839
H16 H 0.4813 0.6600 -0.1191
C11 C 0.37625(18) 0.2698(7) 0.1150(4)
H17 H 0.4081 0.1426 0.1423
H18 H 0.3444 0.1413 0.0882
C12? C 0.2682(6) 0.549(3) 0.1543(10)
C13? C 0.5010(5) 0.808(4) -0.0837(10)
C14? C 0.1763(6) 0.843(4) 0.1926(8)
C15? C 0.1491(4) 0.910(2) 0.2897(7)
C16? C 0.2053(4) 1.016(2) 0.3437(9)
C17? C 0.2549(5) 0.793(3) 0.3119(10)
C18? C 0.4807(5) 0.551(2) 0.0695(8)
C19? C 0.5740(6) 0.853(4) 0.0417(8)
C20? C 0.6031(4) 0.939(2) -0.0505(8)
C21? C 0.5511(5) 1.027(2) -0.1120(8)
H19? H 0.4599 0.8968 -0.0892
H20? H 0.5027 0.6299 -0.1230
H21? H 0.1520 0.6948 0.1589
H22? H 0.1794 1.0226 0.1541
H23? H 0.1174 1.0640 0.2862
H24? H 0.1314 0.7321 0.3184
H25? H 0.1985 1.0058 0.4119
H26? H 0.2164 1.2183 0.3262
H27? H 0.2962 0.8811 0.3136
H28? H 0.2544 0.6145 0.3508
H29? H 0.5983 0.7013 0.0740
H30? H 0.5693 1.0245 0.0832
H31? H 0.6318 1.1039 -0.0417
H32? H 0.6256 0.7717 -0.0778
H33? H 0.5618 1.0074 -0.1788
H34? H 0.5383 1.2315 -0.0996
loop_
_geom_bond_atom_site_label_1
_geom_bond_atom_site_label_2
_geom_bond_site_symmetry_1
_geom_bond_site_symmetry_2
S1 C1 1_555 1_555
S2 C1 1_555 1_555
S3 C6 1_555 1_555
S4 C6 1_555 1_555
N1 C1 1_555 1_555
N2 C6 1_555 1_555
C2 N1 1_555 1_555
H1 C2 1_555 1_555
H2 C2 1_555 1_555
C3 C2 1_555 1_555
H3 C3 1_555 1_555
H4 C3 1_555 1_555
C4 C3 1_555 1_555
H5 C4 1_555 1_555
H6 C4 1_555 1_555
C5 N1 1_555 1_555
H7 C5 1_555 1_555
H8 C5 1_555 1_555
C7 N2 1_555 1_555
H9 C7 1_555 1_555
H10 C7 1_555 1_555
C8 C7 1_555 1_555
H11 C8 1_555 1_555
H12 C8 1_555 1_555
C9 C8 1_555 1_555
H13 C9 1_555 1_555
H14 C9 1_555 1_555
C10 N2 1_555 1_555
H15 C10 1_555 1_555
H16 C10 1_555 1_555
C11 S1 1_555 1_555
H17 C11 1_555 1_555
H18 C11 1_555 1_555
S3 C11 1_555 1_555
C4 C5 1_555 1_555
C9 C10 1_555 1_555

#END
