
#######################################################################
#
#                 Cambridge Crystallographic Data Centre
#                                CCDC 
#
#######################################################################
#
# If this CIF has been generated from an entry in the Cambridge 
# Structural Database, then it will include bibliographic, chemical, 
# crystal, experimental, refinement or atomic coordinate data resulting 
# from the CCDC's data processing and validation procedures.
#
#######################################################################

data_WADCUB
_chemical_formula_moiety         'C13 H13 N1 O4'
_chemical_name_systematic        
'Methyl 2-(4-hydroxy-1-methyl-2-oxo-1,2-dihydroquinolin-3-yl)acetate'
_chemical_properties_biological  'analgesic activity'
_symmetry_cell_setting           monoclinic
_symmetry_space_group_name_H-M   'P 21/c'
_symmetry_Int_Tables_number      14
_space_group_name_Hall           '-P 2ybc'
loop_
_symmetry_equiv_pos_site_id
_symmetry_equiv_pos_as_xyz
1 x,y,z
2 -x,1/2+y,1/2-z
3 -x,-y,-z
4 x,1/2-y,1/2+z
_cell_length_a                   9.0792(6)
_cell_length_b                   11.4904(6)
_cell_length_c                   11.4071(7)
_cell_angle_alpha                90
_cell_angle_beta                 105.272(7)
_cell_angle_gamma                90
_cell_volume                     1148.01
_exptl_crystal_colour            colorless
_exptl_crystal_description       block
_chemical_melting_point          '452-454 K'
_cell_formula_units_Z            4
loop_
_atom_site_label
_atom_site_type_symbol
_atom_site_fract_x
_atom_site_fract_y
_atom_site_fract_z
N1 N 0.27207(11) 0.49052(8) 0.49471(8)
O1 O 0.39749(11) 0.33292(7) 0.44953(8)
O2 O 0.26304(11) 0.34913(8) 0.82386(8)
H1 H 0.3143(18) 0.2811(15) 0.8511(15)
O3 O 0.19057(12) 0.11214(7) 0.58965(9)
O4 O 0.41580(10) 0.02233(7) 0.61834(8)
C1 C 0.19562(14) 0.54717(10) 0.56935(11)
C2 C 0.11931(15) 0.65295(10) 0.53520(13)
H2 H 0.1204 0.6877 0.4618
C3 C 0.04276(16) 0.70527(12) 0.61044(14)
H3 H -0.0073 0.7755 0.5873
C4 C 0.03911(16) 0.65520(11) 0.71953(14)
H4 H -0.0132 0.6916 0.7693
C5 C 0.11239(14) 0.55205(11) 0.75432(12)
H5 H 0.1093 0.5183 0.8277
C6 C 0.19244(13) 0.49640(9) 0.68027(10)
C7 C 0.27042(13) 0.38819(10) 0.71437(10)
C8 C 0.34114(14) 0.33278(9) 0.63922(11)
C9 C 0.33855(14) 0.38309(10) 0.52337(11)
C10 C 0.42339(14) 0.21863(10) 0.66808(12)
H6 H 0.5113 0.2192 0.6348
H7 H 0.4607 0.2112 0.7556
C11 C 0.32703(16) 0.11471(10) 0.61955(11)
C12 C 0.33896(18) -0.08538(12) 0.57708(14)
H8 H 0.2641 -0.1004 0.6209
H9 H 0.4120 -0.1477 0.5910
H10 H 0.2895 -0.0800 0.4918
C13 C 0.27996(17) 0.54417(12) 0.38000(11)
H11 H 0.3199 0.6217 0.3953
H12 H 0.1795 0.5472 0.3254
H13 H 0.3456 0.4988 0.3442
loop_
_geom_bond_atom_site_label_1
_geom_bond_atom_site_label_2
_geom_bond_site_symmetry_1
_geom_bond_site_symmetry_2
N1 C1 1_555 1_555
O1 C9 1_555 1_555
O2 H1 1_555 1_555
O3 C11 1_555 1_555
O4 C11 1_555 1_555
C1 C2 1_555 1_555
C2 H2 1_555 1_555
C3 C2 1_555 1_555
H3 C3 1_555 1_555
C4 C3 1_555 1_555
H4 C4 1_555 1_555
C5 C4 1_555 1_555
H5 C5 1_555 1_555
C6 C1 1_555 1_555
C7 O2 1_555 1_555
C8 C7 1_555 1_555
C9 N1 1_555 1_555
C10 C8 1_555 1_555
H6 C10 1_555 1_555
H7 C10 1_555 1_555
C11 C10 1_555 1_555
C12 O4 1_555 1_555
H8 C12 1_555 1_555
H9 C12 1_555 1_555
H10 C12 1_555 1_555
C13 N1 1_555 1_555
H11 C13 1_555 1_555
H12 C13 1_555 1_555
H13 C13 1_555 1_555
C5 C6 1_555 1_555
C6 C7 1_555 1_555
C8 C9 1_555 1_555

#END
