
#######################################################################
#
#                 Cambridge Crystallographic Data Centre
#                                CCDC 
#
#######################################################################
#
# If this CIF has been generated from an entry in the Cambridge 
# Structural Database, then it will include bibliographic, chemical, 
# crystal, experimental, refinement or atomic coordinate data resulting 
# from the CCDC's data processing and validation procedures.
#
#######################################################################

data_WADCOU
_chemical_formula_moiety         'C32 H23 N2 O2 P1'
_chemical_name_systematic        
"O,O'-(R)-(1,1'-Binaphthyl-2,2'-diyl) N-benzyl-N-(2-pyridyl)phosphoramidite"
_symmetry_cell_setting           orthorhombic
_symmetry_space_group_name_H-M   'P 21 21 21'
_symmetry_Int_Tables_number      19
_space_group_name_Hall           'P 2ac 2ab'
loop_
_symmetry_equiv_pos_site_id
_symmetry_equiv_pos_as_xyz
1 x,y,z
2 1/2-x,-y,1/2+z
3 -x,1/2+y,1/2-z
4 1/2+x,1/2-y,-z
_cell_length_a                   9.5168(11)
_cell_length_b                   10.3952(11)
_cell_length_c                   25.398(3)
_cell_angle_alpha                90
_cell_angle_beta                 90
_cell_angle_gamma                90
_cell_volume                     2512.6
_exptl_crystal_colour            colorless
_exptl_crystal_description       block
_cell_formula_units_Z            4
_chemical_properties_physical    'air-sensitive and moisture-sensitive'
_exptl_crystal_recrystallization_method dichloromethane/ether
loop_
_atom_site_label
_atom_site_type_symbol
_atom_site_fract_x
_atom_site_fract_y
_atom_site_fract_z
P1 P 0.66445(9) 0.61190(8) 0.36427(3)
O1 O 0.76541(18) 0.57650(17) 0.41530(7)
O2 O 0.50965(18) 0.56757(17) 0.38756(6)
N1 N 0.7194(2) 0.4796(2) 0.32824(9)
N2 N 0.5646(3) 0.5582(2) 0.26716(10)
C1 C 0.7180(3) 0.6057(3) 0.46575(11)
C2 C 0.7870(3) 0.7062(3) 0.49163(13)
H1 H 0.8582 0.7515 0.4748
C3 C 0.7491(4) 0.7369(3) 0.54130(14)
H2 H 0.7977 0.8013 0.5591
C4 C 0.6381(4) 0.6736(3) 0.56656(13)
C5 C 0.5882(4) 0.7115(3) 0.61673(15)
H3 H 0.6338 0.7775 0.6346
C6 C 0.4770(5) 0.6546(4) 0.63892(15)
H4 H 0.4472 0.6810 0.6721
C7 C 0.4045(4) 0.5555(3) 0.61301(14)
H5 H 0.3259 0.5181 0.6285
C8 C 0.4508(3) 0.5140(3) 0.56437(12)
H6 H 0.4036 0.4476 0.5474
C9 C 0.5692(3) 0.5714(3) 0.54004(12)
C10 C 0.6160(3) 0.5325(2) 0.48892(11)
C11 C 0.5537(3) 0.4233(3) 0.45931(11)
C12 C 0.5526(3) 0.2947(3) 0.47914(11)
C13 C 0.6151(3) 0.2591(3) 0.52724(12)
H7 H 0.6588 0.3214 0.5478
C14 C 0.6126(3) 0.1335(3) 0.54441(13)
H8 H 0.6554 0.1116 0.5761
C15 C 0.5457(4) 0.0382(3) 0.51422(15)
H9 H 0.5430 -0.0461 0.5265
C16 C 0.4858(4) 0.0674(3) 0.46800(14)
H10 H 0.4421 0.0029 0.4486
C17 C 0.4875(3) 0.1964(3) 0.44780(13)
C18 C 0.4289(3) 0.2278(3) 0.39870(12)
H11 H 0.3841 0.1643 0.3791
C19 C 0.4365(3) 0.3493(3) 0.37947(12)
H12 H 0.3998 0.3689 0.3465
C20 C 0.5010(3) 0.4453(3) 0.41031(12)
C21 C 0.8067(3) 0.3748(3) 0.34823(10)
H13 H 0.7548 0.2949 0.3451
H14 H 0.8247 0.3895 0.3853
C22 C 0.9451(3) 0.3603(3) 0.32018(11)
C23 C 1.0182(3) 0.4652(3) 0.30047(11)
H15 H 0.9808 0.5475 0.3037
C24 C 1.1463(4) 0.4476(3) 0.27607(12)
H16 H 1.1945 0.5187 0.2632
C25 C 1.2042(3) 0.3277(4) 0.27040(13)
H17 H 1.2897 0.3176 0.2532
C26 C 1.1352(4) 0.2233(3) 0.29017(13)
H18 H 1.1741 0.1416 0.2871
C27 C 1.0071(4) 0.2401(3) 0.31473(11)
H19 H 0.9608 0.1684 0.3281
C28 C 0.6557(3) 0.4649(3) 0.27951(12)
C29 C 0.6813(3) 0.3612(3) 0.24616(13)
H20 H 0.7476 0.2988 0.2547
C30 C 0.6050(4) 0.3540(3) 0.20010(14)
H21 H 0.6179 0.2845 0.1776
C31 C 0.5108(4) 0.4478(4) 0.18723(13)
H22 H 0.4587 0.4436 0.1563
C32 C 0.4958(3) 0.5490(3) 0.22190(14)
H23 H 0.4337 0.6146 0.2130
loop_
_geom_bond_atom_site_label_1
_geom_bond_atom_site_label_2
_geom_bond_site_symmetry_1
_geom_bond_site_symmetry_2
P1 O1 1_555 1_555
O1 C1 1_555 1_555
O2 P1 1_555 1_555
N1 P1 1_555 1_555
N2 C28 1_555 1_555
C1 C2 1_555 1_555
C2 H1 1_555 1_555
C3 C2 1_555 1_555
H2 C3 1_555 1_555
C4 C3 1_555 1_555
C5 C4 1_555 1_555
H3 C5 1_555 1_555
C6 C5 1_555 1_555
H4 C6 1_555 1_555
C7 C6 1_555 1_555
H5 C7 1_555 1_555
C8 C7 1_555 1_555
H6 C8 1_555 1_555
C9 C4 1_555 1_555
C10 C1 1_555 1_555
C11 C10 1_555 1_555
C12 C11 1_555 1_555
C13 C12 1_555 1_555
H7 C13 1_555 1_555
C14 C13 1_555 1_555
H8 C14 1_555 1_555
C15 C14 1_555 1_555
H9 C15 1_555 1_555
C16 C15 1_555 1_555
H10 C16 1_555 1_555
C17 C12 1_555 1_555
C18 C17 1_555 1_555
H11 C18 1_555 1_555
C19 C18 1_555 1_555
H12 C19 1_555 1_555
C20 O2 1_555 1_555
C21 N1 1_555 1_555
H13 C21 1_555 1_555
H14 C21 1_555 1_555
C22 C21 1_555 1_555
C23 C22 1_555 1_555
H15 C23 1_555 1_555
C24 C23 1_555 1_555
H16 C24 1_555 1_555
C25 C24 1_555 1_555
H17 C25 1_555 1_555
C26 C25 1_555 1_555
H18 C26 1_555 1_555
C27 C22 1_555 1_555
H19 C27 1_555 1_555
C28 N1 1_555 1_555
C29 C28 1_555 1_555
H20 C29 1_555 1_555
C30 C29 1_555 1_555
H21 C30 1_555 1_555
C31 C30 1_555 1_555
H22 C31 1_555 1_555
C32 N2 1_555 1_555
H23 C32 1_555 1_555
C8 C9 1_555 1_555
C9 C10 1_555 1_555
C11 C20 1_555 1_555
C16 C17 1_555 1_555
C19 C20 1_555 1_555
C26 C27 1_555 1_555
C31 C32 1_555 1_555

#END
