
#######################################################################
#
#                 Cambridge Crystallographic Data Centre
#                                CCDC 
#
#######################################################################
#
# If this CIF has been generated from an entry in the Cambridge 
# Structural Database, then it will include bibliographic, chemical, 
# crystal, experimental, refinement or atomic coordinate data resulting 
# from the CCDC's data processing and validation procedures.
#
#######################################################################

data_WADCOV
_chemical_formula_moiety         'C21 H18 N2 O1'
_chemical_name_systematic        
4-(((9-Ethyl-9H-carbazol-3-yl)imino)methyl)phenol
_symmetry_cell_setting           orthorhombic
_symmetry_space_group_name_H-M   'P b c a'
_symmetry_Int_Tables_number      61
_space_group_name_Hall           '-P 2ac 2ab'
loop_
_symmetry_equiv_pos_site_id
_symmetry_equiv_pos_as_xyz
1 x,y,z
2 1/2-x,-y,1/2+z
3 -x,1/2+y,1/2-z
4 1/2+x,1/2-y,-z
5 -x,-y,-z
6 1/2+x,y,1/2-z
7 x,1/2-y,1/2+z
8 1/2-x,1/2+y,z
_cell_length_a                   13.386(6)
_cell_length_b                   9.247(4)
_cell_length_c                   26.443(10)
_cell_angle_alpha                90
_cell_angle_beta                 90
_cell_angle_gamma                90
_cell_volume                     3273.12
_exptl_crystal_colour            brown
_exptl_crystal_description       block
_cell_formula_units_Z            8
_exptl_crystal_recrystallization_method 'ethyl acetate'
loop_
_atom_site_label
_atom_site_type_symbol
_atom_site_fract_x
_atom_site_fract_y
_atom_site_fract_z
O1 O 0.61757(15) 0.7932(2) 0.83217(7)
H1 H 0.5624 0.8316 0.8314
N1 N 0.64140(15) 0.0252(2) 0.47293(8)
N2 N 0.58786(17) 0.3455(2) 0.64785(8)
C1 C 0.7978(2) -0.0332(4) 0.42951(13)
H2 H 0.8397 -0.1123 0.4193
H3 H 0.8343 0.0292 0.4519
H4 H 0.7772 0.0202 0.4002
C2 C 0.7074(2) -0.0908(3) 0.45633(11)
H5 H 0.6711 -0.1547 0.4338
H6 H 0.7285 -0.1468 0.4855
C3 C 0.57518(18) 0.0966(3) 0.44114(10)
C4 C 0.5568(2) 0.0753(3) 0.39037(11)
H7 H 0.5892 0.0024 0.3725
C5 C 0.4897(2) 0.1644(3) 0.36707(12)
H8 H 0.4767 0.1523 0.3328
C6 C 0.4407(2) 0.2721(3) 0.39335(12)
H9 H 0.3953 0.3310 0.3765
C7 C 0.45795(19) 0.2937(3) 0.44390(11)
H10 H 0.4241 0.3658 0.4614
C8 C 0.52679(18) 0.2060(3) 0.46856(10)
C9 C 0.56752(17) 0.2025(3) 0.51875(9)
C10 C 0.55122(17) 0.2834(3) 0.56227(10)
H11 H 0.5030 0.3558 0.5624
C11 C 0.60673(19) 0.2563(3) 0.60528(10)
C12 C 0.6761(2) 0.1429(3) 0.60559(10)
H12 H 0.7122 0.1242 0.6349
C13 C 0.69205(19) 0.0585(3) 0.56350(11)
H13 H 0.7376 -0.0174 0.5642
C14 C 0.63826(18) 0.0899(3) 0.51982(10)
C15 C 0.6605(2) 0.3883(3) 0.67601(11)
H14 H 0.7244 0.3539 0.6692
C16 C 0.6471(2) 0.4883(3) 0.71814(10)
C17 C 0.7279(2) 0.5339(3) 0.74665(11)
H15 H 0.7907 0.4947 0.7404
C18 C 0.7171(2) 0.6370(4) 0.78447(11)
H16 H 0.7724 0.6675 0.8029
C19 C 0.6242(2) 0.6938(3) 0.79452(10)
C20 C 0.5425(2) 0.6490(3) 0.76697(11)
H17 H 0.4795 0.6866 0.7739
C21 C 0.5548(2) 0.5481(3) 0.72916(11)
H18 H 0.4994 0.5192 0.7105
loop_
_geom_bond_atom_site_label_1
_geom_bond_atom_site_label_2
_geom_bond_site_symmetry_1
_geom_bond_site_symmetry_2
O1 H1 1_555 1_555
N1 C2 1_555 1_555
N2 C11 1_555 1_555
C1 H2 1_555 1_555
H3 C1 1_555 1_555
H4 C1 1_555 1_555
C2 C1 1_555 1_555
H5 C2 1_555 1_555
H6 C2 1_555 1_555
C3 N1 1_555 1_555
C4 C3 1_555 1_555
H7 C4 1_555 1_555
C5 C4 1_555 1_555
H8 C5 1_555 1_555
C6 C5 1_555 1_555
H9 C6 1_555 1_555
C7 C6 1_555 1_555
H10 C7 1_555 1_555
C8 C3 1_555 1_555
C9 C8 1_555 1_555
C10 C9 1_555 1_555
H11 C10 1_555 1_555
C11 C10 1_555 1_555
C12 C11 1_555 1_555
H12 C12 1_555 1_555
C13 C12 1_555 1_555
H13 C13 1_555 1_555
C14 N1 1_555 1_555
C15 N2 1_555 1_555
H14 C15 1_555 1_555
C16 C15 1_555 1_555
C17 C16 1_555 1_555
H15 C17 1_555 1_555
C18 C17 1_555 1_555
H16 C18 1_555 1_555
C19 O1 1_555 1_555
C20 C19 1_555 1_555
H17 C20 1_555 1_555
C21 C16 1_555 1_555
H18 C21 1_555 1_555
C7 C8 1_555 1_555
C9 C14 1_555 1_555
C13 C14 1_555 1_555
C18 C19 1_555 1_555
C20 C21 1_555 1_555

#END
