
#######################################################################
#
#                 Cambridge Crystallographic Data Centre
#                                CCDC 
#
#######################################################################
#
# If this CIF has been generated from an entry in the Cambridge 
# Structural Database, then it will include bibliographic, chemical, 
# crystal, experimental, refinement or atomic coordinate data resulting 
# from the CCDC's data processing and validation procedures.
#
#######################################################################

data_WADLIY
_chemical_formula_moiety         'C18 H12 O5'
_chemical_name_systematic        
'4-(9,10-Dioxo-9,10-dihydroanthracen-1-yl)-4-oxobutanoic acid'
_symmetry_cell_setting           monoclinic
_symmetry_space_group_name_H-M   'P 21/n'
_symmetry_Int_Tables_number      14
_space_group_name_Hall           '-P 2yn'
loop_
_symmetry_equiv_pos_site_id
_symmetry_equiv_pos_as_xyz
1 x,y,z
2 1/2-x,1/2+y,1/2-z
3 -x,-y,-z
4 1/2+x,1/2-y,1/2+z
_cell_length_a                   5.1680(10)
_cell_length_b                   19.523(4)
_cell_length_c                   14.367(3)
_cell_angle_alpha                90
_cell_angle_beta                 99.58(3)
_cell_angle_gamma                90
_cell_volume                     1429.34
_exptl_crystal_colour            colorless
_exptl_crystal_description       needle
_cell_formula_units_Z            4
loop_
_atom_site_label
_atom_site_type_symbol
_atom_site_fract_x
_atom_site_fract_y
_atom_site_fract_z
O1 O 0.6562(8) 0.45510(18) 0.4314(3)
O2 O 0.2523(6) 0.26823(17) 0.6393(2)
O3 O -0.2936(7) 0.21707(19) 0.5131(3)
O4 O -0.2825(7) 0.04974(17) 0.4635(3)
O5 O -0.3291(8) 0.0347(2) 0.6115(3)
H1 H -0.4460 0.0090 0.5866
C1 C -0.0859(11) 0.2918(3) 0.3566(4)
H2 H -0.2305 0.2662 0.3293
C2 C 0.0084(12) 0.3422(3) 0.3052(4)
H3 H -0.0687 0.3499 0.2429
C3 C 0.2165(11) 0.3814(3) 0.3457(4)
H4 H 0.2776 0.4161 0.3107
C4 C 0.3375(10) 0.3703(2) 0.4378(4)
C5 C 0.5697(10) 0.4127(3) 0.4790(4)
C6 C 0.6852(10) 0.4001(2) 0.5783(3)
C7 C 0.9026(11) 0.4383(3) 0.6188(4)
H5 H 0.9726 0.4712 0.5832
C8 C 1.0149(11) 0.4274(3) 0.7122(4)
H6 H 1.1575 0.4537 0.7397
C9 C 0.9160(11) 0.3780(3) 0.7640(4)
H7 H 0.9928 0.3702 0.8264
C10 C 0.7023(10) 0.3397(3) 0.7236(4)
H8 H 0.6372 0.3060 0.7593
C11 C 0.5839(9) 0.3501(2) 0.6323(4)
C12 C 0.3528(10) 0.3090(2) 0.5912(4)
C13 C 0.2415(9) 0.3191(2) 0.4900(3)
C14 C 0.0322(9) 0.2783(2) 0.4497(3)
C15 C -0.0699(10) 0.2173(3) 0.4968(4)
C16 C 0.0972(9) 0.1546(2) 0.5123(4)
H9 H 0.2779 0.1679 0.5340
H10 H 0.0898 0.1305 0.4529
C17 C 0.0093(10) 0.1069(2) 0.5841(4)
H11 H 0.1567 0.0784 0.6109
H12 H -0.0394 0.1343 0.6348
C18 C -0.2128(10) 0.0622(2) 0.5464(4)
loop_
_geom_bond_atom_site_label_1
_geom_bond_atom_site_label_2
_geom_bond_site_symmetry_1
_geom_bond_site_symmetry_2
O1 C5 1_555 1_555
O2 C12 1_555 1_555
O3 C15 1_555 1_555
O4 C18 1_555 1_555
O5 H1 1_555 1_555
C1 H2 1_555 1_555
C2 C1 1_555 1_555
H3 C2 1_555 1_555
C3 C2 1_555 1_555
H4 C3 1_555 1_555
C4 C3 1_555 1_555
C5 C4 1_555 1_555
C6 C5 1_555 1_555
C7 C6 1_555 1_555
H5 C7 1_555 1_555
C8 C7 1_555 1_555
H6 C8 1_555 1_555
C9 C8 1_555 1_555
H7 C9 1_555 1_555
C10 C9 1_555 1_555
H8 C10 1_555 1_555
C11 C6 1_555 1_555
C12 C11 1_555 1_555
C13 C4 1_555 1_555
C14 C1 1_555 1_555
C15 C14 1_555 1_555
C16 C15 1_555 1_555
H9 C16 1_555 1_555
H10 C16 1_555 1_555
C17 C16 1_555 1_555
H11 C17 1_555 1_555
H12 C17 1_555 1_555
C18 O5 1_555 1_555
C10 C11 1_555 1_555
C12 C13 1_555 1_555
C13 C14 1_555 1_555
C17 C18 1_555 1_555

#END
