
#######################################################################
#
#                 Cambridge Crystallographic Data Centre
#                                CCDC 
#
#######################################################################
#
# If this CIF has been generated from an entry in the Cambridge 
# Structural Database, then it will include bibliographic, chemical, 
# crystal, experimental, refinement or atomic coordinate data resulting 
# from the CCDC's data processing and validation procedures.
#
#######################################################################

data_WADMOF
_chemical_formula_moiety         'C17 H20 N2'
_chemical_name_systematic        (9H-Carbazol-9-ylmethyl)diethylamine
_symmetry_cell_setting           monoclinic
_symmetry_space_group_name_H-M   'P 21/c'
_symmetry_Int_Tables_number      14
_space_group_name_Hall           '-P 2ybc'
loop_
_symmetry_equiv_pos_site_id
_symmetry_equiv_pos_as_xyz
1 x,y,z
2 -x,1/2+y,1/2-z
3 -x,-y,-z
4 x,1/2-y,1/2+z
_cell_length_a                   24.338(2)
_cell_length_b                   6.3216(11)
_cell_length_c                   19.133(2)
_cell_angle_alpha                90
_cell_angle_beta                 104.109(2)
_cell_angle_gamma                90
_cell_volume                     2854.91
_exptl_crystal_colour            colorless
_exptl_crystal_description       block
_cell_formula_units_Z            8
_exptl_crystal_recrystallization_method ethanol
loop_
_atom_site_label
_atom_site_type_symbol
_atom_site_fract_x
_atom_site_fract_y
_atom_site_fract_z
C1 C 0.36426(8) 0.9208(3) 0.17614(10)
C2 C 0.31632(9) 0.8391(4) 0.19419(11)
H1 H 0.3006 0.7112 0.1752
C3 C 0.29289(10) 0.9544(4) 0.24125(11)
H2 H 0.2610 0.9027 0.2543
C4 C 0.31618(11) 1.1462(4) 0.26928(12)
H3 H 0.2990 1.2226 0.2996
C5 C 0.36412(10) 1.2249(3) 0.25303(10)
H4 H 0.3799 1.3513 0.2733
C6 C 0.38897(8) 1.1136(3) 0.20581(10)
C7 C 0.43876(9) 1.1426(3) 0.17880(10)
C8 C 0.48144(10) 1.2920(3) 0.19114(11)
H5 H 0.4804 1.4063 0.2214
C9 C 0.52563(9) 1.2705(3) 0.15822(12)
H6 H 0.5547 1.3698 0.1671
C10 C 0.52730(9) 1.1005(3) 0.11143(12)
H7 H 0.5570 1.0900 0.0889
C11 C 0.48519(9) 0.9490(3) 0.09856(10)
H8 H 0.4860 0.8360 0.0677
C12 C 0.44188(8) 0.9704(3) 0.13283(10)
C13 C 0.38250(9) 0.6526(3) 0.08628(10)
H9 H 0.3519 0.5759 0.0993
H10 H 0.4153 0.5601 0.0946
C14 C 0.31317(9) 0.8340(3) -0.00586(11)
H11 H 0.3163 0.9432 0.0305
H12 H 0.2817 0.7431 -0.0028
C15 C 0.30047(10) 0.9368(3) -0.07941(11)
H13 H 0.3329 1.0161 -0.0846
H14 H 0.2686 1.0299 -0.0844
H15 H 0.2919 0.8295 -0.1160
C16 C 0.35944(9) 0.5149(3) -0.03411(11)
H16 H 0.3432 0.5523 -0.0841
H17 H 0.3331 0.4205 -0.0190
C17 C 0.41427(9) 0.3987(3) -0.02917(12)
H18 H 0.4436 0.4985 -0.0311
H19 H 0.4098 0.3016 -0.0687
H20 H 0.4244 0.3220 0.0154
N1 N 0.39612(7) 0.8375(2) 0.13156(8)
N2 N 0.36559(6) 0.7080(2) 0.00993(8)
C18 C 0.04584(8) 0.0516(3) 0.15594(10)
C19 C 0.00476(9) 0.0810(4) 0.09248(11)
H21 H 0.0056 0.1976 0.0631
C20 C -0.03736(9) -0.0685(4) 0.07439(12)
H22 H -0.0650 -0.0531 0.0315
C21 C -0.04000(9) -0.2432(4) 0.11849(12)
H23 H -0.0696 -0.3397 0.1053
C22 C 0.00128(8) -0.2722(3) 0.18142(11)
H24 H -0.0001 -0.3881 0.2109
C23 C 0.04508(8) -0.1255(3) 0.20027(10)
C24 C 0.09355(8) -0.1064(3) 0.26133(10)
C25 C 0.11486(9) -0.2287(4) 0.32240(11)
H25 H 0.0971 -0.3544 0.3295
C26 C 0.16223(9) -0.1619(4) 0.37195(11)
H26 H 0.1768 -0.2443 0.4125
C27 C 0.18903(9) 0.0279(4) 0.36267(11)
H27 H 0.2209 0.0708 0.3973
C28 C 0.16878(9) 0.1523(3) 0.30273(11)
H28 H 0.1865 0.2791 0.2968
C29 C 0.12153(8) 0.0847(3) 0.25158(10)
C30 C 0.10458(9) 0.3792(3) 0.15881(11)
H29 H 0.1289 0.4608 0.1971
H30 H 0.0694 0.4569 0.1422
C31 C 0.12229(10) 0.5486(4) 0.05375(12)
H31 H 0.0819 0.5757 0.0397
H32 H 0.1345 0.5186 0.0101
C32 C 0.15171(11) 0.7484(3) 0.08706(14)
H33 H 0.1410 0.7785 0.1311
H34 H 0.1408 0.8643 0.0542
H35 H 0.1920 0.7292 0.0970
C33 C 0.19210(9) 0.3007(3) 0.12612(12)
H36 H 0.1946 0.1725 0.1546
H37 H 0.2113 0.4122 0.1576
C34 C 0.22266(11) 0.2653(4) 0.06688(14)
H38 H 0.2016 0.1667 0.0324
H39 H 0.2598 0.2094 0.0874
H40 H 0.2259 0.3972 0.0434
N3 N 0.09245(7) 0.1786(2) 0.18752(8)
N4 N 0.13199(7) 0.3584(2) 0.09955(9)
loop_
_geom_bond_atom_site_label_1
_geom_bond_atom_site_label_2
_geom_bond_site_symmetry_1
_geom_bond_site_symmetry_2
C1 C2 1_555 1_555
C2 H1 1_555 1_555
C3 C2 1_555 1_555
H2 C3 1_555 1_555
C4 C3 1_555 1_555
H3 C4 1_555 1_555
C5 C4 1_555 1_555
H4 C5 1_555 1_555
C6 C1 1_555 1_555
C7 C6 1_555 1_555
C8 C7 1_555 1_555
H5 C8 1_555 1_555
C9 C8 1_555 1_555
H6 C9 1_555 1_555
C10 C9 1_555 1_555
H7 C10 1_555 1_555
C11 C10 1_555 1_555
H8 C11 1_555 1_555
C12 C7 1_555 1_555
C13 H9 1_555 1_555
H10 C13 1_555 1_555
C14 H11 1_555 1_555
H12 C14 1_555 1_555
C15 C14 1_555 1_555
H13 C15 1_555 1_555
H14 C15 1_555 1_555
H15 C15 1_555 1_555
C16 H16 1_555 1_555
H17 C16 1_555 1_555
C17 C16 1_555 1_555
H18 C17 1_555 1_555
H19 C17 1_555 1_555
H20 C17 1_555 1_555
C18 C19 1_555 1_555
C19 H21 1_555 1_555
C20 C19 1_555 1_555
H22 C20 1_555 1_555
C21 C20 1_555 1_555
H23 C21 1_555 1_555
C22 C21 1_555 1_555
H24 C22 1_555 1_555
C23 C18 1_555 1_555
C24 C23 1_555 1_555
C25 C24 1_555 1_555
H25 C25 1_555 1_555
C26 C25 1_555 1_555
H26 C26 1_555 1_555
C27 C26 1_555 1_555
H27 C27 1_555 1_555
C28 C27 1_555 1_555
H28 C28 1_555 1_555
C29 C24 1_555 1_555
C30 H29 1_555 1_555
H30 C30 1_555 1_555
C31 H31 1_555 1_555
H32 C31 1_555 1_555
C32 C31 1_555 1_555
H33 C32 1_555 1_555
H34 C32 1_555 1_555
H35 C32 1_555 1_555
C33 H36 1_555 1_555
H37 C33 1_555 1_555
C34 C33 1_555 1_555
H38 C34 1_555 1_555
H39 C34 1_555 1_555
H40 C34 1_555 1_555
N1 C1 1_555 1_555
N2 C13 1_555 1_555
N3 C18 1_555 1_555
N4 C30 1_555 1_555
C5 C6 1_555 1_555
C11 C12 1_555 1_555
C12 N1 1_555 1_555
C13 N1 1_555 1_555
C14 N2 1_555 1_555
C16 N2 1_555 1_555
C22 C23 1_555 1_555
C28 C29 1_555 1_555
C29 N3 1_555 1_555
C30 N3 1_555 1_555
C31 N4 1_555 1_555
C33 N4 1_555 1_555

#END
