
#######################################################################
#
#                 Cambridge Crystallographic Data Centre
#                                CCDC 
#
#######################################################################
#
# If this CIF has been generated from an entry in the Cambridge 
# Structural Database, then it will include bibliographic, chemical, 
# crystal, experimental, refinement or atomic coordinate data resulting 
# from the CCDC's data processing and validation procedures.
#
#######################################################################

data_WADQAU
_chemical_formula_moiety         'C47 H78 O18'
_chemical_name_systematic        
2,2',3,3',4,6,6'-Hepta-O-pivaloyl-\a,\a'-trehalose
_symmetry_cell_setting           monoclinic
_symmetry_space_group_name_H-M   'P 21'
_symmetry_Int_Tables_number      4
_space_group_name_Hall           'P 2yb'
loop_
_symmetry_equiv_pos_site_id
_symmetry_equiv_pos_as_xyz
1 x,y,z
2 -x,1/2+y,-z
_cell_length_a                   14.1855(3)
_cell_length_b                   10.6390(2)
_cell_length_c                   18.3343(4)
_cell_angle_alpha                90
_cell_angle_beta                 102.5721(9)
_cell_angle_gamma                90
_cell_volume                     2700.66
_exptl_crystal_colour            colorless
_exptl_crystal_description       lozenge
_chemical_melting_point          '453-455 K'
_cell_formula_units_Z            2
_exptl_crystal_recrystallization_method '95% ethanol'
loop_
_atom_site_label
_atom_site_type_symbol
_atom_site_fract_x
_atom_site_fract_y
_atom_site_fract_z
O1 O 0.7142(2) 0.7414(3) 0.14034(16)
O2 O 0.5326(2) 0.7820(3) 0.16472(18)
O3 O 0.3935(3) 0.6784(5) 0.1442(4)
O4 O 0.5614(2) 0.7130(3) 0.31776(17)
O5 O 0.7140(2) 0.5342(3) 0.18155(19)
O6 O 0.6377(4) 0.8739(6) 0.3812(3)
O7 O 0.7669(2) 0.6335(4) 0.37633(18)
O8 O 0.6878(4) 0.5175(7) 0.4445(3)
O9 O 0.7859(2) 0.3501(3) 0.2919(2)
O10 O 0.9239(3) 0.2564(5) 0.3388(3)
O11 O 0.9069(2) 0.8168(3) 0.16592(17)
O12 O 0.9823(4) 0.6473(5) 0.1352(2)
O13 O 0.8905(2) 1.0310(4) 0.07390(18)
O14 O 0.7029(2) 0.7376(3) 0.01133(17)
O15 O 0.8608(3) 1.1599(5) 0.1630(3)
O16 O 0.6945(4) 1.0835(5) 0.0010(3)
H1 H 0.6713 1.1024 -0.0438
O17 O 0.6317(2) 0.8403(4) -0.13204(18)
O18 O 0.4893(3) 0.8760(4) -0.2097(2)
C1 C 0.6569(3) 0.6347(5) 0.1484(2)
H2 H 0.6198 0.6082 0.0979
C2 C 0.5860(3) 0.6720(4) 0.1963(2)
H3 H 0.5396 0.6013 0.1964
C3 C 0.6365(3) 0.7003(4) 0.2757(2)
H4 H 0.6738 0.7804 0.2778
C4 C 0.7035(3) 0.5931(4) 0.3073(2)
H5 H 0.6661 0.5166 0.3154
C5 C 0.7711(3) 0.5646(4) 0.2541(3)
H6 H 0.8095 0.6420 0.2496
C6 C 0.4370(4) 0.7738(5) 0.1400(3)
C7 C 0.3908(4) 0.8953(6) 0.1077(4)
C8 C 0.2936(5) 0.9037(9) 0.1286(4)
H7 H 0.3028 0.9066 0.1831
H8 H 0.2547 0.8299 0.1093
H9 H 0.2601 0.9800 0.1069
C9 C 0.3736(5) 0.8889(7) 0.0222(4)
H10 H 0.3335 0.8155 0.0040
H11 H 0.4357 0.8817 0.0074
H12 H 0.3405 0.9655 0.0005
C10 C 0.4530(5) 1.0103(7) 0.1353(6)
H13 H 0.4645 1.0149 0.1899
H14 H 0.4194 1.0865 0.1135
H15 H 0.5149 1.0033 0.1201
C11 C 0.5675(4) 0.8081(5) 0.3659(3)
C12 C 0.4819(4) 0.8150(5) 0.4036(3)
C13 C 0.4973(7) 0.9324(8) 0.4537(5)
H16 H 0.4435 0.9408 0.4791
H17 H 0.5001 1.0071 0.4230
H18 H 0.5580 0.9242 0.4910
C14 C 0.4815(8) 0.6963(8) 0.4482(6)
H19 H 0.4707 0.6239 0.4143
H20 H 0.4296 0.7005 0.4758
H21 H 0.5437 0.6870 0.4835
C15 C 0.3910(5) 0.8252(12) 0.3461(5)
H22 H 0.3820 0.7490 0.3154
H23 H 0.3945 0.8985 0.3144
H24 H 0.3365 0.8350 0.3706
C16 C 0.7530(4) 0.5863(6) 0.4416(3)
C17 C 0.8293(4) 0.6325(7) 0.5069(3)
C21 C 0.8185(13) 0.5609(16) 0.5761(8)
H34 H 0.8800 0.5620 0.6129
H35 H 0.8001 0.4738 0.5626
H36 H 0.7684 0.6007 0.5976
C22 C 0.9275(10) 0.616(2) 0.4902(11)
H37 H 0.9652 0.5567 0.5261
H38 H 0.9607 0.6972 0.4942
H39 H 0.9208 0.5828 0.4394
C23 C 0.8075(15) 0.7709(12) 0.5160(12)
H40 H 0.7461 0.7791 0.5317
H41 H 0.8031 0.8143 0.4682
H42 H 0.8594 0.8085 0.5538
C24 C 0.8395(4) 0.4592(5) 0.2792(4)
H43 H 0.8766 0.4408 0.2406
H44 H 0.8856 0.4828 0.3259
C25 C 0.8379(4) 0.2530(6) 0.3212(4)
C26 C 0.7740(5) 0.1426(7) 0.3333(4)
C27 C 0.8306(5) 0.0256(7) 0.3374(5)
H45 H 0.8876 0.0317 0.3785
H46 H 0.8512 0.0131 0.2902
H47 H 0.7907 -0.0456 0.3462
C28 C 0.6838(5) 0.1330(7) 0.2686(4)
H48 H 0.6434 0.0627 0.2781
H49 H 0.7040 0.1189 0.2215
H50 H 0.6468 0.2113 0.2654
C29 C 0.7512(7) 0.1682(7) 0.4059(4)
H51 H 0.8112 0.1722 0.4444
H52 H 0.7102 0.1008 0.4182
H53 H 0.7171 0.2486 0.4039
C30 C 0.7650(3) 0.7228(5) 0.0822(2)
H54 H 0.7928 0.6361 0.0863
C31 C 0.8466(3) 0.8183(5) 0.0922(2)
H55 H 0.8875 0.7984 0.0556
C32 C 0.8093(4) 0.9511(5) 0.0782(3)
H56 H 0.7787 0.9795 0.1196
C33 C 0.7380(4) 0.9595(5) 0.0046(3)
H57 H 0.7714 0.9476 -0.0377
C34 C 0.6590(3) 0.8600(5) 0.0014(3)
H58 H 0.6261 0.8757 0.0435
C35 C 0.9788(4) 0.7328(6) 0.1782(3)
C36 C 1.0517(4) 0.7576(6) 0.2509(3)
C37 C 1.0040(5) 0.7559(8) 0.3157(3)
H59 H 0.9764 0.6725 0.3199
H60 H 0.9524 0.8190 0.3081
H61 H 1.0517 0.7751 0.3616
C38 C 1.1320(7) 0.6618(11) 0.2596(5)
H62 H 1.1055 0.5775 0.2628
H63 H 1.1806 0.6796 0.3052
H64 H 1.1621 0.6663 0.2163
C39 C 1.0956(5) 0.8912(8) 0.2470(4)
H65 H 1.1436 0.9077 0.2931
H66 H 1.0441 0.9542 0.2411
H67 H 1.1266 0.8956 0.2042
C40 C 0.9055(4) 1.1359(6) 0.1166(3)
C41 C 0.9833(4) 1.2188(5) 0.0972(3)
C42 C 1.0242(8) 1.3007(12) 0.1634(7)
H68 H 1.0544 1.2479 0.2058
H69 H 0.9722 1.3503 0.1767
H70 H 1.0727 1.3574 0.1507
C43 C 1.0635(4) 1.1436(6) 0.0766(3)
H71 H 1.0370 1.0898 0.0336
H72 H 1.0944 1.0913 0.1191
H73 H 1.1114 1.2009 0.0636
C44 C 0.9351(6) 1.2964(10) 0.0313(7)
H74 H 0.9087 1.2410 -0.0108
H75 H 0.9824 1.3535 0.0174
H76 H 0.8827 1.3455 0.0444
C45 C 0.5841(4) 0.8600(6) -0.0703(3)
H77 H 0.5366 0.7922 -0.0693
H78 H 0.5494 0.9414 -0.0764
C46 C 0.5747(3) 0.8519(5) -0.2007(3)
C47 C 0.6279(4) 0.8337(6) -0.2627(3)
C48 C 0.5545(7) 0.8239(16) -0.3362(4)
H79 H 0.5170 0.9019 -0.3452
H80 H 0.5110 0.7531 -0.3340
H81 H 0.5881 0.8103 -0.3769
C49 C 0.6864(9) 0.7126(11) -0.2500(5)
H82 H 0.6426 0.6409 -0.2520
H83 H 0.7306 0.7156 -0.2008
H84 H 0.7236 0.7036 -0.2888
C50 C 0.6943(12) 0.9452(13) -0.2626(8)
H85 H 0.6561 1.0227 -0.2698
H86 H 0.7287 0.9360 -0.3033
H87 H 0.7411 0.9490 -0.2147
C18? C 0.7842(13) 0.632(2) 0.5737(8)
H25? H 0.7149 0.6484 0.5578
H26? H 0.8144 0.6966 0.6091
H27? H 0.7940 0.5491 0.5980
C19? C 0.9028(13) 0.5285(17) 0.5077(12)
H28? H 0.9257 0.4982 0.5590
H29? H 0.9574 0.5611 0.4887
H30? H 0.8725 0.4590 0.4760
C20? C 0.8723(16) 0.7568(14) 0.4923(13)
H31? H 0.9428 0.7492 0.5019
H32? H 0.8548 0.8209 0.5254
H33? H 0.8474 0.7813 0.4401
loop_
_geom_bond_atom_site_label_1
_geom_bond_atom_site_label_2
_geom_bond_site_symmetry_1
_geom_bond_site_symmetry_2
O1 C1 1_555 1_555
O2 C2 1_555 1_555
O3 C6 1_555 1_555
O4 C3 1_555 1_555
O5 C1 1_555 1_555
O6 C11 1_555 1_555
O7 C4 1_555 1_555
O8 C16 1_555 1_555
O9 C24 1_555 1_555
O10 C25 1_555 1_555
O11 C31 1_555 1_555
O12 C35 1_555 1_555
O13 C32 1_555 1_555
O14 C30 1_555 1_555
O15 C40 1_555 1_555
O16 H1 1_555 1_555
O17 C45 1_555 1_555
O18 C46 1_555 1_555
C1 H2 1_555 1_555
C2 C1 1_555 1_555
H3 C2 1_555 1_555
C3 C2 1_555 1_555
H4 C3 1_555 1_555
C4 C3 1_555 1_555
H5 C4 1_555 1_555
C5 O5 1_555 1_555
H6 C5 1_555 1_555
C6 O2 1_555 1_555
C7 C6 1_555 1_555
C8 C7 1_555 1_555
H7 C8 1_555 1_555
H8 C8 1_555 1_555
H9 C8 1_555 1_555
C9 C7 1_555 1_555
H10 C9 1_555 1_555
H11 C9 1_555 1_555
H12 C9 1_555 1_555
C10 C7 1_555 1_555
H13 C10 1_555 1_555
H14 C10 1_555 1_555
H15 C10 1_555 1_555
C11 O4 1_555 1_555
C12 C11 1_555 1_555
C13 C12 1_555 1_555
H16 C13 1_555 1_555
H17 C13 1_555 1_555
H18 C13 1_555 1_555
C14 C12 1_555 1_555
H19 C14 1_555 1_555
H20 C14 1_555 1_555
H21 C14 1_555 1_555
C15 C12 1_555 1_555
H22 C15 1_555 1_555
H23 C15 1_555 1_555
H24 C15 1_555 1_555
C16 O7 1_555 1_555
C17 C16 1_555 1_555
C21 C17 1_555 1_555
H34 C21 1_555 1_555
H35 C21 1_555 1_555
H36 C21 1_555 1_555
C22 C17 1_555 1_555
H37 C22 1_555 1_555
H38 C22 1_555 1_555
H39 C22 1_555 1_555
C23 C17 1_555 1_555
H40 C23 1_555 1_555
H41 C23 1_555 1_555
H42 C23 1_555 1_555
C24 C5 1_555 1_555
H43 C24 1_555 1_555
H44 C24 1_555 1_555
C25 O9 1_555 1_555
C26 C25 1_555 1_555
C27 C26 1_555 1_555
H45 C27 1_555 1_555
H46 C27 1_555 1_555
H47 C27 1_555 1_555
C28 C26 1_555 1_555
H48 C28 1_555 1_555
H49 C28 1_555 1_555
H50 C28 1_555 1_555
C29 C26 1_555 1_555
H51 C29 1_555 1_555
H52 C29 1_555 1_555
H53 C29 1_555 1_555
C30 O1 1_555 1_555
H54 C30 1_555 1_555
C31 C30 1_555 1_555
H55 C31 1_555 1_555
C32 C31 1_555 1_555
H56 C32 1_555 1_555
C33 O16 1_555 1_555
H57 C33 1_555 1_555
C34 O14 1_555 1_555
H58 C34 1_555 1_555
C35 O11 1_555 1_555
C36 C35 1_555 1_555
C37 C36 1_555 1_555
H59 C37 1_555 1_555
H60 C37 1_555 1_555
H61 C37 1_555 1_555
C38 C36 1_555 1_555
H62 C38 1_555 1_555
H63 C38 1_555 1_555
H64 C38 1_555 1_555
C39 C36 1_555 1_555
H65 C39 1_555 1_555
H66 C39 1_555 1_555
H67 C39 1_555 1_555
C40 O13 1_555 1_555
C41 C40 1_555 1_555
C42 C41 1_555 1_555
H68 C42 1_555 1_555
H69 C42 1_555 1_555
H70 C42 1_555 1_555
C43 C41 1_555 1_555
H71 C43 1_555 1_555
H72 C43 1_555 1_555
H73 C43 1_555 1_555
C44 C41 1_555 1_555
H74 C44 1_555 1_555
H75 C44 1_555 1_555
H76 C44 1_555 1_555
C45 C34 1_555 1_555
H77 C45 1_555 1_555
H78 C45 1_555 1_555
C46 O17 1_555 1_555
C47 C46 1_555 1_555
C48 C47 1_555 1_555
H79 C48 1_555 1_555
H80 C48 1_555 1_555
H81 C48 1_555 1_555
C49 C47 1_555 1_555
H82 C49 1_555 1_555
H83 C49 1_555 1_555
H84 C49 1_555 1_555
C50 C47 1_555 1_555
H85 C50 1_555 1_555
H86 C50 1_555 1_555
H87 C50 1_555 1_555
C4 C5 1_555 1_555
C32 C33 1_555 1_555
C33 C34 1_555 1_555

#END
