
#######################################################################
#
#                 Cambridge Crystallographic Data Centre
#                                CCDC 
#
#######################################################################
#
# If this CIF has been generated from an entry in the Cambridge 
# Structural Database, then it will include bibliographic, chemical, 
# crystal, experimental, refinement or atomic coordinate data resulting 
# from the CCDC's data processing and validation procedures.
#
#######################################################################

data_WADTUS
_chemical_name_common            
4,4'-Dibromo-7,7'-dimethoxy-1,1'-spirobiindane
_chemical_formula_moiety         'C19 H18 Br2 O2'
_chemical_name_systematic        
4,4'-Dibromo-7,7'-dimethoxy-2,2',3,3'-tetrahydro-1,1'-spirobi[indene]
_symmetry_cell_setting           triclinic
_symmetry_space_group_name_H-M   'P -1'
_symmetry_Int_Tables_number      2
_space_group_name_Hall           '-P 1'
loop_
_symmetry_equiv_pos_site_id
_symmetry_equiv_pos_as_xyz
1 x,y,z
2 -x,-y,-z
_cell_length_a                   8.3487(3)
_cell_length_b                   10.4831(3)
_cell_length_c                   11.6293(4)
_cell_angle_alpha                112.047(2)
_cell_angle_beta                 105.559(2)
_cell_angle_gamma                94.280(2)
_cell_volume                     891.114
_exptl_crystal_colour            orange
_exptl_crystal_description       block
_cell_formula_units_Z            2
_exptl_crystal_recrystallization_method hexane
loop_
_atom_site_label
_atom_site_type_symbol
_atom_site_fract_x
_atom_site_fract_y
_atom_site_fract_z
Br1 Br 1.10416(5) -0.01254(4) 0.77083(5)
Br2 Br 0.47345(5) 0.80256(3) 0.72566(4)
O1 O 0.5993(3) 0.3495(2) 0.9166(2)
O2 O 0.4765(2) 0.18707(19) 0.5868(2)
C1 C 0.9460(4) 0.1024(3) 0.8190(3)
C2 C 0.8577(4) 0.0773(3) 0.8944(3)
H1 H 0.8767 0.0061 0.9227
C3 C 0.7404(4) 0.1577(3) 0.9285(3)
H2 H 0.6811 0.1406 0.9802
C4 C 0.7105(4) 0.2636(3) 0.8863(3)
C5 C 0.7982(3) 0.2868(3) 0.8074(3)
C6 C 0.9173(3) 0.2067(3) 0.7741(3)
C7 C 0.9965(4) 0.2507(4) 0.6906(4)
H3 H 1.0008 0.1700 0.6160
H4 H 1.1103 0.3053 0.7403
C8 C 0.8773(4) 0.3406(4) 0.6466(3)
H5 H 0.7945 0.2843 0.5614
H6 H 0.9414 0.4179 0.6410
C9 C 0.7877(3) 0.3968(3) 0.7517(3)
C10 C 0.8785(4) 0.5453(3) 0.8581(3)
H7 H 0.8676 0.5560 0.9420
H8 H 0.9981 0.5610 0.8671
C11 C 0.7909(4) 0.6495(3) 0.8117(3)
H9 H 0.7849 0.7308 0.8851
H10 H 0.8498 0.6804 0.7625
C12 C 0.6173(4) 0.5641(3) 0.7261(3)
C13 C 0.4707(4) 0.6077(3) 0.6789(3)
C14 C 0.3237(4) 0.5120(3) 0.6013(3)
H11 H 0.2257 0.5423 0.5707
C15 C 0.3202(4) 0.3699(3) 0.5681(3)
H12 H 0.2200 0.3052 0.5150
C16 C 0.4663(3) 0.3244(3) 0.6142(3)
C17 C 0.6141(3) 0.4225(3) 0.6941(2)
C18 C 0.5014(7) 0.3249(5) 0.9914(6)
H13 H 0.4297 0.3928 1.0065
H14 H 0.5755 0.3330 1.0738
H15 H 0.4326 0.2322 0.9444
C19 C 0.3276(4) 0.0840(3) 0.5120(4)
H16 H 0.3532 -0.0069 0.5001
H17 H 0.2833 0.0871 0.4281
H18 H 0.2449 0.1017 0.5568
loop_
_geom_bond_atom_site_label_1
_geom_bond_atom_site_label_2
_geom_bond_site_symmetry_1
_geom_bond_site_symmetry_2
Br1 C1 1_555 1_555
Br2 C13 1_555 1_555
O1 C4 1_555 1_555
O2 C16 1_555 1_555
C1 C2 1_555 1_555
C2 H1 1_555 1_555
C3 C2 1_555 1_555
H2 C3 1_555 1_555
C4 C3 1_555 1_555
C5 C4 1_555 1_555
C6 C1 1_555 1_555
C7 C6 1_555 1_555
H3 C7 1_555 1_555
H4 C7 1_555 1_555
C8 C7 1_555 1_555
H5 C8 1_555 1_555
H6 C8 1_555 1_555
C9 C5 1_555 1_555
C10 C9 1_555 1_555
H7 C10 1_555 1_555
H8 C10 1_555 1_555
C11 C10 1_555 1_555
H9 C11 1_555 1_555
H10 C11 1_555 1_555
C12 C11 1_555 1_555
C13 C12 1_555 1_555
C14 C13 1_555 1_555
H11 C14 1_555 1_555
C15 C14 1_555 1_555
H12 C15 1_555 1_555
C16 C15 1_555 1_555
C17 C9 1_555 1_555
C18 O1 1_555 1_555
H13 C18 1_555 1_555
H14 C18 1_555 1_555
H15 C18 1_555 1_555
C19 O2 1_555 1_555
H16 C19 1_555 1_555
H17 C19 1_555 1_555
H18 C19 1_555 1_555
C5 C6 1_555 1_555
C8 C9 1_555 1_555
C12 C17 1_555 1_555
C16 C17 1_555 1_555

#END
