
#######################################################################
#
#                 Cambridge Crystallographic Data Centre
#                                CCDC 
#
#######################################################################
#
# If this CIF has been generated from an entry in the Cambridge 
# Structural Database, then it will include bibliographic, chemical, 
# crystal, experimental, refinement or atomic coordinate data resulting 
# from the CCDC's data processing and validation procedures.
#
#######################################################################

data_WADVII
_chemical_name_common            
6-(3,5-Dichloro-4-methylphenyl)pyridazin-3(2H)-one
_chemical_formula_moiety         'C11 H8 Cl2 N2 O1'
_chemical_name_systematic        Diclomezine
_symmetry_cell_setting           monoclinic
_symmetry_space_group_name_H-M   'P 21/c'
_symmetry_Int_Tables_number      14
_space_group_name_Hall           '-P 2ybc'
loop_
_symmetry_equiv_pos_site_id
_symmetry_equiv_pos_as_xyz
1 x,y,z
2 -x,1/2+y,1/2-z
3 -x,-y,-z
4 x,1/2-y,1/2+z
_cell_length_a                   9.745(4)
_cell_length_b                   13.850(5)
_cell_length_c                   8.481(3)
_cell_angle_alpha                90
_cell_angle_beta                 111.557(6)
_cell_angle_gamma                90
_cell_volume                     1064.6
_exptl_crystal_colour            colorless
_exptl_crystal_description       block
_cell_formula_units_Z            4
_exptl_crystal_recrystallization_method dichloromethane
loop_
_atom_site_label
_atom_site_type_symbol
_atom_site_fract_x
_atom_site_fract_y
_atom_site_fract_z
Cl1 Cl 0.11909(5) 0.35378(4) 0.82090(6)
Cl2 Cl 0.15267(6) 0.72198(3) 0.62638(7)
O1 O 0.52503(15) 0.37232(9) 0.02888(17)
N1 N 0.42007(16) 0.47759(11) 0.15589(18)
H1 H 0.4313 0.5229 0.0888
N2 N 0.35554(16) 0.50487(11) 0.26436(18)
C1 C 0.47026(19) 0.38769(13) 0.1379(2)
C2 C 0.45389(19) 0.31751(13) 0.2541(2)
H2 H 0.4893 0.2536 0.2543
C3 C 0.38829(19) 0.34224(13) 0.3631(2)
H3 H 0.3760 0.2954 0.4387
C4 C 0.33735(18) 0.43848(12) 0.3652(2)
C5 C 0.26737(18) 0.47099(12) 0.4848(2)
C6 C 0.22820(18) 0.40586(13) 0.5865(2)
H4 H 0.2436 0.3386 0.5781
C7 C 0.16682(18) 0.43931(13) 0.6996(2)
C8 C 0.13991(18) 0.53629(13) 0.7192(2)
C9 C 0.17893(19) 0.59892(13) 0.6130(2)
C10 C 0.23982(18) 0.56857(13) 0.4983(2)
H5 H 0.2630 0.6143 0.4284
C11 C 0.0760(2) 0.57125(15) 0.8451(2)
H6 H 0.1557 0.5816 0.9551
H7 H 0.0072 0.5229 0.8573
H8 H 0.0235 0.6321 0.8053
loop_
_geom_bond_atom_site_label_1
_geom_bond_atom_site_label_2
_geom_bond_site_symmetry_1
_geom_bond_site_symmetry_2
Cl1 C7 1_555 1_555
Cl2 C9 1_555 1_555
O1 C1 1_555 1_555
N1 H1 1_555 1_555
N2 N1 1_555 1_555
C1 N1 1_555 1_555
C2 C1 1_555 1_555
H2 C2 1_555 1_555
C3 C2 1_555 1_555
H3 C3 1_555 1_555
C4 N2 1_555 1_555
C5 C4 1_555 1_555
C6 C5 1_555 1_555
H4 C6 1_555 1_555
C7 C6 1_555 1_555
C8 C7 1_555 1_555
C9 C8 1_555 1_555
C10 C5 1_555 1_555
H5 C10 1_555 1_555
C11 C8 1_555 1_555
H6 C11 1_555 1_555
H7 C11 1_555 1_555
H8 C11 1_555 1_555
C3 C4 1_555 1_555
C9 C10 1_555 1_555

#END
