
#######################################################################
#
#                 Cambridge Crystallographic Data Centre
#                                CCDC 
#
#######################################################################
#
# If this CIF has been generated from an entry in the Cambridge 
# Structural Database, then it will include bibliographic, chemical, 
# crystal, experimental, refinement or atomic coordinate data resulting 
# from the CCDC's data processing and validation procedures.
#
#######################################################################

data_WADVUU
_chemical_formula_moiety         'C22 H21 Cl2 N1 O3'
_chemical_name_systematic        
'1-Acetyl-2-r,6-c-bis(4-chlorophenyl)-3-methyl-1,2,5,6-tetrahydropyridin-4-yl acetate'
_symmetry_cell_setting           monoclinic
_symmetry_space_group_name_H-M   'C c'
_symmetry_Int_Tables_number      9
_space_group_name_Hall           'C -2yc'
loop_
_symmetry_equiv_pos_site_id
_symmetry_equiv_pos_as_xyz
1 x,y,z
2 x,-y,1/2+z
3 1/2+x,1/2+y,z
4 1/2+x,1/2-y,1/2+z
_cell_length_a                   16.560(3)
_cell_length_b                   14.809(3)
_cell_length_c                   10.241(2)
_cell_angle_alpha                90
_cell_angle_beta                 124.27(3)
_cell_angle_gamma                90
_cell_volume                     2075.46
_exptl_crystal_colour            colorless
_exptl_crystal_description       block
_chemical_melting_point          '411 K'
_cell_formula_units_Z            4
_exptl_crystal_recrystallization_method ethanol
loop_
_atom_site_label
_atom_site_type_symbol
_atom_site_fract_x
_atom_site_fract_y
_atom_site_fract_z
Cl1 Cl 0.12844(5) 0.18128(4) -0.47636(7)
Cl2 Cl 0.25477(6) -0.00598(5) -0.08332(9)
O1 O 0.03552(10) 0.37134(10) 0.21164(17)
N1 N 0.26481(10) 0.40891(9) 0.16833(17)
C1 C 0.33771(12) 0.46887(12) 0.2128(2)
O2 O 0.32636(10) 0.53254(10) 0.1281(2)
C2 C 0.13277(14) 0.25613(13) -0.3423(2)
C3 C 0.14951(12) 0.36840(12) -0.1132(2)
O3 O -0.01433(13) 0.24011(13) 0.0838(2)
C4 C 0.08085(13) 0.23746(14) -0.2795(2)
H1 H 0.0403 0.1871 -0.3131
C5 C 0.27461(12) 0.33000(11) 0.2627(2)
H2 H 0.3404 0.3321 0.3604
C6 C 0.16844(11) 0.42629(12) 0.0235(2)
H3 H 0.1680 0.4894 -0.0058
C7 C 0.20259(13) 0.33908(12) 0.3092(2)
H4 H 0.1924 0.2803 0.3393
H5 H 0.2301 0.3785 0.4003
C8 C 0.26760(11) 0.24311(10) 0.17759(19)
C9 C 0.08892(12) 0.29388(13) -0.1653(2)
H6 H 0.0531 0.2815 -0.1229
C10 C 0.19096(16) 0.33134(13) -0.2975(3)
H7 H 0.2246 0.3444 -0.3435
C11 C 0.32496(13) 0.23387(13) 0.1197(2)
H8 H 0.3668 0.2807 0.1349
C12 C 0.32233(15) 0.15862(14) 0.0411(3)
H9 H 0.3611 0.1545 0.0022
C13 C 0.10804(13) 0.37564(13) 0.1803(2)
C14 C 0.20837(14) 0.17175(12) 0.1571(2)
H10 H 0.1699 0.1757 0.1966
C15 C 0.19884(14) 0.38696(13) -0.1840(2)
H11 H 0.2380 0.4382 -0.1537
C16 C 0.08920(12) 0.41668(12) 0.0530(2)
C17 C 0.26133(15) 0.08872(13) 0.0203(2)
C18 C 0.20498(15) 0.09451(14) 0.0792(2)
H12 H 0.1648 0.0467 0.0666
C19 C -0.02127(14) 0.29704(16) 0.1591(3)
C20 C -0.00692(15) 0.45758(17) -0.0687(3)
H13 H -0.0584 0.4164 -0.0930
H14 H -0.0091 0.4697 -0.1627
H15 H -0.0152 0.5130 -0.0289
C21 C 0.43369(16) 0.45659(18) 0.3692(3)
H16 H 0.4787 0.5024 0.3819
H17 H 0.4598 0.3981 0.3727
H18 H 0.4239 0.4615 0.4528
C22 C -0.0915(2) 0.2967(2) 0.2046(4)
H19 H -0.1459 0.3350 0.1341
H20 H -0.0599 0.3187 0.3108
H21 H -0.1143 0.2363 0.1985
loop_
_geom_bond_atom_site_label_1
_geom_bond_atom_site_label_2
_geom_bond_site_symmetry_1
_geom_bond_site_symmetry_2
Cl1 C2 1_555 1_555
Cl2 C17 1_555 1_555
O1 C13 1_555 1_555
N1 C1 1_555 1_555
C1 O2 1_555 1_555
C2 C4 1_555 1_555
C3 C6 1_555 1_555
O3 C19 1_555 1_555
C4 H1 1_555 1_555
C5 N1 1_555 1_555
H2 C5 1_555 1_555
C6 N1 1_555 1_555
H3 C6 1_555 1_555
C7 C5 1_555 1_555
H4 C7 1_555 1_555
H5 C7 1_555 1_555
C8 C5 1_555 1_555
C9 C3 1_555 1_555
H6 C9 1_555 1_555
C10 C2 1_555 1_555
H7 C10 1_555 1_555
C11 C8 1_555 1_555
H8 C11 1_555 1_555
C12 C11 1_555 1_555
H9 C12 1_555 1_555
C13 C7 1_555 1_555
C14 C8 1_555 1_555
H10 C14 1_555 1_555
C15 C3 1_555 1_555
H11 C15 1_555 1_555
C16 C6 1_555 1_555
C17 C12 1_555 1_555
C18 C14 1_555 1_555
H12 C18 1_555 1_555
C19 O1 1_555 1_555
C20 C16 1_555 1_555
H13 C20 1_555 1_555
H14 C20 1_555 1_555
H15 C20 1_555 1_555
C21 C1 1_555 1_555
H16 C21 1_555 1_555
H17 C21 1_555 1_555
H18 C21 1_555 1_555
C22 C19 1_555 1_555
H19 C22 1_555 1_555
H20 C22 1_555 1_555
H21 C22 1_555 1_555
C4 C9 1_555 1_555
C10 C15 1_555 1_555
C13 C16 1_555 1_555
C17 C18 1_555 1_555

#END
