
#######################################################################
#
#                 Cambridge Crystallographic Data Centre
#                                CCDC 
#
#######################################################################
#
# If this CIF has been generated from an entry in the Cambridge 
# Structural Database, then it will include bibliographic, chemical, 
# crystal, experimental, refinement or atomic coordinate data resulting 
# from the CCDC's data processing and validation procedures.
#
#######################################################################

data_WADWEG
_chemical_formula_moiety         'C16 H13 N1 O1'
_chemical_name_systematic        1-(2-phenyl-1H-indol-3-yl)ethanone
_symmetry_cell_setting           triclinic
_symmetry_space_group_name_H-M   'P -1'
_symmetry_Int_Tables_number      2
_space_group_name_Hall           '-P 1'
loop_
_symmetry_equiv_pos_site_id
_symmetry_equiv_pos_as_xyz
1 x,y,z
2 -x,-y,-z
_cell_length_a                   7.4136(5)
_cell_length_b                   7.5070(5)
_cell_length_c                   10.9519(8)
_cell_angle_alpha                101.274(7)
_cell_angle_beta                 92.218(6)
_cell_angle_gamma                97.893(7)
_cell_volume                     590.742
_exptl_crystal_colour            colorless
_exptl_crystal_description       slab
_cell_formula_units_Z            2
loop_
_atom_site_label
_atom_site_type_symbol
_atom_site_fract_x
_atom_site_fract_y
_atom_site_fract_z
C1 C 0.17290(14) 0.14842(14) 0.39273(10)
C2 C 0.05849(15) 0.06773(15) 0.28675(10)
H1 H -0.0705 0.0566 0.2886
C3 C 0.14074(16) 0.00441(15) 0.17853(10)
H2 H 0.0672 -0.0521 0.1045
C4 C 0.33210(16) 0.02277(15) 0.17698(10)
H3 H 0.3854 -0.0186 0.1011
C5 C 0.44441(15) 0.09970(14) 0.28344(10)
H4 H 0.5733 0.1100 0.2811
C6 C 0.36453(14) 0.16230(14) 0.39494(10)
C7 C 0.43386(13) 0.25110(14) 0.52057(9)
C8 C 0.28168(14) 0.28785(14) 0.58734(10)
C9 C 0.62677(14) 0.29478(14) 0.56241(10)
C10 C 0.68827(15) 0.41016(16) 0.68934(11)
H5 H 0.8136 0.4713 0.6881
H6 H 0.6838 0.3315 0.7512
H7 H 0.6075 0.5028 0.7114
C11 C 0.26171(13) 0.37691(14) 0.71834(10)
C12 C 0.18773(15) 0.53985(15) 0.74297(10)
H8 H 0.1523 0.5941 0.6761
C13 C 0.16559(16) 0.62334(16) 0.86536(11)
H9 H 0.1162 0.7352 0.8818
C14 C 0.21514(16) 0.54433(17) 0.96377(10)
H10 H 0.1998 0.6020 1.0472
C15 C 0.28710(16) 0.38114(17) 0.93984(11)
H11 H 0.3203 0.3262 1.0069
C16 C 0.31064(15) 0.29786(15) 0.81775(10)
H12 H 0.3605 0.1862 0.8018
N1 N 0.12741(12) 0.22642(12) 0.51028(8)
H13 H 0.011(2) 0.2342(19) 0.5287(13)
O1 O 0.74295(10) 0.23746(12) 0.49276(7)
loop_
_geom_bond_atom_site_label_1
_geom_bond_atom_site_label_2
_geom_bond_site_symmetry_1
_geom_bond_site_symmetry_2
C1 C2 1_555 1_555
C2 H1 1_555 1_555
C3 C2 1_555 1_555
H2 C3 1_555 1_555
C4 C3 1_555 1_555
H3 C4 1_555 1_555
C5 C4 1_555 1_555
H4 C5 1_555 1_555
C6 C1 1_555 1_555
C7 C6 1_555 1_555
C8 C7 1_555 1_555
C9 C7 1_555 1_555
C10 C9 1_555 1_555
H5 C10 1_555 1_555
H6 C10 1_555 1_555
H7 C10 1_555 1_555
C11 C8 1_555 1_555
C12 C11 1_555 1_555
H8 C12 1_555 1_555
C13 C12 1_555 1_555
H9 C13 1_555 1_555
C14 C13 1_555 1_555
H10 C14 1_555 1_555
C15 C14 1_555 1_555
H11 C15 1_555 1_555
C16 C11 1_555 1_555
H12 C16 1_555 1_555
N1 C1 1_555 1_555
H13 N1 1_555 1_555
O1 C9 1_555 1_555
C5 C6 1_555 1_555
C8 N1 1_555 1_555
C15 C16 1_555 1_555

#END
