
#######################################################################
#
#                 Cambridge Crystallographic Data Centre
#                                CCDC 
#
#######################################################################
#
# If this CIF has been generated from an entry in the Cambridge 
# Structural Database, then it will include bibliographic, chemical, 
# crystal, experimental, refinement or atomic coordinate data resulting 
# from the CCDC's data processing and validation procedures.
#
#######################################################################

data_WADWOQ
_chemical_formula_moiety         'C20 H21 N1 O1'
_chemical_name_systematic        
'3,3-dimethyl-1-(2-phenyl-1H-indol-3-yl)butan-1-one unknown solvate'
_symmetry_cell_setting           rhombohedral
_symmetry_space_group_name_H-M   'R -3'
_symmetry_Int_Tables_number      148
_space_group_name_Hall           '-R 3'
loop_
_symmetry_equiv_pos_site_id
_symmetry_equiv_pos_as_xyz
1 x,y,z
2 -y,x-y,z
3 -x+y,-x,z
4 2/3+x,1/3+y,1/3+z
5 2/3-y,1/3+x-y,1/3+z
6 2/3-x+y,1/3-x,1/3+z
7 1/3+x,2/3+y,2/3+z
8 1/3-y,2/3+x-y,2/3+z
9 1/3-x+y,2/3-x,2/3+z
10 -x,-y,-z
11 y,-x+y,-z
12 x-y,x,-z
13 1/3-x,2/3-y,2/3-z
14 1/3+y,2/3-x+y,2/3-z
15 1/3+x-y,2/3+x,2/3-z
16 2/3-x,1/3-y,1/3-z
17 2/3+y,1/3-x+y,1/3-z
18 2/3+x-y,1/3+x,1/3-z
_cell_length_a                   23.3305(16)
_cell_length_b                   23.3305(16)
_cell_length_c                   15.3681(11)
_cell_angle_alpha                90
_cell_angle_beta                 90
_cell_angle_gamma                120
_cell_volume                     7244.34
_exptl_crystal_colour            colorless
_exptl_crystal_description       chunk
_cell_formula_units_Z            18
loop_
_atom_site_label
_atom_site_type_symbol
_atom_site_fract_x
_atom_site_fract_y
_atom_site_fract_z
C1 C 0.31613(5) 0.41861(5) 0.13603(6)
C2 C 0.34735(6) 0.48614(5) 0.15385(7)
H1 H 0.3771 0.5181 0.1136
C3 C 0.33301(6) 0.50441(5) 0.23285(7)
H2 H 0.3538 0.5500 0.2479
C4 C 0.28843(6) 0.45692(6) 0.29109(7)
H3 H 0.2790 0.4710 0.3445
C5 C 0.25777(5) 0.38987(5) 0.27288(7)
H4 H 0.2275 0.3582 0.3130
C6 C 0.27233(5) 0.36965(5) 0.19382(6)
C7 C 0.25090(5) 0.30630(5) 0.15169(6)
C8 C 0.28358(5) 0.32044(5) 0.07156(6)
C9 C 0.20194(5) 0.24318(5) 0.18833(6)
C10 C 0.16701(5) 0.18172(5) 0.13248(7)
H5 H 0.1919 0.1902 0.0773
H6 H 0.1226 0.1745 0.1178
C11 C 0.15854(5) 0.11708(5) 0.17269(7)
C12 C 0.10683(6) 0.09101(6) 0.24526(8)
H7 H 0.1219 0.1231 0.2931
H8 H 0.1007 0.0487 0.2666
H9 H 0.0647 0.0845 0.2226
C13 C 0.13580(7) 0.06571(6) 0.09973(8)
H10 H 0.0935 0.0581 0.0764
H11 H 0.1303 0.0241 0.1228
H12 H 0.1690 0.0820 0.0533
C14 C 0.22444(6) 0.12844(6) 0.20931(9)
H13 H 0.2392 0.1614 0.2561
H14 H 0.2577 0.1445 0.1629
H15 H 0.2186 0.0867 0.2324
C15 C 0.28615(5) 0.27820(5) 0.00135(6)
C16 C 0.25997(5) 0.27699(5) -0.08041(7)
H16 H 0.2385 0.3019 -0.0907
C17 C 0.26503(5) 0.23952(5) -0.14706(7)
H17 H 0.2464 0.2383 -0.2025
C18 C 0.29714(5) 0.20399(5) -0.13300(7)
H18 H 0.3011 0.1789 -0.1789
C19 C 0.32356(5) 0.20505(5) -0.05188(7)
H19 H 0.3456 0.1807 -0.0421
C20 C 0.31782(5) 0.24169(5) 0.01498(7)
H20 H 0.3356 0.2420 0.0707
N1 N 0.32172(4) 0.38711(4) 0.06303(6)
H21 H 0.3485(6) 0.4089(6) 0.0173(9)
O1 O 0.18597(4) 0.24055(4) 0.26571(5)
loop_
_geom_bond_atom_site_label_1
_geom_bond_atom_site_label_2
_geom_bond_site_symmetry_1
_geom_bond_site_symmetry_2
C1 C2 1_555 1_555
C2 H1 1_555 1_555
C3 C2 1_555 1_555
H2 C3 1_555 1_555
C4 C3 1_555 1_555
H3 C4 1_555 1_555
C5 C4 1_555 1_555
H4 C5 1_555 1_555
C6 C1 1_555 1_555
C7 C6 1_555 1_555
C8 C7 1_555 1_555
C9 C7 1_555 1_555
C10 C9 1_555 1_555
H5 C10 1_555 1_555
H6 C10 1_555 1_555
C11 C10 1_555 1_555
C12 C11 1_555 1_555
H7 C12 1_555 1_555
H8 C12 1_555 1_555
H9 C12 1_555 1_555
C13 C11 1_555 1_555
H10 C13 1_555 1_555
H11 C13 1_555 1_555
H12 C13 1_555 1_555
C14 C11 1_555 1_555
H13 C14 1_555 1_555
H14 C14 1_555 1_555
H15 C14 1_555 1_555
C15 C8 1_555 1_555
C16 C15 1_555 1_555
H16 C16 1_555 1_555
C17 C16 1_555 1_555
H17 C17 1_555 1_555
C18 C17 1_555 1_555
H18 C18 1_555 1_555
C19 C18 1_555 1_555
H19 C19 1_555 1_555
C20 C15 1_555 1_555
H20 C20 1_555 1_555
N1 C1 1_555 1_555
H21 N1 1_555 1_555
O1 C9 1_555 1_555
C5 C6 1_555 1_555
C8 N1 1_555 1_555
C19 C20 1_555 1_555

#END
