
#######################################################################
#
#                 Cambridge Crystallographic Data Centre
#                                CCDC 
#
#######################################################################
#
# If this CIF has been generated from an entry in the Cambridge 
# Structural Database, then it will include bibliographic, chemical, 
# crystal, experimental, refinement or atomic coordinate data resulting 
# from the CCDC's data processing and validation procedures.
#
#######################################################################

data_WADWUW01
_chemical_formula_moiety         'C21 H15 N1 O1'
_chemical_name_systematic        phenyl(2-phenyl-1H-indol-3-yl)methanone
_symmetry_cell_setting           monoclinic
_symmetry_space_group_name_H-M   'P 21/c'
_symmetry_Int_Tables_number      14
_space_group_name_Hall           '-P 2ybc'
loop_
_symmetry_equiv_pos_site_id
_symmetry_equiv_pos_as_xyz
1 x,y,z
2 -x,1/2+y,1/2-z
3 -x,-y,-z
4 x,1/2-y,1/2+z
_cell_length_a                   14.537(4)
_cell_length_b                   11.808(3)
_cell_length_c                   18.907(5)
_cell_angle_alpha                90
_cell_angle_beta                 108.140(7)
_cell_angle_gamma                90
_cell_volume                     3084.14
_exptl_crystal_colour            colorless
_exptl_crystal_description       plate
_cell_formula_units_Z            8
loop_
_atom_site_label
_atom_site_type_symbol
_atom_site_fract_x
_atom_site_fract_y
_atom_site_fract_z
O1 O 1.0837(2) 0.3457(3) 0.6289(2)
N1 N 0.7665(3) 0.3790(3) 0.6130(2)
H1 H 0.7067 0.3692 0.6133
C1 C 0.9208(3) 0.3427(4) 0.6200(3)
C2 C 0.8109(3) 0.1829(4) 0.6479(3)
C3 C 0.8344(3) 0.2985(4) 0.6280(3)
C4 C 0.8998(3) 0.4617(4) 0.6003(3)
C5 C 1.0241(3) 0.1624(4) 0.6356(3)
C6 C 1.0121(3) 0.2886(4) 0.6273(3)
C7 C 0.8137(4) 0.6731(4) 0.5673(3)
H2 H 0.7864 0.7467 0.5572
C8 C 0.9659(3) 0.0900(4) 0.5820(3)
H3 H 0.9170 0.1198 0.5403
C9 C 0.8041(3) 0.4808(4) 0.5967(3)
C10 C 0.9533(4) 0.5514(4) 0.5854(3)
H4 H 1.0186 0.5410 0.5867
C11 C 0.8669(4) 0.1318(4) 0.7140(3)
H5 H 0.9181 0.1731 0.7477
C12 C 0.7357(3) 0.1217(4) 0.6005(3)
H6 H 0.6965 0.1553 0.5556
C13 C 0.7582(4) 0.5857(4) 0.5805(3)
H7 H 0.6927 0.5963 0.5786
C14 C 0.7170(4) 0.0124(4) 0.6177(3)
H8 H 0.6647 -0.0284 0.5849
C15 C 1.0936(4) 0.1173(4) 0.6966(3)
H9 H 1.1330 0.1664 0.7335
C16 C 0.9091(4) 0.6555(4) 0.5685(3)
H10 H 0.9445 0.7169 0.5574
C17 C 0.9801(4) -0.0257(4) 0.5901(3)
H11 H 0.9419 -0.0752 0.5528
C18 C 1.1065(4) 0.0023(5) 0.7044(3)
H12 H 1.1551 -0.0275 0.7464
C19 C 0.8486(4) 0.0226(4) 0.7308(3)
H13 H 0.8875 -0.0113 0.7757
C20 C 0.7744(4) -0.0381(4) 0.6828(3)
H14 H 0.7625 -0.1140 0.6941
C21 C 1.0491(4) -0.0704(5) 0.6517(3)
H15 H 1.0570 -0.1501 0.6577
O2 O 0.4165(2) 0.6691(3) 0.3748(2)
N2 N 0.7307(3) 0.6951(3) 0.3821(2)
H16 H 0.7900 0.6839 0.3808
C22 C 0.5786(3) 0.6627(4) 0.3791(3)
C23 C 0.4867(3) 0.6104(4) 0.3743(3)
C24 C 0.6856(3) 0.4968(4) 0.3547(3)
C25 C 0.6626(3) 0.6142(4) 0.3711(3)
C26 C 0.4733(3) 0.4848(4) 0.3692(3)
C27 C 0.6945(3) 0.7987(4) 0.3958(3)
C28 C 0.5252(4) 0.4132(4) 0.4265(3)
H17 H 0.5734 0.4434 0.4686
C29 C 0.5992(3) 0.7816(4) 0.3946(3)
C30 C 0.6300(3) 0.4392(4) 0.2927(3)
H18 H 0.5758 0.4755 0.2587
C31 C 0.7660(3) 0.4423(4) 0.4044(3)
H19 H 0.8054 0.4815 0.4470
C32 C 0.5457(4) 0.8754(4) 0.4059(3)
H20 H 0.4804 0.8671 0.4052
C33 C 0.7399(4) 0.9041(4) 0.4088(3)
H21 H 0.8053 0.9131 0.4099
C34 C 0.4389(4) 0.2530(4) 0.3602(3)
H22 H 0.4276 0.1736 0.3570
C35 C 0.6863(4) 0.9944(4) 0.4201(3)
H23 H 0.7149 1.0675 0.4293
C36 C 0.5061(4) 0.2974(4) 0.4219(3)
H24 H 0.5398 0.2489 0.4617
C37 C 0.4036(3) 0.4374(4) 0.3083(3)
H25 H 0.3662 0.4856 0.2698
C38 C 0.5905(4) 0.9794(4) 0.4179(3)
H26 H 0.5547 1.0434 0.4251
C39 C 0.7307(4) 0.2754(4) 0.3292(3)
H27 H 0.7455 0.1993 0.3207
C40 C 0.3874(4) 0.3223(4) 0.3026(3)
H28 H 0.3415 0.2911 0.2597
C41 C 0.7878(4) 0.3324(4) 0.3916(3)
H29 H 0.8418 0.2956 0.4255
C42 C 0.6526(4) 0.3285(4) 0.2795(3)
H30 H 0.6144 0.2895 0.2364
loop_
_geom_bond_atom_site_label_1
_geom_bond_atom_site_label_2
_geom_bond_site_symmetry_1
_geom_bond_site_symmetry_2
O1 C6 1_555 1_555
N1 H1 1_555 1_555
C1 C3 1_555 1_555
C2 C3 1_555 1_555
C3 N1 1_555 1_555
C4 C1 1_555 1_555
C5 C6 1_555 1_555
C6 C1 1_555 1_555
C7 H2 1_555 1_555
C8 C5 1_555 1_555
H3 C8 1_555 1_555
C9 N1 1_555 1_555
C10 C4 1_555 1_555
H4 C10 1_555 1_555
C11 C2 1_555 1_555
H5 C11 1_555 1_555
C12 C2 1_555 1_555
H6 C12 1_555 1_555
C13 C7 1_555 1_555
H7 C13 1_555 1_555
C14 C12 1_555 1_555
H8 C14 1_555 1_555
C15 C5 1_555 1_555
H9 C15 1_555 1_555
C16 C7 1_555 1_555
H10 C16 1_555 1_555
C17 C8 1_555 1_555
H11 C17 1_555 1_555
C18 C15 1_555 1_555
H12 C18 1_555 1_555
C19 C11 1_555 1_555
H13 C19 1_555 1_555
C20 C14 1_555 1_555
H14 C20 1_555 1_555
C21 C17 1_555 1_555
H15 C21 1_555 1_555
O2 C23 1_555 1_555
N2 H16 1_555 1_555
C22 C23 1_555 1_555
C23 C26 1_555 1_555
C24 C25 1_555 1_555
C25 N2 1_555 1_555
C26 C28 1_555 1_555
C27 N2 1_555 1_555
C28 H17 1_555 1_555
C29 C22 1_555 1_555
C30 C24 1_555 1_555
H18 C30 1_555 1_555
C31 C24 1_555 1_555
H19 C31 1_555 1_555
C32 C29 1_555 1_555
H20 C32 1_555 1_555
C33 C27 1_555 1_555
H21 C33 1_555 1_555
C34 H22 1_555 1_555
C35 C33 1_555 1_555
H23 C35 1_555 1_555
C36 C28 1_555 1_555
H24 C36 1_555 1_555
C37 C26 1_555 1_555
H25 C37 1_555 1_555
C38 C32 1_555 1_555
H26 C38 1_555 1_555
C39 H27 1_555 1_555
C40 C34 1_555 1_555
H28 C40 1_555 1_555
C41 C31 1_555 1_555
H29 C41 1_555 1_555
C42 C30 1_555 1_555
H30 C42 1_555 1_555
C4 C9 1_555 1_555
C9 C13 1_555 1_555
C10 C16 1_555 1_555
C18 C21 1_555 1_555
C19 C20 1_555 1_555
C22 C25 1_555 1_555
C27 C29 1_555 1_555
C34 C36 1_555 1_555
C35 C38 1_555 1_555
C37 C40 1_555 1_555
C39 C41 1_555 1_555
C39 C42 1_555 1_555

#END
