
#######################################################################
#
#                 Cambridge Crystallographic Data Centre
#                                CCDC 
#
#######################################################################
#
# If this CIF has been generated from an entry in the Cambridge 
# Structural Database, then it will include bibliographic, chemical, 
# crystal, experimental, refinement or atomic coordinate data resulting 
# from the CCDC's data processing and validation procedures.
#
#######################################################################

data_WADXEF
_chemical_formula_moiety         'C20 H19 N3 O3'
_chemical_name_systematic        
1-Phenyl-3-methyl-4-(\a-(methoxycarbonylmethylamino)benzylidene)-5-pyrazolone
_symmetry_cell_setting           triclinic
_symmetry_space_group_name_H-M   'P -1'
_symmetry_Int_Tables_number      2
_space_group_name_Hall           '-P 1'
loop_
_symmetry_equiv_pos_site_id
_symmetry_equiv_pos_as_xyz
1 x,y,z
2 -x,-y,-z
_cell_length_a                   9.403(3)
_cell_length_b                   9.884(3)
_cell_length_c                   10.127(3)
_cell_angle_alpha                86.666(7)
_cell_angle_beta                 89.827(6)
_cell_angle_gamma                73.951(6)
_cell_volume                     902.899
_chemical_melting_point          '219.8-220.8 deg.C'
_cell_formula_units_Z            2
loop_
_atom_site_label
_atom_site_type_symbol
_atom_site_fract_x
_atom_site_fract_y
_atom_site_fract_z
N1 N 1.0765(2) 0.7081(2) 0.2956(2)
N2 N 0.9471(2) 0.7405(2) 0.3715(2)
N3 N 1.0335(2) 0.3468(2) 0.1332(2)
O1 O 1.1965(1) 0.5310(2) 0.1566(2)
O2 O 1.2567(2) 0.2196(2) -0.0220(2)
O3 O 1.1496(2) 0.0514(2) -0.0665(2)
C1 C 1.0936(2) 0.5843(2) 0.2323(2)
C2 C 0.9669(2) 0.5369(2) 0.2701(2)
C3 C 0.8843(2) 0.6400(3) 0.3555(2)
C4 C 0.7427(2) 0.6463(3) 0.4263(3)
C5 C 1.1647(2) 0.8039(2) 0.2891(2)
C6 C 1.2999(3) 0.7717(3) 0.2263(3)
C7 C 1.3839(3) 0.8665(3) 0.2242(3)
C8 C 1.3370(3) 0.9909(3) 0.2851(3)
C9 C 1.2022(3) 1.0227(3) 0.3471(3)
C10 C 1.1150(3) 0.9315(3) 0.3485(2)
C11 C 0.9378(2) 0.4213(2) 0.2164(2)
C12 C 0.7982(2) 0.3817(2) 0.2439(2)
C13 C 0.6839(2) 0.4218(3) 0.1524(2)
C14 C 0.5502(2) 0.3939(3) 0.1789(3)
C15 C 0.5306(3) 0.3273(3) 0.2970(3)
C16 C 0.6440(3) 0.2853(3) 0.3880(3)
C17 C 0.7796(2) 0.3116(3) 0.3614(2)
C18 C 1.0197(2) 0.2242(2) 0.0678(2)
C19 C 1.1565(2) 0.1675(3) -0.0112(2)
C20 C 1.2745(3) -0.0157(3) -0.1456(3)
loop_
_geom_bond_atom_site_label_1
_geom_bond_atom_site_label_2
_geom_bond_site_symmetry_1
_geom_bond_site_symmetry_2
N1 N2 1_555 1_555
N2 C3 1_555 1_555
N3 C11 1_555 1_555
O1 C1 1_555 1_555
O2 C19 1_555 1_555
O3 C19 1_555 1_555
C1 N1 1_555 1_555
C2 C1 1_555 1_555
C3 C2 1_555 1_555
C4 C3 1_555 1_555
C5 N1 1_555 1_555
C6 C5 1_555 1_555
C7 C6 1_555 1_555
C8 C7 1_555 1_555
C9 C8 1_555 1_555
C10 C5 1_555 1_555
C11 C2 1_555 1_555
C12 C11 1_555 1_555
C13 C12 1_555 1_555
C14 C13 1_555 1_555
C15 C14 1_555 1_555
C16 C15 1_555 1_555
C17 C12 1_555 1_555
C18 N3 1_555 1_555
C19 C18 1_555 1_555
C20 O3 1_555 1_555
C9 C10 1_555 1_555
C16 C17 1_555 1_555

#END
