
#######################################################################
#
#                 Cambridge Crystallographic Data Centre
#                                CCDC 
#
#######################################################################
#
# If this CIF has been generated from an entry in the Cambridge 
# Structural Database, then it will include bibliographic, chemical, 
# crystal, experimental, refinement or atomic coordinate data resulting 
# from the CCDC's data processing and validation procedures.
#
#######################################################################

data_WADYIL
_chemical_formula_moiety         'C20 H30 Br1 N1 O3'
_chemical_name_systematic        
(S)-3-Bromo-4-diallylamino-5-[(1R,2S,5R)-2-isopropyl-5-methylcyclohexyloxy]furan-2(5H)-one
_symmetry_cell_setting           orthorhombic
_symmetry_space_group_name_H-M   'P 21 21 21'
_symmetry_Int_Tables_number      19
_space_group_name_Hall           'P 2ac 2ab'
loop_
_symmetry_equiv_pos_site_id
_symmetry_equiv_pos_as_xyz
1 x,y,z
2 1/2-x,-y,1/2+z
3 -x,1/2+y,1/2-z
4 1/2+x,1/2-y,-z
_cell_length_a                   8.5215(16)
_cell_length_b                   11.934(2)
_cell_length_c                   20.603(4)
_cell_angle_alpha                90
_cell_angle_beta                 90
_cell_angle_gamma                90
_cell_volume                     2095.23
_exptl_crystal_colour            colorless
_exptl_crystal_description       block
_cell_formula_units_Z            4
loop_
_atom_site_label
_atom_site_type_symbol
_atom_site_fract_x
_atom_site_fract_y
_atom_site_fract_z
Br1 Br 0.27706(5) -0.04364(3) 0.92085(2)
O1 O 0.2972(3) 0.36270(16) 0.96994(9)
O2 O 0.3680(3) 0.21670(19) 1.03849(10)
O3 O 0.2726(3) 0.0470(2) 1.06339(12)
C1 C 0.2198(4) 0.5548(3) 0.97362(17)
H1 H 0.1129 0.5295 0.9834
C2 C 0.3298(4) 0.4689(3) 1.00221(16)
H2 H 0.4381 0.4911 0.9927
C3 C 0.3107(4) 0.4579(3) 1.07491(17)
H3 H 0.3878 0.4051 1.0911
H4 H 0.2074 0.4277 1.0842
C4 C 0.2203(5) 0.6563(3) 1.0818(2)
H5 H 0.1126 0.6350 1.0907
H6 H 0.2394 0.7284 1.1021
C5 C 0.2302(4) 0.5667(3) 0.89958(18)
H7 H 0.2262 0.4906 0.8819
C6 C 0.2427(5) 0.6670(3) 1.0096(2)
H8 H 0.3476 0.6949 1.0010
H9 H 0.1685 0.7214 0.9928
C7 C 0.3854(5) 0.6182(4) 0.8759(2)
H10 H 0.3909 0.6952 0.8892
H11 H 0.3903 0.6140 0.8294
H12 H 0.4719 0.5776 0.8943
C8 C 0.3028(6) 0.5538(4) 1.1835(2)
H13 H 0.1984 0.5261 1.1906
H14 H 0.3154 0.6243 1.2054
H15 H 0.3774 0.5009 1.2003
C9 C 0.3301(4) 0.5697(3) 1.1109(2)
H16 H 0.4382 0.5956 1.1046
C10 C 0.3881(3) 0.1916(2) 0.92585(17)
C11 C 0.4052(4) 0.2769(3) 0.98021(15)
H17 H 0.5124 0.3065 0.9819
C12 C 0.3321(4) 0.0962(3) 0.95381(17)
C13 C 0.3192(4) 0.1112(3) 1.02266(19)
N1 N 0.4230(3) 0.2185(2) 0.86442(14)
C14 C 0.6441(5) 0.3143(3) 0.81261(19)
H18 H 0.7254 0.2830 0.8366
C15 C 0.6743(6) 0.3435(3) 0.7539(2)
H19 H 0.5960 0.3751 0.7283
H20 H 0.7744 0.3329 0.7369
C16 C 0.4897(4) 0.3267(3) 0.84513(18)
H21 H 0.5020 0.3734 0.8833
H22 H 0.4175 0.3642 0.8159
C17 C 0.3789(5) 0.1460(3) 0.81058(17)
H23 H 0.3965 0.0687 0.8231
H24 H 0.4467 0.1620 0.7739
C18 C 0.2127(6) 0.1588(4) 0.7897(2)
H25 H 0.1814 0.1184 0.7534
C19 C 0.1081(6) 0.2206(4) 0.8173(2)
H26 H 0.1340 0.2626 0.8538
H27 H 0.0067 0.2232 0.8006
C20 C 0.0902(5) 0.6287(4) 0.8715(2)
H28 H 0.0917 0.7051 0.8861
H29 H -0.0049 0.5934 0.8857
H30 H 0.0954 0.6269 0.8250
loop_
_geom_bond_atom_site_label_1
_geom_bond_atom_site_label_2
_geom_bond_site_symmetry_1
_geom_bond_site_symmetry_2
Br1 C12 1_555 1_555
O1 C2 1_555 1_555
O2 C11 1_555 1_555
O3 C13 1_555 1_555
C1 H1 1_555 1_555
C2 C1 1_555 1_555
H2 C2 1_555 1_555
C3 C2 1_555 1_555
H3 C3 1_555 1_555
H4 C3 1_555 1_555
C4 H5 1_555 1_555
H6 C4 1_555 1_555
C5 C1 1_555 1_555
H7 C5 1_555 1_555
C6 C1 1_555 1_555
H8 C6 1_555 1_555
H9 C6 1_555 1_555
C7 C5 1_555 1_555
H10 C7 1_555 1_555
H11 C7 1_555 1_555
H12 C7 1_555 1_555
C8 H13 1_555 1_555
H14 C8 1_555 1_555
H15 C8 1_555 1_555
C9 C3 1_555 1_555
H16 C9 1_555 1_555
C10 C11 1_555 1_555
C11 O1 1_555 1_555
H17 C11 1_555 1_555
C12 C10 1_555 1_555
C13 O2 1_555 1_555
N1 C10 1_555 1_555
C14 H18 1_555 1_555
C15 C14 1_555 1_555
H19 C15 1_555 1_555
H20 C15 1_555 1_555
C16 N1 1_555 1_555
H21 C16 1_555 1_555
H22 C16 1_555 1_555
C17 N1 1_555 1_555
H23 C17 1_555 1_555
H24 C17 1_555 1_555
C18 C17 1_555 1_555
H25 C18 1_555 1_555
C19 C18 1_555 1_555
H26 C19 1_555 1_555
H27 C19 1_555 1_555
C20 C5 1_555 1_555
H28 C20 1_555 1_555
H29 C20 1_555 1_555
H30 C20 1_555 1_555
C4 C6 1_555 1_555
C4 C9 1_555 1_555
C8 C9 1_555 1_555
C12 C13 1_555 1_555
C14 C16 1_555 1_555

#END
