
#######################################################################
#
#                 Cambridge Crystallographic Data Centre
#                                CCDC 
#
#######################################################################
#
# If this CIF has been generated from an entry in the Cambridge 
# Structural Database, then it will include bibliographic, chemical, 
# crystal, experimental, refinement or atomic coordinate data resulting 
# from the CCDC's data processing and validation procedures.
#
#######################################################################

data_WADZOS
_chemical_formula_moiety         'C18 H24 N2 O2 S1'
_chemical_name_systematic        
N-(3-Octyl-4-oxo-1,3-thiazolidin-2-ylidene)benzamide
_symmetry_cell_setting           triclinic
_symmetry_space_group_name_H-M   'P -1'
_symmetry_Int_Tables_number      2
_space_group_name_Hall           '-P 1'
loop_
_symmetry_equiv_pos_site_id
_symmetry_equiv_pos_as_xyz
1 x,y,z
2 -x,-y,-z
_cell_length_a                   5.3342(3)
_cell_length_b                   8.6196(5)
_cell_length_c                   20.0775(12)
_cell_angle_alpha                97.008(5)
_cell_angle_beta                 92.870(4)
_cell_angle_gamma                99.477(4)
_cell_volume                     901.411
_exptl_crystal_colour            yellow
_exptl_crystal_description       prism
_cell_formula_units_Z            2
_exptl_crystal_recrystallization_method ethanol
loop_
_atom_site_label
_atom_site_type_symbol
_atom_site_fract_x
_atom_site_fract_y
_atom_site_fract_z
N1 N 0.2339(4) 0.3596(2) 0.30556(10)
N2 N -0.1304(4) 0.2176(2) 0.34097(10)
C1 C 0.4393(5) 0.4805(3) 0.32305(14)
C2 C 0.0680(5) 0.3283(3) 0.35492(12)
C3 C 0.4427(5) 0.5499(3) 0.39502(14)
H1 H 0.4422 0.6630 0.3982
H2 H 0.5952 0.5337 0.4197
O1 O -0.2580(4) 0.2654(2) 0.44909(9)
O2 O 0.5957(4) 0.5200(2) 0.28388(11)
S1 S 0.16338(13) 0.45285(8) 0.42998(3)
C4 C -0.2882(5) 0.1901(3) 0.39283(13)
C5 C -0.5089(5) 0.0581(3) 0.37455(13)
C6 C 0.1963(5) 0.2715(3) 0.23775(13)
H3 H 0.1125 0.1638 0.2402
H4 H 0.3613 0.2663 0.2202
C7 C -0.5494(5) -0.0279(3) 0.31152(14)
H5 H -0.4341 -0.0064 0.2792
C8 C -0.6820(5) 0.0229(3) 0.42264(15)
H6 H -0.6555 0.0795 0.4656
C9 C -0.8909(6) -0.0944(4) 0.40707(18)
H7 H -1.0049 -0.1172 0.4395
C10 C -0.9324(6) -0.1783(4) 0.34373(19)
H8 H -1.0759 -0.2565 0.3331
C11 C -0.0006(7) 0.2535(5) 0.12043(15)
H9 H 0.1634 0.2576 0.1013
H10 H -0.0658 0.1432 0.1241
C12 C 0.0397(6) 0.3448(4) 0.18997(14)
H11 H 0.1241 0.4523 0.1872
H12 H -0.1249 0.3508 0.2077
C13 C -0.7605(6) -0.1462(4) 0.29574(17)
H13 H -0.7867 -0.2041 0.2530
C14 C -0.2276(8) 0.2222(6) 0.00389(18)
H14 H -0.2838 0.1109 0.0076
H15 H -0.0679 0.2307 -0.0176
C15 C -0.1781(8) 0.3108(5) 0.07302(17)
H16 H -0.3401 0.3090 0.0930
H17 H -0.1106 0.4207 0.0691
C16 C -0.4809(10) 0.1911(7) -0.1089(2)
H18 H -0.5318 0.0792 -0.1055
H19 H -0.3262 0.2022 -0.1326
C17 C -0.4209(9) 0.2749(6) -0.04136(19)
H20 H -0.5784 0.2690 -0.0189
H21 H -0.3621 0.3859 -0.0452
C18 C -0.6818(9) 0.2415(7) -0.1504(2)
H22 H -0.7081 0.1765 -0.1933
H23 H -0.6304 0.3505 -0.1567
H24 H -0.8375 0.2302 -0.1280
loop_
_geom_bond_atom_site_label_1
_geom_bond_atom_site_label_2
_geom_bond_site_symmetry_1
_geom_bond_site_symmetry_2
N1 C1 1_555 1_555
N2 C2 1_555 1_555
C1 C3 1_555 1_555
C2 N1 1_555 1_555
C3 H1 1_555 1_555
H2 C3 1_555 1_555
O1 C4 1_555 1_555
O2 C1 1_555 1_555
S1 C2 1_555 1_555
C4 N2 1_555 1_555
C5 C4 1_555 1_555
C6 N1 1_555 1_555
H3 C6 1_555 1_555
H4 C6 1_555 1_555
C7 C5 1_555 1_555
H5 C7 1_555 1_555
C8 C5 1_555 1_555
H6 C8 1_555 1_555
C9 C8 1_555 1_555
H7 C9 1_555 1_555
C10 C9 1_555 1_555
H8 C10 1_555 1_555
C11 H9 1_555 1_555
H10 C11 1_555 1_555
C12 C6 1_555 1_555
H11 C12 1_555 1_555
H12 C12 1_555 1_555
C13 C7 1_555 1_555
H13 C13 1_555 1_555
C14 H14 1_555 1_555
H15 C14 1_555 1_555
C15 C11 1_555 1_555
H16 C15 1_555 1_555
H17 C15 1_555 1_555
C16 H18 1_555 1_555
H19 C16 1_555 1_555
C17 C14 1_555 1_555
H20 C17 1_555 1_555
H21 C17 1_555 1_555
C18 C16 1_555 1_555
H22 C18 1_555 1_555
H23 C18 1_555 1_555
H24 C18 1_555 1_555
C3 S1 1_555 1_555
C10 C13 1_555 1_555
C11 C12 1_555 1_555
C14 C15 1_555 1_555
C16 C17 1_555 1_555

#END
