
#######################################################################
#
#                 Cambridge Crystallographic Data Centre
#                                CCDC 
#
#######################################################################
#
# If this CIF has been generated from an entry in the Cambridge 
# Structural Database, then it will include bibliographic, chemical, 
# crystal, experimental, refinement or atomic coordinate data resulting 
# from the CCDC's data processing and validation procedures.
#
#######################################################################

data_WAFBOX
_chemical_formula_moiety         'C34 H32 N4 O5,C3 H7 N1 O1'
_chemical_name_systematic        
"3-((3',6'-bis(ethylamino)-2',7'-dimethyl-3-oxospiro[isoindole-1,9'-xanthen]-2(3H)-yl)carbonoimidoyl)-4-hydroxybenzoic acid N,N-dimethylformamide solvate"
_symmetry_cell_setting           monoclinic
_symmetry_space_group_name_H-M   'P 21/c'
_symmetry_Int_Tables_number      14
_space_group_name_Hall           '-P 2ybc'
loop_
_symmetry_equiv_pos_site_id
_symmetry_equiv_pos_as_xyz
1 x,y,z
2 -x,1/2+y,1/2-z
3 -x,-y,-z
4 x,1/2-y,1/2+z
_cell_length_a                   10.4499(3)
_cell_length_b                   26.1309(9)
_cell_length_c                   14.3962(6)
_cell_angle_alpha                90
_cell_angle_beta                 120.731(2)
_cell_angle_gamma                90
_cell_volume                     3379.08
_exptl_crystal_colour            red
_exptl_crystal_description       block
_cell_formula_units_Z            4
loop_
_atom_site_label
_atom_site_type_symbol
_atom_site_fract_x
_atom_site_fract_y
_atom_site_fract_z
O1 O -0.01107(16) -0.00245(6) 0.11131(13)
O2 O 0.0661(2) -0.05526(7) 0.41023(15)
O3 O -0.0832(2) -0.18202(7) 0.71448(15)
H1 H -0.1207 -0.2034 0.7350
O4 O 0.2524(2) -0.22418(7) 0.29917(15)
O5 O -0.0879(2) -0.24631(8) 0.61098(17)
N1 N 0.0991(2) -0.13115(8) 0.30857(15)
N2 N 0.1310(2) -0.14697(7) 0.23166(15)
N3 N 0.4596(2) 0.06956(9) 0.36325(18)
H2 H 0.5546 0.0659 0.4022
N4 N -0.5081(2) -0.06100(9) -0.11916(18)
H3 H -0.5546 -0.0764 -0.0923
C1 C 0.2003(2) -0.06000(9) 0.20587(18)
C2 C 0.0474(2) -0.14458(9) 0.44881(18)
C3 C 0.2220(2) 0.03145(9) 0.23630(19)
H4 H 0.1770 0.0635 0.2197
C4 C 0.1703(2) -0.13737(9) 0.08933(18)
C5 C 0.1379(2) -0.01182(9) 0.18495(18)
C6 C -0.0221(2) -0.16307(10) 0.58280(19)
C7 C -0.1034(2) -0.04434(9) 0.06305(19)
C8 C -0.0522(2) -0.09407(9) 0.07857(18)
C9 C -0.2532(2) -0.03251(10) -0.00326(18)
H5 H -0.2839 0.0015 -0.0129
C10 C 0.0838(2) -0.16348(10) 0.36950(19)
H6 H 0.0957 -0.1983 0.3632
C11 C 0.1100(2) -0.10734(9) 0.14982(18)
C12 C 0.0158(2) -0.17918(10) 0.50810(19)
H7 H 0.0203 -0.2141 0.4973
C13 C 0.3517(2) -0.06337(10) 0.28402(19)
H8 H 0.3957 -0.0956 0.3004
C14 C 0.0377(3) -0.09173(10) 0.46536(19)
C15 C -0.0010(3) -0.07558(10) 0.5397(2)
H9 H -0.0080 -0.0408 0.5501
C16 C -0.1587(3) -0.13233(10) 0.0242(2)
H10 H -0.1265 -0.1661 0.0326
C17 C 0.4391(2) -0.02189(10) 0.33799(18)
C18 C 0.2257(2) -0.18399(9) 0.13752(19)
C19 C -0.3573(3) -0.07110(10) -0.05528(19)
C20 C -0.0662(3) -0.20174(11) 0.6370(2)
C21 C -0.0289(3) -0.11092(10) 0.5982(2)
H11 H -0.0527 -0.0997 0.6488
C22 C 0.2080(3) -0.19009(10) 0.2324(2)
C23 C -0.3086(3) -0.12263(10) -0.0411(2)
C24 C 0.3728(3) 0.02714(10) 0.31227(19)
C25 C 0.6027(3) -0.02792(12) 0.4221(2)
H12 H 0.6286 -0.0636 0.4309
H13 H 0.6215 -0.0141 0.4897
H14 H 0.6616 -0.0099 0.3989
C26 C 0.2856(3) -0.21852(10) 0.0960(2)
H15 H 0.3242 -0.2498 0.1295
C27 C 0.1697(3) -0.12351(11) -0.0038(2)
H16 H 0.1317 -0.0921 -0.0370
C28 C 0.2855(3) -0.20470(12) 0.0037(2)
H17 H 0.3247 -0.2270 -0.0259
C29 C -0.5676(3) -0.00971(11) -0.1505(2)
H18 H -0.5242 0.0070 -0.1881
H19 H -0.5433 0.0103 -0.0868
C30 C 0.2276(3) -0.15793(12) -0.0458(2)
H20 H 0.2277 -0.1496 -0.1086
C31 C 0.3966(3) 0.11974(11) 0.3532(3)
H21 H 0.3196 0.1181 0.3719
H22 H 0.3511 0.1313 0.2789
C32 C -0.7348(3) -0.01315(14) -0.2236(2)
H23 H -0.7579 -0.0318 -0.2878
H24 H -0.7759 0.0207 -0.2429
H25 H -0.7767 -0.0305 -0.1865
C33 C -0.4184(3) -0.16576(12) -0.0949(3)
H26 H -0.3659 -0.1977 -0.0774
H27 H -0.4715 -0.1609 -0.1718
H28 H -0.4875 -0.1660 -0.0697
C34 C 0.5153(4) 0.15742(14) 0.4267(3)
H29 H 0.5894 0.1600 0.4064
H30 H 0.5609 0.1458 0.5002
H31 H 0.4709 0.1904 0.4203
O6 O -0.2165(2) -0.25526(9) 0.27816(18)
N5 N -0.3278(2) -0.17848(10) 0.25759(19)
C35 C -0.3640(3) -0.18823(14) 0.3403(2)
H32 H -0.4695 -0.1931 0.3072
H33 H -0.3336 -0.1596 0.3888
H34 H -0.3131 -0.2185 0.3797
C36 C -0.2563(3) -0.21296(13) 0.2344(3)
H35 H -0.2342 -0.2048 0.1812
C37 C -0.3665(4) -0.12897(14) 0.2053(3)
H36 H -0.4727 -0.1248 0.1671
H37 H -0.3317 -0.1267 0.1553
H38 H -0.3208 -0.1026 0.2588
loop_
_geom_bond_atom_site_label_1
_geom_bond_atom_site_label_2
_geom_bond_site_symmetry_1
_geom_bond_site_symmetry_2
O1 C5 1_555 1_555
O2 C14 1_555 1_555
O3 H1 1_555 1_555
O4 C22 1_555 1_555
O5 C20 1_555 1_555
N1 N2 1_555 1_555
N2 C11 1_555 1_555
N3 H2 1_555 1_555
N4 H3 1_555 1_555
C1 C5 1_555 1_555
C2 C10 1_555 1_555
C3 H4 1_555 1_555
C4 C11 1_555 1_555
C5 C3 1_555 1_555
C6 C12 1_555 1_555
C7 O1 1_555 1_555
C8 C7 1_555 1_555
C9 C7 1_555 1_555
H5 C9 1_555 1_555
C10 N1 1_555 1_555
H6 C10 1_555 1_555
C11 C1 1_555 1_555
C12 C2 1_555 1_555
H7 C12 1_555 1_555
C13 C1 1_555 1_555
H8 C13 1_555 1_555
C14 C2 1_555 1_555
C15 C14 1_555 1_555
H9 C15 1_555 1_555
C16 C8 1_555 1_555
H10 C16 1_555 1_555
C17 C13 1_555 1_555
C18 C4 1_555 1_555
C19 N4 1_555 1_555
C20 O3 1_555 1_555
C21 C6 1_555 1_555
H11 C21 1_555 1_555
C22 N2 1_555 1_555
C23 C16 1_555 1_555
C24 N3 1_555 1_555
C25 C17 1_555 1_555
H12 C25 1_555 1_555
H13 C25 1_555 1_555
H14 C25 1_555 1_555
C26 C18 1_555 1_555
H15 C26 1_555 1_555
C27 C4 1_555 1_555
H16 C27 1_555 1_555
C28 C26 1_555 1_555
H17 C28 1_555 1_555
C29 N4 1_555 1_555
H18 C29 1_555 1_555
H19 C29 1_555 1_555
C30 C27 1_555 1_555
H20 C30 1_555 1_555
C31 N3 1_555 1_555
H21 C31 1_555 1_555
H22 C31 1_555 1_555
C32 C29 1_555 1_555
H23 C32 1_555 1_555
H24 C32 1_555 1_555
H25 C32 1_555 1_555
C33 C23 1_555 1_555
H26 C33 1_555 1_555
H27 C33 1_555 1_555
H28 C33 1_555 1_555
C34 C31 1_555 1_555
H29 C34 1_555 1_555
H30 C34 1_555 1_555
H31 C34 1_555 1_555
O6 C36 1_555 1_555
N5 C35 1_555 1_555
C35 H32 1_555 1_555
H33 C35 1_555 1_555
H34 C35 1_555 1_555
C36 N5 1_555 1_555
H35 C36 1_555 1_555
C37 N5 1_555 1_555
H36 C37 1_555 1_555
H37 C37 1_555 1_555
H38 C37 1_555 1_555
C3 C24 1_555 1_555
C6 C20 1_555 1_555
C8 C11 1_555 1_555
C9 C19 1_555 1_555
C15 C21 1_555 1_555
C17 C24 1_555 1_555
C18 C22 1_555 1_555
C19 C23 1_555 1_555
C28 C30 1_555 1_555

#END
